# Generated by pormake.
# Topology ptr, (4,4)-cn, num edge types: 1
# Building blocks:
#     Node 0, Type 0, BuildingBlock: AZAVOO_clean_sbu_0, # of connection points: 4
#     Node 1, Type 0, BuildingBlock: AZAVOO_clean_sbu_0, # of connection points: 4
#     Node 2, Type 0, BuildingBlock: AZAVOO_clean_sbu_0, # of connection points: 4
#     Node 3, Type 0, BuildingBlock: AZAVOO_clean_sbu_0, # of connection points: 4
#     Node 4, Type 0, BuildingBlock: AZAVOO_clean_sbu_0, # of connection points: 4
#     Node 5, Type 0, BuildingBlock: AZAVOO_clean_sbu_0, # of connection points: 4
#     Node 6, Type 0, BuildingBlock: AZAVOO_clean_sbu_0, # of connection points: 4
#     Node 7, Type 0, BuildingBlock: AZAVOO_clean_sbu_0, # of connection points: 4
#     Node 8, Type 0, BuildingBlock: AZAVOO_clean_sbu_0, # of connection points: 4
#     Node 9, Type 0, BuildingBlock: AZAVOO_clean_sbu_0, # of connection points: 4
#     Node 10, Type 0, BuildingBlock: AZAVOO_clean_sbu_0, # of connection points: 4
#     Node 11, Type 0, BuildingBlock: AZAVOO_clean_sbu_0, # of connection points: 4
#     Node 12, Type 0, BuildingBlock: AZAVOO_clean_sbu_0, # of connection points: 4
#     Node 13, Type 0, BuildingBlock: AZAVOO_clean_sbu_0, # of connection points: 4
#     Node 14, Type 0, BuildingBlock: AZAVOO_clean_sbu_0, # of connection points: 4
#     Node 15, Type 0, BuildingBlock: AZAVOO_clean_sbu_0, # of connection points: 4
#     Node 16, Type 0, BuildingBlock: AZAVOO_clean_sbu_0, # of connection points: 4
#     Node 17, Type 0, BuildingBlock: AZAVOO_clean_sbu_0, # of connection points: 4
#     Node 18, Type 1, BuildingBlock: NAHDIM_clean_linker_0, # of connection points: 4
#     Node 19, Type 1, BuildingBlock: NAHDIM_clean_linker_0, # of connection points: 4
#     Node 20, Type 1, BuildingBlock: NAHDIM_clean_linker_0, # of connection points: 4
#     Node 21, Type 1, BuildingBlock: NAHDIM_clean_linker_0, # of connection points: 4
#     Node 22, Type 1, BuildingBlock: NAHDIM_clean_linker_0, # of connection points: 4
#     Node 23, Type 1, BuildingBlock: NAHDIM_clean_linker_0, # of connection points: 4
#     Node 24, Type 1, BuildingBlock: NAHDIM_clean_linker_0, # of connection points: 4
#     Node 25, Type 1, BuildingBlock: NAHDIM_clean_linker_0, # of connection points: 4
#     Node 26, Type 1, BuildingBlock: NAHDIM_clean_linker_0, # of connection points: 4
#     Node 27, Type 1, BuildingBlock: NAHDIM_clean_linker_0, # of connection points: 4
#     Node 28, Type 1, BuildingBlock: NAHDIM_clean_linker_0, # of connection points: 4
#     Node 29, Type 1, BuildingBlock: NAHDIM_clean_linker_0, # of connection points: 4
#     Node 30, Type 1, BuildingBlock: NAHDIM_clean_linker_0, # of connection points: 4
#     Node 31, Type 1, BuildingBlock: NAHDIM_clean_linker_0, # of connection points: 4
#     Node 32, Type 1, BuildingBlock: NAHDIM_clean_linker_0, # of connection points: 4
#     Node 33, Type 1, BuildingBlock: NAHDIM_clean_linker_0, # of connection points: 4
#     Node 34, Type 1, BuildingBlock: NAHDIM_clean_linker_0, # of connection points: 4
#     Node 35, Type 1, BuildingBlock: NAHDIM_clean_linker_0, # of connection points: 4
#     Edge 36, Type (0, 1), BuildingBlock: MIFKUJ_clean_linker_0, # of connection points: 2
#     Edge 37, Type (0, 1), BuildingBlock: MIFKUJ_clean_linker_0, # of connection points: 2
#     Edge 38, Type (0, 1), BuildingBlock: MIFKUJ_clean_linker_0, # of connection points: 2
#     Edge 39, Type (0, 1), BuildingBlock: MIFKUJ_clean_linker_0, # of connection points: 2
#     Edge 40, Type (0, 1), BuildingBlock: MIFKUJ_clean_linker_0, # of connection points: 2
#     Edge 41, Type (0, 1), BuildingBlock: MIFKUJ_clean_linker_0, # of connection points: 2
#     Edge 42, Type (0, 1), BuildingBlock: MIFKUJ_clean_linker_0, # of connection points: 2
#     Edge 43, Type (0, 1), BuildingBlock: MIFKUJ_clean_linker_0, # of connection points: 2
#     Edge 44, Type (0, 1), BuildingBlock: MIFKUJ_clean_linker_0, # of connection points: 2
#     Edge 45, Type (0, 1), BuildingBlock: MIFKUJ_clean_linker_0, # of connection points: 2
#     Edge 46, Type (0, 1), BuildingBlock: MIFKUJ_clean_linker_0, # of connection points: 2
#     Edge 47, Type (0, 1), BuildingBlock: MIFKUJ_clean_linker_0, # of connection points: 2
#     Edge 48, Type (0, 1), BuildingBlock: MIFKUJ_clean_linker_0, # of connection points: 2
#     Edge 49, Type (0, 1), BuildingBlock: MIFKUJ_clean_linker_0, # of connection points: 2
#     Edge 50, Type (0, 1), BuildingBlock: MIFKUJ_clean_linker_0, # of connection points: 2
#     Edge 51, Type (0, 1), BuildingBlock: MIFKUJ_clean_linker_0, # of connection points: 2
#     Edge 52, Type (0, 1), BuildingBlock: MIFKUJ_clean_linker_0, # of connection points: 2
#     Edge 53, Type (0, 1), BuildingBlock: MIFKUJ_clean_linker_0, # of connection points: 2
#     Edge 54, Type (0, 1), BuildingBlock: MIFKUJ_clean_linker_0, # of connection points: 2
#     Edge 55, Type (0, 1), BuildingBlock: MIFKUJ_clean_linker_0, # of connection points: 2
#     Edge 56, Type (0, 1), BuildingBlock: MIFKUJ_clean_linker_0, # of connection points: 2
#     Edge 57, Type (0, 1), BuildingBlock: MIFKUJ_clean_linker_0, # of connection points: 2
#     Edge 58, Type (0, 1), BuildingBlock: MIFKUJ_clean_linker_0, # of connection points: 2
#     Edge 59, Type (0, 1), BuildingBlock: MIFKUJ_clean_linker_0, # of connection points: 2
#     Edge 60, Type (0, 1), BuildingBlock: MIFKUJ_clean_linker_0, # of connection points: 2
#     Edge 61, Type (0, 1), BuildingBlock: MIFKUJ_clean_linker_0, # of connection points: 2
#     Edge 62, Type (0, 1), BuildingBlock: MIFKUJ_clean_linker_0, # of connection points: 2
#     Edge 63, Type (0, 1), BuildingBlock: MIFKUJ_clean_linker_0, # of connection points: 2
#     Edge 64, Type (0, 1), BuildingBlock: MIFKUJ_clean_linker_0, # of connection points: 2
#     Edge 65, Type (0, 1), BuildingBlock: MIFKUJ_clean_linker_0, # of connection points: 2
#     Edge 66, Type (0, 1), BuildingBlock: MIFKUJ_clean_linker_0, # of connection points: 2
#     Edge 67, Type (0, 1), BuildingBlock: MIFKUJ_clean_linker_0, # of connection points: 2
#     Edge 68, Type (0, 1), BuildingBlock: MIFKUJ_clean_linker_0, # of connection points: 2
#     Edge 69, Type (0, 1), BuildingBlock: MIFKUJ_clean_linker_0, # of connection points: 2
#     Edge 70, Type (0, 1), BuildingBlock: MIFKUJ_clean_linker_0, # of connection points: 2
#     Edge 71, Type (0, 1), BuildingBlock: MIFKUJ_clean_linker_0, # of connection points: 2
#     Edge 72, Type (0, 1), BuildingBlock: MIFKUJ_clean_linker_0, # of connection points: 2
#     Edge 73, Type (0, 1), BuildingBlock: MIFKUJ_clean_linker_0, # of connection points: 2
#     Edge 74, Type (0, 1), BuildingBlock: MIFKUJ_clean_linker_0, # of connection points: 2
#     Edge 75, Type (0, 1), BuildingBlock: MIFKUJ_clean_linker_0, # of connection points: 2
#     Edge 76, Type (0, 1), BuildingBlock: MIFKUJ_clean_linker_0, # of connection points: 2
#     Edge 77, Type (0, 1), BuildingBlock: MIFKUJ_clean_linker_0, # of connection points: 2
#     Edge 78, Type (0, 1), BuildingBlock: MIFKUJ_clean_linker_0, # of connection points: 2
#     Edge 79, Type (0, 1), BuildingBlock: MIFKUJ_clean_linker_0, # of connection points: 2
#     Edge 80, Type (0, 1), BuildingBlock: MIFKUJ_clean_linker_0, # of connection points: 2
#     Edge 81, Type (0, 1), BuildingBlock: MIFKUJ_clean_linker_0, # of connection points: 2
#     Edge 82, Type (0, 1), BuildingBlock: MIFKUJ_clean_linker_0, # of connection points: 2
#     Edge 83, Type (0, 1), BuildingBlock: MIFKUJ_clean_linker_0, # of connection points: 2
#     Edge 84, Type (0, 1), BuildingBlock: MIFKUJ_clean_linker_0, # of connection points: 2
#     Edge 85, Type (0, 1), BuildingBlock: MIFKUJ_clean_linker_0, # of connection points: 2
#     Edge 86, Type (0, 1), BuildingBlock: MIFKUJ_clean_linker_0, # of connection points: 2
#     Edge 87, Type (0, 1), BuildingBlock: MIFKUJ_clean_linker_0, # of connection points: 2
#     Edge 88, Type (0, 1), BuildingBlock: MIFKUJ_clean_linker_0, # of connection points: 2
#     Edge 89, Type (0, 1), BuildingBlock: MIFKUJ_clean_linker_0, # of connection points: 2
#     Edge 90, Type (0, 1), BuildingBlock: MIFKUJ_clean_linker_0, # of connection points: 2
#     Edge 91, Type (0, 1), BuildingBlock: MIFKUJ_clean_linker_0, # of connection points: 2
#     Edge 92, Type (0, 1), BuildingBlock: MIFKUJ_clean_linker_0, # of connection points: 2
#     Edge 93, Type (0, 1), BuildingBlock: MIFKUJ_clean_linker_0, # of connection points: 2
#     Edge 94, Type (0, 1), BuildingBlock: MIFKUJ_clean_linker_0, # of connection points: 2
#     Edge 95, Type (0, 1), BuildingBlock: MIFKUJ_clean_linker_0, # of connection points: 2
#     Edge 96, Type (0, 1), BuildingBlock: MIFKUJ_clean_linker_0, # of connection points: 2
#     Edge 97, Type (0, 1), BuildingBlock: MIFKUJ_clean_linker_0, # of connection points: 2
#     Edge 98, Type (0, 1), BuildingBlock: MIFKUJ_clean_linker_0, # of connection points: 2
#     Edge 99, Type (0, 1), BuildingBlock: MIFKUJ_clean_linker_0, # of connection points: 2
#     Edge 100, Type (0, 1), BuildingBlock: MIFKUJ_clean_linker_0, # of connection points: 2
#     Edge 101, Type (0, 1), BuildingBlock: MIFKUJ_clean_linker_0, # of connection points: 2
#     Edge 102, Type (0, 1), BuildingBlock: MIFKUJ_clean_linker_0, # of connection points: 2
#     Edge 103, Type (0, 1), BuildingBlock: MIFKUJ_clean_linker_0, # of connection points: 2
#     Edge 104, Type (0, 1), BuildingBlock: MIFKUJ_clean_linker_0, # of connection points: 2
#     Edge 105, Type (0, 1), BuildingBlock: MIFKUJ_clean_linker_0, # of connection points: 2
#     Edge 106, Type (0, 1), BuildingBlock: MIFKUJ_clean_linker_0, # of connection points: 2
#     Edge 107, Type (0, 1), BuildingBlock: MIFKUJ_clean_linker_0, # of connection points: 2
# Relax obj value: 0.102
# Max RMSD: 0.340
# Mean RMSD: 0.134
data_MOF--net-ptr--node1-AZAVOO_clean_sbu_0--node2-NAHDIM_clean_linker_0--edge1-MIFKUJ_clean_linker_0
_symmetry_space_group_name_H-M    P1
_symmetry_Int_Tables_number       1
_symmetry_cell_setting            triclinic
loop_
_symmetry_equiv_pos_as_xyz
'x, y, z'
_cell_length_a     115.50355
_cell_length_b     113.04841
_cell_length_c     94.6098
_cell_angle_alpha  91.614439
_cell_angle_beta   91.007455
_cell_angle_gamma 120.32287
loop_
_atom_site_label
_atom_site_type_symbol
_atom_site_fract_x
_atom_site_fract_y
_atom_site_fract_z
_atom_type_partial_charge
Mg0 Mg 0.0138 0.33948 0.99286 0.0
O1 O 0.00572 0.34611 0.01167 0.0
O2 O 0.98765 0.34673 0.00392 0.0
Mg3 Mg 0.98372 0.33981 0.98054 0.0
C4 C 0.99614 0.34844 0.01375 0.0
C5 C 0.03925 0.34004 0.00577 0.0
O6 O 0.0445 0.34765 0.99482 0.0
O7 O 0.99697 0.31727 0.99375 0.0
O8 O 0.97918 0.31802 0.98532 0.0
O9 O 0.026 0.36142 0.98677 0.0
O10 O 0.00532 0.34711 0.97875 0.0
C11 C 0.98457 0.31135 0.98996 0.0
C12 C 0.01559 0.35932 0.97926 0.0
O13 O 0.02691 0.33542 0.00805 0.0
Mg14 Mg 0.66559 0.65341 0.02858 0.0
O15 O 0.64849 0.64785 0.01217 0.0
O16 O 0.63059 0.64426 0.02419 0.0
Mg17 Mg 0.63601 0.64729 0.04788 0.0
C18 C 0.63622 0.64475 0.01256 0.0
C19 C 0.6933 0.6678 0.01577 0.0
O20 O 0.69602 0.66994 0.02947 0.0
O21 O 0.66846 0.67471 0.03252 0.0
O22 O 0.65095 0.67029 0.04567 0.0
O23 O 0.65921 0.63127 0.03037 0.0
O24 O 0.65163 0.64212 0.04359 0.0
C25 C 0.66184 0.67874 0.03988 0.0
C26 C 0.65122 0.63082 0.04004 0.0
O27 O 0.68108 0.66116 0.01144 0.0
Mg28 Mg 0.33572 0.98056 0.98434 0.0
O29 O 0.35197 0.99239 0.00155 0.0
O30 O 0.37107 0.00724 0.99164 0.0
Mg31 Mg 0.36637 0.00579 0.9678 0.0
C32 C 0.36438 0.00156 0.00251 0.0
C33 C 0.32031 0.96627 0.01188 0.0
O34 O 0.33007 0.9636 0.01351 0.0
O35 O 0.33298 0.99889 0.98173 0.0
O36 O 0.35178 0.01382 0.97138 0.0
O37 O 0.34326 0.96585 0.98233 0.0
O38 O 0.3502 0.98434 0.96972 0.0
C39 C 0.34038 0.01051 0.97641 0.0
C40 C 0.35134 0.97406 0.9732 0.0
O41 O 0.32002 0.97268 0.00118 0.0
Mg42 Mg 0.9905 0.66108 0.03568 0.0
O43 O 0.00098 0.6558 0.01846 0.0
O44 O 0.01695 0.65301 0.02872 0.0
Mg45 Mg 0.01661 0.65662 0.05271 0.0
C46 C 0.01041 0.65307 0.01771 0.0
C47 C 0.97378 0.67288 0.02305 0.0
O48 O 0.97133 0.67286 0.03656 0.0
O49 O 0.0084 0.68267 0.03851 0.0
O50 O 0.02347 0.67953 0.0504 0.0
O51 O 0.9762 0.63868 0.03785 0.0
O52 O 0.99529 0.65063 0.05029 0.0
C53 C 0.01978 0.68738 0.04493 0.0
C54 C 0.98483 0.63893 0.04696 0.0
O55 O 0.98122 0.66825 0.019 0.0
Mg56 Mg 0.33974 0.3516 0.99296 0.0
O57 O 0.35725 0.35573 0.00807 0.0
O58 O 0.3743 0.35834 0.99511 0.0
Mg59 Mg 0.36768 0.35601 0.97173 0.0
C60 C 0.36922 0.35801 0.00707 0.0
C61 C 0.31585 0.34675 0.01103 0.0
O62 O 0.31523 0.35423 0.00099 0.0
O63 O 0.3352 0.32992 0.98775 0.0
O64 O 0.3521 0.33309 0.97416 0.0
O65 O 0.34774 0.37411 0.99224 0.0
O66 O 0.35303 0.36231 0.97733 0.0
C67 C 0.34112 0.32522 0.98016 0.0
C68 C 0.35469 0.37398 0.98169 0.0
O69 O 0.3253 0.34409 0.01109 0.0
Mg70 Mg 0.66877 0.01573 0.03563 0.0
O71 O 0.65295 0.00433 0.01763 0.0
O72 O 0.63439 0.98789 0.02709 0.0
Mg73 Mg 0.63847 0.98854 0.0509 0.0
C74 C 0.6408 0.99447 0.01643 0.0
C75 C 0.68437 0.02979 0.00792 0.0
O76 O 0.67321 0.0295 0.00427 0.0
O77 O 0.67252 0.99805 0.03748 0.0
O78 O 0.65416 0.98185 0.04747 0.0
O79 O 0.661 0.03003 0.03885 0.0
O80 O 0.65358 0.0106 0.04982 0.0
C81 C 0.6658 0.9862 0.04254 0.0
C82 C 0.65256 0.0212 0.04733 0.0
O83 O 0.68532 0.02527 0.01977 0.0
Mg84 Mg 0.68051 0.6803 0.3308 0.0
O85 O 0.66874 0.68496 0.34738 0.0
O86 O 0.65324 0.68719 0.33515 0.0
Mg87 Mg 0.6555 0.68504 0.31144 0.0
C88 C 0.65889 0.68712 0.34685 0.0
C89 C 0.70216 0.67732 0.34618 0.0
O90 O 0.70841 0.68585 0.33613 0.0
O91 O 0.66292 0.65851 0.32636 0.0
O92 O 0.64888 0.66227 0.31331 0.0
O93 O 0.69501 0.7028 0.32931 0.0
O94 O 0.67656 0.69115 0.3159 0.0
C95 C 0.65208 0.65411 0.31892 0.0
C96 C 0.68698 0.70276 0.31955 0.0
O97 O 0.68974 0.67299 0.34755 0.0
Mg98 Mg 0.3263 0.9811 0.36457 0.0
O99 O 0.30748 0.97464 0.35053 0.0
O100 O 0.29113 0.97213 0.36462 0.0
Mg101 Mg 0.29941 0.97691 0.38751 0.0
C102 C 0.29541 0.97175 0.35236 0.0
C103 C 0.35181 0.99321 0.34736 0.0
O104 O 0.35667 0.9973 0.36038 0.0
O105 O 0.32978 0.00275 0.36752 0.0
O106 O 0.31383 0.99948 0.38258 0.0
O107 O 0.31976 0.95911 0.36754 0.0
O108 O 0.31448 0.97144 0.38164 0.0
C109 C 0.32394 0.00737 0.37536 0.0
C110 C 0.31327 0.95974 0.37828 0.0
O111 O 0.33916 0.98658 0.34521 0.0
Mg112 Mg 0.01072 0.31719 0.32222 0.0
O113 O 0.0299 0.32875 0.33632 0.0
O114 O 0.04747 0.33793 0.32229 0.0
Mg115 Mg 0.03945 0.33218 0.29931 0.0
C116 C 0.04253 0.33576 0.33456 0.0
C117 C 0.9865 0.31428 0.33766 0.0
O118 O 0.98371 0.31533 0.32439 0.0
O119 O 0.01254 0.33753 0.31625 0.0
O120 O 0.02975 0.34548 0.30178 0.0
O121 O 0.01287 0.2986 0.32268 0.0
O122 O 0.02127 0.31424 0.30643 0.0
C123 C 0.02057 0.34658 0.30797 0.0
C124 C 0.02009 0.30334 0.31168 0.0
O125 O 0.99769 0.31523 0.34078 0.0
Mg126 Mg 0.65651 0.98168 0.36299 0.0
O127 O 0.66954 0.97792 0.34748 0.0
O128 O 0.68486 0.97583 0.36014 0.0
Mg129 Mg 0.68173 0.97843 0.3836 0.0
C130 C 0.67947 0.97592 0.34828 0.0
C131 C 0.64244 0.98021 0.33402 0.0
O132 O 0.64324 0.96904 0.33263 0.0
O133 O 0.67319 0.00364 0.36752 0.0
O134 O 0.68804 0.00116 0.38068 0.0
O135 O 0.64281 0.95925 0.364 0.0
O136 O 0.66043 0.97136 0.37855 0.0
C137 C 0.68422 0.0087 0.37474 0.0
C138 C 0.65048 0.95957 0.37434 0.0
O139 O 0.64751 0.98791 0.34511 0.0
Mg140 Mg 0.01737 0.69507 0.33214 0.0
O141 O 0.03488 0.70067 0.34787 0.0
O142 O 0.05288 0.70553 0.33536 0.0
Mg143 Mg 0.04713 0.70389 0.31178 0.0
C144 C 0.04724 0.70417 0.34718 0.0
C145 C 0.99371 0.68959 0.35078 0.0
O146 O 0.99444 0.6991 0.34254 0.0
O147 O 0.0156 0.67443 0.3266 0.0
O148 O 0.03309 0.68056 0.3128 0.0
O149 O 0.02286 0.71714 0.33161 0.0
O150 O 0.0306 0.70733 0.31715 0.0
C151 C 0.02251 0.67137 0.31848 0.0
C152 C 0.03054 0.71822 0.32131 0.0
O153 O 0.00225 0.68573 0.34952 0.0
Mg154 Mg 0.32458 0.34771 0.35912 0.0
O155 O 0.30741 0.33418 0.34313 0.0
O156 O 0.28981 0.31932 0.35516 0.0
Mg157 Mg 0.29567 0.32366 0.37879 0.0
C158 C 0.29532 0.32425 0.34351 0.0
C159 C 0.34567 0.36641 0.33709 0.0
O160 O 0.34294 0.37556 0.34241 0.0
O161 O 0.3282 0.33031 0.36358 0.0
O162 O 0.31092 0.31615 0.37644 0.0
O163 O 0.31764 0.36279 0.36058 0.0
O164 O 0.31076 0.34511 0.3743 0.0
C165 C 0.32203 0.31953 0.37064 0.0
C166 C 0.30999 0.35558 0.37055 0.0
O167 O 0.33958 0.35432 0.34154 0.0
Mg168 Mg 0.3488 0.01972 0.66259 0.0
O169 O 0.33661 0.02595 0.67681 0.0
O170 O 0.32221 0.0282 0.66262 0.0
Mg171 Mg 0.32525 0.02381 0.63967 0.0
C172 C 0.32721 0.02866 0.67492 0.0
C173 C 0.36179 0.0063 0.68008 0.0
O174 O 0.36069 0.00057 0.66747 0.0
O175 O 0.33088 0.99791 0.65936 0.0
O176 O 0.31789 0.00126 0.64416 0.0
O177 O 0.36404 0.04172 0.65976 0.0
O178 O 0.34594 0.02975 0.64587 0.0
C179 C 0.32038 0.99331 0.65126 0.0
C180 C 0.35648 0.04136 0.64931 0.0
O181 O 0.35708 0.01424 0.6818 0.0
Mg182 Mg 0.99152 0.30872 0.69119 0.0
O183 O 0.97353 0.30252 0.67581 0.0
O184 O 0.95551 0.29594 0.68894 0.0
Mg185 Mg 0.96162 0.29716 0.71226 0.0
C186 C 0.96101 0.29814 0.67696 0.0
C187 C 0.01268 0.31355 0.66917 0.0
O188 O 0.0099 0.30173 0.6742 0.0
O189 O 0.99193 0.32851 0.69793 0.0
O190 O 0.97408 0.32065 0.71152 0.0
O191 O 0.98727 0.28708 0.69039 0.0
O192 O 0.97885 0.29529 0.70597 0.0
C193 C 0.98433 0.33054 0.70608 0.0
C194 C 0.97949 0.28498 0.70086 0.0
O195 O 0.00637 0.31932 0.67372 0.0
Mg196 Mg 0.6781 0.65135 0.66374 0.0
O197 O 0.6959 0.66451 0.67934 0.0
O198 O 0.7131 0.67889 0.66648 0.0
Mg199 Mg 0.70649 0.67509 0.64311 0.0
C200 C 0.70807 0.67415 0.67836 0.0
C201 C 0.65514 0.63137 0.68225 0.0
O202 O 0.6558 0.62285 0.67301 0.0
O203 O 0.67488 0.66932 0.66057 0.0
O204 O 0.69187 0.68296 0.64712 0.0
O205 O 0.68462 0.63589 0.66117 0.0
O206 O 0.69144 0.65396 0.64805 0.0
C207 C 0.6812 0.68013 0.65356 0.0
C208 C 0.69221 0.64339 0.65132 0.0
O209 O 0.66344 0.64414 0.68163 0.0
Mg210 Mg 0.32521 0.32188 0.69172 0.0
O211 O 0.33752 0.3171 0.6762 0.0
O212 O 0.35197 0.31382 0.6891 0.0
Mg213 Mg 0.34823 0.31547 0.71263 0.0
C214 C 0.34704 0.31447 0.67715 0.0
C215 C 0.31547 0.33967 0.67846 0.0
O216 O 0.31711 0.3433 0.69199 0.0
O217 O 0.34313 0.343 0.69715 0.0
O218 O 0.35607 0.33872 0.71142 0.0
O219 O 0.30987 0.29963 0.6921 0.0
O220 O 0.32754 0.31019 0.70684 0.0
C221 C 0.35347 0.34711 0.70532 0.0
C222 C 0.31701 0.29895 0.70243 0.0
O223 O 0.31813 0.33054 0.67428 0.0
Mg224 Mg 0.68268 0.02342 0.65284 0.0
O225 O 0.69997 0.02742 0.66824 0.0
O226 O 0.71675 0.02897 0.65551 0.0
Mg227 Mg 0.71025 0.02627 0.63208 0.0
C228 C 0.71176 0.02919 0.66739 0.0
C229 C 0.6571 0.01646 0.66805 0.0
O230 O 0.65474 0.01907 0.65521 0.0
O231 O 0.67745 0.00139 0.64855 0.0
O232 O 0.69414 0.00361 0.63514 0.0
O233 O 0.69109 0.04583 0.6514 0.0
O234 O 0.69613 0.03343 0.63705 0.0
C235 C 0.6831 0.99619 0.64126 0.0
C236 C 0.69796 0.04529 0.64098 0.0
O237 O 0.66828 0.0173 0.67091 0.0
Mg238 Mg 0.98614 0.6839 0.68876 0.0
O239 O 0.96922 0.67271 0.67171 0.0
O240 O 0.95025 0.65974 0.68291 0.0
Mg241 Mg 0.95478 0.66307 0.70677 0.0
C242 C 0.95662 0.6641 0.67154 0.0
C243 C 0.01248 0.70139 0.67375 0.0
O244 O 0.01313 0.70967 0.68417 0.0
O245 O 0.98594 0.66414 0.69308 0.0
O246 O 0.96715 0.65223 0.70495 0.0
O247 O 0.98264 0.70157 0.69021 0.0
O248 O 0.9724 0.68327 0.70307 0.0
C249 C 0.97787 0.65358 0.69974 0.0
C250 C 0.97393 0.69491 0.69963 0.0
O251 O 0.00212 0.68951 0.67232 0.0
C252 C 0.18606 0.25381 0.06453 0.0
C253 C 0.1906 0.26655 0.07425 0.0
C254 C 0.18338 0.26754 0.09796 0.0
C255 C 0.18759 0.28153 0.09933 0.0
C256 C 0.18192 0.28636 0.10929 0.0
C257 C 0.17154 0.27692 0.11777 0.0
C258 C 0.16729 0.26277 0.11636 0.0
C259 C 0.17356 0.25834 0.10672 0.0
C260 C 0.18691 0.30154 0.11057 0.0
C261 C 0.15595 0.25224 0.12477 0.0
C262 C 0.10909 0.30961 0.07659 0.0
C263 C 0.11865 0.30662 0.08424 0.0
C264 C 0.12339 0.30028 0.10677 0.0
C265 C 0.11786 0.28765 0.11314 0.0
C266 C 0.12598 0.28417 0.12118 0.0
C267 C 0.13986 0.29378 0.12321 0.0
C268 C 0.14532 0.30688 0.11744 0.0
C269 C 0.13703 0.30996 0.10921 0.0
C270 C 0.11981 0.2701 0.12713 0.0
C271 C 0.15997 0.31752 0.1197 0.0
C272 C 0.13228 0.30052 0.21813 0.0
C273 C 0.12651 0.28748 0.21139 0.0
C274 C 0.13399 0.28412 0.20231 0.0
C275 C 0.14747 0.29411 0.19983 0.0
C276 C 0.15338 0.30717 0.20689 0.0
C277 C 0.14573 0.31014 0.21613 0.0
C278 C 0.12751 0.26991 0.19541 0.0
C279 C 0.16774 0.31803 0.20456 0.0
C280 C 0.22117 0.25955 0.208 0.0
C281 C 0.21824 0.27095 0.21204 0.0
C282 C 0.19689 0.27009 0.2069 0.0
C283 C 0.18334 0.26076 0.2038 0.0
C284 C 0.175 0.26492 0.1974 0.0
C285 C 0.18037 0.27884 0.19421 0.0
C286 C 0.19399 0.28846 0.19775 0.0
C287 C 0.20213 0.28399 0.2041 0.0
C288 C 0.16048 0.25442 0.19394 0.0
C289 C 0.19992 0.30343 0.19477 0.0
C290 C 0.16477 0.28177 0.12764 0.0
C291 C 0.15581 0.28535 0.12183 0.0
C292 C 0.14889 0.28982 0.13039 0.0
C293 C 0.15074 0.29049 0.14527 0.0
C294 C 0.14391 0.29484 0.15424 0.0
C295 C 0.14551 0.29508 0.16889 0.0
C296 C 0.15406 0.29104 0.17513 0.0
C297 C 0.15542 0.29081 0.19 0.0
C298 C 0.16419 0.28698 0.19584 0.0
C299 C 0.17167 0.2833 0.18724 0.0
C300 C 0.17036 0.28334 0.17234 0.0
C301 C 0.17771 0.27967 0.16337 0.0
C302 C 0.1761 0.2794 0.14873 0.0
C303 C 0.16692 0.2826 0.1425 0.0
C304 C 0.1597 0.28675 0.15134 0.0
C305 C 0.16141 0.2871 0.16628 0.0
C306 C 0.11507 0.31624 0.21787 0.0
C307 C 0.11283 0.30258 0.22309 0.0
O308 O 0.1885 0.26264 0.08815 0.0
O309 O 0.20446 0.26527 0.21272 0.0
O310 O 0.12514 0.30397 0.2268 0.0
O311 O 0.11551 0.30286 0.0981 0.0
H312 H 0.18421 0.27095 0.07125 0.0
H313 H 0.17523 0.24644 0.06588 0.0
H314 H 0.19182 0.24866 0.0671 0.0
H315 H 0.1875 0.25667 0.05329 0.0
H316 H 0.19538 0.28869 0.09267 0.0
H317 H 0.17043 0.24756 0.10557 0.0
H318 H 0.17951 0.30358 0.10523 0.0
H319 H 0.19671 0.30767 0.10553 0.0
H320 H 0.18799 0.30505 0.12184 0.0
H321 H 0.15215 0.24163 0.12041 0.0
H322 H 0.14749 0.25425 0.12493 0.0
H323 H 0.15954 0.25284 0.13586 0.0
H324 H 0.12947 0.31424 0.08289 0.0
H325 H 0.10028 0.29393 0.06075 0.0
H326 H 0.11517 0.32078 0.07413 0.0
H327 H 0.10311 0.31122 0.08493 0.0
H328 H 0.10727 0.28031 0.1113 0.0
H329 H 0.1412 0.31991 0.10464 0.0
H330 H 0.12114 0.27105 0.13883 0.0
H331 H 0.12502 0.26475 0.12311 0.0
H332 H 0.10893 0.26368 0.1243 0.0
H333 H 0.16228 0.32775 0.11614 0.0
H334 H 0.1661 0.31424 0.11369 0.0
H335 H 0.16302 0.31849 0.13107 0.0
H336 H 0.10774 0.29472 0.21429 0.0
H337 H 0.11621 0.27988 0.21338 0.0
H338 H 0.15011 0.32011 0.22157 0.0
H339 H 0.12632 0.27051 0.18383 0.0
H340 H 0.11748 0.26292 0.1996 0.0
H341 H 0.13402 0.26541 0.19707 0.0
H342 H 0.17048 0.32803 0.20991 0.0
H343 H 0.16938 0.31952 0.19306 0.0
H344 H 0.17457 0.31461 0.2087 0.0
H345 H 0.22229 0.27847 0.20353 0.0
H346 H 0.23215 0.26381 0.20715 0.0
H347 H 0.2162 0.25467 0.19759 0.0
H348 H 0.21733 0.25156 0.21603 0.0
H349 H 0.17935 0.2501 0.2062 0.0
H350 H 0.2125 0.2914 0.20697 0.0
H351 H 0.15831 0.25418 0.18242 0.0
H352 H 0.1539 0.25736 0.19958 0.0
H353 H 0.15789 0.24395 0.19694 0.0
H354 H 0.21063 0.30967 0.19835 0.0
H355 H 0.19415 0.30754 0.20019 0.0
H356 H 0.1991 0.30457 0.18324 0.0
H357 H 0.15419 0.28467 0.11042 0.0
H358 H 0.13714 0.29797 0.15003 0.0
H359 H 0.13991 0.29841 0.17527 0.0
H360 H 0.16508 0.28671 0.20725 0.0
H361 H 0.18478 0.27692 0.16756 0.0
H362 H 0.18206 0.27653 0.14236 0.0
H363 H 0.12011 0.32447 0.2263 0.0
H364 H 0.10534 0.31533 0.21466 0.0
H365 H 0.12151 0.3192 0.20853 0.0
C366 C 0.74911 0.92186 0.06872 0.0
C367 C 0.73783 0.91778 0.07912 0.0
C368 C 0.73916 0.91393 0.10409 0.0
C369 C 0.72553 0.90457 0.10597 0.0
C370 C 0.72154 0.8954 0.11698 0.0
C371 C 0.73141 0.89547 0.12615 0.0
C372 C 0.74511 0.90544 0.12473 0.0
C373 C 0.74877 0.91474 0.11385 0.0
C374 C 0.70681 0.8852 0.1184 0.0
C375 C 0.75596 0.90577 0.13416 0.0
C376 C 0.7135 0.79706 0.08904 0.0
C377 C 0.72007 0.81028 0.09746 0.0
C378 C 0.71403 0.82437 0.11222 0.0
C379 C 0.72722 0.8338 0.1171 0.0
C380 C 0.72997 0.84529 0.12575 0.0
C381 C 0.71932 0.84737 0.12958 0.0
C382 C 0.70601 0.8377 0.125 0.0
C383 C 0.70355 0.82629 0.11641 0.0
C384 C 0.74426 0.85537 0.13055 0.0
C385 C 0.69443 0.83961 0.12889 0.0
C386 C 0.71823 0.83277 0.22247 0.0
C387 C 0.73088 0.84363 0.21894 0.0
C388 C 0.73198 0.85433 0.21083 0.0
C389 C 0.72024 0.85429 0.20626 0.0
C390 C 0.70753 0.84364 0.21015 0.0
C391 C 0.7067 0.83301 0.2182 0.0
C392 C 0.74571 0.86558 0.20693 0.0
C393 C 0.69482 0.84337 0.20554 0.0
C394 C 0.73757 0.95872 0.21578 0.0
C395 C 0.72764 0.94455 0.22104 0.0
C396 C 0.73167 0.92543 0.21656 0.0
C397 C 0.74235 0.92315 0.21457 0.0
C398 C 0.74038 0.91112 0.20759 0.0
C399 C 0.72731 0.90102 0.2027 0.0
C400 C 0.71636 0.90305 0.20509 0.0
C401 C 0.71864 0.91524 0.21204 0.0
C402 C 0.75226 0.90923 0.20538 0.0
C403 C 0.70227 0.89233 0.20029 0.0
C404 C 0.72763 0.88391 0.13562 0.0
C405 C 0.72526 0.87153 0.1293 0.0
C406 C 0.72221 0.86022 0.13733 0.0
C407 C 0.72182 0.8613 0.1522 0.0
C408 C 0.71938 0.8503 0.16066 0.0
C409 C 0.71922 0.85154 0.17532 0.0
C410 C 0.72128 0.86374 0.18206 0.0
C411 C 0.7213 0.86515 0.19697 0.0
C412 C 0.72308 0.8773 0.20331 0.0
C413 C 0.72511 0.88829 0.19518 0.0
C414 C 0.72548 0.88722 0.18027 0.0
C415 C 0.72786 0.89819 0.17177 0.0
C416 C 0.72849 0.89712 0.15712 0.0
C417 C 0.72673 0.88504 0.15044 0.0
C418 C 0.72399 0.87373 0.15877 0.0
C419 C 0.72352 0.87488 0.17371 0.0
C420 C 0.73091 0.8138 0.22081 0.0
C421 C 0.72648 0.81887 0.23372 0.0
O422 O 0.74337 0.92195 0.09273 0.0
O423 O 0.73434 0.93742 0.22317 0.0
O424 O 0.71664 0.82185 0.22975 0.0
O425 O 0.71099 0.81342 0.10338 0.0
H426 H 0.73163 0.90636 0.07812 0.0
H427 H 0.75474 0.91654 0.07117 0.0
H428 H 0.75627 0.93309 0.06946 0.0
H429 H 0.74489 0.91881 0.0577 0.0
H430 H 0.71803 0.90425 0.09869 0.0
H431 H 0.75925 0.92216 0.11239 0.0
H432 H 0.70458 0.87502 0.11404 0.0
H433 H 0.70037 0.88825 0.11256 0.0
H434 H 0.70417 0.88411 0.12971 0.0
H435 H 0.76617 0.91376 0.13123 0.0
H436 H 0.75533 0.89564 0.13355 0.0
H437 H 0.75449 0.90785 0.14532 0.0
H438 H 0.72837 0.81908 0.09213 0.0
H439 H 0.71658 0.79991 0.07785 0.0
H440 H 0.70278 0.79432 0.08697 0.0
H441 H 0.71869 0.78468 0.10043 0.0
H442 H 0.73543 0.83235 0.11409 0.0
H443 H 0.6934 0.81892 0.11267 0.0
H444 H 0.7449 0.85713 0.14222 0.0
H445 H 0.74755 0.86537 0.12572 0.0
H446 H 0.75128 0.85178 0.12758 0.0
H447 H 0.68461 0.83095 0.12482 0.0
H448 H 0.69585 0.84925 0.12452 0.0
H449 H 0.69416 0.84059 0.14058 0.0
H450 H 0.73529 0.82822 0.23862 0.0
H451 H 0.73995 0.84379 0.22231 0.0
H452 H 0.69699 0.82468 0.22103 0.0
H453 H 0.74635 0.86589 0.19524 0.0
H454 H 0.75389 0.86417 0.21134 0.0
H455 H 0.74733 0.87566 0.21091 0.0
H456 H 0.68574 0.83467 0.20992 0.0
H457 H 0.69376 0.8425 0.19381 0.0
H458 H 0.69539 0.85312 0.209 0.0
H459 H 0.71957 0.93936 0.21265 0.0
H460 H 0.73246 0.96465 0.21382 0.0
H461 H 0.74177 0.95759 0.20569 0.0
H462 H 0.74599 0.96455 0.22366 0.0
H463 H 0.75233 0.93098 0.21832 0.0
H464 H 0.71021 0.91663 0.21412 0.0
H465 H 0.753 0.90729 0.19395 0.0
H466 H 0.75082 0.90013 0.21102 0.0
H467 H 0.76186 0.91831 0.20929 0.0
H468 H 0.69478 0.89531 0.2032 0.0
H469 H 0.69951 0.88243 0.20508 0.0
H470 H 0.70177 0.89064 0.18862 0.0
H471 H 0.72581 0.87069 0.1179 0.0
H472 H 0.71771 0.84067 0.15603 0.0
H473 H 0.71742 0.84278 0.18129 0.0
H474 H 0.7231 0.8783 0.21476 0.0
H475 H 0.72935 0.90777 0.17635 0.0
H476 H 0.73039 0.90589 0.15109 0.0
H477 H 0.73854 0.8111 0.22411 0.0
H478 H 0.73546 0.82188 0.21296 0.0
H479 H 0.72219 0.80463 0.21556 0.0
C480 C 0.19158 0.90794 0.07971 0.0
C481 C 0.20168 0.91634 0.09189 0.0
C482 C 0.18907 0.9017 0.11126 0.0
C483 C 0.17985 0.90627 0.11275 0.0
C484 C 0.1684 0.89905 0.12077 0.0
C485 C 0.16604 0.88694 0.12727 0.0
C486 C 0.17544 0.88247 0.126 0.0
C487 C 0.18695 0.89006 0.11818 0.0
C488 C 0.15873 0.90427 0.12214 0.0
C489 C 0.17318 0.86951 0.13261 0.0
C490 C 0.08074 0.83807 0.06937 0.0
C491 C 0.08747 0.83261 0.07916 0.0
C492 C 0.09604 0.84117 0.10318 0.0
C493 C 0.1051 0.83645 0.10477 0.0
C494 C 0.11568 0.8426 0.11498 0.0
C495 C 0.11743 0.85396 0.12349 0.0
C496 C 0.10814 0.85859 0.12198 0.0
C497 C 0.09735 0.85185 0.11209 0.0
C498 C 0.12512 0.83712 0.11647 0.0
C499 C 0.10981 0.87094 0.1304 0.0
C500 C 0.09002 0.83789 0.21283 0.0
C501 C 0.09848 0.83257 0.21011 0.0
C502 C 0.11089 0.84059 0.20386 0.0
C503 C 0.11487 0.85416 0.20026 0.0
C504 C 0.10656 0.85966 0.20343 0.0
C505 C 0.09429 0.85148 0.20983 0.0
C506 C 0.11967 0.83454 0.20092 0.0
C507 C 0.11052 0.87412 0.19984 0.0
C508 C 0.20545 0.94173 0.22438 0.0
C509 C 0.19978 0.93025 0.23498 0.0
C510 C 0.18557 0.90897 0.22061 0.0
C511 C 0.18415 0.89643 0.21601 0.0
C512 C 0.17288 0.8868 0.20778 0.0
C513 C 0.16289 0.88994 0.20382 0.0
C514 C 0.16423 0.9026 0.20845 0.0
C515 C 0.17548 0.91193 0.21688 0.0
C516 C 0.1717 0.87333 0.20319 0.0
C517 C 0.1538 0.90631 0.2044 0.0
C518 C 0.15346 0.87862 0.13484 0.0
C519 C 0.14177 0.87012 0.1267 0.0
C520 C 0.12956 0.86174 0.13301 0.0
C521 C 0.12904 0.86153 0.14795 0.0
C522 C 0.11712 0.85278 0.15471 0.0
C523 C 0.1166 0.85303 0.1694 0.0
C524 C 0.12803 0.86196 0.17791 0.0
C525 C 0.12754 0.8625 0.19284 0.0
C526 C 0.13909 0.87151 0.20096 0.0
C527 C 0.15119 0.88016 0.19459 0.0
C528 C 0.15187 0.8798 0.17967 0.0
C529 C 0.16382 0.88847 0.1729 0.0
C530 C 0.16439 0.88808 0.15823 0.0
C531 C 0.15299 0.87907 0.14975 0.0
C532 C 0.14077 0.87038 0.15633 0.0
C533 C 0.14024 0.87066 0.17132 0.0
C534 C 0.05518 0.81283 0.21299 0.0
C535 C 0.0695 0.81618 0.21669 0.0
O536 O 0.19999 0.90804 0.10312 0.0
O537 O 0.19685 0.91787 0.22843 0.0
O538 O 0.07772 0.83028 0.21831 0.0
O539 O 0.08604 0.83573 0.09307 0.0
H540 H 0.20018 0.92492 0.09545 0.0
H541 H 0.18114 0.90376 0.08313 0.0
H542 H 0.19289 0.89925 0.07615 0.0
H543 H 0.193 0.91449 0.07061 0.0
H544 H 0.18147 0.91541 0.10767 0.0
H545 H 0.19416 0.88668 0.11704 0.0
H546 H 0.14924 0.89717 0.11613 0.0
H547 H 0.16282 0.91469 0.11801 0.0
H548 H 0.15626 0.90453 0.13339 0.0
H549 H 0.18088 0.86685 0.12966 0.0
H550 H 0.16311 0.86081 0.12928 0.0
H551 H 0.17345 0.87079 0.1443 0.0
H552 H 0.09832 0.83795 0.07664 0.0
H553 H 0.08198 0.83599 0.05811 0.0
H554 H 0.08544 0.84934 0.07122 0.0
H555 H 0.06986 0.83319 0.0714 0.0
H556 H 0.10387 0.82794 0.09805 0.0
H557 H 0.09021 0.85533 0.1108 0.0
H558 H 0.13472 0.84416 0.11151 0.0
H559 H 0.12092 0.82677 0.11124 0.0
H560 H 0.12739 0.83657 0.12781 0.0
H561 H 0.10322 0.87464 0.12615 0.0
H562 H 0.12038 0.87949 0.13043 0.0
H563 H 0.10719 0.86821 0.14153 0.0
H564 H 0.07262 0.8121 0.20758 0.0
H565 H 0.09545 0.8222 0.21289 0.0
H566 H 0.08777 0.85553 0.21216 0.0
H567 H 0.12075 0.83391 0.18933 0.0
H568 H 0.11551 0.82411 0.20507 0.0
H569 H 0.12986 0.84131 0.20577 0.0
H570 H 0.1027 0.87669 0.2025 0.0
H571 H 0.11244 0.87552 0.18838 0.0
H572 H 0.11998 0.88146 0.20575 0.0
H573 H 0.1905 0.9294 0.23928 0.0
H574 H 0.20841 0.95174 0.22985 0.0
H575 H 0.19781 0.93978 0.21597 0.0
H576 H 0.21433 0.94246 0.21921 0.0
H577 H 0.19194 0.89419 0.21894 0.0
H578 H 0.17631 0.92153 0.22034 0.0
H579 H 0.17234 0.87283 0.19152 0.0
H580 H 0.16177 0.86469 0.20599 0.0
H581 H 0.17971 0.87196 0.20814 0.0
H582 H 0.15689 0.91704 0.20773 0.0
H583 H 0.14425 0.89931 0.20947 0.0
H584 H 0.15181 0.90498 0.19277 0.0
H585 H 0.14215 0.87016 0.11525 0.0
H586 H 0.10803 0.84568 0.14869 0.0
H587 H 0.1071 0.84616 0.174 0.0
H588 H 0.13861 0.87195 0.2124 0.0
H589 H 0.1729 0.89568 0.17886 0.0
H590 H 0.17386 0.895 0.1536 0.0
H591 H 0.04837 0.80155 0.21163 0.0
H592 H 0.05501 0.81755 0.2029 0.0
H593 H 0.05138 0.81689 0.22142 0.0
C594 C 0.2843 0.10217 0.94458 0.0
C595 C 0.2843 0.09212 0.93335 0.0
C596 C 0.2881 0.10559 0.91217 0.0
C597 C 0.27479 0.10244 0.90964 0.0
C598 C 0.27178 0.10975 0.89994 0.0
C599 C 0.2823 0.1206 0.89283 0.0
C600 C 0.29567 0.12361 0.89515 0.0
C601 C 0.29834 0.11587 0.90461 0.0
C602 C 0.25737 0.10608 0.89754 0.0
C603 C 0.3072 0.1353 0.88802 0.0
C604 C 0.26127 0.17396 0.94932 0.0
C605 C 0.27151 0.18162 0.93806 0.0
C606 C 0.26744 0.17276 0.91374 0.0
C607 C 0.2806 0.17683 0.91004 0.0
C608 C 0.28305 0.16948 0.89948 0.0
C609 C 0.27211 0.15776 0.89263 0.0
C610 C 0.25881 0.15417 0.89577 0.0
C611 C 0.25665 0.1619 0.90616 0.0
C612 C 0.29735 0.17386 0.89613 0.0
C613 C 0.24688 0.14168 0.8888 0.0
C614 C 0.26088 0.17093 0.80241 0.0
C615 C 0.27443 0.17557 0.80583 0.0
C616 C 0.2782 0.16698 0.81238 0.0
C617 C 0.26821 0.15353 0.8156 0.0
C618 C 0.25464 0.14864 0.81153 0.0
C619 C 0.25119 0.15739 0.80481 0.0
C620 C 0.29281 0.17235 0.8162 0.0
C621 C 0.24374 0.13431 0.81463 0.0
C622 C 0.2691 0.06328 0.799 0.0
C623 C 0.27517 0.07428 0.78791 0.0
C624 C 0.28217 0.09614 0.80104 0.0
C625 C 0.29324 0.10865 0.80577 0.0
C626 C 0.29161 0.11868 0.81306 0.0
C627 C 0.27854 0.11602 0.81586 0.0
C628 C 0.26726 0.10342 0.81106 0.0
C629 C 0.26917 0.09365 0.80363 0.0
C630 C 0.30386 0.13206 0.81789 0.0
C631 C 0.25317 0.10023 0.8139 0.0
C632 C 0.27944 0.12958 0.88409 0.0
C633 C 0.27741 0.13931 0.89124 0.0
C634 C 0.27459 0.14818 0.88394 0.0
C635 C 0.27399 0.14753 0.86899 0.0
C636 C 0.27139 0.15643 0.86128 0.0
C637 C 0.27062 0.15555 0.84656 0.0
C638 C 0.27259 0.14585 0.83897 0.0
C639 C 0.27178 0.14485 0.824 0.0
C640 C 0.27392 0.13517 0.81679 0.0
C641 C 0.27664 0.12624 0.82416 0.0
C642 C 0.27726 0.12693 0.83913 0.0
C643 C 0.27963 0.11787 0.84688 0.0
C644 C 0.28027 0.11865 0.8616 0.0
C645 C 0.27863 0.12857 0.86914 0.0
C646 C 0.27601 0.13767 0.86156 0.0
C647 C 0.27533 0.13685 0.84654 0.0
C648 C 0.25128 0.19574 0.8052 0.0
C649 C 0.26236 0.19311 0.80027 0.0
O650 O 0.29156 0.09916 0.92186 0.0
O651 O 0.28454 0.08683 0.79423 0.0
O652 O 0.25681 0.17924 0.79687 0.0
O653 O 0.26492 0.17879 0.92493 0.0
H654 H 0.2738 0.08455 0.92985 0.0
H655 H 0.27938 0.10762 0.9402 0.0
H656 H 0.29475 0.1099 0.94811 0.0
H657 H 0.27866 0.09659 0.95388 0.0
H658 H 0.26669 0.09437 0.91521 0.0
H659 H 0.30856 0.11816 0.90656 0.0
H660 H 0.25586 0.11411 0.90274 0.0
H661 H 0.25022 0.09605 0.90195 0.0
H662 H 0.25496 0.10569 0.88606 0.0
H663 H 0.3171 0.13695 0.89179 0.0
H664 H 0.30701 0.14493 0.89002 0.0
H665 H 0.30617 0.13315 0.87641 0.0
H666 H 0.27857 0.17761 0.93833 0.0
H667 H 0.26632 0.17646 0.95999 0.0
H668 H 0.2565 0.16272 0.94711 0.0
H669 H 0.25325 0.17663 0.9493 0.0
H670 H 0.28894 0.18555 0.91563 0.0
H671 H 0.24654 0.159 0.909 0.0
H672 H 0.29841 0.17344 0.88451 0.0
H673 H 0.30009 0.16668 0.90085 0.0
H674 H 0.30453 0.1844 0.90041 0.0
H675 H 0.23719 0.1402 0.89253 0.0
H676 H 0.24744 0.13238 0.89102 0.0
H677 H 0.24705 0.14264 0.87715 0.0
H678 H 0.26974 0.19635 0.80936 0.0
H679 H 0.28204 0.1859 0.80344 0.0
H680 H 0.24079 0.15386 0.80188 0.0
H681 H 0.2943 0.17334 0.82789 0.0
H682 H 0.29947 0.18253 0.81178 0.0
H683 H 0.29584 0.165 0.81225 0.0
H684 H 0.23363 0.13218 0.81108 0.0
H685 H 0.24372 0.13277 0.82618 0.0
H686 H 0.24578 0.12674 0.80923 0.0
H687 H 0.2669 0.07511 0.78272 0.0
H688 H 0.26212 0.05311 0.79378 0.0
H689 H 0.26335 0.06572 0.80663 0.0
H690 H 0.27707 0.06263 0.80507 0.0
H691 H 0.30322 0.11053 0.80373 0.0
H692 H 0.26044 0.08408 0.80006 0.0
H693 H 0.30461 0.13285 0.82963 0.0
H694 H 0.30293 0.14081 0.81423 0.0
H695 H 0.31326 0.133 0.81389 0.0
H696 H 0.24549 0.08961 0.81033 0.0
H697 H 0.25111 0.1075 0.80831 0.0
H698 H 0.25216 0.1016 0.82539 0.0
H699 H 0.27793 0.13992 0.90273 0.0
H700 H 0.26987 0.16413 0.86657 0.0
H701 H 0.26849 0.16261 0.8412 0.0
H702 H 0.27329 0.13448 0.80532 0.0
H703 H 0.281 0.11004 0.84166 0.0
H704 H 0.28209 0.1114 0.86702 0.0
H705 H 0.25549 0.20682 0.80792 0.0
H706 H 0.24676 0.18989 0.81479 0.0
H707 H 0.24323 0.19241 0.79685 0.0
C708 C 0.79088 0.05755 0.90425 0.0
C709 C 0.79424 0.06953 0.91474 0.0
C710 C 0.80828 0.09037 0.90165 0.0
C711 C 0.80852 0.10156 0.89546 0.0
C712 C 0.81999 0.11151 0.88893 0.0
C713 C 0.8315 0.11016 0.88852 0.0
C714 C 0.83142 0.09894 0.89486 0.0
C715 C 0.81982 0.08915 0.90138 0.0
C716 C 0.81975 0.12338 0.8823 0.0
C717 C 0.84354 0.09722 0.89455 0.0
C718 C 0.91452 0.19716 0.94079 0.0
C719 C 0.90539 0.1838 0.93318 0.0
C720 C 0.8932 0.17475 0.91051 0.0
C721 C 0.89216 0.16183 0.91069 0.0
C722 C 0.8834 0.15117 0.90112 0.0
C723 C 0.87517 0.15331 0.89149 0.0
C724 C 0.87616 0.16633 0.89136 0.0
C725 C 0.88546 0.17698 0.90062 0.0
C726 C 0.88283 0.13754 0.9015 0.0
C727 C 0.86722 0.16897 0.88172 0.0
C728 C 0.89973 0.16855 0.7987 0.0
C729 C 0.90127 0.15776 0.80354 0.0
C730 C 0.89141 0.14755 0.81167 0.0
C731 C 0.87985 0.14819 0.81503 0.0
C732 C 0.87839 0.15915 0.81034 0.0
C733 C 0.88838 0.1692 0.80225 0.0
C734 C 0.89328 0.13602 0.81658 0.0
C735 C 0.86618 0.16014 0.81374 0.0
C736 C 0.78978 0.04698 0.80092 0.0
C737 C 0.79449 0.06092 0.79458 0.0
C738 C 0.81781 0.07917 0.79881 0.0
C739 C 0.83008 0.08034 0.80269 0.0
C740 C 0.84016 0.09215 0.81002 0.0
C741 C 0.83797 0.10316 0.81322 0.0
C742 C 0.82586 0.10234 0.80857 0.0
C743 C 0.81587 0.09032 0.80143 0.0
C744 C 0.85302 0.09274 0.81465 0.0
C745 C 0.8234 0.11409 0.81137 0.0
C746 C 0.84345 0.12025 0.88102 0.0
C747 C 0.85349 0.13163 0.88879 0.0
C748 C 0.86491 0.14166 0.88233 0.0
C749 C 0.86628 0.14045 0.86759 0.0
C750 C 0.87757 0.15032 0.86065 0.0
C751 C 0.8785 0.1493 0.84605 0.0
C752 C 0.86833 0.13818 0.83788 0.0
C753 C 0.86902 0.13716 0.82301 0.0
C754 C 0.85899 0.1257 0.81529 0.0
C755 C 0.84811 0.11522 0.82198 0.0
C756 C 0.84702 0.11625 0.83678 0.0
C757 C 0.83606 0.10603 0.84381 0.0
C758 C 0.83488 0.10731 0.85829 0.0
C759 C 0.84471 0.11877 0.86635 0.0
C760 C 0.85606 0.129 0.85957 0.0
C761 C 0.85716 0.1278 0.84474 0.0
C762 C 0.92619 0.18913 0.77384 0.0
C763 C 0.92025 0.17913 0.78519 0.0
O764 O 0.7967 0.08104 0.90754 0.0
O765 O 0.80816 0.0672 0.79246 0.0
O766 O 0.90881 0.17843 0.79049 0.0
O767 O 0.90151 0.18524 0.91968 0.0
H768 H 0.80324 0.07182 0.92138 0.0
H769 H 0.79948 0.06012 0.89741 0.0
H770 H 0.78202 0.05517 0.89734 0.0
H771 H 0.7887 0.04827 0.91004 0.0
H772 H 0.7996 0.10243 0.89572 0.0
H773 H 0.81984 0.08055 0.90607 0.0
H774 H 0.82824 0.13322 0.88673 0.0
H775 H 0.81022 0.12327 0.88406 0.0
H776 H 0.82107 0.12298 0.87073 0.0
H777 H 0.84191 0.08793 0.89996 0.0
H778 H 0.85231 0.10636 0.89975 0.0
H779 H 0.84608 0.09649 0.88341 0.0
H780 H 0.89679 0.17624 0.93932 0.0
H781 H 0.93246 0.19697 0.9436 0.0
H782 H 0.90862 0.19762 0.94993 0.0
H783 H 0.91387 0.2053 0.93481 0.0
H784 H 0.89823 0.16003 0.91819 0.0
H785 H 0.88637 0.187 0.90055 0.0
H786 H 0.87361 0.13011 0.90681 0.0
H787 H 0.89162 0.13836 0.90741 0.0
H788 H 0.8824 0.13337 0.89061 0.0
H789 H 0.86746 0.17864 0.88481 0.0
H790 H 0.85668 0.16036 0.88178 0.0
H791 H 0.87063 0.16978 0.87071 0.0
H792 H 0.92746 0.17988 0.79365 0.0
H793 H 0.91006 0.15719 0.80095 0.0
H794 H 0.88731 0.17759 0.7985 0.0
H795 H 0.8925 0.13542 0.82825 0.0
H796 H 0.90311 0.13731 0.81366 0.0
H797 H 0.88516 0.12612 0.81181 0.0
H798 H 0.86653 0.16929 0.80926 0.0
H799 H 0.86536 0.16065 0.82539 0.0
H800 H 0.85698 0.15081 0.80948 0.0
H801 H 0.79228 0.06701 0.80239 0.0
H802 H 0.77886 0.04175 0.80282 0.0
H803 H 0.79522 0.04842 0.81121 0.0
H804 H 0.79179 0.04033 0.79372 0.0
H805 H 0.83156 0.07177 0.80036 0.0
H806 H 0.8066 0.08966 0.79786 0.0
H807 H 0.85454 0.09451 0.82632 0.0
H808 H 0.86165 0.10149 0.80977 0.0
H809 H 0.85302 0.08317 0.81166 0.0
H810 H 0.8141 0.11242 0.80583 0.0
H811 H 0.83204 0.1238 0.80792 0.0
H812 H 0.8225 0.11532 0.8229 0.0
H813 H 0.85238 0.13269 0.90004 0.0
H814 H 0.88574 0.15904 0.86641 0.0
H815 H 0.88731 0.15732 0.84124 0.0
H816 H 0.85963 0.12496 0.8039 0.0
H817 H 0.82818 0.09697 0.83818 0.0
H818 H 0.82614 0.09918 0.86308 0.0
H819 H 0.9363 0.19728 0.77837 0.0
H820 H 0.92165 0.19591 0.77447 0.0
H821 H 0.92397 0.17683 0.7558 0.0
C822 C 0.80586 0.6801 0.93691 0.0
C823 C 0.80575 0.69323 0.93366 0.0
C824 C 0.81659 0.70044 0.91138 0.0
C825 C 0.8262 0.71433 0.91372 0.0
C826 C 0.83777 0.72053 0.90572 0.0
C827 C 0.83982 0.71255 0.89534 0.0
C828 C 0.83008 0.69848 0.893 0.0
C829 C 0.81843 0.69268 0.90089 0.0
C830 C 0.84781 0.73558 0.90837 0.0
C831 C 0.83202 0.68953 0.88229 0.0
C832 C 0.9403 0.75303 0.92298 0.0
C833 C 0.92832 0.73985 0.92809 0.0
C834 C 0.9105 0.73063 0.90934 0.0
C835 C 0.90284 0.71933 0.90008 0.0
C836 C 0.89164 0.7179 0.89245 0.0
C837 C 0.88816 0.72819 0.89398 0.0
C838 C 0.89603 0.73984 0.90308 0.0
C839 C 0.90711 0.74094 0.91069 0.0
C840 C 0.88345 0.70534 0.88286 0.0
C841 C 0.8927 0.75109 0.90479 0.0
C842 C 0.91224 0.75879 0.80532 0.0
C843 C 0.90613 0.74491 0.80845 0.0
C844 C 0.89419 0.73863 0.81589 0.0
C845 C 0.88861 0.7466 0.82079 0.0
C846 C 0.89483 0.76063 0.81756 0.0
C847 C 0.90639 0.76643 0.80957 0.0
C848 C 0.88755 0.7235 0.81843 0.0
C849 C 0.8893 0.76956 0.82247 0.0
C850 C 0.79509 0.73709 0.81118 0.0
C851 C 0.80047 0.73256 0.79866 0.0
C852 C 0.81605 0.72599 0.80897 0.0
C853 C 0.81835 0.71508 0.81044 0.0
C854 C 0.8303 0.71707 0.81684 0.0
C855 C 0.84005 0.7303 0.82223 0.0
C856 C 0.83783 0.74142 0.82077 0.0
C857 C 0.82593 0.7392 0.81402 0.0
C858 C 0.83241 0.705 0.818 0.0
C859 C 0.84795 0.75565 0.8265 0.0
C860 C 0.85221 0.71887 0.88706 0.0
C861 C 0.86405 0.72083 0.89355 0.0
C862 C 0.87606 0.72659 0.88637 0.0
C863 C 0.87631 0.73045 0.87223 0.0
C864 C 0.88825 0.7365 0.86476 0.0
C865 C 0.88832 0.73997 0.85075 0.0
C866 C 0.87641 0.73732 0.84358 0.0
C867 C 0.87626 0.74033 0.82916 0.0
C868 C 0.86424 0.73773 0.82249 0.0
C869 C 0.85236 0.73242 0.82986 0.0
C870 C 0.85234 0.72939 0.84426 0.0
C871 C 0.84062 0.72428 0.85206 0.0
C872 C 0.84059 0.72101 0.86612 0.0
C873 C 0.85226 0.72265 0.87292 0.0
C874 C 0.86431 0.72826 0.86542 0.0
C875 C 0.86435 0.73164 0.85106 0.0
C876 C 0.94726 0.77818 0.80065 0.0
C877 C 0.93484 0.76381 0.80039 0.0
O878 O 0.80545 0.69437 0.91913 0.0
O879 O 0.80414 0.72323 0.80286 0.0
O880 O 0.92363 0.76503 0.79796 0.0
O881 O 0.92102 0.73115 0.91663 0.0
H882 H 0.81504 0.70211 0.93855 0.0
H883 H 0.81484 0.68044 0.93242 0.0
H884 H 0.79673 0.67096 0.9322 0.0
H885 H 0.80627 0.67905 0.94853 0.0
H886 H 0.82454 0.72032 0.92171 0.0
H887 H 0.81086 0.68195 0.89917 0.0
H888 H 0.85713 0.73676 0.91335 0.0
H889 H 0.84395 0.7407 0.91547 0.0
H890 H 0.85049 0.74088 0.89822 0.0
H891 H 0.82451 0.67848 0.8832 0.0
H892 H 0.84224 0.69098 0.88363 0.0
H893 H 0.83105 0.69252 0.87146 0.0
H894 H 0.92188 0.74269 0.93423 0.0
H895 H 0.94636 0.75981 0.93219 0.0
H896 H 0.93676 0.7587 0.91652 0.0
H897 H 0.9468 0.75068 0.91637 0.0
H898 H 0.90556 0.71148 0.89901 0.0
H899 H 0.91305 0.74991 0.91758 0.0
H900 H 0.88372 0.70844 0.87178 0.0
H901 H 0.8728 0.69999 0.88592 0.0
H902 H 0.88719 0.69802 0.88323 0.0
H903 H 0.90035 0.75995 0.91146 0.0
H904 H 0.88283 0.74698 0.90974 0.0
H905 H 0.89186 0.75475 0.89426 0.0
H906 H 0.93445 0.75956 0.81098 0.0
H907 H 0.91054 0.73894 0.80482 0.0
H908 H 0.91115 0.77711 0.80691 0.0
H909 H 0.88955 0.72206 0.82957 0.0
H910 H 0.89143 0.7183 0.81146 0.0
H911 H 0.87651 0.71842 0.81663 0.0
H912 H 0.89681 0.78065 0.82187 0.0
H913 H 0.88595 0.76747 0.83351 0.0
H914 H 0.88049 0.76726 0.81556 0.0
H915 H 0.80933 0.74189 0.79478 0.0
H916 H 0.79063 0.74321 0.80744 0.0
H917 H 0.80333 0.7436 0.81898 0.0
H918 H 0.78742 0.72812 0.81676 0.0
H919 H 0.81072 0.70493 0.8065 0.0
H920 H 0.82442 0.74781 0.81295 0.0
H921 H 0.83214 0.70243 0.82928 0.0
H922 H 0.84243 0.70765 0.81415 0.0
H923 H 0.82461 0.69577 0.81189 0.0
H924 H 0.84413 0.76289 0.82583 0.0
H925 H 0.85719 0.75967 0.82036 0.0
H926 H 0.85074 0.75533 0.83771 0.0
H927 H 0.86392 0.71779 0.90435 0.0
H928 H 0.89767 0.7386 0.86967 0.0
H929 H 0.89782 0.74464 0.84557 0.0
H930 H 0.86416 0.74003 0.81144 0.0
H931 H 0.8313 0.72269 0.84737 0.0
H932 H 0.83127 0.71707 0.87155 0.0
H933 H 0.94835 0.78283 0.7902 0.0
H934 H 0.95648 0.77781 0.8033 0.0
H935 H 0.9463 0.78486 0.80882 0.0
C936 C 0.85889 0.59882 0.39084 0.0
C937 C 0.8635 0.61006 0.40253 0.0
C938 C 0.85361 0.60726 0.42556 0.0
C939 C 0.8569 0.62085 0.42855 0.0
C940 C 0.84994 0.6239 0.43868 0.0
C941 C 0.83932 0.61309 0.44574 0.0
C942 C 0.8361 0.59938 0.44282 0.0
C943 C 0.84353 0.5967 0.43298 0.0
C944 C 0.85385 0.63866 0.44168 0.0
C945 C 0.82465 0.58751 0.44985 0.0
C946 C 0.76922 0.63898 0.40892 0.0
C947 C 0.77907 0.6357 0.41536 0.0
C948 C 0.78523 0.62934 0.43702 0.0
C949 C 0.78089 0.61635 0.44217 0.0
C950 C 0.78988 0.61351 0.44942 0.0
C951 C 0.80339 0.6241 0.45195 0.0
C952 C 0.80762 0.63743 0.4473 0.0
C953 C 0.79849 0.63987 0.43979 0.0
C954 C 0.78503 0.59914 0.45407 0.0
C955 C 0.82183 0.64904 0.45005 0.0
C956 C 0.78692 0.61689 0.54447 0.0
C957 C 0.78436 0.60477 0.53712 0.0
C958 C 0.79414 0.60455 0.52871 0.0
C959 C 0.80672 0.61668 0.52761 0.0
C960 C 0.80945 0.62878 0.53528 0.0
C961 C 0.79951 0.6287 0.54366 0.0
C962 C 0.79095 0.5914 0.52081 0.0
C963 C 0.82278 0.64185 0.53437 0.0
C964 C 0.89028 0.59498 0.53468 0.0
C965 C 0.88559 0.60518 0.53803 0.0
C966 C 0.86323 0.60207 0.53326 0.0
C967 C 0.84996 0.59195 0.52995 0.0
C968 C 0.84078 0.59529 0.52411 0.0
C969 C 0.84497 0.60917 0.5218 0.0
C970 C 0.85826 0.61955 0.52565 0.0
C971 C 0.86729 0.61589 0.53133 0.0
C972 C 0.82665 0.58397 0.52028 0.0
C973 C 0.86293 0.63447 0.52365 0.0
C974 C 0.83125 0.61606 0.45578 0.0
C975 C 0.8216 0.61877 0.45012 0.0
C976 C 0.81327 0.62113 0.45885 0.0
C977 C 0.8144 0.62056 0.4737 0.0
C978 C 0.80606 0.62267 0.4828 0.0
C979 C 0.80687 0.62151 0.49734 0.0
C980 C 0.81622 0.61843 0.50336 0.0
C981 C 0.81679 0.61672 0.51806 0.0
C982 C 0.82644 0.61406 0.52377 0.0
C983 C 0.83547 0.61276 0.51512 0.0
C984 C 0.83482 0.61407 0.50034 0.0
C985 C 0.84352 0.61249 0.49128 0.0
C986 C 0.84253 0.61337 0.47671 0.0
C987 C 0.83273 0.61574 0.47062 0.0
C988 C 0.82412 0.61778 0.47958 0.0
C989 C 0.82512 0.61686 0.49445 0.0
C990 C 0.75657 0.60758 0.53908 0.0
C991 C 0.76402 0.60809 0.55289 0.0
O992 O 0.85987 0.604 0.41548 0.0
O993 O 0.87171 0.59803 0.53835 0.0
O994 O 0.77757 0.61773 0.5523 0.0
O995 O 0.77658 0.63148 0.42916 0.0
H996 H 0.85817 0.61576 0.40029 0.0
H997 H 0.84781 0.59208 0.39085 0.0
H998 H 0.86356 0.59242 0.3925 0.0
H999 H 0.86164 0.60342 0.38032 0.0
H1000 H 0.86495 0.62907 0.42302 0.0
H1001 H 0.84115 0.58625 0.43064 0.0
H1002 H 0.84605 0.64048 0.43697 0.0
H1003 H 0.86364 0.64592 0.43715 0.0
H1004 H 0.85447 0.64091 0.45326 0.0
H1005 H 0.82219 0.57745 0.44485 0.0
H1006 H 0.81553 0.58843 0.44936 0.0
H1007 H 0.8274 0.58763 0.46117 0.0
H1008 H 0.78981 0.64333 0.41362 0.0
H1009 H 0.75964 0.62383 0.39268 0.0
H1010 H 0.77521 0.65024 0.40682 0.0
H1011 H 0.76367 0.64032 0.41793 0.0
H1012 H 0.77057 0.60832 0.44003 0.0
H1013 H 0.8017 0.65001 0.43605 0.0
H1014 H 0.78557 0.59916 0.46579 0.0
H1015 H 0.79162 0.5954 0.44999 0.0
H1016 H 0.77453 0.59185 0.45034 0.0
H1017 H 0.82307 0.65911 0.44737 0.0
H1018 H 0.82871 0.64716 0.44358 0.0
H1019 H 0.82489 0.64954 0.46135 0.0
H1020 H 0.76274 0.59781 0.55464 0.0
H1021 H 0.77476 0.59547 0.53775 0.0
H1022 H 0.80143 0.63797 0.54944 0.0
H1023 H 0.79076 0.59276 0.50925 0.0
H1024 H 0.78111 0.58261 0.52359 0.0
H1025 H 0.7989 0.58888 0.52314 0.0
H1026 H 0.82331 0.65045 0.54091 0.0
H1027 H 0.82453 0.64486 0.5232 0.0
H1028 H 0.83099 0.64012 0.53796 0.0
H1029 H 0.889 0.61251 0.52932 0.0
H1030 H 0.90138 0.60043 0.53402 0.0
H1031 H 0.88577 0.58953 0.52433 0.0
H1032 H 0.88717 0.58728 0.54297 0.0
H1033 H 0.84689 0.58134 0.53167 0.0
H1034 H 0.87743 0.62385 0.53433 0.0
H1035 H 0.82417 0.58448 0.509 0.0
H1036 H 0.81948 0.58535 0.52678 0.0
H1037 H 0.82519 0.57363 0.52202 0.0
H1038 H 0.87331 0.64137 0.52797 0.0
H1039 H 0.85606 0.63725 0.52892 0.0
H1040 H 0.86259 0.63622 0.5122 0.0
H1041 H 0.82051 0.61898 0.43873 0.0
H1042 H 0.79866 0.62504 0.47877 0.0
H1043 H 0.80005 0.62303 0.50381 0.0
H1044 H 0.82673 0.61266 0.53504 0.0
H1045 H 0.85114 0.61046 0.49533 0.0
H1046 H 0.84948 0.61205 0.47026 0.0
H1047 H 0.74567 0.60004 0.53969 0.0
H1048 H 0.7604 0.60437 0.52996 0.0
H1049 H 0.75791 0.61783 0.53708 0.0
C1050 C 0.4059 0.25562 0.39619 0.0
C1051 C 0.39528 0.25219 0.40727 0.0
C1052 C 0.39843 0.24896 0.43203 0.0
C1053 C 0.3851 0.23936 0.43492 0.0
C1054 C 0.38217 0.23035 0.44596 0.0
C1055 C 0.39281 0.23088 0.45415 0.0
C1056 C 0.40622 0.24112 0.45178 0.0
C1057 C 0.40883 0.25021 0.44087 0.0
C1058 C 0.36773 0.21984 0.44844 0.0
C1059 C 0.41785 0.24195 0.4602 0.0
C1060 C 0.38805 0.15923 0.40919 0.0
C1061 C 0.38541 0.14935 0.42119 0.0
C1062 C 0.37961 0.16116 0.43966 0.0
C1063 C 0.39272 0.17168 0.44347 0.0
C1064 C 0.39493 0.18292 0.45222 0.0
C1065 C 0.38383 0.18373 0.45711 0.0
C1066 C 0.37064 0.17299 0.45357 0.0
C1067 C 0.36872 0.16175 0.44503 0.0
C1068 C 0.40914 0.1941 0.45602 0.0
C1069 C 0.35856 0.17358 0.45844 0.0
C1070 C 0.38494 0.16861 0.54927 0.0
C1071 C 0.39716 0.17842 0.5437 0.0
C1072 C 0.39805 0.18931 0.53609 0.0
C1073 C 0.38644 0.19033 0.53383 0.0
C1074 C 0.37421 0.1807 0.53972 0.0
C1075 C 0.37367 0.17003 0.54747 0.0
C1076 C 0.41134 0.19959 0.53025 0.0
C1077 C 0.36167 0.18151 0.53754 0.0
C1078 C 0.40234 0.29387 0.54393 0.0
C1079 C 0.3927 0.27999 0.54997 0.0
C1080 C 0.3968 0.26097 0.54531 0.0
C1081 C 0.40754 0.25893 0.54268 0.0
C1082 C 0.40553 0.24696 0.53552 0.0
C1083 C 0.39238 0.23667 0.53112 0.0
C1084 C 0.38138 0.23844 0.5342 0.0
C1085 C 0.3837 0.25057 0.54131 0.0
C1086 C 0.41747 0.24535 0.53256 0.0
C1087 C 0.3672 0.2275 0.52997 0.0
C1088 C 0.39008 0.21953 0.46356 0.0
C1089 C 0.3881 0.20736 0.45706 0.0
C1090 C 0.386 0.19627 0.46498 0.0
C1091 C 0.38601 0.19729 0.47989 0.0
C1092 C 0.38423 0.18643 0.4882 0.0
C1093 C 0.38442 0.1876 0.50289 0.0
C1094 C 0.38643 0.1997 0.50983 0.0
C1095 C 0.38702 0.20112 0.52477 0.0
C1096 C 0.38876 0.21318 0.53134 0.0
C1097 C 0.39014 0.22403 0.52338 0.0
C1098 C 0.38986 0.22292 0.50842 0.0
C1099 C 0.39148 0.23373 0.50007 0.0
C1100 C 0.39145 0.23262 0.48536 0.0
C1101 C 0.38982 0.22067 0.47846 0.0
C1102 C 0.3879 0.20954 0.48666 0.0
C1103 C 0.388 0.2107 0.50165 0.0
C1104 C 0.39226 0.14604 0.54237 0.0
C1105 C 0.39231 0.15267 0.55676 0.0
O1106 O 0.40158 0.25679 0.42053 0.0
O1107 O 0.39948 0.27291 0.55202 0.0
O1108 O 0.38349 0.15762 0.55627 0.0
O1109 O 0.37693 0.15038 0.43072 0.0
H1110 H 0.38886 0.24079 0.40673 0.0
H1111 H 0.41144 0.25016 0.39839 0.0
H1112 H 0.41326 0.2668 0.39641 0.0
H1113 H 0.40107 0.25226 0.38544 0.0
H1114 H 0.377 0.23873 0.42837 0.0
H1115 H 0.41907 0.25781 0.43865 0.0
H1116 H 0.36561 0.20964 0.44425 0.0
H1117 H 0.36065 0.22236 0.4431 0.0
H1118 H 0.36587 0.21906 0.45995 0.0
H1119 H 0.42769 0.25035 0.45684 0.0
H1120 H 0.41773 0.23209 0.45896 0.0
H1121 H 0.41687 0.24368 0.47161 0.0
H1122 H 0.39506 0.15195 0.42665 0.0
H1123 H 0.37858 0.15619 0.40309 0.0
H1124 H 0.39218 0.16988 0.41354 0.0
H1125 H 0.39552 0.15935 0.40189 0.0
H1126 H 0.40126 0.17126 0.43958 0.0
H1127 H 0.35865 0.15354 0.4421 0.0
H1128 H 0.41037 0.19634 0.46763 0.0
H1129 H 0.41124 0.20365 0.45085 0.0
H1130 H 0.41664 0.1913 0.45264 0.0
H1131 H 0.34896 0.16446 0.45464 0.0
H1132 H 0.35891 0.18293 0.45455 0.0
H1133 H 0.35875 0.17428 0.47018 0.0
H1134 H 0.40261 0.16123 0.5596 0.0
H1135 H 0.40606 0.17764 0.54512 0.0
H1136 H 0.36431 0.1625 0.55188 0.0
H1137 H 0.41079 0.19826 0.51854 0.0
H1138 H 0.41974 0.19839 0.53439 0.0
H1139 H 0.41361 0.2102 0.5329 0.0
H1140 H 0.35284 0.17297 0.54245 0.0
H1141 H 0.35939 0.18125 0.52605 0.0
H1142 H 0.36331 0.19139 0.5422 0.0
H1143 H 0.38426 0.27447 0.54203 0.0
H1144 H 0.39715 0.29975 0.54211 0.0
H1145 H 0.40597 0.29229 0.53365 0.0
H1146 H 0.41115 0.29998 0.55129 0.0
H1147 H 0.41759 0.26691 0.54603 0.0
H1148 H 0.37526 0.25178 0.54391 0.0
H1149 H 0.41788 0.24361 0.52101 0.0
H1150 H 0.41637 0.23621 0.53786 0.0
H1151 H 0.4271 0.25447 0.53632 0.0
H1152 H 0.3597 0.23026 0.53345 0.0
H1153 H 0.36487 0.21766 0.53463 0.0
H1154 H 0.36622 0.2258 0.51829 0.0
H1155 H 0.38827 0.20654 0.44561 0.0
H1156 H 0.38274 0.17692 0.48343 0.0
H1157 H 0.383 0.1789 0.50872 0.0
H1158 H 0.38926 0.21421 0.54281 0.0
H1159 H 0.39287 0.2432 0.50482 0.0
H1160 H 0.39277 0.24126 0.47945 0.0
H1161 H 0.39916 0.14188 0.54282 0.0
H1162 H 0.3957 0.1537 0.53404 0.0
H1163 H 0.38198 0.13756 0.5393 0.0
C1164 C 0.86478 0.22547 0.4072 0.0
C1165 C 0.86882 0.2391 0.41513 0.0
C1166 C 0.85829 0.23097 0.43741 0.0
C1167 C 0.8487 0.23505 0.43786 0.0
C1168 C 0.83701 0.22772 0.44549 0.0
C1169 C 0.83486 0.21597 0.45263 0.0
C1170 C 0.84468 0.212 0.45237 0.0
C1171 C 0.85643 0.21975 0.44496 0.0
C1172 C 0.82689 0.23243 0.44578 0.0
C1173 C 0.84264 0.19938 0.45961 0.0
C1174 C 0.75865 0.16104 0.38931 0.0
C1175 C 0.76168 0.15499 0.40216 0.0
C1176 C 0.76754 0.16618 0.42563 0.0
C1177 C 0.77619 0.16167 0.43036 0.0
C1178 C 0.78584 0.16894 0.44126 0.0
C1179 C 0.78693 0.18102 0.44745 0.0
C1180 C 0.7778 0.18522 0.44313 0.0
C1181 C 0.76805 0.17757 0.43241 0.0
C1182 C 0.79515 0.16394 0.44587 0.0
C1183 C 0.77872 0.19812 0.44937 0.0
C1184 C 0.75607 0.16591 0.53502 0.0
C1185 C 0.76459 0.1607 0.53211 0.0
C1186 C 0.7773 0.1691 0.52665 0.0
C1187 C 0.78148 0.18292 0.52392 0.0
C1188 C 0.77312 0.1883 0.52734 0.0
C1189 C 0.76056 0.17973 0.53302 0.0
C1190 C 0.78616 0.16317 0.52354 0.0
C1191 C 0.77731 0.20301 0.52471 0.0
C1192 C 0.87464 0.26978 0.54513 0.0
C1193 C 0.86834 0.25999 0.55725 0.0
C1194 C 0.85248 0.2378 0.54514 0.0
C1195 C 0.85013 0.22464 0.54171 0.0
C1196 C 0.83871 0.21512 0.53362 0.0
C1197 C 0.82943 0.21892 0.52877 0.0
C1198 C 0.83158 0.23211 0.53241 0.0
C1199 C 0.84306 0.24142 0.54058 0.0
C1200 C 0.83668 0.2011 0.52999 0.0
C1201 C 0.82187 0.23647 0.52741 0.0
C1202 C 0.82207 0.2075 0.45981 0.0
C1203 C 0.81078 0.19851 0.45139 0.0
C1204 C 0.79842 0.18998 0.45733 0.0
C1205 C 0.79728 0.19025 0.47218 0.0
C1206 C 0.78509 0.18162 0.47857 0.0
C1207 C 0.78406 0.18208 0.49319 0.0
C1208 C 0.79523 0.19107 0.502 0.0
C1209 C 0.79431 0.19157 0.51688 0.0
C1210 C 0.80561 0.20063 0.52532 0.0
C1211 C 0.81787 0.20936 0.51928 0.0
C1212 C 0.81897 0.20905 0.50442 0.0
C1213 C 0.83112 0.2178 0.498 0.0
C1214 C 0.83214 0.21738 0.4834 0.0
C1215 C 0.82107 0.20816 0.47464 0.0
C1216 C 0.80866 0.1994 0.48086 0.0
C1217 C 0.80762 0.19982 0.49577 0.0
C1218 C 0.72093 0.14029 0.53501 0.0
C1219 C 0.73549 0.14388 0.53749 0.0
O1220 O 0.86932 0.23758 0.42958 0.0
O1221 O 0.864 0.2466 0.55265 0.0
O1222 O 0.74348 0.15796 0.53971 0.0
O1223 O 0.75885 0.15997 0.41438 0.0
H1224 H 0.86123 0.24208 0.41249 0.0
H1225 H 0.85468 0.21741 0.41033 0.0
H1226 H 0.87209 0.22211 0.40971 0.0
H1227 H 0.86436 0.22652 0.39559 0.0
H1228 H 0.85037 0.24399 0.43228 0.0
H1229 H 0.86399 0.21677 0.44457 0.0
H1230 H 0.81771 0.22493 0.43956 0.0
H1231 H 0.83082 0.24267 0.44126 0.0
H1232 H 0.82395 0.23287 0.45681 0.0
H1233 H 0.85059 0.19693 0.45719 0.0
H1234 H 0.83273 0.19041 0.45631 0.0
H1235 H 0.84269 0.20101 0.47124 0.0
H1236 H 0.77261 0.15855 0.40192 0.0
H1237 H 0.76062 0.15698 0.37937 0.0
H1238 H 0.76521 0.17238 0.38986 0.0
H1239 H 0.74803 0.15856 0.389 0.0
H1240 H 0.77549 0.15256 0.42542 0.0
H1241 H 0.76119 0.18084 0.42879 0.0
H1242 H 0.79592 0.1641 0.4576 0.0
H1243 H 0.80535 0.17091 0.44206 0.0
H1244 H 0.79174 0.15338 0.44162 0.0
H1245 H 0.77123 0.20029 0.44441 0.0
H1246 H 0.78892 0.20702 0.44801 0.0
H1247 H 0.77704 0.19712 0.4609 0.0
H1248 H 0.73838 0.14047 0.52767 0.0
H1249 H 0.76136 0.15011 0.53409 0.0
H1250 H 0.75399 0.18368 0.5355 0.0
H1251 H 0.78711 0.16253 0.51193 0.0
H1252 H 0.7821 0.15275 0.52767 0.0
H1253 H 0.79639 0.16998 0.52828 0.0
H1254 H 0.76938 0.20543 0.52734 0.0
H1255 H 0.77976 0.20516 0.51344 0.0
H1256 H 0.78651 0.20995 0.53123 0.0
H1257 H 0.8597 0.26079 0.56109 0.0
H1258 H 0.87849 0.28054 0.54899 0.0
H1259 H 0.86707 0.26735 0.53647 0.0
H1260 H 0.88304 0.26891 0.54069 0.0
H1261 H 0.8574 0.2219 0.54529 0.0
H1262 H 0.84462 0.25151 0.54314 0.0
H1263 H 0.83709 0.19984 0.51836 0.0
H1264 H 0.8266 0.19305 0.53319 0.0
H1265 H 0.8444 0.19945 0.53523 0.0
H1266 H 0.82491 0.24707 0.53118 0.0
H1267 H 0.81172 0.22934 0.53123 0.0
H1268 H 0.82114 0.23589 0.51566 0.0
H1269 H 0.81162 0.19815 0.43999 0.0
H1270 H 0.77621 0.17444 0.47231 0.0
H1271 H 0.77439 0.17526 0.49749 0.0
H1272 H 0.80482 0.20098 0.53672 0.0
H1273 H 0.84 0.22508 0.50419 0.0
H1274 H 0.84174 0.22438 0.47905 0.0
H1275 H 0.71431 0.12904 0.53305 0.0
H1276 H 0.72014 0.14552 0.52559 0.0
H1277 H 0.71738 0.14363 0.54431 0.0
C1278 C 0.0318 0.48077 0.28548 0.0
C1279 C 0.02156 0.47035 0.27455 0.0
C1280 C 0.01958 0.47611 0.25022 0.0
C1281 C 0.00558 0.46811 0.24825 0.0
C1282 C 0.99889 0.47081 0.2374 0.0
C1283 C 0.00636 0.48173 0.2284 0.0
C1284 C 0.02053 0.48936 0.22995 0.0
C1285 C 0.02696 0.48629 0.24074 0.0
C1286 C 0.9838 0.46228 0.23582 0.0
C1287 C 0.02885 0.50112 0.22061 0.0
C1288 C 0.95644 0.53504 0.24227 0.0
C1289 C 0.96926 0.53825 0.25061 0.0
C1290 C 0.98083 0.52973 0.23524 0.0
C1291 C 0.99227 0.53394 0.22737 0.0
C1292 C 0.995 0.52439 0.2208 0.0
C1293 C 0.98585 0.5102 0.22192 0.0
C1294 C 0.97413 0.50582 0.22974 0.0
C1295 C 0.97175 0.51563 0.2364 0.0
C1296 C 0.00775 0.52949 0.2128 0.0
C1297 C 0.96416 0.49077 0.23109 0.0
C1298 C 0.96759 0.50772 0.13077 0.0
C1299 C 0.98101 0.51498 0.13569 0.0
C1300 C 0.98651 0.50848 0.14346 0.0
C1301 C 0.97831 0.49448 0.14653 0.0
C1302 C 0.96494 0.48699 0.14096 0.0
C1303 C 0.9598 0.4937 0.13296 0.0
C1304 C 0.00097 0.51668 0.14872 0.0
C1305 C 0.95597 0.47204 0.14389 0.0
C1306 C 0.02993 0.4362 0.14391 0.0
C1307 C 0.01628 0.43332 0.13801 0.0
C1308 C 0.01154 0.45216 0.14025 0.0
C1309 C 0.01863 0.46648 0.14114 0.0
C1310 C 0.01307 0.47381 0.14733 0.0
C1311 C 0.99992 0.46659 0.15244 0.0
C1312 C 0.99247 0.45209 0.15107 0.0
C1313 C 0.99837 0.445 0.14499 0.0
C1314 C 0.02129 0.48927 0.14852 0.0
C1315 C 0.9783 0.44412 0.15604 0.0
C1316 C 0.99932 0.48614 0.21846 0.0
C1317 C 0.99497 0.49476 0.22403 0.0
C1318 C 0.98889 0.50003 0.2154 0.0
C1319 C 0.98684 0.49646 0.20076 0.0
C1320 C 0.9805 0.50137 0.19181 0.0
C1321 C 0.97913 0.49839 0.17731 0.0
C1322 C 0.98412 0.49044 0.17118 0.0
C1323 C 0.98345 0.488 0.15635 0.0
C1324 C 0.98835 0.47991 0.15063 0.0
C1325 C 0.99409 0.47427 0.15932 0.0
C1326 C 0.99499 0.47674 0.17416 0.0
C1327 C 0.00088 0.47141 0.18322 0.0
C1328 C 0.00208 0.47424 0.19777 0.0
C1329 C 0.99761 0.48266 0.20379 0.0
C1330 C 0.9914 0.48792 0.1949 0.0
C1331 C 0.99007 0.48493 0.18008 0.0
C1332 C 0.94842 0.52167 0.13553 0.0
C1333 C 0.96215 0.52574 0.12966 0.0
O1334 O 0.0263 0.47439 0.26113 0.0
O1335 O 0.0176 0.44572 0.1343 0.0
O1336 O 0.96191 0.51412 0.12412 0.0
O1337 O 0.97904 0.53967 0.24139 0.0
H1338 H 0.01203 0.47039 0.27601 0.0
H1339 H 0.03324 0.4911 0.28369 0.0
H1340 H 0.04164 0.48131 0.28461 0.0
H1341 H 0.02819 0.47791 0.29636 0.0
H1342 H 0.99986 0.45982 0.25521 0.0
H1343 H 0.03779 0.49223 0.24223 0.0
H1344 H 0.97937 0.4686 0.23913 0.0
H1345 H 0.97962 0.45308 0.24235 0.0
H1346 H 0.98069 0.45892 0.22456 0.0
H1347 H 0.03975 0.50624 0.22343 0.0
H1348 H 0.02563 0.50885 0.22149 0.0
H1349 H 0.02724 0.49734 0.2094 0.0
H1350 H 0.96703 0.52985 0.25789 0.0
H1351 H 0.94858 0.5339 0.24964 0.0
H1352 H 0.95247 0.52532 0.23587 0.0
H1353 H 0.95849 0.54339 0.23501 0.0
H1354 H 0.99919 0.54483 0.22652 0.0
H1355 H 0.9628 0.51218 0.2424 0.0
H1356 H 0.00522 0.52663 0.20138 0.0
H1357 H 0.01341 0.52457 0.21657 0.0
H1358 H 0.01436 0.5408 0.21399 0.0
H1359 H 0.95494 0.48901 0.23637 0.0
H1360 H 0.96887 0.48605 0.23736 0.0
H1361 H 0.9613 0.48547 0.22047 0.0
H1362 H 0.96958 0.53044 0.13873 0.0
H1363 H 0.98714 0.52575 0.13354 0.0
H1364 H 0.94949 0.48817 0.12891 0.0
H1365 H 0.00136 0.51872 0.16032 0.0
H1366 H 0.00652 0.52667 0.14358 0.0
H1367 H 0.00615 0.51079 0.14676 0.0
H1368 H 0.94572 0.46774 0.13905 0.0
H1369 H 0.95518 0.47074 0.15549 0.0
H1370 H 0.96044 0.46604 0.13967 0.0
H1371 H 0.00898 0.42863 0.14652 0.0
H1372 H 0.02929 0.42673 0.14784 0.0
H1373 H 0.03332 0.44386 0.15293 0.0
H1374 H 0.03755 0.44038 0.13564 0.0
H1375 H 0.0287 0.4719 0.1372 0.0
H1376 H 0.99261 0.43392 0.14374 0.0
H1377 H 0.02192 0.49289 0.15969 0.0
H1378 H 0.0163 0.49364 0.14215 0.0
H1379 H 0.03163 0.49329 0.14477 0.0
H1380 H 0.97354 0.43294 0.15345 0.0
H1381 H 0.9721 0.44797 0.15111 0.0
H1382 H 0.97831 0.4457 0.16768 0.0
H1383 H 0.99668 0.4977 0.23523 0.0
H1384 H 0.97661 0.50766 0.19593 0.0
H1385 H 0.97424 0.50253 0.17095 0.0
H1386 H 0.98796 0.47824 0.13924 0.0
H1387 H 0.0047 0.46504 0.17915 0.0
H1388 H 0.00673 0.46991 0.20423 0.0
H1389 H 0.94839 0.53088 0.13991 0.0
H1390 H 0.9462 0.51445 0.14417 0.0
H1391 H 0.94037 0.51654 0.12714 0.0
C1392 C 0.47889 0.41472 0.28622 0.0
C1393 C 0.47232 0.41873 0.27458 0.0
C1394 C 0.48113 0.42317 0.25101 0.0
C1395 C 0.47862 0.43366 0.24751 0.0
C1396 C 0.48624 0.44314 0.23742 0.0
C1397 C 0.49665 0.44217 0.23084 0.0
C1398 C 0.4988 0.43122 0.23393 0.0
C1399 C 0.49081 0.4217 0.24383 0.0
C1400 C 0.48343 0.45446 0.23413 0.0
C1401 C 0.50988 0.4299 0.22723 0.0
C1402 C 0.58574 0.53839 0.26614 0.0
C1403 C 0.5779 0.52497 0.25817 0.0
C1404 C 0.5559 0.51073 0.24617 0.0
C1405 C 0.5587 0.50085 0.24048 0.0
C1406 C 0.54902 0.48961 0.23208 0.0
C1407 C 0.53638 0.48834 0.22911 0.0
C1408 C 0.53365 0.49843 0.23456 0.0
C1409 C 0.54344 0.50945 0.24309 0.0
C1410 C 0.55222 0.47896 0.22655 0.0
C1411 C 0.52033 0.49748 0.23153 0.0
C1412 C 0.55428 0.50278 0.13721 0.0
C1413 C 0.55601 0.49225 0.14251 0.0
C1414 C 0.5459 0.48171 0.15008 0.0
C1415 C 0.5338 0.48166 0.15238 0.0
C1416 C 0.53188 0.49202 0.14674 0.0
C1417 C 0.54215 0.50243 0.13919 0.0
C1418 C 0.54821 0.47072 0.15583 0.0
C1419 C 0.51907 0.49221 0.14894 0.0
C1420 C 0.44665 0.37778 0.14119 0.0
C1421 C 0.45099 0.39179 0.13522 0.0
C1422 C 0.47392 0.4109 0.14001 0.0
C1423 C 0.48666 0.41305 0.14344 0.0
C1424 C 0.49643 0.42523 0.1505 0.0
C1425 C 0.49342 0.43561 0.15395 0.0
C1426 C 0.48071 0.43375 0.14995 0.0
C1427 C 0.47108 0.4214 0.143 0.0
C1428 C 0.50992 0.42693 0.15444 0.0
C1429 C 0.47733 0.44479 0.15313 0.0
C1430 C 0.50606 0.45327 0.22179 0.0
C1431 C 0.51631 0.46522 0.22862 0.0
C1432 C 0.52576 0.4761 0.22097 0.0
C1433 C 0.52505 0.47507 0.20601 0.0
C1434 C 0.5344 0.4858 0.19796 0.0
C1435 C 0.53383 0.48454 0.18325 0.0
C1436 C 0.52384 0.47253 0.17603 0.0
C1437 C 0.52339 0.47102 0.1611 0.0
C1438 C 0.51324 0.45902 0.15423 0.0
C1439 C 0.50352 0.44833 0.16189 0.0
C1440 C 0.50387 0.44959 0.17684 0.0
C1441 C 0.49432 0.43899 0.1849 0.0
C1442 C 0.4949 0.44023 0.19962 0.0
C1443 C 0.50513 0.45206 0.20684 0.0
C1444 C 0.51474 0.46297 0.19893 0.0
C1445 C 0.51411 0.46172 0.18392 0.0
C1446 C 0.58518 0.52276 0.14299 0.0
C1447 C 0.57726 0.51698 0.12886 0.0
O1448 O 0.47462 0.41458 0.26152 0.0
O1449 O 0.46476 0.39869 0.13363 0.0
O1450 O 0.56399 0.51351 0.1303 0.0
O1451 O 0.56482 0.52153 0.25471 0.0
H1452 H 0.47723 0.43013 0.27554 0.0
H1453 H 0.48991 0.42006 0.2849 0.0
H1454 H 0.47495 0.40349 0.28573 0.0
H1455 H 0.477 0.41778 0.29681 0.0
H1456 H 0.4708 0.43451 0.25278 0.0
H1457 H 0.49253 0.41344 0.24652 0.0
H1458 H 0.49159 0.46431 0.23893 0.0
H1459 H 0.47374 0.45255 0.23835 0.0
H1460 H 0.48323 0.45559 0.22252 0.0
H1461 H 0.51064 0.42117 0.23128 0.0
H1462 H 0.51965 0.4395 0.2293 0.0
H1463 H 0.50805 0.42836 0.21559 0.0
H1464 H 0.57866 0.51638 0.26273 0.0
H1465 H 0.58818 0.53581 0.27679 0.0
H1466 H 0.57825 0.54109 0.27031 0.0
H1467 H 0.6006 0.55064 0.25214 0.0
H1468 H 0.56834 0.50173 0.24269 0.0
H1469 H 0.54138 0.51714 0.24747 0.0
H1470 H 0.55186 0.47862 0.21481 0.0
H1471 H 0.54456 0.46866 0.22995 0.0
H1472 H 0.56229 0.48111 0.23031 0.0
H1473 H 0.52029 0.50686 0.23527 0.0
H1474 H 0.51233 0.48856 0.2369 0.0
H1475 H 0.51783 0.49576 0.21999 0.0
H1476 H 0.57768 0.50775 0.12528 0.0
H1477 H 0.56524 0.49221 0.14092 0.0
H1478 H 0.54084 0.51052 0.13499 0.0
H1479 H 0.54822 0.47121 0.16756 0.0
H1480 H 0.55787 0.4718 0.15254 0.0
H1481 H 0.53991 0.46043 0.15213 0.0
H1482 H 0.51909 0.50094 0.14381 0.0
H1483 H 0.51765 0.49293 0.16045 0.0
H1484 H 0.51038 0.48248 0.14459 0.0
H1485 H 0.44814 0.39733 0.14304 0.0
H1486 H 0.43564 0.37204 0.14266 0.0
H1487 H 0.45181 0.37916 0.15164 0.0
H1488 H 0.44929 0.37163 0.13398 0.0
H1489 H 0.48882 0.40498 0.14086 0.0
H1490 H 0.46143 0.42005 0.13978 0.0
H1491 H 0.51196 0.42905 0.16602 0.0
H1492 H 0.51792 0.43586 0.14909 0.0
H1493 H 0.51054 0.4177 0.15142 0.0
H1494 H 0.46724 0.44204 0.14876 0.0
H1495 H 0.48495 0.45456 0.14865 0.0
H1496 H 0.4776 0.44659 0.16476 0.0
H1497 H 0.517 0.46604 0.2401 0.0
H1498 H 0.54232 0.49526 0.20295 0.0
H1499 H 0.54137 0.4931 0.17763 0.0
H1500 H 0.51303 0.4579 0.14279 0.0
H1501 H 0.4863 0.42959 0.17992 0.0
H1502 H 0.4873 0.43175 0.20527 0.0
H1503 H 0.59587 0.52579 0.14173 0.0
H1504 H 0.58107 0.51495 0.15117 0.0
H1505 H 0.58468 0.53186 0.14684 0.0
C1506 C 0.43118 0.95213 0.27159 0.0
C1507 C 0.43713 0.96644 0.26575 0.0
C1508 C 0.44801 0.97262 0.24316 0.0
C1509 C 0.4573 0.98651 0.24634 0.0
C1510 C 0.46874 0.99365 0.23828 0.0
C1511 C 0.47097 0.98668 0.22694 0.0
C1512 C 0.46145 0.97273 0.22356 0.0
C1513 C 0.44993 0.96597 0.23157 0.0
C1514 C 0.47853 0.00857 0.24201 0.0
C1515 C 0.46357 0.96484 0.21175 0.0
C1516 C 0.56358 0.98871 0.25316 0.0
C1517 C 0.55325 0.98757 0.2427 0.0
C1518 C 0.54049 0.99883 0.23715 0.0
C1519 C 0.53103 0.98808 0.22804 0.0
C1520 C 0.52014 0.98858 0.22196 0.0
C1521 C 0.51865 5e-05 0.22501 0.0
C1522 C 0.52812 0.01088 0.23416 0.0
C1523 C 0.53896 0.01014 0.24008 0.0
C1524 C 0.51022 0.97685 0.21222 0.0
C1525 C 0.52679 0.02324 0.2376 0.0
C1526 C 0.54767 0.03806 0.14391 0.0
C1527 C 0.53917 0.02378 0.14314 0.0
C1528 C 0.52636 0.01772 0.14879 0.0
C1529 C 0.52207 0.02617 0.15542 0.0
C1530 C 0.53032 0.04061 0.15542 0.0
C1531 C 0.543 0.04638 0.14949 0.0
C1532 C 0.51761 0.0023 0.14812 0.0
C1533 C 0.52596 0.0499 0.1622 0.0
C1534 C 0.41904 0.99501 0.1446 0.0
C1535 C 0.42954 0.00504 0.13473 0.0
C1536 C 0.45002 0.00404 0.13999 0.0
C1537 C 0.45459 0.99473 0.13917 0.0
C1538 C 0.46609 0.9971 0.14689 0.0
C1539 C 0.47339 0.0093 0.15539 0.0
C1540 C 0.46902 0.01895 0.15606 0.0
C1541 C 0.45733 0.0162 0.1484 0.0
C1542 C 0.47044 0.98657 0.14597 0.0
C1543 C 0.47678 0.03219 0.16479 0.0
C1544 C 0.48358 0.99375 0.21911 0.0
C1545 C 0.49512 0.99475 0.22538 0.0
C1546 C 0.50723 0.00068 0.21842 0.0
C1547 C 0.50801 0.00602 0.20492 0.0
C1548 C 0.52012 0.01229 0.19776 0.0
C1549 C 0.5207 0.0171 0.18428 0.0
C1550 C 0.50913 0.01559 0.17731 0.0
C1551 C 0.5095 0.01989 0.16335 0.0
C1552 C 0.49777 0.01797 0.15662 0.0
C1553 C 0.48561 0.01193 0.16353 0.0
C1554 C 0.4851 0.00784 0.17761 0.0
C1555 C 0.47309 0.00199 0.18497 0.0
C1556 C 0.47263 0.99769 0.1987 0.0
C1557 C 0.48409 0.99876 0.20546 0.0
C1558 C 0.49635 0.00486 0.19833 0.0
C1559 C 0.49688 0.00952 0.18444 0.0
C1560 C 0.58048 0.05031 0.15306 0.0
C1561 C 0.56938 0.03964 0.14296 0.0
O1562 O 0.43718 0.96534 0.25112 0.0
O1563 O 0.43886 0.00104 0.13209 0.0
O1564 O 0.56047 0.04404 0.13959 0.0
O1565 O 0.55108 0.99858 0.24336 0.0
H1566 H 0.44759 0.97258 0.27028 0.0
H1567 H 0.43731 0.94751 0.26844 0.0
H1568 H 0.42072 0.94533 0.26739 0.0
H1569 H 0.43117 0.95272 0.28334 0.0
H1570 H 0.4556 0.99177 0.2551 0.0
H1571 H 0.44261 0.95528 0.22915 0.0
H1572 H 0.48803 0.00968 0.24638 0.0
H1573 H 0.47458 0.01292 0.24996 0.0
H1574 H 0.48095 0.01466 0.23236 0.0
H1575 H 0.45601 0.95371 0.21155 0.0
H1576 H 0.47374 0.96615 0.21286 0.0
H1577 H 0.46288 0.96891 0.20143 0.0
H1578 H 0.55429 0.98458 0.23167 0.0
H1579 H 0.55259 0.97258 0.26661 0.0
H1580 H 0.56945 0.99979 0.25704 0.0
H1581 H 0.57188 0.9893 0.2466 0.0
H1582 H 0.53208 0.97927 0.2256 0.0
H1583 H 0.54628 0.01838 0.24711 0.0
H1584 H 0.50995 0.9807 0.20162 0.0
H1585 H 0.5 0.97235 0.21642 0.0
H1586 H 0.51275 0.96862 0.21096 0.0
H1587 H 0.53492 0.03076 0.24502 0.0
H1588 H 0.51696 0.01993 0.24239 0.0
H1589 H 0.52702 0.02841 0.22771 0.0
H1590 H 0.56432 0.02994 0.14875 0.0
H1591 H 0.54261 0.01737 0.13828 0.0
H1592 H 0.54958 0.05742 0.14977 0.0
H1593 H 0.51689 0.99841 0.15889 0.0
H1594 H 0.52164 0.99731 0.14107 0.0
H1595 H 0.50729 0.99925 0.14428 0.0
H1596 H 0.5335 0.06093 0.1612 0.0
H1597 H 0.52429 0.04778 0.1736 0.0
H1598 H 0.51629 0.04777 0.15721 0.0
H1599 H 0.43439 0.01547 0.13984 0.0
H1600 H 0.41146 0.99805 0.14683 0.0
H1601 H 0.42397 0.99505 0.15481 0.0
H1602 H 0.41387 0.98442 0.13977 0.0
H1603 H 0.44897 0.98546 0.13254 0.0
H1604 H 0.45427 0.02378 0.14882 0.0
H1605 H 0.4712 0.98329 0.15673 0.0
H1606 H 0.48055 0.9912 0.14146 0.0
H1607 H 0.46337 0.97737 0.1393 0.0
H1608 H 0.4723 0.03883 0.16393 0.0
H1609 H 0.4873 0.03794 0.16133 0.0
H1610 H 0.47712 0.02992 0.17608 0.0
H1611 H 0.49457 0.99053 0.23567 0.0
H1612 H 0.52929 0.01354 0.20249 0.0
H1613 H 0.53031 0.02184 0.17932 0.0
H1614 H 0.49808 0.02104 0.14581 0.0
H1615 H 0.4639 0.00067 0.18019 0.0
H1616 H 0.46313 0.9933 0.20386 0.0
H1617 H 0.58785 0.04706 0.15573 0.0
H1618 H 0.57605 0.05133 0.16302 0.0
H1619 H 0.58581 0.0605 0.14828 0.0
C1620 C 0.54839 0.96157 0.77384 0.0
C1621 C 0.55121 0.97479 0.76681 0.0
C1622 C 0.54587 0.9881 0.78381 0.0
C1623 C 0.55136 0.00061 0.79148 0.0
C1624 C 0.5432 0.00435 0.7989 0.0
C1625 C 0.52919 0.99511 0.79896 0.0
C1626 C 0.52353 0.9824 0.79125 0.0
C1627 C 0.53191 0.97906 0.78364 0.0
C1628 C 0.54958 0.01814 0.80673 0.0
C1629 C 0.50865 0.97227 0.79113 0.0
C1630 C 0.48496 0.03357 0.74991 0.0
C1631 C 0.47473 0.02173 0.75845 0.0
C1632 C 0.48348 0.02101 0.78162 0.0
C1633 C 0.47844 0.00698 0.78318 0.0
C1634 C 0.48519 0.00242 0.79196 0.0
C1635 C 0.49733 0.01215 0.79916 0.0
C1636 C 0.50229 0.02634 0.79779 0.0
C1637 C 0.49513 0.03059 0.78921 0.0
C1638 C 0.47944 0.98722 0.79338 0.0
C1639 C 0.51529 0.03701 0.80512 0.0
C1640 C 0.4826 0.02109 0.89025 0.0
C1641 C 0.47564 0.00755 0.88458 0.0
C1642 C 0.48247 0.00195 0.87752 0.0
C1643 C 0.49649 0.01014 0.87591 0.0
C1644 C 0.50356 0.02362 0.88207 0.0
C1645 C 0.49652 0.02883 0.88934 0.0
C1646 C 0.4747 0.98737 0.87156 0.0
C1647 C 0.51852 0.03262 0.88067 0.0
C1648 C 0.55843 0.96484 0.88192 0.0
C1649 C 0.56063 0.97728 0.89096 0.0
C1650 C 0.5413 0.98049 0.88873 0.0
C1651 C 0.52749 0.97197 0.8863 0.0
C1652 C 0.51985 0.97671 0.87939 0.0
C1653 C 0.5262 0.99042 0.87513 0.0
C1654 C 0.54007 0.99932 0.87824 0.0
C1655 C 0.5475 0.99424 0.885 0.0
C1656 C 0.50506 0.96699 0.87636 0.0
C1657 C 0.54707 0.01413 0.87429 0.0
C1658 C 0.52052 0.99864 0.80735 0.0
C1659 C 0.51319 0.00356 0.80025 0.0
C1660 C 0.50511 0.00742 0.80757 0.0
C1661 C 0.50452 0.00664 0.82246 0.0
C1662 C 0.49679 0.01076 0.83023 0.0
C1663 C 0.49658 0.0103 0.84491 0.0
C1664 C 0.50381 0.00536 0.85239 0.0
C1665 C 0.5037 0.00488 0.86733 0.0
C1666 C 0.51097 0.99987 0.8744 0.0
C1667 C 0.51845 0.99533 0.86696 0.0
C1668 C 0.51869 0.99574 0.85203 0.0
C1669 C 0.52605 0.99118 0.84422 0.0
C1670 C 0.52657 0.99201 0.82959 0.0
C1671 C 0.51972 0.99739 0.82218 0.0
C1672 C 0.51187 0.00161 0.82978 0.0
C1673 C 0.51141 0.00085 0.84474 0.0
C1674 C 0.46332 0.03773 0.89319 0.0
C1675 C 0.46336 0.02423 0.89318 0.0
O1676 O 0.55443 0.98517 0.77695 0.0
O1677 O 0.54828 0.97524 0.89501 0.0
O1678 O 0.47623 0.02702 0.8966 0.0
O1679 O 0.47731 0.02548 0.77275 0.0
H1680 H 0.54205 0.97263 0.76054 0.0
H1681 H 0.53938 0.95768 0.78034 0.0
H1682 H 0.55697 0.96337 0.78089 0.0
H1683 H 0.5465 0.95349 0.76565 0.0
H1684 H 0.56212 0.00753 0.79154 0.0
H1685 H 0.52745 0.96931 0.77781 0.0
H1686 H 0.54397 0.02346 0.80425 0.0
H1687 H 0.56024 0.02485 0.80404 0.0
H1688 H 0.54918 0.01668 0.81829 0.0
H1689 H 0.50601 0.96224 0.78592 0.0
H1690 H 0.50323 0.97654 0.78535 0.0
H1691 H 0.50506 0.97053 0.80211 0.0
H1692 H 0.47594 0.01272 0.75599 0.0
H1693 H 0.48317 0.03075 0.7384 0.0
H1694 H 0.49527 0.03593 0.75293 0.0
H1695 H 0.48429 0.04294 0.75198 0.0
H1696 H 0.46923 0.99962 0.77749 0.0
H1697 H 0.49885 0.04142 0.78798 0.0
H1698 H 0.47923 0.98482 0.80471 0.0
H1699 H 0.48595 0.98404 0.78801 0.0
H1700 H 0.46912 0.9811 0.78861 0.0
H1701 H 0.51829 0.04758 0.80209 0.0
H1702 H 0.52346 0.03494 0.8025 0.0
H1703 H 0.51422 0.03647 0.81675 0.0
H1704 H 0.4603 0.01958 0.88223 0.0
H1705 H 0.46489 0.00135 0.88568 0.0
H1706 H 0.50179 0.0392 0.89395 0.0
H1707 H 0.47437 0.98738 0.85983 0.0
H1708 H 0.46423 0.98183 0.87519 0.0
H1709 H 0.47979 0.98167 0.87468 0.0
H1710 H 0.5224 0.04312 0.88537 0.0
H1711 H 0.52104 0.03339 0.86933 0.0
H1712 H 0.52376 0.02794 0.88603 0.0
H1713 H 0.56583 0.98641 0.88438 0.0
H1714 H 0.5682 0.96627 0.87848 0.0
H1715 H 0.55216 0.96358 0.87232 0.0
H1716 H 0.55323 0.95534 0.88796 0.0
H1717 H 0.52277 0.96145 0.8895 0.0
H1718 H 0.55808 0.00105 0.88749 0.0
H1719 H 0.50277 0.96632 0.86482 0.0
H1720 H 0.49918 0.97099 0.88173 0.0
H1721 H 0.50171 0.95652 0.88 0.0
H1722 H 0.55753 0.02005 0.87872 0.0
H1723 H 0.54143 0.01908 0.87814 0.0
H1724 H 0.54731 0.01467 0.8626 0.0
H1725 H 0.51379 0.00441 0.78886 0.0
H1726 H 0.49095 0.01455 0.82505 0.0
H1727 H 0.49064 0.01385 0.85032 0.0
H1728 H 0.51092 0.99964 0.88586 0.0
H1729 H 0.53157 0.98699 0.84933 0.0
H1730 H 0.53245 0.9884 0.82416 0.0
H1731 H 0.45313 0.03581 0.89029 0.0
H1732 H 0.4704 0.04455 0.88532 0.0
H1733 H 0.46647 0.04309 0.9038 0.0
C1734 C 0.02786 0.55825 0.73367 0.0
C1735 C 0.01793 0.55827 0.74417 0.0
C1736 C 0.02068 0.55376 0.76868 0.0
C1737 C 0.00726 0.54437 0.77151 0.0
C1738 C 0.00411 0.53506 0.78231 0.0
C1739 C 0.01459 0.53521 0.79043 0.0
C1740 C 0.02809 0.54524 0.78815 0.0
C1741 C 0.03094 0.55453 0.77738 0.0
C1742 C 0.9896 0.52474 0.78472 0.0
C1743 C 0.03953 0.54574 0.79662 0.0
C1744 C 0.01391 0.4416 0.76106 0.0
C1745 C 0.01766 0.45468 0.76897 0.0
C1746 C 0.00744 0.46725 0.77901 0.0
C1747 C 0.01924 0.47734 0.78625 0.0
C1748 C 0.01943 0.48819 0.79404 0.0
C1749 C 0.00757 0.48889 0.79478 0.0
C1750 C 0.99561 0.4786 0.78778 0.0
C1751 C 0.99573 0.46792 0.77995 0.0
C1752 C 0.0324 0.49907 0.80127 0.0
C1753 C 0.98278 0.47902 0.7884 0.0
C1754 C 0.00552 0.47655 0.89017 0.0
C1755 C 0.01754 0.48619 0.88436 0.0
C1756 C 0.01795 0.49575 0.87494 0.0
C1757 C 0.00595 0.49557 0.87115 0.0
C1758 C 0.99368 0.48568 0.87675 0.0
C1759 C 0.99357 0.47625 0.8862 0.0
C1760 C 0.03122 0.50612 0.86915 0.0
C1761 C 0.98071 0.48515 0.8728 0.0
C1762 C 0.02172 0.59542 0.87655 0.0
C1763 C 0.01351 0.58532 0.88779 0.0
C1764 C 0.0161 0.5654 0.88237 0.0
C1765 C 0.02649 0.56256 0.88114 0.0
C1766 C 0.02461 0.55093 0.87339 0.0
C1767 C 0.01185 0.54165 0.86708 0.0
C1768 C 0.00117 0.5443 0.86852 0.0
C1769 C 0.00343 0.55621 0.87607 0.0
C1770 C 0.03626 0.54848 0.87213 0.0
C1771 C 0.98731 0.53438 0.86235 0.0
C1772 C 0.01156 0.52391 0.80002 0.0
C1773 C 0.01012 0.51183 0.79388 0.0
C1774 C 0.00795 0.50088 0.8021 0.0
C1775 C 0.00703 0.50186 0.81691 0.0
C1776 C 0.00485 0.49102 0.8255 0.0
C1777 C 0.0045 0.4923 0.84014 0.0
C1778 C 0.00624 0.50442 0.84672 0.0
C1779 C 0.00638 0.50599 0.86161 0.0
C1780 C 0.00786 0.51806 0.86781 0.0
C1781 C 0.00956 0.52887 0.85958 0.0
C1782 C 0.00975 0.52763 0.84466 0.0
C1783 C 0.01181 0.53842 0.83603 0.0
C1784 C 0.01221 0.53716 0.82139 0.0
C1785 C 0.01073 0.52514 0.81483 0.0
C1786 C 0.00851 0.51408 0.82331 0.0
C1787 C 0.00805 0.51534 0.83823 0.0
C1788 C 0.993 0.46582 0.91983 0.0
C1789 C 0.99578 0.45849 0.90761 0.0
O1790 O 0.02406 0.56209 0.75757 0.0
O1791 O 0.01859 0.57673 0.89026 0.0
O1792 O 0.00605 0.46794 0.89958 0.0
O1793 O 0.00699 0.45684 0.77098 0.0
H1794 H 0.00925 0.54758 0.74381 0.0
H1795 H 0.03058 0.5505 0.7366 0.0
H1796 H 0.0372 0.56843 0.73374 0.0
H1797 H 0.02325 0.55556 0.72279 0.0
H1798 H 0.99926 0.5442 0.7652 0.0
H1799 H 0.04125 0.56201 0.77527 0.0
H1800 H 0.98746 0.51437 0.78113 0.0
H1801 H 0.98262 0.52709 0.77888 0.0
H1802 H 0.9876 0.52443 0.79618 0.0
H1803 H 0.04946 0.55424 0.7936 0.0
H1804 H 0.03937 0.53589 0.79501 0.0
H1805 H 0.03832 0.54705 0.80806 0.0
H1806 H 0.02676 0.46388 0.7652 0.0
H1807 H 0.01953 0.44478 0.75097 0.0
H1808 H 0.00378 0.43795 0.75575 0.0
H1809 H 0.01726 0.43021 0.77605 0.0
H1810 H 0.02837 0.47693 0.78575 0.0
H1811 H 0.98666 0.46008 0.77441 0.0
H1812 H 0.03114 0.49921 0.81287 0.0
H1813 H 0.03504 0.50933 0.79755 0.0
H1814 H 0.04088 0.49732 0.79925 0.0
H1815 H 0.97407 0.46962 0.78348 0.0
H1816 H 0.98398 0.48804 0.78278 0.0
H1817 H 0.98062 0.48023 0.79957 0.0
H1818 H 0.98652 0.45249 0.9008 0.0
H1819 H 0.02669 0.48632 0.8874 0.0
H1820 H 0.98413 0.46879 0.89046 0.0
H1821 H 0.03081 0.50476 0.85745 0.0
H1822 H 0.03971 0.50518 0.87349 0.0
H1823 H 0.03324 0.51666 0.87168 0.0
H1824 H 0.97189 0.47641 0.87748 0.0
H1825 H 0.97919 0.48426 0.86111 0.0
H1826 H 0.98127 0.49484 0.87649 0.0
H1827 H 0.00288 0.57934 0.88391 0.0
H1828 H 0.01776 0.60235 0.87435 0.0
H1829 H 0.02109 0.58972 0.86654 0.0
H1830 H 0.03243 0.6017 0.88016 0.0
H1831 H 0.03617 0.56961 0.8862 0.0
H1832 H 0.99514 0.55797 0.87738 0.0
H1833 H 0.03711 0.54572 0.86099 0.0
H1834 H 0.03449 0.53976 0.87866 0.0
H1835 H 0.04593 0.55761 0.87578 0.0
H1836 H 0.97986 0.53741 0.86525 0.0
H1837 H 0.98387 0.52393 0.86609 0.0
H1838 H 0.98762 0.53386 0.85065 0.0
H1839 H 0.011 0.51106 0.78253 0.0
H1840 H 0.0035 0.48148 0.821 0.0
H1841 H 0.0029 0.48367 0.84624 0.0
H1842 H 0.00802 0.5192 0.87926 0.0
H1843 H 0.01318 0.54797 0.84052 0.0
H1844 H 0.01383 0.54578 0.81526 0.0
H1845 H 0.00221 0.47203 0.92664 0.0
H1846 H 0.98493 0.4582 0.92638 0.0
H1847 H 0.98966 0.47274 0.91573 0.0
C1848 C 0.52547 0.58027 0.75075 0.0
C1849 C 0.53559 0.58109 0.76204 0.0
C1850 C 0.5211 0.56123 0.77622 0.0
C1851 C 0.51388 0.56683 0.7825 0.0
C1852 C 0.503 0.5589 0.79102 0.0
C1853 C 0.49941 0.5452 0.79349 0.0
C1854 C 0.50689 0.53967 0.78752 0.0
C1855 C 0.51764 0.54778 0.77894 0.0
C1856 C 0.49522 0.56511 0.79724 0.0
C1857 C 0.50342 0.52515 0.79008 0.0
C1858 C 0.40897 0.49366 0.74358 0.0
C1859 C 0.41763 0.48922 0.75165 0.0
C1860 C 0.42788 0.49783 0.77503 0.0
C1861 C 0.43722 0.49342 0.77584 0.0
C1862 C 0.4486 0.50026 0.78499 0.0
C1863 C 0.45085 0.512 0.79314 0.0
C1864 C 0.44137 0.51644 0.79227 0.0
C1865 C 0.42979 0.50901 0.7835 0.0
C1866 C 0.4583 0.49504 0.78573 0.0
C1867 C 0.44357 0.52921 0.80025 0.0
C1868 C 0.42864 0.50211 0.88396 0.0
C1869 C 0.43531 0.49512 0.87992 0.0
C1870 C 0.44757 0.50193 0.87312 0.0
C1871 C 0.4531 0.51593 0.87008 0.0
C1872 C 0.4466 0.52308 0.87459 0.0
C1873 C 0.43453 0.51609 0.88167 0.0
C1874 C 0.45451 0.49414 0.86897 0.0
C1875 C 0.45223 0.53803 0.87164 0.0
C1876 C 0.55327 0.59299 0.87622 0.0
C1877 C 0.5461 0.59073 0.89022 0.0
C1878 C 0.52593 0.56814 0.88494 0.0
C1879 C 0.52119 0.55407 0.88508 0.0
C1880 C 0.50932 0.54455 0.87761 0.0
C1881 C 0.5018 0.54925 0.87013 0.0
C1882 C 0.50622 0.56344 0.87044 0.0
C1883 C 0.51835 0.57276 0.87763 0.0
C1884 C 0.50493 0.52951 0.87753 0.0
C1885 C 0.4982 0.56883 0.8631 0.0
C1886 C 0.48754 0.53651 0.80191 0.0
C1887 C 0.47527 0.52826 0.79461 0.0
C1888 C 0.46352 0.52013 0.80179 0.0
C1889 C 0.46398 0.52031 0.81676 0.0
C1890 C 0.4524 0.51233 0.82439 0.0
C1891 C 0.45283 0.51319 0.83911 0.0
C1892 C 0.46493 0.52179 0.84681 0.0
C1893 C 0.46541 0.52301 0.86177 0.0
C1894 C 0.4776 0.53175 0.86905 0.0
C1895 C 0.48942 0.53939 0.8618 0.0
C1896 C 0.48916 0.53818 0.84685 0.0
C1897 C 0.5009 0.54553 0.83923 0.0
C1898 C 0.50042 0.54489 0.82451 0.0
C1899 C 0.48821 0.53678 0.81685 0.0
C1900 C 0.47635 0.52881 0.82431 0.0
C1901 C 0.47683 0.52951 0.83934 0.0
C1902 C 0.39307 0.48185 0.88518 0.0
C1903 C 0.40644 0.48226 0.88705 0.0
O1904 O 0.53132 0.56827 0.76736 0.0
O1905 O 0.53777 0.57679 0.89199 0.0
O1906 O 0.41651 0.4957 0.89002 0.0
O1907 O 0.41702 0.49152 0.76602 0.0
H1908 H 0.53673 0.58842 0.77079 0.0
H1909 H 0.51559 0.577 0.75536 0.0
H1910 H 0.52401 0.57279 0.74204 0.0
H1911 H 0.52911 0.5905 0.74628 0.0
H1912 H 0.51653 0.57729 0.78072 0.0
H1913 H 0.52331 0.54357 0.77415 0.0
H1914 H 0.48443 0.55872 0.79398 0.0
H1915 H 0.49895 0.57575 0.79389 0.0
H1916 H 0.49595 0.56528 0.80896 0.0
H1917 H 0.51081 0.5227 0.78554 0.0
H1918 H 0.49335 0.5179 0.78524 0.0
H1919 H 0.50295 0.52348 0.80162 0.0
H1920 H 0.42813 0.49569 0.74819 0.0
H1921 H 0.40956 0.49231 0.73198 0.0
H1922 H 0.41262 0.50466 0.74612 0.0
H1923 H 0.39832 0.48752 0.74656 0.0
H1924 H 0.43555 0.4846 0.76936 0.0
H1925 H 0.42244 0.51227 0.78277 0.0
H1926 H 0.46157 0.49515 0.79687 0.0
H1927 H 0.46735 0.50186 0.77981 0.0
H1928 H 0.45385 0.48445 0.78103 0.0
H1929 H 0.43686 0.5328 0.79611 0.0
H1930 H 0.45413 0.53765 0.79964 0.0
H1931 H 0.44145 0.52701 0.81156 0.0
H1932 H 0.40818 0.4784 0.8768 0.0
H1933 H 0.43097 0.48438 0.88212 0.0
H1934 H 0.42938 0.52142 0.88503 0.0
H1935 H 0.45401 0.49271 0.85728 0.0
H1936 H 0.44983 0.48389 0.87364 0.0
H1937 H 0.46527 0.50008 0.87242 0.0
H1938 H 0.44547 0.54183 0.87497 0.0
H1939 H 0.45397 0.53963 0.86017 0.0
H1940 H 0.46207 0.54428 0.8774 0.0
H1941 H 0.54012 0.59594 0.89019 0.0
H1942 H 0.55992 0.60413 0.87465 0.0
H1943 H 0.54582 0.58864 0.8672 0.0
H1944 H 0.55938 0.58793 0.87612 0.0
H1945 H 0.52704 0.55058 0.89082 0.0
H1946 H 0.52171 0.58357 0.87752 0.0
H1947 H 0.50308 0.52522 0.86648 0.0
H1948 H 0.49535 0.52387 0.88307 0.0
H1949 H 0.51249 0.52766 0.88283 0.0
H1950 H 0.50164 0.57963 0.86649 0.0
H1951 H 0.48737 0.56241 0.86526 0.0
H1952 H 0.49928 0.56839 0.8515 0.0
H1953 H 0.47483 0.52829 0.78314 0.0
H1954 H 0.44283 0.50547 0.81905 0.0
H1955 H 0.44351 0.50705 0.84438 0.0
H1956 H 0.47783 0.53287 0.88049 0.0
H1957 H 0.51057 0.55199 0.84456 0.0
H1958 H 0.50974 0.55091 0.81921 0.0
H1959 H 0.39073 0.4858 0.89496 0.0
H1960 H 0.38481 0.47118 0.88266 0.0
H1961 H 0.39359 0.48832 0.87632 0.0
C1962 C 0.61961 0.76539 0.61642 0.0
C1963 C 0.62124 0.75658 0.60491 0.0
C1964 C 0.62596 0.77129 0.58456 0.0
C1965 C 0.61267 0.76791 0.58142 0.0
C1966 C 0.60987 0.7753 0.57162 0.0
C1967 C 0.62057 0.78643 0.56502 0.0
C1968 C 0.63394 0.7897 0.56796 0.0
C1969 C 0.63642 0.78192 0.57755 0.0
C1970 C 0.59548 0.77143 0.56859 0.0
C1971 C 0.64561 0.80165 0.56131 0.0
C1972 C 0.60165 0.84416 0.6192 0.0
C1973 C 0.61149 0.8508 0.60734 0.0
C1974 C 0.60659 0.84009 0.58375 0.0
C1975 C 0.61958 0.8438 0.57976 0.0
C1976 C 0.62166 0.83575 0.56972 0.0
C1977 C 0.6105 0.82368 0.56367 0.0
C1978 C 0.59734 0.82034 0.56715 0.0
C1979 C 0.59556 0.82877 0.57699 0.0
C1980 C 0.63581 0.83984 0.566 0.0
C1981 C 0.5852 0.80748 0.56105 0.0
C1982 C 0.5951 0.83207 0.47327 0.0
C1983 C 0.60877 0.8378 0.47704 0.0
C1984 C 0.61343 0.82996 0.48367 0.0
C1985 C 0.60418 0.81621 0.48679 0.0
C1986 C 0.59052 0.81026 0.48241 0.0
C1987 C 0.58621 0.81826 0.47551 0.0
C1988 C 0.62815 0.83646 0.48768 0.0
C1989 C 0.5804 0.79559 0.48538 0.0
C1990 C 0.61231 0.72914 0.47545 0.0
C1991 C 0.61462 0.73803 0.46267 0.0
C1992 C 0.62079 0.76072 0.47335 0.0
C1993 C 0.63139 0.77411 0.47612 0.0
C1994 C 0.62944 0.78391 0.48344 0.0
C1995 C 0.61651 0.78021 0.48808 0.0
C1996 C 0.60568 0.76672 0.48523 0.0
C1997 C 0.60792 0.75711 0.47793 0.0
C1998 C 0.6412 0.7982 0.48632 0.0
C1999 C 0.59176 0.76245 0.49002 0.0
C2000 C 0.61781 0.79532 0.55601 0.0
C2001 C 0.61571 0.80513 0.56288 0.0
C2002 C 0.61269 0.81371 0.55531 0.0
C2003 C 0.61174 0.81253 0.54036 0.0
C2004 C 0.6086 0.8209 0.53239 0.0
C2005 C 0.60743 0.81945 0.51769 0.0
C2006 C 0.60969 0.80982 0.51037 0.0
C2007 C 0.60856 0.8083 0.49542 0.0
C2008 C 0.611 0.79873 0.4885 0.0
C2009 C 0.61434 0.79037 0.49612 0.0
C2010 C 0.61529 0.79157 0.51108 0.0
C2011 C 0.61832 0.78312 0.5191 0.0
C2012 C 0.61905 0.78425 0.53381 0.0
C2013 C 0.617 0.79402 0.54108 0.0
C2014 C 0.61396 0.80267 0.53322 0.0
C2015 C 0.61303 0.80139 0.51821 0.0
C2016 C 0.58289 0.85535 0.47322 0.0
C2017 C 0.59485 0.85335 0.47075 0.0
O2018 O 0.62921 0.76476 0.59435 0.0
O2019 O 0.6235 0.75173 0.46637 0.0
O2020 O 0.59015 0.83958 0.46761 0.0
O2021 O 0.60446 0.84697 0.59441 0.0
H2022 H 0.61122 0.7488 0.60032 0.0
H2023 H 0.61452 0.77063 0.61194 0.0
H2024 H 0.62957 0.77331 0.62104 0.0
H2025 H 0.61338 0.75888 0.62499 0.0
H2026 H 0.60441 0.75962 0.58659 0.0
H2027 H 0.64663 0.78441 0.57998 0.0
H2028 H 0.59371 0.77945 0.57331 0.0
H2029 H 0.58825 0.76144 0.57301 0.0
H2030 H 0.59344 0.77084 0.55699 0.0
H2031 H 0.65544 0.80321 0.56519 0.0
H2032 H 0.64534 0.81119 0.56363 0.0
H2033 H 0.64481 0.79991 0.54965 0.0
H2034 H 0.61851 0.84676 0.60802 0.0
H2035 H 0.60706 0.8474 0.62968 0.0
H2036 H 0.5967 0.83282 0.61791 0.0
H2037 H 0.59374 0.84699 0.61893 0.0
H2038 H 0.6281 0.85285 0.58471 0.0
H2039 H 0.58556 0.82612 0.58005 0.0
H2040 H 0.6365 0.8389 0.55437 0.0
H2041 H 0.63862 0.83281 0.57096 0.0
H2042 H 0.64317 0.85051 0.56977 0.0
H2043 H 0.57566 0.80623 0.56502 0.0
H2044 H 0.58589 0.79836 0.56378 0.0
H2045 H 0.58489 0.80775 0.54934 0.0
H2046 H 0.60102 0.85669 0.48083 0.0
H2047 H 0.61578 0.84839 0.47484 0.0
H2048 H 0.57573 0.81389 0.47233 0.0
H2049 H 0.62958 0.83811 0.49935 0.0
H2050 H 0.63427 0.8465 0.48278 0.0
H2051 H 0.63192 0.82954 0.48442 0.0
H2052 H 0.57003 0.79273 0.48196 0.0
H2053 H 0.58059 0.79393 0.49688 0.0
H2054 H 0.58309 0.78861 0.47974 0.0
H2055 H 0.60484 0.73673 0.45893 0.0
H2056 H 0.60541 0.71815 0.47238 0.0
H2057 H 0.6077 0.73205 0.48405 0.0
H2058 H 0.62195 0.73045 0.47964 0.0
H2059 H 0.64127 0.77684 0.47258 0.0
H2060 H 0.59955 0.74682 0.47596 0.0
H2061 H 0.64272 0.80056 0.49791 0.0
H2062 H 0.63905 0.80578 0.48154 0.0
H2063 H 0.65063 0.79947 0.48201 0.0
H2064 H 0.58432 0.75166 0.48672 0.0
H2065 H 0.58841 0.76927 0.48559 0.0
H2066 H 0.59192 0.76358 0.50173 0.0
H2067 H 0.61635 0.80603 0.57436 0.0
H2068 H 0.60689 0.82856 0.53745 0.0
H2069 H 0.60479 0.82606 0.51215 0.0
H2070 H 0.6101 0.79762 0.47704 0.0
H2071 H 0.62008 0.77547 0.51408 0.0
H2072 H 0.62131 0.7774 0.53944 0.0
H2073 H 0.5864 0.86632 0.47584 0.0
H2074 H 0.57714 0.84921 0.48221 0.0
H2075 H 0.57607 0.85197 0.46366 0.0
C2076 C 0.14288 0.73465 0.62494 0.0
C2077 C 0.13943 0.7433 0.61553 0.0
C2078 C 0.14882 0.75141 0.59267 0.0
C2079 C 0.14686 0.76263 0.59164 0.0
C2080 C 0.15463 0.7733 0.58267 0.0
C2081 C 0.16478 0.77287 0.57487 0.0
C2082 C 0.16671 0.76148 0.5759 0.0
C2083 C 0.15843 0.75072 0.58452 0.0
C2084 C 0.15206 0.78508 0.58167 0.0
C2085 C 0.17771 0.76077 0.56821 0.0
C2086 C 0.24962 0.87184 0.61232 0.0
C2087 C 0.24218 0.85796 0.60515 0.0
C2088 C 0.22129 0.84344 0.59126 0.0
C2089 C 0.22447 0.83339 0.58717 0.0
C2090 C 0.21541 0.82181 0.57874 0.0
C2091 C 0.20296 0.82029 0.57426 0.0
C2092 C 0.19981 0.83047 0.57821 0.0
C2093 C 0.20903 0.84192 0.58666 0.0
C2094 C 0.21907 0.81114 0.57468 0.0
C2095 C 0.18664 0.82919 0.57359 0.0
C2096 C 0.22271 0.83561 0.4821 0.0
C2097 C 0.22356 0.82407 0.48571 0.0
C2098 C 0.21353 0.81365 0.49347 0.0
C2099 C 0.20228 0.81461 0.49748 0.0
C2100 C 0.2012 0.82601 0.49354 0.0
C2101 C 0.2115 0.8364 0.48599 0.0
C2102 C 0.215 0.80162 0.49744 0.0
C2103 C 0.18924 0.82725 0.49744 0.0
C2104 C 0.11587 0.7089 0.48211 0.0
C2105 C 0.12099 0.7238 0.47847 0.0
C2106 C 0.14368 0.74298 0.48425 0.0
C2107 C 0.15648 0.74555 0.48814 0.0
C2108 C 0.16589 0.75791 0.49518 0.0
C2109 C 0.16245 0.76808 0.49812 0.0
C2110 C 0.1497 0.76579 0.49367 0.0
C2111 C 0.14041 0.75324 0.48677 0.0
C2112 C 0.17942 0.76001 0.49968 0.0
C2113 C 0.14584 0.77655 0.49638 0.0
C2114 C 0.1738 0.78459 0.56619 0.0
C2115 C 0.18372 0.79659 0.57329 0.0
C2116 C 0.193 0.80781 0.56588 0.0
C2117 C 0.19264 0.80701 0.55092 0.0
C2118 C 0.20214 0.81789 0.54314 0.0
C2119 C 0.20189 0.81687 0.52843 0.0
C2120 C 0.192 0.805 0.52091 0.0
C2121 C 0.19177 0.80378 0.50597 0.0
C2122 C 0.18184 0.7918 0.49885 0.0
C2123 C 0.1721 0.78088 0.50626 0.0
C2124 C 0.17214 0.78193 0.5212 0.0
C2125 C 0.16249 0.77115 0.52899 0.0
C2126 C 0.16285 0.7721 0.5437 0.0
C2127 C 0.17297 0.78379 0.55122 0.0
C2128 C 0.18257 0.79495 0.54357 0.0
C2129 C 0.18218 0.794 0.52855 0.0
C2130 C 0.25469 0.85191 0.4826 0.0
C2131 C 0.24433 0.84764 0.47029 0.0
O2132 O 0.14171 0.74122 0.60159 0.0
O2133 O 0.13487 0.73055 0.47805 0.0
O2134 O 0.23242 0.84622 0.47506 0.0
O2135 O 0.22966 0.85468 0.59962 0.0
H2136 H 0.14628 0.75423 0.61909 0.0
H2137 H 0.15359 0.73772 0.62386 0.0
H2138 H 0.13656 0.72357 0.62185 0.0
H2139 H 0.14129 0.73626 0.63622 0.0
H2140 H 0.13921 0.76298 0.5978 0.0
H2141 H 0.15979 0.74196 0.5854 0.0
H2142 H 0.16027 0.79426 0.58746 0.0
H2143 H 0.1424 0.78273 0.58633 0.0
H2144 H 0.15195 0.78771 0.57046 0.0
H2145 H 0.17952 0.7527 0.57228 0.0
H2146 H 0.18724 0.77077 0.56922 0.0
H2147 H 0.17483 0.75839 0.55679 0.0
H2148 H 0.24198 0.84957 0.61125 0.0
H2149 H 0.25069 0.86994 0.62375 0.0
H2150 H 0.242 0.87507 0.61421 0.0
H2151 H 0.26617 0.88269 0.59967 0.0
H2152 H 0.23396 0.83446 0.59058 0.0
H2153 H 0.20668 0.84974 0.58982 0.0
H2154 H 0.21874 0.80982 0.56298 0.0
H2155 H 0.21161 0.8011 0.57882 0.0
H2156 H 0.22922 0.8139 0.57883 0.0
H2157 H 0.18585 0.83818 0.57722 0.0
H2158 H 0.17822 0.81979 0.57787 0.0
H2159 H 0.18547 0.8281 0.56186 0.0
H2160 H 0.24241 0.83773 0.46533 0.0
H2161 H 0.23204 0.82313 0.48265 0.0
H2162 H 0.21086 0.84528 0.48312 0.0
H2163 H 0.21363 0.8 0.50896 0.0
H2164 H 0.22494 0.80305 0.49477 0.0
H2165 H 0.20709 0.7922 0.49172 0.0
H2166 H 0.18942 0.83622 0.49269 0.0
H2167 H 0.18908 0.82835 0.50912 0.0
H2168 H 0.17982 0.81779 0.49388 0.0
H2169 H 0.11781 0.72836 0.48707 0.0
H2170 H 0.10476 0.70325 0.48277 0.0
H2171 H 0.12027 0.70859 0.49253 0.0
H2172 H 0.11875 0.70367 0.47398 0.0
H2173 H 0.15896 0.73764 0.48594 0.0
H2174 H 0.13067 0.75152 0.4833 0.0
H2175 H 0.18113 0.76224 0.51128 0.0
H2176 H 0.18742 0.76899 0.49441 0.0
H2177 H 0.18037 0.75092 0.49699 0.0
H2178 H 0.1358 0.7735 0.49165 0.0
H2179 H 0.15342 0.78639 0.49197 0.0
H2180 H 0.14577 0.77838 0.50796 0.0
H2181 H 0.18428 0.79717 0.58477 0.0
H2182 H 0.20998 0.82727 0.54836 0.0
H2183 H 0.20957 0.82551 0.52302 0.0
H2184 H 0.18186 0.79085 0.48741 0.0
H2185 H 0.15456 0.76181 0.5238 0.0
H2186 H 0.15515 0.76349 0.54913 0.0
H2187 H 0.25656 0.86163 0.48795 0.0
H2188 H 0.26431 0.85339 0.47865 0.0
H2189 H 0.25113 0.84392 0.49057 0.0
C2190 C 0.14591 0.38913 0.60866 0.0
C2191 C 0.13602 0.38318 0.59585 0.0
C2192 C 0.149 0.37765 0.57919 0.0
C2193 C 0.15843 0.39125 0.57609 0.0
C2194 C 0.16933 0.39415 0.56761 0.0
C2195 C 0.17078 0.38325 0.56197 0.0
C2196 C 0.1612 0.36957 0.56486 0.0
C2197 C 0.15043 0.36696 0.57343 0.0
C2198 C 0.17937 0.40887 0.56471 0.0
C2199 C 0.1624 0.35771 0.55894 0.0
C2200 C 0.27073 0.41098 0.57852 0.0
C2201 C 0.25984 0.40045 0.58776 0.0
C2202 C 0.23883 0.39105 0.57325 0.0
C2203 C 0.22903 0.37938 0.56565 0.0
C2204 C 0.21802 0.37916 0.5589 0.0
C2205 C 0.21683 0.39101 0.55971 0.0
C2206 C 0.22665 0.40288 0.56744 0.0
C2207 C 0.23756 0.4028 0.57416 0.0
C2208 C 0.20768 0.36628 0.55083 0.0
C2209 C 0.22567 0.41569 0.56844 0.0
C2210 C 0.24146 0.41646 0.46998 0.0
C2211 C 0.23505 0.40274 0.47377 0.0
C2212 C 0.22305 0.39704 0.48111 0.0
C2213 C 0.21774 0.40546 0.48524 0.0
C2214 C 0.22424 0.41931 0.48131 0.0
C2215 C 0.23585 0.42451 0.47343 0.0
C2216 C 0.21609 0.38205 0.4844 0.0
C2217 C 0.21897 0.42868 0.48539 0.0
C2218 C 0.12456 0.39607 0.46952 0.0
C2219 C 0.13164 0.3925 0.45803 0.0
C2220 C 0.14644 0.38606 0.47049 0.0
C2221 C 0.14872 0.37524 0.4728 0.0
C2222 C 0.16019 0.37735 0.48044 0.0
C2223 C 0.16955 0.39064 0.48603 0.0
C2224 C 0.16725 0.40163 0.48391 0.0
C2225 C 0.15576 0.39926 0.47612 0.0
C2226 C 0.16232 0.36539 0.48254 0.0
C2227 C 0.17693 0.41589 0.48992 0.0
C2228 C 0.18238 0.38624 0.55314 0.0
C2229 C 0.19389 0.38755 0.55982 0.0
C2230 C 0.20538 0.39096 0.55225 0.0
C2231 C 0.20559 0.39357 0.5377 0.0
C2232 C 0.21727 0.39798 0.53 0.0
C2233 C 0.21734 0.40038 0.51565 0.0
C2234 C 0.20559 0.39797 0.50832 0.0
C2235 C 0.20541 0.39991 0.49361 0.0
C2236 C 0.19348 0.39724 0.48668 0.0
C2237 C 0.18175 0.39304 0.49409 0.0
C2238 C 0.18182 0.39136 0.50883 0.0
C2239 C 0.1703 0.38753 0.51668 0.0
C2240 C 0.17047 0.38594 0.5312 0.0
C2241 C 0.18212 0.38794 0.5384 0.0
C2242 C 0.19381 0.39173 0.53069 0.0
C2243 C 0.19373 0.39365 0.51593 0.0
C2244 C 0.27638 0.43546 0.46597 0.0
C2245 C 0.26404 0.42101 0.46582 0.0
O2246 O 0.1385 0.37435 0.5877 0.0
O2247 O 0.13514 0.38324 0.46292 0.0
O2248 O 0.25287 0.4221 0.46264 0.0
O2249 O 0.24927 0.39046 0.57936 0.0
H2250 H 0.13703 0.39166 0.5893 0.0
H2251 H 0.15639 0.39522 0.60523 0.0
H2252 H 0.14511 0.38077 0.61522 0.0
H2253 H 0.14377 0.39603 0.61529 0.0
H2254 H 0.15742 0.39967 0.58028 0.0
H2255 H 0.1431 0.35651 0.5758 0.0
H2256 H 0.1896 0.41128 0.56816 0.0
H2257 H 0.17708 0.41622 0.5702 0.0
H2258 H 0.17948 0.41038 0.55315 0.0
H2259 H 0.15384 0.34763 0.56172 0.0
H2260 H 0.17186 0.35856 0.56307 0.0
H2261 H 0.16289 0.3581 0.54724 0.0
H2262 H 0.25616 0.40577 0.59486 0.0
H2263 H 0.27928 0.41887 0.58528 0.0
H2264 H 0.26669 0.41626 0.57213 0.0
H2265 H 0.27446 0.40591 0.57118 0.0
H2266 H 0.23008 0.37037 0.565 0.0
H2267 H 0.24504 0.41197 0.57994 0.0
H2268 H 0.20767 0.36837 0.53944 0.0
H2269 H 0.19752 0.36305 0.55467 0.0
H2270 H 0.20965 0.35768 0.55191 0.0
H2271 H 0.23429 0.42421 0.57456 0.0
H2272 H 0.21624 0.41342 0.5736 0.0
H2273 H 0.22525 0.41912 0.55765 0.0
H2274 H 0.2634 0.41706 0.47662 0.0
H2275 H 0.23929 0.39644 0.47074 0.0
H2276 H 0.24083 0.43505 0.47025 0.0
H2277 H 0.21791 0.38105 0.49574 0.0
H2278 H 0.21985 0.37639 0.47799 0.0
H2279 H 0.20508 0.37714 0.48244 0.0
H2280 H 0.22648 0.43964 0.48392 0.0
H2281 H 0.216 0.42746 0.4966 0.0
H2282 H 0.20993 0.42594 0.47865 0.0
H2283 H 0.14079 0.40209 0.45512 0.0
H2284 H 0.12146 0.40322 0.46544 0.0
H2285 H 0.1314 0.40115 0.47889 0.0
H2286 H 0.11554 0.38669 0.47299 0.0
H2287 H 0.14148 0.36509 0.4685 0.0
H2288 H 0.15414 0.40776 0.47461 0.0
H2289 H 0.16266 0.36377 0.49402 0.0
H2290 H 0.17211 0.3677 0.47831 0.0
H2291 H 0.15425 0.35575 0.47725 0.0
H2292 H 0.17341 0.42322 0.48792 0.0
H2293 H 0.18684 0.41974 0.48513 0.0
H2294 H 0.1784 0.41561 0.50151 0.0
H2295 H 0.19388 0.38582 0.57105 0.0
H2296 H 0.22655 0.39978 0.53502 0.0
H2297 H 0.22669 0.40398 0.51035 0.0
H2298 H 0.19338 0.39867 0.4754 0.0
H2299 H 0.16102 0.38576 0.51168 0.0
H2300 H 0.16132 0.38301 0.53669 0.0
H2301 H 0.2779 0.43966 0.45525 0.0
H2302 H 0.28556 0.43542 0.46959 0.0
H2303 H 0.27495 0.44237 0.4734 0.0
H2304 H 0.98418 0.3635 0.0194 0.0
H2305 H 0.98565 0.37601 0.0415 0.0
H2306 H 0.00811 0.35975 0.06157 0.0
H2307 H 0.00706 0.34744 0.03934 0.0
H2308 H 0.98253 0.36196 0.07639 0.0
H2309 H 0.02777 0.38543 0.05587 0.0
H2310 H 0.04215 0.39542 0.03551 0.0
H2311 H 0.02608 0.422 0.02977 0.0
H2312 H 0.01139 0.4119 0.04983 0.0
H2313 H 0.00932 0.40636 0.13775 0.0
H2314 H 0.00413 0.39042 0.11748 0.0
H2315 H 0.00676 0.42115 0.08952 0.0
H2316 H 0.01293 0.4374 0.10956 0.0
H2317 H 0.01899 0.41072 0.07839 0.0
H2318 H 0.97588 0.39085 0.09825 0.0
H2319 H 0.95906 0.38129 0.11666 0.0
H2320 H 0.9676 0.34883 0.12203 0.0
H2321 H 0.98461 0.3583 0.10378 0.0
C2322 C 0.98925 0.36237 0.02856 0.0
C2323 C 0.99556 0.35452 0.0276 0.0
C2324 C 0.99006 0.36953 0.04116 0.0
C2325 C 0.99698 0.36877 0.05309 0.0
C2326 C 0.0027 0.36039 0.05244 0.0
C2327 C 0.00213 0.35344 0.03974 0.0
C2328 C 0.99926 0.37773 0.06574 0.0
C2329 C 0.9906 0.37257 0.07702 0.0
C2330 C 0.00942 0.39167 0.06617 0.0
C2331 C 0.01837 0.39778 0.0542 0.0
C2332 C 0.02719 0.39327 0.05013 0.0
C2333 C 0.03541 0.39897 0.03865 0.0
C2334 C 0.03499 0.40929 0.03127 0.0
C2335 C 0.02638 0.41397 0.0354 0.0
C2336 C 0.01809 0.40825 0.04682 0.0
C2337 C 0.00879 0.4097 0.12727 0.0
C2338 C 0.01169 0.42321 0.12535 0.0
C2339 C 0.00565 0.40052 0.11567 0.0
C2340 C 0.00488 0.40447 0.1019 0.0
C2341 C 0.00734 0.41783 0.10001 0.0
C2342 C 0.01081 0.42713 0.11155 0.0
C2343 C 0.00231 0.39504 0.08941 0.0
C2344 C 0.01091 0.40011 0.07801 0.0
C2345 C 0.99183 0.38111 0.08876 0.0
C2346 C 0.98161 0.37537 0.09974 0.0
C2347 C 0.97425 0.38174 0.10344 0.0
C2348 C 0.96467 0.37632 0.11383 0.0
C2349 C 0.96229 0.36448 0.12054 0.0
C2350 C 0.96946 0.35801 0.11684 0.0
C2351 C 0.97907 0.36339 0.10646 0.0
H2352 H 0.95486 0.36031 0.12858 0.0
H2353 H 0.04138 0.4137 0.0224 0.0
H2354 H 0.62963 0.62517 0.05601 0.0
H2355 H 0.61607 0.60477 0.0692 0.0
H2356 H 0.63908 0.587 0.0537 0.0
H2357 H 0.65241 0.60728 0.03993 0.0
H2358 H 0.61349 0.56774 0.05493 0.0
H2359 H 0.64571 0.60335 0.08695 0.0
H2360 H 0.65775 0.6265 0.09848 0.0
H2361 H 0.62076 0.62075 0.11444 0.0
H2362 H 0.60846 0.59763 0.10285 0.0
H2363 H 0.59602 0.51988 0.10978 0.0
H2364 H 0.6077 0.53821 0.09324 0.0
H2365 H 0.58487 0.5568 0.107 0.0
H2366 H 0.57345 0.53871 0.1238 0.0
H2367 H 0.61066 0.57532 0.10637 0.0
H2368 H 0.57855 0.53921 0.0743 0.0
H2369 H 0.56697 0.516 0.06291 0.0
H2370 H 0.60438 0.52252 0.04738 0.0
H2371 H 0.61621 0.54571 0.05884 0.0
C2372 C 0.63175 0.61691 0.05524 0.0
C2373 C 0.64219 0.61793 0.047 0.0
C2374 C 0.62401 0.60524 0.06287 0.0
C2375 C 0.62677 0.59449 0.06274 0.0
C2376 C 0.63682 0.5952 0.05404 0.0
C2377 C 0.64443 0.60681 0.0462 0.0
C2378 C 0.61954 0.58282 0.07212 0.0
C2379 C 0.613 0.56938 0.06621 0.0
C2380 C 0.61875 0.58496 0.08682 0.0
C2381 C 0.62615 0.5988 0.09394 0.0
C2382 C 0.64013 0.60705 0.09286 0.0
C2383 C 0.64701 0.62016 0.09941 0.0
C2384 C 0.64002 0.6251 0.10716 0.0
C2385 C 0.62616 0.61692 0.10842 0.0
C2386 C 0.61923 0.6038 0.10188 0.0
C2387 C 0.59336 0.52777 0.10909 0.0
C2388 C 0.58359 0.52767 0.11782 0.0
C2389 C 0.60001 0.53821 0.09963 0.0
C2390 C 0.597 0.54876 0.0987 0.0
C2391 C 0.58728 0.54871 0.10745 0.0
C2392 C 0.58069 0.53832 0.11697 0.0
C2393 C 0.60444 0.56023 0.08916 0.0
C2394 C 0.6111 0.57366 0.09508 0.0
C2395 C 0.6054 0.55805 0.07452 0.0
C2396 C 0.59828 0.54415 0.06754 0.0
C2397 C 0.58432 0.53566 0.06854 0.0
C2398 C 0.57771 0.52251 0.06206 0.0
C2399 C 0.58494 0.51778 0.05446 0.0
C2400 C 0.59879 0.52619 0.05328 0.0
C2401 C 0.60545 0.53935 0.05976 0.0
H2402 H 0.57981 0.50759 0.04945 0.0
H2403 H 0.64536 0.63526 0.11221 0.0
H2404 H 0.39148 0.01522 0.00846 0.0
H2405 H 0.40278 0.01729 0.03126 0.0
H2406 H 0.36452 0.99728 0.05112 0.0
H2407 H 0.35312 0.99489 0.02835 0.0
H2408 H 0.40488 0.02857 0.05715 0.0
H2409 H 0.36404 0.97496 0.07412 0.0
H2410 H 0.3466 0.95294 0.06293 0.0
H2411 H 0.3695 0.96134 0.02547 0.0
H2412 H 0.38715 0.9833 0.03652 0.0
H2413 H 0.41867 0.02098 0.12856 0.0
H2414 H 0.40761 0.02146 0.10645 0.0
H2415 H 0.41405 0.99003 0.08788 0.0
H2416 H 0.42453 0.98908 0.11013 0.0
H2417 H 0.39036 0.98473 0.08058 0.0
H2418 H 0.43402 0.02491 0.08037 0.0
H2419 H 0.4531 0.04676 0.08993 0.0
H2420 H 0.42801 0.06467 0.09113 0.0
H2421 H 0.40872 0.04287 0.08174 0.0
C2422 C 0.38548 0.01145 0.01771 0.0
C2423 C 0.37138 0.00472 0.01655 0.0
C2424 C 0.39196 0.01266 0.03075 0.0
C2425 C 0.38447 0.00721 0.04282 0.0
C2426 C 0.37047 0.00132 0.04187 0.0
C2427 C 0.36398 -1e-05 0.02884 0.0
C2428 C 0.39116 0.00676 0.05614 0.0
C2429 C 0.40169 0.019 0.06231 0.0
C2430 C 0.38722 0.99422 0.06268 0.0
C2431 C 0.37684 0.98083 0.05611 0.0
C2432 C 0.36538 0.97207 0.06353 0.0
C2433 C 0.35545 0.9596 0.0572 0.0
C2434 C 0.35692 0.95576 0.04348 0.0
C2435 C 0.36835 0.96434 0.03608 0.0
C2436 C 0.37832 0.9768 0.04237 0.0
C2437 C 0.41777 0.01423 0.11971 0.0
C2438 C 0.42284 0.00531 0.12094 0.0
C2439 C 0.4115 0.01454 0.10708 0.0
C2440 C 0.41028 0.00601 0.09538 0.0
C2441 C 0.41498 0.9968 0.09672 0.0
C2442 C 0.42108 0.99635 0.1094 0.0
C2443 C 0.40402 0.00659 0.08176 0.0
C2444 C 0.39354 0.99433 0.0755 0.0
C2445 C 0.4083 0.01907 0.07494 0.0
C2446 C 0.4199 0.03222 0.08047 0.0
C2447 C 0.43255 0.03349 0.08276 0.0
C2448 C 0.44341 0.04586 0.08813 0.0
C2449 C 0.44176 0.05708 0.09117 0.0
C2450 C 0.42927 0.05596 0.08879 0.0
C2451 C 0.41837 0.0436 0.08342 0.0
H2452 H 0.45018 0.06665 0.09534 0.0
H2453 H 0.3492 0.94613 0.03859 0.0
H2454 H 0.35485 0.96785 0.94655 0.0
H2455 H 0.37582 0.97145 0.93677 0.0
H2456 H 0.39486 0.98309 0.97848 0.0
H2457 H 0.37366 0.97914 0.98833 0.0
H2458 H 0.40715 0.00312 0.95831 0.0
H2459 H 0.39326 0.95622 0.96291 0.0
H2460 H 0.37783 0.93121 0.96109 0.0
H2461 H 0.3759 0.9325 0.91584 0.0
H2462 H 0.39116 0.95756 0.91738 0.0
H2463 H 0.46682 0.02404 0.92211 0.0
H2464 H 0.44964 0.011 0.93915 0.0
H2465 H 0.42026 0.99095 0.90484 0.0
H2466 H 0.43747 0.00372 0.8878 0.0
H2467 H 0.41573 0.97341 0.92577 0.0
H2468 H 0.42447 0.01973 0.92147 0.0
H2469 H 0.43869 0.04494 0.92227 0.0
H2470 H 0.44884 0.04474 0.96611 0.0
H2471 H 0.43483 0.01948 0.9655 0.0
C2472 C 0.36338 0.97063 0.95367 0.0
C2473 C 0.3627 0.97301 0.96815 0.0
C2474 C 0.37533 0.97269 0.9481 0.0
C2475 C 0.38685 0.97744 0.95693 0.0
C2476 C 0.38602 0.97927 0.97155 0.0
C2477 C 0.37395 0.97695 0.97716 0.0
C2478 C 0.40001 0.98243 0.95044 0.0
C2479 C 0.40924 0.99656 0.95154 0.0
C2480 C 0.4025 0.9739 0.94131 0.0
C2481 C 0.39332 0.95881 0.94028 0.0
C2482 C 0.38947 0.95119 0.95257 0.0
C2483 C 0.38076 0.937 0.95159 0.0
C2484 C 0.37588 0.93027 0.93836 0.0
C2485 C 0.3797 0.93773 0.92608 0.0
C2486 C 0.3884 0.95193 0.927 0.0
C2487 C 0.45678 0.01656 0.91821 0.0
C2488 C 0.45347 0.01479 0.90363 0.0
C2489 C 0.44697 0.00917 0.92794 0.0
C2490 C 0.43364 0.0001 0.92327 0.0
C2491 C 0.43049 0.99783 0.90869 0.0
C2492 C 0.4403 0.00516 0.89896 0.0
C2493 C 0.42268 0.99412 0.93344 0.0
C2494 C 0.41384 0.97988 0.93292 0.0
C2495 C 0.4204 0.00255 0.94298 0.0
C2496 C 0.42877 0.01772 0.94339 0.0
C2497 C 0.42983 0.02506 0.93125 0.0
C2498 C 0.43783 0.03935 0.93167 0.0
C2499 C 0.4447 0.04643 0.94422 0.0
C2500 C 0.44354 0.03923 0.95639 0.0
C2501 C 0.43558 0.02493 0.95601 0.0
H2502 H 0.45088 0.0575 0.94453 0.0
H2503 H 0.36914 0.91928 0.93762 0.0
H2504 H 0.03598 0.38595 0.97695 0.0
H2505 H 0.03535 0.40395 0.96369 0.0
H2506 H 0.99375 0.37597 0.95176 0.0
H2507 H 0.99454 0.35791 0.96419 0.0
H2508 H 0.00606 0.38909 0.92992 0.0
H2509 H 0.00584 0.4029 0.97943 0.0
H2510 H 0.01544 0.41018 0.00377 0.0
H2511 H 0.05072 0.44445 0.988 0.0
H2512 H 0.04142 0.43727 0.96356 0.0
H2513 H 0.97971 0.43093 0.91114 0.0
H2514 H 0.98555 0.41523 0.92216 0.0
H2515 H 0.02643 0.44829 0.92903 0.0
H2516 H 0.02052 0.46411 0.9183 0.0
H2517 H 0.01799 0.43432 0.95198 0.0
H2518 H 0.01813 0.42266 0.90341 0.0
H2519 H 0.0096 0.41623 0.87866 0.0
H2520 H 0.97599 0.37876 0.89185 0.0
H2521 H 0.98421 0.38505 0.91671 0.0
C2522 C 0.0267 0.38367 0.97153 0.0
C2523 C 0.01525 0.37051 0.97181 0.0
C2524 C 0.02633 0.39399 0.964 0.0
C2525 C 0.01444 0.39141 0.95686 0.0
C2526 C 0.00305 0.37827 0.95717 0.0
C2527 C 0.00348 0.36794 0.96445 0.0
C2528 C 0.01367 0.40215 0.94886 0.0
C2529 C 0.00855 0.39893 0.93481 0.0
C2530 C 0.01747 0.41525 0.95497 0.0
C2531 C 0.023 0.41947 0.96967 0.0
C2532 C 0.01569 0.41193 0.98115 0.0
C2533 C 0.02107 0.41605 0.99496 0.0
C2534 C 0.0337 0.42776 0.99741 0.0
C2535 C 0.04096 0.43538 0.98607 0.0
C2536 C 0.03564 0.43129 0.97226 0.0
C2537 C 0.98998 0.43478 0.91482 0.0
C2538 C 0.99973 0.44866 0.91354 0.0
C2539 C 0.99333 0.42581 0.92108 0.0
C2540 C 0.0065 0.43052 0.92619 0.0
C2541 C 0.01624 0.4444 0.92506 0.0
C2542 C 0.01287 0.4534 0.91884 0.0
C2543 C 0.00991 0.42104 0.93327 0.0
C2544 C 0.01558 0.42452 0.94707 0.0
C2545 C 0.00673 0.40822 0.9269 0.0
C2546 C 0.00174 0.40438 0.91195 0.0
C2547 C 0.00887 0.4131 0.90105 0.0
C2548 C 0.0041 0.40947 0.887 0.0
C2549 C 0.99225 0.39711 0.88369 0.0
C2550 C 0.98516 0.38834 0.89443 0.0
C2551 C 0.98988 0.39192 0.9085 0.0
H2552 H 0.98858 0.39432 0.8728 0.0
H2553 H 0.03787 0.431 0.00808 0.0
H2554 H 0.64487 0.64835 0.98532 0.0
H2555 H 0.63107 0.64141 0.96337 0.0
H2556 H 0.5953 0.62507 0.98764 0.0
H2557 H 0.60896 0.63235 0.00949 0.0
H2558 H 0.6135 0.61775 0.95231 0.0
H2559 H 0.57076 0.62701 0.97107 0.0
H2560 H 0.56813 0.64325 0.98673 0.0
H2561 H 0.60948 0.67373 0.98191 0.0
H2562 H 0.61231 0.65774 0.96608 0.0
H2563 H 0.55543 0.57846 0.90882 0.0
H2564 H 0.57191 0.5894 0.92837 0.0
H2565 H 0.57742 0.62879 0.91788 0.0
H2566 H 0.56033 0.61774 0.89877 0.0
H2567 H 0.5766 0.6275 0.94449 0.0
H2568 H 0.601 0.61849 0.91018 0.0
H2569 H 0.60553 0.60482 0.89276 0.0
H2570 H 0.60443 0.57868 0.9254 0.0
H2571 H 0.59972 0.59208 0.943 0.0
C2572 C 0.63407 0.64339 0.98597 0.0
C2573 C 0.62804 0.64099 0.99918 0.0
C2574 C 0.62619 0.63939 0.97341 0.0
C2575 C 0.61214 0.63287 0.97382 0.0
C2576 C 0.60612 0.63038 0.98701 0.0
C2577 C 0.61397 0.63451 0.99953 0.0
C2578 C 0.60368 0.62826 0.96054 0.0
C2579 C 0.60547 0.61994 0.95056 0.0
C2580 C 0.59342 0.63139 0.95804 0.0
C2581 C 0.59177 0.64112 0.96747 0.0
C2582 C 0.57928 0.63719 0.9733 0.0
C2583 C 0.57776 0.64635 0.98222 0.0
C2584 C 0.58864 0.6595 0.98534 0.0
C2585 C 0.60107 0.66352 0.97952 0.0
C2586 C 0.60264 0.65441 0.97059 0.0
C2587 C 0.56002 0.58942 0.91075 0.0
C2588 C 0.55636 0.59722 0.90241 0.0
C2589 C 0.5696 0.59571 0.92185 0.0
C2590 C 0.57606 0.60997 0.92454 0.0
C2591 C 0.57256 0.61778 0.91608 0.0
C2592 C 0.56281 0.61147 0.90516 0.0
C2593 C 0.58619 0.6167 0.93641 0.0
C2594 C 0.58469 0.62539 0.94615 0.0
C2595 C 0.59701 0.6143 0.93842 0.0
C2596 C 0.5999 0.60624 0.92789 0.0
C2597 C 0.60164 0.60977 0.91363 0.0
C2598 C 0.60425 0.60208 0.90373 0.0
C2599 C 0.60524 0.59088 0.90797 0.0
C2600 C 0.60366 0.58736 0.92213 0.0
C2601 C 0.60103 0.59501 0.93208 0.0
H2602 H 0.60726 0.58493 0.90028 0.0
H2603 H 0.58745 0.66657 0.99226 0.0
H2604 H 0.99942 0.65299 0.99181 0.0
H2605 H 0.00149 0.64311 0.9694 0.0
H2606 H 0.02898 0.63298 0.9895 0.0
H2607 H 0.02714 0.64301 0.01198 0.0
H2608 H 0.03646 0.64211 0.96271 0.0
H2609 H 0.99638 0.60899 0.98513 0.0
H2610 H 0.9747 0.60098 0.9964 0.0
H2611 H 0.95857 0.60826 0.95858 0.0
H2612 H 0.98022 0.61651 0.94715 0.0
H2613 H 0.03016 0.59167 0.91184 0.0
H2614 H 0.03063 0.60422 0.93345 0.0
H2615 H 0.99948 0.61026 0.91549 0.0
H2616 H 0.99848 0.59705 0.89409 0.0
H2617 H 0.99414 0.60355 0.94134 0.0
H2618 H 0.03388 0.63631 0.91854 0.0
H2619 H 0.05557 0.64472 0.90719 0.0
H2620 H 0.07241 0.63863 0.9452 0.0
H2621 H 0.05076 0.63001 0.95673 0.0
C2622 C 0.00605 0.64882 0.99147 0.0
C2623 C 0.01299 0.64866 0.00377 0.0
C2624 C 0.00718 0.64314 0.97864 0.0
C2625 C 0.01519 0.63708 0.97785 0.0
C2626 C 0.0227 0.63755 0.9899 0.0
C2627 C 0.02161 0.64327 0.00275 0.0
C2628 C 0.0151 0.62956 0.9647 0.0
C2629 C 0.02725 0.63358 0.95809 0.0
C2630 C 0.00303 0.61861 0.95854 0.0
C2631 C 0.98995 0.61348 0.96533 0.0
C2632 C 0.98823 0.60896 0.97925 0.0
C2633 C 0.97595 0.60437 0.98566 0.0
C2634 C 0.96527 0.60414 0.97822 0.0
C2635 C 0.96685 0.60846 0.96433 0.0
C2636 C 0.97912 0.61308 0.95788 0.0
C2637 C 0.02329 0.59552 0.91254 0.0
C2638 C 0.01405 0.5931 0.90135 0.0
C2639 C 0.0237 0.60287 0.92485 0.0
C2640 C 0.0152 0.60835 0.92608 0.0
C2641 C 0.00611 0.6061 0.91484 0.0
C2642 C 0.00554 0.59857 0.90263 0.0
C2643 C 0.01551 0.61613 0.93917 0.0
C2644 C 0.00339 0.61211 0.94585 0.0
C2645 C 0.0276 0.62712 0.94532 0.0
C2646 C 0.04066 0.63241 0.93845 0.0
C2647 C 0.04218 0.63669 0.92445 0.0
C2648 C 0.05448 0.6415 0.91799 0.0
C2649 C 0.06536 0.64218 0.92546 0.0
C2650 C 0.06398 0.63809 0.93942 0.0
C2651 C 0.0517 0.63325 0.94593 0.0
H2652 H 0.07486 0.64591 0.92044 0.0
H2653 H 0.95577 0.60059 0.98321 0.0
H2654 H 0.36587 0.37604 0.95613 0.0
H2655 H 0.37874 0.39665 0.94295 0.0
H2656 H 0.37741 0.42131 0.97787 0.0
H2657 H 0.36396 0.40053 0.99091 0.0
H2658 H 0.37087 0.42835 0.95503 0.0
H2659 H 0.40741 0.42208 0.96775 0.0
H2660 H 0.41955 0.40953 0.97071 0.0
H2661 H 0.41699 0.4015 0.92579 0.0
H2662 H 0.40466 0.41384 0.92257 0.0
H2663 H 0.40844 0.48764 0.91588 0.0
H2664 H 0.40406 0.47159 0.93471 0.0
H2665 H 0.39745 0.44006 0.90345 0.0
H2666 H 0.40202 0.45613 0.88465 0.0
H2667 H 0.41085 0.43911 0.92732 0.0
H2668 H 0.3715 0.44249 0.91563 0.0
H2669 H 0.35934 0.45504 0.91273 0.0
H2670 H 0.36769 0.46868 0.95649 0.0
H2671 H 0.38008 0.45636 0.95959 0.0
C2672 C 0.3685 0.38587 0.96112 0.0
C2673 C 0.36388 0.38667 0.97455 0.0
C2674 C 0.37596 0.39769 0.95359 0.0
C2675 C 0.37925 0.41061 0.95946 0.0
C2676 C 0.37503 0.41147 0.97311 0.0
C2677 C 0.36736 0.3996 0.98056 0.0
C2678 C 0.38598 0.42297 0.95083 0.0
C2679 C 0.37982 0.43088 0.94927 0.0
C2680 C 0.39752 0.42618 0.94306 0.0
C2681 C 0.40504 0.41884 0.94494 0.0
C2682 C 0.40936 0.41758 0.95851 0.0
C2683 C 0.41629 0.4105 0.96023 0.0
C2684 C 0.41902 0.40471 0.94845 0.0
C2685 C 0.41487 0.406 0.93491 0.0
C2686 C 0.40793 0.41306 0.93313 0.0
C2687 C 0.40637 0.47738 0.91309 0.0
C2688 C 0.40566 0.47313 0.89882 0.0
C2689 C 0.40381 0.46821 0.92382 0.0
C2690 C 0.40031 0.4546 0.92046 0.0
C2691 C 0.40018 0.45053 0.90628 0.0
C2692 C 0.40276 0.45969 0.89555 0.0
C2693 C 0.39561 0.44423 0.93146 0.0
C2694 C 0.4021 0.4367 0.93338 0.0
C2695 C 0.38442 0.44138 0.93963 0.0
C2696 C 0.37684 0.44864 0.9378 0.0
C2697 C 0.37082 0.44824 0.92461 0.0
C2698 C 0.36388 0.45531 0.92293 0.0
C2699 C 0.36278 0.46269 0.93441 0.0
C2700 C 0.36858 0.46298 0.9476 0.0
C2701 C 0.37556 0.45596 0.94932 0.0
H2702 H 0.3574 0.46815 0.93309 0.0
H2703 H 0.42438 0.39923 0.94981 0.0
H2704 H 0.61413 0.9766 0.01042 0.0
H2705 H 0.60174 0.97315 0.98814 0.0
H2706 H 0.63843 0.00154 0.96846 0.0
H2707 H 0.65094 0.00528 0.99086 0.0
H2708 H 0.61935 0.00734 0.96272 0.0
H2709 H 0.6223 0.96665 0.96035 0.0
H2710 H 0.62027 0.94531 0.96891 0.0
H2711 H 0.57781 0.92814 0.97271 0.0
H2712 H 0.57961 0.94945 0.96436 0.0
H2713 H 0.58794 0.99342 0.894 0.0
H2714 H 0.60254 0.99582 0.91429 0.0
H2715 H 0.56786 0.96764 0.93703 0.0
H2716 H 0.5533 0.9649 0.9166 0.0
H2717 H 0.5872 0.96185 0.94018 0.0
H2718 H 0.58456 0.00306 0.94403 0.0
H2719 H 0.58657 0.02445 0.93561 0.0
H2720 H 0.62854 0.04062 0.92912 0.0
H2721 H 0.62674 0.01925 0.93734 0.0
C2722 C 0.61964 0.98199 0.00133 0.0
C2723 C 0.63356 0.99126 0.00248 0.0
C2724 C 0.61252 0.97996 0.98855 0.0
C2725 C 0.61916 0.987 0.97658 0.0
C2726 C 0.6331 0.996 0.97757 0.0
C2727 C 0.64024 0.9981 0.99038 0.0
C2728 C 0.6114 0.98554 0.9633 0.0
C2729 C 0.61251 0.99741 0.95764 0.0
C2730 C 0.60223 0.97257 0.95685 0.0
C2731 C 0.60111 0.9597 0.96183 0.0
C2732 C 0.61254 0.95837 0.96311 0.0
C2733 C 0.61143 0.94626 0.96791 0.0
C2734 C 0.59893 0.93539 0.97138 0.0
C2735 C 0.5875 0.93658 0.97003 0.0
C2736 C 0.58855 0.94866 0.96524 0.0
C2737 C 0.58345 0.98787 0.9034 0.0
C2738 C 0.56946 0.97928 0.90387 0.0
C2739 C 0.59178 0.98924 0.91499 0.0
C2740 C 0.58628 0.9821 0.9273 0.0
C2741 C 0.57233 0.97333 0.92769 0.0
C2742 C 0.564 0.97186 0.91607 0.0
C2743 C 0.59505 0.98363 0.93973 0.0
C2744 C 0.59413 0.97179 0.94521 0.0
C2745 C 0.60438 0.99662 0.94603 0.0
C2746 C 0.60549 0.0095 0.94116 0.0
C2747 C 0.5942 0.01114 0.94071 0.0
C2748 C 0.5953 0.02326 0.93599 0.0
C2749 C 0.60767 0.03387 0.9318 0.0
C2750 C 0.61897 0.03239 0.93236 0.0
C2751 C 0.61791 0.02028 0.93705 0.0
H2752 H 0.6085 0.04325 0.92815 0.0
H2753 H 0.59809 0.92603 0.97509 0.0
H2754 H 0.63248 0.00362 0.06401 0.0
H2755 H 0.61618 0.00748 0.07612 0.0
H2756 H 0.6328 0.04726 0.05823 0.0
H2757 H 0.64914 0.04339 0.04583 0.0
H2758 H 0.6305 0.04791 0.08731 0.0
H2759 H 0.60266 0.02327 0.04702 0.0
H2760 H 0.59203 0.00455 0.02874 0.0
H2761 H 0.57177 0.97556 0.06072 0.0
H2762 H 0.58246 0.99408 0.07924 0.0
H2763 H 0.58159 0.05753 0.12169 0.0
H2764 H 0.59357 0.05494 0.10178 0.0
H2765 H 0.5825 0.01434 0.11457 0.0
H2766 H 0.57061 0.01691 0.13451 0.0
H2767 H 0.58121 0.01606 0.0851 0.0
H2768 H 0.61169 0.03977 0.12511 0.0
H2769 H 0.62269 0.05807 0.1438 0.0
H2770 H 0.6383 0.08844 0.11229 0.0
H2771 H 0.62718 0.07031 0.09341 0.0
C2772 C 0.63256 0.01309 0.06241 0.0
C2773 C 0.64209 0.02317 0.05389 0.0
C2774 C 0.6232 0.01527 0.06934 0.0
C2775 C 0.62321 0.0276 0.06796 0.0
C2776 C 0.6326 0.03764 0.05935 0.0
C2777 C 0.6419 0.0354 0.05227 0.0
C2778 C 0.61404 0.03027 0.07641 0.0
C2779 C 0.61969 0.04115 0.08658 0.0
C2780 C 0.59998 0.02126 0.07564 0.0
C2781 C 0.59344 0.01007 0.06454 0.0
C2782 C 0.59602 0.01289 0.05018 0.0
C2783 C 0.58997 0.00231 0.03977 0.0
C2784 C 0.58125 0.98887 0.04357 0.0
C2785 C 0.57854 0.98598 0.05779 0.0
C2786 C 0.58458 0.99652 0.06826 0.0
C2787 C 0.58157 0.04799 0.1201 0.0
C2788 C 0.57527 0.03746 0.12968 0.0
C2789 C 0.58839 0.04652 0.10876 0.0
C2790 C 0.58899 0.03449 0.10679 0.0
C2791 C 0.58212 0.02369 0.1159 0.0
C2792 C 0.57539 0.02519 0.1273 0.0
C2793 C 0.59771 0.03356 0.09608 0.0
C2794 C 0.59199 0.02298 0.08557 0.0
C2795 C 0.61173 0.04281 0.09654 0.0
C2796 C 0.61846 0.05371 0.10787 0.0
C2797 C 0.61736 0.05036 0.12217 0.0
C2798 C 0.62363 0.0607 0.1328 0.0
C2799 C 0.63115 0.07441 0.12924 0.0
C2800 C 0.63244 0.07782 0.11504 0.0
C2801 C 0.62615 0.06752 0.10437 0.0
H2802 H 0.63601 0.0824 0.13747 0.0
H2803 H 0.57657 0.9807 0.03549 0.0
H2804 H 0.96683 0.61229 0.03851 0.0
H2805 H 0.96349 0.59145 0.04942 0.0
H2806 H 0.99512 0.61615 0.08047 0.0
H2807 H 0.99875 0.63691 0.06938 0.0
H2808 H 0.99706 0.59498 0.07249 0.0
H2809 H 0.96083 0.60166 0.08729 0.0
H2810 H 0.94124 0.60458 0.08364 0.0
H2811 H 0.92008 0.56554 0.06098 0.0
H2812 H 0.93962 0.56247 0.06435 0.0
H2813 H 0.98098 0.55314 0.13154 0.0
H2814 H 0.98534 0.57056 0.1144 0.0
H2815 H 0.9554 0.53953 0.08552 0.0
H2816 H 0.951 0.52198 0.10271 0.0
H2817 H 0.95205 0.5617 0.08935 0.0
H2818 H 0.98792 0.55406 0.07796 0.0
H2819 H 0.00755 0.55147 0.08283 0.0
H2820 H 0.02955 0.59277 0.10033 0.0
H2821 H 0.00999 0.59555 0.09576 0.0
C2822 C 0.97311 0.61325 0.04762 0.0
C2823 C 0.98302 0.62624 0.05312 0.0
C2824 C 0.97116 0.60134 0.05388 0.0
C2825 C 0.97893 0.60222 0.06591 0.0
C2826 C 0.98901 0.61519 0.07119 0.0
C2827 C 0.99106 0.62707 0.06485 0.0
C2828 C 0.97639 0.58974 0.07333 0.0
C2829 C 0.98723 0.58775 0.07625 0.0
C2830 C 0.96349 0.58008 0.07793 0.0
C2831 C 0.95174 0.58191 0.07593 0.0
C2832 C 0.95203 0.59375 0.08144 0.0
C2833 C 0.94093 0.59542 0.07944 0.0
C2834 C 0.92944 0.58528 0.07204 0.0
C2835 C 0.929 0.57341 0.06667 0.0
C2836 C 0.94008 0.57169 0.06863 0.0
C2837 C 0.97549 0.54999 0.12144 0.0
C2838 C 0.96571 0.53619 0.11842 0.0
C2839 C 0.978 0.55995 0.11164 0.0
C2840 C 0.97078 0.55633 0.09863 0.0
C2841 C 0.96112 0.54253 0.09548 0.0
C2842 C 0.95865 0.53253 0.10526 0.0
C2843 C 0.97279 0.56713 0.08877 0.0
C2844 C 0.96184 0.56881 0.0854 0.0
C2845 C 0.98561 0.57658 0.0839 0.0
C2846 C 0.99744 0.57497 0.0866 0.0
C2847 C 0.99691 0.56256 0.08294 0.0
C2848 C 0.00803 0.56106 0.08563 0.0
C2849 C 0.01978 0.57194 0.09191 0.0
C2850 C 0.02044 0.58435 0.09547 0.0
C2851 C 0.00934 0.5859 0.09282 0.0
H2852 H 0.02838 0.57076 0.09399 0.0
H2853 H 0.92085 0.58659 0.07051 0.0
H2854 H 0.39382 0.36001 0.00981 0.0
H2855 H 0.40817 0.36606 0.03121 0.0
H2856 H 0.37833 0.36905 0.05529 0.0
H2857 H 0.36388 0.363 0.03397 0.0
H2858 H 0.40408 0.39138 0.06023 0.0
H2859 H 0.38194 0.34204 0.05867 0.0
H2860 H 0.37472 0.31921 0.0477 0.0
H2861 H 0.41587 0.3305 0.04258 0.0
H2862 H 0.42333 0.35349 0.05335 0.0
H2863 H 0.42817 0.39289 0.13009 0.0
H2864 H 0.41509 0.38782 0.10785 0.0
H2865 H 0.44403 0.38094 0.08653 0.0
H2866 H 0.45696 0.3857 0.10887 0.0
H2867 H 0.4195 0.36109 0.07949 0.0
H2868 H 0.44201 0.40996 0.08137 0.0
H2869 H 0.44977 0.43308 0.09185 0.0
H2870 H 0.40892 0.42335 0.09564 0.0
H2871 H 0.40091 0.40008 0.08537 0.0
C2872 C 0.39025 0.36188 0.01966 0.0
C2873 C 0.37767 0.361 0.02015 0.0
C2874 C 0.39847 0.36531 0.03189 0.0
C2875 C 0.39429 0.36796 0.04484 0.0
C2876 C 0.38174 0.36706 0.04539 0.0
C2877 C 0.37347 0.36352 0.0332 0.0
C2878 C 0.4031 0.3719 0.05777 0.0
C2879 C 0.40733 0.3847 0.06457 0.0
C2880 C 0.40766 0.36335 0.06312 0.0
C2881 C 0.40319 0.34953 0.05667 0.0
C2882 C 0.38945 0.3397 0.05509 0.0
C2883 C 0.38531 0.32672 0.04893 0.0
C2884 C 0.39483 0.32342 0.04441 0.0
C2885 C 0.40851 0.33308 0.04607 0.0
C2886 C 0.4127 0.34608 0.05221 0.0
C2887 C 0.43184 0.39052 0.1206 0.0
C2888 C 0.44373 0.38998 0.12114 0.0
C2889 C 0.42438 0.38763 0.10789 0.0
C2890 C 0.42868 0.38419 0.09545 0.0
C2891 C 0.44056 0.38365 0.09597 0.0
C2892 C 0.44799 0.38647 0.1087 0.0
C2893 C 0.42046 0.38057 0.08207 0.0
C2894 C 0.41632 0.36783 0.07516 0.0
C2895 C 0.41608 0.38923 0.07654 0.0
C2896 C 0.42086 0.40322 0.08272 0.0
C2897 C 0.43468 0.4127 0.08455 0.0
C2898 C 0.43912 0.42585 0.09043 0.0
C2899 C 0.42985 0.42967 0.09444 0.0
C2900 C 0.4161 0.42037 0.09255 0.0
C2901 C 0.4116 0.4072 0.08668 0.0
H2902 H 0.43331 0.43985 0.09899 0.0
H2903 H 0.39161 0.31336 0.03965 0.0
H2904 H 0.63479 0.68531 0.35112 0.0
H2905 H 0.62823 0.69374 0.37168 0.0
H2906 H 0.66625 0.70591 0.39281 0.0
H2907 H 0.67276 0.69709 0.37233 0.0
H2908 H 0.6468 0.69613 0.41135 0.0
H2909 H 0.66097 0.7293 0.37595 0.0
H2910 H 0.66171 0.73782 0.35212 0.0
H2911 H 0.62012 0.72596 0.35377 0.0
H2912 H 0.61906 0.71712 0.37754 0.0
H2913 H 0.63995 0.74152 0.46067 0.0
H2914 H 0.64844 0.73291 0.44179 0.0
H2915 H 0.61021 0.71525 0.41913 0.0
H2916 H 0.60168 0.72377 0.43794 0.0
H2917 H 0.63169 0.72928 0.4019 0.0
H2918 H 0.61803 0.69534 0.43762 0.0
H2919 H 0.61827 0.68762 0.46168 0.0
H2920 H 0.66053 0.70255 0.4597 0.0
H2921 H 0.66057 0.71055 0.43569 0.0
C2922 C 0.64172 0.68964 0.3602 0.0
C2923 C 0.65436 0.69067 0.36003 0.0
C2924 C 0.63797 0.69452 0.37193 0.0
C2925 C 0.64688 0.7008 0.38365 0.0
C2926 C 0.65925 0.7012 0.38385 0.0
C2927 C 0.66295 0.69615 0.37214 0.0
C2928 C 0.64343 0.70739 0.39538 0.0
C2929 C 0.64369 0.70353 0.4093 0.0
C2930 C 0.6393 0.71701 0.39273 0.0
C2931 C 0.63991 0.72244 0.37849 0.0
C2932 C 0.65196 0.72842 0.3712 0.0
C2933 C 0.65244 0.73333 0.3577 0.0
C2934 C 0.64097 0.73243 0.35142 0.0
C2935 C 0.62899 0.72664 0.35864 0.0
C2936 C 0.62845 0.72169 0.37213 0.0
C2937 C 0.63341 0.73587 0.45161 0.0
C2938 C 0.62019 0.73341 0.45072 0.0
C2939 C 0.63824 0.73091 0.44088 0.0
C2940 C 0.62992 0.72338 0.42911 0.0
C2941 C 0.6168 0.72107 0.42812 0.0
C2942 C 0.61194 0.72594 0.43886 0.0
C2943 C 0.6348 0.71781 0.41778 0.0
C2944 C 0.63486 0.72192 0.40393 0.0
C2945 C 0.63938 0.70858 0.42054 0.0
C2946 C 0.63933 0.70367 0.43492 0.0
C2947 C 0.62739 0.69708 0.44236 0.0
C2948 C 0.62747 0.69263 0.45598 0.0
C2949 C 0.63941 0.69463 0.46223 0.0
C2950 C 0.65129 0.70103 0.45485 0.0
C2951 C 0.65127 0.70552 0.44123 0.0
H2952 H 0.63946 0.69118 0.47278 0.0
H2953 H 0.64136 0.73624 0.34096 0.0
H2954 H 0.30695 0.93323 0.37253 0.0
H2955 H 0.29392 0.91335 0.38693 0.0
H2956 H 0.28729 0.93876 0.4167 0.0
H2957 H 0.30041 0.95864 0.40254 0.0
H2958 H 0.29596 0.92359 0.42975 0.0
H2959 H 0.26227 0.91594 0.39426 0.0
H2960 H 0.25307 0.91299 0.36985 0.0
H2961 H 0.25699 0.87751 0.36283 0.0
H2962 H 0.26642 0.88037 0.38712 0.0
H2963 H 0.24715 0.87328 0.47162 0.0
H2964 H 0.25774 0.89145 0.4547 0.0
H2965 H 0.26487 0.8647 0.42749 0.0
H2966 H 0.2543 0.84647 0.44441 0.0
H2967 H 0.25598 0.87989 0.41255 0.0
H2968 H 0.28969 0.88742 0.44756 0.0
H2969 H 0.29946 0.8904 0.47168 0.0
H2970 H 0.29609 0.92616 0.47926 0.0
H2971 H 0.28608 0.92326 0.45524 0.0
C2972 C 0.30262 0.93455 0.38209 0.0
C2973 C 0.30468 0.9475 0.38638 0.0
C2974 C 0.29513 0.92318 0.39027 0.0
C2975 C 0.28957 0.92457 0.40284 0.0
C2976 C 0.29148 0.93746 0.40703 0.0
C2977 C 0.29893 0.9488 0.39887 0.0
C2978 C 0.28229 0.91279 0.41203 0.0
C2979 C 0.28711 0.91411 0.42604 0.0
C2980 C 0.27099 0.90028 0.40704 0.0
C2981 C 0.26518 0.89845 0.39247 0.0
C2982 C 0.26127 0.90757 0.38747 0.0
C2983 C 0.25599 0.90591 0.37367 0.0
C2984 C 0.25448 0.89509 0.36478 0.0
C2985 C 0.25819 0.88589 0.36971 0.0
C2986 C 0.26349 0.88752 0.38351 0.0
C2987 C 0.25083 0.87123 0.46194 0.0
C2988 C 0.24982 0.85844 0.45928 0.0
C2989 C 0.2569 0.88161 0.45232 0.0
C2990 C 0.26215 0.87942 0.43989 0.0
C2991 C 0.26084 0.86656 0.437 0.0
C2992 C 0.25482 0.85618 0.44667 0.0
C2993 C 0.26956 0.89081 0.4303 0.0
C2994 C 0.26482 0.88939 0.41623 0.0
C2995 C 0.28098 0.90325 0.4352 0.0
C2996 C 0.287 0.90503 0.44965 0.0
C2997 C 0.29091 0.89585 0.45442 0.0
C2998 C 0.29651 0.89753 0.46806 0.0
C2999 C 0.29836 0.90844 0.47701 0.0
C3000 C 0.29463 0.9177 0.47232 0.0
C3001 C 0.28899 0.91604 0.45869 0.0
H3002 H 0.30271 0.90974 0.48757 0.0
H3003 H 0.25042 0.89383 0.35409 0.0
H3004 H 0.06827 0.35743 0.33606 0.0
H3005 H 0.08338 0.36691 0.35692 0.0
H3006 H 0.05303 0.33599 0.38224 0.0
H3007 H 0.03764 0.32693 0.36155 0.0
H3008 H 0.06381 0.35839 0.39662 0.0
H3009 H 0.08216 0.33527 0.37033 0.0
H3010 H 0.0914 0.32926 0.34987 0.0
H3011 H 0.12364 0.371 0.34892 0.0
H3012 H 0.11451 0.3773 0.36929 0.0
H3013 H 0.10833 0.36748 0.45473 0.0
H3014 H 0.09323 0.35774 0.43374 0.0
H3015 H 0.11932 0.39366 0.41092 0.0
H3016 H 0.13436 0.40352 0.43191 0.0
H3017 H 0.1109 0.36861 0.39565 0.0
H3018 H 0.09176 0.39085 0.42296 0.0
H3019 H 0.08272 0.39541 0.44454 0.0
H3020 H 0.05166 0.35307 0.44435 0.0
H3021 H 0.06063 0.34821 0.42287 0.0
C3022 C 0.06482 0.35265 0.34608 0.0
C3023 C 0.05176 0.34143 0.34716 0.0
C3024 C 0.07352 0.35801 0.358 0.0
C3025 C 0.06948 0.35202 0.37116 0.0
C3026 C 0.05642 0.34081 0.37224 0.0
C3027 C 0.04762 0.33563 0.36039 0.0
C3028 C 0.07874 0.3576 0.38388 0.0
C3029 C 0.07404 0.36041 0.39641 0.0
C3030 C 0.0922 0.36049 0.38366 0.0
C3031 C 0.09758 0.35678 0.37126 0.0
C3032 C 0.09116 0.34319 0.36569 0.0
C3033 C 0.0964 0.33972 0.35413 0.0
C3034 C 0.1081 0.34974 0.34811 0.0
C3035 C 0.11458 0.36325 0.35361 0.0
C3036 C 0.10939 0.36678 0.36517 0.0
C3037 C 0.11082 0.37329 0.44523 0.0
C3038 C 0.12251 0.38627 0.44496 0.0
C3039 C 0.1022 0.36773 0.43328 0.0
C3040 C 0.10514 0.37503 0.42083 0.0
C3041 C 0.11689 0.38788 0.42044 0.0
C3042 C 0.12545 0.3935 0.43242 0.0
C3043 C 0.09591 0.36931 0.40821 0.0
C3044 C 0.10064 0.36651 0.39576 0.0
C3045 C 0.08243 0.3662 0.40857 0.0
C3046 C 0.07694 0.36915 0.42139 0.0
C3047 C 0.08306 0.38249 0.42758 0.0
C3048 C 0.07794 0.38513 0.43979 0.0
C3049 C 0.06664 0.37453 0.44583 0.0
C3050 C 0.06042 0.36127 0.43966 0.0
C3051 C 0.06551 0.35857 0.42747 0.0
H3052 H 0.0627 0.37659 0.45528 0.0
H3053 H 0.11216 0.34703 0.33918 0.0
H3054 H 0.03704 0.29741 0.32613 0.0
H3055 H 0.05343 0.29219 0.31562 0.0
H3056 H 0.03711 0.29123 0.27397 0.0
H3057 H 0.02121 0.29697 0.28434 0.0
H3058 H 0.04571 0.26949 0.28119 0.0
H3059 H 0.06031 0.31966 0.27999 0.0
H3060 H 0.06469 0.34083 0.29304 0.0
H3061 H 0.09072 0.3365 0.32269 0.0
H3062 H 0.08648 0.31529 0.30982 0.0
H3063 H 0.08553 0.28779 0.2225 0.0
H3064 H 0.07052 0.28325 0.242 0.0
H3065 H 0.10465 0.30355 0.27136 0.0
H3066 H 0.11973 0.30866 0.25169 0.0
H3067 H 0.08913 0.31265 0.27655 0.0
H3068 H 0.08132 0.26772 0.27168 0.0
H3069 H 0.07682 0.24595 0.26005 0.0
H3070 H 0.03835 0.23831 0.24467 0.0
H3071 H 0.04268 0.26014 0.25602 0.0
C3072 C 0.03675 0.29566 0.31477 0.0
C3073 C 0.02792 0.2975 0.30597 0.0
C3074 C 0.04606 0.2927 0.30881 0.0
C3075 C 0.04634 0.29124 0.29406 0.0
C3076 C 0.0369 0.29216 0.28538 0.0
C3077 C 0.02789 0.29549 0.29129 0.0
C3078 C 0.0576 0.29089 0.28734 0.0
C3079 C 0.05528 0.27883 0.2802 0.0
C3080 C 0.07016 0.30299 0.28655 0.0
C3081 C 0.07303 0.31591 0.29402 0.0
C3082 C 0.06695 0.32323 0.28932 0.0
C3083 C 0.06939 0.33522 0.29669 0.0
C3084 C 0.07791 0.33996 0.30875 0.0
C3085 C 0.08409 0.33279 0.31339 0.0
C3086 C 0.0817 0.32081 0.30605 0.0
C3087 C 0.08981 0.29102 0.23316 0.0
C3088 C 0.10378 0.29832 0.23559 0.0
C3089 C 0.08122 0.28834 0.24434 0.0
C3090 C 0.08641 0.29277 0.25826 0.0
C3091 C 0.10039 0.29989 0.26076 0.0
C3092 C 0.109 0.30274 0.24952 0.0
C3093 C 0.07722 0.29126 0.26979 0.0
C3094 C 0.07985 0.30306 0.27782 0.0
C3095 C 0.06506 0.27878 0.2716 0.0
C3096 C 0.06237 0.26563 0.26467 0.0
C3097 C 0.07193 0.26146 0.26573 0.0
C3098 C 0.06941 0.24909 0.2592 0.0
C3099 C 0.05731 0.24076 0.25161 0.0
C3100 C 0.04771 0.24477 0.25056 0.0
C3101 C 0.05019 0.25714 0.25706 0.0
H3102 H 0.05537 0.23119 0.24657 0.0
H3103 H 0.07976 0.34921 0.31448 0.0
H3104 H 0.70822 0.72878 0.32477 0.0
H3105 H 0.71376 0.74925 0.31172 0.0
H3106 H 0.67758 0.72598 0.2857 0.0
H3107 H 0.67218 0.70546 0.2984 0.0
H3108 H 0.69827 0.73991 0.2698 0.0
H3109 H 0.6809 0.75049 0.31085 0.0
H3110 H 0.67894 0.75402 0.33632 0.0
H3111 H 0.72019 0.78628 0.33932 0.0
H3112 H 0.72244 0.78287 0.31385 0.0
H3113 H 0.70175 0.79525 0.23359 0.0
H3114 H 0.694 0.77634 0.24972 0.0
H3115 H 0.73153 0.79839 0.27377 0.0
H3116 H 0.73929 0.81738 0.25773 0.0
H3117 H 0.70983 0.78538 0.29099 0.0
H3118 H 0.72711 0.77433 0.24995 0.0
H3119 H 0.72888 0.7709 0.2244 0.0
H3120 H 0.6874 0.73919 0.22151 0.0
H3121 H 0.68533 0.74259 0.24702 0.0
C3122 C 0.70136 0.72806 0.31638 0.0
C3123 C 0.68974 0.71548 0.31265 0.0
C3124 C 0.70451 0.7398 0.30897 0.0
C3125 C 0.69603 0.73918 0.29778 0.0
C3126 C 0.68427 0.7267 0.29429 0.0
C3127 C 0.68116 0.71498 0.30163 0.0
C3128 C 0.69981 0.75128 0.28911 0.0
C3129 C 0.70057 0.74979 0.27443 0.0
C3130 C 0.70318 0.76427 0.29517 0.0
C3131 C 0.70187 0.76634 0.31048 0.0
C3132 C 0.68959 0.75826 0.31696 0.0
C3133 C 0.68841 0.76025 0.3314 0.0
C3134 C 0.69944 0.77032 0.33945 0.0
C3135 C 0.71166 0.77846 0.33307 0.0
C3136 C 0.71288 0.77653 0.31863 0.0
C3137 C 0.70823 0.79616 0.24248 0.0
C3138 C 0.72106 0.80786 0.24452 0.0
C3139 C 0.70384 0.78534 0.25163 0.0
C3140 C 0.71224 0.78593 0.26288 0.0
C3141 C 0.72488 0.79776 0.26519 0.0
C3142 C 0.72929 0.80858 0.25603 0.0
C3143 C 0.70815 0.77392 0.27173 0.0
C3144 C 0.70742 0.77546 0.2864 0.0
C3145 C 0.70478 0.76094 0.26568 0.0
C3146 C 0.70603 0.75882 0.25036 0.0
C3147 C 0.71834 0.7667 0.24384 0.0
C3148 C 0.7194 0.76475 0.22937 0.0
C3149 C 0.70825 0.75486 0.22133 0.0
C3150 C 0.69602 0.74687 0.22775 0.0
C3151 C 0.6949 0.74879 0.24221 0.0
H3152 H 0.70909 0.75336 0.21013 0.0
H3153 H 0.69851 0.77184 0.35063 0.0
H3154 H 0.26869 0.96356 0.35212 0.0
H3155 H 0.25297 0.95591 0.33178 0.0
H3156 H 0.28473 0.96235 0.30408 0.0
H3157 H 0.30063 0.9702 0.32438 0.0
H3158 H 0.26946 0.97202 0.29318 0.0
H3159 H 0.26196 0.93044 0.31285 0.0
H3160 H 0.25745 0.91412 0.33164 0.0
H3161 H 0.21943 0.91115 0.3384 0.0
H3162 H 0.2238 0.92764 0.31983 0.0
H3163 H 0.22519 0.93377 0.23423 0.0
H3164 H 0.24176 0.94042 0.25383 0.0
H3165 H 0.21334 0.94032 0.28284 0.0
H3166 H 0.19686 0.93406 0.26325 0.0
H3167 H 0.22742 0.92677 0.29235 0.0
H3168 H 0.23581 0.96939 0.27334 0.0
H3169 H 0.24053 0.98569 0.25449 0.0
H3170 H 0.27724 0.98626 0.24619 0.0
H3171 H 0.27262 0.96977 0.26485 0.0
C3172 C 0.27238 0.9634 0.34172 0.0
C3173 C 0.28594 0.96746 0.33992 0.0
C3174 C 0.26335 0.95895 0.3301 0.0
C3175 C 0.26764 0.95838 0.31644 0.0
C3176 C 0.2812 0.96266 0.31454 0.0
C3177 C 0.29026 0.96712 0.32617 0.0
C3178 C 0.25794 0.95335 0.30417 0.0
C3179 C 0.26038 0.96204 0.2929 0.0
C3180 C 0.24598 0.9404 0.3039 0.0
C3181 C 0.24327 0.93039 0.31503 0.0
C3182 C 0.25268 0.9264 0.31842 0.0
C3183 C 0.25015 0.9171 0.32902 0.0
C3184 C 0.23818 0.91163 0.33623 0.0
C3185 C 0.22871 0.91541 0.33283 0.0
C3186 C 0.2312 0.92473 0.32225 0.0
C3187 C 0.22251 0.93524 0.24477 0.0
C3188 C 0.2098 0.93361 0.24717 0.0
C3189 C 0.23195 0.93898 0.25594 0.0
C3190 C 0.22877 0.94094 0.26973 0.0
C3191 C 0.21596 0.93887 0.27226 0.0
C3192 C 0.20659 0.93533 0.26106 0.0
C3193 C 0.23893 0.94549 0.28149 0.0
C3194 C 0.23656 0.93671 0.29263 0.0
C3195 C 0.25099 0.95831 0.2816 0.0
C3196 C 0.25378 0.96821 0.27037 0.0
C3197 C 0.24482 0.97288 0.2674 0.0
C3198 C 0.24749 0.98217 0.25677 0.0
C3199 C 0.25916 0.98697 0.24911 0.0
C3200 C 0.26819 0.98251 0.2521 0.0
C3201 C 0.26555 0.97319 0.26271 0.0
H3202 H 0.26121 0.99418 0.2409 0.0
H3203 H 0.23623 0.90444 0.34443 0.0
H3204 H 0.66935 0.97289 0.3211 0.0
H3205 H 0.6773 0.96725 0.29958 0.0
H3206 H 0.70898 0.96681 0.32395 0.0
H3207 H 0.70121 0.97255 0.34551 0.0
H3208 H 0.71799 0.98025 0.29952 0.0
H3209 H 0.68129 0.93712 0.31345 0.0
H3210 H 0.65805 0.92131 0.32014 0.0
H3211 H 0.64323 0.92606 0.28004 0.0
H3212 H 0.66638 0.94206 0.27318 0.0
H3213 H 0.73785 0.94804 0.24844 0.0
H3214 H 0.72922 0.95268 0.27003 0.0
H3215 H 0.69614 0.95042 0.24575 0.0
H3216 H 0.70453 0.94534 0.22418 0.0
H3217 H 0.68764 0.93834 0.2701 0.0
H3218 H 0.72397 0.98134 0.25599 0.0
H3219 H 0.74707 0.99746 0.24911 0.0
H3220 H 0.76243 0.99349 0.28926 0.0
H3221 H 0.73942 0.97718 0.2963 0.0
C3222 C 0.67805 0.97166 0.3219 0.0
C3223 C 0.6846 0.97312 0.33508 0.0
C3224 C 0.68254 0.96837 0.30959 0.0
C3225 C 0.69363 0.96645 0.3102 0.0
C3226 C 0.70038 0.96822 0.32325 0.0
C3227 C 0.69589 0.97146 0.33557 0.0
C3228 C 0.69818 0.96249 0.29725 0.0
C3229 C 0.71141 0.971 0.29318 0.0
C3230 C 0.68949 0.95059 0.2888 0.0
C3231 C 0.67556 0.94089 0.29286 0.0
C3232 C 0.67307 0.93487 0.3061 0.0
C3233 C 0.65991 0.92586 0.30992 0.0
C3234 C 0.64917 0.92271 0.30054 0.0
C3235 C 0.65156 0.92853 0.2873 0.0
C3236 C 0.6647 0.93756 0.28344 0.0
C3237 C 0.72859 0.94825 0.24776 0.0
C3238 C 0.72172 0.94608 0.23465 0.0
C3239 C 0.72374 0.95105 0.26008 0.0
C3240 C 0.71212 0.95208 0.2595 0.0
C3241 C 0.7051 0.94965 0.24647 0.0
C3242 C 0.70989 0.94674 0.23417 0.0
C3243 C 0.70749 0.95608 0.27237 0.0
C3244 C 0.69423 0.94759 0.27643 0.0
C3245 C 0.71614 0.96805 0.28078 0.0
C3246 C 0.72998 0.97794 0.27661 0.0
C3247 C 0.73228 0.98383 0.26331 0.0
C3248 C 0.74536 0.99301 0.25939 0.0
C3249 C 0.75621 0.99647 0.26873 0.0
C3250 C 0.75401 0.99079 0.28203 0.0
C3251 C 0.74095 0.98158 0.286 0.0
H3252 H 0.76633 0.00358 0.26568 0.0
H3253 H 0.63899 0.91573 0.30351 0.0
H3254 H 0.04525 0.72235 0.29787 0.0
H3255 H 0.05579 0.74268 0.28397 0.0
H3256 H 0.04424 0.76392 0.31403 0.0
H3257 H 0.03332 0.74333 0.32795 0.0
H3258 H 0.03733 0.76649 0.28837 0.0
H3259 H 0.07784 0.77352 0.30987 0.0
H3260 H 0.09445 0.76744 0.31816 0.0
H3261 H 0.09968 0.75787 0.27535 0.0
H3262 H 0.08295 0.76369 0.26681 0.0
H3263 H 0.06736 0.82338 0.24417 0.0
H3264 H 0.06475 0.81044 0.26542 0.0
H3265 H 0.06902 0.78039 0.24053 0.0
H3266 H 0.07168 0.79331 0.21931 0.0
H3267 H 0.08194 0.78596 0.26705 0.0
H3268 H 0.03863 0.77517 0.24667 0.0
H3269 H 0.02186 0.78102 0.23833 0.0
H3270 H 0.02214 0.7978 0.27971 0.0
H3271 H 0.03908 0.79223 0.28823 0.0
C3272 C 0.04517 0.73141 0.30174 0.0
C3273 C 0.03845 0.73121 0.31405 0.0
C3274 C 0.05128 0.7431 0.29377 0.0
C3275 C 0.05098 0.75493 0.29802 0.0
C3276 C 0.04465 0.75493 0.31057 0.0
C3277 C 0.03844 0.74317 0.31853 0.0
C3278 C 0.05609 0.76668 0.28855 0.0
C3279 C 0.04723 0.771 0.28402 0.0
C3280 C 0.06892 0.77242 0.28264 0.0
C3281 C 0.07908 0.76899 0.28771 0.0
C3282 C 0.08247 0.77004 0.30223 0.0
C3283 C 0.09192 0.76664 0.30697 0.0
C3284 C 0.0981 0.76225 0.29729 0.0
C3285 C 0.09488 0.76127 0.28284 0.0
C3286 C 0.08543 0.76464 0.27804 0.0
C3287 C 0.06801 0.81415 0.24332 0.0
C3288 C 0.06975 0.80934 0.23012 0.0
C3289 C 0.06648 0.80677 0.25543 0.0
C3290 C 0.06659 0.79441 0.25452 0.0
C3291 C 0.06896 0.78993 0.24147 0.0
C3292 C 0.07044 0.79728 0.22936 0.0
C3293 C 0.06307 0.78547 0.26677 0.0
C3294 C 0.07219 0.78166 0.27174 0.0
C3295 C 0.0505 0.78021 0.27312 0.0
C3296 C 0.04023 0.78344 0.26803 0.0
C3297 C 0.03519 0.7802 0.25395 0.0
C3298 C 0.02564 0.78346 0.2492 0.0
C3299 C 0.02096 0.78982 0.25847 0.0
C3300 C 0.02579 0.7929 0.27253 0.0
C3301 C 0.03537 0.7897 0.27733 0.0
H3302 H 0.01357 0.79232 0.25478 0.0
H3303 H 0.10541 0.75962 0.30099 0.0
H3304 H 0.30321 0.33221 0.31656 0.0
H3305 H 0.28965 0.32347 0.29457 0.0
H3306 H 0.25565 0.29494 0.31788 0.0
H3307 H 0.26916 0.30347 0.33992 0.0
H3308 H 0.25822 0.28284 0.29416 0.0
H3309 H 0.25782 0.32419 0.30626 0.0
H3310 H 0.26797 0.34883 0.31266 0.0
H3311 H 0.2885 0.35903 0.27354 0.0
H3312 H 0.27861 0.33443 0.26699 0.0
H3313 H 0.20928 0.26325 0.239 0.0
H3314 H 0.22175 0.27289 0.26153 0.0
H3315 H 0.25583 0.30281 0.23928 0.0
H3316 H 0.24321 0.29346 0.21674 0.0
H3317 H 0.25287 0.31431 0.26276 0.0
H3318 H 0.25385 0.27323 0.25082 0.0
H3319 H 0.24406 0.24865 0.24433 0.0
H3320 H 0.22291 0.23801 0.28306 0.0
H3321 H 0.23243 0.26254 0.28969 0.0
C3322 C 0.29286 0.32404 0.31704 0.0
C3323 C 0.28728 0.3186 0.33006 0.0
C3324 C 0.2851 0.31911 0.30445 0.0
C3325 C 0.27158 0.30869 0.30461 0.0
C3326 C 0.26605 0.30302 0.31752 0.0
C3327 C 0.2738 0.30794 0.33012 0.0
C3328 C 0.26318 0.30369 0.29132 0.0
C3329 C 0.25689 0.28968 0.2874 0.0
C3330 C 0.26169 0.31268 0.28233 0.0
C3331 C 0.26756 0.32747 0.28619 0.0
C3332 C 0.26457 0.33169 0.29906 0.0
C3333 C 0.27027 0.34564 0.30271 0.0
C3334 C 0.2789 0.35548 0.29353 0.0
C3335 C 0.28182 0.35139 0.28065 0.0
C3336 C 0.27616 0.33744 0.27696 0.0
C3337 C 0.21932 0.27207 0.23894 0.0
C3338 C 0.22521 0.27776 0.22612 0.0
C3339 C 0.22649 0.27749 0.25181 0.0
C3340 C 0.23981 0.28846 0.25209 0.0
C3341 C 0.24558 0.29437 0.23934 0.0
C3342 C 0.23837 0.28903 0.22647 0.0
C3343 C 0.2479 0.29345 0.26559 0.0
C3344 C 0.25415 0.30745 0.26955 0.0
C3345 C 0.24941 0.28447 0.2746 0.0
C3346 C 0.24375 0.26971 0.27068 0.0
C3347 C 0.24704 0.26564 0.2579 0.0
C3348 C 0.24155 0.25172 0.25421 0.0
C3349 C 0.23284 0.24177 0.26326 0.0
C3350 C 0.22964 0.24573 0.27605 0.0
C3351 C 0.23509 0.25964 0.27979 0.0
H3352 H 0.2286 0.231 0.26038 0.0
H3353 H 0.2833 0.36628 0.29638 0.0
H3354 H 0.28812 0.33985 0.3863 0.0
H3355 H 0.27548 0.34756 0.40044 0.0
H3356 H 0.3006 0.38874 0.38657 0.0
H3357 H 0.31269 0.38089 0.37185 0.0
H3358 H 0.28242 0.36305 0.42186 0.0
H3359 H 0.28678 0.40796 0.38845 0.0
H3360 H 0.2855 0.41264 0.36334 0.0
H3361 H 0.2625 0.36941 0.35296 0.0
H3362 H 0.26347 0.36445 0.37802 0.0
H3363 H 0.28268 0.41302 0.4666 0.0
H3364 H 0.28656 0.39925 0.44922 0.0
H3365 H 0.25188 0.3926 0.42443 0.0
H3366 H 0.24866 0.40739 0.44118 0.0
H3367 H 0.26938 0.39667 0.40739 0.0
H3368 H 0.25289 0.36664 0.44504 0.0
H3369 H 0.25068 0.35909 0.46954 0.0
H3370 H 0.2912 0.36709 0.47018 0.0
H3371 H 0.29373 0.37488 0.44576 0.0
C3372 C 0.29075 0.35047 0.38605 0.0
C3373 C 0.30138 0.35975 0.37794 0.0
C3374 C 0.28355 0.3549 0.39418 0.0
C3375 C 0.28696 0.36873 0.39454 0.0
C3376 C 0.29746 0.37794 0.38623 0.0
C3377 C 0.30445 0.37346 0.37786 0.0
C3378 C 0.28038 0.37382 0.40442 0.0
C3379 C 0.27943 0.37029 0.41864 0.0
C3380 C 0.27603 0.38292 0.40022 0.0
C3381 C 0.27528 0.38584 0.38513 0.0
C3382 C 0.28138 0.39944 0.38083 0.0
C3383 C 0.28072 0.40215 0.3666 0.0
C3384 C 0.27395 0.39133 0.35656 0.0
C3385 C 0.26778 0.37778 0.36074 0.0
C3386 C 0.2684 0.37502 0.37495 0.0
C3387 C 0.27592 0.4087 0.4574 0.0
C3388 C 0.26549 0.4115 0.45526 0.0
C3389 C 0.27802 0.40062 0.44755 0.0
C3390 C 0.26937 0.3946 0.43558 0.0
C3391 C 0.25872 0.39711 0.43355 0.0
C3392 C 0.25685 0.40555 0.44321 0.0
C3393 C 0.2719 0.38629 0.42491 0.0
C3394 C 0.27211 0.38923 0.41055 0.0
C3395 C 0.27499 0.37617 0.42888 0.0
C3396 C 0.27351 0.37141 0.44357 0.0
C3397 C 0.26135 0.36686 0.45043 0.0
C3398 C 0.26004 0.36253 0.46431 0.0
C3399 C 0.27079 0.36262 0.47142 0.0
C3400 C 0.28287 0.36702 0.46466 0.0
C3401 C 0.28424 0.37137 0.45079 0.0
H3402 H 0.26976 0.35927 0.48217 0.0
H3403 H 0.27346 0.39344 0.34555 0.0
H3404 H 0.66173 0.95744 0.39907 0.0
H3405 H 0.65421 0.93695 0.41269 0.0
H3406 H 0.62489 0.91262 0.37951 0.0
H3407 H 0.63213 0.93316 0.36599 0.0
H3408 H 0.61337 0.90833 0.40367 0.0
H3409 H 0.65234 0.90868 0.38754 0.0
H3410 H 0.67631 0.9185 0.38272 0.0
H3411 H 0.68639 0.9272 0.42716 0.0
H3412 H 0.66249 0.91762 0.43223 0.0
H3413 H 0.58938 0.84834 0.44204 0.0
H3414 H 0.6009 0.86399 0.42308 0.0
H3415 H 0.62962 0.89381 0.45376 0.0
H3416 H 0.61823 0.87813 0.47271 0.0
H3417 H 0.64142 0.89314 0.42865 0.0
H3418 H 0.60288 0.89558 0.444 0.0
H3419 H 0.57892 0.88587 0.44889 0.0
H3420 H 0.56826 0.87202 0.40536 0.0
H3421 H 0.59216 0.88146 0.40026 0.0
C3422 C 0.65386 0.94768 0.39454 0.0
C3423 C 0.64745 0.94693 0.38151 0.0
C3424 C 0.64962 0.93594 0.40232 0.0
C3425 C 0.63902 0.9232 0.3971 0.0
C3426 C 0.63306 0.92234 0.38376 0.0
C3427 C 0.63723 0.93408 0.37604 0.0
C3428 C 0.63322 0.91117 0.4062 0.0
C3429 C 0.61947 0.90482 0.40885 0.0
C3430 C 0.64122 0.90677 0.41325 0.0
C3431 C 0.65561 0.91251 0.41025 0.0
C3432 C 0.65967 0.91278 0.39628 0.0
C3433 C 0.67325 0.91829 0.3935 0.0
C3434 C 0.68287 0.92349 0.40462 0.0
C3435 C 0.67893 0.92317 0.41855 0.0
C3436 C 0.66536 0.91768 0.42139 0.0
C3437 C 0.59834 0.8581 0.44467 0.0
C3438 C 0.60297 0.86202 0.45882 0.0
C3439 C 0.60488 0.86704 0.43386 0.0
C3440 C 0.61604 0.8801 0.43704 0.0
C3441 C 0.62106 0.88376 0.45107 0.0
C3442 C 0.61453 0.87483 0.46188 0.0
C3443 C 0.62167 0.89046 0.42607 0.0
C3444 C 0.63534 0.89653 0.42319 0.0
C3445 C 0.61363 0.89463 0.41876 0.0
C3446 C 0.59928 0.88908 0.42179 0.0
C3447 C 0.59541 0.89037 0.4355 0.0
C3448 C 0.58185 0.88493 0.4383 0.0
C3449 C 0.57207 0.8783 0.42745 0.0
C3450 C 0.57584 0.87713 0.41376 0.0
C3451 C 0.58939 0.88252 0.41091 0.0
H3452 H 0.56157 0.87409 0.42964 0.0
H3453 H 0.69338 0.92776 0.40245 0.0
H3454 H 0.07315 0.70964 0.3502 0.0
H3455 H 0.08647 0.71422 0.37214 0.0
H3456 H 0.05317 0.70952 0.39624 0.0
H3457 H 0.03974 0.70498 0.37436 0.0
H3458 H 0.07728 0.73223 0.40532 0.0
H3459 H 0.05989 0.68411 0.39442 0.0
H3460 H 0.05575 0.66414 0.37928 0.0
H3461 H 0.09821 0.68076 0.37619 0.0
H3462 H 0.1026 0.70093 0.39116 0.0
H3463 H 0.0977 0.72397 0.47368 0.0
H3464 H 0.08619 0.72204 0.45105 0.0
H3465 H 0.1186 0.72213 0.42892 0.0
H3466 H 0.12988 0.72356 0.45157 0.0
H3467 H 0.09578 0.70262 0.41822 0.0
H3468 H 0.11359 0.75024 0.42964 0.0
H3469 H 0.11819 0.77054 0.44447 0.0
H3470 H 0.07593 0.75569 0.44614 0.0
H3471 H 0.07106 0.73519 0.43149 0.0
C3472 C 0.06863 0.70957 0.36015 0.0
C3473 C 0.05533 0.70689 0.36049 0.0
C3474 C 0.07626 0.71217 0.37268 0.0
C3475 C 0.07077 0.71211 0.38581 0.0
C3476 C 0.05759 0.70961 0.38621 0.0
C3477 C 0.04991 0.70695 0.37368 0.0
C3478 C 0.07875 0.71457 0.39915 0.0
C3479 C 0.08122 0.72568 0.40825 0.0
C3480 C 0.08419 0.70626 0.40272 0.0
C3481 C 0.08157 0.6941 0.39379 0.0
C3482 C 0.06834 0.68356 0.39042 0.0
C3483 C 0.06595 0.67219 0.38189 0.0
C3484 C 0.07671 0.6712 0.37674 0.0
C3485 C 0.08988 0.68155 0.38016 0.0
C3486 C 0.09233 0.69295 0.38868 0.0
C3487 C 0.10246 0.72382 0.46397 0.0
C3488 C 0.11482 0.72424 0.46439 0.0
C3489 C 0.0959 0.72275 0.45103 0.0
C3490 C 0.10163 0.72217 0.43824 0.0
C3491 C 0.11402 0.72265 0.43864 0.0
C3492 C 0.12052 0.72359 0.45158 0.0
C3493 C 0.09433 0.72029 0.4245 0.0
C3494 C 0.09195 0.70926 0.41531 0.0
C3495 C 0.08906 0.72876 0.4208 0.0
C3496 C 0.09196 0.74112 0.42956 0.0
C3497 C 0.10527 0.75125 0.43325 0.0
C3498 C 0.10793 0.7628 0.44162 0.0
C3499 C 0.09736 0.76439 0.44627 0.0
C3500 C 0.08411 0.75444 0.44254 0.0
C3501 C 0.08139 0.74286 0.43419 0.0
H3502 H 0.09944 0.77334 0.45275 0.0
H3503 H 0.07484 0.66239 0.37014 0.0
H3504 H 0.33428 0.03002 0.70307 0.0
H3505 H 0.3266 0.03807 0.72312 0.0
H3506 H 0.30132 0.0452 0.69476 0.0
H3507 H 0.30895 0.03729 0.6747 0.0
H3508 H 0.31544 0.06676 0.71318 0.0
H3509 H 0.28798 0.01778 0.71522 0.0
H3510 H 0.28348 0.99408 0.71649 0.0
H3511 H 0.30577 0.00451 0.75614 0.0
H3512 H 0.31057 0.02835 0.75501 0.0
H3513 H 0.26912 0.06982 0.75933 0.0
H3514 H 0.27959 0.06285 0.74119 0.0
H3515 H 0.30669 0.06251 0.77288 0.0
H3516 H 0.29651 0.06989 0.79107 0.0
H3517 H 0.29341 0.03829 0.75413 0.0
H3518 H 0.31955 0.0871 0.75259 0.0
H3519 H 0.32343 0.11056 0.75123 0.0
H3520 H 0.30307 0.10019 0.71045 0.0
H3521 H 0.29887 0.07657 0.71166 0.0
C3522 C 0.32705 0.03324 0.7011 0.0
C3523 C 0.32224 0.03298 0.68725 0.0
C3524 C 0.32264 0.03781 0.71258 0.0
C3525 C 0.31335 0.04219 0.71043 0.0
C3526 C 0.30852 0.04191 0.69665 0.0
C3527 C 0.31287 0.03731 0.68519 0.0
C3528 C 0.30873 0.04725 0.72247 0.0
C3529 C 0.31052 0.06048 0.72207 0.0
C3530 C 0.30262 0.0392 0.73425 0.0
C3531 C 0.29978 0.02489 0.73494 0.0
C3532 C 0.29203 0.01506 0.72415 0.0
C3533 C 0.2894 0.00159 0.72485 0.0
C3534 C 0.29438 0.9978 0.73637 0.0
C3535 C 0.30196 0.00747 0.74722 0.0
C3536 C 0.30463 0.02095 0.74655 0.0
C3537 C 0.27734 0.06832 0.76244 0.0
C3538 C 0.28188 0.07025 0.77666 0.0
C3539 C 0.28332 0.06435 0.75207 0.0
C3540 C 0.29388 0.06215 0.75573 0.0
C3541 C 0.2985 0.0641 0.76989 0.0
C3542 C 0.29267 0.06828 0.78024 0.0
C3543 C 0.29997 0.05768 0.7447 0.0
C3544 C 0.29845 0.04459 0.7453 0.0
C3545 C 0.30628 0.06583 0.73307 0.0
C3546 C 0.30877 0.08002 0.73229 0.0
C3547 C 0.31578 0.08977 0.74339 0.0
C3548 C 0.31806 0.10311 0.74264 0.0
C3549 C 0.31347 0.10686 0.73078 0.0
C3550 C 0.3066 0.09727 0.71964 0.0
C3551 C 0.30428 0.08391 0.72035 0.0
H3552 H 0.31525 0.11719 0.73021 0.0
H3553 H 0.29232 0.98737 0.7369 0.0
H3554 H 0.96527 0.27847 0.72495 0.0
H3555 H 0.95408 0.25634 0.73603 0.0
H3556 H 0.96516 0.23847 0.7018 0.0
H3557 H 0.97641 0.26064 0.69057 0.0
H3558 H 0.9388 0.22148 0.71005 0.0
H3559 H 0.98321 0.24706 0.73105 0.0
H3560 H 0.00261 0.2672 0.74291 0.0
H3561 H 0.97871 0.26393 0.77845 0.0
H3562 H 0.9591 0.24388 0.76671 0.0
H3563 H 0.94129 0.17233 0.77639 0.0
H3564 H 0.95387 0.19469 0.75739 0.0
H3565 H 0.90971 0.19101 0.74532 0.0
H3566 H 0.89592 0.16842 0.76376 0.0
H3567 H 0.95487 0.21919 0.75834 0.0
H3568 H 0.91323 0.20591 0.71484 0.0
H3569 H 0.89492 0.18542 0.70217 0.0
H3570 H 0.9152 0.16312 0.71029 0.0
H3571 H 0.93371 0.18352 0.72283 0.0
C3572 C 0.9652 0.26981 0.71966 0.0
C3573 C 0.97176 0.27131 0.70689 0.0
C3574 C 0.95885 0.25719 0.72606 0.0
C3575 C 0.95893 0.24583 0.7198 0.0
C3576 C 0.96502 0.24714 0.70679 0.0
C3577 C 0.97147 0.25981 0.70042 0.0
C3578 C 0.95307 0.23276 0.72716 0.0
C3579 C 0.94227 0.22096 0.72062 0.0
C3580 C 0.95786 0.23205 0.7408 0.0
C3581 C 0.96966 0.24404 0.74794 0.0
C3582 C 0.98207 0.25069 0.74135 0.0
C3583 C 0.9931 0.26208 0.74806 0.0
C3584 C 0.99189 0.26686 0.76141 0.0
C3585 C 0.97963 0.26023 0.7681 0.0
C3586 C 0.96856 0.24884 0.76143 0.0
C3587 C 0.93534 0.17525 0.77002 0.0
C3588 C 0.9176 0.16963 0.77392 0.0
C3589 C 0.94315 0.18958 0.7587 0.0
C3590 C 0.93332 0.19569 0.74982 0.0
C3591 C 0.9153 0.18723 0.75101 0.0
C3592 C 0.90653 0.17283 0.76204 0.0
C3593 C 0.94029 0.208 0.74142 0.0
C3594 C 0.95137 0.21967 0.74777 0.0
C3595 C 0.93583 0.20853 0.72756 0.0
C3596 C 0.92479 0.19622 0.71992 0.0
C3597 C 0.91381 0.19666 0.71388 0.0
C3598 C 0.90339 0.18505 0.70673 0.0
C3599 C 0.90387 0.17296 0.70547 0.0
C3600 C 0.9148 0.17247 0.71132 0.0
C3601 C 0.92526 0.18405 0.71848 0.0
H3602 H 0.89579 0.16399 0.69994 0.0
H3603 H 0.00044 0.27568 0.76659 0.0
H3604 H 0.73525 0.69125 0.68003 0.0
H3605 H 0.74987 0.70004 0.70123 0.0
H3606 H 0.71563 0.67877 0.72732 0.0
H3607 H 0.7008 0.66984 0.70607 0.0
H3608 H 0.73334 0.70567 0.73717 0.0
H3609 H 0.7349 0.66574 0.72324 0.0
H3610 H 0.73739 0.64983 0.70695 0.0
H3611 H 0.77796 0.68103 0.69967 0.0
H3612 H 0.77565 0.69722 0.71576 0.0
H3613 H 0.77342 0.7127 0.79933 0.0
H3614 H 0.75712 0.70247 0.77947 0.0
H3615 H 0.78814 0.7261 0.7505 0.0
H3616 H 0.80446 0.73682 0.77038 0.0
H3617 H 0.77104 0.69678 0.74312 0.0
H3618 H 0.76866 0.73695 0.75639 0.0
H3619 H 0.76589 0.75248 0.77297 0.0
H3620 H 0.72636 0.72 0.78197 0.0
H3621 H 0.72899 0.7042 0.7656 0.0
C3622 C 0.73077 0.68844 0.69025 0.0
C3623 C 0.71683 0.67979 0.69133 0.0
C3624 C 0.73917 0.69344 0.70236 0.0
C3625 C 0.73384 0.68993 0.71582 0.0
C3626 C 0.71992 0.68155 0.71701 0.0
C3627 C 0.71149 0.67643 0.70486 0.0
C3628 C 0.74292 0.69506 0.72857 0.0
C3629 C 0.74144 0.70354 0.7386 0.0
C3630 C 0.7536 0.69243 0.7303 0.0
C3631 C 0.75506 0.68274 0.7206 0.0
C3632 C 0.74432 0.66926 0.71807 0.0
C3633 C 0.7457 0.66018 0.70889 0.0
C3634 C 0.75781 0.66443 0.70225 0.0
C3635 C 0.76858 0.67776 0.7048 0.0
C3636 C 0.76724 0.68689 0.71396 0.0
C3637 C 0.77676 0.71597 0.7888 0.0
C3638 C 0.79016 0.72603 0.78651 0.0
C3639 C 0.76743 0.71001 0.77745 0.0
C3640 C 0.77142 0.71368 0.76358 0.0
C3641 C 0.78487 0.72324 0.76116 0.0
C3642 C 0.79415 0.7294 0.77252 0.0
C3643 C 0.76155 0.70751 0.75157 0.0
C3644 C 0.76288 0.69882 0.74171 0.0
C3645 C 0.75069 0.70988 0.75005 0.0
C3646 C 0.74909 0.71934 0.75991 0.0
C3647 C 0.75943 0.73307 0.76203 0.0
C3648 C 0.75788 0.74194 0.77136 0.0
C3649 C 0.74597 0.73722 0.77856 0.0
C3650 C 0.73559 0.72363 0.77641 0.0
C3651 C 0.7371 0.71472 0.7671 0.0
H3652 H 0.74478 0.74411 0.78577 0.0
H3653 H 0.75887 0.65738 0.69515 0.0
H3654 H 0.71579 0.66073 0.63906 0.0
H3655 H 0.72922 0.65457 0.62439 0.0
H3656 H 0.70238 0.61179 0.6318 0.0
H3657 H 0.68907 0.618 0.6469 0.0
H3658 H 0.72762 0.6171 0.63109 0.0
H3659 H 0.69912 0.62637 0.60154 0.0
H3660 H 0.68938 0.64002 0.59303 0.0
H3661 H 0.72848 0.67211 0.58221 0.0
H3662 H 0.73848 0.65873 0.59083 0.0
H3663 H 0.74395 0.59074 0.56981 0.0
H3664 H 0.73288 0.59658 0.5883 0.0
H3665 H 0.75924 0.63961 0.58161 0.0
H3666 H 0.77003 0.63381 0.56285 0.0
H3667 H 0.73418 0.63378 0.58228 0.0
H3668 H 0.76252 0.62375 0.61142 0.0
H3669 H 0.77177 0.60961 0.61975 0.0
H3670 H 0.73243 0.57827 0.6309 0.0
H3671 H 0.72292 0.59215 0.62247 0.0
C3672 C 0.71276 0.65003 0.63763 0.0
C3673 C 0.70122 0.63983 0.64388 0.0
C3674 C 0.72046 0.64651 0.62924 0.0
C3675 C 0.71659 0.63269 0.62668 0.0
C3676 C 0.7055 0.62251 0.63355 0.0
C3677 C 0.6979 0.62607 0.64216 0.0
C3678 C 0.72371 0.62887 0.61624 0.0
C3679 C 0.72894 0.62062 0.62037 0.0
C3680 C 0.72557 0.6336 0.6023 0.0
C3681 C 0.71956 0.6416 0.59694 0.0
C3682 C 0.70565 0.63637 0.59742 0.0
C3683 C 0.70008 0.64406 0.59257 0.0
C3684 C 0.70831 0.65694 0.58711 0.0
C3685 C 0.72212 0.66214 0.58645 0.0
C3686 C 0.72774 0.65451 0.5913 0.0
C3687 C 0.7475 0.60144 0.57247 0.0
C3688 C 0.75807 0.61182 0.56514 0.0
C3689 C 0.74121 0.60477 0.58305 0.0
C3690 C 0.74539 0.61855 0.58651 0.0
C3691 C 0.75592 0.62892 0.57919 0.0
C3692 C 0.76215 0.6256 0.56855 0.0
C3693 C 0.73828 0.62216 0.59716 0.0
C3694 C 0.73295 0.63031 0.59302 0.0
C3695 C 0.73627 0.61725 0.61104 0.0
C3696 C 0.74199 0.60894 0.6162 0.0
C3697 C 0.75583 0.6138 0.61556 0.0
C3698 C 0.76112 0.60584 0.62031 0.0
C3699 C 0.75269 0.59304 0.62582 0.0
C3700 C 0.73895 0.58818 0.62662 0.0
C3701 C 0.7336 0.5961 0.62187 0.0
H3702 H 0.7568 0.58689 0.62949 0.0
H3703 H 0.70399 0.66288 0.58337 0.0
H3704 H 0.33925 0.04809 0.63663 0.0
H3705 H 0.34498 0.06793 0.62253 0.0
H3706 H 0.38711 0.08245 0.63017 0.0
H3707 H 0.38135 0.06283 0.64481 0.0
H3708 H 0.38348 0.10326 0.63081 0.0
H3709 H 0.36912 0.06428 0.59847 0.0
H3710 H 0.35355 0.04089 0.58868 0.0
H3711 H 0.32362 0.05193 0.58041 0.0
H3712 H 0.33896 0.07535 0.59031 0.0
H3713 H 0.40862 0.14693 0.57281 0.0
H3714 H 0.40227 0.12886 0.58973 0.0
H3715 H 0.36054 0.11629 0.58255 0.0
H3716 H 0.36683 0.13403 0.56524 0.0
H3717 H 0.36357 0.09483 0.58209 0.0
H3718 H 0.37892 0.13451 0.61362 0.0
H3719 H 0.39504 0.15787 0.62307 0.0
H3720 H 0.42382 0.1455 0.63239 0.0
H3721 H 0.40793 0.12211 0.62283 0.0
C3722 C 0.34972 0.05549 0.6353 0.0
C3723 C 0.35985 0.0538 0.64161 0.0
C3724 C 0.353 0.06684 0.62722 0.0
C3725 C 0.36649 0.07652 0.62495 0.0
C3726 C 0.37663 0.0751 0.63169 0.0
C3727 C 0.37333 0.06388 0.64003 0.0
C3728 C 0.37003 0.08791 0.61527 0.0
C3729 C 0.37923 0.10139 0.62011 0.0
C3730 C 0.36431 0.08554 0.60137 0.0
C3731 C 0.35515 0.07152 0.59524 0.0
C3732 C 0.35919 0.06169 0.59463 0.0
C3733 C 0.35041 0.04844 0.58905 0.0
C3734 C 0.33759 0.04492 0.58395 0.0
C3735 C 0.33355 0.05467 0.58437 0.0
C3736 C 0.34228 0.06793 0.58995 0.0
C3737 C 0.39811 0.14043 0.57502 0.0
C3738 C 0.38827 0.14215 0.56801 0.0
C3739 C 0.39449 0.13013 0.58471 0.0
C3740 C 0.38094 0.12139 0.58765 0.0
C3741 C 0.37107 0.123 0.58055 0.0
C3742 C 0.37468 0.13321 0.57076 0.0
C3743 C 0.37702 0.11018 0.59763 0.0
C3744 C 0.36776 0.09671 0.59283 0.0
C3745 C 0.38277 0.11256 0.61151 0.0
C3746 C 0.39227 0.12659 0.61741 0.0
C3747 C 0.38872 0.1368 0.61761 0.0
C3748 C 0.39781 0.15004 0.623 0.0
C3749 C 0.41046 0.15318 0.6283 0.0
C3750 C 0.41402 0.14306 0.62828 0.0
C3751 C 0.40497 0.12981 0.62289 0.0
H3752 H 0.41748 0.16344 0.63246 0.0
H3753 H 0.3308 0.03465 0.57966 0.0
H3754 H 0.96584 0.29294 0.6499 0.0
H3755 H 0.95085 0.28658 0.62895 0.0
H3756 H 0.922 0.29072 0.6538 0.0
H3757 H 0.93667 0.2965 0.67483 0.0
H3758 H 0.90957 0.26846 0.63852 0.0
H3759 H 0.94277 0.31493 0.62891 0.0
H3760 H 0.96561 0.33427 0.6256 0.0
H3761 H 0.97055 0.31181 0.59118 0.0
H3762 H 0.94778 0.29226 0.59439 0.0
H3763 H 0.86844 0.27094 0.58359 0.0
H3764 H 0.88491 0.27743 0.60321 0.0
H3765 H 0.90779 0.26485 0.57783 0.0
H3766 H 0.89123 0.25817 0.55818 0.0
H3767 H 0.92357 0.29058 0.59249 0.0
H3768 H 0.88967 0.24447 0.60194 0.0
H3769 H 0.86655 0.22567 0.60522 0.0
H3770 H 0.86279 0.2484 0.64019 0.0
H3771 H 0.88583 0.26743 0.63699 0.0
C3772 C 0.95634 0.29259 0.65085 0.0
C3773 C 0.95243 0.29519 0.66402 0.0
C3774 C 0.9478 0.28901 0.63885 0.0
C3775 C 0.93532 0.28829 0.63973 0.0
C3776 C 0.93153 0.29113 0.65284 0.0
C3777 C 0.93995 0.29448 0.66486 0.0
C3778 C 0.92594 0.2841 0.62718 0.0
C3779 C 0.91263 0.27346 0.62853 0.0
C3780 C 0.92996 0.29031 0.61398 0.0
C3781 C 0.94362 0.30208 0.61199 0.0
C3782 C 0.94876 0.31408 0.6207 0.0
C3783 C 0.96169 0.32509 0.61883 0.0
C3784 C 0.96954 0.32425 0.60822 0.0
C3785 C 0.96446 0.31243 0.59941 0.0
C3786 C 0.95154 0.30139 0.60125 0.0
C3787 C 0.87695 0.26951 0.58221 0.0
C3788 C 0.87851 0.26396 0.56939 0.0
C3789 C 0.88635 0.27323 0.59341 0.0
C3790 C 0.89751 0.27154 0.59198 0.0
C3791 C 0.89924 0.26623 0.57913 0.0
C3792 C 0.88978 0.26239 0.56795 0.0
C3793 C 0.90726 0.27518 0.604 0.0
C3794 C 0.9206 0.28564 0.60252 0.0
C3795 C 0.90326 0.26891 0.61713 0.0
C3796 C 0.88944 0.25743 0.61914 0.0
C3797 C 0.88388 0.24551 0.61026 0.0
C3798 C 0.87079 0.2348 0.61212 0.0
C3799 C 0.8632 0.23585 0.62288 0.0
C3800 C 0.86868 0.2476 0.63184 0.0
C3801 C 0.88176 0.25835 0.63002 0.0
H3802 H 0.85307 0.22755 0.6243 0.0
H3803 H 0.97955 0.33278 0.60679 0.0
H3804 H 0.36932 0.31202 0.67442 0.0
H3805 H 0.37708 0.30604 0.65299 0.0
H3806 H 0.3441 0.304 0.62878 0.0
H3807 H 0.33623 0.31 0.65016 0.0
H3808 H 0.34724 0.28146 0.62349 0.0
H3809 H 0.37458 0.33068 0.62573 0.0
H3810 H 0.39035 0.35334 0.637 0.0
H3811 H 0.41995 0.34136 0.64244 0.0
H3812 H 0.40428 0.31855 0.63137 0.0
H3813 H 0.36912 0.27956 0.55425 0.0
H3814 H 0.3614 0.28496 0.57611 0.0
H3815 H 0.39699 0.29112 0.59858 0.0
H3816 H 0.40488 0.28604 0.57663 0.0
H3817 H 0.39258 0.31126 0.60517 0.0
H3818 H 0.36593 0.26238 0.60298 0.0
H3819 H 0.3504 0.23943 0.59219 0.0
H3820 H 0.31982 0.25012 0.58736 0.0
H3821 H 0.33523 0.27322 0.59794 0.0
C3822 C 0.36373 0.31038 0.66454 0.0
C3823 C 0.35215 0.31151 0.66403 0.0
C3824 C 0.36821 0.30698 0.65229 0.0
C3825 C 0.36119 0.30463 0.63929 0.0
C3826 C 0.34965 0.30577 0.63872 0.0
C3827 C 0.34522 0.30927 0.65094 0.0
C3828 C 0.36576 0.30073 0.62634 0.0
C3829 C 0.35708 0.28804 0.61936 0.0
C3830 C 0.37875 0.30914 0.62123 0.0
C3831 C 0.3882 0.32286 0.62786 0.0
C3832 C 0.38441 0.33284 0.62944 0.0
C3833 C 0.39334 0.34571 0.63577 0.0
C3834 C 0.40613 0.34877 0.64047 0.0
C3835 C 0.41003 0.33897 0.63881 0.0
C3836 C 0.40113 0.32607 0.6325 0.0
C3837 C 0.37518 0.28185 0.56391 0.0
C3838 C 0.38744 0.28207 0.56381 0.0
C3839 C 0.37076 0.28493 0.5764 0.0
C3840 C 0.37851 0.28825 0.58906 0.0
C3841 C 0.3908 0.28851 0.58897 0.0
C3842 C 0.39525 0.28549 0.57647 0.0
C3843 C 0.37404 0.29197 0.60224 0.0
C3844 C 0.38274 0.30463 0.60929 0.0
C3845 C 0.3611 0.28347 0.60748 0.0
C3846 C 0.35179 0.26958 0.60113 0.0
C3847 C 0.35593 0.25988 0.59951 0.0
C3848 C 0.34714 0.24683 0.59345 0.0
C3849 C 0.33414 0.24333 0.58906 0.0
C3850 C 0.3299 0.25285 0.59075 0.0
C3851 C 0.33865 0.26592 0.59679 0.0
H3852 H 0.32735 0.23322 0.58437 0.0
H3853 H 0.41303 0.35875 0.64536 0.0
H3854 H 0.7103 0.04672 0.6162 0.0
H3855 H 0.72156 0.06649 0.60142 0.0
H3856 H 0.71694 0.09168 0.63335 0.0
H3857 H 0.70536 0.07183 0.64805 0.0
H3858 H 0.70746 0.0938 0.609 0.0
H3859 H 0.74838 0.09695 0.62454 0.0
H3860 H 0.76406 0.08873 0.62972 0.0
H3861 H 0.76302 0.07756 0.58577 0.0
H3862 H 0.74718 0.08553 0.58034 0.0
H3863 H 0.73655 0.15074 0.56586 0.0
H3864 H 0.7351 0.13696 0.586 0.0
H3865 H 0.7345 0.10618 0.55749 0.0
H3866 H 0.73617 0.12004 0.53735 0.0
H3867 H 0.74899 0.10943 0.58233 0.0
H3868 H 0.70578 0.10315 0.56778 0.0
H3869 H 0.68987 0.11104 0.5624 0.0
H3870 H 0.69521 0.12779 0.6049 0.0
H3871 H 0.71133 0.12018 0.61046 0.0
C3872 C 0.71195 0.05653 0.62022 0.0
C3873 C 0.70684 0.05768 0.63323 0.0
C3874 C 0.71846 0.06787 0.61178 0.0
C3875 C 0.72016 0.08062 0.61628 0.0
C3876 C 0.71573 0.08195 0.62964 0.0
C3877 C 0.70912 0.07059 0.63804 0.0
C3878 C 0.72504 0.09201 0.60639 0.0
C3879 C 0.71673 0.09745 0.60345 0.0
C3880 C 0.73694 0.09654 0.59885 0.0
C3881 C 0.74651 0.09176 0.60205 0.0
C3882 C 0.75142 0.09265 0.61599 0.0
C3883 C 0.76035 0.08805 0.61897 0.0
C3884 C 0.76451 0.0826 0.60809 0.0
C3885 C 0.75978 0.08177 0.59419 0.0
C3886 C 0.75084 0.08635 0.59116 0.0
C3887 C 0.73645 0.14119 0.56395 0.0
C3888 C 0.73656 0.13647 0.55007 0.0
C3889 C 0.73557 0.13332 0.57543 0.0
C3890 C 0.73458 0.1205 0.57322 0.0
C3891 C 0.73532 0.11607 0.55943 0.0
C3892 C 0.73623 0.12396 0.54795 0.0
C3893 C 0.73137 0.11107 0.58499 0.0
C3894 C 0.7399 0.10595 0.58817 0.0
C3895 C 0.71966 0.10678 0.59278 0.0
C3896 C 0.70988 0.11124 0.58948 0.0
C3897 C 0.70364 0.10861 0.57594 0.0
C3898 C 0.69457 0.11302 0.57286 0.0
C3899 C 0.69156 0.11995 0.58329 0.0
C3900 C 0.69758 0.12245 0.59683 0.0
C3901 C 0.70668 0.11809 0.59995 0.0
H3902 H 0.68453 0.12335 0.58089 0.0
H3903 H 0.77143 0.07904 0.61042 0.0
H3904 H 0.96577 0.67214 0.6449 0.0
H3905 H 0.95326 0.66303 0.62229 0.0
H3906 H 0.91801 0.63506 0.64432 0.0
H3907 H 0.93037 0.644 0.66693 0.0
H3908 H 0.9229 0.62235 0.62226 0.0
H3909 H 0.92014 0.66309 0.63035 0.0
H3910 H 0.92924 0.68782 0.63528 0.0
H3911 H 0.95153 0.69698 0.59732 0.0
H3912 H 0.94271 0.6723 0.59227 0.0
H3913 H 0.87598 0.59815 0.56494 0.0
H3914 H 0.88749 0.60922 0.58754 0.0
H3915 H 0.92144 0.63952 0.5654 0.0
H3916 H 0.9097 0.62876 0.54274 0.0
H3917 H 0.91731 0.65135 0.58755 0.0
H3918 H 0.92084 0.61126 0.57941 0.0
H3919 H 0.91246 0.58669 0.57423 0.0
H3920 H 0.8898 0.57649 0.61197 0.0
H3921 H 0.89789 0.601 0.61726 0.0
C3922 C 0.95534 0.66408 0.64495 0.0
C3923 C 0.94909 0.65883 0.65776 0.0
C3924 C 0.9482 0.65892 0.63201 0.0
C3925 C 0.93468 0.64844 0.63164 0.0
C3926 C 0.92843 0.64316 0.64438 0.0
C3927 C 0.93553 0.64833 0.6573 0.0
C3928 C 0.92708 0.64271 0.61797 0.0
C3929 C 0.92151 0.62865 0.61475 0.0
C3930 C 0.92561 0.65102 0.60801 0.0
C3931 C 0.93087 0.66585 0.61101 0.0
C3932 C 0.92707 0.67038 0.62311 0.0
C3933 C 0.93216 0.68439 0.62592 0.0
C3934 C 0.94098 0.69397 0.61664 0.0
C3935 C 0.94471 0.68955 0.60451 0.0
C3936 C 0.93966 0.67555 0.60167 0.0
C3937 C 0.88577 0.60735 0.56489 0.0
C3938 C 0.89188 0.61273 0.55206 0.0
C3939 C 0.8924 0.61359 0.57781 0.0
C3940 C 0.90543 0.62508 0.57818 0.0
C3941 C 0.91139 0.63068 0.56539 0.0
C3942 C 0.90469 0.62454 0.55246 0.0
C3943 C 0.91305 0.63095 0.59185 0.0
C3944 C 0.91866 0.64503 0.59507 0.0
C3945 C 0.91468 0.62269 0.60177 0.0
C3946 C 0.90987 0.60795 0.59866 0.0
C3947 C 0.914 0.60377 0.58655 0.0
C3948 C 0.90931 0.58986 0.5836 0.0
C3949 C 0.90058 0.58003 0.59275 0.0
C3950 C 0.89655 0.58411 0.60488 0.0
C3951 C 0.90119 0.59801 0.60787 0.0
H3952 H 0.89696 0.56927 0.59045 0.0
H3953 H 0.94491 0.70481 0.61883 0.0
H3954 H 0.98229 0.72195 0.7037 0.0
H3955 H 0.97283 0.73218 0.71933 0.0
H3956 H 0.93991 0.69185 0.72749 0.0
H3957 H 0.94979 0.68157 0.71247 0.0
H3958 H 0.95221 0.73425 0.72177 0.0
H3959 H 0.93024 0.69024 0.76089 0.0
H3960 H 0.93392 0.67174 0.76883 0.0
H3961 H 0.97517 0.69487 0.75753 0.0
H3962 H 0.97177 0.71356 0.74969 0.0
H3963 H 0.92159 0.75437 0.77391 0.0
H3964 H 0.92508 0.74081 0.75576 0.0
H3965 H 0.95512 0.74009 0.78294 0.0
H3966 H 0.95098 0.75282 0.80146 0.0
H3967 H 0.94245 0.71713 0.77033 0.0
H3968 H 0.9624 0.76313 0.75459 0.0
H3969 H 0.96302 0.78438 0.74796 0.0
H3970 H 0.93327 0.76206 0.7148 0.0
H3971 H 0.93236 0.74063 0.72136 0.0
C3972 C 0.97294 0.71528 0.70868 0.0
C3973 C 0.96689 0.70096 0.70705 0.0
C3974 C 0.96752 0.72114 0.71762 0.0
C3975 C 0.95581 0.7128 0.7249 0.0
C3976 C 0.94917 0.6985 0.72236 0.0
C3977 C 0.95479 0.69263 0.71371 0.0
C3978 C 0.95114 0.71905 0.73579 0.0
C3979 C 0.95001 0.73045 0.73236 0.0
C3980 C 0.94851 0.71432 0.74973 0.0
C3981 C 0.95069 0.7032 0.75455 0.0
C3982 C 0.94009 0.69138 0.76014 0.0
C3983 C 0.94213 0.68087 0.76461 0.0
C3984 C 0.95476 0.68211 0.76363 0.0
C3985 C 0.96539 0.6939 0.75823 0.0
C3986 C 0.96341 0.70445 0.75376 0.0
C3987 C 0.92878 0.75113 0.77612 0.0
C3988 C 0.93602 0.75465 0.78917 0.0
C3989 C 0.93086 0.74348 0.76565 0.0
C3990 C 0.94055 0.73961 0.76782 0.0
C3991 C 0.94757 0.7429 0.78096 0.0
C3992 C 0.94525 0.75023 0.79152 0.0
C3993 C 0.94374 0.73248 0.7564 0.0
C3994 C 0.94452 0.72086 0.7597 0.0
C3995 C 0.94667 0.73741 0.74254 0.0
C3996 C 0.9472 0.75026 0.73857 0.0
C3997 C 0.95592 0.76274 0.74595 0.0
C3998 C 0.95633 0.77482 0.7422 0.0
C3999 C 0.94816 0.77456 0.73099 0.0
C4000 C 0.93957 0.76223 0.72349 0.0
C4001 C 0.93911 0.75012 0.72722 0.0
H4002 H 0.94849 0.78392 0.7281 0.0
H4003 H 0.95631 0.67395 0.76708 0.0
H4004 H 0.29574 0.27351 0.69507 0.0
H4005 H 0.28717 0.25273 0.70854 0.0
H4006 H 0.32001 0.27422 0.73918 0.0
H4007 H 0.32873 0.29494 0.72571 0.0
H4008 H 0.31401 0.2479 0.7348 0.0
H4009 H 0.29001 0.27178 0.74461 0.0
H4010 H 0.27649 0.28231 0.7384 0.0
H4011 H 0.24526 0.24367 0.72044 0.0
H4012 H 0.25869 0.23295 0.72638 0.0
H4013 H 0.28732 0.21603 0.79928 0.0
H4014 H 0.29719 0.23106 0.77951 0.0
H4015 H 0.26214 0.20437 0.75311 0.0
H4016 H 0.25222 0.18929 0.77292 0.0
H4017 H 0.26839 0.23089 0.75276 0.0
H4018 H 0.29157 0.20635 0.74651 0.0
H4019 H 0.30519 0.19623 0.75375 0.0
H4020 H 0.33807 0.23627 0.76594 0.0
H4021 H 0.32458 0.24663 0.75898 0.0
C4022 C 0.30126 0.27375 0.70455 0.0
C4023 C 0.31285 0.28592 0.7094 0.0
C4024 C 0.29634 0.26187 0.71224 0.0
C4025 C 0.30284 0.262 0.72498 0.0
C4026 C 0.31483 0.2739 0.72939 0.0
C4027 C 0.31978 0.28575 0.72169 0.0
C4028 C 0.29661 0.2502 0.73435 0.0
C4029 C 0.30406 0.2442 0.73878 0.0
C4030 C 0.28351 0.2452 0.73932 0.0
C4031 C 0.27542 0.25161 0.73577 0.0
C4032 C 0.2803 0.26556 0.73923 0.0
C4033 C 0.27265 0.27156 0.73578 0.0
C4034 C 0.26004 0.26367 0.72899 0.0
C4035 C 0.25504 0.24977 0.72567 0.0
C4036 C 0.26267 0.24372 0.72908 0.0
C4037 C 0.28184 0.21325 0.78918 0.0
C4038 C 0.26904 0.20147 0.7876 0.0
C4039 C 0.28749 0.22181 0.77788 0.0
C4040 C 0.28044 0.21877 0.7648 0.0
C4041 C 0.26777 0.20686 0.7631 0.0
C4042 C 0.26213 0.19826 0.77438 0.0
C4043 C 0.28583 0.22865 0.75335 0.0
C4044 C 0.27824 0.23437 0.74858 0.0
C4045 C 0.29882 0.23343 0.74818 0.0
C4046 C 0.30701 0.22726 0.75232 0.0
C4047 C 0.30166 0.213 0.75084 0.0
C4048 C 0.30937 0.20722 0.75487 0.0
C4049 C 0.32248 0.2156 0.76032 0.0
C4050 C 0.32791 0.22979 0.76172 0.0
C4051 C 0.32024 0.23562 0.75772 0.0
H4052 H 0.32843 0.2111 0.76344 0.0
H4053 H 0.25413 0.26833 0.72633 0.0
H4054 H 0.73559 0.02961 0.67052 0.0
H4055 H 0.74969 0.03514 0.69204 0.0
H4056 H 0.72112 0.0409 0.7155 0.0
H4057 H 0.7069 0.03536 0.69404 0.0
H4058 H 0.74747 0.06204 0.72052 0.0
H4059 H 0.72251 0.0128 0.71976 0.0
H4060 H 0.71365 0.98944 0.70934 0.0
H4061 H 0.75381 0.99743 0.70423 0.0
H4062 H 0.76291 0.02092 0.71444 0.0
H4063 H 0.77232 0.06335 0.79013 0.0
H4064 H 0.75868 0.05841 0.7683 0.0
H4065 H 0.7855 0.04882 0.74623 0.0
H4066 H 0.79899 0.05346 0.76815 0.0
H4067 H 0.76025 0.02984 0.74021 0.0
H4068 H 0.78542 0.07885 0.74102 0.0
H4069 H 0.7946 0.10233 0.75122 0.0
H4070 H 0.75466 0.09516 0.75582 0.0
H4071 H 0.74524 0.07155 0.74584 0.0
C4072 C 0.73226 0.032 0.68026 0.0
C4073 C 0.72009 0.03203 0.68054 0.0
C4074 C 0.74032 0.03512 0.69255 0.0
C4075 C 0.73642 0.03837 0.70537 0.0
C4076 C 0.72431 0.03842 0.70571 0.0
C4077 C 0.71617 0.03519 0.69344 0.0
C4078 C 0.74509 0.04192 0.71836 0.0
C4079 C 0.75013 0.05495 0.72496 0.0
C4080 C 0.74884 0.03278 0.72388 0.0
C4081 C 0.74339 0.01867 0.71773 0.0
C4082 C 0.72945 0.00962 0.71629 0.0
C4083 C 0.72438 0.99635 0.71045 0.0
C4084 C 0.73316 0.99197 0.70609 0.0
C4085 C 0.74702 0.00085 0.70759 0.0
C4086 C 0.75214 0.01414 0.71342 0.0
C4087 C 0.7754 0.06039 0.78056 0.0
C4088 C 0.78687 0.05908 0.78075 0.0
C4089 C 0.76762 0.05759 0.76809 0.0
C4090 C 0.77118 0.05344 0.75556 0.0
C4091 C 0.78261 0.05209 0.75574 0.0
C4092 C 0.79037 0.05484 0.76823 0.0
C4093 C 0.76267 0.05 0.74243 0.0
C4094 C 0.75763 0.03697 0.73579 0.0
C4095 C 0.75899 0.05918 0.73683 0.0
C4096 C 0.76462 0.07338 0.7428 0.0
C4097 C 0.77859 0.08224 0.74431 0.0
C4098 C 0.78384 0.09558 0.75004 0.0
C4099 C 0.77522 0.10022 0.7542 0.0
C4100 C 0.76133 0.09154 0.75261 0.0
C4101 C 0.75603 0.07818 0.74691 0.0
H4102 H 0.7793 0.11055 0.75863 0.0
H4103 H 0.72922 0.98169 0.70157 0.0
H4104 H 0.03112 0.32311 0.02819 0.0
H4105 H 0.04411 0.31526 0.04157 0.0
H4106 H 0.07863 0.34011 0.01695 0.0
H4107 H 0.06569 0.34786 0.00341 0.0
H4108 H 0.07411 0.31462 0.01809 0.0
H4109 H 0.07691 0.34868 0.05179 0.0
H4110 H 0.06805 0.36 0.06719 0.0
H4111 H 0.04632 0.32319 0.09003 0.0
H4112 H 0.05491 0.31157 0.07463 0.0
H4113 H 0.12972 0.30891 0.05527 0.0
H4114 H 0.11296 0.31817 0.04252 0.0
H4115 H 0.07542 0.28977 0.07429 0.0
H4116 H 0.09121 0.27961 0.08796 0.0
H4117 H 0.08014 0.31718 0.07036 0.0
H4118 H 0.07727 0.28329 0.03744 0.0
H4119 H 0.08539 0.27126 0.02204 0.0
H4120 H 0.10638 0.3071 0.99761 0.0
H4121 H 0.09854 0.31942 0.013 0.0
C4122 C 0.04152 0.32701 0.02571 0.0
C4123 C 0.04735 0.33608 0.01468 0.0
C4124 C 0.04895 0.32255 0.03342 0.0
C4125 C 0.06238 0.32715 0.03033 0.0
C4126 C 0.06829 0.33641 0.01952 0.0
C4127 C 0.06087 0.34086 0.0118 0.0
C4128 C 0.07009 0.32172 0.03774 0.0
C4129 C 0.07563 0.31543 0.0295 0.0
C4130 C 0.07161 0.32225 0.05268 0.0
C4131 C 0.06644 0.32921 0.06195 0.0
C4132 C 0.07015 0.34296 0.06002 0.0
C4133 C 0.06519 0.34944 0.06876 0.0
C4134 C 0.0566 0.3423 0.07955 0.0
C4135 C 0.05296 0.32869 0.08165 0.0
C4136 C 0.05788 0.32216 0.07292 0.0
C4137 C 0.11946 0.30485 0.05835 0.0
C4138 C 0.1131 0.29521 0.07472 0.0
C4139 C 0.10921 0.3111 0.051 0.0
C4140 C 0.09277 0.30571 0.05762 0.0
C4141 C 0.08556 0.29325 0.07114 0.0
C4142 C 0.09502 0.28634 0.0792 0.0
C4143 C 0.08444 0.3105 0.05064 0.0
C4144 C 0.07868 0.3165 0.05894 0.0
C4145 C 0.08267 0.30969 0.03575 0.0
C4146 C 0.08744 0.30233 0.02648 0.0
C4147 C 0.08372 0.28865 0.02886 0.0
C4148 C 0.08825 0.28177 0.02012 0.0
C4149 C 0.09643 0.28843 0.00888 0.0
C4150 C 0.10006 0.30197 0.00634 0.0
C4151 C 0.09556 0.3089 0.01506 0.0
H4152 H 0.09993 0.28308 0.00212 0.0
H4153 H 0.05277 0.34734 0.08632 0.0
H4154 H 0.68422 0.70033 0.02903 0.0
H4155 H 0.69542 0.72442 0.03724 0.0
H4156 H 0.66414 0.7148 0.0668 0.0
H4157 H 0.65269 0.69091 0.05837 0.0
H4158 H 0.67199 0.73902 0.05693 0.0
H4159 H 0.69431 0.71612 0.07617 0.0
H4160 H 0.70612 0.70307 0.07464 0.0
H4161 H 0.7372 0.73505 0.05133 0.0
H4162 H 0.72547 0.74821 0.05258 0.0
H4163 H 0.70154 0.79012 0.11982 0.0
H4164 H 0.68894 0.76667 0.1 0.0
H4165 H 0.73114 0.7845 0.0731 0.0
H4166 H 0.74488 0.80847 0.09213 0.0
H4167 H 0.71836 0.75779 0.07662 0.0
H4168 H 0.69688 0.78149 0.05908 0.0
H4169 H 0.68505 0.79453 0.06074 0.0
H4170 H 0.65258 0.76115 0.08124 0.0
H4171 H 0.66428 0.74797 0.07978 0.0
C4172 C 0.6796 0.70339 0.0371 0.0
C4173 C 0.66764 0.69362 0.04317 0.0
C4174 C 0.68605 0.71716 0.04183 0.0
C4175 C 0.68079 0.72137 0.05288 0.0
C4176 C 0.66844 0.71181 0.05831 0.0
C4177 C 0.66191 0.6981 0.05349 0.0
C4178 C 0.68849 0.73539 0.05959 0.0
C4179 C 0.68211 0.74309 0.06129 0.0
C4180 C 0.70184 0.74091 0.06498 0.0
C4181 C 0.70894 0.73306 0.06432 0.0
C4182 C 0.70362 0.72032 0.07064 0.0
C4183 C 0.7103 0.71291 0.06983 0.0
C4184 C 0.72238 0.71821 0.06285 0.0
C4185 C 0.72783 0.73094 0.0567 0.0
C4186 C 0.72117 0.73839 0.05746 0.0
C4187 C 0.70712 0.78885 0.11143 0.0
C4188 C 0.72385 0.80305 0.10644 0.0
C4189 C 0.69918 0.77471 0.0986 0.0
C4190 C 0.7083 0.7736 0.08377 0.0
C4191 C 0.72586 0.78591 0.0817 0.0
C4192 C 0.73471 0.80046 0.09393 0.0
C4193 C 0.70173 0.76124 0.07423 0.0
C4194 C 0.70834 0.75386 0.07203 0.0
C4195 C 0.68858 0.75597 0.0685 0.0
C4196 C 0.68152 0.76384 0.06947 0.0
C4197 C 0.68725 0.77697 0.06401 0.0
C4198 C 0.68056 0.78438 0.06489 0.0
C4199 C 0.66809 0.77869 0.07113 0.0
C4200 C 0.66225 0.76556 0.07644 0.0
C4201 C 0.6689 0.75811 0.07557 0.0
H4202 H 0.66294 0.78444 0.07183 0.0
H4203 H 0.72754 0.71245 0.06223 0.0
H4204 H 0.30102 0.97335 0.01348 0.0
H4205 H 0.28295 0.9656 0.03012 0.0
H4206 H 0.2972 0.94146 0.0505 0.0
H4207 H 0.31544 0.94922 0.03384 0.0
H4208 H 0.26965 0.92701 0.04386 0.0
H4209 H 0.30183 0.96958 0.06731 0.0
H4210 H 0.31809 0.99443 0.06906 0.0
H4211 H 0.28695 0.00282 0.0573 0.0
H4212 H 0.27054 0.97801 0.05529 0.0
H4213 H 0.21984 0.90712 0.09471 0.0
H4214 H 0.24182 0.91649 0.0844 0.0
H4215 H 0.23681 0.94802 0.06552 0.0
H4216 H 0.21515 0.93917 0.07657 0.0
H4217 H 0.26153 0.95864 0.07384 0.0
H4218 H 0.23027 0.91724 0.04715 0.0
H4219 H 0.21349 0.89262 0.04385 0.0
H4220 H 0.24217 0.88228 0.05976 0.0
H4221 H 0.25907 0.90686 0.06333 0.0
C4222 C 0.30038 0.96644 0.02153 0.0
C4223 C 0.30964 0.96186 0.02231 0.0
C4224 C 0.29008 0.96209 0.03109 0.0
C4225 C 0.28882 0.95305 0.04161 0.0
C4226 C 0.29806 0.94847 0.04247 0.0
C4227 C 0.30846 0.95293 0.03297 0.0
C4228 C 0.27743 0.94795 0.05122 0.0
C4229 C 0.26799 0.93387 0.05066 0.0
C4230 C 0.27513 0.95698 0.05976 0.0
C4231 C 0.28497 0.97192 0.06106 0.0
C4232 C 0.29847 0.97672 0.065 0.0
C4233 C 0.30771 0.9908 0.06605 0.0
C4234 C 0.30356 0.00019 0.06327 0.0
C4235 C 0.29015 0.99553 0.05946 0.0
C4236 C 0.28087 0.98146 0.05838 0.0
C4237 C 0.22353 0.91623 0.08863 0.0
C4238 C 0.21581 0.92253 0.0866 0.0
C4239 C 0.23606 0.9215 0.0826 0.0
C4240 C 0.2409 0.93283 0.07396 0.0
C4241 C 0.23333 0.93929 0.07216 0.0
C4242 C 0.22094 0.93421 0.07844 0.0
C4243 C 0.25356 0.93768 0.06631 0.0
C4244 C 0.26324 0.95172 0.06722 0.0
C4245 C 0.25599 0.92864 0.05788 0.0
C4246 C 0.24587 0.91387 0.05565 0.0
C4247 C 0.23296 0.90971 0.05003 0.0
C4248 C 0.22344 0.89577 0.0481 0.0
C4249 C 0.22675 0.88589 0.05163 0.0
C4250 C 0.23961 0.88994 0.05706 0.0
C4251 C 0.24916 0.90387 0.05903 0.0
H4252 H 0.21936 0.8751 0.05013 0.0
H4253 H 0.31074 0.01109 0.06409 0.0
H4254 H 0.31638 0.007 0.98515 0.0
H4255 H 0.30705 0.0218 0.98088 0.0
H4256 H 0.34322 0.0504 0.96056 0.0
H4257 H 0.35273 0.03579 0.96491 0.0
H4258 H 0.33338 0.0635 0.97708 0.0
H4259 H 0.31653 0.02688 0.94092 0.0
H4260 H 0.30519 0.00268 0.93232 0.0
H4261 H 0.26927 0.99496 0.95277 0.0
H4262 H 0.28047 0.0191 0.96165 0.0
H4263 H 0.3108 0.09831 0.93373 0.0
H4264 H 0.32018 0.08515 0.94371 0.0
H4265 H 0.28123 0.0558 0.95855 0.0
H4266 H 0.27166 0.06863 0.94795 0.0
H4267 H 0.29177 0.04283 0.94669 0.0
H4268 H 0.30774 0.07987 0.98123 0.0
H4269 H 0.31894 0.10402 0.98998 0.0
H4270 H 0.35613 0.11104 0.9733 0.0
H4271 H 0.34511 0.08698 0.96427 0.0
C4272 C 0.32243 0.01651 0.97991 0.0
C4273 C 0.33525 0.02011 0.9752 0.0
C4274 C 0.31707 0.02495 0.97748 0.0
C4275 C 0.32437 0.03708 0.97022 0.0
C4276 C 0.33741 0.04105 0.96615 0.0
C4277 C 0.3428 0.03264 0.9686 0.0
C4278 C 0.31812 0.04516 0.96598 0.0
C4279 C 0.32433 0.05905 0.97036 0.0
C4280 C 0.30614 0.03922 0.9575 0.0
C4281 C 0.29938 0.02474 0.95206 0.0
C4282 C 0.30624 0.02 0.94366 0.0
C4283 C 0.29984 0.0063 0.93872 0.0
C4284 C 0.28653 0.99728 0.94203 0.0
C4285 C 0.27958 0.00195 0.95024 0.0
C4286 C 0.28595 0.01564 0.95522 0.0
C4287 C 0.3042 0.08899 0.93899 0.0
C4288 C 0.29039 0.08427 0.93971 0.0
C4289 C 0.30962 0.08157 0.94488 0.0
C4290 C 0.30144 0.06953 0.952 0.0
C4291 C 0.28773 0.06502 0.95306 0.0
C4292 C 0.28227 0.07233 0.947 0.0
C4293 C 0.30704 0.06129 0.95773 0.0
C4294 C 0.30072 0.04733 0.95357 0.0
C4295 C 0.31888 0.06718 0.96647 0.0
C4296 C 0.32556 0.08164 0.97197 0.0
C4297 C 0.31828 0.08659 0.97934 0.0
C4298 C 0.32461 0.10026 0.98437 0.0
C4299 C 0.33823 0.10907 0.98218 0.0
C4300 C 0.34558 0.10421 0.97499 0.0
C4301 C 0.3393 0.09055 0.96993 0.0
H4302 H 0.34311 0.11965 0.98607 0.0
H4303 H 0.28159 0.98667 0.9382 0.0
H4304 H 0.99392 0.29344 0.98915 0.0
H4305 H 0.98124 0.26915 0.9819 0.0
H4306 H 0.94454 0.27046 0.98124 0.0
H4307 H 0.95724 0.29491 0.98797 0.0
H4308 H 0.96181 0.24563 0.98958 0.0
H4309 H 0.92512 0.25228 0.95282 0.0
H4310 H 0.92414 0.27055 0.94013 0.0
H4311 H 0.96714 0.29314 0.93862 0.0
H4312 H 0.96835 0.27493 0.95112 0.0
H4313 H 0.91185 0.17273 0.95881 0.0
H4314 H 0.92623 0.19905 0.97385 0.0
H4315 H 0.94285 0.22307 0.92845 0.0
H4316 H 0.92876 0.1973 0.91222 0.0
H4317 H 0.93533 0.2361 0.94456 0.0
H4318 H 0.9613 0.2168 0.96061 0.0
H4319 H 0.96574 0.19971 0.97116 0.0
H4320 H 0.94976 0.20407 0.01033 0.0
H4321 H 0.94507 0.22108 0.99996 0.0
C4322 C 0.98311 0.28851 0.98777 0.0
C4323 C 0.97661 0.29617 0.98889 0.0
C4324 C 0.97586 0.27459 0.98362 0.0
C4325 C 0.96198 0.26805 0.98066 0.0
C4326 C 0.9553 0.27537 0.9831 0.0
C4327 C 0.96256 0.28934 0.98701 0.0
C4328 C 0.95481 0.25409 0.97372 0.0
C4329 C 0.95591 0.2435 0.9798 0.0
C4330 C 0.94745 0.25138 0.96073 0.0
C4331 C 0.94682 0.26232 0.95305 0.0
C4332 C 0.93436 0.26113 0.94974 0.0
C4333 C 0.93376 0.27148 0.94258 0.0
C4334 C 0.94557 0.28303 0.93862 0.0
C4335 C 0.958 0.28422 0.94174 0.0
C4336 C 0.95864 0.27389 0.94887 0.0
C4337 C 0.9182 0.18194 0.95327 0.0
C4338 C 0.91689 0.18256 0.93369 0.0
C4339 C 0.92675 0.19848 0.96248 0.0
C4340 C 0.9356 0.21402 0.95281 0.0
C4341 C 0.93702 0.21361 0.93381 0.0
C4342 C 0.92881 0.1976 0.92366 0.0
C4343 C 0.94225 0.22757 0.96043 0.0
C4344 C 0.94107 0.23813 0.95443 0.0
C4345 C 0.94992 0.23033 0.97321 0.0
C4346 C 0.95267 0.22007 0.97945 0.0
C4347 C 0.95863 0.21403 0.97144 0.0
C4348 C 0.96121 0.20438 0.97739 0.0
C4349 C 0.95798 0.20077 0.99139 0.0
C4350 C 0.95222 0.20685 0.99948 0.0
C4351 C 0.94961 0.21651 0.99357 0.0
H4352 H 0.95999 0.19329 0.99598 0.0
H4353 H 0.94509 0.29103 0.9331 0.0
H4354 H 0.69146 0.66592 0.98673 0.0
H4355 H 0.70976 0.67243 0.97041 0.0
H4356 H 0.73823 0.68619 0.00583 0.0
H4357 H 0.72012 0.68004 0.02212 0.0
H4358 H 0.7481 0.70362 0.98497 0.0
H4359 H 0.72557 0.65401 0.98873 0.0
H4360 H 0.70596 0.63057 0.98667 0.0
H4361 H 0.70095 0.63537 0.94252 0.0
H4362 H 0.72045 0.6589 0.94436 0.0
H4363 H 0.80372 0.70053 0.96076 0.0
H4364 H 0.78401 0.69819 0.97238 0.0
H4365 H 0.76086 0.68269 0.93303 0.0
H4366 H 0.78043 0.68439 0.92154 0.0
H4367 H 0.74698 0.66756 0.95291 0.0
H4368 H 0.77118 0.71592 0.94813 0.0
H4369 H 0.79071 0.73941 0.94983 0.0
H4370 H 0.79244 0.73752 0.99503 0.0
H4371 H 0.77303 0.71395 0.9936 0.0
C4372 C 0.70163 0.67042 0.99103 0.0
C4373 C 0.70431 0.67236 0.00573 0.0
C4374 C 0.71208 0.6741 0.98169 0.0
C4375 C 0.72536 0.67963 0.98691 0.0
C4376 C 0.72807 0.68194 0.00155 0.0
C4377 C 0.71768 0.67836 0.01087 0.0
C4378 C 0.73644 0.68258 0.97728 0.0
C4379 C 0.7479 0.69573 0.978 0.0
C4380 C 0.73601 0.67242 0.96782 0.0
C4381 C 0.72437 0.65825 0.96672 0.0
C4382 C 0.72023 0.65009 0.97861 0.0
C4383 C 0.70915 0.63678 0.97748 0.0
C4384 C 0.70219 0.63149 0.96448 0.0
C4385 C 0.70633 0.63948 0.95258 0.0
C4386 C 0.7174 0.6528 0.95366 0.0
C4387 C 0.79447 0.69683 0.95455 0.0
C4388 C 0.79373 0.69296 0.94018 0.0
C4389 C 0.78322 0.69556 0.96118 0.0
C4390 C 0.77098 0.69056 0.95353 0.0
C4391 C 0.77021 0.6867 0.93914 0.0
C4392 C 0.78143 0.68777 0.93255 0.0
C4393 C 0.75884 0.68855 0.96083 0.0
C4394 C 0.74716 0.67556 0.95967 0.0
C4395 C 0.75905 0.6989 0.96982 0.0
C4396 C 0.77068 0.71313 0.97074 0.0
C4397 C 0.77577 0.72048 0.95843 0.0
C4398 C 0.78682 0.73382 0.95935 0.0
C4399 C 0.79282 0.73995 0.97253 0.0
C4400 C 0.78778 0.73276 0.98482 0.0
C4401 C 0.77674 0.71942 0.98397 0.0
H4402 H 0.80138 0.75027 0.97321 0.0
H4403 H 0.69361 0.62119 0.96363 0.0
H4404 H 0.97922 0.67721 0.99499 0.0
H4405 H 0.97127 0.6881 0.97852 0.0
H4406 H 0.94862 0.69312 0.01151 0.0
H4407 H 0.95646 0.6822 0.02804 0.0
H4408 H 0.93417 0.68406 0.98644 0.0
H4409 H 0.97763 0.71976 0.00305 0.0
H4410 H 0.00195 0.73059 0.00823 0.0
H4411 H 0.00865 0.72796 0.96405 0.0
H4412 H 0.98432 0.71688 0.95862 0.0
H4413 H 0.92381 0.73512 0.95636 0.0
H4414 H 0.93129 0.7231 0.97186 0.0
H4415 H 0.951 0.71607 0.93706 0.0
H4416 H 0.94335 0.7279 0.92141 0.0
H4417 H 0.96695 0.72591 0.96256 0.0
H4418 H 0.92294 0.69047 0.94628 0.0
H4419 H 0.89857 0.68008 0.94173 0.0
H4420 H 0.89296 0.68297 0.98617 0.0
H4421 H 0.91734 0.69358 0.99097 0.0
C4422 C 0.97249 0.68056 0.99873 0.0
C4423 C 0.96851 0.67888 0.01285 0.0
C4424 C 0.968 0.68683 0.98932 0.0
C4425 C 0.95946 0.69153 0.99384 0.0
C4426 C 0.95521 0.68957 0.00782 0.0
C4427 C 0.95974 0.68337 0.01726 0.0
C4428 C 0.95511 0.69869 0.98406 0.0
C4429 C 0.94133 0.69329 0.98134 0.0
C4430 C 0.96448 0.71062 0.97724 0.0
C4431 C 0.97913 0.71735 0.98045 0.0
C4432 C 0.98427 0.72138 0.99445 0.0
C4433 C 0.99806 0.72758 0.99743 0.0
C4434 C 0.00684 0.72993 0.98648 0.0
C4435 C 0.00184 0.72611 0.97252 0.0
C4436 C 0.98805 0.71987 0.96949 0.0
C4437 C 0.92972 0.731 0.95201 0.0
C4438 C 0.93302 0.73248 0.93768 0.0
C4439 C 0.93397 0.72413 0.96086 0.0
C4440 C 0.94165 0.71867 0.95558 0.0
C4441 C 0.9451 0.72024 0.94133 0.0
C4442 C 0.94073 0.72699 0.93242 0.0
C4443 C 0.94602 0.71126 0.96496 0.0
C4444 C 0.9598 0.71664 0.96762 0.0
C4445 C 0.93666 0.69938 0.97182 0.0
C4446 C 0.92198 0.69294 0.96897 0.0
C4447 C 0.91653 0.689 0.95507 0.0
C4448 C 0.90271 0.68305 0.95245 0.0
C4449 C 0.89423 0.6809 0.96365 0.0
C4450 C 0.89954 0.68466 0.9775 0.0
C4451 C 0.91336 0.69063 0.98018 0.0
H4452 H 0.88353 0.67629 0.96159 0.0
H4453 H 0.01751 0.73474 0.98881 0.0
H4454 H 0.3527 0.31043 0.97143 0.0
H4455 H 0.34141 0.28597 0.96477 0.0
H4456 H 0.30328 0.28189 0.97484 0.0
H4457 H 0.31459 0.30615 0.98216 0.0
H4458 H 0.30318 0.26053 0.98274 0.0
H4459 H 0.31486 0.28469 0.93974 0.0
H4460 H 0.32976 0.30146 0.92285 0.0
H4461 H 0.35293 0.28145 0.92056 0.0
H4462 H 0.33827 0.26465 0.93758 0.0
H4463 H 0.26166 0.19926 0.94073 0.0
H4464 H 0.274 0.22366 0.94813 0.0
H4465 H 0.31098 0.22297 0.94966 0.0
H4466 H 0.29866 0.19849 0.94268 0.0
H4467 H 0.31175 0.2463 0.93583 0.0
H4468 H 0.29834 0.22151 0.97901 0.0
H4469 H 0.28185 0.20452 0.99468 0.0
H4470 H 0.25997 0.22594 0.99503 0.0
H4471 H 0.27621 0.24295 0.97915 0.0
C4472 C 0.34192 0.30428 0.97235 0.0
C4473 C 0.33453 0.31024 0.97725 0.0
C4474 C 0.33546 0.29031 0.96844 0.0
C4475 C 0.32143 0.28211 0.96895 0.0
C4476 C 0.31409 0.28797 0.97429 0.0
C4477 C 0.32058 0.30187 0.97847 0.0
C4478 C 0.31433 0.26752 0.96372 0.0
C4479 C 0.30497 0.25749 0.97241 0.0
C4480 C 0.31672 0.26343 0.95029 0.0
C4481 C 0.32555 0.2735 0.94005 0.0
C4482 C 0.32319 0.28393 0.93571 0.0
C4483 C 0.33159 0.29343 0.9261 0.0
C4484 C 0.34231 0.29254 0.92067 0.0
C4485 C 0.34464 0.28213 0.9248 0.0
C4486 C 0.33628 0.27261 0.93442 0.0
C4487 C 0.27241 0.20431 0.94268 0.0
C4488 C 0.27917 0.19692 0.94141 0.0
C4489 C 0.27943 0.21822 0.94686 0.0
C4490 C 0.29335 0.22502 0.94957 0.0
C4491 C 0.30022 0.21785 0.94766 0.0
C4492 C 0.29318 0.20389 0.94371 0.0
C4493 C 0.30068 0.23951 0.95483 0.0
C4494 C 0.31004 0.24944 0.94615 0.0
C4495 C 0.2981 0.24355 0.96812 0.0
C4496 C 0.28842 0.23342 0.97778 0.0
C4497 C 0.28995 0.22253 0.98232 0.0
C4498 C 0.28066 0.21291 0.99126 0.0
C4499 C 0.26985 0.21413 0.99582 0.0
C4500 C 0.26833 0.225 0.99147 0.0
C4501 C 0.27758 0.23464 0.98252 0.0
H4502 H 0.26267 0.20667 0.00274 0.0
H4503 H 0.3488 0.29991 0.91323 0.0
H4504 H 0.70898 0.03253 0.01287 0.0
H4505 H 0.72733 0.04004 0.99664 0.0
H4506 H 0.7038 0.0459 0.96469 0.0
H4507 H 0.68524 0.03823 0.98087 0.0
H4508 H 0.71578 0.03221 0.95405 0.0
H4509 H 0.72933 0.0733 0.98219 0.0
H4510 H 0.73429 0.08742 0.00425 0.0
H4511 H 0.76506 0.07851 0.01607 0.0
H4512 H 0.76015 0.06417 0.99417 0.0
H4513 H 0.77015 0.06798 0.90849 0.0
H4514 H 0.75134 0.06174 0.92401 0.0
H4515 H 0.77315 0.05572 0.95784 0.0
H4516 H 0.79206 0.06213 0.9424 0.0
H4517 H 0.76178 0.07023 0.96704 0.0
H4518 H 0.74785 0.0286 0.93954 0.0
H4519 H 0.74297 0.01431 0.91762 0.0
H4520 H 0.713 0.02403 0.90476 0.0
H4521 H 0.71784 0.03855 0.92653 0.0
C4522 C 0.70769 0.03547 0.00242 0.0
C4523 C 0.69564 0.03482 0.99818 0.0
C4524 C 0.71823 0.03981 0.99317 0.0
C4525 C 0.71699 0.04367 0.97952 0.0
C4526 C 0.70497 0.043 0.97521 0.0
C4527 C 0.6944 0.03867 0.98448 0.0
C4528 C 0.72817 0.04809 0.96969 0.0
C4529 C 0.72579 0.04068 0.95677 0.0
C4530 C 0.74129 0.05891 0.97342 0.0
C4531 C 0.74429 0.06756 0.98659 0.0
C4532 C 0.73708 0.07426 0.98955 0.0
C4533 C 0.7399 0.08232 0.00201 0.0
C4534 C 0.74997 0.08384 0.01157 0.0
C4535 C 0.75726 0.07732 0.00867 0.0
C4536 C 0.75447 0.06923 0.99622 0.0
C4537 C 0.77093 0.06538 0.91927 0.0
C4538 C 0.78263 0.06571 0.92432 0.0
C4539 C 0.76017 0.06174 0.92808 0.0
C4540 C 0.76083 0.0582 0.94205 0.0
C4541 C 0.77246 0.05847 0.94711 0.0
C4542 C 0.78324 0.06211 0.93829 0.0
C4543 C 0.74942 0.05431 0.95145 0.0
C4544 C 0.75175 0.06181 0.96429 0.0
C4545 C 0.73627 0.04355 0.94766 0.0
C4546 C 0.73331 0.03478 0.93459 0.0
C4547 C 0.7403 0.02778 0.93198 0.0
C4548 C 0.73753 0.01962 0.9196 0.0
C4549 C 0.72771 0.01829 0.90979 0.0
C4550 C 0.72062 0.02509 0.91236 0.0
C4551 C 0.72336 0.03328 0.92473 0.0
H4552 H 0.72558 0.01197 0.90021 0.0
H4553 H 0.75213 0.09009 0.02122 0.0
H4554 H 0.65374 0.95845 0.04562 0.0
H4555 H 0.66477 0.94521 0.05015 0.0
H4556 H 0.70348 0.98205 0.0482 0.0
H4557 H 0.69255 0.99511 0.04293 0.0
H4558 H 0.70535 0.96261 0.03683 0.0
H4559 H 0.68718 0.96767 0.08051 0.0
H4560 H 0.66948 0.96562 0.09621 0.0
H4561 H 0.64822 0.92183 0.08936 0.0
H4562 H 0.66572 0.92364 0.07348 0.0
H4563 H 0.74533 0.94509 0.07956 0.0
H4564 H 0.73194 0.95523 0.07202 0.0
H4565 H 0.69783 0.9148 0.06324 0.0
H4566 H 0.71127 0.9046 0.07042 0.0
H4567 H 0.69257 0.93415 0.07905 0.0
H4568 H 0.71315 0.93024 0.03659 0.0
H4569 H 0.73226 0.93363 0.02249 0.0
H4570 H 0.75067 0.97728 0.029 0.0
H4571 H 0.73175 0.97414 0.04334 0.0
C4572 C 0.6646 0.96367 0.04599 0.0
C4573 C 0.67227 0.97784 0.044 0.0
C4574 C 0.67091 0.95612 0.04869 0.0
C4575 C 0.68498 0.96267 0.04987 0.0
C4576 C 0.69262 0.97673 0.04738 0.0
C4577 C 0.68634 0.98421 0.04437 0.0
C4578 C 0.69185 0.95511 0.05411 0.0
C4579 C 0.70259 0.95649 0.04613 0.0
C4580 C 0.68818 0.94692 0.06613 0.0
C4581 C 0.67767 0.94581 0.07569 0.0
C4582 C 0.67868 0.95761 0.08228 0.0
C4583 C 0.66869 0.95649 0.09122 0.0
C4584 C 0.65771 0.94361 0.09375 0.0
C4585 C 0.65671 0.93181 0.08737 0.0
C4586 C 0.66666 0.93288 0.07841 0.0
C4587 C 0.73499 0.93839 0.07601 0.0
C4588 C 0.72937 0.92407 0.07543 0.0
C4589 C 0.72737 0.94417 0.07173 0.0
C4590 C 0.71396 0.93574 0.06698 0.0
C4591 C 0.70818 0.92145 0.06685 0.0
C4592 C 0.71586 0.91566 0.07092 0.0
C4593 C 0.70609 0.94189 0.0619 0.0
C4594 C 0.6952 0.94021 0.0697 0.0
C4595 C 0.70978 0.95004 0.0499 0.0
C4596 C 0.72109 0.95194 0.04115 0.0
C4597 C 0.72132 0.94056 0.03511 0.0
C4598 C 0.73211 0.94243 0.02706 0.0
C4599 C 0.74269 0.95566 0.02488 0.0
C4600 C 0.74247 0.96704 0.03071 0.0
C4601 C 0.73171 0.96522 0.03879 0.0
H4602 H 0.75103 0.95709 0.01864 0.0
H4603 H 0.64999 0.94276 0.10067 0.0
H4604 H 0.03804 0.70121 0.06656 0.0
H4605 H 0.05016 0.72587 0.07204 0.0
H4606 H 0.03375 0.73225 0.03357 0.0
H4607 H 0.02095 0.70746 0.0285 0.0
H4608 H 0.0684 0.74755 0.06181 0.0
H4609 H 0.02932 0.75909 0.03711 0.0
H4610 H 0.00505 0.74711 0.03103 0.0
H4611 H 0.99755 0.71914 0.06411 0.0
H4612 H 0.02176 0.73106 0.07051 0.0
H4613 H 0.09558 0.81945 0.06074 0.0
H4614 H 0.08481 0.79489 0.05467 0.0
H4615 H 0.05444 0.78679 0.08498 0.0
H4616 H 0.06497 0.81142 0.09073 0.0
H4617 H 0.04316 0.77236 0.06153 0.0
H4618 H 0.08019 0.78018 0.09168 0.0
H4619 H 0.10391 0.79167 0.09993 0.0
H4620 H 0.11432 0.77986 0.06079 0.0
H4621 H 0.09068 0.7685 0.0522 0.0
C4622 C 0.0371 0.70788 0.05921 0.0
C4623 C 0.02844 0.7024 0.04717 0.0
C4624 C 0.04406 0.722 0.06234 0.0
C4625 C 0.04267 0.73096 0.0534 0.0
C4626 C 0.03468 0.72555 0.04089 0.0
C4627 C 0.02744 0.71139 0.03793 0.0
C4628 C 0.0492 0.74583 0.05751 0.0
C4629 C 0.06286 0.75296 0.06172 0.0
C4630 C 0.04197 0.75291 0.05767 0.0
C4631 C 0.02736 0.74589 0.05419 0.0
C4632 C 0.02248 0.75043 0.04314 0.0
C4633 C 0.00874 0.74364 0.03962 0.0
C4634 C 0.99977 0.73234 0.04714 0.0
C4635 C 0.00452 0.72786 0.05826 0.0
C4636 C 0.01824 0.73463 0.06184 0.0
C4637 C 0.08671 0.81239 0.06623 0.0
C4638 C 0.08131 0.8173 0.07646 0.0
C4639 C 0.08056 0.79837 0.06277 0.0
C4640 C 0.06892 0.78896 0.06953 0.0
C4641 C 0.06344 0.79385 0.07968 0.0
C4642 C 0.06953 0.8079 0.08306 0.0
C4643 C 0.06233 0.77404 0.0658 0.0
C4644 C 0.04868 0.76693 0.06162 0.0
C4645 C 0.06947 0.7669 0.06606 0.0
C4646 C 0.08368 0.77359 0.07125 0.0
C4647 C 0.08755 0.78011 0.08479 0.0
C4648 C 0.10098 0.7866 0.08954 0.0
C4649 C 0.11062 0.78652 0.08088 0.0
C4650 C 0.10684 0.77993 0.06748 0.0
C4651 C 0.09343 0.77345 0.06267 0.0
H4652 H 0.12101 0.79154 0.08457 0.0
H4653 H 0.98915 0.72706 0.04437 0.0
H4654 H 0.29386 0.34967 0.01293 0.0
H4655 H 0.27491 0.33772 0.0282 0.0
H4656 H 0.29418 0.31774 0.04766 0.0
H4657 H 0.31316 0.32952 0.03218 0.0
H4658 H 0.269 0.29964 0.04009 0.0
H4659 H 0.29062 0.3423 0.0662 0.0
H4660 H 0.3019 0.36741 0.07008 0.0
H4661 H 0.26643 0.36692 0.05485 0.0
H4662 H 0.25498 0.34183 0.05067 0.0
H4663 H 0.21311 0.26632 0.08416 0.0
H4664 H 0.23652 0.28163 0.07804 0.0
H4665 H 0.22418 0.3048 0.05276 0.0
H4666 H 0.20089 0.28966 0.05898 0.0
H4667 H 0.24792 0.32156 0.06724 0.0
H4668 H 0.22799 0.27952 0.03789 0.0
H4669 H 0.21672 0.25443 0.03384 0.0
H4670 H 0.24951 0.254 0.05544 0.0
H4671 H 0.26088 0.27909 0.0598 0.0
C4672 C 0.29418 0.34287 0.02057 0.0
C4673 C 0.30501 0.34052 0.02129 0.0
C4674 C 0.28335 0.3361 0.02937 0.0
C4675 C 0.28317 0.32693 0.03919 0.0
C4676 C 0.29412 0.3248 0.04018 0.0
C4677 C 0.30497 0.33156 0.03135 0.0
C4678 C 0.27106 0.31882 0.04757 0.0
C4679 C 0.26458 0.30445 0.04631 0.0
C4680 C 0.26515 0.32507 0.0555 0.0
C4681 C 0.27197 0.34018 0.05803 0.0
C4682 C 0.28525 0.34756 0.06358 0.0
C4683 C 0.29167 0.36179 0.06585 0.0
C4684 C 0.28489 0.36876 0.06269 0.0
C4685 C 0.27167 0.36151 0.05729 0.0
C4686 C 0.2652 0.34728 0.05498 0.0
C4687 C 0.21548 0.27486 0.07754 0.0
C4688 C 0.20522 0.27687 0.0721 0.0
C4689 C 0.22881 0.28355 0.074 0.0
C4690 C 0.23207 0.29428 0.06485 0.0
C4691 C 0.22191 0.29662 0.05989 0.0
C4692 C 0.20861 0.28796 0.06341 0.0
C4693 C 0.2458 0.30245 0.05948 0.0
C4694 C 0.25254 0.3168 0.06127 0.0
C4695 C 0.25198 0.2962 0.05204 0.0
C4696 C 0.2452 0.28115 0.04931 0.0
C4697 C 0.23274 0.27406 0.04186 0.0
C4698 C 0.22634 0.25984 0.0395 0.0
C4699 C 0.23238 0.25262 0.04441 0.0
C4700 C 0.24484 0.25961 0.05166 0.0
C4701 C 0.25126 0.27382 0.05408 0.0
H4702 H 0.22741 0.24161 0.04257 0.0
H4703 H 0.28988 0.37978 0.06446 0.0
H4704 H 0.6921 0.65797 0.36652 0.0
H4705 H 0.70375 0.64783 0.37869 0.0
H4706 H 0.73991 0.67443 0.35717 0.0
H4707 H 0.72844 0.68453 0.34501 0.0
H4708 H 0.73304 0.64763 0.35443 0.0
H4709 H 0.73734 0.6796 0.39202 0.0
H4710 H 0.72889 0.68994 0.40926 0.0
H4711 H 0.70598 0.65112 0.42842 0.0
H4712 H 0.71416 0.64049 0.41115 0.0
H4713 H 0.78874 0.63893 0.38568 0.0
H4714 H 0.77158 0.64874 0.37537 0.0
H4715 H 0.73554 0.61928 0.40819 0.0
H4716 H 0.75181 0.60858 0.41947 0.0
H4717 H 0.73968 0.64628 0.40619 0.0
H4718 H 0.73575 0.61446 0.37024 0.0
H4719 H 0.74315 0.60309 0.35302 0.0
H4720 H 0.76379 0.64025 0.33051 0.0
H4721 H 0.75669 0.65192 0.34772 0.0
C4722 C 0.70258 0.66177 0.36452 0.0
C4723 C 0.70931 0.672 0.35471 0.0
C4724 C 0.70923 0.65599 0.37152 0.0
C4725 C 0.7227 0.66037 0.36882 0.0
C4726 C 0.72951 0.67086 0.35936 0.0
C4727 C 0.72292 0.67664 0.35243 0.0
C4728 C 0.72959 0.65354 0.37505 0.0
C4729 C 0.73466 0.64752 0.36574 0.0
C4730 C 0.73116 0.65284 0.38982 0.0
C4731 C 0.72623 0.65922 0.40019 0.0
C4732 C 0.7304 0.67324 0.39982 0.0
C4733 C 0.72568 0.67915 0.40962 0.0
C4734 C 0.71687 0.67118 0.4199 0.0
C4735 C 0.71279 0.65727 0.42043 0.0
C4736 C 0.71746 0.6513 0.41065 0.0
C4737 C 0.77865 0.63478 0.38937 0.0
C4738 C 0.77303 0.62458 0.40549 0.0
C4739 C 0.76816 0.64134 0.38355 0.0
C4740 C 0.75209 0.63576 0.39125 0.0
C4741 C 0.74548 0.62284 0.40436 0.0
C4742 C 0.75522 0.61561 0.41093 0.0
C4743 C 0.74357 0.64091 0.38552 0.0
C4744 C 0.73806 0.64643 0.39488 0.0
C4745 C 0.74149 0.64108 0.37077 0.0
C4746 C 0.7458 0.63411 0.36037 0.0
C4747 C 0.74196 0.62024 0.36169 0.0
C4748 C 0.74609 0.61374 0.35192 0.0
C4749 C 0.75397 0.62095 0.3407 0.0
C4750 C 0.75771 0.63468 0.33922 0.0
C4751 C 0.75362 0.64124 0.34897 0.0
H4752 H 0.75715 0.61589 0.33314 0.0
H4753 H 0.71323 0.67578 0.42748 0.0
H4754 H 0.34508 0.02792 0.36175 0.0
H4755 H 0.35557 0.05267 0.36659 0.0
H4756 H 0.32637 0.04553 0.39802 0.0
H4757 H 0.31564 0.02093 0.39304 0.0
H4758 H 0.33117 0.06704 0.38336 0.0
H4759 H 0.35836 0.05107 0.40672 0.0
H4760 H 0.37206 0.03996 0.40712 0.0
H4761 H 0.39928 0.06919 0.37851 0.0
H4762 H 0.38565 0.08037 0.37782 0.0
H4763 H 0.36117 0.12616 0.42764 0.0
H4764 H 0.35147 0.10296 0.41775 0.0
H4765 H 0.38538 0.1157 0.39112 0.0
H4766 H 0.39576 0.13888 0.40183 0.0
H4767 H 0.3789 0.09226 0.40015 0.0
H4768 H 0.3531 0.10982 0.37861 0.0
H4769 H 0.33952 0.12105 0.37826 0.0
H4770 H 0.30976 0.08914 0.40277 0.0
H4771 H 0.32324 0.07781 0.40342 0.0
C4772 C 0.34079 0.03162 0.36957 0.0
C4773 C 0.32958 0.0224 0.3771 0.0
C4774 C 0.34685 0.04578 0.37237 0.0
C4775 C 0.3419 0.05094 0.38285 0.0
C4776 C 0.33039 0.04179 0.38991 0.0
C4777 C 0.32428 0.02769 0.38706 0.0
C4778 C 0.34895 0.06577 0.38704 0.0
C4779 C 0.34159 0.07256 0.38708 0.0
C4780 C 0.36265 0.07308 0.39154 0.0
C4781 C 0.37092 0.06646 0.39211 0.0
C4782 C 0.36723 0.05507 0.40046 0.0
C4783 C 0.37498 0.04877 0.40074 0.0
C4784 C 0.38651 0.05384 0.39281 0.0
C4785 C 0.39034 0.06526 0.38463 0.0
C4786 C 0.38261 0.07158 0.38429 0.0
C4787 C 0.36665 0.12416 0.41967 0.0
C4788 C 0.37914 0.13465 0.41522 0.0
C4789 C 0.36098 0.11081 0.41391 0.0
C4790 C 0.36742 0.10764 0.40328 0.0
C4791 C 0.38008 0.11792 0.39914 0.0
C4792 C 0.38594 0.13122 0.40517 0.0
C4793 C 0.36106 0.09353 0.39673 0.0
C4794 C 0.36854 0.08686 0.39623 0.0
C4795 C 0.34747 0.08635 0.39174 0.0
C4796 C 0.33922 0.093 0.39112 0.0
C4797 C 0.34368 0.10523 0.38396 0.0
C4798 C 0.336 0.11161 0.38372 0.0
C4799 C 0.32379 0.10582 0.39051 0.0
C4800 C 0.31921 0.09361 0.39751 0.0
C4801 C 0.32686 0.08719 0.3978 0.0
H4802 H 0.31788 0.1108 0.39033 0.0
H4803 H 0.3925 0.04894 0.39304 0.0
H4804 H 0.96111 0.30977 0.33371 0.0
H4805 H 0.9431 0.30062 0.35041 0.0
H4806 H 0.97019 0.30086 0.38255 0.0
H4807 H 0.98829 0.30979 0.36574 0.0
H4808 H 0.94782 0.27666 0.38026 0.0
H4809 H 0.95777 0.32306 0.38506 0.0
H4810 H 0.9622 0.34544 0.37684 0.0
H4811 H 0.92295 0.3262 0.35667 0.0
H4812 H 0.91834 0.30368 0.36459 0.0
H4813 H 0.89427 0.2483 0.42709 0.0
H4814 H 0.91587 0.2647 0.4176 0.0
H4815 H 0.89541 0.27011 0.38195 0.0
H4816 H 0.87378 0.25427 0.3918 0.0
H4817 H 0.9165 0.29369 0.38948 0.0
H4818 H 0.90797 0.24744 0.38103 0.0
H4819 H 0.9032 0.22462 0.38816 0.0
H4820 H 0.93953 0.24329 0.41399 0.0
H4821 H 0.94442 0.26624 0.40715 0.0
C4822 C 0.96333 0.30808 0.34439 0.0
C4823 C 0.97613 0.31043 0.34837 0.0
C4824 C 0.95301 0.30293 0.35397 0.0
C4825 C 0.95531 0.30016 0.36778 0.0
C4826 C 0.9682 0.30294 0.37195 0.0
C4827 C 0.97854 0.30807 0.36234 0.0
C4828 C 0.94393 0.29319 0.37735 0.0
C4829 C 0.94115 0.28055 0.38255 0.0
C4830 C 0.93504 0.2981 0.38006 0.0
C4831 C 0.93774 0.31166 0.37537 0.0
C4832 C 0.95011 0.32359 0.3788 0.0
C4833 C 0.95265 0.3363 0.3742 0.0
C4834 C 0.94287 0.33724 0.36622 0.0
C4835 C 0.93052 0.32546 0.36285 0.0
C4836 C 0.92793 0.31272 0.36741 0.0
C4837 C 0.89437 0.25324 0.41741 0.0
C4838 C 0.88231 0.25016 0.41027 0.0
C4839 C 0.90673 0.26251 0.41192 0.0
C4840 C 0.90728 0.2685 0.39895 0.0
C4841 C 0.89526 0.26568 0.392 0.0
C4842 C 0.88291 0.25661 0.3976 0.0
C4843 C 0.92027 0.27705 0.39211 0.0
C4844 C 0.92333 0.28995 0.3874 0.0
C4845 C 0.92936 0.27234 0.38971 0.0
C4846 C 0.92649 0.25854 0.39371 0.0
C4847 C 0.9149 0.24667 0.3883 0.0
C4848 C 0.91218 0.23372 0.39228 0.0
C4849 C 0.92104 0.23251 0.40155 0.0
C4850 C 0.93266 0.24425 0.40683 0.0
C4851 C 0.93542 0.25723 0.4029 0.0
H4852 H 0.91891 0.22248 0.40463 0.0
H4853 H 0.94486 0.34709 0.36267 0.0
H4854 H 0.00291 0.35361 0.31927 0.0
H4855 H 0.00141 0.37404 0.31463 0.0
H4856 H 0.03383 0.38736 0.28584 0.0
H4857 H 0.03555 0.36727 0.2905 0.0
H4858 H 0.03754 0.40794 0.30344 0.0
H4859 H 0.00087 0.37248 0.27404 0.0
H4860 H 0.97977 0.35046 0.26974 0.0
H4861 H 0.95956 0.36397 0.29785 0.0
H4862 H 0.9806 0.38601 0.30245 0.0
H4863 H 0.03601 0.45868 0.26467 0.0
H4864 H 0.03394 0.43691 0.271 0.0
H4865 H 0.001 0.42898 0.29757 0.0
H4866 H 0.00278 0.45063 0.29087 0.0
H4867 H 0.99637 0.40575 0.28374 0.0
H4868 H 0.03231 0.44171 0.31188 0.0
H4869 H 0.05326 0.46382 0.31639 0.0
H4870 H 0.07475 0.44941 0.29148 0.0
H4871 H 0.05388 0.42729 0.28664 0.0
C4872 C 0.00971 0.36089 0.31195 0.0
C4873 C 0.01936 0.35878 0.30528 0.0
C4874 C 0.0088 0.37253 0.30927 0.0
C4875 C 0.01747 0.38218 0.29982 0.0
C4876 C 0.02707 0.38007 0.29319 0.0
C4877 C 0.02801 0.36853 0.29587 0.0
C4878 C 0.01682 0.39465 0.29684 0.0
C4879 C 0.02856 0.40745 0.29903 0.0
C4880 C 0.00498 0.39403 0.29153 0.0
C4881 C 0.99234 0.38082 0.28871 0.0
C4882 C 0.99195 0.37071 0.27939 0.0
C4883 C 0.98 0.35823 0.27688 0.0
C4884 C 0.96834 0.3558 0.28355 0.0
C4885 C 0.9686 0.36585 0.29271 0.0
C4886 C 0.98053 0.37834 0.29526 0.0
C4887 C 0.02814 0.45216 0.2716 0.0
C4888 C 0.01941 0.45624 0.27712 0.0
C4889 C 0.02704 0.43978 0.27533 0.0
C4890 C 0.01744 0.43142 0.28493 0.0
C4891 C 0.00847 0.43527 0.29014 0.0
C4892 C 0.00949 0.44761 0.28632 0.0
C4893 C 0.01721 0.41899 0.28994 0.0
C4894 C 0.00531 0.40624 0.28825 0.0
C4895 C 0.02889 0.41963 0.29578 0.0
C4896 C 0.0415 0.43287 0.29882 0.0
C4897 C 0.04149 0.44329 0.3073 0.0
C4898 C 0.05335 0.45582 0.30991 0.0
C4899 C 0.06532 0.45803 0.30421 0.0
C4900 C 0.06546 0.44769 0.29589 0.0
C4901 C 0.05362 0.43515 0.29322 0.0
H4902 H 0.07449 0.46774 0.30624 0.0
H4903 H 0.9591 0.34614 0.2816 0.0
H4904 H 0.62772 0.64101 0.3047 0.0
H4905 H 0.6156 0.61747 0.2952 0.0
H4906 H 0.64482 0.6097 0.31521 0.0
H4907 H 0.65726 0.63347 0.32458 0.0
H4908 H 0.6414 0.60198 0.28824 0.0
H4909 H 0.61192 0.59372 0.32571 0.0
H4910 H 0.59737 0.59757 0.34162 0.0
H4911 H 0.57115 0.59259 0.30635 0.0
H4912 H 0.58565 0.5889 0.29018 0.0
H4913 H 0.60512 0.52725 0.25765 0.0
H4914 H 0.61814 0.55155 0.27626 0.0
H4915 H 0.58849 0.56824 0.25707 0.0
H4916 H 0.5747 0.54443 0.2378 0.0
H4917 H 0.59216 0.57017 0.28771 0.0
H4918 H 0.62316 0.58108 0.25041 0.0
H4919 H 0.63783 0.57746 0.23444 0.0
H4920 H 0.66127 0.57742 0.27015 0.0
H4921 H 0.64661 0.58086 0.28636 0.0
C4922 C 0.63149 0.63427 0.30733 0.0
C4923 C 0.64356 0.63921 0.31532 0.0
C4924 C 0.62446 0.62073 0.30194 0.0
C4925 C 0.62924 0.61176 0.30453 0.0
C4926 C 0.64094 0.61644 0.31307 0.0
C4927 C 0.64801 0.63003 0.31847 0.0
C4928 C 0.62276 0.59804 0.29708 0.0
C4929 C 0.63069 0.59485 0.28847 0.0
C4930 C 0.60872 0.58888 0.29704 0.0
C4931 C 0.59995 0.59113 0.30671 0.0
C4932 C 0.60312 0.59355 0.32132 0.0
C4933 C 0.59486 0.59569 0.33039 0.0
C4934 C 0.58335 0.59535 0.325 0.0
C4935 C 0.58007 0.59285 0.31052 0.0
C4936 C 0.5883 0.59072 0.30139 0.0
C4937 C 0.60248 0.53515 0.25705 0.0
C4938 C 0.58689 0.53209 0.24757 0.0
C4939 C 0.61003 0.54994 0.26908 0.0
C4940 C 0.60415 0.56202 0.26933 0.0
C4941 C 0.59126 0.56043 0.25702 0.0
C4942 C 0.58308 0.54602 0.24453 0.0
C4943 C 0.61083 0.57428 0.27896 0.0
C4944 C 0.60292 0.57719 0.28782 0.0
C4945 C 0.62489 0.58315 0.27933 0.0
C4946 C 0.63368 0.58103 0.26961 0.0
C4947 C 0.63136 0.58016 0.25487 0.0
C4948 C 0.63969 0.57817 0.24577 0.0
C4949 C 0.65044 0.57716 0.25128 0.0
C4950 C 0.65291 0.57817 0.2659 0.0
C4951 C 0.64461 0.58015 0.27505 0.0
H4952 H 0.65688 0.57562 0.24421 0.0
H4953 H 0.57697 0.597 0.33204 0.0
H4954 H 0.34517 0.98555 0.31929 0.0
H4955 H 0.35964 0.9847 0.30118 0.0
H4956 H 0.39317 0.00257 0.33135 0.0
H4957 H 0.37891 0.00376 0.34936 0.0
H4958 H 0.40134 0.01184 0.30544 0.0
H4959 H 0.37331 0.96752 0.32582 0.0
H4960 H 0.35166 0.94758 0.33182 0.0
H4961 H 0.33932 0.93964 0.28783 0.0
H4962 H 0.36086 0.95965 0.2816 0.0
H4963 H 0.44222 0.98407 0.28844 0.0
H4964 H 0.42774 0.99206 0.29802 0.0
H4965 H 0.39905 0.97097 0.26335 0.0
H4966 H 0.41341 0.96267 0.25392 0.0
H4967 H 0.38708 0.96463 0.28743 0.0
H4968 H 0.4173 0.00665 0.26686 0.0
H4969 H 0.43923 0.02632 0.26118 0.0
H4970 H 0.44781 0.03865 0.30525 0.0
H4971 H 0.42602 0.01893 0.31123 0.0
C4972 C 0.35568 0.98952 0.322 0.0
C4973 C 0.36084 0.99453 0.33583 0.0
C4974 C 0.36393 0.98901 0.31164 0.0
C4975 C 0.37742 0.99332 0.315 0.0
C4976 C 0.38278 0.99914 0.32853 0.0
C4977 C 0.37458 0.99975 0.33884 0.0
C4978 C 0.38567 0.99063 0.30499 0.0
C4979 C 0.39826 0.00153 0.3015 0.0
C4980 C 0.38149 0.97723 0.29953 0.0
C4981 C 0.36861 0.96515 0.30327 0.0
C4982 C 0.36594 0.96156 0.31745 0.0
C4983 C 0.3537 0.95025 0.32088 0.0
C4984 C 0.3441 0.94237 0.31022 0.0
C4985 C 0.34675 0.94577 0.29609 0.0
C4986 C 0.35897 0.95709 0.2926 0.0
C4987 C 0.43297 0.98141 0.28269 0.0
C4988 C 0.42904 0.97294 0.27033 0.0
C4989 C 0.42472 0.98603 0.28814 0.0
C4990 C 0.41238 0.9823 0.28129 0.0
C4991 C 0.40857 0.97407 0.26875 0.0
C4992 C 0.4168 0.96939 0.26333 0.0
C4993 C 0.40293 0.9858 0.28808 0.0
C4994 C 0.3901 0.97502 0.29104 0.0
C4995 C 0.40693 0.99931 0.29304 0.0
C4996 C 0.42003 0.01124 0.2895 0.0
C4997 C 0.4239 0.0135 0.27536 0.0
C4998 C 0.4363 0.02467 0.27208 0.0
C4999 C 0.44491 0.03372 0.28285 0.0
C5000 C 0.44113 0.03163 0.29692 0.0
C5001 C 0.42874 0.02046 0.30025 0.0
H5002 H 0.45452 0.04236 0.28029 0.0
H5003 H 0.33463 0.93362 0.3129 0.0
H5004 H 0.63034 0.96586 0.30922 0.0
H5005 H 0.61458 0.96834 0.29382 0.0
H5006 H 0.62013 0.00277 0.32007 0.0
H5007 H 0.63586 0.00031 0.33561 0.0
H5008 H 0.59389 0.98361 0.31578 0.0
H5009 H 0.63173 0.00769 0.28692 0.0
H5010 H 0.65147 0.0114 0.2738 0.0
H5011 H 0.62647 0.97581 0.2469 0.0
H5012 H 0.60659 0.97177 0.25998 0.0
H5013 H 0.5421 0.99179 0.271 0.0
H5014 H 0.56509 0.99611 0.28793 0.0
H5015 H 0.57147 0.96396 0.25582 0.0
H5016 H 0.54886 0.95908 0.23783 0.0
H5017 H 0.59463 0.98603 0.26352 0.0
H5018 H 0.55792 0.95996 0.29359 0.0
H5019 H 0.53784 0.95461 0.307 0.0
H5020 H 0.56043 0.99225 0.33182 0.0
H5021 H 0.58061 0.9979 0.31844 0.0
C5022 C 0.62838 0.9741 0.31161 0.0
C5023 C 0.63429 0.98282 0.3237 0.0
C5024 C 0.61941 0.97555 0.30275 0.0
C5025 C 0.61622 0.98578 0.30577 0.0
C5026 C 0.62246 0.99481 0.31755 0.0
C5027 C 0.63147 0.9934 0.3264 0.0
C5028 C 0.60551 0.98623 0.29735 0.0
C5029 C 0.59419 0.98449 0.30438 0.0
C5030 C 0.60575 0.98695 0.28245 0.0
C5031 C 0.61768 0.98937 0.27451 0.0
C5032 C 0.63045 0.00059 0.27828 0.0
C5033 C 0.64166 0.00276 0.27083 0.0
C5034 C 0.64023 0.99383 0.25954 0.0
C5035 C 0.62757 0.98272 0.25565 0.0
C5036 C 0.61632 0.98049 0.26307 0.0
C5037 C 0.54719 0.9862 0.26855 0.0
C5038 C 0.54459 0.97685 0.25117 0.0
C5039 C 0.56185 0.98924 0.27867 0.0
C5040 C 0.57125 0.98112 0.27331 0.0
C5041 C 0.56594 0.96908 0.2583 0.0
C5042 C 0.55145 0.96538 0.24749 0.0
C5043 C 0.58299 0.98331 0.28194 0.0
C5044 C 0.59445 0.98543 0.27494 0.0
C5045 C 0.58284 0.98281 0.29687 0.0
C5046 C 0.57072 0.97945 0.30488 0.0
C5047 C 0.55857 0.96715 0.30183 0.0
C5048 C 0.54718 0.96405 0.30944 0.0
C5049 C 0.54784 0.97311 0.32021 0.0
C5050 C 0.55992 0.98526 0.32344 0.0
C5051 C 0.57134 0.98842 0.31586 0.0
H5052 H 0.53901 0.97069 0.32609 0.0
H5053 H 0.64892 0.99553 0.25379 0.0
H5054 H 0.0025 0.64831 0.33039 0.0
H5055 H 0.99266 0.62443 0.32144 0.0
H5056 H 0.02094 0.63767 0.28806 0.0
H5057 H 0.03097 0.66137 0.29696 0.0
H5058 H 0.9918 0.62132 0.2799 0.0
H5059 H 0.02619 0.62227 0.31126 0.0
H5060 H 0.03756 0.62535 0.33451 0.0
H5061 H 0.00083 0.59365 0.35091 0.0
H5062 H 0.9892 0.59053 0.32779 0.0
H5063 H 0.98619 0.56474 0.24277 0.0
H5064 H 0.99415 0.58602 0.25674 0.0
H5065 H 0.97104 0.56318 0.2918 0.0
H5066 H 0.96348 0.54165 0.27795 0.0
H5067 H 0.99466 0.58329 0.30138 0.0
H5068 H 0.96037 0.58038 0.2707 0.0
H5069 H 0.94777 0.57692 0.24819 0.0
H5070 H 0.98194 0.6118 0.23161 0.0
H5071 H 0.99483 0.61536 0.25395 0.0
C5072 C 0.00675 0.64611 0.32128 0.0
C5073 C 0.01748 0.65678 0.31435 0.0
C5074 C 0.00113 0.63247 0.31621 0.0
C5075 C 0.00606 0.62937 0.30408 0.0
C5076 C 0.017 0.63991 0.29743 0.0
C5077 C 0.02274 0.65345 0.30259 0.0
C5078 C 0.99934 0.61533 0.29759 0.0
C5079 C 0.99248 0.613 0.28452 0.0
C5080 C 0.99978 0.60441 0.30397 0.0
C5081 C 0.00678 0.6063 0.31785 0.0
C5082 C 0.0205 0.61607 0.31986 0.0
C5083 C 0.027 0.6178 0.33301 0.0
C5084 C 0.01991 0.60974 0.3442 0.0
C5085 C 0.00631 0.59991 0.34225 0.0
C5086 C 0.99976 0.59815 0.32912 0.0
C5087 C 0.98294 0.5642 0.25352 0.0
C5088 C 0.97442 0.55149 0.25938 0.0
C5089 C 0.98738 0.5764 0.26146 0.0
C5090 C 0.98305 0.57623 0.27527 0.0
C5091 C 0.97453 0.56357 0.28117 0.0
C5092 C 0.97021 0.5513 0.27327 0.0
C5093 C 0.98746 0.58935 0.28337 0.0
C5094 C 0.99381 0.59152 0.29678 0.0
C5095 C 0.98634 0.6001 0.27743 0.0
C5096 C 0.9786 0.59808 0.26398 0.0
C5097 C 0.96523 0.58727 0.26222 0.0
C5098 C 0.95803 0.58529 0.24949 0.0
C5099 C 0.96405 0.59413 0.23846 0.0
C5100 C 0.97729 0.60497 0.24016 0.0
C5101 C 0.98454 0.60698 0.25286 0.0
H5102 H 0.95846 0.59258 0.22862 0.0
H5103 H 0.02496 0.61109 0.35437 0.0
H5104 H 0.36186 0.39174 0.32662 0.0
H5105 H 0.3813 0.39875 0.31196 0.0
H5106 H 0.37366 0.35722 0.31007 0.0
H5107 H 0.35431 0.35016 0.32488 0.0
H5108 H 0.39898 0.37458 0.31754 0.0
H5109 H 0.36902 0.37153 0.28071 0.0
H5110 H 0.35219 0.37544 0.26874 0.0
H5111 H 0.38008 0.41882 0.2703 0.0
H5112 H 0.39703 0.41519 0.28248 0.0
H5113 H 0.45278 0.39142 0.27214 0.0
H5114 H 0.42929 0.38088 0.27883 0.0
H5115 H 0.43489 0.421 0.28849 0.0
H5116 H 0.45838 0.43155 0.28199 0.0
H5117 H 0.40955 0.40229 0.27487 0.0
H5118 H 0.43832 0.40485 0.31415 0.0
H5119 H 0.45507 0.40057 0.32573 0.0
H5120 H 0.4287 0.35715 0.31893 0.0
H5121 H 0.41187 0.3612 0.30708 0.0
C5122 C 0.3642 0.38405 0.32294 0.0
C5123 C 0.35658 0.37041 0.327 0.0
C5124 C 0.37528 0.38807 0.31448 0.0
C5125 C 0.3789 0.3785 0.30984 0.0
C5126 C 0.37106 0.36478 0.31353 0.0
C5127 C 0.35998 0.36076 0.32198 0.0
C5128 C 0.39147 0.38304 0.30218 0.0
C5129 C 0.40114 0.38038 0.30804 0.0
C5130 C 0.39443 0.39082 0.28991 0.0
C5131 C 0.38426 0.39309 0.28263 0.0
C5132 C 0.37153 0.38191 0.27862 0.0
C5133 C 0.36198 0.38408 0.27177 0.0
C5134 C 0.36506 0.39737 0.26879 0.0
C5135 C 0.37771 0.40853 0.27263 0.0
C5136 C 0.3873 0.40642 0.2795 0.0
C5137 C 0.44892 0.39797 0.27549 0.0
C5138 C 0.45741 0.41229 0.27669 0.0
C5139 C 0.43553 0.39196 0.27928 0.0
C5140 C 0.43042 0.40018 0.28425 0.0
C5141 C 0.43866 0.41449 0.28466 0.0
C5142 C 0.45207 0.4205 0.281 0.0
C5143 C 0.41696 0.39389 0.29033 0.0
C5144 C 0.40721 0.39628 0.28424 0.0
C5145 C 0.41387 0.38579 0.30234 0.0
C5146 C 0.42392 0.38334 0.30958 0.0
C5147 C 0.43615 0.3944 0.31501 0.0
C5148 C 0.44565 0.39201 0.32164 0.0
C5149 C 0.44297 0.3786 0.32303 0.0
C5150 C 0.43077 0.36754 0.31782 0.0
C5151 C 0.42125 0.36987 0.31115 0.0
H5152 H 0.45033 0.37677 0.32817 0.0
H5153 H 0.35765 0.39903 0.26348 0.0
H5154 H 0.34872 0.32859 0.37075 0.0
H5155 H 0.36 0.31601 0.37656 0.0
H5156 H 0.32164 0.27944 0.38169 0.0
H5157 H 0.31029 0.29234 0.37667 0.0
H5158 H 0.33739 0.28105 0.40163 0.0
H5159 H 0.34235 0.28461 0.3518 0.0
H5160 H 0.34796 0.29596 0.32901 0.0
H5161 H 0.38909 0.3211 0.34345 0.0
H5162 H 0.3837 0.31002 0.3664 0.0
H5163 H 0.36831 0.23927 0.40044 0.0
H5164 H 0.35488 0.24968 0.39401 0.0
H5165 H 0.38992 0.28995 0.39997 0.0
H5166 H 0.40334 0.27962 0.40675 0.0
H5167 H 0.37474 0.28462 0.37339 0.0
H5168 H 0.3684 0.28052 0.42388 0.0
H5169 H 0.36207 0.26763 0.44573 0.0
H5170 H 0.32216 0.2413 0.42827 0.0
H5171 H 0.32833 0.2539 0.40621 0.0
C5172 C 0.34266 0.31783 0.37297 0.0
C5173 C 0.3286 0.31141 0.37314 0.0
C5174 C 0.34913 0.3106 0.37622 0.0
C5175 C 0.3417 0.29665 0.37925 0.0
C5176 C 0.32762 0.29018 0.37934 0.0
C5177 C 0.32113 0.29752 0.37642 0.0
C5178 C 0.34872 0.28908 0.38286 0.0
C5179 C 0.34538 0.28164 0.39527 0.0
C5180 C 0.35928 0.28992 0.37471 0.0
C5181 C 0.36259 0.29654 0.36087 0.0
C5182 C 0.35258 0.29261 0.35015 0.0
C5183 C 0.35572 0.29899 0.33719 0.0
C5184 C 0.36887 0.30926 0.33479 0.0
C5185 C 0.37891 0.31314 0.34533 0.0
C5186 C 0.37582 0.3068 0.3583 0.0
C5187 C 0.37312 0.25035 0.40048 0.0
C5188 C 0.38688 0.25865 0.40399 0.0
C5189 C 0.36544 0.25626 0.3968 0.0
C5190 C 0.37144 0.27056 0.39648 0.0
C5191 C 0.38515 0.27888 0.4001 0.0
C5192 C 0.39278 0.27299 0.40396 0.0
C5193 C 0.36348 0.27686 0.39213 0.0
C5194 C 0.36665 0.28399 0.3796 0.0
C5195 C 0.35262 0.27551 0.4 0.0
C5196 C 0.34887 0.26806 0.41334 0.0
C5197 C 0.35831 0.27191 0.42465 0.0
C5198 C 0.35474 0.26467 0.43709 0.0
C5199 C 0.34173 0.25363 0.43838 0.0
C5200 C 0.33224 0.24984 0.42725 0.0
C5201 C 0.33576 0.25703 0.41478 0.0
H5202 H 0.33899 0.24803 0.44801 0.0
H5203 H 0.37128 0.31419 0.32476 0.0
H5204 H 0.71105 0.02408 0.38169 0.0
H5205 H 0.72429 0.04884 0.38667 0.0
H5206 H 0.68904 0.052 0.37877 0.0
H5207 H 0.67595 0.02738 0.37309 0.0
H5208 H 0.70872 0.07246 0.36825 0.0
H5209 H 0.70227 0.05245 0.4134 0.0
H5210 H 0.70285 0.03732 0.43134 0.0
H5211 H 0.74572 0.05724 0.42913 0.0
H5212 H 0.74538 0.07238 0.41104 0.0
H5213 H 0.73426 0.13816 0.40289 0.0
H5214 H 0.72111 0.11316 0.3989 0.0
H5215 H 0.75768 0.11194 0.39549 0.0
H5216 H 0.77085 0.13693 0.39918 0.0
H5217 H 0.73736 0.09084 0.41219 0.0
H5218 H 0.74265 0.11104 0.36654 0.0
H5219 H 0.74097 0.12648 0.3498 0.0
H5220 H 0.69835 0.10609 0.35466 0.0
H5221 H 0.69981 0.09066 0.37162 0.0
C5222 C 0.70616 0.03008 0.38094 0.0
C5223 C 0.69245 0.02377 0.37705 0.0
C5224 C 0.71371 0.04422 0.38389 0.0
C5225 C 0.70762 0.05229 0.38343 0.0
C5226 C 0.69399 0.04603 0.37925 0.0
C5227 C 0.68651 0.03194 0.376 0.0
C5228 C 0.71542 0.06724 0.38727 0.0
C5229 C 0.71482 0.07641 0.37797 0.0
C5230 C 0.72354 0.07252 0.39987 0.0
C5231 C 0.72379 0.06345 0.41076 0.0
C5232 C 0.71181 0.05354 0.41667 0.0
C5233 C 0.7121 0.04497 0.42687 0.0
C5234 C 0.72431 0.04629 0.43134 0.0
C5235 C 0.73626 0.05622 0.42564 0.0
C5236 C 0.73604 0.0648 0.41542 0.0
C5237 C 0.73947 0.13253 0.40136 0.0
C5238 C 0.75356 0.13948 0.40118 0.0
C5239 C 0.73197 0.11829 0.3991 0.0
C5240 C 0.73845 0.11077 0.39678 0.0
C5241 C 0.75251 0.11759 0.39724 0.0
C5242 C 0.76001 0.13184 0.39932 0.0
C5243 C 0.73057 0.09586 0.3932 0.0
C5244 C 0.73119 0.08677 0.40253 0.0
C5245 C 0.72226 0.09063 0.38078 0.0
C5246 C 0.72136 0.09979 0.37045 0.0
C5247 C 0.73293 0.10992 0.36412 0.0
C5248 C 0.73202 0.11866 0.35458 0.0
C5249 C 0.71956 0.11729 0.35119 0.0
C5250 C 0.70799 0.10715 0.35731 0.0
C5251 C 0.70886 0.0984 0.36688 0.0
H5252 H 0.71887 0.12407 0.34381 0.0
H5253 H 0.7245 0.03965 0.43924 0.0
H5254 H 0.97357 0.69508 0.35508 0.0
H5255 H 0.9537 0.68233 0.3689 0.0
H5256 H 0.96813 0.65568 0.38206 0.0
H5257 H 0.98803 0.6683 0.36797 0.0
H5258 H 0.94291 0.64112 0.37275 0.0
H5259 H 0.96667 0.67855 0.40586 0.0
H5260 H 0.98007 0.70274 0.41437 0.0
H5261 H 0.94798 0.70941 0.40182 0.0
H5262 H 0.93445 0.68531 0.39304 0.0
H5263 H 0.88375 0.60563 0.41172 0.0
H5264 H 0.9079 0.61994 0.40807 0.0
H5265 H 0.90104 0.64993 0.38838 0.0
H5266 H 0.87698 0.63575 0.39211 0.0
H5267 H 0.92424 0.66207 0.40513 0.0
H5268 H 0.9025 0.62564 0.36864 0.0
H5269 H 0.88913 0.60143 0.36015 0.0
H5270 H 0.91798 0.59305 0.37957 0.0
H5271 H 0.93142 0.61719 0.38836 0.0
C5272 C 0.97264 0.68662 0.36105 0.0
C5273 C 0.98238 0.68268 0.36036 0.0
C5274 C 0.96128 0.67939 0.36904 0.0
C5275 C 0.95946 0.66812 0.37666 0.0
C5276 C 0.96934 0.66436 0.3763 0.0
C5277 C 0.98072 0.6716 0.36826 0.0
C5278 C 0.94673 0.65968 0.38397 0.0
C5279 C 0.93899 0.64566 0.38011 0.0
C5280 C 0.94149 0.66561 0.39342 0.0
C5281 C 0.94957 0.68012 0.39871 0.0
C5282 C 0.9625 0.6852 0.40482 0.0
C5283 C 0.97012 0.69889 0.40971 0.0
C5284 C 0.96488 0.70761 0.40861 0.0
C5285 C 0.95202 0.70264 0.40266 0.0
C5286 C 0.94436 0.68896 0.39774 0.0
C5287 C 0.88747 0.61542 0.4069 0.0
C5288 C 0.87853 0.61962 0.40223 0.0
C5289 C 0.90123 0.62355 0.40478 0.0
C5290 C 0.90623 0.63594 0.39784 0.0
C5291 C 0.8974 0.64044 0.3938 0.0
C5292 C 0.88366 0.63232 0.39589 0.0
C5293 C 0.92041 0.64368 0.39363 0.0
C5294 C 0.92835 0.65754 0.39803 0.0
C5295 C 0.92587 0.63762 0.38471 0.0
C5296 C 0.91787 0.62316 0.37929 0.0
C5297 C 0.90594 0.61861 0.37118 0.0
C5298 C 0.89835 0.60491 0.36631 0.0
C5299 C 0.90268 0.5957 0.36935 0.0
C5300 C 0.91462 0.60019 0.37724 0.0
C5301 C 0.92223 0.61387 0.38217 0.0
H5302 H 0.8968 0.5851 0.36557 0.0
H5303 H 0.97079 0.71821 0.4124 0.0
H5304 H 0.3686 0.01924 0.70639 0.0
H5305 H 0.38505 0.02001 0.7236 0.0
H5306 H 0.3906 0.99199 0.69666 0.0
H5307 H 0.37409 0.99103 0.67947 0.0
H5308 H 0.39133 0.98688 0.72484 0.0
H5309 H 0.41135 0.02606 0.69491 0.0
H5310 H 0.41318 0.04665 0.68444 0.0
H5311 H 0.41815 0.06536 0.72593 0.0
H5312 H 0.41618 0.04479 0.73665 0.0
H5313 H 0.45765 0.00199 0.739 0.0
H5314 H 0.436 0.99776 0.72964 0.0
H5315 H 0.43857 0.02957 0.75811 0.0
H5316 H 0.46049 0.03408 0.76724 0.0
H5317 H 0.43206 0.0328 0.73256 0.0
H5318 H 0.41541 0.995 0.7625 0.0
H5319 H 0.41375 0.97453 0.77304 0.0
H5320 H 0.40237 0.95319 0.73238 0.0
H5321 H 0.40416 0.97361 0.72155 0.0
C5322 C 0.37314 0.01305 0.70423 0.0
C5323 C 0.37016 0.00521 0.69145 0.0
C5324 C 0.38257 0.01353 0.71407 0.0
C5325 C 0.38921 0.00623 0.7113 0.0
C5326 C 0.38563 0.99773 0.69899 0.0
C5327 C 0.37621 0.99725 0.68914 0.0
C5328 C 0.40067 0.00831 0.72053 0.0
C5329 C 0.40027 0.99689 0.72651 0.0
C5330 C 0.41217 0.02144 0.72302 0.0
C5331 C 0.41346 0.03384 0.71658 0.0
C5332 C 0.41274 0.03453 0.7018 0.0
C5333 C 0.41382 0.0462 0.69582 0.0
C5334 C 0.41574 0.05729 0.70452 0.0
C5335 C 0.41663 0.05675 0.71921 0.0
C5336 C 0.41554 0.0451 0.72524 0.0
C5337 C 0.45346 0.00788 0.74346 0.0
C5338 C 0.46063 0.01816 0.75405 0.0
C5339 C 0.44105 0.00543 0.73814 0.0
C5340 C 0.4355 0.01317 0.74334 0.0
C5341 C 0.44259 0.02338 0.75402 0.0
C5342 C 0.45506 0.02589 0.7593 0.0
C5343 C 0.42287 0.01133 0.73675 0.0
C5344 C 0.42306 0.02279 0.73119 0.0
C5345 C 0.41117 0.99824 0.73471 0.0
C5346 C 0.41001 0.98589 0.74119 0.0
C5347 C 0.41265 0.98598 0.75578 0.0
C5348 C 0.41167 0.97438 0.76181 0.0
C5349 C 0.40798 0.96257 0.75338 0.0
C5350 C 0.40523 0.96234 0.7389 0.0
C5351 C 0.4062 0.97393 0.73281 0.0
H5352 H 0.40723 0.9536 0.75807 0.0
H5353 H 0.41657 0.06632 0.69987 0.0
H5354 H 0.96881 0.33887 0.7196 0.0
H5355 H 0.97581 0.36156 0.72996 0.0
H5356 H 0.01509 0.37716 0.71299 0.0
H5357 H 0.00819 0.35435 0.70263 0.0
H5358 H 0.01646 0.38279 0.741 0.0
H5359 H 0.99443 0.38811 0.70085 0.0
H5360 H 0.97615 0.38185 0.68311 0.0
H5361 H 0.95047 0.38099 0.71582 0.0
H5362 H 0.96853 0.38705 0.7338 0.0
H5363 H 0.04403 0.4556 0.77304 0.0
H5364 H 0.03651 0.43197 0.75436 0.0
H5365 H 0.98856 0.41021 0.76809 0.0
H5366 H 0.9948 0.43329 0.78728 0.0
H5367 H 0.99228 0.4086 0.73834 0.0
H5368 H 0.01303 0.40085 0.77828 0.0
H5369 H 0.03072 0.40637 0.79654 0.0
H5370 H 0.05828 0.41109 0.76431 0.0
H5371 H 0.04079 0.40577 0.74582 0.0
C5372 C 0.97888 0.34715 0.71785 0.0
C5373 C 0.98799 0.34475 0.71039 0.0
C5374 C 0.98284 0.36017 0.72371 0.0
C5375 C 0.99596 0.37107 0.72222 0.0
C5376 C 0.00491 0.36888 0.71425 0.0
C5377 C 0.00093 0.35585 0.7083 0.0
C5378 C 0.00066 0.38426 0.73025 0.0
C5379 C 0.0114 0.38864 0.74012 0.0
C5380 C 0.99374 0.39162 0.72947 0.0
C5381 C 0.98282 0.38793 0.7187 0.0
C5382 C 0.98485 0.38647 0.70428 0.0
C5383 C 0.97453 0.38298 0.69418 0.0
C5384 C 0.96214 0.381 0.69834 0.0
C5385 C 0.96006 0.38253 0.71261 0.0
C5386 C 0.97035 0.38601 0.72277 0.0
C5387 C 0.0339 0.44692 0.77265 0.0
C5388 C 0.01971 0.44802 0.7802 0.0
C5389 C 0.02898 0.4325 0.76053 0.0
C5390 C 0.01163 0.41899 0.75852 0.0
C5391 C 0.99871 0.41882 0.76913 0.0
C5392 C 0.00259 0.43278 0.7816 0.0
C5393 C 0.00807 0.40706 0.74893 0.0
C5394 C 0.99749 0.40288 0.73894 0.0
C5395 C 0.0151 0.39985 0.74958 0.0
C5396 C 0.02565 0.40309 0.76066 0.0
C5397 C 0.0229 0.40319 0.77508 0.0
C5398 C 0.03288 0.40626 0.78547 0.0
C5399 C 0.04563 0.40913 0.78159 0.0
C5400 C 0.04841 0.4089 0.7673 0.0
C5401 C 0.03846 0.40585 0.75686 0.0
H5402 H 0.05334 0.41149 0.78965 0.0
H5403 H 0.95417 0.3783 0.69049 0.0
H5404 H 0.63587 0.6048 0.68612 0.0
H5405 H 0.61657 0.5965 0.7012 0.0
H5406 H 0.62998 0.63799 0.7161 0.0
H5407 H 0.64946 0.6464 0.70117 0.0
H5408 H 0.62027 0.62014 0.73749 0.0
H5409 H 0.60578 0.62315 0.6906 0.0
H5410 H 0.60283 0.61891 0.66472 0.0
H5411 H 0.57976 0.5755 0.67021 0.0
H5412 H 0.58274 0.57947 0.69613 0.0
H5413 H 0.55712 0.60736 0.76279 0.0
H5414 H 0.57832 0.61603 0.75071 0.0
H5415 H 0.56536 0.57516 0.73397 0.0
H5416 H 0.54407 0.56652 0.74578 0.0
H5417 H 0.57515 0.59319 0.71384 0.0
H5418 H 0.58946 0.59039 0.76104 0.0
H5419 H 0.59231 0.59494 0.78688 0.0
H5420 H 0.61551 0.63825 0.78085 0.0
H5421 H 0.61265 0.63396 0.75496 0.0
C5422 C 0.6348 0.61217 0.69269 0.0
C5423 C 0.64414 0.62628 0.69234 0.0
C5424 C 0.62373 0.6074 0.70128 0.0
C5425 C 0.62172 0.61665 0.70958 0.0
C5426 C 0.63132 0.63069 0.70973 0.0
C5427 C 0.64243 0.63547 0.70116 0.0
C5428 C 0.60932 0.6117 0.71763 0.0
C5429 C 0.6104 0.61438 0.73232 0.0
C5430 C 0.59644 0.60402 0.71089 0.0
C5431 C 0.5946 0.6016 0.6953 0.0
C5432 C 0.60017 0.61269 0.68629 0.0
C5433 C 0.59848 0.61034 0.67161 0.0
C5434 C 0.59114 0.59695 0.66582 0.0
C5435 C 0.58546 0.58587 0.6747 0.0
C5436 C 0.58714 0.58817 0.68939 0.0
C5437 C 0.55891 0.60022 0.7567 0.0
C5438 C 0.54908 0.58623 0.75548 0.0
C5439 C 0.57101 0.60517 0.74983 0.0
C5440 C 0.57351 0.5962 0.74161 0.0
C5441 C 0.56369 0.58224 0.74034 0.0
C5442 C 0.55157 0.5773 0.74716 0.0
C5443 C 0.58607 0.60145 0.73376 0.0
C5444 C 0.58501 0.59889 0.71906 0.0
C5445 C 0.59894 0.60927 0.7405 0.0
C5446 C 0.60073 0.61186 0.75606 0.0
C5447 C 0.59508 0.60089 0.76522 0.0
C5448 C 0.59672 0.60342 0.77988 0.0
C5449 C 0.60406 0.61688 0.78551 0.0
C5450 C 0.60982 0.62783 0.77648 0.0
C5451 C 0.6082 0.62536 0.76181 0.0
H5452 H 0.60531 0.61882 0.79686 0.0
H5453 H 0.58984 0.59515 0.65446 0.0
H5454 H 0.69327 0.70585 0.64314 0.0
H5455 H 0.68287 0.71948 0.63776 0.0
H5456 H 0.64568 0.6884 0.65443 0.0
H5457 H 0.65599 0.67469 0.65992 0.0
H5458 H 0.64299 0.6956 0.62713 0.0
H5459 H 0.66285 0.71804 0.67218 0.0
H5460 H 0.68123 0.73007 0.69017 0.0
H5461 H 0.70284 0.76268 0.66198 0.0
H5462 H 0.68468 0.75076 0.64373 0.0
H5463 H 0.60861 0.73178 0.61722 0.0
H5464 H 0.61856 0.7194 0.62802 0.0
H5465 H 0.65805 0.75208 0.61826 0.0
H5466 H 0.64818 0.76475 0.60805 0.0
H5467 H 0.65895 0.74368 0.64334 0.0
H5468 H 0.64106 0.72133 0.59783 0.0
H5469 H 0.62375 0.70957 0.57874 0.0
H5470 H 0.59979 0.67714 0.60629 0.0
H5471 H 0.6169 0.68881 0.62561 0.0
C5472 C 0.68293 0.70198 0.64586 0.0
C5473 C 0.67544 0.68913 0.65189 0.0
C5474 C 0.67703 0.70982 0.64282 0.0
C5475 C 0.66352 0.70493 0.64572 0.0
C5476 C 0.65612 0.69233 0.65213 0.0
C5477 C 0.66206 0.68454 0.6553 0.0
C5478 C 0.65686 0.71248 0.64103 0.0
C5479 C 0.6463 0.70603 0.63087 0.0
C5480 C 0.66152 0.72623 0.64557 0.0
C5481 C 0.67244 0.73344 0.65654 0.0
C5482 C 0.67157 0.72772 0.66977 0.0
C5483 C 0.68194 0.73453 0.68002 0.0
C5484 C 0.69321 0.74712 0.67721 0.0
C5485 C 0.69411 0.75293 0.66414 0.0
C5486 C 0.68378 0.74616 0.65384 0.0
C5487 C 0.61941 0.73626 0.61733 0.0
C5488 C 0.62757 0.749 0.61137 0.0
C5489 C 0.62509 0.72919 0.62348 0.0
C5490 C 0.63904 0.73466 0.62364 0.0
C5491 C 0.64726 0.7476 0.61814 0.0
C5492 C 0.64159 0.75476 0.61217 0.0
C5493 C 0.64507 0.72681 0.62938 0.0
C5494 C 0.65555 0.73321 0.63969 0.0
C5495 C 0.64048 0.71306 0.62481 0.0
C5496 C 0.63019 0.70602 0.61321 0.0
C5497 C 0.63205 0.71174 0.59984 0.0
C5498 C 0.62229 0.70509 0.58898 0.0
C5499 C 0.61066 0.69264 0.59131 0.0
C5500 C 0.60879 0.6868 0.6045 0.0
C5501 C 0.61852 0.69342 0.61541 0.0
H5502 H 0.60311 0.6875 0.58288 0.0
H5503 H 0.70122 0.75237 0.68516 0.0
H5504 H 0.32225 0.97243 0.66339 0.0
H5505 H 0.30892 0.94787 0.657 0.0
H5506 H 0.28528 0.95572 0.62699 0.0
H5507 H 0.29816 0.98004 0.63358 0.0
H5508 H 0.26967 0.9328 0.63911 0.0
H5509 H 0.3128 0.95251 0.61735 0.0
H5510 H 0.33753 0.96479 0.61725 0.0
H5511 H 0.33798 0.93441 0.64312 0.0
H5512 H 0.31323 0.92203 0.64351 0.0
H5513 H 0.24235 0.87634 0.58099 0.0
H5514 H 0.25502 0.90137 0.5986 0.0
H5515 H 0.28077 0.88481 0.62681 0.0
H5516 H 0.26877 0.8593 0.61004 0.0
H5517 H 0.29466 0.91095 0.62071 0.0
H5518 H 0.25126 0.89032 0.64077 0.0
H5519 H 0.22651 0.87805 0.64042 0.0
H5520 H 0.22664 0.91015 0.61707 0.0
H5521 H 0.2514 0.92255 0.6172 0.0
C5522 C 0.31407 0.9689 0.6556 0.0
C5523 C 0.3114 0.97827 0.6489 0.0
C5524 C 0.30651 0.95486 0.6519 0.0
C5525 C 0.29626 0.94996 0.6413 0.0
C5526 C 0.29315 0.95922 0.63516 0.0
C5527 C 0.30059 0.97318 0.63893 0.0
C5528 C 0.28925 0.93543 0.63588 0.0
C5529 C 0.27515 0.92806 0.63503 0.0
C5530 C 0.29634 0.92905 0.63087 0.0
C5531 C 0.31119 0.93645 0.63061 0.0
C5532 C 0.31818 0.94851 0.6231 0.0
C5533 C 0.3322 0.95547 0.62298 0.0
C5534 C 0.33932 0.95041 0.63022 0.0
C5535 C 0.33244 0.93834 0.63755 0.0
C5536 C 0.31843 0.93134 0.63772 0.0
C5537 C 0.24977 0.8781 0.58919 0.0
C5538 C 0.2524 0.8641 0.59542 0.0
C5539 C 0.25713 0.89329 0.6007 0.0
C5540 C 0.26839 0.89533 0.61532 0.0
C5541 C 0.27347 0.88287 0.61842 0.0
C5542 C 0.26665 0.86732 0.60755 0.0
C5543 C 0.27513 0.90848 0.62366 0.0
C5544 C 0.28917 0.91558 0.62504 0.0
C5545 C 0.26801 0.91466 0.62901 0.0
C5546 C 0.25315 0.90726 0.62885 0.0
C5547 C 0.246 0.89472 0.6355 0.0
C5548 C 0.23197 0.88775 0.63536 0.0
C5549 C 0.225 0.89329 0.62869 0.0
C5550 C 0.23205 0.90585 0.6222 0.0
C5551 C 0.24607 0.91286 0.62232 0.0
H5552 H 0.21415 0.88788 0.62857 0.0
H5553 H 0.35017 0.95582 0.63011 0.0
H5554 H 0.0229 0.33913 0.65836 0.0
H5555 H 0.04276 0.35111 0.64401 0.0
H5556 H 0.04749 0.31562 0.6436 0.0
H5557 H 0.02782 0.30366 0.65792 0.0
H5558 H 0.07051 0.33885 0.65168 0.0
H5559 H 0.03657 0.32411 0.6142 0.0
H5560 H 0.01649 0.32218 0.60227 0.0
H5561 H 0.03616 0.36603 0.60081 0.0
H5562 H 0.0563 0.36824 0.61291 0.0
H5563 H 0.12153 0.35636 0.60383 0.0
H5564 H 0.09951 0.34478 0.61432 0.0
H5565 H 0.09698 0.38142 0.61129 0.0
H5566 H 0.1189 0.39295 0.60036 0.0
H5567 H 0.07286 0.35889 0.60509 0.0
H5568 H 0.10654 0.37406 0.64216 0.0
H5569 H 0.12675 0.37672 0.6545 0.0
H5570 H 0.10765 0.33304 0.65761 0.0
H5571 H 0.08738 0.3301 0.64508 0.0
C5572 C 0.02808 0.33383 0.65506 0.0
C5573 C 0.02382 0.32047 0.65936 0.0
C5574 C 0.0394 0.34068 0.64683 0.0
C5575 C 0.0466 0.33425 0.64274 0.0
C5576 C 0.04212 0.32079 0.64669 0.0
C5577 C 0.03084 0.31396 0.65486 0.0
C5578 C 0.05927 0.34173 0.63509 0.0
C5579 C 0.07098 0.34307 0.6414 0.0
C5580 C 0.05997 0.34767 0.62193 0.0
C5581 C 0.04789 0.34634 0.6146 0.0
C5582 C 0.03657 0.33335 0.61144 0.0
C5583 C 0.02519 0.3322 0.60463 0.0
C5584 C 0.02503 0.34397 0.60082 0.0
C5585 C 0.03628 0.35692 0.60378 0.0
C5586 C 0.04769 0.35813 0.61061 0.0
C5587 C 0.11615 0.36185 0.6051 0.0
C5588 C 0.12183 0.3755 0.60104 0.0
C5589 C 0.10362 0.35527 0.61121 0.0
C5590 C 0.09666 0.36229 0.61374 0.0
C5591 C 0.10215 0.37579 0.6094 0.0
C5592 C 0.11465 0.38236 0.60317 0.0
C5593 C 0.08402 0.35572 0.62156 0.0
C5594 C 0.07236 0.35465 0.61536 0.0
C5595 C 0.08335 0.35013 0.63492 0.0
C5596 C 0.09549 0.35186 0.64256 0.0
C5597 C 0.10668 0.36502 0.64538 0.0
C5598 C 0.11814 0.36657 0.65242 0.0
C5599 C 0.11849 0.35506 0.6568 0.0
C5600 C 0.10737 0.34195 0.65419 0.0
C5601 C 0.09589 0.34034 0.64713 0.0
H5602 H 0.12738 0.35628 0.66225 0.0
H5603 H 0.01621 0.34306 0.59555 0.0
H5604 H 0.30981 0.3339 0.64994 0.0
H5605 H 0.30054 0.34388 0.63383 0.0
H5606 H 0.30024 0.36954 0.66828 0.0
H5607 H 0.3093 0.35953 0.68443 0.0
H5608 H 0.27699 0.35766 0.65336 0.0
H5609 H 0.32388 0.38254 0.64305 0.0
H5610 H 0.3455 0.38508 0.63619 0.0
H5611 H 0.32767 0.36402 0.59627 0.0
H5612 H 0.30589 0.3612 0.60298 0.0
H5613 H 0.2673 0.40548 0.61601 0.0
H5614 H 0.27683 0.39474 0.63064 0.0
H5615 H 0.27532 0.3698 0.5945 0.0
H5616 H 0.26592 0.38065 0.57977 0.0
H5617 H 0.2989 0.38026 0.60947 0.0
H5618 H 0.25217 0.35601 0.61952 0.0
H5619 H 0.2306 0.35357 0.62637 0.0
H5620 H 0.24813 0.37342 0.66683 0.0
H5621 H 0.26987 0.37615 0.66013 0.0
C5622 C 0.30782 0.3417 0.65406 0.0
C5623 C 0.31028 0.34591 0.66847 0.0
C5624 C 0.30256 0.34743 0.64484 0.0
C5625 C 0.29977 0.35752 0.64984 0.0
C5626 C 0.30228 0.36175 0.6642 0.0
C5627 C 0.30751 0.35603 0.67341 0.0
C5628 C 0.29396 0.36352 0.64025 0.0
C5629 C 0.28187 0.36275 0.64385 0.0
C5630 C 0.30013 0.36982 0.62764 0.0
C5631 C 0.31322 0.37153 0.62358 0.0
C5632 C 0.32454 0.37835 0.63286 0.0
C5633 C 0.33683 0.37986 0.62899 0.0
C5634 C 0.33794 0.37468 0.61582 0.0
C5635 C 0.32678 0.36801 0.60648 0.0
C5636 C 0.31447 0.36646 0.6103 0.0
C5637 C 0.26893 0.39765 0.61122 0.0
C5638 C 0.26562 0.3937 0.59682 0.0
C5639 C 0.27436 0.39151 0.61958 0.0
C5640 C 0.27659 0.38131 0.61371 0.0
C5641 C 0.27361 0.37759 0.59926 0.0
C5642 C 0.26818 0.38372 0.59089 0.0
C5643 C 0.28202 0.37455 0.62268 0.0
C5644 C 0.29401 0.37514 0.61896 0.0
C5645 C 0.27577 0.36808 0.63519 0.0
C5646 C 0.26269 0.3664 0.63927 0.0
C5647 C 0.25146 0.35995 0.62983 0.0
C5648 C 0.23919 0.3585 0.6337 0.0
C5649 C 0.238 0.36336 0.64701 0.0
C5650 C 0.24907 0.36967 0.65651 0.0
C5651 C 0.26136 0.37116 0.65269 0.0
H5652 H 0.22849 0.36223 0.64999 0.0
H5653 H 0.34747 0.37586 0.61284 0.0
H5654 H 0.69415 0.98047 0.63421 0.0
H5655 H 0.68237 0.95577 0.62868 0.0
H5656 H 0.64455 0.95333 0.63662 0.0
H5657 H 0.65634 0.97785 0.64287 0.0
H5658 H 0.6435 0.93214 0.64617 0.0
H5659 H 0.65686 0.954 0.60198 0.0
H5660 H 0.6725 0.96965 0.58477 0.0
H5661 H 0.69466 0.94852 0.58602 0.0
H5662 H 0.67924 0.93285 0.60338 0.0
H5663 H 0.60189 0.86872 0.60763 0.0
H5664 H 0.6144 0.89349 0.61329 0.0
H5665 H 0.65117 0.89251 0.61694 0.0
H5666 H 0.63868 0.8677 0.61164 0.0
H5667 H 0.65267 0.91504 0.60132 0.0
H5668 H 0.63773 0.89274 0.64574 0.0
H5669 H 0.62063 0.87689 0.6617 0.0
H5670 H 0.59959 0.89904 0.65831 0.0
H5671 H 0.61647 0.9149 0.64213 0.0
C5672 C 0.68333 0.97463 0.63489 0.0
C5673 C 0.67616 0.98111 0.63891 0.0
C5674 C 0.67659 0.96052 0.63162 0.0
C5675 C 0.66251 0.9527 0.63187 0.0
C5676 C 0.65539 0.95911 0.63628 0.0
C5677 C 0.66215 0.97315 0.63986 0.0
C5678 C 0.65516 0.93788 0.6274 0.0
C5679 C 0.64542 0.92847 0.63627 0.0
C5680 C 0.6577 0.93296 0.61455 0.0
C5681 C 0.66697 0.94235 0.60409 0.0
C5682 C 0.66512 0.95275 0.59866 0.0
C5683 C 0.67394 0.96162 0.58887 0.0
C5684 C 0.68459 0.9601 0.58433 0.0
C5685 C 0.68642 0.9497 0.58956 0.0
C5686 C 0.67764 0.94081 0.59936 0.0
C5687 C 0.61264 0.87381 0.60963 0.0
C5688 C 0.61929 0.86626 0.60944 0.0
C5689 C 0.61976 0.88792 0.61282 0.0
C5690 C 0.63367 0.89475 0.61566 0.0
C5691 C 0.64043 0.88738 0.61481 0.0
C5692 C 0.63329 0.87324 0.61182 0.0
C5693 C 0.64109 0.90949 0.62006 0.0
C5694 C 0.65081 0.91881 0.61119 0.0
C5695 C 0.63834 0.91436 0.63275 0.0
C5696 C 0.62829 0.90492 0.64261 0.0
C5697 C 0.6294 0.89416 0.6483 0.0
C5698 C 0.61976 0.88519 0.6574 0.0
C5699 C 0.60901 0.88693 0.66099 0.0
C5700 C 0.60791 0.89768 0.65551 0.0
C5701 C 0.61751 0.90668 0.64638 0.0
H5702 H 0.60156 0.87997 0.66804 0.0
H5703 H 0.69141 0.96697 0.57675 0.0
H5704 H 0.03616 0.72573 0.67486 0.0
H5705 H 0.05575 0.73227 0.66071 0.0
H5706 H 0.03465 0.69335 0.63735 0.0
H5707 H 0.01498 0.6866 0.65171 0.0
H5708 H 0.05905 0.69892 0.64556 0.0
H5709 H 0.04143 0.72324 0.62176 0.0
H5710 H 0.03209 0.73849 0.61941 0.0
H5711 H 0.06838 0.77216 0.63811 0.0
H5712 H 0.07788 0.75706 0.64077 0.0
H5713 H 0.1164 0.72104 0.60377 0.0
H5714 H 0.09307 0.71358 0.60924 0.0
H5715 H 0.10676 0.74912 0.63749 0.0
H5716 H 0.12999 0.75669 0.63186 0.0
H5717 H 0.08414 0.7436 0.62276 0.0
H5718 H 0.1 0.71828 0.64964 0.0
H5719 H 0.10939 0.70307 0.65221 0.0
H5720 H 0.07606 0.67122 0.62756 0.0
H5721 H 0.06657 0.68632 0.62467 0.0
C5722 C 0.0356 0.71858 0.66664 0.0
C5723 C 0.02399 0.70563 0.66444 0.0
C5724 C 0.04681 0.72238 0.65848 0.0
C5725 C 0.04663 0.71338 0.64783 0.0
C5726 C 0.03499 0.70049 0.64547 0.0
C5727 C 0.02376 0.69666 0.65367 0.0
C5728 C 0.05892 0.71718 0.63986 0.0
C5729 C 0.06436 0.70855 0.64028 0.0
C5730 C 0.06599 0.72984 0.63316 0.0
C5731 C 0.06034 0.73898 0.63154 0.0
C5732 C 0.04739 0.73387 0.62546 0.0
C5733 C 0.04207 0.7425 0.62406 0.0
C5734 C 0.04963 0.75628 0.62863 0.0
C5735 C 0.06254 0.76148 0.63458 0.0
C5736 C 0.0679 0.75289 0.63602 0.0
C5737 C 0.11437 0.72738 0.6109 0.0
C5738 C 0.12498 0.73951 0.6173 0.0
C5739 C 0.10107 0.72308 0.61408 0.0
C5740 C 0.09819 0.73073 0.62388 0.0
C5741 C 0.10874 0.74309 0.62986 0.0
C5742 C 0.12201 0.7474 0.62666 0.0
C5743 C 0.08435 0.72549 0.62876 0.0
C5744 C 0.07865 0.73385 0.62778 0.0
C5745 C 0.07703 0.71259 0.63496 0.0
C5746 C 0.08267 0.70347 0.63681 0.0
C5747 C 0.09473 0.70806 0.64469 0.0
C5748 C 0.10006 0.69946 0.64621 0.0
C5749 C 0.09334 0.6862 0.64001 0.0
C5750 C 0.08126 0.6815 0.63232 0.0
C5751 C 0.0759 0.69007 0.63074 0.0
H5752 H 0.09749 0.67956 0.6412 0.0
H5753 H 0.04549 0.76294 0.62753 0.0
H5754 H 0.96103 0.62651 0.70462 0.0
H5755 H 0.96724 0.60959 0.71101 0.0
H5756 H 0.00914 0.64016 0.70822 0.0
H5757 H 0.00293 0.65686 0.70107 0.0
H5758 H 0.006 0.61747 0.69866 0.0
H5759 H 0.99197 0.63056 0.74081 0.0
H5760 H 0.9767 0.63422 0.75578 0.0
H5761 H 0.94727 0.59133 0.75134 0.0
H5762 H 0.9623 0.58743 0.73619 0.0
H5763 H 0.03284 0.58637 0.74282 0.0
H5764 H 0.02548 0.60193 0.73445 0.0
H5765 H 0.98516 0.56777 0.72782 0.0
H5766 H 0.9925 0.55212 0.73594 0.0
H5767 H 0.9871 0.59149 0.74188 0.0
H5768 H 0.00298 0.57914 0.70031 0.0
H5769 H 0.01964 0.57653 0.68671 0.0
H5770 H 0.0474 0.61982 0.69191 0.0
H5771 H 0.03098 0.62265 0.70574 0.0
C5772 C 0.97156 0.62956 0.70524 0.0
C5773 C 0.9815 0.64303 0.70244 0.0
C5774 C 0.97511 0.61991 0.70899 0.0
C5775 C 0.98869 0.62367 0.71048 0.0
C5776 C 0.9986 0.637 0.70721 0.0
C5777 C 0.99504 0.64655 0.70313 0.0
C5778 C 0.99262 0.61385 0.71574 0.0
C5779 C 0.00196 0.61193 0.70821 0.0
C5780 C 0.98725 0.60643 0.7281 0.0
C5781 C 0.97821 0.60873 0.73725 0.0
C5782 C 0.98221 0.62192 0.74295 0.0
C5783 C 0.9736 0.62404 0.75148 0.0
C5784 C 0.96101 0.61302 0.75448 0.0
C5785 C 0.95701 0.59985 0.74899 0.0
C5786 C 0.96558 0.59769 0.74044 0.0
C5787 C 0.02242 0.5822 0.73956 0.0
C5788 C 0.01327 0.56803 0.73988 0.0
C5789 C 0.01823 0.59107 0.73479 0.0
C5790 C 0.00481 0.58595 0.73039 0.0
C5791 C 0.99556 0.57189 0.73113 0.0
C5792 C 0.99977 0.56298 0.73575 0.0
C5793 C 0.00047 0.59525 0.72485 0.0
C5794 C 0.99107 0.59705 0.73233 0.0
C5795 C 0.00597 0.60276 0.71262 0.0
C5796 C 0.01579 0.60108 0.70417 0.0
C5797 C 0.01268 0.58808 0.69865 0.0
C5798 C 0.02207 0.58657 0.69088 0.0
C5799 C 0.03458 0.598 0.68847 0.0
C5800 C 0.03771 0.61097 0.69379 0.0
C5801 C 0.02836 0.61254 0.70159 0.0
H5802 H 0.04184 0.5968 0.68246 0.0
H5803 H 0.95436 0.61468 0.76108 0.0
H5804 H 0.35249 0.36823 0.69299 0.0
H5805 H 0.3651 0.39254 0.70019 0.0
H5806 H 0.38607 0.38408 0.73293 0.0
H5807 H 0.37376 0.3598 0.72558 0.0
H5808 H 0.36457 0.40436 0.72388 0.0
H5809 H 0.41671 0.41216 0.74047 0.0
H5810 H 0.43173 0.40361 0.73343 0.0
H5811 H 0.41378 0.39374 0.69146 0.0
H5812 H 0.39878 0.4024 0.69819 0.0
H5813 H 0.39885 0.46606 0.76499 0.0
H5814 H 0.3897 0.44204 0.75726 0.0
H5815 H 0.41553 0.45477 0.72163 0.0
H5816 H 0.42508 0.47876 0.72967 0.0
H5817 H 0.414 0.43267 0.73121 0.0
H5818 H 0.38222 0.44644 0.71876 0.0
H5819 H 0.36743 0.45591 0.72314 0.0
H5820 H 0.34492 0.424 0.75177 0.0
H5821 H 0.3597 0.41445 0.74772 0.0
C5822 C 0.35993 0.37154 0.70159 0.0
C5823 C 0.36209 0.36203 0.70871 0.0
C5824 C 0.36709 0.38546 0.70574 0.0
C5825 C 0.37656 0.39017 0.71709 0.0
C5826 C 0.37897 0.38075 0.72401 0.0
C5827 C 0.37188 0.36684 0.7198 0.0
C5828 C 0.38336 0.40479 0.72215 0.0
C5829 C 0.37538 0.41054 0.72546 0.0
C5830 C 0.39748 0.41294 0.72407 0.0
C5831 C 0.40653 0.4078 0.71989 0.0
C5832 C 0.416 0.40821 0.72973 0.0
C5833 C 0.42451 0.40334 0.72579 0.0
C5834 C 0.42368 0.39809 0.71202 0.0
C5835 C 0.41437 0.39775 0.70214 0.0
C5836 C 0.40585 0.40262 0.70602 0.0
C5837 C 0.40279 0.46371 0.7557 0.0
C5838 C 0.41283 0.47428 0.74803 0.0
C5839 C 0.39746 0.44999 0.75121 0.0
C5840 C 0.40179 0.44659 0.73874 0.0
C5841 C 0.41205 0.45711 0.7313 0.0
C5842 C 0.41749 0.47081 0.73588 0.0
C5843 C 0.39519 0.43217 0.73304 0.0
C5844 C 0.40319 0.42646 0.72965 0.0
C5845 C 0.38111 0.42415 0.73067 0.0
C5846 C 0.37214 0.42981 0.73304 0.0
C5847 C 0.37417 0.4415 0.72606 0.0
C5848 C 0.36578 0.44687 0.72848 0.0
C5849 C 0.35526 0.44058 0.73775 0.0
C5850 C 0.35308 0.42888 0.7446 0.0
C5851 C 0.36146 0.42347 0.74225 0.0
H5852 H 0.34878 0.44476 0.73961 0.0
H5853 H 0.43027 0.39432 0.709 0.0
H5854 H 0.63221 0.01342 0.66486 0.0
H5855 H 0.61525 0.00714 0.68261 0.0
H5856 H 0.64176 0.00476 0.71362 0.0
H5857 H 0.65878 0.01086 0.69579 0.0
H5858 H 0.61692 0.98338 0.715 0.0
H5859 H 0.63656 0.03181 0.71455 0.0
H5860 H 0.64488 0.05438 0.70425 0.0
H5861 H 0.60519 0.04166 0.68793 0.0
H5862 H 0.59666 0.01894 0.69796 0.0
H5863 H 0.57746 0.98227 0.77327 0.0
H5864 H 0.59606 0.9897 0.75718 0.0
H5865 H 0.56988 0.98619 0.72225 0.0
H5866 H 0.55113 0.97839 0.73819 0.0
H5867 H 0.59554 0.01132 0.72425 0.0
H5868 H 0.57657 0.96222 0.72439 0.0
H5869 H 0.56881 0.94019 0.73569 0.0
H5870 H 0.60833 0.9552 0.75397 0.0
H5871 H 0.61627 0.97741 0.74295 0.0
C5872 C 0.63448 0.01159 0.67545 0.0
C5873 C 0.64688 0.01268 0.67892 0.0
C5874 C 0.62478 0.00806 0.68562 0.0
C5875 C 0.62731 0.00567 0.6995 0.0
C5876 C 0.63962 0.00661 0.70298 0.0
C5877 C 0.64934 0.01012 0.69279 0.0
C5878 C 0.61694 0.00193 0.71025 0.0
C5879 C 0.61241 0.98962 0.71719 0.0
C5880 C 0.61092 0.00997 0.71298 0.0
C5881 C 0.616 0.02362 0.70689 0.0
C5882 C 0.62963 0.03378 0.70866 0.0
C5883 C 0.63437 0.04661 0.70289 0.0
C5884 C 0.62557 0.04944 0.69541 0.0
C5885 C 0.612 0.03945 0.69371 0.0
C5886 C 0.6072 0.0266 0.69945 0.0
C5887 C 0.57563 0.98292 0.76213 0.0
C5888 C 0.56277 0.97949 0.75694 0.0
C5889 C 0.58627 0.98722 0.75299 0.0
C5890 C 0.58428 0.98838 0.73855 0.0
C5891 C 0.57157 0.98531 0.73337 0.0
C5892 C 0.56088 0.98082 0.74247 0.0
C5893 C 0.59546 0.99274 0.72879 0.0
C5894 C 0.60013 0.00516 0.72208 0.0
C5895 C 0.60171 0.9849 0.7264 0.0
C5896 C 0.59697 0.97153 0.73298 0.0
C5897 C 0.58357 0.96087 0.73093 0.0
C5898 C 0.57915 0.94834 0.73726 0.0
C5899 C 0.58806 0.94631 0.74558 0.0
C5900 C 0.60143 0.95679 0.74755 0.0
C5901 C 0.6059 0.96935 0.74125 0.0
H5902 H 0.58462 0.9366 0.75047 0.0
H5903 H 0.62927 0.05938 0.69096 0.0
loop_
_geom_bond_atom_site_label_1
_geom_bond_atom_site_label_2
_geom_bond_distance
_geom_bond_site_symmetry_2
_ccdc_geom_bond_type
Mg0 O1 2.028 1_556 S
Mg0 O7 1.986 1_455 S
Mg0 O9 2.114 . S
Mg0 O10 2.251 . S
Mg0 O13 2.010 1_556 S
O1 Mg0 2.028 1_554 S
O1 C4 1.270 . S
O2 Mg3 2.028 1_554 S
O2 C4 1.232 1_655 S
Mg3 O2 2.028 1_556 S
Mg3 O8 2.032 . S
Mg3 O10 2.079 1_655 S
C4 O1 1.270 . S
C4 O2 1.232 1_455 S
C5 O6 1.264 . S
C5 O13 1.249 . S
O6 C5 1.264 . S
O7 Mg0 1.986 1_655 S
O7 C11 1.246 . S
O8 Mg3 2.032 . S
O8 C11 1.259 . S
O9 Mg0 2.114 . S
O9 C12 1.252 . S
O10 Mg0 2.251 . S
O10 Mg3 2.079 1_455 S
O10 C12 1.273 . S
C11 O7 1.246 . S
C11 O8 1.259 . S
C12 O9 1.252 . S
C12 O10 1.273 . S
O13 Mg0 2.010 1_554 S
O13 C5 1.249 . S
Mg14 O15 2.028 . S
Mg14 O21 1.986 . S
Mg14 O23 2.114 . S
Mg14 O24 2.251 . S
Mg14 O27 2.010 . S
O15 Mg14 2.028 . S
O15 C18 1.250 . S
O16 Mg17 2.028 . S
O16 C18 1.248 . S
Mg17 O16 2.028 . S
Mg17 O22 2.032 . S
Mg17 O24 2.079 . S
C18 O15 1.250 . S
C18 O16 1.248 . S
C19 O20 1.264 . S
C19 O27 1.249 . S
O20 C19 1.264 . S
O21 Mg14 1.986 . S
O21 C25 1.246 . S
O22 Mg17 2.032 . S
O22 C25 1.259 . S
O23 Mg14 2.114 . S
O23 C26 1.252 . S
O24 Mg14 2.251 . S
O24 Mg17 2.079 . S
O24 C26 1.273 . S
C25 O21 1.246 . S
C25 O22 1.259 . S
C26 O23 1.252 . S
C26 O24 1.273 . S
O27 Mg14 2.010 . S
O27 C19 1.249 . S
Mg28 O29 2.033 1_565 S
Mg28 O35 1.983 1_564 S
Mg28 O37 2.112 1_554 S
Mg28 O38 2.249 1_564 S
Mg28 O41 2.012 . S
O29 Mg28 2.033 1_545 S
O29 C32 1.250 . S
O30 Mg31 2.028 1_554 S
O30 C32 1.248 . S
Mg31 O30 2.028 1_556 S
Mg31 O36 2.032 . S
Mg31 O38 2.079 . S
C32 O29 1.250 . S
C32 O30 1.248 . S
C33 O34 1.264 . S
C33 O41 1.249 . S
O34 C33 1.264 . S
O35 Mg28 1.983 1_546 S
O35 C39 1.268 . S
O36 Mg31 2.032 . S
O36 C39 1.259 . S
O37 Mg28 2.112 1_556 S
O37 C40 1.252 . S
O38 Mg28 2.249 1_546 S
O38 Mg31 2.079 . S
O38 C40 1.273 1_545 S
C39 O35 1.268 . S
C39 O36 1.259 . S
C40 O37 1.252 . S
C40 O38 1.273 1_565 S
O41 Mg28 2.012 . S
O41 C33 1.249 . S
Mg42 O43 2.080 1_655 S
Mg42 O49 1.986 1_655 S
Mg42 O51 2.114 . S
Mg42 O52 2.251 1_655 S
Mg42 O55 2.010 . S
O43 Mg42 2.080 1_455 S
O43 C46 1.238 1_554 S
O44 Mg45 2.028 . S
O44 C46 1.248 1_554 S
Mg45 O44 2.028 . S
Mg45 O50 2.032 . S
Mg45 O52 2.079 . S
C46 O43 1.238 1_556 S
C46 O44 1.248 1_556 S
C47 O48 1.264 . S
C47 O55 1.249 . S
O48 C47 1.264 . S
O49 Mg42 1.986 1_455 S
O49 C53 1.246 . S
O50 Mg45 2.032 . S
O50 C53 1.259 . S
O51 Mg42 2.114 . S
O51 C54 1.252 . S
O52 Mg42 2.251 1_455 S
O52 Mg45 2.079 . S
O52 C54 1.273 1_455 S
C53 O49 1.246 . S
C53 O50 1.259 . S
C54 O51 1.252 . S
C54 O52 1.273 1_655 S
O55 Mg42 2.010 . S
O55 C47 1.249 . S
Mg56 O57 2.028 1_556 S
Mg56 O63 1.986 . S
Mg56 O65 2.114 . S
Mg56 O66 2.251 . S
Mg56 O69 2.010 1_556 S
O57 Mg56 2.028 1_554 S
O57 C60 1.250 . S
O58 Mg59 2.028 1_554 S
O58 C60 1.248 . S
Mg59 O58 2.028 1_556 S
Mg59 O64 2.032 . S
Mg59 O66 2.079 . S
C60 O57 1.250 . S
C60 O58 1.248 . S
C61 O62 1.264 . S
C61 O69 1.249 . S
O62 C61 1.264 . S
O63 Mg56 1.986 . S
O63 C67 1.246 . S
O64 Mg59 2.032 . S
O64 C67 1.259 . S
O65 Mg56 2.114 . S
O65 C68 1.252 . S
O66 Mg56 2.251 . S
O66 Mg59 2.079 . S
O66 C68 1.273 . S
C67 O63 1.246 . S
C67 O64 1.259 . S
C68 O65 1.252 . S
C68 O66 1.273 . S
O69 Mg56 2.010 1_554 S
O69 C61 1.249 . S
Mg70 O71 2.028 . S
Mg70 O77 1.986 1_545 S
Mg70 O79 2.114 . S
Mg70 O80 2.251 . S
Mg70 O83 2.010 . S
O71 Mg70 2.028 . S
O71 C74 1.250 1_544 S
O72 Mg73 2.028 . S
O72 C74 1.248 1_554 S
Mg73 O72 2.028 . S
Mg73 O78 2.032 . S
Mg73 O80 2.079 1_565 S
C74 O71 1.250 1_566 S
C74 O72 1.248 1_556 S
C75 O76 1.264 . S
C75 O83 1.249 . S
O76 C75 1.264 . S
O77 Mg70 1.986 1_565 S
O77 C81 1.246 . S
O78 Mg73 2.032 . S
O78 C81 1.259 . S
O79 Mg70 2.114 . S
O79 C82 1.252 . S
O80 Mg70 2.251 . S
O80 Mg73 2.079 1_545 S
O80 C82 1.273 . S
C81 O77 1.246 . S
C81 O78 1.259 . S
C82 O79 1.252 . S
C82 O80 1.273 . S
O83 Mg70 2.010 . S
O83 C75 1.249 . S
Mg84 O85 2.028 . S
Mg84 O91 1.986 . S
Mg84 O93 2.114 . S
Mg84 O94 2.251 . S
Mg84 O97 2.010 . S
O85 Mg84 2.028 . S
O85 C88 1.250 . S
O86 Mg87 2.028 . S
O86 C88 1.248 . S
Mg87 O86 2.028 . S
Mg87 O92 2.032 . S
Mg87 O94 2.079 . S
C88 O85 1.250 . S
C88 O86 1.248 . S
C89 O90 1.264 . S
C89 O97 1.249 . S
O90 C89 1.264 . S
O91 Mg84 1.986 . S
O91 C95 1.246 . S
O92 Mg87 2.032 . S
O92 C95 1.259 . S
O93 Mg84 2.114 . S
O93 C96 1.252 . S
O94 Mg84 2.251 . S
O94 Mg87 2.079 . S
O94 C96 1.273 . S
C95 O91 1.246 . S
C95 O92 1.259 . S
C96 O93 1.252 . S
C96 O94 1.273 . S
O97 Mg84 2.010 . S
O97 C89 1.249 . S
Mg98 O99 2.028 . S
Mg98 O105 1.986 1_565 S
Mg98 O107 2.114 . S
Mg98 O108 2.251 . S
Mg98 O111 2.010 . S
O99 Mg98 2.028 . S
O99 C102 1.250 . S
O100 Mg101 2.028 . S
O100 C102 1.248 . S
Mg101 O100 2.028 . S
Mg101 O106 2.032 1_565 S
Mg101 O108 2.079 . S
C102 O99 1.250 . S
C102 O100 1.248 . S
C103 O104 1.264 . S
C103 O111 1.249 . S
O104 C103 1.264 . S
O105 Mg98 1.986 1_545 S
O105 C109 1.246 . S
O106 Mg101 2.032 1_545 S
O106 C109 1.259 . S
O107 Mg98 2.114 . S
O107 C110 1.252 . S
O108 Mg98 2.251 . S
O108 Mg101 2.079 . S
O108 C110 1.273 . S
C109 O105 1.246 . S
C109 O106 1.259 . S
C110 O107 1.252 . S
C110 O108 1.273 . S
O111 Mg98 2.010 . S
O111 C103 1.249 . S
Mg112 O113 2.028 . S
Mg112 O119 1.986 . S
Mg112 O121 2.114 . S
Mg112 O122 2.251 . S
Mg112 O125 2.010 1_455 S
O113 Mg112 2.028 . S
O113 C116 1.250 . S
O114 Mg115 2.028 . S
O114 C116 1.248 . S
Mg115 O114 2.028 . S
Mg115 O120 2.032 . S
Mg115 O122 2.079 . S
C116 O113 1.250 . S
C116 O114 1.248 . S
C117 O118 1.264 . S
C117 O125 1.249 . S
O118 C117 1.264 . S
O119 Mg112 1.986 . S
O119 C123 1.246 . S
O120 Mg115 2.032 . S
O120 C123 1.259 . S
O121 Mg112 2.114 . S
O121 C124 1.252 . S
O122 Mg112 2.251 . S
O122 Mg115 2.079 . S
O122 C124 1.273 . S
C123 O119 1.246 . S
C123 O120 1.259 . S
C124 O121 1.252 . S
C124 O122 1.273 . S
O125 Mg112 2.010 1_655 S
O125 C117 1.249 . S
Mg126 O127 2.028 . S
Mg126 O133 1.936 1_565 S
Mg126 O135 2.114 . S
Mg126 O136 2.251 . S
Mg126 O139 2.010 . S
O127 Mg126 2.028 . S
O127 C130 1.250 . S
O128 Mg129 2.028 . S
O128 C130 1.248 . S
Mg129 O128 2.028 . S
Mg129 O134 2.122 . S
Mg129 O136 2.079 . S
C130 O127 1.250 . S
C130 O128 1.248 . S
C131 O132 1.264 . S
C131 O139 1.249 . S
O132 C131 1.264 . S
O133 Mg126 1.936 1_545 S
O133 C137 1.241 . S
O134 Mg129 2.122 . S
O134 C137 1.181 1_565 S
O135 Mg126 2.114 . S
O135 C138 1.252 . S
O136 Mg126 2.251 . S
O136 Mg129 2.079 . S
O136 C138 1.273 . S
C137 O133 1.241 . S
C137 O134 1.181 1_545 S
C138 O135 1.252 . S
C138 O136 1.273 . S
O139 Mg126 2.010 . S
O139 C131 1.249 . S
Mg140 O141 2.028 . S
Mg140 O147 1.986 . S
Mg140 O149 2.114 . S
Mg140 O150 2.251 . S
Mg140 O153 2.010 1_455 S
O141 Mg140 2.028 . S
O141 C144 1.250 . S
O142 Mg143 2.028 . S
O142 C144 1.248 . S
Mg143 O142 2.028 . S
Mg143 O148 2.032 . S
Mg143 O150 2.079 . S
C144 O141 1.250 . S
C144 O142 1.248 . S
C145 O146 1.264 . S
C145 O153 1.249 . S
O146 C145 1.264 . S
O147 Mg140 1.986 . S
O147 C151 1.246 . S
O148 Mg143 2.032 . S
O148 C151 1.259 . S
O149 Mg140 2.114 . S
O149 C152 1.252 . S
O150 Mg140 2.251 . S
O150 Mg143 2.079 . S
O150 C152 1.273 . S
C151 O147 1.246 . S
C151 O148 1.259 . S
C152 O149 1.252 . S
C152 O150 1.273 . S
O153 Mg140 2.010 1_655 S
O153 C145 1.249 . S
Mg154 O155 2.028 . S
Mg154 O161 1.986 . S
Mg154 O163 2.114 . S
Mg154 O164 2.251 . S
Mg154 O167 2.010 . S
O155 Mg154 2.028 . S
O155 C158 1.250 . S
O156 Mg157 2.028 . S
O156 C158 1.248 . S
Mg157 O156 2.028 . S
Mg157 O162 2.032 . S
Mg157 O164 2.079 . S
C158 O155 1.250 . S
C158 O156 1.248 . S
C159 O160 1.264 . S
C159 O167 1.249 . S
O160 C159 1.264 . S
O161 Mg154 1.986 . S
O161 C165 1.246 . S
O162 Mg157 2.032 . S
O162 C165 1.259 . S
O163 Mg154 2.114 . S
O163 C166 1.252 . S
O164 Mg154 2.251 . S
O164 Mg157 2.079 . S
O164 C166 1.273 . S
C165 O161 1.246 . S
C165 O162 1.259 . S
C166 O163 1.252 . S
C166 O164 1.273 . S
O167 Mg154 2.010 . S
O167 C159 1.249 . S
Mg168 O169 2.028 . S
Mg168 O175 1.986 . S
Mg168 O177 2.114 . S
Mg168 O178 2.251 . S
Mg168 O181 2.010 . S
O169 Mg168 2.028 . S
O169 C172 1.250 . S
O170 Mg171 2.028 . S
O170 C172 1.248 . S
Mg171 O170 2.028 . S
Mg171 O176 2.032 . S
Mg171 O178 2.079 . S
C172 O169 1.250 . S
C172 O170 1.248 . S
C173 O174 1.264 . S
C173 O181 1.249 . S
O174 C173 1.264 . S
O175 Mg168 1.986 . S
O175 C179 1.246 1_545 S
O176 Mg171 2.032 . S
O176 C179 1.259 1_545 S
O177 Mg168 2.114 . S
O177 C180 1.252 . S
O178 Mg168 2.251 . S
O178 Mg171 2.079 . S
O178 C180 1.273 . S
C179 O175 1.246 1_565 S
C179 O176 1.259 1_565 S
C180 O177 1.252 . S
C180 O178 1.273 . S
O181 Mg168 2.010 . S
O181 C173 1.249 . S
Mg182 O183 2.028 . S
Mg182 O189 1.986 . S
Mg182 O191 2.114 . S
Mg182 O192 2.251 . S
Mg182 O195 2.010 1_655 S
O183 Mg182 2.028 . S
O183 C186 1.250 . S
O184 Mg185 2.028 . S
O184 C186 1.248 . S
Mg185 O184 2.028 . S
Mg185 O190 2.032 . S
Mg185 O192 2.079 . S
C186 O183 1.250 . S
C186 O184 1.248 . S
C187 O188 1.264 . S
C187 O195 1.249 . S
O188 C187 1.264 . S
O189 Mg182 1.986 . S
O189 C193 1.246 . S
O190 Mg185 2.032 . S
O190 C193 1.259 . S
O191 Mg182 2.114 . S
O191 C194 1.252 . S
O192 Mg182 2.251 . S
O192 Mg185 2.079 . S
O192 C194 1.273 . S
C193 O189 1.246 . S
C193 O190 1.259 . S
C194 O191 1.252 . S
C194 O192 1.273 . S
O195 Mg182 2.010 1_455 S
O195 C187 1.249 . S
Mg196 O197 2.028 . S
Mg196 O203 1.986 . S
Mg196 O205 2.114 . S
Mg196 O206 2.251 . S
Mg196 O209 2.010 . S
O197 Mg196 2.028 . S
O197 C200 1.250 . S
O198 Mg199 2.028 . S
O198 C200 1.248 . S
Mg199 O198 2.028 . S
Mg199 O204 2.032 . S
Mg199 O206 2.079 . S
C200 O197 1.250 . S
C200 O198 1.248 . S
C201 O202 1.264 . S
C201 O209 1.249 . S
O202 C201 1.264 . S
O203 Mg196 1.986 . S
O203 C207 1.246 . S
O204 Mg199 2.032 . S
O204 C207 1.259 . S
O205 Mg196 2.114 . S
O205 C208 1.252 . S
O206 Mg196 2.251 . S
O206 Mg199 2.079 . S
O206 C208 1.273 . S
C207 O203 1.246 . S
C207 O204 1.259 . S
C208 O205 1.252 . S
C208 O206 1.273 . S
O209 Mg196 2.010 . S
O209 C201 1.249 . S
Mg210 O211 2.028 . S
Mg210 O217 1.986 . S
Mg210 O219 2.114 . S
Mg210 O220 2.251 . S
Mg210 O223 2.010 . S
O211 Mg210 2.028 . S
O211 C214 1.250 . S
O212 Mg213 2.028 . S
O212 C214 1.248 . S
Mg213 O212 2.028 . S
Mg213 O218 2.032 . S
Mg213 O220 2.079 . S
C214 O211 1.250 . S
C214 O212 1.248 . S
C215 O216 1.264 . S
C215 O223 1.249 . S
O216 C215 1.264 . S
O217 Mg210 1.986 . S
O217 C221 1.246 . S
O218 Mg213 2.032 . S
O218 C221 1.259 . S
O219 Mg210 2.114 . S
O219 C222 1.252 . S
O220 Mg210 2.251 . S
O220 Mg213 2.079 . S
O220 C222 1.273 . S
C221 O217 1.246 . S
C221 O218 1.259 . S
C222 O219 1.252 . S
C222 O220 1.273 . S
O223 Mg210 2.010 . S
O223 C215 1.249 . S
Mg224 O225 2.028 . S
Mg224 O231 1.986 1_545 S
Mg224 O233 2.114 . S
Mg224 O234 2.251 . S
Mg224 O237 2.010 . S
O225 Mg224 2.028 . S
O225 C228 1.250 . S
O226 Mg227 2.028 . S
O226 C228 1.248 . S
Mg227 O226 2.028 . S
Mg227 O232 1.988 1_545 S
Mg227 O234 2.079 . S
C228 O225 1.250 . S
C228 O226 1.248 . S
C229 O230 1.264 . S
C229 O237 1.249 . S
O230 C229 1.264 . S
O231 Mg224 1.986 1_565 S
O231 C235 1.246 . S
O232 Mg227 1.988 1_565 S
O232 C235 1.263 . S
O233 Mg224 2.114 . S
O233 C236 1.252 . S
O234 Mg224 2.251 . S
O234 Mg227 2.079 . S
O234 C236 1.273 . S
C235 O231 1.246 . S
C235 O232 1.263 . S
C236 O233 1.252 . S
C236 O234 1.273 . S
O237 Mg224 2.010 . S
O237 C229 1.249 . S
Mg238 O239 2.028 . S
Mg238 O245 1.986 . S
Mg238 O247 2.114 . S
Mg238 O248 2.251 . S
Mg238 O251 2.010 1_655 S
O239 Mg238 2.028 . S
O239 C242 1.250 . S
O240 Mg241 2.028 . S
O240 C242 1.248 . S
Mg241 O240 2.028 . S
Mg241 O246 2.032 . S
Mg241 O248 2.079 . S
C242 O239 1.250 . S
C242 O240 1.248 . S
C243 O244 1.264 . S
C243 O251 1.249 . S
O244 C243 1.264 . S
O245 Mg238 1.986 . S
O245 C249 1.246 . S
O246 Mg241 2.032 . S
O246 C249 1.259 . S
O247 Mg238 2.114 . S
O247 C250 1.252 . S
O248 Mg238 2.251 . S
O248 Mg241 2.079 . S
O248 C250 1.273 . S
C249 O245 1.246 . S
C249 O246 1.259 . S
C250 O247 1.252 . S
C250 O248 1.273 . S
O251 Mg238 2.010 1_455 S
O251 C243 1.249 . S
C252 C253 1.560 . S
C252 H313 0.959 . S
C252 H314 0.959 . S
C252 H315 0.960 . S
C253 C252 1.560 . S
C253 O308 1.426 . S
C253 H312 0.980 . S
C254 C255 1.407 . S
C254 C259 1.418 . S
C254 O308 1.334 . S
C255 C254 1.407 . S
C255 C256 1.360 . S
C255 H316 0.929 . S
C256 C255 1.360 . S
C256 C257 1.401 . S
C256 C260 1.527 . S
C257 C256 1.401 . S
C257 C258 1.405 . S
C257 C290 1.587 . S
C258 C257 1.405 . S
C258 C259 1.332 . S
C258 C261 1.496 . S
C259 C254 1.418 . S
C259 C258 1.332 . S
C259 H317 0.929 . S
C260 C256 1.527 . S
C260 H318 0.959 . S
C260 H319 0.961 . S
C260 H320 0.961 . S
C261 C258 1.496 . S
C261 H321 0.960 . S
C261 H322 0.960 . S
C261 H323 0.961 . S
C262 C263 1.517 . S
C262 H325 0.961 . S
C262 H326 0.960 . S
C262 H327 0.959 . S
C263 C262 1.517 . S
C263 O311 1.468 . S
C263 H324 0.980 . S
C264 C265 1.349 . S
C264 C269 1.367 . S
C264 O311 1.408 . S
C265 C264 1.349 . S
C265 C266 1.407 . S
C265 H328 0.930 . S
C266 C265 1.407 . S
C266 C267 1.449 . S
C266 C270 1.535 . S
C267 C266 1.449 . S
C267 C268 1.384 . S
C267 C292 1.553 . S
C268 C267 1.384 . S
C268 C269 1.364 . S
C268 C271 1.450 . S
C269 C264 1.367 . S
C269 C268 1.364 . S
C269 H329 0.931 . S
C270 C266 1.535 . S
C270 H330 0.959 . S
C270 H331 0.961 . S
C270 H332 0.959 . S
C271 C268 1.450 . S
C271 H333 0.960 . S
C271 H334 0.960 . S
C271 H335 0.960 . S
C272 C273 1.309 . S
C272 C277 1.304 . S
C272 O310 1.435 . S
C273 C272 1.309 . S
C273 C274 1.476 . S
C273 H337 0.930 . S
C274 C273 1.476 . S
C274 C275 1.400 . S
C274 C278 1.567 . S
C275 C274 1.400 . S
C275 C276 1.373 . S
C275 C297 1.432 . S
C276 C275 1.373 . S
C276 C277 1.339 . S
C276 C279 1.530 . S
C277 C272 1.304 . S
C277 C276 1.339 . S
C277 H338 0.930 . S
C278 C274 1.567 . S
C278 H339 0.961 . S
C278 H340 0.960 . S
C278 H341 0.958 . S
C279 C276 1.530 . S
C279 H342 0.961 . S
C279 H343 0.960 . S
C279 H344 0.960 . S
C280 C281 1.530 . S
C280 H346 0.961 . S
C280 H347 0.961 . S
C280 H348 0.959 . S
C281 C280 1.530 . S
C281 O309 1.412 . S
C281 H345 0.980 . S
C282 C283 1.288 . S
C282 C287 1.377 . S
C282 O309 1.393 . S
C283 C282 1.288 . S
C283 C284 1.369 . S
C283 H349 0.932 . S
C284 C283 1.369 . S
C284 C285 1.398 . S
C284 C288 1.527 . S
C285 C284 1.398 . S
C285 C286 1.380 . S
C285 C299 1.497 . S
C286 C285 1.380 . S
C286 C287 1.383 . S
C286 C289 1.603 . S
C287 C282 1.377 . S
C287 C286 1.383 . S
C287 H350 0.929 . S
C288 C284 1.527 . S
C288 H351 0.961 . S
C288 H352 0.959 . S
C288 H353 0.959 . S
C289 C286 1.603 . S
C289 H354 0.960 . S
C289 H355 0.962 . S
C289 H356 0.961 . S
C290 C257 1.587 . S
C290 C291 1.360 . S
C290 C303 1.412 . S
C291 C290 1.360 . S
C291 C292 1.365 . S
C291 H357 0.929 . S
C292 C267 1.553 . S
C292 C291 1.365 . S
C292 C293 1.404 . S
C293 C292 1.404 . S
C293 C294 1.395 . S
C293 C304 1.451 . S
C294 C293 1.395 . S
C294 C295 1.322 . S
C294 H358 0.930 . S
C295 C294 1.322 . S
C295 C296 1.459 . S
C295 H359 0.929 . S
C296 C295 1.459 . S
C296 C297 1.445 . S
C296 C305 1.395 . S
C297 C275 1.432 . S
C297 C296 1.445 . S
C297 C298 1.370 . S
C298 C297 1.370 . S
C298 C299 1.438 . S
C298 H360 0.930 . S
C299 C285 1.497 . S
C299 C298 1.438 . S
C299 C300 1.360 . S
C300 C299 1.360 . S
C300 C301 1.401 . S
C300 C305 1.446 . S
C301 C300 1.401 . S
C301 C302 1.347 . S
C301 H361 0.929 . S
C302 C301 1.347 . S
C302 C303 1.455 . S
C302 H362 0.930 . S
C303 C290 1.412 . S
C303 C302 1.455 . S
C303 C304 1.331 . S
C304 C293 1.451 . S
C304 C303 1.331 . S
C304 C305 1.497 . S
C305 C296 1.395 . S
C305 C300 1.446 . S
C305 C304 1.497 . S
C306 C307 1.582 . S
C306 H363 0.962 . S
C306 H364 0.959 . S
C306 H365 0.958 . S
C307 C306 1.582 . S
C307 O310 1.458 . S
C307 H336 0.980 . S
O308 C253 1.426 . S
O308 C254 1.334 . S
O309 C281 1.412 . S
O309 C282 1.393 . S
O310 C272 1.435 . S
O310 C307 1.458 . S
O311 C263 1.468 . S
O311 C264 1.408 . S
H312 C253 0.980 . S
H313 C252 0.959 . S
H314 C252 0.959 . S
H315 C252 0.960 . S
H316 C255 0.929 . S
H317 C259 0.929 . S
H318 C260 0.959 . S
H319 C260 0.961 . S
H320 C260 0.961 . S
H321 C261 0.960 . S
H322 C261 0.960 . S
H323 C261 0.961 . S
H324 C263 0.980 . S
H325 C262 0.961 . S
H326 C262 0.960 . S
H327 C262 0.959 . S
H328 C265 0.930 . S
H329 C269 0.931 . S
H330 C270 0.959 . S
H331 C270 0.961 . S
H332 C270 0.959 . S
H333 C271 0.960 . S
H334 C271 0.960 . S
H335 C271 0.960 . S
H336 C307 0.980 . S
H337 C273 0.930 . S
H338 C277 0.930 . S
H339 C278 0.961 . S
H340 C278 0.960 . S
H341 C278 0.958 . S
H342 C279 0.961 . S
H343 C279 0.960 . S
H344 C279 0.960 . S
H345 C281 0.980 . S
H346 C280 0.961 . S
H347 C280 0.961 . S
H348 C280 0.959 . S
H349 C283 0.932 . S
H350 C287 0.929 . S
H351 C288 0.961 . S
H352 C288 0.959 . S
H353 C288 0.959 . S
H354 C289 0.960 . S
H355 C289 0.962 . S
H356 C289 0.961 . S
H357 C291 0.929 . S
H358 C294 0.930 . S
H359 C295 0.929 . S
H360 C298 0.930 . S
H361 C301 0.929 . S
H362 C302 0.930 . S
H363 C306 0.962 . S
H364 C306 0.959 . S
H365 C306 0.958 . S
C366 C367 1.560 . S
C366 H427 0.959 . S
C366 H428 0.959 . S
C366 H429 0.960 . S
C367 C366 1.560 . S
C367 O422 1.426 . S
C367 H426 0.980 . S
C368 C369 1.407 . S
C368 C373 1.418 . S
C368 O422 1.334 . S
C369 C368 1.407 . S
C369 C370 1.360 . S
C369 H430 0.929 . S
C370 C369 1.360 . S
C370 C371 1.401 . S
C370 C374 1.527 . S
C371 C370 1.401 . S
C371 C372 1.405 . S
C371 C404 1.587 . S
C372 C371 1.405 . S
C372 C373 1.332 . S
C372 C375 1.496 . S
C373 C368 1.418 . S
C373 C372 1.332 . S
C373 H431 0.929 . S
C374 C370 1.527 . S
C374 H432 0.959 . S
C374 H433 0.961 . S
C374 H434 0.961 . S
C375 C372 1.496 . S
C375 H435 0.960 . S
C375 H436 0.960 . S
C375 H437 0.961 . S
C376 C377 1.517 . S
C376 H439 0.961 . S
C376 H440 0.960 . S
C376 H441 0.959 . S
C377 C376 1.517 . S
C377 O425 1.468 . S
C377 H438 0.980 . S
C378 C379 1.349 . S
C378 C383 1.367 . S
C378 O425 1.408 . S
C379 C378 1.349 . S
C379 C380 1.407 . S
C379 H442 0.930 . S
C380 C379 1.407 . S
C380 C381 1.449 . S
C380 C384 1.535 . S
C381 C380 1.449 . S
C381 C382 1.384 . S
C381 C406 1.553 . S
C382 C381 1.384 . S
C382 C383 1.364 . S
C382 C385 1.450 . S
C383 C378 1.367 . S
C383 C382 1.364 . S
C383 H443 0.931 . S
C384 C380 1.535 . S
C384 H444 0.959 . S
C384 H445 0.961 . S
C384 H446 0.959 . S
C385 C382 1.450 . S
C385 H447 0.960 . S
C385 H448 0.960 . S
C385 H449 0.960 . S
C386 C387 1.309 . S
C386 C391 1.304 . S
C386 O424 1.435 . S
C387 C386 1.309 . S
C387 C388 1.476 . S
C387 H451 0.930 . S
C388 C387 1.476 . S
C388 C389 1.400 . S
C388 C392 1.567 . S
C389 C388 1.400 . S
C389 C390 1.373 . S
C389 C411 1.432 . S
C390 C389 1.373 . S
C390 C391 1.339 . S
C390 C393 1.530 . S
C391 C386 1.304 . S
C391 C390 1.339 . S
C391 H452 0.930 . S
C392 C388 1.567 . S
C392 H453 0.961 . S
C392 H454 0.960 . S
C392 H455 0.958 . S
C393 C390 1.530 . S
C393 H456 0.961 . S
C393 H457 0.960 . S
C393 H458 0.960 . S
C394 C395 1.530 . S
C394 H460 0.961 . S
C394 H461 0.961 . S
C394 H462 0.959 . S
C395 C394 1.530 . S
C395 O423 1.412 . S
C395 H459 0.980 . S
C396 C397 1.288 . S
C396 C401 1.377 . S
C396 O423 1.393 . S
C397 C396 1.288 . S
C397 C398 1.369 . S
C397 H463 0.932 . S
C398 C397 1.369 . S
C398 C399 1.398 . S
C398 C402 1.527 . S
C399 C398 1.398 . S
C399 C400 1.380 . S
C399 C413 1.497 . S
C400 C399 1.380 . S
C400 C401 1.383 . S
C400 C403 1.603 . S
C401 C396 1.377 . S
C401 C400 1.383 . S
C401 H464 0.929 . S
C402 C398 1.527 . S
C402 H465 0.961 . S
C402 H466 0.959 . S
C402 H467 0.959 . S
C403 C400 1.603 . S
C403 H468 0.960 . S
C403 H469 0.962 . S
C403 H470 0.961 . S
C404 C371 1.587 . S
C404 C405 1.360 . S
C404 C417 1.412 . S
C405 C404 1.360 . S
C405 C406 1.365 . S
C405 H471 0.929 . S
C406 C381 1.553 . S
C406 C405 1.365 . S
C406 C407 1.404 . S
C407 C406 1.404 . S
C407 C408 1.395 . S
C407 C418 1.451 . S
C408 C407 1.395 . S
C408 C409 1.322 . S
C408 H472 0.930 . S
C409 C408 1.322 . S
C409 C410 1.459 . S
C409 H473 0.929 . S
C410 C409 1.459 . S
C410 C411 1.445 . S
C410 C419 1.395 . S
C411 C389 1.432 . S
C411 C410 1.445 . S
C411 C412 1.370 . S
C412 C411 1.370 . S
C412 C413 1.438 . S
C412 H474 0.930 . S
C413 C399 1.497 . S
C413 C412 1.438 . S
C413 C414 1.360 . S
C414 C413 1.360 . S
C414 C415 1.401 . S
C414 C419 1.446 . S
C415 C414 1.401 . S
C415 C416 1.347 . S
C415 H475 0.929 . S
C416 C415 1.347 . S
C416 C417 1.455 . S
C416 H476 0.930 . S
C417 C404 1.412 . S
C417 C416 1.455 . S
C417 C418 1.331 . S
C418 C407 1.451 . S
C418 C417 1.331 . S
C418 C419 1.497 . S
C419 C410 1.395 . S
C419 C414 1.446 . S
C419 C418 1.497 . S
C420 C421 1.582 . S
C420 H477 0.962 . S
C420 H478 0.959 . S
C420 H479 0.958 . S
C421 C420 1.582 . S
C421 O424 1.458 . S
C421 H450 0.980 . S
O422 C367 1.426 . S
O422 C368 1.334 . S
O423 C395 1.412 . S
O423 C396 1.393 . S
O424 C386 1.435 . S
O424 C421 1.458 . S
O425 C377 1.468 . S
O425 C378 1.408 . S
H426 C367 0.980 . S
H427 C366 0.959 . S
H428 C366 0.959 . S
H429 C366 0.960 . S
H430 C369 0.929 . S
H431 C373 0.929 . S
H432 C374 0.959 . S
H433 C374 0.961 . S
H434 C374 0.961 . S
H435 C375 0.960 . S
H436 C375 0.960 . S
H437 C375 0.961 . S
H438 C377 0.980 . S
H439 C376 0.961 . S
H440 C376 0.960 . S
H441 C376 0.959 . S
H442 C379 0.930 . S
H443 C383 0.931 . S
H444 C384 0.959 . S
H445 C384 0.961 . S
H446 C384 0.959 . S
H447 C385 0.960 . S
H448 C385 0.960 . S
H449 C385 0.960 . S
H450 C421 0.980 . S
H451 C387 0.930 . S
H452 C391 0.930 . S
H453 C392 0.961 . S
H454 C392 0.960 . S
H455 C392 0.958 . S
H456 C393 0.961 . S
H457 C393 0.960 . S
H458 C393 0.960 . S
H459 C395 0.980 . S
H460 C394 0.961 . S
H461 C394 0.961 . S
H462 C394 0.959 . S
H463 C397 0.932 . S
H464 C401 0.929 . S
H465 C402 0.961 . S
H466 C402 0.959 . S
H467 C402 0.959 . S
H468 C403 0.960 . S
H469 C403 0.962 . S
H470 C403 0.961 . S
H471 C405 0.929 . S
H472 C408 0.930 . S
H473 C409 0.929 . S
H474 C412 0.930 . S
H475 C415 0.929 . S
H476 C416 0.930 . S
H477 C420 0.962 . S
H478 C420 0.959 . S
H479 C420 0.958 . S
C480 C481 1.560 . S
C480 H541 0.959 . S
C480 H542 0.959 . S
C480 H543 0.960 . S
C481 C480 1.560 . S
C481 O536 1.426 . S
C481 H540 0.980 . S
C482 C483 1.407 . S
C482 C487 1.418 . S
C482 O536 1.334 . S
C483 C482 1.407 . S
C483 C484 1.360 . S
C483 H544 0.929 . S
C484 C483 1.360 . S
C484 C485 1.401 . S
C484 C488 1.527 . S
C485 C484 1.401 . S
C485 C486 1.405 . S
C485 C518 1.587 . S
C486 C485 1.405 . S
C486 C487 1.332 . S
C486 C489 1.496 . S
C487 C482 1.418 . S
C487 C486 1.332 . S
C487 H545 0.929 . S
C488 C484 1.527 . S
C488 H546 0.959 . S
C488 H547 0.961 . S
C488 H548 0.961 . S
C489 C486 1.496 . S
C489 H549 0.960 . S
C489 H550 0.960 . S
C489 H551 0.961 . S
C490 C491 1.517 . S
C490 H553 0.961 . S
C490 H554 0.960 . S
C490 H555 0.959 . S
C491 C490 1.517 . S
C491 O539 1.468 . S
C491 H552 0.980 . S
C492 C493 1.349 . S
C492 C497 1.367 . S
C492 O539 1.408 . S
C493 C492 1.349 . S
C493 C494 1.407 . S
C493 H556 0.930 . S
C494 C493 1.407 . S
C494 C495 1.449 . S
C494 C498 1.535 . S
C495 C494 1.449 . S
C495 C496 1.384 . S
C495 C520 1.553 . S
C496 C495 1.384 . S
C496 C497 1.364 . S
C496 C499 1.450 . S
C497 C492 1.367 . S
C497 C496 1.364 . S
C497 H557 0.931 . S
C498 C494 1.535 . S
C498 H558 0.959 . S
C498 H559 0.961 . S
C498 H560 0.959 . S
C499 C496 1.450 . S
C499 H561 0.960 . S
C499 H562 0.960 . S
C499 H563 0.960 . S
C500 C501 1.309 . S
C500 C505 1.304 . S
C500 O538 1.435 . S
C501 C500 1.309 . S
C501 C502 1.476 . S
C501 H565 0.930 . S
C502 C501 1.476 . S
C502 C503 1.400 . S
C502 C506 1.567 . S
C503 C502 1.400 . S
C503 C504 1.373 . S
C503 C525 1.432 . S
C504 C503 1.373 . S
C504 C505 1.339 . S
C504 C507 1.530 . S
C505 C500 1.304 . S
C505 C504 1.339 . S
C505 H566 0.930 . S
C506 C502 1.567 . S
C506 H567 0.961 . S
C506 H568 0.960 . S
C506 H569 0.958 . S
C507 C504 1.530 . S
C507 H570 0.961 . S
C507 H571 0.960 . S
C507 H572 0.960 . S
C508 C509 1.530 . S
C508 H574 0.961 . S
C508 H575 0.961 . S
C508 H576 0.959 . S
C509 C508 1.530 . S
C509 O537 1.412 . S
C509 H573 0.980 . S
C510 C511 1.288 . S
C510 C515 1.377 . S
C510 O537 1.393 . S
C511 C510 1.288 . S
C511 C512 1.369 . S
C511 H577 0.932 . S
C512 C511 1.369 . S
C512 C513 1.398 . S
C512 C516 1.527 . S
C513 C512 1.398 . S
C513 C514 1.380 . S
C513 C527 1.497 . S
C514 C513 1.380 . S
C514 C515 1.383 . S
C514 C517 1.603 . S
C515 C510 1.377 . S
C515 C514 1.383 . S
C515 H578 0.929 . S
C516 C512 1.527 . S
C516 H579 0.961 . S
C516 H580 0.959 . S
C516 H581 0.959 . S
C517 C514 1.603 . S
C517 H582 0.960 . S
C517 H583 0.962 . S
C517 H584 0.961 . S
C518 C485 1.587 . S
C518 C519 1.360 . S
C518 C531 1.412 . S
C519 C518 1.360 . S
C519 C520 1.365 . S
C519 H585 0.929 . S
C520 C495 1.553 . S
C520 C519 1.365 . S
C520 C521 1.404 . S
C521 C520 1.404 . S
C521 C522 1.395 . S
C521 C532 1.451 . S
C522 C521 1.395 . S
C522 C523 1.322 . S
C522 H586 0.930 . S
C523 C522 1.322 . S
C523 C524 1.459 . S
C523 H587 0.929 . S
C524 C523 1.459 . S
C524 C525 1.445 . S
C524 C533 1.395 . S
C525 C503 1.432 . S
C525 C524 1.445 . S
C525 C526 1.370 . S
C526 C525 1.370 . S
C526 C527 1.438 . S
C526 H588 0.930 . S
C527 C513 1.497 . S
C527 C526 1.438 . S
C527 C528 1.360 . S
C528 C527 1.360 . S
C528 C529 1.401 . S
C528 C533 1.446 . S
C529 C528 1.401 . S
C529 C530 1.347 . S
C529 H589 0.929 . S
C530 C529 1.347 . S
C530 C531 1.455 . S
C530 H590 0.930 . S
C531 C518 1.412 . S
C531 C530 1.455 . S
C531 C532 1.331 . S
C532 C521 1.451 . S
C532 C531 1.331 . S
C532 C533 1.497 . S
C533 C524 1.395 . S
C533 C528 1.446 . S
C533 C532 1.497 . S
C534 C535 1.582 . S
C534 H591 0.962 . S
C534 H592 0.959 . S
C534 H593 0.958 . S
C535 C534 1.582 . S
C535 O538 1.458 . S
C535 H564 0.980 . S
O536 C481 1.426 . S
O536 C482 1.334 . S
O537 C509 1.412 . S
O537 C510 1.393 . S
O538 C500 1.435 . S
O538 C535 1.458 . S
O539 C491 1.468 . S
O539 C492 1.408 . S
H540 C481 0.980 . S
H541 C480 0.959 . S
H542 C480 0.959 . S
H543 C480 0.960 . S
H544 C483 0.929 . S
H545 C487 0.929 . S
H546 C488 0.959 . S
H547 C488 0.961 . S
H548 C488 0.961 . S
H549 C489 0.960 . S
H550 C489 0.960 . S
H551 C489 0.961 . S
H552 C491 0.980 . S
H553 C490 0.961 . S
H554 C490 0.960 . S
H555 C490 0.959 . S
H556 C493 0.930 . S
H557 C497 0.931 . S
H558 C498 0.959 . S
H559 C498 0.961 . S
H560 C498 0.959 . S
H561 C499 0.960 . S
H562 C499 0.960 . S
H563 C499 0.960 . S
H564 C535 0.980 . S
H565 C501 0.930 . S
H566 C505 0.930 . S
H567 C506 0.961 . S
H568 C506 0.960 . S
H569 C506 0.958 . S
H570 C507 0.961 . S
H571 C507 0.960 . S
H572 C507 0.960 . S
H573 C509 0.980 . S
H574 C508 0.961 . S
H575 C508 0.961 . S
H576 C508 0.959 . S
H577 C511 0.932 . S
H578 C515 0.929 . S
H579 C516 0.961 . S
H580 C516 0.959 . S
H581 C516 0.959 . S
H582 C517 0.960 . S
H583 C517 0.962 . S
H584 C517 0.961 . S
H585 C519 0.929 . S
H586 C522 0.930 . S
H587 C523 0.929 . S
H588 C526 0.930 . S
H589 C529 0.929 . S
H590 C530 0.930 . S
H591 C534 0.962 . S
H592 C534 0.959 . S
H593 C534 0.958 . S
C594 C595 1.560 . S
C594 H655 0.959 . S
C594 H656 0.959 . S
C594 H657 0.960 . S
C595 C594 1.560 . S
C595 O650 1.426 . S
C595 H654 0.980 . S
C596 C597 1.407 . S
C596 C601 1.418 . S
C596 O650 1.334 . S
C597 C596 1.407 . S
C597 C598 1.360 . S
C597 H658 0.929 . S
C598 C597 1.360 . S
C598 C599 1.401 . S
C598 C602 1.527 . S
C599 C598 1.401 . S
C599 C600 1.405 . S
C599 C632 1.587 . S
C600 C599 1.405 . S
C600 C601 1.332 . S
C600 C603 1.496 . S
C601 C596 1.418 . S
C601 C600 1.332 . S
C601 H659 0.929 . S
C602 C598 1.527 . S
C602 H660 0.959 . S
C602 H661 0.961 . S
C602 H662 0.961 . S
C603 C600 1.496 . S
C603 H663 0.960 . S
C603 H664 0.960 . S
C603 H665 0.961 . S
C604 C605 1.517 . S
C604 H667 0.961 . S
C604 H668 0.960 . S
C604 H669 0.959 . S
C605 C604 1.517 . S
C605 O653 1.468 . S
C605 H666 0.980 . S
C606 C607 1.349 . S
C606 C611 1.367 . S
C606 O653 1.408 . S
C607 C606 1.349 . S
C607 C608 1.407 . S
C607 H670 0.930 . S
C608 C607 1.407 . S
C608 C609 1.449 . S
C608 C612 1.535 . S
C609 C608 1.449 . S
C609 C610 1.384 . S
C609 C634 1.553 . S
C610 C609 1.384 . S
C610 C611 1.364 . S
C610 C613 1.450 . S
C611 C606 1.367 . S
C611 C610 1.364 . S
C611 H671 0.931 . S
C612 C608 1.535 . S
C612 H672 0.959 . S
C612 H673 0.961 . S
C612 H674 0.959 . S
C613 C610 1.450 . S
C613 H675 0.960 . S
C613 H676 0.960 . S
C613 H677 0.960 . S
C614 C615 1.309 . S
C614 C619 1.304 . S
C614 O652 1.435 . S
C615 C614 1.309 . S
C615 C616 1.476 . S
C615 H679 0.930 . S
C616 C615 1.476 . S
C616 C617 1.400 . S
C616 C620 1.567 . S
C617 C616 1.400 . S
C617 C618 1.373 . S
C617 C639 1.432 . S
C618 C617 1.373 . S
C618 C619 1.339 . S
C618 C621 1.530 . S
C619 C614 1.304 . S
C619 C618 1.339 . S
C619 H680 0.930 . S
C620 C616 1.567 . S
C620 H681 0.961 . S
C620 H682 0.960 . S
C620 H683 0.958 . S
C621 C618 1.530 . S
C621 H684 0.961 . S
C621 H685 0.960 . S
C621 H686 0.960 . S
C622 C623 1.530 . S
C622 H688 0.961 . S
C622 H689 0.961 . S
C622 H690 0.959 . S
C623 C622 1.530 . S
C623 O651 1.412 . S
C623 H687 0.980 . S
C624 C625 1.288 . S
C624 C629 1.377 . S
C624 O651 1.393 . S
C625 C624 1.288 . S
C625 C626 1.369 . S
C625 H691 0.932 . S
C626 C625 1.369 . S
C626 C627 1.398 . S
C626 C630 1.527 . S
C627 C626 1.398 . S
C627 C628 1.380 . S
C627 C641 1.497 . S
C628 C627 1.380 . S
C628 C629 1.383 . S
C628 C631 1.603 . S
C629 C624 1.377 . S
C629 C628 1.383 . S
C629 H692 0.929 . S
C630 C626 1.527 . S
C630 H693 0.961 . S
C630 H694 0.959 . S
C630 H695 0.959 . S
C631 C628 1.603 . S
C631 H696 0.960 . S
C631 H697 0.962 . S
C631 H698 0.961 . S
C632 C599 1.587 . S
C632 C633 1.360 . S
C632 C645 1.412 . S
C633 C632 1.360 . S
C633 C634 1.365 . S
C633 H699 0.929 . S
C634 C609 1.553 . S
C634 C633 1.365 . S
C634 C635 1.404 . S
C635 C634 1.404 . S
C635 C636 1.395 . S
C635 C646 1.451 . S
C636 C635 1.395 . S
C636 C637 1.322 . S
C636 H700 0.930 . S
C637 C636 1.322 . S
C637 C638 1.459 . S
C637 H701 0.929 . S
C638 C637 1.459 . S
C638 C639 1.445 . S
C638 C647 1.395 . S
C639 C617 1.432 . S
C639 C638 1.445 . S
C639 C640 1.370 . S
C640 C639 1.370 . S
C640 C641 1.438 . S
C640 H702 0.930 . S
C641 C627 1.497 . S
C641 C640 1.438 . S
C641 C642 1.360 . S
C642 C641 1.360 . S
C642 C643 1.401 . S
C642 C647 1.446 . S
C643 C642 1.401 . S
C643 C644 1.347 . S
C643 H703 0.929 . S
C644 C643 1.347 . S
C644 C645 1.455 . S
C644 H704 0.930 . S
C645 C632 1.412 . S
C645 C644 1.455 . S
C645 C646 1.331 . S
C646 C635 1.451 . S
C646 C645 1.331 . S
C646 C647 1.497 . S
C647 C638 1.395 . S
C647 C642 1.446 . S
C647 C646 1.497 . S
C648 C649 1.582 . S
C648 H705 0.962 . S
C648 H706 0.959 . S
C648 H707 0.958 . S
C649 C648 1.582 . S
C649 O652 1.458 . S
C649 H678 0.980 . S
O650 C595 1.426 . S
O650 C596 1.334 . S
O651 C623 1.412 . S
O651 C624 1.393 . S
O652 C614 1.435 . S
O652 C649 1.458 . S
O653 C605 1.468 . S
O653 C606 1.408 . S
H654 C595 0.980 . S
H655 C594 0.959 . S
H656 C594 0.959 . S
H657 C594 0.960 . S
H658 C597 0.929 . S
H659 C601 0.929 . S
H660 C602 0.959 . S
H661 C602 0.961 . S
H662 C602 0.961 . S
H663 C603 0.960 . S
H664 C603 0.960 . S
H665 C603 0.961 . S
H666 C605 0.980 . S
H667 C604 0.961 . S
H668 C604 0.960 . S
H669 C604 0.959 . S
H670 C607 0.930 . S
H671 C611 0.931 . S
H672 C612 0.959 . S
H673 C612 0.961 . S
H674 C612 0.959 . S
H675 C613 0.960 . S
H676 C613 0.960 . S
H677 C613 0.960 . S
H678 C649 0.980 . S
H679 C615 0.930 . S
H680 C619 0.930 . S
H681 C620 0.961 . S
H682 C620 0.960 . S
H683 C620 0.958 . S
H684 C621 0.961 . S
H685 C621 0.960 . S
H686 C621 0.960 . S
H687 C623 0.980 . S
H688 C622 0.961 . S
H689 C622 0.961 . S
H690 C622 0.959 . S
H691 C625 0.932 . S
H692 C629 0.929 . S
H693 C630 0.961 . S
H694 C630 0.959 . S
H695 C630 0.959 . S
H696 C631 0.960 . S
H697 C631 0.962 . S
H698 C631 0.961 . S
H699 C633 0.929 . S
H700 C636 0.930 . S
H701 C637 0.929 . S
H702 C640 0.930 . S
H703 C643 0.929 . S
H704 C644 0.930 . S
H705 C648 0.962 . S
H706 C648 0.959 . S
H707 C648 0.958 . S
C708 C709 1.560 . S
C708 H769 0.959 . S
C708 H770 0.959 . S
C708 H771 0.960 . S
C709 C708 1.560 . S
C709 O764 1.426 . S
C709 H768 0.980 . S
C710 C711 1.407 . S
C710 C715 1.418 . S
C710 O764 1.334 . S
C711 C710 1.407 . S
C711 C712 1.360 . S
C711 H772 0.929 . S
C712 C711 1.360 . S
C712 C713 1.401 . S
C712 C716 1.527 . S
C713 C712 1.401 . S
C713 C714 1.405 . S
C713 C746 1.587 . S
C714 C713 1.405 . S
C714 C715 1.332 . S
C714 C717 1.496 . S
C715 C710 1.418 . S
C715 C714 1.332 . S
C715 H773 0.929 . S
C716 C712 1.527 . S
C716 H774 0.959 . S
C716 H775 0.961 . S
C716 H776 0.961 . S
C717 C714 1.496 . S
C717 H777 0.960 . S
C717 H778 0.960 . S
C717 H779 0.961 . S
C718 C719 1.517 . S
C718 H781 0.961 . S
C718 H782 0.960 . S
C718 H783 0.959 . S
C719 C718 1.517 . S
C719 O767 1.468 . S
C719 H780 0.980 . S
C720 C721 1.349 . S
C720 C725 1.367 . S
C720 O767 1.408 . S
C721 C720 1.349 . S
C721 C722 1.407 . S
C721 H784 0.930 . S
C722 C721 1.407 . S
C722 C723 1.449 . S
C722 C726 1.535 . S
C723 C722 1.449 . S
C723 C724 1.384 . S
C723 C748 1.553 . S
C724 C723 1.384 . S
C724 C725 1.364 . S
C724 C727 1.450 . S
C725 C720 1.367 . S
C725 C724 1.364 . S
C725 H785 0.931 . S
C726 C722 1.535 . S
C726 H786 0.959 . S
C726 H787 0.961 . S
C726 H788 0.959 . S
C727 C724 1.450 . S
C727 H789 0.960 . S
C727 H790 0.960 . S
C727 H791 0.960 . S
C728 C729 1.309 . S
C728 C733 1.304 . S
C728 O766 1.435 . S
C729 C728 1.309 . S
C729 C730 1.476 . S
C729 H793 0.930 . S
C730 C729 1.476 . S
C730 C731 1.400 . S
C730 C734 1.567 . S
C731 C730 1.400 . S
C731 C732 1.373 . S
C731 C753 1.432 . S
C732 C731 1.373 . S
C732 C733 1.339 . S
C732 C735 1.530 . S
C733 C728 1.304 . S
C733 C732 1.339 . S
C733 H794 0.930 . S
C734 C730 1.567 . S
C734 H795 0.961 . S
C734 H796 0.960 . S
C734 H797 0.958 . S
C735 C732 1.530 . S
C735 H798 0.961 . S
C735 H799 0.960 . S
C735 H800 0.960 . S
C736 C737 1.530 . S
C736 H802 0.961 . S
C736 H803 0.961 . S
C736 H804 0.959 . S
C737 C736 1.530 . S
C737 O765 1.412 . S
C737 H801 0.980 . S
C738 C739 1.288 . S
C738 C743 1.377 . S
C738 O765 1.393 . S
C739 C738 1.288 . S
C739 C740 1.369 . S
C739 H805 0.932 . S
C740 C739 1.369 . S
C740 C741 1.398 . S
C740 C744 1.527 . S
C741 C740 1.398 . S
C741 C742 1.380 . S
C741 C755 1.497 . S
C742 C741 1.380 . S
C742 C743 1.383 . S
C742 C745 1.603 . S
C743 C738 1.377 . S
C743 C742 1.383 . S
C743 H806 0.929 . S
C744 C740 1.527 . S
C744 H807 0.961 . S
C744 H808 0.959 . S
C744 H809 0.959 . S
C745 C742 1.603 . S
C745 H810 0.960 . S
C745 H811 0.962 . S
C745 H812 0.961 . S
C746 C713 1.587 . S
C746 C747 1.360 . S
C746 C759 1.412 . S
C747 C746 1.360 . S
C747 C748 1.365 . S
C747 H813 0.929 . S
C748 C723 1.553 . S
C748 C747 1.365 . S
C748 C749 1.404 . S
C749 C748 1.404 . S
C749 C750 1.395 . S
C749 C760 1.451 . S
C750 C749 1.395 . S
C750 C751 1.322 . S
C750 H814 0.930 . S
C751 C750 1.322 . S
C751 C752 1.459 . S
C751 H815 0.929 . S
C752 C751 1.459 . S
C752 C753 1.445 . S
C752 C761 1.395 . S
C753 C731 1.432 . S
C753 C752 1.445 . S
C753 C754 1.370 . S
C754 C753 1.370 . S
C754 C755 1.438 . S
C754 H816 0.930 . S
C755 C741 1.497 . S
C755 C754 1.438 . S
C755 C756 1.360 . S
C756 C755 1.360 . S
C756 C757 1.401 . S
C756 C761 1.446 . S
C757 C756 1.401 . S
C757 C758 1.347 . S
C757 H817 0.929 . S
C758 C757 1.347 . S
C758 C759 1.455 . S
C758 H818 0.930 . S
C759 C746 1.412 . S
C759 C758 1.455 . S
C759 C760 1.331 . S
C760 C749 1.451 . S
C760 C759 1.331 . S
C760 C761 1.497 . S
C761 C752 1.395 . S
C761 C756 1.446 . S
C761 C760 1.497 . S
C762 C763 1.582 . S
C762 H819 0.962 . S
C762 H820 0.959 . S
C762 H821 0.958 . S
C763 C762 1.582 . S
C763 O766 1.458 . S
C763 H792 0.980 . S
O764 C709 1.426 . S
O764 C710 1.334 . S
O765 C737 1.412 . S
O765 C738 1.393 . S
O766 C728 1.435 . S
O766 C763 1.458 . S
O767 C719 1.468 . S
O767 C720 1.408 . S
H768 C709 0.980 . S
H769 C708 0.959 . S
H770 C708 0.959 . S
H771 C708 0.960 . S
H772 C711 0.929 . S
H773 C715 0.929 . S
H774 C716 0.959 . S
H775 C716 0.961 . S
H776 C716 0.961 . S
H777 C717 0.960 . S
H778 C717 0.960 . S
H779 C717 0.961 . S
H780 C719 0.980 . S
H781 C718 0.961 . S
H782 C718 0.960 . S
H783 C718 0.959 . S
H784 C721 0.930 . S
H785 C725 0.931 . S
H786 C726 0.959 . S
H787 C726 0.961 . S
H788 C726 0.959 . S
H789 C727 0.960 . S
H790 C727 0.960 . S
H791 C727 0.960 . S
H792 C763 0.980 . S
H793 C729 0.930 . S
H794 C733 0.930 . S
H795 C734 0.961 . S
H796 C734 0.960 . S
H797 C734 0.958 . S
H798 C735 0.961 . S
H799 C735 0.960 . S
H800 C735 0.960 . S
H801 C737 0.980 . S
H802 C736 0.961 . S
H803 C736 0.961 . S
H804 C736 0.959 . S
H805 C739 0.932 . S
H806 C743 0.929 . S
H807 C744 0.961 . S
H808 C744 0.959 . S
H809 C744 0.959 . S
H810 C745 0.960 . S
H811 C745 0.962 . S
H812 C745 0.961 . S
H813 C747 0.929 . S
H814 C750 0.930 . S
H815 C751 0.929 . S
H816 C754 0.930 . S
H817 C757 0.929 . S
H818 C758 0.930 . S
H819 C762 0.962 . S
H820 C762 0.959 . S
H821 C762 0.958 . S
C822 C823 1.560 . S
C822 H883 0.959 . S
C822 H884 0.959 . S
C822 H885 0.960 . S
C823 C822 1.560 . S
C823 O878 1.426 . S
C823 H882 0.980 . S
C824 C825 1.407 . S
C824 C829 1.418 . S
C824 O878 1.334 . S
C825 C824 1.407 . S
C825 C826 1.360 . S
C825 H886 0.929 . S
C826 C825 1.360 . S
C826 C827 1.401 . S
C826 C830 1.527 . S
C827 C826 1.401 . S
C827 C828 1.405 . S
C827 C860 1.587 . S
C828 C827 1.405 . S
C828 C829 1.332 . S
C828 C831 1.496 . S
C829 C824 1.418 . S
C829 C828 1.332 . S
C829 H887 0.929 . S
C830 C826 1.527 . S
C830 H888 0.959 . S
C830 H889 0.961 . S
C830 H890 0.961 . S
C831 C828 1.496 . S
C831 H891 0.960 . S
C831 H892 0.960 . S
C831 H893 0.961 . S
C832 C833 1.517 . S
C832 H895 0.961 . S
C832 H896 0.960 . S
C832 H897 0.959 . S
C833 C832 1.517 . S
C833 O881 1.468 . S
C833 H894 0.980 . S
C834 C835 1.349 . S
C834 C839 1.367 . S
C834 O881 1.408 . S
C835 C834 1.349 . S
C835 C836 1.407 . S
C835 H898 0.930 . S
C836 C835 1.407 . S
C836 C837 1.449 . S
C836 C840 1.535 . S
C837 C836 1.449 . S
C837 C838 1.384 . S
C837 C862 1.553 . S
C838 C837 1.384 . S
C838 C839 1.364 . S
C838 C841 1.450 . S
C839 C834 1.367 . S
C839 C838 1.364 . S
C839 H899 0.931 . S
C840 C836 1.535 . S
C840 H900 0.959 . S
C840 H901 0.961 . S
C840 H902 0.959 . S
C841 C838 1.450 . S
C841 H903 0.960 . S
C841 H904 0.960 . S
C841 H905 0.960 . S
C842 C843 1.309 . S
C842 C847 1.304 . S
C842 O880 1.435 . S
C843 C842 1.309 . S
C843 C844 1.476 . S
C843 H907 0.930 . S
C844 C843 1.476 . S
C844 C845 1.400 . S
C844 C848 1.567 . S
C845 C844 1.400 . S
C845 C846 1.373 . S
C845 C867 1.432 . S
C846 C845 1.373 . S
C846 C847 1.339 . S
C846 C849 1.530 . S
C847 C842 1.304 . S
C847 C846 1.339 . S
C847 H908 0.930 . S
C848 C844 1.567 . S
C848 H909 0.961 . S
C848 H910 0.960 . S
C848 H911 0.958 . S
C849 C846 1.530 . S
C849 H912 0.961 . S
C849 H913 0.960 . S
C849 H914 0.960 . S
C850 C851 1.530 . S
C850 H916 0.961 . S
C850 H917 0.961 . S
C850 H918 0.959 . S
C851 C850 1.530 . S
C851 O879 1.412 . S
C851 H915 0.980 . S
C852 C853 1.288 . S
C852 C857 1.377 . S
C852 O879 1.393 . S
C853 C852 1.288 . S
C853 C854 1.369 . S
C853 H919 0.932 . S
C854 C853 1.369 . S
C854 C855 1.398 . S
C854 C858 1.527 . S
C855 C854 1.398 . S
C855 C856 1.380 . S
C855 C869 1.497 . S
C856 C855 1.380 . S
C856 C857 1.383 . S
C856 C859 1.603 . S
C857 C852 1.377 . S
C857 C856 1.383 . S
C857 H920 0.929 . S
C858 C854 1.527 . S
C858 H921 0.961 . S
C858 H922 0.959 . S
C858 H923 0.959 . S
C859 C856 1.603 . S
C859 H924 0.960 . S
C859 H925 0.962 . S
C859 H926 0.961 . S
C860 C827 1.587 . S
C860 C861 1.360 . S
C860 C873 1.412 . S
C861 C860 1.360 . S
C861 C862 1.365 . S
C861 H927 0.929 . S
C862 C837 1.553 . S
C862 C861 1.365 . S
C862 C863 1.404 . S
C863 C862 1.404 . S
C863 C864 1.395 . S
C863 C874 1.451 . S
C864 C863 1.395 . S
C864 C865 1.322 . S
C864 H928 0.930 . S
C865 C864 1.322 . S
C865 C866 1.459 . S
C865 H929 0.929 . S
C866 C865 1.459 . S
C866 C867 1.445 . S
C866 C875 1.395 . S
C867 C845 1.432 . S
C867 C866 1.445 . S
C867 C868 1.370 . S
C868 C867 1.370 . S
C868 C869 1.438 . S
C868 H930 0.930 . S
C869 C855 1.497 . S
C869 C868 1.438 . S
C869 C870 1.360 . S
C870 C869 1.360 . S
C870 C871 1.401 . S
C870 C875 1.446 . S
C871 C870 1.401 . S
C871 C872 1.347 . S
C871 H931 0.929 . S
C872 C871 1.347 . S
C872 C873 1.455 . S
C872 H932 0.930 . S
C873 C860 1.412 . S
C873 C872 1.455 . S
C873 C874 1.331 . S
C874 C863 1.451 . S
C874 C873 1.331 . S
C874 C875 1.497 . S
C875 C866 1.395 . S
C875 C870 1.446 . S
C875 C874 1.497 . S
C876 C877 1.582 . S
C876 H933 0.962 . S
C876 H934 0.959 . S
C876 H935 0.958 . S
C877 C876 1.582 . S
C877 O880 1.458 . S
C877 H906 0.980 . S
O878 C823 1.426 . S
O878 C824 1.334 . S
O879 C851 1.412 . S
O879 C852 1.393 . S
O880 C842 1.435 . S
O880 C877 1.458 . S
O881 C833 1.468 . S
O881 C834 1.408 . S
H882 C823 0.980 . S
H883 C822 0.959 . S
H884 C822 0.959 . S
H885 C822 0.960 . S
H886 C825 0.929 . S
H887 C829 0.929 . S
H888 C830 0.959 . S
H889 C830 0.961 . S
H890 C830 0.961 . S
H891 C831 0.960 . S
H892 C831 0.960 . S
H893 C831 0.961 . S
H894 C833 0.980 . S
H895 C832 0.961 . S
H896 C832 0.960 . S
H897 C832 0.959 . S
H898 C835 0.930 . S
H899 C839 0.931 . S
H900 C840 0.959 . S
H901 C840 0.961 . S
H902 C840 0.959 . S
H903 C841 0.960 . S
H904 C841 0.960 . S
H905 C841 0.960 . S
H906 C877 0.980 . S
H907 C843 0.930 . S
H908 C847 0.930 . S
H909 C848 0.961 . S
H910 C848 0.960 . S
H911 C848 0.958 . S
H912 C849 0.961 . S
H913 C849 0.960 . S
H914 C849 0.960 . S
H915 C851 0.980 . S
H916 C850 0.961 . S
H917 C850 0.961 . S
H918 C850 0.959 . S
H919 C853 0.932 . S
H920 C857 0.929 . S
H921 C858 0.961 . S
H922 C858 0.959 . S
H923 C858 0.959 . S
H924 C859 0.960 . S
H925 C859 0.962 . S
H926 C859 0.961 . S
H927 C861 0.929 . S
H928 C864 0.930 . S
H929 C865 0.929 . S
H930 C868 0.930 . S
H931 C871 0.929 . S
H932 C872 0.930 . S
H933 C876 0.962 . S
H934 C876 0.959 . S
H935 C876 0.958 . S
C936 C937 1.560 . S
C936 H997 0.959 . S
C936 H998 0.959 . S
C936 H999 0.960 . S
C937 C936 1.560 . S
C937 O992 1.426 . S
C937 H996 0.980 . S
C938 C939 1.407 . S
C938 C943 1.418 . S
C938 O992 1.334 . S
C939 C938 1.407 . S
C939 C940 1.360 . S
C939 H1000 0.929 . S
C940 C939 1.360 . S
C940 C941 1.401 . S
C940 C944 1.527 . S
C941 C940 1.401 . S
C941 C942 1.405 . S
C941 C974 1.587 . S
C942 C941 1.405 . S
C942 C943 1.332 . S
C942 C945 1.496 . S
C943 C938 1.418 . S
C943 C942 1.332 . S
C943 H1001 0.929 . S
C944 C940 1.527 . S
C944 H1002 0.959 . S
C944 H1003 0.961 . S
C944 H1004 0.961 . S
C945 C942 1.496 . S
C945 H1005 0.960 . S
C945 H1006 0.960 . S
C945 H1007 0.961 . S
C946 C947 1.517 . S
C946 H1009 0.961 . S
C946 H1010 0.960 . S
C946 H1011 0.959 . S
C947 C946 1.517 . S
C947 O995 1.468 . S
C947 H1008 0.980 . S
C948 C949 1.349 . S
C948 C953 1.367 . S
C948 O995 1.408 . S
C949 C948 1.349 . S
C949 C950 1.407 . S
C949 H1012 0.930 . S
C950 C949 1.407 . S
C950 C951 1.449 . S
C950 C954 1.535 . S
C951 C950 1.449 . S
C951 C952 1.384 . S
C951 C976 1.553 . S
C952 C951 1.384 . S
C952 C953 1.364 . S
C952 C955 1.450 . S
C953 C948 1.367 . S
C953 C952 1.364 . S
C953 H1013 0.931 . S
C954 C950 1.535 . S
C954 H1014 0.959 . S
C954 H1015 0.961 . S
C954 H1016 0.959 . S
C955 C952 1.450 . S
C955 H1017 0.960 . S
C955 H1018 0.960 . S
C955 H1019 0.960 . S
C956 C957 1.309 . S
C956 C961 1.304 . S
C956 O994 1.435 . S
C957 C956 1.309 . S
C957 C958 1.476 . S
C957 H1021 0.930 . S
C958 C957 1.476 . S
C958 C959 1.400 . S
C958 C962 1.567 . S
C959 C958 1.400 . S
C959 C960 1.373 . S
C959 C981 1.432 . S
C960 C959 1.373 . S
C960 C961 1.339 . S
C960 C963 1.530 . S
C961 C956 1.304 . S
C961 C960 1.339 . S
C961 H1022 0.930 . S
C962 C958 1.567 . S
C962 H1023 0.961 . S
C962 H1024 0.960 . S
C962 H1025 0.958 . S
C963 C960 1.530 . S
C963 H1026 0.961 . S
C963 H1027 0.960 . S
C963 H1028 0.960 . S
C964 C965 1.530 . S
C964 H1030 0.961 . S
C964 H1031 0.961 . S
C964 H1032 0.959 . S
C965 C964 1.530 . S
C965 O993 1.412 . S
C965 H1029 0.980 . S
C966 C967 1.288 . S
C966 C971 1.377 . S
C966 O993 1.393 . S
C967 C966 1.288 . S
C967 C968 1.369 . S
C967 H1033 0.932 . S
C968 C967 1.369 . S
C968 C969 1.398 . S
C968 C972 1.527 . S
C969 C968 1.398 . S
C969 C970 1.380 . S
C969 C983 1.497 . S
C970 C969 1.380 . S
C970 C971 1.383 . S
C970 C973 1.603 . S
C971 C966 1.377 . S
C971 C970 1.383 . S
C971 H1034 0.929 . S
C972 C968 1.527 . S
C972 H1035 0.961 . S
C972 H1036 0.959 . S
C972 H1037 0.959 . S
C973 C970 1.603 . S
C973 H1038 0.960 . S
C973 H1039 0.962 . S
C973 H1040 0.961 . S
C974 C941 1.587 . S
C974 C975 1.360 . S
C974 C987 1.412 . S
C975 C974 1.360 . S
C975 C976 1.365 . S
C975 H1041 0.929 . S
C976 C951 1.553 . S
C976 C975 1.365 . S
C976 C977 1.404 . S
C977 C976 1.404 . S
C977 C978 1.395 . S
C977 C988 1.451 . S
C978 C977 1.395 . S
C978 C979 1.322 . S
C978 H1042 0.930 . S
C979 C978 1.322 . S
C979 C980 1.459 . S
C979 H1043 0.929 . S
C980 C979 1.459 . S
C980 C981 1.445 . S
C980 C989 1.395 . S
C981 C959 1.432 . S
C981 C980 1.445 . S
C981 C982 1.370 . S
C982 C981 1.370 . S
C982 C983 1.438 . S
C982 H1044 0.930 . S
C983 C969 1.497 . S
C983 C982 1.438 . S
C983 C984 1.360 . S
C984 C983 1.360 . S
C984 C985 1.401 . S
C984 C989 1.446 . S
C985 C984 1.401 . S
C985 C986 1.347 . S
C985 H1045 0.929 . S
C986 C985 1.347 . S
C986 C987 1.455 . S
C986 H1046 0.930 . S
C987 C974 1.412 . S
C987 C986 1.455 . S
C987 C988 1.331 . S
C988 C977 1.451 . S
C988 C987 1.331 . S
C988 C989 1.497 . S
C989 C980 1.395 . S
C989 C984 1.446 . S
C989 C988 1.497 . S
C990 C991 1.582 . S
C990 H1047 0.962 . S
C990 H1048 0.959 . S
C990 H1049 0.958 . S
C991 C990 1.582 . S
C991 O994 1.458 . S
C991 H1020 0.980 . S
O992 C937 1.426 . S
O992 C938 1.334 . S
O993 C965 1.412 . S
O993 C966 1.393 . S
O994 C956 1.435 . S
O994 C991 1.458 . S
O995 C947 1.468 . S
O995 C948 1.408 . S
H996 C937 0.980 . S
H997 C936 0.959 . S
H998 C936 0.959 . S
H999 C936 0.960 . S
H1000 C939 0.929 . S
H1001 C943 0.929 . S
H1002 C944 0.959 . S
H1003 C944 0.961 . S
H1004 C944 0.961 . S
H1005 C945 0.960 . S
H1006 C945 0.960 . S
H1007 C945 0.961 . S
H1008 C947 0.980 . S
H1009 C946 0.961 . S
H1010 C946 0.960 . S
H1011 C946 0.959 . S
H1012 C949 0.930 . S
H1013 C953 0.931 . S
H1014 C954 0.959 . S
H1015 C954 0.961 . S
H1016 C954 0.959 . S
H1017 C955 0.960 . S
H1018 C955 0.960 . S
H1019 C955 0.960 . S
H1020 C991 0.980 . S
H1021 C957 0.930 . S
H1022 C961 0.930 . S
H1023 C962 0.961 . S
H1024 C962 0.960 . S
H1025 C962 0.958 . S
H1026 C963 0.961 . S
H1027 C963 0.960 . S
H1028 C963 0.960 . S
H1029 C965 0.980 . S
H1030 C964 0.961 . S
H1031 C964 0.961 . S
H1032 C964 0.959 . S
H1033 C967 0.932 . S
H1034 C971 0.929 . S
H1035 C972 0.961 . S
H1036 C972 0.959 . S
H1037 C972 0.959 . S
H1038 C973 0.960 . S
H1039 C973 0.962 . S
H1040 C973 0.961 . S
H1041 C975 0.929 . S
H1042 C978 0.930 . S
H1043 C979 0.929 . S
H1044 C982 0.930 . S
H1045 C985 0.929 . S
H1046 C986 0.930 . S
H1047 C990 0.962 . S
H1048 C990 0.959 . S
H1049 C990 0.958 . S
C1050 C1051 1.560 . S
C1050 H1111 0.959 . S
C1050 H1112 0.959 . S
C1050 H1113 0.960 . S
C1051 C1050 1.560 . S
C1051 O1106 1.426 . S
C1051 H1110 0.980 . S
C1052 C1053 1.407 . S
C1052 C1057 1.418 . S
C1052 O1106 1.334 . S
C1053 C1052 1.407 . S
C1053 C1054 1.360 . S
C1053 H1114 0.929 . S
C1054 C1053 1.360 . S
C1054 C1055 1.401 . S
C1054 C1058 1.527 . S
C1055 C1054 1.401 . S
C1055 C1056 1.405 . S
C1055 C1088 1.587 . S
C1056 C1055 1.405 . S
C1056 C1057 1.332 . S
C1056 C1059 1.496 . S
C1057 C1052 1.418 . S
C1057 C1056 1.332 . S
C1057 H1115 0.929 . S
C1058 C1054 1.527 . S
C1058 H1116 0.959 . S
C1058 H1117 0.961 . S
C1058 H1118 0.961 . S
C1059 C1056 1.496 . S
C1059 H1119 0.960 . S
C1059 H1120 0.960 . S
C1059 H1121 0.961 . S
C1060 C1061 1.517 . S
C1060 H1123 0.961 . S
C1060 H1124 0.960 . S
C1060 H1125 0.959 . S
C1061 C1060 1.517 . S
C1061 O1109 1.468 . S
C1061 H1122 0.980 . S
C1062 C1063 1.349 . S
C1062 C1067 1.367 . S
C1062 O1109 1.408 . S
C1063 C1062 1.349 . S
C1063 C1064 1.407 . S
C1063 H1126 0.930 . S
C1064 C1063 1.407 . S
C1064 C1065 1.449 . S
C1064 C1068 1.535 . S
C1065 C1064 1.449 . S
C1065 C1066 1.384 . S
C1065 C1090 1.553 . S
C1066 C1065 1.384 . S
C1066 C1067 1.364 . S
C1066 C1069 1.450 . S
C1067 C1062 1.367 . S
C1067 C1066 1.364 . S
C1067 H1127 0.931 . S
C1068 C1064 1.535 . S
C1068 H1128 0.959 . S
C1068 H1129 0.961 . S
C1068 H1130 0.959 . S
C1069 C1066 1.450 . S
C1069 H1131 0.960 . S
C1069 H1132 0.960 . S
C1069 H1133 0.960 . S
C1070 C1071 1.309 . S
C1070 C1075 1.304 . S
C1070 O1108 1.435 . S
C1071 C1070 1.309 . S
C1071 C1072 1.476 . S
C1071 H1135 0.930 . S
C1072 C1071 1.476 . S
C1072 C1073 1.400 . S
C1072 C1076 1.567 . S
C1073 C1072 1.400 . S
C1073 C1074 1.373 . S
C1073 C1095 1.432 . S
C1074 C1073 1.373 . S
C1074 C1075 1.339 . S
C1074 C1077 1.530 . S
C1075 C1070 1.304 . S
C1075 C1074 1.339 . S
C1075 H1136 0.930 . S
C1076 C1072 1.567 . S
C1076 H1137 0.961 . S
C1076 H1138 0.960 . S
C1076 H1139 0.958 . S
C1077 C1074 1.530 . S
C1077 H1140 0.961 . S
C1077 H1141 0.960 . S
C1077 H1142 0.960 . S
C1078 C1079 1.530 . S
C1078 H1144 0.961 . S
C1078 H1145 0.961 . S
C1078 H1146 0.959 . S
C1079 C1078 1.530 . S
C1079 O1107 1.412 . S
C1079 H1143 0.980 . S
C1080 C1081 1.288 . S
C1080 C1085 1.377 . S
C1080 O1107 1.393 . S
C1081 C1080 1.288 . S
C1081 C1082 1.369 . S
C1081 H1147 0.932 . S
C1082 C1081 1.369 . S
C1082 C1083 1.398 . S
C1082 C1086 1.527 . S
C1083 C1082 1.398 . S
C1083 C1084 1.380 . S
C1083 C1097 1.497 . S
C1084 C1083 1.380 . S
C1084 C1085 1.383 . S
C1084 C1087 1.603 . S
C1085 C1080 1.377 . S
C1085 C1084 1.383 . S
C1085 H1148 0.929 . S
C1086 C1082 1.527 . S
C1086 H1149 0.961 . S
C1086 H1150 0.959 . S
C1086 H1151 0.959 . S
C1087 C1084 1.603 . S
C1087 H1152 0.960 . S
C1087 H1153 0.962 . S
C1087 H1154 0.961 . S
C1088 C1055 1.587 . S
C1088 C1089 1.360 . S
C1088 C1101 1.412 . S
C1089 C1088 1.360 . S
C1089 C1090 1.365 . S
C1089 H1155 0.929 . S
C1090 C1065 1.553 . S
C1090 C1089 1.365 . S
C1090 C1091 1.404 . S
C1091 C1090 1.404 . S
C1091 C1092 1.395 . S
C1091 C1102 1.451 . S
C1092 C1091 1.395 . S
C1092 C1093 1.322 . S
C1092 H1156 0.930 . S
C1093 C1092 1.322 . S
C1093 C1094 1.459 . S
C1093 H1157 0.929 . S
C1094 C1093 1.459 . S
C1094 C1095 1.445 . S
C1094 C1103 1.395 . S
C1095 C1073 1.432 . S
C1095 C1094 1.445 . S
C1095 C1096 1.370 . S
C1096 C1095 1.370 . S
C1096 C1097 1.438 . S
C1096 H1158 0.930 . S
C1097 C1083 1.497 . S
C1097 C1096 1.438 . S
C1097 C1098 1.360 . S
C1098 C1097 1.360 . S
C1098 C1099 1.401 . S
C1098 C1103 1.446 . S
C1099 C1098 1.401 . S
C1099 C1100 1.347 . S
C1099 H1159 0.929 . S
C1100 C1099 1.347 . S
C1100 C1101 1.455 . S
C1100 H1160 0.930 . S
C1101 C1088 1.412 . S
C1101 C1100 1.455 . S
C1101 C1102 1.331 . S
C1102 C1091 1.451 . S
C1102 C1101 1.331 . S
C1102 C1103 1.497 . S
C1103 C1094 1.395 . S
C1103 C1098 1.446 . S
C1103 C1102 1.497 . S
C1104 C1105 1.582 . S
C1104 H1161 0.962 . S
C1104 H1162 0.959 . S
C1104 H1163 0.958 . S
C1105 C1104 1.582 . S
C1105 O1108 1.458 . S
C1105 H1134 0.980 . S
O1106 C1051 1.426 . S
O1106 C1052 1.334 . S
O1107 C1079 1.412 . S
O1107 C1080 1.393 . S
O1108 C1070 1.435 . S
O1108 C1105 1.458 . S
O1109 C1061 1.468 . S
O1109 C1062 1.408 . S
H1110 C1051 0.980 . S
H1111 C1050 0.959 . S
H1112 C1050 0.959 . S
H1113 C1050 0.960 . S
H1114 C1053 0.929 . S
H1115 C1057 0.929 . S
H1116 C1058 0.959 . S
H1117 C1058 0.961 . S
H1118 C1058 0.961 . S
H1119 C1059 0.960 . S
H1120 C1059 0.960 . S
H1121 C1059 0.961 . S
H1122 C1061 0.980 . S
H1123 C1060 0.961 . S
H1124 C1060 0.960 . S
H1125 C1060 0.959 . S
H1126 C1063 0.930 . S
H1127 C1067 0.931 . S
H1128 C1068 0.959 . S
H1129 C1068 0.961 . S
H1130 C1068 0.959 . S
H1131 C1069 0.960 . S
H1132 C1069 0.960 . S
H1133 C1069 0.960 . S
H1134 C1105 0.980 . S
H1135 C1071 0.930 . S
H1136 C1075 0.930 . S
H1137 C1076 0.961 . S
H1138 C1076 0.960 . S
H1139 C1076 0.958 . S
H1140 C1077 0.961 . S
H1141 C1077 0.960 . S
H1142 C1077 0.960 . S
H1143 C1079 0.980 . S
H1144 C1078 0.961 . S
H1145 C1078 0.961 . S
H1146 C1078 0.959 . S
H1147 C1081 0.932 . S
H1148 C1085 0.929 . S
H1149 C1086 0.961 . S
H1150 C1086 0.959 . S
H1151 C1086 0.959 . S
H1152 C1087 0.960 . S
H1153 C1087 0.962 . S
H1154 C1087 0.961 . S
H1155 C1089 0.929 . S
H1156 C1092 0.930 . S
H1157 C1093 0.929 . S
H1158 C1096 0.930 . S
H1159 C1099 0.929 . S
H1160 C1100 0.930 . S
H1161 C1104 0.962 . S
H1162 C1104 0.959 . S
H1163 C1104 0.958 . S
C1164 C1165 1.560 . S
C1164 H1225 0.959 . S
C1164 H1226 0.959 . S
C1164 H1227 0.960 . S
C1165 C1164 1.560 . S
C1165 O1220 1.426 . S
C1165 H1224 0.980 . S
C1166 C1167 1.407 . S
C1166 C1171 1.418 . S
C1166 O1220 1.334 . S
C1167 C1166 1.407 . S
C1167 C1168 1.360 . S
C1167 H1228 0.929 . S
C1168 C1167 1.360 . S
C1168 C1169 1.401 . S
C1168 C1172 1.527 . S
C1169 C1168 1.401 . S
C1169 C1170 1.405 . S
C1169 C1202 1.587 . S
C1170 C1169 1.405 . S
C1170 C1171 1.332 . S
C1170 C1173 1.496 . S
C1171 C1166 1.418 . S
C1171 C1170 1.332 . S
C1171 H1229 0.929 . S
C1172 C1168 1.527 . S
C1172 H1230 0.959 . S
C1172 H1231 0.961 . S
C1172 H1232 0.961 . S
C1173 C1170 1.496 . S
C1173 H1233 0.960 . S
C1173 H1234 0.960 . S
C1173 H1235 0.961 . S
C1174 C1175 1.517 . S
C1174 H1237 0.961 . S
C1174 H1238 0.960 . S
C1174 H1239 0.959 . S
C1175 C1174 1.517 . S
C1175 O1223 1.468 . S
C1175 H1236 0.980 . S
C1176 C1177 1.349 . S
C1176 C1181 1.367 . S
C1176 O1223 1.408 . S
C1177 C1176 1.349 . S
C1177 C1178 1.407 . S
C1177 H1240 0.930 . S
C1178 C1177 1.407 . S
C1178 C1179 1.449 . S
C1178 C1182 1.535 . S
C1179 C1178 1.449 . S
C1179 C1180 1.384 . S
C1179 C1204 1.553 . S
C1180 C1179 1.384 . S
C1180 C1181 1.364 . S
C1180 C1183 1.450 . S
C1181 C1176 1.367 . S
C1181 C1180 1.364 . S
C1181 H1241 0.931 . S
C1182 C1178 1.535 . S
C1182 H1242 0.959 . S
C1182 H1243 0.961 . S
C1182 H1244 0.959 . S
C1183 C1180 1.450 . S
C1183 H1245 0.960 . S
C1183 H1246 0.960 . S
C1183 H1247 0.960 . S
C1184 C1185 1.309 . S
C1184 C1189 1.304 . S
C1184 O1222 1.435 . S
C1185 C1184 1.309 . S
C1185 C1186 1.476 . S
C1185 H1249 0.930 . S
C1186 C1185 1.476 . S
C1186 C1187 1.400 . S
C1186 C1190 1.567 . S
C1187 C1186 1.400 . S
C1187 C1188 1.373 . S
C1187 C1209 1.432 . S
C1188 C1187 1.373 . S
C1188 C1189 1.339 . S
C1188 C1191 1.530 . S
C1189 C1184 1.304 . S
C1189 C1188 1.339 . S
C1189 H1250 0.930 . S
C1190 C1186 1.567 . S
C1190 H1251 0.961 . S
C1190 H1252 0.960 . S
C1190 H1253 0.958 . S
C1191 C1188 1.530 . S
C1191 H1254 0.961 . S
C1191 H1255 0.960 . S
C1191 H1256 0.960 . S
C1192 C1193 1.530 . S
C1192 H1258 0.961 . S
C1192 H1259 0.961 . S
C1192 H1260 0.959 . S
C1193 C1192 1.530 . S
C1193 O1221 1.412 . S
C1193 H1257 0.980 . S
C1194 C1195 1.288 . S
C1194 C1199 1.377 . S
C1194 O1221 1.393 . S
C1195 C1194 1.288 . S
C1195 C1196 1.369 . S
C1195 H1261 0.932 . S
C1196 C1195 1.369 . S
C1196 C1197 1.398 . S
C1196 C1200 1.527 . S
C1197 C1196 1.398 . S
C1197 C1198 1.380 . S
C1197 C1211 1.497 . S
C1198 C1197 1.380 . S
C1198 C1199 1.383 . S
C1198 C1201 1.603 . S
C1199 C1194 1.377 . S
C1199 C1198 1.383 . S
C1199 H1262 0.929 . S
C1200 C1196 1.527 . S
C1200 H1263 0.961 . S
C1200 H1264 0.959 . S
C1200 H1265 0.959 . S
C1201 C1198 1.603 . S
C1201 H1266 0.960 . S
C1201 H1267 0.962 . S
C1201 H1268 0.961 . S
C1202 C1169 1.587 . S
C1202 C1203 1.360 . S
C1202 C1215 1.412 . S
C1203 C1202 1.360 . S
C1203 C1204 1.365 . S
C1203 H1269 0.929 . S
C1204 C1179 1.553 . S
C1204 C1203 1.365 . S
C1204 C1205 1.404 . S
C1205 C1204 1.404 . S
C1205 C1206 1.395 . S
C1205 C1216 1.451 . S
C1206 C1205 1.395 . S
C1206 C1207 1.322 . S
C1206 H1270 0.930 . S
C1207 C1206 1.322 . S
C1207 C1208 1.459 . S
C1207 H1271 0.929 . S
C1208 C1207 1.459 . S
C1208 C1209 1.445 . S
C1208 C1217 1.395 . S
C1209 C1187 1.432 . S
C1209 C1208 1.445 . S
C1209 C1210 1.370 . S
C1210 C1209 1.370 . S
C1210 C1211 1.438 . S
C1210 H1272 0.930 . S
C1211 C1197 1.497 . S
C1211 C1210 1.438 . S
C1211 C1212 1.360 . S
C1212 C1211 1.360 . S
C1212 C1213 1.401 . S
C1212 C1217 1.446 . S
C1213 C1212 1.401 . S
C1213 C1214 1.347 . S
C1213 H1273 0.929 . S
C1214 C1213 1.347 . S
C1214 C1215 1.455 . S
C1214 H1274 0.930 . S
C1215 C1202 1.412 . S
C1215 C1214 1.455 . S
C1215 C1216 1.331 . S
C1216 C1205 1.451 . S
C1216 C1215 1.331 . S
C1216 C1217 1.497 . S
C1217 C1208 1.395 . S
C1217 C1212 1.446 . S
C1217 C1216 1.497 . S
C1218 C1219 1.582 . S
C1218 H1275 0.962 . S
C1218 H1276 0.959 . S
C1218 H1277 0.958 . S
C1219 C1218 1.582 . S
C1219 O1222 1.458 . S
C1219 H1248 0.980 . S
O1220 C1165 1.426 . S
O1220 C1166 1.334 . S
O1221 C1193 1.412 . S
O1221 C1194 1.393 . S
O1222 C1184 1.435 . S
O1222 C1219 1.458 . S
O1223 C1175 1.468 . S
O1223 C1176 1.408 . S
H1224 C1165 0.980 . S
H1225 C1164 0.959 . S
H1226 C1164 0.959 . S
H1227 C1164 0.960 . S
H1228 C1167 0.929 . S
H1229 C1171 0.929 . S
H1230 C1172 0.959 . S
H1231 C1172 0.961 . S
H1232 C1172 0.961 . S
H1233 C1173 0.960 . S
H1234 C1173 0.960 . S
H1235 C1173 0.961 . S
H1236 C1175 0.980 . S
H1237 C1174 0.961 . S
H1238 C1174 0.960 . S
H1239 C1174 0.959 . S
H1240 C1177 0.930 . S
H1241 C1181 0.931 . S
H1242 C1182 0.959 . S
H1243 C1182 0.961 . S
H1244 C1182 0.959 . S
H1245 C1183 0.960 . S
H1246 C1183 0.960 . S
H1247 C1183 0.960 . S
H1248 C1219 0.980 . S
H1249 C1185 0.930 . S
H1250 C1189 0.930 . S
H1251 C1190 0.961 . S
H1252 C1190 0.960 . S
H1253 C1190 0.958 . S
H1254 C1191 0.961 . S
H1255 C1191 0.960 . S
H1256 C1191 0.960 . S
H1257 C1193 0.980 . S
H1258 C1192 0.961 . S
H1259 C1192 0.961 . S
H1260 C1192 0.959 . S
H1261 C1195 0.932 . S
H1262 C1199 0.929 . S
H1263 C1200 0.961 . S
H1264 C1200 0.959 . S
H1265 C1200 0.959 . S
H1266 C1201 0.960 . S
H1267 C1201 0.962 . S
H1268 C1201 0.961 . S
H1269 C1203 0.929 . S
H1270 C1206 0.930 . S
H1271 C1207 0.929 . S
H1272 C1210 0.930 . S
H1273 C1213 0.929 . S
H1274 C1214 0.930 . S
H1275 C1218 0.962 . S
H1276 C1218 0.959 . S
H1277 C1218 0.958 . S
C1278 C1279 1.560 . S
C1278 H1339 0.959 . S
C1278 H1340 0.959 . S
C1278 H1341 0.960 . S
C1279 C1278 1.560 . S
C1279 O1334 1.426 . S
C1279 H1338 0.980 . S
C1280 C1281 1.407 1_455 S
C1280 C1285 1.418 . S
C1280 O1334 1.334 . S
C1281 C1280 1.407 1_655 S
C1281 C1282 1.360 . S
C1281 H1342 0.929 . S
C1282 C1281 1.360 . S
C1282 C1283 1.385 1_655 S
C1282 C1286 1.527 . S
C1283 C1282 1.385 1_455 S
C1283 C1284 1.487 . S
C1283 C1316 1.526 1_455 S
C1284 C1283 1.487 . S
C1284 C1285 1.332 . S
C1284 C1287 1.496 . S
C1285 C1280 1.418 . S
C1285 C1284 1.332 . S
C1285 H1343 0.929 . S
C1286 C1282 1.527 . S
C1286 H1344 0.959 . S
C1286 H1345 0.961 . S
C1286 H1346 0.961 . S
C1287 C1284 1.496 . S
C1287 H1347 0.960 . S
C1287 H1348 0.960 . S
C1287 H1349 0.961 . S
C1288 C1289 1.517 . S
C1288 H1351 0.961 . S
C1288 H1352 0.960 . S
C1288 H1353 0.959 . S
C1289 C1288 1.517 . S
C1289 O1337 1.468 . S
C1289 H1350 0.957 1_655 S
C1290 C1291 1.349 . S
C1290 C1295 1.367 . S
C1290 O1337 1.408 . S
C1291 C1290 1.349 . S
C1291 C1292 1.413 1_655 S
C1291 H1354 0.930 1_655 S
C1292 C1291 1.413 1_455 S
C1292 C1293 1.453 1_455 S
C1292 C1296 1.527 . S
C1293 C1292 1.453 1_655 S
C1293 C1294 1.384 . S
C1293 C1318 1.553 . S
C1294 C1293 1.384 . S
C1294 C1295 1.364 . S
C1294 C1297 1.450 . S
C1295 C1290 1.367 . S
C1295 C1294 1.364 . S
C1295 H1355 0.931 . S
C1296 C1292 1.527 . S
C1296 H1356 0.959 . S
C1296 H1357 0.961 . S
C1296 H1358 0.959 . S
C1297 C1294 1.450 . S
C1297 H1359 0.960 . S
C1297 H1360 0.960 . S
C1297 H1361 0.960 . S
C1298 C1299 1.309 . S
C1298 C1303 1.304 . S
C1298 O1336 1.435 . S
C1299 C1298 1.309 . S
C1299 C1300 1.446 1_655 S
C1299 H1363 0.930 1_655 S
C1300 C1299 1.446 1_455 S
C1300 C1301 1.382 1_455 S
C1300 C1304 1.615 . S
C1301 C1300 1.382 1_655 S
C1301 C1302 1.373 . S
C1301 C1323 1.432 . S
C1302 C1301 1.373 . S
C1302 C1303 1.339 . S
C1302 C1305 1.530 . S
C1303 C1298 1.304 . S
C1303 C1302 1.339 . S
C1303 H1364 0.930 . S
C1304 C1300 1.615 . S
C1304 H1365 0.961 . S
C1304 H1366 0.960 . S
C1304 H1367 0.958 . S
C1305 C1302 1.530 . S
C1305 H1368 0.961 . S
C1305 H1369 0.960 . S
C1305 H1370 0.960 . S
C1306 C1307 1.616 . S
C1306 H1372 0.961 . S
C1306 H1373 0.961 . S
C1306 H1374 0.959 . S
C1307 C1306 1.616 . S
C1307 O1335 1.432 . S
C1307 H1371 0.959 1_455 S
C1308 C1309 1.288 . S
C1308 C1313 1.377 1_455 S
C1308 O1335 1.393 . S
C1309 C1308 1.288 . S
C1309 C1310 1.369 . S
C1309 H1375 0.932 . S
C1310 C1309 1.369 . S
C1310 C1311 1.341 1_455 S
C1310 C1314 1.527 . S
C1311 C1310 1.341 1_655 S
C1311 C1312 1.398 . S
C1311 C1325 1.536 . S
C1312 C1311 1.398 . S
C1312 C1313 1.383 . S
C1312 C1315 1.603 . S
C1313 C1308 1.377 1_655 S
C1313 C1312 1.383 . S
C1313 H1376 0.929 . S
C1314 C1310 1.527 . S
C1314 H1377 0.961 . S
C1314 H1378 0.959 . S
C1314 H1379 0.959 . S
C1315 C1312 1.603 . S
C1315 H1380 0.960 . S
C1315 H1381 0.962 . S
C1315 H1382 0.961 . S
C1316 C1283 1.526 1_655 S
C1316 C1317 1.360 . S
C1316 C1329 1.412 . S
C1317 C1316 1.360 . S
C1317 C1318 1.365 . S
C1317 H1383 0.929 . S
C1318 C1293 1.553 . S
C1318 C1317 1.365 . S
C1318 C1319 1.404 . S
C1319 C1318 1.404 . S
C1319 C1320 1.395 . S
C1319 C1330 1.451 . S
C1320 C1319 1.395 . S
C1320 C1321 1.322 . S
C1320 H1384 0.930 . S
C1321 C1320 1.322 . S
C1321 C1322 1.459 . S
C1321 H1385 0.929 . S
C1322 C1321 1.459 . S
C1322 C1323 1.445 . S
C1322 C1331 1.395 . S
C1323 C1301 1.432 . S
C1323 C1322 1.445 . S
C1323 C1324 1.370 . S
C1324 C1323 1.370 . S
C1324 C1325 1.438 . S
C1324 H1386 0.930 . S
C1325 C1311 1.536 . S
C1325 C1324 1.438 . S
C1325 C1326 1.360 . S
C1326 C1325 1.360 . S
C1326 C1327 1.401 . S
C1326 C1331 1.446 . S
C1327 C1326 1.401 . S
C1327 C1328 1.347 . S
C1327 H1387 0.985 . S
C1328 C1327 1.347 . S
C1328 C1329 1.455 . S
C1328 H1388 0.930 . S
C1329 C1316 1.412 . S
C1329 C1328 1.455 . S
C1329 C1330 1.331 . S
C1330 C1319 1.451 . S
C1330 C1329 1.331 . S
C1330 C1331 1.497 . S
C1331 C1322 1.395 . S
C1331 C1326 1.446 . S
C1331 C1330 1.497 . S
C1332 C1333 1.582 . S
C1332 H1389 0.962 . S
C1332 H1390 0.959 . S
C1332 H1391 0.958 . S
C1333 C1332 1.582 . S
C1333 O1336 1.458 . S
C1333 H1362 0.980 . S
O1334 C1279 1.426 . S
O1334 C1280 1.334 . S
O1335 C1307 1.432 . S
O1335 C1308 1.393 . S
O1336 C1298 1.435 . S
O1336 C1333 1.458 . S
O1337 C1289 1.468 . S
O1337 C1290 1.408 . S
H1338 C1279 0.980 . S
H1339 C1278 0.959 . S
H1340 C1278 0.959 . S
H1341 C1278 0.960 . S
H1342 C1281 0.929 . S
H1343 C1285 0.929 . S
H1344 C1286 0.959 . S
H1345 C1286 0.961 . S
H1346 C1286 0.961 . S
H1347 C1287 0.960 . S
H1348 C1287 0.960 . S
H1349 C1287 0.961 . S
H1350 C1289 0.957 1_455 S
H1351 C1288 0.961 . S
H1352 C1288 0.960 . S
H1353 C1288 0.959 . S
H1354 C1291 0.930 1_455 S
H1355 C1295 0.931 . S
H1356 C1296 0.959 . S
H1357 C1296 0.961 . S
H1358 C1296 0.959 . S
H1359 C1297 0.960 . S
H1360 C1297 0.960 . S
H1361 C1297 0.960 . S
H1362 C1333 0.980 . S
H1363 C1299 0.930 1_455 S
H1364 C1303 0.930 . S
H1365 C1304 0.961 . S
H1366 C1304 0.960 . S
H1367 C1304 0.958 . S
H1368 C1305 0.961 . S
H1369 C1305 0.960 . S
H1370 C1305 0.960 . S
H1371 C1307 0.959 1_655 S
H1372 C1306 0.961 . S
H1373 C1306 0.961 . S
H1374 C1306 0.959 . S
H1375 C1309 0.932 . S
H1376 C1313 0.929 . S
H1377 C1314 0.961 . S
H1378 C1314 0.959 . S
H1379 C1314 0.959 . S
H1380 C1315 0.960 . S
H1381 C1315 0.962 . S
H1382 C1315 0.961 . S
H1383 C1317 0.929 . S
H1384 C1320 0.930 . S
H1385 C1321 0.929 . S
H1386 C1324 0.930 . S
H1387 C1327 0.985 . S
H1388 C1328 0.930 . S
H1389 C1332 0.962 . S
H1390 C1332 0.959 . S
H1391 C1332 0.958 . S
C1392 C1393 1.560 . S
C1392 H1453 0.959 . S
C1392 H1454 0.959 . S
C1392 H1455 0.960 . S
C1393 C1392 1.560 . S
C1393 O1448 1.426 . S
C1393 H1452 0.980 . S
C1394 C1395 1.407 . S
C1394 C1399 1.418 . S
C1394 O1448 1.334 . S
C1395 C1394 1.407 . S
C1395 C1396 1.360 . S
C1395 H1456 0.929 . S
C1396 C1395 1.360 . S
C1396 C1397 1.401 . S
C1396 C1400 1.527 . S
C1397 C1396 1.401 . S
C1397 C1398 1.405 . S
C1397 C1430 1.587 . S
C1398 C1397 1.405 . S
C1398 C1399 1.332 . S
C1398 C1401 1.496 . S
C1399 C1394 1.418 . S
C1399 C1398 1.332 . S
C1399 H1457 0.929 . S
C1400 C1396 1.527 . S
C1400 H1458 0.959 . S
C1400 H1459 0.961 . S
C1400 H1460 0.961 . S
C1401 C1398 1.496 . S
C1401 H1461 0.960 . S
C1401 H1462 0.960 . S
C1401 H1463 0.961 . S
C1402 C1403 1.517 . S
C1402 H1465 0.961 . S
C1402 H1466 0.960 . S
C1402 H1467 0.959 . S
C1403 C1402 1.517 . S
C1403 O1451 1.468 . S
C1403 H1464 0.980 . S
C1404 C1405 1.349 . S
C1404 C1409 1.367 . S
C1404 O1451 1.408 . S
C1405 C1404 1.349 . S
C1405 C1406 1.407 . S
C1405 H1468 0.930 . S
C1406 C1405 1.407 . S
C1406 C1407 1.449 . S
C1406 C1410 1.535 . S
C1407 C1406 1.449 . S
C1407 C1408 1.384 . S
C1407 C1432 1.553 . S
C1408 C1407 1.384 . S
C1408 C1409 1.364 . S
C1408 C1411 1.450 . S
C1409 C1404 1.367 . S
C1409 C1408 1.364 . S
C1409 H1469 0.931 . S
C1410 C1406 1.535 . S
C1410 H1470 0.959 . S
C1410 H1471 0.961 . S
C1410 H1472 0.959 . S
C1411 C1408 1.450 . S
C1411 H1473 0.960 . S
C1411 H1474 0.960 . S
C1411 H1475 0.960 . S
C1412 C1413 1.309 . S
C1412 C1417 1.304 . S
C1412 O1450 1.435 . S
C1413 C1412 1.309 . S
C1413 C1414 1.476 . S
C1413 H1477 0.930 . S
C1414 C1413 1.476 . S
C1414 C1415 1.400 . S
C1414 C1418 1.567 . S
C1415 C1414 1.400 . S
C1415 C1416 1.373 . S
C1415 C1437 1.432 . S
C1416 C1415 1.373 . S
C1416 C1417 1.339 . S
C1416 C1419 1.530 . S
C1417 C1412 1.304 . S
C1417 C1416 1.339 . S
C1417 H1478 0.930 . S
C1418 C1414 1.567 . S
C1418 H1479 0.961 . S
C1418 H1480 0.960 . S
C1418 H1481 0.958 . S
C1419 C1416 1.530 . S
C1419 H1482 0.961 . S
C1419 H1483 0.960 . S
C1419 H1484 0.960 . S
C1420 C1421 1.530 . S
C1420 H1486 0.961 . S
C1420 H1487 0.961 . S
C1420 H1488 0.959 . S
C1421 C1420 1.530 . S
C1421 O1449 1.412 . S
C1421 H1485 0.980 . S
C1422 C1423 1.288 . S
C1422 C1427 1.377 . S
C1422 O1449 1.393 . S
C1423 C1422 1.288 . S
C1423 C1424 1.369 . S
C1423 H1489 0.932 . S
C1424 C1423 1.369 . S
C1424 C1425 1.398 . S
C1424 C1428 1.527 . S
C1425 C1424 1.398 . S
C1425 C1426 1.380 . S
C1425 C1439 1.497 . S
C1426 C1425 1.380 . S
C1426 C1427 1.383 . S
C1426 C1429 1.603 . S
C1427 C1422 1.377 . S
C1427 C1426 1.383 . S
C1427 H1490 0.929 . S
C1428 C1424 1.527 . S
C1428 H1491 0.961 . S
C1428 H1492 0.959 . S
C1428 H1493 0.959 . S
C1429 C1426 1.603 . S
C1429 H1494 0.960 . S
C1429 H1495 0.962 . S
C1429 H1496 0.961 . S
C1430 C1397 1.587 . S
C1430 C1431 1.360 . S
C1430 C1443 1.412 . S
C1431 C1430 1.360 . S
C1431 C1432 1.365 . S
C1431 H1497 0.929 . S
C1432 C1407 1.553 . S
C1432 C1431 1.365 . S
C1432 C1433 1.404 . S
C1433 C1432 1.404 . S
C1433 C1434 1.395 . S
C1433 C1444 1.451 . S
C1434 C1433 1.395 . S
C1434 C1435 1.322 . S
C1434 H1498 0.930 . S
C1435 C1434 1.322 . S
C1435 C1436 1.459 . S
C1435 H1499 0.929 . S
C1436 C1435 1.459 . S
C1436 C1437 1.445 . S
C1436 C1445 1.395 . S
C1437 C1415 1.432 . S
C1437 C1436 1.445 . S
C1437 C1438 1.370 . S
C1438 C1437 1.370 . S
C1438 C1439 1.438 . S
C1438 H1500 0.930 . S
C1439 C1425 1.497 . S
C1439 C1438 1.438 . S
C1439 C1440 1.360 . S
C1440 C1439 1.360 . S
C1440 C1441 1.401 . S
C1440 C1445 1.446 . S
C1441 C1440 1.401 . S
C1441 C1442 1.347 . S
C1441 H1501 0.929 . S
C1442 C1441 1.347 . S
C1442 C1443 1.455 . S
C1442 H1502 0.930 . S
C1443 C1430 1.412 . S
C1443 C1442 1.455 . S
C1443 C1444 1.331 . S
C1444 C1433 1.451 . S
C1444 C1443 1.331 . S
C1444 C1445 1.497 . S
C1445 C1436 1.395 . S
C1445 C1440 1.446 . S
C1445 C1444 1.497 . S
C1446 C1447 1.582 . S
C1446 H1503 0.962 . S
C1446 H1504 0.959 . S
C1446 H1505 0.958 . S
C1447 C1446 1.582 . S
C1447 O1450 1.458 . S
C1447 H1476 0.980 . S
O1448 C1393 1.426 . S
O1448 C1394 1.334 . S
O1449 C1421 1.412 . S
O1449 C1422 1.393 . S
O1450 C1412 1.435 . S
O1450 C1447 1.458 . S
O1451 C1403 1.468 . S
O1451 C1404 1.408 . S
H1452 C1393 0.980 . S
H1453 C1392 0.959 . S
H1454 C1392 0.959 . S
H1455 C1392 0.960 . S
H1456 C1395 0.929 . S
H1457 C1399 0.929 . S
H1458 C1400 0.959 . S
H1459 C1400 0.961 . S
H1460 C1400 0.961 . S
H1461 C1401 0.960 . S
H1462 C1401 0.960 . S
H1463 C1401 0.961 . S
H1464 C1403 0.980 . S
H1465 C1402 0.961 . S
H1466 C1402 0.960 . S
H1467 C1402 0.959 . S
H1468 C1405 0.930 . S
H1469 C1409 0.931 . S
H1470 C1410 0.959 . S
H1471 C1410 0.961 . S
H1472 C1410 0.959 . S
H1473 C1411 0.960 . S
H1474 C1411 0.960 . S
H1475 C1411 0.960 . S
H1476 C1447 0.980 . S
H1477 C1413 0.930 . S
H1478 C1417 0.930 . S
H1479 C1418 0.961 . S
H1480 C1418 0.960 . S
H1481 C1418 0.958 . S
H1482 C1419 0.961 . S
H1483 C1419 0.960 . S
H1484 C1419 0.960 . S
H1485 C1421 0.980 . S
H1486 C1420 0.961 . S
H1487 C1420 0.961 . S
H1488 C1420 0.959 . S
H1489 C1423 0.932 . S
H1490 C1427 0.929 . S
H1491 C1428 0.961 . S
H1492 C1428 0.959 . S
H1493 C1428 0.959 . S
H1494 C1429 0.960 . S
H1495 C1429 0.962 . S
H1496 C1429 0.961 . S
H1497 C1431 0.929 . S
H1498 C1434 0.930 . S
H1499 C1435 0.929 . S
H1500 C1438 0.930 . S
H1501 C1441 0.929 . S
H1502 C1442 0.930 . S
H1503 C1446 0.962 . S
H1504 C1446 0.959 . S
H1505 C1446 0.958 . S
C1506 C1507 1.560 . S
C1506 H1567 0.959 . S
C1506 H1568 0.959 . S
C1506 H1569 0.960 . S
C1507 C1506 1.560 . S
C1507 O1562 1.426 . S
C1507 H1566 0.980 . S
C1508 C1509 1.407 1_565 S
C1508 C1513 1.418 . S
C1508 O1562 1.334 . S
C1509 C1508 1.407 1_545 S
C1509 C1510 1.360 . S
C1509 H1570 0.929 . S
C1510 C1509 1.360 . S
C1510 C1511 1.401 1_545 S
C1510 C1514 1.527 . S
C1511 C1510 1.401 1_565 S
C1511 C1512 1.405 . S
C1511 C1544 1.587 1_565 S
C1512 C1511 1.405 . S
C1512 C1513 1.332 . S
C1512 C1515 1.496 . S
C1513 C1508 1.418 . S
C1513 C1512 1.332 . S
C1513 H1571 0.929 . S
C1514 C1510 1.527 . S
C1514 H1572 0.959 . S
C1514 H1573 0.961 . S
C1514 H1574 0.961 . S
C1515 C1512 1.496 . S
C1515 H1575 0.960 . S
C1515 H1576 0.960 . S
C1515 H1577 0.961 . S
C1516 C1517 1.517 . S
C1516 H1579 0.926 1_545 S
C1516 H1580 0.960 . S
C1516 H1581 0.959 . S
C1517 C1516 1.517 . S
C1517 O1565 1.468 . S
C1517 H1578 0.980 1_545 S
C1518 C1519 1.407 . S
C1518 C1523 1.367 . S
C1518 O1565 1.408 . S
C1519 C1518 1.407 . S
C1519 C1520 1.442 1_545 S
C1519 H1582 0.841 1_545 S
C1520 C1519 1.442 1_565 S
C1520 C1521 1.449 1_565 S
C1520 C1524 1.535 . S
C1521 C1520 1.449 1_545 S
C1521 C1522 1.384 . S
C1521 C1546 1.553 . S
C1522 C1521 1.384 . S
C1522 C1523 1.364 . S
C1522 C1525 1.450 . S
C1523 C1518 1.367 . S
C1523 C1522 1.364 . S
C1523 H1583 0.931 . S
C1524 C1520 1.535 . S
C1524 H1584 0.959 . S
C1524 H1585 0.961 . S
C1524 H1586 0.959 . S
C1525 C1522 1.450 . S
C1525 H1587 0.960 . S
C1525 H1588 0.960 . S
C1525 H1589 0.960 . S
C1526 C1527 1.309 . S
C1526 C1531 1.304 . S
C1526 O1564 1.435 . S
C1527 C1526 1.309 . S
C1527 C1528 1.483 1_545 S
C1527 H1591 0.930 1_545 S
C1528 C1527 1.483 1_565 S
C1528 C1529 1.376 1_565 S
C1528 C1532 1.583 . S
C1529 C1528 1.376 1_545 S
C1529 C1530 1.373 . S
C1529 C1551 1.432 . S
C1530 C1529 1.373 . S
C1530 C1531 1.339 . S
C1530 C1533 1.530 . S
C1531 C1526 1.304 . S
C1531 C1530 1.339 . S
C1531 H1592 0.930 . S
C1532 C1528 1.583 . S
C1532 H1593 0.961 . S
C1532 H1594 0.960 . S
C1532 H1595 0.958 . S
C1533 C1530 1.530 . S
C1533 H1596 0.961 . S
C1533 H1597 0.960 . S
C1533 H1598 0.960 . S
C1534 C1535 1.522 1_565 S
C1534 H1600 0.961 . S
C1534 H1601 0.961 . S
C1534 H1602 0.959 . S
C1535 C1534 1.522 1_545 S
C1535 O1563 1.333 1_545 S
C1535 H1599 1.022 . S
C1536 C1537 1.288 . S
C1536 C1541 1.377 1_565 S
C1536 O1563 1.393 . S
C1537 C1536 1.288 . S
C1537 C1538 1.369 . S
C1537 H1603 0.932 . S
C1538 C1537 1.369 . S
C1538 C1539 1.398 1_565 S
C1538 C1542 1.527 . S
C1539 C1538 1.398 1_545 S
C1539 C1540 1.380 . S
C1539 C1553 1.497 . S
C1540 C1539 1.380 . S
C1540 C1541 1.383 . S
C1540 C1543 1.603 . S
C1541 C1536 1.377 1_545 S
C1541 C1540 1.383 . S
C1541 H1604 0.929 . S
C1542 C1538 1.527 . S
C1542 H1605 0.961 . S
C1542 H1606 0.959 . S
C1542 H1607 0.959 . S
C1543 C1540 1.603 . S
C1543 H1608 0.960 . S
C1543 H1609 0.962 . S
C1543 H1610 0.961 . S
C1544 C1511 1.587 1_545 S
C1544 C1545 1.360 . S
C1544 C1557 1.412 . S
C1545 C1544 1.360 . S
C1545 C1546 1.365 . S
C1545 H1611 0.929 . S
C1546 C1521 1.553 . S
C1546 C1545 1.365 . S
C1546 C1547 1.404 . S
C1547 C1546 1.404 . S
C1547 C1548 1.395 . S
C1547 C1558 1.451 . S
C1548 C1547 1.395 . S
C1548 C1549 1.322 . S
C1548 H1612 0.930 . S
C1549 C1548 1.322 . S
C1549 C1550 1.459 . S
C1549 H1613 0.929 . S
C1550 C1549 1.459 . S
C1550 C1551 1.445 . S
C1550 C1559 1.395 . S
C1551 C1529 1.432 . S
C1551 C1550 1.445 . S
C1551 C1552 1.370 . S
C1552 C1551 1.370 . S
C1552 C1553 1.438 . S
C1552 H1614 0.930 . S
C1553 C1539 1.497 . S
C1553 C1552 1.438 . S
C1553 C1554 1.360 . S
C1554 C1553 1.360 . S
C1554 C1555 1.401 . S
C1554 C1559 1.446 . S
C1555 C1554 1.401 . S
C1555 C1556 1.347 . S
C1555 H1615 0.929 . S
C1556 C1555 1.347 . S
C1556 C1557 1.455 . S
C1556 H1616 0.930 . S
C1557 C1544 1.412 . S
C1557 C1556 1.455 . S
C1557 C1558 1.331 . S
C1558 C1547 1.451 . S
C1558 C1557 1.331 . S
C1558 C1559 1.497 . S
C1559 C1550 1.395 . S
C1559 C1554 1.446 . S
C1559 C1558 1.497 . S
C1560 C1561 1.582 . S
C1560 H1617 0.962 . S
C1560 H1618 0.959 . S
C1560 H1619 0.958 . S
C1561 C1560 1.582 . S
C1561 O1564 1.458 . S
C1561 H1590 0.980 . S
O1562 C1507 1.426 . S
O1562 C1508 1.334 . S
O1563 C1535 1.333 1_565 S
O1563 C1536 1.393 . S
O1564 C1526 1.435 . S
O1564 C1561 1.458 . S
O1565 C1517 1.468 . S
O1565 C1518 1.408 . S
H1566 C1507 0.980 . S
H1567 C1506 0.959 . S
H1568 C1506 0.959 . S
H1569 C1506 0.960 . S
H1570 C1509 0.929 . S
H1571 C1513 0.929 . S
H1572 C1514 0.959 . S
H1573 C1514 0.961 . S
H1574 C1514 0.961 . S
H1575 C1515 0.960 . S
H1576 C1515 0.960 . S
H1577 C1515 0.961 . S
H1578 C1517 0.980 1_565 S
H1579 C1516 0.926 1_565 S
H1580 C1516 0.960 . S
H1581 C1516 0.959 . S
H1582 C1519 0.841 1_565 S
H1583 C1523 0.931 . S
H1584 C1524 0.959 . S
H1585 C1524 0.961 . S
H1586 C1524 0.959 . S
H1587 C1525 0.960 . S
H1588 C1525 0.960 . S
H1589 C1525 0.960 . S
H1590 C1561 0.980 . S
H1591 C1527 0.930 1_565 S
H1592 C1531 0.930 . S
H1593 C1532 0.961 . S
H1594 C1532 0.960 . S
H1595 C1532 0.958 . S
H1596 C1533 0.961 . S
H1597 C1533 0.960 . S
H1598 C1533 0.960 . S
H1599 C1535 1.022 . S
H1600 C1534 0.961 . S
H1601 C1534 0.961 . S
H1602 C1534 0.959 . S
H1603 C1537 0.932 . S
H1604 C1541 0.929 . S
H1605 C1542 0.961 . S
H1606 C1542 0.959 . S
H1607 C1542 0.959 . S
H1608 C1543 0.960 . S
H1609 C1543 0.962 . S
H1610 C1543 0.961 . S
H1611 C1545 0.929 . S
H1612 C1548 0.930 . S
H1613 C1549 0.929 . S
H1614 C1552 0.930 . S
H1615 C1555 0.929 . S
H1616 C1556 0.930 . S
H1617 C1560 0.962 . S
H1618 C1560 0.959 . S
H1619 C1560 0.958 . S
C1620 C1621 1.560 . S
C1620 H1681 0.959 . S
C1620 H1682 0.959 . S
C1620 H1683 0.960 . S
C1621 C1620 1.560 . S
C1621 O1676 1.426 . S
C1621 H1680 0.980 1_565 S
C1622 C1623 1.407 1_565 S
C1622 C1627 1.418 . S
C1622 O1676 1.334 . S
C1623 C1622 1.407 1_545 S
C1623 C1624 1.360 . S
C1623 H1684 0.929 . S
C1624 C1623 1.360 . S
C1624 C1625 1.401 . S
C1624 C1628 1.527 . S
C1625 C1624 1.401 . S
C1625 C1626 1.405 1_545 S
C1625 C1658 1.587 . S
C1626 C1625 1.405 1_565 S
C1626 C1627 1.332 . S
C1626 C1629 1.496 . S
C1627 C1622 1.418 . S
C1627 C1626 1.332 . S
C1627 H1685 0.929 . S
C1628 C1624 1.527 . S
C1628 H1686 0.959 . S
C1628 H1687 0.961 . S
C1628 H1688 0.961 . S
C1629 C1626 1.496 . S
C1629 H1689 0.960 . S
C1629 H1690 0.960 . S
C1629 H1691 0.961 . S
C1630 C1631 1.517 . S
C1630 H1693 0.961 . S
C1630 H1694 0.960 . S
C1630 H1695 0.959 . S
C1631 C1630 1.517 . S
C1631 O1679 1.468 . S
C1631 H1692 0.980 . S
C1632 C1633 1.349 . S
C1632 C1637 1.367 . S
C1632 O1679 1.408 . S
C1633 C1632 1.349 . S
C1633 C1634 1.407 . S
C1633 H1696 0.909 1_545 S
C1634 C1633 1.407 . S
C1634 C1635 1.449 . S
C1634 C1638 1.535 1_545 S
C1635 C1634 1.449 . S
C1635 C1636 1.384 . S
C1635 C1660 1.553 . S
C1636 C1635 1.384 . S
C1636 C1637 1.364 . S
C1636 C1639 1.450 . S
C1637 C1632 1.367 . S
C1637 C1636 1.364 . S
C1637 H1697 0.931 . S
C1638 C1634 1.535 1_565 S
C1638 H1698 0.959 . S
C1638 H1699 0.961 . S
C1638 H1700 0.959 . S
C1639 C1636 1.450 . S
C1639 H1701 0.960 . S
C1639 H1702 0.960 . S
C1639 H1703 0.960 . S
C1640 C1641 1.309 1_545 S
C1640 C1645 1.304 . S
C1640 O1678 1.435 . S
C1641 C1640 1.309 1_565 S
C1641 C1642 1.476 . S
C1641 H1705 0.930 . S
C1642 C1641 1.476 . S
C1642 C1643 1.400 1_565 S
C1642 C1646 1.567 . S
C1643 C1642 1.400 1_545 S
C1643 C1644 1.373 . S
C1643 C1665 1.432 . S
C1644 C1643 1.373 . S
C1644 C1645 1.339 . S
C1644 C1647 1.530 . S
C1645 C1640 1.304 . S
C1645 C1644 1.339 . S
C1645 H1706 0.930 . S
C1646 C1642 1.567 . S
C1646 H1707 0.961 . S
C1646 H1708 0.960 . S
C1646 H1709 0.958 . S
C1647 C1644 1.530 . S
C1647 H1710 0.961 . S
C1647 H1711 0.960 . S
C1647 H1712 0.960 . S
C1648 C1649 1.530 . S
C1648 H1714 0.961 . S
C1648 H1715 0.961 . S
C1648 H1716 0.959 . S
C1649 C1648 1.530 . S
C1649 O1677 1.412 . S
C1649 H1713 0.978 1_565 S
C1650 C1651 1.288 . S
C1650 C1655 1.377 1_565 S
C1650 O1677 1.393 . S
C1651 C1650 1.288 . S
C1651 C1652 1.369 . S
C1651 H1717 0.932 . S
C1652 C1651 1.369 . S
C1652 C1653 1.398 . S
C1652 C1656 1.527 . S
C1653 C1652 1.398 . S
C1653 C1654 1.380 1_565 S
C1653 C1667 1.497 1_565 S
C1654 C1653 1.380 1_545 S
C1654 C1655 1.383 . S
C1654 C1657 1.603 . S
C1655 C1650 1.377 1_545 S
C1655 C1654 1.383 . S
C1655 H1718 0.929 . S
C1656 C1652 1.527 . S
C1656 H1719 0.961 . S
C1656 H1720 0.959 . S
C1656 H1721 0.959 . S
C1657 C1654 1.603 . S
C1657 H1722 0.960 . S
C1657 H1723 0.962 . S
C1657 H1724 0.961 . S
C1658 C1625 1.587 . S
C1658 C1659 1.360 . S
C1658 C1671 1.412 . S
C1659 C1658 1.360 . S
C1659 C1660 1.365 . S
C1659 H1725 0.929 . S
C1660 C1635 1.553 . S
C1660 C1659 1.365 . S
C1660 C1661 1.404 . S
C1661 C1660 1.404 . S
C1661 C1662 1.395 . S
C1661 C1672 1.451 . S
C1662 C1661 1.395 . S
C1662 C1663 1.322 . S
C1662 H1726 0.930 . S
C1663 C1662 1.322 . S
C1663 C1664 1.459 . S
C1663 H1727 0.929 . S
C1664 C1663 1.459 . S
C1664 C1665 1.445 . S
C1664 C1673 1.395 . S
C1665 C1643 1.432 . S
C1665 C1664 1.445 . S
C1665 C1666 1.370 . S
C1666 C1665 1.370 . S
C1666 C1667 1.438 . S
C1666 H1728 0.930 . S
C1667 C1653 1.497 1_545 S
C1667 C1666 1.438 . S
C1667 C1668 1.360 . S
C1668 C1667 1.360 . S
C1668 C1669 1.401 . S
C1668 C1673 1.446 . S
C1669 C1668 1.401 . S
C1669 C1670 1.347 . S
C1669 H1729 0.982 . S
C1670 C1669 1.347 . S
C1670 C1671 1.455 . S
C1670 H1730 0.930 . S
C1671 C1658 1.412 . S
C1671 C1670 1.455 . S
C1671 C1672 1.331 . S
C1672 C1661 1.451 . S
C1672 C1671 1.331 . S
C1672 C1673 1.497 . S
C1673 C1664 1.395 . S
C1673 C1668 1.446 . S
C1673 C1672 1.497 . S
C1674 C1675 1.630 . S
C1674 H1731 0.962 . S
C1674 H1732 0.959 . S
C1674 H1733 0.958 . S
C1675 C1674 1.630 . S
C1675 O1678 1.478 . S
C1675 H1704 0.981 1_545 S
O1676 C1621 1.426 . S
O1676 C1622 1.334 . S
O1677 C1649 1.412 . S
O1677 C1650 1.393 . S
O1678 C1640 1.435 . S
O1678 C1675 1.478 . S
O1679 C1631 1.468 . S
O1679 C1632 1.408 . S
H1680 C1621 0.980 1_545 S
H1681 C1620 0.959 . S
H1682 C1620 0.959 . S
H1683 C1620 0.960 . S
H1684 C1623 0.929 . S
H1685 C1627 0.929 . S
H1686 C1628 0.959 . S
H1687 C1628 0.961 . S
H1688 C1628 0.961 . S
H1689 C1629 0.960 . S
H1690 C1629 0.960 . S
H1691 C1629 0.961 . S
H1692 C1631 0.980 . S
H1693 C1630 0.961 . S
H1694 C1630 0.960 . S
H1695 C1630 0.959 . S
H1696 C1633 0.909 1_565 S
H1697 C1637 0.931 . S
H1698 C1638 0.959 . S
H1699 C1638 0.961 . S
H1700 C1638 0.959 . S
H1701 C1639 0.960 . S
H1702 C1639 0.960 . S
H1703 C1639 0.960 . S
H1704 C1675 0.981 1_565 S
H1705 C1641 0.930 . S
H1706 C1645 0.930 . S
H1707 C1646 0.961 . S
H1708 C1646 0.960 . S
H1709 C1646 0.958 . S
H1710 C1647 0.961 . S
H1711 C1647 0.960 . S
H1712 C1647 0.960 . S
H1713 C1649 0.978 1_545 S
H1714 C1648 0.961 . S
H1715 C1648 0.961 . S
H1716 C1648 0.959 . S
H1717 C1651 0.932 . S
H1718 C1655 0.929 . S
H1719 C1656 0.961 . S
H1720 C1656 0.959 . S
H1721 C1656 0.959 . S
H1722 C1657 0.960 . S
H1723 C1657 0.962 . S
H1724 C1657 0.961 . S
H1725 C1659 0.929 . S
H1726 C1662 0.930 . S
H1727 C1663 0.929 . S
H1728 C1666 0.930 . S
H1729 C1669 0.982 . S
H1730 C1670 0.930 . S
H1731 C1674 0.962 . S
H1732 C1674 0.959 . S
H1733 C1674 0.958 . S
C1734 C1735 1.560 . S
C1734 H1795 0.959 . S
C1734 H1796 0.959 . S
C1734 H1797 0.960 . S
C1735 C1734 1.560 . S
C1735 O1790 1.426 . S
C1735 H1794 0.980 1_455 S
C1736 C1737 1.407 1_455 S
C1736 C1741 1.418 . S
C1736 O1790 1.334 . S
C1737 C1736 1.407 1_655 S
C1737 C1738 1.360 . S
C1737 H1798 0.929 . S
C1738 C1737 1.360 . S
C1738 C1739 1.401 . S
C1738 C1742 1.527 . S
C1739 C1738 1.401 . S
C1739 C1740 1.405 1_655 S
C1739 C1772 1.587 . S
C1740 C1739 1.405 1_455 S
C1740 C1741 1.332 . S
C1740 C1743 1.496 . S
C1741 C1736 1.418 . S
C1741 C1740 1.332 . S
C1741 H1799 0.929 . S
C1742 C1738 1.527 . S
C1742 H1800 0.959 . S
C1742 H1801 0.961 . S
C1742 H1802 0.961 . S
C1743 C1740 1.496 . S
C1743 H1803 0.960 . S
C1743 H1804 0.960 . S
C1743 H1805 0.961 . S
C1744 C1745 1.517 . S
C1744 H1807 0.961 . S
C1744 H1808 0.960 . S
C1744 H1809 0.959 . S
C1745 C1744 1.517 . S
C1745 O1793 1.468 . S
C1745 H1806 0.980 . S
C1746 C1747 1.349 . S
C1746 C1751 1.367 . S
C1746 O1793 1.408 . S
C1747 C1746 1.349 . S
C1747 C1748 1.407 . S
C1747 H1810 0.874 1_655 S
C1748 C1747 1.407 . S
C1748 C1749 1.449 . S
C1748 C1752 1.535 1_655 S
C1749 C1748 1.449 . S
C1749 C1750 1.384 . S
C1749 C1774 1.553 . S
C1750 C1749 1.384 . S
C1750 C1751 1.364 . S
C1750 C1753 1.450 . S
C1751 C1746 1.367 . S
C1751 C1750 1.364 . S
C1751 H1811 0.931 . S
C1752 C1748 1.535 1_455 S
C1752 H1812 0.959 . S
C1752 H1813 0.961 . S
C1752 H1814 0.959 . S
C1753 C1750 1.450 . S
C1753 H1815 0.960 . S
C1753 H1816 0.960 . S
C1753 H1817 0.960 . S
C1754 C1755 1.309 1_655 S
C1754 C1759 1.304 . S
C1754 O1792 1.435 . S
C1755 C1754 1.309 1_455 S
C1755 C1756 1.476 . S
C1755 H1819 0.930 . S
C1756 C1755 1.476 . S
C1756 C1757 1.400 1_455 S
C1756 C1760 1.567 . S
C1757 C1756 1.400 1_655 S
C1757 C1758 1.373 . S
C1757 C1779 1.432 . S
C1758 C1757 1.373 . S
C1758 C1759 1.339 . S
C1758 C1761 1.530 . S
C1759 C1754 1.304 . S
C1759 C1758 1.339 . S
C1759 H1820 0.930 . S
C1760 C1756 1.567 . S
C1760 H1821 0.961 . S
C1760 H1822 0.960 . S
C1760 H1823 0.958 . S
C1761 C1758 1.530 . S
C1761 H1824 0.961 . S
C1761 H1825 0.960 . S
C1761 H1826 0.960 . S
C1762 C1763 1.530 . S
C1762 H1828 0.961 . S
C1762 H1829 0.961 . S
C1762 H1830 0.959 . S
C1763 C1762 1.530 . S
C1763 O1791 1.412 . S
C1763 H1827 0.957 1_455 S
C1764 C1765 1.288 . S
C1764 C1769 1.377 1_455 S
C1764 O1791 1.393 . S
C1765 C1764 1.288 . S
C1765 C1766 1.369 . S
C1765 H1831 0.932 . S
C1766 C1765 1.369 . S
C1766 C1767 1.398 . S
C1766 C1770 1.527 . S
C1767 C1766 1.398 . S
C1767 C1768 1.380 1_455 S
C1767 C1781 1.497 1_455 S
C1768 C1767 1.380 1_655 S
C1768 C1769 1.383 . S
C1768 C1771 1.603 . S
C1769 C1764 1.377 1_655 S
C1769 C1768 1.383 . S
C1769 H1832 0.929 . S
C1770 C1766 1.527 . S
C1770 H1833 0.961 . S
C1770 H1834 0.959 . S
C1770 H1835 0.959 . S
C1771 C1768 1.603 . S
C1771 H1836 0.960 . S
C1771 H1837 0.962 . S
C1771 H1838 0.961 . S
C1772 C1739 1.587 . S
C1772 C1773 1.360 . S
C1772 C1785 1.412 . S
C1773 C1772 1.360 . S
C1773 C1774 1.365 . S
C1773 H1839 0.929 . S
C1774 C1749 1.553 . S
C1774 C1773 1.365 . S
C1774 C1775 1.404 . S
C1775 C1774 1.404 . S
C1775 C1776 1.395 . S
C1775 C1786 1.451 . S
C1776 C1775 1.395 . S
C1776 C1777 1.322 . S
C1776 H1840 0.930 . S
C1777 C1776 1.322 . S
C1777 C1778 1.459 . S
C1777 H1841 0.929 . S
C1778 C1777 1.459 . S
C1778 C1779 1.445 . S
C1778 C1787 1.395 . S
C1779 C1757 1.432 . S
C1779 C1778 1.445 . S
C1779 C1780 1.370 . S
C1780 C1779 1.370 . S
C1780 C1781 1.438 . S
C1780 H1842 0.930 . S
C1781 C1767 1.497 1_655 S
C1781 C1780 1.438 . S
C1781 C1782 1.360 . S
C1782 C1781 1.360 . S
C1782 C1783 1.401 . S
C1782 C1787 1.446 . S
C1783 C1782 1.401 . S
C1783 C1784 1.347 . S
C1783 H1843 0.929 . S
C1784 C1783 1.347 . S
C1784 C1785 1.455 . S
C1784 H1844 0.930 . S
C1785 C1772 1.412 . S
C1785 C1784 1.455 . S
C1785 C1786 1.331 . S
C1786 C1775 1.451 . S
C1786 C1785 1.331 . S
C1786 C1787 1.497 . S
C1787 C1778 1.395 . S
C1787 C1782 1.446 . S
C1787 C1786 1.497 . S
C1788 C1789 1.581 1_655 S
C1788 H1845 0.965 . S
C1788 H1846 0.959 . S
C1788 H1847 0.958 . S
C1789 C1788 1.581 1_455 S
C1789 O1792 1.407 1_455 S
C1789 H1818 1.002 . S
O1790 C1735 1.426 . S
O1790 C1736 1.334 . S
O1791 C1763 1.412 . S
O1791 C1764 1.393 . S
O1792 C1754 1.435 . S
O1792 C1789 1.407 1_655 S
O1793 C1745 1.468 . S
O1793 C1746 1.408 . S
H1794 C1735 0.980 1_655 S
H1795 C1734 0.959 . S
H1796 C1734 0.959 . S
H1797 C1734 0.960 . S
H1798 C1737 0.929 . S
H1799 C1741 0.929 . S
H1800 C1742 0.959 . S
H1801 C1742 0.961 . S
H1802 C1742 0.961 . S
H1803 C1743 0.960 . S
H1804 C1743 0.960 . S
H1805 C1743 0.961 . S
H1806 C1745 0.980 . S
H1807 C1744 0.961 . S
H1808 C1744 0.960 . S
H1809 C1744 0.959 . S
H1810 C1747 0.874 1_455 S
H1811 C1751 0.931 . S
H1812 C1752 0.959 . S
H1813 C1752 0.961 . S
H1814 C1752 0.959 . S
H1815 C1753 0.960 . S
H1816 C1753 0.960 . S
H1817 C1753 0.960 . S
H1818 C1789 1.002 . S
H1819 C1755 0.930 . S
H1820 C1759 0.930 . S
H1821 C1760 0.961 . S
H1822 C1760 0.960 . S
H1823 C1760 0.958 . S
H1824 C1761 0.961 . S
H1825 C1761 0.960 . S
H1826 C1761 0.960 . S
H1827 C1763 0.957 1_655 S
H1828 C1762 0.961 . S
H1829 C1762 0.961 . S
H1830 C1762 0.959 . S
H1831 C1765 0.932 . S
H1832 C1769 0.929 . S
H1833 C1770 0.961 . S
H1834 C1770 0.959 . S
H1835 C1770 0.959 . S
H1836 C1771 0.960 . S
H1837 C1771 0.962 . S
H1838 C1771 0.961 . S
H1839 C1773 0.929 . S
H1840 C1776 0.930 . S
H1841 C1777 0.929 . S
H1842 C1780 0.930 . S
H1843 C1783 0.929 . S
H1844 C1784 0.930 . S
H1845 C1788 0.965 . S
H1846 C1788 0.959 . S
H1847 C1788 0.958 . S
C1848 C1849 1.560 . S
C1848 H1909 0.959 . S
C1848 H1910 0.959 . S
C1848 H1911 0.960 . S
C1849 C1848 1.560 . S
C1849 O1904 1.426 . S
C1849 H1908 0.980 . S
C1850 C1851 1.407 . S
C1850 C1855 1.418 . S
C1850 O1904 1.334 . S
C1851 C1850 1.407 . S
C1851 C1852 1.360 . S
C1851 H1912 0.929 . S
C1852 C1851 1.360 . S
C1852 C1853 1.401 . S
C1852 C1856 1.527 . S
C1853 C1852 1.401 . S
C1853 C1854 1.405 . S
C1853 C1886 1.587 . S
C1854 C1853 1.405 . S
C1854 C1855 1.332 . S
C1854 C1857 1.496 . S
C1855 C1850 1.418 . S
C1855 C1854 1.332 . S
C1855 H1913 0.929 . S
C1856 C1852 1.527 . S
C1856 H1914 0.959 . S
C1856 H1915 0.961 . S
C1856 H1916 0.961 . S
C1857 C1854 1.496 . S
C1857 H1917 0.960 . S
C1857 H1918 0.960 . S
C1857 H1919 0.961 . S
C1858 C1859 1.517 . S
C1858 H1921 0.961 . S
C1858 H1922 0.960 . S
C1858 H1923 0.959 . S
C1859 C1858 1.517 . S
C1859 O1907 1.468 . S
C1859 H1920 0.980 . S
C1860 C1861 1.349 . S
C1860 C1865 1.367 . S
C1860 O1907 1.408 . S
C1861 C1860 1.349 . S
C1861 C1862 1.407 . S
C1861 H1924 0.930 . S
C1862 C1861 1.407 . S
C1862 C1863 1.449 . S
C1862 C1866 1.535 . S
C1863 C1862 1.449 . S
C1863 C1864 1.384 . S
C1863 C1888 1.553 . S
C1864 C1863 1.384 . S
C1864 C1865 1.364 . S
C1864 C1867 1.450 . S
C1865 C1860 1.367 . S
C1865 C1864 1.364 . S
C1865 H1925 0.931 . S
C1866 C1862 1.535 . S
C1866 H1926 0.959 . S
C1866 H1927 0.961 . S
C1866 H1928 0.959 . S
C1867 C1864 1.450 . S
C1867 H1929 0.960 . S
C1867 H1930 0.960 . S
C1867 H1931 0.960 . S
C1868 C1869 1.309 . S
C1868 C1873 1.304 . S
C1868 O1906 1.435 . S
C1869 C1868 1.309 . S
C1869 C1870 1.476 . S
C1869 H1933 0.930 . S
C1870 C1869 1.476 . S
C1870 C1871 1.400 . S
C1870 C1874 1.567 . S
C1871 C1870 1.400 . S
C1871 C1872 1.373 . S
C1871 C1893 1.432 . S
C1872 C1871 1.373 . S
C1872 C1873 1.339 . S
C1872 C1875 1.530 . S
C1873 C1868 1.304 . S
C1873 C1872 1.339 . S
C1873 H1934 0.930 . S
C1874 C1870 1.567 . S
C1874 H1935 0.961 . S
C1874 H1936 0.960 . S
C1874 H1937 0.958 . S
C1875 C1872 1.530 . S
C1875 H1938 0.961 . S
C1875 H1939 0.960 . S
C1875 H1940 0.960 . S
C1876 C1877 1.530 . S
C1876 H1942 0.961 . S
C1876 H1943 0.961 . S
C1876 H1944 0.959 . S
C1877 C1876 1.530 . S
C1877 O1905 1.412 . S
C1877 H1941 0.980 . S
C1878 C1879 1.288 . S
C1878 C1883 1.377 . S
C1878 O1905 1.393 . S
C1879 C1878 1.288 . S
C1879 C1880 1.369 . S
C1879 H1945 0.932 . S
C1880 C1879 1.369 . S
C1880 C1881 1.398 . S
C1880 C1884 1.527 . S
C1881 C1880 1.398 . S
C1881 C1882 1.380 . S
C1881 C1895 1.497 . S
C1882 C1881 1.380 . S
C1882 C1883 1.383 . S
C1882 C1885 1.603 . S
C1883 C1878 1.377 . S
C1883 C1882 1.383 . S
C1883 H1946 0.929 . S
C1884 C1880 1.527 . S
C1884 H1947 0.961 . S
C1884 H1948 0.959 . S
C1884 H1949 0.959 . S
C1885 C1882 1.603 . S
C1885 H1950 0.960 . S
C1885 H1951 0.962 . S
C1885 H1952 0.961 . S
C1886 C1853 1.587 . S
C1886 C1887 1.360 . S
C1886 C1899 1.412 . S
C1887 C1886 1.360 . S
C1887 C1888 1.365 . S
C1887 H1953 0.929 . S
C1888 C1863 1.553 . S
C1888 C1887 1.365 . S
C1888 C1889 1.404 . S
C1889 C1888 1.404 . S
C1889 C1890 1.395 . S
C1889 C1900 1.451 . S
C1890 C1889 1.395 . S
C1890 C1891 1.322 . S
C1890 H1954 0.930 . S
C1891 C1890 1.322 . S
C1891 C1892 1.459 . S
C1891 H1955 0.929 . S
C1892 C1891 1.459 . S
C1892 C1893 1.445 . S
C1892 C1901 1.395 . S
C1893 C1871 1.432 . S
C1893 C1892 1.445 . S
C1893 C1894 1.370 . S
C1894 C1893 1.370 . S
C1894 C1895 1.438 . S
C1894 H1956 0.930 . S
C1895 C1881 1.497 . S
C1895 C1894 1.438 . S
C1895 C1896 1.360 . S
C1896 C1895 1.360 . S
C1896 C1897 1.401 . S
C1896 C1901 1.446 . S
C1897 C1896 1.401 . S
C1897 C1898 1.347 . S
C1897 H1957 0.929 . S
C1898 C1897 1.347 . S
C1898 C1899 1.455 . S
C1898 H1958 0.930 . S
C1899 C1886 1.412 . S
C1899 C1898 1.455 . S
C1899 C1900 1.331 . S
C1900 C1889 1.451 . S
C1900 C1899 1.331 . S
C1900 C1901 1.497 . S
C1901 C1892 1.395 . S
C1901 C1896 1.446 . S
C1901 C1900 1.497 . S
C1902 C1903 1.582 . S
C1902 H1959 0.962 . S
C1902 H1960 0.959 . S
C1902 H1961 0.958 . S
C1903 C1902 1.582 . S
C1903 O1906 1.458 . S
C1903 H1932 0.980 . S
O1904 C1849 1.426 . S
O1904 C1850 1.334 . S
O1905 C1877 1.412 . S
O1905 C1878 1.393 . S
O1906 C1868 1.435 . S
O1906 C1903 1.458 . S
O1907 C1859 1.468 . S
O1907 C1860 1.408 . S
H1908 C1849 0.980 . S
H1909 C1848 0.959 . S
H1910 C1848 0.959 . S
H1911 C1848 0.960 . S
H1912 C1851 0.929 . S
H1913 C1855 0.929 . S
H1914 C1856 0.959 . S
H1915 C1856 0.961 . S
H1916 C1856 0.961 . S
H1917 C1857 0.960 . S
H1918 C1857 0.960 . S
H1919 C1857 0.961 . S
H1920 C1859 0.980 . S
H1921 C1858 0.961 . S
H1922 C1858 0.960 . S
H1923 C1858 0.959 . S
H1924 C1861 0.930 . S
H1925 C1865 0.931 . S
H1926 C1866 0.959 . S
H1927 C1866 0.961 . S
H1928 C1866 0.959 . S
H1929 C1867 0.960 . S
H1930 C1867 0.960 . S
H1931 C1867 0.960 . S
H1932 C1903 0.980 . S
H1933 C1869 0.930 . S
H1934 C1873 0.930 . S
H1935 C1874 0.961 . S
H1936 C1874 0.960 . S
H1937 C1874 0.958 . S
H1938 C1875 0.961 . S
H1939 C1875 0.960 . S
H1940 C1875 0.960 . S
H1941 C1877 0.980 . S
H1942 C1876 0.961 . S
H1943 C1876 0.961 . S
H1944 C1876 0.959 . S
H1945 C1879 0.932 . S
H1946 C1883 0.929 . S
H1947 C1884 0.961 . S
H1948 C1884 0.959 . S
H1949 C1884 0.959 . S
H1950 C1885 0.960 . S
H1951 C1885 0.962 . S
H1952 C1885 0.961 . S
H1953 C1887 0.929 . S
H1954 C1890 0.930 . S
H1955 C1891 0.929 . S
H1956 C1894 0.930 . S
H1957 C1897 0.929 . S
H1958 C1898 0.930 . S
H1959 C1902 0.962 . S
H1960 C1902 0.959 . S
H1961 C1902 0.958 . S
C1962 C1963 1.560 . S
C1962 H2023 0.959 . S
C1962 H2024 0.959 . S
C1962 H2025 0.960 . S
C1963 C1962 1.560 . S
C1963 O2018 1.426 . S
C1963 H2022 0.980 . S
C1964 C1965 1.407 . S
C1964 C1969 1.418 . S
C1964 O2018 1.334 . S
C1965 C1964 1.407 . S
C1965 C1966 1.360 . S
C1965 H2026 0.929 . S
C1966 C1965 1.360 . S
C1966 C1967 1.401 . S
C1966 C1970 1.527 . S
C1967 C1966 1.401 . S
C1967 C1968 1.405 . S
C1967 C2000 1.587 . S
C1968 C1967 1.405 . S
C1968 C1969 1.332 . S
C1968 C1971 1.496 . S
C1969 C1964 1.418 . S
C1969 C1968 1.332 . S
C1969 H2027 0.929 . S
C1970 C1966 1.527 . S
C1970 H2028 0.959 . S
C1970 H2029 0.961 . S
C1970 H2030 0.961 . S
C1971 C1968 1.496 . S
C1971 H2031 0.960 . S
C1971 H2032 0.960 . S
C1971 H2033 0.961 . S
C1972 C1973 1.517 . S
C1972 H2035 0.961 . S
C1972 H2036 0.960 . S
C1972 H2037 0.959 . S
C1973 C1972 1.517 . S
C1973 O2021 1.468 . S
C1973 H2034 0.980 . S
C1974 C1975 1.349 . S
C1974 C1979 1.367 . S
C1974 O2021 1.408 . S
C1975 C1974 1.349 . S
C1975 C1976 1.407 . S
C1975 H2038 0.930 . S
C1976 C1975 1.407 . S
C1976 C1977 1.449 . S
C1976 C1980 1.535 . S
C1977 C1976 1.449 . S
C1977 C1978 1.384 . S
C1977 C2002 1.553 . S
C1978 C1977 1.384 . S
C1978 C1979 1.364 . S
C1978 C1981 1.450 . S
C1979 C1974 1.367 . S
C1979 C1978 1.364 . S
C1979 H2039 0.931 . S
C1980 C1976 1.535 . S
C1980 H2040 0.959 . S
C1980 H2041 0.961 . S
C1980 H2042 0.959 . S
C1981 C1978 1.450 . S
C1981 H2043 0.960 . S
C1981 H2044 0.960 . S
C1981 H2045 0.960 . S
C1982 C1983 1.309 . S
C1982 C1987 1.304 . S
C1982 O2020 1.435 . S
C1983 C1982 1.309 . S
C1983 C1984 1.476 . S
C1983 H2047 0.930 . S
C1984 C1983 1.476 . S
C1984 C1985 1.400 . S
C1984 C1988 1.567 . S
C1985 C1984 1.400 . S
C1985 C1986 1.373 . S
C1985 C2007 1.432 . S
C1986 C1985 1.373 . S
C1986 C1987 1.339 . S
C1986 C1989 1.530 . S
C1987 C1982 1.304 . S
C1987 C1986 1.339 . S
C1987 H2048 0.930 . S
C1988 C1984 1.567 . S
C1988 H2049 0.961 . S
C1988 H2050 0.960 . S
C1988 H2051 0.958 . S
C1989 C1986 1.530 . S
C1989 H2052 0.961 . S
C1989 H2053 0.960 . S
C1989 H2054 0.960 . S
C1990 C1991 1.530 . S
C1990 H2056 0.961 . S
C1990 H2057 0.961 . S
C1990 H2058 0.959 . S
C1991 C1990 1.530 . S
C1991 O2019 1.412 . S
C1991 H2055 0.980 . S
C1992 C1993 1.288 . S
C1992 C1997 1.377 . S
C1992 O2019 1.393 . S
C1993 C1992 1.288 . S
C1993 C1994 1.369 . S
C1993 H2059 0.932 . S
C1994 C1993 1.369 . S
C1994 C1995 1.398 . S
C1994 C1998 1.527 . S
C1995 C1994 1.398 . S
C1995 C1996 1.380 . S
C1995 C2009 1.497 . S
C1996 C1995 1.380 . S
C1996 C1997 1.383 . S
C1996 C1999 1.603 . S
C1997 C1992 1.377 . S
C1997 C1996 1.383 . S
C1997 H2060 0.929 . S
C1998 C1994 1.527 . S
C1998 H2061 0.961 . S
C1998 H2062 0.959 . S
C1998 H2063 0.959 . S
C1999 C1996 1.603 . S
C1999 H2064 0.960 . S
C1999 H2065 0.962 . S
C1999 H2066 0.961 . S
C2000 C1967 1.587 . S
C2000 C2001 1.360 . S
C2000 C2013 1.412 . S
C2001 C2000 1.360 . S
C2001 C2002 1.365 . S
C2001 H2067 0.929 . S
C2002 C1977 1.553 . S
C2002 C2001 1.365 . S
C2002 C2003 1.404 . S
C2003 C2002 1.404 . S
C2003 C2004 1.395 . S
C2003 C2014 1.451 . S
C2004 C2003 1.395 . S
C2004 C2005 1.322 . S
C2004 H2068 0.930 . S
C2005 C2004 1.322 . S
C2005 C2006 1.459 . S
C2005 H2069 0.929 . S
C2006 C2005 1.459 . S
C2006 C2007 1.445 . S
C2006 C2015 1.395 . S
C2007 C1985 1.432 . S
C2007 C2006 1.445 . S
C2007 C2008 1.370 . S
C2008 C2007 1.370 . S
C2008 C2009 1.438 . S
C2008 H2070 0.930 . S
C2009 C1995 1.497 . S
C2009 C2008 1.438 . S
C2009 C2010 1.360 . S
C2010 C2009 1.360 . S
C2010 C2011 1.401 . S
C2010 C2015 1.446 . S
C2011 C2010 1.401 . S
C2011 C2012 1.347 . S
C2011 H2071 0.929 . S
C2012 C2011 1.347 . S
C2012 C2013 1.455 . S
C2012 H2072 0.930 . S
C2013 C2000 1.412 . S
C2013 C2012 1.455 . S
C2013 C2014 1.331 . S
C2014 C2003 1.451 . S
C2014 C2013 1.331 . S
C2014 C2015 1.497 . S
C2015 C2006 1.395 . S
C2015 C2010 1.446 . S
C2015 C2014 1.497 . S
C2016 C2017 1.582 . S
C2016 H2073 0.962 . S
C2016 H2074 0.959 . S
C2016 H2075 0.958 . S
C2017 C2016 1.582 . S
C2017 O2020 1.458 . S
C2017 H2046 0.980 . S
O2018 C1963 1.426 . S
O2018 C1964 1.334 . S
O2019 C1991 1.412 . S
O2019 C1992 1.393 . S
O2020 C1982 1.435 . S
O2020 C2017 1.458 . S
O2021 C1973 1.468 . S
O2021 C1974 1.408 . S
H2022 C1963 0.980 . S
H2023 C1962 0.959 . S
H2024 C1962 0.959 . S
H2025 C1962 0.960 . S
H2026 C1965 0.929 . S
H2027 C1969 0.929 . S
H2028 C1970 0.959 . S
H2029 C1970 0.961 . S
H2030 C1970 0.961 . S
H2031 C1971 0.960 . S
H2032 C1971 0.960 . S
H2033 C1971 0.961 . S
H2034 C1973 0.980 . S
H2035 C1972 0.961 . S
H2036 C1972 0.960 . S
H2037 C1972 0.959 . S
H2038 C1975 0.930 . S
H2039 C1979 0.931 . S
H2040 C1980 0.959 . S
H2041 C1980 0.961 . S
H2042 C1980 0.959 . S
H2043 C1981 0.960 . S
H2044 C1981 0.960 . S
H2045 C1981 0.960 . S
H2046 C2017 0.980 . S
H2047 C1983 0.930 . S
H2048 C1987 0.930 . S
H2049 C1988 0.961 . S
H2050 C1988 0.960 . S
H2051 C1988 0.958 . S
H2052 C1989 0.961 . S
H2053 C1989 0.960 . S
H2054 C1989 0.960 . S
H2055 C1991 0.980 . S
H2056 C1990 0.961 . S
H2057 C1990 0.961 . S
H2058 C1990 0.959 . S
H2059 C1993 0.932 . S
H2060 C1997 0.929 . S
H2061 C1998 0.961 . S
H2062 C1998 0.959 . S
H2063 C1998 0.959 . S
H2064 C1999 0.960 . S
H2065 C1999 0.962 . S
H2066 C1999 0.961 . S
H2067 C2001 0.929 . S
H2068 C2004 0.930 . S
H2069 C2005 0.929 . S
H2070 C2008 0.930 . S
H2071 C2011 0.929 . S
H2072 C2012 0.930 . S
H2073 C2016 0.962 . S
H2074 C2016 0.959 . S
H2075 C2016 0.958 . S
C2076 C2077 1.560 . S
C2076 H2137 0.959 . S
C2076 H2138 0.959 . S
C2076 H2139 0.960 . S
C2077 C2076 1.560 . S
C2077 O2132 1.426 . S
C2077 H2136 0.980 . S
C2078 C2079 1.407 . S
C2078 C2083 1.418 . S
C2078 O2132 1.334 . S
C2079 C2078 1.407 . S
C2079 C2080 1.360 . S
C2079 H2140 0.929 . S
C2080 C2079 1.360 . S
C2080 C2081 1.401 . S
C2080 C2084 1.527 . S
C2081 C2080 1.401 . S
C2081 C2082 1.405 . S
C2081 C2114 1.587 . S
C2082 C2081 1.405 . S
C2082 C2083 1.332 . S
C2082 C2085 1.496 . S
C2083 C2078 1.418 . S
C2083 C2082 1.332 . S
C2083 H2141 0.929 . S
C2084 C2080 1.527 . S
C2084 H2142 0.959 . S
C2084 H2143 0.961 . S
C2084 H2144 0.961 . S
C2085 C2082 1.496 . S
C2085 H2145 0.960 . S
C2085 H2146 0.960 . S
C2085 H2147 0.961 . S
C2086 C2087 1.517 . S
C2086 H2149 0.961 . S
C2086 H2150 0.960 . S
C2086 H2151 0.959 . S
C2087 C2086 1.517 . S
C2087 O2135 1.468 . S
C2087 H2148 0.980 . S
C2088 C2089 1.349 . S
C2088 C2093 1.367 . S
C2088 O2135 1.408 . S
C2089 C2088 1.349 . S
C2089 C2090 1.407 . S
C2089 H2152 0.930 . S
C2090 C2089 1.407 . S
C2090 C2091 1.449 . S
C2090 C2094 1.535 . S
C2091 C2090 1.449 . S
C2091 C2092 1.384 . S
C2091 C2116 1.553 . S
C2092 C2091 1.384 . S
C2092 C2093 1.364 . S
C2092 C2095 1.450 . S
C2093 C2088 1.367 . S
C2093 C2092 1.364 . S
C2093 H2153 0.931 . S
C2094 C2090 1.535 . S
C2094 H2154 0.959 . S
C2094 H2155 0.961 . S
C2094 H2156 0.959 . S
C2095 C2092 1.450 . S
C2095 H2157 0.960 . S
C2095 H2158 0.960 . S
C2095 H2159 0.960 . S
C2096 C2097 1.309 . S
C2096 C2101 1.304 . S
C2096 O2134 1.435 . S
C2097 C2096 1.309 . S
C2097 C2098 1.476 . S
C2097 H2161 0.930 . S
C2098 C2097 1.476 . S
C2098 C2099 1.400 . S
C2098 C2102 1.567 . S
C2099 C2098 1.400 . S
C2099 C2100 1.373 . S
C2099 C2121 1.432 . S
C2100 C2099 1.373 . S
C2100 C2101 1.339 . S
C2100 C2103 1.530 . S
C2101 C2096 1.304 . S
C2101 C2100 1.339 . S
C2101 H2162 0.930 . S
C2102 C2098 1.567 . S
C2102 H2163 0.961 . S
C2102 H2164 0.960 . S
C2102 H2165 0.958 . S
C2103 C2100 1.530 . S
C2103 H2166 0.961 . S
C2103 H2167 0.960 . S
C2103 H2168 0.960 . S
C2104 C2105 1.530 . S
C2104 H2170 0.961 . S
C2104 H2171 0.961 . S
C2104 H2172 0.959 . S
C2105 C2104 1.530 . S
C2105 O2133 1.412 . S
C2105 H2169 0.980 . S
C2106 C2107 1.288 . S
C2106 C2111 1.377 . S
C2106 O2133 1.393 . S
C2107 C2106 1.288 . S
C2107 C2108 1.369 . S
C2107 H2173 0.932 . S
C2108 C2107 1.369 . S
C2108 C2109 1.398 . S
C2108 C2112 1.527 . S
C2109 C2108 1.398 . S
C2109 C2110 1.380 . S
C2109 C2123 1.497 . S
C2110 C2109 1.380 . S
C2110 C2111 1.383 . S
C2110 C2113 1.603 . S
C2111 C2106 1.377 . S
C2111 C2110 1.383 . S
C2111 H2174 0.929 . S
C2112 C2108 1.527 . S
C2112 H2175 0.961 . S
C2112 H2176 0.959 . S
C2112 H2177 0.959 . S
C2113 C2110 1.603 . S
C2113 H2178 0.960 . S
C2113 H2179 0.962 . S
C2113 H2180 0.961 . S
C2114 C2081 1.587 . S
C2114 C2115 1.360 . S
C2114 C2127 1.412 . S
C2115 C2114 1.360 . S
C2115 C2116 1.365 . S
C2115 H2181 0.929 . S
C2116 C2091 1.553 . S
C2116 C2115 1.365 . S
C2116 C2117 1.404 . S
C2117 C2116 1.404 . S
C2117 C2118 1.395 . S
C2117 C2128 1.451 . S
C2118 C2117 1.395 . S
C2118 C2119 1.322 . S
C2118 H2182 0.930 . S
C2119 C2118 1.322 . S
C2119 C2120 1.459 . S
C2119 H2183 0.929 . S
C2120 C2119 1.459 . S
C2120 C2121 1.445 . S
C2120 C2129 1.395 . S
C2121 C2099 1.432 . S
C2121 C2120 1.445 . S
C2121 C2122 1.370 . S
C2122 C2121 1.370 . S
C2122 C2123 1.438 . S
C2122 H2184 0.930 . S
C2123 C2109 1.497 . S
C2123 C2122 1.438 . S
C2123 C2124 1.360 . S
C2124 C2123 1.360 . S
C2124 C2125 1.401 . S
C2124 C2129 1.446 . S
C2125 C2124 1.401 . S
C2125 C2126 1.347 . S
C2125 H2185 0.929 . S
C2126 C2125 1.347 . S
C2126 C2127 1.455 . S
C2126 H2186 0.930 . S
C2127 C2114 1.412 . S
C2127 C2126 1.455 . S
C2127 C2128 1.331 . S
C2128 C2117 1.451 . S
C2128 C2127 1.331 . S
C2128 C2129 1.497 . S
C2129 C2120 1.395 . S
C2129 C2124 1.446 . S
C2129 C2128 1.497 . S
C2130 C2131 1.582 . S
C2130 H2187 0.962 . S
C2130 H2188 0.959 . S
C2130 H2189 0.958 . S
C2131 C2130 1.582 . S
C2131 O2134 1.458 . S
C2131 H2160 0.980 . S
O2132 C2077 1.426 . S
O2132 C2078 1.334 . S
O2133 C2105 1.412 . S
O2133 C2106 1.393 . S
O2134 C2096 1.435 . S
O2134 C2131 1.458 . S
O2135 C2087 1.468 . S
O2135 C2088 1.408 . S
H2136 C2077 0.980 . S
H2137 C2076 0.959 . S
H2138 C2076 0.959 . S
H2139 C2076 0.960 . S
H2140 C2079 0.929 . S
H2141 C2083 0.929 . S
H2142 C2084 0.959 . S
H2143 C2084 0.961 . S
H2144 C2084 0.961 . S
H2145 C2085 0.960 . S
H2146 C2085 0.960 . S
H2147 C2085 0.961 . S
H2148 C2087 0.980 . S
H2149 C2086 0.961 . S
H2150 C2086 0.960 . S
H2151 C2086 0.959 . S
H2152 C2089 0.930 . S
H2153 C2093 0.931 . S
H2154 C2094 0.959 . S
H2155 C2094 0.961 . S
H2156 C2094 0.959 . S
H2157 C2095 0.960 . S
H2158 C2095 0.960 . S
H2159 C2095 0.960 . S
H2160 C2131 0.980 . S
H2161 C2097 0.930 . S
H2162 C2101 0.930 . S
H2163 C2102 0.961 . S
H2164 C2102 0.960 . S
H2165 C2102 0.958 . S
H2166 C2103 0.961 . S
H2167 C2103 0.960 . S
H2168 C2103 0.960 . S
H2169 C2105 0.980 . S
H2170 C2104 0.961 . S
H2171 C2104 0.961 . S
H2172 C2104 0.959 . S
H2173 C2107 0.932 . S
H2174 C2111 0.929 . S
H2175 C2112 0.961 . S
H2176 C2112 0.959 . S
H2177 C2112 0.959 . S
H2178 C2113 0.960 . S
H2179 C2113 0.962 . S
H2180 C2113 0.961 . S
H2181 C2115 0.929 . S
H2182 C2118 0.930 . S
H2183 C2119 0.929 . S
H2184 C2122 0.930 . S
H2185 C2125 0.929 . S
H2186 C2126 0.930 . S
H2187 C2130 0.962 . S
H2188 C2130 0.959 . S
H2189 C2130 0.958 . S
C2190 C2191 1.560 . S
C2190 H2251 0.959 . S
C2190 H2252 0.959 . S
C2190 H2253 0.960 . S
C2191 C2190 1.560 . S
C2191 O2246 1.426 . S
C2191 H2250 0.980 . S
C2192 C2193 1.407 . S
C2192 C2197 1.418 . S
C2192 O2246 1.334 . S
C2193 C2192 1.407 . S
C2193 C2194 1.360 . S
C2193 H2254 0.929 . S
C2194 C2193 1.360 . S
C2194 C2195 1.401 . S
C2194 C2198 1.527 . S
C2195 C2194 1.401 . S
C2195 C2196 1.405 . S
C2195 C2228 1.587 . S
C2196 C2195 1.405 . S
C2196 C2197 1.332 . S
C2196 C2199 1.496 . S
C2197 C2192 1.418 . S
C2197 C2196 1.332 . S
C2197 H2255 0.929 . S
C2198 C2194 1.527 . S
C2198 H2256 0.959 . S
C2198 H2257 0.961 . S
C2198 H2258 0.961 . S
C2199 C2196 1.496 . S
C2199 H2259 0.960 . S
C2199 H2260 0.960 . S
C2199 H2261 0.961 . S
C2200 C2201 1.517 . S
C2200 H2263 0.961 . S
C2200 H2264 0.960 . S
C2200 H2265 0.959 . S
C2201 C2200 1.517 . S
C2201 O2249 1.468 . S
C2201 H2262 0.980 . S
C2202 C2203 1.349 . S
C2202 C2207 1.367 . S
C2202 O2249 1.408 . S
C2203 C2202 1.349 . S
C2203 C2204 1.407 . S
C2203 H2266 0.930 . S
C2204 C2203 1.407 . S
C2204 C2205 1.449 . S
C2204 C2208 1.535 . S
C2205 C2204 1.449 . S
C2205 C2206 1.384 . S
C2205 C2230 1.553 . S
C2206 C2205 1.384 . S
C2206 C2207 1.364 . S
C2206 C2209 1.450 . S
C2207 C2202 1.367 . S
C2207 C2206 1.364 . S
C2207 H2267 0.931 . S
C2208 C2204 1.535 . S
C2208 H2268 0.959 . S
C2208 H2269 0.961 . S
C2208 H2270 0.959 . S
C2209 C2206 1.450 . S
C2209 H2271 0.960 . S
C2209 H2272 0.960 . S
C2209 H2273 0.960 . S
C2210 C2211 1.309 . S
C2210 C2215 1.304 . S
C2210 O2248 1.435 . S
C2211 C2210 1.309 . S
C2211 C2212 1.476 . S
C2211 H2275 0.930 . S
C2212 C2211 1.476 . S
C2212 C2213 1.400 . S
C2212 C2216 1.567 . S
C2213 C2212 1.400 . S
C2213 C2214 1.373 . S
C2213 C2235 1.432 . S
C2214 C2213 1.373 . S
C2214 C2215 1.339 . S
C2214 C2217 1.530 . S
C2215 C2210 1.304 . S
C2215 C2214 1.339 . S
C2215 H2276 0.930 . S
C2216 C2212 1.567 . S
C2216 H2277 0.961 . S
C2216 H2278 0.960 . S
C2216 H2279 0.958 . S
C2217 C2214 1.530 . S
C2217 H2280 0.961 . S
C2217 H2281 0.960 . S
C2217 H2282 0.960 . S
C2218 C2219 1.530 . S
C2218 H2284 0.961 . S
C2218 H2285 0.961 . S
C2218 H2286 0.959 . S
C2219 C2218 1.530 . S
C2219 O2247 1.412 . S
C2219 H2283 0.980 . S
C2220 C2221 1.288 . S
C2220 C2225 1.377 . S
C2220 O2247 1.393 . S
C2221 C2220 1.288 . S
C2221 C2222 1.369 . S
C2221 H2287 0.932 . S
C2222 C2221 1.369 . S
C2222 C2223 1.398 . S
C2222 C2226 1.527 . S
C2223 C2222 1.398 . S
C2223 C2224 1.380 . S
C2223 C2237 1.497 . S
C2224 C2223 1.380 . S
C2224 C2225 1.383 . S
C2224 C2227 1.603 . S
C2225 C2220 1.377 . S
C2225 C2224 1.383 . S
C2225 H2288 0.929 . S
C2226 C2222 1.527 . S
C2226 H2289 0.961 . S
C2226 H2290 0.959 . S
C2226 H2291 0.959 . S
C2227 C2224 1.603 . S
C2227 H2292 0.960 . S
C2227 H2293 0.962 . S
C2227 H2294 0.961 . S
C2228 C2195 1.587 . S
C2228 C2229 1.360 . S
C2228 C2241 1.412 . S
C2229 C2228 1.360 . S
C2229 C2230 1.365 . S
C2229 H2295 0.929 . S
C2230 C2205 1.553 . S
C2230 C2229 1.365 . S
C2230 C2231 1.404 . S
C2231 C2230 1.404 . S
C2231 C2232 1.395 . S
C2231 C2242 1.451 . S
C2232 C2231 1.395 . S
C2232 C2233 1.322 . S
C2232 H2296 0.930 . S
C2233 C2232 1.322 . S
C2233 C2234 1.459 . S
C2233 H2297 0.929 . S
C2234 C2233 1.459 . S
C2234 C2235 1.445 . S
C2234 C2243 1.395 . S
C2235 C2213 1.432 . S
C2235 C2234 1.445 . S
C2235 C2236 1.370 . S
C2236 C2235 1.370 . S
C2236 C2237 1.438 . S
C2236 H2298 0.930 . S
C2237 C2223 1.497 . S
C2237 C2236 1.438 . S
C2237 C2238 1.360 . S
C2238 C2237 1.360 . S
C2238 C2239 1.401 . S
C2238 C2243 1.446 . S
C2239 C2238 1.401 . S
C2239 C2240 1.347 . S
C2239 H2299 0.929 . S
C2240 C2239 1.347 . S
C2240 C2241 1.455 . S
C2240 H2300 0.930 . S
C2241 C2228 1.412 . S
C2241 C2240 1.455 . S
C2241 C2242 1.331 . S
C2242 C2231 1.451 . S
C2242 C2241 1.331 . S
C2242 C2243 1.497 . S
C2243 C2234 1.395 . S
C2243 C2238 1.446 . S
C2243 C2242 1.497 . S
C2244 C2245 1.582 . S
C2244 H2301 0.962 . S
C2244 H2302 0.959 . S
C2244 H2303 0.958 . S
C2245 C2244 1.582 . S
C2245 O2248 1.458 . S
C2245 H2274 0.980 . S
O2246 C2191 1.426 . S
O2246 C2192 1.334 . S
O2247 C2219 1.412 . S
O2247 C2220 1.393 . S
O2248 C2210 1.435 . S
O2248 C2245 1.458 . S
O2249 C2201 1.468 . S
O2249 C2202 1.408 . S
H2250 C2191 0.980 . S
H2251 C2190 0.959 . S
H2252 C2190 0.959 . S
H2253 C2190 0.960 . S
H2254 C2193 0.929 . S
H2255 C2197 0.929 . S
H2256 C2198 0.959 . S
H2257 C2198 0.961 . S
H2258 C2198 0.961 . S
H2259 C2199 0.960 . S
H2260 C2199 0.960 . S
H2261 C2199 0.961 . S
H2262 C2201 0.980 . S
H2263 C2200 0.961 . S
H2264 C2200 0.960 . S
H2265 C2200 0.959 . S
H2266 C2203 0.930 . S
H2267 C2207 0.931 . S
H2268 C2208 0.959 . S
H2269 C2208 0.961 . S
H2270 C2208 0.959 . S
H2271 C2209 0.960 . S
H2272 C2209 0.960 . S
H2273 C2209 0.960 . S
H2274 C2245 0.980 . S
H2275 C2211 0.930 . S
H2276 C2215 0.930 . S
H2277 C2216 0.961 . S
H2278 C2216 0.960 . S
H2279 C2216 0.958 . S
H2280 C2217 0.961 . S
H2281 C2217 0.960 . S
H2282 C2217 0.960 . S
H2283 C2219 0.980 . S
H2284 C2218 0.961 . S
H2285 C2218 0.961 . S
H2286 C2218 0.959 . S
H2287 C2221 0.932 . S
H2288 C2225 0.929 . S
H2289 C2226 0.961 . S
H2290 C2226 0.959 . S
H2291 C2226 0.959 . S
H2292 C2227 0.960 . S
H2293 C2227 0.962 . S
H2294 C2227 0.961 . S
H2295 C2229 0.929 . S
H2296 C2232 0.930 . S
H2297 C2233 0.929 . S
H2298 C2236 0.930 . S
H2299 C2239 0.929 . S
H2300 C2240 0.930 . S
H2301 C2244 0.962 . S
H2302 C2244 0.959 . S
H2303 C2244 0.958 . S
H2304 C2322 0.951 . S
H2305 C2324 0.951 . S
H2306 C2326 0.950 . S
H2307 C2327 0.950 . S
H2308 C2329 0.950 . S
H2309 C2332 0.950 . S
H2310 C2333 0.950 . S
H2311 C2335 0.950 . S
H2312 C2336 0.950 1_655 S
H2313 C2337 0.951 . S
H2314 C2339 0.951 . S
H2315 C2341 0.950 . S
H2316 C2342 0.950 . S
H2317 C2344 0.950 . S
H2318 C2347 0.950 . S
H2319 C2348 0.950 . S
H2320 C2350 0.950 . S
H2321 C2351 0.950 . S
C2322 H2304 0.951 . S
C2322 C2323 1.373 1_655 S
C2322 C2324 1.388 . S
C2323 C2322 1.373 1_455 S
C2323 C2327 1.381 . S
C2324 H2305 0.951 . S
C2324 C2322 1.388 . S
C2324 C2325 1.376 . S
C2325 C2324 1.376 . S
C2325 C2326 1.392 1_655 S
C2325 C2328 1.484 . S
C2326 H2306 0.950 . S
C2326 C2325 1.392 1_455 S
C2326 C2327 1.374 . S
C2327 H2307 0.950 . S
C2327 C2323 1.381 . S
C2327 C2326 1.374 . S
C2328 C2325 1.484 . S
C2328 C2329 1.392 . S
C2328 C2330 1.406 1_655 S
C2329 H2308 0.950 . S
C2329 C2328 1.392 . S
C2329 C2345 1.377 . S
C2330 C2328 1.406 1_455 S
C2330 C2331 1.524 . S
C2330 C2344 1.377 . S
C2331 C2330 1.524 . S
C2331 C2332 1.397 . S
C2331 C2336 1.363 . S
C2332 H2309 0.950 . S
C2332 C2331 1.397 . S
C2332 C2333 1.334 . S
C2333 H2310 0.950 . S
C2333 C2332 1.334 . S
C2333 C2334 1.287 . S
C2334 C2333 1.287 . S
C2334 C2335 1.524 . S
C2334 H2353 0.913 . S
C2335 H2311 0.950 . S
C2335 C2334 1.524 . S
C2335 C2336 1.415 . S
C2336 H2312 0.950 1_455 S
C2336 C2331 1.363 . S
C2336 C2335 1.415 . S
C2337 H2313 0.951 . S
C2337 C2338 1.366 1_455 S
C2337 C2339 1.388 . S
C2338 C2337 1.366 1_655 S
C2338 C2342 1.385 . S
C2339 H2314 0.951 . S
C2339 C2337 1.388 . S
C2339 C2340 1.366 1_455 S
C2340 C2339 1.366 1_655 S
C2340 C2341 1.414 . S
C2340 C2343 1.499 . S
C2341 H2315 0.950 . S
C2341 C2340 1.414 . S
C2341 C2342 1.374 . S
C2342 H2316 0.950 . S
C2342 C2338 1.385 . S
C2342 C2341 1.374 . S
C2343 C2340 1.499 . S
C2343 C2344 1.373 1_655 S
C2343 C2345 1.389 . S
C2344 H2317 0.950 . S
C2344 C2330 1.377 . S
C2344 C2343 1.373 1_455 S
C2345 C2329 1.377 . S
C2345 C2343 1.389 . S
C2345 C2346 1.524 . S
C2346 C2345 1.524 . S
C2346 C2347 1.397 . S
C2346 C2351 1.363 . S
C2347 H2318 0.950 . S
C2347 C2346 1.397 . S
C2347 C2348 1.334 . S
C2348 H2319 0.950 . S
C2348 C2347 1.334 . S
C2348 C2349 1.287 . S
C2349 C2348 1.287 . S
C2349 C2350 1.524 . S
C2349 H2352 0.999 . S
C2350 H2320 0.950 . S
C2350 C2349 1.524 . S
C2350 C2351 1.415 . S
C2351 H2321 0.950 . S
C2351 C2346 1.363 . S
C2351 C2350 1.415 . S
H2352 C2349 0.999 . S
H2353 C2334 0.913 . S
H2354 C2372 0.951 . S
H2355 C2374 0.951 . S
H2356 C2376 0.950 . S
H2357 C2377 0.950 . S
H2358 C2379 0.950 . S
H2359 C2382 0.950 . S
H2360 C2383 0.950 . S
H2361 C2385 0.950 . S
H2362 C2386 0.950 . S
H2363 C2387 0.951 . S
H2364 C2389 0.951 . S
H2365 C2391 0.950 . S
H2366 C2392 0.950 . S
H2367 C2394 0.950 . S
H2368 C2397 0.950 . S
H2369 C2398 0.950 . S
H2370 C2400 0.950 . S
H2371 C2401 0.950 . S
C2372 H2354 0.951 . S
C2372 C2373 1.366 . S
C2372 C2374 1.388 . S
C2373 C2372 1.366 . S
C2373 C2377 1.385 . S
C2374 H2355 0.951 . S
C2374 C2372 1.388 . S
C2374 C2375 1.366 . S
C2375 C2374 1.366 . S
C2375 C2376 1.414 . S
C2375 C2378 1.499 . S
C2376 H2356 0.950 . S
C2376 C2375 1.414 . S
C2376 C2377 1.374 . S
C2377 H2357 0.950 . S
C2377 C2373 1.385 . S
C2377 C2376 1.374 . S
C2378 C2375 1.499 . S
C2378 C2379 1.373 . S
C2378 C2380 1.389 . S
C2379 H2358 0.950 . S
C2379 C2378 1.373 . S
C2379 C2395 1.377 . S
C2380 C2378 1.389 . S
C2380 C2381 1.524 . S
C2380 C2394 1.377 . S
C2381 C2380 1.524 . S
C2381 C2382 1.397 . S
C2381 C2386 1.363 . S
C2382 H2359 0.950 . S
C2382 C2381 1.397 . S
C2382 C2383 1.334 . S
C2383 H2360 0.950 . S
C2383 C2382 1.334 . S
C2383 C2384 1.287 . S
C2384 C2383 1.287 . S
C2384 C2385 1.524 . S
C2384 H2403 0.913 . S
C2385 H2361 0.950 . S
C2385 C2384 1.524 . S
C2385 C2386 1.415 . S
C2386 H2362 0.950 . S
C2386 C2381 1.363 . S
C2386 C2385 1.415 . S
C2387 H2363 0.951 . S
C2387 C2388 1.366 . S
C2387 C2389 1.388 . S
C2388 C2387 1.366 . S
C2388 C2392 1.385 . S
C2389 H2364 0.951 . S
C2389 C2387 1.388 . S
C2389 C2390 1.366 . S
C2390 C2389 1.366 . S
C2390 C2391 1.414 . S
C2390 C2393 1.499 . S
C2391 H2365 0.950 . S
C2391 C2390 1.414 . S
C2391 C2392 1.374 . S
C2392 H2366 0.950 . S
C2392 C2388 1.385 . S
C2392 C2391 1.374 . S
C2393 C2390 1.499 . S
C2393 C2394 1.373 . S
C2393 C2395 1.389 . S
C2394 H2367 0.950 . S
C2394 C2380 1.377 . S
C2394 C2393 1.373 . S
C2395 C2379 1.377 . S
C2395 C2393 1.389 . S
C2395 C2396 1.524 . S
C2396 C2395 1.524 . S
C2396 C2397 1.397 . S
C2396 C2401 1.363 . S
C2397 H2368 0.950 . S
C2397 C2396 1.397 . S
C2397 C2398 1.334 . S
C2398 H2369 0.950 . S
C2398 C2397 1.334 . S
C2398 C2399 1.287 . S
C2399 C2398 1.287 . S
C2399 C2400 1.524 . S
C2399 H2402 0.999 . S
C2400 H2370 0.950 . S
C2400 C2399 1.524 . S
C2400 C2401 1.415 . S
C2401 H2371 0.950 . S
C2401 C2396 1.363 . S
C2401 C2400 1.415 . S
H2402 C2399 0.999 . S
H2403 C2384 0.913 . S
H2404 C2422 0.951 . S
H2405 C2424 0.951 . S
H2406 C2426 0.950 . S
H2407 C2427 0.950 . S
H2408 C2429 0.950 . S
H2409 C2432 0.950 . S
H2410 C2433 0.950 . S
H2411 C2435 0.950 . S
H2412 C2436 0.950 . S
H2413 C2437 0.951 . S
H2414 C2439 0.951 . S
H2415 C2441 0.950 . S
H2416 C2442 0.950 . S
H2417 C2444 0.950 . S
H2418 C2447 0.950 . S
H2419 C2448 0.950 . S
H2420 C2450 0.950 . S
H2421 C2451 0.950 . S
C2422 H2404 0.951 . S
C2422 C2423 1.366 . S
C2422 C2424 1.388 . S
C2423 C2422 1.366 . S
C2423 C2427 1.385 . S
C2424 H2405 0.951 . S
C2424 C2422 1.388 . S
C2424 C2425 1.366 . S
C2425 C2424 1.366 . S
C2425 C2426 1.414 . S
C2425 C2428 1.499 . S
C2426 H2406 0.950 . S
C2426 C2425 1.414 . S
C2426 C2427 1.374 . S
C2427 H2407 0.950 . S
C2427 C2423 1.385 . S
C2427 C2426 1.374 . S
C2428 C2425 1.499 . S
C2428 C2429 1.373 . S
C2428 C2430 1.389 1_545 S
C2429 H2408 0.950 . S
C2429 C2428 1.373 . S
C2429 C2445 1.377 . S
C2430 C2428 1.389 1_565 S
C2430 C2431 1.524 . S
C2430 C2444 1.377 . S
C2431 C2430 1.524 . S
C2431 C2432 1.397 . S
C2431 C2436 1.363 . S
C2432 H2409 0.950 . S
C2432 C2431 1.397 . S
C2432 C2433 1.334 . S
C2433 H2410 0.950 . S
C2433 C2432 1.334 . S
C2433 C2434 1.287 . S
C2434 C2433 1.287 . S
C2434 C2435 1.524 . S
C2434 H2453 0.913 . S
C2435 H2411 0.950 . S
C2435 C2434 1.524 . S
C2435 C2436 1.415 . S
C2436 H2412 0.950 . S
C2436 C2431 1.363 . S
C2436 C2435 1.415 . S
C2437 H2413 0.951 . S
C2437 C2438 1.366 . S
C2437 C2439 1.388 . S
C2438 C2437 1.366 . S
C2438 C2442 1.385 . S
C2439 H2414 0.951 . S
C2439 C2437 1.388 . S
C2439 C2440 1.366 . S
C2440 C2439 1.366 . S
C2440 C2441 1.414 . S
C2440 C2443 1.499 . S
C2441 H2415 0.950 . S
C2441 C2440 1.414 . S
C2441 C2442 1.374 . S
C2442 H2416 0.950 . S
C2442 C2438 1.385 . S
C2442 C2441 1.374 . S
C2443 C2440 1.499 . S
C2443 C2444 1.373 1_545 S
C2443 C2445 1.389 . S
C2444 H2417 0.950 . S
C2444 C2430 1.377 . S
C2444 C2443 1.373 1_565 S
C2445 C2429 1.377 . S
C2445 C2443 1.389 . S
C2445 C2446 1.524 . S
C2446 C2445 1.524 . S
C2446 C2447 1.397 . S
C2446 C2451 1.363 . S
C2447 H2418 0.950 . S
C2447 C2446 1.397 . S
C2447 C2448 1.334 . S
C2448 H2419 0.950 . S
C2448 C2447 1.334 . S
C2448 C2449 1.287 . S
C2449 C2448 1.287 . S
C2449 C2450 1.524 . S
C2449 H2452 0.999 . S
C2450 H2420 0.950 . S
C2450 C2449 1.524 . S
C2450 C2451 1.415 . S
C2451 H2421 0.950 . S
C2451 C2446 1.363 . S
C2451 C2450 1.415 . S
H2452 C2449 0.999 . S
H2453 C2434 0.913 . S
H2454 C2472 0.951 . S
H2455 C2474 0.951 . S
H2456 C2476 0.950 1_545 S
H2457 C2477 0.950 1_545 S
H2458 C2479 0.950 . S
H2459 C2482 0.950 . S
H2460 C2483 0.950 . S
H2461 C2485 0.950 . S
H2462 C2486 0.950 . S
H2463 C2487 0.951 . S
H2464 C2489 0.951 . S
H2465 C2491 0.950 . S
H2466 C2492 0.950 . S
H2467 C2494 0.950 . S
H2468 C2497 0.950 . S
H2469 C2498 0.950 . S
H2470 C2500 0.950 . S
H2471 C2501 0.950 . S
C2472 H2454 0.951 . S
C2472 C2473 1.366 . S
C2472 C2474 1.388 . S
C2473 C2472 1.366 . S
C2473 C2477 1.385 . S
C2474 H2455 0.951 . S
C2474 C2472 1.388 . S
C2474 C2475 1.366 . S
C2475 C2474 1.366 . S
C2475 C2476 1.414 . S
C2475 C2478 1.499 . S
C2476 H2456 0.950 1_565 S
C2476 C2475 1.414 . S
C2476 C2477 1.374 . S
C2477 H2457 0.950 1_565 S
C2477 C2473 1.385 . S
C2477 C2476 1.374 . S
C2478 C2475 1.499 . S
C2478 C2479 1.373 1_565 S
C2478 C2480 1.389 . S
C2479 H2458 0.950 . S
C2479 C2478 1.373 1_545 S
C2479 C2495 1.377 . S
C2480 C2478 1.389 . S
C2480 C2481 1.524 . S
C2480 C2494 1.377 . S
C2481 C2480 1.524 . S
C2481 C2482 1.397 . S
C2481 C2486 1.363 . S
C2482 H2459 0.950 . S
C2482 C2481 1.397 . S
C2482 C2483 1.334 . S
C2483 H2460 0.950 . S
C2483 C2482 1.334 . S
C2483 C2484 1.287 . S
C2484 C2483 1.287 . S
C2484 C2485 1.524 . S
C2484 H2503 0.913 . S
C2485 H2461 0.950 . S
C2485 C2484 1.524 . S
C2485 C2486 1.415 . S
C2486 H2462 0.950 . S
C2486 C2481 1.363 . S
C2486 C2485 1.415 . S
C2487 H2463 0.951 . S
C2487 C2488 1.366 1_545 S
C2487 C2489 1.388 . S
C2488 C2487 1.366 1_565 S
C2488 C2492 1.385 . S
C2489 H2464 0.951 . S
C2489 C2487 1.388 . S
C2489 C2490 1.366 1_545 S
C2490 C2489 1.366 1_565 S
C2490 C2491 1.414 . S
C2490 C2493 1.499 . S
C2491 H2465 0.950 . S
C2491 C2490 1.414 . S
C2491 C2492 1.374 . S
C2492 H2466 0.950 . S
C2492 C2488 1.385 . S
C2492 C2491 1.374 . S
C2493 C2490 1.499 . S
C2493 C2494 1.373 . S
C2493 C2495 1.389 1_565 S
C2494 H2467 0.950 . S
C2494 C2480 1.377 . S
C2494 C2493 1.373 . S
C2495 C2479 1.377 . S
C2495 C2493 1.389 1_545 S
C2495 C2496 1.524 . S
C2496 C2495 1.524 . S
C2496 C2497 1.397 . S
C2496 C2501 1.363 . S
C2497 H2468 0.950 . S
C2497 C2496 1.397 . S
C2497 C2498 1.334 . S
C2498 H2469 0.950 . S
C2498 C2497 1.334 . S
C2498 C2499 1.287 . S
C2499 C2498 1.287 . S
C2499 C2500 1.524 . S
C2499 H2502 0.999 . S
C2500 H2470 0.950 . S
C2500 C2499 1.524 . S
C2500 C2501 1.415 . S
C2501 H2471 0.950 . S
C2501 C2496 1.363 . S
C2501 C2500 1.415 . S
H2502 C2499 0.999 . S
H2503 C2484 0.913 . S
H2504 C2522 0.951 . S
H2505 C2524 0.951 . S
H2506 C2526 0.950 1_655 S
H2507 C2527 0.971 . S
H2508 C2529 0.950 . S
H2509 C2532 0.950 . S
H2510 C2533 0.950 . S
H2511 C2535 0.950 . S
H2512 C2536 0.950 . S
H2513 C2537 0.951 . S
H2514 C2539 0.976 . S
H2515 C2541 0.950 . S
H2516 C2542 0.950 . S
H2517 C2544 0.950 . S
H2518 C2547 0.950 . S
H2519 C2548 0.950 . S
H2520 C2550 0.950 . S
H2521 C2551 0.950 . S
C2522 H2504 0.951 . S
C2522 C2523 1.366 . S
C2522 C2524 1.388 . S
C2523 C2522 1.366 . S
C2523 C2527 1.385 . S
C2524 H2505 0.951 . S
C2524 C2522 1.388 . S
C2524 C2525 1.366 . S
C2525 C2524 1.366 . S
C2525 C2526 1.414 . S
C2525 C2528 1.499 . S
C2526 H2506 0.950 1_455 S
C2526 C2525 1.414 . S
C2526 C2527 1.374 . S
C2527 H2507 0.971 . S
C2527 C2523 1.385 . S
C2527 C2526 1.374 . S
C2528 C2525 1.499 . S
C2528 C2529 1.373 . S
C2528 C2530 1.389 . S
C2529 H2508 0.950 . S
C2529 C2528 1.373 . S
C2529 C2545 1.377 . S
C2530 C2528 1.389 . S
C2530 C2531 1.524 . S
C2530 C2544 1.377 . S
C2531 C2530 1.524 . S
C2531 C2532 1.397 . S
C2531 C2536 1.363 . S
C2532 H2509 0.950 . S
C2532 C2531 1.397 . S
C2532 C2533 1.334 . S
C2533 H2510 0.950 . S
C2533 C2532 1.334 . S
C2533 C2534 1.287 . S
C2534 C2533 1.287 . S
C2534 C2535 1.524 . S
C2534 H2553 0.913 1_556 S
C2535 H2511 0.950 . S
C2535 C2534 1.524 . S
C2535 C2536 1.415 . S
C2536 H2512 0.950 . S
C2536 C2531 1.363 . S
C2536 C2535 1.415 . S
C2537 H2513 0.951 . S
C2537 C2538 1.366 1_655 S
C2537 C2539 1.427 . S
C2538 C2537 1.366 1_455 S
C2538 C2542 1.385 . S
C2539 H2514 0.976 . S
C2539 C2537 1.427 . S
C2539 C2540 1.307 1_655 S
C2540 C2539 1.307 1_455 S
C2540 C2541 1.414 . S
C2540 C2543 1.499 . S
C2541 H2515 0.950 . S
C2541 C2540 1.414 . S
C2541 C2542 1.374 . S
C2542 H2516 0.950 . S
C2542 C2538 1.385 . S
C2542 C2541 1.374 . S
C2543 C2540 1.499 . S
C2543 C2544 1.373 . S
C2543 C2545 1.389 . S
C2544 H2517 0.950 . S
C2544 C2530 1.377 . S
C2544 C2543 1.373 . S
C2545 C2529 1.377 . S
C2545 C2543 1.389 . S
C2545 C2546 1.524 . S
C2546 C2545 1.524 . S
C2546 C2547 1.397 . S
C2546 C2551 1.363 1_455 S
C2547 H2518 0.950 . S
C2547 C2546 1.397 . S
C2547 C2548 1.334 . S
C2548 H2519 0.950 . S
C2548 C2547 1.334 . S
C2548 C2549 1.287 . S
C2549 C2548 1.287 . S
C2549 C2550 1.524 1_455 S
C2549 H2552 0.999 . S
C2550 H2520 0.950 . S
C2550 C2549 1.524 1_655 S
C2550 C2551 1.415 . S
C2551 H2521 0.950 . S
C2551 C2546 1.363 1_655 S
C2551 C2550 1.415 . S
H2552 C2549 0.999 . S
H2553 C2534 0.913 1_554 S
H2554 C2572 0.951 . S
H2555 C2574 0.951 . S
H2556 C2576 0.950 . S
H2557 C2577 0.950 . S
H2558 C2579 0.950 . S
H2559 C2582 0.950 . S
H2560 C2583 0.950 . S
H2561 C2585 0.950 . S
H2562 C2586 0.950 . S
H2563 C2587 0.951 . S
H2564 C2589 0.951 . S
H2565 C2591 0.950 . S
H2566 C2592 0.950 . S
H2567 C2594 0.950 . S
H2568 C2597 0.950 . S
H2569 C2598 0.950 . S
H2570 C2600 0.950 . S
H2571 C2601 0.950 . S
C2572 H2554 0.951 . S
C2572 C2573 1.366 . S
C2572 C2574 1.388 . S
C2573 C2572 1.366 . S
C2573 C2577 1.385 . S
C2574 H2555 0.951 . S
C2574 C2572 1.388 . S
C2574 C2575 1.366 . S
C2575 C2574 1.366 . S
C2575 C2576 1.414 . S
C2575 C2578 1.499 . S
C2576 H2556 0.950 . S
C2576 C2575 1.414 . S
C2576 C2577 1.374 . S
C2577 H2557 0.950 . S
C2577 C2573 1.385 . S
C2577 C2576 1.374 . S
C2578 C2575 1.499 . S
C2578 C2579 1.373 . S
C2578 C2580 1.389 . S
C2579 H2558 0.950 . S
C2579 C2578 1.373 . S
C2579 C2595 1.377 . S
C2580 C2578 1.389 . S
C2580 C2581 1.524 . S
C2580 C2594 1.377 . S
C2581 C2580 1.524 . S
C2581 C2582 1.397 . S
C2581 C2586 1.363 . S
C2582 H2559 0.950 . S
C2582 C2581 1.397 . S
C2582 C2583 1.334 . S
C2583 H2560 0.950 . S
C2583 C2582 1.334 . S
C2583 C2584 1.287 . S
C2584 C2583 1.287 . S
C2584 C2585 1.524 . S
C2584 H2603 0.913 . S
C2585 H2561 0.950 . S
C2585 C2584 1.524 . S
C2585 C2586 1.415 . S
C2586 H2562 0.950 . S
C2586 C2581 1.363 . S
C2586 C2585 1.415 . S
C2587 H2563 0.951 . S
C2587 C2588 1.366 . S
C2587 C2589 1.388 . S
C2588 C2587 1.366 . S
C2588 C2592 1.385 . S
C2589 H2564 0.951 . S
C2589 C2587 1.388 . S
C2589 C2590 1.366 . S
C2590 C2589 1.366 . S
C2590 C2591 1.414 . S
C2590 C2593 1.499 . S
C2591 H2565 0.950 . S
C2591 C2590 1.414 . S
C2591 C2592 1.374 . S
C2592 H2566 0.950 . S
C2592 C2588 1.385 . S
C2592 C2591 1.374 . S
C2593 C2590 1.499 . S
C2593 C2594 1.373 . S
C2593 C2595 1.389 . S
C2594 H2567 0.950 . S
C2594 C2580 1.377 . S
C2594 C2593 1.373 . S
C2595 C2579 1.377 . S
C2595 C2593 1.389 . S
C2595 C2596 1.524 . S
C2596 C2595 1.524 . S
C2596 C2597 1.397 . S
C2596 C2601 1.363 . S
C2597 H2568 0.950 . S
C2597 C2596 1.397 . S
C2597 C2598 1.334 . S
C2598 H2569 0.950 . S
C2598 C2597 1.334 . S
C2598 C2599 1.287 . S
C2599 C2598 1.287 . S
C2599 C2600 1.524 . S
C2599 H2602 0.999 . S
C2600 H2570 0.950 . S
C2600 C2599 1.524 . S
C2600 C2601 1.415 . S
C2601 H2571 0.950 . S
C2601 C2596 1.363 . S
C2601 C2600 1.415 . S
H2602 C2599 0.999 . S
H2603 C2584 0.913 . S
H2604 C2622 0.951 . S
H2605 C2624 0.951 . S
H2606 C2626 0.950 . S
H2607 C2627 0.950 1_554 S
H2608 C2629 0.950 . S
H2609 C2632 0.950 . S
H2610 C2633 0.950 . S
H2611 C2635 0.950 . S
H2612 C2636 0.950 . S
H2613 C2637 0.951 . S
H2614 C2639 0.951 . S
H2615 C2641 0.981 . S
H2616 C2642 0.951 1_655 S
H2617 C2644 0.950 . S
H2618 C2647 0.950 . S
H2619 C2648 0.950 . S
H2620 C2650 0.950 . S
H2621 C2651 0.950 . S
C2622 H2604 0.951 . S
C2622 C2623 1.366 . S
C2622 C2624 1.388 . S
C2623 C2622 1.366 . S
C2623 C2627 1.385 . S
C2624 H2605 0.951 . S
C2624 C2622 1.388 . S
C2624 C2625 1.366 . S
C2625 C2624 1.366 . S
C2625 C2626 1.414 . S
C2625 C2628 1.499 . S
C2626 H2606 0.950 . S
C2626 C2625 1.414 . S
C2626 C2627 1.374 . S
C2627 H2607 0.950 1_556 S
C2627 C2623 1.385 . S
C2627 C2626 1.374 . S
C2628 C2625 1.499 . S
C2628 C2629 1.373 . S
C2628 C2630 1.389 1_455 S
C2629 H2608 0.950 . S
C2629 C2628 1.373 . S
C2629 C2645 1.377 . S
C2630 C2628 1.389 1_655 S
C2630 C2631 1.524 . S
C2630 C2644 1.377 . S
C2631 C2630 1.524 . S
C2631 C2632 1.397 . S
C2631 C2636 1.363 . S
C2632 H2609 0.950 . S
C2632 C2631 1.397 . S
C2632 C2633 1.334 . S
C2633 H2610 0.950 . S
C2633 C2632 1.334 . S
C2633 C2634 1.287 . S
C2634 C2633 1.287 . S
C2634 C2635 1.524 . S
C2634 H2653 0.913 . S
C2635 H2611 0.950 . S
C2635 C2634 1.524 . S
C2635 C2636 1.415 . S
C2636 H2612 0.950 . S
C2636 C2631 1.363 . S
C2636 C2635 1.415 . S
C2637 H2613 0.951 . S
C2637 C2638 1.379 . S
C2637 C2639 1.388 . S
C2638 C2637 1.379 . S
C2638 C2642 1.350 . S
C2639 H2614 0.951 . S
C2639 C2637 1.388 . S
C2639 C2640 1.366 . S
C2640 C2639 1.366 . S
C2640 C2641 1.414 . S
C2640 C2643 1.499 . S
C2641 H2615 0.981 . S
C2641 C2640 1.414 . S
C2641 C2642 1.376 . S
C2642 H2616 0.951 1_455 S
C2642 C2638 1.350 . S
C2642 C2641 1.376 . S
C2643 C2640 1.499 . S
C2643 C2644 1.373 1_455 S
C2643 C2645 1.389 . S
C2644 H2617 0.950 . S
C2644 C2630 1.377 . S
C2644 C2643 1.373 1_655 S
C2645 C2629 1.377 . S
C2645 C2643 1.389 . S
C2645 C2646 1.524 . S
C2646 C2645 1.524 . S
C2646 C2647 1.397 . S
C2646 C2651 1.363 . S
C2647 H2618 0.950 . S
C2647 C2646 1.397 . S
C2647 C2648 1.334 . S
C2648 H2619 0.950 . S
C2648 C2647 1.334 . S
C2648 C2649 1.287 . S
C2649 C2648 1.287 . S
C2649 C2650 1.524 . S
C2649 H2652 0.999 . S
C2650 H2620 0.950 . S
C2650 C2649 1.524 . S
C2650 C2651 1.415 . S
C2651 H2621 0.950 . S
C2651 C2646 1.363 . S
C2651 C2650 1.415 . S
H2652 C2649 0.999 . S
H2653 C2634 0.913 . S
H2654 C2672 0.951 . S
H2655 C2674 0.951 . S
H2656 C2676 0.950 . S
H2657 C2677 0.950 . S
H2658 C2679 0.950 . S
H2659 C2682 0.950 . S
H2660 C2683 0.950 . S
H2661 C2685 0.950 . S
H2662 C2686 0.950 . S
H2663 C2687 0.951 . S
H2664 C2689 0.951 . S
H2665 C2691 0.950 . S
H2666 C2692 0.950 . S
H2667 C2694 0.950 . S
H2668 C2697 0.950 . S
H2669 C2698 0.950 . S
H2670 C2700 0.950 . S
H2671 C2701 0.950 . S
C2672 H2654 0.951 . S
C2672 C2673 1.366 . S
C2672 C2674 1.388 . S
C2673 C2672 1.366 . S
C2673 C2677 1.385 . S
C2674 H2655 0.951 . S
C2674 C2672 1.388 . S
C2674 C2675 1.366 . S
C2675 C2674 1.366 . S
C2675 C2676 1.414 . S
C2675 C2678 1.499 . S
C2676 H2656 0.950 . S
C2676 C2675 1.414 . S
C2676 C2677 1.374 . S
C2677 H2657 0.950 . S
C2677 C2673 1.385 . S
C2677 C2676 1.374 . S
C2678 C2675 1.499 . S
C2678 C2679 1.373 . S
C2678 C2680 1.389 . S
C2679 H2658 0.950 . S
C2679 C2678 1.373 . S
C2679 C2695 1.377 . S
C2680 C2678 1.389 . S
C2680 C2681 1.524 . S
C2680 C2694 1.377 . S
C2681 C2680 1.524 . S
C2681 C2682 1.397 . S
C2681 C2686 1.363 . S
C2682 H2659 0.950 . S
C2682 C2681 1.397 . S
C2682 C2683 1.334 . S
C2683 H2660 0.950 . S
C2683 C2682 1.334 . S
C2683 C2684 1.287 . S
C2684 C2683 1.287 . S
C2684 C2685 1.524 . S
C2684 H2703 0.913 . S
C2685 H2661 0.950 . S
C2685 C2684 1.524 . S
C2685 C2686 1.415 . S
C2686 H2662 0.950 . S
C2686 C2681 1.363 . S
C2686 C2685 1.415 . S
C2687 H2663 0.951 . S
C2687 C2688 1.366 . S
C2687 C2689 1.388 . S
C2688 C2687 1.366 . S
C2688 C2692 1.385 . S
C2689 H2664 0.951 . S
C2689 C2687 1.388 . S
C2689 C2690 1.366 . S
C2690 C2689 1.366 . S
C2690 C2691 1.414 . S
C2690 C2693 1.499 . S
C2691 H2665 0.950 . S
C2691 C2690 1.414 . S
C2691 C2692 1.374 . S
C2692 H2666 0.950 . S
C2692 C2688 1.385 . S
C2692 C2691 1.374 . S
C2693 C2690 1.499 . S
C2693 C2694 1.373 . S
C2693 C2695 1.389 . S
C2694 H2667 0.950 . S
C2694 C2680 1.377 . S
C2694 C2693 1.373 . S
C2695 C2679 1.377 . S
C2695 C2693 1.389 . S
C2695 C2696 1.524 . S
C2696 C2695 1.524 . S
C2696 C2697 1.397 . S
C2696 C2701 1.363 . S
C2697 H2668 0.950 . S
C2697 C2696 1.397 . S
C2697 C2698 1.334 . S
C2698 H2669 0.950 . S
C2698 C2697 1.334 . S
C2698 C2699 1.287 . S
C2699 C2698 1.287 . S
C2699 C2700 1.524 . S
C2699 H2702 0.999 . S
C2700 H2670 0.950 . S
C2700 C2699 1.524 . S
C2700 C2701 1.415 . S
C2701 H2671 0.950 . S
C2701 C2696 1.363 . S
C2701 C2700 1.415 . S
H2702 C2699 0.999 . S
H2703 C2684 0.913 . S
H2704 C2722 0.951 1_554 S
H2705 C2724 0.951 . S
H2706 C2726 0.950 . S
H2707 C2727 0.950 . S
H2708 C2729 0.950 . S
H2709 C2732 0.950 . S
H2710 C2733 0.950 . S
H2711 C2735 0.950 . S
H2712 C2736 0.950 . S
H2713 C2737 0.951 . S
H2714 C2739 0.951 . S
H2715 C2741 0.964 . S
H2716 C2742 0.950 . S
H2717 C2744 0.950 . S
H2718 C2747 0.950 . S
H2719 C2748 0.950 . S
H2720 C2750 0.950 . S
H2721 C2751 0.950 . S
C2722 H2704 0.951 1_556 S
C2722 C2723 1.366 . S
C2722 C2724 1.388 . S
C2723 C2722 1.366 . S
C2723 C2727 1.385 . S
C2724 H2705 0.951 . S
C2724 C2722 1.388 . S
C2724 C2725 1.366 . S
C2725 C2724 1.366 . S
C2725 C2726 1.414 . S
C2725 C2728 1.499 . S
C2726 H2706 0.950 . S
C2726 C2725 1.414 . S
C2726 C2727 1.374 . S
C2727 H2707 0.950 . S
C2727 C2723 1.385 . S
C2727 C2726 1.374 . S
C2728 C2725 1.499 . S
C2728 C2729 1.373 1_565 S
C2728 C2730 1.389 . S
C2729 H2708 0.950 . S
C2729 C2728 1.373 1_545 S
C2729 C2745 1.377 . S
C2730 C2728 1.389 . S
C2730 C2731 1.524 . S
C2730 C2744 1.377 . S
C2731 C2730 1.524 . S
C2731 C2732 1.397 . S
C2731 C2736 1.363 . S
C2732 H2709 0.950 . S
C2732 C2731 1.397 . S
C2732 C2733 1.334 . S
C2733 H2710 0.950 . S
C2733 C2732 1.334 . S
C2733 C2734 1.287 . S
C2734 C2733 1.287 . S
C2734 C2735 1.524 . S
C2734 H2753 0.913 . S
C2735 H2711 0.950 . S
C2735 C2734 1.524 . S
C2735 C2736 1.415 . S
C2736 H2712 0.950 . S
C2736 C2731 1.363 . S
C2736 C2735 1.415 . S
C2737 H2713 0.951 . S
C2737 C2738 1.392 . S
C2737 C2739 1.388 . S
C2738 C2737 1.392 . S
C2738 C2742 1.378 1_565 S
C2739 H2714 0.951 . S
C2739 C2737 1.388 . S
C2739 C2740 1.380 . S
C2740 C2739 1.380 . S
C2740 C2741 1.334 1_565 S
C2740 C2743 1.534 . S
C2741 H2715 0.964 . S
C2741 C2740 1.334 1_545 S
C2741 C2742 1.406 . S
C2742 H2716 0.950 . S
C2742 C2738 1.378 1_545 S
C2742 C2741 1.406 . S
C2743 C2740 1.534 . S
C2743 C2744 1.373 . S
C2743 C2745 1.389 1_565 S
C2744 H2717 0.950 . S
C2744 C2730 1.377 . S
C2744 C2743 1.373 . S
C2745 C2729 1.377 . S
C2745 C2743 1.389 1_545 S
C2745 C2746 1.524 . S
C2746 C2745 1.524 . S
C2746 C2747 1.397 . S
C2746 C2751 1.363 . S
C2747 H2718 0.950 . S
C2747 C2746 1.397 . S
C2747 C2748 1.334 . S
C2748 H2719 0.950 . S
C2748 C2747 1.334 . S
C2748 C2749 1.287 . S
C2749 C2748 1.287 . S
C2749 C2750 1.524 . S
C2749 H2752 0.999 . S
C2750 H2720 0.950 . S
C2750 C2749 1.524 . S
C2750 C2751 1.415 . S
C2751 H2721 0.950 . S
C2751 C2746 1.363 . S
C2751 C2750 1.415 . S
H2752 C2749 0.999 . S
H2753 C2734 0.913 . S
H2754 C2772 0.951 1_565 S
H2755 C2774 0.951 1_565 S
H2756 C2776 0.950 . S
H2757 C2777 0.950 . S
H2758 C2779 0.950 . S
H2759 C2782 0.950 . S
H2760 C2783 0.950 . S
H2761 C2785 0.950 . S
H2762 C2786 0.950 . S
H2763 C2787 0.951 . S
H2764 C2789 0.951 . S
H2765 C2791 0.950 . S
H2766 C2792 0.950 . S
H2767 C2794 0.950 1_565 S
H2768 C2797 0.950 1_565 S
H2769 C2798 0.950 . S
H2770 C2800 0.950 . S
H2771 C2801 0.950 . S
C2772 H2754 0.951 1_545 S
C2772 C2773 1.366 . S
C2772 C2774 1.388 . S
C2773 C2772 1.366 . S
C2773 C2777 1.385 . S
C2774 H2755 0.951 1_545 S
C2774 C2772 1.388 . S
C2774 C2775 1.366 . S
C2775 C2774 1.366 . S
C2775 C2776 1.414 . S
C2775 C2778 1.499 . S
C2776 H2756 0.950 . S
C2776 C2775 1.414 . S
C2776 C2777 1.374 . S
C2777 H2757 0.950 . S
C2777 C2773 1.385 . S
C2777 C2776 1.374 . S
C2778 C2775 1.499 . S
C2778 C2779 1.373 . S
C2778 C2780 1.389 . S
C2779 H2758 0.950 . S
C2779 C2778 1.373 . S
C2779 C2795 1.377 . S
C2780 C2778 1.389 . S
C2780 C2781 1.524 . S
C2780 C2794 1.377 . S
C2781 C2780 1.524 . S
C2781 C2782 1.397 . S
C2781 C2786 1.363 1_545 S
C2782 H2759 0.950 . S
C2782 C2781 1.397 . S
C2782 C2783 1.334 . S
C2783 H2760 0.950 . S
C2783 C2782 1.334 . S
C2783 C2784 1.287 1_545 S
C2784 C2783 1.287 1_565 S
C2784 C2785 1.524 . S
C2784 H2803 0.913 . S
C2785 H2761 0.950 . S
C2785 C2784 1.524 . S
C2785 C2786 1.415 . S
C2786 H2762 0.950 . S
C2786 C2781 1.363 1_565 S
C2786 C2785 1.415 . S
C2787 H2763 0.951 . S
C2787 C2788 1.366 . S
C2787 C2789 1.388 . S
C2788 C2787 1.366 . S
C2788 C2792 1.385 1_545 S
C2789 H2764 0.951 . S
C2789 C2787 1.388 . S
C2789 C2790 1.366 . S
C2790 C2789 1.366 . S
C2790 C2791 1.414 1_545 S
C2790 C2793 1.499 . S
C2791 H2765 0.950 . S
C2791 C2790 1.414 1_565 S
C2791 C2792 1.374 . S
C2792 H2766 0.950 . S
C2792 C2788 1.385 1_565 S
C2792 C2791 1.374 . S
C2793 C2790 1.499 . S
C2793 C2794 1.373 . S
C2793 C2795 1.389 . S
C2794 H2767 0.950 1_545 S
C2794 C2780 1.377 . S
C2794 C2793 1.373 . S
C2795 C2779 1.377 . S
C2795 C2793 1.389 . S
C2795 C2796 1.524 . S
C2796 C2795 1.524 . S
C2796 C2797 1.397 . S
C2796 C2801 1.363 . S
C2797 H2768 0.950 1_545 S
C2797 C2796 1.397 . S
C2797 C2798 1.334 . S
C2798 H2769 0.950 . S
C2798 C2797 1.334 . S
C2798 C2799 1.287 . S
C2799 C2798 1.287 . S
C2799 C2800 1.524 . S
C2799 H2802 0.999 . S
C2800 H2770 0.950 . S
C2800 C2799 1.524 . S
C2800 C2801 1.415 . S
C2801 H2771 0.950 . S
C2801 C2796 1.363 . S
C2801 C2800 1.415 . S
H2802 C2799 0.999 . S
H2803 C2784 0.913 . S
H2804 C2822 0.951 . S
H2805 C2824 0.951 . S
H2806 C2826 0.950 1_455 S
H2807 C2827 0.950 1_455 S
H2808 C2829 0.950 . S
H2809 C2832 0.950 . S
H2810 C2833 0.950 . S
H2811 C2835 0.950 . S
H2812 C2836 0.950 . S
H2813 C2837 0.951 . S
H2814 C2839 0.951 . S
H2815 C2841 0.950 . S
H2816 C2842 0.950 . S
H2817 C2844 0.950 . S
H2818 C2847 0.950 . S
H2819 C2848 0.950 . S
H2820 C2850 0.950 . S
H2821 C2851 0.950 . S
C2822 H2804 0.951 . S
C2822 C2823 1.366 . S
C2822 C2824 1.388 . S
C2823 C2822 1.366 . S
C2823 C2827 1.385 . S
C2824 H2805 0.951 . S
C2824 C2822 1.388 . S
C2824 C2825 1.366 . S
C2825 C2824 1.366 . S
C2825 C2826 1.414 . S
C2825 C2828 1.499 . S
C2826 H2806 0.950 1_655 S
C2826 C2825 1.414 . S
C2826 C2827 1.374 . S
C2827 H2807 0.950 1_655 S
C2827 C2823 1.385 . S
C2827 C2826 1.374 . S
C2828 C2825 1.499 . S
C2828 C2829 1.373 1_655 S
C2828 C2830 1.389 . S
C2829 H2808 0.950 . S
C2829 C2828 1.373 1_455 S
C2829 C2845 1.377 . S
C2830 C2828 1.389 . S
C2830 C2831 1.524 . S
C2830 C2844 1.377 . S
C2831 C2830 1.524 . S
C2831 C2832 1.397 . S
C2831 C2836 1.363 . S
C2832 H2809 0.950 . S
C2832 C2831 1.397 . S
C2832 C2833 1.334 . S
C2833 H2810 0.950 . S
C2833 C2832 1.334 . S
C2833 C2834 1.287 . S
C2834 C2833 1.287 . S
C2834 C2835 1.524 . S
C2834 H2853 0.913 . S
C2835 H2811 0.950 . S
C2835 C2834 1.524 . S
C2835 C2836 1.415 . S
C2836 H2812 0.950 . S
C2836 C2831 1.363 . S
C2836 C2835 1.415 . S
C2837 H2813 0.951 . S
C2837 C2838 1.366 1_455 S
C2837 C2839 1.388 . S
C2838 C2837 1.366 1_655 S
C2838 C2842 1.385 . S
C2839 H2814 0.951 . S
C2839 C2837 1.388 . S
C2839 C2840 1.366 1_455 S
C2840 C2839 1.366 1_655 S
C2840 C2841 1.414 . S
C2840 C2843 1.499 . S
C2841 H2815 0.950 . S
C2841 C2840 1.414 . S
C2841 C2842 1.374 . S
C2842 H2816 0.950 . S
C2842 C2838 1.385 . S
C2842 C2841 1.374 . S
C2843 C2840 1.499 . S
C2843 C2844 1.373 . S
C2843 C2845 1.389 1_655 S
C2844 H2817 0.950 . S
C2844 C2830 1.377 . S
C2844 C2843 1.373 . S
C2845 C2829 1.377 . S
C2845 C2843 1.389 1_455 S
C2845 C2846 1.524 . S
C2846 C2845 1.524 . S
C2846 C2847 1.397 . S
C2846 C2851 1.363 . S
C2847 H2818 0.950 . S
C2847 C2846 1.397 . S
C2847 C2848 1.334 . S
C2848 H2819 0.950 . S
C2848 C2847 1.334 . S
C2848 C2849 1.287 . S
C2849 C2848 1.287 . S
C2849 C2850 1.524 . S
C2849 H2852 0.999 . S
C2850 H2820 0.950 . S
C2850 C2849 1.524 . S
C2850 C2851 1.415 . S
C2851 H2821 0.950 . S
C2851 C2846 1.363 . S
C2851 C2850 1.415 . S
H2852 C2849 0.999 . S
H2853 C2834 0.913 . S
H2854 C2872 0.951 . S
H2855 C2874 0.951 . S
H2856 C2876 0.950 . S
H2857 C2877 0.950 . S
H2858 C2879 0.950 . S
H2859 C2882 0.950 . S
H2860 C2883 0.950 . S
H2861 C2885 0.950 . S
H2862 C2886 0.950 . S
H2863 C2887 0.951 . S
H2864 C2889 0.951 . S
H2865 C2891 0.950 . S
H2866 C2892 0.950 . S
H2867 C2894 0.950 . S
H2868 C2897 0.950 . S
H2869 C2898 0.950 . S
H2870 C2900 0.950 . S
H2871 C2901 0.950 . S
C2872 H2854 0.951 . S
C2872 C2873 1.366 . S
C2872 C2874 1.388 . S
C2873 C2872 1.366 . S
C2873 C2877 1.385 . S
C2874 H2855 0.951 . S
C2874 C2872 1.388 . S
C2874 C2875 1.366 . S
C2875 C2874 1.366 . S
C2875 C2876 1.414 . S
C2875 C2878 1.499 . S
C2876 H2856 0.950 . S
C2876 C2875 1.414 . S
C2876 C2877 1.374 . S
C2877 H2857 0.950 . S
C2877 C2873 1.385 . S
C2877 C2876 1.374 . S
C2878 C2875 1.499 . S
C2878 C2879 1.373 . S
C2878 C2880 1.389 . S
C2879 H2858 0.950 . S
C2879 C2878 1.373 . S
C2879 C2895 1.377 . S
C2880 C2878 1.389 . S
C2880 C2881 1.524 . S
C2880 C2894 1.377 . S
C2881 C2880 1.524 . S
C2881 C2882 1.397 . S
C2881 C2886 1.363 . S
C2882 H2859 0.950 . S
C2882 C2881 1.397 . S
C2882 C2883 1.334 . S
C2883 H2860 0.950 . S
C2883 C2882 1.334 . S
C2883 C2884 1.287 . S
C2884 C2883 1.287 . S
C2884 C2885 1.524 . S
C2884 H2903 0.913 . S
C2885 H2861 0.950 . S
C2885 C2884 1.524 . S
C2885 C2886 1.415 . S
C2886 H2862 0.950 . S
C2886 C2881 1.363 . S
C2886 C2885 1.415 . S
C2887 H2863 0.951 . S
C2887 C2888 1.366 . S
C2887 C2889 1.388 . S
C2888 C2887 1.366 . S
C2888 C2892 1.385 . S
C2889 H2864 0.951 . S
C2889 C2887 1.388 . S
C2889 C2890 1.366 . S
C2890 C2889 1.366 . S
C2890 C2891 1.414 . S
C2890 C2893 1.499 . S
C2891 H2865 0.950 . S
C2891 C2890 1.414 . S
C2891 C2892 1.374 . S
C2892 H2866 0.950 . S
C2892 C2888 1.385 . S
C2892 C2891 1.374 . S
C2893 C2890 1.499 . S
C2893 C2894 1.373 . S
C2893 C2895 1.389 . S
C2894 H2867 0.950 . S
C2894 C2880 1.377 . S
C2894 C2893 1.373 . S
C2895 C2879 1.377 . S
C2895 C2893 1.389 . S
C2895 C2896 1.524 . S
C2896 C2895 1.524 . S
C2896 C2897 1.397 . S
C2896 C2901 1.363 . S
C2897 H2868 0.950 . S
C2897 C2896 1.397 . S
C2897 C2898 1.334 . S
C2898 H2869 0.950 . S
C2898 C2897 1.334 . S
C2898 C2899 1.287 . S
C2899 C2898 1.287 . S
C2899 C2900 1.524 . S
C2899 H2902 0.999 . S
C2900 H2870 0.950 . S
C2900 C2899 1.524 . S
C2900 C2901 1.415 . S
C2901 H2871 0.950 . S
C2901 C2896 1.363 . S
C2901 C2900 1.415 . S
H2902 C2899 0.999 . S
H2903 C2884 0.913 . S
H2904 C2922 0.951 . S
H2905 C2924 0.951 . S
H2906 C2926 0.950 . S
H2907 C2927 0.950 . S
H2908 C2929 0.950 . S
H2909 C2932 0.950 . S
H2910 C2933 0.950 . S
H2911 C2935 0.950 . S
H2912 C2936 0.950 . S
H2913 C2937 0.951 . S
H2914 C2939 0.951 . S
H2915 C2941 0.950 . S
H2916 C2942 0.950 . S
H2917 C2944 0.950 . S
H2918 C2947 0.950 . S
H2919 C2948 0.950 . S
H2920 C2950 0.950 . S
H2921 C2951 0.950 . S
C2922 H2904 0.951 . S
C2922 C2923 1.366 . S
C2922 C2924 1.388 . S
C2923 C2922 1.366 . S
C2923 C2927 1.385 . S
C2924 H2905 0.951 . S
C2924 C2922 1.388 . S
C2924 C2925 1.366 . S
C2925 C2924 1.366 . S
C2925 C2926 1.414 . S
C2925 C2928 1.499 . S
C2926 H2906 0.950 . S
C2926 C2925 1.414 . S
C2926 C2927 1.374 . S
C2927 H2907 0.950 . S
C2927 C2923 1.385 . S
C2927 C2926 1.374 . S
C2928 C2925 1.499 . S
C2928 C2929 1.373 . S
C2928 C2930 1.389 . S
C2929 H2908 0.950 . S
C2929 C2928 1.373 . S
C2929 C2945 1.377 . S
C2930 C2928 1.389 . S
C2930 C2931 1.524 . S
C2930 C2944 1.377 . S
C2931 C2930 1.524 . S
C2931 C2932 1.397 . S
C2931 C2936 1.363 . S
C2932 H2909 0.950 . S
C2932 C2931 1.397 . S
C2932 C2933 1.334 . S
C2933 H2910 0.950 . S
C2933 C2932 1.334 . S
C2933 C2934 1.287 . S
C2934 C2933 1.287 . S
C2934 C2935 1.524 . S
C2934 H2953 0.913 . S
C2935 H2911 0.950 . S
C2935 C2934 1.524 . S
C2935 C2936 1.415 . S
C2936 H2912 0.950 . S
C2936 C2931 1.363 . S
C2936 C2935 1.415 . S
C2937 H2913 0.951 . S
C2937 C2938 1.366 . S
C2937 C2939 1.388 . S
C2938 C2937 1.366 . S
C2938 C2942 1.385 . S
C2939 H2914 0.951 . S
C2939 C2937 1.388 . S
C2939 C2940 1.366 . S
C2940 C2939 1.366 . S
C2940 C2941 1.414 . S
C2940 C2943 1.499 . S
C2941 H2915 0.950 . S
C2941 C2940 1.414 . S
C2941 C2942 1.374 . S
C2942 H2916 0.950 . S
C2942 C2938 1.385 . S
C2942 C2941 1.374 . S
C2943 C2940 1.499 . S
C2943 C2944 1.373 . S
C2943 C2945 1.389 . S
C2944 H2917 0.950 . S
C2944 C2930 1.377 . S
C2944 C2943 1.373 . S
C2945 C2929 1.377 . S
C2945 C2943 1.389 . S
C2945 C2946 1.524 . S
C2946 C2945 1.524 . S
C2946 C2947 1.397 . S
C2946 C2951 1.363 . S
C2947 H2918 0.950 . S
C2947 C2946 1.397 . S
C2947 C2948 1.334 . S
C2948 H2919 0.950 . S
C2948 C2947 1.334 . S
C2948 C2949 1.287 . S
C2949 C2948 1.287 . S
C2949 C2950 1.524 . S
C2949 H2952 0.999 . S
C2950 H2920 0.950 . S
C2950 C2949 1.524 . S
C2950 C2951 1.415 . S
C2951 H2921 0.950 . S
C2951 C2946 1.363 . S
C2951 C2950 1.415 . S
H2952 C2949 0.999 . S
H2953 C2934 0.913 . S
H2954 C2972 0.951 . S
H2955 C2974 0.951 . S
H2956 C2976 0.950 . S
H2957 C2977 0.950 . S
H2958 C2979 0.950 . S
H2959 C2982 0.950 . S
H2960 C2983 0.950 . S
H2961 C2985 0.950 . S
H2962 C2986 0.950 . S
H2963 C2987 0.951 . S
H2964 C2989 0.951 . S
H2965 C2991 0.950 . S
H2966 C2992 0.950 . S
H2967 C2994 0.950 . S
H2968 C2997 0.950 . S
H2969 C2998 0.950 . S
H2970 C3000 0.950 . S
H2971 C3001 0.950 . S
C2972 H2954 0.951 . S
C2972 C2973 1.366 . S
C2972 C2974 1.388 . S
C2973 C2972 1.366 . S
C2973 C2977 1.385 . S
C2974 H2955 0.951 . S
C2974 C2972 1.388 . S
C2974 C2975 1.366 . S
C2975 C2974 1.366 . S
C2975 C2976 1.414 . S
C2975 C2978 1.499 . S
C2976 H2956 0.950 . S
C2976 C2975 1.414 . S
C2976 C2977 1.374 . S
C2977 H2957 0.950 . S
C2977 C2973 1.385 . S
C2977 C2976 1.374 . S
C2978 C2975 1.499 . S
C2978 C2979 1.373 . S
C2978 C2980 1.389 . S
C2979 H2958 0.950 . S
C2979 C2978 1.373 . S
C2979 C2995 1.377 . S
C2980 C2978 1.389 . S
C2980 C2981 1.524 . S
C2980 C2994 1.377 . S
C2981 C2980 1.524 . S
C2981 C2982 1.397 . S
C2981 C2986 1.363 . S
C2982 H2959 0.950 . S
C2982 C2981 1.397 . S
C2982 C2983 1.334 . S
C2983 H2960 0.950 . S
C2983 C2982 1.334 . S
C2983 C2984 1.287 . S
C2984 C2983 1.287 . S
C2984 C2985 1.524 . S
C2984 H3003 0.913 . S
C2985 H2961 0.950 . S
C2985 C2984 1.524 . S
C2985 C2986 1.415 . S
C2986 H2962 0.950 . S
C2986 C2981 1.363 . S
C2986 C2985 1.415 . S
C2987 H2963 0.951 . S
C2987 C2988 1.366 . S
C2987 C2989 1.388 . S
C2988 C2987 1.366 . S
C2988 C2992 1.385 . S
C2989 H2964 0.951 . S
C2989 C2987 1.388 . S
C2989 C2990 1.366 . S
C2990 C2989 1.366 . S
C2990 C2991 1.414 . S
C2990 C2993 1.499 . S
C2991 H2965 0.950 . S
C2991 C2990 1.414 . S
C2991 C2992 1.374 . S
C2992 H2966 0.950 . S
C2992 C2988 1.385 . S
C2992 C2991 1.374 . S
C2993 C2990 1.499 . S
C2993 C2994 1.373 . S
C2993 C2995 1.389 . S
C2994 H2967 0.950 . S
C2994 C2980 1.377 . S
C2994 C2993 1.373 . S
C2995 C2979 1.377 . S
C2995 C2993 1.389 . S
C2995 C2996 1.524 . S
C2996 C2995 1.524 . S
C2996 C2997 1.397 . S
C2996 C3001 1.363 . S
C2997 H2968 0.950 . S
C2997 C2996 1.397 . S
C2997 C2998 1.334 . S
C2998 H2969 0.950 . S
C2998 C2997 1.334 . S
C2998 C2999 1.287 . S
C2999 C2998 1.287 . S
C2999 C3000 1.524 . S
C2999 H3002 0.999 . S
C3000 H2970 0.950 . S
C3000 C2999 1.524 . S
C3000 C3001 1.415 . S
C3001 H2971 0.950 . S
C3001 C2996 1.363 . S
C3001 C3000 1.415 . S
H3002 C2999 0.999 . S
H3003 C2984 0.913 . S
H3004 C3022 0.951 . S
H3005 C3024 0.951 . S
H3006 C3026 0.950 . S
H3007 C3027 0.950 . S
H3008 C3029 0.950 . S
H3009 C3032 0.950 . S
H3010 C3033 0.950 . S
H3011 C3035 0.950 . S
H3012 C3036 0.950 . S
H3013 C3037 0.951 . S
H3014 C3039 0.951 . S
H3015 C3041 0.950 . S
H3016 C3042 0.950 . S
H3017 C3044 0.950 . S
H3018 C3047 0.950 . S
H3019 C3048 0.950 . S
H3020 C3050 0.950 . S
H3021 C3051 0.950 . S
C3022 H3004 0.951 . S
C3022 C3023 1.366 . S
C3022 C3024 1.388 . S
C3023 C3022 1.366 . S
C3023 C3027 1.385 . S
C3024 H3005 0.951 . S
C3024 C3022 1.388 . S
C3024 C3025 1.366 . S
C3025 C3024 1.366 . S
C3025 C3026 1.414 . S
C3025 C3028 1.499 . S
C3026 H3006 0.950 . S
C3026 C3025 1.414 . S
C3026 C3027 1.374 . S
C3027 H3007 0.950 . S
C3027 C3023 1.385 . S
C3027 C3026 1.374 . S
C3028 C3025 1.499 . S
C3028 C3029 1.373 . S
C3028 C3030 1.389 . S
C3029 H3008 0.950 . S
C3029 C3028 1.373 . S
C3029 C3045 1.377 . S
C3030 C3028 1.389 . S
C3030 C3031 1.524 . S
C3030 C3044 1.377 . S
C3031 C3030 1.524 . S
C3031 C3032 1.397 . S
C3031 C3036 1.363 . S
C3032 H3009 0.950 . S
C3032 C3031 1.397 . S
C3032 C3033 1.334 . S
C3033 H3010 0.950 . S
C3033 C3032 1.334 . S
C3033 C3034 1.287 . S
C3034 C3033 1.287 . S
C3034 C3035 1.524 . S
C3034 H3053 0.913 . S
C3035 H3011 0.950 . S
C3035 C3034 1.524 . S
C3035 C3036 1.415 . S
C3036 H3012 0.950 . S
C3036 C3031 1.363 . S
C3036 C3035 1.415 . S
C3037 H3013 0.951 . S
C3037 C3038 1.366 . S
C3037 C3039 1.388 . S
C3038 C3037 1.366 . S
C3038 C3042 1.385 . S
C3039 H3014 0.951 . S
C3039 C3037 1.388 . S
C3039 C3040 1.366 . S
C3040 C3039 1.366 . S
C3040 C3041 1.414 . S
C3040 C3043 1.499 . S
C3041 H3015 0.950 . S
C3041 C3040 1.414 . S
C3041 C3042 1.374 . S
C3042 H3016 0.950 . S
C3042 C3038 1.385 . S
C3042 C3041 1.374 . S
C3043 C3040 1.499 . S
C3043 C3044 1.373 . S
C3043 C3045 1.389 . S
C3044 H3017 0.950 . S
C3044 C3030 1.377 . S
C3044 C3043 1.373 . S
C3045 C3029 1.377 . S
C3045 C3043 1.389 . S
C3045 C3046 1.524 . S
C3046 C3045 1.524 . S
C3046 C3047 1.397 . S
C3046 C3051 1.363 . S
C3047 H3018 0.950 . S
C3047 C3046 1.397 . S
C3047 C3048 1.334 . S
C3048 H3019 0.950 . S
C3048 C3047 1.334 . S
C3048 C3049 1.287 . S
C3049 C3048 1.287 . S
C3049 C3050 1.524 . S
C3049 H3052 0.999 . S
C3050 H3020 0.950 . S
C3050 C3049 1.524 . S
C3050 C3051 1.415 . S
C3051 H3021 0.950 . S
C3051 C3046 1.363 . S
C3051 C3050 1.415 . S
H3052 C3049 0.999 . S
H3053 C3034 0.913 . S
H3054 C3072 0.951 . S
H3055 C3074 0.951 . S
H3056 C3076 0.950 . S
H3057 C3077 0.950 . S
H3058 C3079 0.950 . S
H3059 C3082 0.950 . S
H3060 C3083 0.950 . S
H3061 C3085 0.950 . S
H3062 C3086 0.950 . S
H3063 C3087 0.951 . S
H3064 C3089 0.951 . S
H3065 C3091 0.950 . S
H3066 C3092 0.950 . S
H3067 C3094 0.950 . S
H3068 C3097 0.950 . S
H3069 C3098 0.950 . S
H3070 C3100 0.950 . S
H3071 C3101 0.950 . S
C3072 H3054 0.951 . S
C3072 C3073 1.366 . S
C3072 C3074 1.388 . S
C3073 C3072 1.366 . S
C3073 C3077 1.385 . S
C3074 H3055 0.951 . S
C3074 C3072 1.388 . S
C3074 C3075 1.366 . S
C3075 C3074 1.366 . S
C3075 C3076 1.414 . S
C3075 C3078 1.499 . S
C3076 H3056 0.950 . S
C3076 C3075 1.414 . S
C3076 C3077 1.374 . S
C3077 H3057 0.950 . S
C3077 C3073 1.385 . S
C3077 C3076 1.374 . S
C3078 C3075 1.499 . S
C3078 C3079 1.373 . S
C3078 C3080 1.389 . S
C3079 H3058 0.950 . S
C3079 C3078 1.373 . S
C3079 C3095 1.377 . S
C3080 C3078 1.389 . S
C3080 C3081 1.524 . S
C3080 C3094 1.377 . S
C3081 C3080 1.524 . S
C3081 C3082 1.397 . S
C3081 C3086 1.363 . S
C3082 H3059 0.950 . S
C3082 C3081 1.397 . S
C3082 C3083 1.334 . S
C3083 H3060 0.950 . S
C3083 C3082 1.334 . S
C3083 C3084 1.287 . S
C3084 C3083 1.287 . S
C3084 C3085 1.524 . S
C3084 H3103 0.913 . S
C3085 H3061 0.950 . S
C3085 C3084 1.524 . S
C3085 C3086 1.415 . S
C3086 H3062 0.950 . S
C3086 C3081 1.363 . S
C3086 C3085 1.415 . S
C3087 H3063 0.951 . S
C3087 C3088 1.366 . S
C3087 C3089 1.388 . S
C3088 C3087 1.366 . S
C3088 C3092 1.385 . S
C3089 H3064 0.951 . S
C3089 C3087 1.388 . S
C3089 C3090 1.366 . S
C3090 C3089 1.366 . S
C3090 C3091 1.414 . S
C3090 C3093 1.499 . S
C3091 H3065 0.950 . S
C3091 C3090 1.414 . S
C3091 C3092 1.374 . S
C3092 H3066 0.950 . S
C3092 C3088 1.385 . S
C3092 C3091 1.374 . S
C3093 C3090 1.499 . S
C3093 C3094 1.373 . S
C3093 C3095 1.389 . S
C3094 H3067 0.950 . S
C3094 C3080 1.377 . S
C3094 C3093 1.373 . S
C3095 C3079 1.377 . S
C3095 C3093 1.389 . S
C3095 C3096 1.524 . S
C3096 C3095 1.524 . S
C3096 C3097 1.397 . S
C3096 C3101 1.363 . S
C3097 H3068 0.950 . S
C3097 C3096 1.397 . S
C3097 C3098 1.334 . S
C3098 H3069 0.950 . S
C3098 C3097 1.334 . S
C3098 C3099 1.287 . S
C3099 C3098 1.287 . S
C3099 C3100 1.524 . S
C3099 H3102 0.999 . S
C3100 H3070 0.950 . S
C3100 C3099 1.524 . S
C3100 C3101 1.415 . S
C3101 H3071 0.950 . S
C3101 C3096 1.363 . S
C3101 C3100 1.415 . S
H3102 C3099 0.999 . S
H3103 C3084 0.913 . S
H3104 C3122 0.951 . S
H3105 C3124 0.951 . S
H3106 C3126 0.950 . S
H3107 C3127 0.950 . S
H3108 C3129 0.950 . S
H3109 C3132 0.950 . S
H3110 C3133 0.950 . S
H3111 C3135 0.950 . S
H3112 C3136 0.950 . S
H3113 C3137 0.951 . S
H3114 C3139 0.951 . S
H3115 C3141 0.950 . S
H3116 C3142 0.950 . S
H3117 C3144 0.950 . S
H3118 C3147 0.950 . S
H3119 C3148 0.950 . S
H3120 C3150 0.950 . S
H3121 C3151 0.950 . S
C3122 H3104 0.951 . S
C3122 C3123 1.366 . S
C3122 C3124 1.388 . S
C3123 C3122 1.366 . S
C3123 C3127 1.385 . S
C3124 H3105 0.951 . S
C3124 C3122 1.388 . S
C3124 C3125 1.366 . S
C3125 C3124 1.366 . S
C3125 C3126 1.414 . S
C3125 C3128 1.499 . S
C3126 H3106 0.950 . S
C3126 C3125 1.414 . S
C3126 C3127 1.374 . S
C3127 H3107 0.950 . S
C3127 C3123 1.385 . S
C3127 C3126 1.374 . S
C3128 C3125 1.499 . S
C3128 C3129 1.373 . S
C3128 C3130 1.389 . S
C3129 H3108 0.950 . S
C3129 C3128 1.373 . S
C3129 C3145 1.377 . S
C3130 C3128 1.389 . S
C3130 C3131 1.524 . S
C3130 C3144 1.377 . S
C3131 C3130 1.524 . S
C3131 C3132 1.397 . S
C3131 C3136 1.363 . S
C3132 H3109 0.950 . S
C3132 C3131 1.397 . S
C3132 C3133 1.334 . S
C3133 H3110 0.950 . S
C3133 C3132 1.334 . S
C3133 C3134 1.287 . S
C3134 C3133 1.287 . S
C3134 C3135 1.524 . S
C3134 H3153 0.913 . S
C3135 H3111 0.950 . S
C3135 C3134 1.524 . S
C3135 C3136 1.415 . S
C3136 H3112 0.950 . S
C3136 C3131 1.363 . S
C3136 C3135 1.415 . S
C3137 H3113 0.951 . S
C3137 C3138 1.366 . S
C3137 C3139 1.388 . S
C3138 C3137 1.366 . S
C3138 C3142 1.385 . S
C3139 H3114 0.951 . S
C3139 C3137 1.388 . S
C3139 C3140 1.366 . S
C3140 C3139 1.366 . S
C3140 C3141 1.414 . S
C3140 C3143 1.499 . S
C3141 H3115 0.950 . S
C3141 C3140 1.414 . S
C3141 C3142 1.374 . S
C3142 H3116 0.950 . S
C3142 C3138 1.385 . S
C3142 C3141 1.374 . S
C3143 C3140 1.499 . S
C3143 C3144 1.373 . S
C3143 C3145 1.389 . S
C3144 H3117 0.950 . S
C3144 C3130 1.377 . S
C3144 C3143 1.373 . S
C3145 C3129 1.377 . S
C3145 C3143 1.389 . S
C3145 C3146 1.524 . S
C3146 C3145 1.524 . S
C3146 C3147 1.397 . S
C3146 C3151 1.363 . S
C3147 H3118 0.950 . S
C3147 C3146 1.397 . S
C3147 C3148 1.334 . S
C3148 H3119 0.950 . S
C3148 C3147 1.334 . S
C3148 C3149 1.287 . S
C3149 C3148 1.287 . S
C3149 C3150 1.524 . S
C3149 H3152 0.999 . S
C3150 H3120 0.950 . S
C3150 C3149 1.524 . S
C3150 C3151 1.415 . S
C3151 H3121 0.950 . S
C3151 C3146 1.363 . S
C3151 C3150 1.415 . S
H3152 C3149 0.999 . S
H3153 C3134 0.913 . S
H3154 C3172 0.951 . S
H3155 C3174 0.951 . S
H3156 C3176 0.950 . S
H3157 C3177 0.950 . S
H3158 C3179 0.950 . S
H3159 C3182 0.950 . S
H3160 C3183 0.950 . S
H3161 C3185 0.950 . S
H3162 C3186 0.950 . S
H3163 C3187 0.951 . S
H3164 C3189 0.951 . S
H3165 C3191 0.950 . S
H3166 C3192 0.950 . S
H3167 C3194 0.950 . S
H3168 C3197 0.950 . S
H3169 C3198 0.950 . S
H3170 C3200 0.970 . S
H3171 C3201 0.950 . S
C3172 H3154 0.951 . S
C3172 C3173 1.366 . S
C3172 C3174 1.388 . S
C3173 C3172 1.366 . S
C3173 C3177 1.385 . S
C3174 H3155 0.951 . S
C3174 C3172 1.388 . S
C3174 C3175 1.366 . S
C3175 C3174 1.366 . S
C3175 C3176 1.414 . S
C3175 C3178 1.499 . S
C3176 H3156 0.950 . S
C3176 C3175 1.414 . S
C3176 C3177 1.374 . S
C3177 H3157 0.950 . S
C3177 C3173 1.385 . S
C3177 C3176 1.374 . S
C3178 C3175 1.499 . S
C3178 C3179 1.373 . S
C3178 C3180 1.389 . S
C3179 H3158 0.950 . S
C3179 C3178 1.373 . S
C3179 C3195 1.377 . S
C3180 C3178 1.389 . S
C3180 C3181 1.524 . S
C3180 C3194 1.377 . S
C3181 C3180 1.524 . S
C3181 C3182 1.397 . S
C3181 C3186 1.363 . S
C3182 H3159 0.950 . S
C3182 C3181 1.397 . S
C3182 C3183 1.334 . S
C3183 H3160 0.950 . S
C3183 C3182 1.334 . S
C3183 C3184 1.287 . S
C3184 C3183 1.287 . S
C3184 C3185 1.524 . S
C3184 H3203 0.913 . S
C3185 H3161 0.950 . S
C3185 C3184 1.524 . S
C3185 C3186 1.415 . S
C3186 H3162 0.950 . S
C3186 C3181 1.363 . S
C3186 C3185 1.415 . S
C3187 H3163 0.951 . S
C3187 C3188 1.366 . S
C3187 C3189 1.388 . S
C3188 C3187 1.366 . S
C3188 C3192 1.385 . S
C3189 H3164 0.951 . S
C3189 C3187 1.388 . S
C3189 C3190 1.366 . S
C3190 C3189 1.366 . S
C3190 C3191 1.414 . S
C3190 C3193 1.499 . S
C3191 H3165 0.950 . S
C3191 C3190 1.414 . S
C3191 C3192 1.374 . S
C3192 H3166 0.950 . S
C3192 C3188 1.385 . S
C3192 C3191 1.374 . S
C3193 C3190 1.499 . S
C3193 C3194 1.373 . S
C3193 C3195 1.389 . S
C3194 H3167 0.950 . S
C3194 C3180 1.377 . S
C3194 C3193 1.373 . S
C3195 C3179 1.377 . S
C3195 C3193 1.389 . S
C3195 C3196 1.524 . S
C3196 C3195 1.524 . S
C3196 C3197 1.397 . S
C3196 C3201 1.363 . S
C3197 H3168 0.950 . S
C3197 C3196 1.397 . S
C3197 C3198 1.334 . S
C3198 H3169 0.950 . S
C3198 C3197 1.334 . S
C3198 C3199 1.287 . S
C3199 C3198 1.287 . S
C3199 C3200 1.524 . S
C3199 H3202 1.014 . S
C3200 H3170 0.970 . S
C3200 C3199 1.524 . S
C3200 C3201 1.415 . S
C3201 H3171 0.950 . S
C3201 C3196 1.363 . S
C3201 C3200 1.415 . S
H3202 C3199 1.014 . S
H3203 C3184 0.913 . S
H3204 C3222 0.951 . S
H3205 C3224 0.951 . S
H3206 C3226 0.950 . S
H3207 C3227 0.950 . S
H3208 C3229 0.950 . S
H3209 C3232 0.950 . S
H3210 C3233 0.950 . S
H3211 C3235 0.950 . S
H3212 C3236 0.950 . S
H3213 C3237 0.951 . S
H3214 C3239 0.951 . S
H3215 C3241 0.950 . S
H3216 C3242 0.950 . S
H3217 C3244 0.950 . S
H3218 C3247 0.950 . S
H3219 C3248 0.950 . S
H3220 C3250 0.950 . S
H3221 C3251 0.950 . S
C3222 H3204 0.951 . S
C3222 C3223 1.366 . S
C3222 C3224 1.388 . S
C3223 C3222 1.366 . S
C3223 C3227 1.385 . S
C3224 H3205 0.951 . S
C3224 C3222 1.388 . S
C3224 C3225 1.366 . S
C3225 C3224 1.366 . S
C3225 C3226 1.414 . S
C3225 C3228 1.499 . S
C3226 H3206 0.950 . S
C3226 C3225 1.414 . S
C3226 C3227 1.374 . S
C3227 H3207 0.950 . S
C3227 C3223 1.385 . S
C3227 C3226 1.374 . S
C3228 C3225 1.499 . S
C3228 C3229 1.373 . S
C3228 C3230 1.389 . S
C3229 H3208 0.950 . S
C3229 C3228 1.373 . S
C3229 C3245 1.377 . S
C3230 C3228 1.389 . S
C3230 C3231 1.524 . S
C3230 C3244 1.377 . S
C3231 C3230 1.524 . S
C3231 C3232 1.397 . S
C3231 C3236 1.363 . S
C3232 H3209 0.950 . S
C3232 C3231 1.397 . S
C3232 C3233 1.334 . S
C3233 H3210 0.950 . S
C3233 C3232 1.334 . S
C3233 C3234 1.287 . S
C3234 C3233 1.287 . S
C3234 C3235 1.524 . S
C3234 H3253 0.913 . S
C3235 H3211 0.950 . S
C3235 C3234 1.524 . S
C3235 C3236 1.415 . S
C3236 H3212 0.950 . S
C3236 C3231 1.363 . S
C3236 C3235 1.415 . S
C3237 H3213 0.951 . S
C3237 C3238 1.366 . S
C3237 C3239 1.388 . S
C3238 C3237 1.366 . S
C3238 C3242 1.385 . S
C3239 H3214 0.951 . S
C3239 C3237 1.388 . S
C3239 C3240 1.366 . S
C3240 C3239 1.366 . S
C3240 C3241 1.414 . S
C3240 C3243 1.499 . S
C3241 H3215 0.950 . S
C3241 C3240 1.414 . S
C3241 C3242 1.374 . S
C3242 H3216 0.950 . S
C3242 C3238 1.385 . S
C3242 C3241 1.374 . S
C3243 C3240 1.499 . S
C3243 C3244 1.373 . S
C3243 C3245 1.389 . S
C3244 H3217 0.950 . S
C3244 C3230 1.377 . S
C3244 C3243 1.373 . S
C3245 C3229 1.377 . S
C3245 C3243 1.389 . S
C3245 C3246 1.524 . S
C3246 C3245 1.524 . S
C3246 C3247 1.397 . S
C3246 C3251 1.363 . S
C3247 H3218 0.950 . S
C3247 C3246 1.397 . S
C3247 C3248 1.334 . S
C3248 H3219 0.950 . S
C3248 C3247 1.334 . S
C3248 C3249 1.287 . S
C3249 C3248 1.287 . S
C3249 C3250 1.524 . S
C3249 H3252 0.999 . S
C3250 H3220 0.950 . S
C3250 C3249 1.524 . S
C3250 C3251 1.415 . S
C3251 H3221 0.950 . S
C3251 C3246 1.363 . S
C3251 C3250 1.415 . S
H3252 C3249 0.999 . S
H3253 C3234 0.913 . S
H3254 C3272 0.951 . S
H3255 C3274 0.951 . S
H3256 C3276 0.950 . S
H3257 C3277 0.950 . S
H3258 C3279 0.950 . S
H3259 C3282 0.950 . S
H3260 C3283 0.950 . S
H3261 C3285 0.950 . S
H3262 C3286 0.950 . S
H3263 C3287 0.951 . S
H3264 C3289 0.951 . S
H3265 C3291 0.950 . S
H3266 C3292 0.950 . S
H3267 C3294 0.950 . S
H3268 C3297 0.950 . S
H3269 C3298 0.950 . S
H3270 C3300 0.950 . S
H3271 C3301 0.950 . S
C3272 H3254 0.951 . S
C3272 C3273 1.366 . S
C3272 C3274 1.388 . S
C3273 C3272 1.366 . S
C3273 C3277 1.385 . S
C3274 H3255 0.951 . S
C3274 C3272 1.388 . S
C3274 C3275 1.366 . S
C3275 C3274 1.366 . S
C3275 C3276 1.414 . S
C3275 C3278 1.499 . S
C3276 H3256 0.950 . S
C3276 C3275 1.414 . S
C3276 C3277 1.374 . S
C3277 H3257 0.950 . S
C3277 C3273 1.385 . S
C3277 C3276 1.374 . S
C3278 C3275 1.499 . S
C3278 C3279 1.373 . S
C3278 C3280 1.389 . S
C3279 H3258 0.950 . S
C3279 C3278 1.373 . S
C3279 C3295 1.377 . S
C3280 C3278 1.389 . S
C3280 C3281 1.524 . S
C3280 C3294 1.377 . S
C3281 C3280 1.524 . S
C3281 C3282 1.397 . S
C3281 C3286 1.363 . S
C3282 H3259 0.950 . S
C3282 C3281 1.397 . S
C3282 C3283 1.334 . S
C3283 H3260 0.950 . S
C3283 C3282 1.334 . S
C3283 C3284 1.287 . S
C3284 C3283 1.287 . S
C3284 C3285 1.524 . S
C3284 H3303 0.913 . S
C3285 H3261 0.950 . S
C3285 C3284 1.524 . S
C3285 C3286 1.415 . S
C3286 H3262 0.950 . S
C3286 C3281 1.363 . S
C3286 C3285 1.415 . S
C3287 H3263 0.951 . S
C3287 C3288 1.366 . S
C3287 C3289 1.388 . S
C3288 C3287 1.366 . S
C3288 C3292 1.385 . S
C3289 H3264 0.951 . S
C3289 C3287 1.388 . S
C3289 C3290 1.366 . S
C3290 C3289 1.366 . S
C3290 C3291 1.414 . S
C3290 C3293 1.499 . S
C3291 H3265 0.950 . S
C3291 C3290 1.414 . S
C3291 C3292 1.374 . S
C3292 H3266 0.950 . S
C3292 C3288 1.385 . S
C3292 C3291 1.374 . S
C3293 C3290 1.499 . S
C3293 C3294 1.373 . S
C3293 C3295 1.389 . S
C3294 H3267 0.950 . S
C3294 C3280 1.377 . S
C3294 C3293 1.373 . S
C3295 C3279 1.377 . S
C3295 C3293 1.389 . S
C3295 C3296 1.524 . S
C3296 C3295 1.524 . S
C3296 C3297 1.397 . S
C3296 C3301 1.363 . S
C3297 H3268 0.950 . S
C3297 C3296 1.397 . S
C3297 C3298 1.334 . S
C3298 H3269 0.950 . S
C3298 C3297 1.334 . S
C3298 C3299 1.287 . S
C3299 C3298 1.287 . S
C3299 C3300 1.524 . S
C3299 H3302 0.999 . S
C3300 H3270 0.950 . S
C3300 C3299 1.524 . S
C3300 C3301 1.415 . S
C3301 H3271 0.950 . S
C3301 C3296 1.363 . S
C3301 C3300 1.415 . S
H3302 C3299 0.999 . S
H3303 C3284 0.913 . S
H3304 C3322 0.951 . S
H3305 C3324 0.951 . S
H3306 C3326 0.950 . S
H3307 C3327 0.950 . S
H3308 C3329 0.950 . S
H3309 C3332 0.950 . S
H3310 C3333 0.950 . S
H3311 C3335 0.950 . S
H3312 C3336 0.950 . S
H3313 C3337 0.951 . S
H3314 C3339 0.951 . S
H3315 C3341 0.950 . S
H3316 C3342 0.950 . S
H3317 C3344 0.950 . S
H3318 C3347 0.950 . S
H3319 C3348 0.950 . S
H3320 C3350 0.950 . S
H3321 C3351 0.950 . S
C3322 H3304 0.951 . S
C3322 C3323 1.366 . S
C3322 C3324 1.388 . S
C3323 C3322 1.366 . S
C3323 C3327 1.385 . S
C3324 H3305 0.951 . S
C3324 C3322 1.388 . S
C3324 C3325 1.366 . S
C3325 C3324 1.366 . S
C3325 C3326 1.414 . S
C3325 C3328 1.499 . S
C3326 H3306 0.950 . S
C3326 C3325 1.414 . S
C3326 C3327 1.374 . S
C3327 H3307 0.950 . S
C3327 C3323 1.385 . S
C3327 C3326 1.374 . S
C3328 C3325 1.499 . S
C3328 C3329 1.373 . S
C3328 C3330 1.389 . S
C3329 H3308 0.950 . S
C3329 C3328 1.373 . S
C3329 C3345 1.377 . S
C3330 C3328 1.389 . S
C3330 C3331 1.524 . S
C3330 C3344 1.377 . S
C3331 C3330 1.524 . S
C3331 C3332 1.397 . S
C3331 C3336 1.363 . S
C3332 H3309 0.950 . S
C3332 C3331 1.397 . S
C3332 C3333 1.334 . S
C3333 H3310 0.950 . S
C3333 C3332 1.334 . S
C3333 C3334 1.287 . S
C3334 C3333 1.287 . S
C3334 C3335 1.524 . S
C3334 H3353 0.913 . S
C3335 H3311 0.950 . S
C3335 C3334 1.524 . S
C3335 C3336 1.415 . S
C3336 H3312 0.950 . S
C3336 C3331 1.363 . S
C3336 C3335 1.415 . S
C3337 H3313 0.951 . S
C3337 C3338 1.366 . S
C3337 C3339 1.388 . S
C3338 C3337 1.366 . S
C3338 C3342 1.385 . S
C3339 H3314 0.951 . S
C3339 C3337 1.388 . S
C3339 C3340 1.366 . S
C3340 C3339 1.366 . S
C3340 C3341 1.414 . S
C3340 C3343 1.499 . S
C3341 H3315 0.950 . S
C3341 C3340 1.414 . S
C3341 C3342 1.374 . S
C3342 H3316 0.950 . S
C3342 C3338 1.385 . S
C3342 C3341 1.374 . S
C3343 C3340 1.499 . S
C3343 C3344 1.373 . S
C3343 C3345 1.389 . S
C3344 H3317 0.950 . S
C3344 C3330 1.377 . S
C3344 C3343 1.373 . S
C3345 C3329 1.377 . S
C3345 C3343 1.389 . S
C3345 C3346 1.524 . S
C3346 C3345 1.524 . S
C3346 C3347 1.397 . S
C3346 C3351 1.363 . S
C3347 H3318 0.950 . S
C3347 C3346 1.397 . S
C3347 C3348 1.334 . S
C3348 H3319 0.950 . S
C3348 C3347 1.334 . S
C3348 C3349 1.287 . S
C3349 C3348 1.287 . S
C3349 C3350 1.524 . S
C3349 H3352 0.999 . S
C3350 H3320 0.950 . S
C3350 C3349 1.524 . S
C3350 C3351 1.415 . S
C3351 H3321 0.950 . S
C3351 C3346 1.363 . S
C3351 C3350 1.415 . S
H3352 C3349 0.999 . S
H3353 C3334 0.913 . S
H3354 C3372 0.951 . S
H3355 C3374 0.951 . S
H3356 C3376 0.950 . S
H3357 C3377 0.950 . S
H3358 C3379 0.950 . S
H3359 C3382 0.950 . S
H3360 C3383 0.950 . S
H3361 C3385 0.950 . S
H3362 C3386 0.950 . S
H3363 C3387 0.951 . S
H3364 C3389 0.951 . S
H3365 C3391 0.950 . S
H3366 C3392 0.950 . S
H3367 C3394 0.950 . S
H3368 C3397 0.950 . S
H3369 C3398 0.950 . S
H3370 C3400 0.950 . S
H3371 C3401 0.950 . S
C3372 H3354 0.951 . S
C3372 C3373 1.366 . S
C3372 C3374 1.388 . S
C3373 C3372 1.366 . S
C3373 C3377 1.385 . S
C3374 H3355 0.951 . S
C3374 C3372 1.388 . S
C3374 C3375 1.366 . S
C3375 C3374 1.366 . S
C3375 C3376 1.414 . S
C3375 C3378 1.499 . S
C3376 H3356 0.950 . S
C3376 C3375 1.414 . S
C3376 C3377 1.374 . S
C3377 H3357 0.950 . S
C3377 C3373 1.385 . S
C3377 C3376 1.374 . S
C3378 C3375 1.499 . S
C3378 C3379 1.373 . S
C3378 C3380 1.389 . S
C3379 H3358 0.950 . S
C3379 C3378 1.373 . S
C3379 C3395 1.377 . S
C3380 C3378 1.389 . S
C3380 C3381 1.524 . S
C3380 C3394 1.377 . S
C3381 C3380 1.524 . S
C3381 C3382 1.397 . S
C3381 C3386 1.363 . S
C3382 H3359 0.950 . S
C3382 C3381 1.397 . S
C3382 C3383 1.334 . S
C3383 H3360 0.950 . S
C3383 C3382 1.334 . S
C3383 C3384 1.287 . S
C3384 C3383 1.287 . S
C3384 C3385 1.524 . S
C3384 H3403 0.913 . S
C3385 H3361 0.950 . S
C3385 C3384 1.524 . S
C3385 C3386 1.415 . S
C3386 H3362 0.950 . S
C3386 C3381 1.363 . S
C3386 C3385 1.415 . S
C3387 H3363 0.951 . S
C3387 C3388 1.366 . S
C3387 C3389 1.388 . S
C3388 C3387 1.366 . S
C3388 C3392 1.385 . S
C3389 H3364 0.951 . S
C3389 C3387 1.388 . S
C3389 C3390 1.366 . S
C3390 C3389 1.366 . S
C3390 C3391 1.414 . S
C3390 C3393 1.499 . S
C3391 H3365 0.950 . S
C3391 C3390 1.414 . S
C3391 C3392 1.374 . S
C3392 H3366 0.950 . S
C3392 C3388 1.385 . S
C3392 C3391 1.374 . S
C3393 C3390 1.499 . S
C3393 C3394 1.373 . S
C3393 C3395 1.389 . S
C3394 H3367 0.950 . S
C3394 C3380 1.377 . S
C3394 C3393 1.373 . S
C3395 C3379 1.377 . S
C3395 C3393 1.389 . S
C3395 C3396 1.524 . S
C3396 C3395 1.524 . S
C3396 C3397 1.397 . S
C3396 C3401 1.363 . S
C3397 H3368 0.950 . S
C3397 C3396 1.397 . S
C3397 C3398 1.334 . S
C3398 H3369 0.950 . S
C3398 C3397 1.334 . S
C3398 C3399 1.287 . S
C3399 C3398 1.287 . S
C3399 C3400 1.524 . S
C3399 H3402 0.999 . S
C3400 H3370 0.950 . S
C3400 C3399 1.524 . S
C3400 C3401 1.415 . S
C3401 H3371 0.950 . S
C3401 C3396 1.363 . S
C3401 C3400 1.415 . S
H3402 C3399 0.999 . S
H3403 C3384 0.913 . S
H3404 C3422 0.951 . S
H3405 C3424 0.951 . S
H3406 C3426 0.950 . S
H3407 C3427 0.950 . S
H3408 C3429 0.950 . S
H3409 C3432 0.950 . S
H3410 C3433 0.950 . S
H3411 C3435 0.950 . S
H3412 C3436 0.950 . S
H3413 C3437 0.951 . S
H3414 C3439 0.951 . S
H3415 C3441 0.950 . S
H3416 C3442 0.950 . S
H3417 C3444 0.950 . S
H3418 C3447 0.950 . S
H3419 C3448 0.950 . S
H3420 C3450 0.950 . S
H3421 C3451 0.950 . S
C3422 H3404 0.951 . S
C3422 C3423 1.366 . S
C3422 C3424 1.388 . S
C3423 C3422 1.366 . S
C3423 C3427 1.385 . S
C3424 H3405 0.951 . S
C3424 C3422 1.388 . S
C3424 C3425 1.366 . S
C3425 C3424 1.366 . S
C3425 C3426 1.414 . S
C3425 C3428 1.499 . S
C3426 H3406 0.950 . S
C3426 C3425 1.414 . S
C3426 C3427 1.374 . S
C3427 H3407 0.950 . S
C3427 C3423 1.385 . S
C3427 C3426 1.374 . S
C3428 C3425 1.499 . S
C3428 C3429 1.373 . S
C3428 C3430 1.389 . S
C3429 H3408 0.950 . S
C3429 C3428 1.373 . S
C3429 C3445 1.377 . S
C3430 C3428 1.389 . S
C3430 C3431 1.524 . S
C3430 C3444 1.377 . S
C3431 C3430 1.524 . S
C3431 C3432 1.397 . S
C3431 C3436 1.363 . S
C3432 H3409 0.950 . S
C3432 C3431 1.397 . S
C3432 C3433 1.334 . S
C3433 H3410 0.950 . S
C3433 C3432 1.334 . S
C3433 C3434 1.287 . S
C3434 C3433 1.287 . S
C3434 C3435 1.524 . S
C3434 H3453 0.913 . S
C3435 H3411 0.950 . S
C3435 C3434 1.524 . S
C3435 C3436 1.415 . S
C3436 H3412 0.950 . S
C3436 C3431 1.363 . S
C3436 C3435 1.415 . S
C3437 H3413 0.951 . S
C3437 C3438 1.366 . S
C3437 C3439 1.388 . S
C3438 C3437 1.366 . S
C3438 C3442 1.385 . S
C3439 H3414 0.951 . S
C3439 C3437 1.388 . S
C3439 C3440 1.366 . S
C3440 C3439 1.366 . S
C3440 C3441 1.414 . S
C3440 C3443 1.499 . S
C3441 H3415 0.950 . S
C3441 C3440 1.414 . S
C3441 C3442 1.374 . S
C3442 H3416 0.950 . S
C3442 C3438 1.385 . S
C3442 C3441 1.374 . S
C3443 C3440 1.499 . S
C3443 C3444 1.373 . S
C3443 C3445 1.389 . S
C3444 H3417 0.950 . S
C3444 C3430 1.377 . S
C3444 C3443 1.373 . S
C3445 C3429 1.377 . S
C3445 C3443 1.389 . S
C3445 C3446 1.524 . S
C3446 C3445 1.524 . S
C3446 C3447 1.397 . S
C3446 C3451 1.363 . S
C3447 H3418 0.950 . S
C3447 C3446 1.397 . S
C3447 C3448 1.334 . S
C3448 H3419 0.950 . S
C3448 C3447 1.334 . S
C3448 C3449 1.287 . S
C3449 C3448 1.287 . S
C3449 C3450 1.524 . S
C3449 H3452 0.999 . S
C3450 H3420 0.950 . S
C3450 C3449 1.524 . S
C3450 C3451 1.415 . S
C3451 H3421 0.950 . S
C3451 C3446 1.363 . S
C3451 C3450 1.415 . S
H3452 C3449 0.999 . S
H3453 C3434 0.913 . S
H3454 C3472 0.951 . S
H3455 C3474 0.951 . S
H3456 C3476 0.950 . S
H3457 C3477 0.950 . S
H3458 C3479 0.950 . S
H3459 C3482 0.950 . S
H3460 C3483 0.950 . S
H3461 C3485 0.950 . S
H3462 C3486 0.950 . S
H3463 C3487 0.951 . S
H3464 C3489 0.951 . S
H3465 C3491 0.950 . S
H3466 C3492 0.950 . S
H3467 C3494 0.950 . S
H3468 C3497 0.950 . S
H3469 C3498 0.950 . S
H3470 C3500 0.950 . S
H3471 C3501 0.950 . S
C3472 H3454 0.951 . S
C3472 C3473 1.366 . S
C3472 C3474 1.388 . S
C3473 C3472 1.366 . S
C3473 C3477 1.385 . S
C3474 H3455 0.951 . S
C3474 C3472 1.388 . S
C3474 C3475 1.366 . S
C3475 C3474 1.366 . S
C3475 C3476 1.414 . S
C3475 C3478 1.499 . S
C3476 H3456 0.950 . S
C3476 C3475 1.414 . S
C3476 C3477 1.374 . S
C3477 H3457 0.950 . S
C3477 C3473 1.385 . S
C3477 C3476 1.374 . S
C3478 C3475 1.499 . S
C3478 C3479 1.373 . S
C3478 C3480 1.389 . S
C3479 H3458 0.950 . S
C3479 C3478 1.373 . S
C3479 C3495 1.377 . S
C3480 C3478 1.389 . S
C3480 C3481 1.524 . S
C3480 C3494 1.377 . S
C3481 C3480 1.524 . S
C3481 C3482 1.397 . S
C3481 C3486 1.363 . S
C3482 H3459 0.950 . S
C3482 C3481 1.397 . S
C3482 C3483 1.334 . S
C3483 H3460 0.950 . S
C3483 C3482 1.334 . S
C3483 C3484 1.287 . S
C3484 C3483 1.287 . S
C3484 C3485 1.524 . S
C3484 H3503 0.913 . S
C3485 H3461 0.950 . S
C3485 C3484 1.524 . S
C3485 C3486 1.415 . S
C3486 H3462 0.950 . S
C3486 C3481 1.363 . S
C3486 C3485 1.415 . S
C3487 H3463 0.951 . S
C3487 C3488 1.366 . S
C3487 C3489 1.388 . S
C3488 C3487 1.366 . S
C3488 C3492 1.385 . S
C3489 H3464 0.951 . S
C3489 C3487 1.388 . S
C3489 C3490 1.366 . S
C3490 C3489 1.366 . S
C3490 C3491 1.414 . S
C3490 C3493 1.499 . S
C3491 H3465 0.950 . S
C3491 C3490 1.414 . S
C3491 C3492 1.374 . S
C3492 H3466 0.950 . S
C3492 C3488 1.385 . S
C3492 C3491 1.374 . S
C3493 C3490 1.499 . S
C3493 C3494 1.373 . S
C3493 C3495 1.389 . S
C3494 H3467 0.950 . S
C3494 C3480 1.377 . S
C3494 C3493 1.373 . S
C3495 C3479 1.377 . S
C3495 C3493 1.389 . S
C3495 C3496 1.524 . S
C3496 C3495 1.524 . S
C3496 C3497 1.397 . S
C3496 C3501 1.363 . S
C3497 H3468 0.950 . S
C3497 C3496 1.397 . S
C3497 C3498 1.334 . S
C3498 H3469 0.950 . S
C3498 C3497 1.334 . S
C3498 C3499 1.287 . S
C3499 C3498 1.287 . S
C3499 C3500 1.524 . S
C3499 H3502 0.999 . S
C3500 H3470 0.950 . S
C3500 C3499 1.524 . S
C3500 C3501 1.415 . S
C3501 H3471 0.950 . S
C3501 C3496 1.363 . S
C3501 C3500 1.415 . S
H3502 C3499 0.999 . S
H3503 C3484 0.913 . S
H3504 C3522 0.951 . S
H3505 C3524 0.951 . S
H3506 C3526 0.950 . S
H3507 C3527 0.950 . S
H3508 C3529 0.950 . S
H3509 C3532 0.950 . S
H3510 C3533 0.950 . S
H3511 C3535 0.950 1_565 S
H3512 C3536 0.950 . S
H3513 C3537 0.951 . S
H3514 C3539 0.951 . S
H3515 C3541 0.950 . S
H3516 C3542 0.950 . S
H3517 C3544 0.950 . S
H3518 C3547 0.950 . S
H3519 C3548 0.950 . S
H3520 C3550 0.950 . S
H3521 C3551 0.950 . S
C3522 H3504 0.951 . S
C3522 C3523 1.366 . S
C3522 C3524 1.388 . S
C3523 C3522 1.366 . S
C3523 C3527 1.385 . S
C3524 H3505 0.951 . S
C3524 C3522 1.388 . S
C3524 C3525 1.366 . S
C3525 C3524 1.366 . S
C3525 C3526 1.414 . S
C3525 C3528 1.499 . S
C3526 H3506 0.950 . S
C3526 C3525 1.414 . S
C3526 C3527 1.374 . S
C3527 H3507 0.950 . S
C3527 C3523 1.385 . S
C3527 C3526 1.374 . S
C3528 C3525 1.499 . S
C3528 C3529 1.373 . S
C3528 C3530 1.389 . S
C3529 H3508 0.950 . S
C3529 C3528 1.373 . S
C3529 C3545 1.377 . S
C3530 C3528 1.389 . S
C3530 C3531 1.524 . S
C3530 C3544 1.377 . S
C3531 C3530 1.524 . S
C3531 C3532 1.397 . S
C3531 C3536 1.363 . S
C3532 H3509 0.950 . S
C3532 C3531 1.397 . S
C3532 C3533 1.334 . S
C3533 H3510 0.950 . S
C3533 C3532 1.334 . S
C3533 C3534 1.287 1_545 S
C3534 C3533 1.287 1_565 S
C3534 C3535 1.524 1_565 S
C3534 H3553 0.913 . S
C3535 H3511 0.950 1_545 S
C3535 C3534 1.524 1_545 S
C3535 C3536 1.415 . S
C3536 H3512 0.950 . S
C3536 C3531 1.363 . S
C3536 C3535 1.415 . S
C3537 H3513 0.951 . S
C3537 C3538 1.366 . S
C3537 C3539 1.388 . S
C3538 C3537 1.366 . S
C3538 C3542 1.385 . S
C3539 H3514 0.951 . S
C3539 C3537 1.388 . S
C3539 C3540 1.366 . S
C3540 C3539 1.366 . S
C3540 C3541 1.414 . S
C3540 C3543 1.499 . S
C3541 H3515 0.950 . S
C3541 C3540 1.414 . S
C3541 C3542 1.374 . S
C3542 H3516 0.950 . S
C3542 C3538 1.385 . S
C3542 C3541 1.374 . S
C3543 C3540 1.499 . S
C3543 C3544 1.373 . S
C3543 C3545 1.389 . S
C3544 H3517 0.950 . S
C3544 C3530 1.377 . S
C3544 C3543 1.373 . S
C3545 C3529 1.377 . S
C3545 C3543 1.389 . S
C3545 C3546 1.524 . S
C3546 C3545 1.524 . S
C3546 C3547 1.397 . S
C3546 C3551 1.363 . S
C3547 H3518 0.950 . S
C3547 C3546 1.397 . S
C3547 C3548 1.334 . S
C3548 H3519 0.950 . S
C3548 C3547 1.334 . S
C3548 C3549 1.287 . S
C3549 C3548 1.287 . S
C3549 C3550 1.524 . S
C3549 H3552 0.999 . S
C3550 H3520 0.950 . S
C3550 C3549 1.524 . S
C3550 C3551 1.415 . S
C3551 H3521 0.950 . S
C3551 C3546 1.363 . S
C3551 C3550 1.415 . S
H3552 C3549 0.999 . S
H3553 C3534 0.913 . S
H3554 C3572 0.951 . S
H3555 C3574 0.951 . S
H3556 C3576 0.950 . S
H3557 C3577 0.950 . S
H3558 C3579 0.950 . S
H3559 C3582 0.950 . S
H3560 C3583 0.950 1_455 S
H3561 C3585 0.950 . S
H3562 C3586 0.950 . S
H3563 C3587 0.951 . S
H3564 C3589 0.951 . S
H3565 C3591 0.950 . S
H3566 C3592 0.950 . S
H3567 C3594 0.950 . S
H3568 C3597 0.950 . S
H3569 C3598 0.950 . S
H3570 C3600 0.950 . S
H3571 C3601 0.950 . S
C3572 H3554 0.951 . S
C3572 C3573 1.366 . S
C3572 C3574 1.388 . S
C3573 C3572 1.366 . S
C3573 C3577 1.385 . S
C3574 H3555 0.951 . S
C3574 C3572 1.388 . S
C3574 C3575 1.366 . S
C3575 C3574 1.366 . S
C3575 C3576 1.414 . S
C3575 C3578 1.499 . S
C3576 H3556 0.950 . S
C3576 C3575 1.414 . S
C3576 C3577 1.374 . S
C3577 H3557 0.950 . S
C3577 C3573 1.385 . S
C3577 C3576 1.374 . S
C3578 C3575 1.499 . S
C3578 C3579 1.373 . S
C3578 C3580 1.389 . S
C3579 H3558 0.950 . S
C3579 C3578 1.373 . S
C3579 C3595 1.377 . S
C3580 C3578 1.389 . S
C3580 C3581 1.524 . S
C3580 C3594 1.377 . S
C3581 C3580 1.524 . S
C3581 C3582 1.397 . S
C3581 C3586 1.363 . S
C3582 H3559 0.950 . S
C3582 C3581 1.397 . S
C3582 C3583 1.334 . S
C3583 H3560 0.950 1_655 S
C3583 C3582 1.334 . S
C3583 C3584 1.287 . S
C3584 C3583 1.287 . S
C3584 C3585 1.524 . S
C3584 H3603 0.913 1_655 S
C3585 H3561 0.950 . S
C3585 C3584 1.524 . S
C3585 C3586 1.415 . S
C3586 H3562 0.950 . S
C3586 C3581 1.363 . S
C3586 C3585 1.415 . S
C3587 H3563 0.951 . S
C3587 C3588 1.366 . S
C3587 C3589 1.388 . S
C3588 C3587 1.366 . S
C3588 C3592 1.385 . S
C3589 H3564 0.951 . S
C3589 C3587 1.388 . S
C3589 C3590 1.366 . S
C3590 C3589 1.366 . S
C3590 C3591 1.414 . S
C3590 C3593 1.499 . S
C3591 H3565 0.950 . S
C3591 C3590 1.414 . S
C3591 C3592 1.374 . S
C3592 H3566 0.950 . S
C3592 C3588 1.385 . S
C3592 C3591 1.374 . S
C3593 C3590 1.499 . S
C3593 C3594 1.373 . S
C3593 C3595 1.389 . S
C3594 H3567 0.950 . S
C3594 C3580 1.377 . S
C3594 C3593 1.373 . S
C3595 C3579 1.377 . S
C3595 C3593 1.389 . S
C3595 C3596 1.524 . S
C3596 C3595 1.524 . S
C3596 C3597 1.397 . S
C3596 C3601 1.363 . S
C3597 H3568 0.950 . S
C3597 C3596 1.397 . S
C3597 C3598 1.334 . S
C3598 H3569 0.950 . S
C3598 C3597 1.334 . S
C3598 C3599 1.287 . S
C3599 C3598 1.287 . S
C3599 C3600 1.524 . S
C3599 H3602 0.999 . S
C3600 H3570 0.950 . S
C3600 C3599 1.524 . S
C3600 C3601 1.415 . S
C3601 H3571 0.950 . S
C3601 C3596 1.363 . S
C3601 C3600 1.415 . S
H3602 C3599 0.999 . S
H3603 C3584 0.913 1_455 S
H3604 C3622 0.951 . S
H3605 C3624 0.951 . S
H3606 C3626 0.950 . S
H3607 C3627 0.950 . S
H3608 C3629 0.950 . S
H3609 C3632 0.950 . S
H3610 C3633 0.950 . S
H3611 C3635 0.950 . S
H3612 C3636 0.950 . S
H3613 C3637 0.951 . S
H3614 C3639 0.951 . S
H3615 C3641 0.950 . S
H3616 C3642 0.950 . S
H3617 C3644 0.950 . S
H3618 C3647 0.950 . S
H3619 C3648 0.950 . S
H3620 C3650 0.950 . S
H3621 C3651 0.950 . S
C3622 H3604 0.951 . S
C3622 C3623 1.366 . S
C3622 C3624 1.388 . S
C3623 C3622 1.366 . S
C3623 C3627 1.385 . S
C3624 H3605 0.951 . S
C3624 C3622 1.388 . S
C3624 C3625 1.366 . S
C3625 C3624 1.366 . S
C3625 C3626 1.414 . S
C3625 C3628 1.499 . S
C3626 H3606 0.950 . S
C3626 C3625 1.414 . S
C3626 C3627 1.374 . S
C3627 H3607 0.950 . S
C3627 C3623 1.385 . S
C3627 C3626 1.374 . S
C3628 C3625 1.499 . S
C3628 C3629 1.373 . S
C3628 C3630 1.389 . S
C3629 H3608 0.950 . S
C3629 C3628 1.373 . S
C3629 C3645 1.377 . S
C3630 C3628 1.389 . S
C3630 C3631 1.524 . S
C3630 C3644 1.377 . S
C3631 C3630 1.524 . S
C3631 C3632 1.397 . S
C3631 C3636 1.363 . S
C3632 H3609 0.950 . S
C3632 C3631 1.397 . S
C3632 C3633 1.334 . S
C3633 H3610 0.950 . S
C3633 C3632 1.334 . S
C3633 C3634 1.287 . S
C3634 C3633 1.287 . S
C3634 C3635 1.524 . S
C3634 H3653 0.913 . S
C3635 H3611 0.950 . S
C3635 C3634 1.524 . S
C3635 C3636 1.415 . S
C3636 H3612 0.950 . S
C3636 C3631 1.363 . S
C3636 C3635 1.415 . S
C3637 H3613 0.951 . S
C3637 C3638 1.366 . S
C3637 C3639 1.388 . S
C3638 C3637 1.366 . S
C3638 C3642 1.385 . S
C3639 H3614 0.951 . S
C3639 C3637 1.388 . S
C3639 C3640 1.366 . S
C3640 C3639 1.366 . S
C3640 C3641 1.414 . S
C3640 C3643 1.499 . S
C3641 H3615 0.950 . S
C3641 C3640 1.414 . S
C3641 C3642 1.374 . S
C3642 H3616 0.950 . S
C3642 C3638 1.385 . S
C3642 C3641 1.374 . S
C3643 C3640 1.499 . S
C3643 C3644 1.373 . S
C3643 C3645 1.389 . S
C3644 H3617 0.950 . S
C3644 C3630 1.377 . S
C3644 C3643 1.373 . S
C3645 C3629 1.377 . S
C3645 C3643 1.389 . S
C3645 C3646 1.524 . S
C3646 C3645 1.524 . S
C3646 C3647 1.397 . S
C3646 C3651 1.363 . S
C3647 H3618 0.950 . S
C3647 C3646 1.397 . S
C3647 C3648 1.334 . S
C3648 H3619 0.950 . S
C3648 C3647 1.334 . S
C3648 C3649 1.287 . S
C3649 C3648 1.287 . S
C3649 C3650 1.524 . S
C3649 H3652 0.999 . S
C3650 H3620 0.950 . S
C3650 C3649 1.524 . S
C3650 C3651 1.415 . S
C3651 H3621 0.950 . S
C3651 C3646 1.363 . S
C3651 C3650 1.415 . S
H3652 C3649 0.999 . S
H3653 C3634 0.913 . S
H3654 C3672 0.951 . S
H3655 C3674 0.951 . S
H3656 C3676 0.950 . S
H3657 C3677 0.950 . S
H3658 C3679 0.950 . S
H3659 C3682 0.950 . S
H3660 C3683 0.950 . S
H3661 C3685 0.950 . S
H3662 C3686 0.950 . S
H3663 C3687 0.951 . S
H3664 C3689 0.951 . S
H3665 C3691 0.950 . S
H3666 C3692 0.950 . S
H3667 C3694 0.950 . S
H3668 C3697 0.950 . S
H3669 C3698 0.950 . S
H3670 C3700 0.950 . S
H3671 C3701 0.950 . S
C3672 H3654 0.951 . S
C3672 C3673 1.366 . S
C3672 C3674 1.388 . S
C3673 C3672 1.366 . S
C3673 C3677 1.385 . S
C3674 H3655 0.951 . S
C3674 C3672 1.388 . S
C3674 C3675 1.366 . S
C3675 C3674 1.366 . S
C3675 C3676 1.414 . S
C3675 C3678 1.499 . S
C3676 H3656 0.950 . S
C3676 C3675 1.414 . S
C3676 C3677 1.374 . S
C3677 H3657 0.950 . S
C3677 C3673 1.385 . S
C3677 C3676 1.374 . S
C3678 C3675 1.499 . S
C3678 C3679 1.373 . S
C3678 C3680 1.389 . S
C3679 H3658 0.950 . S
C3679 C3678 1.373 . S
C3679 C3695 1.377 . S
C3680 C3678 1.389 . S
C3680 C3681 1.524 . S
C3680 C3694 1.377 . S
C3681 C3680 1.524 . S
C3681 C3682 1.397 . S
C3681 C3686 1.363 . S
C3682 H3659 0.950 . S
C3682 C3681 1.397 . S
C3682 C3683 1.334 . S
C3683 H3660 0.950 . S
C3683 C3682 1.334 . S
C3683 C3684 1.287 . S
C3684 C3683 1.287 . S
C3684 C3685 1.524 . S
C3684 H3703 0.913 . S
C3685 H3661 0.950 . S
C3685 C3684 1.524 . S
C3685 C3686 1.415 . S
C3686 H3662 0.950 . S
C3686 C3681 1.363 . S
C3686 C3685 1.415 . S
C3687 H3663 0.951 . S
C3687 C3688 1.366 . S
C3687 C3689 1.388 . S
C3688 C3687 1.366 . S
C3688 C3692 1.385 . S
C3689 H3664 0.951 . S
C3689 C3687 1.388 . S
C3689 C3690 1.366 . S
C3690 C3689 1.366 . S
C3690 C3691 1.414 . S
C3690 C3693 1.499 . S
C3691 H3665 0.950 . S
C3691 C3690 1.414 . S
C3691 C3692 1.374 . S
C3692 H3666 0.950 . S
C3692 C3688 1.385 . S
C3692 C3691 1.374 . S
C3693 C3690 1.499 . S
C3693 C3694 1.373 . S
C3693 C3695 1.389 . S
C3694 H3667 0.950 . S
C3694 C3680 1.377 . S
C3694 C3693 1.373 . S
C3695 C3679 1.377 . S
C3695 C3693 1.389 . S
C3695 C3696 1.524 . S
C3696 C3695 1.524 . S
C3696 C3697 1.397 . S
C3696 C3701 1.363 . S
C3697 H3668 0.950 . S
C3697 C3696 1.397 . S
C3697 C3698 1.334 . S
C3698 H3669 0.950 . S
C3698 C3697 1.334 . S
C3698 C3699 1.287 . S
C3699 C3698 1.287 . S
C3699 C3700 1.524 . S
C3699 H3702 0.999 . S
C3700 H3670 0.950 . S
C3700 C3699 1.524 . S
C3700 C3701 1.415 . S
C3701 H3671 0.950 . S
C3701 C3696 1.363 . S
C3701 C3700 1.415 . S
H3702 C3699 0.999 . S
H3703 C3684 0.913 . S
H3704 C3722 0.951 . S
H3705 C3724 0.951 . S
H3706 C3726 0.950 . S
H3707 C3727 0.950 . S
H3708 C3729 0.950 . S
H3709 C3732 0.950 . S
H3710 C3733 0.950 . S
H3711 C3735 0.950 . S
H3712 C3736 0.950 . S
H3713 C3737 0.951 . S
H3714 C3739 0.951 . S
H3715 C3741 0.950 . S
H3716 C3742 0.950 . S
H3717 C3744 0.950 . S
H3718 C3747 0.950 . S
H3719 C3748 0.950 . S
H3720 C3750 0.950 . S
H3721 C3751 0.950 . S
C3722 H3704 0.951 . S
C3722 C3723 1.366 . S
C3722 C3724 1.388 . S
C3723 C3722 1.366 . S
C3723 C3727 1.385 . S
C3724 H3705 0.951 . S
C3724 C3722 1.388 . S
C3724 C3725 1.366 . S
C3725 C3724 1.366 . S
C3725 C3726 1.414 . S
C3725 C3728 1.499 . S
C3726 H3706 0.950 . S
C3726 C3725 1.414 . S
C3726 C3727 1.374 . S
C3727 H3707 0.950 . S
C3727 C3723 1.385 . S
C3727 C3726 1.374 . S
C3728 C3725 1.499 . S
C3728 C3729 1.373 . S
C3728 C3730 1.389 . S
C3729 H3708 0.950 . S
C3729 C3728 1.373 . S
C3729 C3745 1.377 . S
C3730 C3728 1.389 . S
C3730 C3731 1.524 . S
C3730 C3744 1.377 . S
C3731 C3730 1.524 . S
C3731 C3732 1.397 . S
C3731 C3736 1.363 . S
C3732 H3709 0.950 . S
C3732 C3731 1.397 . S
C3732 C3733 1.334 . S
C3733 H3710 0.950 . S
C3733 C3732 1.334 . S
C3733 C3734 1.287 . S
C3734 C3733 1.287 . S
C3734 C3735 1.524 . S
C3734 H3753 0.913 . S
C3735 H3711 0.950 . S
C3735 C3734 1.524 . S
C3735 C3736 1.415 . S
C3736 H3712 0.950 . S
C3736 C3731 1.363 . S
C3736 C3735 1.415 . S
C3737 H3713 0.951 . S
C3737 C3738 1.366 . S
C3737 C3739 1.388 . S
C3738 C3737 1.366 . S
C3738 C3742 1.385 . S
C3739 H3714 0.951 . S
C3739 C3737 1.388 . S
C3739 C3740 1.366 . S
C3740 C3739 1.366 . S
C3740 C3741 1.414 . S
C3740 C3743 1.499 . S
C3741 H3715 0.950 . S
C3741 C3740 1.414 . S
C3741 C3742 1.374 . S
C3742 H3716 0.950 . S
C3742 C3738 1.385 . S
C3742 C3741 1.374 . S
C3743 C3740 1.499 . S
C3743 C3744 1.373 . S
C3743 C3745 1.389 . S
C3744 H3717 0.950 . S
C3744 C3730 1.377 . S
C3744 C3743 1.373 . S
C3745 C3729 1.377 . S
C3745 C3743 1.389 . S
C3745 C3746 1.524 . S
C3746 C3745 1.524 . S
C3746 C3747 1.397 . S
C3746 C3751 1.363 . S
C3747 H3718 0.950 . S
C3747 C3746 1.397 . S
C3747 C3748 1.334 . S
C3748 H3719 0.950 . S
C3748 C3747 1.334 . S
C3748 C3749 1.287 . S
C3749 C3748 1.287 . S
C3749 C3750 1.524 . S
C3749 H3752 0.999 . S
C3750 H3720 0.950 . S
C3750 C3749 1.524 . S
C3750 C3751 1.415 . S
C3751 H3721 0.950 . S
C3751 C3746 1.363 . S
C3751 C3750 1.415 . S
H3752 C3749 0.999 . S
H3753 C3734 0.913 . S
H3754 C3772 0.951 . S
H3755 C3774 0.951 . S
H3756 C3776 0.950 . S
H3757 C3777 0.950 . S
H3758 C3779 0.950 . S
H3759 C3782 0.950 . S
H3760 C3783 0.950 . S
H3761 C3785 0.950 . S
H3762 C3786 0.950 . S
H3763 C3787 0.951 . S
H3764 C3789 0.951 . S
H3765 C3791 0.950 . S
H3766 C3792 0.950 . S
H3767 C3794 0.950 . S
H3768 C3797 0.950 . S
H3769 C3798 0.950 . S
H3770 C3800 0.950 . S
H3771 C3801 0.950 . S
C3772 H3754 0.951 . S
C3772 C3773 1.366 . S
C3772 C3774 1.388 . S
C3773 C3772 1.366 . S
C3773 C3777 1.385 . S
C3774 H3755 0.951 . S
C3774 C3772 1.388 . S
C3774 C3775 1.366 . S
C3775 C3774 1.366 . S
C3775 C3776 1.414 . S
C3775 C3778 1.499 . S
C3776 H3756 0.950 . S
C3776 C3775 1.414 . S
C3776 C3777 1.374 . S
C3777 H3757 0.950 . S
C3777 C3773 1.385 . S
C3777 C3776 1.374 . S
C3778 C3775 1.499 . S
C3778 C3779 1.373 . S
C3778 C3780 1.389 . S
C3779 H3758 0.950 . S
C3779 C3778 1.373 . S
C3779 C3795 1.377 . S
C3780 C3778 1.389 . S
C3780 C3781 1.524 . S
C3780 C3794 1.377 . S
C3781 C3780 1.524 . S
C3781 C3782 1.397 . S
C3781 C3786 1.363 . S
C3782 H3759 0.950 . S
C3782 C3781 1.397 . S
C3782 C3783 1.334 . S
C3783 H3760 0.950 . S
C3783 C3782 1.334 . S
C3783 C3784 1.287 . S
C3784 C3783 1.287 . S
C3784 C3785 1.524 . S
C3784 H3803 0.913 . S
C3785 H3761 0.950 . S
C3785 C3784 1.524 . S
C3785 C3786 1.415 . S
C3786 H3762 0.950 . S
C3786 C3781 1.363 . S
C3786 C3785 1.415 . S
C3787 H3763 0.951 . S
C3787 C3788 1.366 . S
C3787 C3789 1.388 . S
C3788 C3787 1.366 . S
C3788 C3792 1.385 . S
C3789 H3764 0.951 . S
C3789 C3787 1.388 . S
C3789 C3790 1.366 . S
C3790 C3789 1.366 . S
C3790 C3791 1.414 . S
C3790 C3793 1.499 . S
C3791 H3765 0.950 . S
C3791 C3790 1.414 . S
C3791 C3792 1.374 . S
C3792 H3766 0.950 . S
C3792 C3788 1.385 . S
C3792 C3791 1.374 . S
C3793 C3790 1.499 . S
C3793 C3794 1.373 . S
C3793 C3795 1.389 . S
C3794 H3767 0.950 . S
C3794 C3780 1.377 . S
C3794 C3793 1.373 . S
C3795 C3779 1.377 . S
C3795 C3793 1.389 . S
C3795 C3796 1.524 . S
C3796 C3795 1.524 . S
C3796 C3797 1.397 . S
C3796 C3801 1.363 . S
C3797 H3768 0.950 . S
C3797 C3796 1.397 . S
C3797 C3798 1.334 . S
C3798 H3769 0.950 . S
C3798 C3797 1.334 . S
C3798 C3799 1.287 . S
C3799 C3798 1.287 . S
C3799 C3800 1.524 . S
C3799 H3802 0.999 . S
C3800 H3770 0.950 . S
C3800 C3799 1.524 . S
C3800 C3801 1.415 . S
C3801 H3771 0.950 . S
C3801 C3796 1.363 . S
C3801 C3800 1.415 . S
H3802 C3799 0.999 . S
H3803 C3784 0.913 . S
H3804 C3822 0.951 . S
H3805 C3824 0.951 . S
H3806 C3826 0.950 . S
H3807 C3827 0.950 . S
H3808 C3829 0.950 . S
H3809 C3832 0.950 . S
H3810 C3833 0.950 . S
H3811 C3835 0.950 . S
H3812 C3836 0.950 . S
H3813 C3837 0.951 . S
H3814 C3839 0.951 . S
H3815 C3841 0.950 . S
H3816 C3842 0.950 . S
H3817 C3844 0.950 . S
H3818 C3847 0.950 . S
H3819 C3848 0.950 . S
H3820 C3850 0.950 . S
H3821 C3851 0.950 . S
C3822 H3804 0.951 . S
C3822 C3823 1.366 . S
C3822 C3824 1.388 . S
C3823 C3822 1.366 . S
C3823 C3827 1.385 . S
C3824 H3805 0.951 . S
C3824 C3822 1.388 . S
C3824 C3825 1.366 . S
C3825 C3824 1.366 . S
C3825 C3826 1.414 . S
C3825 C3828 1.499 . S
C3826 H3806 0.950 . S
C3826 C3825 1.414 . S
C3826 C3827 1.374 . S
C3827 H3807 0.950 . S
C3827 C3823 1.385 . S
C3827 C3826 1.374 . S
C3828 C3825 1.499 . S
C3828 C3829 1.373 . S
C3828 C3830 1.389 . S
C3829 H3808 0.950 . S
C3829 C3828 1.373 . S
C3829 C3845 1.377 . S
C3830 C3828 1.389 . S
C3830 C3831 1.524 . S
C3830 C3844 1.377 . S
C3831 C3830 1.524 . S
C3831 C3832 1.397 . S
C3831 C3836 1.363 . S
C3832 H3809 0.950 . S
C3832 C3831 1.397 . S
C3832 C3833 1.334 . S
C3833 H3810 0.950 . S
C3833 C3832 1.334 . S
C3833 C3834 1.287 . S
C3834 C3833 1.287 . S
C3834 C3835 1.524 . S
C3834 H3853 0.913 . S
C3835 H3811 0.950 . S
C3835 C3834 1.524 . S
C3835 C3836 1.415 . S
C3836 H3812 0.950 . S
C3836 C3831 1.363 . S
C3836 C3835 1.415 . S
C3837 H3813 0.951 . S
C3837 C3838 1.366 . S
C3837 C3839 1.388 . S
C3838 C3837 1.366 . S
C3838 C3842 1.385 . S
C3839 H3814 0.951 . S
C3839 C3837 1.388 . S
C3839 C3840 1.366 . S
C3840 C3839 1.366 . S
C3840 C3841 1.414 . S
C3840 C3843 1.499 . S
C3841 H3815 0.950 . S
C3841 C3840 1.414 . S
C3841 C3842 1.374 . S
C3842 H3816 0.950 . S
C3842 C3838 1.385 . S
C3842 C3841 1.374 . S
C3843 C3840 1.499 . S
C3843 C3844 1.373 . S
C3843 C3845 1.389 . S
C3844 H3817 0.950 . S
C3844 C3830 1.377 . S
C3844 C3843 1.373 . S
C3845 C3829 1.377 . S
C3845 C3843 1.389 . S
C3845 C3846 1.524 . S
C3846 C3845 1.524 . S
C3846 C3847 1.397 . S
C3846 C3851 1.363 . S
C3847 H3818 0.950 . S
C3847 C3846 1.397 . S
C3847 C3848 1.334 . S
C3848 H3819 0.950 . S
C3848 C3847 1.334 . S
C3848 C3849 1.287 . S
C3849 C3848 1.287 . S
C3849 C3850 1.524 . S
C3849 H3852 0.999 . S
C3850 H3820 0.950 . S
C3850 C3849 1.524 . S
C3850 C3851 1.415 . S
C3851 H3821 0.950 . S
C3851 C3846 1.363 . S
C3851 C3850 1.415 . S
H3852 C3849 0.999 . S
H3853 C3834 0.913 . S
H3854 C3872 0.951 . S
H3855 C3874 0.951 . S
H3856 C3876 0.950 . S
H3857 C3877 0.950 . S
H3858 C3879 0.950 . S
H3859 C3882 0.950 . S
H3860 C3883 0.950 . S
H3861 C3885 0.950 . S
H3862 C3886 0.950 . S
H3863 C3887 0.951 . S
H3864 C3889 0.951 . S
H3865 C3891 0.950 . S
H3866 C3892 0.950 . S
H3867 C3894 0.950 . S
H3868 C3897 0.950 . S
H3869 C3898 0.950 . S
H3870 C3900 0.950 . S
H3871 C3901 0.950 . S
C3872 H3854 0.951 . S
C3872 C3873 1.366 . S
C3872 C3874 1.388 . S
C3873 C3872 1.366 . S
C3873 C3877 1.385 . S
C3874 H3855 0.951 . S
C3874 C3872 1.388 . S
C3874 C3875 1.366 . S
C3875 C3874 1.366 . S
C3875 C3876 1.414 . S
C3875 C3878 1.499 . S
C3876 H3856 0.950 . S
C3876 C3875 1.414 . S
C3876 C3877 1.374 . S
C3877 H3857 0.950 . S
C3877 C3873 1.385 . S
C3877 C3876 1.374 . S
C3878 C3875 1.499 . S
C3878 C3879 1.373 . S
C3878 C3880 1.389 . S
C3879 H3858 0.950 . S
C3879 C3878 1.373 . S
C3879 C3895 1.377 . S
C3880 C3878 1.389 . S
C3880 C3881 1.524 . S
C3880 C3894 1.377 . S
C3881 C3880 1.524 . S
C3881 C3882 1.397 . S
C3881 C3886 1.363 . S
C3882 H3859 0.950 . S
C3882 C3881 1.397 . S
C3882 C3883 1.334 . S
C3883 H3860 0.950 . S
C3883 C3882 1.334 . S
C3883 C3884 1.287 . S
C3884 C3883 1.287 . S
C3884 C3885 1.524 . S
C3884 H3903 0.913 . S
C3885 H3861 0.950 . S
C3885 C3884 1.524 . S
C3885 C3886 1.415 . S
C3886 H3862 0.950 . S
C3886 C3881 1.363 . S
C3886 C3885 1.415 . S
C3887 H3863 0.951 . S
C3887 C3888 1.366 . S
C3887 C3889 1.388 . S
C3888 C3887 1.366 . S
C3888 C3892 1.385 . S
C3889 H3864 0.951 . S
C3889 C3887 1.388 . S
C3889 C3890 1.366 . S
C3890 C3889 1.366 . S
C3890 C3891 1.414 . S
C3890 C3893 1.499 . S
C3891 H3865 0.950 . S
C3891 C3890 1.414 . S
C3891 C3892 1.374 . S
C3892 H3866 0.950 . S
C3892 C3888 1.385 . S
C3892 C3891 1.374 . S
C3893 C3890 1.499 . S
C3893 C3894 1.373 . S
C3893 C3895 1.389 . S
C3894 H3867 0.950 . S
C3894 C3880 1.377 . S
C3894 C3893 1.373 . S
C3895 C3879 1.377 . S
C3895 C3893 1.389 . S
C3895 C3896 1.524 . S
C3896 C3895 1.524 . S
C3896 C3897 1.397 . S
C3896 C3901 1.363 . S
C3897 H3868 0.950 . S
C3897 C3896 1.397 . S
C3897 C3898 1.334 . S
C3898 H3869 0.950 . S
C3898 C3897 1.334 . S
C3898 C3899 1.287 . S
C3899 C3898 1.287 . S
C3899 C3900 1.524 . S
C3899 H3902 0.999 . S
C3900 H3870 0.950 . S
C3900 C3899 1.524 . S
C3900 C3901 1.415 . S
C3901 H3871 0.950 . S
C3901 C3896 1.363 . S
C3901 C3900 1.415 . S
H3902 C3899 0.999 . S
H3903 C3884 0.913 . S
H3904 C3922 0.951 . S
H3905 C3924 0.951 . S
H3906 C3926 0.950 . S
H3907 C3927 0.950 . S
H3908 C3929 0.950 . S
H3909 C3932 0.950 . S
H3910 C3933 0.950 . S
H3911 C3935 0.950 . S
H3912 C3936 0.950 . S
H3913 C3937 0.951 . S
H3914 C3939 0.951 . S
H3915 C3941 0.950 . S
H3916 C3942 0.950 . S
H3917 C3944 0.950 . S
H3918 C3947 0.950 . S
H3919 C3948 0.950 . S
H3920 C3950 0.950 . S
H3921 C3951 0.950 . S
C3922 H3904 0.951 . S
C3922 C3923 1.366 . S
C3922 C3924 1.388 . S
C3923 C3922 1.366 . S
C3923 C3927 1.385 . S
C3924 H3905 0.951 . S
C3924 C3922 1.388 . S
C3924 C3925 1.366 . S
C3925 C3924 1.366 . S
C3925 C3926 1.414 . S
C3925 C3928 1.499 . S
C3926 H3906 0.950 . S
C3926 C3925 1.414 . S
C3926 C3927 1.374 . S
C3927 H3907 0.950 . S
C3927 C3923 1.385 . S
C3927 C3926 1.374 . S
C3928 C3925 1.499 . S
C3928 C3929 1.373 . S
C3928 C3930 1.389 . S
C3929 H3908 0.950 . S
C3929 C3928 1.373 . S
C3929 C3945 1.377 . S
C3930 C3928 1.389 . S
C3930 C3931 1.524 . S
C3930 C3944 1.377 . S
C3931 C3930 1.524 . S
C3931 C3932 1.397 . S
C3931 C3936 1.363 . S
C3932 H3909 0.950 . S
C3932 C3931 1.397 . S
C3932 C3933 1.334 . S
C3933 H3910 0.950 . S
C3933 C3932 1.334 . S
C3933 C3934 1.287 . S
C3934 C3933 1.287 . S
C3934 C3935 1.524 . S
C3934 H3953 0.913 . S
C3935 H3911 0.950 . S
C3935 C3934 1.524 . S
C3935 C3936 1.415 . S
C3936 H3912 0.950 . S
C3936 C3931 1.363 . S
C3936 C3935 1.415 . S
C3937 H3913 0.951 . S
C3937 C3938 1.366 . S
C3937 C3939 1.388 . S
C3938 C3937 1.366 . S
C3938 C3942 1.385 . S
C3939 H3914 0.951 . S
C3939 C3937 1.388 . S
C3939 C3940 1.366 . S
C3940 C3939 1.366 . S
C3940 C3941 1.414 . S
C3940 C3943 1.499 . S
C3941 H3915 0.950 . S
C3941 C3940 1.414 . S
C3941 C3942 1.374 . S
C3942 H3916 0.950 . S
C3942 C3938 1.385 . S
C3942 C3941 1.374 . S
C3943 C3940 1.499 . S
C3943 C3944 1.373 . S
C3943 C3945 1.389 . S
C3944 H3917 0.950 . S
C3944 C3930 1.377 . S
C3944 C3943 1.373 . S
C3945 C3929 1.377 . S
C3945 C3943 1.389 . S
C3945 C3946 1.524 . S
C3946 C3945 1.524 . S
C3946 C3947 1.397 . S
C3946 C3951 1.363 . S
C3947 H3918 0.950 . S
C3947 C3946 1.397 . S
C3947 C3948 1.334 . S
C3948 H3919 0.950 . S
C3948 C3947 1.334 . S
C3948 C3949 1.287 . S
C3949 C3948 1.287 . S
C3949 C3950 1.524 . S
C3949 H3952 0.999 . S
C3950 H3920 0.950 . S
C3950 C3949 1.524 . S
C3950 C3951 1.415 . S
C3951 H3921 0.950 . S
C3951 C3946 1.363 . S
C3951 C3950 1.415 . S
H3952 C3949 0.999 . S
H3953 C3934 0.913 . S
H3954 C3972 0.951 . S
H3955 C3974 0.951 . S
H3956 C3976 0.950 . S
H3957 C3977 0.950 . S
H3958 C3979 0.950 . S
H3959 C3982 0.950 . S
H3960 C3983 0.950 . S
H3961 C3985 0.950 . S
H3962 C3986 0.950 . S
H3963 C3987 0.951 . S
H3964 C3989 0.951 . S
H3965 C3991 0.950 . S
H3966 C3992 0.950 . S
H3967 C3994 0.950 . S
H3968 C3997 0.950 . S
H3969 C3998 0.950 . S
H3970 C4000 0.950 . S
H3971 C4001 0.950 . S
C3972 H3954 0.951 . S
C3972 C3973 1.366 . S
C3972 C3974 1.388 . S
C3973 C3972 1.366 . S
C3973 C3977 1.385 . S
C3974 H3955 0.951 . S
C3974 C3972 1.388 . S
C3974 C3975 1.366 . S
C3975 C3974 1.366 . S
C3975 C3976 1.414 . S
C3975 C3978 1.499 . S
C3976 H3956 0.950 . S
C3976 C3975 1.414 . S
C3976 C3977 1.374 . S
C3977 H3957 0.950 . S
C3977 C3973 1.385 . S
C3977 C3976 1.374 . S
C3978 C3975 1.499 . S
C3978 C3979 1.373 . S
C3978 C3980 1.389 . S
C3979 H3958 0.950 . S
C3979 C3978 1.373 . S
C3979 C3995 1.377 . S
C3980 C3978 1.389 . S
C3980 C3981 1.524 . S
C3980 C3994 1.377 . S
C3981 C3980 1.524 . S
C3981 C3982 1.397 . S
C3981 C3986 1.363 . S
C3982 H3959 0.950 . S
C3982 C3981 1.397 . S
C3982 C3983 1.334 . S
C3983 H3960 0.950 . S
C3983 C3982 1.334 . S
C3983 C3984 1.287 . S
C3984 C3983 1.287 . S
C3984 C3985 1.524 . S
C3984 H4003 0.913 . S
C3985 H3961 0.950 . S
C3985 C3984 1.524 . S
C3985 C3986 1.415 . S
C3986 H3962 0.950 . S
C3986 C3981 1.363 . S
C3986 C3985 1.415 . S
C3987 H3963 0.951 . S
C3987 C3988 1.366 . S
C3987 C3989 1.388 . S
C3988 C3987 1.366 . S
C3988 C3992 1.385 . S
C3989 H3964 0.951 . S
C3989 C3987 1.388 . S
C3989 C3990 1.366 . S
C3990 C3989 1.366 . S
C3990 C3991 1.414 . S
C3990 C3993 1.499 . S
C3991 H3965 0.950 . S
C3991 C3990 1.414 . S
C3991 C3992 1.374 . S
C3992 H3966 0.950 . S
C3992 C3988 1.385 . S
C3992 C3991 1.374 . S
C3993 C3990 1.499 . S
C3993 C3994 1.373 . S
C3993 C3995 1.389 . S
C3994 H3967 0.950 . S
C3994 C3980 1.377 . S
C3994 C3993 1.373 . S
C3995 C3979 1.377 . S
C3995 C3993 1.389 . S
C3995 C3996 1.524 . S
C3996 C3995 1.524 . S
C3996 C3997 1.397 . S
C3996 C4001 1.363 . S
C3997 H3968 0.950 . S
C3997 C3996 1.397 . S
C3997 C3998 1.334 . S
C3998 H3969 0.950 . S
C3998 C3997 1.334 . S
C3998 C3999 1.287 . S
C3999 C3998 1.287 . S
C3999 C4000 1.524 . S
C3999 H4002 0.999 . S
C4000 H3970 0.950 . S
C4000 C3999 1.524 . S
C4000 C4001 1.415 . S
C4001 H3971 0.950 . S
C4001 C3996 1.363 . S
C4001 C4000 1.415 . S
H4002 C3999 0.999 . S
H4003 C3984 0.913 . S
H4004 C4022 0.951 . S
H4005 C4024 0.951 . S
H4006 C4026 0.950 . S
H4007 C4027 0.950 . S
H4008 C4029 0.950 . S
H4009 C4032 0.950 . S
H4010 C4033 0.950 . S
H4011 C4035 0.950 . S
H4012 C4036 0.950 . S
H4013 C4037 0.951 . S
H4014 C4039 0.951 . S
H4015 C4041 0.950 . S
H4016 C4042 0.950 . S
H4017 C4044 0.950 . S
H4018 C4047 0.950 . S
H4019 C4048 0.950 . S
H4020 C4050 0.950 . S
H4021 C4051 0.950 . S
C4022 H4004 0.951 . S
C4022 C4023 1.366 . S
C4022 C4024 1.388 . S
C4023 C4022 1.366 . S
C4023 C4027 1.385 . S
C4024 H4005 0.951 . S
C4024 C4022 1.388 . S
C4024 C4025 1.366 . S
C4025 C4024 1.366 . S
C4025 C4026 1.414 . S
C4025 C4028 1.499 . S
C4026 H4006 0.950 . S
C4026 C4025 1.414 . S
C4026 C4027 1.374 . S
C4027 H4007 0.950 . S
C4027 C4023 1.385 . S
C4027 C4026 1.374 . S
C4028 C4025 1.499 . S
C4028 C4029 1.373 . S
C4028 C4030 1.389 . S
C4029 H4008 0.950 . S
C4029 C4028 1.373 . S
C4029 C4045 1.377 . S
C4030 C4028 1.389 . S
C4030 C4031 1.524 . S
C4030 C4044 1.377 . S
C4031 C4030 1.524 . S
C4031 C4032 1.397 . S
C4031 C4036 1.363 . S
C4032 H4009 0.950 . S
C4032 C4031 1.397 . S
C4032 C4033 1.334 . S
C4033 H4010 0.950 . S
C4033 C4032 1.334 . S
C4033 C4034 1.287 . S
C4034 C4033 1.287 . S
C4034 C4035 1.524 . S
C4034 H4053 0.913 . S
C4035 H4011 0.950 . S
C4035 C4034 1.524 . S
C4035 C4036 1.415 . S
C4036 H4012 0.950 . S
C4036 C4031 1.363 . S
C4036 C4035 1.415 . S
C4037 H4013 0.951 . S
C4037 C4038 1.366 . S
C4037 C4039 1.388 . S
C4038 C4037 1.366 . S
C4038 C4042 1.385 . S
C4039 H4014 0.951 . S
C4039 C4037 1.388 . S
C4039 C4040 1.366 . S
C4040 C4039 1.366 . S
C4040 C4041 1.414 . S
C4040 C4043 1.499 . S
C4041 H4015 0.950 . S
C4041 C4040 1.414 . S
C4041 C4042 1.374 . S
C4042 H4016 0.950 . S
C4042 C4038 1.385 . S
C4042 C4041 1.374 . S
C4043 C4040 1.499 . S
C4043 C4044 1.373 . S
C4043 C4045 1.389 . S
C4044 H4017 0.950 . S
C4044 C4030 1.377 . S
C4044 C4043 1.373 . S
C4045 C4029 1.377 . S
C4045 C4043 1.389 . S
C4045 C4046 1.524 . S
C4046 C4045 1.524 . S
C4046 C4047 1.397 . S
C4046 C4051 1.363 . S
C4047 H4018 0.950 . S
C4047 C4046 1.397 . S
C4047 C4048 1.334 . S
C4048 H4019 0.950 . S
C4048 C4047 1.334 . S
C4048 C4049 1.287 . S
C4049 C4048 1.287 . S
C4049 C4050 1.524 . S
C4049 H4052 0.999 . S
C4050 H4020 0.950 . S
C4050 C4049 1.524 . S
C4050 C4051 1.415 . S
C4051 H4021 0.950 . S
C4051 C4046 1.363 . S
C4051 C4050 1.415 . S
H4052 C4049 0.999 . S
H4053 C4034 0.913 . S
H4054 C4072 0.951 . S
H4055 C4074 0.951 . S
H4056 C4076 0.950 . S
H4057 C4077 0.950 . S
H4058 C4079 0.950 . S
H4059 C4082 0.950 . S
H4060 C4083 0.957 1_565 S
H4061 C4085 0.936 1_565 S
H4062 C4086 0.950 . S
H4063 C4087 0.951 . S
H4064 C4089 0.951 . S
H4065 C4091 0.950 . S
H4066 C4092 0.950 . S
H4067 C4094 0.950 . S
H4068 C4097 0.950 . S
H4069 C4098 0.950 . S
H4070 C4100 0.950 . S
H4071 C4101 0.950 . S
C4072 H4054 0.951 . S
C4072 C4073 1.366 . S
C4072 C4074 1.388 . S
C4073 C4072 1.366 . S
C4073 C4077 1.385 . S
C4074 H4055 0.951 . S
C4074 C4072 1.388 . S
C4074 C4075 1.366 . S
C4075 C4074 1.366 . S
C4075 C4076 1.414 . S
C4075 C4078 1.499 . S
C4076 H4056 0.950 . S
C4076 C4075 1.414 . S
C4076 C4077 1.374 . S
C4077 H4057 0.950 . S
C4077 C4073 1.385 . S
C4077 C4076 1.374 . S
C4078 C4075 1.499 . S
C4078 C4079 1.373 . S
C4078 C4080 1.389 . S
C4079 H4058 0.950 . S
C4079 C4078 1.373 . S
C4079 C4095 1.377 . S
C4080 C4078 1.389 . S
C4080 C4081 1.524 . S
C4080 C4094 1.377 . S
C4081 C4080 1.524 . S
C4081 C4082 1.397 . S
C4081 C4086 1.363 . S
C4082 H4059 0.950 . S
C4082 C4081 1.397 . S
C4082 C4083 1.417 . S
C4083 H4060 0.957 1_545 S
C4083 C4082 1.417 . S
C4083 C4084 1.204 1_545 S
C4084 C4083 1.204 1_565 S
C4084 C4085 1.526 1_565 S
C4084 H4103 0.913 . S
C4085 H4061 0.936 1_545 S
C4085 C4084 1.526 1_545 S
C4085 C4086 1.429 . S
C4086 H4062 0.950 . S
C4086 C4081 1.363 . S
C4086 C4085 1.429 . S
C4087 H4063 0.951 . S
C4087 C4088 1.366 . S
C4087 C4089 1.388 . S
C4088 C4087 1.366 . S
C4088 C4092 1.385 . S
C4089 H4064 0.951 . S
C4089 C4087 1.388 . S
C4089 C4090 1.366 . S
C4090 C4089 1.366 . S
C4090 C4091 1.414 . S
C4090 C4093 1.499 . S
C4091 H4065 0.950 . S
C4091 C4090 1.414 . S
C4091 C4092 1.374 . S
C4092 H4066 0.950 . S
C4092 C4088 1.385 . S
C4092 C4091 1.374 . S
C4093 C4090 1.499 . S
C4093 C4094 1.373 . S
C4093 C4095 1.389 . S
C4094 H4067 0.950 . S
C4094 C4080 1.377 . S
C4094 C4093 1.373 . S
C4095 C4079 1.377 . S
C4095 C4093 1.389 . S
C4095 C4096 1.524 . S
C4096 C4095 1.524 . S
C4096 C4097 1.397 . S
C4096 C4101 1.363 . S
C4097 H4068 0.950 . S
C4097 C4096 1.397 . S
C4097 C4098 1.334 . S
C4098 H4069 0.950 . S
C4098 C4097 1.334 . S
C4098 C4099 1.287 . S
C4099 C4098 1.287 . S
C4099 C4100 1.524 . S
C4099 H4102 0.999 . S
C4100 H4070 0.950 . S
C4100 C4099 1.524 . S
C4100 C4101 1.415 . S
C4101 H4071 0.950 . S
C4101 C4096 1.363 . S
C4101 C4100 1.415 . S
H4102 C4099 0.999 . S
H4103 C4084 0.913 . S
H4104 C4122 0.951 . S
H4105 C4124 0.951 . S
H4106 C4126 0.950 . S
H4107 C4127 0.950 . S
H4108 C4129 0.950 . S
H4109 C4132 0.950 . S
H4110 C4133 0.950 . S
H4111 C4135 0.950 . S
H4112 C4136 0.950 . S
H4113 C4137 0.951 . S
H4114 C4139 0.951 . S
H4115 C4141 0.950 . S
H4116 C4142 0.950 . S
H4117 C4144 0.950 . S
H4118 C4147 0.950 . S
H4119 C4148 0.950 . S
H4120 C4150 0.950 . S
H4121 C4151 0.950 . S
C4122 H4104 0.951 . S
C4122 C4123 1.366 . S
C4122 C4124 1.388 . S
C4123 C4122 1.366 . S
C4123 C4127 1.385 . S
C4124 H4105 0.951 . S
C4124 C4122 1.388 . S
C4124 C4125 1.366 . S
C4125 C4124 1.366 . S
C4125 C4126 1.414 . S
C4125 C4128 1.499 . S
C4126 H4106 0.950 . S
C4126 C4125 1.414 . S
C4126 C4127 1.374 . S
C4127 H4107 0.950 . S
C4127 C4123 1.385 . S
C4127 C4126 1.374 . S
C4128 C4125 1.499 . S
C4128 C4129 1.373 . S
C4128 C4130 1.389 . S
C4129 H4108 0.950 . S
C4129 C4128 1.373 . S
C4129 C4145 1.377 . S
C4130 C4128 1.389 . S
C4130 C4131 1.524 . S
C4130 C4144 1.377 . S
C4131 C4130 1.524 . S
C4131 C4132 1.397 . S
C4131 C4136 1.363 . S
C4132 H4109 0.950 . S
C4132 C4131 1.397 . S
C4132 C4133 1.334 . S
C4133 H4110 0.950 . S
C4133 C4132 1.334 . S
C4133 C4134 1.287 . S
C4134 C4133 1.287 . S
C4134 C4135 1.524 . S
C4134 H4153 0.913 . S
C4135 H4111 0.950 . S
C4135 C4134 1.524 . S
C4135 C4136 1.415 . S
C4136 H4112 0.950 . S
C4136 C4131 1.363 . S
C4136 C4135 1.415 . S
C4137 H4113 0.951 . S
C4137 C4138 1.366 . S
C4137 C4139 1.388 . S
C4138 C4137 1.366 . S
C4138 C4142 1.385 . S
C4139 H4114 0.951 . S
C4139 C4137 1.388 . S
C4139 C4140 1.366 . S
C4140 C4139 1.366 . S
C4140 C4141 1.414 . S
C4140 C4143 1.499 . S
C4141 H4115 0.950 . S
C4141 C4140 1.414 . S
C4141 C4142 1.374 . S
C4142 H4116 0.950 . S
C4142 C4138 1.385 . S
C4142 C4141 1.374 . S
C4143 C4140 1.499 . S
C4143 C4144 1.373 . S
C4143 C4145 1.389 . S
C4144 H4117 0.950 . S
C4144 C4130 1.377 . S
C4144 C4143 1.373 . S
C4145 C4129 1.377 . S
C4145 C4143 1.389 . S
C4145 C4146 1.524 . S
C4146 C4145 1.524 . S
C4146 C4147 1.397 . S
C4146 C4151 1.363 . S
C4147 H4118 0.950 . S
C4147 C4146 1.397 . S
C4147 C4148 1.334 . S
C4148 H4119 0.950 . S
C4148 C4147 1.334 . S
C4148 C4149 1.287 . S
C4149 C4148 1.287 . S
C4149 C4150 1.524 . S
C4149 H4152 0.999 . S
C4150 H4120 0.950 . S
C4150 C4149 1.524 . S
C4150 C4151 1.415 . S
C4151 H4121 0.950 . S
C4151 C4146 1.363 . S
C4151 C4150 1.415 . S
H4152 C4149 0.999 . S
H4153 C4134 0.913 . S
H4154 C4172 0.951 . S
H4155 C4174 0.951 . S
H4156 C4176 0.950 . S
H4157 C4177 0.950 . S
H4158 C4179 0.950 . S
H4159 C4182 0.950 . S
H4160 C4183 0.950 . S
H4161 C4185 0.950 . S
H4162 C4186 0.950 . S
H4163 C4187 0.951 . S
H4164 C4189 0.951 . S
H4165 C4191 0.950 . S
H4166 C4192 0.950 . S
H4167 C4194 0.950 . S
H4168 C4197 0.950 . S
H4169 C4198 0.950 . S
H4170 C4200 0.950 . S
H4171 C4201 0.950 . S
C4172 H4154 0.951 . S
C4172 C4173 1.366 . S
C4172 C4174 1.388 . S
C4173 C4172 1.366 . S
C4173 C4177 1.385 . S
C4174 H4155 0.951 . S
C4174 C4172 1.388 . S
C4174 C4175 1.366 . S
C4175 C4174 1.366 . S
C4175 C4176 1.414 . S
C4175 C4178 1.499 . S
C4176 H4156 0.950 . S
C4176 C4175 1.414 . S
C4176 C4177 1.374 . S
C4177 H4157 0.950 . S
C4177 C4173 1.385 . S
C4177 C4176 1.374 . S
C4178 C4175 1.499 . S
C4178 C4179 1.373 . S
C4178 C4180 1.389 . S
C4179 H4158 0.950 . S
C4179 C4178 1.373 . S
C4179 C4195 1.377 . S
C4180 C4178 1.389 . S
C4180 C4181 1.524 . S
C4180 C4194 1.377 . S
C4181 C4180 1.524 . S
C4181 C4182 1.397 . S
C4181 C4186 1.363 . S
C4182 H4159 0.950 . S
C4182 C4181 1.397 . S
C4182 C4183 1.334 . S
C4183 H4160 0.950 . S
C4183 C4182 1.334 . S
C4183 C4184 1.287 . S
C4184 C4183 1.287 . S
C4184 C4185 1.524 . S
C4184 H4203 0.913 . S
C4185 H4161 0.950 . S
C4185 C4184 1.524 . S
C4185 C4186 1.415 . S
C4186 H4162 0.950 . S
C4186 C4181 1.363 . S
C4186 C4185 1.415 . S
C4187 H4163 0.951 . S
C4187 C4188 1.366 . S
C4187 C4189 1.388 . S
C4188 C4187 1.366 . S
C4188 C4192 1.385 . S
C4189 H4164 0.951 . S
C4189 C4187 1.388 . S
C4189 C4190 1.366 . S
C4190 C4189 1.366 . S
C4190 C4191 1.414 . S
C4190 C4193 1.499 . S
C4191 H4165 0.950 . S
C4191 C4190 1.414 . S
C4191 C4192 1.374 . S
C4192 H4166 0.950 . S
C4192 C4188 1.385 . S
C4192 C4191 1.374 . S
C4193 C4190 1.499 . S
C4193 C4194 1.373 . S
C4193 C4195 1.389 . S
C4194 H4167 0.950 . S
C4194 C4180 1.377 . S
C4194 C4193 1.373 . S
C4195 C4179 1.377 . S
C4195 C4193 1.389 . S
C4195 C4196 1.524 . S
C4196 C4195 1.524 . S
C4196 C4197 1.397 . S
C4196 C4201 1.363 . S
C4197 H4168 0.950 . S
C4197 C4196 1.397 . S
C4197 C4198 1.334 . S
C4198 H4169 0.950 . S
C4198 C4197 1.334 . S
C4198 C4199 1.287 . S
C4199 C4198 1.287 . S
C4199 C4200 1.524 . S
C4199 H4202 0.999 . S
C4200 H4170 0.950 . S
C4200 C4199 1.524 . S
C4200 C4201 1.415 . S
C4201 H4171 0.950 . S
C4201 C4196 1.363 . S
C4201 C4200 1.415 . S
H4202 C4199 0.999 . S
H4203 C4184 0.913 . S
H4204 C4222 0.951 . S
H4205 C4224 0.951 . S
H4206 C4226 0.950 . S
H4207 C4227 0.950 . S
H4208 C4229 0.950 . S
H4209 C4232 0.950 . S
H4210 C4233 0.949 1_545 S
H4211 C4235 0.950 . S
H4212 C4236 0.950 . S
H4213 C4237 0.951 . S
H4214 C4239 0.951 . S
H4215 C4241 0.950 . S
H4216 C4242 0.950 . S
H4217 C4244 0.950 . S
H4218 C4247 0.950 . S
H4219 C4248 0.950 . S
H4220 C4250 0.950 . S
H4221 C4251 0.950 . S
C4222 H4204 0.951 . S
C4222 C4223 1.366 . S
C4222 C4224 1.388 . S
C4223 C4222 1.366 . S
C4223 C4227 1.385 . S
C4224 H4205 0.951 . S
C4224 C4222 1.388 . S
C4224 C4225 1.366 . S
C4225 C4224 1.366 . S
C4225 C4226 1.414 . S
C4225 C4228 1.499 . S
C4226 H4206 0.950 . S
C4226 C4225 1.414 . S
C4226 C4227 1.374 . S
C4227 H4207 0.950 . S
C4227 C4223 1.385 . S
C4227 C4226 1.374 . S
C4228 C4225 1.499 . S
C4228 C4229 1.373 . S
C4228 C4230 1.389 . S
C4229 H4208 0.950 . S
C4229 C4228 1.373 . S
C4229 C4245 1.377 . S
C4230 C4228 1.389 . S
C4230 C4231 1.524 . S
C4230 C4244 1.377 . S
C4231 C4230 1.524 . S
C4231 C4232 1.397 . S
C4231 C4236 1.363 . S
C4232 H4209 0.950 . S
C4232 C4231 1.397 . S
C4232 C4233 1.340 . S
C4233 H4210 0.949 1_565 S
C4233 C4232 1.340 . S
C4233 C4234 1.282 1_565 S
C4234 C4233 1.282 1_545 S
C4234 C4235 1.524 1_545 S
C4234 H4253 0.913 . S
C4235 H4211 0.950 . S
C4235 C4234 1.524 1_565 S
C4235 C4236 1.415 . S
C4236 H4212 0.950 . S
C4236 C4231 1.363 . S
C4236 C4235 1.415 . S
C4237 H4213 0.951 . S
C4237 C4238 1.366 . S
C4237 C4239 1.388 . S
C4238 C4237 1.366 . S
C4238 C4242 1.385 . S
C4239 H4214 0.951 . S
C4239 C4237 1.388 . S
C4239 C4240 1.366 . S
C4240 C4239 1.366 . S
C4240 C4241 1.414 . S
C4240 C4243 1.499 . S
C4241 H4215 0.950 . S
C4241 C4240 1.414 . S
C4241 C4242 1.374 . S
C4242 H4216 0.950 . S
C4242 C4238 1.385 . S
C4242 C4241 1.374 . S
C4243 C4240 1.499 . S
C4243 C4244 1.373 . S
C4243 C4245 1.389 . S
C4244 H4217 0.950 . S
C4244 C4230 1.377 . S
C4244 C4243 1.373 . S
C4245 C4229 1.377 . S
C4245 C4243 1.389 . S
C4245 C4246 1.524 . S
C4246 C4245 1.524 . S
C4246 C4247 1.397 . S
C4246 C4251 1.363 . S
C4247 H4218 0.950 . S
C4247 C4246 1.397 . S
C4247 C4248 1.334 . S
C4248 H4219 0.950 . S
C4248 C4247 1.334 . S
C4248 C4249 1.287 . S
C4249 C4248 1.287 . S
C4249 C4250 1.524 . S
C4249 H4252 0.999 . S
C4250 H4220 0.950 . S
C4250 C4249 1.524 . S
C4250 C4251 1.415 . S
C4251 H4221 0.950 . S
C4251 C4246 1.363 . S
C4251 C4250 1.415 . S
H4252 C4249 0.999 . S
H4253 C4234 0.913 . S
H4254 C4272 0.900 1_554 S
H4255 C4274 0.951 . S
H4256 C4276 0.950 . S
H4257 C4277 0.950 . S
H4258 C4279 0.950 . S
H4259 C4282 0.950 . S
H4260 C4283 0.950 1_565 S
H4261 C4285 0.950 . S
H4262 C4286 0.950 . S
H4263 C4287 0.951 . S
H4264 C4289 0.951 . S
H4265 C4291 0.950 . S
H4266 C4292 0.950 . S
H4267 C4294 0.950 . S
H4268 C4297 0.950 . S
H4269 C4298 0.950 . S
H4270 C4300 0.950 . S
H4271 C4301 0.950 . S
C4272 H4254 0.900 1_556 S
C4272 C4273 1.366 . S
C4272 C4274 1.388 . S
C4273 C4272 1.366 . S
C4273 C4277 1.385 . S
C4274 H4255 0.951 . S
C4274 C4272 1.388 . S
C4274 C4275 1.366 . S
C4275 C4274 1.366 . S
C4275 C4276 1.414 . S
C4275 C4278 1.499 . S
C4276 H4256 0.950 . S
C4276 C4275 1.414 . S
C4276 C4277 1.374 . S
C4277 H4257 0.950 . S
C4277 C4273 1.385 . S
C4277 C4276 1.374 . S
C4278 C4275 1.499 . S
C4278 C4279 1.373 . S
C4278 C4280 1.389 . S
C4279 H4258 0.950 . S
C4279 C4278 1.373 . S
C4279 C4295 1.377 . S
C4280 C4278 1.389 . S
C4280 C4281 1.524 . S
C4280 C4294 1.377 . S
C4281 C4280 1.524 . S
C4281 C4282 1.397 . S
C4281 C4286 1.363 . S
C4282 H4259 0.950 . S
C4282 C4281 1.397 . S
C4282 C4283 1.334 . S
C4283 H4260 0.950 1_545 S
C4283 C4282 1.334 . S
C4283 C4284 1.287 1_545 S
C4284 C4283 1.287 1_565 S
C4284 C4285 1.524 1_565 S
C4284 H4303 0.913 . S
C4285 H4261 0.950 . S
C4285 C4284 1.524 1_545 S
C4285 C4286 1.415 . S
C4286 H4262 0.950 . S
C4286 C4281 1.363 . S
C4286 C4285 1.415 . S
C4287 H4263 0.951 . S
C4287 C4288 1.366 . S
C4287 C4289 1.388 . S
C4288 C4287 1.366 . S
C4288 C4292 1.385 . S
C4289 H4264 0.951 . S
C4289 C4287 1.388 . S
C4289 C4290 1.366 . S
C4290 C4289 1.366 . S
C4290 C4291 1.414 . S
C4290 C4293 1.499 . S
C4291 H4265 0.950 . S
C4291 C4290 1.414 . S
C4291 C4292 1.374 . S
C4292 H4266 0.950 . S
C4292 C4288 1.385 . S
C4292 C4291 1.374 . S
C4293 C4290 1.499 . S
C4293 C4294 1.373 . S
C4293 C4295 1.389 . S
C4294 H4267 0.950 . S
C4294 C4280 1.377 . S
C4294 C4293 1.373 . S
C4295 C4279 1.377 . S
C4295 C4293 1.389 . S
C4295 C4296 1.524 . S
C4296 C4295 1.524 . S
C4296 C4297 1.397 . S
C4296 C4301 1.363 . S
C4297 H4268 0.950 . S
C4297 C4296 1.397 . S
C4297 C4298 1.334 . S
C4298 H4269 0.950 . S
C4298 C4297 1.334 . S
C4298 C4299 1.287 . S
C4299 C4298 1.287 . S
C4299 C4300 1.524 . S
C4299 H4302 0.999 . S
C4300 H4270 0.950 . S
C4300 C4299 1.524 . S
C4300 C4301 1.415 . S
C4301 H4271 0.950 . S
C4301 C4296 1.363 . S
C4301 C4300 1.415 . S
H4302 C4299 0.999 . S
H4303 C4284 0.913 . S
H4304 C4322 0.951 . S
H4305 C4324 0.951 . S
H4306 C4326 0.950 . S
H4307 C4327 0.950 . S
H4308 C4329 0.950 . S
H4309 C4332 0.950 . S
H4310 C4333 0.950 . S
H4311 C4335 0.950 . S
H4312 C4336 0.950 . S
H4313 C4337 0.951 . S
H4314 C4339 0.951 . S
H4315 C4341 0.950 . S
H4316 C4342 0.950 . S
H4317 C4344 0.950 . S
H4318 C4347 0.950 . S
H4319 C4348 0.950 . S
H4320 C4350 0.950 . S
H4321 C4351 0.950 . S
C4322 H4304 0.951 . S
C4322 C4323 1.366 . S
C4322 C4324 1.388 . S
C4323 C4322 1.366 . S
C4323 C4327 1.385 . S
C4324 H4305 0.951 . S
C4324 C4322 1.388 . S
C4324 C4325 1.366 . S
C4325 C4324 1.366 . S
C4325 C4326 1.414 . S
C4325 C4328 1.499 . S
C4326 H4306 0.950 . S
C4326 C4325 1.414 . S
C4326 C4327 1.374 . S
C4327 H4307 0.950 . S
C4327 C4323 1.385 . S
C4327 C4326 1.374 . S
C4328 C4325 1.499 . S
C4328 C4329 1.373 . S
C4328 C4330 1.389 . S
C4329 H4308 0.950 . S
C4329 C4328 1.373 . S
C4329 C4345 1.377 . S
C4330 C4328 1.389 . S
C4330 C4331 1.524 . S
C4330 C4344 1.377 . S
C4331 C4330 1.524 . S
C4331 C4332 1.397 . S
C4331 C4336 1.363 . S
C4332 H4309 0.950 . S
C4332 C4331 1.397 . S
C4332 C4333 1.334 . S
C4333 H4310 0.950 . S
C4333 C4332 1.334 . S
C4333 C4334 1.287 . S
C4334 C4333 1.287 . S
C4334 C4335 1.524 . S
C4334 H4353 0.913 . S
C4335 H4311 0.950 . S
C4335 C4334 1.524 . S
C4335 C4336 1.415 . S
C4336 H4312 0.950 . S
C4336 C4331 1.363 . S
C4336 C4335 1.415 . S
C4337 H4313 0.951 . S
C4337 C4338 1.366 . S
C4337 C4339 1.388 . S
C4338 C4337 1.366 . S
C4338 C4342 1.385 . S
C4339 H4314 0.951 . S
C4339 C4337 1.388 . S
C4339 C4340 1.366 . S
C4340 C4339 1.366 . S
C4340 C4341 1.414 . S
C4340 C4343 1.499 . S
C4341 H4315 0.950 . S
C4341 C4340 1.414 . S
C4341 C4342 1.374 . S
C4342 H4316 0.950 . S
C4342 C4338 1.385 . S
C4342 C4341 1.374 . S
C4343 C4340 1.499 . S
C4343 C4344 1.373 . S
C4343 C4345 1.389 . S
C4344 H4317 0.950 . S
C4344 C4330 1.377 . S
C4344 C4343 1.373 . S
C4345 C4329 1.377 . S
C4345 C4343 1.389 . S
C4345 C4346 1.524 . S
C4346 C4345 1.524 . S
C4346 C4347 1.397 . S
C4346 C4351 1.363 . S
C4347 H4318 0.950 . S
C4347 C4346 1.397 . S
C4347 C4348 1.334 . S
C4348 H4319 0.950 . S
C4348 C4347 1.334 . S
C4348 C4349 1.287 . S
C4349 C4348 1.287 . S
C4349 C4350 1.524 . S
C4349 H4352 0.999 . S
C4350 H4320 0.950 . S
C4350 C4349 1.524 . S
C4350 C4351 1.415 . S
C4351 H4321 0.950 . S
C4351 C4346 1.363 . S
C4351 C4350 1.415 . S
H4352 C4349 0.999 . S
H4353 C4334 0.913 . S
H4354 C4372 0.951 . S
H4355 C4374 0.951 . S
H4356 C4376 0.950 . S
H4357 C4377 0.950 1_554 S
H4358 C4379 0.950 . S
H4359 C4382 0.950 . S
H4360 C4383 0.950 . S
H4361 C4385 0.950 . S
H4362 C4386 0.950 . S
H4363 C4387 0.951 . S
H4364 C4389 0.951 . S
H4365 C4391 0.950 . S
H4366 C4392 0.950 . S
H4367 C4394 0.950 . S
H4368 C4397 0.950 . S
H4369 C4398 0.950 . S
H4370 C4400 0.950 1_554 S
H4371 C4401 0.950 . S
C4372 H4354 0.951 . S
C4372 C4373 1.366 . S
C4372 C4374 1.388 . S
C4373 C4372 1.366 . S
C4373 C4377 1.385 . S
C4374 H4355 0.951 . S
C4374 C4372 1.388 . S
C4374 C4375 1.366 . S
C4375 C4374 1.366 . S
C4375 C4376 1.414 . S
C4375 C4378 1.499 . S
C4376 H4356 0.950 . S
C4376 C4375 1.414 . S
C4376 C4377 1.374 . S
C4377 H4357 0.950 1_556 S
C4377 C4373 1.385 . S
C4377 C4376 1.374 . S
C4378 C4375 1.499 . S
C4378 C4379 1.373 . S
C4378 C4380 1.389 . S
C4379 H4358 0.950 . S
C4379 C4378 1.373 . S
C4379 C4395 1.377 . S
C4380 C4378 1.389 . S
C4380 C4381 1.524 . S
C4380 C4394 1.377 . S
C4381 C4380 1.524 . S
C4381 C4382 1.397 . S
C4381 C4386 1.363 . S
C4382 H4359 0.950 . S
C4382 C4381 1.397 . S
C4382 C4383 1.334 . S
C4383 H4360 0.950 . S
C4383 C4382 1.334 . S
C4383 C4384 1.287 . S
C4384 C4383 1.287 . S
C4384 C4385 1.524 . S
C4384 H4403 0.913 . S
C4385 H4361 0.950 . S
C4385 C4384 1.524 . S
C4385 C4386 1.415 . S
C4386 H4362 0.950 . S
C4386 C4381 1.363 . S
C4386 C4385 1.415 . S
C4387 H4363 0.951 . S
C4387 C4388 1.366 . S
C4387 C4389 1.388 . S
C4388 C4387 1.366 . S
C4388 C4392 1.385 . S
C4389 H4364 0.951 . S
C4389 C4387 1.388 . S
C4389 C4390 1.366 . S
C4390 C4389 1.366 . S
C4390 C4391 1.414 . S
C4390 C4393 1.499 . S
C4391 H4365 0.950 . S
C4391 C4390 1.414 . S
C4391 C4392 1.374 . S
C4392 H4366 0.950 . S
C4392 C4388 1.385 . S
C4392 C4391 1.374 . S
C4393 C4390 1.499 . S
C4393 C4394 1.373 . S
C4393 C4395 1.389 . S
C4394 H4367 0.950 . S
C4394 C4380 1.377 . S
C4394 C4393 1.373 . S
C4395 C4379 1.377 . S
C4395 C4393 1.389 . S
C4395 C4396 1.524 . S
C4396 C4395 1.524 . S
C4396 C4397 1.397 . S
C4396 C4401 1.363 . S
C4397 H4368 0.950 . S
C4397 C4396 1.397 . S
C4397 C4398 1.334 . S
C4398 H4369 0.950 . S
C4398 C4397 1.334 . S
C4398 C4399 1.287 . S
C4399 C4398 1.287 . S
C4399 C4400 1.524 . S
C4399 H4402 0.999 . S
C4400 H4370 0.950 1_556 S
C4400 C4399 1.524 . S
C4400 C4401 1.415 . S
C4401 H4371 0.950 . S
C4401 C4396 1.363 . S
C4401 C4400 1.415 . S
H4402 C4399 0.999 . S
H4403 C4384 0.913 . S
H4404 C4422 0.951 . S
H4405 C4424 0.951 . S
H4406 C4426 0.950 . S
H4407 C4427 0.950 1_554 S
H4408 C4429 0.950 . S
H4409 C4432 0.950 . S
H4410 C4433 0.965 . S
H4411 C4435 0.950 1_455 S
H4412 C4436 0.950 . S
H4413 C4437 0.951 . S
H4414 C4439 0.951 . S
H4415 C4441 0.950 . S
H4416 C4442 0.950 . S
H4417 C4444 0.950 . S
H4418 C4447 0.950 . S
H4419 C4448 0.950 . S
H4420 C4450 0.950 . S
H4421 C4451 0.950 . S
C4422 H4404 0.951 . S
C4422 C4423 1.366 . S
C4422 C4424 1.388 . S
C4423 C4422 1.366 . S
C4423 C4427 1.385 . S
C4424 H4405 0.951 . S
C4424 C4422 1.388 . S
C4424 C4425 1.366 . S
C4425 C4424 1.366 . S
C4425 C4426 1.414 . S
C4425 C4428 1.499 . S
C4426 H4406 0.950 . S
C4426 C4425 1.414 . S
C4426 C4427 1.374 . S
C4427 H4407 0.950 1_556 S
C4427 C4423 1.385 . S
C4427 C4426 1.374 . S
C4428 C4425 1.499 . S
C4428 C4429 1.373 . S
C4428 C4430 1.389 . S
C4429 H4408 0.950 . S
C4429 C4428 1.373 . S
C4429 C4445 1.377 . S
C4430 C4428 1.389 . S
C4430 C4431 1.524 . S
C4430 C4444 1.377 . S
C4431 C4430 1.524 . S
C4431 C4432 1.397 . S
C4431 C4436 1.363 . S
C4432 H4409 0.950 . S
C4432 C4431 1.397 . S
C4432 C4433 1.334 . S
C4433 H4410 0.965 . S
C4433 C4432 1.334 . S
C4433 C4434 1.287 1_655 S
C4434 C4433 1.287 1_455 S
C4434 C4435 1.524 1_455 S
C4434 H4453 0.913 . S
C4435 H4411 0.950 1_655 S
C4435 C4434 1.524 1_655 S
C4435 C4436 1.415 . S
C4436 H4412 0.950 . S
C4436 C4431 1.363 . S
C4436 C4435 1.415 . S
C4437 H4413 0.951 . S
C4437 C4438 1.366 . S
C4437 C4439 1.388 . S
C4438 C4437 1.366 . S
C4438 C4442 1.385 . S
C4439 H4414 0.951 . S
C4439 C4437 1.388 . S
C4439 C4440 1.366 . S
C4440 C4439 1.366 . S
C4440 C4441 1.414 . S
C4440 C4443 1.499 . S
C4441 H4415 0.950 . S
C4441 C4440 1.414 . S
C4441 C4442 1.374 . S
C4442 H4416 0.950 . S
C4442 C4438 1.385 . S
C4442 C4441 1.374 . S
C4443 C4440 1.499 . S
C4443 C4444 1.373 . S
C4443 C4445 1.389 . S
C4444 H4417 0.950 . S
C4444 C4430 1.377 . S
C4444 C4443 1.373 . S
C4445 C4429 1.377 . S
C4445 C4443 1.389 . S
C4445 C4446 1.524 . S
C4446 C4445 1.524 . S
C4446 C4447 1.397 . S
C4446 C4451 1.363 . S
C4447 H4418 0.950 . S
C4447 C4446 1.397 . S
C4447 C4448 1.334 . S
C4448 H4419 0.950 . S
C4448 C4447 1.334 . S
C4448 C4449 1.287 . S
C4449 C4448 1.287 . S
C4449 C4450 1.524 . S
C4449 H4452 0.999 . S
C4450 H4420 0.950 . S
C4450 C4449 1.524 . S
C4450 C4451 1.415 . S
C4451 H4421 0.950 . S
C4451 C4446 1.363 . S
C4451 C4450 1.415 . S
H4452 C4449 0.999 . S
H4453 C4434 0.913 . S
H4454 C4472 0.951 . S
H4455 C4474 0.951 . S
H4456 C4476 0.950 . S
H4457 C4477 0.950 . S
H4458 C4479 0.950 . S
H4459 C4482 0.950 . S
H4460 C4483 0.950 . S
H4461 C4485 0.950 . S
H4462 C4486 0.950 . S
H4463 C4487 0.951 . S
H4464 C4489 0.951 . S
H4465 C4491 0.950 . S
H4466 C4492 0.950 . S
H4467 C4494 0.950 . S
H4468 C4497 0.950 . S
H4469 C4498 0.950 . S
H4470 C4500 0.950 . S
H4471 C4501 0.950 . S
C4472 H4454 0.951 . S
C4472 C4473 1.366 . S
C4472 C4474 1.388 . S
C4473 C4472 1.366 . S
C4473 C4477 1.385 . S
C4474 H4455 0.951 . S
C4474 C4472 1.388 . S
C4474 C4475 1.366 . S
C4475 C4474 1.366 . S
C4475 C4476 1.414 . S
C4475 C4478 1.499 . S
C4476 H4456 0.950 . S
C4476 C4475 1.414 . S
C4476 C4477 1.374 . S
C4477 H4457 0.950 . S
C4477 C4473 1.385 . S
C4477 C4476 1.374 . S
C4478 C4475 1.499 . S
C4478 C4479 1.373 . S
C4478 C4480 1.389 . S
C4479 H4458 0.950 . S
C4479 C4478 1.373 . S
C4479 C4495 1.377 . S
C4480 C4478 1.389 . S
C4480 C4481 1.524 . S
C4480 C4494 1.377 . S
C4481 C4480 1.524 . S
C4481 C4482 1.397 . S
C4481 C4486 1.363 . S
C4482 H4459 0.950 . S
C4482 C4481 1.397 . S
C4482 C4483 1.334 . S
C4483 H4460 0.950 . S
C4483 C4482 1.334 . S
C4483 C4484 1.287 . S
C4484 C4483 1.287 . S
C4484 C4485 1.524 . S
C4484 H4503 0.913 . S
C4485 H4461 0.950 . S
C4485 C4484 1.524 . S
C4485 C4486 1.415 . S
C4486 H4462 0.950 . S
C4486 C4481 1.363 . S
C4486 C4485 1.415 . S
C4487 H4463 0.951 . S
C4487 C4488 1.366 . S
C4487 C4489 1.388 . S
C4488 C4487 1.366 . S
C4488 C4492 1.385 . S
C4489 H4464 0.951 . S
C4489 C4487 1.388 . S
C4489 C4490 1.366 . S
C4490 C4489 1.366 . S
C4490 C4491 1.414 . S
C4490 C4493 1.499 . S
C4491 H4465 0.950 . S
C4491 C4490 1.414 . S
C4491 C4492 1.374 . S
C4492 H4466 0.950 . S
C4492 C4488 1.385 . S
C4492 C4491 1.374 . S
C4493 C4490 1.499 . S
C4493 C4494 1.373 . S
C4493 C4495 1.389 . S
C4494 H4467 0.950 . S
C4494 C4480 1.377 . S
C4494 C4493 1.373 . S
C4495 C4479 1.377 . S
C4495 C4493 1.389 . S
C4495 C4496 1.524 . S
C4496 C4495 1.524 . S
C4496 C4497 1.397 . S
C4496 C4501 1.363 . S
C4497 H4468 0.950 . S
C4497 C4496 1.397 . S
C4497 C4498 1.334 . S
C4498 H4469 0.950 . S
C4498 C4497 1.334 . S
C4498 C4499 1.287 . S
C4499 C4498 1.287 . S
C4499 C4500 1.524 . S
C4499 H4502 0.999 . S
C4500 H4470 0.950 . S
C4500 C4499 1.524 . S
C4500 C4501 1.415 . S
C4501 H4471 0.950 . S
C4501 C4496 1.363 . S
C4501 C4500 1.415 . S
H4502 C4499 0.999 . S
H4503 C4484 0.913 . S
H4504 C4522 0.951 1_554 S
H4505 C4524 0.951 . S
H4506 C4526 0.950 . S
H4507 C4527 0.950 . S
H4508 C4529 0.950 . S
H4509 C4532 0.950 . S
H4510 C4533 0.950 . S
H4511 C4535 0.950 . S
H4512 C4536 0.950 . S
H4513 C4537 0.951 . S
H4514 C4539 0.951 . S
H4515 C4541 0.950 . S
H4516 C4542 0.950 . S
H4517 C4544 0.950 . S
H4518 C4547 0.950 . S
H4519 C4548 0.950 . S
H4520 C4550 0.950 . S
H4521 C4551 0.950 . S
C4522 H4504 0.951 1_556 S
C4522 C4523 1.366 . S
C4522 C4524 1.388 . S
C4523 C4522 1.366 . S
C4523 C4527 1.385 . S
C4524 H4505 0.951 . S
C4524 C4522 1.388 . S
C4524 C4525 1.366 . S
C4525 C4524 1.366 . S
C4525 C4526 1.414 . S
C4525 C4528 1.499 . S
C4526 H4506 0.950 . S
C4526 C4525 1.414 . S
C4526 C4527 1.374 . S
C4527 H4507 0.950 . S
C4527 C4523 1.385 . S
C4527 C4526 1.374 . S
C4528 C4525 1.499 . S
C4528 C4529 1.373 . S
C4528 C4530 1.389 . S
C4529 H4508 0.950 . S
C4529 C4528 1.373 . S
C4529 C4545 1.377 . S
C4530 C4528 1.389 . S
C4530 C4531 1.524 . S
C4530 C4544 1.377 . S
C4531 C4530 1.524 . S
C4531 C4532 1.397 . S
C4531 C4536 1.363 . S
C4532 H4509 0.950 . S
C4532 C4531 1.397 . S
C4532 C4533 1.334 1_556 S
C4533 H4510 0.950 . S
C4533 C4532 1.334 1_554 S
C4533 C4534 1.287 . S
C4534 C4533 1.287 . S
C4534 C4535 1.524 . S
C4534 H4553 0.913 . S
C4535 H4511 0.950 . S
C4535 C4534 1.524 . S
C4535 C4536 1.415 1_554 S
C4536 H4512 0.950 . S
C4536 C4531 1.363 . S
C4536 C4535 1.415 1_556 S
C4537 H4513 0.951 . S
C4537 C4538 1.366 . S
C4537 C4539 1.388 . S
C4538 C4537 1.366 . S
C4538 C4542 1.385 . S
C4539 H4514 0.951 . S
C4539 C4537 1.388 . S
C4539 C4540 1.366 . S
C4540 C4539 1.366 . S
C4540 C4541 1.414 . S
C4540 C4543 1.499 . S
C4541 H4515 0.950 . S
C4541 C4540 1.414 . S
C4541 C4542 1.374 . S
C4542 H4516 0.950 . S
C4542 C4538 1.385 . S
C4542 C4541 1.374 . S
C4543 C4540 1.499 . S
C4543 C4544 1.373 . S
C4543 C4545 1.389 . S
C4544 H4517 0.950 . S
C4544 C4530 1.377 . S
C4544 C4543 1.373 . S
C4545 C4529 1.377 . S
C4545 C4543 1.389 . S
C4545 C4546 1.524 . S
C4546 C4545 1.524 . S
C4546 C4547 1.397 . S
C4546 C4551 1.363 . S
C4547 H4518 0.950 . S
C4547 C4546 1.397 . S
C4547 C4548 1.334 . S
C4548 H4519 0.950 . S
C4548 C4547 1.334 . S
C4548 C4549 1.287 . S
C4549 C4548 1.287 . S
C4549 C4550 1.524 . S
C4549 H4552 0.999 . S
C4550 H4520 0.950 . S
C4550 C4549 1.524 . S
C4550 C4551 1.415 . S
C4551 H4521 0.950 . S
C4551 C4546 1.363 . S
C4551 C4550 1.415 . S
H4552 C4549 0.999 . S
H4553 C4534 0.913 . S
H4554 C4572 0.951 . S
H4555 C4574 0.951 . S
H4556 C4576 0.950 . S
H4557 C4577 0.950 . S
H4558 C4579 0.950 . S
H4559 C4582 0.950 . S
H4560 C4583 0.950 . S
H4561 C4585 0.950 . S
H4562 C4586 0.950 . S
H4563 C4587 0.951 . S
H4564 C4589 0.951 . S
H4565 C4591 0.950 . S
H4566 C4592 0.950 . S
H4567 C4594 0.950 . S
H4568 C4597 0.950 . S
H4569 C4598 0.950 . S
H4570 C4600 0.950 . S
H4571 C4601 0.950 . S
C4572 H4554 0.951 . S
C4572 C4573 1.366 . S
C4572 C4574 1.388 . S
C4573 C4572 1.366 . S
C4573 C4577 1.385 . S
C4574 H4555 0.951 . S
C4574 C4572 1.388 . S
C4574 C4575 1.366 . S
C4575 C4574 1.366 . S
C4575 C4576 1.414 . S
C4575 C4578 1.499 . S
C4576 H4556 0.950 . S
C4576 C4575 1.414 . S
C4576 C4577 1.374 . S
C4577 H4557 0.950 . S
C4577 C4573 1.385 . S
C4577 C4576 1.374 . S
C4578 C4575 1.499 . S
C4578 C4579 1.373 . S
C4578 C4580 1.389 . S
C4579 H4558 0.950 . S
C4579 C4578 1.373 . S
C4579 C4595 1.377 . S
C4580 C4578 1.389 . S
C4580 C4581 1.524 . S
C4580 C4594 1.377 . S
C4581 C4580 1.524 . S
C4581 C4582 1.397 . S
C4581 C4586 1.363 . S
C4582 H4559 0.950 . S
C4582 C4581 1.397 . S
C4582 C4583 1.334 . S
C4583 H4560 0.950 . S
C4583 C4582 1.334 . S
C4583 C4584 1.287 . S
C4584 C4583 1.287 . S
C4584 C4585 1.524 . S
C4584 H4603 0.913 . S
C4585 H4561 0.950 . S
C4585 C4584 1.524 . S
C4585 C4586 1.415 . S
C4586 H4562 0.950 . S
C4586 C4581 1.363 . S
C4586 C4585 1.415 . S
C4587 H4563 0.951 . S
C4587 C4588 1.366 . S
C4587 C4589 1.388 . S
C4588 C4587 1.366 . S
C4588 C4592 1.385 . S
C4589 H4564 0.951 . S
C4589 C4587 1.388 . S
C4589 C4590 1.366 . S
C4590 C4589 1.366 . S
C4590 C4591 1.414 . S
C4590 C4593 1.499 . S
C4591 H4565 0.950 . S
C4591 C4590 1.414 . S
C4591 C4592 1.374 . S
C4592 H4566 0.950 . S
C4592 C4588 1.385 . S
C4592 C4591 1.374 . S
C4593 C4590 1.499 . S
C4593 C4594 1.373 . S
C4593 C4595 1.389 . S
C4594 H4567 0.950 . S
C4594 C4580 1.377 . S
C4594 C4593 1.373 . S
C4595 C4579 1.377 . S
C4595 C4593 1.389 . S
C4595 C4596 1.524 . S
C4596 C4595 1.524 . S
C4596 C4597 1.397 . S
C4596 C4601 1.363 . S
C4597 H4568 0.950 . S
C4597 C4596 1.397 . S
C4597 C4598 1.334 . S
C4598 H4569 0.950 . S
C4598 C4597 1.334 . S
C4598 C4599 1.287 . S
C4599 C4598 1.287 . S
C4599 C4600 1.524 . S
C4599 H4602 0.999 . S
C4600 H4570 0.950 . S
C4600 C4599 1.524 . S
C4600 C4601 1.415 . S
C4601 H4571 0.950 . S
C4601 C4596 1.363 . S
C4601 C4600 1.415 . S
H4602 C4599 0.999 . S
H4603 C4584 0.913 . S
H4604 C4622 0.951 . S
H4605 C4624 0.951 . S
H4606 C4626 0.950 . S
H4607 C4627 0.950 . S
H4608 C4629 0.950 . S
H4609 C4632 0.950 . S
H4610 C4633 0.950 . S
H4611 C4635 0.950 1_655 S
H4612 C4636 0.950 . S
H4613 C4637 0.951 . S
H4614 C4639 0.951 . S
H4615 C4641 0.950 . S
H4616 C4642 0.950 . S
H4617 C4644 0.950 . S
H4618 C4647 0.950 . S
H4619 C4648 0.950 . S
H4620 C4650 0.950 . S
H4621 C4651 0.950 . S
C4622 H4604 0.951 . S
C4622 C4623 1.366 . S
C4622 C4624 1.388 . S
C4623 C4622 1.366 . S
C4623 C4627 1.385 . S
C4624 H4605 0.951 . S
C4624 C4622 1.388 . S
C4624 C4625 1.366 . S
C4625 C4624 1.366 . S
C4625 C4626 1.414 . S
C4625 C4628 1.499 . S
C4626 H4606 0.950 . S
C4626 C4625 1.414 . S
C4626 C4627 1.374 . S
C4627 H4607 0.950 . S
C4627 C4623 1.385 . S
C4627 C4626 1.374 . S
C4628 C4625 1.499 . S
C4628 C4629 1.373 . S
C4628 C4630 1.389 . S
C4629 H4608 0.950 . S
C4629 C4628 1.373 . S
C4629 C4645 1.377 . S
C4630 C4628 1.389 . S
C4630 C4631 1.524 . S
C4630 C4644 1.377 . S
C4631 C4630 1.524 . S
C4631 C4632 1.397 . S
C4631 C4636 1.363 . S
C4632 H4609 0.950 . S
C4632 C4631 1.397 . S
C4632 C4633 1.334 . S
C4633 H4610 0.950 . S
C4633 C4632 1.334 . S
C4633 C4634 1.338 . S
C4634 C4633 1.338 . S
C4634 C4635 1.540 . S
C4634 H4653 0.845 1_455 S
C4635 H4611 0.950 1_455 S
C4635 C4634 1.540 . S
C4635 C4636 1.415 . S
C4636 H4612 0.950 . S
C4636 C4631 1.363 . S
C4636 C4635 1.415 . S
C4637 H4613 0.951 . S
C4637 C4638 1.366 . S
C4637 C4639 1.388 . S
C4638 C4637 1.366 . S
C4638 C4642 1.385 . S
C4639 H4614 0.951 . S
C4639 C4637 1.388 . S
C4639 C4640 1.366 . S
C4640 C4639 1.366 . S
C4640 C4641 1.414 . S
C4640 C4643 1.499 . S
C4641 H4615 0.950 . S
C4641 C4640 1.414 . S
C4641 C4642 1.374 . S
C4642 H4616 0.950 . S
C4642 C4638 1.385 . S
C4642 C4641 1.374 . S
C4643 C4640 1.499 . S
C4643 C4644 1.373 . S
C4643 C4645 1.389 . S
C4644 H4617 0.950 . S
C4644 C4630 1.377 . S
C4644 C4643 1.373 . S
C4645 C4629 1.377 . S
C4645 C4643 1.389 . S
C4645 C4646 1.524 . S
C4646 C4645 1.524 . S
C4646 C4647 1.397 . S
C4646 C4651 1.363 . S
C4647 H4618 0.950 . S
C4647 C4646 1.397 . S
C4647 C4648 1.334 . S
C4648 H4619 0.950 . S
C4648 C4647 1.334 . S
C4648 C4649 1.287 . S
C4649 C4648 1.287 . S
C4649 C4650 1.524 . S
C4649 H4652 0.999 . S
C4650 H4620 0.950 . S
C4650 C4649 1.524 . S
C4650 C4651 1.415 . S
C4651 H4621 0.950 . S
C4651 C4646 1.363 . S
C4651 C4650 1.415 . S
H4652 C4649 0.999 . S
H4653 C4634 0.845 1_655 S
H4654 C4672 0.951 . S
H4655 C4674 0.951 . S
H4656 C4676 0.950 . S
H4657 C4677 0.950 . S
H4658 C4679 0.950 . S
H4659 C4682 0.950 . S
H4660 C4683 0.950 . S
H4661 C4685 0.950 . S
H4662 C4686 0.950 . S
H4663 C4687 0.951 . S
H4664 C4689 0.951 . S
H4665 C4691 0.950 . S
H4666 C4692 0.950 . S
H4667 C4694 0.950 . S
H4668 C4697 0.950 . S
H4669 C4698 0.950 . S
H4670 C4700 0.950 . S
H4671 C4701 0.950 . S
C4672 H4654 0.951 . S
C4672 C4673 1.366 . S
C4672 C4674 1.388 . S
C4673 C4672 1.366 . S
C4673 C4677 1.385 . S
C4674 H4655 0.951 . S
C4674 C4672 1.388 . S
C4674 C4675 1.366 . S
C4675 C4674 1.366 . S
C4675 C4676 1.414 . S
C4675 C4678 1.499 . S
C4676 H4656 0.950 . S
C4676 C4675 1.414 . S
C4676 C4677 1.374 . S
C4677 H4657 0.950 . S
C4677 C4673 1.385 . S
C4677 C4676 1.374 . S
C4678 C4675 1.499 . S
C4678 C4679 1.373 . S
C4678 C4680 1.389 . S
C4679 H4658 0.950 . S
C4679 C4678 1.373 . S
C4679 C4695 1.377 . S
C4680 C4678 1.389 . S
C4680 C4681 1.524 . S
C4680 C4694 1.377 . S
C4681 C4680 1.524 . S
C4681 C4682 1.397 . S
C4681 C4686 1.363 . S
C4682 H4659 0.950 . S
C4682 C4681 1.397 . S
C4682 C4683 1.334 . S
C4683 H4660 0.950 . S
C4683 C4682 1.334 . S
C4683 C4684 1.287 . S
C4684 C4683 1.287 . S
C4684 C4685 1.524 . S
C4684 H4703 0.913 . S
C4685 H4661 0.950 . S
C4685 C4684 1.524 . S
C4685 C4686 1.415 . S
C4686 H4662 0.950 . S
C4686 C4681 1.363 . S
C4686 C4685 1.415 . S
C4687 H4663 0.951 . S
C4687 C4688 1.366 . S
C4687 C4689 1.388 . S
C4688 C4687 1.366 . S
C4688 C4692 1.385 . S
C4689 H4664 0.951 . S
C4689 C4687 1.388 . S
C4689 C4690 1.366 . S
C4690 C4689 1.366 . S
C4690 C4691 1.414 . S
C4690 C4693 1.499 . S
C4691 H4665 0.950 . S
C4691 C4690 1.414 . S
C4691 C4692 1.374 . S
C4692 H4666 0.950 . S
C4692 C4688 1.385 . S
C4692 C4691 1.374 . S
C4693 C4690 1.499 . S
C4693 C4694 1.373 . S
C4693 C4695 1.389 . S
C4694 H4667 0.950 . S
C4694 C4680 1.377 . S
C4694 C4693 1.373 . S
C4695 C4679 1.377 . S
C4695 C4693 1.389 . S
C4695 C4696 1.524 . S
C4696 C4695 1.524 . S
C4696 C4697 1.397 . S
C4696 C4701 1.363 . S
C4697 H4668 0.950 . S
C4697 C4696 1.397 . S
C4697 C4698 1.334 . S
C4698 H4669 0.950 . S
C4698 C4697 1.334 . S
C4698 C4699 1.287 . S
C4699 C4698 1.287 . S
C4699 C4700 1.524 . S
C4699 H4702 0.999 . S
C4700 H4670 0.950 . S
C4700 C4699 1.524 . S
C4700 C4701 1.415 . S
C4701 H4671 0.950 . S
C4701 C4696 1.363 . S
C4701 C4700 1.415 . S
H4702 C4699 0.999 . S
H4703 C4684 0.913 . S
H4704 C4722 0.951 . S
H4705 C4724 0.951 . S
H4706 C4726 0.950 . S
H4707 C4727 0.950 . S
H4708 C4729 0.950 . S
H4709 C4732 0.950 . S
H4710 C4733 0.950 . S
H4711 C4735 0.950 . S
H4712 C4736 0.950 . S
H4713 C4737 0.951 . S
H4714 C4739 0.951 . S
H4715 C4741 0.950 . S
H4716 C4742 0.950 . S
H4717 C4744 0.950 . S
H4718 C4747 0.950 . S
H4719 C4748 0.950 . S
H4720 C4750 0.950 . S
H4721 C4751 0.950 . S
C4722 H4704 0.951 . S
C4722 C4723 1.366 . S
C4722 C4724 1.388 . S
C4723 C4722 1.366 . S
C4723 C4727 1.385 . S
C4724 H4705 0.951 . S
C4724 C4722 1.388 . S
C4724 C4725 1.366 . S
C4725 C4724 1.366 . S
C4725 C4726 1.414 . S
C4725 C4728 1.499 . S
C4726 H4706 0.950 . S
C4726 C4725 1.414 . S
C4726 C4727 1.374 . S
C4727 H4707 0.950 . S
C4727 C4723 1.385 . S
C4727 C4726 1.374 . S
C4728 C4725 1.499 . S
C4728 C4729 1.373 . S
C4728 C4730 1.389 . S
C4729 H4708 0.950 . S
C4729 C4728 1.373 . S
C4729 C4745 1.377 . S
C4730 C4728 1.389 . S
C4730 C4731 1.524 . S
C4730 C4744 1.377 . S
C4731 C4730 1.524 . S
C4731 C4732 1.397 . S
C4731 C4736 1.363 . S
C4732 H4709 0.950 . S
C4732 C4731 1.397 . S
C4732 C4733 1.334 . S
C4733 H4710 0.950 . S
C4733 C4732 1.334 . S
C4733 C4734 1.287 . S
C4734 C4733 1.287 . S
C4734 C4735 1.524 . S
C4734 H4753 0.913 . S
C4735 H4711 0.950 . S
C4735 C4734 1.524 . S
C4735 C4736 1.415 . S
C4736 H4712 0.950 . S
C4736 C4731 1.363 . S
C4736 C4735 1.415 . S
C4737 H4713 0.951 . S
C4737 C4738 1.366 . S
C4737 C4739 1.388 . S
C4738 C4737 1.366 . S
C4738 C4742 1.385 . S
C4739 H4714 0.951 . S
C4739 C4737 1.388 . S
C4739 C4740 1.366 . S
C4740 C4739 1.366 . S
C4740 C4741 1.414 . S
C4740 C4743 1.499 . S
C4741 H4715 0.950 . S
C4741 C4740 1.414 . S
C4741 C4742 1.374 . S
C4742 H4716 0.950 . S
C4742 C4738 1.385 . S
C4742 C4741 1.374 . S
C4743 C4740 1.499 . S
C4743 C4744 1.373 . S
C4743 C4745 1.389 . S
C4744 H4717 0.950 . S
C4744 C4730 1.377 . S
C4744 C4743 1.373 . S
C4745 C4729 1.377 . S
C4745 C4743 1.389 . S
C4745 C4746 1.524 . S
C4746 C4745 1.524 . S
C4746 C4747 1.397 . S
C4746 C4751 1.363 . S
C4747 H4718 0.950 . S
C4747 C4746 1.397 . S
C4747 C4748 1.334 . S
C4748 H4719 0.950 . S
C4748 C4747 1.334 . S
C4748 C4749 1.287 . S
C4749 C4748 1.287 . S
C4749 C4750 1.524 . S
C4749 H4752 0.999 . S
C4750 H4720 0.950 . S
C4750 C4749 1.524 . S
C4750 C4751 1.415 . S
C4751 H4721 0.950 . S
C4751 C4746 1.363 . S
C4751 C4750 1.415 . S
H4752 C4749 0.999 . S
H4753 C4734 0.913 . S
H4754 C4772 0.951 . S
H4755 C4774 0.951 . S
H4756 C4776 0.950 . S
H4757 C4777 0.950 . S
H4758 C4779 0.950 . S
H4759 C4782 0.950 . S
H4760 C4783 0.950 . S
H4761 C4785 0.950 . S
H4762 C4786 0.950 . S
H4763 C4787 0.951 . S
H4764 C4789 0.951 . S
H4765 C4791 0.950 . S
H4766 C4792 0.950 . S
H4767 C4794 0.950 . S
H4768 C4797 0.950 . S
H4769 C4798 0.950 . S
H4770 C4800 0.950 . S
H4771 C4801 0.950 . S
C4772 H4754 0.951 . S
C4772 C4773 1.366 . S
C4772 C4774 1.388 . S
C4773 C4772 1.366 . S
C4773 C4777 1.385 . S
C4774 H4755 0.951 . S
C4774 C4772 1.388 . S
C4774 C4775 1.366 . S
C4775 C4774 1.366 . S
C4775 C4776 1.414 . S
C4775 C4778 1.499 . S
C4776 H4756 0.950 . S
C4776 C4775 1.414 . S
C4776 C4777 1.374 . S
C4777 H4757 0.950 . S
C4777 C4773 1.385 . S
C4777 C4776 1.374 . S
C4778 C4775 1.499 . S
C4778 C4779 1.373 . S
C4778 C4780 1.389 . S
C4779 H4758 0.950 . S
C4779 C4778 1.373 . S
C4779 C4795 1.377 . S
C4780 C4778 1.389 . S
C4780 C4781 1.524 . S
C4780 C4794 1.377 . S
C4781 C4780 1.524 . S
C4781 C4782 1.397 . S
C4781 C4786 1.363 . S
C4782 H4759 0.950 . S
C4782 C4781 1.397 . S
C4782 C4783 1.334 . S
C4783 H4760 0.950 . S
C4783 C4782 1.334 . S
C4783 C4784 1.287 . S
C4784 C4783 1.287 . S
C4784 C4785 1.524 . S
C4784 H4803 0.913 . S
C4785 H4761 0.950 . S
C4785 C4784 1.524 . S
C4785 C4786 1.415 . S
C4786 H4762 0.950 . S
C4786 C4781 1.363 . S
C4786 C4785 1.415 . S
C4787 H4763 0.951 . S
C4787 C4788 1.366 . S
C4787 C4789 1.388 . S
C4788 C4787 1.366 . S
C4788 C4792 1.385 . S
C4789 H4764 0.951 . S
C4789 C4787 1.388 . S
C4789 C4790 1.366 . S
C4790 C4789 1.366 . S
C4790 C4791 1.414 . S
C4790 C4793 1.499 . S
C4791 H4765 0.950 . S
C4791 C4790 1.414 . S
C4791 C4792 1.374 . S
C4792 H4766 0.950 . S
C4792 C4788 1.385 . S
C4792 C4791 1.374 . S
C4793 C4790 1.499 . S
C4793 C4794 1.373 . S
C4793 C4795 1.389 . S
C4794 H4767 0.950 . S
C4794 C4780 1.377 . S
C4794 C4793 1.373 . S
C4795 C4779 1.377 . S
C4795 C4793 1.389 . S
C4795 C4796 1.524 . S
C4796 C4795 1.524 . S
C4796 C4797 1.397 . S
C4796 C4801 1.363 . S
C4797 H4768 0.950 . S
C4797 C4796 1.397 . S
C4797 C4798 1.334 . S
C4798 H4769 0.950 . S
C4798 C4797 1.334 . S
C4798 C4799 1.287 . S
C4799 C4798 1.287 . S
C4799 C4800 1.524 . S
C4799 H4802 0.999 . S
C4800 H4770 0.950 . S
C4800 C4799 1.524 . S
C4800 C4801 1.415 . S
C4801 H4771 0.950 . S
C4801 C4796 1.363 . S
C4801 C4800 1.415 . S
H4802 C4799 0.999 . S
H4803 C4784 0.913 . S
H4804 C4822 0.951 . S
H4805 C4824 0.951 . S
H4806 C4826 0.950 . S
H4807 C4827 0.950 . S
H4808 C4829 0.950 . S
H4809 C4832 0.950 . S
H4810 C4833 0.950 . S
H4811 C4835 0.950 . S
H4812 C4836 0.950 . S
H4813 C4837 0.951 . S
H4814 C4839 0.951 . S
H4815 C4841 0.950 . S
H4816 C4842 0.950 . S
H4817 C4844 0.950 . S
H4818 C4847 0.950 . S
H4819 C4848 0.950 . S
H4820 C4850 0.950 . S
H4821 C4851 0.950 . S
C4822 H4804 0.951 . S
C4822 C4823 1.366 . S
C4822 C4824 1.388 . S
C4823 C4822 1.366 . S
C4823 C4827 1.385 . S
C4824 H4805 0.951 . S
C4824 C4822 1.388 . S
C4824 C4825 1.366 . S
C4825 C4824 1.366 . S
C4825 C4826 1.414 . S
C4825 C4828 1.499 . S
C4826 H4806 0.950 . S
C4826 C4825 1.414 . S
C4826 C4827 1.374 . S
C4827 H4807 0.950 . S
C4827 C4823 1.385 . S
C4827 C4826 1.374 . S
C4828 C4825 1.499 . S
C4828 C4829 1.373 . S
C4828 C4830 1.389 . S
C4829 H4808 0.950 . S
C4829 C4828 1.373 . S
C4829 C4845 1.377 . S
C4830 C4828 1.389 . S
C4830 C4831 1.524 . S
C4830 C4844 1.377 . S
C4831 C4830 1.524 . S
C4831 C4832 1.397 . S
C4831 C4836 1.363 . S
C4832 H4809 0.950 . S
C4832 C4831 1.397 . S
C4832 C4833 1.334 . S
C4833 H4810 0.950 . S
C4833 C4832 1.334 . S
C4833 C4834 1.287 . S
C4834 C4833 1.287 . S
C4834 C4835 1.524 . S
C4834 H4853 0.913 . S
C4835 H4811 0.950 . S
C4835 C4834 1.524 . S
C4835 C4836 1.415 . S
C4836 H4812 0.950 . S
C4836 C4831 1.363 . S
C4836 C4835 1.415 . S
C4837 H4813 0.951 . S
C4837 C4838 1.366 . S
C4837 C4839 1.388 . S
C4838 C4837 1.366 . S
C4838 C4842 1.385 . S
C4839 H4814 0.951 . S
C4839 C4837 1.388 . S
C4839 C4840 1.366 . S
C4840 C4839 1.366 . S
C4840 C4841 1.414 . S
C4840 C4843 1.499 . S
C4841 H4815 0.950 . S
C4841 C4840 1.414 . S
C4841 C4842 1.374 . S
C4842 H4816 0.950 . S
C4842 C4838 1.385 . S
C4842 C4841 1.374 . S
C4843 C4840 1.499 . S
C4843 C4844 1.373 . S
C4843 C4845 1.389 . S
C4844 H4817 0.950 . S
C4844 C4830 1.377 . S
C4844 C4843 1.373 . S
C4845 C4829 1.377 . S
C4845 C4843 1.389 . S
C4845 C4846 1.524 . S
C4846 C4845 1.524 . S
C4846 C4847 1.397 . S
C4846 C4851 1.363 . S
C4847 H4818 0.950 . S
C4847 C4846 1.397 . S
C4847 C4848 1.334 . S
C4848 H4819 0.950 . S
C4848 C4847 1.334 . S
C4848 C4849 1.287 . S
C4849 C4848 1.287 . S
C4849 C4850 1.524 . S
C4849 H4852 0.999 . S
C4850 H4820 0.950 . S
C4850 C4849 1.524 . S
C4850 C4851 1.415 . S
C4851 H4821 0.950 . S
C4851 C4846 1.363 . S
C4851 C4850 1.415 . S
H4852 C4849 0.999 . S
H4853 C4834 0.913 . S
H4854 C4872 0.951 . S
H4855 C4874 0.951 . S
H4856 C4876 0.950 . S
H4857 C4877 0.950 . S
H4858 C4879 0.950 . S
H4859 C4882 0.950 . S
H4860 C4883 0.950 . S
H4861 C4885 0.950 . S
H4862 C4886 0.950 . S
H4863 C4887 0.951 . S
H4864 C4889 0.951 . S
H4865 C4891 0.950 1_655 S
H4866 C4892 0.954 1_655 S
H4867 C4894 0.975 . S
H4868 C4897 0.950 . S
H4869 C4898 0.950 . S
H4870 C4900 0.950 . S
H4871 C4901 0.950 . S
C4872 H4854 0.951 . S
C4872 C4873 1.366 . S
C4872 C4874 1.388 . S
C4873 C4872 1.366 . S
C4873 C4877 1.385 . S
C4874 H4855 0.951 . S
C4874 C4872 1.388 . S
C4874 C4875 1.366 . S
C4875 C4874 1.366 . S
C4875 C4876 1.414 . S
C4875 C4878 1.499 . S
C4876 H4856 0.950 . S
C4876 C4875 1.414 . S
C4876 C4877 1.374 . S
C4877 H4857 0.950 . S
C4877 C4873 1.385 . S
C4877 C4876 1.374 . S
C4878 C4875 1.499 . S
C4878 C4879 1.373 . S
C4878 C4880 1.452 . S
C4879 H4858 0.950 . S
C4879 C4878 1.373 . S
C4879 C4895 1.377 . S
C4880 C4878 1.452 . S
C4880 C4881 1.491 1_455 S
C4880 C4894 1.336 1_455 S
C4881 C4880 1.491 1_655 S
C4881 C4882 1.397 . S
C4881 C4886 1.363 . S
C4882 H4859 0.950 . S
C4882 C4881 1.397 . S
C4882 C4883 1.334 . S
C4883 H4860 0.950 . S
C4883 C4882 1.334 . S
C4883 C4884 1.287 . S
C4884 C4883 1.287 . S
C4884 C4885 1.524 . S
C4884 H4903 0.913 . S
C4885 H4861 0.950 . S
C4885 C4884 1.524 . S
C4885 C4886 1.415 . S
C4886 H4862 0.950 . S
C4886 C4881 1.363 . S
C4886 C4885 1.415 . S
C4887 H4863 0.951 . S
C4887 C4888 1.366 . S
C4887 C4889 1.388 . S
C4888 C4887 1.366 . S
C4888 C4892 1.383 . S
C4889 H4864 0.951 . S
C4889 C4887 1.388 . S
C4889 C4890 1.366 . S
C4890 C4889 1.366 . S
C4890 C4891 1.414 . S
C4890 C4893 1.499 . S
C4891 H4865 0.950 1_455 S
C4891 C4890 1.414 . S
C4891 C4892 1.372 . S
C4892 H4866 0.954 1_455 S
C4892 C4888 1.383 . S
C4892 C4891 1.372 . S
C4893 C4890 1.499 . S
C4893 C4894 1.361 1_455 S
C4893 C4895 1.389 . S
C4894 H4867 0.975 . S
C4894 C4880 1.336 1_655 S
C4894 C4893 1.361 1_655 S
C4895 C4879 1.377 . S
C4895 C4893 1.389 . S
C4895 C4896 1.524 . S
C4896 C4895 1.524 . S
C4896 C4897 1.397 . S
C4896 C4901 1.363 . S
C4897 H4868 0.950 . S
C4897 C4896 1.397 . S
C4897 C4898 1.334 . S
C4898 H4869 0.950 . S
C4898 C4897 1.334 . S
C4898 C4899 1.287 . S
C4899 C4898 1.287 . S
C4899 C4900 1.524 . S
C4899 H4902 0.999 . S
C4900 H4870 0.950 . S
C4900 C4899 1.524 . S
C4900 C4901 1.415 . S
C4901 H4871 0.950 . S
C4901 C4896 1.363 . S
C4901 C4900 1.415 . S
H4902 C4899 0.999 . S
H4903 C4884 0.913 . S
H4904 C4922 0.951 . S
H4905 C4924 0.951 . S
H4906 C4926 0.950 . S
H4907 C4927 0.950 . S
H4908 C4929 0.950 . S
H4909 C4932 0.950 . S
H4910 C4933 0.950 . S
H4911 C4935 0.950 . S
H4912 C4936 0.950 . S
H4913 C4937 0.951 . S
H4914 C4939 0.951 . S
H4915 C4941 0.950 . S
H4916 C4942 0.950 . S
H4917 C4944 0.950 . S
H4918 C4947 0.950 . S
H4919 C4948 0.950 . S
H4920 C4950 0.950 . S
H4921 C4951 0.950 . S
C4922 H4904 0.951 . S
C4922 C4923 1.366 . S
C4922 C4924 1.388 . S
C4923 C4922 1.366 . S
C4923 C4927 1.385 . S
C4924 H4905 0.951 . S
C4924 C4922 1.388 . S
C4924 C4925 1.366 . S
C4925 C4924 1.366 . S
C4925 C4926 1.414 . S
C4925 C4928 1.499 . S
C4926 H4906 0.950 . S
C4926 C4925 1.414 . S
C4926 C4927 1.374 . S
C4927 H4907 0.950 . S
C4927 C4923 1.385 . S
C4927 C4926 1.374 . S
C4928 C4925 1.499 . S
C4928 C4929 1.373 . S
C4928 C4930 1.389 . S
C4929 H4908 0.950 . S
C4929 C4928 1.373 . S
C4929 C4945 1.377 . S
C4930 C4928 1.389 . S
C4930 C4931 1.524 . S
C4930 C4944 1.377 . S
C4931 C4930 1.524 . S
C4931 C4932 1.397 . S
C4931 C4936 1.363 . S
C4932 H4909 0.950 . S
C4932 C4931 1.397 . S
C4932 C4933 1.334 . S
C4933 H4910 0.950 . S
C4933 C4932 1.334 . S
C4933 C4934 1.287 . S
C4934 C4933 1.287 . S
C4934 C4935 1.524 . S
C4934 H4953 0.913 . S
C4935 H4911 0.950 . S
C4935 C4934 1.524 . S
C4935 C4936 1.415 . S
C4936 H4912 0.950 . S
C4936 C4931 1.363 . S
C4936 C4935 1.415 . S
C4937 H4913 0.951 . S
C4937 C4938 1.366 . S
C4937 C4939 1.388 . S
C4938 C4937 1.366 . S
C4938 C4942 1.385 . S
C4939 H4914 0.951 . S
C4939 C4937 1.388 . S
C4939 C4940 1.366 . S
C4940 C4939 1.366 . S
C4940 C4941 1.414 . S
C4940 C4943 1.499 . S
C4941 H4915 0.950 . S
C4941 C4940 1.414 . S
C4941 C4942 1.374 . S
C4942 H4916 0.950 . S
C4942 C4938 1.385 . S
C4942 C4941 1.374 . S
C4943 C4940 1.499 . S
C4943 C4944 1.373 . S
C4943 C4945 1.389 . S
C4944 H4917 0.950 . S
C4944 C4930 1.377 . S
C4944 C4943 1.373 . S
C4945 C4929 1.377 . S
C4945 C4943 1.389 . S
C4945 C4946 1.524 . S
C4946 C4945 1.524 . S
C4946 C4947 1.397 . S
C4946 C4951 1.363 . S
C4947 H4918 0.950 . S
C4947 C4946 1.397 . S
C4947 C4948 1.334 . S
C4948 H4919 0.950 . S
C4948 C4947 1.334 . S
C4948 C4949 1.287 . S
C4949 C4948 1.287 . S
C4949 C4950 1.524 . S
C4949 H4952 0.999 . S
C4950 H4920 0.950 . S
C4950 C4949 1.524 . S
C4950 C4951 1.415 . S
C4951 H4921 0.950 . S
C4951 C4946 1.363 . S
C4951 C4950 1.415 . S
H4952 C4949 0.999 . S
H4953 C4934 0.913 . S
H4954 C4972 0.951 . S
H4955 C4974 0.951 . S
H4956 C4976 0.950 . S
H4957 C4977 0.950 . S
H4958 C4979 0.950 1_545 S
H4959 C4982 0.950 . S
H4960 C4983 0.950 . S
H4961 C4985 0.950 . S
H4962 C4986 0.950 . S
H4963 C4987 0.951 . S
H4964 C4989 0.951 . S
H4965 C4991 0.950 . S
H4966 C4992 0.950 . S
H4967 C4994 0.950 . S
H4968 C4997 0.950 . S
H4969 C4998 0.950 . S
H4970 C5000 0.950 . S
H4971 C5001 0.950 . S
C4972 H4954 0.951 . S
C4972 C4973 1.366 . S
C4972 C4974 1.388 . S
C4973 C4972 1.366 . S
C4973 C4977 1.385 . S
C4974 H4955 0.951 . S
C4974 C4972 1.388 . S
C4974 C4975 1.366 . S
C4975 C4974 1.366 . S
C4975 C4976 1.414 . S
C4975 C4978 1.499 . S
C4976 H4956 0.950 . S
C4976 C4975 1.414 . S
C4976 C4977 1.374 . S
C4977 H4957 0.950 . S
C4977 C4973 1.385 . S
C4977 C4976 1.374 . S
C4978 C4975 1.499 . S
C4978 C4979 1.373 . S
C4978 C4980 1.389 . S
C4979 H4958 0.950 1_565 S
C4979 C4978 1.373 . S
C4979 C4995 1.368 . S
C4980 C4978 1.389 . S
C4980 C4981 1.524 . S
C4980 C4994 1.377 . S
C4981 C4980 1.524 . S
C4981 C4982 1.397 . S
C4981 C4986 1.363 . S
C4982 H4959 0.950 . S
C4982 C4981 1.397 . S
C4982 C4983 1.334 . S
C4983 H4960 0.950 . S
C4983 C4982 1.334 . S
C4983 C4984 1.287 . S
C4984 C4983 1.287 . S
C4984 C4985 1.524 . S
C4984 H5003 0.913 . S
C4985 H4961 0.950 . S
C4985 C4984 1.524 . S
C4985 C4986 1.415 . S
C4986 H4962 0.950 . S
C4986 C4981 1.363 . S
C4986 C4985 1.415 . S
C4987 H4963 0.951 . S
C4987 C4988 1.366 . S
C4987 C4989 1.388 . S
C4988 C4987 1.366 . S
C4988 C4992 1.385 . S
C4989 H4964 0.951 . S
C4989 C4987 1.388 . S
C4989 C4990 1.366 . S
C4990 C4989 1.366 . S
C4990 C4991 1.414 . S
C4990 C4993 1.499 . S
C4991 H4965 0.950 . S
C4991 C4990 1.414 . S
C4991 C4992 1.374 . S
C4992 H4966 0.950 . S
C4992 C4988 1.385 . S
C4992 C4991 1.374 . S
C4993 C4990 1.499 . S
C4993 C4994 1.373 . S
C4993 C4995 1.409 . S
C4994 H4967 0.950 . S
C4994 C4980 1.377 . S
C4994 C4993 1.373 . S
C4995 C4979 1.368 . S
C4995 C4993 1.409 . S
C4995 C4996 1.512 1_565 S
C4996 C4995 1.512 1_545 S
C4996 C4997 1.397 . S
C4996 C5001 1.363 . S
C4997 H4968 0.950 . S
C4997 C4996 1.397 . S
C4997 C4998 1.334 . S
C4998 H4969 0.950 . S
C4998 C4997 1.334 . S
C4998 C4999 1.287 . S
C4999 C4998 1.287 . S
C4999 C5000 1.524 . S
C4999 H5002 0.999 . S
C5000 H4970 0.950 . S
C5000 C4999 1.524 . S
C5000 C5001 1.415 . S
C5001 H4971 0.950 . S
C5001 C4996 1.363 . S
C5001 C5000 1.415 . S
H5002 C4999 0.999 . S
H5003 C4984 0.913 . S
H5004 C5022 0.951 . S
H5005 C5024 0.951 . S
H5006 C5026 0.950 1_545 S
H5007 C5027 0.947 1_545 S
H5008 C5029 0.950 . S
H5009 C5032 0.900 1_545 S
H5010 C5033 0.948 . S
H5011 C5035 0.950 . S
H5012 C5036 0.950 . S
H5013 C5037 0.951 . S
H5014 C5039 0.951 . S
H5015 C5041 0.950 . S
H5016 C5042 0.950 . S
H5017 C5044 0.950 . S
H5018 C5047 0.950 . S
H5019 C5048 0.950 . S
H5020 C5050 0.950 . S
H5021 C5051 0.950 . S
C5022 H5004 0.951 . S
C5022 C5023 1.366 . S
C5022 C5024 1.388 . S
C5023 C5022 1.366 . S
C5023 C5027 1.385 . S
C5024 H5005 0.951 . S
C5024 C5022 1.388 . S
C5024 C5025 1.366 . S
C5025 C5024 1.366 . S
C5025 C5026 1.414 . S
C5025 C5028 1.499 . S
C5026 H5006 0.950 1_565 S
C5026 C5025 1.414 . S
C5026 C5027 1.374 . S
C5027 H5007 0.947 1_565 S
C5027 C5023 1.385 . S
C5027 C5026 1.374 . S
C5028 C5025 1.499 . S
C5028 C5029 1.373 . S
C5028 C5030 1.389 . S
C5029 H5008 0.950 . S
C5029 C5028 1.373 . S
C5029 C5045 1.377 . S
C5030 C5028 1.389 . S
C5030 C5031 1.524 . S
C5030 C5044 1.377 . S
C5031 C5030 1.524 . S
C5031 C5032 1.419 . S
C5031 C5036 1.363 . S
C5032 H5009 0.900 1_565 S
C5032 C5031 1.419 . S
C5032 C5033 1.361 1_565 S
C5033 H5010 0.948 . S
C5033 C5032 1.361 1_545 S
C5033 C5034 1.293 1_545 S
C5034 C5033 1.293 1_565 S
C5034 C5035 1.524 . S
C5034 H5053 0.913 . S
C5035 H5011 0.950 . S
C5035 C5034 1.524 . S
C5035 C5036 1.415 . S
C5036 H5012 0.950 . S
C5036 C5031 1.363 . S
C5036 C5035 1.415 . S
C5037 H5013 0.951 . S
C5037 C5038 1.366 1_545 S
C5037 C5039 1.388 . S
C5038 C5037 1.366 1_565 S
C5038 C5042 1.385 . S
C5039 H5014 0.951 . S
C5039 C5037 1.388 . S
C5039 C5040 1.366 1_545 S
C5040 C5039 1.366 1_565 S
C5040 C5041 1.414 . S
C5040 C5043 1.499 . S
C5041 H5015 0.950 . S
C5041 C5040 1.414 . S
C5041 C5042 1.374 . S
C5042 H5016 0.950 . S
C5042 C5038 1.385 . S
C5042 C5041 1.374 . S
C5043 C5040 1.499 . S
C5043 C5044 1.373 . S
C5043 C5045 1.389 . S
C5044 H5017 0.950 . S
C5044 C5030 1.377 . S
C5044 C5043 1.373 . S
C5045 C5029 1.377 . S
C5045 C5043 1.389 . S
C5045 C5046 1.524 . S
C5046 C5045 1.524 . S
C5046 C5047 1.397 . S
C5046 C5051 1.363 1_565 S
C5047 H5018 0.950 . S
C5047 C5046 1.397 . S
C5047 C5048 1.334 . S
C5048 H5019 0.950 . S
C5048 C5047 1.334 . S
C5048 C5049 1.287 . S
C5049 C5048 1.287 . S
C5049 C5050 1.524 1_565 S
C5049 H5052 0.999 . S
C5050 H5020 0.950 . S
C5050 C5049 1.524 1_545 S
C5050 C5051 1.415 . S
C5051 H5021 0.950 . S
C5051 C5046 1.363 1_545 S
C5051 C5050 1.415 . S
H5052 C5049 0.999 . S
H5053 C5034 0.913 . S
H5054 C5072 0.951 . S
H5055 C5074 0.951 . S
H5056 C5076 0.950 . S
H5057 C5077 0.950 . S
H5058 C5079 0.950 . S
H5059 C5082 0.950 . S
H5060 C5083 0.950 . S
H5061 C5085 0.950 . S
H5062 C5086 0.950 . S
H5063 C5087 0.951 . S
H5064 C5089 0.951 . S
H5065 C5091 0.950 . S
H5066 C5092 0.950 . S
H5067 C5094 0.950 . S
H5068 C5097 0.950 . S
H5069 C5098 0.950 . S
H5070 C5100 0.950 . S
H5071 C5101 0.951 1_455 S
C5072 H5054 0.951 . S
C5072 C5073 1.366 . S
C5072 C5074 1.388 . S
C5073 C5072 1.366 . S
C5073 C5077 1.385 . S
C5074 H5055 0.951 . S
C5074 C5072 1.388 . S
C5074 C5075 1.366 . S
C5075 C5074 1.366 . S
C5075 C5076 1.414 . S
C5075 C5078 1.499 . S
C5076 H5056 0.950 . S
C5076 C5075 1.414 . S
C5076 C5077 1.374 . S
C5077 H5057 0.950 . S
C5077 C5073 1.385 . S
C5077 C5076 1.374 . S
C5078 C5075 1.499 . S
C5078 C5079 1.373 . S
C5078 C5080 1.389 . S
C5079 H5058 0.950 . S
C5079 C5078 1.373 . S
C5079 C5095 1.377 . S
C5080 C5078 1.389 . S
C5080 C5081 1.524 . S
C5080 C5094 1.377 . S
C5081 C5080 1.524 . S
C5081 C5082 1.397 . S
C5081 C5086 1.363 . S
C5082 H5059 0.950 . S
C5082 C5081 1.397 . S
C5082 C5083 1.334 . S
C5083 H5060 0.950 . S
C5083 C5082 1.334 . S
C5083 C5084 1.287 . S
C5084 C5083 1.287 . S
C5084 C5085 1.524 . S
C5084 H5103 0.913 . S
C5085 H5061 0.950 . S
C5085 C5084 1.524 . S
C5085 C5086 1.415 . S
C5086 H5062 0.950 . S
C5086 C5081 1.363 . S
C5086 C5085 1.415 . S
C5087 H5063 0.951 . S
C5087 C5088 1.366 1_455 S
C5087 C5089 1.388 . S
C5088 C5087 1.366 1_655 S
C5088 C5092 1.394 . S
C5089 H5064 0.951 . S
C5089 C5087 1.388 . S
C5089 C5090 1.366 . S
C5090 C5089 1.366 . S
C5090 C5091 1.414 1_455 S
C5090 C5093 1.499 . S
C5091 H5065 0.950 . S
C5091 C5090 1.414 1_655 S
C5091 C5092 1.374 . S
C5092 H5066 0.950 . S
C5092 C5088 1.394 . S
C5092 C5091 1.374 . S
C5093 C5090 1.499 . S
C5093 C5094 1.373 . S
C5093 C5095 1.389 . S
C5094 H5067 0.950 . S
C5094 C5080 1.377 . S
C5094 C5093 1.373 . S
C5095 C5079 1.377 . S
C5095 C5093 1.389 . S
C5095 C5096 1.524 1_455 S
C5096 C5095 1.524 1_655 S
C5096 C5097 1.397 . S
C5096 C5101 1.363 . S
C5097 H5068 0.950 . S
C5097 C5096 1.397 . S
C5097 C5098 1.334 . S
C5098 H5069 0.950 . S
C5098 C5097 1.334 . S
C5098 C5099 1.287 . S
C5099 C5098 1.287 . S
C5099 C5100 1.524 . S
C5099 H5102 0.999 . S
C5100 H5070 0.950 . S
C5100 C5099 1.524 . S
C5100 C5101 1.414 . S
C5101 H5071 0.951 1_655 S
C5101 C5096 1.363 . S
C5101 C5100 1.414 . S
H5102 C5099 0.999 . S
H5103 C5084 0.913 . S
H5104 C5122 0.951 . S
H5105 C5124 0.951 . S
H5106 C5126 0.950 . S
H5107 C5127 0.950 . S
H5108 C5129 0.950 . S
H5109 C5132 0.950 . S
H5110 C5133 0.950 . S
H5111 C5135 0.950 . S
H5112 C5136 0.950 . S
H5113 C5137 0.951 . S
H5114 C5139 0.951 . S
H5115 C5141 0.950 . S
H5116 C5142 0.950 . S
H5117 C5144 0.950 . S
H5118 C5147 0.950 . S
H5119 C5148 0.950 . S
H5120 C5150 0.950 . S
H5121 C5151 0.950 . S
C5122 H5104 0.951 . S
C5122 C5123 1.366 . S
C5122 C5124 1.388 . S
C5123 C5122 1.366 . S
C5123 C5127 1.385 . S
C5124 H5105 0.951 . S
C5124 C5122 1.388 . S
C5124 C5125 1.366 . S
C5125 C5124 1.366 . S
C5125 C5126 1.414 . S
C5125 C5128 1.499 . S
C5126 H5106 0.950 . S
C5126 C5125 1.414 . S
C5126 C5127 1.374 . S
C5127 H5107 0.950 . S
C5127 C5123 1.385 . S
C5127 C5126 1.374 . S
C5128 C5125 1.499 . S
C5128 C5129 1.373 . S
C5128 C5130 1.389 . S
C5129 H5108 0.950 . S
C5129 C5128 1.373 . S
C5129 C5145 1.377 . S
C5130 C5128 1.389 . S
C5130 C5131 1.524 . S
C5130 C5144 1.377 . S
C5131 C5130 1.524 . S
C5131 C5132 1.397 . S
C5131 C5136 1.363 . S
C5132 H5109 0.950 . S
C5132 C5131 1.397 . S
C5132 C5133 1.334 . S
C5133 H5110 0.950 . S
C5133 C5132 1.334 . S
C5133 C5134 1.287 . S
C5134 C5133 1.287 . S
C5134 C5135 1.524 . S
C5134 H5153 0.913 . S
C5135 H5111 0.950 . S
C5135 C5134 1.524 . S
C5135 C5136 1.415 . S
C5136 H5112 0.950 . S
C5136 C5131 1.363 . S
C5136 C5135 1.415 . S
C5137 H5113 0.951 . S
C5137 C5138 1.366 . S
C5137 C5139 1.388 . S
C5138 C5137 1.366 . S
C5138 C5142 1.385 . S
C5139 H5114 0.951 . S
C5139 C5137 1.388 . S
C5139 C5140 1.366 . S
C5140 C5139 1.366 . S
C5140 C5141 1.414 . S
C5140 C5143 1.499 . S
C5141 H5115 0.950 . S
C5141 C5140 1.414 . S
C5141 C5142 1.374 . S
C5142 H5116 0.950 . S
C5142 C5138 1.385 . S
C5142 C5141 1.374 . S
C5143 C5140 1.499 . S
C5143 C5144 1.373 . S
C5143 C5145 1.389 . S
C5144 H5117 0.950 . S
C5144 C5130 1.377 . S
C5144 C5143 1.373 . S
C5145 C5129 1.377 . S
C5145 C5143 1.389 . S
C5145 C5146 1.524 . S
C5146 C5145 1.524 . S
C5146 C5147 1.397 . S
C5146 C5151 1.363 . S
C5147 H5118 0.950 . S
C5147 C5146 1.397 . S
C5147 C5148 1.334 . S
C5148 H5119 0.950 . S
C5148 C5147 1.334 . S
C5148 C5149 1.287 . S
C5149 C5148 1.287 . S
C5149 C5150 1.524 . S
C5149 H5152 0.999 . S
C5150 H5120 0.950 . S
C5150 C5149 1.524 . S
C5150 C5151 1.415 . S
C5151 H5121 0.950 . S
C5151 C5146 1.363 . S
C5151 C5150 1.415 . S
H5152 C5149 0.999 . S
H5153 C5134 0.913 . S
H5154 C5172 0.951 . S
H5155 C5174 0.951 . S
H5156 C5176 0.950 . S
H5157 C5177 0.950 . S
H5158 C5179 0.950 . S
H5159 C5182 0.950 . S
H5160 C5183 0.950 . S
H5161 C5185 0.950 . S
H5162 C5186 0.950 . S
H5163 C5187 0.951 . S
H5164 C5189 0.951 . S
H5165 C5191 0.950 . S
H5166 C5192 0.950 . S
H5167 C5194 0.950 . S
H5168 C5197 0.950 . S
H5169 C5198 0.950 . S
H5170 C5200 0.950 . S
H5171 C5201 0.950 . S
C5172 H5154 0.951 . S
C5172 C5173 1.366 . S
C5172 C5174 1.388 . S
C5173 C5172 1.366 . S
C5173 C5177 1.385 . S
C5174 H5155 0.951 . S
C5174 C5172 1.388 . S
C5174 C5175 1.366 . S
C5175 C5174 1.366 . S
C5175 C5176 1.414 . S
C5175 C5178 1.499 . S
C5176 H5156 0.950 . S
C5176 C5175 1.414 . S
C5176 C5177 1.374 . S
C5177 H5157 0.950 . S
C5177 C5173 1.385 . S
C5177 C5176 1.374 . S
C5178 C5175 1.499 . S
C5178 C5179 1.373 . S
C5178 C5180 1.389 . S
C5179 H5158 0.950 . S
C5179 C5178 1.373 . S
C5179 C5195 1.377 . S
C5180 C5178 1.389 . S
C5180 C5181 1.524 . S
C5180 C5194 1.377 . S
C5181 C5180 1.524 . S
C5181 C5182 1.397 . S
C5181 C5186 1.363 . S
C5182 H5159 0.950 . S
C5182 C5181 1.397 . S
C5182 C5183 1.334 . S
C5183 H5160 0.950 . S
C5183 C5182 1.334 . S
C5183 C5184 1.287 . S
C5184 C5183 1.287 . S
C5184 C5185 1.524 . S
C5184 H5203 0.913 . S
C5185 H5161 0.950 . S
C5185 C5184 1.524 . S
C5185 C5186 1.415 . S
C5186 H5162 0.950 . S
C5186 C5181 1.363 . S
C5186 C5185 1.415 . S
C5187 H5163 0.951 . S
C5187 C5188 1.366 . S
C5187 C5189 1.388 . S
C5188 C5187 1.366 . S
C5188 C5192 1.385 . S
C5189 H5164 0.951 . S
C5189 C5187 1.388 . S
C5189 C5190 1.366 . S
C5190 C5189 1.366 . S
C5190 C5191 1.414 . S
C5190 C5193 1.499 . S
C5191 H5165 0.950 . S
C5191 C5190 1.414 . S
C5191 C5192 1.374 . S
C5192 H5166 0.950 . S
C5192 C5188 1.385 . S
C5192 C5191 1.374 . S
C5193 C5190 1.499 . S
C5193 C5194 1.373 . S
C5193 C5195 1.389 . S
C5194 H5167 0.950 . S
C5194 C5180 1.377 . S
C5194 C5193 1.373 . S
C5195 C5179 1.377 . S
C5195 C5193 1.389 . S
C5195 C5196 1.524 . S
C5196 C5195 1.524 . S
C5196 C5197 1.397 . S
C5196 C5201 1.363 . S
C5197 H5168 0.950 . S
C5197 C5196 1.397 . S
C5197 C5198 1.334 . S
C5198 H5169 0.950 . S
C5198 C5197 1.334 . S
C5198 C5199 1.287 . S
C5199 C5198 1.287 . S
C5199 C5200 1.524 . S
C5199 H5202 0.999 . S
C5200 H5170 0.950 . S
C5200 C5199 1.524 . S
C5200 C5201 1.415 . S
C5201 H5171 0.950 . S
C5201 C5196 1.363 . S
C5201 C5200 1.415 . S
H5202 C5199 0.999 . S
H5203 C5184 0.913 . S
H5204 C5222 0.951 . S
H5205 C5224 0.951 . S
H5206 C5226 0.950 . S
H5207 C5227 0.950 . S
H5208 C5229 0.950 . S
H5209 C5232 0.950 . S
H5210 C5233 0.950 . S
H5211 C5235 0.950 . S
H5212 C5236 0.950 . S
H5213 C5237 0.951 . S
H5214 C5239 0.951 . S
H5215 C5241 0.950 . S
H5216 C5242 0.950 . S
H5217 C5244 0.950 . S
H5218 C5247 0.950 . S
H5219 C5248 0.950 . S
H5220 C5250 0.950 . S
H5221 C5251 0.950 . S
C5222 H5204 0.951 . S
C5222 C5223 1.366 . S
C5222 C5224 1.388 . S
C5223 C5222 1.366 . S
C5223 C5227 1.385 . S
C5224 H5205 0.951 . S
C5224 C5222 1.388 . S
C5224 C5225 1.366 . S
C5225 C5224 1.366 . S
C5225 C5226 1.414 . S
C5225 C5228 1.499 . S
C5226 H5206 0.950 . S
C5226 C5225 1.414 . S
C5226 C5227 1.374 . S
C5227 H5207 0.950 . S
C5227 C5223 1.385 . S
C5227 C5226 1.374 . S
C5228 C5225 1.499 . S
C5228 C5229 1.373 . S
C5228 C5230 1.389 . S
C5229 H5208 0.950 . S
C5229 C5228 1.373 . S
C5229 C5245 1.377 . S
C5230 C5228 1.389 . S
C5230 C5231 1.524 . S
C5230 C5244 1.377 . S
C5231 C5230 1.524 . S
C5231 C5232 1.397 . S
C5231 C5236 1.363 . S
C5232 H5209 0.950 . S
C5232 C5231 1.397 . S
C5232 C5233 1.334 . S
C5233 H5210 0.950 . S
C5233 C5232 1.334 . S
C5233 C5234 1.287 . S
C5234 C5233 1.287 . S
C5234 C5235 1.524 . S
C5234 H5253 0.913 . S
C5235 H5211 0.950 . S
C5235 C5234 1.524 . S
C5235 C5236 1.415 . S
C5236 H5212 0.950 . S
C5236 C5231 1.363 . S
C5236 C5235 1.415 . S
C5237 H5213 0.951 . S
C5237 C5238 1.366 . S
C5237 C5239 1.388 . S
C5238 C5237 1.366 . S
C5238 C5242 1.385 . S
C5239 H5214 0.951 . S
C5239 C5237 1.388 . S
C5239 C5240 1.366 . S
C5240 C5239 1.366 . S
C5240 C5241 1.414 . S
C5240 C5243 1.499 . S
C5241 H5215 0.950 . S
C5241 C5240 1.414 . S
C5241 C5242 1.374 . S
C5242 H5216 0.950 . S
C5242 C5238 1.385 . S
C5242 C5241 1.374 . S
C5243 C5240 1.499 . S
C5243 C5244 1.373 . S
C5243 C5245 1.389 . S
C5244 H5217 0.950 . S
C5244 C5230 1.377 . S
C5244 C5243 1.373 . S
C5245 C5229 1.377 . S
C5245 C5243 1.389 . S
C5245 C5246 1.524 . S
C5246 C5245 1.524 . S
C5246 C5247 1.397 . S
C5246 C5251 1.363 . S
C5247 H5218 0.950 . S
C5247 C5246 1.397 . S
C5247 C5248 1.334 . S
C5248 H5219 0.950 . S
C5248 C5247 1.334 . S
C5248 C5249 1.287 . S
C5249 C5248 1.287 . S
C5249 C5250 1.524 . S
C5249 H5252 0.999 . S
C5250 H5220 0.950 . S
C5250 C5249 1.524 . S
C5250 C5251 1.415 . S
C5251 H5221 0.950 . S
C5251 C5246 1.363 . S
C5251 C5250 1.415 . S
H5252 C5249 0.999 . S
H5253 C5234 0.913 . S
H5254 C5272 0.951 . S
H5255 C5274 0.951 . S
H5256 C5276 0.950 . S
H5257 C5277 0.950 . S
H5258 C5279 0.950 . S
H5259 C5282 0.950 . S
H5260 C5283 0.950 . S
H5261 C5285 0.950 . S
H5262 C5286 0.950 . S
H5263 C5287 0.951 . S
H5264 C5289 0.951 . S
H5265 C5291 0.950 . S
H5266 C5292 0.950 . S
H5267 C5294 0.950 . S
H5268 C5297 0.950 . S
H5269 C5298 0.950 . S
H5270 C5300 0.950 . S
H5271 C5301 0.950 . S
C5272 H5254 0.951 . S
C5272 C5273 1.366 . S
C5272 C5274 1.388 . S
C5273 C5272 1.366 . S
C5273 C5277 1.385 . S
C5274 H5255 0.951 . S
C5274 C5272 1.388 . S
C5274 C5275 1.366 . S
C5275 C5274 1.366 . S
C5275 C5276 1.414 . S
C5275 C5278 1.499 . S
C5276 H5256 0.950 . S
C5276 C5275 1.414 . S
C5276 C5277 1.374 . S
C5277 H5257 0.950 . S
C5277 C5273 1.385 . S
C5277 C5276 1.374 . S
C5278 C5275 1.499 . S
C5278 C5279 1.373 . S
C5278 C5280 1.389 . S
C5279 H5258 0.950 . S
C5279 C5278 1.373 . S
C5279 C5295 1.377 . S
C5280 C5278 1.389 . S
C5280 C5281 1.524 . S
C5280 C5294 1.377 . S
C5281 C5280 1.524 . S
C5281 C5282 1.397 . S
C5281 C5286 1.363 . S
C5282 H5259 0.950 . S
C5282 C5281 1.397 . S
C5282 C5283 1.334 . S
C5283 H5260 0.950 . S
C5283 C5282 1.334 . S
C5283 C5284 1.287 . S
C5284 C5283 1.287 . S
C5284 C5285 1.524 . S
C5284 H5303 0.913 . S
C5285 H5261 0.950 . S
C5285 C5284 1.524 . S
C5285 C5286 1.415 . S
C5286 H5262 0.950 . S
C5286 C5281 1.363 . S
C5286 C5285 1.415 . S
C5287 H5263 0.951 . S
C5287 C5288 1.366 . S
C5287 C5289 1.388 . S
C5288 C5287 1.366 . S
C5288 C5292 1.385 . S
C5289 H5264 0.951 . S
C5289 C5287 1.388 . S
C5289 C5290 1.366 . S
C5290 C5289 1.366 . S
C5290 C5291 1.414 . S
C5290 C5293 1.499 . S
C5291 H5265 0.950 . S
C5291 C5290 1.414 . S
C5291 C5292 1.374 . S
C5292 H5266 0.950 . S
C5292 C5288 1.385 . S
C5292 C5291 1.374 . S
C5293 C5290 1.499 . S
C5293 C5294 1.373 . S
C5293 C5295 1.389 . S
C5294 H5267 0.950 . S
C5294 C5280 1.377 . S
C5294 C5293 1.373 . S
C5295 C5279 1.377 . S
C5295 C5293 1.389 . S
C5295 C5296 1.524 . S
C5296 C5295 1.524 . S
C5296 C5297 1.397 . S
C5296 C5301 1.363 . S
C5297 H5268 0.950 . S
C5297 C5296 1.397 . S
C5297 C5298 1.334 . S
C5298 H5269 0.950 . S
C5298 C5297 1.334 . S
C5298 C5299 1.287 . S
C5299 C5298 1.287 . S
C5299 C5300 1.524 . S
C5299 H5302 0.999 . S
C5300 H5270 0.950 . S
C5300 C5299 1.524 . S
C5300 C5301 1.415 . S
C5301 H5271 0.950 . S
C5301 C5296 1.363 . S
C5301 C5300 1.415 . S
H5302 C5299 0.999 . S
H5303 C5284 0.913 . S
H5304 C5322 0.951 . S
H5305 C5324 0.951 . S
H5306 C5326 0.950 . S
H5307 C5327 0.950 . S
H5308 C5329 0.950 1_565 S
H5309 C5332 0.950 . S
H5310 C5333 0.950 . S
H5311 C5335 0.950 . S
H5312 C5336 0.950 . S
H5313 C5337 0.951 . S
H5314 C5339 0.958 . S
H5315 C5341 0.950 . S
H5316 C5342 0.950 . S
H5317 C5344 0.950 . S
H5318 C5347 0.950 . S
H5319 C5348 0.950 . S
H5320 C5350 0.950 . S
H5321 C5351 0.950 . S
C5322 H5304 0.951 . S
C5322 C5323 1.366 . S
C5322 C5324 1.388 . S
C5323 C5322 1.366 . S
C5323 C5327 1.385 . S
C5324 H5305 0.951 . S
C5324 C5322 1.388 . S
C5324 C5325 1.366 . S
C5325 C5324 1.366 . S
C5325 C5326 1.414 . S
C5325 C5328 1.499 . S
C5326 H5306 0.950 . S
C5326 C5325 1.414 . S
C5326 C5327 1.374 . S
C5327 H5307 0.950 . S
C5327 C5323 1.385 . S
C5327 C5326 1.374 . S
C5328 C5325 1.499 . S
C5328 C5329 1.373 . S
C5328 C5330 1.389 . S
C5329 H5308 0.950 1_545 S
C5329 C5328 1.373 . S
C5329 C5345 1.343 1_545 S
C5330 C5328 1.389 . S
C5330 C5331 1.524 . S
C5330 C5344 1.377 . S
C5331 C5330 1.524 . S
C5331 C5332 1.397 . S
C5331 C5336 1.363 . S
C5332 H5309 0.950 . S
C5332 C5331 1.397 . S
C5332 C5333 1.334 . S
C5333 H5310 0.950 . S
C5333 C5332 1.334 . S
C5333 C5334 1.287 . S
C5334 C5333 1.287 . S
C5334 C5335 1.524 . S
C5334 H5353 0.913 . S
C5335 H5311 0.950 . S
C5335 C5334 1.524 . S
C5335 C5336 1.415 . S
C5336 H5312 0.950 . S
C5336 C5331 1.363 . S
C5336 C5335 1.415 . S
C5337 H5313 0.951 . S
C5337 C5338 1.366 1_565 S
C5337 C5339 1.396 . S
C5338 C5337 1.366 1_545 S
C5338 C5342 1.385 . S
C5339 H5314 0.958 . S
C5339 C5337 1.396 . S
C5339 C5340 1.351 1_565 S
C5340 C5339 1.351 1_545 S
C5340 C5341 1.414 . S
C5340 C5343 1.499 . S
C5341 H5315 0.950 . S
C5341 C5340 1.414 . S
C5341 C5342 1.374 . S
C5342 H5316 0.950 . S
C5342 C5338 1.385 . S
C5342 C5341 1.374 . S
C5343 C5340 1.499 . S
C5343 C5344 1.373 . S
C5343 C5345 1.362 1_545 S
C5344 H5317 0.950 . S
C5344 C5330 1.377 . S
C5344 C5343 1.373 . S
C5345 C5329 1.343 1_565 S
C5345 C5343 1.362 1_565 S
C5345 C5346 1.588 . S
C5346 C5345 1.588 . S
C5346 C5347 1.397 . S
C5346 C5351 1.363 . S
C5347 H5318 0.950 . S
C5347 C5346 1.397 . S
C5347 C5348 1.334 . S
C5348 H5319 0.950 . S
C5348 C5347 1.334 . S
C5348 C5349 1.287 . S
C5349 C5348 1.287 . S
C5349 C5350 1.524 . S
C5349 H5352 0.999 . S
C5350 H5320 0.950 . S
C5350 C5349 1.524 . S
C5350 C5351 1.415 . S
C5351 H5321 0.950 . S
C5351 C5346 1.363 . S
C5351 C5350 1.415 . S
H5352 C5349 0.999 . S
H5353 C5334 0.913 . S
H5354 C5372 0.951 . S
H5355 C5374 0.951 . S
H5356 C5376 0.997 . S
H5357 C5377 0.927 1_455 S
H5358 C5379 0.950 . S
H5359 C5382 0.950 1_455 S
H5360 C5383 1.016 . S
H5361 C5385 0.950 . S
H5362 C5386 0.950 . S
H5363 C5387 0.951 . S
H5364 C5389 0.951 . S
H5365 C5391 0.950 . S
H5366 C5392 0.950 . S
H5367 C5394 0.950 . S
H5368 C5397 0.950 . S
H5369 C5398 0.950 . S
H5370 C5400 0.950 . S
H5371 C5401 0.950 . S
C5372 H5354 0.951 . S
C5372 C5373 1.366 . S
C5372 C5374 1.388 . S
C5373 C5372 1.366 . S
C5373 C5377 1.399 . S
C5374 H5355 0.951 . S
C5374 C5372 1.388 . S
C5374 C5375 1.366 . S
C5375 C5374 1.366 . S
C5375 C5376 1.343 1_655 S
C5375 C5378 1.499 . S
C5376 H5356 0.997 . S
C5376 C5375 1.343 1_455 S
C5376 C5377 1.411 1_455 S
C5377 H5357 0.927 1_655 S
C5377 C5373 1.399 . S
C5377 C5376 1.411 1_655 S
C5378 C5375 1.499 . S
C5378 C5379 1.373 . S
C5378 C5380 1.389 . S
C5379 H5358 0.950 . S
C5379 C5378 1.373 . S
C5379 C5395 1.377 . S
C5380 C5378 1.389 . S
C5380 C5381 1.524 . S
C5380 C5394 1.377 . S
C5381 C5380 1.524 . S
C5381 C5382 1.397 . S
C5381 C5386 1.363 . S
C5382 H5359 0.950 1_655 S
C5382 C5381 1.397 . S
C5382 C5383 1.334 . S
C5383 H5360 1.016 . S
C5383 C5382 1.334 . S
C5383 C5384 1.287 . S
C5384 C5383 1.287 . S
C5384 C5385 1.524 . S
C5384 H5403 0.913 . S
C5385 H5361 0.950 . S
C5385 C5384 1.524 . S
C5385 C5386 1.415 . S
C5386 H5362 0.950 . S
C5386 C5381 1.363 . S
C5386 C5385 1.415 . S
C5387 H5363 0.951 . S
C5387 C5388 1.366 1_455 S
C5387 C5389 1.388 . S
C5388 C5387 1.366 1_655 S
C5388 C5392 1.385 . S
C5389 H5364 0.951 . S
C5389 C5387 1.388 . S
C5389 C5390 1.366 1_455 S
C5390 C5389 1.366 1_655 S
C5390 C5391 1.414 . S
C5390 C5393 1.499 . S
C5391 H5365 0.950 . S
C5391 C5390 1.414 . S
C5391 C5392 1.374 . S
C5392 H5366 0.950 . S
C5392 C5388 1.385 . S
C5392 C5391 1.374 . S
C5393 C5390 1.499 . S
C5393 C5394 1.373 . S
C5393 C5395 1.389 . S
C5394 H5367 0.950 . S
C5394 C5380 1.377 . S
C5394 C5393 1.373 . S
C5395 C5379 1.377 . S
C5395 C5393 1.389 . S
C5395 C5396 1.524 . S
C5396 C5395 1.524 . S
C5396 C5397 1.397 . S
C5396 C5401 1.363 1_655 S
C5397 H5368 0.950 . S
C5397 C5396 1.397 . S
C5397 C5398 1.334 . S
C5398 H5369 0.950 . S
C5398 C5397 1.334 . S
C5398 C5399 1.254 1_655 S
C5399 C5398 1.254 1_455 S
C5399 C5400 1.552 . S
C5399 H5402 1.008 . S
C5400 H5370 0.950 . S
C5400 C5399 1.552 . S
C5400 C5401 1.415 . S
C5401 H5371 0.950 . S
C5401 C5396 1.363 1_455 S
C5401 C5400 1.415 . S
H5402 C5399 1.008 . S
H5403 C5384 0.913 . S
H5404 C5422 0.951 . S
H5405 C5424 0.951 . S
H5406 C5426 0.950 . S
H5407 C5427 0.950 . S
H5408 C5429 0.950 . S
H5409 C5432 0.950 . S
H5410 C5433 0.950 . S
H5411 C5435 0.950 . S
H5412 C5436 0.950 . S
H5413 C5437 0.951 . S
H5414 C5439 0.951 . S
H5415 C5441 0.950 . S
H5416 C5442 0.950 . S
H5417 C5444 0.950 . S
H5418 C5447 0.950 . S
H5419 C5448 0.950 . S
H5420 C5450 0.950 . S
H5421 C5451 0.950 . S
C5422 H5404 0.951 . S
C5422 C5423 1.366 . S
C5422 C5424 1.388 . S
C5423 C5422 1.366 . S
C5423 C5427 1.385 . S
C5424 H5405 0.951 . S
C5424 C5422 1.388 . S
C5424 C5425 1.366 . S
C5425 C5424 1.366 . S
C5425 C5426 1.414 . S
C5425 C5428 1.499 . S
C5426 H5406 0.950 . S
C5426 C5425 1.414 . S
C5426 C5427 1.374 . S
C5427 H5407 0.950 . S
C5427 C5423 1.385 . S
C5427 C5426 1.374 . S
C5428 C5425 1.499 . S
C5428 C5429 1.373 . S
C5428 C5430 1.389 . S
C5429 H5408 0.950 . S
C5429 C5428 1.373 . S
C5429 C5445 1.377 . S
C5430 C5428 1.389 . S
C5430 C5431 1.524 . S
C5430 C5444 1.377 . S
C5431 C5430 1.524 . S
C5431 C5432 1.397 . S
C5431 C5436 1.363 . S
C5432 H5409 0.950 . S
C5432 C5431 1.397 . S
C5432 C5433 1.334 . S
C5433 H5410 0.950 . S
C5433 C5432 1.334 . S
C5433 C5434 1.287 . S
C5434 C5433 1.287 . S
C5434 C5435 1.524 . S
C5434 H5453 0.913 . S
C5435 H5411 0.950 . S
C5435 C5434 1.524 . S
C5435 C5436 1.415 . S
C5436 H5412 0.950 . S
C5436 C5431 1.363 . S
C5436 C5435 1.415 . S
C5437 H5413 0.951 . S
C5437 C5438 1.366 . S
C5437 C5439 1.388 . S
C5438 C5437 1.366 . S
C5438 C5442 1.385 . S
C5439 H5414 0.951 . S
C5439 C5437 1.388 . S
C5439 C5440 1.366 . S
C5440 C5439 1.366 . S
C5440 C5441 1.414 . S
C5440 C5443 1.499 . S
C5441 H5415 0.950 . S
C5441 C5440 1.414 . S
C5441 C5442 1.374 . S
C5442 H5416 0.950 . S
C5442 C5438 1.385 . S
C5442 C5441 1.374 . S
C5443 C5440 1.499 . S
C5443 C5444 1.373 . S
C5443 C5445 1.389 . S
C5444 H5417 0.950 . S
C5444 C5430 1.377 . S
C5444 C5443 1.373 . S
C5445 C5429 1.377 . S
C5445 C5443 1.389 . S
C5445 C5446 1.524 . S
C5446 C5445 1.524 . S
C5446 C5447 1.397 . S
C5446 C5451 1.363 . S
C5447 H5418 0.950 . S
C5447 C5446 1.397 . S
C5447 C5448 1.334 . S
C5448 H5419 0.950 . S
C5448 C5447 1.334 . S
C5448 C5449 1.287 . S
C5449 C5448 1.287 . S
C5449 C5450 1.524 . S
C5449 H5452 0.999 . S
C5450 H5420 0.950 . S
C5450 C5449 1.524 . S
C5450 C5451 1.415 . S
C5451 H5421 0.950 . S
C5451 C5446 1.363 . S
C5451 C5450 1.415 . S
H5452 C5449 0.999 . S
H5453 C5434 0.913 . S
H5454 C5472 0.951 . S
H5455 C5474 0.951 . S
H5456 C5476 0.950 . S
H5457 C5477 0.950 . S
H5458 C5479 0.950 . S
H5459 C5482 0.950 . S
H5460 C5483 0.950 . S
H5461 C5485 0.950 . S
H5462 C5486 0.950 . S
H5463 C5487 0.951 . S
H5464 C5489 0.951 . S
H5465 C5491 0.950 . S
H5466 C5492 0.950 . S
H5467 C5494 0.950 . S
H5468 C5497 0.950 . S
H5469 C5498 0.950 . S
H5470 C5500 0.950 . S
H5471 C5501 0.950 . S
C5472 H5454 0.951 . S
C5472 C5473 1.366 . S
C5472 C5474 1.388 . S
C5473 C5472 1.366 . S
C5473 C5477 1.385 . S
C5474 H5455 0.951 . S
C5474 C5472 1.388 . S
C5474 C5475 1.366 . S
C5475 C5474 1.366 . S
C5475 C5476 1.414 . S
C5475 C5478 1.499 . S
C5476 H5456 0.950 . S
C5476 C5475 1.414 . S
C5476 C5477 1.374 . S
C5477 H5457 0.950 . S
C5477 C5473 1.385 . S
C5477 C5476 1.374 . S
C5478 C5475 1.499 . S
C5478 C5479 1.373 . S
C5478 C5480 1.389 . S
C5479 H5458 0.950 . S
C5479 C5478 1.373 . S
C5479 C5495 1.377 . S
C5480 C5478 1.389 . S
C5480 C5481 1.524 . S
C5480 C5494 1.377 . S
C5481 C5480 1.524 . S
C5481 C5482 1.397 . S
C5481 C5486 1.363 . S
C5482 H5459 0.950 . S
C5482 C5481 1.397 . S
C5482 C5483 1.334 . S
C5483 H5460 0.950 . S
C5483 C5482 1.334 . S
C5483 C5484 1.287 . S
C5484 C5483 1.287 . S
C5484 C5485 1.524 . S
C5484 H5503 0.913 . S
C5485 H5461 0.950 . S
C5485 C5484 1.524 . S
C5485 C5486 1.415 . S
C5486 H5462 0.950 . S
C5486 C5481 1.363 . S
C5486 C5485 1.415 . S
C5487 H5463 0.951 . S
C5487 C5488 1.366 . S
C5487 C5489 1.388 . S
C5488 C5487 1.366 . S
C5488 C5492 1.385 . S
C5489 H5464 0.951 . S
C5489 C5487 1.388 . S
C5489 C5490 1.366 . S
C5490 C5489 1.366 . S
C5490 C5491 1.414 . S
C5490 C5493 1.499 . S
C5491 H5465 0.950 . S
C5491 C5490 1.414 . S
C5491 C5492 1.374 . S
C5492 H5466 0.950 . S
C5492 C5488 1.385 . S
C5492 C5491 1.374 . S
C5493 C5490 1.499 . S
C5493 C5494 1.373 . S
C5493 C5495 1.389 . S
C5494 H5467 0.950 . S
C5494 C5480 1.377 . S
C5494 C5493 1.373 . S
C5495 C5479 1.377 . S
C5495 C5493 1.389 . S
C5495 C5496 1.524 . S
C5496 C5495 1.524 . S
C5496 C5497 1.397 . S
C5496 C5501 1.363 . S
C5497 H5468 0.950 . S
C5497 C5496 1.397 . S
C5497 C5498 1.334 . S
C5498 H5469 0.950 . S
C5498 C5497 1.334 . S
C5498 C5499 1.287 . S
C5499 C5498 1.287 . S
C5499 C5500 1.524 . S
C5499 H5502 0.999 . S
C5500 H5470 0.950 . S
C5500 C5499 1.524 . S
C5500 C5501 1.415 . S
C5501 H5471 0.950 . S
C5501 C5496 1.363 . S
C5501 C5500 1.415 . S
H5502 C5499 0.999 . S
H5503 C5484 0.913 . S
H5504 C5522 0.951 . S
H5505 C5524 0.951 . S
H5506 C5526 0.950 . S
H5507 C5527 0.950 . S
H5508 C5529 0.950 . S
H5509 C5532 0.950 . S
H5510 C5533 0.950 . S
H5511 C5535 0.950 . S
H5512 C5536 0.950 . S
H5513 C5537 0.951 . S
H5514 C5539 0.951 . S
H5515 C5541 0.950 . S
H5516 C5542 0.950 . S
H5517 C5544 0.950 . S
H5518 C5547 0.950 . S
H5519 C5548 0.950 . S
H5520 C5550 0.950 . S
H5521 C5551 0.950 . S
C5522 H5504 0.951 . S
C5522 C5523 1.366 . S
C5522 C5524 1.388 . S
C5523 C5522 1.366 . S
C5523 C5527 1.385 . S
C5524 H5505 0.951 . S
C5524 C5522 1.388 . S
C5524 C5525 1.366 . S
C5525 C5524 1.366 . S
C5525 C5526 1.414 . S
C5525 C5528 1.499 . S
C5526 H5506 0.950 . S
C5526 C5525 1.414 . S
C5526 C5527 1.374 . S
C5527 H5507 0.950 . S
C5527 C5523 1.385 . S
C5527 C5526 1.374 . S
C5528 C5525 1.499 . S
C5528 C5529 1.373 . S
C5528 C5530 1.389 . S
C5529 H5508 0.950 . S
C5529 C5528 1.373 . S
C5529 C5545 1.377 . S
C5530 C5528 1.389 . S
C5530 C5531 1.524 . S
C5530 C5544 1.377 . S
C5531 C5530 1.524 . S
C5531 C5532 1.397 . S
C5531 C5536 1.363 . S
C5532 H5509 0.950 . S
C5532 C5531 1.397 . S
C5532 C5533 1.334 . S
C5533 H5510 0.950 . S
C5533 C5532 1.334 . S
C5533 C5534 1.287 . S
C5534 C5533 1.287 . S
C5534 C5535 1.524 . S
C5534 H5553 0.913 . S
C5535 H5511 0.950 . S
C5535 C5534 1.524 . S
C5535 C5536 1.415 . S
C5536 H5512 0.950 . S
C5536 C5531 1.363 . S
C5536 C5535 1.415 . S
C5537 H5513 0.951 . S
C5537 C5538 1.366 . S
C5537 C5539 1.388 . S
C5538 C5537 1.366 . S
C5538 C5542 1.385 . S
C5539 H5514 0.951 . S
C5539 C5537 1.388 . S
C5539 C5540 1.366 . S
C5540 C5539 1.366 . S
C5540 C5541 1.414 . S
C5540 C5543 1.499 . S
C5541 H5515 0.950 . S
C5541 C5540 1.414 . S
C5541 C5542 1.374 . S
C5542 H5516 0.950 . S
C5542 C5538 1.385 . S
C5542 C5541 1.374 . S
C5543 C5540 1.499 . S
C5543 C5544 1.373 . S
C5543 C5545 1.389 . S
C5544 H5517 0.950 . S
C5544 C5530 1.377 . S
C5544 C5543 1.373 . S
C5545 C5529 1.377 . S
C5545 C5543 1.389 . S
C5545 C5546 1.524 . S
C5546 C5545 1.524 . S
C5546 C5547 1.397 . S
C5546 C5551 1.363 . S
C5547 H5518 0.950 . S
C5547 C5546 1.397 . S
C5547 C5548 1.334 . S
C5548 H5519 0.950 . S
C5548 C5547 1.334 . S
C5548 C5549 1.287 . S
C5549 C5548 1.287 . S
C5549 C5550 1.524 . S
C5549 H5552 0.999 . S
C5550 H5520 0.950 . S
C5550 C5549 1.524 . S
C5550 C5551 1.415 . S
C5551 H5521 0.950 . S
C5551 C5546 1.363 . S
C5551 C5550 1.415 . S
H5552 C5549 0.999 . S
H5553 C5534 0.913 . S
H5554 C5572 0.951 . S
H5555 C5574 0.951 . S
H5556 C5576 0.950 . S
H5557 C5577 0.950 . S
H5558 C5579 0.950 . S
H5559 C5582 0.950 . S
H5560 C5583 0.950 . S
H5561 C5585 0.950 . S
H5562 C5586 0.950 . S
H5563 C5587 0.951 . S
H5564 C5589 0.951 . S
H5565 C5591 0.950 . S
H5566 C5592 0.950 . S
H5567 C5594 0.950 . S
H5568 C5597 0.950 . S
H5569 C5598 0.950 . S
H5570 C5600 0.950 . S
H5571 C5601 0.950 . S
C5572 H5554 0.951 . S
C5572 C5573 1.366 . S
C5572 C5574 1.388 . S
C5573 C5572 1.366 . S
C5573 C5577 1.385 . S
C5574 H5555 0.951 . S
C5574 C5572 1.388 . S
C5574 C5575 1.366 . S
C5575 C5574 1.366 . S
C5575 C5576 1.414 . S
C5575 C5578 1.499 . S
C5576 H5556 0.950 . S
C5576 C5575 1.414 . S
C5576 C5577 1.374 . S
C5577 H5557 0.950 . S
C5577 C5573 1.385 . S
C5577 C5576 1.374 . S
C5578 C5575 1.499 . S
C5578 C5579 1.373 . S
C5578 C5580 1.389 . S
C5579 H5558 0.950 . S
C5579 C5578 1.373 . S
C5579 C5595 1.377 . S
C5580 C5578 1.389 . S
C5580 C5581 1.524 . S
C5580 C5594 1.377 . S
C5581 C5580 1.524 . S
C5581 C5582 1.397 . S
C5581 C5586 1.363 . S
C5582 H5559 0.950 . S
C5582 C5581 1.397 . S
C5582 C5583 1.334 . S
C5583 H5560 0.950 . S
C5583 C5582 1.334 . S
C5583 C5584 1.287 . S
C5584 C5583 1.287 . S
C5584 C5585 1.524 . S
C5584 H5603 0.913 . S
C5585 H5561 0.950 . S
C5585 C5584 1.524 . S
C5585 C5586 1.415 . S
C5586 H5562 0.950 . S
C5586 C5581 1.363 . S
C5586 C5585 1.415 . S
C5587 H5563 0.951 . S
C5587 C5588 1.366 . S
C5587 C5589 1.388 . S
C5588 C5587 1.366 . S
C5588 C5592 1.385 . S
C5589 H5564 0.951 . S
C5589 C5587 1.388 . S
C5589 C5590 1.366 . S
C5590 C5589 1.366 . S
C5590 C5591 1.414 . S
C5590 C5593 1.499 . S
C5591 H5565 0.950 . S
C5591 C5590 1.414 . S
C5591 C5592 1.374 . S
C5592 H5566 0.950 . S
C5592 C5588 1.385 . S
C5592 C5591 1.374 . S
C5593 C5590 1.499 . S
C5593 C5594 1.373 . S
C5593 C5595 1.389 . S
C5594 H5567 0.950 . S
C5594 C5580 1.377 . S
C5594 C5593 1.373 . S
C5595 C5579 1.377 . S
C5595 C5593 1.389 . S
C5595 C5596 1.524 . S
C5596 C5595 1.524 . S
C5596 C5597 1.397 . S
C5596 C5601 1.363 . S
C5597 H5568 0.950 . S
C5597 C5596 1.397 . S
C5597 C5598 1.334 . S
C5598 H5569 0.950 . S
C5598 C5597 1.334 . S
C5598 C5599 1.287 . S
C5599 C5598 1.287 . S
C5599 C5600 1.524 . S
C5599 H5602 0.999 . S
C5600 H5570 0.950 . S
C5600 C5599 1.524 . S
C5600 C5601 1.415 . S
C5601 H5571 0.950 . S
C5601 C5596 1.363 . S
C5601 C5600 1.415 . S
H5602 C5599 0.999 . S
H5603 C5584 0.913 . S
H5604 C5622 0.951 . S
H5605 C5624 0.951 . S
H5606 C5626 0.950 . S
H5607 C5627 0.950 . S
H5608 C5629 0.950 . S
H5609 C5632 0.950 . S
H5610 C5633 0.950 . S
H5611 C5635 0.950 . S
H5612 C5636 0.950 . S
H5613 C5637 0.951 . S
H5614 C5639 0.951 . S
H5615 C5641 0.950 . S
H5616 C5642 0.950 . S
H5617 C5644 0.950 . S
H5618 C5647 0.950 . S
H5619 C5648 0.950 . S
H5620 C5650 0.950 . S
H5621 C5651 0.950 . S
C5622 H5604 0.951 . S
C5622 C5623 1.366 . S
C5622 C5624 1.388 . S
C5623 C5622 1.366 . S
C5623 C5627 1.385 . S
C5624 H5605 0.951 . S
C5624 C5622 1.388 . S
C5624 C5625 1.366 . S
C5625 C5624 1.366 . S
C5625 C5626 1.414 . S
C5625 C5628 1.499 . S
C5626 H5606 0.950 . S
C5626 C5625 1.414 . S
C5626 C5627 1.374 . S
C5627 H5607 0.950 . S
C5627 C5623 1.385 . S
C5627 C5626 1.374 . S
C5628 C5625 1.499 . S
C5628 C5629 1.373 . S
C5628 C5630 1.389 . S
C5629 H5608 0.950 . S
C5629 C5628 1.373 . S
C5629 C5645 1.377 . S
C5630 C5628 1.389 . S
C5630 C5631 1.524 . S
C5630 C5644 1.377 . S
C5631 C5630 1.524 . S
C5631 C5632 1.397 . S
C5631 C5636 1.363 . S
C5632 H5609 0.950 . S
C5632 C5631 1.397 . S
C5632 C5633 1.334 . S
C5633 H5610 0.950 . S
C5633 C5632 1.334 . S
C5633 C5634 1.287 . S
C5634 C5633 1.287 . S
C5634 C5635 1.524 . S
C5634 H5653 0.913 . S
C5635 H5611 0.950 . S
C5635 C5634 1.524 . S
C5635 C5636 1.415 . S
C5636 H5612 0.950 . S
C5636 C5631 1.363 . S
C5636 C5635 1.415 . S
C5637 H5613 0.951 . S
C5637 C5638 1.366 . S
C5637 C5639 1.388 . S
C5638 C5637 1.366 . S
C5638 C5642 1.385 . S
C5639 H5614 0.951 . S
C5639 C5637 1.388 . S
C5639 C5640 1.366 . S
C5640 C5639 1.366 . S
C5640 C5641 1.414 . S
C5640 C5643 1.499 . S
C5641 H5615 0.950 . S
C5641 C5640 1.414 . S
C5641 C5642 1.374 . S
C5642 H5616 0.950 . S
C5642 C5638 1.385 . S
C5642 C5641 1.374 . S
C5643 C5640 1.499 . S
C5643 C5644 1.373 . S
C5643 C5645 1.389 . S
C5644 H5617 0.950 . S
C5644 C5630 1.377 . S
C5644 C5643 1.373 . S
C5645 C5629 1.377 . S
C5645 C5643 1.389 . S
C5645 C5646 1.524 . S
C5646 C5645 1.524 . S
C5646 C5647 1.397 . S
C5646 C5651 1.363 . S
C5647 H5618 0.950 . S
C5647 C5646 1.397 . S
C5647 C5648 1.334 . S
C5648 H5619 0.950 . S
C5648 C5647 1.334 . S
C5648 C5649 1.287 . S
C5649 C5648 1.287 . S
C5649 C5650 1.524 . S
C5649 H5652 0.999 . S
C5650 H5620 0.950 . S
C5650 C5649 1.524 . S
C5650 C5651 1.415 . S
C5651 H5621 0.950 . S
C5651 C5646 1.363 . S
C5651 C5650 1.415 . S
H5652 C5649 0.999 . S
H5653 C5634 0.913 . S
H5654 C5672 0.951 . S
H5655 C5674 0.951 . S
H5656 C5676 0.950 . S
H5657 C5677 0.950 . S
H5658 C5679 0.950 . S
H5659 C5682 0.950 . S
H5660 C5683 0.950 . S
H5661 C5685 0.950 . S
H5662 C5686 0.950 . S
H5663 C5687 0.951 . S
H5664 C5689 0.951 . S
H5665 C5691 0.950 . S
H5666 C5692 0.950 . S
H5667 C5694 0.950 . S
H5668 C5697 0.950 . S
H5669 C5698 0.950 . S
H5670 C5700 0.950 . S
H5671 C5701 0.950 . S
C5672 H5654 0.951 . S
C5672 C5673 1.366 . S
C5672 C5674 1.388 . S
C5673 C5672 1.366 . S
C5673 C5677 1.385 . S
C5674 H5655 0.951 . S
C5674 C5672 1.388 . S
C5674 C5675 1.366 . S
C5675 C5674 1.366 . S
C5675 C5676 1.414 . S
C5675 C5678 1.499 . S
C5676 H5656 0.950 . S
C5676 C5675 1.414 . S
C5676 C5677 1.374 . S
C5677 H5657 0.950 . S
C5677 C5673 1.385 . S
C5677 C5676 1.374 . S
C5678 C5675 1.499 . S
C5678 C5679 1.373 . S
C5678 C5680 1.389 . S
C5679 H5658 0.950 . S
C5679 C5678 1.373 . S
C5679 C5695 1.377 . S
C5680 C5678 1.389 . S
C5680 C5681 1.524 . S
C5680 C5694 1.377 . S
C5681 C5680 1.524 . S
C5681 C5682 1.397 . S
C5681 C5686 1.363 . S
C5682 H5659 0.950 . S
C5682 C5681 1.397 . S
C5682 C5683 1.334 . S
C5683 H5660 0.950 . S
C5683 C5682 1.334 . S
C5683 C5684 1.287 . S
C5684 C5683 1.287 . S
C5684 C5685 1.524 . S
C5684 H5703 0.913 . S
C5685 H5661 0.950 . S
C5685 C5684 1.524 . S
C5685 C5686 1.415 . S
C5686 H5662 0.950 . S
C5686 C5681 1.363 . S
C5686 C5685 1.415 . S
C5687 H5663 0.951 . S
C5687 C5688 1.366 . S
C5687 C5689 1.388 . S
C5688 C5687 1.366 . S
C5688 C5692 1.385 . S
C5689 H5664 0.951 . S
C5689 C5687 1.388 . S
C5689 C5690 1.366 . S
C5690 C5689 1.366 . S
C5690 C5691 1.414 . S
C5690 C5693 1.499 . S
C5691 H5665 0.950 . S
C5691 C5690 1.414 . S
C5691 C5692 1.374 . S
C5692 H5666 0.950 . S
C5692 C5688 1.385 . S
C5692 C5691 1.374 . S
C5693 C5690 1.499 . S
C5693 C5694 1.373 . S
C5693 C5695 1.389 . S
C5694 H5667 0.950 . S
C5694 C5680 1.377 . S
C5694 C5693 1.373 . S
C5695 C5679 1.377 . S
C5695 C5693 1.389 . S
C5695 C5696 1.524 . S
C5696 C5695 1.524 . S
C5696 C5697 1.397 . S
C5696 C5701 1.363 . S
C5697 H5668 0.950 . S
C5697 C5696 1.397 . S
C5697 C5698 1.334 . S
C5698 H5669 0.950 . S
C5698 C5697 1.334 . S
C5698 C5699 1.287 . S
C5699 C5698 1.287 . S
C5699 C5700 1.524 . S
C5699 H5702 0.999 . S
C5700 H5670 0.950 . S
C5700 C5699 1.524 . S
C5700 C5701 1.415 . S
C5701 H5671 0.950 . S
C5701 C5696 1.363 . S
C5701 C5700 1.415 . S
H5702 C5699 0.999 . S
H5703 C5684 0.913 . S
H5704 C5722 0.951 . S
H5705 C5724 0.951 . S
H5706 C5726 0.950 . S
H5707 C5727 0.950 . S
H5708 C5729 0.950 . S
H5709 C5732 0.950 . S
H5710 C5733 0.950 . S
H5711 C5735 0.950 . S
H5712 C5736 0.950 . S
H5713 C5737 0.951 . S
H5714 C5739 0.951 . S
H5715 C5741 0.950 . S
H5716 C5742 0.950 . S
H5717 C5744 0.950 . S
H5718 C5747 0.950 . S
H5719 C5748 0.950 . S
H5720 C5750 0.950 . S
H5721 C5751 0.950 . S
C5722 H5704 0.951 . S
C5722 C5723 1.366 . S
C5722 C5724 1.388 . S
C5723 C5722 1.366 . S
C5723 C5727 1.385 . S
C5724 H5705 0.951 . S
C5724 C5722 1.388 . S
C5724 C5725 1.366 . S
C5725 C5724 1.366 . S
C5725 C5726 1.414 . S
C5725 C5728 1.499 . S
C5726 H5706 0.950 . S
C5726 C5725 1.414 . S
C5726 C5727 1.374 . S
C5727 H5707 0.950 . S
C5727 C5723 1.385 . S
C5727 C5726 1.374 . S
C5728 C5725 1.499 . S
C5728 C5729 1.373 . S
C5728 C5730 1.389 . S
C5729 H5708 0.950 . S
C5729 C5728 1.373 . S
C5729 C5745 1.377 . S
C5730 C5728 1.389 . S
C5730 C5731 1.524 . S
C5730 C5744 1.377 . S
C5731 C5730 1.524 . S
C5731 C5732 1.397 . S
C5731 C5736 1.363 . S
C5732 H5709 0.950 . S
C5732 C5731 1.397 . S
C5732 C5733 1.334 . S
C5733 H5710 0.950 . S
C5733 C5732 1.334 . S
C5733 C5734 1.287 . S
C5734 C5733 1.287 . S
C5734 C5735 1.524 . S
C5734 H5753 0.913 . S
C5735 H5711 0.950 . S
C5735 C5734 1.524 . S
C5735 C5736 1.415 . S
C5736 H5712 0.950 . S
C5736 C5731 1.363 . S
C5736 C5735 1.415 . S
C5737 H5713 0.951 . S
C5737 C5738 1.366 . S
C5737 C5739 1.388 . S
C5738 C5737 1.366 . S
C5738 C5742 1.385 . S
C5739 H5714 0.951 . S
C5739 C5737 1.388 . S
C5739 C5740 1.366 . S
C5740 C5739 1.366 . S
C5740 C5741 1.414 . S
C5740 C5743 1.499 . S
C5741 H5715 0.950 . S
C5741 C5740 1.414 . S
C5741 C5742 1.374 . S
C5742 H5716 0.950 . S
C5742 C5738 1.385 . S
C5742 C5741 1.374 . S
C5743 C5740 1.499 . S
C5743 C5744 1.373 . S
C5743 C5745 1.389 . S
C5744 H5717 0.950 . S
C5744 C5730 1.377 . S
C5744 C5743 1.373 . S
C5745 C5729 1.377 . S
C5745 C5743 1.389 . S
C5745 C5746 1.524 . S
C5746 C5745 1.524 . S
C5746 C5747 1.397 . S
C5746 C5751 1.363 . S
C5747 H5718 0.950 . S
C5747 C5746 1.397 . S
C5747 C5748 1.334 . S
C5748 H5719 0.950 . S
C5748 C5747 1.334 . S
C5748 C5749 1.287 . S
C5749 C5748 1.287 . S
C5749 C5750 1.524 . S
C5749 H5752 0.999 . S
C5750 H5720 0.950 . S
C5750 C5749 1.524 . S
C5750 C5751 1.415 . S
C5751 H5721 0.950 . S
C5751 C5746 1.363 . S
C5751 C5750 1.415 . S
H5752 C5749 0.999 . S
H5753 C5734 0.913 . S
H5754 C5772 0.951 . S
H5755 C5774 0.951 . S
H5756 C5776 0.935 1_455 S
H5757 C5777 0.950 1_455 S
H5758 C5779 0.950 . S
H5759 C5782 0.950 . S
H5760 C5783 0.950 . S
H5761 C5785 0.950 . S
H5762 C5786 0.950 . S
H5763 C5787 0.951 . S
H5764 C5789 0.951 . S
H5765 C5791 0.950 . S
H5766 C5792 0.950 . S
H5767 C5794 0.950 . S
H5768 C5797 0.950 . S
H5769 C5798 0.950 . S
H5770 C5800 0.950 . S
H5771 C5801 0.950 . S
C5772 H5754 0.951 . S
C5772 C5773 1.366 . S
C5772 C5774 1.388 . S
C5773 C5772 1.366 . S
C5773 C5777 1.385 . S
C5774 H5755 0.951 . S
C5774 C5772 1.388 . S
C5774 C5775 1.366 . S
C5775 C5774 1.366 . S
C5775 C5776 1.419 . S
C5775 C5778 1.499 . S
C5776 H5756 0.935 1_655 S
C5776 C5775 1.419 . S
C5776 C5777 1.384 . S
C5777 H5757 0.950 1_655 S
C5777 C5773 1.385 . S
C5777 C5776 1.384 . S
C5778 C5775 1.499 . S
C5778 C5779 1.373 1_655 S
C5778 C5780 1.389 . S
C5779 H5758 0.950 . S
C5779 C5778 1.373 1_455 S
C5779 C5795 1.377 . S
C5780 C5778 1.389 . S
C5780 C5781 1.524 . S
C5780 C5794 1.377 . S
C5781 C5780 1.524 . S
C5781 C5782 1.397 . S
C5781 C5786 1.363 . S
C5782 H5759 0.950 . S
C5782 C5781 1.397 . S
C5782 C5783 1.334 . S
C5783 H5760 0.950 . S
C5783 C5782 1.334 . S
C5783 C5784 1.287 . S
C5784 C5783 1.287 . S
C5784 C5785 1.524 . S
C5784 H5803 0.913 . S
C5785 H5761 0.950 . S
C5785 C5784 1.524 . S
C5785 C5786 1.415 . S
C5786 H5762 0.950 . S
C5786 C5781 1.363 . S
C5786 C5785 1.415 . S
C5787 H5763 0.951 . S
C5787 C5788 1.366 1_455 S
C5787 C5789 1.388 . S
C5788 C5787 1.366 1_655 S
C5788 C5792 1.385 . S
C5789 H5764 0.951 . S
C5789 C5787 1.388 . S
C5789 C5790 1.366 1_455 S
C5790 C5789 1.366 1_655 S
C5790 C5791 1.414 . S
C5790 C5793 1.499 . S
C5791 H5765 0.950 . S
C5791 C5790 1.414 . S
C5791 C5792 1.374 . S
C5792 H5766 0.950 . S
C5792 C5788 1.385 . S
C5792 C5791 1.374 . S
C5793 C5790 1.499 . S
C5793 C5794 1.373 . S
C5793 C5795 1.389 1_655 S
C5794 H5767 0.950 . S
C5794 C5780 1.377 . S
C5794 C5793 1.373 . S
C5795 C5779 1.377 . S
C5795 C5793 1.389 1_455 S
C5795 C5796 1.524 . S
C5796 C5795 1.524 . S
C5796 C5797 1.397 . S
C5796 C5801 1.363 . S
C5797 H5768 0.950 . S
C5797 C5796 1.397 . S
C5797 C5798 1.334 . S
C5798 H5769 0.950 . S
C5798 C5797 1.334 . S
C5798 C5799 1.287 . S
C5799 C5798 1.287 . S
C5799 C5800 1.524 . S
C5799 H5802 0.999 . S
C5800 H5770 0.950 . S
C5800 C5799 1.524 . S
C5800 C5801 1.415 . S
C5801 H5771 0.950 . S
C5801 C5796 1.363 . S
C5801 C5800 1.415 . S
H5802 C5799 0.999 . S
H5803 C5784 0.913 . S
H5804 C5822 0.951 . S
H5805 C5824 0.951 . S
H5806 C5826 0.950 . S
H5807 C5827 0.950 . S
H5808 C5829 0.950 . S
H5809 C5832 0.950 . S
H5810 C5833 0.950 . S
H5811 C5835 0.950 . S
H5812 C5836 0.950 . S
H5813 C5837 0.951 . S
H5814 C5839 0.951 . S
H5815 C5841 0.950 . S
H5816 C5842 0.950 . S
H5817 C5844 0.950 . S
H5818 C5847 0.950 . S
H5819 C5848 0.950 . S
H5820 C5850 0.950 . S
H5821 C5851 0.950 . S
C5822 H5804 0.951 . S
C5822 C5823 1.366 . S
C5822 C5824 1.388 . S
C5823 C5822 1.366 . S
C5823 C5827 1.385 . S
C5824 H5805 0.951 . S
C5824 C5822 1.388 . S
C5824 C5825 1.366 . S
C5825 C5824 1.366 . S
C5825 C5826 1.414 . S
C5825 C5828 1.499 . S
C5826 H5806 0.950 . S
C5826 C5825 1.414 . S
C5826 C5827 1.374 . S
C5827 H5807 0.950 . S
C5827 C5823 1.385 . S
C5827 C5826 1.374 . S
C5828 C5825 1.499 . S
C5828 C5829 1.373 . S
C5828 C5830 1.389 . S
C5829 H5808 0.950 . S
C5829 C5828 1.373 . S
C5829 C5845 1.377 . S
C5830 C5828 1.389 . S
C5830 C5831 1.524 . S
C5830 C5844 1.377 . S
C5831 C5830 1.524 . S
C5831 C5832 1.397 . S
C5831 C5836 1.363 . S
C5832 H5809 0.950 . S
C5832 C5831 1.397 . S
C5832 C5833 1.334 . S
C5833 H5810 0.950 . S
C5833 C5832 1.334 . S
C5833 C5834 1.287 . S
C5834 C5833 1.287 . S
C5834 C5835 1.524 . S
C5834 H5853 0.913 . S
C5835 H5811 0.950 . S
C5835 C5834 1.524 . S
C5835 C5836 1.415 . S
C5836 H5812 0.950 . S
C5836 C5831 1.363 . S
C5836 C5835 1.415 . S
C5837 H5813 0.951 . S
C5837 C5838 1.366 . S
C5837 C5839 1.388 . S
C5838 C5837 1.366 . S
C5838 C5842 1.385 . S
C5839 H5814 0.951 . S
C5839 C5837 1.388 . S
C5839 C5840 1.366 . S
C5840 C5839 1.366 . S
C5840 C5841 1.414 . S
C5840 C5843 1.499 . S
C5841 H5815 0.950 . S
C5841 C5840 1.414 . S
C5841 C5842 1.374 . S
C5842 H5816 0.950 . S
C5842 C5838 1.385 . S
C5842 C5841 1.374 . S
C5843 C5840 1.499 . S
C5843 C5844 1.373 . S
C5843 C5845 1.389 . S
C5844 H5817 0.950 . S
C5844 C5830 1.377 . S
C5844 C5843 1.373 . S
C5845 C5829 1.377 . S
C5845 C5843 1.389 . S
C5845 C5846 1.524 . S
C5846 C5845 1.524 . S
C5846 C5847 1.397 . S
C5846 C5851 1.363 . S
C5847 H5818 0.950 . S
C5847 C5846 1.397 . S
C5847 C5848 1.334 . S
C5848 H5819 0.950 . S
C5848 C5847 1.334 . S
C5848 C5849 1.287 . S
C5849 C5848 1.287 . S
C5849 C5850 1.524 . S
C5849 H5852 0.999 . S
C5850 H5820 0.950 . S
C5850 C5849 1.524 . S
C5850 C5851 1.415 . S
C5851 H5821 0.950 . S
C5851 C5846 1.363 . S
C5851 C5850 1.415 . S
H5852 C5849 0.999 . S
H5853 C5834 0.913 . S
H5854 C5872 0.951 . S
H5855 C5874 0.951 . S
H5856 C5876 0.950 . S
H5857 C5877 0.950 . S
H5858 C5879 0.950 . S
H5859 C5882 0.950 . S
H5860 C5883 0.950 . S
H5861 C5885 0.950 . S
H5862 C5886 0.950 . S
H5863 C5887 0.966 . S
H5864 C5889 0.884 1_565 S
H5865 C5891 0.950 . S
H5866 C5892 0.950 . S
H5867 C5894 0.950 . S
H5868 C5897 0.950 . S
H5869 C5898 0.950 . S
H5870 C5900 0.950 . S
H5871 C5901 0.950 . S
C5872 H5854 0.951 . S
C5872 C5873 1.366 . S
C5872 C5874 1.388 . S
C5873 C5872 1.366 . S
C5873 C5877 1.385 . S
C5874 H5855 0.951 . S
C5874 C5872 1.388 . S
C5874 C5875 1.366 . S
C5875 C5874 1.366 . S
C5875 C5876 1.414 . S
C5875 C5878 1.499 . S
C5876 H5856 0.950 . S
C5876 C5875 1.414 . S
C5876 C5877 1.374 . S
C5877 H5857 0.950 . S
C5877 C5873 1.385 . S
C5877 C5876 1.374 . S
C5878 C5875 1.499 . S
C5878 C5879 1.373 1_545 S
C5878 C5880 1.389 . S
C5879 H5858 0.950 . S
C5879 C5878 1.373 1_565 S
C5879 C5895 1.377 . S
C5880 C5878 1.389 . S
C5880 C5881 1.524 . S
C5880 C5894 1.377 . S
C5881 C5880 1.524 . S
C5881 C5882 1.397 . S
C5881 C5886 1.363 . S
C5882 H5859 0.950 . S
C5882 C5881 1.397 . S
C5882 C5883 1.334 . S
C5883 H5860 0.950 . S
C5883 C5882 1.334 . S
C5883 C5884 1.287 . S
C5884 C5883 1.287 . S
C5884 C5885 1.524 . S
C5884 H5903 0.913 . S
C5885 H5861 0.950 . S
C5885 C5884 1.524 . S
C5885 C5886 1.415 . S
C5886 H5862 0.950 . S
C5886 C5881 1.363 . S
C5886 C5885 1.415 . S
C5887 H5863 0.966 . S
C5887 C5888 1.339 1_565 S
C5887 C5889 1.430 1_565 S
C5888 C5887 1.339 1_545 S
C5888 C5892 1.385 . S
C5889 H5864 0.884 1_545 S
C5889 C5887 1.430 1_545 S
C5889 C5890 1.395 . S
C5890 C5889 1.395 . S
C5890 C5891 1.414 . S
C5890 C5893 1.499 . S
C5891 H5865 0.950 . S
C5891 C5890 1.414 . S
C5891 C5892 1.374 . S
C5892 H5866 0.950 . S
C5892 C5888 1.385 . S
C5892 C5891 1.374 . S
C5893 C5890 1.499 . S
C5893 C5894 1.373 . S
C5893 C5895 1.389 1_545 S
C5894 H5867 0.950 . S
C5894 C5880 1.377 . S
C5894 C5893 1.373 . S
C5895 C5879 1.377 . S
C5895 C5893 1.389 1_565 S
C5895 C5896 1.524 . S
C5896 C5895 1.524 . S
C5896 C5897 1.397 . S
C5896 C5901 1.363 . S
C5897 H5868 0.950 . S
C5897 C5896 1.397 . S
C5897 C5898 1.334 . S
C5898 H5869 0.950 . S
C5898 C5897 1.334 . S
C5898 C5899 1.287 . S
C5899 C5898 1.287 . S
C5899 C5900 1.524 . S
C5899 H5902 0.999 . S
C5900 H5870 0.950 . S
C5900 C5899 1.524 . S
C5900 C5901 1.415 . S
C5901 H5871 0.950 . S
C5901 C5896 1.363 . S
C5901 C5900 1.415 . S
H5902 C5899 0.999 . S
H5903 C5884 0.913 . S
C2323 C4 1.206 . S
C2338 C1307 0.995 1_655 S
C2373 C26 1.622 . S
C2388 C1447 1.039 . S
C2438 C1535 1.058 . S
C2423 C32 1.191 . S
C2473 C40 1.294 . S
C2488 C1675 0.949 1_565 S
C2523 C12 1.314 . S
C2538 C1789 1.050 . S
C2573 C18 1.520 1_556 S
C2588 C1877 1.170 . S
C2623 C46 1.181 . S
C2638 C1763 1.016 . S
C2688 C1903 1.243 . S
C2673 C68 1.533 . S
C2738 C1649 1.039 . S
C2723 C74 1.215 . S
C2773 C82 1.292 . S
C2788 C1561 0.943 . S
C2838 C1333 0.994 . S
C2823 C54 1.344 . S
C2873 C60 1.435 . S
C2888 C1421 1.294 . S
C2923 C88 1.673 . S
C2938 C1991 1.278 . S
C2973 C110 1.734 . S
C2988 C2131 1.114 . S
C3038 C2219 1.249 . S
C3023 C116 1.642 . S
C3073 C124 1.552 . S
C3088 C307 1.003 . S
C3123 C96 1.659 . S
C3138 C421 1.085 . S
C3173 C102 1.612 . S
C3188 C509 1.223 . S
C3223 C130 1.403 . S
C3238 C395 1.282 . S
C3273 C152 1.647 . S
C3288 C535 1.373 . S
C3338 C281 1.436 . S
C3323 C158 1.580 . S
C3388 C2245 1.361 . S
C3373 C166 1.647 . S
C3438 C2017 1.239 . S
C3423 C138 1.515 . S
C3488 C2105 1.441 . S
C3473 C144 1.567 . S
C3523 C172 1.507 . S
C3538 C623 1.134 . S
C3573 C194 1.737 . S
C3588 C763 1.106 . S
C3623 C200 1.674 . S
C3638 C851 1.271 . S
C3673 C208 1.710 . S
C3688 C991 1.123 . S
C3738 C1105 1.049 . S
C3723 C180 1.612 . S
C3788 C1193 1.259 . S
C3773 C186 1.636 . S
C3838 C1079 1.456 . S
C3823 C214 1.593 . S
C3888 C1219 1.365 . S
C3873 C236 1.638 . S
C3923 C242 1.523 . S
C3938 C965 1.393 . S
C3988 C877 1.205 . S
C3973 C250 1.461 . S
C4023 C222 1.589 . S
C4038 C649 1.294 . S
C4088 C737 1.406 . S
C4073 C228 1.534 . S
C4138 C263 0.933 . S
C4123 C5 1.537 . S
C4173 C25 1.505 . S
C4188 C377 0.832 . S
C4238 C481 1.188 . S
C4223 C33 1.467 . S
C4288 C595 1.022 . S
C4273 C39 1.395 . S
C4338 C719 0.893 . S
C4323 C11 1.633 . S
C4388 C823 1.069 . S
C4373 C19 1.281 1_556 S
C4423 C47 1.646 1_556 S
C4438 C833 1.412 . S
C4473 C67 1.608 . S
C4488 C605 1.220 . S
C4523 C75 1.575 1_556 S
C4538 C709 1.559 . S
C4573 C81 1.521 . S
C4588 C367 1.322 . S
C4638 C491 1.300 . S
C4623 C53 1.714 . S
C4673 C61 1.348 . S
C4688 C253 1.355 . S
C4738 C947 0.885 . S
C4723 C89 1.393 . S
C4773 C109 1.671 . S
C4788 C1061 0.962 . S
C4823 C117 1.405 . S
C4838 C1165 1.205 . S
C4888 C1279 0.840 . S
C4873 C123 0.958 . S
C4923 C95 1.465 . S
C4938 C1403 0.817 . S
C4973 C103 1.004 . S
C4988 C1507 0.915 . S
C5023 C131 1.091 . S
C5038 C1517 0.817 1_565 S
C5073 C151 1.116 . S
C5088 C1289 0.814 . S
C5138 C1393 1.361 . S
C5123 C159 1.353 . S
C5173 C165 1.442 . S
C5188 C1051 1.255 . S
C5223 C137 1.729 . S
C5238 C1175 1.316 . S
C5288 C937 1.498 . S
C5273 C145 1.490 . S
C5338 C1631 0.779 . S
C5323 C173 1.100 . S
C5373 C193 1.062 . S
C5388 C1745 0.769 . S
C5423 C201 1.262 . S
C5438 C1849 1.059 . S
C5488 C1963 0.984 . S
C5473 C207 1.323 . S
C5538 C2087 0.958 . S
C5523 C179 1.658 . S
C5573 C187 1.416 . S
C5588 C2191 1.202 . S
C5623 C215 1.505 . S
C5638 C2201 1.318 . S
C5673 C235 1.767 . S
C5688 C1973 1.349 . S
C5738 C2077 1.517 . S
C5723 C243 1.482 . S
C5788 C1735 0.842 1_655 S
C5773 C249 0.943 . S
C5838 C1859 1.163 . S
C5823 C221 1.574 . S
C5873 C229 1.015 . S
C5888 C1621 0.937 1_545 S
