# Generated by pormake.
# Topology pyr, (3,6)-cn, num edge types: 1
# Building blocks:
#     Node 0, Type 0, BuildingBlock: PAMTOO_clean_linker_0, # of connection points: 3
#     Node 1, Type 0, BuildingBlock: PAMTOO_clean_linker_0, # of connection points: 3
#     Node 2, Type 0, BuildingBlock: PAMTOO_clean_linker_0, # of connection points: 3
#     Node 3, Type 0, BuildingBlock: PAMTOO_clean_linker_0, # of connection points: 3
#     Node 4, Type 0, BuildingBlock: PAMTOO_clean_linker_0, # of connection points: 3
#     Node 5, Type 0, BuildingBlock: PAMTOO_clean_linker_0, # of connection points: 3
#     Node 6, Type 0, BuildingBlock: PAMTOO_clean_linker_0, # of connection points: 3
#     Node 7, Type 0, BuildingBlock: PAMTOO_clean_linker_0, # of connection points: 3
#     Node 8, Type 1, BuildingBlock: JUFBIX_clean_sbu_0, # of connection points: 6
#     Node 9, Type 1, BuildingBlock: JUFBIX_clean_sbu_0, # of connection points: 6
#     Node 10, Type 1, BuildingBlock: JUFBIX_clean_sbu_0, # of connection points: 6
#     Node 11, Type 1, BuildingBlock: JUFBIX_clean_sbu_0, # of connection points: 6
#     Edge 12, Type (0, 1), BuildingBlock: TEMPAE_clean_linker_10, # of connection points: 2
#     Edge 13, Type (0, 1), BuildingBlock: TEMPAE_clean_linker_10, # of connection points: 2
#     Edge 14, Type (0, 1), BuildingBlock: TEMPAE_clean_linker_10, # of connection points: 2
#     Edge 15, Type (0, 1), BuildingBlock: TEMPAE_clean_linker_10, # of connection points: 2
#     Edge 16, Type (0, 1), BuildingBlock: TEMPAE_clean_linker_10, # of connection points: 2
#     Edge 17, Type (0, 1), BuildingBlock: TEMPAE_clean_linker_10, # of connection points: 2
#     Edge 18, Type (0, 1), BuildingBlock: TEMPAE_clean_linker_10, # of connection points: 2
#     Edge 19, Type (0, 1), BuildingBlock: TEMPAE_clean_linker_10, # of connection points: 2
#     Edge 20, Type (0, 1), BuildingBlock: TEMPAE_clean_linker_10, # of connection points: 2
#     Edge 21, Type (0, 1), BuildingBlock: TEMPAE_clean_linker_10, # of connection points: 2
#     Edge 22, Type (0, 1), BuildingBlock: TEMPAE_clean_linker_10, # of connection points: 2
#     Edge 23, Type (0, 1), BuildingBlock: TEMPAE_clean_linker_10, # of connection points: 2
#     Edge 24, Type (0, 1), BuildingBlock: TEMPAE_clean_linker_10, # of connection points: 2
#     Edge 25, Type (0, 1), BuildingBlock: TEMPAE_clean_linker_10, # of connection points: 2
#     Edge 26, Type (0, 1), BuildingBlock: TEMPAE_clean_linker_10, # of connection points: 2
#     Edge 27, Type (0, 1), BuildingBlock: TEMPAE_clean_linker_10, # of connection points: 2
#     Edge 28, Type (0, 1), BuildingBlock: TEMPAE_clean_linker_10, # of connection points: 2
#     Edge 29, Type (0, 1), BuildingBlock: TEMPAE_clean_linker_10, # of connection points: 2
#     Edge 30, Type (0, 1), BuildingBlock: TEMPAE_clean_linker_10, # of connection points: 2
#     Edge 31, Type (0, 1), BuildingBlock: TEMPAE_clean_linker_10, # of connection points: 2
#     Edge 32, Type (0, 1), BuildingBlock: TEMPAE_clean_linker_10, # of connection points: 2
#     Edge 33, Type (0, 1), BuildingBlock: TEMPAE_clean_linker_10, # of connection points: 2
#     Edge 34, Type (0, 1), BuildingBlock: TEMPAE_clean_linker_10, # of connection points: 2
#     Edge 35, Type (0, 1), BuildingBlock: TEMPAE_clean_linker_10, # of connection points: 2
# Relax obj value: 0.123
# Max RMSD: 0.202
# Mean RMSD: 0.138
data_MOF--net-pry--node1-JUFBIX_clean_sbu_0--node2-PAMTOO_clean_linker_0--edge1-TEMPAE_clean_linker_10
_symmetry_space_group_name_H-M    P1
_symmetry_Int_Tables_number       1
_symmetry_cell_setting            triclinic
loop_
_symmetry_equiv_pos_as_xyz
'x, y, z'
_cell_length_a     37.156953
_cell_length_b     36.227342
_cell_length_c     37.589092
_cell_angle_alpha  84.376105
_cell_angle_beta   90.660786
_cell_angle_gamma 95.482543
loop_
_atom_site_label
_atom_site_type_symbol
_atom_site_fract_x
_atom_site_fract_y
_atom_site_fract_z
_atom_type_partial_charge
H0 H 0.15401 0.20094 0.22916 0.0
H1 H 0.23452 0.12207 0.24146 0.0
H2 H 0.23757 0.20343 0.14999 0.0
H3 H 0.25857 0.13182 0.13228 0.0
C4 C 0.27084 0.12101 0.15787 0.0
O5 O 0.27048 0.14775 0.18222 0.0
H6 H 0.25328 0.09578 0.16836 0.0
C7 C 0.17763 0.18972 0.21948 0.0
C8 C 0.19354 0.2061 0.18682 0.0
C9 C 0.19192 0.15938 0.23998 0.0
C10 C 0.22267 0.1449 0.22633 0.0
C11 C 0.23931 0.16058 0.19384 0.0
C12 C 0.22469 0.1913 0.17467 0.0
H13 H 0.39714 0.93989 0.66279 0.0
H14 H 0.40508 0.88297 0.56832 0.0
H15 H 0.47308 0.85781 0.65871 0.0
H16 H 0.50745 0.86557 0.58968 0.0
C17 C 0.48694 0.84774 0.57562 0.0
O18 O 0.45494 0.84196 0.5943 0.0
H19 H 0.48226 0.86206 0.54864 0.0
C20 C 0.40985 0.92023 0.64824 0.0
C21 C 0.43685 0.90004 0.6649 0.0
C22 C 0.3981 0.91426 0.61348 0.0
C23 C 0.41421 0.88842 0.59496 0.0
C24 C 0.44141 0.86856 0.61125 0.0
C25 C 0.45268 0.87421 0.64611 0.0
H26 H 0.74165 0.31719 0.96459 0.0
H27 H 0.66725 0.33243 0.87708 0.0
H28 H 0.75644 0.41456 0.88843 0.0
H29 H 0.68795 0.44621 0.86479 0.0
C30 C 0.67536 0.42244 0.8509 0.0
O31 O 0.69979 0.39612 0.85019 0.0
H32 H 0.65066 0.41021 0.86581 0.0
C33 C 0.73331 0.33361 0.94079 0.0
C34 C 0.75313 0.36759 0.92918 0.0
C35 C 0.70244 0.32065 0.92217 0.0
C36 C 0.69083 0.34225 0.89195 0.0
C37 C 0.71021 0.37619 0.88016 0.0
C38 C 0.74126 0.38874 0.8986 0.0
H39 H 0.93623 0.68407 0.49638 0.0
H40 H 0.92984 0.6289 0.39962 0.0
H41 H 1.00508 0.72435 0.40646 0.0
H42 H 0.97652 0.72267 0.33239 0.0
C43 C 0.96161 0.69464 0.33806 0.0
O44 O 0.97846 0.67502 0.36577 0.0
H45 H 0.93331 0.69871 0.3452 0.0
C46 C 0.94606 0.68126 0.46987 0.0
C47 C 0.97383 0.7071 0.45472 0.0
C48 C 0.92937 0.65324 0.45006 0.0
C49 C 0.94204 0.65021 0.41549 0.0
C50 C 0.96916 0.67592 0.40019 0.0
C51 C 0.98515 0.70394 0.41967 0.0
H52 H 0.83258 0.91972 0.83312 0.0
H53 H 0.83595 0.83554 0.92274 0.0
H54 H 0.91598 0.84409 0.84043 0.0
H55 H 0.89516 0.76809 0.86606 0.0
C56 C 0.88805 0.77039 0.89436 0.0
O57 O 0.89428 0.80758 0.9014 0.0
H58 H 0.85863 0.7617 0.89754 0.0
C59 C 0.84521 0.8969 0.84735 0.0
C60 C 0.87615 0.88424 0.83209 0.0
C61 C 0.82971 0.87963 0.88007 0.0
C62 C 0.84635 0.84891 0.89743 0.0
C63 C 0.87731 0.83589 0.88315 0.0
C64 C 0.89184 0.85378 0.85074 0.0
H65 H 0.67098 0.08889 0.3967 0.0
H66 H 0.59113 0.16639 0.37406 0.0
H67 H 0.65488 0.17045 0.46967 0.0
H68 H 0.57489 0.17552 0.47472 0.0
C69 C 0.57332 0.19719 0.45172 0.0
O70 O 0.60428 0.20054 0.43147 0.0
H71 H 0.5496 0.18865 0.43506 0.0
C72 C 0.65614 0.111 0.40486 0.0
C73 C 0.66587 0.12732 0.43643 0.0
C74 C 0.62938 0.12497 0.38215 0.0
C75 C 0.61159 0.15499 0.39153 0.0
C76 C 0.62051 0.17081 0.42329 0.0
C77 C 0.64766 0.15722 0.44561 0.0
H78 H 0.35635 0.69234 0.11153 0.0
H79 H 0.34709 0.60168 0.19586 0.0
H80 H 0.42933 0.69217 0.20086 0.0
H81 H 0.45155 0.61836 0.22283 0.0
C82 C 0.42634 0.6049 0.23605 0.0
O83 O 0.40007 0.62953 0.23371 0.0
H84 H 0.41669 0.58012 0.22204 0.0
C85 C 0.36551 0.67845 0.13635 0.0
C86 C 0.39529 0.69543 0.15387 0.0
C87 C 0.34714 0.64468 0.1512 0.0
C88 C 0.35967 0.62814 0.18401 0.0
C89 C 0.38895 0.64538 0.20191 0.0
C90 C 0.40652 0.67912 0.18699 0.0
H91 H 0.08825 0.33352 0.68404 0.0
H92 H 0.13897 0.44459 0.65839 0.0
H93 H 0.08835 0.38485 0.57552 0.0
H94 H 0.13854 0.45845 0.53707 0.0
C95 C 0.14946 0.44281 0.56107 0.0
O96 O 0.12683 0.4461 0.58945 0.0
H97 H 0.14892 0.41335 0.55482 0.0
C98 C 0.09519 0.35707 0.66448 0.0
C99 C 0.08651 0.35463 0.62816 0.0
C100 C 0.114 0.38948 0.67561 0.0
C101 C 0.12476 0.4193 0.6501 0.0
C102 C 0.11608 0.41732 0.61399 0.0
C103 C 0.09567 0.3857 0.60343 0.0
Co104 Co 1.00798 0.03328 0.52541 0.0
C105 C 0.03514 0.9643 0.52279 0.0
Co106 Co 0.05989 0.02753 0.55263 0.0
C107 C 0.93462 0.0503 0.51001 0.0
C108 C 0.95798 0.02377 0.46855 0.0
N109 N 0.96502 0.03595 0.5009 0.0
N110 N 0.90894 0.04772 0.48443 0.0
C111 C 0.92357 0.03092 0.45838 0.0
H112 H 0.93173 0.06305 0.53456 0.0
H113 H 0.97677 0.01065 0.45326 0.0
C114 C 0.03277 0.09632 0.55632 0.0
N115 N 0.10292 0.02495 0.57683 0.0
C116 C 0.13355 0.0125 0.56588 0.0
C117 C 0.11032 0.03509 0.6099 0.0
N118 N 0.15975 0.01424 0.59093 0.0
C119 C 0.14525 0.02842 0.61871 0.0
C120 C 0.06848 0.0561 0.47983 0.0
O121 O 1.00644 0.08287 0.53823 0.0
O122 O 0.05863 0.07666 0.5646 0.0
O123 O 0.08596 0.04656 0.50819 0.0
O124 O 0.03406 0.05283 0.48164 0.0
O125 O 0.06106 0.97795 0.54112 0.0
H126 H 0.09145 0.04649 0.62657 0.0
H127 H 0.13629 1.00158 0.54034 0.0
O128 O 1.00973 0.98402 0.51289 0.0
O129 O 0.98188 0.01337 0.56935 0.0
O130 O 0.03377 0.00857 0.59648 0.0
C131 C 0.99932 1.00417 0.59783 0.0
H132 H 0.91029 0.02402 0.4338 0.0
H133 H 0.15897 0.03372 0.64351 0.0
Co134 Co 0.53811 1.0006 1.00007 0.0
C135 C 0.52574 0.93559 0.04428 0.0
Co136 Co 0.56855 1.00214 0.05033 0.0
C137 C 0.51275 0.97804 0.93178 0.0
C138 C 0.49214 0.02831 0.94465 0.0
N139 N 0.51286 1.00145 0.95758 0.0
N140 N 0.49302 0.9895 0.90313 0.0
C141 C 0.47987 0.02102 0.91127 0.0
H142 H 0.52791 0.95385 0.93348 0.0
H143 H 0.48699 0.05222 0.95828 0.0
C144 C 0.58053 0.06728 1.0064 0.0
N145 N 0.59376 1.00209 0.09286 0.0
C146 C 0.59088 0.02514 0.11851 0.0
C147 C 0.6176 0.9783 0.1059 0.0
N148 N 0.61171 0.01658 0.14711 0.0
C149 C 0.62884 0.98728 0.13928 0.0
C150 C 0.608 0.97539 0.99509 0.0
O151 O 0.55929 0.0495 0.98601 0.0
O152 O 0.58826 0.05175 0.03692 0.0
O153 O 0.60948 0.98341 0.02743 0.0
O154 O 0.57873 0.98022 0.97782 0.0
O155 O 0.54869 0.95252 0.0638 0.0
H156 H 0.62564 0.95537 0.09241 0.0
H157 H 0.57362 0.0477 0.1164 0.0
O158 O 0.51681 0.95168 0.01434 0.0
O159 O 0.49782 0.02092 0.02249 0.0
O160 O 0.52736 0.0211 0.07288 0.0
C161 C 0.49882 0.02772 0.05515 0.0
H162 H 0.46279 0.03781 0.89421 0.0
H163 H 0.64709 0.97261 0.15693 0.0
Co164 Co 0.57488 0.52753 0.53474 0.0
C165 C 0.51793 0.53231 0.48518 0.0
Co166 Co 0.52081 0.50838 0.55675 0.0
C167 C 0.65288 0.54259 0.52334 0.0
C168 C 0.62103 0.58005 0.49195 0.0
N169 N 0.61834 0.54905 0.51521 0.0
N170 N 0.67666 0.56881 0.50639 0.0
C171 C 0.65672 0.5922 0.48653 0.0
H172 H 0.66038 0.52048 0.54268 0.0
H173 H 0.5984 0.59408 0.48092 0.0
C174 C 0.57762 0.50348 0.60623 0.0
N175 N 0.47718 0.48773 0.57619 0.0
C176 C 0.44375 0.49871 0.57025 0.0
C177 C 0.47208 0.45527 0.5972 0.0
N178 N 0.41808 0.47402 0.58631 0.0
C179 C 0.43575 0.44667 0.60329 0.0
C180 C 0.55877 0.45404 0.52873 0.0
O181 O 0.59741 0.51687 0.57982 0.0
O182 O 0.54365 0.498 0.6017 0.0
O183 O 0.52998 0.46097 0.54365 0.0
O184 O 0.58379 0.48016 0.5218 0.0
O185 O 0.49814 0.51901 0.51159 0.0
H186 H 0.49336 0.43823 0.60638 0.0
H187 H 0.43819 0.52325 0.55299 0.0
O188 O 0.55185 0.53771 0.4898 0.0
O189 O 0.56573 0.57482 0.54772 0.0
O190 O 0.51195 0.55592 0.56946 0.0
C191 C 0.53689 0.582 0.56224 0.0
H192 H 0.6673 0.61692 0.46997 0.0
H193 H 0.42315 0.42182 0.61826 0.0
Co194 Co 0.06544 0.49243 1.00916 0.0
C195 C 0.99456 0.46181 0.02601 0.0
Co196 Co 0.04621 0.50086 0.06273 0.0
C197 C 0.10199 0.47339 0.94427 0.0
C198 C 0.05264 0.49901 0.93522 0.0
N199 N 0.07535 0.48756 0.96147 0.0
N200 N 0.0968 0.4767 0.9084 0.0
C201 C 0.06577 0.49268 0.9029 0.0
H202 H 0.12447 0.46092 0.95761 0.0
H203 H 0.0274 0.51057 0.93926 0.0
C204 C 0.11688 0.53201 0.04542 0.0
N205 N 0.03506 0.5063 0.10959 0.0
C206 C 1.00889 0.52467 0.12251 0.0
C207 C 0.05454 0.49514 0.13848 0.0
N208 N 1.01144 0.52551 0.1583 0.0
C209 C 0.04007 0.50675 0.16836 0.0
C210 C 0.08304 0.43462 0.05886 0.0
O211 O 0.11167 0.51784 0.01593 0.0
O212 O 0.09183 0.52832 0.06861 0.0
O213 O 0.06726 0.45474 0.07864 0.0
O214 O 0.08497 0.44503 0.02536 0.0
O215 O 1.00044 0.4737 0.05645 0.0
H216 H 0.07892 0.48117 0.13776 0.0
H217 H 0.98913 0.53823 0.10585 0.0
O218 O 0.01949 0.46699 1.00281 0.0
O219 O 0.04568 0.54021 0.99373 0.0
O220 O 0.02526 0.54681 0.04657 0.0
C221 C 0.02837 0.55885 1.01369 0.0
H222 H 0.0528 0.49817 0.87722 0.0
H223 H 0.05132 0.5038 0.19506 0.0
C224 C 0.17125 0.10503 0.28653 0.0
C225 C 0.17502 0.1436 0.27582 0.0
C226 C 0.15475 0.09016 0.31948 0.0
C227 C 0.14176 0.11413 0.34322 0.0
C228 C 0.14597 0.15309 0.33281 0.0
C229 C 0.1622 0.16717 0.29958 0.0
C230 C 0.15076 0.0485 0.32869 0.0
C231 C 0.13326 0.18016 0.35689 0.0
C232 C 0.06787 0.07667 0.41299 0.0
C233 C 0.08758 0.07064 0.44497 0.0
C234 C 0.08502 0.09021 0.38008 0.0
C235 C 0.12317 0.09861 0.3784 0.0
C236 C 0.14324 0.0926 0.41059 0.0
C237 C 0.12541 0.07864 0.44313 0.0
C238 C 0.0621 0.09555 0.34692 0.0
C239 C 0.18376 0.10128 0.41077 0.0
H240 H 0.18054 0.08618 0.26871 0.0
H241 H 0.16526 0.197 0.29242 0.0
H242 H 0.16423 0.04128 0.35458 0.0
H243 H 0.12171 0.03844 0.33187 0.0
H244 H 0.16249 0.03346 0.30791 0.0
H245 H 0.13921 0.20961 0.34569 0.0
H246 H 0.10368 0.17451 0.36119 0.0
H247 H 0.14646 0.17638 0.38346 0.0
H248 H 0.03874 0.0706 0.41357 0.0
H249 H 0.14123 0.07428 0.46732 0.0
H250 H 0.07147 0.07916 0.32597 0.0
H251 H 0.06504 0.12526 0.33604 0.0
H252 H 0.033 0.08691 0.35216 0.0
H253 H 0.1963 0.08487 0.39166 0.0
H254 H 0.1957 0.09506 0.43767 0.0
H255 H 0.19083 0.13116 0.40179 0.0
C256 C 0.48403 0.91127 0.71167 0.0
C257 C 0.44748 0.9055 0.70221 0.0
C258 C 0.49411 0.92074 0.74596 0.0
C259 C 0.46694 0.9244 0.77114 0.0
C260 C 0.43008 0.91635 0.76234 0.0
C261 C 0.42081 0.90699 0.72795 0.0
C262 C 0.53369 0.92894 0.7545 0.0
C263 C 0.40032 0.91968 0.78855 0.0
C264 C 0.48847 0.93438 0.86894 0.0
C265 C 0.48849 0.97299 0.86988 0.0
C266 C 0.48252 0.91804 0.83675 0.0
C267 C 0.47651 0.94095 0.80494 0.0
C268 C 0.47753 0.98002 0.80562 0.0
C269 C 0.48353 0.99552 0.83806 0.0
C270 C 0.4816 0.87628 0.83696 0.0
C271 C 0.47143 0.00544 0.7722 0.0
H272 H 0.50467 0.91007 0.69178 0.0
H273 H 0.39254 0.9017 0.72087 0.0
H274 H 0.53989 0.95934 0.75594 0.0
H275 H 0.54031 0.91477 0.78094 0.0
H276 H 0.55142 0.92006 0.73396 0.0
H277 H 0.37339 0.90876 0.77887 0.0
H278 H 0.40581 0.90438 0.81477 0.0
H279 H 0.39928 0.9494 0.79298 0.0
H280 H 0.49212 0.91687 0.89351 0.0
H281 H 0.48436 0.02543 0.8385 0.0
H282 H 0.49976 0.86902 0.81602 0.0
H283 H 0.45385 0.86453 0.83065 0.0
H284 H 0.48977 0.86277 0.86323 0.0
H285 H 0.49073 1.00102 0.75107 0.0
H286 H 0.47463 0.03533 0.77705 0.0
H287 H 0.44376 0.99875 0.76176 0.0
C288 C 0.65547 0.40975 0.78842 0.0
C289 C 0.66433 0.43553 0.81337 0.0
C290 C 0.64323 0.42132 0.75402 0.0
C291 C 0.63897 0.45949 0.74464 0.0
C292 C 0.64778 0.48563 0.76978 0.0
C293 C 0.6603 0.4733 0.80388 0.0
C294 C 0.63419 0.39261 0.72796 0.0
C295 C 0.64315 0.52647 0.76096 0.0
C296 C 0.63126 0.49417 0.64617 0.0
C297 C 0.59366 0.49344 0.64174 0.0
C298 C 0.64646 0.48331 0.67954 0.0
C299 C 0.62352 0.47175 0.70919 0.0
C300 C 0.58559 0.47146 0.70496 0.0
C301 C 0.57114 0.48216 0.67131 0.0
C302 C 0.68701 0.48375 0.68297 0.0
C303 C 0.56021 0.45959 0.73597 0.0
H304 H 0.65786 0.38042 0.79598 0.0
H305 H 0.66649 0.49317 0.82337 0.0
H306 H 0.6049 0.39109 0.72152 0.0
H307 H 0.64907 0.40082 0.70256 0.0
H308 H 0.64096 0.36443 0.73868 0.0
H309 H 0.65252 0.5434 0.78298 0.0
H310 H 0.65841 0.53744 0.73638 0.0
H311 H 0.61422 0.53015 0.75554 0.0
H312 H 0.64884 0.50273 0.62344 0.0
H313 H 0.54206 0.48158 0.66818 0.0
H314 H 0.69437 0.45526 0.69161 0.0
H315 H 0.69704 0.50189 0.7038 0.0
H316 H 0.70111 0.49386 0.65746 0.0
H317 H 0.5634 0.43033 0.74628 0.0
H318 H 0.53144 0.46177 0.72841 0.0
H319 H 0.56698 0.4771 0.75818 0.0
C320 C 0.99476 0.672 0.28828 0.0
C321 C 0.962 0.67359 0.30571 0.0
C322 C 0.99717 0.64849 0.26118 0.0
C323 C 0.96593 0.62624 0.25124 0.0
C324 C 0.93233 0.62912 0.26759 0.0
C325 C 0.93085 0.6525 0.29507 0.0
C326 C 0.0336 0.64596 0.24461 0.0
C327 C 0.89838 0.60629 0.25726 0.0
C328 C 0.98052 0.58147 0.16647 0.0
C329 C 0.99272 0.54754 0.18055 0.0
C330 C 0.96881 0.60646 0.18913 0.0
C331 C 0.96974 0.59733 0.22658 0.0
C332 C 0.9792 0.56189 0.24068 0.0
C333 C 0.99032 0.53733 0.21743 0.0
C334 C 0.95804 0.64367 0.1731 0.0
C335 C 0.98041 0.55099 0.28049 0.0
H336 H 0.01881 0.68812 0.29693 0.0
H337 H 0.90557 0.65355 0.30888 0.0
H338 H 0.04232 0.61768 0.2516 0.0
H339 H 0.03178 0.65036 0.21506 0.0
H340 H 0.05472 0.66672 0.25387 0.0
H341 H 0.87373 0.61615 0.26817 0.0
H342 H 0.89584 0.60724 0.22775 0.0
H343 H 0.89973 0.57674 0.26771 0.0
H344 H 0.98224 0.58961 0.138 0.0
H345 H 0.99883 0.51073 0.22828 0.0
H346 H 0.98024 0.66563 0.17706 0.0
H347 H 0.93367 0.65106 0.18656 0.0
H348 H 0.9525 0.64383 0.14398 0.0
H349 H 1.00266 0.56831 0.29258 0.0
H350 H 0.98494 0.52119 0.2869 0.0
H351 H 0.95486 0.55619 0.29324 0.0
C352 C 0.31635 0.07243 0.15462 0.0
C353 C 0.30889 0.11001 0.14944 0.0
C354 C 0.34814 0.06001 0.14114 0.0
C355 C 0.37389 0.08551 0.12165 0.0
C356 C 0.36717 0.12377 0.11741 0.0
C357 C 0.33493 0.13542 0.13104 0.0
C358 C 0.35339 0.01905 0.14655 0.0
C359 C 0.39352 0.15235 0.09729 0.0
C360 C 0.46927 0.05414 0.10712 0.0
C361 C 0.46717 0.04307 0.07216 0.0
C362 C 0.43974 0.06846 0.12319 0.0
C363 C 0.40658 0.07176 0.10433 0.0
C364 C 0.40439 0.06069 0.06903 0.0
C365 C 0.43441 0.04681 0.05349 0.0
C366 C 0.44404 0.07996 0.16061 0.0
C367 C 0.36996 0.06312 0.0476 0.0
H368 H 0.29647 0.05221 0.16818 0.0
H369 H 0.32945 0.16433 0.12617 0.0
H370 H 0.35284 0.00743 0.12029 0.0
H371 H 0.38021 0.01496 0.15879 0.0
H372 H 0.33217 1.00296 0.16386 0.0
H373 H 0.38628 0.18122 0.09874 0.0
H374 H 0.42123 0.15024 0.10812 0.0
H375 H 0.39411 0.14688 0.06879 0.0
H376 H 0.49419 0.0517 0.12206 0.0
H377 H 0.43201 0.0385 0.02658 0.0
H378 H 0.42445 0.06251 0.1787 0.0
H379 H 0.43795 0.10931 0.16101 0.0
H380 H 0.47175 0.07722 0.17133 0.0
H381 H 0.34748 0.04551 0.0618 0.0
H382 H 0.37242 0.05394 0.02046 0.0
H383 H 0.36252 0.09219 0.04488 0.0
C384 C 0.33646 0.91015 0.58674 0.0
C385 C 0.36639 0.93216 0.59864 0.0
C386 C 0.3034 0.92511 0.57982 0.0
C387 C 0.30051 0.96295 0.58474 0.0
C388 C 0.33151 0.98602 0.59376 0.0
C389 C 0.36413 0.97024 0.60083 0.0
C390 C 0.2709 0.8996 0.57036 0.0
C391 C 0.32959 0.02664 0.5987 0.0
C392 C 0.21375 0.00523 0.55651 0.0
C393 C 0.19521 1.00191 0.58912 0.0
C394 C 0.24833 0.99301 0.55454 0.0
C395 C 0.26432 0.97678 0.58587 0.0
C396 C 0.24562 0.9733 0.61881 0.0
C397 C 0.21136 0.98608 0.62003 0.0
C398 C 0.26775 0.99753 0.5191 0.0
C399 C 0.26166 0.95576 0.65278 0.0
H400 H 0.33816 0.88062 0.58528 0.0
H401 H 0.38747 0.9873 0.60967 0.0
H402 H 0.25258 0.89386 0.59377 0.0
H403 H 0.25544 0.91299 0.54807 0.0
H404 H 0.27864 0.8726 0.56265 0.0
H405 H 0.35688 0.04191 0.60005 0.0
H406 H 0.3142 0.04038 0.57654 0.0
H407 H 0.31514 0.02899 0.62393 0.0
H408 H 0.20138 0.01785 0.53267 0.0
H409 H 0.19681 0.98301 0.64511 0.0
H410 H 0.27368 0.9699 0.51153 0.0
H411 H 0.29405 0.01442 0.52137 0.0
H412 H 0.25171 0.01118 0.49734 0.0
H413 H 0.26743 0.92685 0.64925 0.0
H414 H 0.2434 0.95497 0.6761 0.0
H415 H 0.28769 0.97156 0.65889 0.0
C416 C 0.81062 0.35441 0.96172 0.0
C417 C 0.78673 0.38023 0.94827 0.0
C418 C 0.84312 0.36599 0.97844 0.0
C419 C 0.85238 0.40439 0.98118 0.0
C420 C 0.82809 0.43054 0.96849 0.0
C421 C 0.79546 0.41812 0.95242 0.0
C422 C 0.86822 0.33723 0.99183 0.0
C423 C 0.83722 0.4718 0.97059 0.0
C424 C 0.93033 0.43701 0.04073 0.0
C425 C 0.95854 0.44484 0.01586 0.0
C426 C 0.89563 0.42313 0.03006 0.0
C427 C 0.88905 0.41754 0.99368 0.0
C428 C 0.91756 0.42501 0.96864 0.0
C429 C 0.95191 0.43829 0.98007 0.0
C430 C 0.86593 0.41486 0.05754 0.0
C431 C 0.91164 0.41973 0.92953 0.0
H432 H 0.8045 0.32514 0.95824 0.0
H433 H 0.77691 0.43821 0.94276 0.0
H434 H 0.89267 0.34028 0.97473 0.0
H435 H 0.87732 0.34152 0.01947 0.0
H436 H 0.85523 0.30833 0.99157 0.0
H437 H 0.81441 0.48824 0.96176 0.0
H438 H 0.84469 0.47737 0.99834 0.0
H439 H 0.86096 0.48178 0.95343 0.0
H440 H 0.93528 0.44199 0.06841 0.0
H441 H 0.97345 0.44439 0.96056 0.0
H442 H 0.85392 0.38564 0.05727 0.0
H443 H 0.844 0.43311 0.05082 0.0
H444 H 0.8758 0.41915 0.08498 0.0
H445 H 0.90152 0.39041 0.92644 0.0
H446 H 0.93675 0.4268 0.91354 0.0
H447 H 0.89078 0.43755 0.91826 0.0
C448 C 0.89134 0.61752 0.49949 0.0
C449 C 0.89573 0.63074 0.46327 0.0
C450 C 0.85776 0.60074 0.51256 0.0
C451 C 0.82802 0.59731 0.48885 0.0
C452 C 0.83294 0.6085 0.45195 0.0
C453 C 0.86658 0.62522 0.4397 0.0
C454 C 0.85364 0.58878 0.552 0.0
C455 C 0.80197 0.60537 0.42565 0.0
C456 C 0.73617 0.54408 0.50659 0.0
C457 C 0.71524 0.57364 0.51011 0.0
C458 C 0.77392 0.55064 0.50267 0.0
C459 C 0.79064 0.58751 0.50254 0.0
C460 C 0.76976 0.61666 0.50957 0.0
C461 C 0.73229 0.60934 0.5131 0.0
C462 C 0.79533 0.51878 0.49568 0.0
C463 C 0.78644 0.6563 0.51015 0.0
H464 H 0.91386 0.62117 0.51779 0.0
H465 H 0.86935 0.63586 0.41181 0.0
H466 H 0.83954 0.60967 0.56479 0.0
H467 H 0.83698 0.56166 0.55657 0.0
H468 H 0.88023 0.58637 0.56541 0.0
H469 H 0.81115 0.61166 0.3975 0.0
H470 H 0.78769 0.57693 0.42876 0.0
H471 H 0.78214 0.62519 0.43102 0.0
H472 H 0.72281 0.51647 0.50441 0.0
H473 H 0.71593 0.63196 0.51652 0.0
H474 H 0.8216 0.5206 0.51004 0.0
H475 H 0.80121 0.52024 0.46667 0.0
H476 H 0.78024 0.49135 0.50386 0.0
H477 H 0.81115 0.65728 0.52699 0.0
H478 H 0.7674 0.67459 0.52041 0.0
H479 H 0.79452 0.66778 0.48263 0.0
C480 C 0.20001 0.27022 0.15115 0.0
C481 C 0.17775 0.23889 0.16581 0.0
C482 C 0.18545 0.30155 0.13264 0.0
C483 C 0.14746 0.30185 0.12769 0.0
C484 C 0.12492 0.26994 0.14174 0.0
C485 C 0.14015 0.23933 0.16073 0.0
C486 C 0.21082 0.33483 0.11909 0.0
C487 C 0.08446 0.26817 0.13688 0.0
C488 C 0.10471 0.39526 0.11302 0.0
C489 C 0.09971 0.40042 0.07569 0.0
C490 C 0.12046 0.36398 0.12991 0.0
C491 C 0.13122 0.33601 0.10943 0.0
C492 C 0.1261 0.34085 0.07171 0.0
C493 C 0.11087 0.37294 0.05536 0.0
C494 C 0.12574 0.36101 0.16992 0.0
C495 C 0.1364 0.31184 0.04854 0.0
H496 H 0.229 0.27073 0.15499 0.0
H497 H 0.12246 0.21537 0.17136 0.0
H498 H 0.207 0.34136 0.08992 0.0
H499 H 0.20454 0.3596 0.1322 0.0
H500 H 0.23962 0.33024 0.12428 0.0
H501 H 0.07069 0.24076 0.14738 0.0
H502 H 0.07351 0.29022 0.15088 0.0
H503 H 0.07771 0.27346 0.10811 0.0
H504 H 0.09661 0.41609 0.12932 0.0
H505 H 0.10726 0.37623 0.02661 0.0
H506 H 0.15464 0.35843 0.17652 0.0
H507 H 0.11004 0.33555 0.18241 0.0
H508 H 0.11714 0.3855 0.18206 0.0
H509 H 0.16568 0.30849 0.05149 0.0
H510 H 0.13039 0.31913 0.01983 0.0
H511 H 0.12157 0.28448 0.05736 0.0
C512 C 0.64594 0.28035 0.94033 0.0
C513 C 0.68321 0.28391 0.93386 0.0
C514 C 0.62783 0.2457 0.95258 0.0
C515 C 0.64744 0.21392 0.95772 0.0
C516 C 0.685 0.21737 0.9506 0.0
C517 C 0.7025 0.25242 0.93906 0.0
C518 C 0.58787 0.24318 0.96044 0.0
C519 C 0.7067 0.18401 0.95505 0.0
C520 C 0.612 0.12884 0.01886 0.0
C521 C 0.59657 0.10525 0.99424 0.0
C522 C 0.6278 0.16473 1.00741 0.0
C523 C 0.62879 0.17694 0.97044 0.0
C524 C 0.61312 0.15328 0.9455 0.0
C525 C 0.5969 0.11784 0.95774 0.0
C526 C 0.64371 0.18946 0.03483 0.0
C527 C 0.61425 0.16504 0.90582 0.0
H528 H 0.63115 0.30483 0.9365 0.0
H529 H 0.73129 0.25521 0.9337 0.0
H530 H 0.57292 0.22329 0.94365 0.0
H531 H 0.58285 0.23233 0.98876 0.0
H532 H 0.57668 0.27058 0.95543 0.0
H533 H 0.73552 0.19131 0.94754 0.0
H534 H 0.70549 0.17158 0.98322 0.0
H535 H 0.69497 0.16231 0.93827 0.0
H536 H 0.61157 0.11933 0.04712 0.0
H537 H 0.58515 0.09963 0.93857 0.0
H538 H 0.63183 0.21656 0.0317 0.0
H539 H 0.67327 0.19541 0.0306 0.0
H540 H 0.63898 0.17658 0.06264 0.0
H541 H 0.60141 0.19138 0.8999 0.0
H542 H 0.60027 0.14357 0.89 0.0
H543 H 0.64276 0.17047 0.89679 0.0
C544 C 0.96491 0.75875 0.49274 0.0
C545 C 0.98815 0.74004 0.47317 0.0
C546 C 0.97644 0.79329 0.50496 0.0
C547 C 1.01167 0.81004 0.49651 0.0
C548 C 0.036 0.79036 0.4788 0.0
C549 C 0.02412 0.75532 0.46787 0.0
C550 C 0.95002 0.81298 0.52475 0.0
C551 C 0.07365 0.80746 0.46893 0.0
C552 C 0.01661 0.91524 0.48288 0.0
C553 C 0.03304 0.92529 0.51464 0.0
C554 C 1.0111 0.87782 0.47603 0.0
C555 C 0.02123 0.84978 0.50215 0.0
C556 C 0.03854 0.85985 0.53401 0.0
C557 C 0.04473 0.89768 0.53967 0.0
C558 C 0.99349 0.86829 0.44124 0.0
C559 C 0.04881 0.8307 0.56284 0.0
H560 H 0.93701 0.74762 0.49683 0.0
H561 H 0.04262 0.74065 0.45366 0.0
H562 H 0.96324 0.82495 0.54821 0.0
H563 H 0.94063 0.83636 0.50686 0.0
H564 H 0.92599 0.79401 0.53407 0.0
H565 H 0.09059 0.78692 0.45913 0.0
H566 H 0.07191 0.83062 0.44753 0.0
H567 H 0.08735 0.81941 0.49214 0.0
H568 H 1.00778 0.93671 0.46348 0.0
H569 H 0.05708 0.90555 0.56444 0.0
H570 H 0.9664 0.85321 0.44661 0.0
H571 H 1.00983 0.84958 0.4279 0.0
H572 H 0.99024 0.89348 0.42254 0.0
H573 H 0.02392 0.81524 0.57477 0.0
H574 H 0.06502 0.84312 0.58447 0.0
H575 H 0.06446 0.81012 0.55143 0.0
C576 C 0.49287 0.79158 0.54274 0.0
C577 C 0.5003 0.8104 0.57315 0.0
C578 C 0.50042 0.75449 0.54222 0.0
C579 C 0.51517 0.73582 0.57308 0.0
C580 C 0.52318 0.75493 0.6037 0.0
C581 C 0.51556 0.7921 0.60337 0.0
C582 C 0.49174 0.73499 0.50901 0.0
C583 C 0.53873 0.73581 0.63711 0.0
C584 C 0.4993 0.63041 0.58106 0.0
C585 C 0.53212 0.62086 0.56831 0.0
C586 C 0.49373 0.6678 0.58374 0.0
C587 C 0.52165 0.69609 0.57334 0.0
C588 C 0.5552 0.68651 0.56158 0.0
C589 C 0.56006 0.64901 0.55926 0.0
C590 C 0.45765 0.6771 0.59666 0.0
C591 C 0.58557 0.71595 0.55032 0.0
H592 H 0.48032 0.80563 0.51972 0.0
H593 H 0.52043 0.80661 0.62712 0.0
H594 H 0.51616 0.72338 0.49972 0.0
H595 H 0.47087 0.71127 0.51519 0.0
H596 H 0.48165 0.75391 0.48685 0.0
H597 H 0.54473 0.75509 0.6581 0.0
H598 H 0.51934 0.71238 0.6481 0.0
H599 H 0.56399 0.72382 0.63072 0.0
H600 H 0.47765 0.60879 0.58813 0.0
H601 H 0.58559 0.64186 0.54951 0.0
H602 H 0.44389 0.69318 0.57477 0.0
H603 H 0.46159 0.6949 0.61904 0.0
H604 H 0.43962 0.65177 0.60577 0.0
H605 H 0.57713 0.73373 0.52654 0.0
H606 H 0.61065 0.70371 0.54362 0.0
H607 H 0.5918 0.73435 0.57193 0.0
C608 C 0.89498 0.94156 0.78839 0.0
C609 C 0.89243 0.90263 0.79689 0.0
C610 C 0.91139 0.95891 0.75625 0.0
C611 C 0.92562 0.93715 0.73121 0.0
C612 C 0.92259 0.89783 0.73935 0.0
C613 C 0.90634 0.88126 0.77176 0.0
C614 C 0.91402 1.0008 0.74937 0.0
C615 C 0.93673 0.87307 0.71376 0.0
C616 C 0.94241 0.97855 0.63307 0.0
C617 C 0.98009 0.98791 0.63205 0.0
C618 C 0.92446 0.96235 0.66483 0.0
C619 C 0.94427 0.95533 0.69701 0.0
C620 C 0.98225 0.96515 0.6962 0.0
C621 C 0.99952 0.98099 0.66404 0.0
C622 C 0.88414 0.95231 0.6638 0.0
C623 C 1.00484 0.95873 0.72944 0.0
H624 H 0.88489 0.95875 0.80735 0.0
H625 H 0.90425 0.85121 0.77726 0.0
H626 H 0.94285 0.01203 0.74724 0.0
H627 H 0.90089 0.00906 0.72354 0.0
H628 H 0.90117 0.01393 0.77085 0.0
H629 H 0.93161 0.84303 0.72327 0.0
H630 H 0.92385 0.87802 0.68716 0.0
H631 H 0.96627 0.87998 0.71009 0.0
H632 H 0.92682 0.9835 0.60881 0.0
H633 H 0.02854 0.988 0.66404 0.0
H634 H 0.87067 0.96676 0.68388 0.0
H635 H 0.87799 0.92193 0.67094 0.0
H636 H 0.87237 0.95983 0.63707 0.0
H637 H 0.9944 0.97321 0.75129 0.0
H638 H 0.03378 0.96877 0.72497 0.0
H639 H 1.00288 0.92857 0.73866 0.0
C640 C 0.61519 0.0715 0.34574 0.0
C641 C 0.62242 0.10993 0.34737 0.0
C642 C 0.61161 0.05654 0.31275 0.0
C643 C 0.61611 0.08063 0.28078 0.0
C644 C 0.62283 0.11957 0.28232 0.0
C645 C 0.62561 0.13381 0.31571 0.0
C646 C 0.60376 0.01494 0.3121 0.0
C647 C 0.62834 0.14601 0.24879 0.0
C648 C 0.64551 0.03754 0.19923 0.0
C649 C 0.61303 0.03339 0.18019 0.0
C650 C 0.64703 0.05351 0.23177 0.0
C651 C 0.61509 0.0649 0.24578 0.0
C652 C 0.58218 0.06071 0.22665 0.0
C653 C 0.58163 0.04525 0.19388 0.0
C654 C 0.68276 0.05818 0.25116 0.0
C655 C 0.54749 0.07197 0.24104 0.0
H656 H 0.61264 0.05315 0.37035 0.0
H657 H 0.63168 0.16351 0.3171 0.0
H658 H 0.57975 0.00866 0.29513 0.0
H659 H 0.62693 1.00343 0.30016 0.0
H660 H 0.59877 1.00039 0.33925 0.0
H661 H 0.6322 0.17562 0.2546 0.0
H662 H 0.65246 0.13959 0.23425 0.0
H663 H 0.6048 0.14241 0.23063 0.0
H664 H 0.6698 0.02866 0.18838 0.0
H665 H 0.5564 0.04155 0.17934 0.0
H666 H 0.6809 0.04174 0.27768 0.0
H667 H 0.68937 0.08782 0.25591 0.0
H668 H 0.70528 0.04906 0.23601 0.0
H669 H 0.54115 0.0561 0.26734 0.0
H670 H 0.52422 0.06696 0.22274 0.0
H671 H 0.55065 0.10195 0.24539 0.0
C672 C 0.43975 0.55608 0.28577 0.0
C673 C 0.43496 0.59337 0.27466 0.0
C674 C 0.45089 0.54531 0.32077 0.0
C675 C 0.45758 0.57254 0.34523 0.0
C676 C 0.45218 0.61018 0.33432 0.0
C677 C 0.44129 0.6202 0.29905 0.0
C678 C 0.45669 0.50498 0.33121 0.0
C679 C 0.45895 0.64003 0.35959 0.0
C680 C 0.46447 0.54022 0.44447 0.0
C681 C 0.50207 0.54205 0.44947 0.0
C682 C 0.44952 0.55022 0.41074 0.0
C683 C 0.4727 0.5621 0.38133 0.0
C684 C 0.51063 0.56382 0.38623 0.0
C685 C 0.52482 0.55391 0.42019 0.0
C686 C 0.40894 0.54824 0.40659 0.0
C687 C 0.53632 0.57612 0.35555 0.0
H688 H 0.43546 0.53539 0.26679 0.0
H689 H 0.43824 0.64915 0.2903 0.0
H690 H 0.48572 0.50251 0.33724 0.0
H691 H 0.44128 0.49443 0.35581 0.0
H692 H 0.4483 0.48692 0.30976 0.0
H693 H 0.45087 0.66738 0.34786 0.0
H694 H 0.44384 0.63178 0.38485 0.0
H695 H 0.4881 0.64341 0.36654 0.0
H696 H 0.4467 0.53124 0.46697 0.0
H697 H 0.5539 0.55542 0.42374 0.0
H698 H 0.39996 0.52891 0.38642 0.0
H699 H 0.40073 0.57608 0.3967 0.0
H700 H 0.39464 0.53866 0.43211 0.0
H701 H 0.53106 0.55763 0.33385 0.0
H702 H 0.5651 0.57574 0.36379 0.0
H703 H 0.53184 0.60478 0.34427 0.0
C704 C 0.1552 0.40457 0.72654 0.0
C705 C 0.12057 0.39334 0.71403 0.0
C706 C 0.16051 0.41335 0.76195 0.0
C707 C 0.13024 0.41223 0.78472 0.0
C708 C 0.09557 0.39876 0.77268 0.0
C709 C 0.09128 0.38904 0.73759 0.0
C710 C 0.19812 0.42592 0.77415 0.0
C711 C 0.0624 0.39754 0.79579 0.0
C712 C 0.12579 0.42669 0.88303 0.0
C713 C 0.11668 0.46349 0.88044 0.0
C714 C 0.13435 0.41025 0.85213 0.0
C715 C 0.133 0.43107 0.81824 0.0
C716 C 0.12777 0.46941 0.81629 0.0
C717 C 0.1201 0.48516 0.8475 0.0
C718 C 0.14165 0.36983 0.85551 0.0
C719 C 0.12612 0.49289 0.78089 0.0
H720 H 0.17797 0.40742 0.70836 0.0
H721 H 0.06451 0.38042 0.72782 0.0
H722 H 0.20213 0.45679 0.77123 0.0
H723 H 0.20228 0.41627 0.80271 0.0
H724 H 0.21904 0.41546 0.75787 0.0
H725 H 0.0379 0.38418 0.78328 0.0
H726 H 0.0667 0.38204 0.82217 0.0
H727 H 0.05726 0.42633 0.8006 0.0
H728 H 0.12329 0.40996 0.90857 0.0
H729 H 0.11359 0.51382 0.8458 0.0
H730 H 0.16211 0.36472 0.83572 0.0
H731 H 0.11636 0.35233 0.85025 0.0
H732 H 0.15123 0.36077 0.8828 0.0
H733 H 0.15015 0.49033 0.76445 0.0
H734 H 0.12463 0.52283 0.78428 0.0
H735 H 0.10186 0.48287 0.76578 0.0
C736 C 0.77001 0.86905 0.91513 0.0
C737 C 0.79651 0.8937 0.89626 0.0
C738 C 0.73933 0.88173 0.93072 0.0
C739 C 0.73422 0.92032 0.92783 0.0
C740 C 0.76068 0.94536 0.90872 0.0
C741 C 0.7911 0.93192 0.89334 0.0
C742 C 0.71221 0.85359 0.95042 0.0
C743 C 0.75706 0.98668 0.90476 0.0
C744 C 0.63865 0.95136 0.94237 0.0
C745 C 0.64013 0.96105 0.97781 0.0
C746 C 0.66865 0.93819 0.92597 0.0
C747 C 0.70162 0.93443 0.94507 0.0
C748 C 0.70323 0.94418 0.98084 0.0
C749 C 0.67282 0.95716 0.99661 0.0
C750 C 0.665 0.92825 0.88798 0.0
C751 C 0.73733 0.94096 1.00264 0.0
H752 H 0.77293 0.83945 0.91744 0.0
H753 H 0.81113 0.95173 0.8795 0.0
H754 H 0.71007 0.85989 0.97857 0.0
H755 H 0.68508 0.85535 0.93809 0.0
H756 H 0.7196 0.8246 0.95027 0.0
H757 H 0.77934 1.00265 0.88875 0.0
H758 H 0.73095 0.99228 0.8917 0.0
H759 H 0.75695 0.99713 0.93153 0.0
H760 H 0.61387 0.95405 0.92725 0.0
H761 H 0.67479 0.96443 0.0239 0.0
H762 H 0.6701 0.89871 0.88681 0.0
H763 H 0.68558 0.94555 0.87089 0.0
H764 H 0.63778 0.93239 0.87662 0.0
H765 H 0.7444 0.91175 1.00497 0.0
H766 H 0.73463 0.94965 0.02994 0.0
H767 H 0.76017 0.9585 0.98897 0.0
C768 C 0.7251 0.1425 0.46625 0.0
C769 C 0.69779 0.11565 0.45701 0.0
C770 C 0.75895 0.13215 0.47812 0.0
C771 C 0.76549 0.09413 0.48057 0.0
C772 C 0.7369 0.06668 0.47465 0.0
C773 C 0.70331 0.07781 0.46295 0.0
C774 C 0.78864 0.16221 0.48458 0.0
C775 C 0.74268 0.02582 0.47728 0.0
C776 C 0.85739 0.07207 0.45151 0.0
C777 C 0.8736 0.06088 0.48411 0.0
C778 C 0.82245 0.08342 0.45023 0.0
C779 C 0.80319 0.08379 0.48245 0.0
C780 C 0.81961 0.07341 0.51561 0.0
C781 C 0.85474 0.06202 0.51606 0.0
C782 C 0.80599 0.09453 0.41425 0.0
C783 C 0.79986 0.07363 0.55043 0.0
H784 H 0.72102 0.17182 0.46165 0.0
H785 H 0.68196 0.05696 0.45647 0.0
H786 H 0.80488 0.15383 0.50845 0.0
H787 H 0.80712 0.16672 0.46125 0.0
H788 H 0.77771 0.18907 0.4883 0.0
H789 H 0.7167 0.00785 0.47768 0.0
H790 H 0.75856 0.02026 0.45387 0.0
H791 H 0.75832 0.0178 0.50166 0.0
H792 H 0.87213 0.07205 0.42684 0.0
H793 H 0.86708 0.05315 0.54131 0.0
H794 H 0.798 0.12334 0.41335 0.0
H795 H 0.78117 0.07586 0.41003 0.0
H796 H 0.82486 0.09318 0.39181 0.0
H797 H 0.78949 0.10111 0.55216 0.0
H798 H 0.81738 0.06746 0.574 0.0
H799 H 0.77613 0.05249 0.55164 0.0
C800 C 0.2864 0.60689 0.15296 0.0
C801 C 0.31467 0.62728 0.13292 0.0
C802 C 0.25555 0.59089 0.13631 0.0
C803 C 0.25194 0.59661 0.0987 0.0
C804 C 0.28003 0.6173 0.07822 0.0
C805 C 0.31131 0.63166 0.09545 0.0
C806 C 0.2266 0.56814 0.15909 0.0
C807 C 0.27673 0.62493 0.03815 0.0
C808 C 0.18315 0.53118 0.05423 0.0
C809 C 0.1523 0.55049 0.05429 0.0
C810 C 0.21606 0.54608 0.06812 0.0
C811 C 0.21826 0.58168 0.0811 0.0
C812 C 0.18749 0.60207 0.0793 0.0
C813 C 0.15461 0.58582 0.06666 0.0
C814 C 0.24781 0.52287 0.07079 0.0
C815 C 0.18899 0.64061 0.09167 0.0
H816 H 0.2879 0.60383 0.18187 0.0
H817 H 0.33308 0.64641 0.07934 0.0
H818 H 0.20154 0.58256 0.15788 0.0
H819 H 0.21991 0.54065 0.14873 0.0
H820 H 0.23496 0.5635 0.18753 0.0
H821 H 0.30064 0.64226 0.02614 0.0
H822 H 0.27348 0.59834 0.02562 0.0
H823 H 0.25224 0.63952 0.03143 0.0
H824 H 0.18098 0.50352 0.04519 0.0
H825 H 0.13054 0.60056 0.06673 0.0
H826 H 0.25446 0.5158 0.09936 0.0
H827 H 0.27206 0.53885 0.05815 0.0
H828 H 0.24221 0.49657 0.05794 0.0
H829 H 0.19251 0.63891 0.12111 0.0
H830 H 0.16403 0.65434 0.08462 0.0
H831 H 0.21255 0.6584 0.0796 0.0
C832 C 0.20939 0.47254 0.53773 0.0
C833 C 0.18833 0.45723 0.56725 0.0
C834 C 0.24701 0.47987 0.54069 0.0
C835 C 0.26396 0.47195 0.5741 0.0
C836 C 0.24271 0.45824 0.60439 0.0
C837 C 0.20531 0.45019 0.60039 0.0
C838 C 0.26879 0.49355 0.50752 0.0
C839 C 0.25967 0.44991 0.64065 0.0
C840 C 0.35865 0.44146 0.57568 0.0
C841 C 0.37964 0.47416 0.58253 0.0
C842 C 0.32106 0.4407 0.57212 0.0
C843 C 0.30399 0.47329 0.57643 0.0
C844 C 0.32509 0.50648 0.58341 0.0
C845 C 0.36287 0.50665 0.58589 0.0
C846 C 0.29965 0.40497 0.56379 0.0
C847 C 0.30771 0.54145 0.58899 0.0
H848 H 0.19658 0.47708 0.51181 0.0
H849 H 0.18991 0.43703 0.62302 0.0
H850 H 0.28839 0.51751 0.51264 0.0
H851 H 0.28458 0.47101 0.49998 0.0
H852 H 0.25138 0.50209 0.48453 0.0
H853 H 0.23916 0.44502 0.66231 0.0
H854 H 0.27432 0.42463 0.64067 0.0
H855 H 0.27965 0.47323 0.64674 0.0
H856 H 0.37185 0.41656 0.57259 0.0
H857 H 0.37932 0.53181 0.59137 0.0
H858 H 0.28296 0.41013 0.53946 0.0
H859 H 0.28092 0.39465 0.5861 0.0
H860 H 0.3173 0.38273 0.55946 0.0
H861 H 0.29121 0.54982 0.56531 0.0
H862 H 0.32798 0.56503 0.5938 0.0
H863 H 0.28914 0.53602 0.61223 0.0
C864 C 0.89392 0.70655 0.92776 0.0
C865 C 0.90971 0.74302 0.91808 0.0
C866 C 0.91391 0.67836 0.94466 0.0
C867 C 0.9512 0.68613 0.95235 0.0
C868 C 0.9673 0.72308 0.94319 0.0
C869 C 0.94663 0.75078 0.92589 0.0
C870 C 0.89519 0.63969 0.95318 0.0
C871 C 1.00673 0.73317 0.95088 0.0
C872 C 0.9937 0.61534 0.02041 0.0
C873 C 1.01057 0.5929 0.99831 0.0
C874 C 0.97545 0.6462 1.00605 0.0
C875 C 0.97328 0.65511 0.96843 0.0
C876 C 0.99063 0.6328 0.94605 0.0
C877 C 1.00904 0.60241 0.96112 0.0
C878 C 0.95792 0.66897 0.03129 0.0
C879 C 0.98899 0.64041 0.90591 0.0
H880 H 0.86578 0.69964 0.92109 0.0
H881 H 0.95959 0.77835 0.91778 0.0
H882 H 0.90784 0.61975 0.93777 0.0
H883 H 0.89844 0.6304 0.98195 0.0
H884 H 0.86587 0.63825 0.94675 0.0
H885 H 0.01472 0.76346 0.94487 0.0
H886 H 1.01279 0.72497 0.97939 0.0
H887 H 0.0236 0.71761 0.93458 0.0
H888 H 0.9945 0.60864 0.04913 0.0
H889 H 0.02167 0.58552 0.94351 0.0
H890 H 0.92819 0.66618 0.02732 0.0
H891 H 0.96743 0.69891 0.02544 0.0
H892 H 0.96382 0.66021 0.05975 0.0
H893 H 0.96046 0.63691 0.89681 0.0
H894 H 1.00475 0.62153 0.89208 0.0
H895 H 0.99955 0.66963 0.89762 0.0
C896 C 0.43375 0.72953 0.10516 0.0
C897 C 0.41494 0.73002 0.13714 0.0
C898 C 0.45279 0.76205 0.08891 0.0
C899 C 0.45209 0.79596 0.1046 0.0
C900 C 0.43266 0.79657 0.13675 0.0
C901 C 0.41467 0.76339 0.15291 0.0
C902 C 0.4739 0.76006 0.05518 0.0
C903 C 0.43059 0.83231 0.15387 0.0
C904 C 0.52505 0.8758 0.08358 0.0
C905 C 0.50803 0.89861 0.05758 0.0
C906 C 0.50755 0.84178 0.09833 0.0
C907 C 0.4718 0.83081 0.08752 0.0
C908 C 0.45461 0.85361 0.06102 0.0
C909 C 0.47313 0.88703 0.04603 0.0
C910 C 0.52715 0.8178 0.12582 0.0
C911 C 0.41625 0.84329 0.04934 0.0
H912 H 0.43396 0.70351 0.09319 0.0
H913 H 0.39987 0.76359 0.17757 0.0
H914 H 0.46348 0.77868 0.03305 0.0
H915 H 0.50271 0.76994 0.05926 0.0
H916 H 0.47237 0.73134 0.0469 0.0
H917 H 0.41339 0.82825 0.17817 0.0
H918 H 0.45807 0.84378 0.16135 0.0
H919 H 0.41947 0.85346 0.1345 0.0
H920 H 0.55211 0.8846 0.09245 0.0
H921 H 0.45975 0.90479 0.02619 0.0
H922 H 0.52695 0.78915 0.11768 0.0
H923 H 0.51306 0.81564 0.1519 0.0
H924 H 0.55564 0.82913 0.1296 0.0
H925 H 0.41394 0.81544 0.03917 0.0
H926 H 0.40692 0.8638 0.02814 0.0
H927 H 0.39783 0.84155 0.0726 0.0
C928 C 0.04452 0.29557 0.63555 0.0
C929 C 0.07087 0.31884 0.61555 0.0
C930 C 0.03274 0.25999 0.62561 0.0
C931 C 0.04768 0.24749 0.59497 0.0
C932 C 0.07288 0.27157 0.5737 0.0
C933 C 0.08428 0.3068 0.58433 0.0
C934 C 1.00573 0.23511 0.64889 0.0
C935 C 0.08955 0.2593 0.54086 0.0
C936 C 0.06082 0.14562 0.59226 0.0
C937 C 0.03412 0.13432 0.56785 0.0
C938 C 0.06444 0.18195 0.60232 0.0
C939 C 0.04087 0.20786 0.58754 0.0
C940 C 1.01302 0.19641 0.56381 0.0
C941 C 1.0099 0.15964 0.55426 0.0
C942 C 0.09441 0.19293 0.62787 0.0
C943 C 0.98739 0.22332 0.54758 0.0
H944 H 0.03362 0.30487 0.6594 0.0
H945 H 0.10505 0.32425 0.56896 0.0
H946 H 0.98401 0.22223 0.63232 0.0
H947 H 0.01946 0.21215 0.66327 0.0
H948 H 0.99325 0.2505 0.66895 0.0
H949 H 0.10561 0.28265 0.52514 0.0
H950 H 0.10764 0.23728 0.549 0.0
H951 H 0.06828 0.2472 0.52333 0.0
H952 H 0.0794 0.12613 0.60327 0.0
H953 H 0.98912 0.15102 0.53551 0.0
H954 H 0.08332 0.20557 0.6506 0.0
H955 H 0.11423 0.2142 0.61396 0.0
H956 H 0.10896 0.16883 0.63866 0.0
H957 H 0.97557 0.23777 0.5687 0.0
H958 H 0.96509 0.20923 0.53248 0.0
H959 H 1.00245 0.24499 0.52907 0.0
C960 C 0.58551 0.24303 0.49733 0.0
C961 C 0.56933 0.23422 0.46503 0.0
C962 C 0.58477 0.27869 0.50864 0.0
C963 C 0.56787 0.30612 0.48679 0.0
C964 C 0.55177 0.29738 0.45396 0.0
C965 C 0.55285 0.26147 0.44339 0.0
C966 C 0.60221 0.28707 0.5438 0.0
C967 C 0.53366 0.32601 0.42992 0.0
C968 C 0.53497 0.38738 0.52889 0.0
C969 C 0.5622 0.41601 0.51903 0.0
C970 C 0.53675 0.35139 0.51891 0.0
C971 C 0.56645 0.34384 0.49853 0.0
C972 C 0.59431 0.37242 0.48886 0.0
C973 C 0.59188 0.40825 0.49929 0.0
C974 C 0.50661 0.32155 0.52981 0.0
C975 C 0.62636 0.36527 0.46706 0.0
H976 H 0.59904 0.22207 0.51353 0.0
H977 H 0.54118 0.25471 0.41798 0.0
H978 H 0.62382 0.31035 0.5393 0.0
H979 H 0.58192 0.29612 0.56171 0.0
H980 H 0.61415 0.26257 0.55763 0.0
H981 H 0.52259 0.31472 0.40519 0.0
H982 H 0.51126 0.3361 0.44442 0.0
H983 H 0.55328 0.35047 0.42225 0.0
H984 H 0.51199 0.3931 0.54428 0.0
H985 H 0.61298 0.43026 0.49159 0.0
H986 H 0.51775 0.29746 0.54515 0.0
H987 H 0.49324 0.31125 0.50566 0.0
H988 H 0.48584 0.33181 0.54642 0.0
H989 H 0.64035 0.34212 0.48076 0.0
H990 H 0.64614 0.39025 0.46252 0.0
H991 H 0.61703 0.35658 0.44073 0.0
loop_
_geom_bond_atom_site_label_1
_geom_bond_atom_site_label_2
_geom_bond_distance
_geom_bond_site_symmetry_2
_ccdc_geom_bond_type
H0 C7 0.929 . S
H1 C10 0.930 . S
H2 C12 0.929 . S
H3 C4 0.969 . S
C4 H3 0.969 . S
C4 O5 1.550 . S
C4 H6 0.973 . S
O5 C4 1.550 . S
O5 C11 1.412 . S
H6 C4 0.973 . S
C7 H0 0.929 . S
C7 C8 1.400 . S
C7 C9 1.364 . S
C8 C7 1.400 . S
C8 C12 1.377 . S
C9 C7 1.364 . S
C9 C10 1.374 . S
C10 H1 0.930 . S
C10 C9 1.374 . S
C10 C11 1.383 . S
C11 O5 1.412 . S
C11 C10 1.383 . S
C11 C12 1.394 . S
C12 H2 0.929 . S
C12 C8 1.377 . S
C12 C11 1.394 . S
H13 C20 0.929 . S
H14 C23 0.930 . S
H15 C25 0.929 . S
H16 C17 0.969 . S
C17 H16 0.969 . S
C17 O18 1.550 . S
C17 H19 0.973 . S
O18 C17 1.550 . S
O18 C24 1.412 . S
H19 C17 0.973 . S
C20 H13 0.929 . S
C20 C21 1.400 . S
C20 C22 1.364 . S
C21 C20 1.400 . S
C21 C25 1.377 . S
C22 C20 1.364 . S
C22 C23 1.374 . S
C23 H14 0.930 . S
C23 C22 1.374 . S
C23 C24 1.383 . S
C24 O18 1.412 . S
C24 C23 1.383 . S
C24 C25 1.394 . S
C25 H15 0.929 . S
C25 C21 1.377 . S
C25 C24 1.394 . S
H26 C33 0.929 . S
H27 C36 0.930 . S
H28 C38 0.929 . S
H29 C30 0.969 . S
C30 H29 0.969 . S
C30 O31 1.550 . S
C30 H32 0.973 . S
O31 C30 1.550 . S
O31 C37 1.412 . S
H32 C30 0.973 . S
C33 H26 0.929 . S
C33 C34 1.400 . S
C33 C35 1.364 . S
C34 C33 1.400 . S
C34 C38 1.377 . S
C35 C33 1.364 . S
C35 C36 1.374 . S
C36 H27 0.930 . S
C36 C35 1.374 . S
C36 C37 1.383 . S
C37 O31 1.412 . S
C37 C36 1.383 . S
C37 C38 1.394 . S
C38 H28 0.929 . S
C38 C34 1.377 . S
C38 C37 1.394 . S
H39 C46 0.929 . S
H40 C49 0.930 . S
H41 C51 0.929 . S
H42 C43 0.969 . S
C43 H42 0.969 . S
C43 O44 1.550 . S
C43 H45 0.973 . S
O44 C43 1.550 . S
O44 C50 1.412 . S
H45 C43 0.973 . S
C46 H39 0.929 . S
C46 C47 1.400 . S
C46 C48 1.364 . S
C47 C46 1.400 . S
C47 C51 1.377 . S
C48 C46 1.364 . S
C48 C49 1.374 . S
C49 H40 0.930 . S
C49 C48 1.374 . S
C49 C50 1.383 . S
C50 O44 1.412 . S
C50 C49 1.383 . S
C50 C51 1.394 . S
C51 H41 0.929 . S
C51 C47 1.377 . S
C51 C50 1.394 . S
H52 C59 0.929 . S
H53 C62 0.930 . S
H54 C64 0.929 . S
H55 C56 0.969 . S
C56 H55 0.969 . S
C56 O57 1.550 . S
C56 H58 0.973 . S
O57 C56 1.550 . S
O57 C63 1.412 . S
H58 C56 0.973 . S
C59 H52 0.929 . S
C59 C60 1.400 . S
C59 C61 1.364 . S
C60 C59 1.400 . S
C60 C64 1.377 . S
C61 C59 1.364 . S
C61 C62 1.374 . S
C62 H53 0.930 . S
C62 C61 1.374 . S
C62 C63 1.383 . S
C63 O57 1.412 . S
C63 C62 1.383 . S
C63 C64 1.394 . S
C64 H54 0.929 . S
C64 C60 1.377 . S
C64 C63 1.394 . S
H65 C72 0.929 . S
H66 C75 0.930 . S
H67 C77 0.929 . S
H68 C69 0.969 . S
C69 H68 0.969 . S
C69 O70 1.550 . S
C69 H71 0.973 . S
O70 C69 1.550 . S
O70 C76 1.412 . S
H71 C69 0.973 . S
C72 H65 0.929 . S
C72 C73 1.400 . S
C72 C74 1.364 . S
C73 C72 1.400 . S
C73 C77 1.377 . S
C74 C72 1.364 . S
C74 C75 1.374 . S
C75 H66 0.930 . S
C75 C74 1.374 . S
C75 C76 1.383 . S
C76 O70 1.412 . S
C76 C75 1.383 . S
C76 C77 1.394 . S
C77 H67 0.929 . S
C77 C73 1.377 . S
C77 C76 1.394 . S
H78 C85 0.929 . S
H79 C88 0.930 . S
H80 C90 0.929 . S
H81 C82 0.969 . S
C82 H81 0.969 . S
C82 O83 1.550 . S
C82 H84 0.973 . S
O83 C82 1.550 . S
O83 C89 1.412 . S
H84 C82 0.973 . S
C85 H78 0.929 . S
C85 C86 1.400 . S
C85 C87 1.364 . S
C86 C85 1.400 . S
C86 C90 1.377 . S
C87 C85 1.364 . S
C87 C88 1.374 . S
C88 H79 0.930 . S
C88 C87 1.374 . S
C88 C89 1.383 . S
C89 O83 1.412 . S
C89 C88 1.383 . S
C89 C90 1.394 . S
C90 H80 0.929 . S
C90 C86 1.377 . S
C90 C89 1.394 . S
H91 C98 0.929 . S
H92 C101 0.930 . S
H93 C103 0.929 . S
H94 C95 0.969 . S
C95 H94 0.969 . S
C95 O96 1.550 . S
C95 H97 0.973 . S
O96 C95 1.550 . S
O96 C102 1.412 . S
H97 C95 0.973 . S
C98 H91 0.929 . S
C98 C99 1.400 . S
C98 C100 1.364 . S
C99 C98 1.400 . S
C99 C103 1.377 . S
C100 C98 1.364 . S
C100 C101 1.374 . S
C101 H92 0.930 . S
C101 C100 1.374 . S
C101 C102 1.383 . S
C102 O96 1.412 . S
C102 C101 1.383 . S
C102 C103 1.394 . S
C103 H93 0.929 . S
C103 C99 1.377 . S
C103 C102 1.394 . S
Co104 N109 2.057 . S
Co104 O121 2.021 . S
Co104 O124 2.070 . S
Co104 O128 2.117 1_545 S
Co104 O129 2.020 . S
C105 O125 1.259 1_655 S
C105 O128 1.258 . S
Co106 N115 2.053 1_545 S
Co106 O122 2.117 . S
Co106 O123 2.020 . S
Co106 O125 2.021 1_545 S
Co106 O130 2.062 1_545 S
C107 N109 1.316 . S
C107 N110 1.347 . S
C107 H112 0.931 . S
C108 N109 1.375 . S
C108 C111 1.350 . S
C108 H113 0.930 1_545 S
N109 Co104 2.057 . S
N109 C107 1.316 . S
N109 C108 1.375 . S
N110 C107 1.347 . S
N110 C111 1.373 . S
C111 C108 1.350 . S
C111 N110 1.373 . S
C111 H132 0.931 . S
H112 C107 0.931 . S
H113 C108 0.930 1_565 S
C114 O121 1.259 1_455 S
C114 O122 1.258 . S
N115 Co106 2.053 1_565 S
N115 C116 1.340 . S
N115 C117 1.357 1_565 S
C116 N115 1.340 . S
C116 N118 1.347 . S
C116 H127 0.931 . S
C117 N115 1.357 1_545 S
C117 C119 1.350 . S
C117 H126 0.930 . S
N118 C116 1.347 . S
N118 C119 1.373 1_565 S
C119 C117 1.350 . S
C119 N118 1.373 1_545 S
C119 H133 0.931 . S
C120 O123 1.256 . S
C120 O124 1.235 1_455 S
O121 Co104 2.021 . S
O121 C114 1.259 1_655 S
O122 Co106 2.117 . S
O122 C114 1.258 . S
O123 Co106 2.020 . S
O123 C120 1.256 . S
O124 Co104 2.070 . S
O124 C120 1.235 1_655 S
O125 C105 1.259 1_455 S
O125 Co106 2.021 1_565 S
H126 C117 0.930 . S
H127 C116 0.931 . S
O128 Co104 2.117 1_565 S
O128 C105 1.258 . S
O129 Co104 2.020 . S
O129 C131 1.256 1_545 S
O130 Co106 2.062 1_565 S
O130 C131 1.255 1_455 S
C131 O129 1.256 1_565 S
C131 O130 1.255 1_655 S
H132 C111 0.931 . S
H133 C119 0.931 . S
Co134 N139 2.057 1_545 S
Co134 O151 2.021 . S
Co134 O154 2.062 1_545 S
Co134 O158 2.117 1_546 S
Co134 O159 2.020 . S
C135 O155 1.259 . S
C135 O158 1.258 . S
Co136 N145 2.057 . S
Co136 O152 2.117 . S
Co136 O153 2.020 . S
Co136 O155 2.021 1_545 S
Co136 O160 2.062 . S
C137 N139 1.316 . S
C137 N140 1.347 . S
C137 H142 0.931 1_565 S
C138 N139 1.375 . S
C138 C141 1.350 . S
C138 H143 0.930 . S
N139 Co134 2.057 1_565 S
N139 C137 1.316 . S
N139 C138 1.375 . S
N140 C137 1.347 . S
N140 C141 1.373 . S
C141 C138 1.350 . S
C141 N140 1.373 . S
C141 H162 0.931 . S
H142 C137 0.931 1_545 S
H143 C138 0.930 . S
C144 O151 1.259 . S
C144 O152 1.258 1_556 S
N145 Co136 2.057 . S
N145 C146 1.316 . S
N145 C147 1.375 . S
C146 N145 1.316 . S
C146 N148 1.347 . S
C146 H157 0.931 . S
C147 N145 1.375 . S
C147 C149 1.350 . S
C147 H156 0.930 . S
N148 C146 1.347 . S
N148 C149 1.373 . S
C149 C147 1.350 . S
C149 N148 1.373 . S
C149 H163 0.931 . S
C150 O153 1.256 1_566 S
C150 O154 1.255 . S
O151 Co134 2.021 . S
O151 C144 1.259 . S
O152 Co136 2.117 . S
O152 C144 1.258 1_554 S
O153 Co136 2.020 . S
O153 C150 1.256 1_544 S
O154 Co134 2.062 1_565 S
O154 C150 1.255 . S
O155 C135 1.259 . S
O155 Co136 2.021 1_565 S
H156 C147 0.930 . S
H157 C146 0.931 . S
O158 Co134 2.117 1_564 S
O158 C135 1.258 . S
O159 Co134 2.020 . S
O159 C161 1.256 1_556 S
O160 Co136 2.062 . S
O160 C161 1.255 . S
C161 O159 1.256 1_554 S
C161 O160 1.255 . S
H162 C141 0.931 . S
H163 C149 0.931 . S
Co164 N169 2.057 . S
Co164 O181 2.021 . S
Co164 O184 2.062 . S
Co164 O188 2.117 . S
Co164 O189 2.020 . S
C165 O185 1.259 . S
C165 O188 1.258 . S
Co166 N175 2.057 . S
Co166 O182 2.117 . S
Co166 O183 2.020 . S
Co166 O185 2.021 . S
Co166 O190 2.062 . S
C167 N169 1.316 . S
C167 N170 1.347 . S
C167 H172 0.931 . S
C168 N169 1.375 . S
C168 C171 1.350 . S
C168 H173 0.930 . S
N169 Co164 2.057 . S
N169 C167 1.316 . S
N169 C168 1.375 . S
N170 C167 1.347 . S
N170 C171 1.373 . S
C171 C168 1.350 . S
C171 N170 1.373 . S
C171 H192 0.931 . S
H172 C167 0.931 . S
H173 C168 0.930 . S
C174 O181 1.259 . S
C174 O182 1.258 . S
N175 Co166 2.057 . S
N175 C176 1.316 . S
N175 C177 1.375 . S
C176 N175 1.316 . S
C176 N178 1.347 . S
C176 H187 0.931 . S
C177 N175 1.375 . S
C177 C179 1.350 . S
C177 H186 0.930 . S
N178 C176 1.347 . S
N178 C179 1.373 . S
C179 C177 1.350 . S
C179 N178 1.373 . S
C179 H193 0.931 . S
C180 O183 1.256 . S
C180 O184 1.255 . S
O181 Co164 2.021 . S
O181 C174 1.259 . S
O182 Co166 2.117 . S
O182 C174 1.258 . S
O183 Co166 2.020 . S
O183 C180 1.256 . S
O184 Co164 2.062 . S
O184 C180 1.255 . S
O185 C165 1.259 . S
O185 Co166 2.021 . S
H186 C177 0.930 . S
H187 C176 0.931 . S
O188 Co164 2.117 . S
O188 C165 1.258 . S
O189 Co164 2.020 . S
O189 C191 1.256 . S
O190 Co166 2.062 . S
O190 C191 1.255 . S
C191 O189 1.256 . S
C191 O190 1.255 . S
H192 C171 0.931 . S
H193 C179 0.931 . S
Co194 N199 2.057 . S
Co194 O211 2.021 1_556 S
Co194 O214 2.062 1_556 S
Co194 O218 2.117 1_455 S
Co194 O219 2.020 . S
C195 O215 1.259 . S
C195 O218 1.258 1_554 S
Co196 N205 2.057 . S
Co196 O212 2.117 . S
Co196 O213 2.020 . S
Co196 O215 2.021 1_455 S
Co196 O220 2.062 . S
C197 N199 1.316 . S
C197 N200 1.347 . S
C197 H202 0.931 . S
C198 N199 1.375 . S
C198 C201 1.350 . S
C198 H203 0.930 1_455 S
N199 Co194 2.057 . S
N199 C197 1.316 . S
N199 C198 1.375 . S
N200 C197 1.347 . S
N200 C201 1.373 . S
C201 C198 1.350 . S
C201 N200 1.373 . S
C201 H222 0.931 . S
H202 C197 0.931 . S
H203 C198 0.930 1_655 S
C204 O211 1.259 . S
C204 O212 1.258 . S
N205 Co196 2.057 . S
N205 C206 1.316 1_455 S
N205 C207 1.375 . S
C206 N205 1.316 1_655 S
C206 N208 1.347 . S
C206 H217 0.931 . S
C207 N205 1.375 . S
C207 C209 1.350 . S
C207 H216 0.930 . S
N208 C206 1.347 . S
N208 C209 1.373 1_655 S
C209 C207 1.350 . S
C209 N208 1.373 1_455 S
C209 H223 0.931 . S
C210 O213 1.256 . S
C210 O214 1.255 . S
O211 Co194 2.021 1_554 S
O211 C204 1.259 . S
O212 Co196 2.117 . S
O212 C204 1.258 . S
O213 Co196 2.020 . S
O213 C210 1.256 . S
O214 Co194 2.062 1_554 S
O214 C210 1.255 . S
O215 C195 1.259 . S
O215 Co196 2.021 1_655 S
H216 C207 0.930 . S
H217 C206 0.931 . S
O218 Co194 2.117 1_655 S
O218 C195 1.258 1_556 S
O219 Co194 2.020 . S
O219 C221 1.256 1_556 S
O220 Co196 2.062 . S
O220 C221 1.255 . S
C221 O219 1.256 1_554 S
C221 O220 1.255 . S
H222 C201 0.931 . S
H223 C209 0.931 . S
C224 C225 1.391 . S
C224 C226 1.394 . S
C224 H240 0.931 . S
C225 C224 1.391 . S
C225 C229 1.376 . S
C226 C224 1.394 . S
C226 C227 1.369 . S
C226 C230 1.531 . S
C227 C226 1.369 . S
C227 C228 1.410 . S
C227 C235 1.503 . S
C228 C227 1.410 . S
C228 C229 1.392 . S
C228 C231 1.511 . S
C229 C225 1.376 . S
C229 C228 1.392 . S
C229 H241 0.929 . S
C230 C226 1.531 . S
C230 H242 0.960 . S
C230 H243 0.962 . S
C230 H244 0.960 1_545 S
C231 C228 1.511 . S
C231 H245 0.961 . S
C231 H246 0.961 . S
C231 H247 0.961 . S
C232 C233 1.370 . S
C232 C234 1.363 . S
C232 H248 0.931 . S
C233 C232 1.370 . S
C233 C237 1.408 . S
C234 C232 1.363 . S
C234 C235 1.370 . S
C234 C238 1.524 . S
C235 C227 1.503 . S
C235 C234 1.370 . S
C235 C236 1.403 . S
C236 C235 1.403 . S
C236 C237 1.404 . S
C236 C239 1.539 . S
C237 C233 1.408 . S
C237 C236 1.404 . S
C237 H249 0.930 . S
C238 C234 1.524 . S
C238 H250 0.956 . S
C238 H251 0.961 . S
C238 H252 0.961 . S
C239 C236 1.539 . S
C239 H253 0.958 1_545 S
C239 H254 0.961 . S
C239 H255 0.960 . S
H240 C224 0.931 . S
H241 C229 0.929 . S
H242 C230 0.960 . S
H243 C230 0.962 . S
H244 C230 0.960 1_565 S
H245 C231 0.961 . S
H246 C231 0.961 . S
H247 C231 0.961 . S
H248 C232 0.931 . S
H249 C237 0.930 . S
H250 C238 0.956 . S
H251 C238 0.961 . S
H252 C238 0.961 . S
H253 C239 0.958 1_565 S
H254 C239 0.961 . S
H255 C239 0.960 . S
C256 C257 1.391 . S
C256 C258 1.394 . S
C256 H272 0.931 . S
C257 C256 1.391 . S
C257 C261 1.376 . S
C258 C256 1.394 . S
C258 C259 1.369 . S
C258 C262 1.531 . S
C259 C258 1.369 . S
C259 C260 1.410 . S
C259 C267 1.503 . S
C260 C259 1.410 . S
C260 C261 1.392 . S
C260 C263 1.511 . S
C261 C257 1.376 . S
C261 C260 1.392 . S
C261 H273 0.929 . S
C262 C258 1.531 . S
C262 H274 0.960 . S
C262 H275 0.962 . S
C262 H276 0.960 . S
C263 C260 1.511 . S
C263 H277 0.961 . S
C263 H278 0.961 . S
C263 H279 0.961 . S
C264 C265 1.370 . S
C264 C266 1.363 . S
C264 H280 0.931 . S
C265 C264 1.370 . S
C265 C269 1.408 . S
C266 C264 1.363 . S
C266 C267 1.370 . S
C266 C270 1.524 . S
C267 C259 1.503 . S
C267 C266 1.370 . S
C267 C268 1.403 . S
C268 C267 1.403 . S
C268 C269 1.404 . S
C268 C271 1.539 1_565 S
C269 C265 1.408 . S
C269 C268 1.404 . S
C269 H281 0.930 1_565 S
C270 C266 1.524 . S
C270 H282 0.956 . S
C270 H283 0.961 . S
C270 H284 0.961 . S
C271 C268 1.539 1_545 S
C271 H285 0.958 . S
C271 H286 0.961 . S
C271 H287 0.960 . S
H272 C256 0.931 . S
H273 C261 0.929 . S
H274 C262 0.960 . S
H275 C262 0.962 . S
H276 C262 0.960 . S
H277 C263 0.961 . S
H278 C263 0.961 . S
H279 C263 0.961 . S
H280 C264 0.931 . S
H281 C269 0.930 1_545 S
H282 C270 0.956 . S
H283 C270 0.961 . S
H284 C270 0.961 . S
H285 C271 0.958 . S
H286 C271 0.961 . S
H287 C271 0.960 . S
C288 C289 1.391 . S
C288 C290 1.394 . S
C288 H304 0.931 . S
C289 C288 1.391 . S
C289 C293 1.376 . S
C290 C288 1.394 . S
C290 C291 1.369 . S
C290 C294 1.531 . S
C291 C290 1.369 . S
C291 C292 1.410 . S
C291 C299 1.503 . S
C292 C291 1.410 . S
C292 C293 1.392 . S
C292 C295 1.511 . S
C293 C289 1.376 . S
C293 C292 1.392 . S
C293 H305 0.929 . S
C294 C290 1.531 . S
C294 H306 0.960 . S
C294 H307 0.962 . S
C294 H308 0.960 . S
C295 C292 1.511 . S
C295 H309 0.961 . S
C295 H310 0.961 . S
C295 H311 0.961 . S
C296 C297 1.370 . S
C296 C298 1.363 . S
C296 H312 0.931 . S
C297 C296 1.370 . S
C297 C301 1.408 . S
C298 C296 1.363 . S
C298 C299 1.370 . S
C298 C302 1.524 . S
C299 C291 1.503 . S
C299 C298 1.370 . S
C299 C300 1.403 . S
C300 C299 1.403 . S
C300 C301 1.404 . S
C300 C303 1.539 . S
C301 C297 1.408 . S
C301 C300 1.404 . S
C301 H313 0.930 . S
C302 C298 1.524 . S
C302 H314 0.956 . S
C302 H315 0.961 . S
C302 H316 0.961 . S
C303 C300 1.539 . S
C303 H317 0.958 . S
C303 H318 0.961 . S
C303 H319 0.960 . S
H304 C288 0.931 . S
H305 C293 0.929 . S
H306 C294 0.960 . S
H307 C294 0.962 . S
H308 C294 0.960 . S
H309 C295 0.961 . S
H310 C295 0.961 . S
H311 C295 0.961 . S
H312 C296 0.931 . S
H313 C301 0.930 . S
H314 C302 0.956 . S
H315 C302 0.961 . S
H316 C302 0.961 . S
H317 C303 0.958 . S
H318 C303 0.961 . S
H319 C303 0.960 . S
C320 C321 1.391 1_455 S
C320 C322 1.394 . S
C320 H336 0.931 . S
C321 C320 1.391 1_655 S
C321 C325 1.376 . S
C322 C320 1.394 . S
C322 C323 1.369 1_455 S
C322 C326 1.531 . S
C323 C322 1.369 1_655 S
C323 C324 1.410 . S
C323 C331 1.503 . S
C324 C323 1.410 . S
C324 C325 1.392 . S
C324 C327 1.511 . S
C325 C321 1.376 . S
C325 C324 1.392 . S
C325 H337 0.929 . S
C326 C322 1.531 . S
C326 H338 0.960 . S
C326 H339 0.962 . S
C326 H340 0.960 . S
C327 C324 1.511 . S
C327 H341 0.961 . S
C327 H342 0.961 . S
C327 H343 0.961 . S
C328 C329 1.370 . S
C328 C330 1.363 . S
C328 H344 0.931 . S
C329 C328 1.370 . S
C329 C333 1.408 . S
C330 C328 1.363 . S
C330 C331 1.370 . S
C330 C334 1.524 . S
C331 C323 1.503 . S
C331 C330 1.370 . S
C331 C332 1.403 . S
C332 C331 1.403 . S
C332 C333 1.404 . S
C332 C335 1.539 . S
C333 C329 1.408 . S
C333 C332 1.404 . S
C333 H345 0.930 . S
C334 C330 1.524 . S
C334 H346 0.956 1_655 S
C334 H347 0.961 . S
C334 H348 0.961 . S
C335 C332 1.539 . S
C335 H349 0.958 . S
C335 H350 0.961 . S
C335 H351 0.960 . S
H336 C320 0.931 . S
H337 C325 0.929 . S
H338 C326 0.960 . S
H339 C326 0.962 . S
H340 C326 0.960 . S
H341 C327 0.961 . S
H342 C327 0.961 . S
H343 C327 0.961 . S
H344 C328 0.931 . S
H345 C333 0.930 . S
H346 C334 0.956 1_455 S
H347 C334 0.961 . S
H348 C334 0.961 . S
H349 C335 0.958 . S
H350 C335 0.961 . S
H351 C335 0.960 . S
C352 C353 1.391 . S
C352 C354 1.394 . S
C352 H368 0.931 . S
C353 C352 1.391 . S
C353 C357 1.376 . S
C354 C352 1.394 . S
C354 C355 1.369 . S
C354 C358 1.531 . S
C355 C354 1.369 . S
C355 C356 1.410 . S
C355 C363 1.503 . S
C356 C355 1.410 . S
C356 C357 1.392 . S
C356 C359 1.511 . S
C357 C353 1.376 . S
C357 C356 1.392 . S
C357 H369 0.929 . S
C358 C354 1.531 . S
C358 H370 0.960 . S
C358 H371 0.962 . S
C358 H372 0.960 . S
C359 C356 1.511 . S
C359 H373 0.961 . S
C359 H374 0.961 . S
C359 H375 0.961 . S
C360 C361 1.370 . S
C360 C362 1.363 . S
C360 H376 0.931 . S
C361 C360 1.370 . S
C361 C365 1.408 . S
C362 C360 1.363 . S
C362 C363 1.370 . S
C362 C366 1.524 . S
C363 C355 1.503 . S
C363 C362 1.370 . S
C363 C364 1.403 . S
C364 C363 1.403 . S
C364 C365 1.404 . S
C364 C367 1.539 1_545 S
C365 C361 1.408 . S
C365 C364 1.404 . S
C365 H377 0.930 1_545 S
C366 C362 1.524 . S
C366 H378 0.956 . S
C366 H379 0.961 . S
C366 H380 0.961 . S
C367 C364 1.539 1_565 S
C367 H381 0.958 . S
C367 H382 0.961 . S
C367 H383 0.960 . S
H368 C352 0.931 . S
H369 C357 0.929 . S
H370 C358 0.960 . S
H371 C358 0.962 . S
H372 C358 0.960 . S
H373 C359 0.961 . S
H374 C359 0.961 . S
H375 C359 0.961 . S
H376 C360 0.931 . S
H377 C365 0.930 1_565 S
H378 C366 0.956 . S
H379 C366 0.961 . S
H380 C366 0.961 . S
H381 C367 0.958 . S
H382 C367 0.961 . S
H383 C367 0.960 . S
C384 C385 1.391 . S
C384 C386 1.394 . S
C384 H400 0.931 . S
C385 C384 1.391 . S
C385 C389 1.376 . S
C386 C384 1.394 . S
C386 C387 1.369 . S
C386 C390 1.531 . S
C387 C386 1.369 . S
C387 C388 1.410 . S
C387 C395 1.503 . S
C388 C387 1.410 . S
C388 C389 1.392 . S
C388 C391 1.511 . S
C389 C385 1.376 . S
C389 C388 1.392 . S
C389 H401 0.929 . S
C390 C386 1.531 . S
C390 H402 0.960 . S
C390 H403 0.962 . S
C390 H404 0.960 . S
C391 C388 1.511 . S
C391 H405 0.961 1_565 S
C391 H406 0.961 . S
C391 H407 0.961 . S
C392 C393 1.370 . S
C392 C394 1.363 . S
C392 H408 0.931 . S
C393 C392 1.370 . S
C393 C397 1.408 . S
C394 C392 1.363 . S
C394 C395 1.370 . S
C394 C398 1.524 . S
C395 C387 1.503 . S
C395 C394 1.370 . S
C395 C396 1.403 . S
C396 C395 1.403 . S
C396 C397 1.404 . S
C396 C399 1.539 . S
C397 C393 1.408 . S
C397 C396 1.404 . S
C397 H409 0.930 . S
C398 C394 1.524 . S
C398 H410 0.956 . S
C398 H411 0.961 . S
C398 H412 0.961 . S
C399 C396 1.539 . S
C399 H413 0.958 . S
C399 H414 0.961 . S
C399 H415 0.960 . S
H400 C384 0.931 . S
H401 C389 0.929 . S
H402 C390 0.960 . S
H403 C390 0.962 . S
H404 C390 0.960 . S
H405 C391 0.961 1_545 S
H406 C391 0.961 . S
H407 C391 0.961 . S
H408 C392 0.931 . S
H409 C397 0.930 . S
H410 C398 0.956 . S
H411 C398 0.961 . S
H412 C398 0.961 . S
H413 C399 0.958 . S
H414 C399 0.961 . S
H415 C399 0.960 . S
C416 C417 1.391 . S
C416 C418 1.394 . S
C416 H432 0.931 . S
C417 C416 1.391 . S
C417 C421 1.376 . S
C418 C416 1.394 . S
C418 C419 1.369 . S
C418 C422 1.531 . S
C419 C418 1.369 . S
C419 C420 1.410 . S
C419 C427 1.503 . S
C420 C419 1.410 . S
C420 C421 1.392 . S
C420 C423 1.511 . S
C421 C417 1.376 . S
C421 C420 1.392 . S
C421 H433 0.929 . S
C422 C418 1.531 . S
C422 H434 0.960 . S
C422 H435 0.962 . S
C422 H436 0.960 . S
C423 C420 1.511 . S
C423 H437 0.961 . S
C423 H438 0.961 . S
C423 H439 0.961 . S
C424 C425 1.370 1_554 S
C424 C426 1.356 1_554 S
C424 H440 0.931 . S
C425 C424 1.370 1_556 S
C425 C429 1.408 . S
C426 C424 1.356 1_556 S
C426 C427 1.389 . S
C426 C430 1.513 1_556 S
C427 C419 1.503 . S
C427 C426 1.389 . S
C427 C428 1.403 . S
C428 C427 1.403 . S
C428 C429 1.404 . S
C428 C431 1.539 . S
C429 C425 1.408 . S
C429 C428 1.404 . S
C429 H441 0.930 . S
C430 C426 1.513 1_554 S
C430 H442 0.956 . S
C430 H443 0.961 . S
C430 H444 0.961 . S
C431 C428 1.539 . S
C431 H445 0.958 . S
C431 H446 0.961 . S
C431 H447 0.960 . S
H432 C416 0.931 . S
H433 C421 0.929 . S
H434 C422 0.960 . S
H435 C422 0.962 . S
H436 C422 0.960 . S
H437 C423 0.961 . S
H438 C423 0.961 . S
H439 C423 0.961 . S
H440 C424 0.931 . S
H441 C429 0.930 . S
H442 C430 0.956 . S
H443 C430 0.961 . S
H444 C430 0.961 . S
H445 C431 0.958 . S
H446 C431 0.961 . S
H447 C431 0.960 . S
C448 C449 1.391 . S
C448 C450 1.394 . S
C448 H464 0.931 . S
C449 C448 1.391 . S
C449 C453 1.376 . S
C450 C448 1.394 . S
C450 C451 1.369 . S
C450 C454 1.531 . S
C451 C450 1.369 . S
C451 C452 1.410 . S
C451 C459 1.503 . S
C452 C451 1.410 . S
C452 C453 1.392 . S
C452 C455 1.511 . S
C453 C449 1.376 . S
C453 C452 1.392 . S
C453 H465 0.929 . S
C454 C450 1.531 . S
C454 H466 0.960 . S
C454 H467 0.962 . S
C454 H468 0.960 . S
C455 C452 1.511 . S
C455 H469 0.961 . S
C455 H470 0.961 . S
C455 H471 0.961 . S
C456 C457 1.370 . S
C456 C458 1.363 . S
C456 H472 0.931 . S
C457 C456 1.370 . S
C457 C461 1.408 . S
C458 C456 1.363 . S
C458 C459 1.370 . S
C458 C462 1.524 . S
C459 C451 1.503 . S
C459 C458 1.370 . S
C459 C460 1.403 . S
C460 C459 1.403 . S
C460 C461 1.404 . S
C460 C463 1.539 . S
C461 C457 1.408 . S
C461 C460 1.404 . S
C461 H473 0.930 . S
C462 C458 1.524 . S
C462 H474 0.956 . S
C462 H475 0.961 . S
C462 H476 0.961 . S
C463 C460 1.539 . S
C463 H477 0.958 . S
C463 H478 0.961 . S
C463 H479 0.960 . S
H464 C448 0.931 . S
H465 C453 0.929 . S
H466 C454 0.960 . S
H467 C454 0.962 . S
H468 C454 0.960 . S
H469 C455 0.961 . S
H470 C455 0.961 . S
H471 C455 0.961 . S
H472 C456 0.931 . S
H473 C461 0.930 . S
H474 C462 0.956 . S
H475 C462 0.961 . S
H476 C462 0.961 . S
H477 C463 0.958 . S
H478 C463 0.961 . S
H479 C463 0.960 . S
C480 C481 1.391 . S
C480 C482 1.394 . S
C480 H496 0.931 . S
C481 C480 1.391 . S
C481 C485 1.376 . S
C482 C480 1.394 . S
C482 C483 1.369 . S
C482 C486 1.531 . S
C483 C482 1.369 . S
C483 C484 1.410 . S
C483 C491 1.503 . S
C484 C483 1.410 . S
C484 C485 1.392 . S
C484 C487 1.511 . S
C485 C481 1.376 . S
C485 C484 1.392 . S
C485 H497 0.929 . S
C486 C482 1.531 . S
C486 H498 0.960 . S
C486 H499 0.962 . S
C486 H500 0.960 . S
C487 C484 1.511 . S
C487 H501 0.961 . S
C487 H502 0.961 . S
C487 H503 0.961 . S
C488 C489 1.370 . S
C488 C490 1.363 . S
C488 H504 0.931 . S
C489 C488 1.370 . S
C489 C493 1.408 . S
C490 C488 1.363 . S
C490 C491 1.370 . S
C490 C494 1.524 . S
C491 C483 1.503 . S
C491 C490 1.370 . S
C491 C492 1.403 . S
C492 C491 1.403 . S
C492 C493 1.404 . S
C492 C495 1.539 . S
C493 C489 1.408 . S
C493 C492 1.404 . S
C493 H505 0.930 . S
C494 C490 1.524 . S
C494 H506 0.956 . S
C494 H507 0.961 . S
C494 H508 0.961 . S
C495 C492 1.539 . S
C495 H509 0.958 . S
C495 H510 0.961 . S
C495 H511 0.960 . S
H496 C480 0.931 . S
H497 C485 0.929 . S
H498 C486 0.960 . S
H499 C486 0.962 . S
H500 C486 0.960 . S
H501 C487 0.961 . S
H502 C487 0.961 . S
H503 C487 0.961 . S
H504 C488 0.931 . S
H505 C493 0.930 . S
H506 C494 0.956 . S
H507 C494 0.961 . S
H508 C494 0.961 . S
H509 C495 0.958 . S
H510 C495 0.961 . S
H511 C495 0.960 . S
C512 C513 1.391 . S
C512 C514 1.394 . S
C512 H528 0.931 . S
C513 C512 1.391 . S
C513 C517 1.376 . S
C514 C512 1.394 . S
C514 C515 1.369 . S
C514 C518 1.531 . S
C515 C514 1.369 . S
C515 C516 1.410 . S
C515 C523 1.503 . S
C516 C515 1.410 . S
C516 C517 1.392 . S
C516 C519 1.511 . S
C517 C513 1.376 . S
C517 C516 1.392 . S
C517 H529 0.929 . S
C518 C514 1.531 . S
C518 H530 0.960 . S
C518 H531 0.962 . S
C518 H532 0.960 . S
C519 C516 1.511 . S
C519 H533 0.961 . S
C519 H534 0.961 . S
C519 H535 0.961 . S
C520 C521 1.370 . S
C520 C522 1.363 . S
C520 H536 0.931 1_556 S
C521 C520 1.370 . S
C521 C525 1.408 . S
C522 C520 1.363 . S
C522 C523 1.370 . S
C522 C526 1.524 . S
C523 C515 1.503 . S
C523 C522 1.370 . S
C523 C524 1.403 . S
C524 C523 1.403 . S
C524 C525 1.404 . S
C524 C527 1.539 . S
C525 C521 1.408 . S
C525 C524 1.404 . S
C525 H537 0.930 . S
C526 C522 1.524 . S
C526 H538 0.956 . S
C526 H539 0.961 1_556 S
C526 H540 0.961 1_556 S
C527 C524 1.539 . S
C527 H541 0.958 . S
C527 H542 0.961 . S
C527 H543 0.960 . S
H528 C512 0.931 . S
H529 C517 0.929 . S
H530 C518 0.960 . S
H531 C518 0.962 . S
H532 C518 0.960 . S
H533 C519 0.961 . S
H534 C519 0.961 . S
H535 C519 0.961 . S
H536 C520 0.931 1_554 S
H537 C525 0.930 . S
H538 C526 0.956 . S
H539 C526 0.961 1_554 S
H540 C526 0.961 1_554 S
H541 C527 0.958 . S
H542 C527 0.961 . S
H543 C527 0.960 . S
C544 C545 1.391 . S
C544 C546 1.394 . S
C544 H560 0.931 . S
C545 C544 1.391 . S
C545 C549 1.376 . S
C546 C544 1.394 . S
C546 C547 1.369 . S
C546 C550 1.531 . S
C547 C546 1.369 . S
C547 C548 1.410 . S
C547 C555 1.503 . S
C548 C547 1.410 . S
C548 C549 1.392 . S
C548 C551 1.511 1_655 S
C549 C545 1.376 . S
C549 C548 1.392 . S
C549 H561 0.929 1_655 S
C550 C546 1.531 . S
C550 H562 0.960 . S
C550 H563 0.962 . S
C550 H564 0.960 . S
C551 C548 1.511 1_455 S
C551 H565 0.961 . S
C551 H566 0.961 . S
C551 H567 0.961 . S
C552 C553 1.370 . S
C552 C554 1.363 . S
C552 H568 0.931 . S
C553 C552 1.370 . S
C553 C557 1.408 . S
C554 C552 1.363 . S
C554 C555 1.370 . S
C554 C558 1.524 . S
C555 C547 1.503 . S
C555 C554 1.370 . S
C555 C556 1.403 . S
C556 C555 1.403 . S
C556 C557 1.404 . S
C556 C559 1.539 . S
C557 C553 1.408 . S
C557 C556 1.404 . S
C557 H569 0.930 . S
C558 C554 1.524 . S
C558 H570 0.956 . S
C558 H571 0.961 1_655 S
C558 H572 0.961 . S
C559 C556 1.539 . S
C559 H573 0.958 . S
C559 H574 0.961 . S
C559 H575 0.960 . S
H560 C544 0.931 . S
H561 C549 0.929 1_455 S
H562 C550 0.960 . S
H563 C550 0.962 . S
H564 C550 0.960 . S
H565 C551 0.961 . S
H566 C551 0.961 . S
H567 C551 0.961 . S
H568 C552 0.931 . S
H569 C557 0.930 . S
H570 C558 0.956 . S
H571 C558 0.961 1_455 S
H572 C558 0.961 . S
H573 C559 0.958 . S
H574 C559 0.961 . S
H575 C559 0.960 . S
C576 C577 1.391 . S
C576 C578 1.394 . S
C576 H592 0.931 . S
C577 C576 1.391 . S
C577 C581 1.376 . S
C578 C576 1.394 . S
C578 C579 1.369 . S
C578 C582 1.531 . S
C579 C578 1.369 . S
C579 C580 1.410 . S
C579 C587 1.503 . S
C580 C579 1.410 . S
C580 C581 1.392 . S
C580 C583 1.511 . S
C581 C577 1.376 . S
C581 C580 1.392 . S
C581 H593 0.929 . S
C582 C578 1.531 . S
C582 H594 0.960 . S
C582 H595 0.962 . S
C582 H596 0.960 . S
C583 C580 1.511 . S
C583 H597 0.961 . S
C583 H598 0.961 . S
C583 H599 0.961 . S
C584 C585 1.370 . S
C584 C586 1.363 . S
C584 H600 0.931 . S
C585 C584 1.370 . S
C585 C589 1.408 . S
C586 C584 1.363 . S
C586 C587 1.370 . S
C586 C590 1.524 . S
C587 C579 1.503 . S
C587 C586 1.370 . S
C587 C588 1.403 . S
C588 C587 1.403 . S
C588 C589 1.404 . S
C588 C591 1.539 . S
C589 C585 1.408 . S
C589 C588 1.404 . S
C589 H601 0.930 . S
C590 C586 1.524 . S
C590 H602 0.956 . S
C590 H603 0.961 . S
C590 H604 0.961 . S
C591 C588 1.539 . S
C591 H605 0.958 . S
C591 H606 0.961 . S
C591 H607 0.960 . S
H592 C576 0.931 . S
H593 C581 0.929 . S
H594 C582 0.960 . S
H595 C582 0.962 . S
H596 C582 0.960 . S
H597 C583 0.961 . S
H598 C583 0.961 . S
H599 C583 0.961 . S
H600 C584 0.931 . S
H601 C589 0.930 . S
H602 C590 0.956 . S
H603 C590 0.961 . S
H604 C590 0.961 . S
H605 C591 0.958 . S
H606 C591 0.961 . S
H607 C591 0.960 . S
C608 C609 1.391 . S
C608 C610 1.394 . S
C608 H624 0.931 . S
C609 C608 1.391 . S
C609 C613 1.376 . S
C610 C608 1.394 . S
C610 C611 1.369 . S
C610 C614 1.531 . S
C611 C610 1.369 . S
C611 C612 1.410 . S
C611 C619 1.503 . S
C612 C611 1.410 . S
C612 C613 1.392 . S
C612 C615 1.511 1_655 S
C613 C609 1.376 . S
C613 C612 1.392 . S
C613 H625 0.929 . S
C614 C610 1.531 . S
C614 H626 0.960 . S
C614 H627 0.962 . S
C614 H628 0.960 . S
C615 C612 1.511 1_455 S
C615 H629 0.961 . S
C615 H630 0.961 . S
C615 H631 0.961 1_565 S
C616 C617 1.370 . S
C616 C618 1.363 . S
C616 H632 0.931 . S
C617 C616 1.370 . S
C617 C621 1.408 1_565 S
C618 C616 1.363 . S
C618 C619 1.370 . S
C618 C622 1.524 . S
C619 C611 1.503 . S
C619 C618 1.370 . S
C619 C620 1.403 . S
C620 C619 1.403 . S
C620 C621 1.404 1_565 S
C620 C623 1.539 1_565 S
C621 C617 1.408 1_545 S
C621 C620 1.404 1_545 S
C621 H633 0.930 . S
C622 C618 1.524 . S
C622 H634 0.956 . S
C622 H635 0.961 . S
C622 H636 0.961 . S
C623 C620 1.539 1_545 S
C623 H637 0.958 . S
C623 H638 0.961 . S
C623 H639 0.960 . S
H624 C608 0.931 . S
H625 C613 0.929 . S
H626 C614 0.960 . S
H627 C614 0.962 . S
H628 C614 0.960 . S
H629 C615 0.961 . S
H630 C615 0.961 . S
H631 C615 0.961 1_545 S
H632 C616 0.931 . S
H633 C621 0.930 . S
H634 C622 0.956 . S
H635 C622 0.961 . S
H636 C622 0.961 . S
H637 C623 0.958 . S
H638 C623 0.961 . S
H639 C623 0.960 . S
C640 C641 1.391 . S
C640 C642 1.394 . S
C640 H656 0.931 . S
C641 C640 1.391 . S
C641 C645 1.376 . S
C642 C640 1.394 . S
C642 C643 1.369 . S
C642 C646 1.531 . S
C643 C642 1.369 . S
C643 C644 1.410 . S
C643 C651 1.503 . S
C644 C643 1.410 . S
C644 C645 1.392 . S
C644 C647 1.511 . S
C645 C641 1.376 . S
C645 C644 1.392 . S
C645 H657 0.929 . S
C646 C642 1.531 . S
C646 H658 0.960 . S
C646 H659 0.962 . S
C646 H660 0.960 . S
C647 C644 1.511 . S
C647 H661 0.961 . S
C647 H662 0.961 . S
C647 H663 0.961 . S
C648 C649 1.370 . S
C648 C650 1.363 . S
C648 H664 0.931 . S
C649 C648 1.370 . S
C649 C653 1.408 . S
C650 C648 1.363 . S
C650 C651 1.370 . S
C650 C654 1.524 . S
C651 C643 1.503 . S
C651 C650 1.370 . S
C651 C652 1.403 . S
C652 C651 1.403 . S
C652 C653 1.404 . S
C652 C655 1.539 . S
C653 C649 1.408 . S
C653 C652 1.404 . S
C653 H665 0.930 . S
C654 C650 1.524 . S
C654 H666 0.956 . S
C654 H667 0.961 . S
C654 H668 0.961 . S
C655 C652 1.539 . S
C655 H669 0.958 . S
C655 H670 0.961 . S
C655 H671 0.960 . S
H656 C640 0.931 . S
H657 C645 0.929 . S
H658 C646 0.960 . S
H659 C646 0.962 . S
H660 C646 0.960 . S
H661 C647 0.961 . S
H662 C647 0.961 . S
H663 C647 0.961 . S
H664 C648 0.931 . S
H665 C653 0.930 . S
H666 C654 0.956 . S
H667 C654 0.961 . S
H668 C654 0.961 . S
H669 C655 0.958 . S
H670 C655 0.961 . S
H671 C655 0.960 . S
C672 C673 1.391 . S
C672 C674 1.394 . S
C672 H688 0.931 . S
C673 C672 1.391 . S
C673 C677 1.376 . S
C674 C672 1.394 . S
C674 C675 1.369 . S
C674 C678 1.531 . S
C675 C674 1.369 . S
C675 C676 1.410 . S
C675 C683 1.503 . S
C676 C675 1.410 . S
C676 C677 1.392 . S
C676 C679 1.511 . S
C677 C673 1.376 . S
C677 C676 1.392 . S
C677 H689 0.929 . S
C678 C674 1.531 . S
C678 H690 0.960 . S
C678 H691 0.962 . S
C678 H692 0.960 . S
C679 C676 1.511 . S
C679 H693 0.961 . S
C679 H694 0.961 . S
C679 H695 0.961 . S
C680 C681 1.370 . S
C680 C682 1.363 . S
C680 H696 0.931 . S
C681 C680 1.370 . S
C681 C685 1.408 . S
C682 C680 1.363 . S
C682 C683 1.370 . S
C682 C686 1.524 . S
C683 C675 1.503 . S
C683 C682 1.370 . S
C683 C684 1.403 . S
C684 C683 1.403 . S
C684 C685 1.404 . S
C684 C687 1.539 . S
C685 C681 1.408 . S
C685 C684 1.404 . S
C685 H697 0.930 . S
C686 C682 1.524 . S
C686 H698 0.956 . S
C686 H699 0.961 . S
C686 H700 0.961 . S
C687 C684 1.539 . S
C687 H701 0.958 . S
C687 H702 0.961 . S
C687 H703 0.960 . S
H688 C672 0.931 . S
H689 C677 0.929 . S
H690 C678 0.960 . S
H691 C678 0.962 . S
H692 C678 0.960 . S
H693 C679 0.961 . S
H694 C679 0.961 . S
H695 C679 0.961 . S
H696 C680 0.931 . S
H697 C685 0.930 . S
H698 C686 0.956 . S
H699 C686 0.961 . S
H700 C686 0.961 . S
H701 C687 0.958 . S
H702 C687 0.961 . S
H703 C687 0.960 . S
C704 C705 1.391 . S
C704 C706 1.394 . S
C704 H720 0.931 . S
C705 C704 1.391 . S
C705 C709 1.376 . S
C706 C704 1.394 . S
C706 C707 1.369 . S
C706 C710 1.531 . S
C707 C706 1.369 . S
C707 C708 1.410 . S
C707 C715 1.503 . S
C708 C707 1.410 . S
C708 C709 1.392 . S
C708 C711 1.511 . S
C709 C705 1.376 . S
C709 C708 1.392 . S
C709 H721 0.929 . S
C710 C706 1.531 . S
C710 H722 0.960 . S
C710 H723 0.962 . S
C710 H724 0.960 . S
C711 C708 1.511 . S
C711 H725 0.961 . S
C711 H726 0.961 . S
C711 H727 0.961 . S
C712 C713 1.370 . S
C712 C714 1.363 . S
C712 H728 0.931 . S
C713 C712 1.370 . S
C713 C717 1.408 . S
C714 C712 1.363 . S
C714 C715 1.370 . S
C714 C718 1.524 . S
C715 C707 1.503 . S
C715 C714 1.370 . S
C715 C716 1.403 . S
C716 C715 1.403 . S
C716 C717 1.404 . S
C716 C719 1.539 . S
C717 C713 1.408 . S
C717 C716 1.404 . S
C717 H729 0.930 . S
C718 C714 1.524 . S
C718 H730 0.956 . S
C718 H731 0.961 . S
C718 H732 0.961 . S
C719 C716 1.539 . S
C719 H733 0.958 . S
C719 H734 0.961 . S
C719 H735 0.960 . S
H720 C704 0.931 . S
H721 C709 0.929 . S
H722 C710 0.960 . S
H723 C710 0.962 . S
H724 C710 0.960 . S
H725 C711 0.961 . S
H726 C711 0.961 . S
H727 C711 0.961 . S
H728 C712 0.931 . S
H729 C717 0.930 . S
H730 C718 0.956 . S
H731 C718 0.961 . S
H732 C718 0.961 . S
H733 C719 0.958 . S
H734 C719 0.961 . S
H735 C719 0.960 . S
C736 C737 1.391 . S
C736 C738 1.394 . S
C736 H752 0.931 . S
C737 C736 1.391 . S
C737 C741 1.376 . S
C738 C736 1.394 . S
C738 C739 1.369 . S
C738 C742 1.531 . S
C739 C738 1.369 . S
C739 C740 1.410 . S
C739 C747 1.503 . S
C740 C739 1.410 . S
C740 C741 1.392 . S
C740 C743 1.511 1_565 S
C741 C737 1.376 . S
C741 C740 1.392 . S
C741 H753 0.929 . S
C742 C738 1.531 . S
C742 H754 0.960 1_556 S
C742 H755 0.962 . S
C742 H756 0.960 1_556 S
C743 C740 1.511 1_545 S
C743 H757 0.961 . S
C743 H758 0.961 . S
C743 H759 0.961 . S
C744 C745 1.370 . S
C744 C746 1.363 . S
C744 H760 0.931 . S
C745 C744 1.370 . S
C745 C749 1.408 1_556 S
C746 C744 1.363 . S
C746 C747 1.370 . S
C746 C750 1.524 . S
C747 C739 1.503 . S
C747 C746 1.370 . S
C747 C748 1.402 . S
C748 C747 1.402 . S
C748 C749 1.404 1_556 S
C748 C751 1.540 1_556 S
C749 C745 1.408 1_554 S
C749 C748 1.404 1_554 S
C749 H761 0.930 . S
C750 C746 1.524 . S
C750 H762 0.956 . S
C750 H763 0.961 . S
C750 H764 0.961 . S
C751 C748 1.540 1_554 S
C751 H765 0.958 . S
C751 H766 0.961 1_565 S
C751 H767 0.960 . S
H752 C736 0.931 . S
H753 C741 0.929 . S
H754 C742 0.960 1_554 S
H755 C742 0.962 . S
H756 C742 0.960 1_554 S
H757 C743 0.961 . S
H758 C743 0.961 . S
H759 C743 0.961 . S
H760 C744 0.931 . S
H761 C749 0.930 . S
H762 C750 0.956 . S
H763 C750 0.961 . S
H764 C750 0.961 . S
H765 C751 0.958 . S
H766 C751 0.961 1_545 S
H767 C751 0.960 . S
C768 C769 1.391 . S
C768 C770 1.394 . S
C768 H784 0.931 . S
C769 C768 1.391 . S
C769 C773 1.376 . S
C770 C768 1.394 . S
C770 C771 1.369 . S
C770 C774 1.531 . S
C771 C770 1.369 . S
C771 C772 1.410 . S
C771 C779 1.503 . S
C772 C771 1.410 . S
C772 C773 1.392 . S
C772 C775 1.511 . S
C773 C769 1.376 . S
C773 C772 1.392 . S
C773 H785 0.929 . S
C774 C770 1.531 . S
C774 H786 0.960 . S
C774 H787 0.962 . S
C774 H788 0.960 . S
C775 C772 1.511 . S
C775 H789 0.961 . S
C775 H790 0.961 . S
C775 H791 0.961 . S
C776 C777 1.370 . S
C776 C778 1.363 . S
C776 H792 0.931 . S
C777 C776 1.370 . S
C777 C781 1.408 . S
C778 C776 1.363 . S
C778 C779 1.370 . S
C778 C782 1.524 . S
C779 C771 1.503 . S
C779 C778 1.370 . S
C779 C780 1.403 . S
C780 C779 1.403 . S
C780 C781 1.404 . S
C780 C783 1.539 . S
C781 C777 1.408 . S
C781 C780 1.404 . S
C781 H793 0.930 . S
C782 C778 1.524 . S
C782 H794 0.956 . S
C782 H795 0.961 . S
C782 H796 0.961 . S
C783 C780 1.539 . S
C783 H797 0.958 . S
C783 H798 0.961 . S
C783 H799 0.960 . S
H784 C768 0.931 . S
H785 C773 0.929 . S
H786 C774 0.960 . S
H787 C774 0.962 . S
H788 C774 0.960 . S
H789 C775 0.961 . S
H790 C775 0.961 . S
H791 C775 0.961 . S
H792 C776 0.931 . S
H793 C781 0.930 . S
H794 C782 0.956 . S
H795 C782 0.961 . S
H796 C782 0.961 . S
H797 C783 0.958 . S
H798 C783 0.961 . S
H799 C783 0.960 . S
C800 C801 1.391 . S
C800 C802 1.394 . S
C800 H816 0.931 . S
C801 C800 1.391 . S
C801 C805 1.376 . S
C802 C800 1.394 . S
C802 C803 1.369 . S
C802 C806 1.531 . S
C803 C802 1.369 . S
C803 C804 1.410 . S
C803 C811 1.503 . S
C804 C803 1.410 . S
C804 C805 1.392 . S
C804 C807 1.511 . S
C805 C801 1.376 . S
C805 C804 1.392 . S
C805 H817 0.929 . S
C806 C802 1.531 . S
C806 H818 0.960 . S
C806 H819 0.962 . S
C806 H820 0.960 . S
C807 C804 1.511 . S
C807 H821 0.961 . S
C807 H822 0.961 . S
C807 H823 0.961 . S
C808 C809 1.370 . S
C808 C810 1.363 . S
C808 H824 0.931 . S
C809 C808 1.370 . S
C809 C813 1.408 . S
C810 C808 1.363 . S
C810 C811 1.370 . S
C810 C814 1.524 . S
C811 C803 1.503 . S
C811 C810 1.370 . S
C811 C812 1.403 . S
C812 C811 1.403 . S
C812 C813 1.404 . S
C812 C815 1.539 . S
C813 C809 1.408 . S
C813 C812 1.404 . S
C813 H825 0.930 . S
C814 C810 1.524 . S
C814 H826 0.956 . S
C814 H827 0.961 . S
C814 H828 0.961 . S
C815 C812 1.539 . S
C815 H829 0.958 . S
C815 H830 0.961 . S
C815 H831 0.960 . S
H816 C800 0.931 . S
H817 C805 0.929 . S
H818 C806 0.960 . S
H819 C806 0.962 . S
H820 C806 0.960 . S
H821 C807 0.961 . S
H822 C807 0.961 . S
H823 C807 0.961 . S
H824 C808 0.931 . S
H825 C813 0.930 . S
H826 C814 0.956 . S
H827 C814 0.961 . S
H828 C814 0.961 . S
H829 C815 0.958 . S
H830 C815 0.961 . S
H831 C815 0.960 . S
C832 C833 1.391 . S
C832 C834 1.394 . S
C832 H848 0.931 . S
C833 C832 1.391 . S
C833 C837 1.376 . S
C834 C832 1.394 . S
C834 C835 1.369 . S
C834 C838 1.531 . S
C835 C834 1.369 . S
C835 C836 1.410 . S
C835 C843 1.503 . S
C836 C835 1.410 . S
C836 C837 1.392 . S
C836 C839 1.511 . S
C837 C833 1.376 . S
C837 C836 1.392 . S
C837 H849 0.929 . S
C838 C834 1.531 . S
C838 H850 0.960 . S
C838 H851 0.962 . S
C838 H852 0.960 . S
C839 C836 1.511 . S
C839 H853 0.961 . S
C839 H854 0.961 . S
C839 H855 0.961 . S
C840 C841 1.370 . S
C840 C842 1.363 . S
C840 H856 0.931 . S
C841 C840 1.370 . S
C841 C845 1.408 . S
C842 C840 1.363 . S
C842 C843 1.370 . S
C842 C846 1.524 . S
C843 C835 1.503 . S
C843 C842 1.370 . S
C843 C844 1.403 . S
C844 C843 1.403 . S
C844 C845 1.404 . S
C844 C847 1.539 . S
C845 C841 1.408 . S
C845 C844 1.404 . S
C845 H857 0.930 . S
C846 C842 1.524 . S
C846 H858 0.956 . S
C846 H859 0.961 . S
C846 H860 0.961 . S
C847 C844 1.539 . S
C847 H861 0.958 . S
C847 H862 0.961 . S
C847 H863 0.960 . S
H848 C832 0.931 . S
H849 C837 0.929 . S
H850 C838 0.960 . S
H851 C838 0.962 . S
H852 C838 0.960 . S
H853 C839 0.961 . S
H854 C839 0.961 . S
H855 C839 0.961 . S
H856 C840 0.931 . S
H857 C845 0.930 . S
H858 C846 0.956 . S
H859 C846 0.961 . S
H860 C846 0.961 . S
H861 C847 0.958 . S
H862 C847 0.961 . S
H863 C847 0.960 . S
C864 C865 1.391 . S
C864 C866 1.394 . S
C864 H880 0.931 . S
C865 C864 1.391 . S
C865 C869 1.376 . S
C866 C864 1.394 . S
C866 C867 1.369 . S
C866 C870 1.531 . S
C867 C866 1.369 . S
C867 C868 1.410 . S
C867 C875 1.503 . S
C868 C867 1.410 . S
C868 C869 1.392 . S
C868 C871 1.511 1_656 S
C869 C865 1.376 . S
C869 C868 1.392 . S
C869 H881 0.929 . S
C870 C866 1.531 . S
C870 H882 0.960 . S
C870 H883 0.962 . S
C870 H884 0.960 . S
C871 C868 1.511 1_454 S
C871 H885 0.961 . S
C871 H886 0.961 . S
C871 H887 0.961 1_554 S
C872 C873 1.370 1_654 S
C872 C874 1.363 . S
C872 H888 0.931 . S
C873 C872 1.370 1_456 S
C873 C877 1.408 . S
C874 C872 1.363 . S
C874 C875 1.370 1_554 S
C874 C878 1.524 . S
C875 C867 1.503 . S
C875 C874 1.370 1_556 S
C875 C876 1.403 1_655 S
C876 C875 1.403 1_455 S
C876 C877 1.404 . S
C876 C879 1.539 . S
C877 C873 1.408 . S
C877 C876 1.404 . S
C877 H889 0.930 . S
C878 C874 1.524 . S
C878 H890 0.956 . S
C878 H891 0.961 . S
C878 H892 0.961 . S
C879 C876 1.539 . S
C879 H893 0.958 . S
C879 H894 0.961 . S
C879 H895 0.960 . S
H880 C864 0.931 . S
H881 C869 0.929 . S
H882 C870 0.960 . S
H883 C870 0.962 . S
H884 C870 0.960 . S
H885 C871 0.961 . S
H886 C871 0.961 . S
H887 C871 0.961 1_556 S
H888 C872 0.931 . S
H889 C877 0.930 . S
H890 C878 0.956 . S
H891 C878 0.961 . S
H892 C878 0.961 . S
H893 C879 0.958 . S
H894 C879 0.961 . S
H895 C879 0.960 . S
C896 C897 1.391 . S
C896 C898 1.394 . S
C896 H912 0.931 . S
C897 C896 1.391 . S
C897 C901 1.376 . S
C898 C896 1.394 . S
C898 C899 1.369 . S
C898 C902 1.531 . S
C899 C898 1.369 . S
C899 C900 1.410 . S
C899 C907 1.503 . S
C900 C899 1.410 . S
C900 C901 1.392 . S
C900 C903 1.511 . S
C901 C897 1.376 . S
C901 C900 1.392 . S
C901 H913 0.929 . S
C902 C898 1.531 . S
C902 H914 0.960 . S
C902 H915 0.962 . S
C902 H916 0.985 . S
C903 C900 1.511 . S
C903 H917 0.961 . S
C903 H918 0.961 . S
C903 H919 0.961 . S
C904 C905 1.370 . S
C904 C906 1.363 . S
C904 H920 0.931 . S
C905 C904 1.370 . S
C905 C909 1.408 . S
C906 C904 1.363 . S
C906 C907 1.370 . S
C906 C910 1.524 . S
C907 C899 1.503 . S
C907 C906 1.370 . S
C907 C908 1.403 . S
C908 C907 1.403 . S
C908 C909 1.404 . S
C908 C911 1.539 . S
C909 C905 1.408 . S
C909 C908 1.404 . S
C909 H921 0.930 . S
C910 C906 1.524 . S
C910 H922 0.956 . S
C910 H923 0.961 . S
C910 H924 0.961 . S
C911 C908 1.539 . S
C911 H925 0.958 . S
C911 H926 0.961 . S
C911 H927 0.960 . S
H912 C896 0.931 . S
H913 C901 0.929 . S
H914 C902 0.960 . S
H915 C902 0.962 . S
H916 C902 0.985 . S
H917 C903 0.961 . S
H918 C903 0.961 . S
H919 C903 0.961 . S
H920 C904 0.931 . S
H921 C909 0.930 . S
H922 C910 0.956 . S
H923 C910 0.961 . S
H924 C910 0.961 . S
H925 C911 0.958 . S
H926 C911 0.961 . S
H927 C911 0.960 . S
C928 C929 1.391 . S
C928 C930 1.394 . S
C928 H944 0.931 . S
C929 C928 1.391 . S
C929 C933 1.376 . S
C930 C928 1.394 . S
C930 C931 1.369 . S
C930 C934 1.540 . S
C931 C930 1.369 . S
C931 C932 1.410 . S
C931 C939 1.503 . S
C932 C931 1.410 . S
C932 C933 1.392 . S
C932 C935 1.511 . S
C933 C929 1.376 . S
C933 C932 1.392 . S
C933 H945 0.929 . S
C934 C930 1.540 . S
C934 H946 0.962 . S
C934 H947 0.957 1_455 S
C934 H948 0.954 1_455 S
C935 C932 1.511 . S
C935 H949 0.961 . S
C935 H950 0.961 . S
C935 H951 0.961 . S
C936 C937 1.370 . S
C936 C938 1.363 . S
C936 H952 0.931 . S
C937 C936 1.370 . S
C937 C941 1.408 . S
C938 C936 1.363 . S
C938 C939 1.370 . S
C938 C942 1.524 . S
C939 C931 1.503 . S
C939 C938 1.370 . S
C939 C940 1.403 . S
C940 C939 1.403 . S
C940 C941 1.404 . S
C940 C943 1.539 . S
C941 C937 1.408 . S
C941 C940 1.404 . S
C941 H953 0.930 . S
C942 C938 1.524 . S
C942 H954 0.956 . S
C942 H955 0.961 . S
C942 H956 0.961 . S
C943 C940 1.539 . S
C943 H957 0.958 . S
C943 H958 0.961 . S
C943 H959 0.960 . S
H944 C928 0.931 . S
H945 C933 0.929 . S
H946 C934 0.962 . S
H947 C934 0.957 1_655 S
H948 C934 0.954 1_655 S
H949 C935 0.961 . S
H950 C935 0.961 . S
H951 C935 0.961 . S
H952 C936 0.931 . S
H953 C941 0.930 . S
H954 C942 0.956 . S
H955 C942 0.961 . S
H956 C942 0.961 . S
H957 C943 0.958 . S
H958 C943 0.961 . S
H959 C943 0.960 . S
C960 C961 1.391 . S
C960 C962 1.394 . S
C960 H976 0.931 . S
C961 C960 1.391 . S
C961 C965 1.376 . S
C962 C960 1.394 . S
C962 C963 1.369 . S
C962 C966 1.531 . S
C963 C962 1.369 . S
C963 C964 1.410 . S
C963 C971 1.503 . S
C964 C963 1.410 . S
C964 C965 1.392 . S
C964 C967 1.511 . S
C965 C961 1.376 . S
C965 C964 1.392 . S
C965 H977 0.929 . S
C966 C962 1.531 . S
C966 H978 0.960 . S
C966 H979 0.962 . S
C966 H980 0.960 . S
C967 C964 1.511 . S
C967 H981 0.961 . S
C967 H982 0.961 . S
C967 H983 0.961 . S
C968 C969 1.370 . S
C968 C970 1.363 . S
C968 H984 0.931 . S
C969 C968 1.370 . S
C969 C973 1.408 . S
C970 C968 1.363 . S
C970 C971 1.370 . S
C970 C974 1.524 . S
C971 C963 1.503 . S
C971 C970 1.370 . S
C971 C972 1.403 . S
C972 C971 1.403 . S
C972 C973 1.404 . S
C972 C975 1.539 . S
C973 C969 1.408 . S
C973 C972 1.404 . S
C973 H985 0.930 . S
C974 C970 1.524 . S
C974 H986 0.956 . S
C974 H987 0.961 . S
C974 H988 0.961 . S
C975 C972 1.539 . S
C975 H989 0.958 . S
C975 H990 0.961 . S
C975 H991 0.960 . S
H976 C960 0.931 . S
H977 C965 0.929 . S
H978 C966 0.960 . S
H979 C966 0.962 . S
H980 C966 0.960 . S
H981 C967 0.961 . S
H982 C967 0.961 . S
H983 C967 0.961 . S
H984 C968 0.931 . S
H985 C973 0.930 . S
H986 C974 0.956 . S
H987 C974 0.961 . S
H988 C974 0.961 . S
H989 C975 0.958 . S
H990 C975 0.961 . S
H991 C975 0.960 . S
C225 C9 2.523 . S
C233 C120 2.537 . S
C257 C21 1.085 . S
C265 N140 1.060 . S
C297 C174 1.675 . S
C289 C30 1.622 . S
C321 C43 1.004 . S
C329 N208 1.062 . S
C361 C161 2.225 . S
C353 C4 2.187 . S
C393 N118 1.569 . S
C385 C22 1.573 . S
C425 C195 1.650 1_556 S
C417 C34 1.639 . S
C457 N170 0.876 . S
C449 C48 0.854 . S
C481 C8 1.858 . S
C489 C210 1.863 . S
C521 C144 1.759 . S
C513 C35 1.729 . S
C545 C47 1.473 . S
C553 C105 1.475 . S
C577 C17 1.198 . S
C585 C191 1.206 . S
C617 C131 2.164 . S
C609 C60 2.150 . S
C641 C74 1.356 . S
C649 N148 1.340 . S
C673 C82 1.449 . S
C681 C165 1.465 . S
C705 C100 1.535 . S
C713 N200 1.452 . S
C737 C61 2.603 . S
C745 C150 2.619 . S
C777 N110 1.171 . S
C769 C73 1.201 . S
C809 C204 2.033 . S
C801 C87 2.014 . S
C841 N178 0.695 . S
C833 C95 0.736 . S
C865 C56 1.823 . S
C873 C221 1.894 1_556 S
C905 C135 1.769 . S
C897 C86 1.751 . S
C937 C114 1.420 . S
C929 C99 1.398 . S
C961 C69 1.284 . S
C969 C180 1.329 . S
