# Generated by pormake.
# Topology nom, (4,4)-cn, num edge types: 1
# Building blocks:
#     Node 0, Type 0, BuildingBlock: MUDLON_clean_linker_0, # of connection points: 4
#     Node 1, Type 0, BuildingBlock: MUDLON_clean_linker_0, # of connection points: 4
#     Node 2, Type 0, BuildingBlock: MUDLON_clean_linker_0, # of connection points: 4
#     Node 3, Type 0, BuildingBlock: MUDLON_clean_linker_0, # of connection points: 4
#     Node 4, Type 0, BuildingBlock: MUDLON_clean_linker_0, # of connection points: 4
#     Node 5, Type 0, BuildingBlock: MUDLON_clean_linker_0, # of connection points: 4
#     Node 6, Type 1, BuildingBlock: AZAVOO_clean_sbu_0, # of connection points: 4
#     Node 7, Type 1, BuildingBlock: AZAVOO_clean_sbu_0, # of connection points: 4
#     Node 8, Type 1, BuildingBlock: AZAVOO_clean_sbu_0, # of connection points: 4
#     Node 9, Type 1, BuildingBlock: AZAVOO_clean_sbu_0, # of connection points: 4
#     Node 10, Type 1, BuildingBlock: AZAVOO_clean_sbu_0, # of connection points: 4
#     Node 11, Type 1, BuildingBlock: AZAVOO_clean_sbu_0, # of connection points: 4
#     Edge 12, Type (0, 1), BuildingBlock: MIFKUJ_clean_linker_0, # of connection points: 2
#     Edge 13, Type (0, 1), BuildingBlock: MIFKUJ_clean_linker_0, # of connection points: 2
#     Edge 14, Type (0, 1), BuildingBlock: MIFKUJ_clean_linker_0, # of connection points: 2
#     Edge 15, Type (0, 1), BuildingBlock: MIFKUJ_clean_linker_0, # of connection points: 2
#     Edge 16, Type (0, 1), BuildingBlock: MIFKUJ_clean_linker_0, # of connection points: 2
#     Edge 17, Type (0, 1), BuildingBlock: MIFKUJ_clean_linker_0, # of connection points: 2
#     Edge 18, Type (0, 1), BuildingBlock: MIFKUJ_clean_linker_0, # of connection points: 2
#     Edge 19, Type (0, 1), BuildingBlock: MIFKUJ_clean_linker_0, # of connection points: 2
#     Edge 20, Type (0, 1), BuildingBlock: MIFKUJ_clean_linker_0, # of connection points: 2
#     Edge 21, Type (0, 1), BuildingBlock: MIFKUJ_clean_linker_0, # of connection points: 2
#     Edge 22, Type (0, 1), BuildingBlock: MIFKUJ_clean_linker_0, # of connection points: 2
#     Edge 23, Type (0, 1), BuildingBlock: MIFKUJ_clean_linker_0, # of connection points: 2
#     Edge 24, Type (0, 1), BuildingBlock: MIFKUJ_clean_linker_0, # of connection points: 2
#     Edge 25, Type (0, 1), BuildingBlock: MIFKUJ_clean_linker_0, # of connection points: 2
#     Edge 26, Type (0, 1), BuildingBlock: MIFKUJ_clean_linker_0, # of connection points: 2
#     Edge 27, Type (0, 1), BuildingBlock: MIFKUJ_clean_linker_0, # of connection points: 2
#     Edge 28, Type (0, 1), BuildingBlock: MIFKUJ_clean_linker_0, # of connection points: 2
#     Edge 29, Type (0, 1), BuildingBlock: MIFKUJ_clean_linker_0, # of connection points: 2
#     Edge 30, Type (0, 1), BuildingBlock: MIFKUJ_clean_linker_0, # of connection points: 2
#     Edge 31, Type (0, 1), BuildingBlock: MIFKUJ_clean_linker_0, # of connection points: 2
#     Edge 32, Type (0, 1), BuildingBlock: MIFKUJ_clean_linker_0, # of connection points: 2
#     Edge 33, Type (0, 1), BuildingBlock: MIFKUJ_clean_linker_0, # of connection points: 2
#     Edge 34, Type (0, 1), BuildingBlock: MIFKUJ_clean_linker_0, # of connection points: 2
#     Edge 35, Type (0, 1), BuildingBlock: MIFKUJ_clean_linker_0, # of connection points: 2
# Relax obj value: 0.034
# Max RMSD: 0.155
# Mean RMSD: 0.120
data_MOF--net-nom--node1-AZAVOO_clean_sbu_0--node2-MUDLON_clean_linker_0--edge1-MIFKUJ_clean_linker_0
_symmetry_space_group_name_H-M    P1
_symmetry_Int_Tables_number       1
_symmetry_cell_setting            triclinic
loop_
_symmetry_equiv_pos_as_xyz
'x, y, z'
_cell_length_a     73.714405
_cell_length_b     74.951254
_cell_length_c     71.894115
_cell_angle_alpha  91.201074
_cell_angle_beta   90.688037
_cell_angle_gamma 120.25912
loop_
_atom_site_label
_atom_site_type_symbol
_atom_site_fract_x
_atom_site_fract_y
_atom_site_fract_z
_atom_type_partial_charge
H0 H 0.10906 0.54161 0.32088 0.0
N1 N 0.07745 0.54389 0.33544 0.0
H2 H 0.13659 0.56679 0.30144 0.0
H3 H 0.078 0.57727 0.31997 0.0
H4 H 0.10487 0.60207 0.29987 0.0
H5 H 0.08887 0.58004 0.35456 0.0
H6 H 0.10789 0.59084 0.38452 0.0
H7 H 0.082 0.51977 0.3592 0.0
H8 H 0.09979 0.52985 0.38972 0.0
H9 H 0.05507 0.50509 0.32324 0.0
H10 H 0.04993 0.55802 0.33905 0.0
H11 H 0.01759 0.48539 0.3157 0.0
H12 H 0.01264 0.53918 0.32997 0.0
H13 H 0.90048 0.42358 0.28567 0.0
H14 H 0.88431 0.41909 0.25471 0.0
H15 H 0.91181 0.48526 0.25183 0.0
H16 H 0.9279 0.48955 0.28292 0.0
H17 H 0.90391 0.48132 0.30919 0.0
H18 H 0.87629 0.47511 0.33057 0.0
H19 H 0.88399 0.4275 0.35621 0.0
H20 H 0.91064 0.43287 0.33353 0.0
H21 H 0.95494 0.45835 0.28808 0.0
H22 H 0.99241 0.4807 0.29417 0.0
H23 H 0.97929 0.51346 0.3373 0.0
N24 N 0.92332 0.45854 0.30532 0.0
H25 H 0.94207 0.49235 0.32999 0.0
C26 C 0.09145 0.55743 0.32179 0.0
C27 C 0.10791 0.5546 0.31602 0.0
C28 C 0.12355 0.56898 0.30483 0.0
C29 C 0.12297 0.58652 0.29905 0.0
C30 C 0.10595 0.5889 0.30425 0.0
C31 C 0.09039 0.57455 0.31561 0.0
C32 C 0.08442 0.54919 0.35456 0.0
C33 C 0.09099 0.56896 0.36228 0.0
C34 C 0.10179 0.57507 0.3795 0.0
C35 C 0.10586 0.56138 0.38939 0.0
C36 C 0.09759 0.54104 0.38224 0.0
C37 C 0.08715 0.53511 0.36494 0.0
C38 C 0.05527 0.53302 0.33131 0.0
C39 C 0.04578 0.51252 0.32476 0.0
C40 C 0.02437 0.5014 0.32024 0.0
C41 C 0.01193 0.51073 0.32179 0.0
C42 C 0.02155 0.53136 0.32862 0.0
C43 C 0.04298 0.54232 0.33358 0.0
C44 C 0.91534 0.4568 0.28654 0.0
C45 C 0.90316 0.43709 0.27824 0.0
C46 C 0.89401 0.43459 0.26056 0.0
C47 C 0.8968 0.45183 0.25082 0.0
C48 C 0.90923 0.47168 0.25907 0.0
C49 C 0.91851 0.47417 0.27676 0.0
C50 C 0.9089 0.45708 0.31942 0.0
C51 C 0.89961 0.46948 0.31933 0.0
C52 C 0.88398 0.46611 0.33187 0.0
C53 C 0.87762 0.45061 0.34513 0.0
C54 C 0.88801 0.43919 0.34593 0.0
C55 C 0.90337 0.44232 0.3331 0.0
C56 C 0.94544 0.47337 0.30849 0.0
C57 C 0.96017 0.47062 0.2986 0.0
C58 C 0.98165 0.48328 0.30234 0.0
C59 C 0.98907 0.49871 0.31657 0.0
C60 C 0.97434 0.5019 0.32615 0.0
C61 C 0.95281 0.48956 0.32204 0.0
H62 H 0.48975 0.90759 0.45939 0.0
N63 N 0.48344 0.93901 0.45438 0.0
H64 H 0.46911 0.87726 0.47819 0.0
H65 H 0.45328 0.9342 0.47907 0.0
H66 H 0.43263 0.90405 0.49778 0.0
H67 H 0.44183 0.91999 0.44364 0.0
H68 H 0.42749 0.90535 0.41285 0.0
H69 H 0.50468 0.94718 0.42311 0.0
H70 H 0.49051 0.93437 0.39172 0.0
H71 H 0.52384 0.96344 0.46225 0.0
H72 H 0.46501 0.96247 0.45951 0.0
H73 H 0.54206 -4e-05 0.47132 0.0
H74 H 0.48268 0.99873 0.47021 0.0
H75 H 0.59818 0.11376 0.50916 0.0
H76 H 0.60314 0.12781 0.54103 0.0
H77 H 0.53593 0.09346 0.548 0.0
H78 H 0.53118 0.07962 0.51597 0.0
H79 H 0.53636 0.10597 0.49246 0.0
H80 H 0.54044 0.13521 0.47532 0.0
H81 H 0.58839 0.13345 0.44246 0.0
H82 H 0.58545 0.10527 0.46111 0.0
H83 H 0.56924 0.06004 0.50209 0.0
H84 H 0.54858 0.02312 0.49517 0.0
H85 H 0.50485 0.03269 0.46222 0.0
N86 N 0.56217 0.08949 0.49088 0.0
H87 H 0.52462 0.06935 0.47065 0.0
C88 C 0.47321 0.9232 0.46786 0.0
C89 C 0.4776 0.90707 0.46808 0.0
C90 C 0.46569 0.88972 0.47868 0.0
C91 C 0.44915 0.88822 0.48933 0.0
C92 C 0.4454 0.90485 0.48983 0.0
C93 C 0.45726 0.92216 0.47912 0.0
C94 C 0.47443 0.93409 0.43578 0.0
C95 C 0.45257 0.92324 0.4324 0.0
C96 C 0.44435 0.91505 0.4146 0.0
C97 C 0.4578 0.91813 0.39973 0.0
C98 C 0.47962 0.93089 0.4029 0.0
C99 C 0.4878 0.93851 0.42079 0.0
C100 C 0.49315 0.96024 0.46064 0.0
C101 C 0.51483 0.97113 0.46408 0.0
C102 C 0.52515 0.99199 0.46944 0.0
C103 C 0.51388 0.00243 0.47189 0.0
C104 C 0.49198 0.99137 0.46839 0.0
C105 C 0.48174 0.97052 0.46257 0.0
C106 C 0.56442 0.09573 0.51027 0.0
C107 C 0.58459 0.10907 0.5177 0.0
C108 C 0.58736 0.11699 0.5359 0.0
C109 C 0.56991 0.11175 0.54702 0.0
C110 C 0.54965 0.09792 0.5397 0.0
C111 C 0.54691 0.08992 0.52148 0.0
C112 C 0.56116 0.10387 0.47846 0.0
C113 C 0.54777 0.11186 0.4816 0.0
C114 C 0.54995 0.12853 0.47151 0.0
C115 C 0.56512 0.13718 0.45766 0.0
C116 C 0.5771 0.12781 0.45345 0.0
C117 C 0.57527 0.11149 0.4639 0.0
C118 C 0.54878 0.06762 0.4868 0.0
C119 C 0.55504 0.05411 0.49356 0.0
C120 C 0.54328 0.03297 0.48936 0.0
C121 C 0.52518 0.02477 0.47774 0.0
C122 C 0.51858 0.03828 0.47131 0.0
C123 C 0.53009 0.05945 0.47597 0.0
H124 H 0.50667 0.61295 0.64327 0.0
N125 N 0.50242 0.57664 0.65084 0.0
H126 H 0.48529 0.61999 0.62183 0.0
H127 H 0.47326 0.54886 0.6251 0.0
H128 H 0.45253 0.55587 0.60308 0.0
H129 H 0.46188 0.54914 0.65987 0.0
H130 H 0.44558 0.54818 0.68957 0.0
H131 H 0.52142 0.59795 0.68193 0.0
H132 H 0.50527 0.5971 0.71172 0.0
H133 H 0.54259 0.59065 0.6447 0.0
H134 H 0.48317 0.53434 0.64889 0.0
H135 H 0.56001 0.57069 0.63964 0.0
H136 H 0.50002 0.5141 0.64244 0.0
H137 H 0.60864 0.50375 0.60859 0.0
H138 H 0.61014 0.49239 0.57677 0.0
H139 H 0.54254 0.46281 0.57128 0.0
H140 H 0.54126 0.47426 0.60319 0.0
H141 H 0.54192 0.45582 0.63007 0.0
H142 H 0.54287 0.42819 0.64656 0.0
H143 H 0.60436 0.47221 0.66952 0.0
H144 H 0.60348 0.49972 0.65245 0.0
H145 H 0.58354 0.5315 0.6138 0.0
H146 H 0.56506 0.55041 0.61825 0.0
H147 H 0.52209 0.50319 0.65469 0.0
N148 N 0.57471 0.4955 0.62743 0.0
H149 H 0.53969 0.48371 0.64916 0.0
C150 C 0.49173 0.58048 0.63587 0.0
C151 C 0.49513 0.60053 0.63426 0.0
C152 C 0.48293 0.60451 0.6219 0.0
C153 C 0.46705 0.58847 0.61073 0.0
C154 C 0.46436 0.56853 0.61169 0.0
C155 C 0.47644 0.56453 0.62422 0.0
C156 C 0.49287 0.57385 0.6687 0.0
C157 C 0.47152 0.55944 0.67119 0.0
C158 C 0.46221 0.55893 0.68814 0.0
C159 C 0.47413 0.57264 0.70292 0.0
C160 C 0.49572 0.58621 0.70066 0.0
C161 C 0.50496 0.58681 0.68368 0.0
C162 C 0.51163 0.56407 0.64681 0.0
C163 C 0.53327 0.57393 0.64412 0.0
C164 C 0.54313 0.56243 0.64111 0.0
C165 C 0.53145 0.54067 0.6404 0.0
C166 C 0.50963 0.53079 0.64308 0.0
C167 C 0.49986 0.54236 0.64648 0.0
C168 C 0.57494 0.48983 0.6082 0.0
C169 C 0.59422 0.49502 0.6004 0.0
C170 C 0.59501 0.48858 0.58224 0.0
C171 C 0.57644 0.47671 0.57154 0.0
C172 C 0.55708 0.47177 0.57927 0.0
C173 C 0.55632 0.47833 0.59745 0.0
C174 C 0.57277 0.47988 0.63997 0.0
C175 C 0.55544 0.45962 0.6389 0.0
C176 C 0.55596 0.44382 0.64844 0.0
C177 C 0.57381 0.44795 0.65917 0.0
C178 C 0.59053 0.46846 0.66111 0.0
C179 C 0.58998 0.48423 0.65156 0.0
C180 C 0.56315 0.50608 0.63094 0.0
C181 C 0.57001 0.52514 0.62264 0.0
C182 C 0.55951 0.53606 0.62537 0.0
C183 C 0.54208 0.52848 0.63697 0.0
C184 C 0.53521 0.5094 0.64541 0.0
C185 C 0.54549 0.49822 0.64233 0.0
H186 H 0.1136 0.61269 0.81453 0.0
N187 N 0.08181 0.57756 0.80097 0.0
H188 H 0.14147 0.61714 0.83633 0.0
H189 H 0.08235 0.54671 0.82045 0.0
H190 H 0.11022 0.55099 0.8421 0.0
H191 H 0.08837 0.54711 0.7867 0.0
H192 H 0.10146 0.54598 0.75608 0.0
H193 H 0.09063 0.60412 0.77405 0.0
H194 H 0.10516 0.60397 0.74375 0.0
H195 H 0.0588 0.59307 0.81331 0.0
H196 H 0.0548 0.53564 0.79637 0.0
H197 H 0.02083 0.57475 0.81801 0.0
H198 H 0.01704 0.5173 0.80102 0.0
H199 H 0.90691 0.51938 0.83858 0.0
H200 H 0.89389 0.50967 0.86996 0.0
H201 H 0.91517 0.46537 0.86971 0.0
H202 H 0.92955 0.47647 0.83898 0.0
H203 H 0.92264 0.46744 0.80782 0.0
H204 H 0.8962 0.44109 0.78669 0.0
H205 H 0.87057 0.48084 0.77653 0.0
H206 H 0.89774 0.50745 0.79715 0.0
H207 H 0.95655 0.53204 0.84151 0.0
H208 H 0.99437 0.54872 0.83849 0.0
H209 H 0.98563 0.51644 0.78579 0.0
N210 N 0.92623 0.5047 0.81779 0.0
H211 H 0.94795 0.49981 0.78852 0.0
C212 C 0.096 0.57947 0.81583 0.0
C213 C 0.11258 0.59922 0.82083 0.0
C214 C 0.12848 0.6017 0.83318 0.0
C215 C 0.12806 0.58439 0.8408 0.0
C216 C 0.11084 0.56462 0.83656 0.0
C217 C 0.09494 0.56214 0.8241 0.0
C218 C 0.08827 0.57565 0.78257 0.0
C219 C 0.09142 0.55928 0.77725 0.0
C220 C 0.09923 0.55881 0.75975 0.0
C221 C 0.10452 0.57493 0.74737 0.0
C222 C 0.10093 0.59106 0.75268 0.0
C223 C 0.09279 0.59131 0.77005 0.0
C224 C 0.05966 0.56587 0.80441 0.0
C225 C 0.04974 0.57651 0.81074 0.0
C226 C 0.02813 0.56602 0.81347 0.0
C227 C 0.01599 0.5446 0.80982 0.0
C228 C 0.02598 0.53385 0.80372 0.0
C229 C 0.04765 0.54436 0.80112 0.0
C230 C 0.91881 0.49844 0.83634 0.0
C231 C 0.90878 0.50765 0.84541 0.0
C232 C 0.90122 0.50191 0.86328 0.0
C233 C 0.90318 0.48649 0.87239 0.0
C234 C 0.9135 0.47741 0.86329 0.0
C235 C 0.92143 0.48347 0.84552 0.0
C236 C 0.91221 0.48953 0.804 0.0
C237 C 0.91145 0.47056 0.80093 0.0
C238 C 0.89623 0.45544 0.78885 0.0
C239 C 0.88109 0.45871 0.77993 0.0
C240 C 0.88215 0.47786 0.78282 0.0
C241 C 0.89759 0.49307 0.79469 0.0
C242 C 0.94878 0.51344 0.81592 0.0
C243 C 0.96259 0.52802 0.82947 0.0
C244 C 0.98431 0.53781 0.82766 0.0
C245 C 0.99293 0.53362 0.81205 0.0
C246 C 0.97939 0.5195 0.79825 0.0
C247 C 0.95761 0.50979 0.79997 0.0
H248 H 0.51209 0.12503 0.98247 0.0
N249 N 0.51259 0.09114 0.97223 0.0
H250 H 0.53728 0.15346 0.00295 0.0
H251 H 0.54402 0.09137 0.99378 0.0
H252 H 0.56873 0.11927 0.01459 0.0
H253 H 0.55229 0.10598 0.95905 0.0
H254 H 0.5634 0.11671 0.92757 0.0
H255 H 0.48833 0.08645 0.94283 0.0
H256 H 0.4989 0.09544 0.91077 0.0
H257 H 0.47296 0.0673 0.98118 0.0
H258 H 0.52969 0.06613 0.97058 0.0
H259 H 0.45404 0.0301 0.98496 0.0
H260 H 0.51169 0.02927 0.97635 0.0
H261 H 0.406 0.91675 0.01742 0.0
H262 H 0.4088 0.90882 0.04982 0.0
H263 H 0.47646 0.94574 0.04786 0.0
H264 H 0.47346 0.95371 0.01546 0.0
H265 H 0.46859 0.93006 0.99039 0.0
H266 H 0.46572 0.90037 0.97299 0.0
H267 H 0.40365 0.88439 0.95317 0.0
H268 H 0.40651 0.91403 0.97092 0.0
H269 H 0.42876 0.96723 0.0082 0.0
H270 H 0.44791 0.00419 0.00389 0.0
H271 H 0.48841 0.99665 0.96532 0.0
N272 N 0.43706 0.93908 0.99479 0.0
H273 H 0.4704 0.95997 0.97116 0.0
C274 C 0.52598 0.10601 0.9865 0.0
C275 C 0.5242 0.12356 0.98973 0.0
C276 C 0.53858 0.13974 0.0015 0.0
C277 C 0.55512 0.1387 0.01037 0.0
C278 C 0.55637 0.1207 0.00777 0.0
C279 C 0.54201 0.10455 0.99592 0.0
C280 C 0.51951 0.09601 0.9534 0.0
C281 C 0.54057 0.1038 0.94865 0.0
C282 C 0.54685 0.10964 0.93046 0.0
C283 C 0.53212 0.10722 0.9165 0.0
C284 C 0.51084 0.09818 0.92117 0.0
C285 C 0.5047 0.09286 0.93945 0.0
C286 C 0.50278 0.06956 0.97623 0.0
C287 C 0.48145 0.05901 0.98029 0.0
C288 C 0.47073 0.0377 0.98255 0.0
C289 C 0.48128 0.02644 0.98127 0.0
C290 C 0.50284 0.03718 0.97727 0.0
C291 C 0.51338 0.05845 0.97442 0.0
C292 C 0.43942 0.93553 0.01405 0.0
C293 C 0.42138 0.92325 0.02408 0.0
C294 C 0.42304 0.91893 0.04259 0.0
C295 C 0.44287 0.92677 0.05135 0.0
C296 C 0.461 0.93945 0.04139 0.0
C297 C 0.45931 0.94391 0.0229 0.0
C298 C 0.43759 0.92416 0.9821 0.0
C299 C 0.45445 0.92036 0.98217 0.0
C300 C 0.45279 0.90334 0.97223 0.0
C301 C 0.43439 0.88997 0.96187 0.0
C302 C 0.41808 0.89451 0.96094 0.0
C303 C 0.41967 0.91141 0.97104 0.0
C304 C 0.44799 0.96064 0.99015 0.0
C305 C 0.4418 0.97359 -0.00118 0.0
C306 C 0.45273 0.99479 0.99616 0.0
C307 C 0.4698 0.00368 0.98413 0.0
C308 C 0.47569 0.9906 0.97501 0.0
C309 C 0.46512 0.96937 0.97817 0.0
H310 H 0.51967 0.42905 0.14093 0.0
N311 N 0.52114 0.46388 0.15089 0.0
H312 H 0.54699 0.42499 0.12607 0.0
H313 H 0.5567 0.49503 0.13568 0.0
H314 H 0.58405 0.49118 0.12029 0.0
H315 H 0.557 0.49127 0.17046 0.0
H316 H 0.56476 0.48937 0.20322 0.0
H317 H 0.49487 0.43859 0.17571 0.0
H318 H 0.50255 0.43655 0.20861 0.0
H319 H 0.48719 0.45051 0.12929 0.0
H320 H 0.53585 0.50513 0.15805 0.0
H321 H 0.46908 0.46913 0.12105 0.0
H322 H 0.51739 0.52357 0.15077 0.0
H323 H 0.41295 0.51689 0.09816 0.0
H324 H 0.41024 0.53057 0.06823 0.0
H325 H 0.46804 0.58742 0.08154 0.0
H326 H 0.47056 0.57377 0.11126 0.0
H327 H 0.47023 0.57256 0.14282 0.0
H328 H 0.46191 0.59202 0.16514 0.0
H329 H 0.39799 0.54081 0.16663 0.0
H330 H 0.40619 0.5224 0.14283 0.0
H331 H 0.42821 0.49724 0.13268 0.0
H332 H 0.44896 0.48055 0.13746 0.0
H333 H 0.50571 0.53846 0.12785 0.0
N334 N 0.44183 0.53619 0.12499 0.0
H335 H 0.48478 0.55512 0.12392 0.0
C336 C 0.53609 0.46223 0.13936 0.0
C337 C 0.5335 0.44261 0.13607 0.0
C338 C 0.54914 0.44036 0.12752 0.0
C339 C 0.56779 0.45778 0.12199 0.0
C340 C 0.57 0.47747 0.12459 0.0
C341 C 0.55429 0.47969 0.13322 0.0
C342 C 0.52536 0.46483 0.17061 0.0
C343 C 0.54491 0.47947 0.17871 0.0
C344 C 0.54934 0.47838 0.19744 0.0
C345 C 0.53429 0.46276 0.20841 0.0
C346 C 0.51437 0.44889 0.20054 0.0
C347 C 0.50999 0.44993 0.18177 0.0
C348 C 0.5126 0.47625 0.14448 0.0
C349 C 0.494 0.46658 0.1337 0.0
C350 C 0.4836 0.47719 0.1292 0.0
C351 C 0.49152 0.49773 0.1356 0.0
C352 C 0.51084 0.50779 0.14558 0.0
C353 C 0.52137 0.49719 0.14989 0.0
C354 C 0.44182 0.54422 0.10699 0.0
C355 C 0.42511 0.53221 0.09447 0.0
C356 C 0.42365 0.54002 0.0774 0.0
C357 C 0.4389 0.56012 0.07259 0.0
C358 C 0.45592 0.57199 0.08498 0.0
C359 C 0.45742 0.56411 0.102 0.0
C360 C 0.43856 0.54634 0.14068 0.0
C361 C 0.45441 0.5656 0.14785 0.0
C362 C 0.44966 0.57658 0.16095 0.0
C363 C 0.42908 0.56825 0.16752 0.0
C364 C 0.4138 0.54811 0.16147 0.0
C365 C 0.41847 0.53742 0.14803 0.0
C366 C 0.45486 0.52727 0.12783 0.0
C367 C 0.44513 0.50626 0.13165 0.0
C368 C 0.45703 0.49675 0.13417 0.0
C369 C 0.47903 0.50808 0.13277 0.0
C370 C 0.48883 0.52929 0.12911 0.0
C371 C 0.47685 0.53884 0.12674 0.0
Mg372 Mg 0.6234 0.37454 0.37177 0.0
O373 O 0.61848 0.39164 0.39636 0.0
O374 O 0.63396 0.42497 0.3891 0.0
Mg375 Mg 0.64785 0.4291 0.36032 0.0
C376 C 0.62361 0.41036 0.40023 0.0
C377 C 0.62405 0.33666 0.38661 0.0
O378 O 0.63975 0.34411 0.3751 0.0
O379 O 0.65777 0.38835 0.3804 0.0
O380 O 0.67211 0.4211 0.3718 0.0
O381 O 0.59354 0.36902 0.35863 0.0
O382 O 0.6246 0.39647 0.35389 0.0
C383 C 0.6737 0.40636 0.37871 0.0
C384 C 0.6045 0.38693 0.35131 0.0
O385 O 0.61396 0.34612 0.38896 0.0
Mg386 Mg 0.28045 0.65006 0.58014 0.0
O387 O 0.25803 0.63512 0.55489 0.0
O388 O 0.24043 0.60096 0.55883 0.0
Mg389 Mg 0.24998 0.59446 0.58719 0.0
C390 C 0.24459 0.61674 0.54935 0.0
C391 C 0.30675 0.69673 0.57417 0.0
O392 O 0.30259 0.69608 0.59195 0.0
O393 O 0.30172 0.63806 0.57019 0.0
O394 O 0.28314 0.60463 0.57685 0.0
O395 O 0.2556 0.65333 0.59444 0.0
O396 O 0.25981 0.62625 0.59666 0.0
C397 C 0.2998 0.62018 0.57099 0.0
C398 C 0.24909 0.63501 0.60061 0.0
O399 O 0.2994 0.67986 0.56476 0.0
Mg400 Mg 0.63398 0.27106 0.74427 0.0
O401 O 0.62745 0.24774 0.72024 0.0
O402 O 0.64309 0.22992 0.72817 0.0
Mg403 Mg 0.6581 0.2405 0.75724 0.0
C404 C 0.63226 0.23386 0.71675 0.0
C405 C 0.60571 0.28668 0.72673 0.0
O406 O 0.59188 0.27194 0.73701 0.0
O407 O 0.66815 0.29068 0.73587 0.0
O408 O 0.68209 0.2722 0.74629 0.0
O409 O 0.60471 0.24787 0.75801 0.0
O410 O 0.63587 0.25117 0.76295 0.0
C411 C 0.68393 0.28832 0.7388 0.0
C412 C 0.61603 0.2413 0.76591 0.0
O413 O 0.62426 0.28964 0.72616 0.0
Mg414 Mg 0.37409 0.64777 0.87504 0.0
O415 O 0.38296 0.6339 0.89937 0.0
O416 O 0.36953 0.60032 0.89218 0.0
Mg417 Mg 0.35197 0.59257 0.86422 0.0
C418 C 0.37996 0.61602 0.90313 0.0
C419 C 0.38262 0.69129 0.88284 0.0
O420 O 0.37605 0.68718 0.86536 0.0
O421 O 0.34047 0.63301 0.88491 0.0
O422 O 0.3277 0.59975 0.87686 0.0
O423 O 0.40294 0.65373 0.86016 0.0
O424 O 0.37227 0.62493 0.85687 0.0
C425 C 0.32539 0.6143 0.8838 0.0
C426 C 0.39186 0.63523 0.85294 0.0
O427 O 0.38375 0.67748 0.89191 0.0
Mg428 Mg 0.74288 0.38536 0.04767 0.0
O429 O 0.7651 0.39321 0.0732 0.0
O430 O 0.78527 0.37952 0.06683 0.0
Mg431 Mg 0.77762 0.365 0.03741 0.0
C432 C 0.77965 0.38945 0.07772 0.0
C433 C 0.72701 0.41036 0.07128 0.0
O434 O 0.74705 0.42446 0.07123 0.0
O435 O 0.72431 0.35167 0.0555 0.0
O436 O 0.74492 0.33939 0.04642 0.0
O437 O 0.76529 0.41487 0.03469 0.0
O438 O 0.76571 0.38577 0.03068 0.0
C439 C 0.72768 0.33669 0.05295 0.0
C440 C 0.77413 0.4052 0.02764 0.0
O441 O 0.72088 0.39274 0.0636 0.0
Mg442 Mg 0.36388 0.74952 0.2075 0.0
O443 O 0.37816 0.77012 0.23391 0.0
O444 O 0.41289 0.78822 0.23007 0.0
Mg445 Mg 0.42074 0.7796 0.20195 0.0
C446 C 0.3967 0.78357 0.23964 0.0
C447 C 0.3217 0.73666 0.22827 0.0
O448 O 0.3285 0.75657 0.22791 0.0
O449 O 0.37557 0.72811 0.21641 0.0
O450 O 0.41003 0.74669 0.21155 0.0
O451 O 0.36121 0.77485 0.1947 0.0
O452 O 0.3888 0.77077 0.19227 0.0
C453 C 0.39379 0.73006 0.21641 0.0
C454 C 0.38021 0.78174 0.18917 0.0
O455 O 0.33291 0.72974 0.22158 0.0
H456 H 0.14608 0.58171 0.27184 0.0
H457 H 0.17867 0.6086 0.25876 0.0
H458 H 0.1729 0.6553 0.28971 0.0
H459 H 0.14073 0.62853 0.30346 0.0
H460 H 0.18714 0.66537 0.25127 0.0
H461 H 0.20246 0.64207 0.30835 0.0
H462 H 0.20014 0.61553 0.32947 0.0
H463 H 0.22812 0.59501 0.28853 0.0
H464 H 0.23029 0.62122 0.26703 0.0
H465 H 0.29421 0.74578 0.24548 0.0
H466 H 0.2592 0.72135 0.25657 0.0
H467 H 0.26659 0.67038 0.23771 0.0
H468 H 0.30163 0.69457 0.22708 0.0
H469 H 0.25087 0.6633 0.27077 0.0
H470 H 0.23577 0.68548 0.21348 0.0
H471 H 0.23713 0.71054 0.19104 0.0
H472 H 0.20833 0.73187 0.23038 0.0
H473 H 0.20705 0.70711 0.25316 0.0
C474 C 0.15167 0.59769 0.27585 0.0
C475 C 0.1409 0.60291 0.28891 0.0
C476 C 0.1702 0.61303 0.26825 0.0
C477 C 0.1782 0.63385 0.27343 0.0
C478 C 0.16688 0.63928 0.28553 0.0
C479 C 0.14845 0.62393 0.2933 0.0
C480 C 0.19927 0.6497 0.26749 0.0
C481 C 0.20116 0.66515 0.25567 0.0
C482 C 0.21738 0.64906 0.27302 0.0
C483 C 0.21634 0.63346 0.28602 0.0
C484 C 0.20796 0.63178 0.30379 0.0
C485 C 0.20669 0.61682 0.31584 0.0
C486 C 0.21393 0.60356 0.31033 0.0
C487 C 0.2225 0.60527 0.29277 0.0
C488 C 0.22376 0.62019 0.28065 0.0
C489 C 0.28838 0.72936 0.24374 0.0
C490 C 0.30071 0.72212 0.23539 0.0
C491 C 0.26832 0.71542 0.24998 0.0
C492 C 0.26017 0.69402 0.24776 0.0
C493 C 0.27254 0.68681 0.23957 0.0
C494 C 0.29259 0.70069 0.23348 0.0
C495 C 0.23891 0.679 0.25425 0.0
C496 C 0.23695 0.66367 0.2663 0.0
C497 C 0.22075 0.67968 0.24874 0.0
C498 C 0.22154 0.69461 0.2351 0.0
C499 C 0.2299 0.69564 0.21741 0.0
C500 C 0.23062 0.70977 0.20461 0.0
C501 C 0.22288 0.72283 0.2093 0.0
C502 C 0.21435 0.72177 0.22678 0.0
C503 C 0.21361 0.70768 0.23963 0.0
H504 H 0.22345 0.73375 0.19938 0.0
H505 H 0.21294 0.59198 0.31968 0.0
H506 H 0.53759 0.15101 0.44953 0.0
H507 H 0.54615 0.18489 0.43877 0.0
H508 H 0.61098 0.20135 0.43355 0.0
H509 H 0.60306 0.16848 0.44607 0.0
H510 H 0.61062 0.23161 0.44886 0.0
H511 H 0.57377 0.18848 0.39495 0.0
H512 H 0.54413 0.15949 0.37762 0.0
H513 H 0.50392 0.18324 0.39264 0.0
H514 H 0.53327 0.21225 0.41025 0.0
H515 H 0.64568 0.31609 0.38883 0.0
H516 H 0.63402 0.28233 0.40202 0.0
H517 H 0.57579 0.2783 0.41759 0.0
H518 H 0.58739 0.31223 0.4045 0.0
H519 H 0.57091 0.24249 0.39853 0.0
H520 H 0.60997 0.28733 0.45064 0.0
H521 H 0.64081 0.31666 0.4664 0.0
H522 H 0.67841 0.28956 0.45265 0.0
H523 H 0.64786 0.2602 0.43658 0.0
C524 C 0.55373 0.16185 0.44629 0.0
C525 C 0.56959 0.15681 0.4488 0.0
C526 C 0.55855 0.18119 0.43981 0.0
C527 C 0.5792 0.19569 0.43511 0.0
C528 C 0.59492 0.19048 0.43708 0.0
C529 C 0.59024 0.17141 0.44398 0.0
C530 C 0.58479 0.21664 0.4289 0.0
C531 C 0.60205 0.23389 0.43767 0.0
C532 C 0.5733 0.21981 0.41469 0.0
C533 C 0.55566 0.20241 0.40407 0.0
C534 C 0.55857 0.18743 0.39466 0.0
C535 C 0.54183 0.17101 0.38477 0.0
C536 C 0.52214 0.16949 0.38407 0.0
C537 C 0.51917 0.18442 0.39322 0.0
C538 C 0.53586 0.20086 0.40314 0.0
C539 C 0.63045 0.30811 0.39517 0.0
C540 C 0.61745 0.31682 0.39562 0.0
C541 C 0.62384 0.28885 0.40273 0.0
C542 C 0.60409 0.27789 0.41081 0.0
C543 C 0.59109 0.28656 0.4114 0.0
C544 C 0.59779 0.30596 0.40401 0.0
C545 C 0.59692 0.25716 0.41821 0.0
C546 C 0.57935 0.24006 0.40974 0.0
C547 C 0.6083 0.25407 0.43249 0.0
C548 C 0.62666 0.27164 0.44228 0.0
C549 C 0.62485 0.2877 0.45086 0.0
C550 C 0.64228 0.30432 0.45987 0.0
C551 C 0.66157 0.305 0.46049 0.0
C552 C 0.66346 0.28902 0.45215 0.0
C553 C 0.64609 0.27238 0.44311 0.0
H554 H 0.67504 0.31788 0.46747 0.0
H555 H 0.50921 0.15677 0.37641 0.0
H556 H 0.42468 0.56274 0.60525 0.0
H557 H 0.3998 0.57024 0.58988 0.0
H558 H 0.45041 0.63047 0.57607 0.0
H559 H 0.47569 0.62287 0.59097 0.0
H560 H 0.41872 0.63202 0.59424 0.0
H561 H 0.42453 0.59607 0.54161 0.0
H562 H 0.42561 0.56784 0.52442 0.0
H563 H 0.36217 0.52539 0.53946 0.0
H564 H 0.36079 0.5533 0.55699 0.0
H565 H 0.33906 0.64973 0.56002 0.0
H566 H 0.37041 0.64647 0.5583 0.0
H567 H 0.33354 0.58212 0.57161 0.0
H568 H 0.30218 0.58504 0.57288 0.0
H569 H 0.36292 0.58737 0.54776 0.0
H570 H 0.36018 0.62054 0.60562 0.0
H571 H 0.35858 0.64758 0.62446 0.0
H572 H 0.4159 0.69401 0.60087 0.0
H573 H 0.41769 0.66724 0.58172 0.0
C574 C 0.43071 0.57735 0.59846 0.0
C575 C 0.45227 0.5922 0.59942 0.0
C576 C 0.41639 0.58164 0.58971 0.0
C577 C 0.42326 0.60087 0.58174 0.0
C578 C 0.4448 0.61552 0.58213 0.0
C579 C 0.45919 0.61118 0.59076 0.0
C580 C 0.40763 0.60621 0.57476 0.0
C581 C 0.40684 0.62261 0.5837 0.0
C582 C 0.39191 0.59366 0.56129 0.0
C583 C 0.39261 0.57679 0.55071 0.0
C584 C 0.41086 0.58069 0.54138 0.0
C585 C 0.41151 0.56474 0.53155 0.0
C586 C 0.39398 0.54483 0.53087 0.0
C587 C 0.37574 0.54083 0.54 0.0
C588 C 0.375 0.55672 0.54986 0.0
C589 C 0.33753 0.63475 0.56222 0.0
C590 C 0.31811 0.61771 0.5669 0.0
C591 C 0.35551 0.63297 0.56128 0.0
C592 C 0.35441 0.61416 0.56521 0.0
C593 C 0.33481 0.59682 0.56859 0.0
C594 C 0.31684 0.59854 0.56941 0.0
C595 C 0.37372 0.61281 0.56762 0.0
C596 C 0.37514 0.59713 0.5579 0.0
C597 C 0.38995 0.62587 0.58054 0.0
C598 C 0.38892 0.64195 0.59208 0.0
C599 C 0.37236 0.63654 0.60436 0.0
C600 C 0.37142 0.6518 0.61511 0.0
C601 C 0.38709 0.67251 0.61382 0.0
C602 C 0.40375 0.67798 0.60182 0.0
C603 C 0.40473 0.66277 0.59102 0.0
H604 H 0.38634 0.68431 0.62215 0.0
H605 H 0.39452 0.5325 0.52325 0.0
H606 H 0.86008 0.41728 0.78653 0.0
H607 H 0.82935 0.38992 0.76993 0.0
H608 H 0.83015 0.43411 0.73203 0.0
H609 H 0.86163 0.46169 0.74813 0.0
H610 H 0.79147 0.40993 0.74899 0.0
H611 H 0.84029 0.39949 0.71473 0.0
H612 H 0.87097 0.39517 0.71018 0.0
H613 H 0.84197 0.33988 0.74163 0.0
H614 H 0.81124 0.34402 0.74662 0.0
H615 H 0.69533 0.32251 0.71779 0.0
H616 H 0.73067 0.35249 0.71501 0.0
H617 H 0.75583 0.3232 0.74953 0.0
H618 H 0.72105 0.29307 0.75159 0.0
H619 H 0.78292 0.3435 0.72504 0.0
H620 H 0.74044 0.35924 0.76662 0.0
H621 H 0.71021 0.36351 0.774 0.0
H622 H 0.72778 0.40852 0.73166 0.0
H623 H 0.758 0.40433 0.72392 0.0
C624 C 0.85421 0.42121 0.77434 0.0
C625 C 0.86343 0.44179 0.76872 0.0
C626 C 0.83654 0.4055 0.76489 0.0
C627 C 0.82758 0.40998 0.74968 0.0
C628 C 0.83689 0.43036 0.74373 0.0
C629 C 0.85478 0.4461 0.75305 0.0
C630 C 0.80741 0.39355 0.74131 0.0
C631 C 0.78963 0.39558 0.74327 0.0
C632 C 0.80505 0.37477 0.73415 0.0
C633 C 0.82347 0.37213 0.7311 0.0
C634 C 0.8405 0.38648 0.72078 0.0
C635 C 0.8579 0.38405 0.71811 0.0
C636 C 0.85842 0.36727 0.72562 0.0
C637 C 0.84153 0.35287 0.7358 0.0
C638 C 0.8241 0.35523 0.73853 0.0
C639 C 0.70848 0.32237 0.72451 0.0
C640 C 0.70532 0.30549 0.73509 0.0
C641 C 0.72866 0.33954 0.72298 0.0
C642 C 0.7459 0.34033 0.73239 0.0
C643 C 0.74285 0.32303 0.74212 0.0
C644 C 0.72285 0.30578 0.74336 0.0
C645 C 0.76683 0.35951 0.73359 0.0
C646 C 0.78478 0.35804 0.73025 0.0
C647 C 0.76935 0.37871 0.73984 0.0
C648 C 0.75127 0.38128 0.74454 0.0
C649 C 0.73776 0.36995 0.75883 0.0
C650 C 0.72065 0.37237 0.76308 0.0
C651 C 0.71703 0.38622 0.75326 0.0
C652 C 0.73057 0.39775 0.73922 0.0
C653 C 0.74769 0.39536 0.73489 0.0
H654 H 0.70378 0.38807 0.75657 0.0
H655 H 0.87191 0.36542 0.72354 0.0
H656 H 0.41934 0.87398 0.9268 0.0
H657 H 0.41206 0.84057 0.91361 0.0
H658 H 0.43487 0.82833 0.96455 0.0
H659 H 0.44264 0.86193 0.97759 0.0
H660 H 0.44732 0.81514 0.93622 0.0
H661 H 0.38148 0.8072 0.95453 0.0
H662 H 0.35325 0.81569 0.95575 0.0
H663 H 0.34314 0.80529 0.89661 0.0
H664 H 0.37153 0.79701 0.89501 0.0
H665 H 0.39821 0.70578 0.91829 0.0
H666 H 0.40824 0.73976 0.9322 0.0
H667 H 0.39102 0.7569 0.88087 0.0
H668 H 0.38081 0.72307 0.86698 0.0
H669 H 0.37563 0.767 0.91059 0.0
H670 H 0.44238 0.77502 0.89302 0.0
H671 H 0.47023 0.76596 0.89286 0.0
H672 H 0.47776 0.77515 0.95223 0.0
H673 H 0.44974 0.78401 0.95277 0.0
C674 C 0.4229 0.86419 0.93512 0.0
C675 C 0.43149 0.87052 0.95323 0.0
C676 C 0.41868 0.84508 0.92761 0.0
C677 C 0.42253 0.83172 0.93822 0.0
C678 C 0.43173 0.83832 0.9561 0.0
C679 C 0.4362 0.85754 0.96352 0.0
C680 C 0.41644 0.81068 0.9309 0.0
C681 C 0.43156 0.80453 0.93084 0.0
C682 C 0.39594 0.79684 0.9237 0.0
C683 C 0.37876 0.80167 0.92463 0.0
C684 C 0.37333 0.80686 0.94177 0.0
C685 C 0.35729 0.81162 0.94253 0.0
C686 C 0.34644 0.81108 0.92626 0.0
C687 C 0.35158 0.80572 0.9092 0.0
C688 C 0.36763 0.80098 0.90836 0.0
C689 C 0.39657 0.7168 0.90998 0.0
C690 C 0.38873 0.71172 0.89152 0.0
C691 C 0.40239 0.73624 0.91792 0.0
C692 C 0.40054 0.75093 0.90751 0.0
C693 C 0.39258 0.74581 0.88915 0.0
C694 C 0.3868 0.72645 0.88122 0.0
C695 C 0.40656 0.77159 0.91571 0.0
C696 C 0.39137 0.77763 0.916 0.0
C697 C 0.42692 0.7852 0.92328 0.0
C698 C 0.44382 0.77997 0.92295 0.0
C699 C 0.44986 0.77495 0.90605 0.0
C700 C 0.4657 0.76988 0.90589 0.0
C701 C 0.47572 0.76992 0.92253 0.0
C702 C 0.46996 0.77509 0.93936 0.0
C703 C 0.45412 0.78015 0.9396 0.0
H704 H 0.48797 0.76599 0.92238 0.0
H705 H 0.33403 0.81477 0.92688 0.0
H706 H 0.60999 0.48236 0.12977 0.0
H707 H 0.6382 0.476 0.12089 0.0
H708 H 0.59347 0.42085 0.09001 0.0
H709 H 0.56525 0.42737 0.09834 0.0
H710 H 0.61844 0.41437 0.1153 0.0
H711 H 0.62702 0.46155 0.06708 0.0
H712 H 0.63233 0.49425 0.05474 0.0
H713 H 0.69105 0.52788 0.08523 0.0
H714 H 0.68594 0.49539 0.09797 0.0
H715 H 0.68428 0.38712 0.06782 0.0
H716 H 0.65862 0.39674 0.07708 0.0
H717 H 0.70843 0.45485 0.10009 0.0
H718 H 0.73439 0.44555 0.09032 0.0
H719 H 0.68201 0.46115 0.08049 0.0
H720 H 0.67473 0.41498 0.12825 0.0
H721 H 0.66996 0.38288 0.14155 0.0
H722 H 0.60964 0.34817 0.11378 0.0
H723 H 0.61417 0.38003 0.10009 0.0
C724 C 0.6062 0.46916 0.1207 0.0
C725 C 0.58529 0.45531 0.11485 0.0
C726 C 0.62235 0.46549 0.11573 0.0
C727 C 0.61789 0.44792 0.10486 0.0
C728 C 0.59719 0.43442 0.09853 0.0
C729 C 0.58108 0.43815 0.10336 0.0
C730 C 0.63456 0.44295 0.10088 0.0
C731 C 0.63223 0.42445 0.10749 0.0
C732 C 0.65288 0.45652 0.09131 0.0
C733 C 0.65598 0.47606 0.08364 0.0
C734 C 0.64097 0.47593 0.0713 0.0
C735 C 0.64396 0.49443 0.0642 0.0
C736 C 0.66199 0.51314 0.06924 0.0
C737 C 0.67708 0.51338 0.08136 0.0
C738 C 0.67415 0.49493 0.08851 0.0
C739 C 0.68982 0.40187 0.07502 0.0
C740 C 0.7114 0.41556 0.07837 0.0
C741 C 0.67508 0.40733 0.08037 0.0
C742 C 0.68154 0.42643 0.0895 0.0
C743 C 0.70307 0.44003 0.09308 0.0
C744 C 0.71788 0.43465 0.08756 0.0
C745 C 0.6658 0.43236 0.0947 0.0
C746 C 0.6683 0.45107 0.08839 0.0
C747 C 0.64771 0.41909 0.10475 0.0
C748 C 0.64487 0.39989 0.11302 0.0
C749 C 0.66051 0.40048 0.12487 0.0
C750 C 0.65784 0.38233 0.1325 0.0
C751 C 0.63953 0.36349 0.12848 0.0
C752 C 0.62382 0.36277 0.11686 0.0
C753 C 0.62642 0.38088 0.10919 0.0
H754 H 0.63749 0.34945 0.13439 0.0
H755 H 0.66428 0.52744 0.06373 0.0
H756 H 0.43396 0.88379 0.52458 0.0
H757 H 0.40933 0.85155 0.53946 0.0
H758 H 0.40754 0.81674 0.49023 0.0
H759 H 0.43189 0.84883 0.47523 0.0
H760 H 0.36814 0.80431 0.50327 0.0
H761 H 0.43512 0.81774 0.52743 0.0
H762 H 0.46979 0.83845 0.54316 0.0
H763 H 0.44024 0.84252 0.5929 0.0
H764 H 0.40538 0.82206 0.57737 0.0
H765 H 0.32064 0.70339 0.53847 0.0
H766 H 0.34435 0.73645 0.52461 0.0
H767 H 0.3475 0.76841 0.57623 0.0
H768 H 0.3241 0.73539 0.59031 0.0
H769 H 0.38571 0.783 0.56253 0.0
H770 H 0.31859 0.76877 0.53877 0.0
H771 H 0.28387 0.7478 0.52319 0.0
H772 H 0.31338 0.74526 0.47287 0.0
H773 H 0.3483 0.766 0.48823 0.0
C774 C 0.4283 0.86925 0.51696 0.0
C775 C 0.43495 0.86881 0.49879 0.0
C776 C 0.41433 0.85087 0.52549 0.0
C777 C 0.40672 0.83177 0.51596 0.0
C778 C 0.41326 0.83132 0.49782 0.0
C779 C 0.42732 0.84964 0.48934 0.0
C780 C 0.39177 0.81222 0.52481 0.0
C781 C 0.37204 0.79952 0.51613 0.0
C782 C 0.39671 0.80627 0.5418 0.0
C783 C 0.41765 0.81857 0.55117 0.0
C784 C 0.43602 0.82321 0.54167 0.0
C785 C 0.45571 0.83487 0.55056 0.0
C786 C 0.45722 0.84185 0.569 0.0
C787 C 0.43905 0.83713 0.5786 0.0
C788 C 0.41932 0.82549 0.56977 0.0
C789 C 0.32629 0.71745 0.54685 0.0
C790 C 0.32046 0.71675 0.56549 0.0
C791 C 0.33979 0.73635 0.53889 0.0
C792 C 0.34752 0.75492 0.54933 0.0
C793 C 0.34171 0.75427 0.56792 0.0
C794 C 0.32827 0.73538 0.57592 0.0
C795 C 0.36205 0.77499 0.54097 0.0
C796 C 0.38173 0.78781 0.54973 0.0
C797 C 0.35703 0.78107 0.52407 0.0
C798 C 0.33606 0.76879 0.51471 0.0
C799 C 0.31767 0.76363 0.52442 0.0
C800 C 0.29796 0.7518 0.51562 0.0
C801 C 0.29641 0.74515 0.49706 0.0
C802 C 0.3146 0.7504 0.48725 0.0
C803 C 0.33436 0.76222 0.49599 0.0
H804 H 0.28113 0.73596 0.49028 0.0
H805 H 0.47248 0.85087 0.57586 0.0
H806 H 0.60819 0.44329 0.65897 0.0
H807 H 0.61105 0.41415 0.66976 0.0
H808 H 0.5466 0.38397 0.68677 0.0
H809 H 0.54377 0.41347 0.67643 0.0
H810 H 0.57222 0.38089 0.71263 0.0
H811 H 0.55859 0.3684 0.64718 0.0
H812 H 0.5637 0.37679 0.61399 0.0
H813 H 0.62622 0.3865 0.61807 0.0
H814 H 0.62161 0.37846 0.65138 0.0
H815 H 0.56799 0.28544 0.72627 0.0
H816 H 0.56016 0.31093 0.71368 0.0
H817 H 0.6235 0.34604 0.69422 0.0
H818 H 0.63139 0.32049 0.70654 0.0
H819 H 0.59532 0.3446 0.66886 0.0
H820 H 0.60965 0.35958 0.73478 0.0
H821 H 0.60464 0.35148 0.76805 0.0
H822 H 0.54052 0.33707 0.76291 0.0
H823 H 0.54508 0.34483 0.72953 0.0
C824 C 0.59471 0.43064 0.6653 0.0
C825 C 0.57575 0.43073 0.66688 0.0
C826 C 0.59629 0.41387 0.67125 0.0
C827 C 0.57894 0.39676 0.67879 0.0
C828 C 0.56014 0.39698 0.68087 0.0
C829 C 0.55852 0.41378 0.67488 0.0
C830 C 0.58054 0.37867 0.68442 0.0
C831 C 0.5769 0.37271 0.70299 0.0
C832 C 0.587 0.36824 0.67189 0.0
C833 C 0.58981 0.37299 0.65183 0.0
C834 C 0.57349 0.37247 0.64104 0.0
C835 C 0.57629 0.37715 0.6222 0.0
C836 C 0.59529 0.38222 0.61394 0.0
C837 C 0.61152 0.38258 0.6245 0.0
C838 C 0.60881 0.37795 0.64335 0.0
C839 C 0.58021 0.29847 0.71916 0.0
C840 C 0.60038 0.30102 0.71756 0.0
C841 C 0.57572 0.31307 0.71203 0.0
C842 C 0.59135 0.33055 0.70329 0.0
C843 C 0.61123 0.3327 0.70098 0.0
C844 C 0.61572 0.31809 0.70807 0.0
C845 C 0.58728 0.34701 0.69713 0.0
C846 C 0.59045 0.35267 0.67845 0.0
C847 C 0.58038 0.35715 0.70955 0.0
C848 C 0.57764 0.35256 0.72963 0.0
C849 C 0.59444 0.35453 0.74072 0.0
C850 C 0.59169 0.35003 0.7596 0.0
C851 C 0.57226 0.3437 0.76758 0.0
C852 C 0.55555 0.34193 0.75671 0.0
C853 C 0.55821 0.34639 0.73781 0.0
H854 H 0.57016 0.34023 0.7822 0.0
H855 H 0.59742 0.38583 0.59935 0.0
H856 H 0.16898 0.60744 0.83169 0.0
H857 H 0.19951 0.60931 0.84726 0.0
H858 H 0.15981 0.56854 0.8892 0.0
H859 H 0.12887 0.56646 0.87353 0.0
H860 H 0.2035 0.6078 0.90094 0.0
H861 H 0.1697 0.54442 0.86403 0.0
H862 H 0.15189 0.52328 0.83572 0.0
H863 H 0.20636 0.56143 0.80395 0.0
H864 H 0.22437 0.58301 0.83203 0.0
H865 H 0.29115 0.57631 0.88934 0.0
H866 H 0.25465 0.56784 0.89144 0.0
H867 H 0.27447 0.63269 0.89072 0.0
H868 H 0.31103 0.64132 0.88909 0.0
H869 H 0.23567 0.57445 0.86438 0.0
H870 H 0.23767 0.64204 0.90793 0.0
H871 H 0.25508 0.66292 0.93645 0.0
H872 H 0.26358 0.61418 0.95702 0.0
H873 H 0.24595 0.59287 0.92875 0.0
C874 C 0.16675 0.5992 0.84444 0.0
C875 C 0.14656 0.58684 0.85144 0.0
C876 C 0.18419 0.60025 0.85328 0.0
C877 C 0.18183 0.58909 0.86934 0.0
C878 C 0.16186 0.57733 0.87685 0.0
C879 C 0.14426 0.57605 0.86784 0.0
C880 C 0.20019 0.58855 0.87704 0.0
C881 C 0.21052 0.60035 0.89318 0.0
C882 C 0.20897 0.57847 0.867 0.0
C883 C 0.19831 0.56541 0.85011 0.0
C884 C 0.17781 0.5484 0.85098 0.0
C885 C 0.16769 0.53632 0.83498 0.0
C886 C 0.17797 0.54103 0.81804 0.0
C887 C 0.19841 0.55781 0.81708 0.0
C888 C 0.20859 0.56995 0.83304 0.0
C889 C 0.2878 0.58882 0.89009 0.0
C890 C 0.30398 0.60948 0.88877 0.0
C891 C 0.26691 0.58393 0.89132 0.0
C892 C 0.26177 0.59959 0.89119 0.0
C893 C 0.27802 0.62032 0.89113 0.0
C894 C 0.29896 0.62524 0.89008 0.0
C895 C 0.2396 0.59423 0.88818 0.0
C896 C 0.22857 0.58147 0.87265 0.0
C897 C 0.23017 0.60327 0.89897 0.0
C898 C 0.24058 0.6159 0.91614 0.0
C899 C 0.24313 0.63571 0.91858 0.0
C900 C 0.25307 0.64764 0.9347 0.0
C901 C 0.26047 0.63989 0.94852 0.0
C902 C 0.2579 0.62018 0.94628 0.0
C903 C 0.24796 0.60819 0.93019 0.0
H904 H 0.26817 0.64916 0.96098 0.0
H905 H 0.17011 0.53167 0.80567 0.0
H906 H 0.59747 0.15368 0.01029 0.0
H907 H 0.62526 0.18556 0.025 0.0
H908 H 0.57886 0.19758 0.04873 0.0
H909 H 0.55081 0.16541 0.03421 0.0
H910 H 0.60784 0.23017 0.03053 0.0
H911 H 0.60903 0.1862 0.07671 0.0
H912 H 0.60998 0.15621 0.08896 0.0
H913 H 0.67018 0.17722 0.06484 0.0
H914 H 0.66947 0.2072 0.05219 0.0
H915 H 0.68951 0.32442 0.06856 0.0
H916 H 0.65916 0.28944 0.06872 0.0
H917 H 0.6958 0.26566 0.04343 0.0
H918 H 0.72633 0.30043 0.04363 0.0
H919 H 0.66916 0.23877 0.06751 0.0
H920 H 0.66492 0.27846 0.01702 0.0
H921 H 0.66415 0.30806 0.00351 0.0
H922 H 0.6096 0.29433 0.03483 0.0
H923 H 0.61022 0.26478 0.0487 0.0
C924 C 0.5931 0.16276 0.01905 0.0
C925 C 0.57187 0.15696 0.02104 0.0
C926 C 0.60905 0.18104 0.02745 0.0
C927 C 0.60415 0.19389 0.0381 0.0
C928 C 0.58299 0.18788 0.04058 0.0
C929 C 0.56699 0.16955 0.0322 0.0
C930 C 0.62118 0.21445 0.04507 0.0
C931 C 0.621 0.23203 0.03902 0.0
C932 C 0.63858 0.21689 0.05577 0.0
C933 C 0.63912 0.1989 0.0634 0.0
C934 C 0.6224 0.18436 0.07389 0.0
C935 C 0.62292 0.16736 0.08093 0.0
C936 C 0.64012 0.16479 0.07765 0.0
C937 C 0.65686 0.17923 0.06736 0.0
C938 C 0.65643 0.19625 0.06028 0.0
C939 C 0.69124 0.31172 0.06333 0.0
C940 C 0.7103 0.31532 0.05581 0.0
C941 C 0.67384 0.29172 0.0634 0.0
C942 C 0.67507 0.27499 0.05572 0.0
C943 C 0.69444 0.27834 0.04936 0.0
C944 C 0.71189 0.29829 0.04943 0.0
C945 C 0.65592 0.25439 0.0527 0.0
C946 C 0.65576 0.23685 0.05939 0.0
C947 C 0.63822 0.25191 0.04246 0.0
C948 C 0.63777 0.26959 0.03406 0.0
C949 C 0.65285 0.28185 0.02111 0.0
C950 C 0.65243 0.2986 0.01338 0.0
C951 C 0.63688 0.30311 0.01835 0.0
C952 C 0.62167 0.29084 0.03103 0.0
C953 C 0.62204 0.27409 0.03882 0.0
H954 H 0.63658 0.31609 0.01235 0.0
H955 H 0.64048 0.15162 0.08311 0.0
H956 H 0.45301 0.5987 0.19409 0.0
H957 H 0.44493 0.62355 0.20846 0.0
H958 H 0.38313 0.59145 0.18238 0.0
H959 H 0.39163 0.56776 0.16672 0.0
H960 H 0.39983 0.62931 0.17556 0.0
H961 H 0.3928 0.59305 0.2313 0.0
H962 H 0.40312 0.57732 0.25598 0.0
H963 H 0.45639 0.6366 0.27097 0.0
H964 H 0.44656 0.65266 0.2462 0.0
H965 H 0.36253 0.68957 0.21623 0.0
H966 H 0.36682 0.65932 0.21494 0.0
H967 H 0.43379 0.69857 0.22279 0.0
H968 H 0.42977 0.72905 0.22386 0.0
H969 H 0.41317 0.65644 0.24088 0.0
H970 H 0.42114 0.69075 0.18204 0.0
H971 H 0.40947 0.70591 0.15785 0.0
H972 H 0.35203 0.64797 0.14956 0.0
H973 H 0.36324 0.63258 0.17394 0.0
C974 C 0.43768 0.59688 0.19138 0.0
C975 C 0.42311 0.58123 0.179 0.0
C976 C 0.43295 0.61095 0.1999 0.0
C977 C 0.41336 0.60937 0.19658 0.0
C978 C 0.39837 0.59305 0.18514 0.0
C979 C 0.40322 0.57927 0.17634 0.0
C980 C 0.40925 0.62589 0.2032 0.0
C981 C 0.40237 0.63485 0.18995 0.0
C982 C 0.41305 0.63363 0.22187 0.0
C983 C 0.41904 0.62403 0.23676 0.0
C984 C 0.40681 0.60271 0.23975 0.0
C985 C 0.41256 0.59374 0.25378 0.0
C986 C 0.43043 0.60594 0.265 0.0
C987 C 0.44256 0.62716 0.26225 0.0
C988 C 0.4369 0.63621 0.24823 0.0
C989 C 0.37813 0.69179 0.21822 0.0
C990 C 0.39586 0.71175 0.21983 0.0
C991 C 0.38052 0.67446 0.21752 0.0
C992 C 0.40062 0.6768 0.21865 0.0
C993 C 0.41816 0.69651 0.22196 0.0
C994 C 0.41583 0.71389 0.22242 0.0
C995 C 0.40358 0.65933 0.21327 0.0
C996 C 0.4104 0.65048 0.22661 0.0
C997 C 0.39955 0.65145 0.19473 0.0
C998 C 0.39291 0.66061 0.17995 0.0
C999 C 0.40594 0.68131 0.17517 0.0
C1000 C 0.39943 0.68993 0.16141 0.0
C1001 C 0.37999 0.67793 0.15221 0.0
C1002 C 0.36706 0.65726 0.15672 0.0
C1003 C 0.37348 0.64858 0.1705 0.0
H1004 H 0.37497 0.68462 0.14156 0.0
H1005 H 0.43484 0.59896 0.27586 0.0
H1006 H 0.84787 0.41232 0.35689 0.0
H1007 H 0.81487 0.40295 0.37161 0.0
H1008 H 0.83103 0.46687 0.37317 0.0
H1009 H 0.86499 0.4767 0.36 0.0
H1010 H 0.80791 0.44868 0.40167 0.0
H1011 H 0.80271 0.43268 0.33568 0.0
H1012 H 0.80726 0.41641 0.30731 0.0
H1013 H 0.76911 0.35635 0.3298 0.0
H1014 H 0.76456 0.37231 0.35842 0.0
H1015 H 0.71079 0.44319 0.38061 0.0
H1016 H 0.74614 0.44841 0.38368 0.0
H1017 H 0.72024 0.383 0.39041 0.0
H1018 H 0.68472 0.37756 0.38731 0.0
H1019 H 0.74746 0.39802 0.36195 0.0
H1020 H 0.74756 0.41617 0.42596 0.0
H1021 H 0.74264 0.43438 0.45263 0.0
H1022 H 0.7897 0.49267 0.43203 0.0
H1023 H 0.7947 0.47484 0.40508 0.0
C1024 C 0.84488 0.42457 0.36095 0.0
C1025 C 0.85906 0.44529 0.3568 0.0
C1026 C 0.82578 0.4191 0.36919 0.0
C1027 C 0.82014 0.4341 0.37291 0.0
C1028 C 0.83489 0.45495 0.37019 0.0
C1029 C 0.85422 0.46051 0.36236 0.0
C1030 C 0.79824 0.42796 0.37766 0.0
C1031 C 0.79468 0.43764 0.39298 0.0
C1032 C 0.7809 0.4133 0.3665 0.0
C1033 C 0.78351 0.40368 0.34926 0.0
C1034 C 0.7954 0.41601 0.33461 0.0
C1035 C 0.79797 0.40685 0.31849 0.0
C1036 C 0.78854 0.38536 0.31677 0.0
C1037 C 0.77645 0.37299 0.33116 0.0
C1038 C 0.77387 0.38208 0.34734 0.0
C1039 C 0.71256 0.42993 0.3831 0.0
C1040 C 0.69491 0.40991 0.38347 0.0
C1041 C 0.73281 0.43298 0.385 0.0
C1042 C 0.73581 0.4161 0.38733 0.0
C1043 C 0.71824 0.39624 0.38867 0.0
C1044 C 0.69795 0.39317 0.38689 0.0
C1045 C 0.75712 0.41892 0.38581 0.0
C1046 C 0.76059 0.40869 0.37095 0.0
C1047 C 0.77431 0.43335 0.39718 0.0
C1048 C 0.77141 0.44415 0.41342 0.0
C1049 C 0.75675 0.43288 0.42703 0.0
C1050 C 0.75397 0.44314 0.44222 0.0
C1051 C 0.76582 0.46467 0.44401 0.0
C1052 C 0.78052 0.47599 0.43063 0.0
C1053 C 0.78337 0.46581 0.41541 0.0
H1054 H 0.76364 0.47258 0.45577 0.0
H1055 H 0.79054 0.3783 0.30428 0.0
H1056 H 0.13501 0.55079 0.3995 0.0
H1057 H 0.15808 0.56222 0.42702 0.0
H1058 H 0.13317 0.60075 0.44469 0.0
H1059 H 0.10921 0.58874 0.4174 0.0
H1060 H 0.17951 0.62003 0.44636 0.0
H1061 H 0.11672 0.55992 0.46659 0.0
H1062 H 0.08787 0.5237 0.46376 0.0
H1063 H 0.13254 0.50293 0.46403 0.0
H1064 H 0.16169 0.53905 0.46659 0.0
H1065 H 0.22942 0.64068 0.53637 0.0
H1066 H 0.20577 0.63329 0.50951 0.0
H1067 H 0.2093 0.57871 0.49594 0.0
H1068 H 0.23168 0.58533 0.52359 0.0
H1069 H 0.17173 0.56882 0.49287 0.0
H1070 H 0.23459 0.62727 0.47065 0.0
H1071 H 0.26462 0.66298 0.47181 0.0
H1072 H 0.22225 0.68653 0.47328 0.0
H1073 H 0.19197 0.65095 0.47235 0.0
C1074 C 0.13405 0.5614 0.40935 0.0
C1075 C 0.11992 0.56856 0.40631 0.0
C1076 C 0.14746 0.56808 0.42499 0.0
C1077 C 0.14724 0.58223 0.43789 0.0
C1078 C 0.13357 0.58985 0.43482 0.0
C1079 C 0.11992 0.58297 0.41921 0.0
C1080 C 0.16105 0.58855 0.45475 0.0
C1081 C 0.17771 0.60899 0.45674 0.0
C1082 C 0.15891 0.57394 0.46793 0.0
C1083 C 0.14139 0.5522 0.46664 0.0
C1084 C 0.1204 0.54763 0.46591 0.0
C1085 C 0.10399 0.52712 0.46438 0.0
C1086 C 0.10837 0.51103 0.46368 0.0
C1087 C 0.12917 0.51541 0.46456 0.0
C1088 C 0.14564 0.5359 0.46608 0.0
C1089 C 0.2253 0.62725 0.52749 0.0
C1090 C 0.23236 0.61358 0.53198 0.0
C1091 C 0.21186 0.62308 0.51206 0.0
C1092 C 0.20588 0.60556 0.50043 0.0
C1093 C 0.21353 0.59227 0.50468 0.0
C1094 C 0.22641 0.59609 0.52042 0.0
C1095 C 0.1908 0.60035 0.48444 0.0
C1096 C 0.17372 0.58004 0.48261 0.0
C1097 C 0.19283 0.61504 0.47125 0.0
C1098 C 0.21102 0.63644 0.47162 0.0
C1099 C 0.23169 0.64006 0.47134 0.0
C1100 C 0.24875 0.66028 0.47193 0.0
C1101 C 0.24535 0.67701 0.47267 0.0
C1102 C 0.22487 0.67356 0.47273 0.0
C1103 C 0.20775 0.65337 0.47215 0.0
H1104 H 0.25858 0.69265 0.47316 0.0
H1105 H 0.09564 0.49516 0.46248 0.0
H1106 H 0.59949 0.11811 0.57369 0.0
H1107 H 0.60665 0.1373 0.60333 0.0
H1108 H 0.55438 0.14665 0.59258 0.0
H1109 H 0.54746 0.12792 0.56262 0.0
H1110 H 0.58941 0.18226 0.60326 0.0
H1111 H 0.55111 0.11352 0.62548 0.0
H1112 H 0.5423 0.07737 0.6288 0.0
H1113 H 0.60347 0.09797 0.65305 0.0
H1114 H 0.61277 0.13427 0.64963 0.0
H1115 H 0.60023 0.2289 0.69347 0.0
H1116 H 0.58645 0.20669 0.66539 0.0
H1117 H 0.63332 0.18879 0.67211 0.0
H1118 H 0.64668 0.21035 0.70046 0.0
H1119 H 0.59712 0.15618 0.66396 0.0
H1120 H 0.63668 0.22445 0.63914 0.0
H1121 H 0.64629 0.26078 0.63531 0.0
H1122 H 0.58362 0.2412 0.61554 0.0
H1123 H 0.57357 0.20475 0.61947 0.0
C1124 C 0.58947 0.12418 0.57767 0.0
C1125 C 0.57294 0.12154 0.56581 0.0
C1126 C 0.59346 0.13499 0.59468 0.0
C1127 C 0.58094 0.14327 0.60022 0.0
C1128 C 0.56418 0.14033 0.58858 0.0
C1129 C 0.56014 0.12948 0.57156 0.0
C1130 C 0.58614 0.15593 0.61769 0.0
C1131 C 0.59073 0.17646 0.61661 0.0
C1132 C 0.58827 0.14846 0.635 0.0
C1133 C 0.58269 0.12663 0.63717 0.0
C1134 C 0.56274 0.11035 0.63139 0.0
C1135 C 0.55765 0.08983 0.63332 0.0
C1136 C 0.57233 0.08537 0.64109 0.0
C1137 C 0.59212 0.10144 0.64701 0.0
C1138 C 0.5973 0.12199 0.64511 0.0
C1139 C 0.60767 0.22033 0.68889 0.0
C1140 C 0.62456 0.22141 0.69918 0.0
C1141 C 0.59981 0.20766 0.67281 0.0
C1142 C 0.60897 0.19619 0.66653 0.0
C1143 C 0.62594 0.19742 0.67672 0.0
C1144 C 0.63361 0.20982 0.69289 0.0
C1145 C 0.60083 0.18267 0.64949 0.0
C1146 C 0.59564 0.16195 0.65065 0.0
C1147 C 0.59826 0.19 0.63223 0.0
C1148 C 0.60432 0.2119 0.62979 0.0
C1149 C 0.62492 0.22791 0.63411 0.0
C1150 C 0.63045 0.24852 0.6319 0.0
C1151 C 0.61556 0.2533 0.62524 0.0
C1152 C 0.59512 0.23747 0.62073 0.0
C1153 C 0.58951 0.21684 0.62293 0.0
H1154 H 0.61987 0.26926 0.62354 0.0
H1155 H 0.56836 0.06947 0.64257 0.0
H1156 H 0.4874 0.57574 0.73925 0.0
H1157 H 0.47257 0.583 0.7668 0.0
H1158 H 0.4232 0.581 0.7324 0.0
H1159 H 0.43796 0.5739 0.70489 0.0
H1160 H 0.44447 0.61672 0.75416 0.0
H1161 H 0.41116 0.54337 0.76094 0.0
H1162 H 0.40969 0.50994 0.76372 0.0
H1163 H 0.44835 0.53241 0.81351 0.0
H1164 H 0.4503 0.5661 0.81088 0.0
H1165 H 0.3722 0.59716 0.83539 0.0
H1166 H 0.3867 0.58378 0.81235 0.0
H1167 H 0.44696 0.63964 0.81868 0.0
H1168 H 0.4326 0.65317 0.84191 0.0
H1169 H 0.42 0.57615 0.81144 0.0
H1170 H 0.46521 0.65337 0.77457 0.0
H1171 H 0.46443 0.68566 0.771 0.0
H1172 H 0.39793 0.65302 0.77955 0.0
H1173 H 0.39829 0.62051 0.78291 0.0
C1174 C 0.47324 0.5766 0.73764 0.0
C1175 C 0.46384 0.57428 0.71993 0.0
C1176 C 0.46475 0.58065 0.75337 0.0
C1177 C 0.44682 0.58255 0.75159 0.0
C1178 C 0.43705 0.57958 0.73403 0.0
C1179 C 0.4454 0.57537 0.71836 0.0
C1180 C 0.43912 0.58917 0.76772 0.0
C1181 C 0.43918 0.60786 0.7667 0.0
C1182 C 0.43215 0.57755 0.78402 0.0
C1183 C 0.43107 0.55734 0.78559 0.0
C1184 C 0.41952 0.54126 0.77238 0.0
C1185 C 0.41856 0.52224 0.77395 0.0
C1186 C 0.42897 0.51907 0.78875 0.0
C1187 C 0.44032 0.5349 0.80203 0.0
C1188 C 0.44135 0.55395 0.80052 0.0
C1189 C 0.38864 0.60647 0.83221 0.0
C1190 C 0.40122 0.62628 0.84046 0.0
C1191 C 0.39691 0.59876 0.81904 0.0
C1192 C 0.41783 0.61078 0.81373 0.0
C1193 C 0.43071 0.63019 0.82252 0.0
C1194 C 0.42248 0.63789 0.83577 0.0
C1195 C 0.42554 0.60375 0.79788 0.0
C1196 C 0.4255 0.58505 0.79896 0.0
C1197 C 0.43232 0.61521 0.78149 0.0
C1198 C 0.43184 0.63459 0.7792 0.0
C1199 C 0.45043 0.65309 0.77563 0.0
C1200 C 0.45005 0.67143 0.77365 0.0
C1201 C 0.43116 0.67141 0.77512 0.0
C1202 C 0.41257 0.65303 0.77849 0.0
C1203 C 0.41286 0.63466 0.78045 0.0
H1204 H 0.43091 0.68562 0.7736 0.0
H1205 H 0.4282 0.50434 0.78995 0.0
H1206 H 0.91848 0.47397 0.90148 0.0
H1207 H 0.90245 0.46163 0.93165 0.0
H1208 H 0.85194 0.47201 0.91619 0.0
H1209 H 0.86695 0.48315 0.88573 0.0
H1210 H 0.87339 0.48845 0.95396 0.0
H1211 H 0.84129 0.42658 0.91194 0.0
H1212 H 0.84389 0.40155 0.89095 0.0
H1213 H 0.87497 0.38775 0.93444 0.0
H1214 H 0.8728 0.41295 0.9556 0.0
H1215 H 0.78374 0.43771 0.00602 0.0
H1216 H 0.81174 0.45335 0.98379 0.0
H1217 H 0.83484 0.41331 0.00083 0.0
H1218 H 0.80579 0.39665 0.02233 0.0
H1219 H 0.83543 0.4135 0.96636 0.0
H1220 H 0.86241 0.46865 0.01049 0.0
H1221 H 0.86287 0.4942 0.03294 0.0
H1222 H 0.84709 0.5223 0.989 0.0
H1223 H 0.84622 0.49674 0.96631 0.0
C1224 C 0.90383 0.47342 0.90437 0.0
C1225 C 0.89407 0.47963 0.89107 0.0
C1226 C 0.89484 0.46655 0.92169 0.0
C1227 C 0.87614 0.46608 0.92609 0.0
C1228 C 0.86653 0.47252 0.91306 0.0
C1229 C 0.87525 0.47901 0.89567 0.0
C1230 C 0.86592 0.45821 0.94399 0.0
C1231 C 0.86505 0.47209 0.95679 0.0
C1232 C 0.85601 0.43703 0.94796 0.0
C1233 C 0.85713 0.42182 0.93525 0.0
C1234 C 0.84885 0.41835 0.91696 0.0
C1235 C 0.85021 0.4041 0.90505 0.0
C1236 C 0.85966 0.39312 0.91134 0.0
C1237 C 0.8677 0.39631 0.92957 0.0
C1238 C 0.8664 0.41056 0.94153 0.0
C1239 C 0.79496 0.43243 0.00521 0.0
C1240 C 0.79259 0.41596 0.01585 0.0
C1241 C 0.81114 0.44153 0.99259 0.0
C1242 C 0.82581 0.43489 0.99082 0.0
C1243 C 0.82379 0.41877 0.0019 0.0
C1244 C 0.8072 0.40925 0.01419 0.0
C1245 C 0.84201 0.44365 0.97629 0.0
C1246 C 0.84411 0.42997 0.96403 0.0
C1247 C 0.85359 0.46516 0.97312 0.0
C1248 C 0.85417 0.48069 0.98669 0.0
C1249 C 0.85892 0.48019 0.00562 0.0
C1250 C 0.85926 0.49469 0.01839 0.0
C1251 C 0.85499 0.50985 0.0124 0.0
C1252 C 0.8504 0.51055 0.99362 0.0
C1253 C 0.85002 0.49609 0.98078 0.0
H1254 H 0.85526 0.52105 0.02232 0.0
H1255 H 0.86069 0.38209 0.9021 0.0
H1256 H 0.42028 0.92509 0.0818 0.0
H1257 H 0.41759 0.90711 0.11055 0.0
H1258 H 0.46597 0.89505 0.09207 0.0
H1259 H 0.46855 0.91278 0.06323 0.0
H1260 H 0.42866 0.8601 0.09815 0.0
H1261 H 0.47457 0.92339 0.13073 0.0
H1262 H 0.48833 0.9594 0.14177 0.0
H1263 H 0.43098 0.94146 0.17014 0.0
H1264 H 0.41671 0.90537 0.15903 0.0
H1265 H 0.41797 0.79752 0.17243 0.0
H1266 H 0.43534 0.82844 0.154 0.0
H1267 H 0.38611 0.84176 0.16593 0.0
H1268 H 0.36858 0.81079 0.18459 0.0
H1269 H 0.42778 0.87794 0.16488 0.0
H1270 H 0.38019 0.81687 0.12839 0.0
H1271 H 0.36522 0.78079 0.117 0.0
H1272 H 0.42497 0.79521 0.09529 0.0
H1273 H 0.44038 0.83134 0.10682 0.0
C1274 C 0.43068 0.91902 0.0841 0.0
C1275 C 0.44443 0.92008 0.07022 0.0
C1276 C 0.42928 0.90894 0.10059 0.0
C1277 C 0.44158 0.89976 0.10339 0.0
C1278 C 0.45641 0.90212 0.09016 0.0
C1279 C 0.4579 0.9123 0.07372 0.0
C1280 C 0.43634 0.88477 0.11829 0.0
C1281 C 0.429 0.86414 0.11279 0.0
C1282 C 0.43605 0.88995 0.13728 0.0
C1283 C 0.44449 0.91167 0.1439 0.0
C1284 C 0.46479 0.92714 0.13916 0.0
C1285 C 0.47271 0.94757 0.14547 0.0
C1286 C 0.46052 0.95272 0.15662 0.0
C1287 C 0.4404 0.93745 0.16149 0.0
C1288 C 0.4324 0.91699 0.15521 0.0
C1289 C 0.41102 0.80721 0.17148 0.0
C1290 C 0.39179 0.80161 0.17979 0.0
C1291 C 0.421 0.82489 0.16097 0.0
C1292 C 0.4119 0.83724 0.15856 0.0
C1293 C 0.39337 0.83241 0.16773 0.0
C1294 C 0.3833 0.81464 0.17822 0.0
C1295 C 0.42027 0.85349 0.14462 0.0
C1296 C 0.42792 0.87414 0.15026 0.0
C1297 C 0.4207 0.84842 0.12565 0.0
C1298 C 0.4115 0.82672 0.11868 0.0
C1299 C 0.39019 0.81229 0.12135 0.0
C1300 C 0.38161 0.79185 0.11484 0.0
C1301 C 0.39416 0.78569 0.10548 0.0
C1302 C 0.41529 0.79999 0.10258 0.0
C1303 C 0.42395 0.82045 0.1091 0.0
H1304 H 0.38749 0.76986 0.10044 0.0
H1305 H 0.46669 0.96854 0.1615 0.0
H1306 H 0.56958 0.46231 0.21865 0.0
H1307 H 0.57705 0.45158 0.24822 0.0
H1308 H 0.51958 0.4442 0.27017 0.0
H1309 H 0.51182 0.45485 0.24037 0.0
H1310 H 0.5646 0.46509 0.29476 0.0
H1311 H 0.50859 0.40406 0.26167 0.0
H1312 H 0.49238 0.38305 0.23293 0.0
H1313 H 0.54748 0.37852 0.22423 0.0
H1314 H 0.56414 0.39983 0.25277 0.0
H1315 H 0.56246 0.37119 0.34486 0.0
H1316 H 0.54569 0.38596 0.326 0.0
H1317 H 0.60646 0.43855 0.31536 0.0
H1318 H 0.62331 0.4239 0.33397 0.0
H1319 H 0.55194 0.39353 0.28918 0.0
H1320 H 0.60163 0.48097 0.31 0.0
H1321 H 0.61896 0.50275 0.33811 0.0
H1322 H 0.57588 0.45403 0.37256 0.0
H1323 H 0.55807 0.43207 0.34466 0.0
C1324 C 0.5588 0.45897 0.22992 0.0
C1325 C 0.5401 0.45938 0.22723 0.0
C1326 C 0.56307 0.45281 0.24676 0.0
C1327 C 0.54884 0.44715 0.26124 0.0
C1328 C 0.53074 0.44865 0.25909 0.0
C1329 C 0.52629 0.45457 0.24209 0.0
C1330 C 0.55195 0.43736 0.27758 0.0
C1331 C 0.56162 0.44938 0.29376 0.0
C1332 C 0.54778 0.41682 0.27617 0.0
C1333 C 0.53765 0.40365 0.25924 0.0
C1334 C 0.5173 0.39872 0.25354 0.0
C1335 C 0.50803 0.38674 0.2373 0.0
C1336 C 0.51891 0.37949 0.22674 0.0
C1337 C 0.53907 0.38416 0.23242 0.0
C1338 C 0.54843 0.39617 0.24863 0.0
C1339 C 0.57224 0.38601 0.33867 0.0
C1340 C 0.59423 0.3964 0.34094 0.0
C1341 C 0.56262 0.39443 0.32795 0.0
C1342 C 0.57482 0.41345 0.3195 0.0
C1343 C 0.59673 0.42405 0.32208 0.0
C1344 C 0.60635 0.4156 0.33269 0.0
C1345 C 0.56502 0.42132 0.30645 0.0
C1346 C 0.55434 0.40902 0.29064 0.0
C1347 C 0.56819 0.44155 0.30834 0.0
C1348 C 0.57858 0.45482 0.3252 0.0
C1349 C 0.59575 0.47494 0.32356 0.0
C1350 C 0.60569 0.48732 0.33947 0.0
C1351 C 0.59856 0.47977 0.35711 0.0
C1352 C 0.58143 0.45984 0.35889 0.0
C1353 C 0.57143 0.44741 0.34303 0.0
H1354 H 0.60628 0.48936 0.36941 0.0
H1355 H 0.51171 0.37022 0.21417 0.0
H1356 H 0.41971 0.90626 0.38186 0.0
H1357 H 0.40484 0.8838 0.35397 0.0
H1358 H 0.46195 0.88189 0.34821 0.0
H1359 H 0.47643 0.90296 0.3765 0.0
H1360 H 0.44404 0.88955 0.31401 0.0
H1361 H 0.42617 0.8441 0.36707 0.0
H1362 H 0.40957 0.83133 0.39722 0.0
H1363 H 0.34971 0.81666 0.37348 0.0
H1364 H 0.36606 0.82967 0.34324 0.0
H1365 H 0.43332 0.80817 0.25906 0.0
H1366 H 0.43906 0.83145 0.28544 0.0
H1367 H 0.37274 0.81024 0.28609 0.0
H1368 H 0.36672 0.78647 0.25968 0.0
H1369 H 0.3893 0.81606 0.32115 0.0
H1370 H 0.40485 0.85543 0.26704 0.0
H1371 H 0.4203 0.86845 0.23657 0.0
H1372 H 0.4823 0.89571 0.26118 0.0
H1373 H 0.46724 0.88255 0.29176 0.0
C1374 C 0.42912 0.901 0.37476 0.0
C1375 C 0.44936 0.90654 0.3816 0.0
C1376 C 0.42062 0.88831 0.35874 0.0
C1377 C 0.43235 0.88127 0.34912 0.0
C1378 C 0.45275 0.88735 0.35542 0.0
C1379 C 0.46107 0.89962 0.37157 0.0
C1380 C 0.42331 0.86674 0.33294 0.0
C1381 C 0.43207 0.87348 0.3155 0.0
C1382 C 0.40718 0.84601 0.33487 0.0
C1383 C 0.39738 0.83811 0.353 0.0
C1384 C 0.40951 0.83835 0.36834 0.0
C1385 C 0.40014 0.83103 0.38543 0.0
C1386 C 0.37861 0.82326 0.38729 0.0
C1387 C 0.3664 0.82273 0.37204 0.0
C1388 C 0.3757 0.83008 0.35492 0.0
C1389 C 0.41987 0.80826 0.26487 0.0
C1390 C 0.39958 0.79561 0.25712 0.0
C1391 C 0.42321 0.82167 0.27992 0.0
C1392 C 0.4064 0.82296 0.28741 0.0
C1393 C 0.38595 0.80961 0.28039 0.0
C1394 C 0.38255 0.79602 0.26533 0.0
C1395 C 0.41059 0.83868 0.30227 0.0
C1396 C 0.40092 0.8322 0.31946 0.0
C1397 C 0.42569 0.85979 0.30004 0.0
C1398 C 0.43489 0.86788 0.28169 0.0
C1399 C 0.42179 0.86408 0.26594 0.0
C1400 C 0.43047 0.8715 0.24865 0.0
C1401 C 0.45227 0.88288 0.24694 0.0
C1402 C 0.46542 0.88689 0.26253 0.0
C1403 C 0.45681 0.87947 0.27985 0.0
H1404 H 0.45897 0.88861 0.23354 0.0
H1405 H 0.37138 0.81758 0.40053 0.0
H1406 H 0.60383 0.49792 0.54423 0.0
H1407 H 0.60747 0.48429 0.51423 0.0
H1408 H 0.55484 0.4244 0.52609 0.0
H1409 H 0.55142 0.43786 0.55639 0.0
H1410 H 0.58831 0.42189 0.51422 0.0
H1411 H 0.54951 0.4534 0.49364 0.0
H1412 H 0.54118 0.48125 0.49091 0.0
H1413 H 0.60029 0.51946 0.46522 0.0
H1414 H 0.60911 0.49195 0.46804 0.0
H1415 H 0.59266 0.38393 0.42316 0.0
H1416 H 0.58056 0.39297 0.45147 0.0
H1417 H 0.62756 0.45712 0.44564 0.0
H1418 H 0.63923 0.44833 0.41713 0.0
H1419 H 0.59183 0.45421 0.45386 0.0
H1420 H 0.63249 0.42491 0.47775 0.0
H1421 H 0.6418 0.39778 0.48101 0.0
H1422 H 0.58022 0.35623 0.50088 0.0
H1423 H 0.57046 0.38306 0.49752 0.0
C1424 C 0.59298 0.48187 0.54041 0.0
C1425 C 0.57737 0.46894 0.55266 0.0
C1426 C 0.59496 0.47414 0.52321 0.0
C1427 C 0.58131 0.45337 0.51788 0.0
C1428 C 0.56547 0.44049 0.52993 0.0
C1429 C 0.56344 0.44824 0.54714 0.0
C1430 C 0.58447 0.44494 0.50019 0.0
C1431 C 0.58868 0.42867 0.50094 0.0
C1432 C 0.58533 0.45408 0.48297 0.0
C1433 C 0.58003 0.47064 0.48117 0.0
C1434 C 0.5608 0.46779 0.48753 0.0
C1435 C 0.55598 0.48351 0.48595 0.0
C1436 C 0.57021 0.50213 0.47793 0.0
C1437 C 0.58928 0.50504 0.47144 0.0
C1438 C 0.59419 0.48937 0.473 0.0
C1439 C 0.60048 0.39994 0.42799 0.0
C1440 C 0.61691 0.41541 0.41791 0.0
C1441 C 0.59357 0.40508 0.44419 0.0
C1442 C 0.60326 0.42572 0.45077 0.0
C1443 C 0.61977 0.44112 0.44079 0.0
C1444 C 0.62648 0.43604 0.42452 0.0
C1445 C 0.59623 0.43151 0.46795 0.0
C1446 C 0.59124 0.44726 0.46709 0.0
C1447 C 0.59478 0.42199 0.48509 0.0
C1448 C 0.60067 0.4059 0.48718 0.0
C1449 C 0.62089 0.40994 0.48268 0.0
C1450 C 0.62625 0.39463 0.48457 0.0
C1451 C 0.61159 0.37527 0.49109 0.0
C1452 C 0.59155 0.37121 0.49579 0.0
C1453 C 0.5861 0.38647 0.49391 0.0
H1454 H 0.61577 0.36344 0.49253 0.0
H1455 H 0.56645 0.51428 0.47672 0.0
H1456 H 0.10024 0.58937 0.71367 0.0
H1457 H 0.12135 0.59508 0.68621 0.0
H1458 H 0.15315 0.56704 0.71294 0.0
H1459 H 0.13331 0.56273 0.7409 0.0
H1460 H 0.18057 0.60109 0.69991 0.0
H1461 H 0.11772 0.54391 0.67437 0.0
H1462 H 0.08005 0.5231 0.66579 0.0
H1463 H 0.08555 0.57113 0.63065 0.0
H1464 H 0.12322 0.59237 0.63923 0.0
H1465 H 0.23675 0.60094 0.6213 0.0
H1466 H 0.20817 0.58626 0.64333 0.0
H1467 H 0.1903 0.63071 0.62805 0.0
H1468 H 0.21913 0.64577 0.6061 0.0
H1469 H 0.15522 0.58654 0.63404 0.0
H1470 H 0.21838 0.64418 0.66285 0.0
H1471 H 0.25623 0.6631 0.67105 0.0
H1472 H 0.24938 0.61058 0.69997 0.0
H1473 H 0.21151 0.59124 0.69169 0.0
C1474 C 0.11173 0.58443 0.71375 0.0
C1475 C 0.11514 0.57576 0.72965 0.0
C1476 C 0.12358 0.5874 0.69787 0.0
C1477 C 0.13878 0.58136 0.69741 0.0
C1478 C 0.14153 0.57184 0.71294 0.0
C1479 C 0.12995 0.56917 0.7289 0.0
C1480 C 0.15319 0.58673 0.68156 0.0
C1481 C 0.1749 0.59751 0.68556 0.0
C1482 C 0.14593 0.5825 0.66274 0.0
C1483 C 0.12326 0.56982 0.65759 0.0
C1484 C 0.11086 0.55012 0.66494 0.0
C1485 C 0.08952 0.53823 0.66005 0.0
C1486 C 0.0804 0.54581 0.64772 0.0
C1487 C 0.09263 0.56529 0.64022 0.0
C1488 C 0.11399 0.57725 0.64508 0.0
C1489 C 0.22653 0.60738 0.62236 0.0
C1490 C 0.23027 0.62462 0.6121 0.0
C1491 C 0.21021 0.59895 0.63493 0.0
C1492 C 0.19725 0.60747 0.63728 0.0
C1493 C 0.20015 0.62391 0.62632 0.0
C1494 C 0.21667 0.63256 0.6139 0.0
C1495 C 0.18226 0.60069 0.65261 0.0
C1496 C 0.16063 0.58982 0.64848 0.0
C1497 C 0.18948 0.60452 0.67135 0.0
C1498 C 0.21219 0.6162 0.67647 0.0
C1499 C 0.22499 0.63661 0.67082 0.0
C1500 C 0.24643 0.64742 0.67551 0.0
C1501 C 0.25522 0.63802 0.68598 0.0
C1502 C 0.24256 0.61782 0.69183 0.0
C1503 C 0.22111 0.60693 0.68715 0.0
H1504 H 0.27183 0.64642 0.6896 0.0
H1505 H 0.06387 0.53658 0.64394 0.0
H1506 H 0.51566 0.1245 0.89338 0.0
H1507 H 0.52907 0.14084 0.86389 0.0
H1508 H 0.5788 0.12665 0.8676 0.0
H1509 H 0.56471 0.10886 0.89662 0.0
H1510 H 0.58991 0.17116 0.86467 0.0
H1511 H 0.54962 0.10427 0.83514 0.0
H1512 H 0.51788 0.07051 0.82826 0.0
H1513 H 0.48601 0.10091 0.8073 0.0
H1514 H 0.51747 0.13489 0.81433 0.0
H1515 H 0.63583 0.22369 0.78365 0.0
H1516 H 0.62093 0.19571 0.80546 0.0
H1517 H 0.56025 0.19048 0.79808 0.0
H1518 H 0.57492 0.21807 0.77558 0.0
H1519 H 0.55602 0.15296 0.80169 0.0
H1520 H 0.5926 0.21863 0.83437 0.0
H1521 H 0.62261 0.25324 0.84243 0.0
H1522 H 0.65935 0.22617 0.85905 0.0
H1523 H 0.62962 0.1914 0.85083 0.0
C1524 C 0.52899 0.12409 0.88773 0.0
C1525 C 0.53911 0.11536 0.89758 0.0
C1526 C 0.5367 0.13359 0.87087 0.0
C1527 C 0.55485 0.13487 0.86365 0.0
C1528 C 0.56472 0.12574 0.87304 0.0
C1529 C 0.55675 0.11581 0.88973 0.0
C1530 C 0.56466 0.14778 0.84748 0.0
C1531 C 0.58283 0.16702 0.85077 0.0
C1532 C 0.55486 0.14254 0.82962 0.0
C1533 C 0.53586 0.12215 0.82544 0.0
C1534 C 0.53578 0.10377 0.82925 0.0
C1535 C 0.51785 0.08459 0.82528 0.0
C1536 C 0.49992 0.08357 0.81739 0.0
C1537 C 0.4999 0.10173 0.81343 0.0
C1538 C 0.51779 0.12096 0.81739 0.0
C1539 C 0.61924 0.21637 0.78632 0.0
C1540 C 0.60659 0.22319 0.77791 0.0
C1541 C 0.61076 0.20042 0.79891 0.0
C1542 C 0.58957 0.19126 0.80362 0.0
C1543 C 0.57666 0.19738 0.79465 0.0
C1544 C 0.5851 0.21321 0.78187 0.0
C1545 C 0.58131 0.17643 0.81888 0.0
C1546 C 0.56335 0.15696 0.81549 0.0
C1547 C 0.59108 0.18157 0.83681 0.0
C1548 C 0.60898 0.20245 0.84177 0.0
C1549 C 0.60714 0.22008 0.83959 0.0
C1550 C 0.62408 0.23972 0.84422 0.0
C1551 C 0.6429 0.24191 0.85119 0.0
C1552 C 0.64478 0.22445 0.85361 0.0
C1553 C 0.62789 0.20478 0.84898 0.0
H1554 H 0.656 0.25713 0.85477 0.0
H1555 H 0.48605 0.0687 0.81432 0.0
H1556 H 0.42778 0.54136 0.03801 0.0
H1557 H 0.422 0.5552 0.00948 0.0
H1558 H 0.43914 0.61253 0.03888 0.0
H1559 H 0.44455 0.59862 0.06759 0.0
H1560 H 0.40315 0.59838 0.01846 0.0
H1561 H 0.47223 0.6111 0.00816 0.0
H1562 H 0.50072 0.60304 0.00636 0.0
H1563 H 0.46647 0.5573 0.96311 0.0
H1564 H 0.43761 0.56487 0.96483 0.0
H1565 H 0.3981 0.64342 0.93288 0.0
H1566 H 0.41208 0.63798 0.96196 0.0
H1567 H 0.39608 0.57698 0.942 0.0
H1568 H 0.38219 0.58222 0.91302 0.0
H1569 H 0.43549 0.59804 0.95842 0.0
H1570 H 0.36491 0.58273 0.97169 0.0
H1571 H 0.33627 0.59059 0.97372 0.0
H1572 H 0.37391 0.6416 0.01164 0.0
H1573 H 0.4029 0.6342 0.00963 0.0
C1574 C 0.43034 0.55692 0.03839 0.0
C1575 C 0.43661 0.5689 0.05502 0.0
C1576 C 0.42722 0.56488 0.02205 0.0
C1577 C 0.43034 0.58497 0.02204 0.0
C1578 C 0.43675 0.59703 0.03859 0.0
C1579 C 0.43996 0.58911 0.05492 0.0
C1580 C 0.4259 0.59291 0.00491 0.0
C1581 C 0.41054 0.59872 0.00541 0.0
C1582 C 0.43534 0.59307 0.98785 0.0
C1583 C 0.45267 0.58845 0.98674 0.0
C1584 C 0.47068 0.59921 -0.00163 0.0
C1585 C 0.48692 0.59474 0.99734 0.0
C1586 C 0.48539 0.57964 0.98466 0.0
C1587 C 0.46763 0.56899 0.97294 0.0
C1588 C 0.45134 0.57338 0.97392 0.0
C1589 C 0.39763 0.62888 0.93465 0.0
C1590 C 0.3889 0.61321 0.92064 0.0
C1591 C 0.40559 0.62579 0.95128 0.0
C1592 C 0.40501 0.60704 0.95413 0.0
C1593 C 0.39671 0.59158 0.94005 0.0
C1594 C 0.38866 0.59458 0.92352 0.0
C1595 C 0.41247 0.60308 0.97194 0.0
C1596 C 0.42837 0.59801 0.97155 0.0
C1597 C 0.40357 0.60363 0.98911 0.0
C1598 C 0.38616 0.60808 0.99033 0.0
C1599 C 0.36715 0.59574 0.98033 0.0
C1600 C 0.35084 0.60009 0.9815 0.0
C1601 C 0.3533 0.61663 0.99275 0.0
C1602 C 0.37205 0.62882 0.0029 0.0
C1603 C 0.38842 0.62456 0.00175 0.0
H1604 H 0.34065 0.61996 0.99365 0.0
H1605 H 0.49798 0.57621 0.98388 0.0
H1606 H 0.8941 0.42625 0.22198 0.0
H1607 H 0.87487 0.41957 0.19236 0.0
H1608 H 0.85665 0.46411 0.20799 0.0
H1609 H 0.87557 0.47056 0.23793 0.0
H1610 H 0.82344 0.42828 0.194 0.0
H1611 H 0.89285 0.47585 0.17537 0.0
H1612 H 0.93106 0.49044 0.17282 0.0
H1613 H 0.92043 0.43533 0.14356 0.0
H1614 H 0.88215 0.42027 0.14616 0.0
H1615 H 0.77862 0.41762 0.10217 0.0
H1616 H 0.79906 0.43186 0.13128 0.0
H1617 H 0.82655 0.39332 0.12353 0.0
H1618 H 0.80667 0.37944 0.09436 0.0
H1619 H 0.85592 0.43122 0.13327 0.0
H1620 H 0.7867 0.38239 0.15513 0.0
H1621 H 0.74849 0.36774 0.15785 0.0
H1622 H 0.75892 0.42553 0.18104 0.0
H1623 H 0.79721 0.44059 0.17824 0.0
C1624 C 0.88602 0.43464 0.21912 0.0
C1625 C 0.88633 0.44891 0.2323 0.0
C1626 C 0.87517 0.43094 0.20212 0.0
C1627 C 0.86447 0.44147 0.19789 0.0
C1628 C 0.86487 0.45586 0.21095 0.0
C1629 C 0.87581 0.45965 0.22797 0.0
C1630 C 0.85229 0.43678 0.18009 0.0
C1631 C 0.8306 0.42929 0.18067 0.0
C1632 C 0.86158 0.43785 0.16273 0.0
C1633 C 0.88461 0.44687 0.16108 0.0
C1634 C 0.89866 0.46677 0.16851 0.0
C1635 C 0.92033 0.47514 0.16704 0.0
C1636 C 0.92817 0.4638 0.15806 0.0
C1637 C 0.91434 0.44409 0.15051 0.0
C1638 C 0.89265 0.43564 0.15196 0.0
C1639 C 0.78893 0.41209 0.10673 0.0
C1640 C 0.791 0.39738 0.0959 0.0
C1641 C 0.80058 0.42023 0.12339 0.0
C1642 C 0.81428 0.41358 0.12966 0.0
C1643 C 0.81618 0.39877 0.11895 0.0
C1644 C 0.80471 0.39078 0.10227 0.0
C1645 C 0.82695 0.42211 0.14721 0.0
C1646 C 0.84878 0.43041 0.14657 0.0
C1647 C 0.81777 0.42177 0.16449 0.0
C1648 C 0.79479 0.41268 0.16628 0.0
C1649 C 0.78083 0.39201 0.16068 0.0
C1650 C 0.75917 0.38363 0.16226 0.0
C1651 C 0.75128 0.39572 0.16956 0.0
C1652 C 0.76505 0.41619 0.17535 0.0
C1653 C 0.78673 0.42466 0.17379 0.0
H1654 H 0.7345 0.3892 0.17077 0.0
H1655 H 0.94495 0.47031 0.15693 0.0
loop_
_geom_bond_atom_site_label_1
_geom_bond_atom_site_label_2
_geom_bond_distance
_geom_bond_site_symmetry_2
_ccdc_geom_bond_type
H0 C27 0.929 . S
N1 C26 1.433 . S
N1 C32 1.435 . S
N1 C38 1.423 . S
H2 C28 0.930 . S
H3 C31 0.931 . S
H4 C30 0.929 . S
H5 C33 0.930 . S
H6 C34 0.932 . S
H7 C37 0.929 . S
H8 C36 0.931 . S
H9 C39 0.929 . S
H10 C43 0.932 . S
H11 C40 0.931 . S
H12 C42 0.929 . S
H13 C45 0.929 . S
H14 C46 0.930 . S
H15 C48 0.929 . S
H16 C49 0.931 . S
H17 C51 0.930 . S
H18 C52 0.932 . S
H19 C54 0.931 . S
H20 C55 0.929 . S
H21 C57 0.929 . S
H22 C58 0.931 . S
H23 C60 0.929 . S
N24 C44 1.433 . S
N24 C50 1.435 . S
N24 C56 1.423 . S
H25 C61 0.932 . S
C26 N1 1.433 . S
C26 C27 1.363 . S
C26 C31 1.370 . S
C27 H0 0.929 . S
C27 C26 1.363 . S
C27 C28 1.385 . S
C28 H2 0.930 . S
C28 C27 1.385 . S
C28 C29 1.357 . S
C29 C28 1.357 . S
C29 C30 1.406 . S
C30 H4 0.929 . S
C30 C29 1.406 . S
C30 C31 1.391 . S
C31 H3 0.931 . S
C31 C26 1.370 . S
C31 C30 1.391 . S
C32 N1 1.435 . S
C32 C33 1.358 . S
C32 C37 1.371 . S
C33 H5 0.930 . S
C33 C32 1.358 . S
C33 C34 1.405 . S
C34 H6 0.932 . S
C34 C33 1.405 . S
C34 C35 1.383 . S
C35 C34 1.383 . S
C35 C36 1.393 . S
C36 H8 0.931 . S
C36 C35 1.393 . S
C36 C37 1.382 . S
C37 H7 0.929 . S
C37 C32 1.371 . S
C37 C36 1.382 . S
C38 N1 1.423 . S
C38 C39 1.362 . S
C38 C43 1.388 . S
C39 H9 0.929 . S
C39 C38 1.362 . S
C39 C40 1.376 . S
C40 H11 0.931 . S
C40 C39 1.376 . S
C40 C41 1.396 . S
C41 C40 1.396 . S
C41 C42 1.348 . S
C41 C59 1.472 1_455 S
C42 H12 0.929 . S
C42 C41 1.348 . S
C42 C43 1.443 . S
C43 H10 0.932 . S
C43 C38 1.388 . S
C43 C42 1.443 . S
C44 N24 1.433 . S
C44 C45 1.363 . S
C44 C49 1.370 . S
C45 H13 0.929 . S
C45 C44 1.363 . S
C45 C46 1.385 . S
C46 H14 0.930 . S
C46 C45 1.385 . S
C46 C47 1.357 . S
C47 C46 1.357 . S
C47 C48 1.406 . S
C48 H15 0.929 . S
C48 C47 1.406 . S
C48 C49 1.391 . S
C49 H16 0.931 . S
C49 C44 1.370 . S
C49 C48 1.391 . S
C50 N24 1.435 . S
C50 C51 1.358 . S
C50 C55 1.371 . S
C51 H17 0.930 . S
C51 C50 1.358 . S
C51 C52 1.405 . S
C52 H18 0.932 . S
C52 C51 1.405 . S
C52 C53 1.383 . S
C53 C52 1.383 . S
C53 C54 1.393 . S
C54 H19 0.931 . S
C54 C53 1.393 . S
C54 C55 1.382 . S
C55 H20 0.929 . S
C55 C50 1.371 . S
C55 C54 1.382 . S
C56 N24 1.423 . S
C56 C57 1.362 . S
C56 C61 1.388 . S
C57 H21 0.929 . S
C57 C56 1.362 . S
C57 C58 1.376 . S
C58 H22 0.931 . S
C58 C57 1.376 . S
C58 C59 1.396 . S
C59 C41 1.472 1_655 S
C59 C58 1.396 . S
C59 C60 1.348 . S
C60 H23 0.929 . S
C60 C59 1.348 . S
C60 C61 1.443 . S
C61 H25 0.932 . S
C61 C56 1.388 . S
C61 C60 1.443 . S
H62 C89 0.929 . S
N63 C88 1.433 . S
N63 C94 1.435 . S
N63 C100 1.423 . S
H64 C90 0.930 . S
H65 C93 0.931 . S
H66 C92 0.929 . S
H67 C95 0.930 . S
H68 C96 0.932 . S
H69 C99 0.929 . S
H70 C98 0.931 . S
H71 C101 0.929 . S
H72 C105 0.932 . S
H73 C102 0.931 . S
H74 C104 0.928 1_545 S
H75 C107 0.929 . S
H76 C108 0.930 . S
H77 C110 0.929 . S
H78 C111 0.931 . S
H79 C113 0.930 . S
H80 C114 0.932 . S
H81 C116 0.931 . S
H82 C117 0.929 . S
H83 C119 0.929 . S
H84 C120 0.931 . S
H85 C122 0.929 . S
N86 C106 1.433 . S
N86 C112 1.435 . S
N86 C118 1.423 . S
H87 C123 0.932 . S
C88 N63 1.433 . S
C88 C89 1.363 . S
C88 C93 1.370 . S
C89 H62 0.929 . S
C89 C88 1.363 . S
C89 C90 1.385 . S
C90 H64 0.930 . S
C90 C89 1.385 . S
C90 C91 1.357 . S
C91 C90 1.357 . S
C91 C92 1.406 . S
C92 H66 0.929 . S
C92 C91 1.406 . S
C92 C93 1.391 . S
C93 H65 0.931 . S
C93 C88 1.370 . S
C93 C92 1.391 . S
C94 N63 1.435 . S
C94 C95 1.358 . S
C94 C99 1.371 . S
C95 H67 0.930 . S
C95 C94 1.358 . S
C95 C96 1.405 . S
C96 H68 0.932 . S
C96 C95 1.405 . S
C96 C97 1.383 . S
C97 C96 1.383 . S
C97 C98 1.393 . S
C98 H70 0.931 . S
C98 C97 1.393 . S
C98 C99 1.382 . S
C99 H69 0.929 . S
C99 C94 1.371 . S
C99 C98 1.382 . S
C100 N63 1.423 . S
C100 C101 1.362 . S
C100 C105 1.388 . S
C101 H71 0.929 . S
C101 C100 1.362 . S
C101 C102 1.376 . S
C102 H73 0.931 . S
C102 C101 1.376 . S
C102 C103 1.396 1_565 S
C103 C102 1.396 1_545 S
C103 C104 1.348 1_545 S
C103 C121 1.472 . S
C104 H74 0.928 1_565 S
C104 C103 1.348 1_565 S
C104 C105 1.444 . S
C105 H72 0.932 . S
C105 C100 1.388 . S
C105 C104 1.444 . S
C106 N86 1.433 . S
C106 C107 1.363 . S
C106 C111 1.370 . S
C107 H75 0.929 . S
C107 C106 1.363 . S
C107 C108 1.385 . S
C108 H76 0.930 . S
C108 C107 1.385 . S
C108 C109 1.357 . S
C109 C108 1.357 . S
C109 C110 1.406 . S
C110 H77 0.929 . S
C110 C109 1.406 . S
C110 C111 1.391 . S
C111 H78 0.931 . S
C111 C106 1.370 . S
C111 C110 1.391 . S
C112 N86 1.435 . S
C112 C113 1.358 . S
C112 C117 1.371 . S
C113 H79 0.930 . S
C113 C112 1.358 . S
C113 C114 1.405 . S
C114 H80 0.932 . S
C114 C113 1.405 . S
C114 C115 1.383 . S
C115 C114 1.383 . S
C115 C116 1.393 . S
C116 H81 0.931 . S
C116 C115 1.393 . S
C116 C117 1.382 . S
C117 H82 0.929 . S
C117 C112 1.371 . S
C117 C116 1.382 . S
C118 N86 1.423 . S
C118 C119 1.362 . S
C118 C123 1.388 . S
C119 H83 0.929 . S
C119 C118 1.362 . S
C119 C120 1.376 . S
C120 H84 0.931 . S
C120 C119 1.376 . S
C120 C121 1.396 . S
C121 C103 1.472 . S
C121 C120 1.396 . S
C121 C122 1.348 . S
C122 H85 0.929 . S
C122 C121 1.348 . S
C122 C123 1.443 . S
C123 H87 0.932 . S
C123 C118 1.388 . S
C123 C122 1.443 . S
H124 C151 0.929 . S
N125 C150 1.433 . S
N125 C156 1.435 . S
N125 C162 1.423 . S
H126 C152 0.930 . S
H127 C155 0.931 . S
H128 C154 0.929 . S
H129 C157 0.930 . S
H130 C158 0.932 . S
H131 C161 0.929 . S
H132 C160 0.931 . S
H133 C163 0.929 . S
H134 C167 0.932 . S
H135 C164 0.931 . S
H136 C166 0.929 . S
H137 C169 0.929 . S
H138 C170 0.930 . S
H139 C172 0.929 . S
H140 C173 0.931 . S
H141 C175 0.930 . S
H142 C176 0.932 . S
H143 C178 0.931 . S
H144 C179 0.929 . S
H145 C181 0.929 . S
H146 C182 0.931 . S
H147 C184 0.929 . S
N148 C168 1.433 . S
N148 C174 1.435 . S
N148 C180 1.423 . S
H149 C185 0.932 . S
C150 N125 1.433 . S
C150 C151 1.363 . S
C150 C155 1.370 . S
C151 H124 0.929 . S
C151 C150 1.363 . S
C151 C152 1.385 . S
C152 H126 0.930 . S
C152 C151 1.385 . S
C152 C153 1.357 . S
C153 C152 1.357 . S
C153 C154 1.406 . S
C154 H128 0.929 . S
C154 C153 1.406 . S
C154 C155 1.391 . S
C155 H127 0.931 . S
C155 C150 1.370 . S
C155 C154 1.391 . S
C156 N125 1.435 . S
C156 C157 1.358 . S
C156 C161 1.371 . S
C157 H129 0.930 . S
C157 C156 1.358 . S
C157 C158 1.405 . S
C158 H130 0.932 . S
C158 C157 1.405 . S
C158 C159 1.383 . S
C159 C158 1.383 . S
C159 C160 1.393 . S
C160 H132 0.931 . S
C160 C159 1.393 . S
C160 C161 1.382 . S
C161 H131 0.929 . S
C161 C156 1.371 . S
C161 C160 1.382 . S
C162 N125 1.423 . S
C162 C163 1.362 . S
C162 C167 1.388 . S
C163 H133 0.929 . S
C163 C162 1.362 . S
C163 C164 1.376 . S
C164 H135 0.931 . S
C164 C163 1.376 . S
C164 C165 1.396 . S
C165 C164 1.396 . S
C165 C166 1.348 . S
C165 C183 1.472 . S
C166 H136 0.929 . S
C166 C165 1.348 . S
C166 C167 1.443 . S
C167 H134 0.932 . S
C167 C162 1.388 . S
C167 C166 1.443 . S
C168 N148 1.433 . S
C168 C169 1.363 . S
C168 C173 1.370 . S
C169 H137 0.929 . S
C169 C168 1.363 . S
C169 C170 1.385 . S
C170 H138 0.930 . S
C170 C169 1.385 . S
C170 C171 1.357 . S
C171 C170 1.357 . S
C171 C172 1.406 . S
C172 H139 0.929 . S
C172 C171 1.406 . S
C172 C173 1.391 . S
C173 H140 0.931 . S
C173 C168 1.370 . S
C173 C172 1.391 . S
C174 N148 1.435 . S
C174 C175 1.358 . S
C174 C179 1.371 . S
C175 H141 0.930 . S
C175 C174 1.358 . S
C175 C176 1.405 . S
C176 H142 0.932 . S
C176 C175 1.405 . S
C176 C177 1.383 . S
C177 C176 1.383 . S
C177 C178 1.393 . S
C178 H143 0.931 . S
C178 C177 1.393 . S
C178 C179 1.382 . S
C179 H144 0.929 . S
C179 C174 1.371 . S
C179 C178 1.382 . S
C180 N148 1.423 . S
C180 C181 1.362 . S
C180 C185 1.388 . S
C181 H145 0.929 . S
C181 C180 1.362 . S
C181 C182 1.376 . S
C182 H146 0.931 . S
C182 C181 1.376 . S
C182 C183 1.396 . S
C183 C165 1.472 . S
C183 C182 1.396 . S
C183 C184 1.348 . S
C184 H147 0.929 . S
C184 C183 1.348 . S
C184 C185 1.443 . S
C185 H149 0.932 . S
C185 C180 1.388 . S
C185 C184 1.443 . S
H186 C213 0.929 . S
N187 C212 1.433 . S
N187 C218 1.435 . S
N187 C224 1.423 . S
H188 C214 0.930 . S
H189 C217 0.931 . S
H190 C216 0.929 . S
H191 C219 0.930 . S
H192 C220 0.932 . S
H193 C223 0.929 . S
H194 C222 0.931 . S
H195 C225 0.929 . S
H196 C229 0.932 . S
H197 C226 0.931 . S
H198 C228 0.929 . S
H199 C231 0.929 . S
H200 C232 0.930 . S
H201 C234 0.929 . S
H202 C235 0.931 . S
H203 C237 0.930 . S
H204 C238 0.932 . S
H205 C240 0.931 . S
H206 C241 0.929 . S
H207 C243 0.929 . S
H208 C244 0.931 . S
H209 C246 0.929 . S
N210 C230 1.433 . S
N210 C236 1.435 . S
N210 C242 1.423 . S
H211 C247 0.932 . S
C212 N187 1.433 . S
C212 C213 1.363 . S
C212 C217 1.370 . S
C213 H186 0.929 . S
C213 C212 1.363 . S
C213 C214 1.385 . S
C214 H188 0.930 . S
C214 C213 1.385 . S
C214 C215 1.357 . S
C215 C214 1.357 . S
C215 C216 1.406 . S
C216 H190 0.929 . S
C216 C215 1.406 . S
C216 C217 1.391 . S
C217 H189 0.931 . S
C217 C212 1.370 . S
C217 C216 1.391 . S
C218 N187 1.435 . S
C218 C219 1.358 . S
C218 C223 1.371 . S
C219 H191 0.930 . S
C219 C218 1.358 . S
C219 C220 1.405 . S
C220 H192 0.932 . S
C220 C219 1.405 . S
C220 C221 1.383 . S
C221 C220 1.383 . S
C221 C222 1.393 . S
C222 H194 0.931 . S
C222 C221 1.393 . S
C222 C223 1.382 . S
C223 H193 0.929 . S
C223 C218 1.371 . S
C223 C222 1.382 . S
C224 N187 1.423 . S
C224 C225 1.362 . S
C224 C229 1.388 . S
C225 H195 0.929 . S
C225 C224 1.362 . S
C225 C226 1.376 . S
C226 H197 0.931 . S
C226 C225 1.376 . S
C226 C227 1.396 . S
C227 C226 1.396 . S
C227 C228 1.348 . S
C227 C245 1.472 1_455 S
C228 H198 0.929 . S
C228 C227 1.348 . S
C228 C229 1.443 . S
C229 H196 0.932 . S
C229 C224 1.388 . S
C229 C228 1.443 . S
C230 N210 1.433 . S
C230 C231 1.363 . S
C230 C235 1.370 . S
C231 H199 0.929 . S
C231 C230 1.363 . S
C231 C232 1.385 . S
C232 H200 0.930 . S
C232 C231 1.385 . S
C232 C233 1.357 . S
C233 C232 1.357 . S
C233 C234 1.406 . S
C234 H201 0.929 . S
C234 C233 1.406 . S
C234 C235 1.391 . S
C235 H202 0.931 . S
C235 C230 1.370 . S
C235 C234 1.391 . S
C236 N210 1.435 . S
C236 C237 1.358 . S
C236 C241 1.371 . S
C237 H203 0.930 . S
C237 C236 1.358 . S
C237 C238 1.405 . S
C238 H204 0.932 . S
C238 C237 1.405 . S
C238 C239 1.383 . S
C239 C238 1.383 . S
C239 C240 1.393 . S
C240 H205 0.931 . S
C240 C239 1.393 . S
C240 C241 1.382 . S
C241 H206 0.929 . S
C241 C236 1.371 . S
C241 C240 1.382 . S
C242 N210 1.423 . S
C242 C243 1.362 . S
C242 C247 1.388 . S
C243 H207 0.929 . S
C243 C242 1.362 . S
C243 C244 1.376 . S
C244 H208 0.931 . S
C244 C243 1.376 . S
C244 C245 1.396 . S
C245 C227 1.472 1_655 S
C245 C244 1.396 . S
C245 C246 1.348 . S
C246 H209 0.929 . S
C246 C245 1.348 . S
C246 C247 1.443 . S
C247 H211 0.932 . S
C247 C242 1.388 . S
C247 C246 1.443 . S
H248 C275 0.929 . S
N249 C274 1.433 . S
N249 C280 1.435 . S
N249 C286 1.423 . S
H250 C276 0.930 . S
H251 C279 0.931 . S
H252 C278 0.929 . S
H253 C281 0.930 . S
H254 C282 0.932 . S
H255 C285 0.929 . S
H256 C284 0.931 . S
H257 C287 0.929 . S
H258 C291 0.932 . S
H259 C288 0.931 . S
H260 C290 0.929 . S
H261 C293 0.929 . S
H262 C294 0.930 . S
H263 C296 0.929 . S
H264 C297 0.931 . S
H265 C299 0.930 1_554 S
H266 C300 0.932 . S
H267 C302 0.931 . S
H268 C303 0.929 . S
H269 C305 0.966 . S
H270 C306 0.956 1_545 S
H271 C308 0.929 . S
N272 C292 1.449 . S
N272 C298 1.426 1_554 S
N272 C304 1.417 1_554 S
H273 C309 0.932 . S
C274 N249 1.433 . S
C274 C275 1.363 . S
C274 C279 1.370 . S
C275 H248 0.929 . S
C275 C274 1.363 . S
C275 C276 1.385 . S
C276 H250 0.930 . S
C276 C275 1.385 . S
C276 C277 1.357 1_556 S
C277 C276 1.357 1_554 S
C277 C278 1.406 . S
C278 H252 0.929 . S
C278 C277 1.406 . S
C278 C279 1.391 1_554 S
C279 H251 0.931 . S
C279 C274 1.370 . S
C279 C278 1.391 1_556 S
C280 N249 1.435 . S
C280 C281 1.358 . S
C280 C285 1.371 . S
C281 H253 0.930 . S
C281 C280 1.358 . S
C281 C282 1.405 . S
C282 H254 0.932 . S
C282 C281 1.405 . S
C282 C283 1.383 . S
C283 C282 1.383 . S
C283 C284 1.393 . S
C284 H256 0.931 . S
C284 C283 1.393 . S
C284 C285 1.382 . S
C285 H255 0.929 . S
C285 C280 1.371 . S
C285 C284 1.382 . S
C286 N249 1.423 . S
C286 C287 1.362 . S
C286 C291 1.388 . S
C287 H257 0.929 . S
C287 C286 1.362 . S
C287 C288 1.376 . S
C288 H259 0.931 . S
C288 C287 1.376 . S
C288 C289 1.396 . S
C289 C288 1.396 . S
C289 C290 1.348 . S
C289 C307 1.472 . S
C290 H260 0.929 . S
C290 C289 1.348 . S
C290 C291 1.443 . S
C291 H258 0.932 . S
C291 C286 1.388 . S
C291 C290 1.443 . S
C292 N272 1.449 . S
C292 C293 1.363 . S
C292 C297 1.370 . S
C293 H261 0.929 . S
C293 C292 1.363 . S
C293 C294 1.385 . S
C294 H262 0.930 . S
C294 C293 1.385 . S
C294 C295 1.357 . S
C295 C294 1.357 . S
C295 C296 1.406 . S
C296 H263 0.929 . S
C296 C295 1.406 . S
C296 C297 1.391 . S
C297 H264 0.931 . S
C297 C292 1.370 . S
C297 C296 1.391 . S
C298 N272 1.426 1_556 S
C298 C299 1.358 . S
C298 C303 1.371 . S
C299 H265 0.930 1_556 S
C299 C298 1.358 . S
C299 C300 1.405 . S
C300 H266 0.932 . S
C300 C299 1.405 . S
C300 C301 1.383 . S
C301 C300 1.383 . S
C301 C302 1.393 . S
C302 H267 0.931 . S
C302 C301 1.393 . S
C302 C303 1.382 . S
C303 H268 0.929 . S
C303 C298 1.371 . S
C303 C302 1.382 . S
C304 N272 1.417 1_556 S
C304 C305 1.344 1_556 S
C304 C309 1.388 . S
C305 H269 0.966 . S
C305 C304 1.344 1_554 S
C305 C306 1.359 1_554 S
C306 H270 0.956 1_565 S
C306 C305 1.359 1_556 S
C306 C307 1.396 1_565 S
C307 C289 1.472 . S
C307 C306 1.396 1_545 S
C307 C308 1.348 1_545 S
C308 H271 0.929 . S
C308 C307 1.348 1_565 S
C308 C309 1.443 . S
C309 H273 0.932 . S
C309 C304 1.388 . S
C309 C308 1.443 . S
H310 C337 0.929 . S
N311 C336 1.433 . S
N311 C342 1.435 . S
N311 C348 1.423 . S
H312 C338 0.930 . S
H313 C341 0.931 . S
H314 C340 0.929 . S
H315 C343 0.930 . S
H316 C344 0.932 . S
H317 C347 0.929 . S
H318 C346 0.931 . S
H319 C349 0.929 . S
H320 C353 0.932 . S
H321 C350 0.931 . S
H322 C352 0.929 . S
H323 C355 0.929 . S
H324 C356 0.930 . S
H325 C358 0.929 . S
H326 C359 0.931 . S
H327 C361 0.930 . S
H328 C362 0.932 . S
H329 C364 0.931 . S
H330 C365 0.929 . S
H331 C367 0.929 . S
H332 C368 0.931 . S
H333 C370 0.929 . S
N334 C354 1.433 . S
N334 C360 1.435 . S
N334 C366 1.423 . S
H335 C371 0.932 . S
C336 N311 1.433 . S
C336 C337 1.363 . S
C336 C341 1.370 . S
C337 H310 0.929 . S
C337 C336 1.363 . S
C337 C338 1.385 . S
C338 H312 0.930 . S
C338 C337 1.385 . S
C338 C339 1.357 . S
C339 C338 1.357 . S
C339 C340 1.406 . S
C340 H314 0.929 . S
C340 C339 1.406 . S
C340 C341 1.391 . S
C341 H313 0.931 . S
C341 C336 1.370 . S
C341 C340 1.391 . S
C342 N311 1.435 . S
C342 C343 1.358 . S
C342 C347 1.371 . S
C343 H315 0.930 . S
C343 C342 1.358 . S
C343 C344 1.405 . S
C344 H316 0.932 . S
C344 C343 1.405 . S
C344 C345 1.383 . S
C345 C344 1.383 . S
C345 C346 1.393 . S
C346 H318 0.931 . S
C346 C345 1.393 . S
C346 C347 1.382 . S
C347 H317 0.929 . S
C347 C342 1.371 . S
C347 C346 1.382 . S
C348 N311 1.423 . S
C348 C349 1.362 . S
C348 C353 1.388 . S
C349 H319 0.929 . S
C349 C348 1.362 . S
C349 C350 1.376 . S
C350 H321 0.931 . S
C350 C349 1.376 . S
C350 C351 1.396 . S
C351 C350 1.396 . S
C351 C352 1.348 . S
C351 C369 1.472 . S
C352 H322 0.929 . S
C352 C351 1.348 . S
C352 C353 1.443 . S
C353 H320 0.932 . S
C353 C348 1.388 . S
C353 C352 1.443 . S
C354 N334 1.433 . S
C354 C355 1.363 . S
C354 C359 1.370 . S
C355 H323 0.929 . S
C355 C354 1.363 . S
C355 C356 1.385 . S
C356 H324 0.930 . S
C356 C355 1.385 . S
C356 C357 1.357 . S
C357 C356 1.357 . S
C357 C358 1.406 . S
C358 H325 0.929 . S
C358 C357 1.406 . S
C358 C359 1.391 . S
C359 H326 0.931 . S
C359 C354 1.370 . S
C359 C358 1.391 . S
C360 N334 1.435 . S
C360 C361 1.358 . S
C360 C365 1.371 . S
C361 H327 0.930 . S
C361 C360 1.358 . S
C361 C362 1.405 . S
C362 H328 0.932 . S
C362 C361 1.405 . S
C362 C363 1.383 . S
C363 C362 1.383 . S
C363 C364 1.393 . S
C364 H329 0.931 . S
C364 C363 1.393 . S
C364 C365 1.382 . S
C365 H330 0.929 . S
C365 C360 1.371 . S
C365 C364 1.382 . S
C366 N334 1.423 . S
C366 C367 1.362 . S
C366 C371 1.388 . S
C367 H331 0.929 . S
C367 C366 1.362 . S
C367 C368 1.376 . S
C368 H332 0.931 . S
C368 C367 1.376 . S
C368 C369 1.396 . S
C369 C351 1.472 . S
C369 C368 1.396 . S
C369 C370 1.348 . S
C370 H333 0.929 . S
C370 C369 1.348 . S
C370 C371 1.443 . S
C371 H335 0.932 . S
C371 C366 1.388 . S
C371 C370 1.443 . S
Mg372 O373 2.028 . S
Mg372 O379 1.986 . S
Mg372 O381 2.114 . S
Mg372 O382 2.251 . S
Mg372 O385 2.010 . S
O373 Mg372 2.028 . S
O373 C376 1.250 . S
O374 Mg375 2.028 . S
O374 C376 1.248 . S
Mg375 O374 2.028 . S
Mg375 O380 2.032 . S
Mg375 O382 2.079 . S
C376 O373 1.250 . S
C376 O374 1.248 . S
C377 O378 1.264 . S
C377 O385 1.249 . S
O378 C377 1.264 . S
O379 Mg372 1.986 . S
O379 C383 1.246 . S
O380 Mg375 2.032 . S
O380 C383 1.259 . S
O381 Mg372 2.114 . S
O381 C384 1.252 . S
O382 Mg372 2.251 . S
O382 Mg375 2.079 . S
O382 C384 1.273 . S
C383 O379 1.246 . S
C383 O380 1.259 . S
C384 O381 1.252 . S
C384 O382 1.273 . S
O385 Mg372 2.010 . S
O385 C377 1.249 . S
Mg386 O387 2.028 . S
Mg386 O393 1.986 . S
Mg386 O395 2.114 . S
Mg386 O396 2.251 . S
Mg386 O399 2.010 . S
O387 Mg386 2.028 . S
O387 C390 1.250 . S
O388 Mg389 2.028 . S
O388 C390 1.248 . S
Mg389 O388 2.028 . S
Mg389 O394 2.032 . S
Mg389 O396 2.079 . S
C390 O387 1.250 . S
C390 O388 1.248 . S
C391 O392 1.264 . S
C391 O399 1.249 . S
O392 C391 1.264 . S
O393 Mg386 1.986 . S
O393 C397 1.246 . S
O394 Mg389 2.032 . S
O394 C397 1.259 . S
O395 Mg386 2.114 . S
O395 C398 1.252 . S
O396 Mg386 2.251 . S
O396 Mg389 2.079 . S
O396 C398 1.273 . S
C397 O393 1.246 . S
C397 O394 1.259 . S
C398 O395 1.252 . S
C398 O396 1.273 . S
O399 Mg386 2.010 . S
O399 C391 1.249 . S
Mg400 O401 2.028 . S
Mg400 O407 1.986 . S
Mg400 O409 2.114 . S
Mg400 O410 2.251 . S
Mg400 O413 2.010 . S
O401 Mg400 2.028 . S
O401 C404 1.250 . S
O402 Mg403 2.028 . S
O402 C404 1.248 . S
Mg403 O402 2.028 . S
Mg403 O408 2.032 . S
Mg403 O410 2.079 . S
C404 O401 1.250 . S
C404 O402 1.248 . S
C405 O406 1.264 . S
C405 O413 1.249 . S
O406 C405 1.264 . S
O407 Mg400 1.986 . S
O407 C411 1.246 . S
O408 Mg403 2.032 . S
O408 C411 1.259 . S
O409 Mg400 2.114 . S
O409 C412 1.252 . S
O410 Mg400 2.251 . S
O410 Mg403 2.079 . S
O410 C412 1.273 . S
C411 O407 1.246 . S
C411 O408 1.259 . S
C412 O409 1.252 . S
C412 O410 1.273 . S
O413 Mg400 2.010 . S
O413 C405 1.249 . S
Mg414 O415 2.028 . S
Mg414 O421 1.986 . S
Mg414 O423 2.114 . S
Mg414 O424 2.251 . S
Mg414 O427 2.010 . S
O415 Mg414 2.028 . S
O415 C418 1.250 . S
O416 Mg417 2.028 . S
O416 C418 1.248 . S
Mg417 O416 2.028 . S
Mg417 O422 2.032 . S
Mg417 O424 2.079 . S
C418 O415 1.250 . S
C418 O416 1.248 . S
C419 O420 1.264 . S
C419 O427 1.249 . S
O420 C419 1.264 . S
O421 Mg414 1.986 . S
O421 C425 1.246 . S
O422 Mg417 2.032 . S
O422 C425 1.259 . S
O423 Mg414 2.114 . S
O423 C426 1.252 . S
O424 Mg414 2.251 . S
O424 Mg417 2.079 . S
O424 C426 1.273 . S
C425 O421 1.246 . S
C425 O422 1.259 . S
C426 O423 1.252 . S
C426 O424 1.273 . S
O427 Mg414 2.010 . S
O427 C419 1.249 . S
Mg428 O429 2.028 . S
Mg428 O435 1.986 . S
Mg428 O437 2.114 . S
Mg428 O438 2.251 . S
Mg428 O441 2.010 . S
O429 Mg428 2.028 . S
O429 C432 1.250 . S
O430 Mg431 2.028 . S
O430 C432 1.248 . S
Mg431 O430 2.028 . S
Mg431 O436 2.032 . S
Mg431 O438 2.079 . S
C432 O429 1.250 . S
C432 O430 1.248 . S
C433 O434 1.264 . S
C433 O441 1.249 . S
O434 C433 1.264 . S
O435 Mg428 1.986 . S
O435 C439 1.246 . S
O436 Mg431 2.032 . S
O436 C439 1.259 . S
O437 Mg428 2.114 . S
O437 C440 1.252 . S
O438 Mg428 2.251 . S
O438 Mg431 2.079 . S
O438 C440 1.273 . S
C439 O435 1.246 . S
C439 O436 1.259 . S
C440 O437 1.252 . S
C440 O438 1.273 . S
O441 Mg428 2.010 . S
O441 C433 1.249 . S
Mg442 O443 2.028 . S
Mg442 O449 1.986 . S
Mg442 O451 2.114 . S
Mg442 O452 2.251 . S
Mg442 O455 2.010 . S
O443 Mg442 2.028 . S
O443 C446 1.250 . S
O444 Mg445 2.028 . S
O444 C446 1.248 . S
Mg445 O444 2.028 . S
Mg445 O450 2.032 . S
Mg445 O452 2.079 . S
C446 O443 1.250 . S
C446 O444 1.248 . S
C447 O448 1.264 . S
C447 O455 1.249 . S
O448 C447 1.264 . S
O449 Mg442 1.986 . S
O449 C453 1.246 . S
O450 Mg445 2.032 . S
O450 C453 1.259 . S
O451 Mg442 2.114 . S
O451 C454 1.252 . S
O452 Mg442 2.251 . S
O452 Mg445 2.079 . S
O452 C454 1.273 . S
C453 O449 1.246 . S
C453 O450 1.259 . S
C454 O451 1.252 . S
C454 O452 1.273 . S
O455 Mg442 2.010 . S
O455 C447 1.249 . S
H456 C474 0.951 . S
H457 C476 0.951 . S
H458 C478 0.950 . S
H459 C479 0.950 . S
H460 C481 0.950 . S
H461 C484 0.950 . S
H462 C485 0.950 . S
H463 C487 0.950 . S
H464 C488 0.950 . S
H465 C489 0.951 . S
H466 C491 0.951 . S
H467 C493 0.950 . S
H468 C494 0.950 . S
H469 C496 0.950 . S
H470 C499 0.950 . S
H471 C500 0.950 . S
H472 C502 0.950 . S
H473 C503 0.950 . S
C474 H456 0.951 . S
C474 C475 1.366 . S
C474 C476 1.388 . S
C475 C474 1.366 . S
C475 C479 1.385 . S
C476 H457 0.951 . S
C476 C474 1.388 . S
C476 C477 1.366 . S
C477 C476 1.366 . S
C477 C478 1.414 . S
C477 C480 1.499 . S
C478 H458 0.950 . S
C478 C477 1.414 . S
C478 C479 1.374 . S
C479 H459 0.950 . S
C479 C475 1.385 . S
C479 C478 1.374 . S
C480 C477 1.499 . S
C480 C481 1.373 . S
C480 C482 1.389 . S
C481 H460 0.950 . S
C481 C480 1.373 . S
C481 C497 1.377 . S
C482 C480 1.389 . S
C482 C483 1.524 . S
C482 C496 1.377 . S
C483 C482 1.524 . S
C483 C484 1.397 . S
C483 C488 1.363 . S
C484 H461 0.950 . S
C484 C483 1.397 . S
C484 C485 1.334 . S
C485 H462 0.950 . S
C485 C484 1.334 . S
C485 C486 1.287 . S
C486 C485 1.287 . S
C486 C487 1.524 . S
C486 H505 0.913 . S
C487 H463 0.950 . S
C487 C486 1.524 . S
C487 C488 1.415 . S
C488 H464 0.950 . S
C488 C483 1.363 . S
C488 C487 1.415 . S
C489 H465 0.951 . S
C489 C490 1.366 . S
C489 C491 1.388 . S
C490 C489 1.366 . S
C490 C494 1.385 . S
C491 H466 0.951 . S
C491 C489 1.388 . S
C491 C492 1.366 . S
C492 C491 1.366 . S
C492 C493 1.414 . S
C492 C495 1.499 . S
C493 H467 0.950 . S
C493 C492 1.414 . S
C493 C494 1.374 . S
C494 H468 0.950 . S
C494 C490 1.385 . S
C494 C493 1.374 . S
C495 C492 1.499 . S
C495 C496 1.373 . S
C495 C497 1.389 . S
C496 H469 0.950 . S
C496 C482 1.377 . S
C496 C495 1.373 . S
C497 C481 1.377 . S
C497 C495 1.389 . S
C497 C498 1.524 . S
C498 C497 1.524 . S
C498 C499 1.397 . S
C498 C503 1.363 . S
C499 H470 0.950 . S
C499 C498 1.397 . S
C499 C500 1.334 . S
C500 H471 0.950 . S
C500 C499 1.334 . S
C500 C501 1.287 . S
C501 C500 1.287 . S
C501 C502 1.524 . S
C501 H504 0.999 . S
C502 H472 0.950 . S
C502 C501 1.524 . S
C502 C503 1.415 . S
C503 H473 0.950 . S
C503 C498 1.363 . S
C503 C502 1.415 . S
H504 C501 0.999 . S
H505 C486 0.913 . S
H506 C524 0.951 . S
H507 C526 0.951 . S
H508 C528 0.950 . S
H509 C529 0.950 . S
H510 C531 0.950 . S
H511 C534 0.950 . S
H512 C535 0.950 . S
H513 C537 0.950 . S
H514 C538 0.950 . S
H515 C539 0.951 . S
H516 C541 0.951 . S
H517 C543 0.950 . S
H518 C544 0.950 . S
H519 C546 0.950 . S
H520 C549 0.950 . S
H521 C550 0.950 . S
H522 C552 0.950 . S
H523 C553 0.950 . S
C524 H506 0.951 . S
C524 C525 1.366 . S
C524 C526 1.388 . S
C525 C524 1.366 . S
C525 C529 1.385 . S
C526 H507 0.951 . S
C526 C524 1.388 . S
C526 C527 1.366 . S
C527 C526 1.366 . S
C527 C528 1.414 . S
C527 C530 1.499 . S
C528 H508 0.950 . S
C528 C527 1.414 . S
C528 C529 1.374 . S
C529 H509 0.950 . S
C529 C525 1.385 . S
C529 C528 1.374 . S
C530 C527 1.499 . S
C530 C531 1.373 . S
C530 C532 1.389 . S
C531 H510 0.950 . S
C531 C530 1.373 . S
C531 C547 1.377 . S
C532 C530 1.389 . S
C532 C533 1.524 . S
C532 C546 1.377 . S
C533 C532 1.524 . S
C533 C534 1.397 . S
C533 C538 1.363 . S
C534 H511 0.950 . S
C534 C533 1.397 . S
C534 C535 1.334 . S
C535 H512 0.950 . S
C535 C534 1.334 . S
C535 C536 1.287 . S
C536 C535 1.287 . S
C536 C537 1.524 . S
C536 H555 0.913 . S
C537 H513 0.950 . S
C537 C536 1.524 . S
C537 C538 1.415 . S
C538 H514 0.950 . S
C538 C533 1.363 . S
C538 C537 1.415 . S
C539 H515 0.951 . S
C539 C540 1.366 . S
C539 C541 1.388 . S
C540 C539 1.366 . S
C540 C544 1.385 . S
C541 H516 0.951 . S
C541 C539 1.388 . S
C541 C542 1.366 . S
C542 C541 1.366 . S
C542 C543 1.414 . S
C542 C545 1.499 . S
C543 H517 0.950 . S
C543 C542 1.414 . S
C543 C544 1.374 . S
C544 H518 0.950 . S
C544 C540 1.385 . S
C544 C543 1.374 . S
C545 C542 1.499 . S
C545 C546 1.373 . S
C545 C547 1.389 . S
C546 H519 0.950 . S
C546 C532 1.377 . S
C546 C545 1.373 . S
C547 C531 1.377 . S
C547 C545 1.389 . S
C547 C548 1.524 . S
C548 C547 1.524 . S
C548 C549 1.397 . S
C548 C553 1.363 . S
C549 H520 0.950 . S
C549 C548 1.397 . S
C549 C550 1.334 . S
C550 H521 0.950 . S
C550 C549 1.334 . S
C550 C551 1.287 . S
C551 C550 1.287 . S
C551 C552 1.524 . S
C551 H554 0.999 . S
C552 H522 0.950 . S
C552 C551 1.524 . S
C552 C553 1.415 . S
C553 H523 0.950 . S
C553 C548 1.363 . S
C553 C552 1.415 . S
H554 C551 0.999 . S
H555 C536 0.913 . S
H556 C574 0.951 . S
H557 C576 0.951 . S
H558 C578 0.950 . S
H559 C579 0.950 . S
H560 C581 0.950 . S
H561 C584 0.950 . S
H562 C585 0.950 . S
H563 C587 0.950 . S
H564 C588 0.950 . S
H565 C589 0.951 . S
H566 C591 0.951 . S
H567 C593 0.950 . S
H568 C594 0.950 . S
H569 C596 0.950 . S
H570 C599 0.950 . S
H571 C600 0.950 . S
H572 C602 0.950 . S
H573 C603 0.950 . S
C574 H556 0.951 . S
C574 C575 1.366 . S
C574 C576 1.388 . S
C575 C574 1.366 . S
C575 C579 1.385 . S
C576 H557 0.951 . S
C576 C574 1.388 . S
C576 C577 1.366 . S
C577 C576 1.366 . S
C577 C578 1.414 . S
C577 C580 1.499 . S
C578 H558 0.950 . S
C578 C577 1.414 . S
C578 C579 1.374 . S
C579 H559 0.950 . S
C579 C575 1.385 . S
C579 C578 1.374 . S
C580 C577 1.499 . S
C580 C581 1.373 . S
C580 C582 1.389 . S
C581 H560 0.950 . S
C581 C580 1.373 . S
C581 C597 1.377 . S
C582 C580 1.389 . S
C582 C583 1.524 . S
C582 C596 1.377 . S
C583 C582 1.524 . S
C583 C584 1.397 . S
C583 C588 1.363 . S
C584 H561 0.950 . S
C584 C583 1.397 . S
C584 C585 1.334 . S
C585 H562 0.950 . S
C585 C584 1.334 . S
C585 C586 1.287 . S
C586 C585 1.287 . S
C586 C587 1.524 . S
C586 H605 0.913 . S
C587 H563 0.950 . S
C587 C586 1.524 . S
C587 C588 1.415 . S
C588 H564 0.950 . S
C588 C583 1.363 . S
C588 C587 1.415 . S
C589 H565 0.951 . S
C589 C590 1.366 . S
C589 C591 1.388 . S
C590 C589 1.366 . S
C590 C594 1.385 . S
C591 H566 0.951 . S
C591 C589 1.388 . S
C591 C592 1.366 . S
C592 C591 1.366 . S
C592 C593 1.414 . S
C592 C595 1.499 . S
C593 H567 0.950 . S
C593 C592 1.414 . S
C593 C594 1.374 . S
C594 H568 0.950 . S
C594 C590 1.385 . S
C594 C593 1.374 . S
C595 C592 1.499 . S
C595 C596 1.373 . S
C595 C597 1.389 . S
C596 H569 0.950 . S
C596 C582 1.377 . S
C596 C595 1.373 . S
C597 C581 1.377 . S
C597 C595 1.389 . S
C597 C598 1.524 . S
C598 C597 1.524 . S
C598 C599 1.397 . S
C598 C603 1.363 . S
C599 H570 0.950 . S
C599 C598 1.397 . S
C599 C600 1.334 . S
C600 H571 0.950 . S
C600 C599 1.334 . S
C600 C601 1.287 . S
C601 C600 1.287 . S
C601 C602 1.524 . S
C601 H604 0.999 . S
C602 H572 0.950 . S
C602 C601 1.524 . S
C602 C603 1.415 . S
C603 H573 0.950 . S
C603 C598 1.363 . S
C603 C602 1.415 . S
H604 C601 0.999 . S
H605 C586 0.913 . S
H606 C624 0.951 . S
H607 C626 0.951 . S
H608 C628 0.950 . S
H609 C629 0.950 . S
H610 C631 0.950 . S
H611 C634 0.950 . S
H612 C635 0.950 . S
H613 C637 0.950 . S
H614 C638 0.950 . S
H615 C639 0.951 . S
H616 C641 0.951 . S
H617 C643 0.950 . S
H618 C644 0.950 . S
H619 C646 0.950 . S
H620 C649 0.950 . S
H621 C650 0.950 . S
H622 C652 0.950 . S
H623 C653 0.950 . S
C624 H606 0.951 . S
C624 C625 1.366 . S
C624 C626 1.388 . S
C625 C624 1.366 . S
C625 C629 1.385 . S
C626 H607 0.951 . S
C626 C624 1.388 . S
C626 C627 1.366 . S
C627 C626 1.366 . S
C627 C628 1.414 . S
C627 C630 1.499 . S
C628 H608 0.950 . S
C628 C627 1.414 . S
C628 C629 1.374 . S
C629 H609 0.950 . S
C629 C625 1.385 . S
C629 C628 1.374 . S
C630 C627 1.499 . S
C630 C631 1.373 . S
C630 C632 1.389 . S
C631 H610 0.950 . S
C631 C630 1.373 . S
C631 C647 1.377 . S
C632 C630 1.389 . S
C632 C633 1.524 . S
C632 C646 1.377 . S
C633 C632 1.524 . S
C633 C634 1.397 . S
C633 C638 1.363 . S
C634 H611 0.950 . S
C634 C633 1.397 . S
C634 C635 1.334 . S
C635 H612 0.950 . S
C635 C634 1.334 . S
C635 C636 1.287 . S
C636 C635 1.287 . S
C636 C637 1.524 . S
C636 H655 0.913 . S
C637 H613 0.950 . S
C637 C636 1.524 . S
C637 C638 1.415 . S
C638 H614 0.950 . S
C638 C633 1.363 . S
C638 C637 1.415 . S
C639 H615 0.951 . S
C639 C640 1.366 . S
C639 C641 1.388 . S
C640 C639 1.366 . S
C640 C644 1.385 . S
C641 H616 0.951 . S
C641 C639 1.388 . S
C641 C642 1.366 . S
C642 C641 1.366 . S
C642 C643 1.414 . S
C642 C645 1.499 . S
C643 H617 0.950 . S
C643 C642 1.414 . S
C643 C644 1.374 . S
C644 H618 0.950 . S
C644 C640 1.385 . S
C644 C643 1.374 . S
C645 C642 1.499 . S
C645 C646 1.373 . S
C645 C647 1.389 . S
C646 H619 0.950 . S
C646 C632 1.377 . S
C646 C645 1.373 . S
C647 C631 1.377 . S
C647 C645 1.389 . S
C647 C648 1.524 . S
C648 C647 1.524 . S
C648 C649 1.397 . S
C648 C653 1.363 . S
C649 H620 0.950 . S
C649 C648 1.397 . S
C649 C650 1.334 . S
C650 H621 0.950 . S
C650 C649 1.334 . S
C650 C651 1.287 . S
C651 C650 1.287 . S
C651 C652 1.524 . S
C651 H654 0.999 . S
C652 H622 0.950 . S
C652 C651 1.524 . S
C652 C653 1.415 . S
C653 H623 0.950 . S
C653 C648 1.363 . S
C653 C652 1.415 . S
H654 C651 0.999 . S
H655 C636 0.913 . S
H656 C674 0.951 . S
H657 C676 0.951 . S
H658 C678 0.950 . S
H659 C679 0.950 . S
H660 C681 0.950 . S
H661 C684 0.950 . S
H662 C685 0.950 . S
H663 C687 0.950 . S
H664 C688 0.950 . S
H665 C689 0.951 . S
H666 C691 0.951 . S
H667 C693 0.950 . S
H668 C694 0.950 . S
H669 C696 0.950 . S
H670 C699 0.950 . S
H671 C700 0.950 . S
H672 C702 0.950 . S
H673 C703 0.950 . S
C674 H656 0.951 . S
C674 C675 1.366 . S
C674 C676 1.388 . S
C675 C674 1.366 . S
C675 C679 1.385 . S
C676 H657 0.951 . S
C676 C674 1.388 . S
C676 C677 1.366 . S
C677 C676 1.366 . S
C677 C678 1.414 . S
C677 C680 1.499 . S
C678 H658 0.950 . S
C678 C677 1.414 . S
C678 C679 1.374 . S
C679 H659 0.950 . S
C679 C675 1.385 . S
C679 C678 1.374 . S
C680 C677 1.499 . S
C680 C681 1.373 . S
C680 C682 1.389 . S
C681 H660 0.950 . S
C681 C680 1.373 . S
C681 C697 1.377 . S
C682 C680 1.389 . S
C682 C683 1.524 . S
C682 C696 1.377 . S
C683 C682 1.524 . S
C683 C684 1.397 . S
C683 C688 1.363 . S
C684 H661 0.950 . S
C684 C683 1.397 . S
C684 C685 1.334 . S
C685 H662 0.950 . S
C685 C684 1.334 . S
C685 C686 1.287 . S
C686 C685 1.287 . S
C686 C687 1.524 . S
C686 H705 0.913 . S
C687 H663 0.950 . S
C687 C686 1.524 . S
C687 C688 1.415 . S
C688 H664 0.950 . S
C688 C683 1.363 . S
C688 C687 1.415 . S
C689 H665 0.951 . S
C689 C690 1.366 . S
C689 C691 1.388 . S
C690 C689 1.366 . S
C690 C694 1.385 . S
C691 H666 0.951 . S
C691 C689 1.388 . S
C691 C692 1.366 . S
C692 C691 1.366 . S
C692 C693 1.414 . S
C692 C695 1.499 . S
C693 H667 0.950 . S
C693 C692 1.414 . S
C693 C694 1.374 . S
C694 H668 0.950 . S
C694 C690 1.385 . S
C694 C693 1.374 . S
C695 C692 1.499 . S
C695 C696 1.373 . S
C695 C697 1.389 . S
C696 H669 0.950 . S
C696 C682 1.377 . S
C696 C695 1.373 . S
C697 C681 1.377 . S
C697 C695 1.389 . S
C697 C698 1.524 . S
C698 C697 1.524 . S
C698 C699 1.397 . S
C698 C703 1.363 . S
C699 H670 0.950 . S
C699 C698 1.397 . S
C699 C700 1.334 . S
C700 H671 0.950 . S
C700 C699 1.334 . S
C700 C701 1.287 . S
C701 C700 1.287 . S
C701 C702 1.524 . S
C701 H704 0.999 . S
C702 H672 0.950 . S
C702 C701 1.524 . S
C702 C703 1.415 . S
C703 H673 0.950 . S
C703 C698 1.363 . S
C703 C702 1.415 . S
H704 C701 0.999 . S
H705 C686 0.913 . S
H706 C724 0.951 . S
H707 C726 0.951 . S
H708 C728 0.950 . S
H709 C729 0.950 . S
H710 C731 0.950 . S
H711 C734 0.950 . S
H712 C735 0.950 . S
H713 C737 0.950 . S
H714 C738 0.950 . S
H715 C739 0.951 . S
H716 C741 0.951 . S
H717 C743 0.950 . S
H718 C744 0.950 . S
H719 C746 0.950 . S
H720 C749 0.950 . S
H721 C750 0.950 . S
H722 C752 0.950 . S
H723 C753 0.950 . S
C724 H706 0.951 . S
C724 C725 1.366 . S
C724 C726 1.388 . S
C725 C724 1.366 . S
C725 C729 1.385 . S
C726 H707 0.951 . S
C726 C724 1.388 . S
C726 C727 1.366 . S
C727 C726 1.366 . S
C727 C728 1.414 . S
C727 C730 1.499 . S
C728 H708 0.950 . S
C728 C727 1.414 . S
C728 C729 1.374 . S
C729 H709 0.950 . S
C729 C725 1.385 . S
C729 C728 1.374 . S
C730 C727 1.499 . S
C730 C731 1.373 . S
C730 C732 1.389 . S
C731 H710 0.950 . S
C731 C730 1.373 . S
C731 C747 1.377 . S
C732 C730 1.389 . S
C732 C733 1.524 . S
C732 C746 1.377 . S
C733 C732 1.524 . S
C733 C734 1.397 . S
C733 C738 1.363 . S
C734 H711 0.950 . S
C734 C733 1.397 . S
C734 C735 1.334 . S
C735 H712 0.950 . S
C735 C734 1.334 . S
C735 C736 1.287 . S
C736 C735 1.287 . S
C736 C737 1.524 . S
C736 H755 0.913 . S
C737 H713 0.950 . S
C737 C736 1.524 . S
C737 C738 1.415 . S
C738 H714 0.950 . S
C738 C733 1.363 . S
C738 C737 1.415 . S
C739 H715 0.951 . S
C739 C740 1.366 . S
C739 C741 1.388 . S
C740 C739 1.366 . S
C740 C744 1.385 . S
C741 H716 0.951 . S
C741 C739 1.388 . S
C741 C742 1.366 . S
C742 C741 1.366 . S
C742 C743 1.414 . S
C742 C745 1.499 . S
C743 H717 0.950 . S
C743 C742 1.414 . S
C743 C744 1.374 . S
C744 H718 0.950 . S
C744 C740 1.385 . S
C744 C743 1.374 . S
C745 C742 1.499 . S
C745 C746 1.373 . S
C745 C747 1.389 . S
C746 H719 0.950 . S
C746 C732 1.377 . S
C746 C745 1.373 . S
C747 C731 1.377 . S
C747 C745 1.389 . S
C747 C748 1.524 . S
C748 C747 1.524 . S
C748 C749 1.397 . S
C748 C753 1.363 . S
C749 H720 0.950 . S
C749 C748 1.397 . S
C749 C750 1.334 . S
C750 H721 0.950 . S
C750 C749 1.334 . S
C750 C751 1.287 . S
C751 C750 1.287 . S
C751 C752 1.524 . S
C751 H754 0.999 . S
C752 H722 0.950 . S
C752 C751 1.524 . S
C752 C753 1.415 . S
C753 H723 0.950 . S
C753 C748 1.363 . S
C753 C752 1.415 . S
H754 C751 0.999 . S
H755 C736 0.913 . S
H756 C774 0.951 . S
H757 C776 0.951 . S
H758 C778 0.950 . S
H759 C779 0.950 . S
H760 C781 0.950 . S
H761 C784 0.950 . S
H762 C785 0.950 . S
H763 C787 0.950 . S
H764 C788 0.950 . S
H765 C789 0.951 . S
H766 C791 0.951 . S
H767 C793 0.950 . S
H768 C794 0.950 . S
H769 C796 0.950 . S
H770 C799 0.950 . S
H771 C800 0.950 . S
H772 C802 0.950 . S
H773 C803 0.950 . S
C774 H756 0.951 . S
C774 C775 1.366 . S
C774 C776 1.388 . S
C775 C774 1.366 . S
C775 C779 1.385 . S
C776 H757 0.951 . S
C776 C774 1.388 . S
C776 C777 1.366 . S
C777 C776 1.366 . S
C777 C778 1.414 . S
C777 C780 1.499 . S
C778 H758 0.950 . S
C778 C777 1.414 . S
C778 C779 1.374 . S
C779 H759 0.950 . S
C779 C775 1.385 . S
C779 C778 1.374 . S
C780 C777 1.499 . S
C780 C781 1.373 . S
C780 C782 1.389 . S
C781 H760 0.950 . S
C781 C780 1.373 . S
C781 C797 1.377 . S
C782 C780 1.389 . S
C782 C783 1.524 . S
C782 C796 1.377 . S
C783 C782 1.524 . S
C783 C784 1.397 . S
C783 C788 1.363 . S
C784 H761 0.950 . S
C784 C783 1.397 . S
C784 C785 1.334 . S
C785 H762 0.950 . S
C785 C784 1.334 . S
C785 C786 1.287 . S
C786 C785 1.287 . S
C786 C787 1.524 . S
C786 H805 0.913 . S
C787 H763 0.950 . S
C787 C786 1.524 . S
C787 C788 1.415 . S
C788 H764 0.950 . S
C788 C783 1.363 . S
C788 C787 1.415 . S
C789 H765 0.951 . S
C789 C790 1.366 . S
C789 C791 1.388 . S
C790 C789 1.366 . S
C790 C794 1.385 . S
C791 H766 0.951 . S
C791 C789 1.388 . S
C791 C792 1.366 . S
C792 C791 1.366 . S
C792 C793 1.414 . S
C792 C795 1.499 . S
C793 H767 0.950 . S
C793 C792 1.414 . S
C793 C794 1.374 . S
C794 H768 0.950 . S
C794 C790 1.385 . S
C794 C793 1.374 . S
C795 C792 1.499 . S
C795 C796 1.373 . S
C795 C797 1.389 . S
C796 H769 0.950 . S
C796 C782 1.377 . S
C796 C795 1.373 . S
C797 C781 1.377 . S
C797 C795 1.389 . S
C797 C798 1.524 . S
C798 C797 1.524 . S
C798 C799 1.397 . S
C798 C803 1.363 . S
C799 H770 0.950 . S
C799 C798 1.397 . S
C799 C800 1.334 . S
C800 H771 0.950 . S
C800 C799 1.334 . S
C800 C801 1.287 . S
C801 C800 1.287 . S
C801 C802 1.524 . S
C801 H804 0.999 . S
C802 H772 0.950 . S
C802 C801 1.524 . S
C802 C803 1.415 . S
C803 H773 0.950 . S
C803 C798 1.363 . S
C803 C802 1.415 . S
H804 C801 0.999 . S
H805 C786 0.913 . S
H806 C824 0.951 . S
H807 C826 0.951 . S
H808 C828 0.950 . S
H809 C829 0.950 . S
H810 C831 0.950 . S
H811 C834 0.950 . S
H812 C835 0.950 . S
H813 C837 0.950 . S
H814 C838 0.950 . S
H815 C839 0.951 . S
H816 C841 0.951 . S
H817 C843 0.950 . S
H818 C844 0.950 . S
H819 C846 0.950 . S
H820 C849 0.950 . S
H821 C850 0.950 . S
H822 C852 0.950 . S
H823 C853 0.950 . S
C824 H806 0.951 . S
C824 C825 1.366 . S
C824 C826 1.388 . S
C825 C824 1.366 . S
C825 C829 1.385 . S
C826 H807 0.951 . S
C826 C824 1.388 . S
C826 C827 1.366 . S
C827 C826 1.366 . S
C827 C828 1.414 . S
C827 C830 1.499 . S
C828 H808 0.950 . S
C828 C827 1.414 . S
C828 C829 1.374 . S
C829 H809 0.950 . S
C829 C825 1.385 . S
C829 C828 1.374 . S
C830 C827 1.499 . S
C830 C831 1.373 . S
C830 C832 1.389 . S
C831 H810 0.950 . S
C831 C830 1.373 . S
C831 C847 1.377 . S
C832 C830 1.389 . S
C832 C833 1.524 . S
C832 C846 1.377 . S
C833 C832 1.524 . S
C833 C834 1.397 . S
C833 C838 1.363 . S
C834 H811 0.950 . S
C834 C833 1.397 . S
C834 C835 1.334 . S
C835 H812 0.950 . S
C835 C834 1.334 . S
C835 C836 1.287 . S
C836 C835 1.287 . S
C836 C837 1.524 . S
C836 H855 0.913 . S
C837 H813 0.950 . S
C837 C836 1.524 . S
C837 C838 1.415 . S
C838 H814 0.950 . S
C838 C833 1.363 . S
C838 C837 1.415 . S
C839 H815 0.951 . S
C839 C840 1.366 . S
C839 C841 1.388 . S
C840 C839 1.366 . S
C840 C844 1.385 . S
C841 H816 0.951 . S
C841 C839 1.388 . S
C841 C842 1.366 . S
C842 C841 1.366 . S
C842 C843 1.414 . S
C842 C845 1.499 . S
C843 H817 0.950 . S
C843 C842 1.414 . S
C843 C844 1.374 . S
C844 H818 0.950 . S
C844 C840 1.385 . S
C844 C843 1.374 . S
C845 C842 1.499 . S
C845 C846 1.373 . S
C845 C847 1.389 . S
C846 H819 0.950 . S
C846 C832 1.377 . S
C846 C845 1.373 . S
C847 C831 1.377 . S
C847 C845 1.389 . S
C847 C848 1.524 . S
C848 C847 1.524 . S
C848 C849 1.397 . S
C848 C853 1.363 . S
C849 H820 0.950 . S
C849 C848 1.397 . S
C849 C850 1.334 . S
C850 H821 0.950 . S
C850 C849 1.334 . S
C850 C851 1.287 . S
C851 C850 1.287 . S
C851 C852 1.524 . S
C851 H854 0.999 . S
C852 H822 0.950 . S
C852 C851 1.524 . S
C852 C853 1.415 . S
C853 H823 0.950 . S
C853 C848 1.363 . S
C853 C852 1.415 . S
H854 C851 0.999 . S
H855 C836 0.913 . S
H856 C874 0.951 . S
H857 C876 0.951 . S
H858 C878 0.950 . S
H859 C879 0.950 . S
H860 C881 0.950 . S
H861 C884 0.950 . S
H862 C885 0.950 . S
H863 C887 0.950 . S
H864 C888 0.950 . S
H865 C889 0.951 . S
H866 C891 0.951 . S
H867 C893 0.950 . S
H868 C894 0.950 . S
H869 C896 0.950 . S
H870 C899 0.950 . S
H871 C900 0.950 . S
H872 C902 0.950 . S
H873 C903 0.950 . S
C874 H856 0.951 . S
C874 C875 1.366 . S
C874 C876 1.388 . S
C875 C874 1.366 . S
C875 C879 1.385 . S
C876 H857 0.951 . S
C876 C874 1.388 . S
C876 C877 1.366 . S
C877 C876 1.366 . S
C877 C878 1.414 . S
C877 C880 1.499 . S
C878 H858 0.950 . S
C878 C877 1.414 . S
C878 C879 1.374 . S
C879 H859 0.950 . S
C879 C875 1.385 . S
C879 C878 1.374 . S
C880 C877 1.499 . S
C880 C881 1.373 . S
C880 C882 1.389 . S
C881 H860 0.950 . S
C881 C880 1.373 . S
C881 C897 1.377 . S
C882 C880 1.389 . S
C882 C883 1.524 . S
C882 C896 1.377 . S
C883 C882 1.524 . S
C883 C884 1.397 . S
C883 C888 1.363 . S
C884 H861 0.950 . S
C884 C883 1.397 . S
C884 C885 1.334 . S
C885 H862 0.950 . S
C885 C884 1.334 . S
C885 C886 1.287 . S
C886 C885 1.287 . S
C886 C887 1.524 . S
C886 H905 0.913 . S
C887 H863 0.950 . S
C887 C886 1.524 . S
C887 C888 1.415 . S
C888 H864 0.950 . S
C888 C883 1.363 . S
C888 C887 1.415 . S
C889 H865 0.951 . S
C889 C890 1.366 . S
C889 C891 1.388 . S
C890 C889 1.366 . S
C890 C894 1.385 . S
C891 H866 0.951 . S
C891 C889 1.388 . S
C891 C892 1.366 . S
C892 C891 1.366 . S
C892 C893 1.414 . S
C892 C895 1.499 . S
C893 H867 0.950 . S
C893 C892 1.414 . S
C893 C894 1.374 . S
C894 H868 0.950 . S
C894 C890 1.385 . S
C894 C893 1.374 . S
C895 C892 1.499 . S
C895 C896 1.373 . S
C895 C897 1.389 . S
C896 H869 0.950 . S
C896 C882 1.377 . S
C896 C895 1.373 . S
C897 C881 1.377 . S
C897 C895 1.389 . S
C897 C898 1.524 . S
C898 C897 1.524 . S
C898 C899 1.397 . S
C898 C903 1.363 . S
C899 H870 0.950 . S
C899 C898 1.397 . S
C899 C900 1.334 . S
C900 H871 0.950 . S
C900 C899 1.334 . S
C900 C901 1.287 . S
C901 C900 1.287 . S
C901 C902 1.524 . S
C901 H904 0.999 . S
C902 H872 0.950 . S
C902 C901 1.524 . S
C902 C903 1.415 . S
C903 H873 0.950 . S
C903 C898 1.363 . S
C903 C902 1.415 . S
H904 C901 0.999 . S
H905 C886 0.913 . S
H906 C924 0.951 . S
H907 C926 0.951 . S
H908 C928 0.950 . S
H909 C929 0.950 . S
H910 C931 0.950 . S
H911 C934 0.950 . S
H912 C935 0.950 . S
H913 C937 0.950 . S
H914 C938 0.950 . S
H915 C939 0.951 . S
H916 C941 0.951 . S
H917 C943 0.950 . S
H918 C944 0.950 . S
H919 C946 0.950 . S
H920 C949 0.950 . S
H921 C950 0.950 1_556 S
H922 C952 0.950 . S
H923 C953 0.950 . S
C924 H906 0.951 . S
C924 C925 1.366 . S
C924 C926 1.388 . S
C925 C924 1.366 . S
C925 C929 1.385 . S
C926 H907 0.951 . S
C926 C924 1.388 . S
C926 C927 1.366 . S
C927 C926 1.366 . S
C927 C928 1.414 . S
C927 C930 1.499 . S
C928 H908 0.950 . S
C928 C927 1.414 . S
C928 C929 1.374 . S
C929 H909 0.950 . S
C929 C925 1.385 . S
C929 C928 1.374 . S
C930 C927 1.499 . S
C930 C931 1.373 . S
C930 C932 1.389 . S
C931 H910 0.950 . S
C931 C930 1.373 . S
C931 C947 1.377 . S
C932 C930 1.389 . S
C932 C933 1.524 . S
C932 C946 1.377 . S
C933 C932 1.524 . S
C933 C934 1.397 . S
C933 C938 1.363 . S
C934 H911 0.950 . S
C934 C933 1.397 . S
C934 C935 1.334 . S
C935 H912 0.950 . S
C935 C934 1.334 . S
C935 C936 1.287 . S
C936 C935 1.287 . S
C936 C937 1.524 . S
C936 H955 0.913 . S
C937 H913 0.950 . S
C937 C936 1.524 . S
C937 C938 1.415 . S
C938 H914 0.950 . S
C938 C933 1.363 . S
C938 C937 1.415 . S
C939 H915 0.951 . S
C939 C940 1.366 . S
C939 C941 1.388 . S
C940 C939 1.366 . S
C940 C944 1.385 . S
C941 H916 0.951 . S
C941 C939 1.388 . S
C941 C942 1.366 . S
C942 C941 1.366 . S
C942 C943 1.414 . S
C942 C945 1.499 . S
C943 H917 0.950 . S
C943 C942 1.414 . S
C943 C944 1.374 . S
C944 H918 0.950 . S
C944 C940 1.385 . S
C944 C943 1.374 . S
C945 C942 1.499 . S
C945 C946 1.373 . S
C945 C947 1.389 . S
C946 H919 0.950 . S
C946 C932 1.377 . S
C946 C945 1.373 . S
C947 C931 1.377 . S
C947 C945 1.389 . S
C947 C948 1.524 . S
C948 C947 1.524 . S
C948 C949 1.397 . S
C948 C953 1.363 . S
C949 H920 0.950 . S
C949 C948 1.397 . S
C949 C950 1.334 . S
C950 H921 0.950 1_554 S
C950 C949 1.334 . S
C950 C951 1.287 . S
C951 C950 1.287 . S
C951 C952 1.524 . S
C951 H954 0.999 . S
C952 H922 0.950 . S
C952 C951 1.524 . S
C952 C953 1.415 . S
C953 H923 0.950 . S
C953 C948 1.363 . S
C953 C952 1.415 . S
H954 C951 0.999 . S
H955 C936 0.913 . S
H956 C974 0.951 . S
H957 C976 0.951 . S
H958 C978 0.950 . S
H959 C979 0.950 . S
H960 C981 0.950 . S
H961 C984 0.950 . S
H962 C985 0.950 . S
H963 C987 0.950 . S
H964 C988 0.950 . S
H965 C989 0.951 . S
H966 C991 0.951 . S
H967 C993 0.950 . S
H968 C994 0.950 . S
H969 C996 0.950 . S
H970 C999 0.950 . S
H971 C1000 0.950 . S
H972 C1002 0.950 . S
H973 C1003 0.950 . S
C974 H956 0.951 . S
C974 C975 1.366 . S
C974 C976 1.388 . S
C975 C974 1.366 . S
C975 C979 1.385 . S
C976 H957 0.951 . S
C976 C974 1.388 . S
C976 C977 1.366 . S
C977 C976 1.366 . S
C977 C978 1.414 . S
C977 C980 1.499 . S
C978 H958 0.950 . S
C978 C977 1.414 . S
C978 C979 1.374 . S
C979 H959 0.950 . S
C979 C975 1.385 . S
C979 C978 1.374 . S
C980 C977 1.499 . S
C980 C981 1.373 . S
C980 C982 1.389 . S
C981 H960 0.950 . S
C981 C980 1.373 . S
C981 C997 1.377 . S
C982 C980 1.389 . S
C982 C983 1.524 . S
C982 C996 1.377 . S
C983 C982 1.524 . S
C983 C984 1.397 . S
C983 C988 1.363 . S
C984 H961 0.950 . S
C984 C983 1.397 . S
C984 C985 1.334 . S
C985 H962 0.950 . S
C985 C984 1.334 . S
C985 C986 1.287 . S
C986 C985 1.287 . S
C986 C987 1.524 . S
C986 H1005 0.913 . S
C987 H963 0.950 . S
C987 C986 1.524 . S
C987 C988 1.415 . S
C988 H964 0.950 . S
C988 C983 1.363 . S
C988 C987 1.415 . S
C989 H965 0.951 . S
C989 C990 1.366 . S
C989 C991 1.388 . S
C990 C989 1.366 . S
C990 C994 1.385 . S
C991 H966 0.951 . S
C991 C989 1.388 . S
C991 C992 1.366 . S
C992 C991 1.366 . S
C992 C993 1.414 . S
C992 C995 1.499 . S
C993 H967 0.950 . S
C993 C992 1.414 . S
C993 C994 1.374 . S
C994 H968 0.950 . S
C994 C990 1.385 . S
C994 C993 1.374 . S
C995 C992 1.499 . S
C995 C996 1.373 . S
C995 C997 1.389 . S
C996 H969 0.950 . S
C996 C982 1.377 . S
C996 C995 1.373 . S
C997 C981 1.377 . S
C997 C995 1.389 . S
C997 C998 1.524 . S
C998 C997 1.524 . S
C998 C999 1.397 . S
C998 C1003 1.363 . S
C999 H970 0.950 . S
C999 C998 1.397 . S
C999 C1000 1.334 . S
C1000 H971 0.950 . S
C1000 C999 1.334 . S
C1000 C1001 1.287 . S
C1001 C1000 1.287 . S
C1001 C1002 1.524 . S
C1001 H1004 0.999 . S
C1002 H972 0.950 . S
C1002 C1001 1.524 . S
C1002 C1003 1.415 . S
C1003 H973 0.950 . S
C1003 C998 1.363 . S
C1003 C1002 1.415 . S
H1004 C1001 0.999 . S
H1005 C986 0.913 . S
H1006 C1024 0.951 . S
H1007 C1026 0.951 . S
H1008 C1028 0.950 . S
H1009 C1029 0.950 . S
H1010 C1031 0.950 . S
H1011 C1034 0.950 . S
H1012 C1035 0.950 . S
H1013 C1037 0.950 . S
H1014 C1038 0.950 . S
H1015 C1039 0.951 . S
H1016 C1041 0.951 . S
H1017 C1043 0.950 . S
H1018 C1044 0.950 . S
H1019 C1046 0.950 . S
H1020 C1049 0.950 . S
H1021 C1050 0.950 . S
H1022 C1052 0.950 . S
H1023 C1053 0.950 . S
C1024 H1006 0.951 . S
C1024 C1025 1.366 . S
C1024 C1026 1.388 . S
C1025 C1024 1.366 . S
C1025 C1029 1.385 . S
C1026 H1007 0.951 . S
C1026 C1024 1.388 . S
C1026 C1027 1.366 . S
C1027 C1026 1.366 . S
C1027 C1028 1.414 . S
C1027 C1030 1.499 . S
C1028 H1008 0.950 . S
C1028 C1027 1.414 . S
C1028 C1029 1.374 . S
C1029 H1009 0.950 . S
C1029 C1025 1.385 . S
C1029 C1028 1.374 . S
C1030 C1027 1.499 . S
C1030 C1031 1.373 . S
C1030 C1032 1.389 . S
C1031 H1010 0.950 . S
C1031 C1030 1.373 . S
C1031 C1047 1.377 . S
C1032 C1030 1.389 . S
C1032 C1033 1.524 . S
C1032 C1046 1.377 . S
C1033 C1032 1.524 . S
C1033 C1034 1.397 . S
C1033 C1038 1.363 . S
C1034 H1011 0.950 . S
C1034 C1033 1.397 . S
C1034 C1035 1.334 . S
C1035 H1012 0.950 . S
C1035 C1034 1.334 . S
C1035 C1036 1.287 . S
C1036 C1035 1.287 . S
C1036 C1037 1.524 . S
C1036 H1055 0.913 . S
C1037 H1013 0.950 . S
C1037 C1036 1.524 . S
C1037 C1038 1.415 . S
C1038 H1014 0.950 . S
C1038 C1033 1.363 . S
C1038 C1037 1.415 . S
C1039 H1015 0.951 . S
C1039 C1040 1.366 . S
C1039 C1041 1.388 . S
C1040 C1039 1.366 . S
C1040 C1044 1.385 . S
C1041 H1016 0.951 . S
C1041 C1039 1.388 . S
C1041 C1042 1.366 . S
C1042 C1041 1.366 . S
C1042 C1043 1.414 . S
C1042 C1045 1.499 . S
C1043 H1017 0.950 . S
C1043 C1042 1.414 . S
C1043 C1044 1.374 . S
C1044 H1018 0.950 . S
C1044 C1040 1.385 . S
C1044 C1043 1.374 . S
C1045 C1042 1.499 . S
C1045 C1046 1.373 . S
C1045 C1047 1.389 . S
C1046 H1019 0.950 . S
C1046 C1032 1.377 . S
C1046 C1045 1.373 . S
C1047 C1031 1.377 . S
C1047 C1045 1.389 . S
C1047 C1048 1.524 . S
C1048 C1047 1.524 . S
C1048 C1049 1.397 . S
C1048 C1053 1.363 . S
C1049 H1020 0.950 . S
C1049 C1048 1.397 . S
C1049 C1050 1.334 . S
C1050 H1021 0.950 . S
C1050 C1049 1.334 . S
C1050 C1051 1.287 . S
C1051 C1050 1.287 . S
C1051 C1052 1.524 . S
C1051 H1054 0.999 . S
C1052 H1022 0.950 . S
C1052 C1051 1.524 . S
C1052 C1053 1.415 . S
C1053 H1023 0.950 . S
C1053 C1048 1.363 . S
C1053 C1052 1.415 . S
H1054 C1051 0.999 . S
H1055 C1036 0.913 . S
H1056 C1074 0.951 . S
H1057 C1076 0.951 . S
H1058 C1078 0.950 . S
H1059 C1079 0.950 . S
H1060 C1081 0.950 . S
H1061 C1084 0.950 . S
H1062 C1085 0.950 . S
H1063 C1087 0.950 . S
H1064 C1088 0.950 . S
H1065 C1089 0.951 . S
H1066 C1091 0.951 . S
H1067 C1093 0.950 . S
H1068 C1094 0.950 . S
H1069 C1096 0.950 . S
H1070 C1099 0.950 . S
H1071 C1100 0.950 . S
H1072 C1102 0.950 . S
H1073 C1103 0.950 . S
C1074 H1056 0.951 . S
C1074 C1075 1.366 . S
C1074 C1076 1.388 . S
C1075 C1074 1.366 . S
C1075 C1079 1.385 . S
C1076 H1057 0.951 . S
C1076 C1074 1.388 . S
C1076 C1077 1.366 . S
C1077 C1076 1.366 . S
C1077 C1078 1.414 . S
C1077 C1080 1.499 . S
C1078 H1058 0.950 . S
C1078 C1077 1.414 . S
C1078 C1079 1.374 . S
C1079 H1059 0.950 . S
C1079 C1075 1.385 . S
C1079 C1078 1.374 . S
C1080 C1077 1.499 . S
C1080 C1081 1.373 . S
C1080 C1082 1.389 . S
C1081 H1060 0.950 . S
C1081 C1080 1.373 . S
C1081 C1097 1.377 . S
C1082 C1080 1.389 . S
C1082 C1083 1.524 . S
C1082 C1096 1.377 . S
C1083 C1082 1.524 . S
C1083 C1084 1.397 . S
C1083 C1088 1.363 . S
C1084 H1061 0.950 . S
C1084 C1083 1.397 . S
C1084 C1085 1.334 . S
C1085 H1062 0.950 . S
C1085 C1084 1.334 . S
C1085 C1086 1.287 . S
C1086 C1085 1.287 . S
C1086 C1087 1.524 . S
C1086 H1105 0.913 . S
C1087 H1063 0.950 . S
C1087 C1086 1.524 . S
C1087 C1088 1.415 . S
C1088 H1064 0.950 . S
C1088 C1083 1.363 . S
C1088 C1087 1.415 . S
C1089 H1065 0.951 . S
C1089 C1090 1.366 . S
C1089 C1091 1.388 . S
C1090 C1089 1.366 . S
C1090 C1094 1.385 . S
C1091 H1066 0.951 . S
C1091 C1089 1.388 . S
C1091 C1092 1.366 . S
C1092 C1091 1.366 . S
C1092 C1093 1.414 . S
C1092 C1095 1.499 . S
C1093 H1067 0.950 . S
C1093 C1092 1.414 . S
C1093 C1094 1.374 . S
C1094 H1068 0.950 . S
C1094 C1090 1.385 . S
C1094 C1093 1.374 . S
C1095 C1092 1.499 . S
C1095 C1096 1.373 . S
C1095 C1097 1.389 . S
C1096 H1069 0.950 . S
C1096 C1082 1.377 . S
C1096 C1095 1.373 . S
C1097 C1081 1.377 . S
C1097 C1095 1.389 . S
C1097 C1098 1.524 . S
C1098 C1097 1.524 . S
C1098 C1099 1.397 . S
C1098 C1103 1.363 . S
C1099 H1070 0.950 . S
C1099 C1098 1.397 . S
C1099 C1100 1.334 . S
C1100 H1071 0.950 . S
C1100 C1099 1.334 . S
C1100 C1101 1.287 . S
C1101 C1100 1.287 . S
C1101 C1102 1.524 . S
C1101 H1104 0.999 . S
C1102 H1072 0.950 . S
C1102 C1101 1.524 . S
C1102 C1103 1.415 . S
C1103 H1073 0.950 . S
C1103 C1098 1.363 . S
C1103 C1102 1.415 . S
H1104 C1101 0.999 . S
H1105 C1086 0.913 . S
H1106 C1124 0.951 . S
H1107 C1126 0.951 . S
H1108 C1128 0.950 . S
H1109 C1129 0.950 . S
H1110 C1131 0.950 . S
H1111 C1134 0.950 . S
H1112 C1135 0.950 . S
H1113 C1137 0.950 . S
H1114 C1138 0.950 . S
H1115 C1139 0.951 . S
H1116 C1141 0.951 . S
H1117 C1143 0.950 . S
H1118 C1144 0.950 . S
H1119 C1146 0.950 . S
H1120 C1149 0.950 . S
H1121 C1150 0.950 . S
H1122 C1152 0.950 . S
H1123 C1153 0.950 . S
C1124 H1106 0.951 . S
C1124 C1125 1.366 . S
C1124 C1126 1.388 . S
C1125 C1124 1.366 . S
C1125 C1129 1.385 . S
C1126 H1107 0.951 . S
C1126 C1124 1.388 . S
C1126 C1127 1.366 . S
C1127 C1126 1.366 . S
C1127 C1128 1.414 . S
C1127 C1130 1.499 . S
C1128 H1108 0.950 . S
C1128 C1127 1.414 . S
C1128 C1129 1.374 . S
C1129 H1109 0.950 . S
C1129 C1125 1.385 . S
C1129 C1128 1.374 . S
C1130 C1127 1.499 . S
C1130 C1131 1.373 . S
C1130 C1132 1.389 . S
C1131 H1110 0.950 . S
C1131 C1130 1.373 . S
C1131 C1147 1.377 . S
C1132 C1130 1.389 . S
C1132 C1133 1.524 . S
C1132 C1146 1.377 . S
C1133 C1132 1.524 . S
C1133 C1134 1.397 . S
C1133 C1138 1.363 . S
C1134 H1111 0.950 . S
C1134 C1133 1.397 . S
C1134 C1135 1.334 . S
C1135 H1112 0.950 . S
C1135 C1134 1.334 . S
C1135 C1136 1.287 . S
C1136 C1135 1.287 . S
C1136 C1137 1.524 . S
C1136 H1155 0.913 . S
C1137 H1113 0.950 . S
C1137 C1136 1.524 . S
C1137 C1138 1.415 . S
C1138 H1114 0.950 . S
C1138 C1133 1.363 . S
C1138 C1137 1.415 . S
C1139 H1115 0.951 . S
C1139 C1140 1.366 . S
C1139 C1141 1.388 . S
C1140 C1139 1.366 . S
C1140 C1144 1.385 . S
C1141 H1116 0.951 . S
C1141 C1139 1.388 . S
C1141 C1142 1.366 . S
C1142 C1141 1.366 . S
C1142 C1143 1.414 . S
C1142 C1145 1.499 . S
C1143 H1117 0.950 . S
C1143 C1142 1.414 . S
C1143 C1144 1.374 . S
C1144 H1118 0.950 . S
C1144 C1140 1.385 . S
C1144 C1143 1.374 . S
C1145 C1142 1.499 . S
C1145 C1146 1.373 . S
C1145 C1147 1.389 . S
C1146 H1119 0.950 . S
C1146 C1132 1.377 . S
C1146 C1145 1.373 . S
C1147 C1131 1.377 . S
C1147 C1145 1.389 . S
C1147 C1148 1.524 . S
C1148 C1147 1.524 . S
C1148 C1149 1.397 . S
C1148 C1153 1.363 . S
C1149 H1120 0.950 . S
C1149 C1148 1.397 . S
C1149 C1150 1.334 . S
C1150 H1121 0.950 . S
C1150 C1149 1.334 . S
C1150 C1151 1.287 . S
C1151 C1150 1.287 . S
C1151 C1152 1.524 . S
C1151 H1154 0.999 . S
C1152 H1122 0.950 . S
C1152 C1151 1.524 . S
C1152 C1153 1.415 . S
C1153 H1123 0.950 . S
C1153 C1148 1.363 . S
C1153 C1152 1.415 . S
H1154 C1151 0.999 . S
H1155 C1136 0.913 . S
H1156 C1174 0.951 . S
H1157 C1176 0.951 . S
H1158 C1178 0.950 . S
H1159 C1179 0.950 . S
H1160 C1181 0.950 . S
H1161 C1184 0.950 . S
H1162 C1185 0.950 . S
H1163 C1187 0.950 . S
H1164 C1188 0.950 . S
H1165 C1189 0.951 . S
H1166 C1191 0.951 . S
H1167 C1193 0.950 . S
H1168 C1194 0.950 . S
H1169 C1196 0.950 . S
H1170 C1199 0.950 . S
H1171 C1200 0.950 . S
H1172 C1202 0.950 . S
H1173 C1203 0.950 . S
C1174 H1156 0.951 . S
C1174 C1175 1.366 . S
C1174 C1176 1.388 . S
C1175 C1174 1.366 . S
C1175 C1179 1.385 . S
C1176 H1157 0.951 . S
C1176 C1174 1.388 . S
C1176 C1177 1.366 . S
C1177 C1176 1.366 . S
C1177 C1178 1.414 . S
C1177 C1180 1.499 . S
C1178 H1158 0.950 . S
C1178 C1177 1.414 . S
C1178 C1179 1.374 . S
C1179 H1159 0.950 . S
C1179 C1175 1.385 . S
C1179 C1178 1.374 . S
C1180 C1177 1.499 . S
C1180 C1181 1.373 . S
C1180 C1182 1.389 . S
C1181 H1160 0.950 . S
C1181 C1180 1.373 . S
C1181 C1197 1.377 . S
C1182 C1180 1.389 . S
C1182 C1183 1.524 . S
C1182 C1196 1.377 . S
C1183 C1182 1.524 . S
C1183 C1184 1.397 . S
C1183 C1188 1.363 . S
C1184 H1161 0.950 . S
C1184 C1183 1.397 . S
C1184 C1185 1.334 . S
C1185 H1162 0.950 . S
C1185 C1184 1.334 . S
C1185 C1186 1.287 . S
C1186 C1185 1.287 . S
C1186 C1187 1.524 . S
C1186 H1205 0.913 . S
C1187 H1163 0.950 . S
C1187 C1186 1.524 . S
C1187 C1188 1.415 . S
C1188 H1164 0.950 . S
C1188 C1183 1.363 . S
C1188 C1187 1.415 . S
C1189 H1165 0.951 . S
C1189 C1190 1.366 . S
C1189 C1191 1.388 . S
C1190 C1189 1.366 . S
C1190 C1194 1.385 . S
C1191 H1166 0.951 . S
C1191 C1189 1.388 . S
C1191 C1192 1.366 . S
C1192 C1191 1.366 . S
C1192 C1193 1.414 . S
C1192 C1195 1.499 . S
C1193 H1167 0.950 . S
C1193 C1192 1.414 . S
C1193 C1194 1.374 . S
C1194 H1168 0.950 . S
C1194 C1190 1.385 . S
C1194 C1193 1.374 . S
C1195 C1192 1.499 . S
C1195 C1196 1.373 . S
C1195 C1197 1.389 . S
C1196 H1169 0.950 . S
C1196 C1182 1.377 . S
C1196 C1195 1.373 . S
C1197 C1181 1.377 . S
C1197 C1195 1.389 . S
C1197 C1198 1.524 . S
C1198 C1197 1.524 . S
C1198 C1199 1.397 . S
C1198 C1203 1.363 . S
C1199 H1170 0.950 . S
C1199 C1198 1.397 . S
C1199 C1200 1.334 . S
C1200 H1171 0.950 . S
C1200 C1199 1.334 . S
C1200 C1201 1.287 . S
C1201 C1200 1.287 . S
C1201 C1202 1.524 . S
C1201 H1204 0.999 . S
C1202 H1172 0.950 . S
C1202 C1201 1.524 . S
C1202 C1203 1.415 . S
C1203 H1173 0.950 . S
C1203 C1198 1.363 . S
C1203 C1202 1.415 . S
H1204 C1201 0.999 . S
H1205 C1186 0.913 . S
H1206 C1224 0.951 . S
H1207 C1226 0.951 . S
H1208 C1228 0.950 . S
H1209 C1229 0.950 . S
H1210 C1231 0.950 . S
H1211 C1234 0.950 . S
H1212 C1235 0.950 . S
H1213 C1237 0.950 . S
H1214 C1238 0.950 . S
H1215 C1239 0.951 . S
H1216 C1241 0.951 . S
H1217 C1243 0.950 . S
H1218 C1244 0.950 . S
H1219 C1246 0.950 . S
H1220 C1249 0.950 . S
H1221 C1250 0.950 . S
H1222 C1252 0.950 . S
H1223 C1253 0.950 . S
C1224 H1206 0.951 . S
C1224 C1225 1.366 . S
C1224 C1226 1.388 . S
C1225 C1224 1.366 . S
C1225 C1229 1.385 . S
C1226 H1207 0.951 . S
C1226 C1224 1.388 . S
C1226 C1227 1.366 . S
C1227 C1226 1.366 . S
C1227 C1228 1.414 . S
C1227 C1230 1.499 . S
C1228 H1208 0.950 . S
C1228 C1227 1.414 . S
C1228 C1229 1.374 . S
C1229 H1209 0.950 . S
C1229 C1225 1.385 . S
C1229 C1228 1.374 . S
C1230 C1227 1.499 . S
C1230 C1231 1.373 . S
C1230 C1232 1.389 . S
C1231 H1210 0.950 . S
C1231 C1230 1.373 . S
C1231 C1247 1.377 . S
C1232 C1230 1.389 . S
C1232 C1233 1.524 . S
C1232 C1246 1.377 . S
C1233 C1232 1.524 . S
C1233 C1234 1.397 . S
C1233 C1238 1.363 . S
C1234 H1211 0.950 . S
C1234 C1233 1.397 . S
C1234 C1235 1.334 . S
C1235 H1212 0.950 . S
C1235 C1234 1.334 . S
C1235 C1236 1.287 . S
C1236 C1235 1.287 . S
C1236 C1237 1.524 . S
C1236 H1255 0.913 . S
C1237 H1213 0.950 . S
C1237 C1236 1.524 . S
C1237 C1238 1.415 . S
C1238 H1214 0.950 . S
C1238 C1233 1.363 . S
C1238 C1237 1.415 . S
C1239 H1215 0.951 . S
C1239 C1240 1.366 1_556 S
C1239 C1241 1.388 . S
C1240 C1239 1.366 1_554 S
C1240 C1244 1.385 . S
C1241 H1216 0.951 . S
C1241 C1239 1.388 . S
C1241 C1242 1.366 . S
C1242 C1241 1.366 . S
C1242 C1243 1.414 1_556 S
C1242 C1245 1.499 . S
C1243 H1217 0.950 . S
C1243 C1242 1.414 1_554 S
C1243 C1244 1.374 . S
C1244 H1218 0.950 . S
C1244 C1240 1.385 . S
C1244 C1243 1.374 . S
C1245 C1242 1.499 . S
C1245 C1246 1.373 . S
C1245 C1247 1.389 . S
C1246 H1219 0.950 . S
C1246 C1232 1.377 . S
C1246 C1245 1.373 . S
C1247 C1231 1.377 . S
C1247 C1245 1.389 . S
C1247 C1248 1.524 . S
C1248 C1247 1.524 . S
C1248 C1249 1.397 . S
C1248 C1253 1.363 . S
C1249 H1220 0.950 . S
C1249 C1248 1.397 . S
C1249 C1250 1.334 . S
C1250 H1221 0.950 . S
C1250 C1249 1.334 . S
C1250 C1251 1.287 . S
C1251 C1250 1.287 . S
C1251 C1252 1.524 . S
C1251 H1254 0.999 . S
C1252 H1222 0.950 . S
C1252 C1251 1.524 . S
C1252 C1253 1.415 . S
C1253 H1223 0.950 . S
C1253 C1248 1.363 . S
C1253 C1252 1.415 . S
H1254 C1251 0.999 . S
H1255 C1236 0.913 . S
H1256 C1274 0.951 . S
H1257 C1276 0.951 . S
H1258 C1278 0.950 . S
H1259 C1279 0.950 . S
H1260 C1281 0.950 . S
H1261 C1284 0.950 . S
H1262 C1285 0.950 . S
H1263 C1287 0.950 . S
H1264 C1288 0.950 . S
H1265 C1289 0.951 . S
H1266 C1291 0.951 . S
H1267 C1293 0.950 . S
H1268 C1294 0.950 . S
H1269 C1296 0.950 . S
H1270 C1299 0.950 . S
H1271 C1300 0.950 . S
H1272 C1302 0.950 . S
H1273 C1303 0.950 . S
C1274 H1256 0.951 . S
C1274 C1275 1.366 . S
C1274 C1276 1.388 . S
C1275 C1274 1.366 . S
C1275 C1279 1.385 . S
C1276 H1257 0.951 . S
C1276 C1274 1.388 . S
C1276 C1277 1.366 . S
C1277 C1276 1.366 . S
C1277 C1278 1.414 . S
C1277 C1280 1.499 . S
C1278 H1258 0.950 . S
C1278 C1277 1.414 . S
C1278 C1279 1.374 . S
C1279 H1259 0.950 . S
C1279 C1275 1.385 . S
C1279 C1278 1.374 . S
C1280 C1277 1.499 . S
C1280 C1281 1.373 . S
C1280 C1282 1.389 . S
C1281 H1260 0.950 . S
C1281 C1280 1.373 . S
C1281 C1297 1.377 . S
C1282 C1280 1.389 . S
C1282 C1283 1.524 . S
C1282 C1296 1.377 . S
C1283 C1282 1.524 . S
C1283 C1284 1.397 . S
C1283 C1288 1.363 . S
C1284 H1261 0.950 . S
C1284 C1283 1.397 . S
C1284 C1285 1.334 . S
C1285 H1262 0.950 . S
C1285 C1284 1.334 . S
C1285 C1286 1.287 . S
C1286 C1285 1.287 . S
C1286 C1287 1.524 . S
C1286 H1305 0.913 . S
C1287 H1263 0.950 . S
C1287 C1286 1.524 . S
C1287 C1288 1.415 . S
C1288 H1264 0.950 . S
C1288 C1283 1.363 . S
C1288 C1287 1.415 . S
C1289 H1265 0.951 . S
C1289 C1290 1.366 . S
C1289 C1291 1.388 . S
C1290 C1289 1.366 . S
C1290 C1294 1.385 . S
C1291 H1266 0.951 . S
C1291 C1289 1.388 . S
C1291 C1292 1.366 . S
C1292 C1291 1.366 . S
C1292 C1293 1.414 . S
C1292 C1295 1.499 . S
C1293 H1267 0.950 . S
C1293 C1292 1.414 . S
C1293 C1294 1.374 . S
C1294 H1268 0.950 . S
C1294 C1290 1.385 . S
C1294 C1293 1.374 . S
C1295 C1292 1.499 . S
C1295 C1296 1.373 . S
C1295 C1297 1.389 . S
C1296 H1269 0.950 . S
C1296 C1282 1.377 . S
C1296 C1295 1.373 . S
C1297 C1281 1.377 . S
C1297 C1295 1.389 . S
C1297 C1298 1.524 . S
C1298 C1297 1.524 . S
C1298 C1299 1.397 . S
C1298 C1303 1.363 . S
C1299 H1270 0.950 . S
C1299 C1298 1.397 . S
C1299 C1300 1.334 . S
C1300 H1271 0.950 . S
C1300 C1299 1.334 . S
C1300 C1301 1.287 . S
C1301 C1300 1.287 . S
C1301 C1302 1.524 . S
C1301 H1304 0.999 . S
C1302 H1272 0.950 . S
C1302 C1301 1.524 . S
C1302 C1303 1.415 . S
C1303 H1273 0.950 . S
C1303 C1298 1.363 . S
C1303 C1302 1.415 . S
H1304 C1301 0.999 . S
H1305 C1286 0.913 . S
H1306 C1324 0.951 . S
H1307 C1326 0.951 . S
H1308 C1328 0.950 . S
H1309 C1329 0.950 . S
H1310 C1331 0.950 . S
H1311 C1334 0.950 . S
H1312 C1335 0.950 . S
H1313 C1337 0.950 . S
H1314 C1338 0.950 . S
H1315 C1339 0.951 . S
H1316 C1341 0.951 . S
H1317 C1343 0.950 . S
H1318 C1344 0.950 . S
H1319 C1346 0.950 . S
H1320 C1349 0.950 . S
H1321 C1350 0.950 . S
H1322 C1352 0.950 . S
H1323 C1353 0.950 . S
C1324 H1306 0.951 . S
C1324 C1325 1.366 . S
C1324 C1326 1.388 . S
C1325 C1324 1.366 . S
C1325 C1329 1.385 . S
C1326 H1307 0.951 . S
C1326 C1324 1.388 . S
C1326 C1327 1.366 . S
C1327 C1326 1.366 . S
C1327 C1328 1.414 . S
C1327 C1330 1.499 . S
C1328 H1308 0.950 . S
C1328 C1327 1.414 . S
C1328 C1329 1.374 . S
C1329 H1309 0.950 . S
C1329 C1325 1.385 . S
C1329 C1328 1.374 . S
C1330 C1327 1.499 . S
C1330 C1331 1.373 . S
C1330 C1332 1.389 . S
C1331 H1310 0.950 . S
C1331 C1330 1.373 . S
C1331 C1347 1.377 . S
C1332 C1330 1.389 . S
C1332 C1333 1.524 . S
C1332 C1346 1.377 . S
C1333 C1332 1.524 . S
C1333 C1334 1.397 . S
C1333 C1338 1.363 . S
C1334 H1311 0.950 . S
C1334 C1333 1.397 . S
C1334 C1335 1.334 . S
C1335 H1312 0.950 . S
C1335 C1334 1.334 . S
C1335 C1336 1.287 . S
C1336 C1335 1.287 . S
C1336 C1337 1.524 . S
C1336 H1355 0.913 . S
C1337 H1313 0.950 . S
C1337 C1336 1.524 . S
C1337 C1338 1.415 . S
C1338 H1314 0.950 . S
C1338 C1333 1.363 . S
C1338 C1337 1.415 . S
C1339 H1315 0.951 . S
C1339 C1340 1.366 . S
C1339 C1341 1.388 . S
C1340 C1339 1.366 . S
C1340 C1344 1.385 . S
C1341 H1316 0.951 . S
C1341 C1339 1.388 . S
C1341 C1342 1.366 . S
C1342 C1341 1.366 . S
C1342 C1343 1.414 . S
C1342 C1345 1.499 . S
C1343 H1317 0.950 . S
C1343 C1342 1.414 . S
C1343 C1344 1.374 . S
C1344 H1318 0.950 . S
C1344 C1340 1.385 . S
C1344 C1343 1.374 . S
C1345 C1342 1.499 . S
C1345 C1346 1.373 . S
C1345 C1347 1.389 . S
C1346 H1319 0.950 . S
C1346 C1332 1.377 . S
C1346 C1345 1.373 . S
C1347 C1331 1.377 . S
C1347 C1345 1.389 . S
C1347 C1348 1.524 . S
C1348 C1347 1.524 . S
C1348 C1349 1.397 . S
C1348 C1353 1.363 . S
C1349 H1320 0.950 . S
C1349 C1348 1.397 . S
C1349 C1350 1.334 . S
C1350 H1321 0.950 . S
C1350 C1349 1.334 . S
C1350 C1351 1.287 . S
C1351 C1350 1.287 . S
C1351 C1352 1.524 . S
C1351 H1354 0.999 . S
C1352 H1322 0.950 . S
C1352 C1351 1.524 . S
C1352 C1353 1.415 . S
C1353 H1323 0.950 . S
C1353 C1348 1.363 . S
C1353 C1352 1.415 . S
H1354 C1351 0.999 . S
H1355 C1336 0.913 . S
H1356 C1374 0.951 . S
H1357 C1376 0.951 . S
H1358 C1378 0.950 . S
H1359 C1379 0.950 . S
H1360 C1381 0.950 . S
H1361 C1384 0.950 . S
H1362 C1385 0.950 . S
H1363 C1387 0.950 . S
H1364 C1388 0.950 . S
H1365 C1389 0.951 . S
H1366 C1391 0.951 . S
H1367 C1393 0.950 . S
H1368 C1394 0.950 . S
H1369 C1396 0.950 . S
H1370 C1399 0.950 . S
H1371 C1400 0.950 . S
H1372 C1402 0.950 . S
H1373 C1403 0.950 . S
C1374 H1356 0.951 . S
C1374 C1375 1.366 . S
C1374 C1376 1.388 . S
C1375 C1374 1.366 . S
C1375 C1379 1.385 . S
C1376 H1357 0.951 . S
C1376 C1374 1.388 . S
C1376 C1377 1.366 . S
C1377 C1376 1.366 . S
C1377 C1378 1.414 . S
C1377 C1380 1.499 . S
C1378 H1358 0.950 . S
C1378 C1377 1.414 . S
C1378 C1379 1.374 . S
C1379 H1359 0.950 . S
C1379 C1375 1.385 . S
C1379 C1378 1.374 . S
C1380 C1377 1.499 . S
C1380 C1381 1.373 . S
C1380 C1382 1.389 . S
C1381 H1360 0.950 . S
C1381 C1380 1.373 . S
C1381 C1397 1.377 . S
C1382 C1380 1.389 . S
C1382 C1383 1.524 . S
C1382 C1396 1.377 . S
C1383 C1382 1.524 . S
C1383 C1384 1.397 . S
C1383 C1388 1.363 . S
C1384 H1361 0.950 . S
C1384 C1383 1.397 . S
C1384 C1385 1.334 . S
C1385 H1362 0.950 . S
C1385 C1384 1.334 . S
C1385 C1386 1.287 . S
C1386 C1385 1.287 . S
C1386 C1387 1.524 . S
C1386 H1405 0.913 . S
C1387 H1363 0.950 . S
C1387 C1386 1.524 . S
C1387 C1388 1.415 . S
C1388 H1364 0.950 . S
C1388 C1383 1.363 . S
C1388 C1387 1.415 . S
C1389 H1365 0.951 . S
C1389 C1390 1.366 . S
C1389 C1391 1.388 . S
C1390 C1389 1.366 . S
C1390 C1394 1.385 . S
C1391 H1366 0.951 . S
C1391 C1389 1.388 . S
C1391 C1392 1.366 . S
C1392 C1391 1.366 . S
C1392 C1393 1.414 . S
C1392 C1395 1.499 . S
C1393 H1367 0.950 . S
C1393 C1392 1.414 . S
C1393 C1394 1.374 . S
C1394 H1368 0.950 . S
C1394 C1390 1.385 . S
C1394 C1393 1.374 . S
C1395 C1392 1.499 . S
C1395 C1396 1.373 . S
C1395 C1397 1.389 . S
C1396 H1369 0.950 . S
C1396 C1382 1.377 . S
C1396 C1395 1.373 . S
C1397 C1381 1.377 . S
C1397 C1395 1.389 . S
C1397 C1398 1.524 . S
C1398 C1397 1.524 . S
C1398 C1399 1.397 . S
C1398 C1403 1.363 . S
C1399 H1370 0.950 . S
C1399 C1398 1.397 . S
C1399 C1400 1.334 . S
C1400 H1371 0.950 . S
C1400 C1399 1.334 . S
C1400 C1401 1.287 . S
C1401 C1400 1.287 . S
C1401 C1402 1.524 . S
C1401 H1404 0.999 . S
C1402 H1372 0.950 . S
C1402 C1401 1.524 . S
C1402 C1403 1.415 . S
C1403 H1373 0.950 . S
C1403 C1398 1.363 . S
C1403 C1402 1.415 . S
H1404 C1401 0.999 . S
H1405 C1386 0.913 . S
H1406 C1424 0.951 . S
H1407 C1426 0.951 . S
H1408 C1428 0.950 . S
H1409 C1429 0.950 . S
H1410 C1431 0.950 . S
H1411 C1434 0.950 . S
H1412 C1435 0.950 . S
H1413 C1437 0.950 . S
H1414 C1438 0.950 . S
H1415 C1439 0.951 . S
H1416 C1441 0.951 . S
H1417 C1443 0.950 . S
H1418 C1444 0.950 . S
H1419 C1446 0.950 . S
H1420 C1449 0.950 . S
H1421 C1450 0.950 . S
H1422 C1452 0.950 . S
H1423 C1453 0.950 . S
C1424 H1406 0.951 . S
C1424 C1425 1.366 . S
C1424 C1426 1.388 . S
C1425 C1424 1.366 . S
C1425 C1429 1.385 . S
C1426 H1407 0.951 . S
C1426 C1424 1.388 . S
C1426 C1427 1.366 . S
C1427 C1426 1.366 . S
C1427 C1428 1.414 . S
C1427 C1430 1.499 . S
C1428 H1408 0.950 . S
C1428 C1427 1.414 . S
C1428 C1429 1.374 . S
C1429 H1409 0.950 . S
C1429 C1425 1.385 . S
C1429 C1428 1.374 . S
C1430 C1427 1.499 . S
C1430 C1431 1.373 . S
C1430 C1432 1.389 . S
C1431 H1410 0.950 . S
C1431 C1430 1.373 . S
C1431 C1447 1.377 . S
C1432 C1430 1.389 . S
C1432 C1433 1.524 . S
C1432 C1446 1.377 . S
C1433 C1432 1.524 . S
C1433 C1434 1.397 . S
C1433 C1438 1.363 . S
C1434 H1411 0.950 . S
C1434 C1433 1.397 . S
C1434 C1435 1.334 . S
C1435 H1412 0.950 . S
C1435 C1434 1.334 . S
C1435 C1436 1.287 . S
C1436 C1435 1.287 . S
C1436 C1437 1.524 . S
C1436 H1455 0.913 . S
C1437 H1413 0.950 . S
C1437 C1436 1.524 . S
C1437 C1438 1.415 . S
C1438 H1414 0.950 . S
C1438 C1433 1.363 . S
C1438 C1437 1.415 . S
C1439 H1415 0.951 . S
C1439 C1440 1.366 . S
C1439 C1441 1.388 . S
C1440 C1439 1.366 . S
C1440 C1444 1.385 . S
C1441 H1416 0.951 . S
C1441 C1439 1.388 . S
C1441 C1442 1.366 . S
C1442 C1441 1.366 . S
C1442 C1443 1.414 . S
C1442 C1445 1.499 . S
C1443 H1417 0.950 . S
C1443 C1442 1.414 . S
C1443 C1444 1.374 . S
C1444 H1418 0.950 . S
C1444 C1440 1.385 . S
C1444 C1443 1.374 . S
C1445 C1442 1.499 . S
C1445 C1446 1.373 . S
C1445 C1447 1.389 . S
C1446 H1419 0.950 . S
C1446 C1432 1.377 . S
C1446 C1445 1.373 . S
C1447 C1431 1.377 . S
C1447 C1445 1.389 . S
C1447 C1448 1.524 . S
C1448 C1447 1.524 . S
C1448 C1449 1.397 . S
C1448 C1453 1.363 . S
C1449 H1420 0.950 . S
C1449 C1448 1.397 . S
C1449 C1450 1.334 . S
C1450 H1421 0.950 . S
C1450 C1449 1.334 . S
C1450 C1451 1.287 . S
C1451 C1450 1.287 . S
C1451 C1452 1.524 . S
C1451 H1454 0.999 . S
C1452 H1422 0.950 . S
C1452 C1451 1.524 . S
C1452 C1453 1.415 . S
C1453 H1423 0.950 . S
C1453 C1448 1.363 . S
C1453 C1452 1.415 . S
H1454 C1451 0.999 . S
H1455 C1436 0.913 . S
H1456 C1474 0.951 . S
H1457 C1476 0.951 . S
H1458 C1478 0.950 . S
H1459 C1479 0.950 . S
H1460 C1481 0.950 . S
H1461 C1484 0.950 . S
H1462 C1485 0.950 . S
H1463 C1487 0.950 . S
H1464 C1488 0.950 . S
H1465 C1489 0.951 . S
H1466 C1491 0.951 . S
H1467 C1493 0.950 . S
H1468 C1494 0.950 . S
H1469 C1496 0.950 . S
H1470 C1499 0.950 . S
H1471 C1500 0.950 . S
H1472 C1502 0.950 . S
H1473 C1503 0.950 . S
C1474 H1456 0.951 . S
C1474 C1475 1.366 . S
C1474 C1476 1.388 . S
C1475 C1474 1.366 . S
C1475 C1479 1.385 . S
C1476 H1457 0.951 . S
C1476 C1474 1.388 . S
C1476 C1477 1.366 . S
C1477 C1476 1.366 . S
C1477 C1478 1.414 . S
C1477 C1480 1.499 . S
C1478 H1458 0.950 . S
C1478 C1477 1.414 . S
C1478 C1479 1.374 . S
C1479 H1459 0.950 . S
C1479 C1475 1.385 . S
C1479 C1478 1.374 . S
C1480 C1477 1.499 . S
C1480 C1481 1.373 . S
C1480 C1482 1.389 . S
C1481 H1460 0.950 . S
C1481 C1480 1.373 . S
C1481 C1497 1.377 . S
C1482 C1480 1.389 . S
C1482 C1483 1.524 . S
C1482 C1496 1.377 . S
C1483 C1482 1.524 . S
C1483 C1484 1.397 . S
C1483 C1488 1.363 . S
C1484 H1461 0.950 . S
C1484 C1483 1.397 . S
C1484 C1485 1.334 . S
C1485 H1462 0.950 . S
C1485 C1484 1.334 . S
C1485 C1486 1.287 . S
C1486 C1485 1.287 . S
C1486 C1487 1.524 . S
C1486 H1505 0.913 . S
C1487 H1463 0.950 . S
C1487 C1486 1.524 . S
C1487 C1488 1.415 . S
C1488 H1464 0.950 . S
C1488 C1483 1.363 . S
C1488 C1487 1.415 . S
C1489 H1465 0.951 . S
C1489 C1490 1.366 . S
C1489 C1491 1.388 . S
C1490 C1489 1.366 . S
C1490 C1494 1.385 . S
C1491 H1466 0.951 . S
C1491 C1489 1.388 . S
C1491 C1492 1.366 . S
C1492 C1491 1.366 . S
C1492 C1493 1.414 . S
C1492 C1495 1.499 . S
C1493 H1467 0.950 . S
C1493 C1492 1.414 . S
C1493 C1494 1.374 . S
C1494 H1468 0.950 . S
C1494 C1490 1.385 . S
C1494 C1493 1.374 . S
C1495 C1492 1.499 . S
C1495 C1496 1.373 . S
C1495 C1497 1.389 . S
C1496 H1469 0.950 . S
C1496 C1482 1.377 . S
C1496 C1495 1.373 . S
C1497 C1481 1.377 . S
C1497 C1495 1.389 . S
C1497 C1498 1.524 . S
C1498 C1497 1.524 . S
C1498 C1499 1.397 . S
C1498 C1503 1.363 . S
C1499 H1470 0.950 . S
C1499 C1498 1.397 . S
C1499 C1500 1.334 . S
C1500 H1471 0.950 . S
C1500 C1499 1.334 . S
C1500 C1501 1.287 . S
C1501 C1500 1.287 . S
C1501 C1502 1.524 . S
C1501 H1504 0.999 . S
C1502 H1472 0.950 . S
C1502 C1501 1.524 . S
C1502 C1503 1.415 . S
C1503 H1473 0.950 . S
C1503 C1498 1.363 . S
C1503 C1502 1.415 . S
H1504 C1501 0.999 . S
H1505 C1486 0.913 . S
H1506 C1524 0.951 . S
H1507 C1526 0.951 . S
H1508 C1528 0.950 . S
H1509 C1529 0.950 . S
H1510 C1531 0.950 . S
H1511 C1534 0.950 . S
H1512 C1535 0.950 . S
H1513 C1537 0.950 . S
H1514 C1538 0.950 . S
H1515 C1539 0.951 . S
H1516 C1541 0.951 . S
H1517 C1543 0.950 . S
H1518 C1544 0.950 . S
H1519 C1546 0.950 . S
H1520 C1549 0.950 . S
H1521 C1550 0.950 . S
H1522 C1552 0.950 . S
H1523 C1553 0.950 . S
C1524 H1506 0.951 . S
C1524 C1525 1.366 . S
C1524 C1526 1.388 . S
C1525 C1524 1.366 . S
C1525 C1529 1.385 . S
C1526 H1507 0.951 . S
C1526 C1524 1.388 . S
C1526 C1527 1.366 . S
C1527 C1526 1.366 . S
C1527 C1528 1.414 . S
C1527 C1530 1.499 . S
C1528 H1508 0.950 . S
C1528 C1527 1.414 . S
C1528 C1529 1.374 . S
C1529 H1509 0.950 . S
C1529 C1525 1.385 . S
C1529 C1528 1.374 . S
C1530 C1527 1.499 . S
C1530 C1531 1.373 . S
C1530 C1532 1.389 . S
C1531 H1510 0.950 . S
C1531 C1530 1.373 . S
C1531 C1547 1.377 . S
C1532 C1530 1.389 . S
C1532 C1533 1.524 . S
C1532 C1546 1.377 . S
C1533 C1532 1.524 . S
C1533 C1534 1.397 . S
C1533 C1538 1.363 . S
C1534 H1511 0.950 . S
C1534 C1533 1.397 . S
C1534 C1535 1.334 . S
C1535 H1512 0.950 . S
C1535 C1534 1.334 . S
C1535 C1536 1.287 . S
C1536 C1535 1.287 . S
C1536 C1537 1.524 . S
C1536 H1555 0.913 . S
C1537 H1513 0.950 . S
C1537 C1536 1.524 . S
C1537 C1538 1.415 . S
C1538 H1514 0.950 . S
C1538 C1533 1.363 . S
C1538 C1537 1.415 . S
C1539 H1515 0.951 . S
C1539 C1540 1.366 . S
C1539 C1541 1.388 . S
C1540 C1539 1.366 . S
C1540 C1544 1.385 . S
C1541 H1516 0.951 . S
C1541 C1539 1.388 . S
C1541 C1542 1.366 . S
C1542 C1541 1.366 . S
C1542 C1543 1.414 . S
C1542 C1545 1.499 . S
C1543 H1517 0.950 . S
C1543 C1542 1.414 . S
C1543 C1544 1.374 . S
C1544 H1518 0.950 . S
C1544 C1540 1.385 . S
C1544 C1543 1.374 . S
C1545 C1542 1.499 . S
C1545 C1546 1.373 . S
C1545 C1547 1.389 . S
C1546 H1519 0.950 . S
C1546 C1532 1.377 . S
C1546 C1545 1.373 . S
C1547 C1531 1.377 . S
C1547 C1545 1.389 . S
C1547 C1548 1.524 . S
C1548 C1547 1.524 . S
C1548 C1549 1.397 . S
C1548 C1553 1.363 . S
C1549 H1520 0.950 . S
C1549 C1548 1.397 . S
C1549 C1550 1.334 . S
C1550 H1521 0.950 . S
C1550 C1549 1.334 . S
C1550 C1551 1.287 . S
C1551 C1550 1.287 . S
C1551 C1552 1.524 . S
C1551 H1554 0.999 . S
C1552 H1522 0.950 . S
C1552 C1551 1.524 . S
C1552 C1553 1.415 . S
C1553 H1523 0.950 . S
C1553 C1548 1.363 . S
C1553 C1552 1.415 . S
H1554 C1551 0.999 . S
H1555 C1536 0.913 . S
H1556 C1574 0.951 . S
H1557 C1576 0.951 . S
H1558 C1578 0.950 . S
H1559 C1579 0.950 . S
H1560 C1581 0.950 . S
H1561 C1584 0.950 . S
H1562 C1585 0.950 . S
H1563 C1587 0.950 . S
H1564 C1588 0.950 . S
H1565 C1589 0.951 . S
H1566 C1591 0.951 . S
H1567 C1593 0.950 . S
H1568 C1594 0.950 . S
H1569 C1596 0.950 . S
H1570 C1599 0.950 . S
H1571 C1600 0.950 . S
H1572 C1602 0.950 . S
H1573 C1603 0.950 . S
C1574 H1556 0.951 . S
C1574 C1575 1.366 . S
C1574 C1576 1.388 . S
C1575 C1574 1.366 . S
C1575 C1579 1.385 . S
C1576 H1557 0.951 . S
C1576 C1574 1.388 . S
C1576 C1577 1.366 . S
C1577 C1576 1.366 . S
C1577 C1578 1.414 . S
C1577 C1580 1.499 . S
C1578 H1558 0.950 . S
C1578 C1577 1.414 . S
C1578 C1579 1.374 . S
C1579 H1559 0.950 . S
C1579 C1575 1.385 . S
C1579 C1578 1.374 . S
C1580 C1577 1.499 . S
C1580 C1581 1.373 . S
C1580 C1582 1.389 1_554 S
C1581 H1560 0.950 . S
C1581 C1580 1.373 . S
C1581 C1597 1.344 1_554 S
C1582 C1580 1.389 1_556 S
C1582 C1583 1.524 . S
C1582 C1596 1.377 . S
C1583 C1582 1.524 . S
C1583 C1584 1.397 1_556 S
C1583 C1588 1.363 . S
C1584 H1561 0.950 . S
C1584 C1583 1.397 1_554 S
C1584 C1585 1.334 . S
C1585 H1562 0.950 . S
C1585 C1584 1.334 . S
C1585 C1586 1.287 1_554 S
C1586 C1585 1.287 1_556 S
C1586 C1587 1.524 . S
C1586 H1605 0.913 . S
C1587 H1563 0.950 . S
C1587 C1586 1.524 . S
C1587 C1588 1.415 . S
C1588 H1564 0.950 . S
C1588 C1583 1.363 . S
C1588 C1587 1.415 . S
C1589 H1565 0.951 . S
C1589 C1590 1.366 . S
C1589 C1591 1.388 . S
C1590 C1589 1.366 . S
C1590 C1594 1.385 . S
C1591 H1566 0.951 . S
C1591 C1589 1.388 . S
C1591 C1592 1.366 . S
C1592 C1591 1.366 . S
C1592 C1593 1.414 . S
C1592 C1595 1.499 . S
C1593 H1567 0.950 . S
C1593 C1592 1.414 . S
C1593 C1594 1.374 . S
C1594 H1568 0.950 . S
C1594 C1590 1.385 . S
C1594 C1593 1.374 . S
C1595 C1592 1.499 . S
C1595 C1596 1.373 . S
C1595 C1597 1.430 . S
C1596 H1569 0.950 . S
C1596 C1582 1.377 . S
C1596 C1595 1.373 . S
C1597 C1581 1.344 1_556 S
C1597 C1595 1.430 . S
C1597 C1598 1.516 1_556 S
C1598 C1597 1.516 1_554 S
C1598 C1599 1.397 1_554 S
C1598 C1603 1.363 . S
C1599 H1570 0.950 . S
C1599 C1598 1.397 1_556 S
C1599 C1600 1.334 . S
C1600 H1571 0.950 . S
C1600 C1599 1.334 . S
C1600 C1601 1.287 1_556 S
C1601 C1600 1.287 1_554 S
C1601 C1602 1.524 . S
C1601 H1604 0.999 . S
C1602 H1572 0.950 . S
C1602 C1601 1.524 . S
C1602 C1603 1.415 . S
C1603 H1573 0.950 . S
C1603 C1598 1.363 . S
C1603 C1602 1.415 . S
H1604 C1601 0.999 . S
H1605 C1586 0.913 . S
H1606 C1624 0.951 . S
H1607 C1626 0.951 . S
H1608 C1628 0.950 . S
H1609 C1629 0.950 . S
H1610 C1631 0.950 . S
H1611 C1634 0.950 . S
H1612 C1635 0.950 . S
H1613 C1637 0.950 . S
H1614 C1638 0.950 . S
H1615 C1639 0.951 . S
H1616 C1641 0.951 . S
H1617 C1643 0.950 . S
H1618 C1644 0.950 . S
H1619 C1646 0.950 . S
H1620 C1649 0.950 . S
H1621 C1650 0.950 . S
H1622 C1652 0.950 . S
H1623 C1653 0.950 . S
C1624 H1606 0.951 . S
C1624 C1625 1.366 . S
C1624 C1626 1.388 . S
C1625 C1624 1.366 . S
C1625 C1629 1.385 . S
C1626 H1607 0.951 . S
C1626 C1624 1.388 . S
C1626 C1627 1.366 . S
C1627 C1626 1.366 . S
C1627 C1628 1.414 . S
C1627 C1630 1.499 . S
C1628 H1608 0.950 . S
C1628 C1627 1.414 . S
C1628 C1629 1.374 . S
C1629 H1609 0.950 . S
C1629 C1625 1.385 . S
C1629 C1628 1.374 . S
C1630 C1627 1.499 . S
C1630 C1631 1.373 . S
C1630 C1632 1.389 . S
C1631 H1610 0.950 . S
C1631 C1630 1.373 . S
C1631 C1647 1.377 . S
C1632 C1630 1.389 . S
C1632 C1633 1.524 . S
C1632 C1646 1.377 . S
C1633 C1632 1.524 . S
C1633 C1634 1.397 . S
C1633 C1638 1.363 . S
C1634 H1611 0.950 . S
C1634 C1633 1.397 . S
C1634 C1635 1.334 . S
C1635 H1612 0.950 . S
C1635 C1634 1.334 . S
C1635 C1636 1.287 . S
C1636 C1635 1.287 . S
C1636 C1637 1.524 . S
C1636 H1655 0.913 . S
C1637 H1613 0.950 . S
C1637 C1636 1.524 . S
C1637 C1638 1.415 . S
C1638 H1614 0.950 . S
C1638 C1633 1.363 . S
C1638 C1637 1.415 . S
C1639 H1615 0.951 . S
C1639 C1640 1.366 . S
C1639 C1641 1.388 . S
C1640 C1639 1.366 . S
C1640 C1644 1.385 . S
C1641 H1616 0.951 . S
C1641 C1639 1.388 . S
C1641 C1642 1.366 . S
C1642 C1641 1.366 . S
C1642 C1643 1.414 . S
C1642 C1645 1.499 . S
C1643 H1617 0.950 . S
C1643 C1642 1.414 . S
C1643 C1644 1.374 . S
C1644 H1618 0.950 . S
C1644 C1640 1.385 . S
C1644 C1643 1.374 . S
C1645 C1642 1.499 . S
C1645 C1646 1.373 . S
C1645 C1647 1.389 . S
C1646 H1619 0.950 . S
C1646 C1632 1.377 . S
C1646 C1645 1.373 . S
C1647 C1631 1.377 . S
C1647 C1645 1.389 . S
C1647 C1648 1.524 . S
C1648 C1647 1.524 . S
C1648 C1649 1.397 . S
C1648 C1653 1.363 . S
C1649 H1620 0.950 . S
C1649 C1648 1.397 . S
C1649 C1650 1.334 . S
C1650 H1621 0.950 . S
C1650 C1649 1.334 . S
C1650 C1651 1.287 . S
C1651 C1650 1.287 . S
C1651 C1652 1.524 . S
C1651 H1654 0.999 . S
C1652 H1622 0.950 . S
C1652 C1651 1.524 . S
C1652 C1653 1.415 . S
C1653 H1623 0.950 . S
C1653 C1648 1.363 . S
C1653 C1652 1.415 . S
H1654 C1651 0.999 . S
H1655 C1636 0.913 . S
C490 C447 1.313 . S
C475 C29 1.471 . S
C525 C115 1.472 . S
C540 C377 1.260 . S
C575 C153 1.448 . S
C590 C397 1.540 . S
C625 C239 1.339 . S
C640 C411 1.352 . S
C690 C419 1.235 . S
C675 C301 1.449 . S
C725 C339 1.725 . S
C740 C433 1.543 . S
C775 C91 1.502 . S
C790 C391 1.351 . S
C825 C177 1.397 . S
C840 C405 1.195 . S
C875 C215 1.366 . S
C890 C425 1.447 . S
C940 C439 1.801 . S
C925 C277 1.688 . S
C990 C453 1.447 . S
C975 C363 1.424 . S
C1040 C383 1.408 . S
C1025 C53 1.392 . S
C1075 C35 1.486 . S
C1090 C390 1.488 . S
C1125 C109 1.365 . S
C1140 C404 1.437 . S
C1190 C426 1.393 . S
C1175 C159 1.368 . S
C1225 C233 1.571 . S
C1240 C440 1.704 . S
C1290 C454 1.472 . S
C1275 C295 1.338 . S
C1340 C384 1.257 . S
C1325 C345 1.233 . S
C1390 C446 1.360 . S
C1375 C97 1.366 . S
C1425 C171 1.334 . S
C1440 C376 1.410 . S
C1490 C398 1.508 . S
C1475 C221 1.473 . S
C1525 C283 1.298 . S
C1540 C412 1.320 . S
C1575 C357 1.415 . S
C1590 C418 1.505 . S
C1625 C47 1.602 . S
C1640 C432 1.685 . S
