# Generated by pormake.
# Topology eea, (3,6)-cn, num edge types: 1
# Building blocks:
#     Node 0, Type 0, BuildingBlock: CUQRIR_clean_linker_1, # of connection points: 3
#     Node 1, Type 0, BuildingBlock: CUQRIR_clean_linker_1, # of connection points: 3
#     Node 2, Type 0, BuildingBlock: CUQRIR_clean_linker_1, # of connection points: 3
#     Node 3, Type 0, BuildingBlock: CUQRIR_clean_linker_1, # of connection points: 3
#     Node 4, Type 0, BuildingBlock: CUQRIR_clean_linker_1, # of connection points: 3
#     Node 5, Type 0, BuildingBlock: CUQRIR_clean_linker_1, # of connection points: 3
#     Node 6, Type 0, BuildingBlock: CUQRIR_clean_linker_1, # of connection points: 3
#     Node 7, Type 0, BuildingBlock: CUQRIR_clean_linker_1, # of connection points: 3
#     Node 8, Type 0, BuildingBlock: CUQRIR_clean_linker_1, # of connection points: 3
#     Node 9, Type 0, BuildingBlock: CUQRIR_clean_linker_1, # of connection points: 3
#     Node 10, Type 0, BuildingBlock: CUQRIR_clean_linker_1, # of connection points: 3
#     Node 11, Type 0, BuildingBlock: CUQRIR_clean_linker_1, # of connection points: 3
#     Node 12, Type 0, BuildingBlock: CUQRIR_clean_linker_1, # of connection points: 3
#     Node 13, Type 0, BuildingBlock: CUQRIR_clean_linker_1, # of connection points: 3
#     Node 14, Type 0, BuildingBlock: CUQRIR_clean_linker_1, # of connection points: 3
#     Node 15, Type 0, BuildingBlock: CUQRIR_clean_linker_1, # of connection points: 3
#     Node 16, Type 0, BuildingBlock: CUQRIR_clean_linker_1, # of connection points: 3
#     Node 17, Type 0, BuildingBlock: CUQRIR_clean_linker_1, # of connection points: 3
#     Node 18, Type 1, BuildingBlock: KUMBOL_clean_sbu_0, # of connection points: 6
#     Node 19, Type 1, BuildingBlock: KUMBOL_clean_sbu_0, # of connection points: 6
#     Node 20, Type 1, BuildingBlock: KUMBOL_clean_sbu_0, # of connection points: 6
#     Node 21, Type 1, BuildingBlock: KUMBOL_clean_sbu_0, # of connection points: 6
#     Node 22, Type 1, BuildingBlock: KUMBOL_clean_sbu_0, # of connection points: 6
#     Node 23, Type 1, BuildingBlock: KUMBOL_clean_sbu_0, # of connection points: 6
#     Node 24, Type 1, BuildingBlock: KUMBOL_clean_sbu_0, # of connection points: 6
#     Node 25, Type 1, BuildingBlock: KUMBOL_clean_sbu_0, # of connection points: 6
#     Node 26, Type 1, BuildingBlock: KUMBOL_clean_sbu_0, # of connection points: 6
#     Edge 27, Type (0, 1), BuildingBlock: AJUNOK_clean_linker_0, # of connection points: 2
#     Edge 28, Type (0, 1), BuildingBlock: AJUNOK_clean_linker_0, # of connection points: 2
#     Edge 29, Type (0, 1), BuildingBlock: AJUNOK_clean_linker_0, # of connection points: 2
#     Edge 30, Type (0, 1), BuildingBlock: AJUNOK_clean_linker_0, # of connection points: 2
#     Edge 31, Type (0, 1), BuildingBlock: AJUNOK_clean_linker_0, # of connection points: 2
#     Edge 32, Type (0, 1), BuildingBlock: AJUNOK_clean_linker_0, # of connection points: 2
#     Edge 33, Type (0, 1), BuildingBlock: AJUNOK_clean_linker_0, # of connection points: 2
#     Edge 34, Type (0, 1), BuildingBlock: AJUNOK_clean_linker_0, # of connection points: 2
#     Edge 35, Type (0, 1), BuildingBlock: AJUNOK_clean_linker_0, # of connection points: 2
#     Edge 36, Type (0, 1), BuildingBlock: AJUNOK_clean_linker_0, # of connection points: 2
#     Edge 37, Type (0, 1), BuildingBlock: AJUNOK_clean_linker_0, # of connection points: 2
#     Edge 38, Type (0, 1), BuildingBlock: AJUNOK_clean_linker_0, # of connection points: 2
#     Edge 39, Type (0, 1), BuildingBlock: AJUNOK_clean_linker_0, # of connection points: 2
#     Edge 40, Type (0, 1), BuildingBlock: AJUNOK_clean_linker_0, # of connection points: 2
#     Edge 41, Type (0, 1), BuildingBlock: AJUNOK_clean_linker_0, # of connection points: 2
#     Edge 42, Type (0, 1), BuildingBlock: AJUNOK_clean_linker_0, # of connection points: 2
#     Edge 43, Type (0, 1), BuildingBlock: AJUNOK_clean_linker_0, # of connection points: 2
#     Edge 44, Type (0, 1), BuildingBlock: AJUNOK_clean_linker_0, # of connection points: 2
#     Edge 45, Type (0, 1), BuildingBlock: AJUNOK_clean_linker_0, # of connection points: 2
#     Edge 46, Type (0, 1), BuildingBlock: AJUNOK_clean_linker_0, # of connection points: 2
#     Edge 47, Type (0, 1), BuildingBlock: AJUNOK_clean_linker_0, # of connection points: 2
#     Edge 48, Type (0, 1), BuildingBlock: AJUNOK_clean_linker_0, # of connection points: 2
#     Edge 49, Type (0, 1), BuildingBlock: AJUNOK_clean_linker_0, # of connection points: 2
#     Edge 50, Type (0, 1), BuildingBlock: AJUNOK_clean_linker_0, # of connection points: 2
#     Edge 51, Type (0, 1), BuildingBlock: AJUNOK_clean_linker_0, # of connection points: 2
#     Edge 52, Type (0, 1), BuildingBlock: AJUNOK_clean_linker_0, # of connection points: 2
#     Edge 53, Type (0, 1), BuildingBlock: AJUNOK_clean_linker_0, # of connection points: 2
#     Edge 54, Type (0, 1), BuildingBlock: AJUNOK_clean_linker_0, # of connection points: 2
#     Edge 55, Type (0, 1), BuildingBlock: AJUNOK_clean_linker_0, # of connection points: 2
#     Edge 56, Type (0, 1), BuildingBlock: AJUNOK_clean_linker_0, # of connection points: 2
#     Edge 57, Type (0, 1), BuildingBlock: AJUNOK_clean_linker_0, # of connection points: 2
#     Edge 58, Type (0, 1), BuildingBlock: AJUNOK_clean_linker_0, # of connection points: 2
#     Edge 59, Type (0, 1), BuildingBlock: AJUNOK_clean_linker_0, # of connection points: 2
#     Edge 60, Type (0, 1), BuildingBlock: AJUNOK_clean_linker_0, # of connection points: 2
#     Edge 61, Type (0, 1), BuildingBlock: AJUNOK_clean_linker_0, # of connection points: 2
#     Edge 62, Type (0, 1), BuildingBlock: AJUNOK_clean_linker_0, # of connection points: 2
#     Edge 63, Type (0, 1), BuildingBlock: AJUNOK_clean_linker_0, # of connection points: 2
#     Edge 64, Type (0, 1), BuildingBlock: AJUNOK_clean_linker_0, # of connection points: 2
#     Edge 65, Type (0, 1), BuildingBlock: AJUNOK_clean_linker_0, # of connection points: 2
#     Edge 66, Type (0, 1), BuildingBlock: AJUNOK_clean_linker_0, # of connection points: 2
#     Edge 67, Type (0, 1), BuildingBlock: AJUNOK_clean_linker_0, # of connection points: 2
#     Edge 68, Type (0, 1), BuildingBlock: AJUNOK_clean_linker_0, # of connection points: 2
#     Edge 69, Type (0, 1), BuildingBlock: AJUNOK_clean_linker_0, # of connection points: 2
#     Edge 70, Type (0, 1), BuildingBlock: AJUNOK_clean_linker_0, # of connection points: 2
#     Edge 71, Type (0, 1), BuildingBlock: AJUNOK_clean_linker_0, # of connection points: 2
#     Edge 72, Type (0, 1), BuildingBlock: AJUNOK_clean_linker_0, # of connection points: 2
#     Edge 73, Type (0, 1), BuildingBlock: AJUNOK_clean_linker_0, # of connection points: 2
#     Edge 74, Type (0, 1), BuildingBlock: AJUNOK_clean_linker_0, # of connection points: 2
#     Edge 75, Type (0, 1), BuildingBlock: AJUNOK_clean_linker_0, # of connection points: 2
#     Edge 76, Type (0, 1), BuildingBlock: AJUNOK_clean_linker_0, # of connection points: 2
#     Edge 77, Type (0, 1), BuildingBlock: AJUNOK_clean_linker_0, # of connection points: 2
#     Edge 78, Type (0, 1), BuildingBlock: AJUNOK_clean_linker_0, # of connection points: 2
#     Edge 79, Type (0, 1), BuildingBlock: AJUNOK_clean_linker_0, # of connection points: 2
#     Edge 80, Type (0, 1), BuildingBlock: AJUNOK_clean_linker_0, # of connection points: 2
# Relax obj value: 0.041
# Max RMSD: 0.227
# Mean RMSD: 0.163
data_MOF--net-eea--node1-KUMBOL_clean_sbu_0--node2-CUQRIR_clean_linker_1--edge1-AJUNOK_clean_linker_0
_symmetry_space_group_name_H-M    P1
_symmetry_Int_Tables_number       1
_symmetry_cell_setting            triclinic
loop_
_symmetry_equiv_pos_as_xyz
'x, y, z'
_cell_length_a     33.36824
_cell_length_b     36.039457
_cell_length_c     48.758783
_cell_angle_alpha  83.110874
_cell_angle_beta   89.648245
_cell_angle_gamma 118.62966
loop_
_atom_site_label
_atom_site_type_symbol
_atom_site_fract_x
_atom_site_fract_y
_atom_site_fract_z
_atom_type_partial_charge
C0 C 0.21609 0.11022 0.40744 0.0
N1 N 0.22929 0.14097 0.42423 0.0
N2 N 0.21821 0.07563 0.42018 0.0
C3 C 0.203 0.11483 0.37823 0.0
C4 C 0.2325 0.0863 0.44547 0.0
N5 N 0.23936 0.12598 0.44795 0.0
C6 C 0.24094 0.05843 0.46767 0.0
H7 H 0.18369 0.13284 0.37658 0.0
H8 H 0.18221 0.08355 0.37102 0.0
H9 H 0.23461 0.133 0.36421 0.0
H10 H 0.2317 0.02669 0.46183 0.0
H11 H 0.22013 0.05314 0.48698 0.0
H12 H 0.27751 0.07484 0.47224 0.0
C13 C 0.92779 0.11987 0.40756 0.0
N14 N 0.94606 0.15293 0.42278 0.0
N15 N 0.8872 0.08771 0.41969 0.0
C16 C 0.94794 0.11953 0.38003 0.0
C17 C 0.88124 0.10237 0.44288 0.0
N18 N 0.91669 0.14174 0.4449 0.0
C19 C 0.83989 0.07872 0.4633 0.0
H20 H 0.93468 0.13369 0.3635 0.0
H21 H 0.93765 0.08637 0.37654 0.0
H22 H 0.9857 0.13832 0.37841 0.0
H23 H 0.84908 0.06396 0.48176 0.0
H24 H 0.81059 0.05333 0.45433 0.0
H25 H 0.82884 0.10067 0.47041 0.0
C26 C 0.88878 0.77771 0.3866 0.0
N27 N 0.91135 0.76481 0.405 0.0
N28 N 0.8473 0.76816 0.39792 0.0
C29 C 0.90797 0.80074 0.35799 0.0
C30 C 0.84572 0.74968 0.42402 0.0
N31 N 0.88483 0.74799 0.42848 0.0
C32 C 0.80726 0.73612 0.44583 0.0
H33 H 0.8831 0.80736 0.34641 0.0
H34 H 0.91748 0.78095 0.34664 0.0
H35 H 0.93953 0.83125 0.35933 0.0
H36 H 0.80541 0.71048 0.46172 0.0
H37 H 0.77379 0.7245 0.43667 0.0
H38 H 0.81343 0.76405 0.45612 0.0
C39 C 0.12725 0.25125 0.68261 0.0
N40 N 0.16158 0.26077 0.66348 0.0
N41 N 0.09602 0.26097 0.67132 0.0
C42 C 0.12546 0.23474 0.71258 0.0
C43 C 0.11206 0.27622 0.6446 0.0
N44 N 0.15179 0.27579 0.63967 0.0
C45 C 0.08765 0.28982 0.62306 0.0
H46 H 0.13088 0.20655 0.71463 0.0
H47 H 0.09249 0.22613 0.72378 0.0
H48 H 0.15358 0.26018 0.72223 0.0
H49 H 0.11148 0.31172 0.60533 0.0
H50 H 0.07086 0.30615 0.63202 0.0
H51 H 0.0606 0.26105 0.61537 0.0
C52 C 0.80532 0.91188 0.66207 0.0
N53 N 0.79128 0.88184 0.64469 0.0
N54 N 0.79989 0.9455 0.65128 0.0
C55 C 0.82709 0.90969 0.68873 0.0
C56 C 0.78227 0.93501 0.62668 0.0
N57 N 0.77782 0.89672 0.62233 0.0
C58 C 0.76523 0.96043 0.60833 0.0
H59 H 0.85019 0.94217 0.69376 0.0
H60 H 0.84667 0.8922 0.68742 0.0
H61 H 0.79994 0.89232 0.70583 0.0
H62 H 0.79383 0.9849 0.59372 0.0
H63 H 0.7529 0.97722 0.62084 0.0
H64 H 0.737 0.93971 0.59625 0.0
C65 C 0.11013 0.92014 0.66366 0.0
N66 N 0.09269 0.88623 0.64915 0.0
N67 N 0.14987 0.95274 0.65085 0.0
C68 C 0.09037 0.92111 0.69117 0.0
C69 C 0.1564 0.93724 0.62821 0.0
N70 N 0.1219 0.89714 0.6271 0.0
C71 C 0.19742 0.96063 0.60758 0.0
H72 H 0.09375 0.95309 0.6921 0.0
H73 H 0.10991 0.91507 0.70779 0.0
H74 H 0.05416 0.89656 0.69539 0.0
H75 H 0.20859 0.93853 0.60082 0.0
H76 H 0.22661 0.98654 0.6163 0.0
H77 H 0.18783 0.97468 0.58897 0.0
C78 C 0.87385 0.44256 0.74188 0.0
N79 N 0.88976 0.47398 0.75825 0.0
N80 N 0.87748 0.40843 0.75379 0.0
C81 C 0.85293 0.44439 0.71486 0.0
C82 C 0.89631 0.42018 0.77791 0.0
N83 N 0.90311 0.45973 0.78091 0.0
C84 C 0.91262 0.39474 0.79685 0.0
H85 H 0.82962 0.41183 0.71003 0.0
H86 H 0.88058 0.46121 0.69799 0.0
H87 H 0.83379 0.4624 0.71551 0.0
H88 H 0.92347 0.37632 0.78491 0.0
H89 H 0.88401 0.37163 0.81196 0.0
H90 H 0.9417 0.41563 0.80834 0.0
C91 C 0.58596 0.45982 0.73744 0.0
N92 N 0.60439 0.49204 0.75322 0.0
N93 N 0.5449 0.4279 0.74906 0.0
C94 C 0.60834 0.45928 0.71079 0.0
C95 C 0.53904 0.44173 0.77261 0.0
N96 N 0.575 0.48044 0.77542 0.0
C97 C 0.49675 0.41828 0.79227 0.0
H98 H 0.60045 0.47752 0.69379 0.0
H99 H 0.59533 0.4262 0.70617 0.0
H100 H 0.64602 0.47472 0.71163 0.0
H101 H 0.5023 0.39769 0.80889 0.0
H102 H 0.46648 0.39775 0.78145 0.0
H103 H 0.48954 0.44094 0.80203 0.0
C104 C 0.55772 0.11525 0.72082 0.0
N105 N 0.58132 0.10356 0.73909 0.0
N106 N 0.51771 0.10785 0.73309 0.0
C107 C 0.5739 0.13385 0.6911 0.0
C108 C 0.51796 0.09181 0.75955 0.0
N109 N 0.55685 0.08947 0.76338 0.0
C110 C 0.48116 0.08034 0.78209 0.0
H111 H 0.60748 0.1633 0.69004 0.0
H112 H 0.54906 0.14128 0.68016 0.0
H113 H 0.57888 0.11059 0.68061 0.0
H114 H 0.44767 0.07228 0.77367 0.0
H115 H 0.49113 0.10809 0.79341 0.0
H116 H 0.47727 0.05289 0.79708 0.0
C117 C 0.78791 0.57822 1.01428 0.0
N118 N 0.82194 0.58812 0.9949 0.0
N119 N 0.75491 0.58505 1.00291 0.0
C120 C 0.78766 0.56323 0.04436 0.0
C121 C 0.76939 0.59864 0.97585 0.0
N122 N 0.81009 0.60011 0.97081 0.0
C123 C 0.74337 0.61005 0.9543 0.0
H124 H 0.75339 0.5502 0.05528 0.0
H125 H 0.81258 0.59077 0.05409 0.0
H126 H 0.79863 0.53851 0.04656 0.0
H127 H 0.767 0.63471 0.93747 0.0
H128 H 0.72198 0.62195 0.9634 0.0
H129 H 0.72018 0.58103 0.94518 0.0
C130 C 0.48033 0.25163 0.99374 0.0
N131 N 0.46515 0.2206 0.97705 0.0
N132 N 0.47595 0.2855 0.98219 0.0
C133 C 0.4977 0.24833 0.02185 0.0
C134 C 0.4583 0.27423 0.95768 0.0
N135 N 0.45192 0.23498 0.95437 0.0
C136 C 0.44588 0.30108 0.9372 0.0
H137 H 0.46924 0.23753 0.03793 0.0
H138 H 0.52523 0.27989 0.0258 0.0
H139 H 0.511 0.22527 0.02384 0.0
H140 H 0.46573 0.33535 0.9397 0.0
H141 H 0.40888 0.29063 0.9406 0.0
H142 H 0.45226 0.29685 0.91572 0.0
C143 C 0.77466 0.25895 0.99565 0.0
N144 N 0.75696 0.2253 0.98088 0.0
N145 N 0.81336 0.29231 0.98237 0.0
C146 C 0.75701 0.25808 0.02422 0.0
C147 C 0.81844 0.27784 0.95887 0.0
N148 N 0.78478 0.23727 0.958 0.0
C149 C 0.8553 0.30402 0.93599 0.0
H150 H 0.73597 0.27441 0.0228 0.0
H151 H 0.7858 0.27528 0.03709 0.0
H152 H 0.73573 0.22491 0.03433 0.0
H153 H 0.88312 0.29554 0.93794 0.0
H154 H 0.86986 0.3387 0.9369 0.0
H155 H 0.84132 0.29687 0.91552 0.0
C156 C 0.54599 0.77939 0.07373 0.0
N157 N 0.56243 0.81121 0.08977 0.0
N158 N 0.55175 0.74618 0.08518 0.0
C159 C 0.52304 0.7802 0.04741 0.0
C160 C 0.57285 0.75928 0.10854 0.0
N161 N 0.57834 0.79828 0.1117 0.0
C162 C 0.59348 0.7365 0.12628 0.0
H163 H 0.49734 0.74742 0.04418 0.0
H164 H 0.54929 0.79407 0.02969 0.0
H165 H 0.50622 0.8003 0.04774 0.0
H166 H 0.60159 0.71639 0.11423 0.0
H167 H 0.56882 0.71554 0.14393 0.0
H168 H 0.62523 0.75968 0.13475 0.0
C169 C 0.25232 0.79468 0.07201 0.0
N170 N 0.27074 0.82796 0.08701 0.0
N171 N 0.21045 0.76386 0.0834 0.0
C172 C 0.27477 0.79223 0.046 0.0
C173 C 0.20381 0.77977 0.10578 0.0
N174 N 0.24021 0.8183 0.10826 0.0
C175 C 0.1604 0.75895 0.12449 0.0
H176 H 0.26275 0.80492 0.02795 0.0
H177 H 0.26505 0.75861 0.04416 0.0
H178 H 0.31253 0.81133 0.0454 0.0
H179 H 0.1653 0.74191 0.14357 0.0
H180 H 0.13094 0.73585 0.11426 0.0
H181 H 0.15234 0.78338 0.13075 0.0
C182 C 0.2283 0.46731 0.06109 0.0
N183 N 0.2505 0.4524 0.07848 0.0
N184 N 0.18785 0.4585 0.07334 0.0
C185 C 0.24394 0.48737 0.03148 0.0
C186 C 0.18605 0.43806 0.09875 0.0
N187 N 0.22399 0.43399 0.10189 0.0
C188 C 0.14759 0.42282 0.12076 0.0
H189 H 0.25737 0.52234 0.03004 0.0
H190 H 0.21463 0.47472 0.01828 0.0
H191 H 0.27103 0.48126 0.02359 0.0
H192 H 0.12305 0.38873 0.11988 0.0
H193 H 0.12905 0.44144 0.11754 0.0
H194 H 0.1609 0.42547 0.14165 0.0
C195 C 0.46314 0.91742 0.34858 0.0
N196 N 0.49809 0.92863 0.32953 0.0
N197 N 0.43057 0.92518 0.33728 0.0
C198 C 0.46089 0.89865 0.37808 0.0
C199 C 0.44651 0.9409 0.31056 0.0
N200 N 0.48742 0.94263 0.30563 0.0
C201 C 0.42121 0.9532 0.28895 0.0
H202 H 0.46668 0.87073 0.3786 0.0
H203 H 0.4276 0.88881 0.38929 0.0
H204 H 0.48873 0.92286 0.38866 0.0
H205 H 0.44551 0.97961 0.2732 0.0
H206 H 0.39822 0.96325 0.2982 0.0
H207 H 0.3999 0.92515 0.27842 0.0
C208 C 0.1484 0.58265 0.32571 0.0
N209 N 0.13382 0.55134 0.30927 0.0
N210 N 0.14221 0.61557 0.31427 0.0
C211 C 0.1709 0.58217 0.35232 0.0
C212 C 0.12332 0.60317 0.29019 0.0
N213 N 0.11876 0.56452 0.28693 0.0
C214 C 0.10596 0.62713 0.27078 0.0
H215 H 0.14411 0.56595 0.36971 0.0
H216 H 0.19437 0.61513 0.3564 0.0
H217 H 0.19037 0.56448 0.35161 0.0
H218 H 0.13166 0.64504 0.25298 0.0
H219 H 0.09998 0.64995 0.28119 0.0
H220 H 0.07362 0.60467 0.26247 0.0
C221 C 0.44216 0.58962 0.32973 0.0
N222 N 0.42488 0.556 0.315 0.0
N223 N 0.47888 0.62434 0.31555 0.0
C224 C 0.42626 0.58683 0.35911 0.0
C225 C 0.48289 0.61047 0.29153 0.0
N226 N 0.45074 0.56917 0.29119 0.0
C227 C 0.51778 0.63768 0.26785 0.0
H228 H 0.39634 0.59243 0.35921 0.0
H229 H 0.4536 0.61069 0.3702 0.0
H230 H 0.41538 0.5545 0.37017 0.0
H231 H 0.5487 0.63387 0.27018 0.0
H232 H 0.52789 0.67189 0.26759 0.0
H233 H 0.504 0.62759 0.24778 0.0
Gd234 Gd 0.52921 0.04171 0.06758 0.0
Gd235 Gd 0.51016 0.99769 1.00183 0.0
C236 C 0.37788 0.87476 0.99459 0.0
C237 C 0.4057 0.82416 0.99121 0.0
C238 C 0.45902 0.89837 0.99496 0.0
C239 C 0.42306 0.90701 0.99689 0.0
C240 C 0.45089 0.85712 0.9914 0.0
C241 C 0.36925 0.83303 0.99262 0.0
C242 C 0.34312 0.88591 0.9927 0.0
C243 C 0.35409 0.92851 0.99216 0.0
N244 N 0.43278 0.94792 0.9981 0.0
C245 C 0.39932 0.9593 0.99475 0.0
H246 H 0.40697 0.99199 0.99432 0.0
C247 C 0.53888 0.92605 0.98733 0.0
N248 N 0.50225 0.93126 0.99419 0.0
C249 C 0.53266 0.88557 0.98428 0.0
C250 C 0.48848 0.85076 0.98682 0.0
H251 H 0.57302 0.95304 0.98519 0.0
H252 H 0.33471 0.80774 0.99116 0.0
H253 H 0.63378 0.04997 0.06798 0.0
H254 H 0.30811 0.86229 0.99045 0.0
H255 H 0.32767 0.93769 0.98979 0.0
H256 H 0.3987 0.79215 0.98878 0.0
H257 H 0.46554 0.08477 0.08577 0.0
H258 H 0.7314 0.17814 0.077 0.0
H259 H 0.71332 0.10445 0.07191 0.0
H260 H 0.63889 0.24523 0.08615 0.0
H261 H 0.56187 0.88128 0.97982 0.0
H262 H 0.4837 0.81951 0.98414 0.0
H263 H 0.70343 0.23087 0.08152 0.0
H264 H 0.47588 0.15539 0.09345 0.0
N265 N 0.60664 0.09252 0.06969 0.0
C266 C 0.69631 0.15445 0.07494 0.0
C267 C 0.68624 0.11285 0.07219 0.0
C268 C 0.66089 0.16471 0.07572 0.0
C269 C 0.61576 0.13249 0.0733 0.0
C270 C 0.64093 0.082 0.06996 0.0
N271 N 0.53648 0.10746 0.0765 0.0
C272 C 0.57952 0.14039 0.07638 0.0
C273 C 0.50533 0.15172 0.08847 0.0
C274 C 0.54936 0.18659 0.08681 0.0
C275 C 0.49956 0.1119 0.084 0.0
C276 C 0.58721 0.18091 0.08151 0.0
H277 H 0.55383 0.21728 0.09068 0.0
O278 O 0.49049 0.02329 0.10744 0.0
O279 O 0.48201 0.98814 0.04547 0.0
O280 O 0.48284 0.04491 1.00076 0.0
O281 O 0.51002 0.08318 0.03825 0.0
O282 O 0.4522 1.0116 0.0706 0.0
O283 O 0.55278 0.01917 0.10416 0.0
O284 O 0.55311 0.01389 0.96382 0.0
O285 O 0.5558 0.05223 0.02372 0.0
O286 O 0.556 0.99391 0.06716 0.0
O287 O 0.52028 0.95195 0.03269 0.0
O288 O 0.58781 0.02957 0.99998 0.0
O289 O 0.49156 0.01988 0.96318 0.0
C290 C 0.44372 0.98327 0.05447 0.0
C291 C 0.63223 0.21381 0.08241 0.0
C292 C 0.66899 0.20563 0.07975 0.0
C293 C 0.52014 0.01574 0.12078 0.0
C294 C 0.53414 0.03442 0.1467 0.0
C295 C 0.54632 0.07725 0.14748 0.0
C296 C 0.5341 1.00904 0.17109 0.0
C297 C 0.54476 0.02605 0.19638 0.0
C298 C 0.55683 0.09432 0.17222 0.0
C299 C 0.55526 0.0689 0.19653 0.0
C300 C 0.48929 0.07635 1.01485 0.0
C301 C 0.5948 0.05938 1.01458 0.0
C302 C 0.52559 0.02189 0.9485 0.0
C303 C 0.51428 1.00228 0.92288 0.0
C304 C 0.47715 0.9612 0.92323 0.0
C305 C 0.53985 0.02518 0.89771 0.0
C306 C 0.52762 1.00755 0.87274 0.0
C307 C 0.46487 0.94347 0.89877 0.0
C308 C 0.48928 0.96658 0.8737 0.0
C309 C 0.54382 0.95954 0.05487 0.0
H310 H 0.54677 0.09739 0.12918 0.0
H311 H 0.52505 0.97602 0.17039 0.0
H312 H 0.56508 0.12717 0.17271 0.0
H313 H 0.56077 0.0827 0.21558 0.0
H314 H 0.45703 0.94318 0.94228 0.0
H315 H 0.56867 0.05687 0.89757 0.0
H316 H 0.43553 0.91209 0.89912 0.0
H317 H 0.47689 0.95271 0.85498 0.0
Gd318 Gd 0.98233 0.51205 0.06725 0.0
Gd319 Gd 0.04005 0.5472 0.99602 0.0
C320 C 0.16833 0.53582 0.97784 0.0
C321 C 0.2274 0.61017 0.96873 0.0
C322 C 0.148 0.59164 0.97868 0.0
C323 C 0.13545 0.549 0.98203 0.0
C324 C 0.19387 0.62286 0.97116 0.0
C325 C 0.21462 0.56664 0.97208 0.0
C326 C 0.15336 0.49223 0.97838 0.0
C327 C 0.10654 0.46338 0.9818 0.0
N328 N 0.0904 0.52038 0.98723 0.0
C329 C 0.0754 0.47825 0.98568 0.0
H330 H 0.03953 0.45584 0.98801 0.0
C331 C 0.12393 0.64372 0.97321 0.0
N332 N 0.11452 0.60241 0.98072 0.0
C333 C 0.16897 0.67601 0.9659 0.0
C334 C 0.20426 0.66563 0.96531 0.0
H335 H 0.09677 0.65192 0.97382 0.0
H336 H 0.2405 0.55717 0.96922 0.0
H337 H 0.98101 0.60366 0.07132 0.0
H338 H 0.17741 0.48075 0.97509 0.0
H339 H 0.09437 0.4297 0.98144 0.0
H340 H 0.26296 0.63366 0.96334 0.0
H341 H 0.9268 0.40496 0.08455 0.0
H342 H 0.84422 0.57385 0.09491 0.0
H343 H 0.92538 0.62715 0.08248 0.0
H344 H 0.76195 0.42113 0.10668 0.0
H345 H 0.17643 0.70886 0.96077 0.0
H346 H 0.23909 0.69064 0.95949 0.0
H347 H 0.78304 0.49709 0.10257 0.0
H348 H 0.84822 0.3475 0.09899 0.0
N349 N 0.9315 0.53775 0.0759 0.0
C350 C 0.86831 0.56337 0.08941 0.0
C351 C 0.91415 0.59353 0.08261 0.0
C352 C 0.85435 0.51996 0.08997 0.0
C353 C 0.88734 0.50789 0.08343 0.0
C354 C 0.94557 0.58006 0.0762 0.0
N355 N 0.90901 0.45465 0.0819 0.0
C356 C 0.87568 0.46509 0.08636 0.0
C357 C 0.85544 0.38041 0.0954 0.0
C358 C 0.82043 0.39049 0.09909 0.0
C359 C 0.89992 0.41307 0.08723 0.0
C360 C 0.83043 0.43326 0.09505 0.0
H361 H 0.78606 0.36513 0.10566 0.0
O362 O 0.01635 0.49374 0.09968 0.0
O363 O 0.0384 0.51896 0.03909 0.0
O364 O 0.98417 0.47633 1.00262 0.0
O365 O 0.93327 0.4667 0.03954 0.0
O366 O 1.00369 0.46192 0.06563 0.0
O367 O 0.98909 0.53497 0.10763 0.0
O368 O 0.02843 0.57759 0.95787 0.0
O369 O 0.98506 0.54162 0.02432 0.0
O370 O 0.03812 0.58232 0.06178 0.0
O371 O 0.08737 0.59464 0.02312 0.0
O372 O 0.01571 0.5959 0.99605 0.0
O373 O 0.00829 0.5104 0.96275 0.0
C374 C 0.03702 0.48369 0.04683 0.0
C375 C 0.79694 0.44513 0.10016 0.0
C376 C 0.80894 0.48838 0.09779 0.0
C377 C 0.01014 0.51448 0.11774 0.0
C378 C 0.99688 0.49192 0.14646 0.0
C379 C 0.96065 0.45003 0.15175 0.0
C380 C 0.02383 0.51054 0.1683 0.0
C381 C 0.01596 0.48679 0.19505 0.0
C382 C 0.95207 0.42659 0.17804 0.0
C383 C 0.9797 0.44445 0.19936 0.0
C384 C 0.9439 0.4542 1.01737 0.0
C385 C 0.9838 0.57531 1.01564 0.0
C386 C 0.01182 0.54309 0.94612 0.0
C387 C 0.02932 0.54751 0.91752 0.0
C388 C 0.0755 0.5601 0.91138 0.0
C389 C 0.99883 0.53656 0.89642 0.0
C390 C 0.01372 0.53614 0.86935 0.0
C391 C 0.09096 0.56123 0.88449 0.0
C392 C 0.06038 0.54901 0.86369 0.0
C393 C 0.07749 0.60533 0.04635 0.0
H394 H 0.93972 0.43503 0.13539 0.0
H395 H 0.05087 0.54335 0.16421 0.0
H396 H 0.9244 0.39402 0.18177 0.0
H397 H 0.97283 0.42469 0.21921 0.0
H398 H 0.09939 0.56851 0.92741 0.0
H399 H 0.96346 0.52789 0.9013 0.0
H400 H 0.12662 0.5707 0.87987 0.0
H401 H 0.07314 0.54858 0.84332 0.0
Gd402 Gd 0.49136 0.52395 1.00151 0.0
Gd403 Gd 0.50955 0.49214 0.0745 0.0
C404 C 0.6466 0.50317 0.09805 0.0
C405 C 0.62824 0.42872 0.10741 0.0
C406 C 0.56911 0.44731 0.0946 0.0
C407 C 0.60077 0.49019 0.09223 0.0
C408 C 0.58221 0.41603 0.1028 0.0
C409 C 0.6604 0.47222 0.105 0.0
C410 C 0.67684 0.54677 0.09745 0.0
C411 C 0.66064 0.576 0.09222 0.0
N412 N 0.58625 0.5192 0.08551 0.0
C413 C 0.61482 0.56152 0.08665 0.0
H414 H 0.60291 0.58451 0.0824 0.0
C415 C 0.49149 0.39445 0.09512 0.0
N416 N 0.525 0.43619 0.08995 0.0
C417 C 0.5028 0.36224 0.10317 0.0
C418 C 0.54845 0.37303 0.10669 0.0
H419 H 0.45621 0.38598 0.09221 0.0
H420 H 0.69558 0.48158 0.10921 0.0
H421 H 0.39667 0.42944 1.00004 0.0
H422 H 0.71235 0.55807 0.10171 0.0
H423 H 0.6835 0.60973 0.09226 0.0
H424 H 0.63911 0.40517 0.11343 0.0
H425 H 0.5413 0.62707 0.97546 0.0
H426 H 0.28427 0.45136 0.98177 0.0
H427 H 0.315 0.40156 0.9932 0.0
H428 H 0.35506 0.60387 0.96178 0.0
H429 H 0.47635 0.32915 0.1066 0.0
H430 H 0.55711 0.34802 0.11298 0.0
H431 H 0.29932 0.52717 0.97088 0.0
H432 H 0.51933 0.682 0.95896 0.0
N433 N 0.41265 0.49463 0.99388 0.0
C434 C 0.32029 0.46384 0.98503 0.0
C435 C 0.33753 0.43567 0.99138 0.0
C436 C 0.35008 0.50783 0.98204 0.0
C437 C 0.39671 0.52231 0.98635 0.0
C438 C 0.3841 0.45171 0.99533 0.0
N439 N 0.47261 0.57694 0.98335 0.0
C440 C 0.42783 0.56507 0.981 0.0
C441 C 0.49317 0.64924 0.96521 0.0
C442 C 0.44693 0.63782 0.96409 0.0
C443 C 0.5055 0.61808 0.97445 0.0
C444 C 0.41358 0.5951 0.97148 0.0
H445 H 0.43744 0.66192 0.95674 0.0
O446 O 0.53603 0.55209 0.96334 0.0
O447 O 0.53883 0.52005 0.03157 0.0
O448 O 0.52576 0.56185 0.06761 0.0
O449 O 0.49848 0.57649 0.02549 0.0
O450 O 0.56593 0.57267 1.00145 0.0
O451 O 0.48725 0.48521 0.96952 0.0
O452 O 0.4582 0.46402 0.10921 0.0
O453 O 0.46212 0.4993 0.04525 0.0
O454 O 0.47385 0.4539 1.01096 0.0
O455 O 0.51732 0.44901 0.04719 0.0
O456 O 0.43576 0.44329 0.07253 0.0
O457 O 0.51926 0.52385 0.11138 0.0
C458 C 0.57492 0.55376 0.02268 0.0
C459 C 0.36682 0.58128 0.96875 0.0
C460 C 0.3351 0.53763 0.97394 0.0
C461 C 0.51807 0.51692 0.95238 0.0
C462 C 0.50615 0.51992 0.92327 0.0
C463 C 0.4658 0.52143 0.91767 0.0
C464 C 0.53404 0.52018 0.90105 0.0
C465 C 0.52129 0.5218 0.87339 0.0
C466 C 0.45258 0.52216 0.89068 0.0
C467 C 0.47957 0.5218 0.86886 0.0
C468 C 0.51547 0.58639 0.04973 0.0
C469 C 0.42566 0.46539 0.05384 0.0
C470 C 0.48108 0.49384 0.1244 0.0
C471 C 0.48215 0.47928 0.15399 0.0
C472 C 0.49049 0.4449 0.16136 0.0
C473 C 0.47272 0.49835 0.17512 0.0
C474 C 0.47187 0.48308 0.20339 0.0
C475 C 0.48863 0.42911 0.18914 0.0
C476 C 0.47913 0.44776 0.20996 0.0
C477 C 0.49385 0.43461 0.0255 0.0
H478 H 0.44406 0.52132 0.93429 0.0
H479 H 0.56535 0.51913 0.90529 0.0
H480 H 0.42084 0.52243 0.88666 0.0
H481 H 0.46707 0.52067 0.84838 0.0
H482 H 0.49782 0.42981 0.14563 0.0
H483 H 0.46668 0.52521 0.1696 0.0
H484 H 0.49453 0.4022 0.19458 0.0
H485 H 0.47766 0.4346 0.23135 0.0
Gd486 Gd 0.19895 0.37322 0.40068 0.0
Gd487 Gd 0.17985 0.32774 0.33546 0.0
C488 C 0.04874 0.20399 0.32935 0.0
C489 C 0.07749 0.15412 0.32567 0.0
C490 C 0.13016 0.2283 0.32991 0.0
C491 C 0.09378 0.23665 0.33142 0.0
C492 C 0.12248 0.18719 0.32635 0.0
C493 C 0.04074 0.16256 0.32699 0.0
C494 C 0.01327 0.21429 0.32867 0.0
C495 C 0.02321 0.25639 0.32947 0.0
N496 N 0.10271 0.27726 0.33299 0.0
C497 C 0.06843 0.28775 0.3313 0.0
H498 H 0.07555 0.32015 0.33181 0.0
C499 C 0.21036 0.25626 0.32327 0.0
N500 N 0.17336 0.26123 0.32972 0.0
C501 C 0.20447 0.21588 0.32027 0.0
C502 C 0.16036 0.18104 0.32228 0.0
H503 H 0.24443 0.28338 0.32138 0.0
H504 H 1.00634 0.13704 0.32547 0.0
H505 H 0.303 0.37991 0.40234 0.0
H506 H 0.97831 0.19029 0.32673 0.0
H507 H 0.99608 0.26476 0.3286 0.0
H508 H 0.07088 0.12225 0.32313 0.0
H509 H 0.13576 0.41808 0.41609 0.0
H510 H 0.40111 0.50717 0.41273 0.0
H511 H 0.38237 0.43343 0.40741 0.0
H512 H 0.3103 0.57642 0.41955 0.0
H513 H 0.2339 0.21173 0.31622 0.0
H514 H 0.15586 0.14988 0.3196 0.0
H515 H 0.37414 0.56079 0.41625 0.0
H516 H 0.14706 0.48908 0.42363 0.0
N517 N 0.2765 0.42308 0.40352 0.0
C518 C 0.3661 0.48397 0.41001 0.0
C519 C 0.35564 0.44231 0.40721 0.0
C520 C 0.33114 0.49491 0.41003 0.0
C521 C 0.286 0.46321 0.40698 0.0
C522 C 0.31038 0.41198 0.40433 0.0
N523 N 0.20685 0.43944 0.40879 0.0
C524 C 0.25008 0.47182 0.40931 0.0
C525 C 0.17634 0.48475 0.41948 0.0
C526 C 0.22064 0.519 0.41869 0.0
C527 C 0.17005 0.44469 0.41517 0.0
C528 C 0.25821 0.51254 0.41429 0.0
H529 H 0.22546 0.54987 0.42242 0.0
O530 O 0.15973 0.35628 0.44018 0.0
O531 O 0.1518 0.3192 0.37897 0.0
O532 O 0.15331 0.37581 0.33383 0.0
O533 O 0.18401 0.41635 0.36997 0.0
O534 O 0.12176 0.34303 0.40348 0.0
O535 O 0.22145 0.35081 0.43779 0.0
O536 O 0.22576 0.35054 0.2983 0.0
O537 O 0.22539 0.38262 0.35703 0.0
O538 O 0.2255 0.32519 0.40114 0.0
O539 O 0.19023 0.28287 0.36676 0.0
O540 O 0.25742 0.35923 0.3338 0.0
O541 O 0.15606 0.33816 0.29506 0.0
C542 C 0.11335 0.31384 0.38804 0.0
C543 C 0.30332 0.54487 0.41589 0.0
C544 C 0.33968 0.53597 0.41399 0.0
C545 C 0.1887 0.34818 0.45396 0.0
C546 C 0.20217 0.36663 0.47996 0.0
C547 C 0.2142 0.40937 0.48095 0.0
C548 C 0.20131 0.34082 0.50432 0.0
C549 C 0.20967 0.35685 0.53 0.0
C550 C 0.22404 0.42597 0.50589 0.0
C551 C 0.22117 0.39995 0.53023 0.0
C552 C 0.16211 0.40881 0.34701 0.0
C553 C 0.26434 0.38913 0.34836 0.0
C554 C 0.19488 0.34899 0.28162 0.0
C555 C 0.19345 0.32939 0.25644 0.0
C556 C 0.17943 0.28572 0.25836 0.0
C557 C 0.20879 0.35494 0.23037 0.0
C558 C 0.21126 0.33707 0.20654 0.0
C559 C 0.18296 0.2681 0.23517 0.0
C560 C 0.1992 0.29357 0.20952 0.0
C561 C 0.21366 0.29079 0.38895 0.0
H562 H 0.21529 0.42983 0.46261 0.0
H563 H 0.19361 0.3083 0.50309 0.0
H564 H 0.23273 0.45889 0.5065 0.0
H565 H 0.22667 0.41354 0.54938 0.0
H566 H 0.1659 0.26511 0.2777 0.0
H567 H 0.21765 0.38828 0.22867 0.0
H568 H 0.17274 0.23445 0.23705 0.0
H569 H 0.20136 0.27892 0.19182 0.0
Gd570 Gd 0.65257 0.84186 0.39968 0.0
Gd571 Gd 0.71012 0.87737 0.32861 0.0
C572 C 0.83371 0.85951 0.30883 0.0
C573 C 0.89584 0.93266 0.30146 0.0
C574 C 0.8176 0.91765 0.31144 0.0
C575 C 0.80264 0.87453 0.31371 0.0
C576 C 0.86414 0.94738 0.30443 0.0
C577 C 0.88061 0.88872 0.30365 0.0
C578 C 0.81645 0.81583 0.30815 0.0
C579 C 0.76923 0.78872 0.31122 0.0
N580 N 0.7571 0.84743 0.31862 0.0
C581 C 0.73989 0.80524 0.31608 0.0
H582 H 0.70363 0.78373 0.31846 0.0
C583 C 0.79772 0.97262 0.3073 0.0
N584 N 0.78589 0.9305 0.31402 0.0
C585 C 0.84352 1.00346 0.30056 0.0
C586 C 0.87704 0.99085 0.29959 0.0
H587 H 0.77191 0.98251 0.3083 0.0
H588 H 0.90512 0.87776 0.30034 0.0
H589 H 0.6599 0.93574 0.40874 0.0
H590 H 0.83907 0.80298 0.30428 0.0
H591 H 0.75537 0.75504 0.30998 0.0
H592 H 0.93187 0.95496 0.29649 0.0
H593 H 0.58998 0.73583 0.41532 0.0
H594 H 0.52587 0.91532 0.4302 0.0
H595 H 0.60903 0.96379 0.4211 0.0
H596 H 0.43239 0.76369 0.43633 0.0
H597 H 0.85292 0.0369 0.29617 0.0
H598 H 0.91246 0.01474 0.2942 0.0
H599 H 0.45974 0.84067 0.43475 0.0
H600 H 0.50918 0.68147 0.42798 0.0
N601 N 0.60613 0.87183 0.41002 0.0
C602 C 0.54796 0.90278 0.42444 0.0
C603 C 0.59492 0.9302 0.41947 0.0
C604 C 0.53036 0.85922 0.4231 0.0
C605 C 0.56085 0.84446 0.41617 0.0
C606 C 0.6237 0.91408 0.41241 0.0
N607 N 0.57687 0.78828 0.41338 0.0
C608 C 0.54565 0.80124 0.41771 0.0
C609 C 0.51894 0.71505 0.42511 0.0
C610 C 0.48601 0.72786 0.4285 0.0
C611 C 0.56464 0.74587 0.41804 0.0
C612 C 0.49932 0.77143 0.42539 0.0
H613 H 0.4507 0.70395 0.43423 0.0
O614 O 0.66153 0.80704 0.4367 0.0
O615 O 0.70837 0.84783 0.37148 0.0
O616 O 0.6532 0.80712 0.3349 0.0
O617 O 0.60256 0.80042 0.37077 0.0
O618 O 0.67348 0.79117 0.398 0.0
O619 O 0.68233 0.87413 0.4351 0.0
O620 O 0.70071 0.91071 0.29106 0.0
O621 O 0.65509 0.87196 0.35698 0.0
O622 O 0.71132 0.91074 0.39561 0.0
O623 O 0.75853 0.92384 0.3558 0.0
O624 O 0.68796 0.92747 0.32996 0.0
O625 O 0.67717 0.84301 0.29454 0.0
C626 C 0.70664 0.81244 0.37921 0.0
C627 C 0.46821 0.78605 0.43062 0.0
C628 C 0.48377 0.82988 0.42968 0.0
C629 C 0.67822 0.83988 0.45015 0.0
C630 C 0.6606 0.83248 0.47922 0.0
C631 C 0.61455 0.82 0.48565 0.0
C632 C 0.69057 0.83959 0.50067 0.0
C633 C 0.67501 0.83568 0.52848 0.0
C634 C 0.59858 0.81505 0.51305 0.0
C635 C 0.62845 0.82308 0.53425 0.0
C636 C 0.61241 0.78664 0.34902 0.0
C637 C 0.65545 0.90671 0.3492 0.0
C638 C 0.68275 0.87699 0.27854 0.0
C639 C 0.70063 0.88213 0.2499 0.0
C640 C 0.74692 0.89498 0.24388 0.0
C641 C 0.67052 0.87191 0.22858 0.0
C642 C 0.68595 0.87262 0.2014 0.0
C643 C 0.76287 0.89717 0.21691 0.0
C644 C 0.73269 0.88578 0.19587 0.0
C645 C 0.75007 0.93383 0.37967 0.0
H646 H 0.59109 0.81448 0.46947 0.0
H647 H 0.72589 0.84835 0.49553 0.0
H648 H 0.563 0.80569 0.51786 0.0
H649 H 0.61515 0.82043 0.55512 0.0
H650 H 0.77054 0.90284 0.26005 0.0
H651 H 0.63503 0.86296 0.23337 0.0
H652 H 0.79861 0.90686 0.21239 0.0
H653 H 0.74583 0.88619 0.17541 0.0
Gd654 Gd 0.1621 0.85713 0.33618 0.0
Gd655 Gd 0.17913 0.82258 0.40858 0.0
C656 C 0.31239 0.82305 0.43059 0.0
C657 C 0.28813 0.74731 0.44048 0.0
C658 C 0.23271 0.77119 0.42853 0.0
C659 C 0.26704 0.81312 0.42533 0.0
C660 C 0.24262 0.73777 0.43678 0.0
C661 C 0.32298 0.78991 0.43739 0.0
C662 C 0.34532 0.86594 0.42986 0.0
C663 C 0.33224 0.89745 0.42506 0.0
N664 N 0.25557 0.84428 0.41874 0.0
C665 C 0.28681 0.88588 0.41998 0.0
H666 H 0.27709 0.91042 0.41636 0.0
C667 C 0.15338 0.72264 0.43135 0.0
N668 N 0.18916 0.76323 0.42487 0.0
C669 C 0.1615 0.68842 0.43949 0.0
C670 C 0.20637 0.69592 0.4418 0.0
H671 H 0.11856 0.71643 0.42959 0.0
H672 H 0.35774 0.79691 0.4411 0.0
H673 H 0.07441 0.76057 0.32867 0.0
H674 H 0.38047 0.87492 0.4339 0.0
H675 H 0.35713 0.93066 0.42517 0.0
H676 H 0.29652 0.72205 0.44648 0.0
H677 H 0.20521 0.96213 0.31797 0.0
H678 H 0.95818 0.77503 0.30798 0.0
H679 H 0.99419 0.72929 0.31744 0.0
H680 H 0.01571 0.9261 0.29953 0.0
H681 H 0.13314 0.65628 0.44393 0.0
H682 H 0.21255 0.66935 0.44816 0.0
H683 H 0.96596 0.84847 0.30249 0.0
H684 H 0.17752 0.01393 0.30465 0.0
N685 N 0.08425 0.82386 0.32666 0.0
C686 C 0.99343 0.78906 0.31335 0.0
C687 C 0.01374 0.76318 0.31845 0.0
C688 C 0.01939 0.83296 0.31406 0.0
C689 C 0.06549 0.84968 0.32049 0.0
C690 C 0.05949 0.78122 0.32488 0.0
N691 N 0.1387 0.90806 0.32172 0.0
C692 C 0.09363 0.89326 0.31813 0.0
C693 C 0.15352 0.98009 0.30846 0.0
C694 C 0.10683 0.96543 0.30589 0.0
C695 C 0.16908 0.95075 0.31587 0.0
C696 C 0.07636 0.92149 0.31011 0.0
H697 H 0.0949 0.98817 0.29982 0.0
O698 O 0.20383 0.89213 0.2976 0.0
O699 O 0.2101 0.85188 0.36559 0.0
O700 O 0.20103 0.89398 0.40052 0.0
O701 O 0.15965 0.90209 0.36395 0.0
O702 O 0.23624 0.90656 0.33701 0.0
O703 O 0.16336 0.82358 0.30234 0.0
O704 O 0.12622 0.80385 0.44167 0.0
O705 O 0.13146 0.82925 0.3792 0.0
O706 O 0.15069 0.78905 0.34152 0.0
O707 O 0.18013 0.77486 0.38271 0.0
O708 O 0.10526 0.77356 0.40662 0.0
O709 O 0.19468 0.85203 0.44671 0.0
C710 C 0.2461 0.88609 0.35692 0.0
C711 C 0.02975 0.90496 0.30549 0.0
C712 C 1.0014 0.86076 0.30724 0.0
C713 C 0.19056 0.85804 0.28561 0.0
C714 C 0.17675 0.86005 0.25688 0.0
C715 C 0.13487 0.85907 0.25237 0.0
C716 C 0.20374 0.86058 0.23404 0.0
C717 C 0.18853 0.85997 0.20687 0.0
C718 C 0.11921 0.85744 0.22594 0.0
C719 C 0.14527 0.85725 0.20355 0.0
C720 C 0.18421 0.91583 0.38536 0.0
C721 C 0.09536 0.79452 0.38702 0.0
C722 C 0.15333 0.82884 0.45826 0.0
C723 C 0.14797 0.80975 0.48766 0.0
C724 C 0.14613 0.76998 0.49416 0.0
C725 C 0.14215 0.82995 0.50938 0.0
C726 C 0.1344 0.81027 0.5373 0.0
C727 C 0.13751 0.75003 0.52147 0.0
C728 C 0.13124 0.76968 0.54281 0.0
C729 C 0.16387 0.76569 0.35824 0.0
H730 H 0.11373 0.85858 0.26945 0.0
H731 H 0.23615 0.8613 0.23744 0.0
H732 H 0.08625 0.85563 0.22283 0.0
H733 H 0.13081 0.85407 0.1836 0.0
H734 H 0.15053 0.75392 0.47806 0.0
H735 H 0.14394 0.86088 0.50457 0.0
H736 H 0.13536 0.71896 0.52613 0.0
H737 H 0.1237 0.7529 0.56374 0.0
Gd738 Gd 0.86137 0.70639 0.73257 0.0
Gd739 Gd 0.84284 0.6612 0.66724 0.0
C740 C 0.71062 0.53852 0.6596 0.0
C741 C 0.738 0.48728 0.65783 0.0
C742 C 0.79146 0.56149 0.6615 0.0
C743 C 0.75568 0.57054 0.66248 0.0
C744 C 0.78319 0.52002 0.65848 0.0
C745 C 0.70179 0.49659 0.65817 0.0
C746 C 0.67629 0.55011 0.65651 0.0
C747 C 0.6875 0.59281 0.65565 0.0
N748 N 0.76559 0.61162 0.66317 0.0
C749 C 0.73254 0.62333 0.65894 0.0
H750 H 0.74044 0.65615 0.65813 0.0
C751 C 0.87139 0.58854 0.65495 0.0
N752 N 0.83476 0.59421 0.66096 0.0
C753 C 0.865 0.5478 0.65254 0.0
C754 C 0.8207 0.51321 0.65481 0.0
H755 H 0.90568 0.61532 0.65317 0.0
H756 H 0.66731 0.47148 0.65629 0.0
H757 H 0.96728 0.71844 0.73437 0.0
H758 H 0.6415 0.52674 0.65354 0.0
H759 H 0.66145 0.60229 0.65238 0.0
H760 H 0.73089 0.45512 0.65579 0.0
H761 H 0.79413 0.7456 0.75123 0.0
H762 H 0.06099 0.84861 0.74155 0.0
H763 H 0.04601 0.77535 0.73778 0.0
H764 H 0.96304 0.91025 0.7504 0.0
H765 H 0.89419 0.54314 0.64886 0.0
H766 H 0.81579 0.48177 0.6526 0.0
H767 H 0.02977 0.89903 0.74575 0.0
H768 H 0.80104 0.81508 0.75861 0.0
N769 N 0.93781 0.7593 0.73493 0.0
C770 C 0.02634 0.82386 0.73971 0.0
C771 C 0.01799 0.7825 0.73774 0.0
C772 C 0.98965 0.83241 0.74031 0.0
C773 C 0.94517 0.7989 0.7381 0.0
C774 C 0.97321 0.75029 0.73579 0.0
N775 N 0.86547 0.77085 0.74169 0.0
C776 C 0.90775 0.80502 0.74124 0.0
C777 C 0.83133 0.81279 0.75354 0.0
C778 C 0.87452 0.84887 0.75158 0.0
C779 C 0.82751 0.77359 0.74924 0.0
C780 C 0.91351 0.84501 0.74617 0.0
H781 H 0.87748 0.87909 0.7553 0.0
O782 O 0.8218 0.68533 0.77225 0.0
O783 O 0.81434 0.6526 0.71058 0.0
O784 O 0.81599 0.70902 0.66556 0.0
O785 O 0.84328 0.74808 0.70275 0.0
O786 O 0.78431 0.6762 0.73531 0.0
O787 O 0.88653 0.68552 0.76904 0.0
O788 O 0.88648 0.67654 0.62968 0.0
O789 O 0.88842 0.71591 0.68896 0.0
O790 O 0.88981 0.65984 0.73222 0.0
O791 O 0.85179 0.61588 0.69917 0.0
O792 O 0.9204 0.69247 0.66581 0.0
O793 O 0.82467 0.682 0.6279 0.0
C794 C 0.77594 0.64777 0.71929 0.0
C795 C 0.95786 0.87921 0.74681 0.0
C796 C 0.99585 0.87282 0.74413 0.0
C797 C 0.85252 0.67946 0.78555 0.0
C798 C 0.8644 0.69708 0.81188 0.0
C799 C 0.87532 0.73944 0.81331 0.0
C800 C 0.86315 0.67081 0.83607 0.0
C801 C 0.86984 0.68588 0.86204 0.0
C802 C 0.88341 0.75511 0.83858 0.0
C803 C 0.88003 0.72854 0.86276 0.0
C804 C 0.82257 0.74084 0.67935 0.0
C805 C 0.92737 0.72239 0.68031 0.0
C806 C 0.85908 0.6838 0.61377 0.0
C807 C 0.84846 0.66322 0.58847 0.0
C808 C 0.81345 0.62099 0.58945 0.0
C809 C 0.87267 0.68624 0.56298 0.0
C810 C 0.86112 0.66754 0.53834 0.0
C811 C 0.80206 0.60208 0.56536 0.0
C812 C 0.82513 0.62522 0.53998 0.0
C813 C 0.87628 0.62439 0.72094 0.0
H814 H 0.87694 0.76029 0.79503 0.0
H815 H 0.85652 0.6387 0.83446 0.0
H816 H 0.89119 0.78772 0.83956 0.0
H817 H 0.88418 0.74137 0.88215 0.0
H818 H 0.79426 0.60288 0.60871 0.0
H819 H 0.8998 0.71888 0.56233 0.0
H820 H 0.77438 0.56969 0.56625 0.0
H821 H 0.81333 0.61027 0.52154 0.0
Gd822 Gd 0.31898 0.17448 0.73513 0.0
Gd823 Gd 0.37354 0.2087 0.66289 0.0
C824 C 0.49044 0.1804 0.64435 0.0
C825 C 0.55611 0.25159 0.63599 0.0
C826 C 0.47991 0.24195 0.64584 0.0
C827 C 0.46193 0.19836 0.6488 0.0
C828 C 0.52695 0.26921 0.63839 0.0
C829 C 0.53784 0.20718 0.63891 0.0
C830 C 0.47022 0.13632 0.64429 0.0
C831 C 0.42266 0.1117 0.64738 0.0
N832 N 0.41596 0.17369 0.65382 0.0
C833 C 0.39589 0.13101 0.65182 0.0
H834 H 0.35931 0.1111 0.65427 0.0
C835 C 0.46504 0.29996 0.63911 0.0
N836 N 0.45052 0.25763 0.64761 0.0
C837 C 0.51144 0.32849 0.63206 0.0
C838 C 0.54276 0.31314 0.63227 0.0
H839 H 0.44075 0.31176 0.63864 0.0
H840 H 0.56036 0.19395 0.63584 0.0
H841 H 0.32112 0.26796 0.73777 0.0
H842 H 0.49084 0.12126 0.64091 0.0
H843 H 0.40653 0.07771 0.64658 0.0
H844 H 0.59247 0.27196 0.63071 0.0
H845 H 0.26184 0.06927 0.75762 0.0
H846 H 0.18595 0.24323 0.76066 0.0
H847 H 0.26771 0.29427 0.74805 0.0
H848 H 0.09906 0.0907 0.77478 0.0
H849 H 0.52295 0.3622 0.62635 0.0
H850 H 0.57863 0.33519 0.62651 0.0
H851 H 0.12252 0.16732 0.76866 0.0
H852 H 0.18258 1.01339 0.77292 0.0
N853 N 0.26983 0.20254 0.74303 0.0
C854 C 0.20899 0.2315 0.75537 0.0
C855 C 0.25522 0.26037 0.74858 0.0
C856 C 0.19342 0.18773 0.75649 0.0
C857 C 0.22528 0.17402 0.75062 0.0
C858 C 0.28542 0.24524 0.74277 0.0
N859 N 0.24488 0.11939 0.7512 0.0
C860 C 0.21229 0.13104 0.75459 0.0
C861 C 0.19037 0.0463 0.76763 0.0
C862 C 0.1559 0.0575 0.76973 0.0
C863 C 0.23511 0.07793 0.7589 0.0
C864 C 0.16683 0.10042 0.76383 0.0
H865 H 0.12134 0.03302 0.7768 0.0
O866 O 0.34495 0.1499 0.76945 0.0
O867 O 0.3746 0.18179 0.70604 0.0
O868 O 0.31423 0.14017 0.66809 0.0
O869 O 0.27086 0.124 0.71015 0.0
O870 O 0.34136 0.12519 0.73329 0.0
O871 O 0.33478 0.20361 0.77334 0.0
O872 O 0.36881 0.2436 0.62447 0.0
O873 O 0.31855 0.20261 0.69186 0.0
O874 O 0.37614 0.24393 0.72982 0.0
O875 O 0.42051 0.25927 0.6883 0.0
O876 O 0.35053 0.25791 0.66406 0.0
O877 O 0.33699 0.1749 0.62947 0.0
C878 C 0.37361 0.14667 0.7139 0.0
C879 C 0.13426 0.11375 0.76794 0.0
C880 C 0.1476 0.15737 0.76444 0.0
C881 C 0.3469 0.17679 0.78561 0.0
C882 C 0.32994 0.1589 0.81494 0.0
C883 C 0.28665 0.12306 0.82132 0.0
C884 C 0.35801 0.17605 0.83675 0.0
C885 C 0.34293 0.15698 0.86464 0.0
C886 C 0.2721 0.10342 0.84858 0.0
C887 C 0.30014 0.11976 0.86999 0.0
C888 C 0.27795 0.11498 0.6856 0.0
C889 C 0.31793 0.23681 0.68325 0.0
C890 C 0.34716 0.20949 0.61259 0.0
C891 C 0.36488 0.21108 0.58456 0.0
C892 C 0.40984 0.21876 0.57987 0.0
C893 C 0.3358 0.20214 0.56268 0.0
C894 C 0.35127 0.20007 0.53618 0.0
C895 C 0.42545 0.21678 0.55381 0.0
C896 C 0.39634 0.20696 0.53223 0.0
C897 C 0.41282 0.26877 0.71254 0.0
H898 H 0.26429 0.10971 0.80522 0.0
H899 H 0.39123 0.2042 0.83201 0.0
H900 H 0.23899 0.07515 0.85313 0.0
H901 H 0.28819 0.10305 0.89083 0.0
H902 H 0.43257 0.22544 0.59646 0.0
H903 H 0.30104 0.19618 0.56645 0.0
H904 H 0.45995 0.22192 0.55047 0.0
H905 H 0.40891 0.20353 0.5127 0.0
Gd906 Gd 0.83049 0.19259 0.66738 0.0
Gd907 Gd 0.84389 0.1583 0.74117 0.0
C908 C 0.98518 0.17786 0.76312 0.0
C909 C 0.97148 0.10483 0.77297 0.0
C910 C 0.90899 0.11911 0.76127 0.0
C911 C 0.93868 0.16235 0.758 0.0
C912 C 0.92462 0.08976 0.76969 0.0
C913 C 1.00176 0.14888 0.76966 0.0
C914 C 0.01308 0.22185 0.76257 0.0
C915 C 0.99389 0.24884 0.75822 0.0
N916 N 0.92132 0.18923 0.7517 0.0
C917 C 0.94756 0.23184 0.75314 0.0
H918 H 0.93345 0.25321 0.74942 0.0
C919 C 0.83214 0.06414 0.76611 0.0
N920 N 0.86407 0.10592 0.75822 0.0
C921 C 0.84584 0.03362 0.77433 0.0
C922 C 0.8924 0.04638 0.7756 0.0
H923 H 0.79614 0.05441 0.76541 0.0
H924 H 0.03754 0.16018 0.77318 0.0
H925 H 0.73873 0.09924 0.66015 0.0
H926 H 0.04898 0.2351 0.7664 0.0
H927 H 0.01486 0.2828 0.75847 0.0
H928 H 0.98434 0.08279 0.779 0.0
H929 H 0.88182 0.29705 0.64341 0.0
H930 H 0.62722 0.12207 0.63991 0.0
H931 H 0.6582 0.07216 0.6494 0.0
H932 H 0.69632 0.27453 0.62797 0.0
H933 H 0.8205 1.00036 0.77974 0.0
H934 H 0.90296 0.02276 0.78213 0.0
H935 H 0.64116 0.19769 0.63338 0.0
H936 H 0.86007 0.35281 0.62882 0.0
N937 N 0.75308 0.16384 0.65759 0.0
C938 C 0.66248 0.13413 0.64495 0.0
C939 C 0.67995 0.1059 0.6501 0.0
C940 C 0.69141 0.17785 0.64489 0.0
C941 C 0.73738 0.19195 0.65085 0.0
C942 C 0.72568 0.12142 0.65621 0.0
N943 N 0.81311 0.24696 0.65056 0.0
C944 C 0.76842 0.235 0.64734 0.0
C945 C 0.83388 0.31986 0.63426 0.0
C946 C 0.7877 0.30842 0.63256 0.0
C947 C 0.8461 0.2884 0.64275 0.0
C948 C 0.75437 0.26539 0.63842 0.0
H949 H 0.77832 0.33276 0.62569 0.0
O950 O 0.8854 0.21691 0.63469 0.0
O951 O 0.87635 0.18703 0.69848 0.0
O952 O 0.85626 0.2269 0.73454 0.0
O953 O 0.8288 0.24084 0.69238 0.0
O954 O 0.90278 0.24315 0.67083 0.0
O955 O 0.82012 0.16471 0.62863 0.0
O956 O 0.79177 0.12881 0.77562 0.0
O957 O 0.79782 0.16357 0.71018 0.0
O958 O 0.81669 0.12365 0.67403 0.0
O959 O 0.8447 0.10978 0.716 0.0
O960 O 0.77148 0.10785 0.73779 0.0
O961 O 0.84987 0.19041 0.7775 0.0
C962 C 0.91186 0.22239 0.69106 0.0
C963 C 0.70793 0.25167 0.6345 0.0
C964 C 0.67651 0.20793 0.63761 0.0
C965 C 0.86134 0.19088 0.61764 0.0
C966 C 0.86682 0.20991 0.58802 0.0
C967 C 0.86105 0.24586 0.58138 0.0
C968 C 0.88027 0.19404 0.56638 0.0
C969 C 0.88862 0.21476 0.53851 0.0
C970 C 0.87 0.2668 0.55435 0.0
C971 C 0.88406 0.25181 0.53325 0.0
C972 C 0.84467 0.25057 0.71686 0.0
C973 C 0.76198 0.12851 0.71776 0.0
C974 C 0.8126 0.15933 0.79062 0.0
C975 C 0.81459 0.14617 0.82042 0.0
C976 C 0.82658 0.11425 0.82822 0.0
C977 C 0.80352 0.16464 0.84132 0.0
C978 C 0.80436 0.15097 0.86975 0.0
C979 C 0.82676 0.10023 0.85609 0.0
C980 C 0.81566 0.11823 0.87665 0.0
C981 C 0.82854 0.10003 0.69156 0.0
H982 H 0.85014 0.25821 0.59718 0.0
H983 H 0.88352 0.16552 0.57123 0.0
H984 H 0.86612 0.295 0.54971 0.0
H985 H 0.89118 0.26938 0.51258 0.0
H986 H 0.8356 0.09991 0.81278 0.0
H987 H 0.79522 0.18998 0.83545 0.0
H988 H 0.83573 0.07532 0.86181 0.0
H989 H 0.81619 0.10661 0.89812 0.0
C990 C 0.35617 0.86748 0.08215 0.0
C991 C 0.31389 0.86722 0.07967 0.0
C992 C 0.39821 0.90413 0.07224 0.0
C993 C 0.39962 0.94228 0.06002 0.0
H994 H 0.35655 0.83886 0.09152 0.0
H995 H 0.42983 0.90305 0.07505 0.0
S996 S 0.29887 0.95722 0.04615 0.0
N997 N 0.27661 0.9068 0.06028 0.0
N998 N 0.35494 0.9772 0.04601 0.0
C999 C 0.35766 0.94234 0.05765 0.0
C1000 C 0.31504 0.90446 0.06619 0.0
C1001 C 0.15832 0.50643 0.05539 0.0
C1002 C 0.15242 0.46504 0.06136 0.0
C1003 C 0.12109 0.51272 0.04869 0.0
C1004 C 0.07734 0.47764 0.04763 0.0
H1005 H 0.19115 0.53374 0.05753 0.0
H1006 H 0.12607 0.54496 0.04587 0.0
S1007 S 0.04653 0.36339 0.05839 0.0
N1008 N 0.10177 0.38907 0.0631 0.0
N1009 N 0.03123 0.40058 0.05109 0.0
C1010 C 0.07195 0.43631 0.05203 0.0
C1011 C 0.1098 0.43007 0.05862 0.0
C1012 C 0.55476 0.70473 0.0488 0.0
C1013 C 0.53883 0.70594 0.0753 0.0
C1014 C 0.54616 0.66577 0.04022 0.0
C1015 C 0.52211 0.62698 0.05809 0.0
H1016 H 0.57511 0.73417 0.03501 0.0
H1017 H 0.55983 0.66619 0.01992 0.0
S1018 S 0.46869 0.61254 0.12816 0.0
N1019 N 0.49383 0.66458 0.11804 0.0
N1020 N 0.47958 0.59187 0.10252 0.0
C1021 C 0.5049 0.62774 0.08423 0.0
C1022 C 0.51274 0.66709 0.09267 0.0
C1023 C 0.83155 0.36076 0.9998 0.0
C1024 C 0.84536 0.33168 0.99248 0.0
C1025 C 0.86325 0.39998 1.00836 0.0
C1026 C 0.91005 0.41182 1.00953 0.0
H1027 H 0.79621 0.35343 0.99841 0.0
H1028 H 0.85126 0.42162 1.01345 0.0
S1029 S 0.96181 0.34387 0.99674 0.0
N1030 N 0.90768 0.31533 0.99027 0.0
N1031 N 0.96693 0.38871 1.0055 0.0
C1032 C 0.9236 0.38215 1.00328 0.0
C1033 C 0.89139 0.34222 0.995 0.0
C1034 C 0.67568 0.53459 0.01961 0.0
C1035 C 0.71209 0.57652 1.01553 0.0
C1036 C 0.63074 0.52669 0.02458 0.0
C1037 C 0.62146 0.56069 0.02547 0.0
H1038 H 0.68175 0.50827 1.01688 0.0
H1039 H 0.60309 0.49429 0.02559 0.0
S1040 S 0.70624 0.67548 0.01972 0.0
N1041 N 0.73719 0.65159 1.01589 0.0
N1042 N 0.65241 0.63711 0.02452 0.0
C1043 C 0.65806 0.60239 0.02336 0.0
C1044 C 0.70365 0.61022 0.01878 0.0
C1045 C 0.492 0.16978 0.96806 0.0
C1046 C 0.46299 0.17942 0.98319 0.0
C1047 C 0.49811 0.13443 0.97751 0.0
C1048 C 0.47595 0.10812 1.00262 0.0
H1049 H 0.5121 0.19116 0.94977 0.0
H1050 H 0.52243 0.12923 0.96602 0.0
S1051 S 0.39116 0.11603 0.04743 0.0
N1052 N 0.40766 0.1568 0.02247 0.0
N1053 N 0.41988 0.09113 0.04053 0.0
C1054 C 0.4447 0.11587 1.01689 0.0
C1055 C 0.43798 0.15132 1.00707 0.0
C1056 C 0.71835 0.14577 0.99165 0.0
C1057 C 0.7162 0.1841 0.98876 0.0
C1058 C 0.6792 0.10597 1.00057 0.0
C1059 C 0.63629 0.10275 1.00734 0.0
H1060 H 0.75065 0.14661 0.9873 0.0
H1061 H 0.68257 0.07737 1.00228 0.0
S1062 S 0.61214 0.1938 1.00136 0.0
N1063 N 0.66732 0.21616 0.99206 0.0
N1064 N 0.59438 0.14216 1.0088 0.0
C1065 C 0.63383 0.141 1.00413 0.0
C1066 C 0.67355 0.18135 0.99492 0.0
C1067 C 0.86197 0.54603 1.0012 0.0
C1068 C 0.86283 0.5855 0.99975 0.0
C1069 C 0.90066 0.5422 1.00809 0.0
C1070 C 0.94133 0.57793 1.01349 0.0
H1071 H 0.83112 0.51811 0.99703 0.0
H1072 H 0.89921 0.51153 1.00819 0.0
S1073 S 0.95884 0.68709 1.01505 0.0
N1074 N 0.90527 0.65954 1.00711 0.0
N1075 N 0.97949 0.6534 0.0179 0.0
C1076 C 0.94218 0.61735 1.01245 0.0
C1077 C 0.9024 0.62084 1.00626 0.0
C1078 C 0.52294 0.35332 1.00105 0.0
C1079 C 0.47996 0.32101 0.99516 0.0
C1080 C 0.52716 0.38934 1.01209 0.0
C1081 C 0.48858 0.39444 1.01706 0.0
H1082 H 0.55346 0.35113 0.99647 0.0
H1083 H 0.56092 0.41406 1.01574 0.0
S1084 S 0.36811 0.31645 1.00807 0.0
N1085 N 0.39799 0.29456 0.99748 0.0
N1086 N 0.40585 0.36236 1.01751 0.0
C1087 C 0.4454 0.3616 1.01213 0.0
C1088 C 0.44111 0.32487 1.00132 0.0
C1089 C 0.16386 0.72317 0.04694 0.0
C1090 C 0.17926 0.72379 0.07381 0.0
C1091 C 0.13133 0.68476 0.03804 0.0
C1092 C 0.11254 0.64558 0.05576 0.0
H1093 H 0.17627 0.75274 0.03296 0.0
H1094 H 0.11978 0.68603 1.01745 0.0
S1095 S 0.14355 0.62934 0.12737 0.0
N1096 N 0.17524 0.6812 0.11733 0.0
N1097 N 0.1131 0.60966 0.10102 0.0
C1098 C 0.12801 0.64573 0.0825 0.0
C1099 C 0.16164 0.6846 0.09139 0.0
C1100 C 0.29897 0.41927 0.07211 0.0
C1101 C 0.29442 0.45588 0.07261 0.0
C1102 C 0.34144 0.42278 0.0646 0.0
C1103 C 0.38039 0.46299 0.05709 0.0
H1104 H 0.2695 0.38791 0.07734 0.0
H1105 H 0.34401 0.39388 0.06498 0.0
S1106 S 0.38532 0.5683 0.05609 0.0
N1107 N 0.33147 0.53309 0.06577 0.0
N1108 N 0.41108 0.54003 0.05143 0.0
C1109 C 0.37578 0.49972 0.05748 0.0
C1110 C 0.3328 0.49606 0.06534 0.0
C1111 C 0.53325 0.86049 0.09865 0.0
C1112 C 0.56339 0.85184 0.08385 0.0
C1113 C 0.52907 0.89722 0.09021 0.0
C1114 C 0.55523 0.92641 0.06689 0.0
H1115 H 0.51131 0.83769 0.11595 0.0
H1116 H 0.50371 0.90173 0.10115 0.0
S1117 S 0.64293 0.92051 0.0235 0.0
N1118 N 0.62214 0.87675 0.04636 0.0
N1119 N 0.6153 0.94617 0.03096 0.0
C1120 C 0.58726 0.91918 0.05302 0.0
C1121 C 0.59113 0.88176 0.06141 0.0
C1122 C 0.03077 0.195 0.41218 0.0
C1123 C 0.98783 0.19349 0.41512 0.0
C1124 C 0.07101 0.2333 0.40203 0.0
C1125 C 0.07011 0.27194 0.39474 0.0
H1126 H 0.0331 0.1661 0.41761 0.0
H1127 H 0.10315 0.23282 0.40056 0.0
S1128 S 0.96655 0.28514 0.39769 0.0
N1129 N 0.94706 0.23387 0.4086 0.0
N1130 N 0.02237 0.30593 0.3912 0.0
C1131 C 0.02747 0.27079 0.39783 0.0
C1132 C 0.98651 0.2317 0.40757 0.0
C1133 C 0.77069 0.75014 0.38327 0.0
C1134 C 0.81535 0.78116 0.38721 0.0
C1135 C 0.73601 0.76112 0.3792 0.0
C1136 C 0.74531 0.80367 0.37815 0.0
H1137 H 0.76212 0.71687 0.38507 0.0
H1138 H 0.70137 0.73601 0.37772 0.0
S1139 S 0.85774 0.89688 0.38594 0.0
N1140 N 0.86781 0.85599 0.38881 0.0
N1141 N 0.80286 0.87709 0.38065 0.0
C1142 C 0.79048 0.83531 0.38063 0.0
C1143 C 0.8256 0.82395 0.3851 0.0
C1144 C 0.16821 1.00931 0.40061 0.0
C1145 C 0.21129 0.03785 0.40887 0.0
C1146 C 0.16034 0.97079 0.39172 0.0
C1147 C 0.19447 0.9584 0.39226 0.0
H1148 H 0.14028 0.01652 0.40149 0.0
H1149 H 0.12696 0.95012 0.3851 0.0
S1150 S 0.31488 0.02482 0.40824 0.0
N1151 N 0.29013 0.05388 0.41333 0.0
N1152 N 0.27443 0.98023 0.39872 0.0
C1153 C 0.23813 0.98749 0.39943 0.0
C1154 C 0.24668 0.02742 0.4073 0.0
C1155 C 0.55843 0.67804 0.32304 0.0
C1156 C 0.51109 0.66433 0.32501 0.0
C1157 C 0.59069 0.71756 0.33057 0.0
C1158 C 0.57714 0.74494 0.34104 0.0
H1159 H 0.57069 0.65789 0.31562 0.0
H1160 H 0.62656 0.72633 0.32859 0.0
S1161 S 0.45734 0.7242 0.35067 0.0
N1162 N 0.45241 0.68185 0.33791 0.0
N1163 N 0.51265 0.75504 0.35332 0.0
C1164 C 0.52981 0.73124 0.34375 0.0
C1165 C 0.49696 0.6913 0.33548 0.0
C1166 C 0.37472 0.94577 0.35239 0.0
C1167 C 0.386 0.9137 0.34904 0.0
C1168 C 0.329 0.93598 0.35671 0.0
C1169 C 0.29335 0.89366 0.35861 0.0
H1170 H 0.40123 0.97888 0.34962 0.0
H1171 H 0.32132 0.96188 0.35735 0.0
S1172 S 0.30607 0.798 0.35324 0.0
N1173 N 0.359 0.83813 0.34938 0.0
N1174 N 0.27284 0.81929 0.35801 0.0
C1175 C 0.30459 0.86101 0.35703 0.0
C1176 C 0.35113 0.87115 0.3523 0.0
C1177 C 0.11332 0.48507 0.341 0.0
C1178 C 0.13395 0.51109 0.31557 0.0
C1179 C 0.121 0.45079 0.35055 0.0
C1180 C 0.14893 0.44072 0.33477 0.0
H1181 H 0.09276 0.49261 0.35418 0.0
H1182 H 0.10582 0.43266 0.3707 0.0
S1183 S 0.20956 0.49762 0.26637 0.0
N1184 N 0.18292 0.52378 0.27466 0.0
N1185 N 0.19578 0.45824 0.29201 0.0
C1186 C 0.16779 0.46494 0.30867 0.0
C1187 C 0.16061 0.50037 0.29917 0.0
C1188 C 0.342 0.51025 0.32974 0.0
C1189 C 0.38531 0.51412 0.32349 0.0
C1190 C 0.30325 0.47016 0.33857 0.0
C1191 C 0.30622 0.43215 0.34171 0.0
H1192 H 0.33804 0.53855 0.32747 0.0
H1193 H 0.27062 0.46892 0.34244 0.0
S1194 S 0.41238 0.42513 0.33059 0.0
N1195 N 0.42922 0.47663 0.32326 0.0
N1196 N 0.35675 0.40154 0.33891 0.0
C1197 C 0.34951 0.43578 0.33596 0.0
C1198 C 0.38891 0.47659 0.32719 0.0
C1199 C 0.53656 0.88482 0.33165 0.0
C1200 C 0.53779 0.92367 0.33436 0.0
C1201 C 0.5739 0.87842 0.33827 0.0
C1202 C 0.61386 0.91109 0.34726 0.0
H1203 H 0.50643 0.85932 0.3245 0.0
H1204 H 0.5722 0.84844 0.33525 0.0
S1205 S 0.63209 0.01715 0.35986 0.0
N1206 N 0.57934 0.99287 0.34999 0.0
N1207 N 0.65213 0.98336 0.35863 0.0
C1208 C 0.61525 0.94995 0.35007 0.0
C1209 C 0.57635 0.95547 0.34482 0.0
C1210 C 0.13033 0.65018 0.35222 0.0
C1211 C 0.15054 0.65349 0.32596 0.0
C1212 C 0.13584 0.68671 0.36309 0.0
C1213 C 0.16146 0.72768 0.34795 0.0
H1214 H 0.10912 0.61904 0.36405 0.0
H1215 H 0.11851 0.68268 0.38293 0.0
S1216 S 0.22478 0.7538 0.27947 0.0
N1217 N 0.20002 0.7012 0.28619 0.0
N1218 N 0.2095 0.76958 0.30619 0.0
C1219 C 0.18279 0.73141 0.32205 0.0
C1220 C 0.17761 0.6944 0.31117 0.0
C1221 C 0.83682 0.05066 0.38328 0.0
C1222 C 0.85517 0.04884 0.40907 0.0
C1223 C 0.80341 1.01335 0.37361 0.0
C1224 C 0.78654 0.97288 0.38956 0.0
H1225 H 0.84766 0.08127 0.37081 0.0
H1226 H 0.78976 0.01636 0.35388 0.0
S1227 S 0.82622 0.9502 0.45712 0.0
N1228 N 0.85638 1.00264 0.4492 0.0
N1229 N 0.79268 0.93306 0.43156 0.0
C1230 C 0.80521 0.97058 0.41505 0.0
C1231 C 0.83973 1.00836 0.42464 0.0
C1232 C 0.96606 0.74129 0.39173 0.0
C1233 C 0.95746 0.77251 0.40071 0.0
C1234 C 0.01108 0.74924 0.38645 0.0
C1235 C 0.04875 0.78951 0.38834 0.0
H1236 H 0.9378 0.71057 0.38893 0.0
H1237 H 0.01654 0.72376 0.38077 0.0
S1238 S 0.04318 0.88115 0.41189 0.0
N1239 N 0.98912 0.84417 0.4121 0.0
N1240 N 0.07393 0.86019 0.4011 0.0
C1241 C 0.04023 0.82114 0.39694 0.0
C1242 C 0.99447 0.81244 0.40318 0.0
C1243 C 0.25556 0.20991 0.39408 0.0
C1244 C 0.23065 0.18184 0.41805 0.0
C1245 C 0.25248 0.24707 0.3858 0.0
C1246 C 0.22462 0.25758 0.40127 0.0
H1247 H 0.27662 0.20243 0.3813 0.0
H1248 H 0.27099 0.26706 0.36672 0.0
S1249 S 0.15488 0.19627 0.4665 0.0
N1250 N 0.17913 0.16824 0.45786 0.0
N1251 N 0.17364 0.23838 0.44237 0.0
C1252 C 0.20156 0.23111 0.42604 0.0
C1253 C 0.20454 0.19315 0.43443 0.0
C1254 C 0.68963 0.53286 0.74934 0.0
C1255 C 0.64707 0.53167 0.74592 0.0
C1256 C 0.73139 0.56944 0.73896 0.0
C1257 C 0.7322 0.60658 0.72525 0.0
H1258 H 0.69045 0.50497 0.75974 0.0
H1259 H 0.76325 0.56914 0.74251 0.0
S1260 S 0.63047 0.61865 0.70872 0.0
N1261 N 0.60886 0.56889 0.72408 0.0
N1262 N 0.68661 0.63964 0.7091 0.0
C1263 C 0.68993 0.60571 0.72196 0.0
C1264 C 0.64762 0.56773 0.73092 0.0
C1265 C 0.44033 0.08706 0.71915 0.0
C1266 C 0.48477 0.11925 0.7222 0.0
C1267 C 0.4048 0.09677 0.71496 0.0
C1268 C 0.41303 0.1391 0.71292 0.0
H1269 H 0.43266 0.05399 0.7218 0.0
H1270 H 0.37036 0.07087 0.71416 0.0
S1271 S 0.52446 0.23484 0.71842 0.0
N1272 N 0.53595 0.1948 0.72202 0.0
N1273 N 0.46921 0.2135 0.71382 0.0
C1274 C 0.45791 0.17181 0.71468 0.0
C1275 C 0.49394 0.16176 0.71919 0.0
C1276 C 0.8355 0.32968 0.75789 0.0
C1277 C 0.86685 0.36941 0.74298 0.0
C1278 C 0.82793 0.29122 0.74906 0.0
C1279 C 0.85141 0.29131 0.72499 0.0
H1280 H 0.81729 0.3285 0.77672 0.0
H1281 H 0.80382 0.26124 0.76123 0.0
S1282 S 0.94052 0.38692 0.68046 0.0
N1283 N 0.92331 0.40653 0.70407 0.0
N1284 N 0.90982 0.33446 0.68775 0.0
C1285 C 0.8832 0.33083 0.71014 0.0
C1286 C 0.89071 0.36988 0.71906 0.0
C1287 C 0.19846 0.99558 0.6859 0.0
C1288 C 0.17982 0.9936 0.65992 0.0
C1289 C 0.2293 0.03496 0.69437 0.0
C1290 C 0.24331 0.07386 0.677 0.0
H1291 H 0.19008 0.96641 0.69947 0.0
H1292 H 0.2435 0.03478 0.71424 0.0
S1293 S 0.20276 0.08646 0.60765 0.0
N1294 N 0.17577 0.03434 0.61765 0.0
N1295 N 0.23493 0.10792 0.63301 0.0
C1296 C 0.22465 0.07233 0.65112 0.0
C1297 C 0.19262 0.03238 0.64274 0.0
C1298 C 0.04035 0.2821 0.68583 0.0
C1299 C 0.05149 0.24988 0.68281 0.0
C1300 C 0.99471 0.27237 0.69027 0.0
C1301 C 0.95909 0.22999 0.69254 0.0
H1302 H 0.0669 0.31519 0.68292 0.0
H1303 H 0.98702 0.29828 0.69089 0.0
S1304 S 0.9716 0.13409 0.6877 0.0
N1305 N 0.02452 0.17422 0.68364 0.0
N1306 N 0.93843 0.15549 0.69229 0.0
C1307 C 0.97022 0.19725 0.69109 0.0
C1308 C 0.01667 0.20732 0.68634 0.0
C1309 C 0.82182 0.83413 0.63419 0.0
C1310 C 0.79149 0.8416 0.64981 0.0
C1311 C 0.82959 0.79946 0.64283 0.0
C1312 C 0.80765 0.77167 0.66751 0.0
H1313 H 0.8415 0.85659 0.61615 0.0
H1314 H 0.85484 0.79587 0.63104 0.0
S1315 S 0.71962 0.77363 0.713 0.0
N1316 N 0.73533 0.81543 0.68895 0.0
N1317 N 0.75017 0.75081 0.70528 0.0
C1318 C 0.77502 0.77722 0.68212 0.0
C1319 C 0.76686 0.81207 0.67323 0.0
C1320 C 0.05262 0.80704 0.66137 0.0
C1321 C 0.05106 0.84559 0.65637 0.0
C1322 C 0.01258 0.76767 0.66943 0.0
C1323 C 0.96942 0.76525 0.67354 0.0
H1324 H 0.08509 0.80737 0.65935 0.0
H1325 H 0.0155 0.73882 0.6728 0.0
S1326 S 0.94664 0.85694 0.66124 0.0
N1327 N 1.00238 0.8785 0.65411 0.0
N1328 N 0.92794 0.80541 0.67046 0.0
C1329 C 0.96752 0.80367 0.66827 0.0
C1330 C 0.00805 0.8435 0.65942 0.0
C1331 C 0.24347 0.28889 0.67053 0.0
C1332 C 0.20033 0.2542 0.66801 0.0
C1333 C 0.281 0.2826 0.6766 0.0
C1334 C 0.27622 0.24131 0.68119 0.0
H1335 H 0.24804 0.32095 0.66799 0.0
H1336 H 0.31413 0.31026 0.67761 0.0
S1337 S 0.16927 0.14 0.67752 0.0
N1338 N 0.15428 0.17749 0.67071 0.0
N1339 N 0.22434 0.16526 0.68269 0.0
C1340 C 0.23277 0.20633 0.67925 0.0
C1341 C 0.19488 0.2129 0.6726 0.0
C1342 C 0.8392 0.02413 0.64819 0.0
C1343 C 0.80962 0.98368 0.66297 0.0
C1344 C 0.84574 0.06169 0.65788 0.0
C1345 C 0.82318 0.06009 0.68281 0.0
H1346 H 0.85676 0.02655 0.62876 0.0
H1347 H 0.86834 0.09222 0.6457 0.0
S1348 S 0.73953 0.96211 0.72801 0.0
N1349 N 0.75613 0.94424 0.70301 0.0
N1350 N 0.76823 0.01474 0.72119 0.0
C1351 C 0.79357 0.01989 0.69776 0.0
C1352 C 0.78687 0.98167 0.68786 0.0
C1353 C 0.4992 0.34873 0.75553 0.0
C1354 C 0.51372 0.38839 0.73894 0.0
C1355 C 0.46656 0.31022 0.74687 0.0
C1356 C 0.44753 0.30983 0.72114 0.0
H1357 H 0.51302 0.34763 0.77546 0.0
H1358 H 0.45631 0.28048 0.76034 0.0
S1359 S 0.47105 0.40517 0.67113 0.0
N1360 N 0.50447 0.4249 0.69636 0.0
N1361 N 0.44365 0.35283 0.68003 0.0
C1362 C 0.46155 0.34925 0.70449 0.0
C1363 C 0.49452 0.38843 0.71338 0.0
C1364 C 0.66479 0.14948 0.73436 0.0
C1365 C 0.62637 0.10945 0.73346 0.0
C1366 C 0.70895 0.15671 0.72705 0.0
C1367 C 0.71576 0.12373 0.71917 0.0
H1368 H 0.66045 0.17518 0.74073 0.0
H1369 H 0.73796 0.18758 0.72879 0.0
S1370 S 0.6257 0.01496 0.71056 0.0
N1371 N 0.59729 0.03883 0.72016 0.0
N1372 N 0.68054 0.05022 0.71021 0.0
C1373 C 0.67745 0.08382 0.71793 0.0
C1374 C 0.63258 0.0773 0.72393 0.0
C1375 C 0.91576 0.54162 0.72691 0.0
C1376 C 0.89261 0.51544 0.75183 0.0
C1377 C 0.91299 0.57876 0.71796 0.0
C1378 C 0.88712 0.59117 0.73364 0.0
H1379 H 0.93483 0.53239 0.71382 0.0
H1380 H 0.93014 0.59722 0.69823 0.0
S1381 S 0.82289 0.53549 0.80135 0.0
N1382 N 0.84512 0.50578 0.7928 0.0
N1383 N 0.84031 0.57598 0.77608 0.0
C1384 C 0.86604 0.56673 0.75936 0.0
C1385 C 0.8687 0.52873 0.76844 0.0
C1386 C 0.48946 0.93567 0.2562 0.0
C1387 C 0.5123 0.95552 0.27879 0.0
C1388 C 0.50243 0.9571 0.22897 0.0
C1389 C 0.5399 0.99867 0.22324 0.0
H1390 H 0.45815 0.9054 0.25999 0.0
H1391 H 0.48038 0.94241 0.21287 0.0
S1392 S 0.61981 0.0584 0.27422 0.0
N1393 N 0.57876 0.01551 0.29303 0.0
N1394 N 0.60685 0.0535 0.24176 0.0
C1395 C 0.56739 0.01557 0.24519 0.0
C1396 C 0.55282 0.99452 0.273 0.0
C1397 C 0.04892 0.51136 0.2686 0.0
C1398 C 0.09586 0.54047 0.26495 0.0
C1399 C 0.02369 0.49437 0.24599 0.0
C1400 C 0.04449 0.50529 0.21873 0.0
H1401 H 0.03123 0.5034 0.2889 0.0
H1402 H 0.98717 0.47349 0.24993 0.0
S1403 S 0.1681 0.57912 0.19903 0.0
N1404 N 0.1626 0.57987 0.23261 0.0
N1405 N 0.11667 0.54559 0.19036 0.0
C1406 C 0.09212 0.53355 0.21518 0.0
C1407 C 0.11737 0.55163 0.23818 0.0
C1408 C 0.42141 0.53128 0.25028 0.0
C1409 C 0.45211 0.54298 0.2713 0.0
C1410 C 0.42793 0.51226 0.22812 0.0
C1411 C 0.46533 0.50428 0.22635 0.0
H1412 H 0.39312 0.53804 0.2506 0.0
H1413 H 0.40361 0.50372 0.21231 0.0
S1414 S 0.55588 0.53062 0.27605 0.0
N1415 N 0.52114 0.54596 0.2888 0.0
N1416 N 0.53381 0.51085 0.24756 0.0
C1417 C 0.49595 0.51588 0.24745 0.0
C1418 C 0.48926 0.53507 0.26976 0.0
C1419 C 0.96712 0.52144 0.79782 0.0
C1420 C 0.92543 0.48336 0.80318 0.0
C1421 C 0.99421 0.53967 0.8195 0.0
C1422 C 0.98091 0.52009 0.84732 0.0
H1423 H 0.98 0.53589 0.77665 0.0
H1424 H 0.02669 0.5685 0.81428 0.0
S1425 S 0.87178 0.42158 0.87188 0.0
N1426 N 0.86935 0.42917 0.838 0.0
N1427 N 0.92115 0.46115 0.87867 0.0
C1428 C 0.93779 0.48311 0.85288 0.0
C1429 C 0.90989 0.46534 0.83084 0.0
C1430 C 0.57968 0.48197 0.82582 0.0
C1431 C 0.57899 0.50225 0.79931 0.0
C1432 C 0.56469 0.49082 0.85017 0.0
C1433 C 0.54875 0.52077 0.84905 0.0
H1434 H 0.58757 0.45596 0.82744 0.0
H1435 H 0.56208 0.47157 0.86963 0.0
S1436 S 0.5477 0.58818 0.78546 0.0
N1437 N 0.56461 0.55623 0.77413 0.0
N1438 N 0.54123 0.57614 0.8195 0.0
C1439 C 0.55295 0.54466 0.82301 0.0
C1440 C 0.56682 0.53463 0.79828 0.0
C1441 C 0.57072 0.09717 0.81223 0.0
C1442 C 0.56863 0.07559 0.78961 0.0
C1443 C 0.56143 0.07618 0.83957 0.0
C1444 C 0.55085 0.03305 0.8453 0.0
H1445 H 0.5743 0.12888 0.80851 0.0
H1446 H 0.55843 0.09277 0.8559 0.0
S1447 S 0.55398 0.9665 0.79371 0.0
N1448 N 0.56227 1.01125 0.77504 0.0
N1449 N 0.55014 0.97327 0.82632 0.0
C1450 C 0.55569 1.01349 0.82307 0.0
C1451 C 0.56339 0.03441 0.79524 0.0
C1452 C 0.2158 0.32678 0.60667 0.0
C1453 C 0.17625 0.2871 0.61291 0.0
C1454 C 0.22953 0.34692 0.57921 0.0
C1455 C 0.20296 0.32901 0.55704 0.0
H1456 H 0.23366 0.34424 0.6232 0.0
H1457 H 0.25919 0.37842 0.57567 0.0
S1458 S 0.10039 0.22134 0.56293 0.0
N1459 N 0.11564 0.22678 0.59496 0.0
N1460 N 0.1381 0.26572 0.54361 0.0
C1461 C 0.16598 0.28706 0.56295 0.0
C1462 C 0.15349 0.26591 0.59084 0.0
C1463 C 0.71702 0.83753 0.60144 0.0
C1464 C 0.75893 0.87553 0.59852 0.0
C1465 C 0.69163 0.82324 0.57835 0.0
C1466 C 0.70681 0.84683 0.55151 0.0
H1467 H 0.7024 0.82037 0.6219 0.0
H1468 H 0.65874 0.79449 0.58182 0.0
S1469 S 0.8176 0.94645 0.53317 0.0
N1470 N 0.81746 0.93361 0.56682 0.0
N1471 N 0.76897 0.90899 0.52373 0.0
C1472 C 0.75043 0.88342 0.54829 0.0
C1473 C 0.77661 0.89715 0.5717 0.0
C1474 C 0.09657 0.86976 0.58257 0.0
C1475 C 0.11987 0.87058 0.60661 0.0
C1476 C 0.10137 0.85042 0.56014 0.0
C1477 C 0.12988 0.83143 0.56096 0.0
H1478 H 0.07561 0.88527 0.58085 0.0
H1479 H 0.08271 0.8504 0.54204 0.0
S1480 S 0.20021 0.82788 0.61904 0.0
N1481 N 0.17299 0.8521 0.6298 0.0
N1482 N 0.18307 0.81659 0.58794 0.0
C1483 C 0.15328 0.83227 0.58511 0.0
C1484 C 0.148 0.85159 0.60782 0.0
C1485 C 0.64064 0.86024 0.12945 0.0
C1486 C 0.59937 0.82168 0.13426 0.0
C1487 C 0.66713 0.8779 0.15148 0.0
C1488 C 0.65357 0.85728 0.17908 0.0
H1489 H 0.65377 0.87542 0.10842 0.0
H1490 H 0.69941 0.90707 0.14669 0.0
S1491 S 0.5453 0.75712 0.20221 0.0
N1492 N 0.54339 0.76582 0.16835 0.0
N1493 N 0.594 0.79688 0.20963 0.0
C1494 C 0.6108 0.81983 0.1841 0.0
C1495 C 0.58355 0.80258 0.16172 0.0
C1496 C 0.24838 0.82278 0.15819 0.0
C1497 C 0.24427 0.84088 0.13173 0.0
C1498 C 0.23395 0.83164 0.18275 0.0
C1499 C 0.21509 0.85937 0.18189 0.0
H1500 H 0.25865 0.79834 0.15975 0.0
H1501 H 0.23417 0.81399 0.20231 0.0
S1502 S 0.2029 0.91974 0.11817 0.0
N1503 N 0.22208 0.8895 0.1067 0.0
N1504 N 0.20041 0.91021 0.15226 0.0
C1505 C 0.21548 0.88107 0.15568 0.0
C1506 C 0.22858 0.87082 0.13081 0.0
C1507 C 0.19838 0.36548 0.13084 0.0
C1508 C 0.23021 0.40902 0.12504 0.0
C1509 C 0.19391 0.34239 0.15687 0.0
C1510 C 0.22151 0.36184 0.17818 0.0
H1511 H 0.17456 0.35002 0.11564 0.0
H1512 H 0.1667 0.30959 0.16071 0.0
S1513 S 0.31514 0.47413 0.1716 0.0
N1514 N 0.29269 0.47017 0.14125 0.0
N1515 N 0.286 0.42648 0.19024 0.0
C1516 C 0.25595 0.40484 0.17187 0.0
C1517 C 0.26006 0.42845 0.14524 0.0
C1518 C 0.87401 0.65375 0.93863 0.0
C1519 C 0.83528 0.61333 0.94415 0.0
C1520 C 0.88819 0.67498 0.91145 0.0
C1521 C 0.86288 0.65742 0.88882 0.0
H1522 H 0.89082 0.67086 0.95547 0.0
H1523 H 0.91716 0.70692 0.90851 0.0
S1524 S 0.76352 0.54809 0.8926 0.0
N1525 N 0.77735 0.55278 0.92493 0.0
N1526 N 0.80047 0.59367 0.87406 0.0
C1527 C 0.8269 0.61487 0.89396 0.0
C1528 C 0.814 0.59268 0.92158 0.0
C1529 C 0.44472 0.20695 0.90961 0.0
C1530 C 0.42431 0.20996 0.93395 0.0
C1531 C 0.41843 0.18974 0.88726 0.0
C1532 C 0.37087 0.17543 0.88839 0.0
H1533 H 0.48138 0.21921 0.90756 0.0
H1534 H 0.43551 0.18784 0.86894 0.0
S1535 S 0.30253 0.17955 0.94737 0.0
N1536 N 0.35478 0.19832 0.95788 0.0
N1537 N 0.3055 0.1678 0.91597 0.0
C1538 C 0.35047 0.17866 0.91281 0.0
C1539 C 0.37712 0.19545 0.93552 0.0
C1540 C 0.82148 0.20234 0.93579 0.0
C1541 C 0.78469 0.21074 0.93791 0.0
C1542 C 0.8273 0.18329 0.91374 0.0
C1543 C 0.79656 0.17174 0.89264 0.0
H1544 H 0.84678 0.21184 0.95102 0.0
H1545 H 0.85686 0.17841 0.91293 0.0
S1546 S 0.69301 0.18519 0.88943 0.0
N1547 N 0.71625 0.20524 0.91767 0.0
N1548 N 0.72642 0.16863 0.87622 0.0
C1549 C 0.7589 0.1792 0.89484 0.0
C1550 C 0.75304 0.19869 0.9175 0.0
C1551 C 0.24681 0.13571 0.49732 0.0
C1552 C 0.26353 0.1506 0.46945 0.0
C1553 C 0.27449 0.15332 0.51888 0.0
C1554 C 0.31971 0.18715 0.51332 0.0
H1555 H 0.21284 0.10885 0.50244 0.0
H1556 H 0.26112 0.13867 0.53995 0.0
S1557 S 0.376 0.2428 0.44352 0.0
N1558 N 0.32594 0.2036 0.43731 0.0
N1559 N 0.37675 0.23929 0.47758 0.0
C1560 C 0.335 0.20493 0.48542 0.0
C1561 C 0.30717 0.18616 0.46355 0.0
C1562 C 0.88867 0.18478 0.46563 0.0
C1563 C 0.91829 0.16725 0.46615 0.0
C1564 C 0.87955 0.19963 0.48899 0.0
C1565 C 0.89983 0.19805 0.51419 0.0
H1566 H 0.87021 0.18456 0.44741 0.0
H1567 H 0.85495 0.21117 0.48744 0.0
S1568 S 0.98211 0.15673 0.52578 0.0
N1569 N 0.96866 0.14961 0.49354 0.0
N1570 N 0.9533 0.17909 0.5373 0.0
C1571 C 0.93071 0.18161 0.51469 0.0
C1572 C 0.93961 0.16606 0.49076 0.0
C1573 C 0.89631 0.75569 0.47752 0.0
C1574 C 0.89646 0.73487 0.45495 0.0
C1575 C 0.88875 0.7351 0.50484 0.0
C1576 C 0.88208 0.69317 0.51058 0.0
H1577 H 0.89714 0.7863 0.47381 0.0
H1578 H 0.8841 0.75083 0.52119 0.0
S1579 S 0.89216 0.62992 0.45876 0.0
N1580 N 0.89674 0.67332 0.44008 0.0
N1581 N 0.88689 0.63586 0.49143 0.0
C1582 C 0.88877 0.67466 0.48826 0.0
C1583 C 0.89506 0.69525 0.46042 0.0
loop_
_geom_bond_atom_site_label_1
_geom_bond_atom_site_label_2
_geom_bond_distance
_geom_bond_site_symmetry_2
_ccdc_geom_bond_type
C0 N1 1.317 . S
C0 N2 1.348 . S
C0 C3 1.485 . S
N1 C0 1.317 . S
N1 N5 1.370 . S
N2 C0 1.348 . S
N2 C4 1.346 . S
C3 C0 1.485 . S
C3 H7 0.960 . S
C3 H8 0.961 . S
C3 H9 0.960 . S
C4 N2 1.346 . S
C4 N5 1.307 . S
C4 C6 1.486 . S
N5 N1 1.370 . S
N5 C4 1.307 . S
C6 C4 1.486 . S
C6 H10 0.960 . S
C6 H11 0.960 . S
C6 H12 0.959 . S
H7 C3 0.960 . S
H8 C3 0.961 . S
H9 C3 0.960 . S
H10 C6 0.960 . S
H11 C6 0.960 . S
H12 C6 0.959 . S
C13 N14 1.317 . S
C13 N15 1.348 . S
C13 C16 1.485 . S
N14 C13 1.317 . S
N14 N18 1.370 . S
N15 C13 1.348 . S
N15 C17 1.346 . S
C16 C13 1.485 . S
C16 H20 0.960 . S
C16 H21 0.961 . S
C16 H22 0.960 . S
C17 N15 1.346 . S
C17 N18 1.307 . S
C17 C19 1.486 . S
N18 N14 1.370 . S
N18 C17 1.307 . S
C19 C17 1.486 . S
C19 H23 0.960 . S
C19 H24 0.960 . S
C19 H25 0.959 . S
H20 C16 0.960 . S
H21 C16 0.961 . S
H22 C16 0.960 . S
H23 C19 0.960 . S
H24 C19 0.960 . S
H25 C19 0.959 . S
C26 N27 1.317 . S
C26 N28 1.348 . S
C26 C29 1.485 . S
N27 C26 1.317 . S
N27 N31 1.370 . S
N28 C26 1.348 . S
N28 C30 1.346 . S
C29 C26 1.485 . S
C29 H33 0.960 . S
C29 H34 0.961 . S
C29 H35 0.960 . S
C30 N28 1.346 . S
C30 N31 1.307 . S
C30 C32 1.486 . S
N31 N27 1.370 . S
N31 C30 1.307 . S
C32 C30 1.486 . S
C32 H36 0.960 . S
C32 H37 0.960 . S
C32 H38 0.959 . S
H33 C29 0.960 . S
H34 C29 0.961 . S
H35 C29 0.960 . S
H36 C32 0.960 . S
H37 C32 0.960 . S
H38 C32 0.959 . S
C39 N40 1.317 . S
C39 N41 1.348 . S
C39 C42 1.485 . S
N40 C39 1.317 . S
N40 N44 1.370 . S
N41 C39 1.348 . S
N41 C43 1.346 . S
C42 C39 1.485 . S
C42 H46 0.960 . S
C42 H47 0.961 . S
C42 H48 0.960 . S
C43 N41 1.346 . S
C43 N44 1.307 . S
C43 C45 1.486 . S
N44 N40 1.370 . S
N44 C43 1.307 . S
C45 C43 1.486 . S
C45 H49 0.960 . S
C45 H50 0.960 1_455 S
C45 H51 0.959 . S
H46 C42 0.960 . S
H47 C42 0.961 . S
H48 C42 0.960 . S
H49 C45 0.960 . S
H50 C45 0.960 1_655 S
H51 C45 0.959 . S
C52 N53 1.317 . S
C52 N54 1.348 . S
C52 C55 1.485 . S
N53 C52 1.317 . S
N53 N57 1.370 . S
N54 C52 1.348 . S
N54 C56 1.346 . S
C55 C52 1.485 . S
C55 H59 0.960 . S
C55 H60 0.961 . S
C55 H61 0.960 . S
C56 N54 1.346 . S
C56 N57 1.307 . S
C56 C58 1.486 . S
N57 N53 1.370 . S
N57 C56 1.307 . S
C58 C56 1.486 . S
C58 H62 0.960 . S
C58 H63 0.960 . S
C58 H64 0.959 . S
H59 C55 0.960 . S
H60 C55 0.961 . S
H61 C55 0.960 . S
H62 C58 0.960 . S
H63 C58 0.960 . S
H64 C58 0.959 . S
C65 N66 1.317 . S
C65 N67 1.348 . S
C65 C68 1.485 . S
N66 C65 1.317 . S
N66 N70 1.370 . S
N67 C65 1.348 . S
N67 C69 1.346 . S
C68 C65 1.485 . S
C68 H72 0.960 . S
C68 H73 0.961 . S
C68 H74 0.960 . S
C69 N67 1.346 . S
C69 N70 1.307 . S
C69 C71 1.486 . S
N70 N66 1.370 . S
N70 C69 1.307 . S
C71 C69 1.486 . S
C71 H75 0.960 . S
C71 H76 0.960 . S
C71 H77 0.959 . S
H72 C68 0.960 . S
H73 C68 0.961 . S
H74 C68 0.960 . S
H75 C71 0.960 . S
H76 C71 0.960 . S
H77 C71 0.959 . S
C78 N79 1.317 . S
C78 N80 1.348 . S
C78 C81 1.485 . S
N79 C78 1.317 . S
N79 N83 1.370 . S
N80 C78 1.348 . S
N80 C82 1.346 . S
C81 C78 1.485 . S
C81 H85 0.960 . S
C81 H86 0.961 . S
C81 H87 0.960 . S
C82 N80 1.346 . S
C82 N83 1.307 . S
C82 C84 1.486 . S
N83 N79 1.370 . S
N83 C82 1.307 . S
C84 C82 1.486 . S
C84 H88 0.960 . S
C84 H89 0.960 . S
C84 H90 0.959 . S
H85 C81 0.960 . S
H86 C81 0.961 . S
H87 C81 0.960 . S
H88 C84 0.960 . S
H89 C84 0.960 . S
H90 C84 0.959 . S
C91 N92 1.317 . S
C91 N93 1.348 . S
C91 C94 1.485 . S
N92 C91 1.317 . S
N92 N96 1.370 . S
N93 C91 1.348 . S
N93 C95 1.346 . S
C94 C91 1.485 . S
C94 H98 0.960 . S
C94 H99 0.961 . S
C94 H100 0.960 . S
C95 N93 1.346 . S
C95 N96 1.307 . S
C95 C97 1.486 . S
N96 N92 1.370 . S
N96 C95 1.307 . S
C97 C95 1.486 . S
C97 H101 0.960 . S
C97 H102 0.960 . S
C97 H103 0.959 . S
H98 C94 0.960 . S
H99 C94 0.961 . S
H100 C94 0.960 . S
H101 C97 0.960 . S
H102 C97 0.960 . S
H103 C97 0.959 . S
C104 N105 1.317 . S
C104 N106 1.348 . S
C104 C107 1.485 . S
N105 C104 1.317 . S
N105 N109 1.370 . S
N106 C104 1.348 . S
N106 C108 1.346 . S
C107 C104 1.485 . S
C107 H111 0.960 . S
C107 H112 0.961 . S
C107 H113 0.960 . S
C108 N106 1.346 . S
C108 N109 1.307 . S
C108 C110 1.486 . S
N109 N105 1.370 . S
N109 C108 1.307 . S
C110 C108 1.486 . S
C110 H114 0.960 . S
C110 H115 0.960 . S
C110 H116 0.959 . S
H111 C107 0.960 . S
H112 C107 0.961 . S
H113 C107 0.960 . S
H114 C110 0.960 . S
H115 C110 0.960 . S
H116 C110 0.959 . S
C117 N118 1.317 . S
C117 N119 1.348 . S
C117 C120 1.485 1_556 S
N118 C117 1.317 . S
N118 N122 1.370 . S
N119 C117 1.348 . S
N119 C121 1.346 . S
C120 C117 1.485 1_554 S
C120 H124 0.960 . S
C120 H125 0.961 . S
C120 H126 0.960 . S
C121 N119 1.346 . S
C121 N122 1.307 . S
C121 C123 1.486 . S
N122 N118 1.370 . S
N122 C121 1.307 . S
C123 C121 1.486 . S
C123 H127 0.960 . S
C123 H128 0.960 . S
C123 H129 0.959 . S
H124 C120 0.960 . S
H125 C120 0.961 . S
H126 C120 0.960 . S
H127 C123 0.960 . S
H128 C123 0.960 . S
H129 C123 0.959 . S
C130 N131 1.317 . S
C130 N132 1.348 . S
C130 C133 1.485 1_556 S
N131 C130 1.317 . S
N131 N135 1.370 . S
N132 C130 1.348 . S
N132 C134 1.346 . S
C133 C130 1.485 1_554 S
C133 H137 0.960 . S
C133 H138 0.961 . S
C133 H139 0.960 . S
C134 N132 1.346 . S
C134 N135 1.307 . S
C134 C136 1.486 . S
N135 N131 1.370 . S
N135 C134 1.307 . S
C136 C134 1.486 . S
C136 H140 0.960 . S
C136 H141 0.960 . S
C136 H142 0.959 . S
H137 C133 0.960 . S
H138 C133 0.961 . S
H139 C133 0.960 . S
H140 C136 0.960 . S
H141 C136 0.960 . S
H142 C136 0.959 . S
C143 N144 1.317 . S
C143 N145 1.348 . S
C143 C146 1.485 1_556 S
N144 C143 1.317 . S
N144 N148 1.370 . S
N145 C143 1.348 . S
N145 C147 1.346 . S
C146 C143 1.485 1_554 S
C146 H150 0.960 . S
C146 H151 0.961 . S
C146 H152 0.960 . S
C147 N145 1.346 . S
C147 N148 1.307 . S
C147 C149 1.486 . S
N148 N144 1.370 . S
N148 C147 1.307 . S
C149 C147 1.486 . S
C149 H153 0.960 . S
C149 H154 0.960 . S
C149 H155 0.959 . S
H150 C146 0.960 . S
H151 C146 0.961 . S
H152 C146 0.960 . S
H153 C149 0.960 . S
H154 C149 0.960 . S
H155 C149 0.959 . S
C156 N157 1.317 . S
C156 N158 1.348 . S
C156 C159 1.485 . S
N157 C156 1.317 . S
N157 N161 1.370 . S
N158 C156 1.348 . S
N158 C160 1.346 . S
C159 C156 1.485 . S
C159 H163 0.960 . S
C159 H164 0.961 . S
C159 H165 0.960 . S
C160 N158 1.346 . S
C160 N161 1.307 . S
C160 C162 1.486 . S
N161 N157 1.370 . S
N161 C160 1.307 . S
C162 C160 1.486 . S
C162 H166 0.960 . S
C162 H167 0.960 . S
C162 H168 0.959 . S
H163 C159 0.960 . S
H164 C159 0.961 . S
H165 C159 0.960 . S
H166 C162 0.960 . S
H167 C162 0.960 . S
H168 C162 0.959 . S
C169 N170 1.317 . S
C169 N171 1.348 . S
C169 C172 1.485 . S
N170 C169 1.317 . S
N170 N174 1.370 . S
N171 C169 1.348 . S
N171 C173 1.346 . S
C172 C169 1.485 . S
C172 H176 0.960 . S
C172 H177 0.961 . S
C172 H178 0.960 . S
C173 N171 1.346 . S
C173 N174 1.307 . S
C173 C175 1.486 . S
N174 N170 1.370 . S
N174 C173 1.307 . S
C175 C173 1.486 . S
C175 H179 0.960 . S
C175 H180 0.960 . S
C175 H181 0.959 . S
H176 C172 0.960 . S
H177 C172 0.961 . S
H178 C172 0.960 . S
H179 C175 0.960 . S
H180 C175 0.960 . S
H181 C175 0.959 . S
C182 N183 1.317 . S
C182 N184 1.348 . S
C182 C185 1.485 . S
N183 C182 1.317 . S
N183 N187 1.370 . S
N184 C182 1.348 . S
N184 C186 1.346 . S
C185 C182 1.485 . S
C185 H189 0.960 . S
C185 H190 0.961 . S
C185 H191 0.960 . S
C186 N184 1.346 . S
C186 N187 1.307 . S
C186 C188 1.486 . S
N187 N183 1.370 . S
N187 C186 1.307 . S
C188 C186 1.486 . S
C188 H192 0.960 . S
C188 H193 0.960 . S
C188 H194 0.959 . S
H189 C185 0.960 . S
H190 C185 0.961 . S
H191 C185 0.960 . S
H192 C188 0.960 . S
H193 C188 0.960 . S
H194 C188 0.959 . S
C195 N196 1.317 . S
C195 N197 1.348 . S
C195 C198 1.485 . S
N196 C195 1.317 . S
N196 N200 1.370 . S
N197 C195 1.348 . S
N197 C199 1.346 . S
C198 C195 1.485 . S
C198 H202 0.960 . S
C198 H203 0.961 . S
C198 H204 0.960 . S
C199 N197 1.346 . S
C199 N200 1.307 . S
C199 C201 1.486 . S
N200 N196 1.370 . S
N200 C199 1.307 . S
C201 C199 1.486 . S
C201 H205 0.960 . S
C201 H206 0.960 . S
C201 H207 0.959 . S
H202 C198 0.960 . S
H203 C198 0.961 . S
H204 C198 0.960 . S
H205 C201 0.960 . S
H206 C201 0.960 . S
H207 C201 0.959 . S
C208 N209 1.317 . S
C208 N210 1.348 . S
C208 C211 1.485 . S
N209 C208 1.317 . S
N209 N213 1.370 . S
N210 C208 1.348 . S
N210 C212 1.346 . S
C211 C208 1.485 . S
C211 H215 0.960 . S
C211 H216 0.961 . S
C211 H217 0.960 . S
C212 N210 1.346 . S
C212 N213 1.307 . S
C212 C214 1.486 . S
N213 N209 1.370 . S
N213 C212 1.307 . S
C214 C212 1.486 . S
C214 H218 0.960 . S
C214 H219 0.960 . S
C214 H220 0.959 . S
H215 C211 0.960 . S
H216 C211 0.961 . S
H217 C211 0.960 . S
H218 C214 0.960 . S
H219 C214 0.960 . S
H220 C214 0.959 . S
C221 N222 1.317 . S
C221 N223 1.348 . S
C221 C224 1.485 . S
N222 C221 1.317 . S
N222 N226 1.370 . S
N223 C221 1.348 . S
N223 C225 1.346 . S
C224 C221 1.485 . S
C224 H228 0.960 . S
C224 H229 0.961 . S
C224 H230 0.960 . S
C225 N223 1.346 . S
C225 N226 1.307 . S
C225 C227 1.486 . S
N226 N222 1.370 . S
N226 C225 1.307 . S
C227 C225 1.486 . S
C227 H231 0.960 . S
C227 H232 0.960 . S
C227 H233 0.959 . S
H228 C224 0.960 . S
H229 C224 0.961 . S
H230 C224 0.960 . S
H231 C227 0.960 . S
H232 C227 0.960 . S
H233 C227 0.959 . S
Gd234 N265 2.661 . S
Gd234 N271 2.601 . S
Gd234 O278 2.545 . S
Gd234 O279 2.606 1_545 S
Gd234 O281 2.429 . S
Gd234 O282 2.545 1_545 S
Gd234 O283 2.412 1_545 S
Gd234 O285 2.362 . S
Gd234 O286 2.324 1_545 S
Gd234 C293 2.828 1_545 S
Gd235 N244 2.661 . S
Gd235 N248 2.601 . S
Gd235 O279 2.362 1_556 S
Gd235 O280 2.324 1_565 S
Gd235 O284 2.545 . S
Gd235 O285 2.606 1_566 S
Gd235 O287 2.429 1_556 S
Gd235 O288 2.545 1_565 S
Gd235 O289 2.412 1_565 S
Gd235 C302 2.828 1_565 S
C236 C239 1.417 . S
C236 C241 1.431 . S
C236 C242 1.412 . S
C237 C240 1.437 . S
C237 C241 1.317 . S
C237 H256 0.929 . S
C238 C239 1.426 . S
C238 C240 1.413 . S
C238 N248 1.359 . S
C239 C236 1.417 . S
C239 C238 1.426 . S
C239 N244 1.350 . S
C240 C237 1.437 . S
C240 C238 1.413 . S
C240 C250 1.391 . S
C241 C236 1.431 . S
C241 C237 1.317 . S
C241 H252 0.930 . S
C242 C236 1.412 . S
C242 C243 1.355 . S
C242 H254 0.930 . S
C243 C242 1.355 . S
C243 C245 1.402 . S
C243 H255 0.930 . S
N244 Gd235 2.661 . S
N244 C239 1.350 . S
N244 C245 1.307 . S
C245 C243 1.402 . S
C245 N244 1.307 . S
C245 H246 0.910 1_565 S
H246 C245 0.910 1_545 S
C247 N248 1.334 . S
C247 C249 1.394 . S
C247 H251 0.930 . S
N248 Gd235 2.601 . S
N248 C238 1.359 . S
N248 C247 1.334 . S
C249 C247 1.394 . S
C249 C250 1.359 . S
C249 H261 0.930 . S
C250 C240 1.391 . S
C250 C249 1.359 . S
C250 H262 0.929 . S
H251 C247 0.930 . S
H252 C241 0.930 . S
H253 C270 0.930 . S
H254 C242 0.930 . S
H255 C243 0.930 . S
H256 C237 0.929 . S
H257 C275 0.930 . S
H258 C266 0.930 . S
H259 C267 0.930 . S
H260 C291 0.929 . S
H261 C249 0.930 . S
H262 C250 0.929 . S
H263 C292 0.930 . S
H264 C273 0.930 . S
N265 Gd234 2.661 . S
N265 C269 1.350 . S
N265 C270 1.307 . S
C266 H258 0.930 . S
C266 C267 1.355 . S
C266 C268 1.412 . S
C267 H259 0.930 . S
C267 C266 1.355 . S
C267 C270 1.402 . S
C268 C266 1.412 . S
C268 C269 1.417 . S
C268 C292 1.431 . S
C269 N265 1.350 . S
C269 C268 1.417 . S
C269 C272 1.426 . S
C270 H253 0.930 . S
C270 N265 1.307 . S
C270 C267 1.402 . S
N271 Gd234 2.601 . S
N271 C272 1.359 . S
N271 C275 1.334 . S
C272 C269 1.426 . S
C272 N271 1.359 . S
C272 C276 1.413 . S
C273 H264 0.930 . S
C273 C274 1.359 . S
C273 C275 1.394 . S
C274 C273 1.359 . S
C274 C276 1.391 . S
C274 H277 0.929 . S
C275 H257 0.930 . S
C275 N271 1.334 . S
C275 C273 1.394 . S
C276 C272 1.413 . S
C276 C274 1.391 . S
C276 C291 1.437 . S
H277 C274 0.929 . S
O278 Gd234 2.545 . S
O278 C293 1.258 1_545 S
O279 Gd234 2.606 1_565 S
O279 Gd235 2.362 1_554 S
O279 C290 1.284 . S
O280 Gd235 2.324 1_545 S
O280 C300 1.254 1_556 S
O281 Gd234 2.429 . S
O281 C300 1.268 . S
O282 Gd234 2.545 1_565 S
O282 C290 1.250 . S
O283 Gd234 2.412 1_565 S
O283 C293 1.252 . S
O284 Gd235 2.545 . S
O284 C302 1.258 1_565 S
O285 Gd234 2.362 . S
O285 Gd235 2.606 1_544 S
O285 C301 1.284 1_554 S
O286 Gd234 2.324 1_565 S
O286 C309 1.254 . S
O287 Gd235 2.429 1_554 S
O287 C309 1.268 . S
O288 Gd235 2.545 1_545 S
O288 C301 1.250 . S
O289 Gd235 2.412 1_545 S
O289 C302 1.252 . S
C290 O279 1.284 . S
C290 O282 1.250 . S
C291 H260 0.929 . S
C291 C276 1.437 . S
C291 C292 1.317 . S
C292 H263 0.930 . S
C292 C268 1.431 . S
C292 C291 1.317 . S
C293 Gd234 2.828 1_565 S
C293 O278 1.258 1_565 S
C293 O283 1.252 . S
C293 C294 1.497 . S
C294 C293 1.497 . S
C294 C295 1.395 . S
C294 C296 1.380 . S
C295 C294 1.395 . S
C295 C298 1.398 . S
C295 H310 0.930 1_565 S
C296 C294 1.380 . S
C296 C297 1.391 . S
C296 H311 0.930 . S
C297 C296 1.391 . S
C297 C299 1.387 . S
C298 C295 1.398 . S
C298 C299 1.380 . S
C298 H312 0.930 . S
C299 C297 1.387 . S
C299 C298 1.380 . S
C299 H313 0.930 . S
C300 O280 1.254 1_554 S
C300 O281 1.268 . S
C301 O285 1.284 1_556 S
C301 O288 1.250 . S
C302 Gd235 2.828 1_545 S
C302 O284 1.258 1_545 S
C302 O289 1.252 . S
C302 C303 1.497 . S
C303 C302 1.497 . S
C303 C304 1.395 . S
C303 C305 1.380 . S
C304 C303 1.395 . S
C304 C307 1.398 . S
C304 H314 0.930 1_545 S
C305 C303 1.380 . S
C305 C306 1.391 . S
C305 H315 0.930 . S
C306 C305 1.391 . S
C306 C308 1.387 . S
C307 C304 1.398 . S
C307 C308 1.380 . S
C307 H316 0.930 . S
C308 C306 1.387 . S
C308 C307 1.380 . S
C308 H317 0.930 . S
C309 O286 1.254 . S
C309 O287 1.268 . S
H310 C295 0.930 1_545 S
H311 C296 0.930 . S
H312 C298 0.930 . S
H313 C299 0.930 . S
H314 C304 0.930 1_565 S
H315 C305 0.930 . S
H316 C307 0.930 . S
H317 C308 0.930 . S
Gd318 N349 2.661 . S
Gd318 N355 2.601 . S
Gd318 O362 2.545 . S
Gd318 O363 2.606 1_655 S
Gd318 O365 2.429 . S
Gd318 O366 2.545 1_655 S
Gd318 O367 2.412 . S
Gd318 O369 2.362 . S
Gd318 O370 2.324 1_655 S
Gd318 C377 2.828 . S
Gd319 N328 2.661 . S
Gd319 N332 2.601 . S
Gd319 O363 2.362 1_556 S
Gd319 O364 2.324 1_455 S
Gd319 O368 2.545 . S
Gd319 O369 2.606 1_456 S
Gd319 O371 2.429 . S
Gd319 O372 2.545 1_455 S
Gd319 O373 2.412 . S
Gd319 C386 2.828 . S
C320 C323 1.417 . S
C320 C325 1.431 . S
C320 C326 1.412 . S
C321 C324 1.437 . S
C321 C325 1.317 . S
C321 H340 0.929 . S
C322 C323 1.426 . S
C322 C324 1.413 . S
C322 N332 1.359 . S
C323 C320 1.417 . S
C323 C322 1.426 . S
C323 N328 1.350 . S
C324 C321 1.437 . S
C324 C322 1.413 . S
C324 C334 1.391 . S
C325 C320 1.431 . S
C325 C321 1.317 . S
C325 H336 0.930 . S
C326 C320 1.412 . S
C326 C327 1.355 . S
C326 H338 0.930 . S
C327 C326 1.355 . S
C327 C329 1.402 . S
C327 H339 0.930 . S
N328 Gd319 2.661 . S
N328 C323 1.350 . S
N328 C329 1.307 . S
C329 C327 1.402 . S
C329 N328 1.307 . S
C329 H330 0.930 . S
H330 C329 0.930 . S
C331 N332 1.334 . S
C331 C333 1.394 . S
C331 H335 0.930 . S
N332 Gd319 2.601 . S
N332 C322 1.359 . S
N332 C331 1.334 . S
C333 C331 1.394 . S
C333 C334 1.359 . S
C333 H345 0.930 . S
C334 C324 1.391 . S
C334 C333 1.359 . S
C334 H346 0.929 . S
H335 C331 0.930 . S
H336 C325 0.930 . S
H337 C354 0.930 . S
H338 C326 0.930 . S
H339 C327 0.930 . S
H340 C321 0.929 . S
H341 C359 0.930 . S
H342 C350 0.930 . S
H343 C351 0.930 . S
H344 C375 0.929 . S
H345 C333 0.930 . S
H346 C334 0.929 . S
H347 C376 0.930 . S
H348 C357 0.930 . S
N349 Gd318 2.661 . S
N349 C353 1.350 . S
N349 C354 1.307 . S
C350 H342 0.930 . S
C350 C351 1.355 . S
C350 C352 1.412 . S
C351 H343 0.930 . S
C351 C350 1.355 . S
C351 C354 1.402 . S
C352 C350 1.412 . S
C352 C353 1.417 . S
C352 C376 1.431 . S
C353 N349 1.350 . S
C353 C352 1.417 . S
C353 C356 1.426 . S
C354 H337 0.930 . S
C354 N349 1.307 . S
C354 C351 1.402 . S
N355 Gd318 2.601 . S
N355 C356 1.359 . S
N355 C359 1.334 . S
C356 C353 1.426 . S
C356 N355 1.359 . S
C356 C360 1.413 . S
C357 H348 0.930 . S
C357 C358 1.359 . S
C357 C359 1.394 . S
C358 C357 1.359 . S
C358 C360 1.391 . S
C358 H361 0.929 . S
C359 H341 0.930 . S
C359 N355 1.334 . S
C359 C357 1.394 . S
C360 C356 1.413 . S
C360 C358 1.391 . S
C360 C375 1.437 . S
H361 C358 0.929 . S
O362 Gd318 2.545 . S
O362 C377 1.258 . S
O363 Gd318 2.606 1_455 S
O363 Gd319 2.362 1_554 S
O363 C374 1.284 . S
O364 Gd319 2.324 1_655 S
O364 C384 1.264 . S
O365 Gd318 2.429 . S
O365 C384 1.250 1_554 S
O366 Gd318 2.545 1_455 S
O366 C374 1.250 . S
O367 Gd318 2.412 . S
O367 C377 1.252 . S
O368 Gd319 2.545 . S
O368 C386 1.258 . S
O369 Gd318 2.362 . S
O369 Gd319 2.606 1_654 S
O369 C385 1.284 1_554 S
O370 Gd318 2.324 1_455 S
O370 C393 1.254 . S
O371 Gd319 2.429 . S
O371 C393 1.268 1_556 S
O372 Gd319 2.545 1_655 S
O372 C385 1.250 . S
O373 Gd319 2.412 . S
O373 C386 1.252 . S
C374 O363 1.284 . S
C374 O366 1.250 . S
C375 H344 0.929 . S
C375 C360 1.437 . S
C375 C376 1.317 . S
C376 H347 0.930 . S
C376 C352 1.431 . S
C376 C375 1.317 . S
C377 Gd318 2.828 . S
C377 O362 1.258 . S
C377 O367 1.252 . S
C377 C378 1.497 . S
C378 C377 1.497 . S
C378 C379 1.395 . S
C378 C380 1.380 1_655 S
C379 C378 1.395 . S
C379 C382 1.398 . S
C379 H394 0.930 . S
C380 C378 1.380 1_455 S
C380 C381 1.391 . S
C380 H395 0.930 . S
C381 C380 1.391 . S
C381 C383 1.387 . S
C382 C379 1.398 . S
C382 C383 1.380 1_655 S
C382 H396 0.930 . S
C383 C381 1.387 . S
C383 C382 1.380 1_455 S
C383 H397 0.930 . S
C384 O364 1.264 . S
C384 O365 1.250 1_556 S
C385 O369 1.284 1_556 S
C385 O372 1.250 . S
C386 Gd319 2.828 . S
C386 O368 1.258 . S
C386 O373 1.252 . S
C386 C387 1.497 . S
C387 C386 1.497 . S
C387 C388 1.395 . S
C387 C389 1.380 1_455 S
C388 C387 1.395 . S
C388 C391 1.398 . S
C388 H398 0.930 . S
C389 C387 1.380 1_655 S
C389 C390 1.391 . S
C389 H399 0.930 . S
C390 C389 1.391 . S
C390 C392 1.387 1_655 S
C391 C388 1.398 . S
C391 C392 1.380 . S
C391 H400 0.930 . S
C392 C390 1.387 1_455 S
C392 C391 1.380 . S
C392 H401 0.930 . S
C393 O370 1.254 . S
C393 O371 1.268 1_554 S
H394 C379 0.930 . S
H395 C380 0.930 . S
H396 C382 0.930 . S
H397 C383 0.930 . S
H398 C388 0.930 . S
H399 C389 0.930 . S
H400 C391 0.930 . S
H401 C392 0.930 . S
Gd402 N433 2.661 . S
Gd402 N439 2.601 . S
Gd402 O446 2.545 . S
Gd402 O447 2.606 1_556 S
Gd402 O449 2.429 1_556 S
Gd402 O450 2.545 . S
Gd402 O451 2.412 . S
Gd402 O453 2.362 1_556 S
Gd402 O454 2.319 1_556 S
Gd402 C461 2.828 . S
Gd403 N412 2.661 . S
Gd403 N416 2.601 . S
Gd403 O447 2.362 . S
Gd403 O448 2.324 . S
Gd403 O452 2.545 . S
Gd403 O453 2.606 . S
Gd403 O455 2.429 . S
Gd403 O456 2.545 . S
Gd403 O457 2.412 . S
Gd403 C470 2.828 . S
C404 C407 1.417 . S
C404 C409 1.431 . S
C404 C410 1.412 . S
C405 C408 1.437 . S
C405 C409 1.317 . S
C405 H424 0.929 . S
C406 C407 1.426 . S
C406 C408 1.413 . S
C406 N416 1.359 . S
C407 C404 1.417 . S
C407 C406 1.426 . S
C407 N412 1.350 . S
C408 C405 1.437 . S
C408 C406 1.413 . S
C408 C418 1.391 . S
C409 C404 1.431 . S
C409 C405 1.317 . S
C409 H420 0.930 . S
C410 C404 1.412 . S
C410 C411 1.355 . S
C410 H422 0.930 . S
C411 C410 1.355 . S
C411 C413 1.402 . S
C411 H423 0.930 . S
N412 Gd403 2.661 . S
N412 C407 1.350 . S
N412 C413 1.307 . S
C413 C411 1.402 . S
C413 N412 1.307 . S
C413 H414 0.930 . S
H414 C413 0.930 . S
C415 N416 1.334 . S
C415 C417 1.394 . S
C415 H419 0.930 . S
N416 Gd403 2.601 . S
N416 C406 1.359 . S
N416 C415 1.334 . S
C417 C415 1.394 . S
C417 C418 1.359 . S
C417 H429 0.930 . S
C418 C408 1.391 . S
C418 C417 1.359 . S
C418 H430 0.929 . S
H419 C415 0.930 . S
H420 C409 0.930 . S
H421 C438 0.930 . S
H422 C410 0.930 . S
H423 C411 0.930 . S
H424 C405 0.929 . S
H425 C443 0.930 . S
H426 C434 0.930 . S
H427 C435 0.930 . S
H428 C459 0.929 . S
H429 C417 0.930 . S
H430 C418 0.929 . S
H431 C460 0.930 . S
H432 C441 0.930 . S
N433 Gd402 2.661 . S
N433 C437 1.350 . S
N433 C438 1.307 . S
C434 H426 0.930 . S
C434 C435 1.355 . S
C434 C436 1.412 . S
C435 H427 0.930 . S
C435 C434 1.355 . S
C435 C438 1.402 . S
C436 C434 1.412 . S
C436 C437 1.417 . S
C436 C460 1.431 . S
C437 N433 1.350 . S
C437 C436 1.417 . S
C437 C440 1.426 . S
C438 H421 0.930 . S
C438 N433 1.307 . S
C438 C435 1.402 . S
N439 Gd402 2.601 . S
N439 C440 1.359 . S
N439 C443 1.334 . S
C440 C437 1.426 . S
C440 N439 1.359 . S
C440 C444 1.413 . S
C441 H432 0.930 . S
C441 C442 1.359 . S
C441 C443 1.394 . S
C442 C441 1.359 . S
C442 C444 1.391 . S
C442 H445 0.929 . S
C443 H425 0.930 . S
C443 N439 1.334 . S
C443 C441 1.394 . S
C444 C440 1.413 . S
C444 C442 1.391 . S
C444 C459 1.437 . S
H445 C442 0.929 . S
O446 Gd402 2.545 . S
O446 C461 1.258 . S
O447 Gd402 2.606 1_554 S
O447 Gd403 2.362 . S
O447 C458 1.315 . S
O448 Gd403 2.324 . S
O448 C468 1.254 . S
O449 Gd402 2.429 1_554 S
O449 C468 1.268 . S
O450 Gd402 2.545 . S
O450 C458 1.215 1_556 S
O451 Gd402 2.412 . S
O451 C461 1.252 . S
O452 Gd403 2.545 . S
O452 C470 1.258 . S
O453 Gd402 2.362 1_554 S
O453 Gd403 2.606 . S
O453 C469 1.284 . S
O454 Gd402 2.319 1_554 S
O454 C477 1.281 . S
O455 Gd403 2.429 . S
O455 C477 1.268 . S
O456 Gd403 2.545 . S
O456 C469 1.250 . S
O457 Gd403 2.412 . S
O457 C470 1.252 . S
C458 O447 1.315 . S
C458 O450 1.215 1_554 S
C459 H428 0.929 . S
C459 C444 1.437 . S
C459 C460 1.317 . S
C460 H431 0.930 . S
C460 C436 1.431 . S
C460 C459 1.317 . S
C461 Gd402 2.828 . S
C461 O446 1.258 . S
C461 O451 1.252 . S
C461 C462 1.497 . S
C462 C461 1.497 . S
C462 C463 1.395 . S
C462 C464 1.380 . S
C463 C462 1.395 . S
C463 C466 1.398 . S
C463 H478 0.930 . S
C464 C462 1.380 . S
C464 C465 1.391 . S
C464 H479 0.930 . S
C465 C464 1.391 . S
C465 C467 1.387 . S
C466 C463 1.398 . S
C466 C467 1.380 . S
C466 H480 0.930 . S
C467 C465 1.387 . S
C467 C466 1.380 . S
C467 H481 0.930 . S
C468 O448 1.254 . S
C468 O449 1.268 . S
C469 O453 1.284 . S
C469 O456 1.250 . S
C470 Gd403 2.828 . S
C470 O452 1.258 . S
C470 O457 1.252 . S
C470 C471 1.497 . S
C471 C470 1.497 . S
C471 C472 1.395 . S
C471 C473 1.380 . S
C472 C471 1.395 . S
C472 C475 1.398 . S
C472 H482 0.930 . S
C473 C471 1.380 . S
C473 C474 1.391 . S
C473 H483 0.930 . S
C474 C473 1.391 . S
C474 C476 1.387 . S
C475 C472 1.398 . S
C475 C476 1.380 . S
C475 H484 0.930 . S
C476 C474 1.387 . S
C476 C475 1.380 . S
C476 H485 0.930 . S
C477 O454 1.281 . S
C477 O455 1.268 . S
H478 C463 0.930 . S
H479 C464 0.930 . S
H480 C466 0.930 . S
H481 C467 0.930 . S
H482 C472 0.930 . S
H483 C473 0.930 . S
H484 C475 0.930 . S
H485 C476 0.930 . S
Gd486 N517 2.661 . S
Gd486 N523 2.601 . S
Gd486 O530 2.545 . S
Gd486 O531 2.606 . S
Gd486 O533 2.429 . S
Gd486 O534 2.545 . S
Gd486 O535 2.412 . S
Gd486 O537 2.362 . S
Gd486 O538 2.324 . S
Gd486 C545 2.828 . S
Gd487 N496 2.661 . S
Gd487 N500 2.601 . S
Gd487 O531 2.362 . S
Gd487 O532 2.324 . S
Gd487 O536 2.545 . S
Gd487 O537 2.606 . S
Gd487 O539 2.429 . S
Gd487 O540 2.545 . S
Gd487 O541 2.412 . S
Gd487 C554 2.828 . S
C488 C491 1.417 . S
C488 C493 1.431 . S
C488 C494 1.412 . S
C489 C492 1.437 . S
C489 C493 1.317 . S
C489 H508 0.929 . S
C490 C491 1.426 . S
C490 C492 1.413 . S
C490 N500 1.359 . S
C491 C488 1.417 . S
C491 C490 1.426 . S
C491 N496 1.350 . S
C492 C489 1.437 . S
C492 C490 1.413 . S
C492 C502 1.391 . S
C493 C488 1.431 . S
C493 C489 1.317 . S
C493 H504 0.930 1_455 S
C494 C488 1.412 . S
C494 C495 1.355 . S
C494 H506 0.930 1_455 S
C495 C494 1.355 . S
C495 C497 1.402 . S
C495 H507 0.930 . S
N496 Gd487 2.661 . S
N496 C491 1.350 . S
N496 C497 1.307 . S
C497 C495 1.402 . S
C497 N496 1.307 . S
C497 H498 0.930 . S
H498 C497 0.930 . S
C499 N500 1.334 . S
C499 C501 1.394 . S
C499 H503 0.930 . S
N500 Gd487 2.601 . S
N500 C490 1.359 . S
N500 C499 1.334 . S
C501 C499 1.394 . S
C501 C502 1.359 . S
C501 H513 0.930 . S
C502 C492 1.391 . S
C502 C501 1.359 . S
C502 H514 0.929 . S
H503 C499 0.930 . S
H504 C493 0.930 1_655 S
H505 C522 0.930 . S
H506 C494 0.930 1_655 S
H507 C495 0.930 . S
H508 C489 0.929 . S
H509 C527 0.930 . S
H510 C518 0.930 . S
H511 C519 0.930 . S
H512 C543 0.929 . S
H513 C501 0.930 . S
H514 C502 0.929 . S
H515 C544 0.930 . S
H516 C525 0.930 . S
N517 Gd486 2.661 . S
N517 C521 1.350 . S
N517 C522 1.307 . S
C518 H510 0.930 . S
C518 C519 1.355 . S
C518 C520 1.412 . S
C519 H511 0.930 . S
C519 C518 1.355 . S
C519 C522 1.402 . S
C520 C518 1.412 . S
C520 C521 1.417 . S
C520 C544 1.431 . S
C521 N517 1.350 . S
C521 C520 1.417 . S
C521 C524 1.426 . S
C522 H505 0.930 . S
C522 N517 1.307 . S
C522 C519 1.402 . S
N523 Gd486 2.601 . S
N523 C524 1.359 . S
N523 C527 1.334 . S
C524 C521 1.426 . S
C524 N523 1.359 . S
C524 C528 1.413 . S
C525 H516 0.930 . S
C525 C526 1.359 . S
C525 C527 1.394 . S
C526 C525 1.359 . S
C526 C528 1.391 . S
C526 H529 0.929 . S
C527 H509 0.930 . S
C527 N523 1.334 . S
C527 C525 1.394 . S
C528 C524 1.413 . S
C528 C526 1.391 . S
C528 C543 1.437 . S
H529 C526 0.929 . S
O530 Gd486 2.545 . S
O530 C545 1.258 . S
O531 Gd486 2.606 . S
O531 Gd487 2.362 . S
O531 C542 1.284 . S
O532 Gd487 2.324 . S
O532 C552 1.254 . S
O533 Gd486 2.429 . S
O533 C552 1.268 . S
O534 Gd486 2.545 . S
O534 C542 1.250 . S
O535 Gd486 2.412 . S
O535 C545 1.252 . S
O536 Gd487 2.545 . S
O536 C554 1.258 . S
O537 Gd486 2.362 . S
O537 Gd487 2.606 . S
O537 C553 1.284 . S
O538 Gd486 2.324 . S
O538 C561 1.254 . S
O539 Gd487 2.429 . S
O539 C561 1.268 . S
O540 Gd487 2.545 . S
O540 C553 1.250 . S
O541 Gd487 2.412 . S
O541 C554 1.252 . S
C542 O531 1.284 . S
C542 O534 1.250 . S
C543 H512 0.929 . S
C543 C528 1.437 . S
C543 C544 1.317 . S
C544 H515 0.930 . S
C544 C520 1.431 . S
C544 C543 1.317 . S
C545 Gd486 2.828 . S
C545 O530 1.258 . S
C545 O535 1.252 . S
C545 C546 1.497 . S
C546 C545 1.497 . S
C546 C547 1.395 . S
C546 C548 1.380 . S
C547 C546 1.395 . S
C547 C550 1.398 . S
C547 H562 0.930 . S
C548 C546 1.380 . S
C548 C549 1.391 . S
C548 H563 0.930 . S
C549 C548 1.391 . S
C549 C551 1.387 . S
C550 C547 1.398 . S
C550 C551 1.380 . S
C550 H564 0.930 . S
C551 C549 1.387 . S
C551 C550 1.380 . S
C551 H565 0.930 . S
C552 O532 1.254 . S
C552 O533 1.268 . S
C553 O537 1.284 . S
C553 O540 1.250 . S
C554 Gd487 2.828 . S
C554 O536 1.258 . S
C554 O541 1.252 . S
C554 C555 1.497 . S
C555 C554 1.497 . S
C555 C556 1.395 . S
C555 C557 1.380 . S
C556 C555 1.395 . S
C556 C559 1.398 . S
C556 H566 0.930 . S
C557 C555 1.380 . S
C557 C558 1.391 . S
C557 H567 0.930 . S
C558 C557 1.391 . S
C558 C560 1.387 . S
C559 C556 1.398 . S
C559 C560 1.380 . S
C559 H568 0.930 . S
C560 C558 1.387 . S
C560 C559 1.380 . S
C560 H569 0.930 . S
C561 O538 1.254 . S
C561 O539 1.268 . S
H562 C547 0.930 . S
H563 C548 0.930 . S
H564 C550 0.930 . S
H565 C551 0.930 . S
H566 C556 0.930 . S
H567 C557 0.930 . S
H568 C559 0.930 . S
H569 C560 0.930 . S
Gd570 N601 2.661 . S
Gd570 N607 2.601 . S
Gd570 O614 2.545 . S
Gd570 O615 2.606 . S
Gd570 O617 2.429 . S
Gd570 O618 2.545 . S
Gd570 O619 2.412 . S
Gd570 O621 2.362 . S
Gd570 O622 2.324 . S
Gd570 C629 2.828 . S
Gd571 N580 2.661 . S
Gd571 N584 2.601 . S
Gd571 O615 2.362 . S
Gd571 O616 2.324 . S
Gd571 O620 2.545 . S
Gd571 O621 2.606 . S
Gd571 O623 2.429 . S
Gd571 O624 2.545 . S
Gd571 O625 2.412 . S
Gd571 C638 2.828 . S
C572 C575 1.417 . S
C572 C577 1.431 . S
C572 C578 1.412 . S
C573 C576 1.437 . S
C573 C577 1.317 . S
C573 H592 0.929 . S
C574 C575 1.426 . S
C574 C576 1.413 . S
C574 N584 1.359 . S
C575 C572 1.417 . S
C575 C574 1.426 . S
C575 N580 1.350 . S
C576 C573 1.437 . S
C576 C574 1.413 . S
C576 C586 1.391 . S
C577 C572 1.431 . S
C577 C573 1.317 . S
C577 H588 0.930 . S
C578 C572 1.412 . S
C578 C579 1.355 . S
C578 H590 0.930 . S
C579 C578 1.355 . S
C579 C581 1.402 . S
C579 H591 0.930 . S
N580 Gd571 2.661 . S
N580 C575 1.350 . S
N580 C581 1.307 . S
C581 C579 1.402 . S
C581 N580 1.307 . S
C581 H582 0.930 . S
H582 C581 0.930 . S
C583 N584 1.334 . S
C583 C585 1.394 . S
C583 H587 0.930 . S
N584 Gd571 2.601 . S
N584 C574 1.359 . S
N584 C583 1.334 . S
C585 C583 1.394 . S
C585 C586 1.359 . S
C585 H597 0.930 1_565 S
C586 C576 1.391 . S
C586 C585 1.359 . S
C586 H598 0.929 . S
H587 C583 0.930 . S
H588 C577 0.930 . S
H589 C606 0.930 . S
H590 C578 0.930 . S
H591 C579 0.930 . S
H592 C573 0.929 . S
H593 C611 0.930 . S
H594 C602 0.930 . S
H595 C603 0.930 . S
H596 C627 0.929 . S
H597 C585 0.930 1_545 S
H598 C586 0.929 . S
H599 C628 0.930 . S
H600 C609 0.930 . S
N601 Gd570 2.661 . S
N601 C605 1.350 . S
N601 C606 1.307 . S
C602 H594 0.930 . S
C602 C603 1.355 . S
C602 C604 1.412 . S
C603 H595 0.930 . S
C603 C602 1.355 . S
C603 C606 1.402 . S
C604 C602 1.412 . S
C604 C605 1.417 . S
C604 C628 1.431 . S
C605 N601 1.350 . S
C605 C604 1.417 . S
C605 C608 1.426 . S
C606 H589 0.930 . S
C606 N601 1.307 . S
C606 C603 1.402 . S
N607 Gd570 2.601 . S
N607 C608 1.359 . S
N607 C611 1.334 . S
C608 C605 1.426 . S
C608 N607 1.359 . S
C608 C612 1.413 . S
C609 H600 0.930 . S
C609 C610 1.359 . S
C609 C611 1.394 . S
C610 C609 1.359 . S
C610 C612 1.391 . S
C610 H613 0.929 . S
C611 H593 0.930 . S
C611 N607 1.334 . S
C611 C609 1.394 . S
C612 C608 1.413 . S
C612 C610 1.391 . S
C612 C627 1.437 . S
H613 C610 0.929 . S
O614 Gd570 2.545 . S
O614 C629 1.258 . S
O615 Gd570 2.606 . S
O615 Gd571 2.362 . S
O615 C626 1.284 . S
O616 Gd571 2.324 . S
O616 C636 1.254 . S
O617 Gd570 2.429 . S
O617 C636 1.268 . S
O618 Gd570 2.545 . S
O618 C626 1.250 . S
O619 Gd570 2.412 . S
O619 C629 1.252 . S
O620 Gd571 2.545 . S
O620 C638 1.258 . S
O621 Gd570 2.362 . S
O621 Gd571 2.606 . S
O621 C637 1.284 . S
O622 Gd570 2.324 . S
O622 C645 1.254 . S
O623 Gd571 2.429 . S
O623 C645 1.268 . S
O624 Gd571 2.545 . S
O624 C637 1.250 . S
O625 Gd571 2.412 . S
O625 C638 1.252 . S
C626 O615 1.284 . S
C626 O618 1.250 . S
C627 H596 0.929 . S
C627 C612 1.437 . S
C627 C628 1.317 . S
C628 H599 0.930 . S
C628 C604 1.431 . S
C628 C627 1.317 . S
C629 Gd570 2.828 . S
C629 O614 1.258 . S
C629 O619 1.252 . S
C629 C630 1.497 . S
C630 C629 1.497 . S
C630 C631 1.395 . S
C630 C632 1.380 . S
C631 C630 1.395 . S
C631 C634 1.398 . S
C631 H646 0.930 . S
C632 C630 1.380 . S
C632 C633 1.391 . S
C632 H647 0.930 . S
C633 C632 1.391 . S
C633 C635 1.387 . S
C634 C631 1.398 . S
C634 C635 1.380 . S
C634 H648 0.930 . S
C635 C633 1.387 . S
C635 C634 1.380 . S
C635 H649 0.930 . S
C636 O616 1.254 . S
C636 O617 1.268 . S
C637 O621 1.284 . S
C637 O624 1.250 . S
C638 Gd571 2.828 . S
C638 O620 1.258 . S
C638 O625 1.252 . S
C638 C639 1.497 . S
C639 C638 1.497 . S
C639 C640 1.395 . S
C639 C641 1.380 . S
C640 C639 1.395 . S
C640 C643 1.398 . S
C640 H650 0.930 . S
C641 C639 1.380 . S
C641 C642 1.391 . S
C641 H651 0.930 . S
C642 C641 1.391 . S
C642 C644 1.387 . S
C643 C640 1.398 . S
C643 C644 1.380 . S
C643 H652 0.930 . S
C644 C642 1.387 . S
C644 C643 1.380 . S
C644 H653 0.930 . S
C645 O622 1.254 . S
C645 O623 1.268 . S
H646 C631 0.930 . S
H647 C632 0.930 . S
H648 C634 0.930 . S
H649 C635 0.930 . S
H650 C640 0.930 . S
H651 C641 0.930 . S
H652 C643 0.930 . S
H653 C644 0.930 . S
Gd654 N685 2.661 . S
Gd654 N691 2.601 . S
Gd654 O698 2.545 . S
Gd654 O699 2.606 . S
Gd654 O701 2.429 . S
Gd654 O702 2.545 . S
Gd654 O703 2.412 . S
Gd654 O705 2.362 . S
Gd654 O706 2.324 . S
Gd654 C713 2.828 . S
Gd655 N664 2.661 . S
Gd655 N668 2.601 . S
Gd655 O699 2.362 . S
Gd655 O700 2.324 . S
Gd655 O704 2.545 . S
Gd655 O705 2.606 . S
Gd655 O707 2.429 . S
Gd655 O708 2.545 . S
Gd655 O709 2.412 . S
Gd655 C722 2.828 . S
C656 C659 1.417 . S
C656 C661 1.431 . S
C656 C662 1.412 . S
C657 C660 1.437 . S
C657 C661 1.317 . S
C657 H676 0.929 . S
C658 C659 1.426 . S
C658 C660 1.413 . S
C658 N668 1.359 . S
C659 C656 1.417 . S
C659 C658 1.426 . S
C659 N664 1.350 . S
C660 C657 1.437 . S
C660 C658 1.413 . S
C660 C670 1.391 . S
C661 C656 1.431 . S
C661 C657 1.317 . S
C661 H672 0.930 . S
C662 C656 1.412 . S
C662 C663 1.355 . S
C662 H674 0.930 . S
C663 C662 1.355 . S
C663 C665 1.402 . S
C663 H675 0.930 . S
N664 Gd655 2.661 . S
N664 C659 1.350 . S
N664 C665 1.307 . S
C665 C663 1.402 . S
C665 N664 1.307 . S
C665 H666 0.930 . S
H666 C665 0.930 . S
C667 N668 1.334 . S
C667 C669 1.394 . S
C667 H671 0.930 . S
N668 Gd655 2.601 . S
N668 C658 1.359 . S
N668 C667 1.334 . S
C669 C667 1.394 . S
C669 C670 1.359 . S
C669 H681 0.930 . S
C670 C660 1.391 . S
C670 C669 1.359 . S
C670 H682 0.929 . S
H671 C667 0.930 . S
H672 C661 0.930 . S
H673 C690 0.930 . S
H674 C662 0.930 . S
H675 C663 0.930 . S
H676 C657 0.929 . S
H677 C695 0.930 . S
H678 C686 0.930 . S
H679 C687 0.930 . S
H680 C711 0.929 1_655 S
H681 C669 0.930 . S
H682 C670 0.929 . S
H683 C712 0.930 . S
H684 C693 0.930 . S
N685 Gd654 2.661 . S
N685 C689 1.350 . S
N685 C690 1.307 . S
C686 H678 0.930 . S
C686 C687 1.355 . S
C686 C688 1.412 . S
C687 H679 0.930 . S
C687 C686 1.355 . S
C687 C690 1.402 1_655 S
C688 C686 1.412 . S
C688 C689 1.417 1_655 S
C688 C712 1.431 . S
C689 N685 1.350 . S
C689 C688 1.417 1_455 S
C689 C692 1.426 . S
C690 H673 0.930 . S
C690 N685 1.307 . S
C690 C687 1.402 1_455 S
N691 Gd654 2.601 . S
N691 C692 1.359 . S
N691 C695 1.334 . S
C692 C689 1.426 . S
C692 N691 1.359 . S
C692 C696 1.413 . S
C693 H684 0.930 . S
C693 C694 1.359 . S
C693 C695 1.394 . S
C694 C693 1.359 . S
C694 C696 1.391 . S
C694 H697 0.929 . S
C695 H677 0.930 . S
C695 N691 1.334 . S
C695 C693 1.394 . S
C696 C692 1.413 . S
C696 C694 1.391 . S
C696 C711 1.437 . S
H697 C694 0.929 . S
O698 Gd654 2.545 . S
O698 C713 1.258 . S
O699 Gd654 2.606 . S
O699 Gd655 2.362 . S
O699 C710 1.284 . S
O700 Gd655 2.324 . S
O700 C720 1.254 . S
O701 Gd654 2.429 . S
O701 C720 1.268 . S
O702 Gd654 2.545 . S
O702 C710 1.250 . S
O703 Gd654 2.412 . S
O703 C713 1.252 . S
O704 Gd655 2.545 . S
O704 C722 1.258 . S
O705 Gd654 2.362 . S
O705 Gd655 2.606 . S
O705 C721 1.284 . S
O706 Gd654 2.324 . S
O706 C729 1.254 . S
O707 Gd655 2.429 . S
O707 C729 1.268 . S
O708 Gd655 2.545 . S
O708 C721 1.250 . S
O709 Gd655 2.412 . S
O709 C722 1.252 . S
C710 O699 1.284 . S
C710 O702 1.250 . S
C711 H680 0.929 1_455 S
C711 C696 1.437 . S
C711 C712 1.317 1_455 S
C712 H683 0.930 . S
C712 C688 1.431 . S
C712 C711 1.317 1_655 S
C713 Gd654 2.828 . S
C713 O698 1.258 . S
C713 O703 1.252 . S
C713 C714 1.497 . S
C714 C713 1.497 . S
C714 C715 1.395 . S
C714 C716 1.380 . S
C715 C714 1.395 . S
C715 C718 1.398 . S
C715 H730 0.930 . S
C716 C714 1.380 . S
C716 C717 1.391 . S
C716 H731 0.930 . S
C717 C716 1.391 . S
C717 C719 1.387 . S
C718 C715 1.398 . S
C718 C719 1.380 . S
C718 H732 0.930 . S
C719 C717 1.387 . S
C719 C718 1.380 . S
C719 H733 0.930 . S
C720 O700 1.254 . S
C720 O701 1.268 . S
C721 O705 1.284 . S
C721 O708 1.250 . S
C722 Gd655 2.828 . S
C722 O704 1.258 . S
C722 O709 1.252 . S
C722 C723 1.497 . S
C723 C722 1.497 . S
C723 C724 1.395 . S
C723 C725 1.380 . S
C724 C723 1.395 . S
C724 C727 1.398 . S
C724 H734 0.930 . S
C725 C723 1.380 . S
C725 C726 1.391 . S
C725 H735 0.930 . S
C726 C725 1.391 . S
C726 C728 1.387 . S
C727 C724 1.398 . S
C727 C728 1.380 . S
C727 H736 0.930 . S
C728 C726 1.387 . S
C728 C727 1.380 . S
C728 H737 0.930 . S
C729 O706 1.254 . S
C729 O707 1.268 . S
H730 C715 0.930 . S
H731 C716 0.930 . S
H732 C718 0.930 . S
H733 C719 0.930 . S
H734 C724 0.930 . S
H735 C725 0.930 . S
H736 C727 0.930 . S
H737 C728 0.930 . S
Gd738 N769 2.661 . S
Gd738 N775 2.601 . S
Gd738 O782 2.545 . S
Gd738 O783 2.606 . S
Gd738 O785 2.429 . S
Gd738 O786 2.545 . S
Gd738 O787 2.412 . S
Gd738 O789 2.362 . S
Gd738 O790 2.324 . S
Gd738 C797 2.828 . S
Gd739 N748 2.661 . S
Gd739 N752 2.601 . S
Gd739 O783 2.362 . S
Gd739 O784 2.324 . S
Gd739 O788 2.545 . S
Gd739 O789 2.606 . S
Gd739 O791 2.429 . S
Gd739 O792 2.545 . S
Gd739 O793 2.412 . S
Gd739 C806 2.828 . S
C740 C743 1.417 . S
C740 C745 1.431 . S
C740 C746 1.412 . S
C741 C744 1.437 . S
C741 C745 1.317 . S
C741 H760 0.929 . S
C742 C743 1.426 . S
C742 C744 1.413 . S
C742 N752 1.359 . S
C743 C740 1.417 . S
C743 C742 1.426 . S
C743 N748 1.350 . S
C744 C741 1.437 . S
C744 C742 1.413 . S
C744 C754 1.391 . S
C745 C740 1.431 . S
C745 C741 1.317 . S
C745 H756 0.930 . S
C746 C740 1.412 . S
C746 C747 1.355 . S
C746 H758 0.930 . S
C747 C746 1.355 . S
C747 C749 1.402 . S
C747 H759 0.930 . S
N748 Gd739 2.661 . S
N748 C743 1.350 . S
N748 C749 1.307 . S
C749 C747 1.402 . S
C749 N748 1.307 . S
C749 H750 0.930 . S
H750 C749 0.930 . S
C751 N752 1.334 . S
C751 C753 1.394 . S
C751 H755 0.930 . S
N752 Gd739 2.601 . S
N752 C742 1.359 . S
N752 C751 1.334 . S
C753 C751 1.394 . S
C753 C754 1.359 . S
C753 H765 0.930 . S
C754 C744 1.391 . S
C754 C753 1.359 . S
C754 H766 0.929 . S
H755 C751 0.930 . S
H756 C745 0.930 . S
H757 C774 0.930 . S
H758 C746 0.930 . S
H759 C747 0.930 . S
H760 C741 0.929 . S
H761 C779 0.930 . S
H762 C770 0.930 . S
H763 C771 0.930 . S
H764 C795 0.929 . S
H765 C753 0.930 . S
H766 C754 0.929 . S
H767 C796 0.930 . S
H768 C777 0.930 . S
N769 Gd738 2.661 . S
N769 C773 1.350 . S
N769 C774 1.307 . S
C770 H762 0.930 . S
C770 C771 1.355 . S
C770 C772 1.412 . S
C771 H763 0.930 . S
C771 C770 1.355 . S
C771 C774 1.402 1_455 S
C772 C770 1.412 . S
C772 C773 1.417 1_455 S
C772 C796 1.431 . S
C773 N769 1.350 . S
C773 C772 1.417 1_655 S
C773 C776 1.426 . S
C774 H757 0.930 . S
C774 N769 1.307 . S
C774 C771 1.402 1_655 S
N775 Gd738 2.601 . S
N775 C776 1.359 . S
N775 C779 1.334 . S
C776 C773 1.426 . S
C776 N775 1.359 . S
C776 C780 1.413 . S
C777 H768 0.930 . S
C777 C778 1.359 . S
C777 C779 1.394 . S
C778 C777 1.359 . S
C778 C780 1.391 . S
C778 H781 0.929 . S
C779 H761 0.930 . S
C779 N775 1.334 . S
C779 C777 1.394 . S
C780 C776 1.413 . S
C780 C778 1.391 . S
C780 C795 1.437 1_655 S
H781 C778 0.929 . S
O782 Gd738 2.545 . S
O782 C797 1.258 . S
O783 Gd738 2.606 . S
O783 Gd739 2.362 . S
O783 C794 1.284 . S
O784 Gd739 2.324 . S
O784 C804 1.254 . S
O785 Gd738 2.429 . S
O785 C804 1.268 . S
O786 Gd738 2.545 . S
O786 C794 1.250 . S
O787 Gd738 2.412 . S
O787 C797 1.252 . S
O788 Gd739 2.545 . S
O788 C806 1.258 . S
O789 Gd738 2.362 . S
O789 Gd739 2.606 . S
O789 C805 1.284 . S
O790 Gd738 2.324 . S
O790 C813 1.254 . S
O791 Gd739 2.429 . S
O791 C813 1.268 . S
O792 Gd739 2.545 . S
O792 C805 1.250 . S
O793 Gd739 2.412 . S
O793 C806 1.252 . S
C794 O783 1.284 . S
C794 O786 1.250 . S
C795 H764 0.929 . S
C795 C780 1.437 1_455 S
C795 C796 1.317 . S
C796 H767 0.930 . S
C796 C772 1.431 . S
C796 C795 1.317 . S
C797 Gd738 2.828 . S
C797 O782 1.258 . S
C797 O787 1.252 . S
C797 C798 1.497 . S
C798 C797 1.497 . S
C798 C799 1.395 . S
C798 C800 1.380 . S
C799 C798 1.395 . S
C799 C802 1.398 . S
C799 H814 0.930 . S
C800 C798 1.380 . S
C800 C801 1.391 . S
C800 H815 0.930 . S
C801 C800 1.391 . S
C801 C803 1.387 . S
C802 C799 1.398 . S
C802 C803 1.380 . S
C802 H816 0.930 . S
C803 C801 1.387 . S
C803 C802 1.380 . S
C803 H817 0.930 . S
C804 O784 1.254 . S
C804 O785 1.268 . S
C805 O789 1.284 . S
C805 O792 1.250 . S
C806 Gd739 2.828 . S
C806 O788 1.258 . S
C806 O793 1.252 . S
C806 C807 1.497 . S
C807 C806 1.497 . S
C807 C808 1.395 . S
C807 C809 1.380 . S
C808 C807 1.395 . S
C808 C811 1.398 . S
C808 H818 0.930 . S
C809 C807 1.380 . S
C809 C810 1.391 . S
C809 H819 0.930 . S
C810 C809 1.391 . S
C810 C812 1.387 . S
C811 C808 1.398 . S
C811 C812 1.380 . S
C811 H820 0.930 . S
C812 C810 1.387 . S
C812 C811 1.380 . S
C812 H821 0.930 . S
C813 O790 1.254 . S
C813 O791 1.268 . S
H814 C799 0.930 . S
H815 C800 0.930 . S
H816 C802 0.930 . S
H817 C803 0.930 . S
H818 C808 0.930 . S
H819 C809 0.930 . S
H820 C811 0.930 . S
H821 C812 0.930 . S
Gd822 N853 2.661 . S
Gd822 N859 2.601 . S
Gd822 O866 2.545 . S
Gd822 O867 2.606 . S
Gd822 O869 2.429 . S
Gd822 O870 2.545 . S
Gd822 O871 2.412 . S
Gd822 O873 2.362 . S
Gd822 O874 2.324 . S
Gd822 C881 2.828 . S
Gd823 N832 2.661 . S
Gd823 N836 2.601 . S
Gd823 O867 2.362 . S
Gd823 O868 2.324 . S
Gd823 O872 2.545 . S
Gd823 O873 2.606 . S
Gd823 O875 2.429 . S
Gd823 O876 2.545 . S
Gd823 O877 2.412 . S
Gd823 C890 2.828 . S
C824 C827 1.417 . S
C824 C829 1.431 . S
C824 C830 1.412 . S
C825 C828 1.437 . S
C825 C829 1.317 . S
C825 H844 0.929 . S
C826 C827 1.426 . S
C826 C828 1.413 . S
C826 N836 1.359 . S
C827 C824 1.417 . S
C827 C826 1.426 . S
C827 N832 1.350 . S
C828 C825 1.437 . S
C828 C826 1.413 . S
C828 C838 1.391 . S
C829 C824 1.431 . S
C829 C825 1.317 . S
C829 H840 0.930 . S
C830 C824 1.412 . S
C830 C831 1.355 . S
C830 H842 0.930 . S
C831 C830 1.355 . S
C831 C833 1.402 . S
C831 H843 0.930 . S
N832 Gd823 2.661 . S
N832 C827 1.350 . S
N832 C833 1.307 . S
C833 C831 1.402 . S
C833 N832 1.307 . S
C833 H834 0.930 . S
H834 C833 0.930 . S
C835 N836 1.334 . S
C835 C837 1.394 . S
C835 H839 0.930 . S
N836 Gd823 2.601 . S
N836 C826 1.359 . S
N836 C835 1.334 . S
C837 C835 1.394 . S
C837 C838 1.359 . S
C837 H849 0.930 . S
C838 C828 1.391 . S
C838 C837 1.359 . S
C838 H850 0.929 . S
H839 C835 0.930 . S
H840 C829 0.930 . S
H841 C858 0.930 . S
H842 C830 0.930 . S
H843 C831 0.930 . S
H844 C825 0.929 . S
H845 C863 0.930 . S
H846 C854 0.930 . S
H847 C855 0.930 . S
H848 C879 0.929 . S
H849 C837 0.930 . S
H850 C838 0.929 . S
H851 C880 0.930 . S
H852 C861 0.930 . S
N853 Gd822 2.661 . S
N853 C857 1.350 . S
N853 C858 1.307 . S
C854 H846 0.930 . S
C854 C855 1.355 . S
C854 C856 1.412 . S
C855 H847 0.930 . S
C855 C854 1.355 . S
C855 C858 1.402 . S
C856 C854 1.412 . S
C856 C857 1.417 . S
C856 C880 1.431 . S
C857 N853 1.350 . S
C857 C856 1.417 . S
C857 C860 1.426 . S
C858 H841 0.930 . S
C858 N853 1.307 . S
C858 C855 1.402 . S
N859 Gd822 2.601 . S
N859 C860 1.359 . S
N859 C863 1.334 . S
C860 C857 1.426 . S
C860 N859 1.359 . S
C860 C864 1.413 . S
C861 H852 0.930 . S
C861 C862 1.359 . S
C861 C863 1.394 . S
C862 C861 1.359 . S
C862 C864 1.391 . S
C862 H865 0.929 . S
C863 H845 0.930 . S
C863 N859 1.334 . S
C863 C861 1.394 . S
C864 C860 1.413 . S
C864 C862 1.391 . S
C864 C879 1.437 . S
H865 C862 0.929 . S
O866 Gd822 2.545 . S
O866 C881 1.258 . S
O867 Gd822 2.606 . S
O867 Gd823 2.362 . S
O867 C878 1.284 . S
O868 Gd823 2.324 . S
O868 C888 1.254 . S
O869 Gd822 2.429 . S
O869 C888 1.268 . S
O870 Gd822 2.545 . S
O870 C878 1.250 . S
O871 Gd822 2.412 . S
O871 C881 1.252 . S
O872 Gd823 2.545 . S
O872 C890 1.258 . S
O873 Gd822 2.362 . S
O873 Gd823 2.606 . S
O873 C889 1.284 . S
O874 Gd822 2.324 . S
O874 C897 1.254 . S
O875 Gd823 2.429 . S
O875 C897 1.268 . S
O876 Gd823 2.545 . S
O876 C889 1.250 . S
O877 Gd823 2.412 . S
O877 C890 1.252 . S
C878 O867 1.284 . S
C878 O870 1.250 . S
C879 H848 0.929 . S
C879 C864 1.437 . S
C879 C880 1.317 . S
C880 H851 0.930 . S
C880 C856 1.431 . S
C880 C879 1.317 . S
C881 Gd822 2.828 . S
C881 O866 1.258 . S
C881 O871 1.252 . S
C881 C882 1.497 . S
C882 C881 1.497 . S
C882 C883 1.395 . S
C882 C884 1.380 . S
C883 C882 1.395 . S
C883 C886 1.398 . S
C883 H898 0.930 . S
C884 C882 1.380 . S
C884 C885 1.391 . S
C884 H899 0.930 . S
C885 C884 1.391 . S
C885 C887 1.387 . S
C886 C883 1.398 . S
C886 C887 1.380 . S
C886 H900 0.930 . S
C887 C885 1.387 . S
C887 C886 1.380 . S
C887 H901 0.930 . S
C888 O868 1.254 . S
C888 O869 1.268 . S
C889 O873 1.284 . S
C889 O876 1.250 . S
C890 Gd823 2.828 . S
C890 O872 1.258 . S
C890 O877 1.252 . S
C890 C891 1.497 . S
C891 C890 1.497 . S
C891 C892 1.395 . S
C891 C893 1.380 . S
C892 C891 1.395 . S
C892 C895 1.398 . S
C892 H902 0.930 . S
C893 C891 1.380 . S
C893 C894 1.391 . S
C893 H903 0.930 . S
C894 C893 1.391 . S
C894 C896 1.387 . S
C895 C892 1.398 . S
C895 C896 1.380 . S
C895 H904 0.930 . S
C896 C894 1.387 . S
C896 C895 1.380 . S
C896 H905 0.930 . S
C897 O874 1.254 . S
C897 O875 1.268 . S
H898 C883 0.930 . S
H899 C884 0.930 . S
H900 C886 0.930 . S
H901 C887 0.930 . S
H902 C892 0.930 . S
H903 C893 0.930 . S
H904 C895 0.930 . S
H905 C896 0.930 . S
Gd906 N937 2.661 . S
Gd906 N943 2.601 . S
Gd906 O950 2.545 . S
Gd906 O951 2.606 . S
Gd906 O953 2.429 . S
Gd906 O954 2.545 . S
Gd906 O955 2.412 . S
Gd906 O957 2.362 . S
Gd906 O958 2.324 . S
Gd906 C965 2.828 . S
Gd907 N916 2.661 . S
Gd907 N920 2.601 . S
Gd907 O951 2.362 . S
Gd907 O952 2.324 . S
Gd907 O956 2.545 . S
Gd907 O957 2.606 . S
Gd907 O959 2.429 . S
Gd907 O960 2.545 . S
Gd907 O961 2.412 . S
Gd907 C974 2.828 . S
C908 C911 1.417 . S
C908 C913 1.431 1_655 S
C908 C914 1.412 1_655 S
C909 C912 1.437 . S
C909 C913 1.317 1_655 S
C909 H928 0.929 . S
C910 C911 1.426 . S
C910 C912 1.413 . S
C910 N920 1.359 . S
C911 C908 1.417 . S
C911 C910 1.426 . S
C911 N916 1.350 . S
C912 C909 1.437 . S
C912 C910 1.413 . S
C912 C922 1.391 . S
C913 C908 1.431 1_455 S
C913 C909 1.317 1_455 S
C913 H924 0.930 . S
C914 C908 1.412 1_455 S
C914 C915 1.355 1_455 S
C914 H926 0.930 . S
C915 C914 1.355 1_655 S
C915 C917 1.402 . S
C915 H927 0.930 1_655 S
N916 Gd907 2.661 . S
N916 C911 1.350 . S
N916 C917 1.307 . S
C917 C915 1.402 . S
C917 N916 1.307 . S
C917 H918 0.930 . S
H918 C917 0.930 . S
C919 N920 1.334 . S
C919 C921 1.394 . S
C919 H923 0.930 . S
N920 Gd907 2.601 . S
N920 C910 1.359 . S
N920 C919 1.334 . S
C921 C919 1.394 . S
C921 C922 1.359 . S
C921 H933 0.930 1_545 S
C922 C912 1.391 . S
C922 C921 1.359 . S
C922 H934 0.929 . S
H923 C919 0.930 . S
H924 C913 0.930 . S
H925 C942 0.930 . S
H926 C914 0.930 . S
H927 C915 0.930 1_455 S
H928 C909 0.929 . S
H929 C947 0.930 . S
H930 C938 0.930 . S
H931 C939 0.930 . S
H932 C963 0.929 . S
H933 C921 0.930 1_565 S
H934 C922 0.929 . S
H935 C964 0.930 . S
H936 C945 0.930 . S
N937 Gd906 2.661 . S
N937 C941 1.350 . S
N937 C942 1.307 . S
C938 H930 0.930 . S
C938 C939 1.355 . S
C938 C940 1.412 . S
C939 H931 0.930 . S
C939 C938 1.355 . S
C939 C942 1.402 . S
C940 C938 1.412 . S
C940 C941 1.417 . S
C940 C964 1.431 . S
C941 N937 1.350 . S
C941 C940 1.417 . S
C941 C944 1.426 . S
C942 H925 0.930 . S
C942 N937 1.307 . S
C942 C939 1.402 . S
N943 Gd906 2.601 . S
N943 C944 1.359 . S
N943 C947 1.334 . S
C944 C941 1.426 . S
C944 N943 1.359 . S
C944 C948 1.413 . S
C945 H936 0.930 . S
C945 C946 1.359 . S
C945 C947 1.394 . S
C946 C945 1.359 . S
C946 C948 1.391 . S
C946 H949 0.929 . S
C947 H929 0.930 . S
C947 N943 1.334 . S
C947 C945 1.394 . S
C948 C944 1.413 . S
C948 C946 1.391 . S
C948 C963 1.437 . S
H949 C946 0.929 . S
O950 Gd906 2.545 . S
O950 C965 1.258 . S
O951 Gd906 2.606 . S
O951 Gd907 2.362 . S
O951 C962 1.284 . S
O952 Gd907 2.324 . S
O952 C972 1.254 . S
O953 Gd906 2.429 . S
O953 C972 1.268 . S
O954 Gd906 2.545 . S
O954 C962 1.250 . S
O955 Gd906 2.412 . S
O955 C965 1.252 . S
O956 Gd907 2.545 . S
O956 C974 1.258 . S
O957 Gd906 2.362 . S
O957 Gd907 2.606 . S
O957 C973 1.284 . S
O958 Gd906 2.324 . S
O958 C981 1.254 . S
O959 Gd907 2.429 . S
O959 C981 1.268 . S
O960 Gd907 2.545 . S
O960 C973 1.250 . S
O961 Gd907 2.412 . S
O961 C974 1.252 . S
C962 O951 1.284 . S
C962 O954 1.250 . S
C963 H932 0.929 . S
C963 C948 1.437 . S
C963 C964 1.317 . S
C964 H935 0.930 . S
C964 C940 1.431 . S
C964 C963 1.317 . S
C965 Gd906 2.828 . S
C965 O950 1.258 . S
C965 O955 1.252 . S
C965 C966 1.497 . S
C966 C965 1.497 . S
C966 C967 1.395 . S
C966 C968 1.380 . S
C967 C966 1.395 . S
C967 C970 1.398 . S
C967 H982 0.930 . S
C968 C966 1.380 . S
C968 C969 1.391 . S
C968 H983 0.930 . S
C969 C968 1.391 . S
C969 C971 1.387 . S
C970 C967 1.398 . S
C970 C971 1.380 . S
C970 H984 0.930 . S
C971 C969 1.387 . S
C971 C970 1.380 . S
C971 H985 0.930 . S
C972 O952 1.254 . S
C972 O953 1.268 . S
C973 O957 1.284 . S
C973 O960 1.250 . S
C974 Gd907 2.828 . S
C974 O956 1.258 . S
C974 O961 1.252 . S
C974 C975 1.497 . S
C975 C974 1.497 . S
C975 C976 1.395 . S
C975 C977 1.380 . S
C976 C975 1.395 . S
C976 C979 1.398 . S
C976 H986 0.930 . S
C977 C975 1.380 . S
C977 C978 1.391 . S
C977 H987 0.930 . S
C978 C977 1.391 . S
C978 C980 1.387 . S
C979 C976 1.398 . S
C979 C980 1.380 . S
C979 H988 0.930 . S
C980 C978 1.387 . S
C980 C979 1.380 . S
C980 H989 0.930 . S
C981 O958 1.254 . S
C981 O959 1.268 . S
H982 C967 0.930 . S
H983 C968 0.930 . S
H984 C970 0.930 . S
H985 C971 0.930 . S
H986 C976 0.930 . S
H987 C977 0.930 . S
H988 C979 0.930 . S
H989 C980 0.930 . S
C990 C991 1.369 . S
C990 C992 1.419 . S
C990 H994 0.930 . S
C991 C990 1.369 . S
C991 C1000 1.429 . S
C992 C990 1.419 . S
C992 C993 1.363 . S
C992 H995 0.929 . S
C993 C992 1.363 . S
C993 C999 1.428 . S
H994 C990 0.930 . S
H995 C992 0.929 . S
S996 N997 1.613 1_556 S
S996 N998 1.610 . S
N997 S996 1.613 1_554 S
N997 C1000 1.350 . S
N998 S996 1.610 . S
N998 C999 1.351 1_556 S
C999 C993 1.428 . S
C999 N998 1.351 1_554 S
C999 C1000 1.434 . S
C1000 C991 1.429 . S
C1000 N997 1.350 . S
C1000 C999 1.434 . S
C1001 C1002 1.369 . S
C1001 C1003 1.419 . S
C1001 H1005 0.930 . S
C1002 C1001 1.369 . S
C1002 C1011 1.429 . S
C1003 C1001 1.419 . S
C1003 C1004 1.363 . S
C1003 H1006 0.902 1_554 S
C1004 C1003 1.363 . S
C1004 C1010 1.428 . S
H1005 C1001 0.930 . S
H1006 C1003 0.902 1_556 S
S1007 N1008 1.613 . S
S1007 N1009 1.610 . S
N1008 S1007 1.613 . S
N1008 C1011 1.350 . S
N1009 S1007 1.610 . S
N1009 C1010 1.351 . S
C1010 C1004 1.428 . S
C1010 N1009 1.351 . S
C1010 C1011 1.434 . S
C1011 C1002 1.429 . S
C1011 N1008 1.350 . S
C1011 C1010 1.434 . S
C1012 C1013 1.369 . S
C1012 C1014 1.419 . S
C1012 H1016 0.930 . S
C1013 C1012 1.369 . S
C1013 C1022 1.429 . S
C1014 C1012 1.419 . S
C1014 C1015 1.363 . S
C1014 H1017 0.929 . S
C1015 C1014 1.363 . S
C1015 C1021 1.428 . S
H1016 C1012 0.930 . S
H1017 C1014 0.929 . S
S1018 N1019 1.613 . S
S1018 N1020 1.610 . S
N1019 S1018 1.613 . S
N1019 C1022 1.350 . S
N1020 S1018 1.610 . S
N1020 C1021 1.351 . S
C1021 C1015 1.428 . S
C1021 N1020 1.351 . S
C1021 C1022 1.434 . S
C1022 C1013 1.429 . S
C1022 N1019 1.350 . S
C1022 C1021 1.434 . S
C1023 C1024 1.369 . S
C1023 C1025 1.419 . S
C1023 H1027 0.930 . S
C1024 C1023 1.369 . S
C1024 C1033 1.429 . S
C1025 C1023 1.419 . S
C1025 C1026 1.363 . S
C1025 H1028 0.929 . S
C1026 C1025 1.363 . S
C1026 C1032 1.428 . S
H1027 C1023 0.930 . S
H1028 C1025 0.929 . S
S1029 N1030 1.613 . S
S1029 N1031 1.610 . S
N1030 S1029 1.613 . S
N1030 C1033 1.350 . S
N1031 S1029 1.610 . S
N1031 C1032 1.351 . S
C1032 C1026 1.428 . S
C1032 N1031 1.351 . S
C1032 C1033 1.434 . S
C1033 C1024 1.429 . S
C1033 N1030 1.350 . S
C1033 C1032 1.434 . S
C1034 C1035 1.369 1_554 S
C1034 C1036 1.419 . S
C1034 H1038 0.930 . S
C1035 C1034 1.369 1_556 S
C1035 C1044 1.429 . S
C1036 C1034 1.419 . S
C1036 C1037 1.363 . S
C1036 H1039 0.929 . S
C1037 C1036 1.363 . S
C1037 C1043 1.428 1_554 S
H1038 C1034 0.930 . S
H1039 C1036 0.929 . S
S1040 N1041 1.613 . S
S1040 N1042 1.610 . S
N1041 S1040 1.613 . S
N1041 C1044 1.350 . S
N1042 S1040 1.610 . S
N1042 C1043 1.351 . S
C1043 C1037 1.428 1_556 S
C1043 N1042 1.351 . S
C1043 C1044 1.434 . S
C1044 C1035 1.429 . S
C1044 N1041 1.350 . S
C1044 C1043 1.434 . S
C1045 C1046 1.369 . S
C1045 C1047 1.419 . S
C1045 H1049 0.930 . S
C1046 C1045 1.369 . S
C1046 C1055 1.429 1_556 S
C1047 C1045 1.419 . S
C1047 C1048 1.363 . S
C1047 H1050 0.929 . S
C1048 C1047 1.363 . S
C1048 C1054 1.428 1_556 S
H1049 C1045 0.930 . S
H1050 C1047 0.929 . S
S1051 N1052 1.613 . S
S1051 N1053 1.610 . S
N1052 S1051 1.613 . S
N1052 C1055 1.350 . S
N1053 S1051 1.610 . S
N1053 C1054 1.351 . S
C1054 C1048 1.428 1_554 S
C1054 N1053 1.351 . S
C1054 C1055 1.434 . S
C1055 C1046 1.429 1_554 S
C1055 N1052 1.350 . S
C1055 C1054 1.434 . S
C1056 C1057 1.369 . S
C1056 C1058 1.419 . S
C1056 H1060 0.930 . S
C1057 C1056 1.369 . S
C1057 C1066 1.429 . S
C1058 C1056 1.419 . S
C1058 C1059 1.363 . S
C1058 H1061 0.929 . S
C1059 C1058 1.363 . S
C1059 C1065 1.428 . S
H1060 C1056 0.930 . S
H1061 C1058 0.929 . S
S1062 N1063 1.613 1_554 S
S1062 N1064 1.610 . S
N1063 S1062 1.613 1_556 S
N1063 C1066 1.350 . S
N1064 S1062 1.610 . S
N1064 C1065 1.351 1_554 S
C1065 C1059 1.428 . S
C1065 N1064 1.351 1_556 S
C1065 C1066 1.434 . S
C1066 C1057 1.429 . S
C1066 N1063 1.350 . S
C1066 C1065 1.434 . S
C1067 C1068 1.369 . S
C1067 C1069 1.419 . S
C1067 H1071 0.930 . S
C1068 C1067 1.369 . S
C1068 C1077 1.429 . S
C1069 C1067 1.419 . S
C1069 C1070 1.363 . S
C1069 H1072 0.929 . S
C1070 C1069 1.363 . S
C1070 C1076 1.428 . S
H1071 C1067 0.930 . S
H1072 C1069 0.929 . S
S1073 N1074 1.613 . S
S1073 N1075 1.610 . S
N1074 S1073 1.613 . S
N1074 C1077 1.350 . S
N1075 S1073 1.610 . S
N1075 C1076 1.351 . S
C1076 C1070 1.428 . S
C1076 N1075 1.351 . S
C1076 C1077 1.434 . S
C1077 C1068 1.429 . S
C1077 N1074 1.350 . S
C1077 C1076 1.434 . S
C1078 C1079 1.369 1_554 S
C1078 C1080 1.419 . S
C1078 H1082 0.930 . S
C1079 C1078 1.369 1_556 S
C1079 C1088 1.429 . S
C1080 C1078 1.419 . S
C1080 C1081 1.363 . S
C1080 H1083 0.929 . S
C1081 C1080 1.363 . S
C1081 C1087 1.428 1_554 S
H1082 C1078 0.930 . S
H1083 C1080 0.929 . S
S1084 N1085 1.613 . S
S1084 N1086 1.610 . S
N1085 S1084 1.613 . S
N1085 C1088 1.350 . S
N1086 S1084 1.610 . S
N1086 C1087 1.351 . S
C1087 C1081 1.428 1_556 S
C1087 N1086 1.351 . S
C1087 C1088 1.434 . S
C1088 C1079 1.429 . S
C1088 N1085 1.350 . S
C1088 C1087 1.434 . S
C1089 C1090 1.369 . S
C1089 C1091 1.419 . S
C1089 H1093 0.930 . S
C1090 C1089 1.369 . S
C1090 C1099 1.429 . S
C1091 C1089 1.419 . S
C1091 C1092 1.363 . S
C1091 H1094 0.929 1_554 S
C1092 C1091 1.363 . S
C1092 C1098 1.428 . S
H1093 C1089 0.930 . S
H1094 C1091 0.929 1_556 S
S1095 N1096 1.613 . S
S1095 N1097 1.610 . S
N1096 S1095 1.613 . S
N1096 C1099 1.350 . S
N1097 S1095 1.610 . S
N1097 C1098 1.351 . S
C1098 C1092 1.428 . S
C1098 N1097 1.351 . S
C1098 C1099 1.434 . S
C1099 C1090 1.429 . S
C1099 N1096 1.350 . S
C1099 C1098 1.434 . S
C1100 C1101 1.369 . S
C1100 C1102 1.419 . S
C1100 H1104 0.930 . S
C1101 C1100 1.369 . S
C1101 C1110 1.429 . S
C1102 C1100 1.419 . S
C1102 C1103 1.363 . S
C1102 H1105 0.929 . S
C1103 C1102 1.363 . S
C1103 C1109 1.428 . S
H1104 C1100 0.930 . S
H1105 C1102 0.929 . S
S1106 N1107 1.613 . S
S1106 N1108 1.610 . S
N1107 S1106 1.613 . S
N1107 C1110 1.350 . S
N1108 S1106 1.610 . S
N1108 C1109 1.351 . S
C1109 C1103 1.428 . S
C1109 N1108 1.351 . S
C1109 C1110 1.434 . S
C1110 C1101 1.429 . S
C1110 N1107 1.350 . S
C1110 C1109 1.434 . S
C1111 C1112 1.369 . S
C1111 C1113 1.419 . S
C1111 H1115 0.930 . S
C1112 C1111 1.369 . S
C1112 C1121 1.429 . S
C1113 C1111 1.419 . S
C1113 C1114 1.363 . S
C1113 H1116 0.929 . S
C1114 C1113 1.363 . S
C1114 C1120 1.428 . S
H1115 C1111 0.930 . S
H1116 C1113 0.929 . S
S1117 N1118 1.613 . S
S1117 N1119 1.610 . S
N1118 S1117 1.613 . S
N1118 C1121 1.350 . S
N1119 S1117 1.610 . S
N1119 C1120 1.351 . S
C1120 C1114 1.428 . S
C1120 N1119 1.351 . S
C1120 C1121 1.434 . S
C1121 C1112 1.429 . S
C1121 N1118 1.350 . S
C1121 C1120 1.434 . S
C1122 C1123 1.369 . S
C1122 C1124 1.419 1_655 S
C1122 H1126 0.930 . S
C1123 C1122 1.369 . S
C1123 C1132 1.429 . S
C1124 C1122 1.419 1_455 S
C1124 C1125 1.363 . S
C1124 H1127 0.929 . S
C1125 C1124 1.363 . S
C1125 C1131 1.428 . S
H1126 C1122 0.930 . S
H1127 C1124 0.929 . S
S1128 N1129 1.613 . S
S1128 N1130 1.610 1_655 S
N1129 S1128 1.613 . S
N1129 C1132 1.350 . S
N1130 S1128 1.610 1_455 S
N1130 C1131 1.351 . S
C1131 C1125 1.428 . S
C1131 N1130 1.351 . S
C1131 C1132 1.434 1_455 S
C1132 C1123 1.429 . S
C1132 N1129 1.350 . S
C1132 C1131 1.434 1_655 S
C1133 C1134 1.369 . S
C1133 C1135 1.419 . S
C1133 H1137 0.930 . S
C1134 C1133 1.369 . S
C1134 C1143 1.429 . S
C1135 C1133 1.419 . S
C1135 C1136 1.363 . S
C1135 H1138 0.929 . S
C1136 C1135 1.363 . S
C1136 C1142 1.428 . S
H1137 C1133 0.930 . S
H1138 C1135 0.929 . S
S1139 N1140 1.613 . S
S1139 N1141 1.610 . S
N1140 S1139 1.613 . S
N1140 C1143 1.350 . S
N1141 S1139 1.610 . S
N1141 C1142 1.351 . S
C1142 C1136 1.428 . S
C1142 N1141 1.351 . S
C1142 C1143 1.434 . S
C1143 C1134 1.429 . S
C1143 N1140 1.350 . S
C1143 C1142 1.434 . S
C1144 C1145 1.365 1_565 S
C1144 C1146 1.436 . S
C1144 H1148 0.916 1_565 S
C1145 C1144 1.365 1_545 S
C1145 C1154 1.429 . S
C1146 C1144 1.436 . S
C1146 C1147 1.363 . S
C1146 H1149 0.929 . S
C1147 C1146 1.363 . S
C1147 C1153 1.428 . S
H1148 C1144 0.916 1_545 S
H1149 C1146 0.929 . S
S1150 N1151 1.613 1_565 S
S1150 N1152 1.610 . S
N1151 S1150 1.613 1_545 S
N1151 C1154 1.350 . S
N1152 S1150 1.610 . S
N1152 C1153 1.351 . S
C1153 C1147 1.428 . S
C1153 N1152 1.351 . S
C1153 C1154 1.434 1_565 S
C1154 C1145 1.429 . S
C1154 N1151 1.350 . S
C1154 C1153 1.434 1_545 S
C1155 C1156 1.369 . S
C1155 C1157 1.419 . S
C1155 H1159 0.930 . S
C1156 C1155 1.369 . S
C1156 C1165 1.429 . S
C1157 C1155 1.419 . S
C1157 C1158 1.363 . S
C1157 H1160 0.929 . S
C1158 C1157 1.363 . S
C1158 C1164 1.428 . S
H1159 C1155 0.930 . S
H1160 C1157 0.929 . S
S1161 N1162 1.613 . S
S1161 N1163 1.610 . S
N1162 S1161 1.613 . S
N1162 C1165 1.350 . S
N1163 S1161 1.610 . S
N1163 C1164 1.351 . S
C1164 C1158 1.428 . S
C1164 N1163 1.351 . S
C1164 C1165 1.434 . S
C1165 C1156 1.429 . S
C1165 N1162 1.350 . S
C1165 C1164 1.434 . S
C1166 C1167 1.369 . S
C1166 C1168 1.419 . S
C1166 H1170 0.930 . S
C1167 C1166 1.369 . S
C1167 C1176 1.429 . S
C1168 C1166 1.419 . S
C1168 C1169 1.363 . S
C1168 H1171 0.929 . S
C1169 C1168 1.363 . S
C1169 C1175 1.428 . S
H1170 C1166 0.930 . S
H1171 C1168 0.929 . S
S1172 N1173 1.613 . S
S1172 N1174 1.610 . S
N1173 S1172 1.613 . S
N1173 C1176 1.350 . S
N1174 S1172 1.610 . S
N1174 C1175 1.351 . S
C1175 C1169 1.428 . S
C1175 N1174 1.351 . S
C1175 C1176 1.434 . S
C1176 C1167 1.429 . S
C1176 N1173 1.350 . S
C1176 C1175 1.434 . S
C1177 C1178 1.369 . S
C1177 C1179 1.419 . S
C1177 H1181 0.930 . S
C1178 C1177 1.369 . S
C1178 C1187 1.429 . S
C1179 C1177 1.419 . S
C1179 C1180 1.363 . S
C1179 H1182 0.929 . S
C1180 C1179 1.363 . S
C1180 C1186 1.428 . S
H1181 C1177 0.930 . S
H1182 C1179 0.929 . S
S1183 N1184 1.613 . S
S1183 N1185 1.610 . S
N1184 S1183 1.613 . S
N1184 C1187 1.350 . S
N1185 S1183 1.610 . S
N1185 C1186 1.351 . S
C1186 C1180 1.428 . S
C1186 N1185 1.351 . S
C1186 C1187 1.434 . S
C1187 C1178 1.429 . S
C1187 N1184 1.350 . S
C1187 C1186 1.434 . S
C1188 C1189 1.369 . S
C1188 C1190 1.419 . S
C1188 H1192 0.930 . S
C1189 C1188 1.369 . S
C1189 C1198 1.429 . S
C1190 C1188 1.419 . S
C1190 C1191 1.363 . S
C1190 H1193 0.929 . S
C1191 C1190 1.363 . S
C1191 C1197 1.428 . S
H1192 C1188 0.930 . S
H1193 C1190 0.929 . S
S1194 N1195 1.613 . S
S1194 N1196 1.610 . S
N1195 S1194 1.613 . S
N1195 C1198 1.350 . S
N1196 S1194 1.610 . S
N1196 C1197 1.351 . S
C1197 C1191 1.428 . S
C1197 N1196 1.351 . S
C1197 C1198 1.434 . S
C1198 C1189 1.429 . S
C1198 N1195 1.350 . S
C1198 C1197 1.434 . S
C1199 C1200 1.369 . S
C1199 C1201 1.419 . S
C1199 H1203 0.930 . S
C1200 C1199 1.369 . S
C1200 C1209 1.429 . S
C1201 C1199 1.419 . S
C1201 C1202 1.363 . S
C1201 H1204 0.929 . S
C1202 C1201 1.363 . S
C1202 C1208 1.428 . S
H1203 C1199 0.930 . S
H1204 C1201 0.929 . S
S1205 N1206 1.613 . S
S1205 N1207 1.610 . S
N1206 S1205 1.613 . S
N1206 C1209 1.350 . S
N1207 S1205 1.610 . S
N1207 C1208 1.351 . S
C1208 C1202 1.428 . S
C1208 N1207 1.351 . S
C1208 C1209 1.434 . S
C1209 C1200 1.429 . S
C1209 N1206 1.350 . S
C1209 C1208 1.434 . S
C1210 C1211 1.369 . S
C1210 C1212 1.419 . S
C1210 H1214 0.930 . S
C1211 C1210 1.369 . S
C1211 C1220 1.429 . S
C1212 C1210 1.419 . S
C1212 C1213 1.363 . S
C1212 H1215 0.929 . S
C1213 C1212 1.363 . S
C1213 C1219 1.428 . S
H1214 C1210 0.930 . S
H1215 C1212 0.929 . S
S1216 N1217 1.613 . S
S1216 N1218 1.610 . S
N1217 S1216 1.613 . S
N1217 C1220 1.350 . S
N1218 S1216 1.610 . S
N1218 C1219 1.351 . S
C1219 C1213 1.428 . S
C1219 N1218 1.351 . S
C1219 C1220 1.434 . S
C1220 C1211 1.429 . S
C1220 N1217 1.350 . S
C1220 C1219 1.434 . S
C1221 C1222 1.369 . S
C1221 C1223 1.416 1_545 S
C1221 H1225 0.930 . S
C1222 C1221 1.369 . S
C1222 C1231 1.429 . S
C1223 C1221 1.416 1_565 S
C1223 C1224 1.365 . S
C1223 H1226 0.930 . S
C1224 C1223 1.365 . S
C1224 C1230 1.428 . S
H1225 C1221 0.930 . S
H1226 C1223 0.930 . S
S1227 N1228 1.613 1_565 S
S1227 N1229 1.610 . S
N1228 S1227 1.613 1_545 S
N1228 C1231 1.350 . S
N1229 S1227 1.610 . S
N1229 C1230 1.351 . S
C1230 C1224 1.428 . S
C1230 N1229 1.351 . S
C1230 C1231 1.434 1_565 S
C1231 C1222 1.429 . S
C1231 N1228 1.350 . S
C1231 C1230 1.434 1_545 S
C1232 C1233 1.369 . S
C1232 C1234 1.419 1_655 S
C1232 H1236 0.930 . S
C1233 C1232 1.369 . S
C1233 C1242 1.429 1_655 S
C1234 C1232 1.419 1_455 S
C1234 C1235 1.363 . S
C1234 H1237 0.929 . S
C1235 C1234 1.363 . S
C1235 C1241 1.428 . S
H1236 C1232 0.930 . S
H1237 C1234 0.929 . S
S1238 N1239 1.613 . S
S1238 N1240 1.610 . S
N1239 S1238 1.613 . S
N1239 C1242 1.350 . S
N1240 S1238 1.610 . S
N1240 C1241 1.351 . S
C1241 C1235 1.428 . S
C1241 N1240 1.351 . S
C1241 C1242 1.434 . S
C1242 C1233 1.429 1_455 S
C1242 N1239 1.350 . S
C1242 C1241 1.434 . S
C1243 C1244 1.369 . S
C1243 C1245 1.419 . S
C1243 H1247 0.930 . S
C1244 C1243 1.369 . S
C1244 C1253 1.429 . S
C1245 C1243 1.419 . S
C1245 C1246 1.363 . S
C1245 H1248 0.929 . S
C1246 C1245 1.363 . S
C1246 C1252 1.428 . S
H1247 C1243 0.930 . S
H1248 C1245 0.929 . S
S1249 N1250 1.613 . S
S1249 N1251 1.610 . S
N1250 S1249 1.613 . S
N1250 C1253 1.350 . S
N1251 S1249 1.610 . S
N1251 C1252 1.351 . S
C1252 C1246 1.428 . S
C1252 N1251 1.351 . S
C1252 C1253 1.434 . S
C1253 C1244 1.429 . S
C1253 N1250 1.350 . S
C1253 C1252 1.434 . S
C1254 C1255 1.369 . S
C1254 C1256 1.419 . S
C1254 H1258 0.930 . S
C1255 C1254 1.369 . S
C1255 C1264 1.429 . S
C1256 C1254 1.419 . S
C1256 C1257 1.363 . S
C1256 H1259 0.929 . S
C1257 C1256 1.363 . S
C1257 C1263 1.428 . S
H1258 C1254 0.930 . S
H1259 C1256 0.929 . S
S1260 N1261 1.613 . S
S1260 N1262 1.610 . S
N1261 S1260 1.613 . S
N1261 C1264 1.350 . S
N1262 S1260 1.610 . S
N1262 C1263 1.351 . S
C1263 C1257 1.428 . S
C1263 N1262 1.351 . S
C1263 C1264 1.434 . S
C1264 C1255 1.429 . S
C1264 N1261 1.350 . S
C1264 C1263 1.434 . S
C1265 C1266 1.369 . S
C1265 C1267 1.419 . S
C1265 H1269 0.930 . S
C1266 C1265 1.369 . S
C1266 C1275 1.429 . S
C1267 C1265 1.419 . S
C1267 C1268 1.363 . S
C1267 H1270 0.929 . S
C1268 C1267 1.363 . S
C1268 C1274 1.428 . S
H1269 C1265 0.930 . S
H1270 C1267 0.929 . S
S1271 N1272 1.613 . S
S1271 N1273 1.610 . S
N1272 S1271 1.613 . S
N1272 C1275 1.350 . S
N1273 S1271 1.610 . S
N1273 C1274 1.351 . S
C1274 C1268 1.428 . S
C1274 N1273 1.351 . S
C1274 C1275 1.434 . S
C1275 C1266 1.429 . S
C1275 N1272 1.350 . S
C1275 C1274 1.434 . S
C1276 C1277 1.369 . S
C1276 C1278 1.419 . S
C1276 H1280 0.930 . S
C1277 C1276 1.369 . S
C1277 C1286 1.429 . S
C1278 C1276 1.419 . S
C1278 C1279 1.363 . S
C1278 H1281 0.929 . S
C1279 C1278 1.363 . S
C1279 C1285 1.428 . S
H1280 C1276 0.930 . S
H1281 C1278 0.929 . S
S1282 N1283 1.613 . S
S1282 N1284 1.610 . S
N1283 S1282 1.613 . S
N1283 C1286 1.350 . S
N1284 S1282 1.610 . S
N1284 C1285 1.351 . S
C1285 C1279 1.428 . S
C1285 N1284 1.351 . S
C1285 C1286 1.434 . S
C1286 C1277 1.429 . S
C1286 N1283 1.350 . S
C1286 C1285 1.434 . S
C1287 C1288 1.369 . S
C1287 C1289 1.419 1_565 S
C1287 H1291 0.930 . S
C1288 C1287 1.369 . S
C1288 C1297 1.429 1_565 S
C1289 C1287 1.419 1_545 S
C1289 C1290 1.363 . S
C1289 H1292 0.929 . S
C1290 C1289 1.363 . S
C1290 C1296 1.428 . S
H1291 C1287 0.930 . S
H1292 C1289 0.929 . S
S1293 N1294 1.613 . S
S1293 N1295 1.610 . S
N1294 S1293 1.613 . S
N1294 C1297 1.350 . S
N1295 S1293 1.610 . S
N1295 C1296 1.351 . S
C1296 C1290 1.428 . S
C1296 N1295 1.351 . S
C1296 C1297 1.434 . S
C1297 C1288 1.429 1_545 S
C1297 N1294 1.350 . S
C1297 C1296 1.434 . S
C1298 C1299 1.369 . S
C1298 C1300 1.419 . S
C1298 H1302 0.930 . S
C1299 C1298 1.369 . S
C1299 C1308 1.429 . S
C1300 C1298 1.419 . S
C1300 C1301 1.363 . S
C1300 H1303 0.929 . S
C1301 C1300 1.363 . S
C1301 C1307 1.428 . S
H1302 C1298 0.930 . S
H1303 C1300 0.929 . S
S1304 N1305 1.613 1_655 S
S1304 N1306 1.610 . S
N1305 S1304 1.613 1_455 S
N1305 C1308 1.350 1_455 S
N1306 S1304 1.610 . S
N1306 C1307 1.351 . S
C1307 C1301 1.428 . S
C1307 N1306 1.351 . S
C1307 C1308 1.434 . S
C1308 C1299 1.429 . S
C1308 N1305 1.350 1_655 S
C1308 C1307 1.434 . S
C1309 C1310 1.369 . S
C1309 C1311 1.419 . S
C1309 H1313 0.930 . S
C1310 C1309 1.369 . S
C1310 C1319 1.429 . S
C1311 C1309 1.419 . S
C1311 C1312 1.363 . S
C1311 H1314 0.929 . S
C1312 C1311 1.363 . S
C1312 C1318 1.428 . S
H1313 C1309 0.930 . S
H1314 C1311 0.929 . S
S1315 N1316 1.613 . S
S1315 N1317 1.610 . S
N1316 S1315 1.613 . S
N1316 C1319 1.350 . S
N1317 S1315 1.610 . S
N1317 C1318 1.351 . S
C1318 C1312 1.428 . S
C1318 N1317 1.351 . S
C1318 C1319 1.434 . S
C1319 C1310 1.429 . S
C1319 N1316 1.350 . S
C1319 C1318 1.434 . S
C1320 C1321 1.369 . S
C1320 C1322 1.419 . S
C1320 H1324 0.930 . S
C1321 C1320 1.369 . S
C1321 C1330 1.429 . S
C1322 C1320 1.419 . S
C1322 C1323 1.363 1_455 S
C1322 H1325 0.929 . S
C1323 C1322 1.363 1_655 S
C1323 C1329 1.428 . S
H1324 C1320 0.930 . S
H1325 C1322 0.929 . S
S1326 N1327 1.613 1_655 S
S1326 N1328 1.610 . S
N1327 S1326 1.613 1_455 S
N1327 C1330 1.350 . S
N1328 S1326 1.610 . S
N1328 C1329 1.351 . S
C1329 C1323 1.428 . S
C1329 N1328 1.351 . S
C1329 C1330 1.434 1_655 S
C1330 C1321 1.429 . S
C1330 N1327 1.350 . S
C1330 C1329 1.434 1_455 S
C1331 C1332 1.369 . S
C1331 C1333 1.419 . S
C1331 H1335 0.930 . S
C1332 C1331 1.369 . S
C1332 C1341 1.429 . S
C1333 C1331 1.419 . S
C1333 C1334 1.363 . S
C1333 H1336 0.929 . S
C1334 C1333 1.363 . S
C1334 C1340 1.428 . S
H1335 C1331 0.930 . S
H1336 C1333 0.929 . S
S1337 N1338 1.613 . S
S1337 N1339 1.610 . S
N1338 S1337 1.613 . S
N1338 C1341 1.350 . S
N1339 S1337 1.610 . S
N1339 C1340 1.351 . S
C1340 C1334 1.428 . S
C1340 N1339 1.351 . S
C1340 C1341 1.434 . S
C1341 C1332 1.429 . S
C1341 N1338 1.350 . S
C1341 C1340 1.434 . S
C1342 C1343 1.369 . S
C1342 C1344 1.419 1_565 S
C1342 H1346 0.930 . S
C1343 C1342 1.369 . S
C1343 C1352 1.429 . S
C1344 C1342 1.419 1_545 S
C1344 C1345 1.363 . S
C1344 H1347 0.929 . S
C1345 C1344 1.363 . S
C1345 C1351 1.428 1_545 S
H1346 C1342 0.930 . S
H1347 C1344 0.929 . S
S1348 N1349 1.613 . S
S1348 N1350 1.610 . S
N1349 S1348 1.613 . S
N1349 C1352 1.350 . S
N1350 S1348 1.610 . S
N1350 C1351 1.351 . S
C1351 C1345 1.428 1_565 S
C1351 N1350 1.351 . S
C1351 C1352 1.434 . S
C1352 C1343 1.429 . S
C1352 N1349 1.350 . S
C1352 C1351 1.434 . S
C1353 C1354 1.369 . S
C1353 C1355 1.419 . S
C1353 H1357 0.930 . S
C1354 C1353 1.369 . S
C1354 C1363 1.429 . S
C1355 C1353 1.419 . S
C1355 C1356 1.363 . S
C1355 H1358 0.929 . S
C1356 C1355 1.363 . S
C1356 C1362 1.428 . S
H1357 C1353 0.930 . S
H1358 C1355 0.929 . S
S1359 N1360 1.613 . S
S1359 N1361 1.610 . S
N1360 S1359 1.613 . S
N1360 C1363 1.350 . S
N1361 S1359 1.610 . S
N1361 C1362 1.351 . S
C1362 C1356 1.428 . S
C1362 N1361 1.351 . S
C1362 C1363 1.434 . S
C1363 C1354 1.429 . S
C1363 N1360 1.350 . S
C1363 C1362 1.434 . S
C1364 C1365 1.369 . S
C1364 C1366 1.419 . S
C1364 H1368 0.930 . S
C1365 C1364 1.369 . S
C1365 C1374 1.429 . S
C1366 C1364 1.419 . S
C1366 C1367 1.363 . S
C1366 H1369 0.929 . S
C1367 C1366 1.363 . S
C1367 C1373 1.428 . S
H1368 C1364 0.930 . S
H1369 C1366 0.929 . S
S1370 N1371 1.613 . S
S1370 N1372 1.610 . S
N1371 S1370 1.613 . S
N1371 C1374 1.350 . S
N1372 S1370 1.610 . S
N1372 C1373 1.351 . S
C1373 C1367 1.428 . S
C1373 N1372 1.351 . S
C1373 C1374 1.434 . S
C1374 C1365 1.429 . S
C1374 N1371 1.350 . S
C1374 C1373 1.434 . S
C1375 C1376 1.369 . S
C1375 C1377 1.419 . S
C1375 H1379 0.930 . S
C1376 C1375 1.369 . S
C1376 C1385 1.429 . S
C1377 C1375 1.419 . S
C1377 C1378 1.363 . S
C1377 H1380 0.929 . S
C1378 C1377 1.363 . S
C1378 C1384 1.428 . S
H1379 C1375 0.930 . S
H1380 C1377 0.929 . S
S1381 N1382 1.613 . S
S1381 N1383 1.610 . S
N1382 S1381 1.613 . S
N1382 C1385 1.350 . S
N1383 S1381 1.610 . S
N1383 C1384 1.351 . S
C1384 C1378 1.428 . S
C1384 N1383 1.351 . S
C1384 C1385 1.434 . S
C1385 C1376 1.429 . S
C1385 N1382 1.350 . S
C1385 C1384 1.434 . S
C1386 C1387 1.369 . S
C1386 C1388 1.419 . S
C1386 H1390 0.930 . S
C1387 C1386 1.369 . S
C1387 C1396 1.429 . S
C1388 C1386 1.419 . S
C1388 C1389 1.363 . S
C1388 H1391 0.929 . S
C1389 C1388 1.363 . S
C1389 C1395 1.428 . S
H1390 C1386 0.930 . S
H1391 C1388 0.929 . S
S1392 N1393 1.613 . S
S1392 N1394 1.610 . S
N1393 S1392 1.613 . S
N1393 C1396 1.350 . S
N1394 S1392 1.610 . S
N1394 C1395 1.351 . S
C1395 C1389 1.428 . S
C1395 N1394 1.351 . S
C1395 C1396 1.434 . S
C1396 C1387 1.429 . S
C1396 N1393 1.350 . S
C1396 C1395 1.434 . S
C1397 C1398 1.369 . S
C1397 C1399 1.419 . S
C1397 H1401 0.930 . S
C1398 C1397 1.369 . S
C1398 C1407 1.429 . S
C1399 C1397 1.419 . S
C1399 C1400 1.363 . S
C1399 H1402 0.929 . S
C1400 C1399 1.363 . S
C1400 C1406 1.428 . S
H1401 C1397 0.930 . S
H1402 C1399 0.929 . S
S1403 N1404 1.613 . S
S1403 N1405 1.610 . S
N1404 S1403 1.613 . S
N1404 C1407 1.350 . S
N1405 S1403 1.610 . S
N1405 C1406 1.351 . S
C1406 C1400 1.428 . S
C1406 N1405 1.351 . S
C1406 C1407 1.434 . S
C1407 C1398 1.429 . S
C1407 N1404 1.350 . S
C1407 C1406 1.434 . S
C1408 C1409 1.369 . S
C1408 C1410 1.419 . S
C1408 H1412 0.930 . S
C1409 C1408 1.369 . S
C1409 C1418 1.429 . S
C1410 C1408 1.419 . S
C1410 C1411 1.363 . S
C1410 H1413 0.929 . S
C1411 C1410 1.363 . S
C1411 C1417 1.428 . S
H1412 C1408 0.930 . S
H1413 C1410 0.929 . S
S1414 N1415 1.613 . S
S1414 N1416 1.610 . S
N1415 S1414 1.613 . S
N1415 C1418 1.350 . S
N1416 S1414 1.610 . S
N1416 C1417 1.351 . S
C1417 C1411 1.428 . S
C1417 N1416 1.351 . S
C1417 C1418 1.434 . S
C1418 C1409 1.429 . S
C1418 N1415 1.350 . S
C1418 C1417 1.434 . S
C1419 C1420 1.369 . S
C1419 C1421 1.419 . S
C1419 H1423 0.930 . S
C1420 C1419 1.369 . S
C1420 C1429 1.429 . S
C1421 C1419 1.419 . S
C1421 C1422 1.363 . S
C1421 H1424 0.929 . S
C1422 C1421 1.363 . S
C1422 C1428 1.428 . S
H1423 C1419 0.930 . S
H1424 C1421 0.929 . S
S1425 N1426 1.613 . S
S1425 N1427 1.610 . S
N1426 S1425 1.613 . S
N1426 C1429 1.350 . S
N1427 S1425 1.610 . S
N1427 C1428 1.351 . S
C1428 C1422 1.428 . S
C1428 N1427 1.351 . S
C1428 C1429 1.434 . S
C1429 C1420 1.429 . S
C1429 N1426 1.350 . S
C1429 C1428 1.434 . S
C1430 C1431 1.369 . S
C1430 C1432 1.419 . S
C1430 H1434 0.930 . S
C1431 C1430 1.369 . S
C1431 C1440 1.429 . S
C1432 C1430 1.419 . S
C1432 C1433 1.363 . S
C1432 H1435 0.929 . S
C1433 C1432 1.363 . S
C1433 C1439 1.428 . S
H1434 C1430 0.930 . S
H1435 C1432 0.929 . S
S1436 N1437 1.613 . S
S1436 N1438 1.610 . S
N1437 S1436 1.613 . S
N1437 C1440 1.350 . S
N1438 S1436 1.610 . S
N1438 C1439 1.351 . S
C1439 C1433 1.428 . S
C1439 N1438 1.351 . S
C1439 C1440 1.434 . S
C1440 C1431 1.429 . S
C1440 N1437 1.350 . S
C1440 C1439 1.434 . S
C1441 C1442 1.369 . S
C1441 C1443 1.419 . S
C1441 H1445 0.930 . S
C1442 C1441 1.369 . S
C1442 C1451 1.429 . S
C1443 C1441 1.419 . S
C1443 C1444 1.363 . S
C1443 H1446 0.929 . S
C1444 C1443 1.363 . S
C1444 C1450 1.428 . S
H1445 C1441 0.930 . S
H1446 C1443 0.929 . S
S1447 N1448 1.613 . S
S1447 N1449 1.610 . S
N1448 S1447 1.613 . S
N1448 C1451 1.350 . S
N1449 S1447 1.610 . S
N1449 C1450 1.351 . S
C1450 C1444 1.428 . S
C1450 N1449 1.351 . S
C1450 C1451 1.434 . S
C1451 C1442 1.429 . S
C1451 N1448 1.350 . S
C1451 C1450 1.434 . S
C1452 C1453 1.369 . S
C1452 C1454 1.419 . S
C1452 H1456 0.930 . S
C1453 C1452 1.369 . S
C1453 C1462 1.429 . S
C1454 C1452 1.419 . S
C1454 C1455 1.363 . S
C1454 H1457 0.929 . S
C1455 C1454 1.363 . S
C1455 C1461 1.428 . S
H1456 C1452 0.930 . S
H1457 C1454 0.929 . S
S1458 N1459 1.613 . S
S1458 N1460 1.610 . S
N1459 S1458 1.613 . S
N1459 C1462 1.350 . S
N1460 S1458 1.610 . S
N1460 C1461 1.351 . S
C1461 C1455 1.428 . S
C1461 N1460 1.351 . S
C1461 C1462 1.434 . S
C1462 C1453 1.429 . S
C1462 N1459 1.350 . S
C1462 C1461 1.434 . S
C1463 C1464 1.369 . S
C1463 C1465 1.419 . S
C1463 H1467 0.930 . S
C1464 C1463 1.369 . S
C1464 C1473 1.429 . S
C1465 C1463 1.419 . S
C1465 C1466 1.363 . S
C1465 H1468 0.929 . S
C1466 C1465 1.363 . S
C1466 C1472 1.428 . S
H1467 C1463 0.930 . S
H1468 C1465 0.929 . S
S1469 N1470 1.613 . S
S1469 N1471 1.610 . S
N1470 S1469 1.613 . S
N1470 C1473 1.350 . S
N1471 S1469 1.610 . S
N1471 C1472 1.351 . S
C1472 C1466 1.428 . S
C1472 N1471 1.351 . S
C1472 C1473 1.434 . S
C1473 C1464 1.429 . S
C1473 N1470 1.350 . S
C1473 C1472 1.434 . S
C1474 C1475 1.369 . S
C1474 C1476 1.419 . S
C1474 H1478 0.930 . S
C1475 C1474 1.369 . S
C1475 C1484 1.429 . S
C1476 C1474 1.419 . S
C1476 C1477 1.363 . S
C1476 H1479 0.929 . S
C1477 C1476 1.363 . S
C1477 C1483 1.428 . S
H1478 C1474 0.930 . S
H1479 C1476 0.929 . S
S1480 N1481 1.613 . S
S1480 N1482 1.610 . S
N1481 S1480 1.613 . S
N1481 C1484 1.350 . S
N1482 S1480 1.610 . S
N1482 C1483 1.351 . S
C1483 C1477 1.428 . S
C1483 N1482 1.351 . S
C1483 C1484 1.434 . S
C1484 C1475 1.429 . S
C1484 N1481 1.350 . S
C1484 C1483 1.434 . S
C1485 C1486 1.369 . S
C1485 C1487 1.419 . S
C1485 H1489 0.930 . S
C1486 C1485 1.369 . S
C1486 C1495 1.429 . S
C1487 C1485 1.419 . S
C1487 C1488 1.363 . S
C1487 H1490 0.929 . S
C1488 C1487 1.363 . S
C1488 C1494 1.428 . S
H1489 C1485 0.930 . S
H1490 C1487 0.929 . S
S1491 N1492 1.613 . S
S1491 N1493 1.610 . S
N1492 S1491 1.613 . S
N1492 C1495 1.350 . S
N1493 S1491 1.610 . S
N1493 C1494 1.351 . S
C1494 C1488 1.428 . S
C1494 N1493 1.351 . S
C1494 C1495 1.434 . S
C1495 C1486 1.429 . S
C1495 N1492 1.350 . S
C1495 C1494 1.434 . S
C1496 C1497 1.369 . S
C1496 C1498 1.419 . S
C1496 H1500 0.930 . S
C1497 C1496 1.369 . S
C1497 C1506 1.429 . S
C1498 C1496 1.419 . S
C1498 C1499 1.363 . S
C1498 H1501 0.929 . S
C1499 C1498 1.363 . S
C1499 C1505 1.428 . S
H1500 C1496 0.930 . S
H1501 C1498 0.929 . S
S1502 N1503 1.613 . S
S1502 N1504 1.610 . S
N1503 S1502 1.613 . S
N1503 C1506 1.350 . S
N1504 S1502 1.610 . S
N1504 C1505 1.351 . S
C1505 C1499 1.428 . S
C1505 N1504 1.351 . S
C1505 C1506 1.434 . S
C1506 C1497 1.429 . S
C1506 N1503 1.350 . S
C1506 C1505 1.434 . S
C1507 C1508 1.369 . S
C1507 C1509 1.419 . S
C1507 H1511 0.930 . S
C1508 C1507 1.369 . S
C1508 C1517 1.429 . S
C1509 C1507 1.419 . S
C1509 C1510 1.363 . S
C1509 H1512 0.929 . S
C1510 C1509 1.363 . S
C1510 C1516 1.428 . S
H1511 C1507 0.930 . S
H1512 C1509 0.929 . S
S1513 N1514 1.613 . S
S1513 N1515 1.610 . S
N1514 S1513 1.613 . S
N1514 C1517 1.350 . S
N1515 S1513 1.610 . S
N1515 C1516 1.351 . S
C1516 C1510 1.428 . S
C1516 N1515 1.351 . S
C1516 C1517 1.434 . S
C1517 C1508 1.429 . S
C1517 N1514 1.350 . S
C1517 C1516 1.434 . S
C1518 C1519 1.369 . S
C1518 C1520 1.419 . S
C1518 H1522 0.930 . S
C1519 C1518 1.369 . S
C1519 C1528 1.429 . S
C1520 C1518 1.419 . S
C1520 C1521 1.363 . S
C1520 H1523 0.929 . S
C1521 C1520 1.363 . S
C1521 C1527 1.428 . S
H1522 C1518 0.930 . S
H1523 C1520 0.929 . S
S1524 N1525 1.613 . S
S1524 N1526 1.610 . S
N1525 S1524 1.613 . S
N1525 C1528 1.350 . S
N1526 S1524 1.610 . S
N1526 C1527 1.351 . S
C1527 C1521 1.428 . S
C1527 N1526 1.351 . S
C1527 C1528 1.434 . S
C1528 C1519 1.429 . S
C1528 N1525 1.350 . S
C1528 C1527 1.434 . S
C1529 C1530 1.369 . S
C1529 C1531 1.419 . S
C1529 H1533 0.930 . S
C1530 C1529 1.369 . S
C1530 C1539 1.429 . S
C1531 C1529 1.419 . S
C1531 C1532 1.363 . S
C1531 H1534 0.929 . S
C1532 C1531 1.363 . S
C1532 C1538 1.428 . S
H1533 C1529 0.930 . S
H1534 C1531 0.929 . S
S1535 N1536 1.613 . S
S1535 N1537 1.610 . S
N1536 S1535 1.613 . S
N1536 C1539 1.350 . S
N1537 S1535 1.610 . S
N1537 C1538 1.351 . S
C1538 C1532 1.428 . S
C1538 N1537 1.351 . S
C1538 C1539 1.434 . S
C1539 C1530 1.429 . S
C1539 N1536 1.350 . S
C1539 C1538 1.434 . S
C1540 C1541 1.369 . S
C1540 C1542 1.419 . S
C1540 H1544 0.930 . S
C1541 C1540 1.369 . S
C1541 C1550 1.429 . S
C1542 C1540 1.419 . S
C1542 C1543 1.363 . S
C1542 H1545 0.929 . S
C1543 C1542 1.363 . S
C1543 C1549 1.428 . S
H1544 C1540 0.930 . S
H1545 C1542 0.929 . S
S1546 N1547 1.613 . S
S1546 N1548 1.610 . S
N1547 S1546 1.613 . S
N1547 C1550 1.350 . S
N1548 S1546 1.610 . S
N1548 C1549 1.351 . S
C1549 C1543 1.428 . S
C1549 N1548 1.351 . S
C1549 C1550 1.434 . S
C1550 C1541 1.429 . S
C1550 N1547 1.350 . S
C1550 C1549 1.434 . S
C1551 C1552 1.369 . S
C1551 C1553 1.419 . S
C1551 H1555 0.930 . S
C1552 C1551 1.369 . S
C1552 C1561 1.429 . S
C1553 C1551 1.419 . S
C1553 C1554 1.363 . S
C1553 H1556 0.929 . S
C1554 C1553 1.363 . S
C1554 C1560 1.428 . S
H1555 C1551 0.930 . S
H1556 C1553 0.929 . S
S1557 N1558 1.613 . S
S1557 N1559 1.610 . S
N1558 S1557 1.613 . S
N1558 C1561 1.350 . S
N1559 S1557 1.610 . S
N1559 C1560 1.351 . S
C1560 C1554 1.428 . S
C1560 N1559 1.351 . S
C1560 C1561 1.434 . S
C1561 C1552 1.429 . S
C1561 N1558 1.350 . S
C1561 C1560 1.434 . S
C1562 C1563 1.369 . S
C1562 C1564 1.419 . S
C1562 H1566 0.930 . S
C1563 C1562 1.369 . S
C1563 C1572 1.429 . S
C1564 C1562 1.419 . S
C1564 C1565 1.363 . S
C1564 H1567 0.929 . S
C1565 C1564 1.363 . S
C1565 C1571 1.428 . S
H1566 C1562 0.930 . S
H1567 C1564 0.929 . S
S1568 N1569 1.613 . S
S1568 N1570 1.610 . S
N1569 S1568 1.613 . S
N1569 C1572 1.350 . S
N1570 S1568 1.610 . S
N1570 C1571 1.351 . S
C1571 C1565 1.428 . S
C1571 N1570 1.351 . S
C1571 C1572 1.434 . S
C1572 C1563 1.429 . S
C1572 N1569 1.350 . S
C1572 C1571 1.434 . S
C1573 C1574 1.369 . S
C1573 C1575 1.419 . S
C1573 H1577 0.930 . S
C1574 C1573 1.369 . S
C1574 C1583 1.429 . S
C1575 C1573 1.419 . S
C1575 C1576 1.363 . S
C1575 H1578 0.929 . S
C1576 C1575 1.363 . S
C1576 C1582 1.428 . S
H1577 C1573 0.930 . S
H1578 C1575 0.929 . S
S1579 N1580 1.613 . S
S1579 N1581 1.610 . S
N1580 S1579 1.613 . S
N1580 C1583 1.350 . S
N1581 S1579 1.610 . S
N1581 C1582 1.351 . S
C1582 C1576 1.428 . S
C1582 N1581 1.351 . S
C1582 C1583 1.434 . S
C1583 C1574 1.429 . S
C1583 N1580 1.350 . S
C1583 C1582 1.434 . S
C991 N170 1.893 . S
C993 C290 1.826 . S
C1002 N184 1.090 . S
C1004 C374 1.067 . S
C1013 N158 1.554 . S
C1015 C468 1.529 . S
C1024 N145 1.539 . S
C1026 C384 1.515 . S
C1037 C458 1.026 . S
C1035 N119 1.050 . S
C1046 N131 1.853 . S
C1048 C300 1.815 1_556 S
C1059 C301 1.570 . S
C1057 N144 1.628 . S
C1070 C385 1.412 . S
C1068 N118 1.416 . S
C1079 N132 1.459 . S
C1081 C477 1.456 . S
C1090 N171 1.449 . S
C1092 C393 1.446 . S
C1101 N183 1.383 . S
C1103 C469 1.374 . S
C1114 C309 1.554 . S
C1112 N157 1.594 . S
C1125 C542 1.827 . S
C1123 N14 1.893 . S
C1134 N28 1.096 . S
C1136 C626 1.076 . S
C1145 N2 1.557 . S
C1147 C720 1.524 . S
C1156 N223 1.538 . S
C1158 C636 1.511 . S
C1167 N197 1.059 . S
C1169 C710 1.033 . S
C1178 N209 1.857 . S
C1180 C552 1.814 . S
C1189 N222 1.630 . S
C1191 C553 1.568 . S
C1200 N196 1.421 . S
C1202 C637 1.409 . S
C1213 C729 1.457 . S
C1211 N210 1.460 . S
C1222 N15 1.450 . S
C1224 C645 1.446 . S
C1235 C721 1.371 . S
C1233 N27 1.386 . S
C1244 N1 1.592 . S
C1246 C561 1.558 . S
C1257 C794 1.822 . S
C1255 N92 1.896 . S
C1266 N106 1.096 . S
C1268 C878 1.071 . S
C1279 C972 1.526 . S
C1277 N80 1.557 . S
C1290 C888 1.511 . S
C1288 N67 1.537 . S
C1301 C962 1.035 . S
C1299 N41 1.056 1_655 S
C1310 N53 1.858 . S
C1312 C804 1.811 . S
C1321 N66 1.628 . S
C1323 C805 1.569 . S
C1332 N40 1.422 . S
C1334 C889 1.413 . S
C1345 C981 1.455 . S
C1343 N54 1.462 . S
C1354 N93 1.452 . S
C1356 C897 1.445 . S
C1365 N105 1.381 . S
C1367 C973 1.370 . S
C1376 N79 1.592 . S
C1378 C813 1.558 . S
C1387 N200 1.328 . S
C1389 C297 1.209 . S
C1400 C381 1.518 . S
C1398 N213 1.696 . S
C1409 N226 1.522 . S
C1411 C474 1.401 . S
C1420 N83 1.548 . S
C1422 C390 1.422 . S
C1431 N96 1.687 . S
C1433 C465 1.501 . S
C1444 C306 1.248 . S
C1442 N109 1.353 . S
C1453 N44 1.332 . S
C1455 C549 1.221 . S
C1464 N57 1.696 . S
C1466 C633 1.518 . S
C1475 N70 1.522 . S
C1477 C726 1.403 . S
C1486 N161 1.548 . S
C1488 C642 1.423 . S
C1499 C717 1.502 . S
C1497 N174 1.686 . S
C1508 N187 1.357 . S
C1510 C558 1.254 . S
C1519 N122 1.331 . S
C1521 C801 1.220 . S
C1530 N135 1.698 . S
C1532 C885 1.511 . S
C1543 C978 1.402 . S
C1541 N148 1.524 . S
C1552 N5 1.551 . S
C1554 C894 1.414 . S
C1563 N18 1.684 . S
C1565 C969 1.509 . S
C1574 N31 1.354 . S
C1576 C810 1.249 . S
