# Generated by pormake.
# Topology apo, (3,6)-cn, num edge types: 1
# Building blocks:
#     Node 0, Type 0, BuildingBlock: VETTIZ_charged_linker_0, # of connection points: 3
#     Node 1, Type 0, BuildingBlock: VETTIZ_charged_linker_0, # of connection points: 3
#     Node 2, Type 0, BuildingBlock: VETTIZ_charged_linker_0, # of connection points: 3
#     Node 3, Type 0, BuildingBlock: VETTIZ_charged_linker_0, # of connection points: 3
#     Node 4, Type 0, BuildingBlock: VETTIZ_charged_linker_0, # of connection points: 3
#     Node 5, Type 0, BuildingBlock: VETTIZ_charged_linker_0, # of connection points: 3
#     Node 6, Type 0, BuildingBlock: VETTIZ_charged_linker_0, # of connection points: 3
#     Node 7, Type 0, BuildingBlock: VETTIZ_charged_linker_0, # of connection points: 3
#     Node 8, Type 1, BuildingBlock: MIDCAF_clean_sbu_0, # of connection points: 6
#     Node 9, Type 1, BuildingBlock: MIDCAF_clean_sbu_0, # of connection points: 6
#     Node 10, Type 1, BuildingBlock: MIDCAF_clean_sbu_0, # of connection points: 6
#     Node 11, Type 1, BuildingBlock: MIDCAF_clean_sbu_0, # of connection points: 6
#     Edge 12, Type (0, 1), BuildingBlock: KIFKEQ_clean_linker_1, # of connection points: 2
#     Edge 13, Type (0, 1), BuildingBlock: KIFKEQ_clean_linker_1, # of connection points: 2
#     Edge 14, Type (0, 1), BuildingBlock: KIFKEQ_clean_linker_1, # of connection points: 2
#     Edge 15, Type (0, 1), BuildingBlock: KIFKEQ_clean_linker_1, # of connection points: 2
#     Edge 16, Type (0, 1), BuildingBlock: KIFKEQ_clean_linker_1, # of connection points: 2
#     Edge 17, Type (0, 1), BuildingBlock: KIFKEQ_clean_linker_1, # of connection points: 2
#     Edge 18, Type (0, 1), BuildingBlock: KIFKEQ_clean_linker_1, # of connection points: 2
#     Edge 19, Type (0, 1), BuildingBlock: KIFKEQ_clean_linker_1, # of connection points: 2
#     Edge 20, Type (0, 1), BuildingBlock: KIFKEQ_clean_linker_1, # of connection points: 2
#     Edge 21, Type (0, 1), BuildingBlock: KIFKEQ_clean_linker_1, # of connection points: 2
#     Edge 22, Type (0, 1), BuildingBlock: KIFKEQ_clean_linker_1, # of connection points: 2
#     Edge 23, Type (0, 1), BuildingBlock: KIFKEQ_clean_linker_1, # of connection points: 2
#     Edge 24, Type (0, 1), BuildingBlock: KIFKEQ_clean_linker_1, # of connection points: 2
#     Edge 25, Type (0, 1), BuildingBlock: KIFKEQ_clean_linker_1, # of connection points: 2
#     Edge 26, Type (0, 1), BuildingBlock: KIFKEQ_clean_linker_1, # of connection points: 2
#     Edge 27, Type (0, 1), BuildingBlock: KIFKEQ_clean_linker_1, # of connection points: 2
#     Edge 28, Type (0, 1), BuildingBlock: KIFKEQ_clean_linker_1, # of connection points: 2
#     Edge 29, Type (0, 1), BuildingBlock: KIFKEQ_clean_linker_1, # of connection points: 2
#     Edge 30, Type (0, 1), BuildingBlock: KIFKEQ_clean_linker_1, # of connection points: 2
#     Edge 31, Type (0, 1), BuildingBlock: KIFKEQ_clean_linker_1, # of connection points: 2
#     Edge 32, Type (0, 1), BuildingBlock: KIFKEQ_clean_linker_1, # of connection points: 2
#     Edge 33, Type (0, 1), BuildingBlock: KIFKEQ_clean_linker_1, # of connection points: 2
#     Edge 34, Type (0, 1), BuildingBlock: KIFKEQ_clean_linker_1, # of connection points: 2
#     Edge 35, Type (0, 1), BuildingBlock: KIFKEQ_clean_linker_1, # of connection points: 2
# Relax obj value: 0.090
# Max RMSD: 0.101
# Mean RMSD: 0.093
data_MOF--net-apo--node1-MIDCAF_clean_sbu_0--node2-VETTIZ_charged_linker_0--edge1-KIFKEQ_clean_linker_1
_symmetry_space_group_name_H-M    P1
_symmetry_Int_Tables_number       1
_symmetry_cell_setting            triclinic
loop_
_symmetry_equiv_pos_as_xyz
'x, y, z'
_cell_length_a     42.971974
_cell_length_b     51.345104
_cell_length_c     46.101009
_cell_angle_alpha  89.955782
_cell_angle_beta   90.053115
_cell_angle_gamma 90.344707
loop_
_atom_site_label
_atom_site_type_symbol
_atom_site_fract_x
_atom_site_fract_y
_atom_site_fract_z
_atom_type_partial_charge
C0 C 0.34716 0.31119 0.48934 0.0
C1 C 0.37037 0.32454 0.50486 0.0
C2 C 0.38599 0.34568 0.49184 0.0
C3 C 0.35593 0.33972 0.44795 0.0
C4 C 0.34054 0.31897 0.4608 0.0
C5 C 0.31779 0.30619 0.44038 0.0
H6 H 0.24979 0.30229 0.30774 0.0
C7 C 0.34449 0.34227 0.41789 0.0
C8 C 0.32236 0.32251 0.41318 0.0
H9 H 0.23154 0.25254 0.38154 0.0
H10 H 0.27105 0.27507 0.40921 0.0
H11 H 0.25449 0.35517 0.34451 0.0
H12 H 0.32378 0.30214 0.31292 0.0
H13 H 0.33983 0.33352 0.30979 0.0
H14 H 0.30515 0.32524 0.28953 0.0
H15 H 0.26381 0.35185 0.30674 0.0
H16 H 0.28508 0.37386 0.32991 0.0
C17 C 0.28472 0.30932 0.45321 0.0
C18 C 0.32795 0.27758 0.43581 0.0
C19 C 0.38341 0.41649 0.35445 0.0
C20 C 0.37736 0.42358 0.32561 0.0
C21 C 0.35797 0.40773 0.30841 0.0
C22 C 0.34385 0.38542 0.32019 0.0
C23 C 0.34945 0.37887 0.34937 0.0
C24 C 0.3695 0.394 0.36577 0.0
C25 C 0.37382 0.38345 0.39593 0.0
C26 C 0.35201 0.36009 0.39535 0.0
C27 C 0.33775 0.3576 0.36809 0.0
C28 C 0.36302 0.40447 0.41775 0.0
C29 C 0.40833 0.37525 0.39931 0.0
C30 C 0.25468 0.29601 0.3297 0.0
C31 C 0.23759 0.27564 0.34249 0.0
C32 C 0.24426 0.26834 0.37132 0.0
C33 C 0.26723 0.28143 0.38734 0.0
C34 C 0.28364 0.30217 0.37447 0.0
C35 C 0.27736 0.30904 0.34607 0.0
C36 C 0.29652 0.33193 0.33617 0.0
C37 C 0.31539 0.33764 0.36325 0.0
C38 C 0.30773 0.3202 0.38565 0.0
C39 C 0.27402 0.35445 0.3287 0.0
C40 C 0.31733 0.323 0.31063 0.0
H41 H 0.39155 0.36967 0.45486 0.0
H42 H 0.33513 0.29469 0.49889 0.0
H43 H 0.35377 0.27604 0.43552 0.0
H44 H 0.32035 0.26951 0.41477 0.0
H45 H 0.31917 0.26485 0.45354 0.0
H46 H 0.28224 0.32862 0.46391 0.0
H47 H 0.27983 0.2941 0.46975 0.0
H48 H 0.26625 0.30884 0.43657 0.0
H49 H 0.39862 0.42829 0.36791 0.0
H50 H 0.35314 0.41301 0.2861 0.0
H51 H 0.32883 0.37434 0.30621 0.0
H52 H 0.34167 0.41433 0.40973 0.0
H53 H 0.38126 0.41964 0.42085 0.0
H54 H 0.35659 0.39641 0.43912 0.0
H55 H 0.41826 0.36884 0.37822 0.0
H56 H 0.41127 0.35829 0.41381 0.0
H57 H 0.42289 0.39167 0.40734 0.0
H58 H 0.404 0.35612 0.50362 0.0
C59 C 0.37881 0.35343 0.46354 0.0
C60 C 0.25067 0.19774 0.83403 0.0
C61 C 0.26454 0.21971 0.84709 0.0
C62 C 0.25589 0.22635 0.87565 0.0
C63 C 0.21988 0.18987 0.87742 0.0
C64 C 0.22839 0.18324 0.84948 0.0
C65 C 0.21082 0.15971 0.83862 0.0
H66 H 0.09723 0.06944 0.86024 0.0
C67 C 0.1958 0.17117 0.88724 0.0
C68 C 0.19023 0.1535 0.86452 0.0
H69 H 0.15645 0.07791 0.78519 0.0
H70 H 0.18369 0.1139 0.80828 0.0
H71 H 0.15309 0.07508 0.90558 0.0
H72 H 0.08589 0.12947 0.87291 0.0
H73 H 0.08958 0.13532 0.91028 0.0
H74 H 0.07595 0.10395 0.89793 0.0
H75 H 0.11333 0.07483 0.91737 0.0
H76 H 0.14247 0.09478 0.93497 0.0
C77 C 0.23453 0.13775 0.83268 0.0
C78 C 0.19157 0.16799 0.81179 0.0
C79 C 0.15073 0.17839 0.98904 0.0
C80 C 0.1277 0.16407 0.00386 0.0
C81 C 0.11231 0.14353 0.98941 0.0
C82 C 0.1199 0.13711 0.96079 0.0
C83 C 0.14302 0.15148 0.94624 0.0
C84 C 0.15784 0.17187 0.96026 0.0
C85 C 0.18136 0.18523 0.94109 0.0
C86 C 0.17893 0.16894 0.91365 0.0
C87 C 0.15632 0.14931 0.9168 0.0
C88 C 0.21376 0.1829 0.95561 0.0
C89 C 0.1704 0.21358 0.93604 0.0
C90 C 0.11587 0.07927 0.8487 0.0
C91 C 0.1244 0.0713 0.82072 0.0
C92 C 0.14939 0.08395 0.8067 0.0
C93 C 0.16508 0.10481 0.82014 0.0
C94 C 0.15595 0.11283 0.84805 0.0
C95 C 0.13205 0.09975 0.86199 0.0
C96 C 0.12652 0.1098 0.89212 0.0
C97 C 0.15031 0.1317 0.89372 0.0
C98 C 0.16739 0.13354 0.86782 0.0
C99 C 0.13395 0.08757 0.91381 0.0
C100 C 0.09271 0.12006 0.8937 0.0
H101 H 0.22832 0.21767 0.91249 0.0
H102 H 0.25663 0.19219 0.81207 0.0
H103 H 0.18109 0.18751 0.81524 0.0
H104 H 0.17174 0.15486 0.80732 0.0
H105 H 0.20644 0.16914 0.79213 0.0
H106 H 0.25401 0.13845 0.84859 0.0
H107 H 0.24472 0.13963 0.81064 0.0
H108 H 0.22432 0.11809 0.83517 0.0
H109 H 0.1627 0.19445 0.99952 0.0
H110 H 0.09468 0.13209 1.00047 0.0
H111 H 0.10746 0.12115 0.95115 0.0
H112 H 0.21627 0.1637 0.96655 0.0
H113 H 0.21722 0.19828 0.97226 0.0
H114 H 0.23313 0.1838 0.93992 0.0
H115 H 0.14457 0.21451 0.9347 0.0
H116 H 0.17861 0.22183 0.91527 0.0
H117 H 0.17793 0.22651 0.95407 0.0
H118 H 0.26656 0.24288 0.88644 0.0
C119 C 0.23374 0.21159 0.89084 0.0
C120 C 0.84772 0.17826 0.51427 0.0
C121 C 0.87144 0.16532 0.49917 0.0
C122 C 0.88822 0.14547 0.51316 0.0
C123 C 0.85736 0.15117 0.55654 0.0
C124 C 0.84136 0.1711 0.54305 0.0
C125 C 0.81782 0.18338 0.56292 0.0
H126 H 0.74574 0.18401 0.69381 0.0
C127 C 0.84492 0.14818 0.58617 0.0
C128 C 0.82191 0.16713 0.59022 0.0
H129 H 0.73061 0.23636 0.6218 0.0
H130 H 0.77006 0.21411 0.59391 0.0
H131 H 0.75142 0.13151 0.6541 0.0
H132 H 0.81746 0.18477 0.692 0.0
H133 H 0.83472 0.15393 0.6937 0.0
H134 H 0.79888 0.15974 0.71303 0.0
H135 H 0.75819 0.13396 0.69244 0.0
H136 H 0.78126 0.11297 0.66988 0.0
C137 C 0.78516 0.17965 0.54931 0.0
C138 C 0.82737 0.21218 0.56779 0.0
C139 C 0.88316 0.0744 0.64972 0.0
C140 C 0.87567 0.0662 0.67792 0.0
C141 C 0.85436 0.08065 0.69442 0.0
C142 C 0.83992 0.10264 0.68248 0.0
C143 C 0.84713 0.11025 0.65388 0.0
C144 C 0.86877 0.09637 0.63821 0.0
C145 C 0.87419 0.10748 0.60847 0.0
C146 C 0.85172 0.13014 0.60859 0.0
C147 C 0.83585 0.13154 0.6351 0.0
C148 C 0.86487 0.08643 0.58594 0.0
C149 C 0.9086 0.11667 0.60656 0.0
C150 C 0.75108 0.19079 0.67211 0.0
C151 C 0.73519 0.21195 0.65999 0.0
C152 C 0.74245 0.21994 0.63149 0.0
C153 C 0.7654 0.20706 0.6154 0.0
C154 C 0.78106 0.18584 0.62787 0.0
C155 C 0.77371 0.17808 0.65577 0.0
C156 C 0.79252 0.15524 0.66569 0.0
C157 C 0.8128 0.15075 0.63937 0.0
C158 C 0.80587 0.16852 0.61712 0.0
C159 C 0.76987 0.13213 0.67106 0.0
C160 C 0.81183 0.1636 0.69261 0.0
H161 H 0.89464 0.12281 0.55098 0.0
H162 H 0.83479 0.19381 0.50404 0.0
H163 H 0.85315 0.21436 0.56834 0.0
H164 H 0.81942 0.21988 0.58886 0.0
H165 H 0.81847 0.22482 0.5501 0.0
H166 H 0.7828 0.15987 0.53968 0.0
H167 H 0.78108 0.19409 0.53178 0.0
H168 H 0.76616 0.18103 0.56528 0.0
H169 H 0.89989 0.06379 0.63678 0.0
H170 H 0.84835 0.07454 0.71621 0.0
H171 H 0.82349 0.11269 0.69586 0.0
H172 H 0.84311 0.07626 0.59269 0.0
H173 H 0.88335 0.07151 0.58381 0.0
H174 H 0.8598 0.09448 0.56428 0.0
H175 H 0.91787 0.12222 0.62826 0.0
H176 H 0.91152 0.13443 0.59323 0.0
H177 H 0.92374 0.10106 0.59787 0.0
H178 H 0.90651 0.13525 0.50178 0.0
C179 C 0.88124 0.13826 0.54168 0.0
C180 C 0.74942 0.30218 0.17175 0.0
C181 C 0.76507 0.28113 0.15911 0.0
C182 C 0.75735 0.2737 0.1305 0.0
C183 C 0.719 0.30816 0.12775 0.0
C184 C 0.72674 0.31538 0.15577 0.0
C185 C 0.70851 0.33844 0.16608 0.0
H186 H 0.60087 0.4307 0.13908 0.0
C187 C 0.69436 0.32597 0.11735 0.0
C188 C 0.68807 0.34362 0.13996 0.0
H189 H 0.65435 0.42049 0.2176 0.0
H190 H 0.67901 0.38233 0.19691 0.0
H191 H 0.65622 0.4205 0.0957 0.0
H192 H 0.58335 0.37252 0.13053 0.0
H193 H 0.58902 0.36089 0.0952 0.0
H194 H 0.57681 0.39415 0.10064 0.0
H195 H 0.6163 0.42299 0.08468 0.0
H196 H 0.64288 0.40122 0.06684 0.0
C197 C 0.73165 0.36115 0.17165 0.0
C198 C 0.68926 0.3301 0.19296 0.0
C199 C 0.6504 0.31932 0.01418 0.0
C200 C 0.62777 0.33416 0.99948 0.0
C201 C 0.61181 0.35371 0.01477 0.0
C202 C 0.61887 0.35921 0.04361 0.0
C203 C 0.64223 0.34509 0.05773 0.0
C204 C 0.65731 0.32521 0.04337 0.0
C205 C 0.68104 0.31215 0.06268 0.0
C206 C 0.67789 0.3279 0.09058 0.0
C207 C 0.6552 0.34721 0.08722 0.0
C208 C 0.71349 0.31563 0.04868 0.0
C209 C 0.67103 0.28341 0.06693 0.0
C210 C 0.61804 0.42035 0.15181 0.0
C211 C 0.62602 0.42875 0.17982 0.0
C212 C 0.64788 0.41436 0.19593 0.0
C213 C 0.66222 0.39233 0.1838 0.0
C214 C 0.65442 0.38457 0.15536 0.0
C215 C 0.6324 0.39847 0.14011 0.0
C216 C 0.62663 0.3877 0.11036 0.0
C217 C 0.64907 0.36505 0.10996 0.0
C218 C 0.66534 0.36328 0.13624 0.0
C219 C 0.63569 0.4091 0.08805 0.0
C220 C 0.59218 0.37845 0.10881 0.0
H221 H 0.72941 0.28039 0.09322 0.0
H222 H 0.75512 0.30862 0.19349 0.0
H223 H 0.68164 0.30941 0.19119 0.0
H224 H 0.66747 0.34121 0.19529 0.0
H225 H 0.70314 0.33206 0.21318 0.0
H226 H 0.75018 0.36157 0.1548 0.0
H227 H 0.74319 0.35905 0.19309 0.0
H228 H 0.72065 0.38048 0.17046 0.0
H229 H 0.66284 0.30398 0.0031 0.0
H230 H 0.59364 0.36488 0.00433 0.0
H231 H 0.60596 0.37453 0.05365 0.0
H232 H 0.71631 0.33571 0.03996 0.0
H233 H 0.71669 0.30179 0.03043 0.0
H234 H 0.73274 0.31312 0.06424 0.0
H235 H 0.6453 0.28176 0.06903 0.0
H236 H 0.68039 0.27478 0.08702 0.0
H237 H 0.67819 0.27131 0.04814 0.0
H238 H 0.76899 0.25743 0.12035 0.0
C239 C 0.73432 0.28701 0.11482 0.0
C240 C 0.63208 0.5814 0.67418 0.0
C241 C 0.60833 0.56532 0.66279 0.0
C242 C 0.59713 0.57048 0.63458 0.0
C243 C 0.63327 0.60651 0.6294 0.0
C244 C 0.64411 0.60184 0.65715 0.0
C245 C 0.6688 0.62127 0.66597 0.0
H246 H 0.75936 0.7259 0.63277 0.0
C247 C 0.65012 0.62934 0.61758 0.0
C248 C 0.67065 0.6384 0.63904 0.0
H249 H 0.7542 0.68356 0.71369 0.0
H250 H 0.71456 0.6553 0.69378 0.0
H251 H 0.75327 0.67478 0.58955 0.0
H252 H 0.68554 0.72851 0.6232 0.0
H253 H 0.67511 0.72134 0.58723 0.0
H254 H 0.71174 0.73747 0.59454 0.0
H255 H 0.75227 0.70855 0.5794 0.0
H256 H 0.72863 0.68463 0.56109 0.0
C257 C 0.69946 0.60625 0.67098 0.0
C258 C 0.65704 0.63645 0.69286 0.0
C259 C 0.63119 0.65684 0.5132 0.0
C260 C 0.64302 0.67719 0.49607 0.0
C261 C 0.66376 0.69536 0.50841 0.0
C262 C 0.67338 0.69283 0.53741 0.0
C263 C 0.66193 0.67198 0.55423 0.0
C264 C 0.64069 0.65475 0.54219 0.0
C265 C 0.62987 0.63451 0.56356 0.0
C266 C 0.64894 0.64183 0.5901 0.0
C267 C 0.66785 0.66369 0.58453 0.0
C268 C 0.63877 0.60736 0.55159 0.0
C269 C 0.59449 0.63831 0.5687 0.0
C270 C 0.74967 0.71046 0.64608 0.0
C271 C 0.7599 0.70691 0.67486 0.0
C272 C 0.7465 0.68681 0.69161 0.0
C273 C 0.72356 0.67036 0.67996 0.0
C274 C 0.71352 0.6741 0.65126 0.0
C275 C 0.72628 0.69404 0.63487 0.0
C276 C 0.71182 0.6955 0.60508 0.0
C277 C 0.68865 0.67299 0.60629 0.0
C278 C 0.68993 0.66045 0.63338 0.0
C279 C 0.73771 0.69079 0.5824 0.0
C280 C 0.69531 0.72211 0.60205 0.0
H281 H 0.59981 0.59355 0.59668 0.0
H282 H 0.64127 0.57808 0.69574 0.0
H283 H 0.63117 0.63675 0.69378 0.0
H284 H 0.66396 0.65724 0.69241 0.0
H285 H 0.66547 0.62749 0.71333 0.0
H286 H 0.70317 0.59176 0.6534 0.0
H287 H 0.69883 0.59553 0.69191 0.0
H288 H 0.72026 0.61896 0.67068 0.0
H289 H 0.61487 0.64285 0.50418 0.0
H290 H 0.6729 0.71124 0.49543 0.0
H291 H 0.68951 0.70708 0.54554 0.0
H292 H 0.66223 0.608 0.5414 0.0
H293 H 0.6219 0.60075 0.53483 0.0
H294 H 0.64038 0.59228 0.56856 0.0
H295 H 0.58755 0.65891 0.56518 0.0
H296 H 0.5875 0.63409 0.59132 0.0
H297 H 0.58042 0.62605 0.55372 0.0
H298 H 0.57839 0.55893 0.62539 0.0
C299 C 0.60944 0.59083 0.61791 0.0
C300 C 0.74931 0.80059 0.17095 0.0
C301 C 0.73242 0.77974 0.15901 0.0
C302 C 0.73788 0.77254 0.12994 0.0
C303 C 0.77678 0.80676 0.12537 0.0
C304 C 0.77102 0.81387 0.15378 0.0
C305 C 0.79019 0.83687 0.16318 0.0
H306 H 0.90096 0.92655 0.1338 0.0
C307 C 0.80077 0.82474 0.11367 0.0
C308 C 0.80852 0.84244 0.1358 0.0
H309 H 0.85145 0.91427 0.21435 0.0
H310 H 0.82145 0.87975 0.19225 0.0
H311 H 0.91139 0.8661 0.1192 0.0
H312 H 0.84152 0.92094 0.09273 0.0
H313 H 0.84935 0.90136 0.06245 0.0
H314 H 0.88 0.92136 0.07767 0.0
H315 H 0.91933 0.8927 0.09497 0.0
H316 H 0.90511 0.86183 0.08183 0.0
C317 C 0.81142 0.82811 0.18856 0.0
C318 C 0.76774 0.85942 0.17065 0.0
C319 C 0.84267 0.81338 0.01093 0.0
C320 C 0.86385 0.82806 0.9943 0.0
C321 C 0.8775 0.85057 0.00635 0.0
C322 C 0.87064 0.85821 0.03476 0.0
C323 C 0.84965 0.84332 0.05133 0.0
C324 C 0.83559 0.82157 0.03925 0.0
C325 C 0.81249 0.80915 0.05969 0.0
C326 C 0.81582 0.82652 0.08624 0.0
C327 C 0.83785 0.84635 0.08123 0.0
C328 C 0.8231 0.78095 0.06589 0.0
C329 C 0.7797 0.81115 0.04592 0.0
C330 C 0.88394 0.91619 0.14681 0.0
C331 C 0.87888 0.92293 0.17601 0.0
C332 C 0.8558 0.90948 0.19184 0.0
C333 C 0.83851 0.88934 0.17897 0.0
C334 C 0.84429 0.88252 0.14993 0.0
C335 C 0.86652 0.89602 0.1343 0.0
C336 C 0.86938 0.88624 0.10367 0.0
C337 C 0.84569 0.86417 0.10369 0.0
C338 C 0.83107 0.86219 0.1308 0.0
C339 C 0.90304 0.8763 0.09938 0.0
C340 C 0.85984 0.90855 0.08285 0.0
H341 H 0.76344 0.77934 0.09122 0.0
H342 H 0.74527 0.80678 0.19308 0.0
H343 H 0.74732 0.85942 0.15578 0.0
H344 H 0.77846 0.87887 0.16791 0.0
H345 H 0.75879 0.85756 0.19316 0.0
H346 H 0.81812 0.80731 0.18623 0.0
H347 H 0.79943 0.8302 0.20976 0.0
H348 H 0.8338 0.83878 0.18931 0.0
H349 H 0.83159 0.79617 0.00195 0.0
H350 H 0.89391 0.86206 0.99382 0.0
H351 H 0.88208 0.87538 0.04275 0.0
H352 H 0.84871 0.78032 0.06939 0.0
H353 H 0.81746 0.76793 0.04736 0.0
H354 H 0.81272 0.77269 0.08576 0.0
H355 H 0.77737 0.82946 0.03318 0.0
H356 H 0.76094 0.81208 0.06223 0.0
H357 H 0.77509 0.7946 0.03099 0.0
H358 H 0.72512 0.75644 0.12035 0.0
C359 C 0.7601 0.78584 0.1131 0.0
C360 C 0.13996 0.91044 0.32629 0.0
C361 C 0.1148 0.92546 0.33588 0.0
C362 C 0.10183 0.92057 0.36339 0.0
C363 C 0.13925 0.88628 0.37166 0.0
C364 C 0.15147 0.89072 0.34435 0.0
C365 C 0.17692 0.87186 0.33703 0.0
H366 H 0.26495 0.76846 0.37459 0.0
C367 C 0.15633 0.86439 0.38488 0.0
C368 C 0.17802 0.85554 0.3645 0.0
H369 H 0.26507 0.81158 0.29392 0.0
H370 H 0.22552 0.84002 0.31238 0.0
H371 H 0.26014 0.81967 0.41627 0.0
H372 H 0.19115 0.76644 0.38259 0.0
H373 H 0.18092 0.77357 0.4186 0.0
H374 H 0.21729 0.75747 0.41124 0.0
H375 H 0.25686 0.78651 0.42833 0.0
H376 H 0.23411 0.81204 0.44444 0.0
C377 C 0.20743 0.88761 0.33254 0.0
C378 C 0.16639 0.85567 0.31033 0.0
C379 C 0.13626 0.83961 0.48991 0.0
C380 C 0.14804 0.81988 0.50785 0.0
C381 C 0.16885 0.80158 0.4963 0.0
C382 C 0.17872 0.80346 0.46737 0.0
C383 C 0.16736 0.8237 0.44978 0.0
C384 C 0.14592 0.84098 0.46095 0.0
C385 C 0.1349 0.86023 0.43862 0.0
C386 C 0.15454 0.85256 0.41268 0.0
C387 C 0.17361 0.83124 0.41937 0.0
C388 C 0.14293 0.888 0.44949 0.0
C389 C 0.0997 0.85539 0.43314 0.0
C390 C 0.25624 0.78393 0.36086 0.0
C391 C 0.26816 0.78779 0.33273 0.0
C392 C 0.25656 0.80839 0.31576 0.0
C393 C 0.2334 0.82479 0.32645 0.0
C394 C 0.22158 0.82062 0.35447 0.0
C395 C 0.23308 0.80057 0.37127 0.0
C396 C 0.21794 0.79944 0.4007 0.0
C397 C 0.19513 0.82187 0.39851 0.0
C398 C 0.19742 0.83412 0.37135 0.0
C399 C 0.24343 0.80449 0.42384 0.0
C400 C 0.20105 0.77283 0.40375 0.0
H401 H 0.10339 0.89859 0.40224 0.0
H402 H 0.15012 0.91375 0.3051 0.0
H403 H 0.14063 0.85339 0.30972 0.0
H404 H 0.17521 0.83549 0.31073 0.0
H405 H 0.17364 0.86516 0.28974 0.0
H406 H 0.209 0.90401 0.34826 0.0
H407 H 0.20853 0.89602 0.31036 0.0
H408 H 0.22856 0.87599 0.33645 0.0
H409 H 0.11969 0.85356 0.49823 0.0
H410 H 0.17793 0.78615 0.50986 0.0
H411 H 0.19494 0.78917 0.45986 0.0
H412 H 0.16692 0.88865 0.45858 0.0
H413 H 0.12663 0.89413 0.46685 0.0
H414 H 0.14256 0.90278 0.43212 0.0
H415 H 0.09283 0.835 0.43841 0.0
H416 H 0.09324 0.8578 0.41005 0.0
H417 H 0.08516 0.86847 0.44661 0.0
H418 H 0.08256 0.93215 0.37115 0.0
C419 C 0.11401 0.90116 0.38139 0.0
C420 C 0.24655 0.68664 0.82884 0.0
C421 C 0.23036 0.70773 0.84095 0.0
C422 C 0.23507 0.71367 0.87056 0.0
C423 C 0.27274 0.67892 0.87478 0.0
C424 C 0.2674 0.67254 0.84607 0.0
C425 C 0.28674 0.64986 0.83634 0.0
H426 H 0.40095 0.56352 0.86522 0.0
C427 C 0.29687 0.66121 0.88618 0.0
C428 C 0.30509 0.64408 0.86369 0.0
H429 H 0.34868 0.57157 0.78564 0.0
H430 H 0.31803 0.60593 0.80731 0.0
H431 H 0.4105 0.62237 0.87743 0.0
H432 H 0.34147 0.56787 0.90742 0.0
H433 H 0.35176 0.58725 0.93734 0.0
H434 H 0.38103 0.56767 0.9199 0.0
H435 H 0.41848 0.59919 0.90554 0.0
H436 H 0.40287 0.63095 0.91349 0.0
C437 C 0.308 0.65915 0.81122 0.0
C438 C 0.26446 0.62714 0.82832 0.0
C439 C 0.33944 0.67298 0.98885 0.0
C440 C 0.36368 0.66058 0.00392 0.0
C441 C 0.37932 0.6397 0.99072 0.0
C442 C 0.37139 0.63145 0.96279 0.0
C443 C 0.34777 0.64438 0.94756 0.0
C444 C 0.33208 0.66471 0.96057 0.0
C445 C 0.30834 0.67654 0.94045 0.0
C446 C 0.31227 0.65977 0.91348 0.0
C447 C 0.3355 0.64108 0.91786 0.0
C448 C 0.31791 0.70523 0.93485 0.0
C449 C 0.27572 0.6731 0.95423 0.0
C450 C 0.38317 0.5729 0.8523 0.0
C451 C 0.3776 0.5652 0.82351 0.0
C452 C 0.35352 0.57731 0.8078 0.0
C453 C 0.33582 0.59725 0.82042 0.0
C454 C 0.34214 0.60503 0.84913 0.0
C455 C 0.36524 0.59261 0.8646 0.0
C456 C 0.36848 0.60283 0.89495 0.0
C457 C 0.34376 0.62378 0.89517 0.0
C458 C 0.32848 0.6251 0.8683 0.0
C459 C 0.40179 0.61431 0.89834 0.0
C460 C 0.36054 0.58034 0.91621 0.0
H461 H 0.25878 0.70507 0.90974 0.0
H462 H 0.24371 0.68153 0.8062 0.0
H463 H 0.24367 0.62692 0.8427 0.0
H464 H 0.27515 0.60781 0.83134 0.0
H465 H 0.25611 0.62894 0.80561 0.0
H466 H 0.31668 0.67928 0.81527 0.0
H467 H 0.29517 0.65927 0.79029 0.0
H468 H 0.32913 0.64727 0.80875 0.0
H469 H 0.32725 0.68923 0.99846 0.0
H470 H 0.39792 0.62981 0.00208 0.0
H471 H 0.38437 0.61553 0.954 0.0
H472 H 0.34355 0.70693 0.93194 0.0
H473 H 0.31131 0.71783 0.95341 0.0
H474 H 0.3078 0.71334 0.91483 0.0
H475 H 0.27419 0.65457 0.96668 0.0
H476 H 0.25696 0.67169 0.93789 0.0
H477 H 0.2705 0.68928 0.96942 0.0
H478 H 0.2224 0.72935 0.88077 0.0
C479 C 0.25613 0.69944 0.88747 0.0
Zn480 Zn 0.02291 0.14334 0.29855 0.0
Zn481 Zn 0.97338 0.14457 0.20022 0.0
Zn482 Zn -0.00122 0.14591 0.25088 0.0
C483 C 0.03314 0.16438 0.19238 0.0
C484 C 0.97274 0.09384 0.21818 0.0
O485 O 0.96623 0.1641 0.28228 0.0
O486 O 0.9844 0.14517 0.32183 0.0
C487 C 0.05597 0.18051 0.26978 0.0
O488 O 0.03337 0.16311 0.2203 0.0
O489 O 0.00968 0.15688 0.17816 0.0
O490 O 0.9628 0.10725 0.19724 0.0
O491 O 0.98738 0.10486 0.23934 0.0
O492 O 0.04782 0.17563 0.29547 0.0
O493 O 0.04292 0.16844 0.24849 0.0
O494 O 0.00851 0.10466 0.26173 0.0
O495 O 0.04498 0.10962 0.29507 0.0
C496 C 0.03021 0.09512 0.27776 0.0
O497 O 0.95588 0.16993 0.25409 0.0
O498 O 0.94021 0.16978 0.20831 0.0
C499 C 0.96371 0.15847 0.30942 0.0
C500 C 0.93709 0.17758 0.23406 0.0
Zn501 Zn 0.53664 0.3562 0.71381 0.0
Zn502 Zn 0.4601 0.34602 0.8339 0.0
Zn503 Zn 0.50266 0.34499 0.7536 0.0
C504 C 0.475 0.3946 0.80034 0.0
C505 C 0.44656 0.32272 0.77119 0.0
O506 O 0.5472 0.32191 0.75636 0.0
O507 O 0.57297 0.33382 0.717 0.0
C508 C 0.52583 0.40285 0.73851 0.0
O509 O 0.48673 0.38118 0.77896 0.0
O510 O 0.46437 0.38433 0.82375 0.0
O511 O 0.46196 0.3337 0.79128 0.0
O512 O 0.45927 0.32319 0.74618 0.0
O513 O 0.54371 0.39334 0.71975 0.0
O514 O 0.50729 0.38795 0.75293 0.0
O515 O 0.47291 0.33015 0.71803 0.0
O516 O 0.50467 0.34633 0.68508 0.0
C517 C 0.47936 0.335 0.69133 0.0
O518 O 0.53329 0.32309 0.78274 0.0
O519 O 0.49266 0.33173 0.80736 0.0
C520 C 0.57102 0.31998 0.73946 0.0
C521 C 0.52056 0.32416 0.80758 0.0
Zn522 Zn 0.0325 0.85329 0.79955 0.0
Zn523 Zn 0.97517 0.84601 0.70136 0.0
Zn524 Zn 0.00196 0.84634 0.7518 0.0
C525 C 0.97609 0.89714 0.7174 0.0
C526 C 0.93778 0.81576 0.73785 0.0
O527 O 0.0469 0.82519 0.7478 0.0
O528 O 0.07097 0.83505 0.78886 0.0
C529 C 0.02389 0.90236 0.78218 0.0
O530 O 0.99009 0.88657 0.7391 0.0
O531 O 0.96651 0.88336 0.69659 0.0
O532 O 0.94056 0.82297 0.71184 0.0
O533 O 0.95803 0.82277 0.75711 0.0
O534 O 0.03515 0.89135 0.8042 0.0
O535 O 0.01101 0.88867 0.76191 0.0
O536 O 0.97246 0.8266 0.78506 0.0
O537 O 0.00232 0.83388 0.82335 0.0
C538 C 0.97785 0.82425 0.81248 0.0
O539 O 0.03497 0.82946 0.71956 0.0
O540 O 0.00933 0.83218 0.67808 0.0
C541 C 0.07062 0.82336 0.76483 0.0
C542 C 0.03375 0.82658 0.6918 0.0
Zn543 Zn 0.52723 0.64534 0.20141 0.0
Zn544 Zn 0.47128 0.64239 0.32043 0.0
Zn545 Zn 0.49884 0.64842 0.25032 0.0
C546 C 0.53383 0.66474 0.31239 0.0
C547 C 0.47187 0.59542 0.28639 0.0
O548 O 0.46896 0.66747 0.21582 0.0
O549 O 0.49709 0.66288 0.17597 0.0
C550 C 0.56559 0.67421 0.23822 0.0
O551 O 0.53086 0.66515 0.28439 0.0
O552 O 0.51337 0.65506 0.32901 0.0
O553 O 0.46617 0.60522 0.31103 0.0
O554 O 0.48342 0.60887 0.26516 0.0
O555 O 0.56459 0.66512 0.21283 0.0
O556 O 0.54316 0.66992 0.25614 0.0
O557 O 0.50624 0.60683 0.24154 0.0
O558 O 0.53033 0.60712 0.19922 0.0
C559 C 0.51947 0.59469 0.22057 0.0
O560 O 0.45711 0.67171 0.24323 0.0
O561 O 0.45406 0.66114 0.28822 0.0
C562 C 0.47261 0.67061 0.18821 0.0
C563 C 0.44283 0.67333 0.26733 0.0
H564 H 0.0561 0.93065 0.31475 0.0
H565 H 0.14578 0.96858 0.31757 0.0
H566 H 0.03374 0.96896 0.2914 0.0
H567 H 0.12347 0.00753 0.29597 0.0
H568 H 0.08159 0.07511 0.25288 0.0
H569 H 0.10129 0.03082 0.25817 0.0
H570 H 0.01871 0.01002 0.3069 0.0
H571 H -0.00127 0.0539 0.3 0.0
C572 C 0.07101 0.94721 0.31006 0.0
C573 C 0.1025 0.94691 0.31802 0.0
C574 C 0.05823 0.96924 0.29692 0.0
C575 C 0.07655 0.99167 0.29216 0.0
C576 C 0.10857 0.99066 0.29884 0.0
C577 C 0.12143 0.96841 0.31141 0.0
C578 C 0.06739 0.06067 0.2639 0.0
C579 C 0.0387 0.06759 0.27595 0.0
C580 C 0.07876 0.03541 0.26726 0.0
C581 C 0.06194 0.01679 0.28343 0.0
C582 C 0.03227 0.02356 0.294 0.0
C583 C 0.02074 0.04873 0.29019 0.0
H584 H 0.35722 0.5229 0.79261 0.0
H585 H 0.44057 0.55951 0.82597 0.0
H586 H 0.38721 0.48424 0.77996 0.0
H587 H 0.47054 0.52089 0.81337 0.0
H588 H 0.4862 0.43282 0.83951 0.0
H589 H 0.46723 0.47746 0.83769 0.0
H590 H 0.43126 0.46396 0.75143 0.0
H591 H 0.45042 0.4191 0.75339 0.0
C592 C 0.38209 0.52297 0.79645 0.0
C593 C 0.39646 0.54399 0.81076 0.0
C594 C 0.3993 0.50087 0.78916 0.0
C595 C 0.43116 0.49945 0.79604 0.0
C596 C 0.44593 0.5213 0.80825 0.0
C597 C 0.42877 0.54334 0.81552 0.0
C598 C 0.47506 0.43969 0.81986 0.0
C599 C 0.46988 0.42271 0.79656 0.0
C600 C 0.46429 0.46524 0.81872 0.0
C601 C 0.44762 0.47417 0.79444 0.0
C602 C 0.44388 0.45755 0.77046 0.0
C603 C 0.45505 0.43201 0.77148 0.0
H604 H 0.5918 0.51718 0.64287 0.0
H605 H 0.59464 0.56319 0.72133 0.0
H606 H 0.56496 0.48251 0.66877 0.0
H607 H 0.56856 0.52756 0.74764 0.0
H608 H 0.56393 0.43226 0.77218 0.0
H609 H 0.58198 0.47597 0.75846 0.0
H610 H 0.50926 0.48006 0.69408 0.0
H611 H 0.49131 0.43658 0.70791 0.0
C612 C 0.58654 0.52001 0.66562 0.0
C613 C 0.5948 0.54328 0.6798 0.0
C614 C 0.57114 0.50011 0.68045 0.0
C615 C 0.56394 0.50269 0.71 0.0
C616 C 0.57349 0.5253 0.72475 0.0
C617 C 0.58863 0.54553 0.70972 0.0
C618 C 0.55068 0.44324 0.7564 0.0
C619 C 0.52609 0.43129 0.74126 0.0
C620 C 0.56117 0.46813 0.74836 0.0
C621 C 0.54735 0.48107 0.72484 0.0
C622 C 0.52046 0.47034 0.71212 0.0
C623 C 0.50991 0.44563 0.72028 0.0
H624 H 0.85835 0.96156 0.21213 0.0
H625 H 0.94118 0.93239 0.17053 0.0
H626 H 0.88751 -0.00032 0.22887 0.0
H627 H 0.9701 0.97072 0.1869 0.0
H628 H 0.97857 0.06184 0.17232 0.0
H629 H 0.96085 0.01686 0.16844 0.0
H630 H 0.93489 0.01738 0.25893 0.0
H631 H 0.95332 0.06273 0.26287 0.0
C632 C 0.88293 0.96296 0.20715 0.0
C633 C 0.89733 0.94423 0.18953 0.0
C634 C 0.89964 0.98474 0.21685 0.0
C635 C 0.93098 0.98817 0.20899 0.0
C636 C 0.94587 0.96862 0.193 0.0
C637 C 0.92924 0.94684 0.18344 0.0
C638 C 0.96979 0.05212 0.19154 0.0
C639 C 0.96717 0.06559 0.21784 0.0
C640 C 0.95981 0.02636 0.18939 0.0
C641 C 0.94645 0.01369 0.21338 0.0
C642 C 0.94509 0.02678 0.24014 0.0
C643 C 0.95575 0.05255 0.24243 0.0
H644 H 0.8743 0.01916 0.6522 0.0
H645 H 0.90796 0.05886 0.72863 0.0
H646 H 0.9029 0.9804 0.66602 0.0
H647 H 0.93738 0.01972 0.74251 0.0
H648 H 0.95471 0.92757 0.76162 0.0
H649 H 0.93107 0.97079 0.75614 0.0
H650 H 0.96009 0.97253 0.66645 0.0
H651 H 0.98247 0.92934 0.67171 0.0
C652 C 0.88778 0.01945 0.67208 0.0
C653 C 0.88948 0.04199 0.68911 0.0
C654 C 0.9043 -0.00262 0.67991 0.0
C655 C 0.92313 -0.0026 0.70484 0.0
C656 C 0.92329 0.01937 0.72301 0.0
C657 C 0.90649 0.04162 0.71516 0.0
C658 C 0.95669 0.93765 0.74104 0.0
C659 C 0.96973 0.92516 0.71686 0.0
C660 C 0.94319 0.96227 0.73791 0.0
C661 C 0.94296 0.97453 0.71063 0.0
C662 C 0.95911 0.9631 0.68748 0.0
C663 C 0.97207 0.93852 0.69048 0.0
H664 H 0.62084 0.4751 0.1523 0.0
H665 H 0.59873 0.43666 0.23309 0.0
H666 H 0.59053 0.51266 0.16704 0.0
H667 H 0.56822 0.47482 0.24811 0.0
H668 H 0.5494 0.56837 0.26341 0.0
H669 H 0.57493 0.52595 0.25788 0.0
H670 H 0.53155 0.51681 0.17397 0.0
H671 H 0.5064 0.55898 0.17952 0.0
C672 C 0.60957 0.47477 0.17332 0.0
C673 C 0.61159 0.45278 0.1913 0.0
C674 C 0.59213 0.49621 0.18171 0.0
C675 C 0.57631 0.49628 0.20834 0.0
C676 C 0.57994 0.47507 0.22732 0.0
C677 C 0.59746 0.45338 0.21881 0.0
C678 C 0.54428 0.55663 0.24445 0.0
C679 C 0.5258 0.56666 0.22196 0.0
C680 C 0.55904 0.53253 0.2412 0.0
C681 C 0.55566 0.51843 0.21525 0.0
C682 C 0.53493 0.52752 0.19399 0.0
C683 C 0.5203 0.55147 0.19724 0.0
H684 H 0.41775 0.43004 0.2805 0.0
H685 H 0.36577 0.47208 0.34516 0.0
H686 H 0.44132 0.47123 0.26371 0.0
H687 H 0.38851 0.51308 0.32803 0.0
H688 H 0.41278 0.58319 0.2743 0.0
H689 H 0.3884 0.54016 0.2785 0.0
H690 H 0.47857 0.50597 0.29326 0.0
H691 H 0.50269 0.54935 0.29039 0.0
C692 C 0.41116 0.44815 0.29077 0.0
C693 C 0.39016 0.44814 0.31408 0.0
C694 C 0.42458 0.47155 0.28126 0.0
C695 C 0.41649 0.49517 0.2945 0.0
C696 C 0.39482 0.4951 0.31728 0.0
C697 C 0.38198 0.47175 0.32717 0.0
C698 C 0.42742 0.56629 0.27739 0.0
C699 C 0.45962 0.56922 0.28123 0.0
C700 C 0.41351 0.5418 0.27994 0.0
C701 C 0.43169 0.51988 0.28609 0.0
C702 C 0.46419 0.52259 0.28805 0.0
C703 C 0.47804 0.54726 0.28612 0.0
H704 H 0.06208 0.06709 0.81158 0.0
H705 H 0.14843 0.02623 0.79917 0.0
H706 H 0.03307 0.02893 0.79443 0.0
H707 H 0.11954 0.98778 0.78264 0.0
H708 H 0.06188 0.92461 0.74253 0.0
H709 H 0.0846 0.96846 0.74525 0.0
H710 H 0.02398 0.98618 0.81722 0.0
H711 H 0.00194 0.94226 0.81466 0.0
C712 C 0.0748 0.04997 0.80485 0.0
C713 C 0.10741 0.04946 0.80679 0.0
C714 C 0.05825 0.02815 0.7951 0.0
C715 C 0.07395 0.00526 0.78732 0.0
C716 C 0.10673 0.00521 0.78803 0.0
C717 C 0.1233 0.02715 0.79759 0.0
C718 C 0.05271 0.93831 0.75817 0.0
C719 C 0.0301 0.93032 0.77829 0.0
C720 C 0.06593 0.96326 0.75997 0.0
C721 C 0.05635 0.98072 0.78165 0.0
C722 C 0.03181 0.97329 0.80017 0.0
C723 C 0.0191 0.94819 0.79874 0.0
H724 H 0.06991 0.16991 0.02689 0.0
H725 H 0.16742 0.17148 0.04966 0.0
H726 H 0.05618 0.17599 0.07785 0.0
H727 H 0.15343 0.17713 0.10103 0.0
H728 H 0.04305 0.21062 0.16601 0.0
H729 H 0.07305 0.21575 0.12117 0.0
H730 H 0.11177 0.13923 0.13324 0.0
H731 H 0.08165 0.1341 0.17798 0.0
C732 C 0.08838 0.17179 0.04278 0.0
C733 C 0.11971 0.17013 0.03438 0.0
C734 C 0.08054 0.17545 0.07183 0.0
C735 C 0.10382 0.1772 0.09312 0.0
C736 C 0.13518 0.17601 0.08484 0.0
C737 C 0.14309 0.17284 0.05557 0.0
C738 C 0.05945 0.19562 0.15998 0.0
C739 C 0.06055 0.17218 0.17556 0.0
C740 C 0.07632 0.19844 0.13425 0.0
C741 C 0.09456 0.17786 0.12392 0.0
C742 C 0.09826 0.15552 0.14111 0.0
C743 C 0.08127 0.15267 0.1668 0.0
H744 H 0.42443 0.30175 0.51932 0.0
H745 H 0.33842 0.32947 0.55576 0.0
H746 H 0.44627 0.2974 0.56798 0.0
H747 H 0.36062 0.32564 0.60486 0.0
H748 H 0.42622 0.30322 0.68966 0.0
H749 H 0.39447 0.2931 0.64614 0.0
H750 H 0.45346 0.34354 0.59501 0.0
H751 H 0.48419 0.35368 0.63702 0.0
C752 C 0.4099 0.30604 0.5379 0.0
C753 C 0.37996 0.31608 0.53405 0.0
C754 C 0.42228 0.30346 0.56568 0.0
C755 C 0.40511 0.31128 0.59007 0.0
C756 C 0.37412 0.31919 0.58641 0.0
C757 C 0.36155 0.32154 0.55843 0.0
C758 C 0.43216 0.31212 0.66909 0.0
C759 C 0.4581 0.32889 0.66684 0.0
C760 C 0.4141 0.30633 0.64432 0.0
C761 C 0.4221 0.31713 0.61722 0.0
C762 C 0.44727 0.33443 0.61545 0.0
C763 C 0.4649 0.34023 0.63975 0.0
H764 H 0.62071 0.37124 0.95805 0.0
H765 H 0.6171 0.28791 0.97067 0.0
H766 H 0.59749 0.36614 0.91018 0.0
H767 H 0.59443 0.28283 0.9219 0.0
H768 H 0.57533 0.29804 0.81712 0.0
H769 H 0.60647 0.2977 0.8621 0.0
H770 H 0.53828 0.34653 0.9034 0.0
H771 H 0.50726 0.34657 0.85935 0.0
C772 C 0.61545 0.35177 0.95037 0.0
C773 C 0.62008 0.33001 0.96838 0.0
C774 C 0.60229 0.34889 0.92294 0.0
C775 C 0.59389 0.32415 0.91262 0.0
C776 C 0.6008 0.3021 0.92947 0.0
C777 C 0.61378 0.30501 0.95727 0.0
C778 C 0.5669 0.30838 0.83599 0.0
C779 C 0.53867 0.32212 0.83479 0.0
C780 C 0.58464 0.30813 0.86162 0.0
C781 C 0.57471 0.32215 0.88603 0.0
C782 C 0.54642 0.3356 0.88481 0.0
C783 C 0.52853 0.33543 0.8596 0.0
H784 H 0.92742 0.18023 0.47761 0.0
H785 H 0.8324 0.16469 0.45249 0.0
H786 H 0.94179 0.18574 0.42676 0.0
H787 H 0.84683 0.16985 0.40121 0.0
H788 H 0.9116 0.13258 0.32543 0.0
H789 H 0.88253 0.14082 0.37002 0.0
H790 H 0.93272 0.21319 0.38142 0.0
H791 H 0.96158 0.20487 0.33664 0.0
C792 C 0.90954 0.17849 0.46113 0.0
C793 C 0.87888 0.17204 0.46879 0.0
C794 C 0.91765 0.18183 0.43206 0.0
C795 C 0.89536 0.17837 0.41003 0.0
C796 C 0.86441 0.17272 0.41778 0.0
C797 C 0.85616 0.16985 0.447 0.0
C798 C 0.91504 0.15093 0.33663 0.0
C799 C 0.93837 0.16831 0.32754 0.0
C800 C 0.89857 0.1556 0.36223 0.0
C801 C 0.90566 0.17751 0.37934 0.0
C802 C 0.92694 0.1961 0.36871 0.0
C803 C 0.94316 0.19152 0.34294 0.0
H804 H 0.8937 0.78392 0.97757 0.0
H805 H 0.85417 0.85491 0.94441 0.0
H806 H 0.91527 0.77437 0.92959 0.0
H807 H 0.87576 0.84575 0.89657 0.0
H808 H 0.91374 0.82582 0.81069 0.0
H809 H 0.87927 0.81989 0.85267 0.0
H810 H 0.95748 0.79343 0.90356 0.0
H811 H 0.9911 0.79855 0.86189 0.0
C812 C 0.88901 0.79711 0.95975 0.0
C813 C 0.87241 0.82014 0.96452 0.0
C814 C 0.90148 0.79178 0.93233 0.0
C815 C 0.89741 0.80934 0.90912 0.0
C816 C 0.87909 0.8316 0.9137 0.0
C817 C 0.86692 0.83701 0.94115 0.0
C818 C 0.92312 0.81768 0.83051 0.0
C819 C 0.95514 0.81293 0.83312 0.0
C820 C 0.90353 0.81462 0.8547 0.0
C821 C 0.91567 0.80666 0.88174 0.0
C822 C 0.9471 0.79943 0.88323 0.0
C823 C 0.9665 0.80246 0.85924 0.0
H824 H 0.66364 0.64714 0.45197 0.0
H825 H 0.60263 0.71106 0.47109 0.0
H826 H 0.64778 0.64837 0.40124 0.0
H827 H 0.58454 0.71133 0.42095 0.0
H828 H 0.55464 0.71244 0.33043 0.0
H829 H 0.58896 0.71875 0.37223 0.0
H830 H 0.60809 0.63603 0.37259 0.0
H831 H 0.57626 0.6307 0.3299 0.0
C832 C 0.64674 0.66147 0.4451 0.0
C833 C 0.63426 0.67898 0.46517 0.0
C834 C 0.63736 0.66211 0.41606 0.0
C835 C 0.61449 0.6798 0.40656 0.0
C836 C 0.60259 0.69772 0.42689 0.0
C837 C 0.61261 0.69745 0.45581 0.0
C838 C 0.56792 0.69608 0.33849 0.0
C839 C 0.56335 0.67119 0.32672 0.0
C840 C 0.58691 0.69945 0.363 0.0
C841 C 0.60084 0.67781 0.37667 0.0
C842 C 0.59837 0.65338 0.36293 0.0
C843 C 0.58017 0.65024 0.33811 0.0
H844 H 0.42168 0.67598 0.01885 0.0
H845 H 0.32953 0.66515 0.0539 0.0
H846 H 0.44163 0.68556 0.06699 0.0
H847 H 0.34941 0.67509 0.10274 0.0
H848 H 0.41492 0.64955 0.18174 0.0
H849 H 0.38306 0.65304 0.13793 0.0
H850 H 0.4427 0.71511 0.10692 0.0
H851 H 0.4752 0.71055 0.15002 0.0
C852 C 0.40561 0.67613 0.03695 0.0
C853 C 0.37416 0.66974 0.03278 0.0
C854 C 0.41693 0.68187 0.06458 0.0
C855 C 0.39712 0.68125 0.08888 0.0
C856 C 0.36531 0.67567 0.08454 0.0
C857 C 0.35388 0.67015 0.05665 0.0
C858 C 0.42026 0.66473 0.16615 0.0
C859 C 0.44739 0.67985 0.16921 0.0
C860 C 0.40211 0.66668 0.14093 0.0
C861 C 0.41074 0.68396 0.11854 0.0
C862 C 0.43585 0.70113 0.12337 0.0
C863 C 0.45422 0.69884 0.14825 0.0
H864 H 0.11663 0.78091 0.53542 0.0
H865 H 0.15882 0.8562 0.54929 0.0
H866 H 0.09679 0.78101 0.58495 0.0
H867 H 0.14145 0.85573 0.59953 0.0
H868 H 0.06402 0.8655 0.66642 0.0
H869 H 0.0973 0.86257 0.62449 0.0
H870 H 0.10051 0.77874 0.63466 0.0
H871 H 0.0647 0.78207 0.67589 0.0
C872 C 0.12219 0.79721 0.54945 0.0
C873 C 0.1388 0.81869 0.53866 0.0
C874 C 0.11116 0.79722 0.57801 0.0
C875 C 0.11712 0.8185 0.59658 0.0
C876 C 0.13545 0.83929 0.58592 0.0
C877 C 0.14567 0.83956 0.55716 0.0
C878 C 0.07281 0.84653 0.66027 0.0
C879 C 0.06212 0.82404 0.67438 0.0
C880 C 0.09205 0.84475 0.63608 0.0
C881 C 0.10158 0.82033 0.62557 0.0
C882 C 0.09306 0.79787 0.64151 0.0
C883 C 0.07309 0.79969 0.66552 0.0
H884 H 0.1795 0.26519 0.36261 0.0
H885 H 0.23692 0.25827 0.2862 0.0
H886 H 0.13605 0.24563 0.33659 0.0
H887 H 0.1929 0.23882 0.25979 0.0
H888 H 0.11429 0.17087 0.24987 0.0
H889 H 0.16041 0.1968 0.26277 0.0
H890 H 0.10089 0.25745 0.29573 0.0
H891 H 0.05521 0.23126 0.28352 0.0
C892 C 0.18284 0.25938 0.34025 0.0
C893 C 0.2116 0.26316 0.32647 0.0
C894 C 0.15783 0.24853 0.32519 0.0
C895 C 0.16095 0.2411 0.29599 0.0
C896 C 0.18983 0.24453 0.28221 0.0
C897 C 0.2149 0.25568 0.29727 0.0
C898 C 0.11123 0.1903 0.25853 0.0
C899 C 0.08144 0.19923 0.26571 0.0
C900 C 0.13755 0.20506 0.2661 0.0
C901 C 0.13415 0.22883 0.2809 0.0
C902 C 0.10417 0.23895 0.2849 0.0
C903 C 0.07804 0.22417 0.27756 0.0
H904 H 0.31302 0.20287 0.81342 0.0
H905 H 0.26919 0.27278 0.84499 0.0
H906 H 0.35398 0.2292 0.79097 0.0
H907 H 0.30983 0.29908 0.82237 0.0
H908 H 0.40964 0.33103 0.81784 0.0
H909 H 0.36378 0.30686 0.83259 0.0
H910 H 0.36813 0.26153 0.75378 0.0
H911 H 0.41519 0.28558 0.7393 0.0
C912 C 0.31184 0.22387 0.81514 0.0
C913 C 0.28807 0.2357 0.83131 0.0
C914 C 0.33527 0.23899 0.80218 0.0
C915 C 0.33538 0.26627 0.80504 0.0
C916 C 0.31083 0.2781 0.8202 0.0
C917 C 0.28754 0.26302 0.83321 0.0
C918 C 0.40079 0.31606 0.80348 0.0
C919 C 0.41621 0.31012 0.77747 0.0
C920 C 0.37421 0.30231 0.81184 0.0
C921 C 0.36218 0.28219 0.79442 0.0
C922 C 0.37697 0.27676 0.76784 0.0
C923 C 0.4037 0.29069 0.75938 0.0
H924 H 0.67718 0.2261 0.64221 0.0
H925 H 0.73864 0.22785 0.7164 0.0
H926 H 0.63703 0.24784 0.67066 0.0
H927 H 0.69833 0.24964 0.74487 0.0
H928 H 0.632 0.32643 0.75208 0.0
H929 H 0.67292 0.29598 0.73813 0.0
H930 H 0.60302 0.23826 0.71708 0.0
H931 H 0.56222 0.26858 0.73184 0.0
C932 C 0.68206 0.23113 0.66458 0.0
C933 C 0.71099 0.22536 0.6771 0.0
C934 C 0.65898 0.2432 0.68096 0.0
C935 C 0.66453 0.25 0.71005 0.0
C936 C 0.69347 0.24435 0.72257 0.0
C937 C 0.71643 0.23194 0.70629 0.0
C938 C 0.62562 0.30671 0.74605 0.0
C939 C 0.59422 0.29959 0.74327 0.0
C940 C 0.64893 0.28938 0.73788 0.0
C941 C 0.64096 0.26501 0.72613 0.0
C942 C 0.60963 0.25704 0.72593 0.0
C943 C 0.58638 0.27419 0.73473 0.0
H944 H 0.82258 0.26728 0.13975 0.0
H945 H 0.76378 0.2645 0.21562 0.0
H946 H 0.86405 0.24596 0.16689 0.0
H947 H 0.80551 0.24305 0.24286 0.0
H948 H 0.87739 0.16947 0.25143 0.0
H949 H 0.83392 0.19784 0.23806 0.0
H950 H 0.89923 0.25712 0.2107 0.0
H951 H 0.94239 0.22886 0.22431 0.0
C952 C 0.81849 0.26203 0.1622 0.0
C953 C 0.78993 0.26754 0.17553 0.0
C954 C 0.84235 0.25014 0.17785 0.0
C955 C 0.83811 0.2432 0.20711 0.0
C956 C 0.80943 0.24835 0.22041 0.0
C957 C 0.78565 0.26063 0.20483 0.0
C958 C 0.88229 0.18914 0.24415 0.0
C959 C 0.91307 0.1972 0.23918 0.0
C960 C 0.85748 0.20527 0.23622 0.0
C961 C 0.8633 0.22942 0.22279 0.0
C962 C 0.89413 0.23846 0.22068 0.0
C963 C 0.9188 0.22248 0.22887 0.0
H964 H 0.81707 0.71805 0.65204 0.0
H965 H 0.75909 0.73306 0.72646 0.0
H966 H 0.85959 0.74273 0.67465 0.0
H967 H 0.80151 0.7581 0.74894 0.0
H968 H 0.87802 0.82805 0.75047 0.0
H969 H 0.83295 0.80089 0.73759 0.0
H970 H 0.89423 0.73649 0.72031 0.0
H971 H 0.93903 0.76358 0.73363 0.0
C972 C 0.81336 0.72684 0.67311 0.0
C973 C 0.78485 0.72356 0.68755 0.0
C974 C 0.83776 0.74072 0.68619 0.0
C975 C 0.83401 0.75202 0.71378 0.0
C976 C 0.80513 0.74948 0.72778 0.0
C977 C 0.78092 0.73515 0.71494 0.0
C978 C 0.88158 0.80764 0.74562 0.0
C979 C 0.9119 0.79768 0.74382 0.0
C980 C 0.85587 0.7922 0.73779 0.0
C981 C 0.86016 0.76671 0.72745 0.0
C982 C 0.89027 0.75616 0.72788 0.0
C983 C 0.91585 0.77147 0.73611 0.0
H984 H 0.7391 0.7601 0.21375 0.0
H985 H 0.67238 0.76876 0.14439 0.0
H986 H 0.69958 0.73772 0.24324 0.0
H987 H 0.63291 0.74682 0.17395 0.0
H988 H 0.56136 0.72635 0.23853 0.0
H989 H 0.60392 0.75548 0.22416 0.0
H990 H 0.66907 0.69247 0.23408 0.0
H991 H 0.62628 0.66324 0.24764 0.0
C992 C 0.71593 0.75737 0.20495 0.0
C993 C 0.70875 0.76603 0.17678 0.0
C994 C 0.69341 0.74466 0.2218 0.0
C995 C 0.66317 0.74096 0.211 0.0
C996 C 0.65594 0.74988 0.18297 0.0
C997 C 0.67856 0.76211 0.16594 0.0
C998 C 0.58502 0.71918 0.23928 0.0
C999 C 0.59075 0.69272 0.24445 0.0
C1000 C 0.60926 0.73571 0.23063 0.0
C1001 C 0.6396 0.72604 0.22761 0.0
C1002 C 0.64589 0.70039 0.23632 0.0
C1003 C 0.62151 0.68373 0.24438 0.0
H1004 H 0.31996 0.80131 0.30164 0.0
H1005 H 0.27071 0.73481 0.33673 0.0
H1006 H 0.35957 0.77247 0.28183 0.0
H1007 H 0.31007 0.706 0.31675 0.0
H1008 H 0.40649 0.67029 0.31459 0.0
H1009 H 0.36349 0.69744 0.3279 0.0
H1010 H 0.37002 0.7376 0.24568 0.0
H1011 H 0.41476 0.71032 0.23233 0.0
C1012 C 0.31741 0.7805 0.3048 0.0
C1013 C 0.29228 0.77031 0.3208 0.0
C1014 C 0.33998 0.764 0.2933 0.0
C1015 C 0.33787 0.73698 0.29758 0.0
C1016 C 0.31251 0.72678 0.3133 0.0
C1017 C 0.29004 0.74327 0.32487 0.0
C1018 C 0.39879 0.68472 0.29903 0.0
C1019 C 0.41422 0.68831 0.27239 0.0
C1020 C 0.37382 0.70019 0.30668 0.0
C1021 C 0.36323 0.71962 0.28785 0.0
C1022 C 0.37793 0.72285 0.26072 0.0
C1023 C 0.40328 0.70719 0.25296 0.0
H1024 H 0.22233 0.76049 0.84294 0.0
H1025 H 0.19063 0.6917 0.79747 0.0
H1026 H 0.18643 0.78678 0.81525 0.0
H1027 H 0.15596 0.71843 0.76815 0.0
H1028 H 0.0668 0.77101 0.76034 0.0
H1029 H 0.10871 0.74132 0.77306 0.0
H1030 H 0.17427 0.80553 0.77045 0.0
H1031 H 0.13175 0.83523 0.7596 0.0
C1032 C 0.20781 0.75094 0.8269 0.0
C1033 C 0.20922 0.72387 0.82276 0.0
C1034 C 0.18758 0.76617 0.81046 0.0
C1035 C 0.16838 0.75487 0.78908 0.0
C1036 C 0.17024 0.72784 0.78446 0.0
C1037 C 0.19036 0.71252 0.80114 0.0
C1038 C 0.09044 0.77845 0.7612 0.0
C1039 C 0.09619 0.80529 0.7591 0.0
C1040 C 0.11453 0.76148 0.76868 0.0
C1041 C 0.14483 0.77112 0.77375 0.0
C1042 C 0.15107 0.79754 0.76778 0.0
C1043 C 0.12687 0.81453 0.76097 0.0
loop_
_geom_bond_atom_site_label_1
_geom_bond_atom_site_label_2
_geom_bond_distance
_geom_bond_site_symmetry_2
_ccdc_geom_bond_type
C0 C1 1.391 . S
C0 C4 1.391 . S
C0 H42 0.948 . S
C1 C0 1.391 . S
C1 C2 1.391 . S
C2 C1 1.391 . S
C2 H58 0.947 . S
C2 C59 1.392 . S
C3 C4 1.391 . S
C3 C7 1.397 . S
C3 C59 1.419 . S
C4 C0 1.391 . S
C4 C3 1.391 . S
C4 C5 1.399 . S
C5 C4 1.399 . S
C5 C8 1.396 . S
C5 C17 1.453 . S
C5 C18 1.684 . S
H6 C30 0.948 . S
C7 C3 1.397 . S
C7 C8 1.394 . S
C7 C26 1.723 . S
C8 C5 1.396 . S
C8 C7 1.394 . S
C8 C38 1.723 . S
H9 C32 0.947 . S
H10 C33 0.948 . S
H11 C39 0.982 . S
H12 C40 0.979 . S
H13 C40 0.980 . S
H14 C40 0.983 . S
H15 C39 0.979 . S
H16 C39 0.977 . S
C17 C5 1.453 . S
C17 H46 0.982 . S
C17 H47 0.979 . S
C17 H48 0.977 . S
C18 C5 1.684 . S
C18 H43 0.979 . S
C18 H44 0.980 . S
C18 H45 0.983 . S
C19 C20 1.391 . S
C19 C24 1.391 . S
C19 H49 0.948 . S
C20 C19 1.391 . S
C20 C21 1.391 . S
C21 C20 1.391 . S
C21 C22 1.392 . S
C21 H50 0.947 . S
C22 C21 1.392 . S
C22 C23 1.419 . S
C22 H51 0.948 . S
C23 C22 1.419 . S
C23 C24 1.391 . S
C23 C27 1.397 . S
C24 C19 1.391 . S
C24 C23 1.391 . S
C24 C25 1.399 . S
C25 C24 1.399 . S
C25 C26 1.396 . S
C25 C28 1.453 . S
C25 C29 1.684 . S
C26 C7 1.723 . S
C26 C25 1.396 . S
C26 C27 1.394 . S
C27 C23 1.397 . S
C27 C26 1.394 . S
C27 C37 1.723 . S
C28 C25 1.453 . S
C28 H52 0.982 . S
C28 H53 0.979 . S
C28 H54 0.977 . S
C29 C25 1.684 . S
C29 H55 0.979 . S
C29 H56 0.980 . S
C29 H57 0.983 . S
C30 H6 0.948 . S
C30 C31 1.391 . S
C30 C35 1.391 . S
C31 C30 1.391 . S
C31 C32 1.391 . S
C32 H9 0.947 . S
C32 C31 1.391 . S
C32 C33 1.392 . S
C33 H10 0.948 . S
C33 C32 1.392 . S
C33 C34 1.419 . S
C34 C33 1.419 . S
C34 C35 1.391 . S
C34 C38 1.397 . S
C35 C30 1.391 . S
C35 C34 1.391 . S
C35 C36 1.399 . S
C36 C35 1.399 . S
C36 C37 1.396 . S
C36 C39 1.453 . S
C36 C40 1.684 . S
C37 C27 1.723 . S
C37 C36 1.396 . S
C37 C38 1.394 . S
C38 C8 1.723 . S
C38 C34 1.397 . S
C38 C37 1.394 . S
C39 H11 0.982 . S
C39 H15 0.979 . S
C39 H16 0.977 . S
C39 C36 1.453 . S
C40 H12 0.979 . S
C40 H13 0.980 . S
C40 H14 0.983 . S
C40 C36 1.684 . S
H41 C59 0.948 . S
H42 C0 0.948 . S
H43 C18 0.979 . S
H44 C18 0.980 . S
H45 C18 0.983 . S
H46 C17 0.982 . S
H47 C17 0.979 . S
H48 C17 0.977 . S
H49 C19 0.948 . S
H50 C21 0.947 . S
H51 C22 0.948 . S
H52 C28 0.982 . S
H53 C28 0.979 . S
H54 C28 0.977 . S
H55 C29 0.979 . S
H56 C29 0.980 . S
H57 C29 0.983 . S
H58 C2 0.947 . S
C59 C2 1.392 . S
C59 C3 1.419 . S
C59 H41 0.948 . S
C60 C61 1.391 . S
C60 C64 1.391 . S
C60 H102 0.948 . S
C61 C60 1.391 . S
C61 C62 1.391 . S
C62 C61 1.391 . S
C62 H118 0.947 . S
C62 C119 1.392 . S
C63 C64 1.391 . S
C63 C67 1.397 . S
C63 C119 1.419 . S
C64 C60 1.391 . S
C64 C63 1.391 . S
C64 C65 1.399 . S
C65 C64 1.399 . S
C65 C68 1.396 . S
C65 C77 1.453 . S
C65 C78 1.684 . S
H66 C90 0.948 . S
C67 C63 1.397 . S
C67 C68 1.394 . S
C67 C86 1.723 . S
C68 C65 1.396 . S
C68 C67 1.394 . S
C68 C98 1.723 . S
H69 C92 0.947 . S
H70 C93 0.948 . S
H71 C99 0.982 . S
H72 C100 0.979 . S
H73 C100 0.980 . S
H74 C100 0.983 . S
H75 C99 0.979 . S
H76 C99 0.977 . S
C77 C65 1.453 . S
C77 H106 0.982 . S
C77 H107 0.979 . S
C77 H108 0.977 . S
C78 C65 1.684 . S
C78 H103 0.979 . S
C78 H104 0.980 . S
C78 H105 0.983 . S
C79 C80 1.391 1_556 S
C79 C84 1.391 . S
C79 H109 0.948 . S
C80 C79 1.391 1_554 S
C80 C81 1.391 1_554 S
C81 C80 1.391 1_556 S
C81 C82 1.392 . S
C81 H110 0.947 . S
C82 C81 1.392 . S
C82 C83 1.419 . S
C82 H111 0.948 . S
C83 C82 1.419 . S
C83 C84 1.391 . S
C83 C87 1.397 . S
C84 C79 1.391 . S
C84 C83 1.391 . S
C84 C85 1.399 . S
C85 C84 1.399 . S
C85 C86 1.396 . S
C85 C88 1.453 . S
C85 C89 1.684 . S
C86 C67 1.723 . S
C86 C85 1.396 . S
C86 C87 1.394 . S
C87 C83 1.397 . S
C87 C86 1.394 . S
C87 C97 1.723 . S
C88 C85 1.453 . S
C88 H112 0.982 . S
C88 H113 0.979 . S
C88 H114 0.977 . S
C89 C85 1.684 . S
C89 H115 0.979 . S
C89 H116 0.980 . S
C89 H117 0.983 . S
C90 H66 0.948 . S
C90 C91 1.391 . S
C90 C95 1.391 . S
C91 C90 1.391 . S
C91 C92 1.391 . S
C92 H69 0.947 . S
C92 C91 1.391 . S
C92 C93 1.392 . S
C93 H70 0.948 . S
C93 C92 1.392 . S
C93 C94 1.419 . S
C94 C93 1.419 . S
C94 C95 1.391 . S
C94 C98 1.397 . S
C95 C90 1.391 . S
C95 C94 1.391 . S
C95 C96 1.399 . S
C96 C95 1.399 . S
C96 C97 1.396 . S
C96 C99 1.453 . S
C96 C100 1.684 . S
C97 C87 1.723 . S
C97 C96 1.396 . S
C97 C98 1.394 . S
C98 C68 1.723 . S
C98 C94 1.397 . S
C98 C97 1.394 . S
C99 H71 0.982 . S
C99 H75 0.979 . S
C99 H76 0.977 . S
C99 C96 1.453 . S
C100 H72 0.979 . S
C100 H73 0.980 . S
C100 H74 0.983 . S
C100 C96 1.684 . S
H101 C119 0.948 . S
H102 C60 0.948 . S
H103 C78 0.979 . S
H104 C78 0.980 . S
H105 C78 0.983 . S
H106 C77 0.982 . S
H107 C77 0.979 . S
H108 C77 0.977 . S
H109 C79 0.948 . S
H110 C81 0.947 . S
H111 C82 0.948 . S
H112 C88 0.982 . S
H113 C88 0.979 . S
H114 C88 0.977 . S
H115 C89 0.979 . S
H116 C89 0.980 . S
H117 C89 0.983 . S
H118 C62 0.947 . S
C119 C62 1.392 . S
C119 C63 1.419 . S
C119 H101 0.948 . S
C120 C121 1.391 . S
C120 C124 1.391 . S
C120 H162 0.948 . S
C121 C120 1.391 . S
C121 C122 1.391 . S
C122 C121 1.391 . S
C122 H178 0.947 . S
C122 C179 1.392 . S
C123 C124 1.391 . S
C123 C127 1.397 . S
C123 C179 1.419 . S
C124 C120 1.391 . S
C124 C123 1.391 . S
C124 C125 1.399 . S
C125 C124 1.399 . S
C125 C128 1.396 . S
C125 C137 1.453 . S
C125 C138 1.684 . S
H126 C150 0.948 . S
C127 C123 1.397 . S
C127 C128 1.394 . S
C127 C146 1.723 . S
C128 C125 1.396 . S
C128 C127 1.394 . S
C128 C158 1.723 . S
H129 C152 0.947 . S
H130 C153 0.948 . S
H131 C159 0.982 . S
H132 C160 0.979 . S
H133 C160 0.980 . S
H134 C160 0.983 . S
H135 C159 0.979 . S
H136 C159 0.977 . S
C137 C125 1.453 . S
C137 H166 0.982 . S
C137 H167 0.979 . S
C137 H168 0.977 . S
C138 C125 1.684 . S
C138 H163 0.979 . S
C138 H164 0.980 . S
C138 H165 0.983 . S
C139 C140 1.391 . S
C139 C144 1.391 . S
C139 H169 0.948 . S
C140 C139 1.391 . S
C140 C141 1.391 . S
C141 C140 1.391 . S
C141 C142 1.392 . S
C141 H170 0.947 . S
C142 C141 1.392 . S
C142 C143 1.419 . S
C142 H171 0.948 . S
C143 C142 1.419 . S
C143 C144 1.391 . S
C143 C147 1.397 . S
C144 C139 1.391 . S
C144 C143 1.391 . S
C144 C145 1.399 . S
C145 C144 1.399 . S
C145 C146 1.396 . S
C145 C148 1.453 . S
C145 C149 1.684 . S
C146 C127 1.723 . S
C146 C145 1.396 . S
C146 C147 1.394 . S
C147 C143 1.397 . S
C147 C146 1.394 . S
C147 C157 1.723 . S
C148 C145 1.453 . S
C148 H172 0.982 . S
C148 H173 0.979 . S
C148 H174 0.977 . S
C149 C145 1.684 . S
C149 H175 0.979 . S
C149 H176 0.980 . S
C149 H177 0.983 . S
C150 H126 0.948 . S
C150 C151 1.391 . S
C150 C155 1.391 . S
C151 C150 1.391 . S
C151 C152 1.391 . S
C152 H129 0.947 . S
C152 C151 1.391 . S
C152 C153 1.392 . S
C153 H130 0.948 . S
C153 C152 1.392 . S
C153 C154 1.419 . S
C154 C153 1.419 . S
C154 C155 1.391 . S
C154 C158 1.397 . S
C155 C150 1.391 . S
C155 C154 1.391 . S
C155 C156 1.399 . S
C156 C155 1.399 . S
C156 C157 1.396 . S
C156 C159 1.453 . S
C156 C160 1.684 . S
C157 C147 1.723 . S
C157 C156 1.396 . S
C157 C158 1.394 . S
C158 C128 1.723 . S
C158 C154 1.397 . S
C158 C157 1.394 . S
C159 H131 0.982 . S
C159 H135 0.979 . S
C159 H136 0.977 . S
C159 C156 1.453 . S
C160 H132 0.979 . S
C160 H133 0.980 . S
C160 H134 0.983 . S
C160 C156 1.684 . S
H161 C179 0.948 . S
H162 C120 0.948 . S
H163 C138 0.979 . S
H164 C138 0.980 . S
H165 C138 0.983 . S
H166 C137 0.982 . S
H167 C137 0.979 . S
H168 C137 0.977 . S
H169 C139 0.948 . S
H170 C141 0.947 . S
H171 C142 0.948 . S
H172 C148 0.982 . S
H173 C148 0.979 . S
H174 C148 0.977 . S
H175 C149 0.979 . S
H176 C149 0.980 . S
H177 C149 0.983 . S
H178 C122 0.947 . S
C179 C122 1.392 . S
C179 C123 1.419 . S
C179 H161 0.948 . S
C180 C181 1.391 . S
C180 C184 1.391 . S
C180 H222 0.948 . S
C181 C180 1.391 . S
C181 C182 1.391 . S
C182 C181 1.391 . S
C182 H238 0.947 . S
C182 C239 1.392 . S
C183 C184 1.391 . S
C183 C187 1.397 . S
C183 C239 1.419 . S
C184 C180 1.391 . S
C184 C183 1.391 . S
C184 C185 1.399 . S
C185 C184 1.399 . S
C185 C188 1.396 . S
C185 C197 1.453 . S
C185 C198 1.684 . S
H186 C210 0.948 . S
C187 C183 1.397 . S
C187 C188 1.394 . S
C187 C206 1.723 . S
C188 C185 1.396 . S
C188 C187 1.394 . S
C188 C218 1.723 . S
H189 C212 0.947 . S
H190 C213 0.948 . S
H191 C219 0.982 . S
H192 C220 0.979 . S
H193 C220 0.980 . S
H194 C220 0.983 . S
H195 C219 0.979 . S
H196 C219 0.977 . S
C197 C185 1.453 . S
C197 H226 0.982 . S
C197 H227 0.979 . S
C197 H228 0.977 . S
C198 C185 1.684 . S
C198 H223 0.979 . S
C198 H224 0.980 . S
C198 H225 0.983 . S
C199 C200 1.408 . S
C199 C204 1.391 . S
C199 H229 0.948 . S
C200 C199 1.408 . S
C200 C201 1.408 . S
C201 C200 1.408 . S
C201 C202 1.392 . S
C201 H230 0.947 . S
C202 C201 1.392 . S
C202 C203 1.419 . S
C202 H231 0.948 . S
C203 C202 1.419 . S
C203 C204 1.391 . S
C203 C207 1.397 . S
C204 C199 1.391 . S
C204 C203 1.391 . S
C204 C205 1.399 . S
C205 C204 1.399 . S
C205 C206 1.396 . S
C205 C208 1.453 . S
C205 C209 1.684 . S
C206 C187 1.723 . S
C206 C205 1.396 . S
C206 C207 1.394 . S
C207 C203 1.397 . S
C207 C206 1.394 . S
C207 C217 1.723 . S
C208 C205 1.453 . S
C208 H232 0.982 . S
C208 H233 0.979 . S
C208 H234 0.977 . S
C209 C205 1.684 . S
C209 H235 0.979 . S
C209 H236 0.980 . S
C209 H237 0.983 . S
C210 H186 0.948 . S
C210 C211 1.391 . S
C210 C215 1.391 . S
C211 C210 1.391 . S
C211 C212 1.391 . S
C212 H189 0.947 . S
C212 C211 1.391 . S
C212 C213 1.392 . S
C213 H190 0.948 . S
C213 C212 1.392 . S
C213 C214 1.419 . S
C214 C213 1.419 . S
C214 C215 1.391 . S
C214 C218 1.397 . S
C215 C210 1.391 . S
C215 C214 1.391 . S
C215 C216 1.399 . S
C216 C215 1.399 . S
C216 C217 1.396 . S
C216 C219 1.453 . S
C216 C220 1.684 . S
C217 C207 1.723 . S
C217 C216 1.396 . S
C217 C218 1.394 . S
C218 C188 1.723 . S
C218 C214 1.397 . S
C218 C217 1.394 . S
C219 H191 0.982 . S
C219 H195 0.979 . S
C219 H196 0.977 . S
C219 C216 1.453 . S
C220 H192 0.979 . S
C220 H193 0.980 . S
C220 H194 0.983 . S
C220 C216 1.684 . S
H221 C239 0.948 . S
H222 C180 0.948 . S
H223 C198 0.979 . S
H224 C198 0.980 . S
H225 C198 0.983 . S
H226 C197 0.982 . S
H227 C197 0.979 . S
H228 C197 0.977 . S
H229 C199 0.948 . S
H230 C201 0.947 . S
H231 C202 0.948 . S
H232 C208 0.982 . S
H233 C208 0.979 . S
H234 C208 0.977 . S
H235 C209 0.979 . S
H236 C209 0.980 . S
H237 C209 0.983 . S
H238 C182 0.947 . S
C239 C182 1.392 . S
C239 C183 1.419 . S
C239 H221 0.948 . S
C240 C241 1.391 . S
C240 C244 1.391 . S
C240 H282 0.948 . S
C241 C240 1.391 . S
C241 C242 1.391 . S
C242 C241 1.391 . S
C242 H298 0.947 . S
C242 C299 1.392 . S
C243 C244 1.391 . S
C243 C247 1.397 . S
C243 C299 1.419 . S
C244 C240 1.391 . S
C244 C243 1.391 . S
C244 C245 1.399 . S
C245 C244 1.399 . S
C245 C248 1.396 . S
C245 C257 1.453 . S
C245 C258 1.684 . S
H246 C270 0.948 . S
C247 C243 1.397 . S
C247 C248 1.394 . S
C247 C266 1.723 . S
C248 C245 1.396 . S
C248 C247 1.394 . S
C248 C278 1.723 . S
H249 C272 0.947 . S
H250 C273 0.948 . S
H251 C279 0.982 . S
H252 C280 0.979 . S
H253 C280 0.980 . S
H254 C280 0.983 . S
H255 C279 0.979 . S
H256 C279 0.977 . S
C257 C245 1.453 . S
C257 H286 0.982 . S
C257 H287 0.979 . S
C257 H288 0.977 . S
C258 C245 1.684 . S
C258 H283 0.979 . S
C258 H284 0.980 . S
C258 H285 0.983 . S
C259 C260 1.391 . S
C259 C264 1.391 . S
C259 H289 0.948 . S
C260 C259 1.391 . S
C260 C261 1.391 . S
C261 C260 1.391 . S
C261 C262 1.392 . S
C261 H290 0.947 . S
C262 C261 1.392 . S
C262 C263 1.419 . S
C262 H291 0.948 . S
C263 C262 1.419 . S
C263 C264 1.391 . S
C263 C267 1.397 . S
C264 C259 1.391 . S
C264 C263 1.391 . S
C264 C265 1.399 . S
C265 C264 1.399 . S
C265 C266 1.396 . S
C265 C268 1.453 . S
C265 C269 1.684 . S
C266 C247 1.723 . S
C266 C265 1.396 . S
C266 C267 1.394 . S
C267 C263 1.397 . S
C267 C266 1.394 . S
C267 C277 1.723 . S
C268 C265 1.453 . S
C268 H292 0.982 . S
C268 H293 0.979 . S
C268 H294 0.977 . S
C269 C265 1.684 . S
C269 H295 0.979 . S
C269 H296 0.980 . S
C269 H297 0.983 . S
C270 H246 0.948 . S
C270 C271 1.391 . S
C270 C275 1.391 . S
C271 C270 1.391 . S
C271 C272 1.391 . S
C272 H249 0.947 . S
C272 C271 1.391 . S
C272 C273 1.392 . S
C273 H250 0.948 . S
C273 C272 1.392 . S
C273 C274 1.419 . S
C274 C273 1.419 . S
C274 C275 1.391 . S
C274 C278 1.397 . S
C275 C270 1.391 . S
C275 C274 1.391 . S
C275 C276 1.399 . S
C276 C275 1.399 . S
C276 C277 1.396 . S
C276 C279 1.453 . S
C276 C280 1.684 . S
C277 C267 1.723 . S
C277 C276 1.396 . S
C277 C278 1.394 . S
C278 C248 1.723 . S
C278 C274 1.397 . S
C278 C277 1.394 . S
C279 H251 0.982 . S
C279 H255 0.979 . S
C279 H256 0.977 . S
C279 C276 1.453 . S
C280 H252 0.979 . S
C280 H253 0.980 . S
C280 H254 0.983 . S
C280 C276 1.684 . S
H281 C299 0.948 . S
H282 C240 0.948 . S
H283 C258 0.979 . S
H284 C258 0.980 . S
H285 C258 0.983 . S
H286 C257 0.982 . S
H287 C257 0.979 . S
H288 C257 0.977 . S
H289 C259 0.948 . S
H290 C261 0.947 . S
H291 C262 0.948 . S
H292 C268 0.982 . S
H293 C268 0.979 . S
H294 C268 0.977 . S
H295 C269 0.979 . S
H296 C269 0.980 . S
H297 C269 0.983 . S
H298 C242 0.947 . S
C299 C242 1.392 . S
C299 C243 1.419 . S
C299 H281 0.948 . S
C300 C301 1.391 . S
C300 C304 1.391 . S
C300 H342 0.948 . S
C301 C300 1.391 . S
C301 C302 1.391 . S
C302 C301 1.391 . S
C302 H358 0.947 . S
C302 C359 1.392 . S
C303 C304 1.391 . S
C303 C307 1.397 . S
C303 C359 1.419 . S
C304 C300 1.391 . S
C304 C303 1.391 . S
C304 C305 1.399 . S
C305 C304 1.399 . S
C305 C308 1.396 . S
C305 C317 1.453 . S
C305 C318 1.684 . S
H306 C330 0.948 . S
C307 C303 1.397 . S
C307 C308 1.394 . S
C307 C326 1.723 . S
C308 C305 1.396 . S
C308 C307 1.394 . S
C308 C338 1.723 . S
H309 C332 0.947 . S
H310 C333 0.948 . S
H311 C339 0.982 . S
H312 C340 0.979 . S
H313 C340 0.980 . S
H314 C340 0.983 . S
H315 C339 0.979 . S
H316 C339 0.977 . S
C317 C305 1.453 . S
C317 H346 0.982 . S
C317 H347 0.979 . S
C317 H348 0.977 . S
C318 C305 1.684 . S
C318 H343 0.979 . S
C318 H344 0.980 . S
C318 H345 0.983 . S
C319 C320 1.391 1_554 S
C319 C324 1.391 . S
C319 H349 0.944 1_554 S
C320 C319 1.391 1_556 S
C320 C321 1.391 1_556 S
C321 C320 1.391 1_554 S
C321 C322 1.392 . S
C321 H350 0.947 . S
C322 C321 1.392 . S
C322 C323 1.419 . S
C322 H351 0.948 . S
C323 C322 1.419 . S
C323 C324 1.391 . S
C323 C327 1.397 . S
C324 C319 1.391 . S
C324 C323 1.391 . S
C324 C325 1.399 . S
C325 C324 1.399 . S
C325 C326 1.396 . S
C325 C328 1.453 . S
C325 C329 1.684 . S
C326 C307 1.723 . S
C326 C325 1.396 . S
C326 C327 1.394 . S
C327 C323 1.397 . S
C327 C326 1.394 . S
C327 C337 1.723 . S
C328 C325 1.453 . S
C328 H352 0.982 . S
C328 H353 0.979 . S
C328 H354 0.977 . S
C329 C325 1.684 . S
C329 H355 0.979 . S
C329 H356 0.980 . S
C329 H357 0.983 . S
C330 H306 0.948 . S
C330 C331 1.391 . S
C330 C335 1.391 . S
C331 C330 1.391 . S
C331 C332 1.391 . S
C332 H309 0.947 . S
C332 C331 1.391 . S
C332 C333 1.392 . S
C333 H310 0.948 . S
C333 C332 1.392 . S
C333 C334 1.419 . S
C334 C333 1.419 . S
C334 C335 1.391 . S
C334 C338 1.397 . S
C335 C330 1.391 . S
C335 C334 1.391 . S
C335 C336 1.399 . S
C336 C335 1.399 . S
C336 C337 1.396 . S
C336 C339 1.453 . S
C336 C340 1.684 . S
C337 C327 1.723 . S
C337 C336 1.396 . S
C337 C338 1.394 . S
C338 C308 1.723 . S
C338 C334 1.397 . S
C338 C337 1.394 . S
C339 H311 0.982 . S
C339 H315 0.979 . S
C339 H316 0.977 . S
C339 C336 1.453 . S
C340 H312 0.979 . S
C340 H313 0.980 . S
C340 H314 0.983 . S
C340 C336 1.684 . S
H341 C359 0.948 . S
H342 C300 0.948 . S
H343 C318 0.979 . S
H344 C318 0.980 . S
H345 C318 0.983 . S
H346 C317 0.982 . S
H347 C317 0.979 . S
H348 C317 0.977 . S
H349 C319 0.944 1_556 S
H350 C321 0.947 . S
H351 C322 0.948 . S
H352 C328 0.982 . S
H353 C328 0.979 . S
H354 C328 0.977 . S
H355 C329 0.979 . S
H356 C329 0.980 . S
H357 C329 0.983 . S
H358 C302 0.947 . S
C359 C302 1.392 . S
C359 C303 1.419 . S
C359 H341 0.948 . S
C360 C361 1.391 . S
C360 C364 1.391 . S
C360 H402 0.948 . S
C361 C360 1.391 . S
C361 C362 1.391 . S
C362 C361 1.391 . S
C362 H418 0.947 . S
C362 C419 1.392 . S
C363 C364 1.391 . S
C363 C367 1.397 . S
C363 C419 1.419 . S
C364 C360 1.391 . S
C364 C363 1.391 . S
C364 C365 1.399 . S
C365 C364 1.399 . S
C365 C368 1.396 . S
C365 C377 1.453 . S
C365 C378 1.684 . S
H366 C390 0.948 . S
C367 C363 1.397 . S
C367 C368 1.394 . S
C367 C386 1.723 . S
C368 C365 1.396 . S
C368 C367 1.394 . S
C368 C398 1.723 . S
H369 C392 0.947 . S
H370 C393 0.948 . S
H371 C399 0.982 . S
H372 C400 0.979 . S
H373 C400 0.980 . S
H374 C400 0.983 . S
H375 C399 0.979 . S
H376 C399 0.977 . S
C377 C365 1.453 . S
C377 H406 0.982 . S
C377 H407 0.979 . S
C377 H408 0.977 . S
C378 C365 1.684 . S
C378 H403 0.979 . S
C378 H404 0.980 . S
C378 H405 0.983 . S
C379 C380 1.391 . S
C379 C384 1.391 . S
C379 H409 0.948 . S
C380 C379 1.391 . S
C380 C381 1.391 . S
C381 C380 1.391 . S
C381 C382 1.392 . S
C381 H410 0.947 . S
C382 C381 1.392 . S
C382 C383 1.419 . S
C382 H411 0.948 . S
C383 C382 1.419 . S
C383 C384 1.391 . S
C383 C387 1.397 . S
C384 C379 1.391 . S
C384 C383 1.391 . S
C384 C385 1.399 . S
C385 C384 1.399 . S
C385 C386 1.396 . S
C385 C388 1.453 . S
C385 C389 1.684 . S
C386 C367 1.723 . S
C386 C385 1.396 . S
C386 C387 1.394 . S
C387 C383 1.397 . S
C387 C386 1.394 . S
C387 C397 1.723 . S
C388 C385 1.453 . S
C388 H412 0.982 . S
C388 H413 0.979 . S
C388 H414 0.977 . S
C389 C385 1.684 . S
C389 H415 0.979 . S
C389 H416 0.980 . S
C389 H417 0.983 . S
C390 H366 0.948 . S
C390 C391 1.391 . S
C390 C395 1.391 . S
C391 C390 1.391 . S
C391 C392 1.391 . S
C392 H369 0.947 . S
C392 C391 1.391 . S
C392 C393 1.392 . S
C393 H370 0.948 . S
C393 C392 1.392 . S
C393 C394 1.419 . S
C394 C393 1.419 . S
C394 C395 1.391 . S
C394 C398 1.397 . S
C395 C390 1.391 . S
C395 C394 1.391 . S
C395 C396 1.399 . S
C396 C395 1.399 . S
C396 C397 1.396 . S
C396 C399 1.453 . S
C396 C400 1.684 . S
C397 C387 1.723 . S
C397 C396 1.396 . S
C397 C398 1.394 . S
C398 C368 1.723 . S
C398 C394 1.397 . S
C398 C397 1.394 . S
C399 H371 0.982 . S
C399 H375 0.979 . S
C399 H376 0.977 . S
C399 C396 1.453 . S
C400 H372 0.979 . S
C400 H373 0.980 . S
C400 H374 0.983 . S
C400 C396 1.684 . S
H401 C419 0.948 . S
H402 C360 0.948 . S
H403 C378 0.979 . S
H404 C378 0.980 . S
H405 C378 0.983 . S
H406 C377 0.982 . S
H407 C377 0.979 . S
H408 C377 0.977 . S
H409 C379 0.948 . S
H410 C381 0.947 . S
H411 C382 0.948 . S
H412 C388 0.982 . S
H413 C388 0.979 . S
H414 C388 0.977 . S
H415 C389 0.979 . S
H416 C389 0.980 . S
H417 C389 0.983 . S
H418 C362 0.947 . S
C419 C362 1.392 . S
C419 C363 1.419 . S
C419 H401 0.948 . S
C420 C421 1.391 . S
C420 C424 1.391 . S
C420 H462 0.948 . S
C421 C420 1.391 . S
C421 C422 1.391 . S
C422 C421 1.391 . S
C422 H478 0.947 . S
C422 C479 1.392 . S
C423 C424 1.391 . S
C423 C427 1.397 . S
C423 C479 1.419 . S
C424 C420 1.391 . S
C424 C423 1.391 . S
C424 C425 1.399 . S
C425 C424 1.399 . S
C425 C428 1.396 . S
C425 C437 1.453 . S
C425 C438 1.684 . S
H426 C450 0.948 . S
C427 C423 1.397 . S
C427 C428 1.394 . S
C427 C446 1.723 . S
C428 C425 1.396 . S
C428 C427 1.394 . S
C428 C458 1.723 . S
H429 C452 0.947 . S
H430 C453 0.948 . S
H431 C459 0.982 . S
H432 C460 0.979 . S
H433 C460 0.980 . S
H434 C460 0.983 . S
H435 C459 0.979 . S
H436 C459 0.977 . S
C437 C425 1.453 . S
C437 H466 0.982 . S
C437 H467 0.979 . S
C437 H468 0.977 . S
C438 C425 1.684 . S
C438 H463 0.979 . S
C438 H464 0.980 . S
C438 H465 0.983 . S
C439 C440 1.391 1_556 S
C439 C444 1.391 . S
C439 H469 0.948 . S
C440 C439 1.391 1_554 S
C440 C441 1.391 1_554 S
C441 C440 1.391 1_556 S
C441 C442 1.392 . S
C441 H470 0.947 . S
C442 C441 1.392 . S
C442 C443 1.419 . S
C442 H471 0.948 . S
C443 C442 1.419 . S
C443 C444 1.391 . S
C443 C447 1.397 . S
C444 C439 1.391 . S
C444 C443 1.391 . S
C444 C445 1.399 . S
C445 C444 1.399 . S
C445 C446 1.396 . S
C445 C448 1.453 . S
C445 C449 1.684 . S
C446 C427 1.723 . S
C446 C445 1.396 . S
C446 C447 1.394 . S
C447 C443 1.397 . S
C447 C446 1.394 . S
C447 C457 1.723 . S
C448 C445 1.453 . S
C448 H472 0.982 . S
C448 H473 0.979 . S
C448 H474 0.977 . S
C449 C445 1.684 . S
C449 H475 0.979 . S
C449 H476 0.980 . S
C449 H477 0.983 . S
C450 H426 0.948 . S
C450 C451 1.391 . S
C450 C455 1.391 . S
C451 C450 1.391 . S
C451 C452 1.391 . S
C452 H429 0.947 . S
C452 C451 1.391 . S
C452 C453 1.392 . S
C453 H430 0.948 . S
C453 C452 1.392 . S
C453 C454 1.419 . S
C454 C453 1.419 . S
C454 C455 1.391 . S
C454 C458 1.397 . S
C455 C450 1.391 . S
C455 C454 1.391 . S
C455 C456 1.399 . S
C456 C455 1.399 . S
C456 C457 1.396 . S
C456 C459 1.453 . S
C456 C460 1.684 . S
C457 C447 1.723 . S
C457 C456 1.396 . S
C457 C458 1.394 . S
C458 C428 1.723 . S
C458 C454 1.397 . S
C458 C457 1.394 . S
C459 H431 0.982 . S
C459 H435 0.979 . S
C459 H436 0.977 . S
C459 C456 1.453 . S
C460 H432 0.979 . S
C460 H433 0.980 . S
C460 H434 0.983 . S
C460 C456 1.684 . S
H461 C479 0.948 . S
H462 C420 0.948 . S
H463 C438 0.979 . S
H464 C438 0.980 . S
H465 C438 0.983 . S
H466 C437 0.982 . S
H467 C437 0.979 . S
H468 C437 0.977 . S
H469 C439 0.948 . S
H470 C441 0.947 . S
H471 C442 0.948 . S
H472 C448 0.982 . S
H473 C448 0.979 . S
H474 C448 0.977 . S
H475 C449 0.979 . S
H476 C449 0.980 . S
H477 C449 0.983 . S
H478 C422 0.947 . S
C479 C422 1.392 . S
C479 C423 1.419 . S
C479 H461 0.948 . S
Zn480 O486 1.912 1_455 S
Zn480 O492 1.898 . S
Zn480 O495 1.905 . S
Zn481 O489 1.905 1_655 S
Zn481 O490 1.898 . S
Zn481 O498 1.920 . S
Zn482 O485 2.080 1_455 S
Zn482 O488 2.114 . S
Zn482 O491 2.120 1_455 S
Zn482 O493 2.120 . S
Zn482 O494 2.114 . S
Zn482 O497 2.080 1_455 S
C483 O488 1.166 . S
C483 O489 1.182 . S
C484 O490 1.167 . S
C484 O491 1.299 . S
O485 Zn482 2.080 1_655 S
O485 C499 1.305 . S
O486 Zn480 1.912 1_655 S
O486 C499 1.241 . S
C487 O492 1.167 . S
C487 O493 1.299 . S
O488 Zn482 2.114 . S
O488 C483 1.166 . S
O489 Zn481 1.905 1_455 S
O489 C483 1.182 . S
O490 Zn481 1.898 . S
O490 C484 1.167 . S
O491 Zn482 2.120 1_655 S
O491 C484 1.299 . S
O492 Zn480 1.898 . S
O492 C487 1.167 . S
O493 Zn482 2.120 . S
O493 C487 1.299 . S
O494 Zn482 2.114 . S
O494 C496 1.166 . S
O495 Zn480 1.905 . S
O495 C496 1.182 . S
C496 O494 1.166 . S
C496 O495 1.182 . S
O497 Zn482 2.080 1_655 S
O497 C500 1.305 . S
O498 Zn481 1.920 . S
O498 C500 1.234 . S
C499 O485 1.305 . S
C499 O486 1.241 . S
C500 O497 1.305 . S
C500 O498 1.234 . S
Zn501 O507 1.920 . S
Zn501 O513 1.898 . S
Zn501 O516 1.905 . S
Zn502 O510 1.905 . S
Zn502 O511 1.898 . S
Zn502 O519 1.920 . S
Zn503 O506 2.080 . S
Zn503 O509 2.114 . S
Zn503 O512 2.120 . S
Zn503 O514 2.120 . S
Zn503 O515 2.114 . S
Zn503 O518 2.080 . S
C504 O509 1.166 . S
C504 O510 1.182 . S
C505 O511 1.167 . S
C505 O512 1.299 . S
O506 Zn503 2.080 . S
O506 C520 1.305 . S
O507 Zn501 1.920 . S
O507 C520 1.234 . S
C508 O513 1.167 . S
C508 O514 1.299 . S
O509 Zn503 2.114 . S
O509 C504 1.166 . S
O510 Zn502 1.905 . S
O510 C504 1.182 . S
O511 Zn502 1.898 . S
O511 C505 1.167 . S
O512 Zn503 2.120 . S
O512 C505 1.299 . S
O513 Zn501 1.898 . S
O513 C508 1.167 . S
O514 Zn503 2.120 . S
O514 C508 1.299 . S
O515 Zn503 2.114 . S
O515 C517 1.166 . S
O516 Zn501 1.905 . S
O516 C517 1.182 . S
C517 O515 1.166 . S
C517 O516 1.182 . S
O518 Zn503 2.080 . S
O518 C521 1.305 . S
O519 Zn502 1.920 . S
O519 C521 1.234 . S
C520 O506 1.305 . S
C520 O507 1.234 . S
C521 O518 1.305 . S
C521 O519 1.234 . S
Zn522 O528 1.920 . S
Zn522 O534 1.898 . S
Zn522 O537 1.905 1_455 S
Zn523 O531 1.905 . S
Zn523 O532 1.898 . S
Zn523 O540 1.920 1_655 S
Zn524 O527 2.080 . S
Zn524 O530 2.114 1_455 S
Zn524 O533 2.120 1_455 S
Zn524 O535 2.120 . S
Zn524 O536 2.114 1_455 S
Zn524 O539 2.080 . S
C525 O530 1.166 . S
C525 O531 1.182 . S
C526 O532 1.167 . S
C526 O533 1.299 . S
O527 Zn524 2.080 . S
O527 C541 1.305 . S
O528 Zn522 1.920 . S
O528 C541 1.234 . S
C529 O534 1.167 . S
C529 O535 1.299 . S
O530 Zn524 2.114 1_655 S
O530 C525 1.166 . S
O531 Zn523 1.905 . S
O531 C525 1.182 . S
O532 Zn523 1.898 . S
O532 C526 1.167 . S
O533 Zn524 2.120 1_655 S
O533 C526 1.299 . S
O534 Zn522 1.898 . S
O534 C529 1.167 . S
O535 Zn524 2.120 . S
O535 C529 1.299 . S
O536 Zn524 2.114 1_655 S
O536 C538 1.166 . S
O537 Zn522 1.905 1_655 S
O537 C538 1.182 . S
C538 O536 1.166 . S
C538 O537 1.182 . S
O539 Zn524 2.080 . S
O539 C542 1.305 . S
O540 Zn523 1.920 1_455 S
O540 C542 1.234 . S
C541 O527 1.305 . S
C541 O528 1.234 . S
C542 O539 1.305 . S
C542 O540 1.234 . S
Zn543 O549 1.920 . S
Zn543 O555 1.898 . S
Zn543 O558 1.905 . S
Zn544 O552 1.905 . S
Zn544 O553 1.898 . S
Zn544 O561 1.920 . S
Zn545 O548 2.080 . S
Zn545 O551 2.114 . S
Zn545 O554 2.120 . S
Zn545 O556 2.120 . S
Zn545 O557 2.114 . S
Zn545 O560 2.080 . S
C546 O551 1.166 . S
C546 O552 1.182 . S
C547 O553 1.167 . S
C547 O554 1.299 . S
O548 Zn545 2.080 . S
O548 C562 1.305 . S
O549 Zn543 1.920 . S
O549 C562 1.234 . S
C550 O555 1.167 . S
C550 O556 1.299 . S
O551 Zn545 2.114 . S
O551 C546 1.166 . S
O552 Zn544 1.905 . S
O552 C546 1.182 . S
O553 Zn544 1.898 . S
O553 C547 1.167 . S
O554 Zn545 2.120 . S
O554 C547 1.299 . S
O555 Zn543 1.898 . S
O555 C550 1.167 . S
O556 Zn545 2.120 . S
O556 C550 1.299 . S
O557 Zn545 2.114 . S
O557 C559 1.166 . S
O558 Zn543 1.905 . S
O558 C559 1.182 . S
C559 O557 1.166 . S
C559 O558 1.182 . S
O560 Zn545 2.080 . S
O560 C563 1.305 . S
O561 Zn544 1.920 . S
O561 C563 1.234 . S
C562 O548 1.305 . S
C562 O549 1.234 . S
C563 O560 1.305 . S
C563 O561 1.234 . S
H564 C572 0.950 . S
H565 C577 0.950 . S
H566 C574 0.950 . S
H567 C576 0.950 . S
H568 C578 0.950 . S
H569 C580 0.950 . S
H570 C582 0.950 . S
H571 C583 0.950 . S
C572 H564 0.950 . S
C572 C573 1.386 . S
C572 C574 1.391 . S
C573 C572 1.386 . S
C573 C577 1.393 . S
C574 H566 0.950 . S
C574 C572 1.391 . S
C574 C575 1.400 1_565 S
C575 C574 1.400 1_545 S
C575 C576 1.398 . S
C575 C581 1.491 . S
C576 H567 0.950 . S
C576 C575 1.398 . S
C576 C577 1.391 1_545 S
C577 H565 0.950 . S
C577 C573 1.393 . S
C577 C576 1.391 1_565 S
C578 H568 0.950 . S
C578 C579 1.386 . S
C578 C580 1.391 . S
C579 C578 1.386 . S
C579 C583 1.393 . S
C580 H569 0.950 . S
C580 C578 1.391 . S
C580 C581 1.400 . S
C581 C575 1.491 . S
C581 C580 1.400 . S
C581 C582 1.398 . S
C582 H570 0.950 . S
C582 C581 1.398 . S
C582 C583 1.391 . S
C583 H571 0.950 . S
C583 C579 1.393 . S
C583 C582 1.391 . S
H584 C592 0.950 . S
H585 C597 0.950 . S
H586 C594 0.950 . S
H587 C596 0.950 . S
H588 C598 0.950 . S
H589 C600 0.950 . S
H590 C602 0.950 . S
H591 C603 0.950 . S
C592 H584 0.950 . S
C592 C593 1.386 . S
C592 C594 1.391 . S
C593 C592 1.386 . S
C593 C597 1.393 . S
C594 H586 0.950 . S
C594 C592 1.391 . S
C594 C595 1.400 . S
C595 C594 1.400 . S
C595 C596 1.398 . S
C595 C601 1.491 . S
C596 H587 0.950 . S
C596 C595 1.398 . S
C596 C597 1.391 . S
C597 H585 0.950 . S
C597 C593 1.393 . S
C597 C596 1.391 . S
C598 H588 0.950 . S
C598 C599 1.386 . S
C598 C600 1.391 . S
C599 C598 1.386 . S
C599 C603 1.393 . S
C600 H589 0.950 . S
C600 C598 1.391 . S
C600 C601 1.400 . S
C601 C595 1.491 . S
C601 C600 1.400 . S
C601 C602 1.398 . S
C602 H590 0.950 . S
C602 C601 1.398 . S
C602 C603 1.391 . S
C603 H591 0.950 . S
C603 C599 1.393 . S
C603 C602 1.391 . S
H604 C612 0.950 . S
H605 C617 0.950 . S
H606 C614 0.950 . S
H607 C616 0.950 . S
H608 C618 0.950 . S
H609 C620 0.950 . S
H610 C622 0.950 . S
H611 C623 0.950 . S
C612 H604 0.950 . S
C612 C613 1.386 . S
C612 C614 1.391 . S
C613 C612 1.386 . S
C613 C617 1.393 . S
C614 H606 0.950 . S
C614 C612 1.391 . S
C614 C615 1.400 . S
C615 C614 1.400 . S
C615 C616 1.398 . S
C615 C621 1.491 . S
C616 H607 0.950 . S
C616 C615 1.398 . S
C616 C617 1.391 . S
C617 H605 0.950 . S
C617 C613 1.393 . S
C617 C616 1.391 . S
C618 H608 0.950 . S
C618 C619 1.386 . S
C618 C620 1.391 . S
C619 C618 1.386 . S
C619 C623 1.393 . S
C620 H609 0.950 . S
C620 C618 1.391 . S
C620 C621 1.400 . S
C621 C615 1.491 . S
C621 C620 1.400 . S
C621 C622 1.398 . S
C622 H610 0.950 . S
C622 C621 1.398 . S
C622 C623 1.391 . S
C623 H611 0.950 . S
C623 C619 1.393 . S
C623 C622 1.391 . S
H624 C632 0.950 . S
H625 C637 0.950 . S
H626 C634 0.950 . S
H627 C636 0.950 . S
H628 C638 0.950 . S
H629 C640 0.950 . S
H630 C642 0.950 . S
H631 C643 0.950 . S
C632 H624 0.950 . S
C632 C633 1.386 . S
C632 C634 1.391 . S
C633 C632 1.386 . S
C633 C637 1.393 . S
C634 H626 0.950 . S
C634 C632 1.391 . S
C634 C635 1.400 1_565 S
C635 C634 1.400 1_545 S
C635 C636 1.398 1_545 S
C635 C641 1.491 . S
C636 H627 0.950 . S
C636 C635 1.398 1_565 S
C636 C637 1.391 . S
C637 H625 0.950 . S
C637 C633 1.393 . S
C637 C636 1.391 . S
C638 H628 0.950 . S
C638 C639 1.386 . S
C638 C640 1.391 . S
C639 C638 1.386 . S
C639 C643 1.393 . S
C640 H629 0.950 . S
C640 C638 1.391 . S
C640 C641 1.400 . S
C641 C635 1.491 . S
C641 C640 1.400 . S
C641 C642 1.398 . S
C642 H630 0.950 . S
C642 C641 1.398 . S
C642 C643 1.391 . S
C643 H631 0.950 . S
C643 C639 1.393 . S
C643 C642 1.391 . S
H644 C652 0.950 . S
H645 C657 0.950 . S
H646 C654 0.950 1_565 S
H647 C656 0.950 . S
H648 C658 0.950 . S
H649 C660 0.950 . S
H650 C662 0.950 . S
H651 C663 0.950 . S
C652 H644 0.950 . S
C652 C653 1.386 . S
C652 C654 1.391 . S
C653 C652 1.386 . S
C653 C657 1.393 . S
C654 H646 0.950 1_545 S
C654 C652 1.391 . S
C654 C655 1.400 1_545 S
C655 C654 1.400 1_565 S
C655 C656 1.398 1_565 S
C655 C661 1.491 . S
C656 H647 0.950 . S
C656 C655 1.398 1_545 S
C656 C657 1.391 . S
C657 H645 0.950 . S
C657 C653 1.393 . S
C657 C656 1.391 . S
C658 H648 0.950 . S
C658 C659 1.386 . S
C658 C660 1.391 . S
C659 C658 1.386 . S
C659 C663 1.393 . S
C660 H649 0.950 . S
C660 C658 1.391 . S
C660 C661 1.400 . S
C661 C655 1.491 . S
C661 C660 1.400 . S
C661 C662 1.398 . S
C662 H650 0.950 . S
C662 C661 1.398 . S
C662 C663 1.391 . S
C663 H651 0.950 . S
C663 C659 1.393 . S
C663 C662 1.391 . S
H664 C672 0.950 . S
H665 C677 0.950 . S
H666 C674 0.950 . S
H667 C676 0.950 . S
H668 C678 0.950 . S
H669 C680 0.950 . S
H670 C682 0.950 . S
H671 C683 0.950 . S
C672 H664 0.950 . S
C672 C673 1.386 . S
C672 C674 1.391 . S
C673 C672 1.386 . S
C673 C677 1.393 . S
C674 H666 0.950 . S
C674 C672 1.391 . S
C674 C675 1.400 . S
C675 C674 1.400 . S
C675 C676 1.398 . S
C675 C681 1.491 . S
C676 H667 0.950 . S
C676 C675 1.398 . S
C676 C677 1.391 . S
C677 H665 0.950 . S
C677 C673 1.393 . S
C677 C676 1.391 . S
C678 H668 0.950 . S
C678 C679 1.386 . S
C678 C680 1.391 . S
C679 C678 1.386 . S
C679 C683 1.393 . S
C680 H669 0.950 . S
C680 C678 1.391 . S
C680 C681 1.400 . S
C681 C675 1.491 . S
C681 C680 1.400 . S
C681 C682 1.398 . S
C682 H670 0.950 . S
C682 C681 1.398 . S
C682 C683 1.391 . S
C683 H671 0.950 . S
C683 C679 1.393 . S
C683 C682 1.391 . S
H684 C692 0.950 . S
H685 C697 0.950 . S
H686 C694 0.950 . S
H687 C696 0.950 . S
H688 C698 0.950 . S
H689 C700 0.950 . S
H690 C702 0.950 . S
H691 C703 0.950 . S
C692 H684 0.950 . S
C692 C693 1.386 . S
C692 C694 1.391 . S
C693 C692 1.386 . S
C693 C697 1.393 . S
C694 H686 0.950 . S
C694 C692 1.391 . S
C694 C695 1.400 . S
C695 C694 1.400 . S
C695 C696 1.398 . S
C695 C701 1.491 . S
C696 H687 0.950 . S
C696 C695 1.398 . S
C696 C697 1.391 . S
C697 H685 0.950 . S
C697 C693 1.393 . S
C697 C696 1.391 . S
C698 H688 0.950 . S
C698 C699 1.386 . S
C698 C700 1.391 . S
C699 C698 1.386 . S
C699 C703 1.393 . S
C700 H689 0.950 . S
C700 C698 1.391 . S
C700 C701 1.400 . S
C701 C695 1.491 . S
C701 C700 1.400 . S
C701 C702 1.398 . S
C702 H690 0.950 . S
C702 C701 1.398 . S
C702 C703 1.391 . S
C703 H691 0.950 . S
C703 C699 1.393 . S
C703 C702 1.391 . S
H704 C712 0.950 . S
H705 C717 0.950 . S
H706 C714 0.950 . S
H707 C716 0.950 . S
H708 C718 0.950 . S
H709 C720 0.950 . S
H710 C722 0.950 . S
H711 C723 0.950 . S
C712 H704 0.950 . S
C712 C713 1.386 . S
C712 C714 1.391 . S
C713 C712 1.386 . S
C713 C717 1.393 . S
C714 H706 0.950 . S
C714 C712 1.391 . S
C714 C715 1.400 1_545 S
C715 C714 1.400 1_565 S
C715 C716 1.398 . S
C715 C721 1.491 . S
C716 H707 0.950 . S
C716 C715 1.398 . S
C716 C717 1.391 1_565 S
C717 H705 0.950 . S
C717 C713 1.393 . S
C717 C716 1.391 1_545 S
C718 H708 0.950 . S
C718 C719 1.386 . S
C718 C720 1.391 . S
C719 C718 1.386 . S
C719 C723 1.393 . S
C720 H709 0.950 . S
C720 C718 1.391 . S
C720 C721 1.400 . S
C721 C715 1.491 . S
C721 C720 1.400 . S
C721 C722 1.398 . S
C722 H710 0.950 . S
C722 C721 1.398 . S
C722 C723 1.391 . S
C723 H711 0.950 . S
C723 C719 1.393 . S
C723 C722 1.391 . S
H724 C732 0.950 . S
H725 C737 0.950 . S
H726 C734 0.950 . S
H727 C736 0.950 . S
H728 C738 0.950 . S
H729 C740 0.950 . S
H730 C742 0.950 . S
H731 C743 0.950 . S
C732 H724 0.950 . S
C732 C733 1.386 . S
C732 C734 1.391 . S
C733 C732 1.386 . S
C733 C737 1.393 . S
C734 H726 0.950 . S
C734 C732 1.391 . S
C734 C735 1.400 . S
C735 C734 1.400 . S
C735 C736 1.398 . S
C735 C741 1.491 . S
C736 H727 0.950 . S
C736 C735 1.398 . S
C736 C737 1.391 . S
C737 H725 0.950 . S
C737 C733 1.393 . S
C737 C736 1.391 . S
C738 H728 0.950 . S
C738 C739 1.386 . S
C738 C740 1.391 . S
C739 C738 1.386 . S
C739 C743 1.393 . S
C740 H729 0.950 . S
C740 C738 1.391 . S
C740 C741 1.400 . S
C741 C735 1.491 . S
C741 C740 1.400 . S
C741 C742 1.398 . S
C742 H730 0.950 . S
C742 C741 1.398 . S
C742 C743 1.391 . S
C743 H731 0.950 . S
C743 C739 1.393 . S
C743 C742 1.391 . S
H744 C752 0.950 . S
H745 C757 0.950 . S
H746 C754 0.950 . S
H747 C756 0.950 . S
H748 C758 0.950 . S
H749 C760 0.950 . S
H750 C762 0.950 . S
H751 C763 0.950 . S
C752 H744 0.950 . S
C752 C753 1.386 . S
C752 C754 1.391 . S
C753 C752 1.386 . S
C753 C757 1.393 . S
C754 H746 0.950 . S
C754 C752 1.391 . S
C754 C755 1.400 . S
C755 C754 1.400 . S
C755 C756 1.398 . S
C755 C761 1.491 . S
C756 H747 0.950 . S
C756 C755 1.398 . S
C756 C757 1.391 . S
C757 H745 0.950 . S
C757 C753 1.393 . S
C757 C756 1.391 . S
C758 H748 0.950 . S
C758 C759 1.386 . S
C758 C760 1.391 . S
C759 C758 1.386 . S
C759 C763 1.393 . S
C760 H749 0.950 . S
C760 C758 1.391 . S
C760 C761 1.400 . S
C761 C755 1.491 . S
C761 C760 1.400 . S
C761 C762 1.398 . S
C762 H750 0.950 . S
C762 C761 1.398 . S
C762 C763 1.391 . S
C763 H751 0.950 . S
C763 C759 1.393 . S
C763 C762 1.391 . S
H764 C772 0.950 . S
H765 C777 0.950 . S
H766 C774 0.950 . S
H767 C776 0.950 . S
H768 C778 0.950 . S
H769 C780 0.950 . S
H770 C782 0.950 . S
H771 C783 0.950 . S
C772 H764 0.950 . S
C772 C773 1.386 . S
C772 C774 1.391 . S
C773 C772 1.386 . S
C773 C777 1.393 . S
C774 H766 0.950 . S
C774 C772 1.391 . S
C774 C775 1.400 . S
C775 C774 1.400 . S
C775 C776 1.398 . S
C775 C781 1.491 . S
C776 H767 0.950 . S
C776 C775 1.398 . S
C776 C777 1.391 . S
C777 H765 0.950 . S
C777 C773 1.393 . S
C777 C776 1.391 . S
C778 H768 0.950 . S
C778 C779 1.386 . S
C778 C780 1.391 . S
C779 C778 1.386 . S
C779 C783 1.393 . S
C780 H769 0.950 . S
C780 C778 1.391 . S
C780 C781 1.400 . S
C781 C775 1.491 . S
C781 C780 1.400 . S
C781 C782 1.398 . S
C782 H770 0.950 . S
C782 C781 1.398 . S
C782 C783 1.391 . S
C783 H771 0.950 . S
C783 C779 1.393 . S
C783 C782 1.391 . S
H784 C792 0.950 . S
H785 C797 0.950 . S
H786 C794 0.950 . S
H787 C796 0.950 . S
H788 C798 0.950 . S
H789 C800 0.950 . S
H790 C802 0.950 . S
H791 C803 0.950 . S
C792 H784 0.950 . S
C792 C793 1.386 . S
C792 C794 1.391 . S
C793 C792 1.386 . S
C793 C797 1.393 . S
C794 H786 0.950 . S
C794 C792 1.391 . S
C794 C795 1.400 . S
C795 C794 1.400 . S
C795 C796 1.398 . S
C795 C801 1.491 . S
C796 H787 0.950 . S
C796 C795 1.398 . S
C796 C797 1.391 . S
C797 H785 0.950 . S
C797 C793 1.393 . S
C797 C796 1.391 . S
C798 H788 0.950 . S
C798 C799 1.386 . S
C798 C800 1.391 . S
C799 C798 1.386 . S
C799 C803 1.393 . S
C800 H789 0.950 . S
C800 C798 1.391 . S
C800 C801 1.400 . S
C801 C795 1.491 . S
C801 C800 1.400 . S
C801 C802 1.398 . S
C802 H790 0.950 . S
C802 C801 1.398 . S
C802 C803 1.391 . S
C803 H791 0.950 . S
C803 C799 1.393 . S
C803 C802 1.391 . S
H804 C812 0.950 . S
H805 C817 0.950 . S
H806 C814 0.950 . S
H807 C816 0.950 . S
H808 C818 0.950 . S
H809 C820 0.950 . S
H810 C822 0.950 . S
H811 C823 0.950 . S
C812 H804 0.950 . S
C812 C813 1.386 . S
C812 C814 1.391 . S
C813 C812 1.386 . S
C813 C817 1.393 . S
C814 H806 0.950 . S
C814 C812 1.391 . S
C814 C815 1.400 . S
C815 C814 1.400 . S
C815 C816 1.398 . S
C815 C821 1.491 . S
C816 H807 0.950 . S
C816 C815 1.398 . S
C816 C817 1.391 . S
C817 H805 0.950 . S
C817 C813 1.393 . S
C817 C816 1.391 . S
C818 H808 0.950 . S
C818 C819 1.386 . S
C818 C820 1.391 . S
C819 C818 1.386 . S
C819 C823 1.393 . S
C820 H809 0.950 . S
C820 C818 1.391 . S
C820 C821 1.400 . S
C821 C815 1.491 . S
C821 C820 1.400 . S
C821 C822 1.398 . S
C822 H810 0.950 . S
C822 C821 1.398 . S
C822 C823 1.391 . S
C823 H811 0.950 . S
C823 C819 1.393 . S
C823 C822 1.391 . S
H824 C832 0.950 . S
H825 C837 0.950 . S
H826 C834 0.950 . S
H827 C836 0.950 . S
H828 C838 0.950 . S
H829 C840 0.950 . S
H830 C842 0.950 . S
H831 C843 0.950 . S
C832 H824 0.950 . S
C832 C833 1.386 . S
C832 C834 1.391 . S
C833 C832 1.386 . S
C833 C837 1.393 . S
C834 H826 0.950 . S
C834 C832 1.391 . S
C834 C835 1.400 . S
C835 C834 1.400 . S
C835 C836 1.398 . S
C835 C841 1.491 . S
C836 H827 0.950 . S
C836 C835 1.398 . S
C836 C837 1.391 . S
C837 H825 0.950 . S
C837 C833 1.393 . S
C837 C836 1.391 . S
C838 H828 0.950 . S
C838 C839 1.386 . S
C838 C840 1.391 . S
C839 C838 1.386 . S
C839 C843 1.393 . S
C840 H829 0.950 . S
C840 C838 1.391 . S
C840 C841 1.400 . S
C841 C835 1.491 . S
C841 C840 1.400 . S
C841 C842 1.398 . S
C842 H830 0.950 . S
C842 C841 1.398 . S
C842 C843 1.391 . S
C843 H831 0.950 . S
C843 C839 1.393 . S
C843 C842 1.391 . S
H844 C852 0.950 . S
H845 C857 0.950 . S
H846 C854 0.950 . S
H847 C856 0.950 . S
H848 C858 0.950 . S
H849 C860 0.950 . S
H850 C862 0.950 . S
H851 C863 0.950 . S
C852 H844 0.950 . S
C852 C853 1.386 . S
C852 C854 1.391 . S
C853 C852 1.386 . S
C853 C857 1.393 . S
C854 H846 0.950 . S
C854 C852 1.391 . S
C854 C855 1.400 . S
C855 C854 1.400 . S
C855 C856 1.398 . S
C855 C861 1.491 . S
C856 H847 0.950 . S
C856 C855 1.398 . S
C856 C857 1.391 . S
C857 H845 0.950 . S
C857 C853 1.393 . S
C857 C856 1.391 . S
C858 H848 0.950 . S
C858 C859 1.386 . S
C858 C860 1.391 . S
C859 C858 1.386 . S
C859 C863 1.393 . S
C860 H849 0.950 . S
C860 C858 1.391 . S
C860 C861 1.400 . S
C861 C855 1.491 . S
C861 C860 1.400 . S
C861 C862 1.398 . S
C862 H850 0.950 . S
C862 C861 1.398 . S
C862 C863 1.391 . S
C863 H851 0.950 . S
C863 C859 1.393 . S
C863 C862 1.391 . S
H864 C872 0.950 . S
H865 C877 0.950 . S
H866 C874 0.950 . S
H867 C876 0.950 . S
H868 C878 0.950 . S
H869 C880 0.950 . S
H870 C882 0.950 . S
H871 C883 0.950 . S
C872 H864 0.950 . S
C872 C873 1.386 . S
C872 C874 1.391 . S
C873 C872 1.386 . S
C873 C877 1.393 . S
C874 H866 0.950 . S
C874 C872 1.391 . S
C874 C875 1.400 . S
C875 C874 1.400 . S
C875 C876 1.398 . S
C875 C881 1.491 . S
C876 H867 0.950 . S
C876 C875 1.398 . S
C876 C877 1.391 . S
C877 H865 0.950 . S
C877 C873 1.393 . S
C877 C876 1.391 . S
C878 H868 0.950 . S
C878 C879 1.386 . S
C878 C880 1.391 . S
C879 C878 1.386 . S
C879 C883 1.393 . S
C880 H869 0.950 . S
C880 C878 1.391 . S
C880 C881 1.400 . S
C881 C875 1.491 . S
C881 C880 1.400 . S
C881 C882 1.398 . S
C882 H870 0.950 . S
C882 C881 1.398 . S
C882 C883 1.391 . S
C883 H871 0.950 . S
C883 C879 1.393 . S
C883 C882 1.391 . S
H884 C892 0.950 . S
H885 C897 0.950 . S
H886 C894 0.950 . S
H887 C896 0.950 . S
H888 C898 0.950 . S
H889 C900 0.950 . S
H890 C902 0.950 . S
H891 C903 0.950 . S
C892 H884 0.950 . S
C892 C893 1.386 . S
C892 C894 1.391 . S
C893 C892 1.386 . S
C893 C897 1.393 . S
C894 H886 0.950 . S
C894 C892 1.391 . S
C894 C895 1.400 . S
C895 C894 1.400 . S
C895 C896 1.398 . S
C895 C901 1.491 . S
C896 H887 0.950 . S
C896 C895 1.398 . S
C896 C897 1.391 . S
C897 H885 0.950 . S
C897 C893 1.393 . S
C897 C896 1.391 . S
C898 H888 0.950 . S
C898 C899 1.386 . S
C898 C900 1.391 . S
C899 C898 1.386 . S
C899 C903 1.393 . S
C900 H889 0.950 . S
C900 C898 1.391 . S
C900 C901 1.400 . S
C901 C895 1.491 . S
C901 C900 1.400 . S
C901 C902 1.398 . S
C902 H890 0.950 . S
C902 C901 1.398 . S
C902 C903 1.391 . S
C903 H891 0.950 . S
C903 C899 1.393 . S
C903 C902 1.391 . S
H904 C912 0.950 . S
H905 C917 0.950 . S
H906 C914 0.950 . S
H907 C916 0.950 . S
H908 C918 0.950 . S
H909 C920 0.950 . S
H910 C922 0.950 . S
H911 C923 0.950 . S
C912 H904 0.950 . S
C912 C913 1.386 . S
C912 C914 1.391 . S
C913 C912 1.386 . S
C913 C917 1.393 . S
C914 H906 0.950 . S
C914 C912 1.391 . S
C914 C915 1.400 . S
C915 C914 1.400 . S
C915 C916 1.398 . S
C915 C921 1.491 . S
C916 H907 0.950 . S
C916 C915 1.398 . S
C916 C917 1.391 . S
C917 H905 0.950 . S
C917 C913 1.393 . S
C917 C916 1.391 . S
C918 H908 0.950 . S
C918 C919 1.386 . S
C918 C920 1.391 . S
C919 C918 1.386 . S
C919 C923 1.393 . S
C920 H909 0.950 . S
C920 C918 1.391 . S
C920 C921 1.400 . S
C921 C915 1.491 . S
C921 C920 1.400 . S
C921 C922 1.398 . S
C922 H910 0.950 . S
C922 C921 1.398 . S
C922 C923 1.391 . S
C923 H911 0.950 . S
C923 C919 1.393 . S
C923 C922 1.391 . S
H924 C932 0.950 . S
H925 C937 0.950 . S
H926 C934 0.950 . S
H927 C936 0.950 . S
H928 C938 0.950 . S
H929 C940 0.950 . S
H930 C942 0.950 . S
H931 C943 0.950 . S
C932 H924 0.950 . S
C932 C933 1.386 . S
C932 C934 1.391 . S
C933 C932 1.386 . S
C933 C937 1.393 . S
C934 H926 0.950 . S
C934 C932 1.391 . S
C934 C935 1.400 . S
C935 C934 1.400 . S
C935 C936 1.398 . S
C935 C941 1.491 . S
C936 H927 0.950 . S
C936 C935 1.398 . S
C936 C937 1.391 . S
C937 H925 0.950 . S
C937 C933 1.393 . S
C937 C936 1.391 . S
C938 H928 0.950 . S
C938 C939 1.386 . S
C938 C940 1.391 . S
C939 C938 1.386 . S
C939 C943 1.393 . S
C940 H929 0.950 . S
C940 C938 1.391 . S
C940 C941 1.400 . S
C941 C935 1.491 . S
C941 C940 1.400 . S
C941 C942 1.398 . S
C942 H930 0.950 . S
C942 C941 1.398 . S
C942 C943 1.391 . S
C943 H931 0.950 . S
C943 C939 1.393 . S
C943 C942 1.391 . S
H944 C952 0.950 . S
H945 C957 0.950 . S
H946 C954 0.950 . S
H947 C956 0.950 . S
H948 C958 0.950 . S
H949 C960 0.950 . S
H950 C962 0.950 . S
H951 C963 0.950 . S
C952 H944 0.950 . S
C952 C953 1.386 . S
C952 C954 1.391 . S
C953 C952 1.386 . S
C953 C957 1.393 . S
C954 H946 0.950 . S
C954 C952 1.391 . S
C954 C955 1.400 . S
C955 C954 1.400 . S
C955 C956 1.398 . S
C955 C961 1.491 . S
C956 H947 0.950 . S
C956 C955 1.398 . S
C956 C957 1.391 . S
C957 H945 0.950 . S
C957 C953 1.393 . S
C957 C956 1.391 . S
C958 H948 0.950 . S
C958 C959 1.386 . S
C958 C960 1.391 . S
C959 C958 1.386 . S
C959 C963 1.393 . S
C960 H949 0.950 . S
C960 C958 1.391 . S
C960 C961 1.400 . S
C961 C955 1.491 . S
C961 C960 1.400 . S
C961 C962 1.398 . S
C962 H950 0.950 . S
C962 C961 1.398 . S
C962 C963 1.391 . S
C963 H951 0.950 . S
C963 C959 1.393 . S
C963 C962 1.391 . S
H964 C972 0.950 . S
H965 C977 0.950 . S
H966 C974 0.950 . S
H967 C976 0.950 . S
H968 C978 0.950 . S
H969 C980 0.950 . S
H970 C982 0.950 . S
H971 C983 0.950 . S
C972 H964 0.950 . S
C972 C973 1.386 . S
C972 C974 1.391 . S
C973 C972 1.386 . S
C973 C977 1.393 . S
C974 H966 0.950 . S
C974 C972 1.391 . S
C974 C975 1.400 . S
C975 C974 1.400 . S
C975 C976 1.398 . S
C975 C981 1.491 . S
C976 H967 0.950 . S
C976 C975 1.398 . S
C976 C977 1.391 . S
C977 H965 0.950 . S
C977 C973 1.393 . S
C977 C976 1.391 . S
C978 H968 0.950 . S
C978 C979 1.386 . S
C978 C980 1.391 . S
C979 C978 1.386 . S
C979 C983 1.393 . S
C980 H969 0.950 . S
C980 C978 1.391 . S
C980 C981 1.400 . S
C981 C975 1.491 . S
C981 C980 1.400 . S
C981 C982 1.398 . S
C982 H970 0.950 . S
C982 C981 1.398 . S
C982 C983 1.391 . S
C983 H971 0.950 . S
C983 C979 1.393 . S
C983 C982 1.391 . S
H984 C992 0.950 . S
H985 C997 0.950 . S
H986 C994 0.950 . S
H987 C996 0.950 . S
H988 C998 0.950 . S
H989 C1000 0.950 . S
H990 C1002 0.950 . S
H991 C1003 0.950 . S
C992 H984 0.950 . S
C992 C993 1.386 . S
C992 C994 1.391 . S
C993 C992 1.386 . S
C993 C997 1.393 . S
C994 H986 0.950 . S
C994 C992 1.391 . S
C994 C995 1.400 . S
C995 C994 1.400 . S
C995 C996 1.398 . S
C995 C1001 1.491 . S
C996 H987 0.950 . S
C996 C995 1.398 . S
C996 C997 1.391 . S
C997 H985 0.950 . S
C997 C993 1.393 . S
C997 C996 1.391 . S
C998 H988 0.950 . S
C998 C999 1.386 . S
C998 C1000 1.391 . S
C999 C998 1.386 . S
C999 C1003 1.393 . S
C1000 H989 0.950 . S
C1000 C998 1.391 . S
C1000 C1001 1.400 . S
C1001 C995 1.491 . S
C1001 C1000 1.400 . S
C1001 C1002 1.398 . S
C1002 H990 0.950 . S
C1002 C1001 1.398 . S
C1002 C1003 1.391 . S
C1003 H991 0.950 . S
C1003 C999 1.393 . S
C1003 C1002 1.391 . S
H1004 C1012 0.950 . S
H1005 C1017 0.950 . S
H1006 C1014 0.950 . S
H1007 C1016 0.950 . S
H1008 C1018 0.950 . S
H1009 C1020 0.950 . S
H1010 C1022 0.950 . S
H1011 C1023 0.950 . S
C1012 H1004 0.950 . S
C1012 C1013 1.386 . S
C1012 C1014 1.391 . S
C1013 C1012 1.386 . S
C1013 C1017 1.393 . S
C1014 H1006 0.950 . S
C1014 C1012 1.391 . S
C1014 C1015 1.400 . S
C1015 C1014 1.400 . S
C1015 C1016 1.398 . S
C1015 C1021 1.491 . S
C1016 H1007 0.950 . S
C1016 C1015 1.398 . S
C1016 C1017 1.391 . S
C1017 H1005 0.950 . S
C1017 C1013 1.393 . S
C1017 C1016 1.391 . S
C1018 H1008 0.950 . S
C1018 C1019 1.386 . S
C1018 C1020 1.391 . S
C1019 C1018 1.386 . S
C1019 C1023 1.393 . S
C1020 H1009 0.950 . S
C1020 C1018 1.391 . S
C1020 C1021 1.400 . S
C1021 C1015 1.491 . S
C1021 C1020 1.400 . S
C1021 C1022 1.398 . S
C1022 H1010 0.950 . S
C1022 C1021 1.398 . S
C1022 C1023 1.391 . S
C1023 H1011 0.950 . S
C1023 C1019 1.393 . S
C1023 C1022 1.391 . S
H1024 C1032 0.950 . S
H1025 C1037 0.950 . S
H1026 C1034 0.950 . S
H1027 C1036 0.950 . S
H1028 C1038 0.950 . S
H1029 C1040 0.950 . S
H1030 C1042 0.950 . S
H1031 C1043 0.950 . S
C1032 H1024 0.950 . S
C1032 C1033 1.386 . S
C1032 C1034 1.391 . S
C1033 C1032 1.386 . S
C1033 C1037 1.393 . S
C1034 H1026 0.950 . S
C1034 C1032 1.391 . S
C1034 C1035 1.400 . S
C1035 C1034 1.400 . S
C1035 C1036 1.398 . S
C1035 C1041 1.491 . S
C1036 H1027 0.950 . S
C1036 C1035 1.398 . S
C1036 C1037 1.391 . S
C1037 H1025 0.950 . S
C1037 C1033 1.393 . S
C1037 C1036 1.391 . S
C1038 H1028 0.950 . S
C1038 C1039 1.386 . S
C1038 C1040 1.391 . S
C1039 C1038 1.386 . S
C1039 C1043 1.393 . S
C1040 H1029 0.950 . S
C1040 C1038 1.391 . S
C1040 C1041 1.400 . S
C1041 C1035 1.491 . S
C1041 C1040 1.400 . S
C1041 C1042 1.398 . S
C1042 H1030 0.950 . S
C1042 C1041 1.398 . S
C1042 C1043 1.391 . S
C1043 H1031 0.950 . S
C1043 C1039 1.393 . S
C1043 C1042 1.391 . S
C573 C361 1.358 . S
C579 C496 1.386 . S
C599 C504 1.357 . S
C593 C451 1.430 . S
C619 C508 1.367 . S
C613 C241 1.361 . S
C633 C331 1.417 . S
C639 C484 1.340 . S
C659 C525 1.362 . S
C653 C140 1.438 . S
C679 C559 1.362 . S
C673 C211 1.438 . S
C693 C20 1.428 . S
C699 C547 1.347 . S
C713 C91 1.428 . S
C719 C529 1.344 . S
C739 C483 1.289 . S
C733 C80 1.407 . S
C759 C517 1.299 . S
C753 C1 1.401 . S
C779 C521 1.286 . S
C773 C200 1.378 1_556 S
C799 C499 1.319 . S
C793 C121 1.395 . S
C819 C538 1.291 . S
C813 C320 1.406 . S
C833 C260 1.456 . S
C839 C546 1.321 . S
C859 C562 1.280 . S
C853 C440 1.406 . S
C873 C380 1.461 . S
C879 C542 1.287 . S
C899 C487 1.290 . S
C893 C31 1.496 . S
C919 C505 1.308 . S
C913 C61 1.488 . S
C933 C151 1.479 . S
C939 C520 1.293 . S
C959 C500 1.293 . S
C953 C181 1.479 . S
C979 C526 1.333 . S
C973 C271 1.486 . S
C993 C301 1.476 . S
C999 C550 1.294 . S
C1013 C391 1.471 . S
C1019 C563 1.320 . S
C1033 C421 1.470 . S
C1039 C541 1.291 . S
