# Generated by pormake.
# Topology anh, (6,3)-cn, num edge types: 1
# Building blocks:
#     Node 0, Type 0, BuildingBlock: PAMTOO_clean_sbu_0, # of connection points: 6
#     Node 1, Type 0, BuildingBlock: PAMTOO_clean_sbu_0, # of connection points: 6
#     Node 2, Type 0, BuildingBlock: PAMTOO_clean_sbu_0, # of connection points: 6
#     Node 3, Type 1, BuildingBlock: MIDCAF_clean_linker_0, # of connection points: 3
#     Node 4, Type 1, BuildingBlock: MIDCAF_clean_linker_0, # of connection points: 3
#     Node 5, Type 1, BuildingBlock: MIDCAF_clean_linker_0, # of connection points: 3
#     Node 6, Type 1, BuildingBlock: MIDCAF_clean_linker_0, # of connection points: 3
#     Node 7, Type 1, BuildingBlock: MIDCAF_clean_linker_0, # of connection points: 3
#     Node 8, Type 1, BuildingBlock: MIDCAF_clean_linker_0, # of connection points: 3
#     Edge 9, Type (0, 1), BuildingBlock: AJUNOK_clean_linker_0, # of connection points: 2
#     Edge 10, Type (0, 1), BuildingBlock: AJUNOK_clean_linker_0, # of connection points: 2
#     Edge 11, Type (0, 1), BuildingBlock: AJUNOK_clean_linker_0, # of connection points: 2
#     Edge 12, Type (0, 1), BuildingBlock: AJUNOK_clean_linker_0, # of connection points: 2
#     Edge 13, Type (0, 1), BuildingBlock: AJUNOK_clean_linker_0, # of connection points: 2
#     Edge 14, Type (0, 1), BuildingBlock: AJUNOK_clean_linker_0, # of connection points: 2
#     Edge 15, Type (0, 1), BuildingBlock: AJUNOK_clean_linker_0, # of connection points: 2
#     Edge 16, Type (0, 1), BuildingBlock: AJUNOK_clean_linker_0, # of connection points: 2
#     Edge 17, Type (0, 1), BuildingBlock: AJUNOK_clean_linker_0, # of connection points: 2
#     Edge 18, Type (0, 1), BuildingBlock: AJUNOK_clean_linker_0, # of connection points: 2
#     Edge 19, Type (0, 1), BuildingBlock: AJUNOK_clean_linker_0, # of connection points: 2
#     Edge 20, Type (0, 1), BuildingBlock: AJUNOK_clean_linker_0, # of connection points: 2
#     Edge 21, Type (0, 1), BuildingBlock: AJUNOK_clean_linker_0, # of connection points: 2
#     Edge 22, Type (0, 1), BuildingBlock: AJUNOK_clean_linker_0, # of connection points: 2
#     Edge 23, Type (0, 1), BuildingBlock: AJUNOK_clean_linker_0, # of connection points: 2
#     Edge 24, Type (0, 1), BuildingBlock: AJUNOK_clean_linker_0, # of connection points: 2
#     Edge 25, Type (0, 1), BuildingBlock: AJUNOK_clean_linker_0, # of connection points: 2
#     Edge 26, Type (0, 1), BuildingBlock: AJUNOK_clean_linker_0, # of connection points: 2
# Relax obj value: 0.213
# Max RMSD: 0.209
# Mean RMSD: 0.165
data_MOF--net-anh--node1-PAMTOO_clean_sbu_0--node2-MIDCAF_clean_linker_0--edge1-AJUNOK_clean_linker_0
_symmetry_space_group_name_H-M    P1
_symmetry_Int_Tables_number       1
_symmetry_cell_setting            triclinic
loop_
_symmetry_equiv_pos_as_xyz
'x, y, z'
_cell_length_a     27.842316
_cell_length_b     27.143267
_cell_length_c     52.929816
_cell_angle_alpha  88.956166
_cell_angle_beta   96.193584
_cell_angle_gamma 99.457411
loop_
_atom_site_label
_atom_site_type_symbol
_atom_site_fract_x
_atom_site_fract_y
_atom_site_fract_z
_atom_type_partial_charge
Dy0 Dy 0.10596 0.63143 0.14873 0.0
Dy1 Dy 1.08344 0.50888 0.14184 0.0
C2 C 1.08621 0.58275 0.09538 0.0
O3 O 1.02653 0.61323 0.15536 0.0
O4 O 1.00951 0.53217 0.14044 0.0
O5 O 0.1312 0.70216 0.13132 0.0
O6 O 0.1107 0.69984 0.16977 0.0
O7 O 1.07591 0.52442 0.1823 0.0
O8 O 0.12881 0.59843 0.18598 0.0
O9 O 0.16526 0.52546 0.15007 0.0
O10 O 0.17744 0.60939 0.14091 0.0
O11 O 1.09204 0.43399 0.15357 0.0
O12 O 1.04526 0.44593 0.11926 0.0
C13 C 0.99541 0.57222 0.14896 0.0
O14 O 1.06904 0.61238 0.11003 0.0
O15 O 0.10437 0.54421 0.10519 0.0
C16 C 0.17905 0.75918 0.16036 0.0
C17 C 0.27208 0.81709 0.17297 0.0
C18 C 0.24076 0.83052 0.15231 0.0
C19 C 0.19457 0.80181 0.14609 0.0
C20 C 0.2103 0.74581 0.18107 0.0
C21 C 0.25624 0.77475 0.18742 0.0
C22 C 0.13209 0.72704 0.15225 0.0
C23 C 0.1042 0.55928 0.19631 0.0
C24 C 0.19452 0.56729 0.14569 0.0
C25 C 1.01847 0.37681 0.14464 0.0
C26 C 0.93877 0.30883 0.16006 0.0
C27 C 0.96232 0.34842 0.176 0.0
C28 C 1.00157 0.3822 0.16834 0.0
C29 C 0.99516 0.3374 0.12866 0.0
C30 C 0.95554 0.30378 0.13624 0.0
C31 C 1.05858 0.41348 0.13597 0.0
H32 H 0.25193 0.86332 0.14107 0.0
H33 H 0.17118 0.81247 0.12991 0.0
H34 H 0.19957 0.71262 0.19213 0.0
H35 H 0.27984 0.76351 0.20337 0.0
H36 H 0.9504 0.35328 0.19448 0.0
H37 H 1.01846 0.41274 0.18088 0.0
H38 H 1.00719 0.33304 0.11015 0.0
H39 H 0.93749 0.27444 0.12327 0.0
Dy40 Dy 0.57516 0.01919 0.51148 0.0
Dy41 Dy 0.69378 0.04876 0.5243 0.0
C42 C 0.62488 0.01316 0.56769 0.0
O43 O 0.5894 0.09872 0.5247 0.0
O44 O 0.66665 0.11971 0.51283 0.0
O45 O 0.50251 1.00863 0.52389 0.0
O46 O 0.51212 0.99886 0.48428 0.0
O47 O 0.68012 0.03795 0.48219 0.0
O48 O 0.60261 0.05635 0.47685 0.0
O49 O 0.67774 0.96619 0.52972 0.0
O50 O 0.60549 0.94992 0.50378 0.0
O51 O 0.76778 0.03998 0.51913 0.0
O52 O 0.75454 0.09383 0.54622 0.0
C53 C 0.62624 0.13268 0.51921 0.0
O54 O 0.59252 0.99003 0.55029 0.0
O55 O 0.66175 0.04595 0.56137 0.0
C56 C 0.44924 0.94335 0.5014 0.0
C57 C 0.38536 0.85118 0.50005 0.0
C58 C 0.37811 0.89019 0.51561 0.0
C59 C 0.40967 0.93604 0.51614 0.0
C60 C 0.4574 0.90378 0.48654 0.0
C61 C 0.42567 0.85835 0.48578 0.0
C62 C 0.48188 0.99201 0.5017 0.0
C63 C 0.64294 0.0504 0.46749 0.0
C64 C 0.64374 0.93478 0.51646 0.0
C65 C 0.82047 0.11748 0.52251 0.0
C66 C 0.87931 0.19986 0.50254 0.0
C67 C 0.83992 0.17274 0.48719 0.0
C68 C 0.81044 0.13207 0.49716 0.0
C69 C 0.86029 0.14396 0.53775 0.0
C70 C 0.88956 0.18498 0.52784 0.0
C71 C 0.78686 0.07795 0.53375 0.0
H72 H 0.34797 0.88537 0.52723 0.0
H73 H 0.40307 0.96586 0.52798 0.0
H74 H 0.48795 0.90795 0.47519 0.0
H75 H 0.43205 0.82919 0.47346 0.0
H76 H 0.83125 0.18381 0.46768 0.0
H77 H 0.77925 0.11267 0.48521 0.0
H78 H 0.86812 0.13351 0.55744 0.0
H79 H 0.92009 0.20519 0.53991 0.0
Dy80 Dy 0.62995 0.47773 0.84426 0.0
Dy81 Dy 0.51111 0.46952 0.83586 0.0
C82 C 0.5757 0.48472 0.79023 0.0
O83 O 0.6165 0.55682 0.83908 0.0
O84 O 0.53757 0.54765 0.84908 0.0
O85 O 0.70142 0.51543 0.83739 0.0
O86 O 0.69423 0.44817 0.86038 0.0
O87 O 0.52887 0.45052 0.87669 0.0
O88 O 0.60792 0.49266 0.88206 0.0
O89 O 0.52339 0.39214 0.82829 0.0
O90 O 0.60006 0.39727 0.84968 0.0
O91 O 0.44055 0.46973 0.84915 0.0
O92 O 0.44625 0.46348 0.80889 0.0
C93 C 0.57877 0.57611 0.84491 0.0
O94 O 0.60708 0.4608 0.80338 0.0
O95 O 0.5434 0.50352 0.80159 0.0
C96 C 0.75922 0.46228 0.83457 0.0
C97 C 0.83778 0.44963 0.80765 0.0
C98 C 0.79166 0.45226 0.79449 0.0
C99 C 0.75251 0.45864 0.80792 0.0
C100 C 0.80325 0.45359 0.84773 0.0
C101 C 0.84219 0.44707 0.8344 0.0
C102 C 0.72356 0.48108 0.84872 0.0
C103 C 0.56787 0.47111 0.89132 0.0
C104 C 0.55988 0.37084 0.83861 0.0
C105 C 0.39993 0.52157 0.82219 0.0
C106 C 0.37959 0.61796 0.82921 0.0
C107 C 0.41768 0.61135 0.81504 0.0
C108 C 0.42814 0.5634 0.81176 0.0
C109 C 0.35885 0.52791 0.83404 0.0
C110 C 0.34862 0.57579 0.83743 0.0
C111 C 0.41987 0.47489 0.82617 0.0
H112 H 0.78709 0.45372 0.77392 0.0
H113 H 0.71822 0.46429 0.79747 0.0
H114 H 0.80881 0.45571 0.86829 0.0
H115 H 0.87724 0.44542 0.84519 0.0
H116 H 0.44152 0.64333 0.80826 0.0
H117 H 0.46049 0.55951 0.80278 0.0
H118 H 0.33693 0.49631 0.84235 0.0
H119 H 0.31813 0.58013 0.84784 0.0
C120 C 0.49018 0.91406 0.22667 0.0
C121 C 0.46629 0.9285 0.20369 0.0
C122 C 0.489 0.96991 0.19051 0.0
C123 C 0.53379 0.99748 0.20074 0.0
H124 H 0.68722 0.07546 0.18757 0.0
H125 H 0.74978 0.13022 0.16631 0.0
H126 H 0.79612 0.21302 0.23591 0.0
H127 H 0.73423 0.15899 0.25715 0.0
H128 H 0.71387 0.10176 0.30969 0.0
H129 H 0.71673 0.10586 0.35606 0.0
H130 H 0.58213 1.00064 0.35337 0.0
H131 H 0.57877 0.99627 0.3074 0.0
H132 H 0.55095 0.93021 0.25511 0.0
H133 H 0.47405 0.88187 0.23705 0.0
H134 H 0.47119 0.98228 0.17288 0.0
H135 H 0.54954 0.03037 0.19075 0.0
N136 N 0.63151 0.04803 0.22472 0.0
N137 N 0.67432 0.07854 0.26355 0.0
N138 N 0.60473 0.01735 0.26341 0.0
C139 C 0.66956 0.07876 0.23769 0.0
C140 C 0.64204 0.04792 0.27655 0.0
C141 C 0.59904 0.01701 0.23764 0.0
C142 C 0.70577 0.11261 0.22411 0.0
C143 C 0.7106 0.10549 0.19829 0.0
C144 C 0.74654 0.13657 0.18616 0.0
C145 C 0.77785 0.17561 0.19955 0.0
C146 C 0.77235 0.18329 0.22514 0.0
C147 C 0.73697 0.15208 0.23731 0.0
C148 C 0.64587 0.049 0.30471 0.0
C149 C 0.68495 0.07937 0.31897 0.0
C150 C 0.68674 0.0817 0.34548 0.0
C151 C 0.64926 0.05415 0.35809 0.0
C152 C 0.61099 0.02294 0.34398 0.0
C153 C 0.60929 0.02034 0.31762 0.0
C154 C 0.55615 0.98439 0.22445 0.0
C155 C 0.53438 0.94171 0.23696 0.0
C156 C 0.57583 0.34721 0.55135 0.0
C157 C 0.60551 0.34088 0.53223 0.0
C158 C 0.63069 0.38378 0.52111 0.0
C159 C 0.62839 0.43174 0.53006 0.0
H160 H 0.59859 0.60338 0.51664 0.0
H161 H 0.60793 0.68947 0.50015 0.0
H162 H 0.67974 0.74359 0.57306 0.0
H163 H 0.67087 0.65877 0.58933 0.0
H164 H 0.64616 0.59357 0.64001 0.0
H165 H 0.6385 0.58548 0.68574 0.0
H166 H 0.541 0.4455 0.67252 0.0
H167 H 0.54919 0.45264 0.62702 0.0
H168 H 0.55154 0.39762 0.57563 0.0
H169 H 0.55601 0.31519 0.5604 0.0
H170 H 0.65303 0.38022 0.50593 0.0
H171 H 0.64991 0.46394 0.52202 0.0
N172 N 0.61703 0.53098 0.55212 0.0
N173 N 0.61697 0.57133 0.59118 0.0
N174 N 0.59862 0.48446 0.58874 0.0
C175 C 0.62277 0.57403 0.56597 0.0
C176 C 0.60462 0.52673 0.60261 0.0
C177 C 0.605 0.48584 0.56367 0.0
C178 C 0.63394 0.62421 0.55429 0.0
C179 C 0.61732 0.63364 0.52889 0.0
C180 C 0.62233 0.68285 0.51953 0.0
C181 C 0.64493 0.7232 0.53526 0.0
C182 C 0.66299 0.71332 0.56031 0.0
C183 C 0.65754 0.66461 0.56969 0.0
C184 C 0.59835 0.52368 0.62998 0.0
C185 C 0.62288 0.56125 0.64686 0.0
C186 C 0.61871 0.55661 0.67293 0.0
C187 C 0.58912 0.51497 0.68235 0.0
C188 C 0.56384 0.47799 0.66551 0.0
C189 C 0.56872 0.48208 0.63957 0.0
C190 C 0.60095 0.43747 0.5503 0.0
C191 C 0.57353 0.39468 0.5602 0.0
C192 C 1.01455 0.54591 0.8448 0.0
C193 C 1.01569 0.55231 0.81845 0.0
C194 C 1.0447 0.59481 0.80938 0.0
C195 C 1.07056 0.63114 0.82642 0.0
H196 H 0.17477 0.75572 0.83178 0.0
H197 H 0.25551 0.76436 0.81894 0.0
H198 H 0.31728 0.803 0.89583 0.0
H199 H 0.2352 0.78754 0.90946 0.0
H200 H 0.18405 0.7143 0.9542 0.0
H201 H 0.17757 0.68764 -0.00158 0.0
H202 H 1.02763 0.61881 0.97818 0.0
H203 H 1.03384 0.64499 0.93416 0.0
H204 H 1.03714 0.57607 0.88181 0.0
H205 H 0.99168 0.5141 0.85239 0.0
H206 H 1.046 0.60071 0.78916 0.0
H207 H 1.09195 0.66402 0.8189 0.0
N208 N 0.12742 0.70135 0.86349 0.0
N209 N 0.14959 0.7279 0.90572 0.0
N210 N 1.08712 0.65959 0.89603 0.0
C211 C 0.15548 0.73369 0.88055 0.0
C212 C 0.11457 0.69136 0.91347 0.0
C213 C 1.09346 0.66411 0.87103 0.0
C214 C 0.19892 0.76605 0.87199 0.0
C215 C 0.20542 0.76692 0.84603 0.0
C216 C 0.25242 0.77266 0.83856 0.0
C217 C 0.29339 0.77852 0.857 0.0
C218 C 0.28638 0.79278 0.88164 0.0
C219 C 0.23919 0.78481 0.88942 0.0
C220 C 0.10951 0.68162 0.94071 0.0
C221 C 0.14952 0.69415 0.95929 0.0
C222 C 0.14603 0.67847 0.98447 0.0
C223 C 0.1023 0.65065 0.99149 0.0
C224 C 1.06175 0.64005 0.97317 0.0
C225 C 1.0654 0.65505 0.94801 0.0
C226 C 1.06742 0.62564 0.85275 0.0
C227 C 1.03994 0.58207 0.8617 0.0
C228 C 0.26711 0.65258 0.44766 0.0
C229 C 0.25526 0.6691 0.4708 0.0
C230 C 0.21256 0.64567 0.48072 0.0
C231 C 0.18148 0.60688 0.4673 0.0
H232 H 1.09352 0.46237 0.47494 0.0
H233 H 1.041 0.39472 0.4943 0.0
H234 H 0.96054 0.35668 0.42101 0.0
H235 H 1.01366 0.42347 0.40139 0.0
H236 H 1.04937 0.48255 0.35205 0.0
H237 H 1.04568 0.49152 0.30594 0.0
H238 H 0.19166 0.57699 0.31362 0.0
H239 H 0.19489 0.56963 0.35965 0.0
H240 H 0.24524 0.60349 0.41591 0.0
H241 H 0.29978 0.67044 0.43962 0.0
H242 H 0.20288 0.65801 0.49857 0.0
H243 H 0.14815 0.59008 0.47504 0.0
N244 N 0.1249 0.52033 0.43899 0.0
N245 N 1.09126 0.48894 0.39877 0.0
N246 N 0.15664 0.55565 0.40231 0.0
C247 C 1.09192 0.48709 0.42449 0.0
C248 C 0.12358 0.5231 0.38756 0.0
C249 C 0.15737 0.55466 0.42798 0.0
C250 C 1.05798 0.44829 0.43657 0.0
C251 C 1.06437 0.43995 0.46294 0.0
C252 C 1.03411 0.40138 0.47409 0.0
C253 C 0.99653 0.37071 0.45917 0.0
C254 C 0.98947 0.37961 0.43292 0.0
C255 C 1.01987 0.41796 0.42173 0.0
C256 C 0.12222 0.52583 0.35956 0.0
C257 C 1.08073 0.50318 0.34392 0.0
C258 C 1.07861 0.50821 0.31751 0.0
C259 C 0.11803 0.53571 0.30623 0.0
C260 C 0.16014 0.55686 0.32181 0.0
C261 C 0.16207 0.55233 0.34819 0.0
C262 C 0.19229 0.59181 0.44355 0.0
C263 C 0.23575 0.61456 0.43406 0.0
C264 C 0.53032 0.14475 0.7962 0.0
C265 C 0.54756 0.15775 0.82145 0.0
C266 C 0.56554 0.12161 0.83766 0.0
C267 C 0.56811 0.07404 0.82833 0.0
H268 H 0.61354 0.90907 0.83878 0.0
H269 H 0.61827 0.82549 0.85708 0.0
H270 H 0.52131 0.75834 0.79345 0.0
H271 H 0.51787 0.84092 0.77486 0.0
H272 H 0.5867 0.89901 0.72261 0.0
H273 H 0.60101 0.90504 0.67778 0.0
H274 H 0.59562 0.06297 0.67878 0.0
H275 H 0.58201 0.05757 0.72338 0.0
H276 H 0.52076 0.08983 0.76708 0.0
H277 H 0.51646 0.17173 0.78323 0.0
H278 H 0.5785 0.13048 0.85734 0.0
H279 H 0.5836 0.04741 0.84089 0.0
N280 N 0.56184 0.9721 0.80436 0.0
N281 N 0.57374 0.93156 0.76703 0.0
N282 N 0.56824 0.01639 0.76601 0.0
C283 C 0.56745 0.92978 0.79218 0.0
C284 C 0.57476 0.97497 0.75389 0.0
C285 C 0.56154 0.01557 0.79101 0.0
C286 C 0.56543 0.88123 0.80542 0.0
C287 C 0.59271 0.87639 0.82901 0.0
C288 C 0.59561 0.82881 0.83937 0.0
C289 C 0.57017 0.7858 0.82657 0.0
C290 C 0.5411 0.79101 0.80366 0.0
C291 C 0.53923 0.83816 0.79305 0.0
C292 C 0.58302 0.97773 0.72666 0.0
C293 C 0.58851 0.93502 0.71329 0.0
C294 C 0.59648 0.93836 0.68761 0.0
C295 C 0.59912 0.98443 0.67486 0.0
C296 C 0.594 0.02707 0.68822 0.0
C297 C 0.58594 0.02379 0.71378 0.0
C298 C 0.55321 0.0623 0.80263 0.0
C299 C 0.5332 0.09781 0.78691 0.0
C300 C 0.75566 0.51755 0.13162 0.0
C301 C 0.78246 0.55868 0.14544 0.0
C302 C 0.75668 0.59574 0.15293 0.0
C303 C 0.70576 0.59229 0.14601 0.0
H304 H 0.50841 0.52471 0.15911 0.0
H305 H 0.42525 0.5274 0.17043 0.0
H306 H 0.39847 0.61897 0.10455 0.0
H307 H 0.48065 0.61661 0.09357 0.0
H308 H 0.50089 0.4946 0.0487 0.0
H309 H 0.49587 0.47128 0.0039 0.0
H310 H 0.64558 0.54363 0.00126 0.0
H311 H 0.65139 0.56407 0.04613 0.0
H312 H 0.68671 0.48296 0.11311 0.0
H313 H 0.77396 0.48896 0.12479 0.0
H314 H 0.77612 0.62803 0.16353 0.0
H315 H 0.68744 0.62256 0.1508 0.0
N316 N 0.59072 0.56204 0.12916 0.0
N317 N 0.54227 0.55089 0.08958 0.0
N318 N 0.62483 0.54316 0.09238 0.0
C319 C 0.54631 0.56111 0.11484 0.0
C320 C 0.58127 0.54201 0.07827 0.0
C321 C 0.6303 0.55294 0.11765 0.0
C322 C 0.50123 0.57057 0.12549 0.0
C323 C 0.48512 0.54648 0.14753 0.0
C324 C 0.43722 0.54741 0.15374 0.0
C325 C 0.40475 0.5728 0.13816 0.0
C326 C 0.42223 0.59912 0.11702 0.0
C327 C 0.4695 0.59777 0.11073 0.0
C328 C 0.57671 0.53058 0.05091 0.0
C329 C 0.53267 0.5053 0.03847 0.0
C330 C 0.52982 0.49199 0.01287 0.0
C331 C 0.57073 0.5044 -0.00081 0.0
C332 C 0.61405 0.53153 0.01148 0.0
C333 C 0.61724 0.54378 0.03713 0.0
C334 C 0.67983 0.55193 0.13129 0.0
C335 C 0.70535 0.51418 0.12479 0.0
C336 C 0.28035 0.61282 0.14246 0.0
C337 C 0.24853 0.56744 0.14551 0.0
C338 C 0.33075 0.61431 0.14103 0.0
C339 C 0.35208 0.57057 0.14271 0.0
H340 H 0.26625 0.64776 0.14083 0.0
H341 H 0.35321 0.65016 0.13829 0.0
S342 S 0.28588 0.44193 0.15095 0.0
N343 N 0.24296 0.47738 0.15055 0.0
N344 N 0.3373 0.4804 0.14768 0.0
C345 C 0.32109 0.52503 0.1463 0.0
C346 C 0.26959 0.52341 0.14771 0.0
C347 C 0.93094 0.23931 0.46964 0.0
C348 C 0.90931 0.24388 0.49208 0.0
C349 C 0.959 0.28058 0.45915 0.0
C350 C 0.96615 0.32795 0.47064 0.0
H351 H 0.9265 0.20343 0.46028 0.0
H352 H 0.97571 0.27524 0.44206 0.0
S353 S 0.91375 0.36009 0.52855 0.0
N354 N 0.89474 0.29948 0.52486 0.0
N355 N 0.94711 0.37748 0.50496 0.0
C356 C 0.94409 0.3331 0.49292 0.0
C357 C 0.91573 0.29096 0.50368 0.0
C358 C 0.537 0.65097 0.84653 0.0
C359 C 0.58023 0.63131 0.84426 0.0
C360 C 0.53459 0.7016 0.84199 0.0
C361 C 0.57572 0.73496 0.83576 0.0
H362 H 0.50396 0.62677 0.85085 0.0
H363 H 0.49987 0.71447 0.84258 0.0
S364 S 0.69926 0.7049 0.83036 0.0
N365 N 0.66639 0.65095 0.83728 0.0
N366 N 0.66181 0.74635 0.8294 0.0
C367 C 0.61999 0.71689 0.83509 0.0
C368 C 0.62232 0.66507 0.83924 0.0
C369 C 0.91893 0.61228 0.14535 0.0
C370 C 0.94197 0.57029 0.15098 0.0
C371 C 0.86763 0.60902 0.14473 0.0
C372 C 0.83736 0.56379 0.15004 0.0
H373 H 0.94038 0.64736 0.1403 0.0
H374 H 0.85141 0.64165 0.13899 0.0
S375 S 0.88086 0.44546 0.17032 0.0
N376 N 0.93112 0.48366 0.1647 0.0
N377 N 0.83573 0.47797 0.16442 0.0
C378 C 0.86059 0.52255 0.15734 0.0
C379 C 0.91249 0.52567 0.15758 0.0
C380 C 0.36772 0.75802 0.49677 0.0
C381 C 0.35013 0.80373 0.49733 0.0
C382 C 0.3362 0.71371 0.4896 0.0
C383 C 0.28592 0.71343 0.48315 0.0
H384 H 0.40648 0.75685 0.50089 0.0
H385 H 0.3515 0.67978 0.48813 0.0
S386 S 0.22075 0.82194 0.48291 0.0
N387 N 0.2786 0.84532 0.49171 0.0
N388 N 0.21928 0.76149 0.47894 0.0
C389 C 0.26729 0.75804 0.4851 0.0
C390 C 0.29942 0.80336 0.49208 0.0
C391 C 0.51206 0.28595 0.82741 0.0
C392 C 0.55633 0.31556 0.83715 0.0
C393 C 0.50881 0.23441 0.82375 0.0
C394 C 0.54962 0.21023 0.82969 0.0
H395 H 0.47979 0.30278 0.82197 0.0
H396 H 0.47434 0.21349 0.81549 0.0
S397 S 0.6737 0.26972 0.85654 0.0
N398 N 0.64166 0.31592 0.85364 0.0
N399 N 0.63532 0.21933 0.84639 0.0
C400 C 0.59359 0.23883 0.84033 0.0
C401 C 0.59702 0.29137 0.84411 0.0
C402 C 0.60359 0.84479 0.51245 0.0
C403 C 0.64629 0.8804 0.51789 0.0
C404 C 0.60394 0.79356 0.51676 0.0
C405 C 0.647 0.77598 0.52663 0.0
H406 H 0.56908 0.85665 0.50587 0.0
H407 H 0.56974 0.76785 0.51354 0.0
S408 S 0.77009 0.85245 0.54024 0.0
N409 N 0.73398 0.89338 0.531 0.0
N410 N 0.73444 0.79738 0.53893 0.0
C411 C 0.69046 0.81075 0.53064 0.0
C412 C 0.69016 0.86281 0.52632 0.0
C413 C 0.92371 0.43997 0.80342 0.0
C414 C 0.88337 0.46356 0.79525 0.0
C415 C 0.97109 0.4676 0.80655 0.0
C416 C 0.97895 0.51921 0.80144 0.0
H417 H 0.91784 0.40262 0.81133 0.0
H418 H 1.00005 0.45048 0.81667 0.0
S419 S 0.8886 0.59179 0.76914 0.0
N420 N 0.85673 0.53626 0.77406 0.0
N421 N 0.94572 0.58807 0.78 0.0
C422 C 0.9409 0.53961 0.78769 0.0
C423 C 0.89273 0.51153 0.7845 0.0
C424 C 0.33456 0.86445 0.20481 0.0
C425 C 0.32111 0.84724 0.17978 0.0
C426 C 0.38119 0.89138 0.21211 0.0
C427 C 0.41645 0.90186 0.19472 0.0
H428 H 0.30875 0.85707 0.21888 0.0
H429 H 0.38972 0.9041 0.23161 0.0
S430 S 0.3999 0.86333 0.12705 0.0
N431 N 0.3467 0.84177 0.13759 0.0
N432 N 0.43482 0.89198 0.15141 0.0
C433 C 0.40335 0.88512 0.16955 0.0
C434 C 0.35562 0.85786 0.16207 0.0
C435 C 0.57562 0.20082 0.52027 0.0
C436 C 0.62198 0.18657 0.52022 0.0
C437 C 0.57057 0.25102 0.52275 0.0
C438 C 0.61165 0.28925 0.52549 0.0
H439 H 0.54281 0.17291 0.51869 0.0
H440 H 0.53409 0.25987 0.52309 0.0
S441 S 0.74141 0.27218 0.52606 0.0
N442 N 0.70992 0.21524 0.52229 0.0
N443 N 0.7004 0.3093 0.52758 0.0
C444 C 0.65819 0.27577 0.52472 0.0
C445 C 0.66335 0.22457 0.52198 0.0
C446 C 0.36525 0.70568 0.81995 0.0
C447 C 0.37397 0.66813 0.83758 0.0
C448 C 0.347 0.7478 0.82743 0.0
C449 C 0.33525 0.75254 0.85252 0.0
H450 H 0.36861 0.70055 0.80001 0.0
H451 H 0.33699 0.77386 0.81283 0.0
S452 S 0.36933 0.67185 0.90711 0.0
N453 N 0.38404 0.64493 0.88201 0.0
N454 N 0.34735 0.72183 0.89616 0.0
C455 C 0.352 0.71905 0.87094 0.0
C456 C 0.37146 0.67701 0.86334 0.0
C457 C 0.85947 0.29258 0.17954 0.0
C458 C 0.89634 0.27374 0.16832 0.0
C459 C 0.8206 0.26059 0.1889 0.0
C460 C 0.81679 0.20843 0.18729 0.0
H461 H 0.86083 0.33246 0.1813 0.0
H462 H 0.7935 0.2768 0.19773 0.0
S463 S 0.90383 0.13975 0.16016 0.0
N464 N 0.92669 0.19923 0.15645 0.0
N465 N 0.85308 0.13916 0.17377 0.0
C466 C 0.8527 0.18894 0.17569 0.0
C467 C 0.89257 0.22155 0.16627 0.0
C468 C 1.05719 0.62679 0.05634 0.0
C469 C 1.08941 0.5966 0.06838 0.0
C470 C 1.06146 0.64383 0.03142 0.0
C471 C 0.09866 0.63209 0.01779 0.0
H472 H 1.02848 0.63755 0.06628 0.0
H473 H 1.03593 0.66705 0.02288 0.0
S474 S 0.19197 0.55378 0.04034 0.0
N475 N 0.15934 0.555 0.06453 0.0
N476 N 0.16756 0.5876 0.01771 0.0
C477 C 0.13091 0.60168 0.02945 0.0
C478 C 0.12616 0.58368 0.05472 0.0
C479 C 0.68731 0.04628 0.42891 0.0
C480 C 0.64568 0.05609 0.43968 0.0
C481 C 0.68906 0.04739 0.4025 0.0
C482 C 0.64917 0.05807 0.38594 0.0
H483 H 0.71842 0.0365 0.44088 0.0
H484 H 0.72114 0.0382 0.39495 0.0
S485 S 0.53391 0.09194 0.4041 0.0
N486 N 0.56511 0.08097 0.43135 0.0
N487 N 0.56879 0.08275 0.3819 0.0
C488 C 0.60828 0.06999 0.39637 0.0
C489 C 0.60644 0.06911 0.42318 0.0
C490 C 0.62291 0.49327 0.75237 0.0
C491 C 0.57837 0.49305 0.76271 0.0
C492 C 0.62643 0.50168 0.72638 0.0
C493 C 0.58533 0.50921 0.70985 0.0
H494 H 0.65541 0.4874 0.76444 0.0
H495 H 0.66128 0.50142 0.71907 0.0
S496 S 0.46044 0.51205 0.72711 0.0
N497 N 0.4924 0.5016 0.75425 0.0
N498 N 0.49909 0.51625 0.70529 0.0
C499 C 0.54068 0.50905 0.71982 0.0
C500 C 0.53719 0.50131 0.74631 0.0
C501 C 0.64954 0.03276 0.61374 0.0
C502 C 0.61914 1.00297 0.59494 0.0
C503 C 0.64339 0.02583 0.63955 0.0
C504 C 0.60689 0.9886 0.64761 0.0
H505 H 0.67786 0.06235 0.60854 0.0
H506 H 0.66723 0.05005 0.65332 0.0
S507 S 0.51828 0.89969 0.6064 0.0
N508 N 0.55168 0.93373 0.58647 0.0
N509 N 0.5402 0.92126 0.63501 0.0
C510 C 0.57688 0.95785 0.62918 0.0
C511 C 0.58294 0.96493 0.60286 0.0
C512 C 0.52624 0.48818 0.92885 0.0
C513 C 0.56631 0.47307 0.91895 0.0
C514 C 0.5273 0.49698 0.95496 0.0
C515 C 0.56821 0.49024 0.97202 0.0
H516 H 0.49492 0.49556 0.91622 0.0
H517 H 0.49669 0.51099 0.96165 0.0
S518 S 0.6788 0.44296 0.95561 0.0
N519 N 0.64575 0.44721 0.92806 0.0
N520 N 0.64698 0.46123 0.97725 0.0
C521 C 0.60713 0.47204 0.96236 0.0
C522 C 0.60637 0.46409 0.93579 0.0
C523 C 0.09467 0.50734 0.23553 0.0
C524 C 0.10837 0.55427 0.22433 0.0
C525 C 0.09803 0.50162 0.26199 0.0
C526 C 0.11498 0.54265 0.27826 0.0
H527 H 1.08163 0.47457 0.22379 0.0
H528 H 1.08772 0.46467 0.26977 0.0
S529 S 0.15176 0.67421 0.25859 0.0
N530 N 0.13764 0.64296 0.23163 0.0
N531 N 0.14297 0.63226 0.28131 0.0
C532 C 0.12809 0.58991 0.26733 0.0
C533 C 0.12501 0.59571 0.2404 0.0
loop_
_geom_bond_atom_site_label_1
_geom_bond_atom_site_label_2
_geom_bond_distance
_geom_bond_site_symmetry_2
_ccdc_geom_bond_type
Dy0 O3 2.307 1_455 S
Dy0 O5 2.395 . S
Dy0 O6 2.379 . S
Dy0 O8 2.339 . S
Dy0 O10 2.298 . S
Dy0 O14 2.275 . S
Dy0 C22 2.738 . S
Dy1 O4 2.298 . S
Dy1 O7 2.274 1_655 S
Dy1 O9 2.307 1_655 S
Dy1 O11 2.395 . S
Dy1 O12 2.379 . S
Dy1 O15 2.339 . S
Dy1 C31 2.738 . S
C2 O14 1.254 . S
C2 O15 1.257 1_455 S
O3 Dy0 2.307 1_655 S
O3 C13 1.266 . S
O4 Dy1 2.298 . S
O4 C13 1.236 . S
O5 Dy0 2.395 . S
O5 C22 1.255 . S
O6 Dy0 2.379 . S
O6 C22 1.249 . S
O7 Dy1 2.274 1_455 S
O7 C23 1.254 . S
O8 Dy0 2.339 . S
O8 C23 1.257 . S
O9 Dy1 2.307 1_455 S
O9 C24 1.266 . S
O10 Dy0 2.298 . S
O10 C24 1.236 . S
O11 Dy1 2.395 . S
O11 C31 1.255 . S
O12 Dy1 2.379 . S
O12 C31 1.249 . S
C13 O3 1.266 . S
C13 O4 1.236 . S
O14 Dy0 2.275 . S
O14 C2 1.254 . S
O15 Dy1 2.339 . S
O15 C2 1.257 1_655 S
C16 C19 1.344 . S
C16 C20 1.328 . S
C16 C22 1.516 . S
C17 C18 1.304 . S
C17 C21 1.323 . S
C18 C17 1.304 . S
C18 C19 1.371 . S
C18 H32 0.930 . S
C19 C16 1.344 . S
C19 C18 1.371 . S
C19 H33 0.931 . S
C20 C16 1.328 . S
C20 C21 1.433 . S
C20 H34 0.931 . S
C21 C17 1.323 . S
C21 C20 1.433 . S
C21 H35 0.933 . S
C22 Dy0 2.738 . S
C22 O5 1.255 . S
C22 O6 1.249 . S
C22 C16 1.516 . S
C23 O7 1.254 . S
C23 O8 1.257 . S
C24 O9 1.266 . S
C24 O10 1.236 . S
C25 C28 1.344 . S
C25 C29 1.328 . S
C25 C31 1.516 . S
C26 C27 1.304 . S
C26 C30 1.323 . S
C27 C26 1.304 . S
C27 C28 1.371 . S
C27 H36 0.930 . S
C28 C25 1.344 . S
C28 C27 1.371 . S
C28 H37 0.931 . S
C29 C25 1.328 . S
C29 C30 1.433 . S
C29 H38 0.931 . S
C30 C26 1.323 . S
C30 C29 1.433 . S
C30 H39 0.933 . S
C31 Dy1 2.738 . S
C31 O11 1.255 . S
C31 O12 1.249 . S
C31 C25 1.516 . S
H32 C18 0.930 . S
H33 C19 0.931 . S
H34 C20 0.931 . S
H35 C21 0.933 . S
H36 C27 0.930 . S
H37 C28 0.931 . S
H38 C29 0.931 . S
H39 C30 0.933 . S
Dy40 O43 2.307 1_565 S
Dy40 O45 2.395 . S
Dy40 O46 2.379 . S
Dy40 O48 2.339 1_565 S
Dy40 O50 2.298 . S
Dy40 O54 2.275 1_565 S
Dy40 C62 2.738 . S
Dy41 O44 2.298 . S
Dy41 O47 2.275 . S
Dy41 O49 2.307 1_545 S
Dy41 O51 2.395 . S
Dy41 O52 2.379 . S
Dy41 O55 2.339 . S
Dy41 C71 2.738 . S
C42 O54 1.254 . S
C42 O55 1.257 . S
O43 Dy40 2.307 1_545 S
O43 C53 1.266 . S
O44 Dy41 2.298 . S
O44 C53 1.236 . S
O45 Dy40 2.395 . S
O45 C62 1.255 . S
O46 Dy40 2.379 . S
O46 C62 1.249 . S
O47 Dy41 2.275 . S
O47 C63 1.254 . S
O48 Dy40 2.339 1_545 S
O48 C63 1.257 . S
O49 Dy41 2.307 1_565 S
O49 C64 1.266 . S
O50 Dy40 2.298 . S
O50 C64 1.236 . S
O51 Dy41 2.395 . S
O51 C71 1.255 . S
O52 Dy41 2.379 . S
O52 C71 1.249 . S
C53 O43 1.266 . S
C53 O44 1.236 . S
O54 Dy40 2.275 1_545 S
O54 C42 1.254 . S
O55 Dy41 2.339 . S
O55 C42 1.257 . S
C56 C59 1.344 . S
C56 C60 1.328 . S
C56 C62 1.516 . S
C57 C58 1.304 . S
C57 C61 1.323 . S
C58 C57 1.304 . S
C58 C59 1.371 . S
C58 H72 0.930 . S
C59 C56 1.344 . S
C59 C58 1.371 . S
C59 H73 0.931 . S
C60 C56 1.328 . S
C60 C61 1.433 . S
C60 H74 0.931 . S
C61 C57 1.323 . S
C61 C60 1.433 . S
C61 H75 0.933 . S
C62 Dy40 2.738 . S
C62 O45 1.255 . S
C62 O46 1.249 . S
C62 C56 1.516 . S
C63 O47 1.254 . S
C63 O48 1.257 . S
C64 O49 1.266 . S
C64 O50 1.236 . S
C65 C68 1.344 . S
C65 C69 1.328 . S
C65 C71 1.516 . S
C66 C67 1.304 . S
C66 C70 1.323 . S
C67 C66 1.304 . S
C67 C68 1.371 . S
C67 H76 0.930 . S
C68 C65 1.344 . S
C68 C67 1.371 . S
C68 H77 0.931 . S
C69 C65 1.328 . S
C69 C70 1.433 . S
C69 H78 0.931 . S
C70 C66 1.323 . S
C70 C69 1.433 . S
C70 H79 0.933 . S
C71 Dy41 2.738 . S
C71 O51 1.255 . S
C71 O52 1.249 . S
C71 C65 1.516 . S
H72 C58 0.930 . S
H73 C59 0.931 . S
H74 C60 0.931 . S
H75 C61 0.933 . S
H76 C67 0.930 . S
H77 C68 0.931 . S
H78 C69 0.931 . S
H79 C70 0.933 . S
Dy80 O83 2.307 . S
Dy80 O85 2.395 . S
Dy80 O86 2.379 . S
Dy80 O88 2.339 . S
Dy80 O90 2.298 . S
Dy80 O94 2.275 . S
Dy80 C102 2.738 . S
Dy81 O84 2.298 . S
Dy81 O87 2.275 . S
Dy81 O89 2.307 . S
Dy81 O91 2.395 . S
Dy81 O92 2.379 . S
Dy81 O95 2.339 . S
Dy81 C111 2.738 . S
C82 O94 1.254 . S
C82 O95 1.257 . S
O83 Dy80 2.307 . S
O83 C93 1.266 . S
O84 Dy81 2.298 . S
O84 C93 1.236 . S
O85 Dy80 2.395 . S
O85 C102 1.255 . S
O86 Dy80 2.379 . S
O86 C102 1.249 . S
O87 Dy81 2.275 . S
O87 C103 1.254 . S
O88 Dy80 2.339 . S
O88 C103 1.257 . S
O89 Dy81 2.307 . S
O89 C104 1.266 . S
O90 Dy80 2.298 . S
O90 C104 1.236 . S
O91 Dy81 2.395 . S
O91 C111 1.255 . S
O92 Dy81 2.379 . S
O92 C111 1.249 . S
C93 O83 1.266 . S
C93 O84 1.236 . S
O94 Dy80 2.275 . S
O94 C82 1.254 . S
O95 Dy81 2.339 . S
O95 C82 1.257 . S
C96 C99 1.344 . S
C96 C100 1.328 . S
C96 C102 1.516 . S
C97 C98 1.304 . S
C97 C101 1.323 . S
C98 C97 1.304 . S
C98 C99 1.371 . S
C98 H112 0.930 . S
C99 C96 1.344 . S
C99 C98 1.371 . S
C99 H113 0.931 . S
C100 C96 1.328 . S
C100 C101 1.433 . S
C100 H114 0.931 . S
C101 C97 1.323 . S
C101 C100 1.433 . S
C101 H115 0.933 . S
C102 Dy80 2.738 . S
C102 O85 1.255 . S
C102 O86 1.249 . S
C102 C96 1.516 . S
C103 O87 1.254 . S
C103 O88 1.257 . S
C104 O89 1.266 . S
C104 O90 1.236 . S
C105 C108 1.344 . S
C105 C109 1.328 . S
C105 C111 1.516 . S
C106 C107 1.304 . S
C106 C110 1.323 . S
C107 C106 1.304 . S
C107 C108 1.371 . S
C107 H116 0.930 . S
C108 C105 1.344 . S
C108 C107 1.371 . S
C108 H117 0.931 . S
C109 C105 1.328 . S
C109 C110 1.433 . S
C109 H118 0.931 . S
C110 C106 1.323 . S
C110 C109 1.433 . S
C110 H119 0.933 . S
C111 Dy81 2.738 . S
C111 O91 1.255 . S
C111 O92 1.249 . S
C111 C105 1.516 . S
H112 C98 0.930 . S
H113 C99 0.931 . S
H114 C100 0.931 . S
H115 C101 0.933 . S
H116 C107 0.930 . S
H117 C108 0.931 . S
H118 C109 0.931 . S
H119 C110 0.933 . S
C120 C121 1.384 . S
C120 H133 0.947 . S
C120 C155 1.382 . S
C121 C120 1.384 . S
C121 C122 1.378 . S
C122 C121 1.378 . S
C122 C123 1.378 . S
C122 H134 0.952 . S
C123 C122 1.378 . S
C123 H135 0.950 . S
C123 C154 1.383 . S
H124 C143 0.947 . S
H125 C144 0.946 . S
H126 C146 0.953 . S
H127 C147 0.945 . S
H128 C149 0.952 . S
H129 C150 0.949 . S
H130 C152 0.950 1_565 S
H131 C153 0.948 1_565 S
H132 C155 0.951 . S
H133 C120 0.947 . S
H134 C122 0.952 . S
H135 C123 0.950 . S
N136 C139 1.382 . S
N136 C141 1.363 . S
N137 C139 1.371 . S
N137 C140 1.372 . S
N138 C140 1.361 . S
N138 C141 1.377 . S
C139 N136 1.382 . S
C139 N137 1.371 . S
C139 C142 1.480 . S
C140 N137 1.372 . S
C140 N138 1.361 . S
C140 C148 1.457 . S
C141 N136 1.363 . S
C141 N138 1.377 . S
C141 C154 1.479 1_545 S
C142 C139 1.480 . S
C142 C143 1.383 . S
C142 C147 1.385 . S
C143 H124 0.947 . S
C143 C142 1.383 . S
C143 C144 1.388 . S
C144 H125 0.946 . S
C144 C143 1.388 . S
C144 C145 1.384 . S
C145 C144 1.384 . S
C145 C146 1.377 . S
C146 H126 0.953 . S
C146 C145 1.377 . S
C146 C147 1.369 . S
C147 H127 0.945 . S
C147 C142 1.385 . S
C147 C146 1.369 . S
C148 C140 1.457 . S
C148 C149 1.372 . S
C148 C153 1.364 . S
C149 H128 0.952 . S
C149 C148 1.372 . S
C149 C150 1.389 . S
C150 H129 0.949 . S
C150 C149 1.389 . S
C150 C151 1.387 . S
C151 C150 1.387 . S
C151 C152 1.372 . S
C152 H130 0.950 1_545 S
C152 C151 1.372 . S
C152 C153 1.379 . S
C153 H131 0.948 1_545 S
C153 C148 1.364 . S
C153 C152 1.379 . S
C154 C123 1.383 . S
C154 C141 1.479 1_565 S
C154 C155 1.398 . S
C155 C120 1.382 . S
C155 H132 0.951 . S
C155 C154 1.398 . S
C156 C157 1.384 . S
C156 H169 0.947 . S
C156 C191 1.382 . S
C157 C156 1.384 . S
C157 C158 1.378 . S
C158 C157 1.378 . S
C158 C159 1.378 . S
C158 H170 0.952 . S
C159 C158 1.378 . S
C159 H171 0.950 . S
C159 C190 1.383 . S
H160 C179 0.947 . S
H161 C180 0.946 . S
H162 C182 0.953 . S
H163 C183 0.945 . S
H164 C185 0.952 . S
H165 C186 0.949 . S
H166 C188 0.950 . S
H167 C189 0.948 . S
H168 C191 0.951 . S
H169 C156 0.947 . S
H170 C158 0.952 . S
H171 C159 0.950 . S
N172 C175 1.382 . S
N172 C177 1.363 . S
N173 C175 1.371 . S
N173 C176 1.372 . S
N174 C176 1.361 . S
N174 C177 1.377 . S
C175 N172 1.382 . S
C175 N173 1.371 . S
C175 C178 1.480 . S
C176 N173 1.372 . S
C176 N174 1.361 . S
C176 C184 1.457 . S
C177 N172 1.363 . S
C177 N174 1.377 . S
C177 C190 1.479 . S
C178 C175 1.480 . S
C178 C179 1.383 . S
C178 C183 1.385 . S
C179 H160 0.947 . S
C179 C178 1.383 . S
C179 C180 1.388 . S
C180 H161 0.946 . S
C180 C179 1.388 . S
C180 C181 1.384 . S
C181 C180 1.384 . S
C181 C182 1.377 . S
C182 H162 0.953 . S
C182 C181 1.377 . S
C182 C183 1.369 . S
C183 H163 0.945 . S
C183 C178 1.385 . S
C183 C182 1.369 . S
C184 C176 1.457 . S
C184 C185 1.372 . S
C184 C189 1.364 . S
C185 H164 0.952 . S
C185 C184 1.372 . S
C185 C186 1.389 . S
C186 H165 0.949 . S
C186 C185 1.389 . S
C186 C187 1.387 . S
C187 C186 1.387 . S
C187 C188 1.372 . S
C188 H166 0.950 . S
C188 C187 1.372 . S
C188 C189 1.379 . S
C189 H167 0.948 . S
C189 C184 1.364 . S
C189 C188 1.379 . S
C190 C159 1.383 . S
C190 C177 1.479 . S
C190 C191 1.398 . S
C191 C156 1.382 . S
C191 H168 0.951 . S
C191 C190 1.398 . S
C192 C193 1.384 . S
C192 H205 0.947 . S
C192 C227 1.382 . S
C193 C192 1.384 . S
C193 C194 1.378 . S
C194 C193 1.378 . S
C194 C195 1.378 . S
C194 H206 0.952 . S
C195 C194 1.378 . S
C195 H207 0.950 . S
C195 C226 1.383 . S
H196 C215 0.947 . S
H197 C216 0.946 . S
H198 C218 0.953 . S
H199 C219 0.945 . S
H200 C221 0.952 . S
H201 C222 0.949 . S
H202 C224 0.950 . S
H203 C225 0.948 . S
H204 C227 0.951 . S
H205 C192 0.947 . S
H206 C194 0.952 . S
H207 C195 0.950 . S
N208 C211 1.382 . S
N208 C213 1.363 1_455 S
N209 C211 1.371 . S
N209 C212 1.372 . S
N210 C212 1.361 1_655 S
N210 C213 1.377 . S
C211 N208 1.382 . S
C211 N209 1.371 . S
C211 C214 1.480 . S
C212 N209 1.372 . S
C212 N210 1.361 1_455 S
C212 C220 1.457 . S
C213 N208 1.363 1_655 S
C213 N210 1.377 . S
C213 C226 1.479 . S
C214 C211 1.480 . S
C214 C215 1.383 . S
C214 C219 1.385 . S
C215 H196 0.947 . S
C215 C214 1.383 . S
C215 C216 1.388 . S
C216 H197 0.946 . S
C216 C215 1.388 . S
C216 C217 1.384 . S
C217 C216 1.384 . S
C217 C218 1.377 . S
C218 H198 0.953 . S
C218 C217 1.377 . S
C218 C219 1.369 . S
C219 H199 0.945 . S
C219 C214 1.385 . S
C219 C218 1.369 . S
C220 C212 1.457 . S
C220 C221 1.372 . S
C220 C225 1.364 1_455 S
C221 H200 0.952 . S
C221 C220 1.372 . S
C221 C222 1.389 1_556 S
C222 H201 0.949 . S
C222 C221 1.389 1_554 S
C222 C223 1.387 . S
C223 C222 1.387 . S
C223 C224 1.372 1_455 S
C224 H202 0.950 . S
C224 C223 1.372 1_655 S
C224 C225 1.379 1_554 S
C225 H203 0.948 . S
C225 C220 1.364 1_655 S
C225 C224 1.379 1_556 S
C226 C195 1.383 . S
C226 C213 1.479 . S
C226 C227 1.398 . S
C227 C192 1.382 . S
C227 H204 0.951 . S
C227 C226 1.398 . S
C228 C229 1.384 . S
C228 H241 0.947 . S
C228 C263 1.382 . S
C229 C228 1.384 . S
C229 C230 1.378 . S
C230 C229 1.378 . S
C230 C231 1.378 . S
C230 H242 0.952 . S
C231 C230 1.378 . S
C231 H243 0.950 . S
C231 C262 1.383 . S
H232 C251 0.947 . S
H233 C252 0.946 . S
H234 C254 0.953 . S
H235 C255 0.945 . S
H236 C257 0.952 . S
H237 C258 0.949 . S
H238 C260 0.950 . S
H239 C261 0.948 . S
H240 C263 0.951 . S
H241 C228 0.947 . S
H242 C230 0.952 . S
H243 C231 0.950 . S
N244 C247 1.382 1_455 S
N244 C249 1.363 . S
N245 C247 1.371 . S
N245 C248 1.372 1_655 S
N246 C248 1.361 . S
N246 C249 1.377 . S
C247 N244 1.382 1_655 S
C247 N245 1.371 . S
C247 C250 1.480 . S
C248 N245 1.372 1_455 S
C248 N246 1.361 . S
C248 C256 1.457 . S
C249 N244 1.363 . S
C249 N246 1.377 . S
C249 C262 1.479 . S
C250 C247 1.480 . S
C250 C251 1.383 . S
C250 C255 1.385 . S
C251 H232 0.947 . S
C251 C250 1.383 . S
C251 C252 1.388 . S
C252 H233 0.946 . S
C252 C251 1.388 . S
C252 C253 1.384 . S
C253 C252 1.384 . S
C253 C254 1.377 . S
C254 H234 0.953 . S
C254 C253 1.377 . S
C254 C255 1.369 . S
C255 H235 0.945 . S
C255 C250 1.385 . S
C255 C254 1.369 . S
C256 C248 1.457 . S
C256 C257 1.372 1_455 S
C256 C261 1.364 . S
C257 H236 0.952 . S
C257 C256 1.372 1_655 S
C257 C258 1.389 . S
C258 H237 0.949 . S
C258 C257 1.389 . S
C258 C259 1.387 . S
C259 C258 1.387 . S
C259 C260 1.372 1_655 S
C260 H238 0.950 . S
C260 C259 1.372 1_455 S
C260 C261 1.379 . S
C261 H239 0.948 . S
C261 C256 1.364 . S
C261 C260 1.379 . S
C262 C231 1.383 . S
C262 C249 1.479 . S
C262 C263 1.398 . S
C263 C228 1.382 . S
C263 H240 0.951 . S
C263 C262 1.398 . S
C264 C265 1.384 . S
C264 H277 0.947 . S
C264 C299 1.382 . S
C265 C264 1.384 . S
C265 C266 1.378 . S
C266 C265 1.378 . S
C266 C267 1.378 . S
C266 H278 0.952 . S
C267 C266 1.378 . S
C267 H279 0.950 . S
C267 C298 1.383 . S
H268 C287 0.947 . S
H269 C288 0.946 . S
H270 C290 0.953 . S
H271 C291 0.945 . S
H272 C293 0.952 . S
H273 C294 0.949 . S
H274 C296 0.950 . S
H275 C297 0.948 . S
H276 C299 0.951 . S
H277 C264 0.947 . S
H278 C266 0.952 . S
H279 C267 0.950 . S
N280 C283 1.382 1_545 S
N280 C285 1.363 . S
N281 C283 1.371 . S
N281 C284 1.372 1_565 S
N282 C284 1.361 . S
N282 C285 1.377 . S
C283 N280 1.382 1_565 S
C283 N281 1.371 . S
C283 C286 1.480 . S
C284 N281 1.372 1_545 S
C284 N282 1.361 . S
C284 C292 1.457 . S
C285 N280 1.363 . S
C285 N282 1.377 . S
C285 C298 1.479 . S
C286 C283 1.480 . S
C286 C287 1.383 . S
C286 C291 1.385 . S
C287 H268 0.947 . S
C287 C286 1.383 . S
C287 C288 1.388 . S
C288 H269 0.946 . S
C288 C287 1.388 . S
C288 C289 1.384 . S
C289 C288 1.384 . S
C289 C290 1.377 . S
C290 H270 0.953 . S
C290 C289 1.377 . S
C290 C291 1.369 . S
C291 H271 0.945 . S
C291 C286 1.385 . S
C291 C290 1.369 . S
C292 C284 1.457 . S
C292 C293 1.372 1_545 S
C292 C297 1.364 . S
C293 H272 0.952 . S
C293 C292 1.372 1_565 S
C293 C294 1.389 . S
C294 H273 0.949 . S
C294 C293 1.389 . S
C294 C295 1.387 1_565 S
C295 C294 1.387 1_545 S
C295 C296 1.372 . S
C296 H274 0.950 . S
C296 C295 1.372 . S
C296 C297 1.379 . S
C297 H275 0.948 . S
C297 C292 1.364 . S
C297 C296 1.379 . S
C298 C267 1.383 . S
C298 C285 1.479 . S
C298 C299 1.398 . S
C299 C264 1.382 . S
C299 H276 0.951 . S
C299 C298 1.398 . S
C300 C301 1.384 . S
C300 H313 0.947 . S
C300 C335 1.382 . S
C301 C300 1.384 . S
C301 C302 1.378 . S
C302 C301 1.378 . S
C302 C303 1.378 . S
C302 H314 0.952 . S
C303 C302 1.378 . S
C303 H315 0.950 . S
C303 C334 1.383 . S
H304 C323 0.947 . S
H305 C324 0.946 . S
H306 C326 0.953 . S
H307 C327 0.945 . S
H308 C329 0.952 . S
H309 C330 0.952 . S
H310 C332 0.950 . S
H311 C333 0.948 . S
H312 C335 0.951 . S
H313 C300 0.947 . S
H314 C302 0.952 . S
H315 C303 0.950 . S
N316 C319 1.382 . S
N316 C321 1.363 . S
N317 C319 1.371 . S
N317 C320 1.372 . S
N318 C320 1.361 . S
N318 C321 1.377 . S
C319 N316 1.382 . S
C319 N317 1.371 . S
C319 C322 1.480 . S
C320 N317 1.372 . S
C320 N318 1.361 . S
C320 C328 1.457 . S
C321 N316 1.363 . S
C321 N318 1.377 . S
C321 C334 1.479 . S
C322 C319 1.480 . S
C322 C323 1.383 . S
C322 C327 1.385 . S
C323 H304 0.947 . S
C323 C322 1.383 . S
C323 C324 1.388 . S
C324 H305 0.946 . S
C324 C323 1.388 . S
C324 C325 1.384 . S
C325 C324 1.384 . S
C325 C326 1.377 . S
C326 H306 0.953 . S
C326 C325 1.377 . S
C326 C327 1.369 . S
C327 H307 0.945 . S
C327 C322 1.385 . S
C327 C326 1.369 . S
C328 C320 1.457 . S
C328 C329 1.372 . S
C328 C333 1.364 . S
C329 H308 0.952 . S
C329 C328 1.372 . S
C329 C330 1.389 . S
C330 H309 0.952 . S
C330 C329 1.389 . S
C330 C331 1.387 1_554 S
C331 C330 1.387 1_556 S
C331 C332 1.372 1_556 S
C332 H310 0.950 . S
C332 C331 1.372 1_554 S
C332 C333 1.379 . S
C333 H311 0.948 . S
C333 C328 1.364 . S
C333 C332 1.379 . S
C334 C303 1.383 . S
C334 C321 1.479 . S
C334 C335 1.398 . S
C335 C300 1.382 . S
C335 H312 0.951 . S
C335 C334 1.398 . S
C336 C337 1.369 . S
C336 C338 1.419 . S
C336 H340 0.930 . S
C337 C336 1.369 . S
C337 C346 1.429 . S
C338 C336 1.419 . S
C338 C339 1.363 . S
C338 H341 0.929 . S
C339 C338 1.363 . S
C339 C345 1.428 . S
H340 C336 0.930 . S
H341 C338 0.929 . S
S342 N343 1.613 . S
S342 N344 1.610 . S
N343 S342 1.613 . S
N343 C346 1.350 . S
N344 S342 1.610 . S
N344 C345 1.351 . S
C345 C339 1.428 . S
C345 N344 1.351 . S
C345 C346 1.434 . S
C346 C337 1.429 . S
C346 N343 1.350 . S
C346 C345 1.434 . S
C347 C348 1.369 . S
C347 C349 1.419 . S
C347 H351 0.930 . S
C348 C347 1.369 . S
C348 C357 1.429 . S
C349 C347 1.419 . S
C349 C350 1.363 . S
C349 H352 0.929 . S
C350 C349 1.363 . S
C350 C356 1.428 . S
H351 C347 0.930 . S
H352 C349 0.929 . S
S353 N354 1.613 . S
S353 N355 1.610 . S
N354 S353 1.613 . S
N354 C357 1.350 . S
N355 S353 1.610 . S
N355 C356 1.351 . S
C356 C350 1.428 . S
C356 N355 1.351 . S
C356 C357 1.434 . S
C357 C348 1.429 . S
C357 N354 1.350 . S
C357 C356 1.434 . S
C358 C359 1.369 . S
C358 C360 1.419 . S
C358 H362 0.930 . S
C359 C358 1.369 . S
C359 C368 1.429 . S
C360 C358 1.419 . S
C360 C361 1.363 . S
C360 H363 0.929 . S
C361 C360 1.363 . S
C361 C367 1.428 . S
H362 C358 0.930 . S
H363 C360 0.929 . S
S364 N365 1.613 . S
S364 N366 1.610 . S
N365 S364 1.613 . S
N365 C368 1.350 . S
N366 S364 1.610 . S
N366 C367 1.351 . S
C367 C361 1.428 . S
C367 N366 1.351 . S
C367 C368 1.434 . S
C368 C359 1.429 . S
C368 N365 1.350 . S
C368 C367 1.434 . S
C369 C370 1.369 . S
C369 C371 1.419 . S
C369 H373 0.930 . S
C370 C369 1.369 . S
C370 C379 1.429 . S
C371 C369 1.419 . S
C371 C372 1.363 . S
C371 H374 0.929 . S
C372 C371 1.363 . S
C372 C378 1.428 . S
H373 C369 0.930 . S
H374 C371 0.929 . S
S375 N376 1.613 . S
S375 N377 1.610 . S
N376 S375 1.613 . S
N376 C379 1.350 . S
N377 S375 1.610 . S
N377 C378 1.351 . S
C378 C372 1.428 . S
C378 N377 1.351 . S
C378 C379 1.434 . S
C379 C370 1.429 . S
C379 N376 1.350 . S
C379 C378 1.434 . S
C380 C381 1.369 . S
C380 C382 1.419 . S
C380 H384 0.930 . S
C381 C380 1.369 . S
C381 C390 1.429 . S
C382 C380 1.419 . S
C382 C383 1.363 . S
C382 H385 0.929 . S
C383 C382 1.363 . S
C383 C389 1.428 . S
H384 C380 0.930 . S
H385 C382 0.929 . S
S386 N387 1.613 . S
S386 N388 1.610 . S
N387 S386 1.613 . S
N387 C390 1.350 . S
N388 S386 1.610 . S
N388 C389 1.351 . S
C389 C383 1.428 . S
C389 N388 1.351 . S
C389 C390 1.434 . S
C390 C381 1.429 . S
C390 N387 1.350 . S
C390 C389 1.434 . S
C391 C392 1.369 . S
C391 C393 1.419 . S
C391 H395 0.930 . S
C392 C391 1.369 . S
C392 C401 1.429 . S
C393 C391 1.419 . S
C393 C394 1.363 . S
C393 H396 0.929 . S
C394 C393 1.363 . S
C394 C400 1.428 . S
H395 C391 0.930 . S
H396 C393 0.929 . S
S397 N398 1.613 . S
S397 N399 1.610 . S
N398 S397 1.613 . S
N398 C401 1.350 . S
N399 S397 1.610 . S
N399 C400 1.351 . S
C400 C394 1.428 . S
C400 N399 1.351 . S
C400 C401 1.434 . S
C401 C392 1.429 . S
C401 N398 1.350 . S
C401 C400 1.434 . S
C402 C403 1.369 . S
C402 C404 1.419 . S
C402 H406 0.930 . S
C403 C402 1.369 . S
C403 C412 1.429 . S
C404 C402 1.419 . S
C404 C405 1.363 . S
C404 H407 0.929 . S
C405 C404 1.363 . S
C405 C411 1.428 . S
H406 C402 0.930 . S
H407 C404 0.929 . S
S408 N409 1.613 . S
S408 N410 1.610 . S
N409 S408 1.613 . S
N409 C412 1.350 . S
N410 S408 1.610 . S
N410 C411 1.351 . S
C411 C405 1.428 . S
C411 N410 1.351 . S
C411 C412 1.434 . S
C412 C403 1.429 . S
C412 N409 1.350 . S
C412 C411 1.434 . S
C413 C414 1.369 . S
C413 C415 1.419 . S
C413 H417 0.930 . S
C414 C413 1.369 . S
C414 C423 1.429 . S
C415 C413 1.419 . S
C415 C416 1.363 . S
C415 H418 0.929 . S
C416 C415 1.363 . S
C416 C422 1.428 . S
H417 C413 0.930 . S
H418 C415 0.929 . S
S419 N420 1.613 . S
S419 N421 1.610 . S
N420 S419 1.613 . S
N420 C423 1.350 . S
N421 S419 1.610 . S
N421 C422 1.351 . S
C422 C416 1.428 . S
C422 N421 1.351 . S
C422 C423 1.434 . S
C423 C414 1.429 . S
C423 N420 1.350 . S
C423 C422 1.434 . S
C424 C425 1.369 . S
C424 C426 1.419 . S
C424 H428 0.930 . S
C425 C424 1.369 . S
C425 C434 1.429 . S
C426 C424 1.419 . S
C426 C427 1.363 . S
C426 H429 0.929 . S
C427 C426 1.363 . S
C427 C433 1.428 . S
H428 C424 0.930 . S
H429 C426 0.929 . S
S430 N431 1.613 . S
S430 N432 1.610 . S
N431 S430 1.613 . S
N431 C434 1.350 . S
N432 S430 1.610 . S
N432 C433 1.351 . S
C433 C427 1.428 . S
C433 N432 1.351 . S
C433 C434 1.434 . S
C434 C425 1.429 . S
C434 N431 1.350 . S
C434 C433 1.434 . S
C435 C436 1.369 . S
C435 C437 1.419 . S
C435 H439 0.930 . S
C436 C435 1.369 . S
C436 C445 1.429 . S
C437 C435 1.419 . S
C437 C438 1.363 . S
C437 H440 0.929 . S
C438 C437 1.363 . S
C438 C444 1.428 . S
H439 C435 0.930 . S
H440 C437 0.929 . S
S441 N442 1.613 . S
S441 N443 1.610 . S
N442 S441 1.613 . S
N442 C445 1.350 . S
N443 S441 1.610 . S
N443 C444 1.351 . S
C444 C438 1.428 . S
C444 N443 1.351 . S
C444 C445 1.434 . S
C445 C436 1.429 . S
C445 N442 1.350 . S
C445 C444 1.434 . S
C446 C447 1.369 . S
C446 C448 1.419 . S
C446 H450 0.930 . S
C447 C446 1.369 . S
C447 C456 1.429 . S
C448 C446 1.419 . S
C448 C449 1.363 . S
C448 H451 0.929 . S
C449 C448 1.363 . S
C449 C455 1.428 . S
H450 C446 0.930 . S
H451 C448 0.929 . S
S452 N453 1.613 . S
S452 N454 1.610 . S
N453 S452 1.613 . S
N453 C456 1.350 . S
N454 S452 1.610 . S
N454 C455 1.351 . S
C455 C449 1.428 . S
C455 N454 1.351 . S
C455 C456 1.434 . S
C456 C447 1.429 . S
C456 N453 1.350 . S
C456 C455 1.434 . S
C457 C458 1.369 . S
C457 C459 1.419 . S
C457 H461 0.930 . S
C458 C457 1.369 . S
C458 C467 1.429 . S
C459 C457 1.419 . S
C459 C460 1.363 . S
C459 H462 0.929 . S
C460 C459 1.363 . S
C460 C466 1.428 . S
H461 C457 0.930 . S
H462 C459 0.929 . S
S463 N464 1.613 . S
S463 N465 1.610 . S
N464 S463 1.613 . S
N464 C467 1.350 . S
N465 S463 1.610 . S
N465 C466 1.351 . S
C466 C460 1.428 . S
C466 N465 1.351 . S
C466 C467 1.434 . S
C467 C458 1.429 . S
C467 N464 1.350 . S
C467 C466 1.434 . S
C468 C469 1.369 . S
C468 C470 1.419 . S
C468 H472 0.930 . S
C469 C468 1.369 . S
C469 C478 1.429 . S
C470 C468 1.419 . S
C470 C471 1.363 . S
C470 H473 0.929 . S
C471 C470 1.363 . S
C471 C477 1.428 . S
H472 C468 0.930 . S
H473 C470 0.929 . S
S474 N475 1.613 . S
S474 N476 1.607 1_655 S
N475 S474 1.613 . S
N475 C478 1.350 1_655 S
N476 S474 1.607 1_455 S
N476 C477 1.351 . S
C477 C471 1.428 . S
C477 N476 1.351 . S
C477 C478 1.434 . S
C478 C469 1.429 . S
C478 N475 1.350 1_455 S
C478 C477 1.434 . S
C479 C480 1.369 . S
C479 C481 1.419 . S
C479 H483 0.930 . S
C480 C479 1.369 . S
C480 C489 1.440 . S
C481 C479 1.419 . S
C481 C482 1.363 . S
C481 H484 0.929 . S
C482 C481 1.363 . S
C482 C488 1.428 . S
H483 C479 0.930 . S
H484 C481 0.929 . S
S485 N486 1.613 . S
S485 N487 1.610 . S
N486 S485 1.613 . S
N486 C489 1.335 1_565 S
N487 S485 1.610 . S
N487 C488 1.351 1_565 S
C488 C482 1.428 . S
C488 N487 1.351 1_545 S
C488 C489 1.438 . S
C489 C480 1.440 . S
C489 N486 1.335 1_545 S
C489 C488 1.438 . S
C490 C491 1.369 . S
C490 C492 1.419 . S
C490 H494 0.930 . S
C491 C490 1.369 . S
C491 C500 1.429 . S
C492 C490 1.419 . S
C492 C493 1.363 . S
C492 H495 0.929 . S
C493 C492 1.363 . S
C493 C499 1.428 . S
H494 C490 0.930 . S
H495 C492 0.929 . S
S496 N497 1.613 . S
S496 N498 1.610 . S
N497 S496 1.613 . S
N497 C500 1.350 . S
N498 S496 1.610 . S
N498 C499 1.351 . S
C499 C493 1.428 . S
C499 N498 1.351 . S
C499 C500 1.434 . S
C500 C491 1.429 . S
C500 N497 1.350 . S
C500 C499 1.434 . S
C501 C502 1.369 . S
C501 C503 1.419 . S
C501 H505 0.930 . S
C502 C501 1.369 . S
C502 C511 1.429 1_545 S
C503 C501 1.419 . S
C503 C504 1.363 . S
C503 H506 0.929 . S
C504 C503 1.363 . S
C504 C510 1.428 1_545 S
H505 C501 0.930 . S
H506 C503 0.929 . S
S507 N508 1.613 . S
S507 N509 1.610 . S
N508 S507 1.613 . S
N508 C511 1.350 . S
N509 S507 1.610 . S
N509 C510 1.349 . S
C510 C504 1.428 1_565 S
C510 N509 1.349 . S
C510 C511 1.435 . S
C511 C502 1.429 1_565 S
C511 N508 1.350 . S
C511 C510 1.435 . S
C512 C513 1.369 . S
C512 C514 1.419 . S
C512 H516 0.930 . S
C513 C512 1.369 . S
C513 C522 1.429 . S
C514 C512 1.419 . S
C514 C515 1.363 . S
C514 H517 0.929 . S
C515 C514 1.363 . S
C515 C521 1.428 . S
H516 C512 0.930 . S
H517 C514 0.929 . S
S518 N519 1.613 . S
S518 N520 1.610 . S
N519 S518 1.613 . S
N519 C522 1.350 . S
N520 S518 1.610 . S
N520 C521 1.351 . S
C521 C515 1.428 . S
C521 N520 1.351 . S
C521 C522 1.434 . S
C522 C513 1.429 . S
C522 N519 1.350 . S
C522 C521 1.434 . S
C523 C524 1.369 1_655 S
C523 C525 1.419 . S
C523 H527 0.930 . S
C524 C523 1.369 1_455 S
C524 C533 1.429 . S
C525 C523 1.419 . S
C525 C526 1.363 . S
C525 H528 0.929 . S
C526 C525 1.363 . S
C526 C532 1.428 1_655 S
H527 C523 0.930 . S
H528 C525 0.929 . S
S529 N530 1.613 . S
S529 N531 1.610 . S
N530 S529 1.613 . S
N530 C533 1.350 . S
N531 S529 1.610 . S
N531 C532 1.351 . S
C532 C526 1.428 1_455 S
C532 N531 1.351 . S
C532 C533 1.434 . S
C533 C524 1.429 . S
C533 N530 1.350 . S
C533 C532 1.434 . S
C337 C24 3.048 . S
C339 C325 2.959 . S
C348 C66 1.247 . S
C350 C253 1.308 . S
C359 C93 1.983 . S
C361 C289 1.872 . S
C370 C13 3.185 . S
C372 C301 3.118 . S
C383 C229 1.365 . S
C381 C57 1.360 . S
C394 C265 2.021 . S
C392 C104 2.084 . S
C403 C64 2.057 . S
C405 C181 1.943 . S
C414 C97 0.865 . S
C416 C193 0.874 . S
C425 C17 1.402 . S
C427 C121 1.458 . S
C438 C157 1.921 . S
C436 C53 1.993 . S
C449 C217 0.487 . S
C447 C106 0.613 . S
C458 C26 1.279 . S
C460 C145 1.318 . S
C471 C223 1.040 . S
C469 C2 1.062 . S
C480 C63 1.452 . S
C482 C151 1.484 . S
C491 C82 1.365 . S
C493 C187 1.378 . S
C504 C295 1.393 . S
C502 C42 1.385 . S
C515 C331 1.799 . S
C513 C103 1.758 . S
C524 C23 1.477 . S
C526 C259 1.495 . S
