# Generated by pormake.
# Topology pyr, (3,6)-cn, num edge types: 1
# Building blocks:
#     Node 0, Type 0, BuildingBlock: BETDIP_clean_linker_0, # of connection points: 3
#     Node 1, Type 0, BuildingBlock: BETDIP_clean_linker_0, # of connection points: 3
#     Node 2, Type 0, BuildingBlock: BETDIP_clean_linker_0, # of connection points: 3
#     Node 3, Type 0, BuildingBlock: BETDIP_clean_linker_0, # of connection points: 3
#     Node 4, Type 0, BuildingBlock: BETDIP_clean_linker_0, # of connection points: 3
#     Node 5, Type 0, BuildingBlock: BETDIP_clean_linker_0, # of connection points: 3
#     Node 6, Type 0, BuildingBlock: BETDIP_clean_linker_0, # of connection points: 3
#     Node 7, Type 0, BuildingBlock: BETDIP_clean_linker_0, # of connection points: 3
#     Node 8, Type 1, BuildingBlock: FUNLAD_clean_sbu_0, # of connection points: 6
#     Node 9, Type 1, BuildingBlock: FUNLAD_clean_sbu_0, # of connection points: 6
#     Node 10, Type 1, BuildingBlock: FUNLAD_clean_sbu_0, # of connection points: 6
#     Node 11, Type 1, BuildingBlock: FUNLAD_clean_sbu_0, # of connection points: 6
#     Edge 12, Type (0, 1), BuildingBlock: AJUNOK_clean_linker_0, # of connection points: 2
#     Edge 13, Type (0, 1), BuildingBlock: AJUNOK_clean_linker_0, # of connection points: 2
#     Edge 14, Type (0, 1), BuildingBlock: AJUNOK_clean_linker_0, # of connection points: 2
#     Edge 15, Type (0, 1), BuildingBlock: AJUNOK_clean_linker_0, # of connection points: 2
#     Edge 16, Type (0, 1), BuildingBlock: AJUNOK_clean_linker_0, # of connection points: 2
#     Edge 17, Type (0, 1), BuildingBlock: AJUNOK_clean_linker_0, # of connection points: 2
#     Edge 18, Type (0, 1), BuildingBlock: AJUNOK_clean_linker_0, # of connection points: 2
#     Edge 19, Type (0, 1), BuildingBlock: AJUNOK_clean_linker_0, # of connection points: 2
#     Edge 20, Type (0, 1), BuildingBlock: AJUNOK_clean_linker_0, # of connection points: 2
#     Edge 21, Type (0, 1), BuildingBlock: AJUNOK_clean_linker_0, # of connection points: 2
#     Edge 22, Type (0, 1), BuildingBlock: AJUNOK_clean_linker_0, # of connection points: 2
#     Edge 23, Type (0, 1), BuildingBlock: AJUNOK_clean_linker_0, # of connection points: 2
#     Edge 24, Type (0, 1), BuildingBlock: AJUNOK_clean_linker_0, # of connection points: 2
#     Edge 25, Type (0, 1), BuildingBlock: AJUNOK_clean_linker_0, # of connection points: 2
#     Edge 26, Type (0, 1), BuildingBlock: AJUNOK_clean_linker_0, # of connection points: 2
#     Edge 27, Type (0, 1), BuildingBlock: AJUNOK_clean_linker_0, # of connection points: 2
#     Edge 28, Type (0, 1), BuildingBlock: AJUNOK_clean_linker_0, # of connection points: 2
#     Edge 29, Type (0, 1), BuildingBlock: AJUNOK_clean_linker_0, # of connection points: 2
#     Edge 30, Type (0, 1), BuildingBlock: AJUNOK_clean_linker_0, # of connection points: 2
#     Edge 31, Type (0, 1), BuildingBlock: AJUNOK_clean_linker_0, # of connection points: 2
#     Edge 32, Type (0, 1), BuildingBlock: AJUNOK_clean_linker_0, # of connection points: 2
#     Edge 33, Type (0, 1), BuildingBlock: AJUNOK_clean_linker_0, # of connection points: 2
#     Edge 34, Type (0, 1), BuildingBlock: AJUNOK_clean_linker_0, # of connection points: 2
#     Edge 35, Type (0, 1), BuildingBlock: AJUNOK_clean_linker_0, # of connection points: 2
# Relax obj value: 0.280
# Max RMSD: 0.206
# Mean RMSD: 0.138
data_MOF--net-pry--node1-FUNLAD_clean_sbu_0--node2-BETDIP_clean_linker_0--edge1-AJUNOK_clean_linker_0
_symmetry_space_group_name_H-M    P1
_symmetry_Int_Tables_number       1
_symmetry_cell_setting            triclinic
loop_
_symmetry_equiv_pos_as_xyz
'x, y, z'
_cell_length_a     25.467706
_cell_length_b     26.89693
_cell_length_c     27.176191
_cell_angle_alpha  95.234492
_cell_angle_beta   84.556267
_cell_angle_gamma 86.453911
loop_
_atom_site_label
_atom_site_type_symbol
_atom_site_fract_x
_atom_site_fract_y
_atom_site_fract_z
_atom_type_partial_charge
H0 H 0.06638 0.2111 0.31959 0.0
H1 H 0.18012 0.21147 0.19246 0.0
H2 H 0.20648 0.10979 0.30227 0.0
H3 H 0.10174 0.23155 0.15763 0.0
C4 C 0.08778 0.26253 0.18523 0.0
C5 C 0.10327 0.19628 0.29874 0.0
C6 C 0.13366 0.15699 0.31608 0.0
C7 C 0.11923 0.21545 0.25367 0.0
C8 C 0.16725 0.19649 0.22687 0.0
C9 C 0.19955 0.15908 0.24433 0.0
C10 C 0.18192 0.13874 0.28853 0.0
N11 N 0.0878 0.25497 0.23655 0.0
H12 H 0.35636 0.97191 0.80612 0.0
H13 H 0.37266 0.85719 0.68447 0.0
H14 H 0.48039 0.85347 0.79699 0.0
H15 H 0.28577 0.87236 0.68909 0.0
C16 C 0.28028 0.91286 0.69527 0.0
C17 C 0.37743 0.93831 0.78706 0.0
C18 C 0.42085 0.91586 0.80721 0.0
C19 C 0.35908 0.9168 0.74374 0.0
C20 C 0.38593 0.87329 0.71866 0.0
C21 C 0.4294 0.84954 0.73736 0.0
C22 C 0.44665 0.87099 0.78218 0.0
N23 N 0.31323 0.9394 0.72632 0.0
H24 H 0.66838 0.58409 1.04545 0.0
H25 H 0.54143 0.49072 1.0181 0.0
H26 H 0.69644 0.4238 1.03236 0.0
H27 H 0.48913 0.60917 1.01246 0.0
C28 C 0.52539 0.58725 0.99785 0.0
C29 C 0.65407 0.54704 1.04025 0.0
C30 C 0.68921 0.50442 1.03875 0.0
C31 C 0.60118 0.54217 1.0316 0.0
C32 C 0.58251 0.49445 1.02415 0.0
C33 C 0.61654 0.45151 1.02412 0.0
C34 C 0.66996 0.45675 1.0314 0.0
N35 N 0.56779 0.58573 1.0284 0.0
H36 H 0.8653 0.51113 0.543 0.0
H37 H 0.99128 0.60708 0.5145 0.0
H38 H 0.83006 0.66881 0.53738 0.0
H39 H 0.04458 0.4826 0.48253 0.0
C40 C 0.0089 0.5057 0.47902 0.0
C41 C 0.87843 0.54834 0.53958 0.0
C42 C 0.84124 0.58931 0.54086 0.0
C43 C 0.93243 0.55456 0.52913 0.0
C44 C 0.94951 0.60242 0.52284 0.0
C45 C 0.91276 0.64369 0.52491 0.0
C46 C 0.85877 0.63694 0.53476 0.0
N47 N 0.96867 0.51176 0.51971 0.0
H48 H 0.82423 0.90156 0.99502 0.0
H49 H 0.94388 0.89469 0.87155 0.0
H50 H 0.80425 0.99504 0.87698 0.0
H51 H 0.9674 0.81843 0.89927 0.0
C52 C 0.95259 0.81831 0.93803 0.0
C53 C 0.83834 0.9142 0.95968 0.0
C54 C 0.80805 0.95064 0.93903 0.0
C55 C 0.88636 0.89293 0.93562 0.0
C56 C 0.90599 0.90981 0.89002 0.0
C57 C 0.8772 0.94814 0.86922 0.0
C58 C 0.82778 0.96749 0.89374 0.0
N59 N 0.91294 0.85531 0.95979 0.0
H60 H 0.66052 0.13537 0.36733 0.0
H61 H 0.64686 0.25545 0.48396 0.0
H62 H 0.53985 0.25587 0.37077 0.0
H63 H 0.72958 0.23251 0.49091 0.0
C64 C 0.73417 0.19223 0.48203 0.0
C65 C 0.64045 0.17012 0.38484 0.0
C66 C 0.59733 0.19218 0.36387 0.0
C67 C 0.65911 0.19283 0.42755 0.0
C68 C 0.63363 0.23804 0.45034 0.0
C69 C 0.59093 0.26158 0.43017 0.0
C70 C 0.57313 0.23854 0.38645 0.0
N71 N 0.70295 0.16876 0.44708 0.0
H72 H 0.36469 0.51385 0.11202 0.0
H73 H 0.48674 0.61145 0.14458 0.0
H74 H 0.33094 0.67354 0.12603 0.0
H75 H 0.5437 0.49096 0.14458 0.0
C76 C 0.5085 0.51442 0.15937 0.0
C77 C 0.37749 0.55139 0.11826 0.0
C78 C 0.34116 0.59299 0.11884 0.0
C79 C 0.42968 0.5579 0.12838 0.0
C80 C 0.44637 0.60643 0.13687 0.0
C81 C 0.41118 0.64844 0.13579 0.0
C82 C 0.35845 0.64136 0.12716 0.0
N83 N 0.46479 0.51514 0.13034 0.0
H84 H 0.02672 0.49356 0.64374 0.0
H85 H 0.151 0.58607 0.60081 0.0
H86 H 0.18813 0.43176 0.62215 0.0
H87 H 0.97999 0.62194 0.67637 0.0
C88 C 0.01636 0.59869 0.67646 0.0
C89 C 0.06825 0.49741 0.63303 0.0
C90 C 0.1052 0.45667 0.63348 0.0
C91 C 0.08488 0.5441 0.6216 0.0
C92 C 0.13841 0.54937 0.60777 0.0
C93 C 0.17614 0.5094 0.60966 0.0
C94 C 0.15917 0.46297 0.62181 0.0
N95 N 0.04939 0.58744 0.63092 0.0
C96 C 0.05404 0.07822 0.5018 0.0
N97 N 0.02746 0.15693 0.64302 0.0
C98 C 0.07791 0.17066 0.63554 0.0
C99 C 0.08911 0.22032 0.64588 0.0
C100 C 0.04784 0.25632 0.66319 0.0
C101 C 0.99659 0.24099 0.67315 0.0
C102 C 0.98726 0.19056 0.66322 0.0
Zn103 Zn 0.01227 0.088 0.61184 0.0
C104 C 0.91042 0.09179 0.56466 0.0
N105 N 0.98382 0.94691 0.53983 0.0
C106 C 0.02446 0.91526 0.51694 0.0
C107 C 0.93412 0.93151 0.54786 0.0
C108 C 0.92424 0.88196 0.53486 0.0
C109 C 0.96612 0.84789 0.51428 0.0
C110 C 0.01654 0.86498 0.50434 0.0
Zn111 Zn 0.99803 1.0155 0.57167 0.0
O112 O 0.05019 0.10679 0.54218 0.0
C113 C 0.09963 1.01081 0.61785 0.0
O114 O 0.03587 1.03519 0.50248 0.0
H115 H 0.9026 0.95697 0.56688 0.0
H116 H 0.10913 0.14382 0.61833 0.0
H117 H 0.0636 0.92834 0.51079 0.0
O118 O 0.08533 0.05636 0.63208 0.0
O119 O 0.07051 0.98568 0.5912 0.0
H120 H 0.94744 0.17893 0.66878 0.0
O121 O 0.96098 0.99615 0.64186 0.0
O122 O 0.974 0.06853 0.68095 0.0
O123 O 0.92527 0.04615 0.55199 0.0
O124 O 0.93903 0.11822 0.59095 0.0
C125 C 0.95692 1.02503 0.68211 0.0
H126 H 0.12892 0.23106 0.63686 0.0
H127 H 0.96382 0.26805 0.68626 0.0
H128 H 0.88505 0.86967 0.54373 0.0
H129 H 0.04968 0.83937 0.48868 0.0
C130 C 0.60399 1.02086 1.048 0.0
N131 N 0.51947 0.15817 1.04655 0.0
C132 C 0.56843 0.17371 1.05307 0.0
C133 C 0.58219 0.22031 1.04039 0.0
C134 C 0.54494 0.25208 1.02187 0.0
C135 C 0.49448 0.23575 1.0155 0.0
C136 C 0.48262 0.18789 1.02773 0.0
Zn137 Zn 0.50511 0.09066 1.07188 0.0
C138 C 0.46868 1.01555 0.99818 0.0
N139 N 0.4861 0.95107 0.12996 0.0
C140 C 0.52429 0.92253 0.14827 0.0
C141 C 0.43798 0.9337 0.12315 0.0
C142 C 0.42724 0.88545 0.13326 0.0
C143 C 0.46659 0.85435 0.14983 0.0
C144 C 0.51534 0.87349 0.15839 0.0
Zn145 Zn 0.49944 1.01854 0.10458 0.0
O146 O 0.58266 0.06345 1.04217 0.0
C147 C 0.53707 0.09239 0.17805 0.0
O148 O 0.57817 0.9921 1.07438 0.0
H149 H 0.40851 0.95644 0.10761 0.0
H150 H 0.59662 0.15063 1.06978 0.0
H151 H 0.56231 0.93708 0.1532 0.0
O152 O 0.53235 0.11809 0.14145 0.0
O153 O 0.52692 0.04653 0.17325 0.0
H154 H 0.44371 0.17508 1.02349 0.0
O155 O 0.42099 0.04609 0.13461 0.0
O156 O 0.42708 0.11727 0.10201 0.0
O157 O 0.47288 0.99094 1.03553 0.0
O158 O 0.47784 0.0618 1.00233 0.0
C159 C 0.40079 0.08934 0.12898 0.0
H160 H 0.62096 0.23232 1.04709 0.0
H161 H 0.4646 0.25991 1.00194 0.0
H162 H 0.3895 0.87164 0.12551 0.0
H163 H 0.54655 0.85033 0.17122 0.0
C164 C 0.52532 0.45776 0.53723 0.0
N165 N 0.52344 0.52385 0.68607 0.0
C166 C 0.49541 0.49181 0.71241 0.0
C167 C 0.49918 0.49121 0.76362 0.0
C168 C 0.53205 0.52386 0.78747 0.0
C169 C 0.56112 0.55542 0.75888 0.0
C170 C 0.55653 0.55458 0.7084 0.0
Zn171 Zn 0.51171 0.53981 0.61519 0.0
C172 C 0.61466 0.5674 0.56269 0.0
N173 N 0.49272 0.58898 0.47269 0.0
C174 C 0.45987 0.55873 0.44933 0.0
C175 C 0.52385 0.61895 0.44665 0.0
C176 C 0.52468 0.61693 0.39476 0.0
C177 C 0.4934 0.58354 0.36977 0.0
C178 C 0.45948 0.55558 0.39806 0.0
Zn179 Zn 0.50327 0.57329 0.54407 0.0
O180 O 0.52507 0.4635 0.58434 0.0
C181 C 0.40034 0.54456 0.59474 0.0
O182 O 0.51743 0.49625 0.5143 0.0
H183 H 0.5503 0.64223 0.46561 0.0
H184 H 0.46844 0.46843 0.69431 0.0
H185 H 0.43673 0.53372 0.46981 0.0
O186 O 0.4291 0.53045 0.62744 0.0
O187 O 0.42174 0.56413 0.55784 0.0
H188 H 0.57711 0.58121 0.6878 0.0
O189 O 0.48991 0.65045 0.57582 0.0
O190 O 0.49781 0.61642 0.64508 0.0
O191 O 0.58467 0.58215 0.53143 0.0
O192 O 0.59439 0.54844 0.60055 0.0
C193 C 0.49012 0.65544 0.62299 0.0
H194 H 0.47554 0.46673 0.78457 0.0
H195 H 0.58507 0.58283 0.77577 0.0
H196 H 0.55085 0.63977 0.37435 0.0
H197 H 0.43529 0.52881 0.3805 0.0
C198 C 1.00024 0.64216 1.04285 0.0
N199 N 0.98251 0.58652 0.18575 0.0
C200 C 0.0109 0.61803 0.21305 0.0
C201 C 0.01099 0.61506 0.26427 0.0
C202 C 0.98193 0.57908 0.28707 0.0
C203 C 0.94888 0.55101 0.25876 0.0
C204 C 0.94971 0.55536 0.20812 0.0
Zn205 Zn 1.00363 0.56636 0.11153 0.0
C206 C 0.91213 0.5299 1.06053 0.0
N207 N 0.05154 0.50694 0.96274 0.0
C208 C 0.08671 0.53668 0.94158 0.0
C209 C 0.02262 0.47707 0.93427 0.0
C210 C 0.02464 0.48061 0.88298 0.0
C211 C 0.05621 0.51556 0.86123 0.0
C212 C 0.08932 0.54191 0.8911 0.0
Zn213 Zn 0.02952 0.52738 1.03672 0.0
O214 O 0.98959 0.64104 0.08958 0.0
C215 C 0.12072 0.564 0.0888 0.0
O216 O 0.01662 0.60166 1.01672 0.0
H217 H 0.99457 0.45387 0.95169 0.0
H218 H 0.03692 0.64242 0.19469 0.0
H219 H 0.10821 0.56148 0.96445 0.0
O220 O 0.08317 0.58028 0.12146 0.0
O221 O 0.10978 0.5399 1.04907 0.0
H222 H 0.92846 0.52957 0.18607 0.0
O223 O 0.04201 0.45369 1.0572 0.0
O224 O 0.01872 0.49127 0.13164 0.0
O225 O 0.94888 0.51477 1.0265 0.0
O226 O 0.92414 0.55261 0.10051 0.0
C227 C 0.0342 0.4514 0.10389 0.0
H228 H 0.03586 0.63852 0.28509 0.0
H229 H 0.92603 0.5226 0.27453 0.0
H230 H 0.99892 0.45892 0.86134 0.0
H231 H 0.11302 0.5706 0.87733 0.0
C232 C 0.10011 0.16736 0.40709 0.0
C233 C 0.11513 0.1356 0.36326 0.0
C234 C 0.08173 0.14831 0.45165 0.0
C235 C 0.07663 0.09662 0.45433 0.0
H236 H 0.1028 0.20739 0.40703 0.0
H237 H 0.07049 0.17462 0.4841 0.0
S238 S 0.11049 0.9974 0.34982 0.0
N239 N 0.12388 0.04976 0.32538 0.0
N240 N 0.08881 1.014 0.4086 0.0
C241 C 0.09169 0.06441 0.41071 0.0
C242 C 0.11108 0.08382 0.36546 0.0
C243 C 0.44204 0.99161 0.86184 0.0
C244 C 0.43688 0.93952 0.85522 0.0
C245 C 0.45197 1.01585 0.90788 0.0
C246 C 0.45675 0.98924 0.94973 0.0
H247 H 0.43809 1.01402 0.83106 0.0
H248 H 0.4557 0.05587 0.91062 0.0
S249 S 0.44594 0.852 0.95244 0.0
N250 N 0.43701 0.8622 0.89472 0.0
N251 N 0.45569 0.90704 0.98092 0.0
C252 C 0.45196 0.93692 0.94348 0.0
C253 C 0.44218 0.91229 0.89644 0.0
C254 C 0.4831 0.55488 0.92356 0.0
C255 C 0.52981 0.56454 0.9454 0.0
C256 C 0.48425 0.53802 0.87302 0.0
C257 C 0.53231 0.53009 0.8424 0.0
H258 H 0.44508 0.56193 0.94544 0.0
H259 H 0.44705 0.53388 0.85731 0.0
S260 S 0.66633 0.54682 0.88145 0.0
N261 N 0.62583 0.56453 0.93186 0.0
N262 N 0.62814 0.52881 0.83838 0.0
C263 C 0.57955 0.53686 0.86437 0.0
C264 C 0.57833 0.55524 0.91545 0.0
C265 C 0.952 0.53543 0.41493 0.0
C266 C 1.00241 0.52732 0.4312 0.0
C267 C 0.94563 0.55527 0.36986 0.0
C268 C 0.9895 0.56619 0.33818 0.0
H269 H 0.917 0.52514 0.43625 0.0
H270 H 0.90597 0.56066 0.35905 0.0
S271 S 0.13034 0.5482 0.36201 0.0
N272 N 0.09699 0.53073 0.4119 0.0
N273 N 0.08553 0.5653 0.32557 0.0
C274 C 0.04026 0.55771 0.35374 0.0
C275 C 0.04658 0.53843 0.40029 0.0
C276 C 0.26646 0.09052 0.20463 0.0
C277 C 0.25169 0.14189 0.21592 0.0
C278 C 0.31423 0.07388 0.17586 0.0
C279 C 0.34904 0.10791 0.15686 0.0
H280 H 0.24054 0.06292 0.21753 0.0
H281 H 0.32383 1.03394 0.16828 0.0
S282 S 0.33122 0.24641 0.17961 0.0
N283 N 0.27782 0.22664 0.20883 0.0
N284 N 0.36647 0.1955 0.15389 0.0
C285 C 0.33503 0.15937 0.16842 0.0
C286 C 0.28677 0.17628 0.19815 0.0
C287 C 0.22226 0.98985 0.68538 0.0
C288 C 0.23592 0.93837 0.67373 0.0
C289 C 0.17887 1.01331 0.66624 0.0
C290 C 0.14771 0.98618 0.63463 0.0
H291 H 0.24462 1.01213 0.71001 0.0
H292 H 0.16928 0.05285 0.67697 0.0
S293 S 0.16915 0.85061 0.59112 0.0
N294 N 0.21637 0.86129 0.62751 0.0
N295 N 0.13529 0.90494 0.59129 0.0
C296 C 0.16199 0.9348 0.62184 0.0
C297 C 0.20593 0.91104 0.64149 0.0
C298 C 0.76188 0.53917 0.08444 0.0
C299 C 0.74623 0.50977 1.0437 0.0
C300 C 0.8155 0.54498 0.08964 0.0
C301 C 0.8557 0.52211 1.05398 0.0
H302 H 0.73241 0.55752 0.11275 0.0
H303 H 0.82537 0.56796 0.12185 0.0
S304 S 0.8349 0.44253 0.93933 0.0
N305 N 0.77466 0.45829 0.96651 0.0
N306 N 0.87542 0.46925 0.97592 0.0
C307 C 0.84038 0.4928 1.0128 0.0
C308 C 0.78571 0.48659 1.00779 0.0
C309 C 0.75997 0.5598 0.58511 0.0
C310 C 0.78388 0.5823 0.54494 0.0
C311 C 0.70525 0.55505 0.59044 0.0
C312 C 0.67255 0.57225 0.55552 0.0
H313 H 0.78358 0.54667 0.61309 0.0
H314 H 0.68851 0.53801 0.62242 0.0
S315 S 0.71742 0.63065 0.4415 0.0
N316 N 0.7719 0.61955 0.46828 0.0
N317 N 0.66919 0.61079 0.478 0.0
C318 C 0.69648 0.59382 0.51448 0.0
C319 C 0.75209 0.59879 0.50928 0.0
C320 C 0.07246 0.31389 0.11542 0.0
C321 C 0.07095 0.31115 0.16703 0.0
C322 C 0.05978 0.35896 0.09548 0.0
C323 C 0.04492 0.4035 0.12628 0.0
H324 H 0.08424 0.28084 0.08996 0.0
H325 H 0.06222 0.35884 1.05546 0.0
S326 S 0.03401 0.4167 0.26452 0.0
N327 N 0.05275 0.35702 0.24885 0.0
N328 N 0.02887 0.44167 0.21175 0.0
C329 C 0.04251 0.40118 0.17823 0.0
C330 C 0.05553 0.35512 0.19852 0.0
C331 C 0.54842 0.39192 1.04607 0.0
C332 C 0.59556 0.40135 1.01805 0.0
C333 C 0.52998 0.34388 1.0443 0.0
C334 C 0.55818 0.30369 1.01463 0.0
H335 H 0.52678 0.42138 1.07118 0.0
H336 H 0.49513 0.33758 1.06841 0.0
S337 S 0.67937 0.30976 0.92907 0.0
N338 N 0.66655 0.36757 0.95546 0.0
N339 N 0.63247 0.27687 0.95324 0.0
C340 C 0.60369 0.31303 0.98447 0.0
C341 C 0.62228 0.36197 0.98596 0.0
C342 C 0.97154 0.71296 0.54193 0.0
C343 C 0.93051 0.69385 0.51635 0.0
C344 C 0.98512 0.76227 0.53853 0.0
C345 C 0.95796 0.794 0.50966 0.0
H346 H 0.99167 0.69043 0.56644 0.0
H347 H 0.01516 0.77647 0.56067 0.0
S348 S 0.85337 0.75983 0.42963 0.0
N349 N 0.86756 0.70854 0.45627 0.0
N350 N 0.89215 0.80188 0.45133 0.0
C351 C 0.91897 0.77463 0.48182 0.0
C352 C 0.90549 0.72433 0.4848 0.0
C353 C 0.46215 0.79651 0.65746 0.0
C354 C 0.45351 0.8012 0.70991 0.0
C355 C 0.47497 0.74978 0.62972 0.0
C356 C 0.48019 0.70541 0.65308 0.0
H357 H 0.45734 0.82925 0.63744 0.0
H358 H 0.47974 0.74842 0.58959 0.0
S359 S 0.46529 0.69718 0.78981 0.0
N360 N 0.45343 0.75729 0.78404 0.0
N361 N 0.47871 0.66994 0.73269 0.0
C362 C 0.47418 0.70987 0.70572 0.0
C363 C 0.46077 0.75751 0.73387 0.0
C364 C 0.91455 0.93613 0.77887 0.0
C365 C 0.8982 0.96842 0.82207 0.0
C366 C 0.93235 0.95482 0.73382 0.0
C367 C 0.93549 1.00664 0.73008 0.0
H368 H 0.91283 0.89607 0.77966 0.0
H369 H 0.9444 0.9282 0.70178 0.0
S370 S 0.89869 0.10704 0.83297 0.0
N371 N 0.88701 0.05483 0.85837 0.0
N372 N 0.92089 0.08978 0.77444 0.0
C373 C 0.91969 1.03925 0.77325 0.0
C374 C 0.90096 1.02024 0.8189 0.0
C375 C 0.57323 0.19285 0.27591 0.0
C376 C 0.57904 0.16668 0.31782 0.0
C377 C 0.56018 0.16846 0.23104 0.0
C378 C 0.552 0.11682 0.2261 0.0
H379 H 0.58003 0.23229 0.27741 0.0
H380 H 0.55662 0.19046 0.19991 0.0
S381 S 0.559 1.03198 0.32616 0.0
N382 N 0.57304 0.08675 0.3523 0.0
N383 N 0.54885 0.04099 0.26843 0.0
C384 C 0.55672 0.09048 0.26817 0.0
C385 C 0.57011 0.11533 0.31377 0.0
C386 C 0.45582 0.54962 0.23978 0.0
C387 C 0.50502 0.53755 0.21165 0.0
C388 C 0.45263 0.5678 0.29001 0.0
C389 C 0.49839 0.57364 0.31464 0.0
H390 H 0.41923 0.54322 0.22383 0.0
H391 H 0.41382 0.57557 0.31026 0.0
S392 S 0.63681 0.54713 0.2577 0.0
N393 N 0.60048 0.53383 0.21167 0.0
N394 N 0.59458 0.56601 0.30674 0.0
C395 C 0.54786 0.56264 0.28674 0.0
C396 C 0.55108 0.54472 0.23528 0.0
C397 C 0.98696 0.55947 0.75323 0.0
C398 C 0.02815 0.57704 0.72301 0.0
C399 C 0.9968 0.53719 0.79647 0.0
C400 C 0.04844 0.53104 0.81086 0.0
H401 H 0.94674 0.56312 0.74343 0.0
H402 H 0.96325 0.52639 0.81962 0.0
S403 S 0.17006 0.57218 0.7445 0.0
N404 N 0.12179 0.59094 0.71263 0.0
N405 N 0.14166 0.54254 0.78929 0.0
C406 C 0.09018 0.54745 0.77995 0.0
C407 C 0.07969 0.5723 0.73737 0.0
C408 C 0.72107 0.93615 0.98542 0.0
C409 C 0.75564 0.96987 0.96543 0.0
C410 C 0.67285 0.95294 1.01297 0.0
C411 C 0.65678 1.00421 1.02136 0.0
H412 H 0.73128 0.8962 0.97954 0.0
H413 H 0.64759 0.92538 1.02705 0.0
S414 S 0.73351 0.10827 0.97879 0.0
N415 N 0.77107 0.05716 0.95756 0.0
N416 N 0.68 0.08885 1.00817 0.0
C417 C 0.69091 1.03844 1.00156 0.0
C418 C 0.74028 1.02127 0.97381 0.0
C419 C 0.80783 0.19081 0.53584 0.0
C420 C 0.77684 0.16415 0.50392 0.0
C421 C 0.84982 0.16687 0.55638 0.0
C422 C 0.86267 0.11508 0.54586 0.0
H423 H 0.80002 0.23086 0.54459 0.0
H424 H 0.87296 0.18949 0.57998 0.0
S425 S 0.79182 1.02736 0.46638 0.0
N426 N 0.76042 0.08255 0.46422 0.0
N427 N 0.83927 1.0374 0.50267 0.0
C428 C 0.83107 0.08761 0.51488 0.0
C429 C 0.78821 0.11214 0.49392 0.0
C430 C 0.27134 0.55687 1.06995 0.0
C431 C 0.28485 0.58604 0.11186 0.0
C432 C 0.21826 0.55035 1.0626 0.0
C433 C 0.1766 0.57228 0.09719 0.0
H434 H 0.30206 0.53941 1.04236 0.0
H435 H 0.20994 0.5277 1.02959 0.0
S436 S 0.1917 0.65025 0.21453 0.0
N437 N 0.25286 0.63582 0.18914 0.0
N438 N 0.15327 0.62358 0.17581 0.0
C439 C 0.18986 0.60116 0.13961 0.0
C440 C 0.24387 0.60805 0.1468 0.0
C441 C 0.26549 0.50372 0.64077 0.0
C442 C 0.23336 0.5176 0.60418 0.0
C443 C 0.31919 0.51309 0.6378 0.0
C444 C 0.34293 0.53655 0.598 0.0
H445 H 0.24877 0.48616 0.67243 0.0
H446 H 0.34219 0.50174 0.66694 0.0
S447 S 0.27584 0.57835 0.49148 0.0
N448 N 0.22902 0.55452 0.52637 0.0
N449 N 0.32966 0.57258 0.52047 0.0
C450 C 0.31106 0.55032 0.56093 0.0
C451 C 0.2564 0.54077 0.56412 0.0
C452 C 0.95024 0.77356 1.01645 0.0
C453 C 0.96785 0.775 0.96575 0.0
C454 C 0.96214 0.73136 1.04175 0.0
C455 C 0.99184 0.68874 1.01733 0.0
H456 H 0.92645 0.80496 1.03673 0.0
H457 H 0.94679 0.73172 0.08034 0.0
S458 S 0.04911 0.67483 0.885 0.0
N459 N 0.0179 0.731 0.89272 0.0
N460 N 0.04034 0.65219 0.93938 0.0
C461 C 0.01069 0.69051 0.96686 0.0
C462 C 0.99871 0.73342 0.94138 0.0
C463 C 0.39787 0.7371 0.17446 0.0
C464 C 0.42932 0.69979 0.14334 0.0
C465 C 0.41175 0.78679 0.17871 0.0
C466 C 0.45781 0.80083 0.15237 0.0
H467 H 0.36168 0.72804 0.19493 0.0
H468 H 0.38549 0.81475 0.20163 0.0
S469 S 0.55393 0.7178 1.06639 0.0
N470 N 0.50902 0.68059 0.08623 0.0
N471 N 0.5352 0.77384 0.09476 0.0
C472 C 0.49062 0.76375 0.12262 0.0
C473 C 0.47636 0.71325 0.11799 0.0
C474 C 0.04548 0.38702 0.62324 0.0
C475 C 0.08729 0.40771 0.64648 0.0
C476 C 0.03075 0.33894 0.63143 0.0
C477 C 0.05743 0.30988 0.66297 0.0
H478 H 0.02543 0.4073 0.59696 0.0
H479 H 1.00008 0.32343 0.61094 0.0
S480 S 0.164 0.34952 0.73838 0.0
N481 N 0.15078 0.3978 0.707 0.0
N482 N 0.12392 0.30662 0.72118 0.0
C483 C 0.09739 0.33098 0.68839 0.0
C484 C 0.11211 0.38013 0.68044 0.0
C485 C 0.55624 0.31685 0.50775 0.0
C486 C 0.5668 0.31065 0.45553 0.0
C487 C 0.54169 0.36407 0.53368 0.0
C488 C 0.53666 0.40737 0.50861 0.0
H489 H 0.56062 0.28494 0.52901 0.0
H490 H 0.53536 0.36667 0.57384 0.0
S491 S 0.55695 0.4114 0.37157 0.0
N492 N 0.56929 0.35184 0.37956 0.0
N493 N 0.5409 0.44028 0.42771 0.0
C494 C 0.54485 0.4014 0.45611 0.0
C495 C 0.55999 0.35322 0.42976 0.0
loop_
_geom_bond_atom_site_label_1
_geom_bond_atom_site_label_2
_geom_bond_distance
_geom_bond_site_symmetry_2
_ccdc_geom_bond_type
H0 C5 0.930 . S
H1 C8 0.930 . S
H2 C10 0.930 . S
H3 C4 1.016 . S
C4 H3 1.016 . S
C4 N11 1.286 . S
C5 H0 0.930 . S
C5 C6 1.397 . S
C5 C7 1.361 . S
C6 C5 1.397 . S
C6 C10 1.390 . S
C7 C5 1.361 . S
C7 C8 1.393 . S
C7 N11 1.413 . S
C8 H1 0.930 . S
C8 C7 1.393 . S
C8 C9 1.399 . S
C9 C8 1.399 . S
C9 C10 1.381 . S
C10 H2 0.930 . S
C10 C6 1.390 . S
C10 C9 1.381 . S
N11 C4 1.286 . S
N11 C7 1.413 . S
H12 C17 0.930 . S
H13 C20 0.930 . S
H14 C22 0.930 . S
H15 C16 1.016 . S
C16 H15 1.016 . S
C16 N23 1.286 . S
C17 H12 0.930 . S
C17 C18 1.397 . S
C17 C19 1.361 . S
C18 C17 1.397 . S
C18 C22 1.390 . S
C19 C17 1.361 . S
C19 C20 1.393 . S
C19 N23 1.413 . S
C20 H13 0.930 . S
C20 C19 1.393 . S
C20 C21 1.399 . S
C21 C20 1.399 . S
C21 C22 1.381 . S
C22 H14 0.930 . S
C22 C18 1.390 . S
C22 C21 1.381 . S
N23 C16 1.286 . S
N23 C19 1.413 . S
H24 C29 0.930 . S
H25 C32 0.930 . S
H26 C34 0.930 . S
H27 C28 1.016 . S
C28 H27 1.016 . S
C28 N35 1.286 . S
C29 H24 0.930 . S
C29 C30 1.397 . S
C29 C31 1.361 . S
C30 C29 1.397 . S
C30 C34 1.390 . S
C31 C29 1.361 . S
C31 C32 1.393 . S
C31 N35 1.413 . S
C32 H25 0.930 . S
C32 C31 1.393 . S
C32 C33 1.399 . S
C33 C32 1.399 . S
C33 C34 1.381 . S
C34 H26 0.930 . S
C34 C30 1.390 . S
C34 C33 1.381 . S
N35 C28 1.286 . S
N35 C31 1.413 . S
H36 C41 0.930 . S
H37 C44 0.930 . S
H38 C46 0.930 . S
H39 C40 1.016 . S
C40 H39 1.016 . S
C40 N47 1.286 . S
C41 H36 0.930 . S
C41 C42 1.397 . S
C41 C43 1.361 . S
C42 C41 1.397 . S
C42 C46 1.390 . S
C43 C41 1.361 . S
C43 C44 1.393 . S
C43 N47 1.413 . S
C44 H37 0.930 . S
C44 C43 1.393 . S
C44 C45 1.399 . S
C45 C44 1.399 . S
C45 C46 1.381 . S
C46 H38 0.930 . S
C46 C42 1.390 . S
C46 C45 1.381 . S
N47 C40 1.286 . S
N47 C43 1.413 . S
H48 C53 0.930 . S
H49 C56 0.930 . S
H50 C58 0.930 . S
H51 C52 1.016 . S
C52 H51 1.016 . S
C52 N59 1.286 . S
C53 H48 0.930 . S
C53 C54 1.397 . S
C53 C55 1.361 . S
C54 C53 1.397 . S
C54 C58 1.390 . S
C55 C53 1.361 . S
C55 C56 1.393 . S
C55 N59 1.413 . S
C56 H49 0.930 . S
C56 C55 1.393 . S
C56 C57 1.399 . S
C57 C56 1.399 . S
C57 C58 1.381 . S
C58 H50 0.930 . S
C58 C54 1.390 . S
C58 C57 1.381 . S
N59 C52 1.286 . S
N59 C55 1.413 . S
H60 C65 0.930 . S
H61 C68 0.930 . S
H62 C70 0.930 . S
H63 C64 1.016 . S
C64 H63 1.016 . S
C64 N71 1.286 . S
C65 H60 0.930 . S
C65 C66 1.397 . S
C65 C67 1.361 . S
C66 C65 1.397 . S
C66 C70 1.390 . S
C67 C65 1.361 . S
C67 C68 1.393 . S
C67 N71 1.413 . S
C68 H61 0.930 . S
C68 C67 1.393 . S
C68 C69 1.399 . S
C69 C68 1.399 . S
C69 C70 1.381 . S
C70 H62 0.930 . S
C70 C66 1.390 . S
C70 C69 1.381 . S
N71 C64 1.286 . S
N71 C67 1.413 . S
H72 C77 0.930 . S
H73 C80 0.930 . S
H74 C82 0.930 . S
H75 C76 1.016 . S
C76 H75 1.016 . S
C76 N83 1.286 . S
C77 H72 0.930 . S
C77 C78 1.397 . S
C77 C79 1.361 . S
C78 C77 1.397 . S
C78 C82 1.390 . S
C79 C77 1.361 . S
C79 C80 1.393 . S
C79 N83 1.413 . S
C80 H73 0.930 . S
C80 C79 1.393 . S
C80 C81 1.399 . S
C81 C80 1.399 . S
C81 C82 1.381 . S
C82 H74 0.930 . S
C82 C78 1.390 . S
C82 C81 1.381 . S
N83 C76 1.286 . S
N83 C79 1.413 . S
H84 C89 0.930 . S
H85 C92 0.930 . S
H86 C94 0.930 . S
H87 C88 1.016 . S
C88 H87 1.016 . S
C88 N95 1.286 . S
C89 H84 0.930 . S
C89 C90 1.397 . S
C89 C91 1.361 . S
C90 C89 1.397 . S
C90 C94 1.390 . S
C91 C89 1.361 . S
C91 C92 1.393 . S
C91 N95 1.413 . S
C92 H85 0.930 . S
C92 C91 1.393 . S
C92 C93 1.399 . S
C93 C92 1.399 . S
C93 C94 1.381 . S
C94 H86 0.930 . S
C94 C90 1.390 . S
C94 C93 1.381 . S
N95 C88 1.286 . S
N95 C91 1.413 . S
C96 O112 1.251 . S
C96 O114 1.254 1_545 S
N97 C98 1.333 . S
N97 C102 1.307 . S
N97 Zn103 2.020 . S
C98 N97 1.333 . S
C98 C99 1.379 . S
C98 H116 0.952 . S
C99 C98 1.379 . S
C99 C100 1.390 . S
C99 H126 0.949 . S
C100 C99 1.390 . S
C100 C101 1.357 . S
C101 C100 1.357 . S
C101 C102 1.370 . S
C101 H127 0.950 . S
C102 N97 1.307 . S
C102 C101 1.370 . S
C102 H120 0.948 1_455 S
Zn103 N97 2.020 . S
Zn103 O112 2.039 . S
Zn103 O118 2.034 . S
Zn103 O122 2.025 1_455 S
Zn103 O124 2.024 1_455 S
C104 O123 1.246 1_545 S
C104 O124 1.249 . S
N105 C106 1.307 . S
N105 C107 1.333 . S
N105 Zn111 2.020 . S
C106 N105 1.307 . S
C106 C110 1.370 . S
C106 H117 0.948 1_655 S
C107 N105 1.333 . S
C107 C108 1.379 . S
C107 H115 0.952 . S
C108 C107 1.379 . S
C108 C109 1.390 . S
C108 H128 0.949 . S
C109 C108 1.390 . S
C109 C110 1.357 . S
C110 C106 1.370 . S
C110 C109 1.357 . S
C110 H129 0.950 . S
Zn111 N105 2.020 . S
Zn111 O114 2.025 1_655 S
Zn111 O119 2.024 1_655 S
Zn111 O121 2.039 . S
Zn111 O123 2.034 . S
O112 C96 1.251 . S
O112 Zn103 2.039 . S
C113 O118 1.246 1_565 S
C113 O119 1.249 . S
O114 C96 1.254 1_565 S
O114 Zn111 2.025 1_455 S
H115 C107 0.952 . S
H116 C98 0.952 . S
H117 C106 0.948 1_455 S
O118 Zn103 2.034 . S
O118 C113 1.246 1_545 S
O119 Zn111 2.024 1_455 S
O119 C113 1.249 . S
H120 C102 0.948 1_655 S
O121 Zn111 2.039 . S
O121 C125 1.251 . S
O122 Zn103 2.025 1_655 S
O122 C125 1.254 1_545 S
O123 C104 1.246 1_565 S
O123 Zn111 2.034 . S
O124 Zn103 2.024 1_655 S
O124 C104 1.249 . S
C125 O121 1.251 . S
C125 O122 1.254 1_565 S
H126 C99 0.949 . S
H127 C101 0.950 . S
H128 C108 0.949 . S
H129 C110 0.950 . S
C130 O146 1.251 1_565 S
C130 O148 1.254 . S
N131 C132 1.333 . S
N131 C136 1.307 . S
N131 Zn137 2.020 . S
C132 N131 1.333 . S
C132 C133 1.379 . S
C132 H150 0.952 . S
C133 C132 1.379 . S
C133 C134 1.390 . S
C133 H160 0.949 . S
C134 C133 1.390 . S
C134 C135 1.357 . S
C135 C134 1.357 . S
C135 C136 1.370 . S
C135 H161 0.950 . S
C136 N131 1.307 . S
C136 C135 1.370 . S
C136 H154 0.948 . S
Zn137 N131 2.020 . S
Zn137 O146 2.039 . S
Zn137 O152 2.034 1_556 S
Zn137 O156 2.025 1_556 S
Zn137 O158 2.024 . S
C138 O157 1.246 . S
C138 O158 1.249 1_565 S
N139 C140 1.307 . S
N139 C141 1.333 . S
N139 Zn145 2.020 . S
C140 N139 1.307 . S
C140 C144 1.370 . S
C140 H151 0.948 . S
C141 N139 1.333 . S
C141 C142 1.379 . S
C141 H149 0.952 . S
C142 C141 1.379 . S
C142 C143 1.390 . S
C142 H162 0.949 . S
C143 C142 1.390 . S
C143 C144 1.357 . S
C144 C140 1.370 . S
C144 C143 1.357 . S
C144 H163 0.950 . S
Zn145 N139 2.020 . S
Zn145 O148 2.025 1_554 S
Zn145 O153 2.024 . S
Zn145 O155 2.039 . S
Zn145 O157 2.034 1_554 S
O146 C130 1.251 1_545 S
O146 Zn137 2.039 . S
C147 O152 1.246 . S
C147 O153 1.249 1_545 S
O148 C130 1.254 . S
O148 Zn145 2.025 1_556 S
H149 C141 0.952 . S
H150 C132 0.952 . S
H151 C140 0.948 . S
O152 Zn137 2.034 1_554 S
O152 C147 1.246 . S
O153 Zn145 2.024 . S
O153 C147 1.249 1_565 S
H154 C136 0.948 . S
O155 Zn145 2.039 . S
O155 C159 1.251 1_565 S
O156 Zn137 2.025 1_554 S
O156 C159 1.254 . S
O157 C138 1.246 . S
O157 Zn145 2.034 1_556 S
O158 Zn137 2.024 . S
O158 C138 1.249 1_545 S
C159 O155 1.251 1_545 S
C159 O156 1.254 . S
H160 C133 0.949 . S
H161 C135 0.950 . S
H162 C142 0.949 . S
H163 C144 0.950 . S
C164 O180 1.251 . S
C164 O182 1.254 . S
N165 C166 1.333 . S
N165 C170 1.307 . S
N165 Zn171 2.020 . S
C166 N165 1.333 . S
C166 C167 1.379 . S
C166 H184 0.952 . S
C167 C166 1.379 . S
C167 C168 1.390 . S
C167 H194 0.949 . S
C168 C167 1.390 . S
C168 C169 1.357 . S
C169 C168 1.357 . S
C169 C170 1.370 . S
C169 H195 0.950 . S
C170 N165 1.307 . S
C170 C169 1.370 . S
C170 H188 0.948 . S
Zn171 N165 2.020 . S
Zn171 O180 2.039 . S
Zn171 O186 2.034 . S
Zn171 O190 2.025 . S
Zn171 O192 2.024 . S
C172 O191 1.246 . S
C172 O192 1.249 . S
N173 C174 1.307 . S
N173 C175 1.333 . S
N173 Zn179 2.020 . S
C174 N173 1.307 . S
C174 C178 1.370 . S
C174 H185 0.948 . S
C175 N173 1.333 . S
C175 C176 1.379 . S
C175 H183 0.952 . S
C176 C175 1.379 . S
C176 C177 1.390 . S
C176 H196 0.949 . S
C177 C176 1.390 . S
C177 C178 1.357 . S
C178 C174 1.370 . S
C178 C177 1.357 . S
C178 H197 0.950 . S
Zn179 N173 2.020 . S
Zn179 O182 2.025 . S
Zn179 O187 2.024 . S
Zn179 O189 2.039 . S
Zn179 O191 2.034 . S
O180 C164 1.251 . S
O180 Zn171 2.039 . S
C181 O186 1.246 . S
C181 O187 1.249 . S
O182 C164 1.254 . S
O182 Zn179 2.025 . S
H183 C175 0.952 . S
H184 C166 0.952 . S
H185 C174 0.948 . S
O186 Zn171 2.034 . S
O186 C181 1.246 . S
O187 Zn179 2.024 . S
O187 C181 1.249 . S
H188 C170 0.948 . S
O189 Zn179 2.039 . S
O189 C193 1.251 . S
O190 Zn171 2.025 . S
O190 C193 1.254 . S
O191 C172 1.246 . S
O191 Zn179 2.034 . S
O192 Zn171 2.024 . S
O192 C172 1.249 . S
C193 O189 1.251 . S
C193 O190 1.254 . S
H194 C167 0.949 . S
H195 C169 0.950 . S
H196 C176 0.949 . S
H197 C178 0.950 . S
C198 O214 1.251 1_556 S
C198 O216 1.254 1_655 S
N199 C200 1.333 . S
N199 C204 1.307 . S
N199 Zn205 2.020 . S
C200 N199 1.333 . S
C200 C201 1.379 . S
C200 H218 0.952 . S
C201 C200 1.379 . S
C201 C202 1.390 . S
C201 H228 0.949 . S
C202 C201 1.390 . S
C202 C203 1.357 . S
C203 C202 1.357 . S
C203 C204 1.370 . S
C203 H229 0.950 . S
C204 N199 1.307 . S
C204 C203 1.370 . S
C204 H222 0.948 . S
Zn205 N199 2.020 . S
Zn205 O214 2.039 . S
Zn205 O220 2.034 1_655 S
Zn205 O224 2.025 1_655 S
Zn205 O226 2.024 . S
C206 O225 1.246 . S
C206 O226 1.249 1_556 S
N207 C208 1.307 . S
N207 C209 1.333 . S
N207 Zn213 2.020 . S
C208 N207 1.307 . S
C208 C212 1.370 . S
C208 H219 0.948 . S
C209 N207 1.333 . S
C209 C210 1.379 . S
C209 H217 0.952 . S
C210 C209 1.379 . S
C210 C211 1.390 . S
C210 H230 0.949 . S
C211 C210 1.390 . S
C211 C212 1.357 . S
C212 C208 1.370 . S
C212 C211 1.357 . S
C212 H231 0.950 . S
Zn213 N207 2.020 . S
Zn213 O216 2.025 . S
Zn213 O221 2.024 . S
Zn213 O223 2.039 . S
Zn213 O225 2.034 1_455 S
O214 C198 1.251 1_554 S
O214 Zn205 2.039 . S
C215 O220 1.246 . S
C215 O221 1.249 1_554 S
O216 C198 1.254 1_455 S
O216 Zn213 2.025 . S
H217 C209 0.952 . S
H218 C200 0.952 . S
H219 C208 0.948 . S
O220 Zn205 2.034 1_455 S
O220 C215 1.246 . S
O221 Zn213 2.024 . S
O221 C215 1.249 1_556 S
H222 C204 0.948 . S
O223 Zn213 2.039 . S
O223 C227 1.251 1_556 S
O224 Zn205 2.025 1_455 S
O224 C227 1.254 . S
O225 C206 1.246 . S
O225 Zn213 2.034 1_655 S
O226 Zn205 2.024 . S
O226 C206 1.249 1_554 S
C227 O223 1.251 1_554 S
C227 O224 1.254 . S
H228 C201 0.949 . S
H229 C203 0.950 . S
H230 C210 0.949 . S
H231 C212 0.950 . S
C232 C233 1.369 . S
C232 C234 1.419 . S
C232 H236 0.930 . S
C233 C232 1.369 . S
C233 C242 1.429 . S
C234 C232 1.419 . S
C234 C235 1.363 . S
C234 H237 0.929 . S
C235 C234 1.363 . S
C235 C241 1.428 . S
H236 C232 0.930 . S
H237 C234 0.929 . S
S238 N239 1.595 1_565 S
S238 N240 1.610 . S
N239 S238 1.595 1_545 S
N239 C242 1.366 . S
N240 S238 1.610 . S
N240 C241 1.351 1_565 S
C241 C235 1.428 . S
C241 N240 1.351 1_545 S
C241 C242 1.434 . S
C242 C233 1.429 . S
C242 N239 1.366 . S
C242 C241 1.434 . S
C243 C244 1.369 . S
C243 C245 1.419 . S
C243 H247 0.930 . S
C244 C243 1.369 . S
C244 C253 1.429 . S
C245 C243 1.419 . S
C245 C246 1.363 . S
C245 H248 0.929 1_565 S
C246 C245 1.363 . S
C246 C252 1.428 . S
H247 C243 0.930 . S
H248 C245 0.929 1_545 S
S249 N250 1.613 . S
S249 N251 1.610 . S
N250 S249 1.613 . S
N250 C253 1.350 . S
N251 S249 1.610 . S
N251 C252 1.351 . S
C252 C246 1.428 . S
C252 N251 1.351 . S
C252 C253 1.434 . S
C253 C244 1.429 . S
C253 N250 1.350 . S
C253 C252 1.434 . S
C254 C255 1.369 . S
C254 C256 1.419 . S
C254 H258 0.930 . S
C255 C254 1.369 . S
C255 C264 1.429 . S
C256 C254 1.419 . S
C256 C257 1.363 . S
C256 H259 0.929 . S
C257 C256 1.363 . S
C257 C263 1.428 . S
H258 C254 0.930 . S
H259 C256 0.929 . S
S260 N261 1.613 . S
S260 N262 1.610 . S
N261 S260 1.613 . S
N261 C264 1.350 . S
N262 S260 1.610 . S
N262 C263 1.351 . S
C263 C257 1.428 . S
C263 N262 1.351 . S
C263 C264 1.434 . S
C264 C255 1.429 . S
C264 N261 1.350 . S
C264 C263 1.434 . S
C265 C266 1.369 . S
C265 C267 1.419 . S
C265 H269 0.930 . S
C266 C265 1.369 . S
C266 C275 1.429 . S
C267 C265 1.419 . S
C267 C268 1.363 . S
C267 H270 0.929 . S
C268 C267 1.363 . S
C268 C274 1.428 . S
H269 C265 0.930 . S
H270 C267 0.929 . S
S271 N272 1.613 1_455 S
S271 N273 1.610 1_455 S
N272 S271 1.613 1_655 S
N272 C275 1.350 . S
N273 S271 1.610 1_655 S
N273 C274 1.351 . S
C274 C268 1.428 . S
C274 N273 1.351 . S
C274 C275 1.434 . S
C275 C266 1.429 . S
C275 N272 1.350 . S
C275 C274 1.434 . S
C276 C277 1.369 . S
C276 C278 1.419 . S
C276 H280 0.930 . S
C277 C276 1.369 . S
C277 C286 1.429 . S
C278 C276 1.419 . S
C278 C279 1.363 . S
C278 H281 0.929 . S
C279 C278 1.363 . S
C279 C285 1.428 . S
H280 C276 0.930 . S
H281 C278 0.929 . S
S282 N283 1.613 . S
S282 N284 1.610 . S
N283 S282 1.613 . S
N283 C286 1.350 . S
N284 S282 1.610 . S
N284 C285 1.351 . S
C285 C279 1.428 . S
C285 N284 1.351 . S
C285 C286 1.434 . S
C286 C277 1.429 . S
C286 N283 1.350 . S
C286 C285 1.434 . S
C287 C288 1.369 . S
C287 C289 1.419 . S
C287 H291 0.934 . S
C288 C287 1.369 . S
C288 C297 1.429 . S
C289 C287 1.419 . S
C289 C290 1.363 . S
C289 H292 0.929 1_565 S
C290 C289 1.363 . S
C290 C296 1.428 . S
H291 C287 0.934 . S
H292 C289 0.929 1_545 S
S293 N294 1.613 . S
S293 N295 1.610 . S
N294 S293 1.613 . S
N294 C297 1.350 . S
N295 S293 1.610 . S
N295 C296 1.351 . S
C296 C290 1.428 . S
C296 N295 1.351 . S
C296 C297 1.434 . S
C297 C288 1.429 . S
C297 N294 1.350 . S
C297 C296 1.434 . S
C298 C299 1.369 . S
C298 C300 1.419 . S
C298 H302 0.919 1_556 S
C299 C298 1.369 . S
C299 C308 1.429 . S
C300 C298 1.419 . S
C300 C301 1.363 . S
C300 H303 0.929 1_556 S
C301 C300 1.363 . S
C301 C307 1.428 . S
H302 C298 0.919 1_554 S
H303 C300 0.929 1_554 S
S304 N305 1.613 . S
S304 N306 1.610 . S
N305 S304 1.613 . S
N305 C308 1.350 . S
N306 S304 1.610 . S
N306 C307 1.351 . S
C307 C301 1.428 . S
C307 N306 1.351 . S
C307 C308 1.434 . S
C308 C299 1.429 . S
C308 N305 1.350 . S
C308 C307 1.434 . S
C309 C310 1.369 . S
C309 C311 1.419 . S
C309 H313 0.930 . S
C310 C309 1.369 . S
C310 C319 1.429 . S
C311 C309 1.419 . S
C311 C312 1.363 . S
C311 H314 0.929 . S
C312 C311 1.363 . S
C312 C318 1.428 . S
H313 C309 0.930 . S
H314 C311 0.929 . S
S315 N316 1.613 . S
S315 N317 1.610 . S
N316 S315 1.613 . S
N316 C319 1.350 . S
N317 S315 1.610 . S
N317 C318 1.351 . S
C318 C312 1.428 . S
C318 N317 1.351 . S
C318 C319 1.434 . S
C319 C310 1.429 . S
C319 N316 1.350 . S
C319 C318 1.434 . S
C320 C321 1.369 . S
C320 C322 1.419 . S
C320 H324 0.930 . S
C321 C320 1.369 . S
C321 C330 1.429 . S
C322 C320 1.419 . S
C322 C323 1.363 . S
C322 H325 0.934 . S
C323 C322 1.363 . S
C323 C329 1.428 . S
H324 C320 0.930 . S
H325 C322 0.934 . S
S326 N327 1.613 . S
S326 N328 1.610 . S
N327 S326 1.613 . S
N327 C330 1.350 . S
N328 S326 1.610 . S
N328 C329 1.351 . S
C329 C323 1.428 . S
C329 N328 1.351 . S
C329 C330 1.434 . S
C330 C321 1.429 . S
C330 N327 1.350 . S
C330 C329 1.434 . S
C331 C332 1.369 . S
C331 C333 1.419 . S
C331 H335 0.930 . S
C332 C331 1.369 . S
C332 C341 1.429 . S
C333 C331 1.419 . S
C333 C334 1.363 . S
C333 H336 0.929 . S
C334 C333 1.363 . S
C334 C340 1.428 . S
H335 C331 0.930 . S
H336 C333 0.929 . S
S337 N338 1.613 . S
S337 N339 1.610 . S
N338 S337 1.613 . S
N338 C341 1.350 . S
N339 S337 1.610 . S
N339 C340 1.351 . S
C340 C334 1.428 . S
C340 N339 1.351 . S
C340 C341 1.434 . S
C341 C332 1.429 . S
C341 N338 1.350 . S
C341 C340 1.434 . S
C342 C343 1.369 . S
C342 C344 1.419 . S
C342 H346 0.930 . S
C343 C342 1.369 . S
C343 C352 1.429 . S
C344 C342 1.419 . S
C344 C345 1.363 . S
C344 H347 0.929 . S
C345 C344 1.363 . S
C345 C351 1.428 . S
H346 C342 0.930 . S
H347 C344 0.929 . S
S348 N349 1.613 . S
S348 N350 1.610 . S
N349 S348 1.613 . S
N349 C352 1.350 . S
N350 S348 1.610 . S
N350 C351 1.351 . S
C351 C345 1.428 . S
C351 N350 1.351 . S
C351 C352 1.434 . S
C352 C343 1.429 . S
C352 N349 1.350 . S
C352 C351 1.434 . S
C353 C354 1.369 . S
C353 C355 1.419 . S
C353 H357 0.930 . S
C354 C353 1.369 . S
C354 C363 1.429 . S
C355 C353 1.419 . S
C355 C356 1.363 . S
C355 H358 0.929 . S
C356 C355 1.363 . S
C356 C362 1.428 . S
H357 C353 0.930 . S
H358 C355 0.929 . S
S359 N360 1.613 . S
S359 N361 1.610 . S
N360 S359 1.613 . S
N360 C363 1.350 . S
N361 S359 1.610 . S
N361 C362 1.351 . S
C362 C356 1.428 . S
C362 N361 1.351 . S
C362 C363 1.434 . S
C363 C354 1.429 . S
C363 N360 1.350 . S
C363 C362 1.434 . S
C364 C365 1.369 . S
C364 C366 1.419 . S
C364 H368 0.930 . S
C365 C364 1.369 . S
C365 C374 1.429 . S
C366 C364 1.419 . S
C366 C367 1.363 . S
C366 H369 0.929 . S
C367 C366 1.363 . S
C367 C373 1.428 . S
H368 C364 0.930 . S
H369 C366 0.929 . S
S370 N371 1.613 1_455 S
S370 N372 1.610 . S
N371 S370 1.613 1_655 S
N371 C374 1.350 1_545 S
N372 S370 1.610 . S
N372 C373 1.351 1_445 S
C373 C367 1.428 . S
C373 N372 1.351 1_665 S
C373 C374 1.434 . S
C374 C365 1.429 . S
C374 N371 1.350 1_565 S
C374 C373 1.434 . S
C375 C376 1.369 . S
C375 C377 1.419 . S
C375 H379 0.930 . S
C376 C375 1.369 . S
C376 C385 1.429 . S
C377 C375 1.419 . S
C377 C378 1.363 . S
C377 H380 0.929 . S
C378 C377 1.363 . S
C378 C384 1.428 . S
H379 C375 0.930 . S
H380 C377 0.929 . S
S381 N382 1.613 1_565 S
S381 N383 1.610 . S
N382 S381 1.613 1_545 S
N382 C385 1.350 . S
N383 S381 1.610 . S
N383 C384 1.351 1_565 S
C384 C378 1.428 . S
C384 N383 1.351 1_545 S
C384 C385 1.434 . S
C385 C376 1.429 . S
C385 N382 1.350 . S
C385 C384 1.434 . S
C386 C387 1.369 . S
C386 C388 1.419 . S
C386 H390 0.930 . S
C387 C386 1.369 . S
C387 C396 1.429 . S
C388 C386 1.419 . S
C388 C389 1.363 . S
C388 H391 0.929 . S
C389 C388 1.363 . S
C389 C395 1.428 . S
H390 C386 0.930 . S
H391 C388 0.929 . S
S392 N393 1.613 . S
S392 N394 1.610 . S
N393 S392 1.613 . S
N393 C396 1.350 . S
N394 S392 1.610 . S
N394 C395 1.351 . S
C395 C389 1.428 . S
C395 N394 1.351 . S
C395 C396 1.434 . S
C396 C387 1.429 . S
C396 N393 1.350 . S
C396 C395 1.434 . S
C397 C398 1.369 . S
C397 C399 1.419 . S
C397 H401 0.930 . S
C398 C397 1.369 . S
C398 C407 1.429 . S
C399 C397 1.419 . S
C399 C400 1.363 . S
C399 H402 0.929 . S
C400 C399 1.363 . S
C400 C406 1.428 . S
H401 C397 0.930 . S
H402 C399 0.929 . S
S403 N404 1.613 . S
S403 N405 1.610 . S
N404 S403 1.613 . S
N404 C407 1.350 . S
N405 S403 1.610 . S
N405 C406 1.351 . S
C406 C400 1.428 . S
C406 N405 1.351 . S
C406 C407 1.434 . S
C407 C398 1.429 . S
C407 N404 1.350 . S
C407 C406 1.434 . S
C408 C409 1.369 . S
C408 C410 1.419 . S
C408 H412 0.930 . S
C409 C408 1.369 . S
C409 C418 1.429 . S
C410 C408 1.419 . S
C410 C411 1.363 . S
C410 H413 0.929 . S
C411 C410 1.363 . S
C411 C417 1.428 . S
H412 C408 0.930 . S
H413 C410 0.929 . S
S414 N415 1.613 1_554 S
S414 N416 1.610 1_554 S
N415 S414 1.613 1_556 S
N415 C418 1.350 1_545 S
N416 S414 1.610 1_556 S
N416 C417 1.355 1_545 S
C417 C411 1.428 . S
C417 N416 1.355 1_565 S
C417 C418 1.434 . S
C418 C409 1.429 . S
C418 N415 1.350 1_565 S
C418 C417 1.434 . S
C419 C420 1.369 . S
C419 C421 1.419 . S
C419 H423 0.930 . S
C420 C419 1.369 . S
C420 C429 1.429 . S
C421 C419 1.419 . S
C421 C422 1.363 . S
C421 H424 0.929 . S
C422 C421 1.363 . S
C422 C428 1.428 . S
H423 C419 0.930 . S
H424 C421 0.929 . S
S425 N426 1.613 . S
S425 N427 1.610 . S
N426 S425 1.613 . S
N426 C429 1.350 . S
N427 S425 1.610 . S
N427 C428 1.351 . S
C428 C422 1.428 . S
C428 N427 1.351 . S
C428 C429 1.434 . S
C429 C420 1.429 . S
C429 N426 1.350 . S
C429 C428 1.434 . S
C430 C431 1.369 . S
C430 C432 1.419 . S
C430 H434 0.930 1_554 S
C431 C430 1.369 . S
C431 C440 1.429 . S
C432 C430 1.419 . S
C432 C433 1.363 . S
C432 H435 0.929 1_554 S
C433 C432 1.363 . S
C433 C439 1.428 . S
H434 C430 0.930 1_556 S
H435 C432 0.929 1_556 S
S436 N437 1.613 . S
S436 N438 1.610 . S
N437 S436 1.613 . S
N437 C440 1.350 . S
N438 S436 1.610 . S
N438 C439 1.351 . S
C439 C433 1.428 . S
C439 N438 1.351 . S
C439 C440 1.434 . S
C440 C431 1.429 . S
C440 N437 1.350 . S
C440 C439 1.434 . S
C441 C442 1.369 . S
C441 C443 1.419 . S
C441 H445 0.930 . S
C442 C441 1.369 . S
C442 C451 1.429 . S
C443 C441 1.419 . S
C443 C444 1.363 . S
C443 H446 0.929 . S
C444 C443 1.363 . S
C444 C450 1.428 . S
H445 C441 0.930 . S
H446 C443 0.929 . S
S447 N448 1.613 . S
S447 N449 1.610 . S
N448 S447 1.613 . S
N448 C451 1.350 . S
N449 S447 1.610 . S
N449 C450 1.351 . S
C450 C444 1.428 . S
C450 N449 1.351 . S
C450 C451 1.434 . S
C451 C442 1.429 . S
C451 N448 1.350 . S
C451 C450 1.434 . S
C452 C453 1.369 . S
C452 C454 1.419 . S
C452 H456 0.930 . S
C453 C452 1.369 . S
C453 C462 1.429 . S
C454 C452 1.419 . S
C454 C455 1.363 . S
C454 H457 0.929 1_556 S
C455 C454 1.363 . S
C455 C461 1.428 1_655 S
H456 C452 0.930 . S
H457 C454 0.929 1_554 S
S458 N459 1.613 . S
S458 N460 1.610 . S
N459 S458 1.613 . S
N459 C462 1.350 1_455 S
N460 S458 1.610 . S
N460 C461 1.351 . S
C461 C455 1.428 1_455 S
C461 N460 1.351 . S
C461 C462 1.434 1_455 S
C462 C453 1.429 . S
C462 N459 1.350 1_655 S
C462 C461 1.434 1_655 S
C463 C464 1.369 . S
C463 C465 1.419 . S
C463 H467 0.930 . S
C464 C463 1.369 . S
C464 C473 1.429 . S
C465 C463 1.419 . S
C465 C466 1.363 . S
C465 H468 0.929 . S
C466 C465 1.363 . S
C466 C472 1.428 . S
H467 C463 0.930 . S
H468 C465 0.929 . S
S469 N470 1.613 . S
S469 N471 1.610 . S
N470 S469 1.613 . S
N470 C473 1.350 . S
N471 S469 1.610 . S
N471 C472 1.351 . S
C472 C466 1.428 . S
C472 N471 1.351 . S
C472 C473 1.434 . S
C473 C464 1.429 . S
C473 N470 1.350 . S
C473 C472 1.434 . S
C474 C475 1.369 . S
C474 C476 1.419 . S
C474 H478 0.930 . S
C475 C474 1.369 . S
C475 C484 1.429 . S
C476 C474 1.419 . S
C476 C477 1.363 . S
C476 H479 0.929 . S
C477 C476 1.363 . S
C477 C483 1.428 . S
H478 C474 0.930 . S
H479 C476 0.929 . S
S480 N481 1.613 . S
S480 N482 1.610 . S
N481 S480 1.613 . S
N481 C484 1.350 . S
N482 S480 1.610 . S
N482 C483 1.351 . S
C483 C477 1.428 . S
C483 N482 1.351 . S
C483 C484 1.434 . S
C484 C475 1.429 . S
C484 N481 1.350 . S
C484 C483 1.434 . S
C485 C486 1.369 . S
C485 C487 1.419 . S
C485 H489 0.930 . S
C486 C485 1.369 . S
C486 C495 1.429 . S
C487 C485 1.419 . S
C487 C488 1.363 . S
C487 H490 0.929 . S
C488 C487 1.363 . S
C488 C494 1.428 . S
H489 C485 0.930 . S
H490 C487 0.929 . S
S491 N492 1.613 . S
S491 N493 1.610 . S
N492 S491 1.613 . S
N492 C495 1.350 . S
N493 S491 1.610 . S
N493 C494 1.351 . S
C494 C488 1.428 . S
C494 N493 1.351 . S
C494 C495 1.434 . S
C495 C486 1.429 . S
C495 N492 1.350 . S
C495 C494 1.434 . S
C233 C6 2.478 . S
C235 C96 2.483 . S
C244 C18 2.531 . S
C246 C138 2.566 . S
C257 C168 1.002 . S
C255 C28 0.990 . S
C266 C40 0.853 . S
C268 C202 0.857 . S
C279 C159 2.065 . S
C277 C9 2.058 . S
C290 C113 1.830 . S
C288 C16 1.809 . S
C301 C206 1.309 . S
C299 C30 1.292 . S
C312 C172 1.039 . S
C310 C42 1.030 . S
C321 C4 2.119 . S
C323 C227 2.149 . S
C334 C134 1.191 . S
C332 C33 1.183 . S
C343 C45 1.077 . S
C345 C109 1.095 . S
C354 C21 2.400 . S
C356 C193 2.411 . S
C367 C125 2.541 . S
C365 C57 2.531 . S
C376 C66 2.535 . S
C378 C147 2.551 . S
C387 C76 1.009 . S
C389 C177 1.019 . S
C398 C88 0.820 . S
C400 C211 0.839 . S
C409 C54 2.030 . S
C411 C130 2.043 . S
C422 C104 1.855 . S
C420 C64 1.829 . S
C433 C215 1.181 . S
C431 C78 1.143 . S
C444 C181 1.031 . S
C442 C93 1.026 . S
C453 C52 2.104 . S
C455 C198 2.115 . S
C466 C143 1.168 . S
C464 C81 1.163 . S
C477 C100 1.126 . S
C475 C90 1.103 . S
C486 C69 2.433 . S
C488 C164 2.432 . S
