# Generated by pormake.
# Topology pto, (3,4)-cn, num edge types: 1
# Building blocks:
#     Node 0, Type 0, BuildingBlock: QEWDON_clean_linker_0, # of connection points: 3
#     Node 1, Type 0, BuildingBlock: QEWDON_clean_linker_0, # of connection points: 3
#     Node 2, Type 0, BuildingBlock: QEWDON_clean_linker_0, # of connection points: 3
#     Node 3, Type 0, BuildingBlock: QEWDON_clean_linker_0, # of connection points: 3
#     Node 4, Type 0, BuildingBlock: QEWDON_clean_linker_0, # of connection points: 3
#     Node 5, Type 0, BuildingBlock: QEWDON_clean_linker_0, # of connection points: 3
#     Node 6, Type 0, BuildingBlock: QEWDON_clean_linker_0, # of connection points: 3
#     Node 7, Type 0, BuildingBlock: QEWDON_clean_linker_0, # of connection points: 3
#     Node 8, Type 1, BuildingBlock: NAWXER_clean_sbu_0, # of connection points: 4
#     Node 9, Type 1, BuildingBlock: NAWXER_clean_sbu_0, # of connection points: 4
#     Node 10, Type 1, BuildingBlock: NAWXER_clean_sbu_0, # of connection points: 4
#     Node 11, Type 1, BuildingBlock: NAWXER_clean_sbu_0, # of connection points: 4
#     Node 12, Type 1, BuildingBlock: NAWXER_clean_sbu_0, # of connection points: 4
#     Node 13, Type 1, BuildingBlock: NAWXER_clean_sbu_0, # of connection points: 4
#     Edge 14, Type (0, 1), BuildingBlock: XUDNAN_clean_linker_2, # of connection points: 2
#     Edge 15, Type (0, 1), BuildingBlock: XUDNAN_clean_linker_2, # of connection points: 2
#     Edge 16, Type (0, 1), BuildingBlock: XUDNAN_clean_linker_2, # of connection points: 2
#     Edge 17, Type (0, 1), BuildingBlock: XUDNAN_clean_linker_2, # of connection points: 2
#     Edge 18, Type (0, 1), BuildingBlock: XUDNAN_clean_linker_2, # of connection points: 2
#     Edge 19, Type (0, 1), BuildingBlock: XUDNAN_clean_linker_2, # of connection points: 2
#     Edge 20, Type (0, 1), BuildingBlock: XUDNAN_clean_linker_2, # of connection points: 2
#     Edge 21, Type (0, 1), BuildingBlock: XUDNAN_clean_linker_2, # of connection points: 2
#     Edge 22, Type (0, 1), BuildingBlock: XUDNAN_clean_linker_2, # of connection points: 2
#     Edge 23, Type (0, 1), BuildingBlock: XUDNAN_clean_linker_2, # of connection points: 2
#     Edge 24, Type (0, 1), BuildingBlock: XUDNAN_clean_linker_2, # of connection points: 2
#     Edge 25, Type (0, 1), BuildingBlock: XUDNAN_clean_linker_2, # of connection points: 2
#     Edge 26, Type (0, 1), BuildingBlock: XUDNAN_clean_linker_2, # of connection points: 2
#     Edge 27, Type (0, 1), BuildingBlock: XUDNAN_clean_linker_2, # of connection points: 2
#     Edge 28, Type (0, 1), BuildingBlock: XUDNAN_clean_linker_2, # of connection points: 2
#     Edge 29, Type (0, 1), BuildingBlock: XUDNAN_clean_linker_2, # of connection points: 2
#     Edge 30, Type (0, 1), BuildingBlock: XUDNAN_clean_linker_2, # of connection points: 2
#     Edge 31, Type (0, 1), BuildingBlock: XUDNAN_clean_linker_2, # of connection points: 2
#     Edge 32, Type (0, 1), BuildingBlock: XUDNAN_clean_linker_2, # of connection points: 2
#     Edge 33, Type (0, 1), BuildingBlock: XUDNAN_clean_linker_2, # of connection points: 2
#     Edge 34, Type (0, 1), BuildingBlock: XUDNAN_clean_linker_2, # of connection points: 2
#     Edge 35, Type (0, 1), BuildingBlock: XUDNAN_clean_linker_2, # of connection points: 2
#     Edge 36, Type (0, 1), BuildingBlock: XUDNAN_clean_linker_2, # of connection points: 2
#     Edge 37, Type (0, 1), BuildingBlock: XUDNAN_clean_linker_2, # of connection points: 2
# Relax obj value: 0.023
# Max RMSD: 0.215
# Mean RMSD: 0.076
data_MOF--net-pto--node1-NAWXER_clean_sbu_0--node2-QEWDON_clean_linker_0--edge1-XUDNAN_clean_linker_2
_symmetry_space_group_name_H-M    P1
_symmetry_Int_Tables_number       1
_symmetry_cell_setting            triclinic
loop_
_symmetry_equiv_pos_as_xyz
'x, y, z'
_cell_length_a     40.017319
_cell_length_b     41.576282
_cell_length_c     39.606042
_cell_angle_alpha  97.819659
_cell_angle_beta   106.99514
_cell_angle_gamma 100.09011
loop_
_atom_site_label
_atom_site_type_symbol
_atom_site_fract_x
_atom_site_fract_y
_atom_site_fract_z
_atom_type_partial_charge
H0 H 0.28138 0.28369 0.17538 0.0
C1 C 0.28186 0.26805 0.19525 0.0
C2 C 0.31376 0.25897 0.21259 0.0
C3 C 0.25056 0.25731 0.20335 0.0
H4 H 0.33904 0.23273 0.2524 0.0
C5 C 0.31401 0.23865 0.23835 0.0
C6 C 0.28255 0.22743 0.24693 0.0
C7 C 0.25083 0.23679 0.22863 0.0
C8 C 0.21743 0.26759 0.18512 0.0
H9 H 0.22584 0.22781 0.23335 0.0
C10 C 0.20538 0.29205 0.20362 0.0
C11 C 0.17436 0.30272 0.18596 0.0
C12 C 0.19842 0.25367 0.1488 0.0
H13 H 0.20747 0.23496 0.13412 0.0
C14 C 0.16747 0.2637 0.13125 0.0
H15 H 0.22084 0.30332 0.23142 0.0
C16 C 0.15545 0.28797 0.14959 0.0
H17 H 0.13114 0.29495 0.13531 0.0
H18 H 0.15272 0.25263 0.10327 0.0
H19 H 0.38803 0.8334 0.75241 0.0
C20 C 0.37207 0.82209 0.7674 0.0
C21 C 0.38869 0.82101 0.80362 0.0
C22 C 0.33532 0.80769 0.75024 0.0
H23 H 0.38124 0.80615 0.85094 0.0
C24 C 0.36811 0.80591 0.82286 0.0
C25 C 0.33196 0.78901 0.80592 0.0
C26 C 0.31576 0.79083 0.76962 0.0
C27 C 0.31741 0.80891 0.71169 0.0
H28 H 0.28796 0.77869 0.7559 0.0
C29 C 0.32563 0.8377 0.69762 0.0
C30 C 0.30695 0.83943 0.66173 0.0
C31 C 0.29118 0.7813 0.68884 0.0
H32 H 0.28496 0.75834 0.69808 0.0
C33 C 0.27248 0.78282 0.65366 0.0
H34 H 0.34635 0.85874 0.71479 0.0
C35 C 0.27982 0.81165 0.64035 0.0
H36 H 0.26369 0.81205 0.61329 0.0
H37 H 0.2519 0.76157 0.63664 0.0
H38 H 0.97558 0.8029 0.38569 0.0
C39 C 0.95618 0.8093 0.36364 0.0
C40 C 0.95305 0.79593 0.32806 0.0
C41 C 0.93431 0.83041 0.37114 0.0
H42 H 0.92548 0.7939 0.27204 0.0
C43 C 0.92764 0.80391 0.29954 0.0
C44 C 0.90604 0.82572 0.30636 0.0
C45 C 0.90968 0.83895 0.34232 0.0
C46 C 0.93621 0.84178 0.40911 0.0
H47 H 0.89236 0.85485 0.34785 0.0
C48 C 0.93703 0.87521 0.42279 0.0
C49 C 0.94024 0.88555 0.45932 0.0
C50 C 0.93771 0.81877 0.43217 0.0
H51 H 0.93647 0.79283 0.42233 0.0
C52 C 0.94043 0.82879 0.46806 0.0
H53 H 0.93621 0.89325 0.4054 0.0
C54 C 0.94177 0.86187 0.48162 0.0
H55 H 0.94341 0.8688 0.50953 0.0
H56 H 0.94138 0.81078 0.48546 0.0
H57 H 0.93294 0.36947 0.0065 0.0
C58 C 0.93566 0.34707 0.99096 0.0
C59 C 0.95497 0.34977 0.96676 0.0
C60 C 0.92063 0.31553 0.99587 0.0
H61 H 0.9742 0.32314 0.92864 0.0
C62 C 0.95933 0.32096 0.94749 0.0
C63 C 0.94396 0.28936 0.95148 0.0
C64 C 0.92424 0.28656 0.97552 0.0
C65 C 0.90517 0.3136 0.02537 0.0
H66 H 0.913 0.26217 0.97934 0.0
C67 C 0.86782 0.30471 0.01864 0.0
C68 C 0.85403 0.30675 0.04763 0.0
C69 C 0.92843 0.32339 0.06103 0.0
H70 H 0.9572 0.33044 0.06666 0.0
C71 C 0.91484 0.32463 0.08969 0.0
H72 H 0.84968 0.29766 0.99115 0.0
C73 C 0.87789 0.31665 0.08309 0.0
H74 H 0.86787 0.31821 0.10575 0.0
H75 H 0.93298 0.33227 0.11711 0.0
H76 H 0.93962 0.75175 0.81316 0.0
C77 C 0.915 0.75268 0.81912 0.0
C78 C 0.8938 0.72355 0.82294 0.0
C79 C 0.90544 0.78334 0.8242 0.0
H80 H 0.84597 0.70304 0.8347 0.0
C81 C 0.86246 0.72539 0.8317 0.0
C82 C 0.8526 0.75605 0.83699 0.0
C83 C 0.87427 0.78482 0.83307 0.0
C84 C 0.92867 0.81419 0.82168 0.0
H85 H 0.86783 0.80883 0.8386 0.0
C86 C 0.91331 0.83731 0.80324 0.0
C87 C 0.93481 0.86723 0.80159 0.0
C88 C 0.96604 0.82104 0.83824 0.0
H89 H 0.97852 0.80379 0.85299 0.0
C90 C 0.98759 0.85066 0.83663 0.0
H91 H 0.8846 0.83167 0.78961 0.0
C92 C 0.97216 0.87371 0.81856 0.0
H93 H 0.98943 0.89678 0.81828 0.0
H94 H 0.01633 0.85593 0.84973 0.0
H95 H 0.89588 0.38322 0.43756 0.0
C96 C 0.87077 0.38929 0.42386 0.0
C97 C 0.87089 0.41917 0.41083 0.0
C98 C 0.83853 0.36554 0.4157 0.0
H99 H 0.8382 0.44737 0.3788 0.0
C100 C 0.83813 0.42513 0.39022 0.0
C101 C 0.80587 0.40119 0.38141 0.0
C102 C 0.80626 0.37226 0.39585 0.0
C103 C 0.8386 0.33117 0.42119 0.0
H104 H 0.7816 0.35349 0.38941 0.0
C105 C 0.84951 0.32395 0.45584 0.0
C106 C 0.8463 0.29059 0.46002 0.0
C107 C 0.82574 0.30503 0.39086 0.0
H108 H 0.81737 0.31018 0.36392 0.0
C109 C 0.82339 0.27207 0.39496 0.0
H110 H 0.85908 0.34402 0.4793 0.0
C111 C 0.8334 0.26481 0.42931 0.0
H112 H 0.83128 0.23898 0.43189 0.0
H113 H 0.81351 0.25209 0.37147 0.0
H114 H 0.38914 0.34177 0.75696 0.0
C115 C 0.37135 0.35678 0.76315 0.0
C116 C 0.37421 0.36695 0.79933 0.0
C117 C 0.34683 0.36696 0.73539 0.0
H118 H 0.3546 0.39546 0.83578 0.0
C119 C 0.35279 0.38792 0.80787 0.0
C120 C 0.32887 0.39909 0.78093 0.0
C121 C 0.32534 0.38787 0.74474 0.0
C122 C 0.34438 0.35653 0.69693 0.0
H123 H 0.30624 0.39599 0.72401 0.0
C124 C 0.35116 0.32562 0.68468 0.0
C125 C 0.34946 0.31604 0.64871 0.0
C126 C 0.33577 0.37759 0.67217 0.0
H127 H 0.33153 0.40201 0.68051 0.0
C128 C 0.33319 0.3677 0.6362 0.0
H129 H 0.35731 0.30859 0.7028 0.0
C130 C 0.33989 0.33706 0.62444 0.0
H131 H 0.33848 0.33014 0.59659 0.0
H132 H 0.32648 0.3841 0.61749 0.0
H133 H 0.3986 0.83259 0.24109 0.0
C134 C 0.38474 0.80951 0.24555 0.0
C135 C 0.37503 0.80921 0.2768 0.0
C136 C 0.37462 0.78068 0.21886 0.0
H137 H 0.34561 0.78018 0.30413 0.0
C138 C 0.35452 0.7797 0.2808 0.0
C139 C 0.3444 0.75031 0.25428 0.0
C140 C 0.35571 0.75104 0.2238 0.0
C141 C 0.37858 0.78286 0.18344 0.0
H142 H 0.34867 0.72899 0.20289 0.0
C143 C 0.40848 0.7755 0.17506 0.0
C144 C 0.41208 0.77874 0.14132 0.0
C145 C 0.35199 0.79282 0.15789 0.0
H146 H 0.32873 0.79847 0.16405 0.0
C147 C 0.35526 0.79565 0.12427 0.0
H148 H 0.42916 0.76809 0.19497 0.0
C149 C 0.38518 0.7888 0.11601 0.0
H150 H 0.38726 0.79122 0.08977 0.0
H151 H 0.33465 0.80333 0.10463 0.0
C152 C 0.07568 0.54417 0.36006 0.0
C153 C 0.16589 0.59204 0.30888 0.0
O154 O 0.10833 0.55806 0.37768 0.0
Zn155 Zn 0.12223 0.56867 0.33642 0.0
O156 O 0.06415 0.54206 0.32588 0.0
Zn157 Zn 0.08239 0.55536 0.28334 0.0
O158 O 0.07657 0.51218 0.25309 0.0
O159 O 0.11744 0.5201 0.3067 0.0
O160 O 0.1346 0.57974 0.2859 0.0
O161 O 0.17121 0.59122 0.34202 0.0
O162 O 0.09351 0.60597 0.32096 0.0
O163 O 0.05338 0.58707 0.26685 0.0
C164 C 0.09966 0.50156 0.27575 0.0
C165 C 0.06834 0.61034 0.29453 0.0
C166 C 0.09712 0.52695 0.8958 0.0
C167 C 0.17211 0.62479 0.87799 0.0
O168 O 0.12276 0.54808 0.9198 0.0
Zn169 Zn 0.13622 0.57495 0.88753 0.0
O170 O 0.09101 0.52832 0.86244 0.0
Zn171 Zn 0.11249 0.55918 0.83062 0.0
O172 O 0.13413 0.53029 0.80454 0.0
O173 O 0.16438 0.54617 0.86254 0.0
O174 O 0.15155 0.60601 0.84804 0.0
O175 O 0.17146 0.61644 0.90753 0.0
O176 O 0.08714 0.58972 0.86378 0.0
O177 O 0.06969 0.57225 0.8046 0.0
C178 C 0.16131 0.53069 0.83118 0.0
C179 C 0.06446 0.58681 0.83239 0.0
C180 C 0.32954 0.00993 0.51443 0.0
C181 C 0.31259 0.07587 0.42006 0.0
O182 O 0.3004 0.01092 0.49112 0.0
Zn183 Zn 0.32107 0.04154 0.46608 0.0
O184 O 0.35945 0.02672 0.51393 0.0
Zn185 Zn 0.37705 0.05928 0.4812 0.0
O186 O 0.40194 0.09913 0.5169 0.0
O187 O 0.34322 0.08736 0.50569 0.0
O188 O 0.34597 0.07898 0.43725 0.0
O189 O 0.28905 0.05627 0.42782 0.0
O190 O 0.3476 0.01134 0.4392 0.0
O191 O 0.40526 0.03531 0.45982 0.0
C192 C 0.37427 0.10648 0.52257 0.0
C193 C 0.37977 0.01164 0.43946 0.0
C194 C 0.71767 0.83633 0.08592 0.0
C195 C 0.6186 0.83268 0.97727 0.0
O196 O 0.70267 0.80647 0.06847 0.0
Zn197 Zn 0.65947 0.78225 0.02036 0.0
O198 O 0.70605 0.8604 0.0738 0.0
Zn199 Zn 0.66756 0.83485 0.03126 0.0
O200 O 0.62952 0.80877 0.05207 0.0
O201 O 0.62667 0.75491 0.03809 0.0
O202 O 0.63745 0.85828 1.00099 0.0
O203 O 0.62403 0.80363 0.98109 0.0
O204 O 0.68319 0.7602 0.99155 0.0
O205 O 0.69374 0.81485 0.99546 0.0
C206 C 0.61625 0.77859 0.05281 0.0
C207 C 0.69736 0.78609 0.98261 0.0
C208 C 0.88662 0.05396 0.68644 0.0
C209 C 0.89186 0.15728 0.64167 0.0
O210 O 0.86003 0.06619 0.67255 0.0
Zn211 Zn 0.8882 0.10558 0.66434 0.0
O212 O 0.91853 0.06972 0.69072 0.0
Zn213 Zn 0.94538 0.11457 0.68092 0.0
O214 O 0.97343 0.1385 0.72938 0.0
O215 O 0.91521 0.13307 0.71828 0.0
O216 O 0.92307 0.15185 0.65561 0.0
O217 O 0.86411 0.13654 0.6409 0.0
O218 O 0.90986 0.0844 0.625 0.0
O219 O 0.96893 0.09633 0.64881 0.0
C220 C 0.94741 0.14373 0.73997 0.0
C221 C 0.94068 0.08228 0.62253 0.0
C222 C 0.61216 0.36541 0.15272 0.0
C223 C 0.5318 0.33849 0.02922 0.0
O224 O 0.6002 0.33382 0.14105 0.0
Zn225 Zn 0.56382 0.30035 0.09222 0.0
O226 O 0.60207 0.38545 0.13242 0.0
Zn227 Zn 0.57179 0.35188 0.09156 0.0
O228 O 0.52916 0.33251 0.11102 0.0
O229 O 0.52582 0.27879 0.10884 0.0
O230 O 0.54808 0.36681 0.04908 0.0
O231 O 0.53531 0.31207 0.04198 0.0
O232 O 0.59506 0.27437 0.07791 0.0
O233 O 0.61037 0.32771 0.07656 0.0
C234 C 0.51448 0.30462 0.1166 0.0
C235 C 0.61614 0.29824 0.07239 0.0
H236 H 0.14454 0.35286 0.15899 0.0
H237 H 0.17593 0.31304 0.25655 0.0
H238 H 0.15718 0.3579 0.2888 0.0
H239 H 0.17278 0.43821 0.20013 0.0
H240 H 0.13551 0.45045 0.17075 0.0
H241 H 0.15038 0.41463 0.15488 0.0
H242 H 0.08627 0.37805 0.13869 0.0
H243 H 0.07119 0.41379 0.15455 0.0
H244 H 0.0648 0.37663 0.1728 0.0
H245 H 0.13857 0.40865 0.31145 0.0
H246 H 0.1203 0.46165 0.3229 0.0
H247 H 0.09716 0.46707 0.21003 0.0
C248 C 0.14693 0.35312 0.18697 0.0
C249 C 0.16193 0.32929 0.20517 0.0
C250 C 0.16517 0.3312 0.24205 0.0
C251 C 0.15426 0.35644 0.26056 0.0
C252 C 0.13976 0.37948 0.24182 0.0
C253 C 0.13584 0.37798 0.2058 0.0
C254 C 0.12016 0.40632 0.19223 0.0
C255 C 0.14627 0.42873 0.17871 0.0
C256 C 0.08342 0.39289 0.16283 0.0
C257 C 0.11642 0.42433 0.22644 0.0
C258 C 0.1279 0.40834 0.25468 0.0
C259 C 0.12909 0.42115 0.28947 0.0
C260 C 0.11872 0.45129 0.2957 0.0
C261 C 0.10698 0.46825 0.26729 0.0
C262 C 0.1053 0.45427 0.23208 0.0
H263 H 0.2577 0.76617 0.79134 0.0
H264 H 0.36096 0.76026 0.86417 0.0
H265 H 0.33007 0.7255 0.89531 0.0
H266 H 0.20473 0.7592 0.85157 0.0
H267 H 0.16661 0.731 0.81772 0.0
H268 H 0.19605 0.76127 0.8047 0.0
H269 H 0.20653 0.71414 0.7617 0.0
H270 H 0.17695 0.68382 0.77436 0.0
H271 H 0.22211 0.67967 0.77915 0.0
H272 H 0.28873 0.68927 0.91823 0.0
H273 H 0.24035 0.6467 0.92407 0.0
H274 H 0.16513 0.66719 0.83027 0.0
C275 C 0.27433 0.75787 0.8137 0.0
C276 C 0.31242 0.76781 0.82544 0.0
C277 C 0.33204 0.75544 0.85517 0.0
C278 C 0.31465 0.73499 0.87313 0.0
C279 C 0.27744 0.72581 0.86064 0.0
C280 C 0.2575 0.73613 0.83106 0.0
C281 C 0.21815 0.71878 0.82003 0.0
C282 C 0.19503 0.74408 0.82374 0.0
C283 C 0.20519 0.69786 0.78154 0.0
C284 C 0.21936 0.69684 0.8478 0.0
C285 C 0.2537 0.70212 0.87165 0.0
C286 C 0.26171 0.68487 0.89972 0.0
C287 C 0.23406 0.66089 0.90295 0.0
C288 C 0.19914 0.65376 0.87765 0.0
C289 C 0.19164 0.67226 0.85 0.0
H290 H 0.93399 0.73337 0.28484 0.0
H291 H 0.02564 0.80853 0.357 0.0
H292 H 0.06545 0.77055 0.35105 0.0
H293 H 0.96055 0.66514 0.31924 0.0
H294 H 0.94482 0.63623 0.27664 0.0
H295 H 0.9238 0.67046 0.28285 0.0
H296 H 0.9363 0.6901 0.2275 0.0
H297 H 0.95729 0.6558 0.22103 0.0
H298 H 0.9815 0.69793 0.22585 0.0
H299 H 0.09429 0.72365 0.34257 0.0
H300 H 0.1112 0.67 0.33189 0.0
H301 H 1.00171 0.62379 0.26441 0.0
C302 C 0.96257 0.742 0.29863 0.0
C303 C 0.97686 0.77393 0.32128 0.0
C304 C 0.01423 0.78416 0.33961 0.0
C305 C 0.03704 0.76283 0.33626 0.0
C306 C 0.02211 0.73129 0.31439 0.0
C307 C 0.98581 0.72082 0.29574 0.0
C308 C 0.97657 0.68471 0.2762 0.0
C309 C 0.94986 0.66286 0.28954 0.0
C310 C 0.96206 0.68199 0.23521 0.0
C311 C 0.01323 0.67637 0.28753 0.0
C312 C 0.03904 0.70382 0.30932 0.0
C313 C 0.07446 0.7021 0.32516 0.0
C314 C 0.08375 0.67145 0.31902 0.0
C315 C 0.05784 0.64279 0.29715 0.0
C316 C 0.0222 0.64544 0.28068 0.0
H317 H 0.02546 0.38164 0.98704 0.0
H318 H 0.91799 0.38939 0.92945 0.0
H319 H 0.94319 0.43828 0.90788 0.0
H320 H 0.06526 0.47395 0.01309 0.0
H321 H 0.10732 0.46859 0.00783 0.0
H322 H 0.08067 0.43672 0.02181 0.0
H323 H 0.08098 0.39317 0.96858 0.0
H324 H 0.10708 0.42491 0.95405 0.0
H325 H 0.0648 0.40015 0.92328 0.0
H326 H 0.9796 0.47941 0.88495 0.0
H327 H 0.02519 0.51646 0.86864 0.0
H328 H 0.10983 0.48605 0.94516 0.0
C329 C 0.00742 0.39446 0.97086 0.0
C330 C 0.9699 0.38235 0.96012 0.0
C331 C 0.94679 0.39891 0.93831 0.0
C332 C 0.96087 0.42648 0.92586 0.0
C333 C 0.99806 0.43736 0.93608 0.0
C334 C 0.02107 0.42243 0.9588 0.0
C335 C 0.05996 0.43831 0.96456 0.0
C336 C 0.07945 0.45542 0.00418 0.0
C337 C 0.07933 0.4126 0.95185 0.0
C338 C 0.05521 0.46366 0.94044 0.0
C339 C 0.01923 0.46248 0.92415 0.0
C340 C 0.00784 0.48118 0.89819 0.0
C341 C 0.03387 0.50191 0.88892 0.0
C342 C 0.07083 0.50421 0.90596 0.0
C343 C 0.08169 0.48507 0.93227 0.0
H344 H 0.32553 0.18281 0.2686 0.0
H345 H 0.24044 0.22516 0.29122 0.0
H346 H 0.23678 0.18854 0.33401 0.0
H347 H 0.29566 0.09956 0.27804 0.0
H348 H 0.33972 0.09453 0.30176 0.0
H349 H 0.3346 0.1225 0.27058 0.0
H350 H 0.37837 0.171 0.32063 0.0
H351 H 0.38392 0.1431 0.35187 0.0
H352 H 0.36966 0.1809 0.36256 0.0
H353 H 0.23968 0.14543 0.37229 0.0
H354 H 0.2559 0.10505 0.4111 0.0
H355 H 0.3447 0.09622 0.37133 0.0
C356 C 0.30632 0.18487 0.28268 0.0
C357 C 0.28247 0.20652 0.27508 0.0
C358 C 0.25795 0.20794 0.29469 0.0
C359 C 0.25585 0.18739 0.31959 0.0
C360 C 0.27914 0.16604 0.32571 0.0
C361 C 0.30455 0.16521 0.30858 0.0
C362 C 0.32793 0.14146 0.32204 0.0
C363 C 0.32425 0.11282 0.29127 0.0
C364 C 0.3673 0.16024 0.34037 0.0
C365 C 0.31141 0.12898 0.34917 0.0
C366 C 0.28283 0.14305 0.35026 0.0
C367 C 0.26226 0.1345 0.372 0.0
C368 C 0.27151 0.1114 0.39375 0.0
C369 C 0.30155 0.09765 0.39425 0.0
C370 C 0.32172 0.10655 0.3716 0.0
H371 H 0.42735 0.85785 0.87135 0.0
H372 H 0.43912 0.80465 0.77499 0.0
H373 H 0.50298 0.80892 0.80772 0.0
H374 H 0.52149 0.91283 0.90805 0.0
H375 H 0.52395 0.90975 0.95364 0.0
H376 H 0.48144 0.9086 0.92076 0.0
H377 H 0.45456 0.85246 0.93449 0.0
H378 H 0.49696 0.85309 0.96691 0.0
H379 H 0.47565 0.8179 0.93011 0.0
H380 H 0.56046 0.80765 0.85353 0.0
H381 H 0.61024 0.80714 0.90791 0.0
H382 H 0.56317 0.86348 0.97449 0.0
C383 C 0.44375 0.84818 0.85685 0.0
C384 C 0.42834 0.83112 0.82054 0.0
C385 C 0.45048 0.81838 0.80254 0.0
C386 C 0.48676 0.8205 0.82102 0.0
C387 C 0.50065 0.83592 0.85732 0.0
C388 C 0.48006 0.85024 0.87488 0.0
C389 C 0.50046 0.86257 0.91474 0.0
C390 C 0.50724 0.90071 0.92489 0.0
C391 C 0.48073 0.84547 0.9379 0.0
C392 C 0.53507 0.85153 0.91718 0.0
C393 C 0.53467 0.83631 0.88369 0.0
C394 C 0.56163 0.82046 0.87968 0.0
C395 C 0.58963 0.82011 0.91063 0.0
C396 C 0.59069 0.83588 0.94499 0.0
C397 C 0.56341 0.85222 0.94826 0.0
H398 H 0.98393 0.92357 0.52467 0.0
H399 H 0.89796 0.92631 0.42911 0.0
H400 H 0.89423 0.98154 0.45814 0.0
H401 H 0.94689 0.9559 0.58674 0.0
H402 H 0.98869 0.97977 0.61916 0.0
H403 H 0.98812 0.94307 0.58898 0.0
H404 H 0.03482 0.97777 0.56667 0.0
H405 H 0.03554 0.01467 0.59688 0.0
H406 H 0.02565 0.01437 0.5494 0.0
H407 H 0.89337 0.03173 0.50104 0.0
H408 H 0.89749 0.07418 0.55321 0.0
H409 H 0.98547 0.03999 0.62019 0.0
C410 C 0.96471 0.93604 0.50958 0.0
C411 C 0.94121 0.92061 0.47456 0.0
C412 C 0.91653 0.9378 0.45573 0.0
C413 C 0.91415 0.96914 0.47208 0.0
C414 C 0.93699 0.98315 0.50707 0.0
C415 C 0.96211 0.96731 0.52544 0.0
C416 C 0.98169 0.9864 0.56368 0.0
C417 C 0.97598 0.96501 0.59124 0.0
C418 C 0.02181 0.99906 0.56948 0.0
C419 C 0.96289 0.01496 0.56442 0.0
C420 C 0.93729 0.01272 0.53144 0.0
C421 C 0.91394 0.03423 0.52666 0.0
C422 C 0.91643 0.05822 0.55641 0.0
C423 C 0.94232 0.06078 0.5904 0.0
C424 C 0.9663 0.03932 0.59418 0.0
H425 H 0.81668 0.34904 0.07011 0.0
H426 H 0.80389 0.24869 0.01331 0.0
H427 H 0.74025 0.23535 0.01133 0.0
H428 H 0.76493 0.32924 0.12507 0.0
H429 H 0.74537 0.3651 0.12284 0.0
H430 H 0.78875 0.36711 0.11745 0.0
H431 H 0.76611 0.38449 0.05582 0.0
H432 H 0.7227 0.38288 0.06119 0.0
H433 H 0.72646 0.35886 0.02155 0.0
H434 H 0.67972 0.23185 0.02206 0.0
H435 H 0.62606 0.24018 0.03831 0.0
H436 H 0.67839 0.34395 0.08474 0.0
C437 C 0.80022 0.32444 0.0567 0.0
C438 C 0.81493 0.29984 0.04178 0.0
C439 C 0.79284 0.26789 0.02456 0.0
C440 C 0.75681 0.26011 0.02352 0.0
C441 C 0.7433 0.28478 0.03929 0.0
C442 C 0.76424 0.3165 0.05495 0.0
C443 C 0.74374 0.3385 0.07045 0.0
C444 C 0.76177 0.35069 0.11137 0.0
C445 C 0.7395 0.36792 0.05108 0.0
C446 C 0.70815 0.3141 0.0618 0.0
C447 C 0.70837 0.28315 0.04404 0.0
C448 C 0.6791 0.25615 0.03539 0.0
C449 C 0.64882 0.26104 0.04486 0.0
C450 C 0.6479 0.29278 0.06237 0.0
C451 C 0.67801 0.31954 0.07076 0.0
H452 H 0.29953 0.84348 0.59064 0.0
H453 H 0.33204 0.90554 0.69763 0.0
H454 H 0.34371 0.95534 0.67194 0.0
H455 H 0.35927 0.89137 0.55481 0.0
H456 H 0.32631 0.88533 0.51093 0.0
H457 H 0.32371 0.85421 0.53813 0.0
H458 H 0.25867 0.85832 0.53332 0.0
H459 H 0.26105 0.88942 0.50607 0.0
H460 H 0.24974 0.8983 0.54668 0.0
H461 H 0.35267 0.99886 0.63418 0.0
H462 H 0.35295 0.03232 0.58688 0.0
H463 H 0.30646 0.9425 0.50449 0.0
C464 C 0.30864 0.86739 0.60896 0.0
C465 C 0.31493 0.87 0.64652 0.0
C466 C 0.32776 0.90223 0.669 0.0
C467 C 0.33419 0.9309 0.65458 0.0
C468 C 0.32711 0.92721 0.61748 0.0
C469 C 0.31417 0.89627 0.59495 0.0
C470 C 0.30668 0.89909 0.55579 0.0
C471 C 0.33041 0.88146 0.53894 0.0
C472 C 0.26666 0.88548 0.5342 0.0
C473 C 0.31739 0.93653 0.55975 0.0
C474 C 0.32975 0.9523 0.59561 0.0
C475 C 0.34265 0.98678 0.60604 0.0
C476 C 0.34274 0.00556 0.57911 0.0
C477 C 0.32922 0.9899 0.54231 0.0
C478 C 0.31633 0.95501 0.53252 0.0
H479 H 0.85992 0.78378 0.24429 0.0
H480 H 0.89207 0.88728 0.2997 0.0
H481 H 0.84806 0.90171 0.24905 0.0
H482 H 0.84704 0.79941 0.15449 0.0
H483 H 0.80859 0.76508 0.13402 0.0
H484 H 0.84278 0.76312 0.17453 0.0
H485 H 0.79477 0.75224 0.20614 0.0
H486 H 0.76044 0.75413 0.16573 0.0
H487 H 0.7662 0.78109 0.20768 0.0
H488 H 0.80047 0.90473 0.19171 0.0
H489 H 0.75191 0.89571 0.13352 0.0
H490 H 0.75117 0.79016 0.11625 0.0
C491 C 0.85795 0.80955 0.24565 0.0
C492 C 0.87952 0.83443 0.27594 0.0
C493 C 0.87562 0.86775 0.27691 0.0
C494 C 0.85085 0.87621 0.24819 0.0
C495 C 0.83007 0.85106 0.21871 0.0
C496 C 0.8333 0.81839 0.21733 0.0
C497 C 0.8074 0.79592 0.18292 0.0
C498 C 0.82767 0.77995 0.16014 0.0
C499 C 0.78062 0.76928 0.19112 0.0
C500 C 0.78907 0.82104 0.16511 0.0
C501 C 0.80258 0.85274 0.18606 0.0
C502 C 0.78969 0.87999 0.1751 0.0
C503 C 0.76213 0.87463 0.14197 0.0
C504 C 0.74765 0.84224 0.12027 0.0
C505 C 0.76156 0.81524 0.13214 0.0
H506 H 0.8942 0.24614 0.89359 0.0
H507 H 0.00627 0.2696 0.95858 0.0
H508 H 0.0188 0.23019 0.9136 0.0
H509 H 0.88763 0.15589 0.85546 0.0
H510 H 0.85846 0.15868 0.81216 0.0
H511 H 0.85735 0.18357 0.85264 0.0
H512 H 0.86923 0.23674 0.82663 0.0
H513 H 0.8711 0.21221 0.78646 0.0
H514 H 0.90839 0.24604 0.81281 0.0
H515 H 0.02068 0.19521 0.85749 0.0
H516 H 0.011 0.1644 0.79616 0.0
H517 H 0.89762 0.16421 0.76747 0.0
C518 C 0.92095 0.24164 0.899 0.0
C519 C 0.94916 0.26001 0.92981 0.0
C520 C 0.98427 0.25496 0.93545 0.0
C521 C 0.9916 0.2328 0.90999 0.0
C522 C 0.96348 0.21594 0.87906 0.0
C523 C 0.92872 0.21973 0.87369 0.0
C524 C 0.90412 0.20141 0.8366 0.0
C525 C 0.87518 0.1732 0.83939 0.0
C526 C 0.88724 0.22555 0.81433 0.0
C527 C 0.93064 0.18769 0.82158 0.0
C528 C 0.96468 0.19607 0.84654 0.0
C529 C 0.99399 0.18797 0.83793 0.0
C530 C 0.98831 0.17065 0.80296 0.0
C531 C 0.95357 0.16173 0.77702 0.0
C532 C 0.92447 0.17031 0.78674 0.0
H533 H 0.35927 0.22386 0.19156 0.0
H534 H 0.34182 0.32356 0.2135 0.0
H535 H 0.39232 0.34573 0.19314 0.0
H536 H 0.45832 0.24863 0.2181 0.0
H537 H 0.46048 0.21785 0.18254 0.0
H538 H 0.42483 0.21001 0.20163 0.0
H539 H 0.37799 0.19944 0.138 0.0
H540 H 0.41345 0.20756 0.11876 0.0
H541 H 0.37907 0.23109 0.11116 0.0
H542 H 0.44126 0.35679 0.16701 0.0
H543 H 0.48813 0.35693 0.13849 0.0
H544 H 0.47519 0.25009 0.13248 0.0
C545 C 0.36669 0.25042 0.19275 0.0
C546 C 0.34676 0.27208 0.20417 0.0
C547 C 0.35672 0.3066 0.20476 0.0
C548 C 0.38536 0.31941 0.1933 0.0
C549 C 0.40389 0.29739 0.18131 0.0
C550 C 0.39525 0.26368 0.18113 0.0
C551 C 0.41874 0.24547 0.16535 0.0
C552 C 0.44198 0.22955 0.19359 0.0
C553 C 0.39594 0.21935 0.1313 0.0
C554 C 0.44149 0.27418 0.15628 0.0
C555 C 0.43243 0.30385 0.16591 0.0
C556 C 0.44882 0.33377 0.15959 0.0
C557 C 0.4754 0.33351 0.14321 0.0
C558 C 0.48551 0.30353 0.13317 0.0
C559 C 0.46819 0.27344 0.13986 0.0
H560 H 0.92484 0.69802 0.77521 0.0
H561 H 0.89405 0.67974 0.86847 0.0
H562 H 0.92697 0.63495 0.87398 0.0
H563 H 0.92809 0.60887 0.74094 0.0
H564 H 0.96703 0.62327 0.72829 0.0
H565 H 0.93383 0.6479 0.72595 0.0
H566 H 0.98342 0.69846 0.76675 0.0
H567 H 0.01662 0.67402 0.76969 0.0
H568 H 0.01099 0.69429 0.81024 0.0
H569 H 0.97316 0.60244 0.87826 0.0
H570 H 0.02647 0.58054 0.87814 0.0
H571 H 0.02816 0.61859 0.78188 0.0
C572 C 0.92414 0.68387 0.79611 0.0
C573 C 0.90678 0.69229 0.82134 0.0
C574 C 0.90656 0.67336 0.84843 0.0
C575 C 0.92533 0.64792 0.85185 0.0
C576 C 0.9438 0.64149 0.82774 0.0
C577 C 0.9429 0.65851 0.79998 0.0
C578 C 0.96866 0.64976 0.78062 0.0
C579 C 0.94817 0.63134 0.74163 0.0
C580 C 0.99656 0.68099 0.78194 0.0
C581 C 0.98575 0.62673 0.80323 0.0
C582 C 0.97057 0.62197 0.82993 0.0
C583 C 0.98455 0.60512 0.85688 0.0
C584 C 0.01499 0.59306 0.85677 0.0
C585 C 0.03098 0.59771 0.82979 0.0
C586 C 0.01577 0.6141 0.80223 0.0
H587 H 0.88668 0.44711 0.35743 0.0
H588 H 0.9336 0.43995 0.46891 0.0
H589 H 0.99169 0.47394 0.47015 0.0
H590 H 0.96044 0.43934 0.33026 0.0
H591 H 0.95382 0.46831 0.30028 0.0
H592 H 0.91609 0.44543 0.30952 0.0
H593 H 0.89994 0.50081 0.33065 0.0
H594 H 0.93755 0.52391 0.32126 0.0
H595 H 0.93336 0.53267 0.36549 0.0
H596 H 0.04595 0.50726 0.45693 0.0
H597 H 0.08968 0.53513 0.43058 0.0
H598 H 0.00404 0.51992 0.32892 0.0
C599 C 0.90874 0.4534 0.38255 0.0
C600 C 0.90535 0.44134 0.41329 0.0
C601 C 0.93555 0.44905 0.44505 0.0
C602 C 0.96856 0.46843 0.44603 0.0
C603 C 0.97081 0.47988 0.41504 0.0
C604 C 0.94149 0.47264 0.384 0.0
C605 C 0.95064 0.48635 0.35367 0.0
C606 C 0.94492 0.45818 0.32156 0.0
C607 C 0.9291 0.51249 0.34211 0.0
C608 C 0.98989 0.50218 0.37218 0.0
C609 C 1.00131 0.4985 0.4076 0.0
C610 C 0.03713 0.51045 0.42929 0.0
C611 C 0.06177 0.52625 0.41415 0.0
C612 C 0.05034 0.52969 0.3777 0.0
C613 C 0.01383 0.51776 0.35687 0.0
H614 H 0.25764 0.4005 0.74992 0.0
H615 H 0.35568 0.45371 0.8352 0.0
H616 H 0.32336 0.4935 0.85541 0.0
H617 H 0.22419 0.47509 0.73005 0.0
H618 H 0.17801 0.45487 0.72153 0.0
H619 H 0.20894 0.43083 0.7126 0.0
H620 H 0.19323 0.39161 0.75397 0.0
H621 H 0.16239 0.41559 0.76316 0.0
H622 H 0.19801 0.40904 0.79984 0.0
H623 H 0.28102 0.5251 0.86903 0.0
H624 H 0.23054 0.54938 0.87401 0.0
H625 H 0.15914 0.47834 0.77855 0.0
C626 C 0.27235 0.42081 0.77251 0.0
C627 C 0.30912 0.42376 0.79126 0.0
C628 C 0.32737 0.45053 0.82089 0.0
C629 C 0.30934 0.47342 0.83242 0.0
C630 C 0.27309 0.46949 0.81383 0.0
C631 C 0.25473 0.44413 0.78435 0.0
C632 C 0.21554 0.44553 0.76982 0.0
C633 C 0.20612 0.45197 0.73121 0.0
C634 C 0.19085 0.41354 0.77183 0.0
C635 C 0.2148 0.47533 0.79617 0.0
C636 C 0.24841 0.48861 0.82127 0.0
C637 C 0.25462 0.5152 0.84938 0.0
C638 C 0.22569 0.52867 0.85206 0.0
C639 C 0.19095 0.51574 0.82665 0.0
C640 C 0.1855 0.48889 0.79811 0.0
H641 H 0.33639 0.72807 0.3154 0.0
H642 H 0.29323 0.70439 0.19822 0.0
H643 H 0.24994 0.65654 0.20112 0.0
H644 H 0.31931 0.64237 0.33195 0.0
H645 H 0.30483 0.65448 0.36986 0.0
H646 H 0.33756 0.68364 0.35944 0.0
H647 H 0.29738 0.72644 0.35625 0.0
H648 H 0.26466 0.69751 0.36675 0.0
H649 H 0.25159 0.71439 0.32653 0.0
H650 H 0.2078 0.61472 0.21517 0.0
H651 H 0.16545 0.58381 0.23973 0.0
H652 H 0.23043 0.63648 0.34803 0.0
C653 C 0.31811 0.71282 0.29023 0.0
C654 C 0.31935 0.72002 0.25653 0.0
C655 C 0.29447 0.69908 0.22448 0.0
C656 C 0.2693 0.67176 0.22576 0.0
C657 C 0.26865 0.66577 0.25925 0.0
C658 C 0.29204 0.68582 0.29096 0.0
C659 C 0.28254 0.6761 0.32321 0.0
C660 C 0.31287 0.66339 0.34755 0.0
C661 C 0.2735 0.70535 0.34442 0.0
C662 C 0.24956 0.64808 0.30441 0.0
C663 C 0.24269 0.64221 0.26756 0.0
C664 C 0.21296 0.61886 0.24399 0.0
C665 C 0.18898 0.60152 0.25828 0.0
C666 C 0.19454 0.60779 0.29582 0.0
C667 C 0.22571 0.63089 0.31928 0.0
H668 H 0.96049 0.90415 0.75865 0.0
H669 H 0.87192 0.8856 0.80101 0.0
H670 H 0.84541 0.92715 0.76971 0.0
H671 H 0.97129 0.99072 0.77195 0.0
H672 H 0.98302 0.99469 0.73185 0.0
H673 H 0.99228 0.96068 0.75393 0.0
H674 H 0.95592 0.91869 0.69421 0.0
H675 H 0.94634 0.95269 0.67203 0.0
H676 H 0.91011 0.91989 0.67161 0.0
H677 H 0.83093 0.974 0.73701 0.0
H678 H 0.83231 0.02412 0.70928 0.0
H679 H 0.93147 0.01207 0.69092 0.0
C680 C 0.93547 0.90871 0.76132 0.0
C681 C 0.91824 0.89152 0.78216 0.0
C682 C 0.88534 0.89808 0.78468 0.0
C683 C 0.87008 0.92166 0.76704 0.0
C684 C 0.888 0.93836 0.74694 0.0
C685 C 0.92004 0.93218 0.74411 0.0
C686 C 0.93551 0.95512 0.72331 0.0
C687 C 0.9727 0.97657 0.74666 0.0
C688 C 0.93704 0.93541 0.68821 0.0
C689 C 0.90772 0.97583 0.71574 0.0
C690 C 0.88013 0.96554 0.72893 0.0
C691 C 0.85223 0.98209 0.72627 0.0
C692 C 0.85313 0.01039 0.71045 0.0
C693 C 0.88204 0.02187 0.69819 0.0
C694 C 0.90908 0.00386 0.7002 0.0
H695 H 0.76066 0.3502 0.32804 0.0
H696 H 0.77891 0.4567 0.36681 0.0
H697 H 0.72918 0.45941 0.31329 0.0
H698 H 0.74277 0.35131 0.23779 0.0
H699 H 0.70844 0.31325 0.22221 0.0
H700 H 0.74347 0.31957 0.26465 0.0
H701 H 0.69609 0.3097 0.2972 0.0
H702 H 0.66079 0.30289 0.25473 0.0
H703 H 0.66252 0.33411 0.29193 0.0
H704 H 0.68018 0.4503 0.25217 0.0
H705 H 0.63506 0.42996 0.19138 0.0
H706 H 0.64876 0.32927 0.19646 0.0
C707 C 0.75361 0.37403 0.32627 0.0
C708 C 0.77353 0.40318 0.35207 0.0
C709 C 0.76411 0.434 0.34742 0.0
C710 C 0.73582 0.43575 0.31721 0.0
C711 C 0.71711 0.40642 0.29215 0.0
C712 C 0.72547 0.37612 0.29675 0.0
C713 C 0.70256 0.3483 0.2656 0.0
C714 C 0.7257 0.33219 0.24645 0.0
C715 C 0.67909 0.32222 0.27812 0.0
C716 C 0.68026 0.36768 0.24225 0.0
C717 C 0.68889 0.40117 0.25782 0.0
C718 C 0.6729 0.42406 0.24001 0.0
C719 C 0.64743 0.41231 0.20547 0.0
C720 C 0.63822 0.378 0.18932 0.0
C721 C 0.65481 0.35557 0.20822 0.0
H722 H 0.30932 0.26569 0.59178 0.0
H723 H 0.41087 0.29599 0.67861 0.0
H724 H 0.42842 0.24493 0.6566 0.0
H725 H 0.29634 0.17701 0.59357 0.0
H726 H 0.27601 0.1645 0.54538 0.0
H727 H 0.27155 0.20315 0.56844 0.0
H728 H 0.29826 0.23502 0.52695 0.0
H729 H 0.30293 0.1965 0.50388 0.0
H730 H 0.34144 0.23084 0.52394 0.0
H731 H 0.43643 0.19264 0.62205 0.0
H732 H 0.43197 0.14034 0.58093 0.0
H733 H 0.32352 0.14281 0.51946 0.0
C734 C 0.33515 0.2614 0.60617 0.0
C735 C 0.35887 0.28461 0.63674 0.0
C736 C 0.39235 0.27825 0.65521 0.0
C737 C 0.40254 0.24946 0.64284 0.0
C738 C 0.37867 0.22714 0.61235 0.0
C739 C 0.34545 0.23254 0.59458 0.0
C740 C 0.32459 0.20454 0.56273 0.0
C741 C 0.29008 0.18622 0.56786 0.0
C742 C 0.31634 0.21751 0.52729 0.0
C743 C 0.35147 0.18282 0.56498 0.0
C744 C 0.38262 0.19636 0.59358 0.0
C745 C 0.41198 0.18155 0.59987 0.0
C746 C 0.40928 0.15199 0.57637 0.0
C747 C 0.37729 0.13746 0.54739 0.0
C748 C 0.34808 0.15309 0.54182 0.0
H749 H 0.45413 0.81946 0.11434 0.0
H750 H 0.44225 0.7246 0.14855 0.0
H751 H 0.49436 0.71387 0.13061 0.0
H752 H 0.47766 0.79319 0.03697 0.0
H753 H 0.50958 0.83162 0.04288 0.0
H754 H 0.47209 0.83173 0.05923 0.0
H755 H 0.51565 0.85976 0.12328 0.0
H756 H 0.55328 0.85982 0.10709 0.0
H757 H 0.55105 0.84047 0.14467 0.0
H758 H 0.5458 0.71253 0.10483 0.0
H759 H 0.59453 0.72263 0.07795 0.0
H760 H 0.57288 0.81944 0.0637 0.0
C761 C 0.46254 0.79643 0.11806 0.0
C762 C 0.4442 0.77272 0.13256 0.0
C763 C 0.45617 0.74309 0.13757 0.0
C764 C 0.48557 0.73676 0.12733 0.0
C765 C 0.5028 0.76056 0.11262 0.0
C766 C 0.49189 0.78995 0.10841 0.0
C767 C 0.51478 0.81164 0.09216 0.0
C768 C 0.49218 0.81736 0.05565 0.0
C769 C 0.53489 0.84488 0.11837 0.0
C770 C 0.54018 0.7898 0.08754 0.0
C771 C 0.53283 0.76031 0.0992 0.0
C772 C 0.55203 0.73571 0.09601 0.0
C773 C 0.57953 0.74159 0.08066 0.0
C774 C 0.58768 0.77194 0.06917 0.0
C775 C 0.5677 0.79622 0.07281 0.0
H776 H 0.8065 0.2447 0.48398 0.0
H777 H 0.90844 0.31623 0.51646 0.0
H778 H 0.92823 0.29491 0.57275 0.0
H779 H 0.80041 0.24438 0.57726 0.0
H780 H 0.78061 0.20028 0.56561 0.0
H781 H 0.7722 0.22551 0.53178 0.0
H782 H 0.79516 0.18635 0.49146 0.0
H783 H 0.80386 0.16123 0.52512 0.0
H784 H 0.83944 0.17895 0.50922 0.0
H785 H 0.94061 0.25911 0.61889 0.0
H786 H 0.94376 0.21358 0.65293 0.0
H787 H 0.83303 0.16614 0.59089 0.0
C788 C 0.83263 0.25642 0.50346 0.0
C789 C 0.85604 0.28202 0.4961 0.0
C790 C 0.89006 0.2968 0.52194 0.0
C791 C 0.90146 0.28483 0.55388 0.0
C792 C 0.8782 0.25858 0.55969 0.0
C793 C 0.84424 0.24493 0.53542 0.0
C794 C 0.82571 0.21487 0.54603 0.0
C795 C 0.79278 0.22168 0.55576 0.0
C796 C 0.81548 0.18352 0.51619 0.0
C797 C 0.85527 0.21255 0.57899 0.0
C798 C 0.88515 0.23826 0.58676 0.0
C799 C 0.9171 0.23936 0.61365 0.0
C800 C 0.91869 0.2133 0.63268 0.0
C801 C 0.88852 0.18652 0.62469 0.0
C802 C 0.85623 0.18666 0.5981 0.0
H803 H 0.42022 0.40571 0.86284 0.0
H804 H 0.38533 0.30399 0.80218 0.0
H805 H 0.42405 0.28559 0.85367 0.0
H806 H 0.51279 0.40241 0.90876 0.0
H807 H 0.5146 0.42822 0.94998 0.0
H808 H 0.48621 0.43333 0.90736 0.0
H809 H 0.43142 0.42416 0.93011 0.0
H810 H 0.45955 0.41883 0.97268 0.0
H811 H 0.42032 0.38678 0.94669 0.0
H812 H 0.46291 0.27799 0.91387 0.0
H813 H 0.50127 0.2821 0.97651 0.0
H814 H 0.51062 0.38912 0.99697 0.0
C815 C 0.42091 0.37958 0.8603 0.0
C816 C 0.39974 0.3562 0.82863 0.0
C817 C 0.40161 0.32231 0.82614 0.0
C818 C 0.42337 0.31165 0.85527 0.0
C819 C 0.44328 0.33529 0.88645 0.0
C820 C 0.4425 0.36861 0.88895 0.0
C821 C 0.46552 0.38893 0.92568 0.0
C822 C 0.49663 0.41474 0.92276 0.0
C823 C 0.44284 0.40564 0.94491 0.0
C824 C 0.47893 0.36176 0.94378 0.0
C825 C 0.46587 0.33099 0.92075 0.0
C826 C 0.47357 0.30201 0.932 0.0
C827 C 0.49527 0.30459 0.96767 0.0
C828 C 0.50906 0.33595 0.99162 0.0
C829 C 0.50077 0.36482 0.97929 0.0
H830 H 0.33002 0.83525 0.30743 0.0
H831 H 0.43963 0.85423 0.30596 0.0
H832 H 0.45342 0.90806 0.34828 0.0
H833 H 0.3195 0.91819 0.30856 0.0
H834 H 0.2927 0.91674 0.33807 0.0
H835 H 0.29206 0.87909 0.30919 0.0
H836 H 0.31047 0.85136 0.36457 0.0
H837 H 0.31092 0.88886 0.39361 0.0
H838 H 0.35024 0.8717 0.40195 0.0
H839 H 0.45467 0.9603 0.39004 0.0
H840 H 0.4432 0.00704 0.42753 0.0
H841 H 0.33242 0.95359 0.40039 0.0
C842 C 0.35709 0.85046 0.31651 0.0
C843 C 0.38388 0.84053 0.30371 0.0
C844 C 0.41875 0.86149 0.31548 0.0
C845 C 0.42683 0.89199 0.33954 0.0
C846 C 0.39968 0.90117 0.35141 0.0
C847 C 0.36553 0.881 0.3403 0.0
C848 C 0.34085 0.89704 0.35605 0.0
C849 C 0.30943 0.90312 0.32618 0.0
C850 C 0.32734 0.87599 0.3805 0.0
C851 C 0.36639 0.92947 0.37766 0.0
C852 C 0.40024 0.93137 0.37483 0.0
C853 C 0.42827 0.95907 0.39249 0.0
C854 C 0.42149 0.98549 0.41368 0.0
C855 C 0.3869 0.98404 0.41681 0.0
C856 C 0.35911 0.95559 0.39845 0.0
H857 H 0.83152 0.72579 0.88731 0.0
H858 H 0.80378 0.79386 0.81514 0.0
H859 H 0.75857 0.80644 0.84272 0.0
H860 H 0.73797 0.69445 0.88768 0.0
H861 H 0.75359 0.69147 0.93444 0.0
H862 H 0.78118 0.68522 0.90648 0.0
H863 H 0.83319 0.73128 0.95186 0.0
H864 H 0.80568 0.73808 0.97965 0.0
H865 H 0.82583 0.77234 0.96333 0.0
H866 H 0.72348 0.8179 0.88349 0.0
H867 H 0.69434 0.82229 0.93041 0.0
H868 H 0.74073 0.74365 0.97329 0.0
C869 C 0.81512 0.74247 0.87647 0.0
C870 C 0.82139 0.75904 0.84924 0.0
C871 C 0.79983 0.78127 0.83636 0.0
C872 C 0.77396 0.78845 0.8517 0.0
C873 C 0.76946 0.7727 0.87942 0.0
C874 C 0.78881 0.74962 0.89119 0.0
C875 C 0.77971 0.73734 0.92247 0.0
C876 C 0.76205 0.69989 0.91214 0.0
C877 C 0.81309 0.74525 0.95632 0.0
C878 C 0.75313 0.75798 0.92716 0.0
C879 C 0.74773 0.77827 0.90207 0.0
C880 C 0.72682 0.80165 0.90278 0.0
C881 C 0.71068 0.80417 0.92967 0.0
C882 C 0.71522 0.78316 0.95514 0.0
C883 C 0.73645 0.75959 0.95369 0.0
loop_
_geom_bond_atom_site_label_1
_geom_bond_atom_site_label_2
_geom_bond_distance
_geom_bond_site_symmetry_2
_ccdc_geom_bond_type
H0 C1 0.949 . S
C1 H0 0.949 . S
C1 C2 1.395 . S
C1 C3 1.391 . S
C2 C1 1.395 . S
C2 C5 1.390 . S
C3 C1 1.391 . S
C3 C7 1.387 . S
C3 C8 1.491 . S
H4 C5 0.950 . S
C5 C2 1.390 . S
C5 H4 0.950 . S
C5 C6 1.378 . S
C6 C5 1.378 . S
C6 C7 1.409 . S
C7 C3 1.387 . S
C7 C6 1.409 . S
C7 H9 0.951 . S
C8 C3 1.491 . S
C8 C10 1.382 . S
C8 C12 1.404 . S
H9 C7 0.951 . S
C10 C8 1.382 . S
C10 C11 1.390 . S
C10 H15 0.949 . S
C11 C10 1.390 . S
C11 C16 1.399 . S
C12 C8 1.404 . S
C12 H13 0.950 . S
C12 C14 1.375 . S
H13 C12 0.950 . S
C14 C12 1.375 . S
C14 C16 1.382 . S
C14 H18 0.950 . S
H15 C10 0.949 . S
C16 C11 1.399 . S
C16 C14 1.382 . S
C16 H17 0.952 . S
H17 C16 0.952 . S
H18 C14 0.950 . S
H19 C20 0.949 . S
C20 H19 0.949 . S
C20 C21 1.395 . S
C20 C22 1.391 . S
C21 C20 1.395 . S
C21 C24 1.390 . S
C22 C20 1.391 . S
C22 C26 1.387 . S
C22 C27 1.491 . S
H23 C24 0.950 . S
C24 C21 1.390 . S
C24 H23 0.950 . S
C24 C25 1.378 . S
C25 C24 1.378 . S
C25 C26 1.409 . S
C26 C22 1.387 . S
C26 C25 1.409 . S
C26 H28 0.951 . S
C27 C22 1.491 . S
C27 C29 1.382 . S
C27 C31 1.404 . S
H28 C26 0.951 . S
C29 C27 1.382 . S
C29 C30 1.390 . S
C29 H34 0.949 . S
C30 C29 1.390 . S
C30 C35 1.399 . S
C31 C27 1.404 . S
C31 H32 0.950 . S
C31 C33 1.375 . S
H32 C31 0.950 . S
C33 C31 1.375 . S
C33 C35 1.382 . S
C33 H37 0.950 . S
H34 C29 0.949 . S
C35 C30 1.399 . S
C35 C33 1.382 . S
C35 H36 0.952 . S
H36 C35 0.952 . S
H37 C33 0.950 . S
H38 C39 0.949 . S
C39 H38 0.949 . S
C39 C40 1.395 . S
C39 C41 1.391 . S
C40 C39 1.395 . S
C40 C43 1.390 . S
C41 C39 1.391 . S
C41 C45 1.387 . S
C41 C46 1.491 . S
H42 C43 0.950 . S
C43 C40 1.390 . S
C43 H42 0.950 . S
C43 C44 1.378 . S
C44 C43 1.378 . S
C44 C45 1.409 . S
C45 C41 1.387 . S
C45 C44 1.409 . S
C45 H47 0.951 . S
C46 C41 1.491 . S
C46 C48 1.382 . S
C46 C50 1.404 . S
H47 C45 0.951 . S
C48 C46 1.382 . S
C48 C49 1.390 . S
C48 H53 0.949 . S
C49 C48 1.390 . S
C49 C54 1.399 . S
C50 C46 1.404 . S
C50 H51 0.950 . S
C50 C52 1.375 . S
H51 C50 0.950 . S
C52 C50 1.375 . S
C52 C54 1.382 . S
C52 H56 0.950 . S
H53 C48 0.949 . S
C54 C49 1.399 . S
C54 C52 1.382 . S
C54 H55 0.952 . S
H55 C54 0.952 . S
H56 C52 0.950 . S
H57 C58 0.949 1_554 S
C58 H57 0.949 1_556 S
C58 C59 1.395 . S
C58 C60 1.391 . S
C59 C58 1.395 . S
C59 C62 1.390 . S
C60 C58 1.391 . S
C60 C64 1.387 . S
C60 C65 1.491 1_556 S
H61 C62 0.950 . S
C62 C59 1.390 . S
C62 H61 0.950 . S
C62 C63 1.378 . S
C63 C62 1.378 . S
C63 C64 1.409 . S
C64 C60 1.387 . S
C64 C63 1.409 . S
C64 H66 0.951 . S
C65 C60 1.491 1_554 S
C65 C67 1.382 . S
C65 C69 1.404 . S
H66 C64 0.951 . S
C67 C65 1.382 . S
C67 C68 1.390 . S
C67 H72 0.949 . S
C68 C67 1.390 . S
C68 C73 1.399 . S
C69 C65 1.404 . S
C69 H70 0.950 . S
C69 C71 1.375 . S
H70 C69 0.950 . S
C71 C69 1.375 . S
C71 C73 1.382 . S
C71 H75 0.950 . S
H72 C67 0.949 . S
C73 C68 1.399 . S
C73 C71 1.382 . S
C73 H74 0.952 . S
H74 C73 0.952 . S
H75 C71 0.950 . S
H76 C77 0.949 1_455 S
C77 H76 0.949 1_655 S
C77 C78 1.395 . S
C77 C79 1.391 . S
C78 C77 1.395 . S
C78 C81 1.390 . S
C79 C77 1.391 . S
C79 C83 1.387 . S
C79 C84 1.491 . S
H80 C81 0.950 . S
C81 C78 1.390 . S
C81 H80 0.950 . S
C81 C82 1.378 . S
C82 C81 1.378 . S
C82 C83 1.409 . S
C83 C79 1.387 . S
C83 C82 1.409 . S
C83 H85 0.951 . S
C84 C79 1.491 . S
C84 C86 1.382 . S
C84 C88 1.404 . S
H85 C83 0.951 . S
C86 C84 1.382 . S
C86 C87 1.390 . S
C86 H91 0.949 . S
C87 C86 1.390 . S
C87 C92 1.399 . S
C88 C84 1.404 . S
C88 H89 0.950 . S
C88 C90 1.375 . S
H89 C88 0.950 . S
C90 C88 1.375 . S
C90 C92 1.382 . S
C90 H94 0.950 . S
H91 C86 0.949 . S
C92 C87 1.399 . S
C92 C90 1.382 . S
C92 H93 0.952 . S
H93 C92 0.952 . S
H94 C90 0.950 . S
H95 C96 0.949 . S
C96 H95 0.949 . S
C96 C97 1.395 . S
C96 C98 1.391 . S
C97 C96 1.395 . S
C97 C100 1.390 . S
C98 C96 1.391 . S
C98 C102 1.387 . S
C98 C103 1.491 . S
H99 C100 0.950 . S
C100 C97 1.390 . S
C100 H99 0.950 . S
C100 C101 1.378 . S
C101 C100 1.378 . S
C101 C102 1.409 . S
C102 C98 1.387 . S
C102 C101 1.409 . S
C102 H104 0.951 . S
C103 C98 1.491 . S
C103 C105 1.382 . S
C103 C107 1.404 . S
H104 C102 0.951 . S
C105 C103 1.382 . S
C105 C106 1.390 . S
C105 H110 0.949 . S
C106 C105 1.390 . S
C106 C111 1.399 . S
C107 C103 1.404 . S
C107 H108 0.950 . S
C107 C109 1.375 . S
H108 C107 0.950 . S
C109 C107 1.375 . S
C109 C111 1.382 . S
C109 H113 0.950 . S
H110 C105 0.949 . S
C111 C106 1.399 . S
C111 C109 1.382 . S
C111 H112 0.952 . S
H112 C111 0.952 . S
H113 C109 0.950 . S
H114 C115 0.949 . S
C115 H114 0.949 . S
C115 C116 1.395 . S
C115 C117 1.391 . S
C116 C115 1.395 . S
C116 C119 1.390 . S
C117 C115 1.391 . S
C117 C121 1.387 . S
C117 C122 1.491 . S
H118 C119 0.950 . S
C119 C116 1.390 . S
C119 H118 0.950 . S
C119 C120 1.378 . S
C120 C119 1.378 . S
C120 C121 1.409 . S
C121 C117 1.387 . S
C121 C120 1.409 . S
C121 H123 0.951 . S
C122 C117 1.491 . S
C122 C124 1.382 . S
C122 C126 1.404 . S
H123 C121 0.951 . S
C124 C122 1.382 . S
C124 C125 1.390 . S
C124 H129 0.949 . S
C125 C124 1.390 . S
C125 C130 1.399 . S
C126 C122 1.404 . S
C126 H127 0.950 . S
C126 C128 1.375 . S
H127 C126 0.950 . S
C128 C126 1.375 . S
C128 C130 1.382 . S
C128 H132 0.950 . S
H129 C124 0.949 . S
C130 C125 1.399 . S
C130 C128 1.382 . S
C130 H131 0.952 . S
H131 C130 0.952 . S
H132 C128 0.950 . S
H133 C134 0.949 . S
C134 H133 0.949 . S
C134 C135 1.395 . S
C134 C136 1.391 . S
C135 C134 1.395 . S
C135 C138 1.390 . S
C136 C134 1.391 . S
C136 C140 1.387 . S
C136 C141 1.491 . S
H137 C138 0.950 . S
C138 C135 1.390 . S
C138 H137 0.950 . S
C138 C139 1.378 . S
C139 C138 1.378 . S
C139 C140 1.409 . S
C140 C136 1.387 . S
C140 C139 1.409 . S
C140 H142 0.951 . S
C141 C136 1.491 . S
C141 C143 1.382 . S
C141 C145 1.404 . S
H142 C140 0.951 . S
C143 C141 1.382 . S
C143 C144 1.390 . S
C143 H148 0.949 . S
C144 C143 1.390 . S
C144 C149 1.399 . S
C145 C141 1.404 . S
C145 H146 0.950 . S
C145 C147 1.375 . S
H146 C145 0.950 . S
C147 C145 1.375 . S
C147 C149 1.382 . S
C147 H151 0.950 . S
H148 C143 0.949 . S
C149 C144 1.399 . S
C149 C147 1.382 . S
C149 H150 0.952 . S
H150 C149 0.952 . S
H151 C147 0.950 . S
C152 O154 1.247 1_655 S
C152 O156 1.258 . S
C153 O160 1.247 . S
C153 O161 1.258 . S
O154 C152 1.247 1_455 S
O154 Zn155 2.028 . S
Zn155 O154 2.028 . S
Zn155 O159 2.035 . S
Zn155 O161 2.035 . S
Zn155 O162 2.028 . S
O156 C152 1.258 . S
O156 Zn157 2.035 1_655 S
Zn157 O156 2.035 1_455 S
Zn157 O158 2.028 . S
Zn157 O160 2.028 . S
Zn157 O163 2.035 1_455 S
O158 Zn157 2.028 . S
O158 C164 1.247 . S
O159 Zn155 2.035 . S
O159 C164 1.258 . S
O160 C153 1.247 . S
O160 Zn157 2.028 . S
O161 C153 1.258 . S
O161 Zn155 2.035 . S
O162 Zn155 2.028 . S
O162 C165 1.247 . S
O163 Zn157 2.035 1_655 S
O163 C165 1.258 1_655 S
C164 O158 1.247 . S
C164 O159 1.258 . S
C165 O162 1.247 . S
C165 O163 1.258 1_455 S
C166 O168 1.247 . S
C166 O170 1.258 . S
C167 O174 1.247 . S
C167 O175 1.258 . S
O168 C166 1.247 . S
O168 Zn169 2.028 . S
Zn169 O168 2.028 . S
Zn169 O173 2.035 . S
Zn169 O175 2.035 . S
Zn169 O176 2.028 . S
O170 C166 1.258 . S
O170 Zn171 2.035 . S
Zn171 O170 2.035 . S
Zn171 O172 2.028 . S
Zn171 O174 2.028 . S
Zn171 O177 2.035 . S
O172 Zn171 2.028 . S
O172 C178 1.247 . S
O173 Zn169 2.035 . S
O173 C178 1.258 . S
O174 C167 1.247 . S
O174 Zn171 2.028 . S
O175 C167 1.258 . S
O175 Zn169 2.035 . S
O176 Zn169 2.028 . S
O176 C179 1.247 . S
O177 Zn171 2.035 . S
O177 C179 1.258 . S
C178 O172 1.247 . S
C178 O173 1.258 . S
C179 O176 1.247 . S
C179 O177 1.258 . S
C180 O182 1.247 . S
C180 O184 1.258 . S
C181 O188 1.247 . S
C181 O189 1.258 . S
O182 C180 1.247 . S
O182 Zn183 2.028 1_565 S
Zn183 O182 2.028 1_545 S
Zn183 O187 2.035 . S
Zn183 O189 2.035 . S
Zn183 O190 2.028 1_545 S
O184 C180 1.258 . S
O184 Zn185 2.035 1_565 S
Zn185 O184 2.035 1_545 S
Zn185 O186 2.028 . S
Zn185 O188 2.028 . S
Zn185 O191 2.050 . S
O186 Zn185 2.028 . S
O186 C192 1.247 . S
O187 Zn183 2.035 . S
O187 C192 1.258 . S
O188 C181 1.247 . S
O188 Zn185 2.028 . S
O189 C181 1.258 . S
O189 Zn183 2.035 . S
O190 Zn183 2.028 1_565 S
O190 C193 1.247 . S
O191 Zn185 2.050 . S
O191 C193 1.247 1_545 S
C192 O186 1.247 . S
C192 O187 1.258 . S
C193 O190 1.247 . S
C193 O191 1.247 1_565 S
C194 O196 1.247 . S
C194 O198 1.258 . S
C195 O202 1.247 . S
C195 O203 1.258 . S
O196 C194 1.247 . S
O196 Zn197 2.028 1_554 S
Zn197 O196 2.028 1_556 S
Zn197 O201 2.035 1_556 S
Zn197 O203 2.035 . S
Zn197 O204 2.028 . S
O198 C194 1.258 . S
O198 Zn199 2.035 . S
Zn199 O198 2.035 . S
Zn199 O200 2.028 . S
Zn199 O202 2.028 1_554 S
Zn199 O205 2.035 1_554 S
O200 Zn199 2.028 . S
O200 C206 1.247 . S
O201 Zn197 2.035 1_554 S
O201 C206 1.258 . S
O202 C195 1.247 . S
O202 Zn199 2.028 1_556 S
O203 C195 1.258 . S
O203 Zn197 2.035 . S
O204 Zn197 2.028 . S
O204 C207 1.247 . S
O205 Zn199 2.035 1_556 S
O205 C207 1.258 . S
C206 O200 1.247 . S
C206 O201 1.258 . S
C207 O204 1.247 . S
C207 O205 1.258 . S
C208 O210 1.247 1_455 S
C208 O212 1.258 . S
C209 O216 1.247 1_655 S
C209 O217 1.258 . S
O210 C208 1.247 1_655 S
O210 Zn211 2.028 . S
Zn211 O210 2.028 . S
Zn211 O215 2.035 . S
Zn211 O217 2.035 . S
Zn211 O218 2.028 . S
O212 C208 1.258 . S
O212 Zn213 2.035 . S
Zn213 O212 2.035 . S
Zn213 O214 2.028 . S
Zn213 O216 2.028 . S
Zn213 O219 2.035 . S
O214 Zn213 2.028 . S
O214 C220 1.247 1_455 S
O215 Zn211 2.035 . S
O215 C220 1.258 . S
O216 C209 1.247 1_455 S
O216 Zn213 2.028 . S
O217 C209 1.258 . S
O217 Zn211 2.035 . S
O218 Zn211 2.028 . S
O218 C221 1.248 . S
O219 Zn213 2.035 . S
O219 C221 1.257 1_455 S
C220 O214 1.247 1_655 S
C220 O215 1.258 . S
C221 O218 1.248 . S
C221 O219 1.257 1_655 S
C222 O224 1.247 . S
C222 O226 1.258 . S
C223 O230 1.247 . S
C223 O231 1.258 . S
O224 C222 1.247 . S
O224 Zn225 2.028 . S
Zn225 O224 2.028 . S
Zn225 O229 2.035 . S
Zn225 O231 2.035 . S
Zn225 O232 2.028 . S
O226 C222 1.258 . S
O226 Zn227 2.035 . S
Zn227 O226 2.035 . S
Zn227 O228 2.028 . S
Zn227 O230 2.028 . S
Zn227 O233 2.035 . S
O228 Zn227 2.028 . S
O228 C234 1.247 . S
O229 Zn225 2.035 . S
O229 C234 1.258 . S
O230 C223 1.247 . S
O230 Zn227 2.028 . S
O231 C223 1.258 . S
O231 Zn225 2.035 . S
O232 Zn225 2.028 . S
O232 C235 1.247 . S
O233 Zn227 2.035 . S
O233 C235 1.258 . S
C234 O228 1.247 . S
C234 O229 1.258 . S
C235 O232 1.247 . S
C235 O233 1.258 . S
H236 C248 0.930 . S
H237 C250 0.930 . S
H238 C251 0.930 . S
H239 C255 0.959 . S
H240 C255 0.959 . S
H241 C255 0.961 . S
H242 C256 0.960 . S
H243 C256 0.961 . S
H244 C256 0.959 . S
H245 C259 0.929 . S
H246 C260 0.931 . S
H247 C262 0.930 . S
C248 H236 0.930 . S
C248 C249 1.399 . S
C248 C253 1.399 . S
C249 C248 1.399 . S
C249 C250 1.376 . S
C250 H237 0.930 . S
C250 C249 1.376 . S
C250 C251 1.388 . S
C251 H238 0.930 . S
C251 C250 1.388 . S
C251 C252 1.390 . S
C252 C251 1.390 . S
C252 C253 1.394 . S
C252 C258 1.465 . S
C253 C248 1.399 . S
C253 C252 1.394 . S
C253 C254 1.516 . S
C254 C253 1.516 . S
C254 C255 1.502 . S
C254 C256 1.561 . S
C254 C257 1.526 . S
C255 H239 0.959 . S
C255 H240 0.959 . S
C255 H241 0.961 . S
C255 C254 1.502 . S
C256 H242 0.960 . S
C256 H243 0.961 . S
C256 H244 0.959 . S
C256 C254 1.561 . S
C257 C254 1.526 . S
C257 C258 1.396 . S
C257 C262 1.390 . S
C258 C252 1.465 . S
C258 C257 1.396 . S
C258 C259 1.399 . S
C259 H245 0.929 . S
C259 C258 1.399 . S
C259 C260 1.385 . S
C260 H246 0.931 . S
C260 C259 1.385 . S
C260 C261 1.389 . S
C261 C260 1.389 . S
C261 C262 1.387 . S
C262 H247 0.930 . S
C262 C257 1.390 . S
C262 C261 1.387 . S
H263 C275 0.930 . S
H264 C277 0.930 . S
H265 C278 0.930 . S
H266 C282 0.959 . S
H267 C282 0.959 . S
H268 C282 0.961 . S
H269 C283 0.960 . S
H270 C283 0.961 . S
H271 C283 0.959 . S
H272 C286 0.929 . S
H273 C287 0.931 . S
H274 C289 0.930 . S
C275 H263 0.930 . S
C275 C276 1.399 . S
C275 C280 1.399 . S
C276 C275 1.399 . S
C276 C277 1.376 . S
C277 H264 0.930 . S
C277 C276 1.376 . S
C277 C278 1.388 . S
C278 H265 0.930 . S
C278 C277 1.388 . S
C278 C279 1.390 . S
C279 C278 1.390 . S
C279 C280 1.394 . S
C279 C285 1.465 . S
C280 C275 1.399 . S
C280 C279 1.394 . S
C280 C281 1.516 . S
C281 C280 1.516 . S
C281 C282 1.502 . S
C281 C283 1.561 . S
C281 C284 1.526 . S
C282 H266 0.959 . S
C282 H267 0.959 . S
C282 H268 0.961 . S
C282 C281 1.502 . S
C283 H269 0.960 . S
C283 H270 0.961 . S
C283 H271 0.959 . S
C283 C281 1.561 . S
C284 C281 1.526 . S
C284 C285 1.396 . S
C284 C289 1.390 . S
C285 C279 1.465 . S
C285 C284 1.396 . S
C285 C286 1.399 . S
C286 H272 0.929 . S
C286 C285 1.399 . S
C286 C287 1.385 . S
C287 H273 0.931 . S
C287 C286 1.385 . S
C287 C288 1.389 . S
C288 C287 1.389 . S
C288 C289 1.387 . S
C289 H274 0.930 . S
C289 C284 1.390 . S
C289 C288 1.387 . S
H290 C302 0.930 . S
H291 C304 0.930 . S
H292 C305 0.930 1_455 S
H293 C309 0.959 . S
H294 C309 0.959 . S
H295 C309 0.961 . S
H296 C310 0.960 . S
H297 C310 0.961 . S
H298 C310 0.959 . S
H299 C313 0.929 . S
H300 C314 0.931 . S
H301 C316 0.930 . S
C302 H290 0.930 . S
C302 C303 1.399 . S
C302 C307 1.399 . S
C303 C302 1.399 . S
C303 C304 1.376 . S
C304 H291 0.930 . S
C304 C303 1.376 . S
C304 C305 1.388 . S
C305 H292 0.930 1_655 S
C305 C304 1.388 . S
C305 C306 1.390 . S
C306 C305 1.390 . S
C306 C307 1.394 . S
C306 C312 1.465 . S
C307 C302 1.399 . S
C307 C306 1.394 . S
C307 C308 1.516 . S
C308 C307 1.516 . S
C308 C309 1.502 . S
C308 C310 1.561 . S
C308 C311 1.526 . S
C309 H293 0.959 . S
C309 H294 0.959 . S
C309 H295 0.961 . S
C309 C308 1.502 . S
C310 H296 0.960 . S
C310 H297 0.961 . S
C310 H298 0.959 . S
C310 C308 1.561 . S
C311 C308 1.526 . S
C311 C312 1.396 . S
C311 C316 1.390 . S
C312 C306 1.465 . S
C312 C311 1.396 . S
C312 C313 1.399 1_655 S
C313 H299 0.929 . S
C313 C312 1.399 1_455 S
C313 C314 1.385 . S
C314 H300 0.931 . S
C314 C313 1.385 . S
C314 C315 1.389 1_455 S
C315 C314 1.389 1_655 S
C315 C316 1.387 . S
C316 H301 0.930 . S
C316 C311 1.390 . S
C316 C315 1.387 . S
H317 C329 0.930 1_554 S
H318 C331 0.930 . S
H319 C332 0.930 . S
H320 C336 0.959 1_655 S
H321 C336 0.959 . S
H322 C336 0.961 1_655 S
H323 C337 0.960 . S
H324 C337 0.961 . S
H325 C337 0.959 . S
H326 C340 0.929 . S
H327 C341 0.931 . S
H328 C343 0.930 . S
C329 H317 0.930 1_556 S
C329 C330 1.399 . S
C329 C334 1.399 1_655 S
C330 C329 1.399 . S
C330 C331 1.376 . S
C331 H318 0.930 . S
C331 C330 1.376 . S
C331 C332 1.388 . S
C332 H319 0.930 . S
C332 C331 1.388 . S
C332 C333 1.390 1_655 S
C333 C332 1.390 1_455 S
C333 C334 1.394 . S
C333 C339 1.465 . S
C334 C329 1.399 1_455 S
C334 C333 1.394 . S
C334 C335 1.516 . S
C335 C334 1.516 . S
C335 C336 1.502 . S
C335 C337 1.561 1_556 S
C335 C338 1.526 . S
C336 H320 0.959 1_455 S
C336 H321 0.959 . S
C336 H322 0.961 1_455 S
C336 C335 1.502 . S
C337 H323 0.960 . S
C337 H324 0.961 . S
C337 H325 0.959 . S
C337 C335 1.561 1_554 S
C338 C335 1.526 . S
C338 C339 1.396 . S
C338 C343 1.390 . S
C339 C333 1.465 . S
C339 C338 1.396 . S
C339 C340 1.399 . S
C340 H326 0.929 . S
C340 C339 1.399 . S
C340 C341 1.385 . S
C341 H327 0.931 . S
C341 C340 1.385 . S
C341 C342 1.389 . S
C342 C341 1.389 . S
C342 C343 1.387 . S
C343 H328 0.930 . S
C343 C338 1.390 . S
C343 C342 1.387 . S
H344 C356 0.930 . S
H345 C358 0.930 . S
H346 C359 0.930 . S
H347 C363 0.959 . S
H348 C363 0.959 . S
H349 C363 0.961 . S
H350 C364 0.960 . S
H351 C364 0.961 . S
H352 C364 0.959 . S
H353 C367 0.929 . S
H354 C368 0.931 . S
H355 C370 0.930 . S
C356 H344 0.930 . S
C356 C357 1.399 . S
C356 C361 1.399 . S
C357 C356 1.399 . S
C357 C358 1.376 . S
C358 H345 0.930 . S
C358 C357 1.376 . S
C358 C359 1.388 . S
C359 H346 0.930 . S
C359 C358 1.388 . S
C359 C360 1.390 . S
C360 C359 1.390 . S
C360 C361 1.394 . S
C360 C366 1.465 . S
C361 C356 1.399 . S
C361 C360 1.394 . S
C361 C362 1.516 . S
C362 C361 1.516 . S
C362 C363 1.502 . S
C362 C364 1.561 . S
C362 C365 1.526 . S
C363 H347 0.959 . S
C363 H348 0.959 . S
C363 H349 0.961 . S
C363 C362 1.502 . S
C364 H350 0.960 . S
C364 H351 0.961 . S
C364 H352 0.959 . S
C364 C362 1.561 . S
C365 C362 1.526 . S
C365 C366 1.396 . S
C365 C370 1.390 . S
C366 C360 1.465 . S
C366 C365 1.396 . S
C366 C367 1.399 . S
C367 H353 0.929 . S
C367 C366 1.399 . S
C367 C368 1.385 . S
C368 H354 0.931 . S
C368 C367 1.385 . S
C368 C369 1.389 . S
C369 C368 1.389 . S
C369 C370 1.387 . S
C370 H355 0.930 . S
C370 C365 1.390 . S
C370 C369 1.387 . S
H371 C383 0.930 . S
H372 C385 0.930 . S
H373 C386 0.930 . S
H374 C390 0.959 . S
H375 C390 0.959 . S
H376 C390 0.961 . S
H377 C391 0.960 . S
H378 C391 0.961 . S
H379 C391 0.959 . S
H380 C394 0.929 . S
H381 C395 0.931 . S
H382 C397 0.930 . S
C383 H371 0.930 . S
C383 C384 1.399 . S
C383 C388 1.399 . S
C384 C383 1.399 . S
C384 C385 1.376 . S
C385 H372 0.930 . S
C385 C384 1.376 . S
C385 C386 1.388 . S
C386 H373 0.930 . S
C386 C385 1.388 . S
C386 C387 1.390 . S
C387 C386 1.390 . S
C387 C388 1.394 . S
C387 C393 1.465 . S
C388 C383 1.399 . S
C388 C387 1.394 . S
C388 C389 1.516 . S
C389 C388 1.516 . S
C389 C390 1.502 . S
C389 C391 1.561 . S
C389 C392 1.526 . S
C390 H374 0.959 . S
C390 H375 0.959 . S
C390 H376 0.961 . S
C390 C389 1.502 . S
C391 H377 0.960 . S
C391 H378 0.961 . S
C391 H379 0.959 . S
C391 C389 1.561 . S
C392 C389 1.526 . S
C392 C393 1.396 . S
C392 C397 1.390 . S
C393 C387 1.465 . S
C393 C392 1.396 . S
C393 C394 1.399 . S
C394 H380 0.929 . S
C394 C393 1.399 . S
C394 C395 1.385 . S
C395 H381 0.931 . S
C395 C394 1.385 . S
C395 C396 1.389 . S
C396 C395 1.389 . S
C396 C397 1.387 . S
C397 H382 0.930 . S
C397 C392 1.390 . S
C397 C396 1.387 . S
H398 C410 0.930 . S
H399 C412 0.930 . S
H400 C413 0.930 . S
H401 C417 0.959 . S
H402 C417 0.959 . S
H403 C417 0.961 1_565 S
H404 C418 0.960 . S
H405 C418 0.961 . S
H406 C418 0.959 . S
H407 C421 0.929 . S
H408 C422 0.931 . S
H409 C424 0.930 . S
C410 H398 0.930 . S
C410 C411 1.399 . S
C410 C415 1.399 . S
C411 C410 1.399 . S
C411 C412 1.376 . S
C412 H399 0.930 . S
C412 C411 1.376 . S
C412 C413 1.388 1_665 S
C413 H400 0.930 . S
C413 C412 1.388 1_445 S
C413 C414 1.390 1_455 S
C414 C413 1.390 1_655 S
C414 C415 1.394 1_545 S
C414 C420 1.465 . S
C415 C410 1.399 . S
C415 C414 1.394 1_565 S
C415 C416 1.516 1_565 S
C416 C415 1.516 1_545 S
C416 C417 1.502 . S
C416 C418 1.561 1_545 S
C416 C419 1.526 . S
C417 H401 0.959 . S
C417 H402 0.959 . S
C417 H403 0.961 1_545 S
C417 C416 1.502 . S
C418 H404 0.960 . S
C418 H405 0.961 . S
C418 H406 0.959 . S
C418 C416 1.561 1_565 S
C419 C416 1.526 . S
C419 C420 1.396 . S
C419 C424 1.390 . S
C420 C414 1.465 . S
C420 C419 1.396 . S
C420 C421 1.399 1_655 S
C421 H407 0.929 . S
C421 C420 1.399 1_455 S
C421 C422 1.385 . S
C422 H408 0.931 . S
C422 C421 1.385 . S
C422 C423 1.389 1_455 S
C423 C422 1.389 1_655 S
C423 C424 1.387 . S
C424 H409 0.930 . S
C424 C419 1.390 . S
C424 C423 1.387 . S
H425 C437 0.930 . S
H426 C439 0.930 1_556 S
H427 C440 0.929 1_556 S
H428 C444 0.959 . S
H429 C444 0.959 . S
H430 C444 0.961 . S
H431 C445 0.960 . S
H432 C445 0.961 . S
H433 C445 0.959 . S
H434 C448 0.929 . S
H435 C449 0.931 . S
H436 C451 0.930 . S
C437 H425 0.930 . S
C437 C438 1.399 . S
C437 C442 1.399 . S
C438 C437 1.399 . S
C438 C439 1.376 . S
C439 H426 0.930 1_554 S
C439 C438 1.376 . S
C439 C440 1.388 . S
C440 H427 0.929 1_554 S
C440 C439 1.388 . S
C440 C441 1.390 . S
C441 C440 1.390 . S
C441 C442 1.394 . S
C441 C447 1.465 . S
C442 C437 1.399 . S
C442 C441 1.394 . S
C442 C443 1.516 . S
C443 C442 1.516 . S
C443 C444 1.502 . S
C443 C445 1.561 . S
C443 C446 1.526 . S
C444 H428 0.959 . S
C444 H429 0.959 . S
C444 H430 0.961 . S
C444 C443 1.502 . S
C445 H431 0.960 . S
C445 H432 0.961 . S
C445 H433 0.959 . S
C445 C443 1.561 . S
C446 C443 1.526 . S
C446 C447 1.396 . S
C446 C451 1.390 . S
C447 C441 1.465 . S
C447 C446 1.396 . S
C447 C448 1.399 . S
C448 H434 0.929 . S
C448 C447 1.399 . S
C448 C449 1.385 . S
C449 H435 0.931 . S
C449 C448 1.385 . S
C449 C450 1.389 . S
C450 C449 1.389 . S
C450 C451 1.387 . S
C451 H436 0.930 . S
C451 C446 1.390 . S
C451 C450 1.387 . S
H452 C464 0.930 . S
H453 C466 0.930 . S
H454 C467 0.930 . S
H455 C471 0.959 . S
H456 C471 0.959 . S
H457 C471 0.961 . S
H458 C472 0.960 . S
H459 C472 0.961 . S
H460 C472 0.959 . S
H461 C475 0.929 . S
H462 C476 0.931 . S
H463 C478 0.930 . S
C464 H452 0.930 . S
C464 C465 1.399 . S
C464 C469 1.399 . S
C465 C464 1.399 . S
C465 C466 1.376 . S
C466 H453 0.930 . S
C466 C465 1.376 . S
C466 C467 1.388 . S
C467 H454 0.930 . S
C467 C466 1.388 . S
C467 C468 1.390 . S
C468 C467 1.390 . S
C468 C469 1.394 . S
C468 C474 1.465 . S
C469 C464 1.399 . S
C469 C468 1.394 . S
C469 C470 1.516 . S
C470 C469 1.516 . S
C470 C471 1.502 . S
C470 C472 1.561 . S
C470 C473 1.526 . S
C471 H455 0.959 . S
C471 H456 0.959 . S
C471 H457 0.961 . S
C471 C470 1.502 . S
C472 H458 0.960 . S
C472 H459 0.961 . S
C472 H460 0.959 . S
C472 C470 1.561 . S
C473 C470 1.526 . S
C473 C474 1.396 . S
C473 C478 1.390 . S
C474 C468 1.465 . S
C474 C473 1.396 . S
C474 C475 1.399 . S
C475 H461 0.929 . S
C475 C474 1.399 . S
C475 C476 1.385 . S
C476 H462 0.931 . S
C476 C475 1.385 . S
C476 C477 1.389 . S
C477 C476 1.389 . S
C477 C478 1.387 . S
C478 H463 0.930 . S
C478 C473 1.390 . S
C478 C477 1.387 . S
H479 C491 0.930 . S
H480 C493 0.930 . S
H481 C494 0.930 . S
H482 C498 0.959 . S
H483 C498 0.959 . S
H484 C498 0.961 . S
H485 C499 0.960 . S
H486 C499 0.961 . S
H487 C499 0.959 . S
H488 C502 0.929 . S
H489 C503 0.931 . S
H490 C505 0.930 . S
C491 H479 0.930 . S
C491 C492 1.399 . S
C491 C496 1.399 . S
C492 C491 1.399 . S
C492 C493 1.376 . S
C493 H480 0.930 . S
C493 C492 1.376 . S
C493 C494 1.388 . S
C494 H481 0.930 . S
C494 C493 1.388 . S
C494 C495 1.390 . S
C495 C494 1.390 . S
C495 C496 1.394 . S
C495 C501 1.465 . S
C496 C491 1.399 . S
C496 C495 1.394 . S
C496 C497 1.516 . S
C497 C496 1.516 . S
C497 C498 1.502 . S
C497 C499 1.561 . S
C497 C500 1.526 . S
C498 H482 0.959 . S
C498 H483 0.959 . S
C498 H484 0.961 . S
C498 C497 1.502 . S
C499 H485 0.960 . S
C499 H486 0.961 . S
C499 H487 0.959 . S
C499 C497 1.561 . S
C500 C497 1.526 . S
C500 C501 1.396 . S
C500 C505 1.390 . S
C501 C495 1.465 . S
C501 C500 1.396 . S
C501 C502 1.399 . S
C502 H488 0.929 . S
C502 C501 1.399 . S
C502 C503 1.385 . S
C503 H489 0.931 . S
C503 C502 1.385 . S
C503 C504 1.389 . S
C504 C503 1.389 . S
C504 C505 1.387 . S
C505 H490 0.930 . S
C505 C500 1.390 . S
C505 C504 1.387 . S
H506 C518 0.930 . S
H507 C520 0.930 . S
H508 C521 0.930 . S
H509 C525 0.959 . S
H510 C525 0.959 . S
H511 C525 0.961 . S
H512 C526 0.960 . S
H513 C526 0.961 . S
H514 C526 0.959 . S
H515 C529 0.929 . S
H516 C530 0.931 . S
H517 C532 0.930 1_455 S
C518 H506 0.930 . S
C518 C519 1.399 . S
C518 C523 1.399 . S
C519 C518 1.399 . S
C519 C520 1.376 . S
C520 H507 0.930 . S
C520 C519 1.376 . S
C520 C521 1.388 . S
C521 H508 0.930 . S
C521 C520 1.388 . S
C521 C522 1.390 . S
C522 C521 1.390 . S
C522 C523 1.394 . S
C522 C528 1.465 . S
C523 C518 1.399 . S
C523 C522 1.394 . S
C523 C524 1.516 . S
C524 C523 1.516 . S
C524 C525 1.502 . S
C524 C526 1.561 1_655 S
C524 C527 1.526 . S
C525 H509 0.959 . S
C525 H510 0.959 . S
C525 H511 0.961 . S
C525 C524 1.502 . S
C526 H512 0.960 . S
C526 H513 0.961 . S
C526 H514 0.959 . S
C526 C524 1.561 1_455 S
C527 C524 1.526 . S
C527 C528 1.396 . S
C527 C532 1.390 . S
C528 C522 1.465 . S
C528 C527 1.396 . S
C528 C529 1.399 . S
C529 H515 0.929 . S
C529 C528 1.399 . S
C529 C530 1.385 . S
C530 H516 0.931 . S
C530 C529 1.385 . S
C530 C531 1.389 . S
C531 C530 1.389 . S
C531 C532 1.387 . S
C532 H517 0.930 1_655 S
C532 C527 1.390 . S
C532 C531 1.387 . S
H533 C545 0.930 . S
H534 C547 0.930 . S
H535 C548 0.930 . S
H536 C552 0.959 . S
H537 C552 0.959 . S
H538 C552 0.961 . S
H539 C553 0.960 . S
H540 C553 0.961 . S
H541 C553 0.959 . S
H542 C556 0.929 . S
H543 C557 0.931 . S
H544 C559 0.930 . S
C545 H533 0.930 . S
C545 C546 1.399 . S
C545 C550 1.399 . S
C546 C545 1.399 . S
C546 C547 1.376 . S
C547 H534 0.930 . S
C547 C546 1.376 . S
C547 C548 1.388 . S
C548 H535 0.930 . S
C548 C547 1.388 . S
C548 C549 1.390 . S
C549 C548 1.390 . S
C549 C550 1.394 . S
C549 C555 1.465 . S
C550 C545 1.399 . S
C550 C549 1.394 . S
C550 C551 1.516 . S
C551 C550 1.516 . S
C551 C552 1.502 . S
C551 C553 1.561 . S
C551 C554 1.526 . S
C552 H536 0.959 . S
C552 H537 0.959 . S
C552 H538 0.961 . S
C552 C551 1.502 . S
C553 H539 0.960 . S
C553 H540 0.961 . S
C553 H541 0.959 . S
C553 C551 1.561 . S
C554 C551 1.526 . S
C554 C555 1.396 . S
C554 C559 1.390 . S
C555 C549 1.465 . S
C555 C554 1.396 . S
C555 C556 1.399 . S
C556 H542 0.929 . S
C556 C555 1.399 . S
C556 C557 1.385 . S
C557 H543 0.931 . S
C557 C556 1.385 . S
C557 C558 1.389 . S
C558 C557 1.389 . S
C558 C559 1.387 . S
C559 H544 0.930 . S
C559 C554 1.390 . S
C559 C558 1.387 . S
H560 C572 0.928 1_655 S
H561 C574 0.930 . S
H562 C575 0.930 . S
H563 C579 0.959 1_655 S
H564 C579 0.959 . S
H565 C579 0.961 1_655 S
H566 C580 0.960 . S
H567 C580 0.961 . S
H568 C580 0.959 . S
H569 C583 0.929 . S
H570 C584 0.931 . S
H571 C586 0.930 . S
C572 H560 0.928 1_455 S
C572 C573 1.399 . S
C572 C577 1.399 . S
C573 C572 1.399 . S
C573 C574 1.376 . S
C574 H561 0.930 . S
C574 C573 1.376 . S
C574 C575 1.388 . S
C575 H562 0.930 . S
C575 C574 1.388 . S
C575 C576 1.390 . S
C576 C575 1.390 . S
C576 C577 1.394 . S
C576 C582 1.465 . S
C577 C572 1.399 . S
C577 C576 1.394 . S
C577 C578 1.516 . S
C578 C577 1.516 . S
C578 C579 1.502 . S
C578 C580 1.561 . S
C578 C581 1.526 . S
C579 H563 0.959 1_455 S
C579 H564 0.959 . S
C579 H565 0.961 1_455 S
C579 C578 1.502 . S
C580 H566 0.960 . S
C580 H567 0.961 . S
C580 H568 0.959 . S
C580 C578 1.561 . S
C581 C578 1.526 . S
C581 C582 1.396 . S
C581 C586 1.390 . S
C582 C576 1.465 . S
C582 C581 1.396 . S
C582 C583 1.399 . S
C583 H569 0.929 . S
C583 C582 1.399 . S
C583 C584 1.385 . S
C584 H570 0.931 . S
C584 C583 1.385 . S
C584 C585 1.389 . S
C585 C584 1.389 . S
C585 C586 1.387 . S
C586 H571 0.930 . S
C586 C581 1.390 . S
C586 C585 1.387 . S
H587 C599 0.930 . S
H588 C601 0.930 . S
H589 C602 0.930 . S
H590 C606 0.959 . S
H591 C606 0.959 . S
H592 C606 0.961 . S
H593 C607 0.960 . S
H594 C607 0.961 . S
H595 C607 0.959 . S
H596 C610 0.929 . S
H597 C611 0.931 . S
H598 C613 0.930 . S
C599 H587 0.930 . S
C599 C600 1.399 . S
C599 C604 1.399 . S
C600 C599 1.399 . S
C600 C601 1.376 . S
C601 H588 0.930 . S
C601 C600 1.376 . S
C601 C602 1.388 . S
C602 H589 0.930 . S
C602 C601 1.388 . S
C602 C603 1.390 . S
C603 C602 1.390 . S
C603 C604 1.394 . S
C603 C609 1.465 . S
C604 C599 1.399 . S
C604 C603 1.394 . S
C604 C605 1.516 . S
C605 C604 1.516 . S
C605 C606 1.502 . S
C605 C607 1.561 . S
C605 C608 1.526 . S
C606 H590 0.959 . S
C606 H591 0.959 . S
C606 H592 0.961 . S
C606 C605 1.502 . S
C607 H593 0.960 . S
C607 H594 0.961 . S
C607 H595 0.959 . S
C607 C605 1.561 . S
C608 C605 1.526 . S
C608 C609 1.396 . S
C608 C613 1.390 . S
C609 C603 1.465 . S
C609 C608 1.396 . S
C609 C610 1.399 . S
C610 H596 0.929 . S
C610 C609 1.399 . S
C610 C611 1.385 . S
C611 H597 0.931 . S
C611 C610 1.385 . S
C611 C612 1.389 . S
C612 C611 1.389 . S
C612 C613 1.387 . S
C613 H598 0.930 . S
C613 C608 1.390 . S
C613 C612 1.387 . S
H614 C626 0.930 . S
H615 C628 0.930 . S
H616 C629 0.930 . S
H617 C633 0.959 . S
H618 C633 0.959 . S
H619 C633 0.961 . S
H620 C634 0.960 . S
H621 C634 0.961 . S
H622 C634 0.959 . S
H623 C637 0.929 . S
H624 C638 0.931 . S
H625 C640 0.930 . S
C626 H614 0.930 . S
C626 C627 1.399 . S
C626 C631 1.399 . S
C627 C626 1.399 . S
C627 C628 1.376 . S
C628 H615 0.930 . S
C628 C627 1.376 . S
C628 C629 1.388 . S
C629 H616 0.930 . S
C629 C628 1.388 . S
C629 C630 1.390 . S
C630 C629 1.390 . S
C630 C631 1.394 . S
C630 C636 1.465 . S
C631 C626 1.399 . S
C631 C630 1.394 . S
C631 C632 1.516 . S
C632 C631 1.516 . S
C632 C633 1.502 . S
C632 C634 1.561 . S
C632 C635 1.526 . S
C633 H617 0.959 . S
C633 H618 0.959 . S
C633 H619 0.961 . S
C633 C632 1.502 . S
C634 H620 0.960 . S
C634 H621 0.961 . S
C634 H622 0.959 . S
C634 C632 1.561 . S
C635 C632 1.526 . S
C635 C636 1.396 . S
C635 C640 1.390 . S
C636 C630 1.465 . S
C636 C635 1.396 . S
C636 C637 1.399 . S
C637 H623 0.929 . S
C637 C636 1.399 . S
C637 C638 1.385 . S
C638 H624 0.931 . S
C638 C637 1.385 . S
C638 C639 1.389 . S
C639 C638 1.389 . S
C639 C640 1.387 . S
C640 H625 0.930 . S
C640 C635 1.390 . S
C640 C639 1.387 . S
H641 C653 0.930 . S
H642 C655 0.930 . S
H643 C656 0.930 . S
H644 C660 0.959 . S
H645 C660 0.959 . S
H646 C660 0.961 . S
H647 C661 0.960 . S
H648 C661 0.961 . S
H649 C661 0.959 . S
H650 C664 0.929 . S
H651 C665 0.931 . S
H652 C667 0.930 . S
C653 H641 0.930 . S
C653 C654 1.399 . S
C653 C658 1.399 . S
C654 C653 1.399 . S
C654 C655 1.376 . S
C655 H642 0.930 . S
C655 C654 1.376 . S
C655 C656 1.388 . S
C656 H643 0.930 . S
C656 C655 1.388 . S
C656 C657 1.390 . S
C657 C656 1.390 . S
C657 C658 1.394 . S
C657 C663 1.465 . S
C658 C653 1.399 . S
C658 C657 1.394 . S
C658 C659 1.516 . S
C659 C658 1.516 . S
C659 C660 1.502 . S
C659 C661 1.561 . S
C659 C662 1.526 . S
C660 H644 0.959 . S
C660 H645 0.959 . S
C660 H646 0.961 . S
C660 C659 1.502 . S
C661 H647 0.960 . S
C661 H648 0.961 . S
C661 H649 0.959 . S
C661 C659 1.561 . S
C662 C659 1.526 . S
C662 C663 1.396 . S
C662 C667 1.390 . S
C663 C657 1.465 . S
C663 C662 1.396 . S
C663 C664 1.399 . S
C664 H650 0.929 . S
C664 C663 1.399 . S
C664 C665 1.385 . S
C665 H651 0.931 . S
C665 C664 1.385 . S
C665 C666 1.389 . S
C666 C665 1.389 . S
C666 C667 1.387 . S
C667 H652 0.930 . S
C667 C662 1.390 . S
C667 C666 1.387 . S
H668 C680 0.930 . S
H669 C682 0.930 . S
H670 C683 0.930 1_545 S
H671 C687 0.951 1_545 S
H672 C687 0.952 1_545 S
H673 C687 0.979 . S
H674 C688 0.960 . S
H675 C688 0.961 . S
H676 C688 0.959 1_655 S
H677 C691 0.929 . S
H678 C692 0.931 . S
H679 C694 0.930 . S
C680 H668 0.930 . S
C680 C681 1.399 1_455 S
C680 C685 1.399 . S
C681 C680 1.399 1_655 S
C681 C682 1.376 . S
C682 H669 0.930 . S
C682 C681 1.376 . S
C682 C683 1.388 . S
C683 H670 0.930 1_565 S
C683 C682 1.388 . S
C683 C684 1.390 1_565 S
C684 C683 1.390 1_545 S
C684 C685 1.394 1_645 S
C684 C690 1.465 . S
C685 C680 1.399 . S
C685 C684 1.394 1_465 S
C685 C686 1.516 . S
C686 C685 1.516 . S
C686 C687 1.499 . S
C686 C688 1.561 . S
C686 C689 1.526 1_565 S
C687 H671 0.951 1_565 S
C687 H672 0.952 1_565 S
C687 H673 0.979 . S
C687 C686 1.499 . S
C688 H674 0.960 . S
C688 H675 0.961 . S
C688 H676 0.959 1_455 S
C688 C686 1.561 . S
C689 C686 1.526 1_545 S
C689 C690 1.396 1_455 S
C689 C694 1.390 . S
C690 C684 1.465 . S
C690 C689 1.396 1_655 S
C690 C691 1.399 . S
C691 H677 0.929 . S
C691 C690 1.399 . S
C691 C692 1.385 . S
C692 H678 0.931 . S
C692 C691 1.385 . S
C692 C693 1.389 1_655 S
C693 C692 1.389 1_455 S
C693 C694 1.387 . S
C694 H679 0.930 . S
C694 C689 1.390 . S
C694 C693 1.387 . S
H695 C707 0.930 . S
H696 C709 0.930 . S
H697 C710 0.930 . S
H698 C714 0.959 . S
H699 C714 0.959 . S
H700 C714 0.961 . S
H701 C715 0.960 . S
H702 C715 0.961 . S
H703 C715 0.959 . S
H704 C718 0.929 . S
H705 C719 0.931 . S
H706 C721 0.930 . S
C707 H695 0.930 . S
C707 C708 1.399 . S
C707 C712 1.399 . S
C708 C707 1.399 . S
C708 C709 1.376 . S
C709 H696 0.930 . S
C709 C708 1.376 . S
C709 C710 1.388 . S
C710 H697 0.930 . S
C710 C709 1.388 . S
C710 C711 1.390 . S
C711 C710 1.390 . S
C711 C712 1.394 . S
C711 C717 1.465 . S
C712 C707 1.399 . S
C712 C711 1.394 . S
C712 C713 1.516 . S
C713 C712 1.516 . S
C713 C714 1.502 . S
C713 C715 1.561 . S
C713 C716 1.526 . S
C714 H698 0.959 . S
C714 H699 0.959 . S
C714 H700 0.961 . S
C714 C713 1.502 . S
C715 H701 0.960 . S
C715 H702 0.961 . S
C715 H703 0.959 . S
C715 C713 1.561 . S
C716 C713 1.526 . S
C716 C717 1.396 . S
C716 C721 1.390 . S
C717 C711 1.465 . S
C717 C716 1.396 . S
C717 C718 1.399 . S
C718 H704 0.929 . S
C718 C717 1.399 . S
C718 C719 1.385 . S
C719 H705 0.931 . S
C719 C718 1.385 . S
C719 C720 1.389 . S
C720 C719 1.389 . S
C720 C721 1.387 . S
C721 H706 0.930 . S
C721 C716 1.390 . S
C721 C720 1.387 . S
H722 C734 0.930 . S
H723 C736 0.930 . S
H724 C737 0.930 . S
H725 C741 0.959 . S
H726 C741 0.959 . S
H727 C741 0.961 . S
H728 C742 0.960 . S
H729 C742 0.961 . S
H730 C742 0.959 . S
H731 C745 0.929 . S
H732 C746 0.931 . S
H733 C748 0.930 . S
C734 H722 0.930 . S
C734 C735 1.399 . S
C734 C739 1.399 . S
C735 C734 1.399 . S
C735 C736 1.376 . S
C736 H723 0.930 . S
C736 C735 1.376 . S
C736 C737 1.388 . S
C737 H724 0.930 . S
C737 C736 1.388 . S
C737 C738 1.390 . S
C738 C737 1.390 . S
C738 C739 1.394 . S
C738 C744 1.465 . S
C739 C734 1.399 . S
C739 C738 1.394 . S
C739 C740 1.516 . S
C740 C739 1.516 . S
C740 C741 1.502 . S
C740 C742 1.561 . S
C740 C743 1.526 . S
C741 H725 0.959 . S
C741 H726 0.959 . S
C741 H727 0.961 . S
C741 C740 1.502 . S
C742 H728 0.960 . S
C742 H729 0.961 . S
C742 H730 0.959 . S
C742 C740 1.561 . S
C743 C740 1.526 . S
C743 C744 1.396 . S
C743 C748 1.390 . S
C744 C738 1.465 . S
C744 C743 1.396 . S
C744 C745 1.399 . S
C745 H731 0.929 . S
C745 C744 1.399 . S
C745 C746 1.385 . S
C746 H732 0.931 . S
C746 C745 1.385 . S
C746 C747 1.389 . S
C747 C746 1.389 . S
C747 C748 1.387 . S
C748 H733 0.930 . S
C748 C743 1.390 . S
C748 C747 1.387 . S
H749 C761 0.930 . S
H750 C763 0.930 . S
H751 C764 0.930 . S
H752 C768 0.959 . S
H753 C768 0.959 . S
H754 C768 0.961 . S
H755 C769 0.960 . S
H756 C769 0.961 . S
H757 C769 0.959 . S
H758 C772 0.929 . S
H759 C773 0.931 . S
H760 C775 0.952 . S
C761 H749 0.930 . S
C761 C762 1.399 . S
C761 C766 1.399 . S
C762 C761 1.399 . S
C762 C763 1.376 . S
C763 H750 0.930 . S
C763 C762 1.376 . S
C763 C764 1.388 . S
C764 H751 0.930 . S
C764 C763 1.388 . S
C764 C765 1.390 . S
C765 C764 1.390 . S
C765 C766 1.394 . S
C765 C771 1.465 . S
C766 C761 1.399 . S
C766 C765 1.394 . S
C766 C767 1.516 . S
C767 C766 1.516 . S
C767 C768 1.502 1_554 S
C767 C769 1.561 . S
C767 C770 1.526 . S
C768 H752 0.959 . S
C768 H753 0.959 . S
C768 H754 0.961 . S
C768 C767 1.502 1_556 S
C769 H755 0.960 . S
C769 H756 0.961 . S
C769 H757 0.959 . S
C769 C767 1.561 . S
C770 C767 1.526 . S
C770 C771 1.396 . S
C770 C775 1.390 . S
C771 C765 1.465 . S
C771 C770 1.396 . S
C771 C772 1.399 . S
C772 H758 0.929 . S
C772 C771 1.399 . S
C772 C773 1.385 . S
C773 H759 0.931 . S
C773 C772 1.385 . S
C773 C774 1.389 . S
C774 C773 1.389 . S
C774 C775 1.387 . S
C775 H760 0.952 . S
C775 C770 1.390 . S
C775 C774 1.387 . S
H776 C788 0.930 . S
H777 C790 0.930 . S
H778 C791 0.930 . S
H779 C795 0.959 . S
H780 C795 0.959 . S
H781 C795 0.961 . S
H782 C796 0.960 . S
H783 C796 0.961 . S
H784 C796 0.959 . S
H785 C799 0.929 . S
H786 C800 0.931 . S
H787 C802 0.930 . S
C788 H776 0.930 . S
C788 C789 1.399 . S
C788 C793 1.399 . S
C789 C788 1.399 . S
C789 C790 1.376 . S
C790 H777 0.930 . S
C790 C789 1.376 . S
C790 C791 1.388 . S
C791 H778 0.930 . S
C791 C790 1.388 . S
C791 C792 1.390 . S
C792 C791 1.390 . S
C792 C793 1.394 . S
C792 C798 1.465 . S
C793 C788 1.399 . S
C793 C792 1.394 . S
C793 C794 1.516 . S
C794 C793 1.516 . S
C794 C795 1.502 . S
C794 C796 1.561 . S
C794 C797 1.526 . S
C795 H779 0.959 . S
C795 H780 0.959 . S
C795 H781 0.961 . S
C795 C794 1.502 . S
C796 H782 0.960 . S
C796 H783 0.961 . S
C796 H784 0.959 . S
C796 C794 1.561 . S
C797 C794 1.526 . S
C797 C798 1.396 . S
C797 C802 1.390 . S
C798 C792 1.465 . S
C798 C797 1.396 . S
C798 C799 1.399 . S
C799 H785 0.929 . S
C799 C798 1.399 . S
C799 C800 1.385 . S
C800 H786 0.931 . S
C800 C799 1.385 . S
C800 C801 1.389 . S
C801 C800 1.389 . S
C801 C802 1.387 . S
C802 H787 0.930 . S
C802 C797 1.390 . S
C802 C801 1.387 . S
H803 C815 0.930 . S
H804 C817 0.930 . S
H805 C818 0.930 . S
H806 C822 0.959 . S
H807 C822 0.959 . S
H808 C822 0.961 . S
H809 C823 0.960 . S
H810 C823 0.961 . S
H811 C823 0.959 . S
H812 C826 0.929 . S
H813 C827 0.931 . S
H814 C829 0.930 . S
C815 H803 0.930 . S
C815 C816 1.399 . S
C815 C820 1.399 . S
C816 C815 1.399 . S
C816 C817 1.376 . S
C817 H804 0.930 . S
C817 C816 1.376 . S
C817 C818 1.388 . S
C818 H805 0.930 . S
C818 C817 1.388 . S
C818 C819 1.390 . S
C819 C818 1.390 . S
C819 C820 1.394 . S
C819 C825 1.465 . S
C820 C815 1.399 . S
C820 C819 1.394 . S
C820 C821 1.516 . S
C821 C820 1.516 . S
C821 C822 1.502 . S
C821 C823 1.561 . S
C821 C824 1.526 . S
C822 H806 0.959 . S
C822 H807 0.959 . S
C822 H808 0.961 . S
C822 C821 1.502 . S
C823 H809 0.960 . S
C823 H810 0.961 . S
C823 H811 0.959 . S
C823 C821 1.561 . S
C824 C821 1.526 . S
C824 C825 1.396 . S
C824 C829 1.390 . S
C825 C819 1.465 . S
C825 C824 1.396 . S
C825 C826 1.399 . S
C826 H812 0.929 . S
C826 C825 1.399 . S
C826 C827 1.385 1_556 S
C827 H813 0.931 . S
C827 C826 1.385 1_554 S
C827 C828 1.389 . S
C828 C827 1.389 . S
C828 C829 1.387 1_554 S
C829 H814 0.930 . S
C829 C824 1.390 . S
C829 C828 1.387 1_556 S
H830 C842 0.930 . S
H831 C844 0.930 . S
H832 C845 0.930 . S
H833 C849 0.959 . S
H834 C849 0.959 . S
H835 C849 0.961 . S
H836 C850 0.960 . S
H837 C850 0.961 . S
H838 C850 0.959 . S
H839 C853 0.929 . S
H840 C854 0.931 . S
H841 C856 0.930 . S
C842 H830 0.930 . S
C842 C843 1.399 . S
C842 C847 1.399 . S
C843 C842 1.399 . S
C843 C844 1.376 . S
C844 H831 0.930 . S
C844 C843 1.376 . S
C844 C845 1.388 . S
C845 H832 0.930 . S
C845 C844 1.388 . S
C845 C846 1.390 . S
C846 C845 1.390 . S
C846 C847 1.394 . S
C846 C852 1.465 . S
C847 C842 1.399 . S
C847 C846 1.394 . S
C847 C848 1.516 . S
C848 C847 1.516 . S
C848 C849 1.502 . S
C848 C850 1.561 . S
C848 C851 1.526 . S
C849 H833 0.959 . S
C849 H834 0.959 . S
C849 H835 0.961 . S
C849 C848 1.502 . S
C850 H836 0.960 . S
C850 H837 0.961 . S
C850 H838 0.959 . S
C850 C848 1.561 . S
C851 C848 1.526 . S
C851 C852 1.396 . S
C851 C856 1.390 . S
C852 C846 1.465 . S
C852 C851 1.396 . S
C852 C853 1.399 . S
C853 H839 0.929 . S
C853 C852 1.399 . S
C853 C854 1.385 . S
C854 H840 0.931 . S
C854 C853 1.385 . S
C854 C855 1.389 . S
C855 C854 1.389 . S
C855 C856 1.387 . S
C856 H841 0.930 . S
C856 C851 1.390 . S
C856 C855 1.387 . S
H857 C869 0.930 . S
H858 C871 0.930 . S
H859 C872 0.930 . S
H860 C876 0.959 . S
H861 C876 0.959 . S
H862 C876 0.961 . S
H863 C877 0.960 . S
H864 C877 0.961 1_554 S
H865 C877 0.959 1_554 S
H866 C880 0.929 . S
H867 C881 0.931 . S
H868 C883 0.930 . S
C869 H857 0.930 . S
C869 C870 1.399 . S
C869 C874 1.399 . S
C870 C869 1.399 . S
C870 C871 1.376 . S
C871 H858 0.930 . S
C871 C870 1.376 . S
C871 C872 1.388 . S
C872 H859 0.930 . S
C872 C871 1.388 . S
C872 C873 1.390 . S
C873 C872 1.390 . S
C873 C874 1.394 . S
C873 C879 1.465 . S
C874 C869 1.399 . S
C874 C873 1.394 . S
C874 C875 1.516 . S
C875 C874 1.516 . S
C875 C876 1.502 . S
C875 C877 1.561 . S
C875 C878 1.526 . S
C876 H860 0.959 . S
C876 H861 0.959 . S
C876 H862 0.961 . S
C876 C875 1.502 . S
C877 H863 0.960 . S
C877 H864 0.961 1_556 S
C877 H865 0.959 1_556 S
C877 C875 1.561 . S
C878 C875 1.526 . S
C878 C879 1.396 . S
C878 C883 1.390 . S
C879 C873 1.465 . S
C879 C878 1.396 . S
C879 C880 1.399 . S
C880 H866 0.929 . S
C880 C879 1.399 . S
C880 C881 1.385 . S
C881 H867 0.931 . S
C881 C880 1.385 . S
C881 C882 1.389 . S
C882 C881 1.389 . S
C882 C883 1.387 . S
C883 H868 0.930 . S
C883 C878 1.390 . S
C883 C882 1.387 . S
C261 C164 1.463 . S
C249 C11 1.286 . S
C288 C167 1.753 . S
C276 C25 1.756 . S
C315 C165 1.256 1_655 S
C303 C40 1.273 . S
C342 C166 1.328 . S
C330 C59 1.236 . S
C369 C181 1.825 . S
C357 C6 1.803 . S
C396 C195 1.873 . S
C384 C21 1.776 . S
C411 C49 1.545 . S
C423 C221 1.605 . S
C450 C235 1.498 . S
C438 C68 1.394 . S
C477 C180 1.799 . S
C465 C30 1.536 . S
C492 C44 1.664 . S
C504 C194 1.607 . S
C531 C220 1.579 . S
C519 C63 1.617 . S
C558 C234 1.668 . S
C546 C2 1.643 . S
C573 C78 1.761 1_455 S
C585 C179 1.776 . S
C612 C152 1.654 . S
C600 C97 1.567 . S
C627 C120 1.639 . S
C639 C178 1.671 . S
C654 C139 1.618 . S
C666 C153 1.620 . S
C693 C208 1.439 . S
C681 C87 1.324 . S
C720 C222 1.573 . S
C708 C101 1.557 . S
C747 C192 1.586 . S
C735 C125 1.499 . S
C762 C144 1.670 . S
C774 C206 1.707 . S
C801 C209 1.719 . S
C789 C106 1.445 . S
C828 C223 1.609 . S
C816 C116 1.584 . S
C855 C193 1.658 . S
C843 C135 1.609 . S
C870 C82 1.819 . S
C882 C207 1.778 . S
