# Generated by pormake.
# Topology csq, (4,8)-cn, num edge types: 1
# Building blocks:
#     Node 0, Type 0, BuildingBlock: AZAVOO_clean_linker_0, # of connection points: 4
#     Node 1, Type 0, BuildingBlock: AZAVOO_clean_linker_0, # of connection points: 4
#     Node 2, Type 0, BuildingBlock: AZAVOO_clean_linker_0, # of connection points: 4
#     Node 3, Type 0, BuildingBlock: AZAVOO_clean_linker_0, # of connection points: 4
#     Node 4, Type 0, BuildingBlock: AZAVOO_clean_linker_0, # of connection points: 4
#     Node 5, Type 0, BuildingBlock: AZAVOO_clean_linker_0, # of connection points: 4
#     Node 6, Type 1, BuildingBlock: TAGTUT_clean_sbu_1, # of connection points: 8
#     Node 7, Type 1, BuildingBlock: TAGTUT_clean_sbu_1, # of connection points: 8
#     Node 8, Type 1, BuildingBlock: TAGTUT_clean_sbu_1, # of connection points: 8
#     Edge 9, Type (0, 1), BuildingBlock: MIFKUJ_clean_linker_0, # of connection points: 2
#     Edge 10, Type (0, 1), BuildingBlock: MIFKUJ_clean_linker_0, # of connection points: 2
#     Edge 11, Type (0, 1), BuildingBlock: MIFKUJ_clean_linker_0, # of connection points: 2
#     Edge 12, Type (0, 1), BuildingBlock: MIFKUJ_clean_linker_0, # of connection points: 2
#     Edge 13, Type (0, 1), BuildingBlock: MIFKUJ_clean_linker_0, # of connection points: 2
#     Edge 14, Type (0, 1), BuildingBlock: MIFKUJ_clean_linker_0, # of connection points: 2
#     Edge 15, Type (0, 1), BuildingBlock: MIFKUJ_clean_linker_0, # of connection points: 2
#     Edge 16, Type (0, 1), BuildingBlock: MIFKUJ_clean_linker_0, # of connection points: 2
#     Edge 17, Type (0, 1), BuildingBlock: MIFKUJ_clean_linker_0, # of connection points: 2
#     Edge 18, Type (0, 1), BuildingBlock: MIFKUJ_clean_linker_0, # of connection points: 2
#     Edge 19, Type (0, 1), BuildingBlock: MIFKUJ_clean_linker_0, # of connection points: 2
#     Edge 20, Type (0, 1), BuildingBlock: MIFKUJ_clean_linker_0, # of connection points: 2
#     Edge 21, Type (0, 1), BuildingBlock: MIFKUJ_clean_linker_0, # of connection points: 2
#     Edge 22, Type (0, 1), BuildingBlock: MIFKUJ_clean_linker_0, # of connection points: 2
#     Edge 23, Type (0, 1), BuildingBlock: MIFKUJ_clean_linker_0, # of connection points: 2
#     Edge 24, Type (0, 1), BuildingBlock: MIFKUJ_clean_linker_0, # of connection points: 2
#     Edge 25, Type (0, 1), BuildingBlock: MIFKUJ_clean_linker_0, # of connection points: 2
#     Edge 26, Type (0, 1), BuildingBlock: MIFKUJ_clean_linker_0, # of connection points: 2
#     Edge 27, Type (0, 1), BuildingBlock: MIFKUJ_clean_linker_0, # of connection points: 2
#     Edge 28, Type (0, 1), BuildingBlock: MIFKUJ_clean_linker_0, # of connection points: 2
#     Edge 29, Type (0, 1), BuildingBlock: MIFKUJ_clean_linker_0, # of connection points: 2
#     Edge 30, Type (0, 1), BuildingBlock: MIFKUJ_clean_linker_0, # of connection points: 2
#     Edge 31, Type (0, 1), BuildingBlock: MIFKUJ_clean_linker_0, # of connection points: 2
#     Edge 32, Type (0, 1), BuildingBlock: MIFKUJ_clean_linker_0, # of connection points: 2
# Relax obj value: 0.124
# Max RMSD: 0.238
# Mean RMSD: 0.202
data_MOF--net-csq--node1-TAGTUT_clean_sbu_1--node2-AZAVOO_clean_linker_0--edge1-MIFKUJ_clean_linker_0
_symmetry_space_group_name_H-M    P1
_symmetry_Int_Tables_number       1
_symmetry_cell_setting            triclinic
loop_
_symmetry_equiv_pos_as_xyz
'x, y, z'
_cell_length_a     70.769497
_cell_length_b     69.451986
_cell_length_c     29.176634
_cell_angle_alpha  92.442332
_cell_angle_beta   92.019319
_cell_angle_gamma 119.8772
loop_
_atom_site_label
_atom_site_type_symbol
_atom_site_fract_x
_atom_site_fract_y
_atom_site_fract_z
_atom_type_partial_charge
H0 H 0.1778 0.43374 0.40666 0.0
H1 H 0.39393 0.50907 0.1759 0.0
H2 H 0.19352 0.43368 0.16166 0.0
H3 H 0.16288 0.43188 0.20145 0.0
H4 H 0.19461 0.50368 0.20826 0.0
H5 H 0.22478 0.50518 0.16808 0.0
H6 H 0.22194 0.43254 0.24162 0.0
H7 H 0.20226 0.42655 0.31178 0.0
H8 H 0.22258 0.49656 0.32552 0.0
H9 H 0.24219 0.50229 0.25539 0.0
H10 H 0.27516 0.44355 0.23223 0.0
H11 H 0.29741 0.44825 0.30271 0.0
H12 H 0.3038 0.51275 0.33379 0.0
H13 H 0.28237 0.50825 0.26258 0.0
H14 H 0.28649 0.44566 0.1267 0.0
H15 H 0.32317 0.45036 0.12726 0.0
H16 H 0.3501 0.51759 0.18737 0.0
H17 H 0.31338 0.51272 0.18611 0.0
H18 H 0.25969 0.44526 0.04728 0.0
H19 H 0.28369 0.4512 0.9843 0.0
H20 H 0.32023 0.5214 0.02582 0.0
H21 H 0.29591 0.51538 0.08812 0.0
H22 H 0.22265 0.44157 0.04629 0.0
H23 H 0.20591 0.44406 0.97376 0.0
H24 H 0.22095 0.51068 0.01869 0.0
H25 H 0.23904 0.50849 0.08939 0.0
O26 O 0.18601 0.43654 0.37952 0.0
O27 O 0.19962 0.47312 0.38895 0.0
O28 O 0.36459 0.47204 0.14454 0.0
O29 O 0.37926 0.50681 0.17486 0.0
C30 C 0.23305 0.47118 0.15809 0.0
C31 C 0.24408 0.47099 0.19926 0.0
C32 C 0.26509 0.47362 0.19856 0.0
C33 C 0.27503 0.47582 0.15656 0.0
C34 C 0.2641 0.47588 0.11506 0.0
C35 C 0.24308 0.4737 0.11587 0.0
C36 C 0.21138 0.46956 0.16157 0.0
C37 C 0.19323 0.44892 0.1694 0.0
C38 C 0.17594 0.44797 0.19311 0.0
C39 C 0.17647 0.46766 0.20916 0.0
C40 C 0.19348 0.48814 0.19634 0.0
C41 C 0.21074 0.48906 0.1727 0.0
C42 C 0.23343 0.46782 0.2435 0.0
C43 C 0.22226 0.44657 0.26011 0.0
C44 C 0.21096 0.4432 0.30003 0.0
C45 C 0.21081 0.46108 0.3242 0.0
C46 C 0.22238 0.48244 0.30778 0.0
C47 C 0.23361 0.48577 0.2678 0.0
C48 C 0.27725 0.47558 0.24244 0.0
C49 C 0.28129 0.45859 0.25452 0.0
C50 C 0.29377 0.46122 0.29494 0.0
C51 C 0.30232 0.48088 0.32378 0.0
C52 C 0.29761 0.49753 0.31208 0.0
C53 C 0.28528 0.49494 0.27163 0.0
C54 C 0.29733 0.47884 0.15635 0.0
C55 C 0.30036 0.46141 0.13974 0.0
C56 C 0.32131 0.46413 0.14022 0.0
C57 C 0.33958 0.48435 0.15746 0.0
C58 C 0.33642 0.50181 0.17391 0.0
C59 C 0.31547 0.49907 0.17329 0.0
C60 C 0.27577 0.47994 0.07186 0.0
C61 C 0.27236 0.46203 0.04173 0.0
C62 C 0.28619 0.46544 0.00597 0.0
C63 C 0.30394 0.48676 0.00023 0.0
C64 C 0.30682 0.50477 0.02955 0.0
C65 C 0.29282 0.50139 0.06484 0.0
C66 C 0.23204 0.47485 0.07298 0.0
C67 C 0.22246 0.45675 0.04013 0.0
C68 C 0.21272 0.45815 0.99889 0.0
C69 C 0.21203 0.47759 0.99012 0.0
C70 C 0.2215 0.49561 0.02363 0.0
C71 C 0.23157 0.4943 0.06446 0.0
C72 C 0.19853 0.45737 0.36619 0.0
C73 C 0.36185 0.48727 0.15847 0.0
H74 H 0.81851 0.28087 0.43172 0.0
H75 H 0.66864 0.08643 0.10122 0.0
H76 H 0.8001 0.28306 0.18609 0.0
H77 H 0.83137 0.31931 0.20849 0.0
H78 H 0.87368 0.2988 0.14561 0.0
H79 H 0.8423 0.26163 0.12811 0.0
H80 H 0.77477 0.25422 0.24736 0.0
H81 H 0.78849 0.26713 0.32733 0.0
H82 H 0.83747 0.24798 0.30992 0.0
H83 H 0.82348 0.23502 0.22995 0.0
H84 H 0.73741 0.21684 0.21692 0.0
H85 H 0.7203 0.2011 0.28742 0.0
H86 H 0.75808 0.16775 0.29682 0.0
H87 H 0.77623 0.18512 0.22804 0.0
H88 H 0.72216 0.19723 0.09962 0.0
H89 H 0.68838 0.16147 0.08457 0.0
H90 H 0.72176 0.12752 0.13273 0.0
H91 H 0.75547 0.16337 0.14705 0.0
H92 H 0.7557 0.23134 0.03027 0.0
H93 H 0.73616 0.21227 0.95677 0.0
H94 H 0.74995 0.15931 0.98047 0.0
H95 H 0.7702 0.179 0.05276 0.0
H96 H 0.79681 0.2761 0.07195 0.0
H97 H 0.82318 0.29998 0.01879 0.0
H98 H 0.84123 0.24978 0.99147 0.0
H99 H 0.81527 0.22633 0.04586 0.0
O100 O 0.81359 0.276 0.39977 0.0
O101 O 0.83587 0.26233 0.39133 0.0
O102 O 0.66534 0.11902 0.08249 0.0
O103 O 0.68172 0.10078 0.10704 0.0
C104 C 0.79981 0.24675 0.14762 0.0
C105 C 0.789 0.23466 0.18526 0.0
C106 C 0.76989 0.21371 0.1776 0.0
C107 C 0.76179 0.20453 0.13236 0.0
C108 C 0.77302 0.21622 0.09449 0.0
C109 C 0.79196 0.23741 0.10214 0.0
C110 C 0.81894 0.26955 0.15633 0.0
C111 C 0.81617 0.28638 0.17746 0.0
C112 C 0.83415 0.30736 0.18938 0.0
C113 C 0.85534 0.31227 0.1791 0.0
C114 C 0.85781 0.29565 0.15521 0.0
C115 C 0.83984 0.27439 0.14466 0.0
C116 C 0.79805 0.24357 0.23306 0.0
C117 C 0.78846 0.25283 0.26091 0.0
C118 C 0.79636 0.26024 0.30653 0.0
C119 C 0.81398 0.25844 0.32511 0.0
C120 C 0.82378 0.24946 0.29677 0.0
C121 C 0.81589 0.24212 0.25109 0.0
C122 C 0.75792 0.20199 0.21742 0.0
C123 C 0.74184 0.20602 0.23422 0.0
C124 C 0.73202 0.19689 0.27449 0.0
C125 C 0.73772 0.18306 0.2982 0.0
C126 C 0.75355 0.17866 0.28032 0.0
C127 C 0.76372 0.18826 0.24058 0.0
C128 C 0.74119 0.18286 0.12463 0.0
C129 C 0.7221 0.18204 0.10697 0.0
C130 C 0.70285 0.1616 0.09841 0.0
C131 C 0.70237 0.14162 0.1075 0.0
C132 C 0.72155 0.14258 0.12542 0.0
C133 C 0.7408 0.16302 0.13385 0.0
C134 C 0.76423 0.20647 0.04697 0.0
C135 C 0.75497 0.21591 0.01892 0.0
C136 C 0.74363 0.20487 0.97719 0.0
C137 C 0.74124 0.1841 0.96291 0.0
C138 C 0.75162 0.17534 0.99004 0.0
C139 C 0.76308 0.18648 0.03158 0.0
C140 C 0.80429 0.2496 0.06299 0.0
C141 C 0.80615 0.27011 0.05372 0.0
C142 C 0.82119 0.28369 0.02327 0.0
C143 C 0.83452 0.2769 0.0014 0.0
C144 C 0.83151 0.25566 0.00849 0.0
C145 C 0.81651 0.24212 0.03905 0.0
C146 C 0.82188 0.2657 0.374 0.0
C147 C 0.68199 0.11986 0.09821 0.0
H148 H 0.54444 0.80027 0.74894 0.0
H149 H 0.54328 0.63285 0.091 0.0
H150 H 0.5815 0.81983 0.99152 0.0
H151 H 0.57723 0.85119 0.9726 0.0
H152 H 0.51692 0.82309 0.042 0.0
H153 H 0.52035 0.79056 0.05612 0.0
H154 H 0.57902 0.79057 0.92611 0.0
H155 H 0.57091 0.79772 0.84853 0.0
H156 H 0.50233 0.76585 0.87411 0.0
H157 H 0.51072 0.75875 0.95166 0.0
H158 H 0.58408 0.75597 0.94001 0.0
H159 H 0.58063 0.7373 0.86481 0.0
H160 H 0.51177 0.69351 0.88069 0.0
H161 H 0.51535 0.71314 0.95517 0.0
H162 H 0.58785 0.73565 0.01939 0.0
H163 H 0.59002 0.7021 0.03132 0.0
H164 H 0.52539 0.67079 0.08229 0.0
H165 H 0.52333 0.70431 0.06954 0.0
H166 H 0.59424 0.76054 0.11597 0.0
H167 H 0.59831 0.743 0.18385 0.0
H168 H 0.53077 0.71933 0.20995 0.0
H169 H 0.52685 0.73681 0.14195 0.0
H170 H 0.59215 0.81572 0.0996 0.0
H171 H 0.59391 0.84571 0.15012 0.0
H172 H 0.52783 0.80166 0.18584 0.0
H173 H 0.52625 0.77188 0.13531 0.0
O174 O 0.54733 0.7976 0.78001 0.0
O175 O 0.51204 0.77855 0.79285 0.0
O176 O 0.57553 0.66266 0.05697 0.0
O177 O 0.54267 0.64614 0.08497 0.0
C178 C 0.55238 0.78225 0.02981 0.0
C179 C 0.55023 0.76867 0.99044 0.0
C180 C 0.55171 0.74935 0.99491 0.0
C181 C 0.55465 0.74314 0.03882 0.0
C182 C 0.55674 0.7567 0.07852 0.0
C183 C 0.55587 0.77639 0.07387 0.0
C184 C 0.55107 0.80275 0.02444 0.0
C185 C 0.56736 0.82048 0.00252 0.0
C186 C 0.56502 0.83866 0.99251 0.0
C187 C 0.54659 0.83983 0.00542 0.0
C188 C 0.53105 0.82264 0.03036 0.0
C189 C 0.5331 0.80411 0.03907 0.0
C190 C 0.54544 0.77409 0.94431 0.0
C191 C 0.56228 0.78522 0.9149 0.0
C192 C 0.55759 0.78928 0.87063 0.0
C193 C 0.53594 0.78222 0.85501 0.0
C194 C 0.51915 0.77138 0.88497 0.0
C195 C 0.52389 0.76736 0.92928 0.0
C196 C 0.55 0.73572 0.95297 0.0
C197 C 0.56833 0.74216 0.92736 0.0
C198 C 0.56629 0.73148 0.88441 0.0
C199 C 0.54589 0.71394 0.86654 0.0
C200 C 0.52763 0.70722 0.89299 0.0
C201 C 0.52967 0.71811 0.93583 0.0
C202 C 0.55541 0.72234 0.04347 0.0
C203 C 0.57409 0.72142 0.03259 0.0
C204 C 0.57532 0.70229 0.03967 0.0
C205 C 0.55789 0.68377 0.0579 0.0
C206 C 0.5391 0.68473 0.06826 0.0
C207 C 0.53787 0.70384 0.06097 0.0
C208 C 0.56033 0.75019 0.12439 0.0
C209 C 0.58052 0.7521 0.13714 0.0
C210 C 0.58275 0.74191 0.17563 0.0
C211 C 0.56483 0.72969 0.20213 0.0
C212 C 0.54495 0.72886 0.19063 0.0
C213 C 0.5427 0.73893 0.15192 0.0
C214 C 0.55915 0.79159 0.11421 0.0
C215 C 0.5784 0.81233 0.11981 0.0
C216 C 0.57926 0.8295 0.1481 0.0
C217 C 0.5609 0.8261 0.17135 0.0
C218 C 0.54229 0.80473 0.16863 0.0
C219 C 0.54142 0.7876 0.14013 0.0
C220 C 0.53096 0.78597 0.80749 0.0
C221 C 0.5593 0.6636 0.06647 0.0
H222 H 0.73375 0.53546 0.37238 0.0
H223 H 0.93867 0.5973 0.09703 0.0
H224 H 0.74174 0.50596 0.11976 0.0
H225 H 0.71026 0.49723 0.16457 0.0
H226 H 0.72588 0.5658 0.16498 0.0
H227 H 0.75708 0.57423 0.11939 0.0
H228 H 0.77006 0.52015 0.20679 0.0
H229 H 0.75417 0.52041 0.27986 0.0
H230 H 0.77376 0.5897 0.2687 0.0
H231 H 0.78952 0.58914 0.19556 0.0
H232 H 0.81734 0.52751 0.18547 0.0
H233 H 0.83526 0.53042 0.2606 0.0
H234 H 0.85068 0.59885 0.28139 0.0
H235 H 0.83281 0.5958 0.20543 0.0
H236 H 0.83123 0.52638 0.08621 0.0
H237 H 0.86844 0.53319 0.08022 0.0
H238 H 0.89367 0.60349 0.11225 0.0
H239 H 0.85633 0.59646 0.11746 0.0
H240 H 0.7935 0.51182 0.01652 0.0
H241 H 0.81303 0.50589 0.95483 0.0
H242 H 0.85448 0.57701 0.95109 0.0
H243 H 0.83479 0.58279 0.01279 0.0
H244 H 0.75033 0.50562 0.03221 0.0
H245 H 0.72703 0.49702 0.96155 0.0
H246 H 0.76035 0.56694 0.9362 0.0
H247 H 0.78387 0.57517 0.00623 0.0
O248 O 0.74068 0.53586 0.34415 0.0
O249 O 0.75467 0.5724 0.34131 0.0
O250 O 0.90997 0.55786 0.08247 0.0
O251 O 0.92379 0.59412 0.09924 0.0
C252 C 0.77499 0.54758 0.11011 0.0
C253 C 0.78915 0.55394 0.15017 0.0
C254 C 0.81074 0.55841 0.14722 0.0
C255 C 0.8185 0.55689 0.10418 0.0
C256 C 0.80458 0.5509 0.0637 0.0
C257 C 0.78279 0.5463 0.06673 0.0
C258 C 0.75174 0.54073 0.11613 0.0
C259 C 0.73761 0.5188 0.12708 0.0
C260 C 0.71988 0.51395 0.15362 0.0
C261 C 0.71591 0.53095 0.16944 0.0
C262 C 0.72844 0.5523 0.15342 0.0
C263 C 0.7462 0.55713 0.12684 0.0
C264 C 0.78084 0.5546 0.19597 0.0
C265 C 0.77102 0.53539 0.22041 0.0
C266 C 0.76191 0.53558 0.26201 0.0
C267 C 0.76261 0.55505 0.28001 0.0
C268 C 0.77293 0.57442 0.25579 0.0
C269 C 0.78198 0.57418 0.21412 0.0
C270 C 0.82397 0.56148 0.19011 0.0
C271 C 0.82487 0.54321 0.206 0.0
C272 C 0.83481 0.54482 0.24911 0.0
C273 C 0.84402 0.56476 0.27711 0.0
C274 C 0.84367 0.5833 0.26051 0.0
C275 C 0.83359 0.58162 0.21726 0.0
C276 C 0.84112 0.56096 0.10185 0.0
C277 C 0.84482 0.54324 0.09171 0.0
C278 C 0.86609 0.54718 0.08843 0.0
C279 C 0.88404 0.56891 0.09566 0.0
C280 C 0.88023 0.58657 0.1064 0.0
C281 C 0.85893 0.58261 0.10949 0.0
C282 C 0.81266 0.54773 0.01912 0.0
C283 C 0.80629 0.52613 0.00132 0.0
C284 C 0.81764 0.52278 0.96647 0.0
C285 C 0.83547 0.54098 0.94848 0.0
C286 C 0.84076 0.56265 0.96403 0.0
C287 C 0.8295 0.56599 0.9992 0.0
C288 C 0.76856 0.54101 0.0244 0.0
C289 C 0.7525 0.51902 0.01134 0.0
C290 C 0.73923 0.51418 0.97102 0.0
C291 C 0.74178 0.53131 0.94322 0.0
C292 C 0.75814 0.55332 0.95637 0.0
C293 C 0.77144 0.5581 0.99657 0.0
C294 C 0.75247 0.55506 0.32366 0.0
C295 C 0.90667 0.5732 0.09203 0.0
H296 H 0.21888 0.84009 0.37599 0.0
H297 H 0.125 0.64814 0.99832 0.0
H298 H 0.25235 0.84711 0.15095 0.0
H299 H 0.28273 0.8722 0.20569 0.0
H300 H 0.31292 0.83202 0.18277 0.0
H301 H 0.28216 0.80664 0.12974 0.0
H302 H 0.20314 0.81226 0.17973 0.0
H303 H 0.20505 0.82564 0.25969 0.0
H304 H 0.25405 0.80787 0.29459 0.0
H305 H 0.25174 0.79426 0.21472 0.0
H306 H 0.16509 0.76512 0.11582 0.0
H307 H 0.13475 0.73924 0.16005 0.0
H308 H 0.17982 0.72852 0.24361 0.0
H309 H 0.20975 0.75352 0.19841 0.0
H310 H 0.17289 0.75896 0.02072 0.0
H311 H 0.1434 0.72313 0.98682 0.0
H312 H 0.17005 0.68924 0.06369 0.0
H313 H 0.19946 0.72521 0.09724 0.0
H314 H 0.20928 0.78082 0.96706 0.0
H315 H 0.19542 0.75116 0.90535 0.0
H316 H 0.22497 0.71908 0.97909 0.0
H317 H 0.23923 0.74904 0.03926 0.0
H318 H 0.24782 0.83427 0.02729 0.0
H319 H 0.27325 0.85444 0.96895 0.0
H320 H 0.30154 0.81214 0.98125 0.0
H321 H 0.27599 0.79204 0.03966 0.0
O322 O 0.21832 0.83462 0.34462 0.0
O323 O 0.24359 0.82535 0.36067 0.0
O324 O 0.12304 0.68072 0.97362 0.0
O325 O 0.13627 0.6625 0.01179 0.0
C326 C 0.24416 0.80635 0.11496 0.0
C327 C 0.22632 0.79458 0.14269 0.0
C328 C 0.2076 0.77483 0.1245 0.0
C329 C 0.207 0.76646 0.07932 0.0
C330 C 0.22487 0.77802 0.05193 0.0
C331 C 0.24307 0.79834 0.06903 0.0
C332 C 0.26497 0.82497 0.13653 0.0
C333 C 0.26586 0.84413 0.15678 0.0
C334 C 0.28321 0.85841 0.18813 0.0
C335 C 0.29999 0.8538 0.19934 0.0
C336 C 0.29997 0.83571 0.17574 0.0
C337 C 0.28259 0.82141 0.14472 0.0
C338 C 0.22743 0.80249 0.19138 0.0
C339 C 0.21423 0.81124 0.20475 0.0
C340 C 0.21539 0.81889 0.25041 0.0
C341 C 0.22976 0.81789 0.28352 0.0
C342 C 0.24285 0.80894 0.26997 0.0
C343 C 0.24162 0.80122 0.22435 0.0
C344 C 0.18965 0.76135 0.15422 0.0
C345 C 0.16839 0.7573 0.14395 0.0
C346 C 0.15114 0.74257 0.16905 0.0
C347 C 0.15507 0.73212 0.20532 0.0
C348 C 0.17646 0.73669 0.21626 0.0
C349 C 0.19356 0.751 0.19064 0.0
C350 C 0.18825 0.74463 0.06137 0.0
C351 C 0.17221 0.74376 0.03041 0.0
C352 C 0.15542 0.72328 0.01107 0.0
C353 C 0.15441 0.70331 0.02243 0.0
C354 C 0.17036 0.70429 0.05412 0.0
C355 C 0.18712 0.72478 0.07348 0.0
C356 C 0.22503 0.76688 0.00769 0.0
C357 C 0.21378 0.76804 0.96843 0.0
C358 C 0.2056 0.75088 0.93362 0.0
C359 C 0.2085 0.73237 0.93802 0.0
C360 C 0.22238 0.73299 0.97443 0.0
C361 C 0.23066 0.7502 0.00893 0.0
C362 C 0.26014 0.81177 0.0377 0.0
C363 C 0.25971 0.82957 0.01777 0.0
C364 C 0.2741 0.84093 0.98425 0.0
C365 C 0.28928 0.83477 0.97035 0.0
C366 C 0.29011 0.81734 0.99149 0.0
C367 C 0.27555 0.80584 0.02475 0.0
C368 C 0.23103 0.82615 0.33194 0.0
C369 C 0.13692 0.68155 0.0011 0.0
H370 H 0.40347 0.2136 0.87262 0.0
H371 H 0.44373 0.08799 0.27617 0.0
H372 H 0.48502 0.25524 0.10471 0.0
H373 H 0.49101 0.28716 0.06264 0.0
H374 H 0.42566 0.27324 0.08764 0.0
H375 H 0.42022 0.24169 0.13179 0.0
H376 H 0.45761 0.22142 0.03624 0.0
H377 H 0.4407 0.22115 0.96148 0.0
H378 H 0.37699 0.18624 0.01626 0.0
H379 H 0.39419 0.18691 0.09109 0.0
H380 H 0.45314 0.18047 0.05376 0.0
H381 H 0.44366 0.14553 0.01144 0.0
H382 H 0.39158 0.10982 0.10082 0.0
H383 H 0.40056 0.14529 0.14201 0.0
H384 H 0.47828 0.17786 0.15564 0.0
H385 H 0.48306 0.14754 0.18247 0.0
H386 H 0.42356 0.12318 0.25352 0.0
H387 H 0.41905 0.15365 0.22652 0.0
H388 H 0.50001 0.224 0.21729 0.0
H389 H 0.51751 0.2127 0.27556 0.0
H390 H 0.45647 0.17871 0.34121 0.0
H391 H 0.4396 0.19104 0.28415 0.0
H392 H 0.49573 0.26605 0.18645 0.0
H393 H 0.50493 0.30107 0.22844 0.0
H394 H 0.44697 0.26631 0.30406 0.0
H395 H 0.437 0.23194 0.25863 0.0
O396 O 0.4098 0.21337 0.90239 0.0
O397 O 0.3774 0.19509 0.93196 0.0
O398 O 0.47258 0.11322 0.22754 0.0
O399 O 0.44204 0.09993 0.26446 0.0
C400 C 0.44841 0.22569 0.14235 0.0
C401 C 0.43741 0.20536 0.11505 0.0
C402 C 0.43628 0.18603 0.13144 0.0
C403 C 0.44634 0.18712 0.17486 0.0
C404 C 0.45649 0.20721 0.20298 0.0
C405 C 0.45726 0.22643 0.18704 0.0
C406 C 0.45236 0.24645 0.12197 0.0
C407 C 0.47223 0.25948 0.10227 0.0
C408 C 0.47548 0.2775 0.07763 0.0
C409 C 0.45872 0.2826 0.07134 0.0
C410 C 0.43896 0.26986 0.09224 0.0
C411 C 0.43579 0.25186 0.11737 0.0
C412 C 0.42712 0.20436 0.06912 0.0
C413 C 0.44002 0.21382 0.03206 0.0
C414 C 0.43031 0.21358 0.98936 0.0
C415 C 0.40749 0.20375 0.98292 0.0
C416 C 0.39461 0.194 0.02007 0.0
C417 C 0.40436 0.1943 0.0628 0.0
C418 C 0.42753 0.16543 0.10087 0.0
C419 C 0.43911 0.16527 0.06306 0.0
C420 C 0.4337 0.14527 0.03903 0.0
C421 C 0.41688 0.12502 0.05297 0.0
C422 C 0.4046 0.12525 0.08951 0.0
C423 C 0.40971 0.14541 0.11294 0.0
C424 C 0.44831 0.16787 0.1891 0.0
C425 C 0.46623 0.16584 0.17672 0.0
C426 C 0.46894 0.14856 0.19219 0.0
C427 C 0.45371 0.13295 0.22025 0.0
C428 C 0.4356 0.1349 0.23202 0.0
C429 C 0.43294 0.15223 0.21656 0.0
C430 C 0.46852 0.2082 0.24641 0.0
C431 C 0.49079 0.21511 0.2457 0.0
C432 C 0.50062 0.20824 0.27852 0.0
C433 C 0.48825 0.19422 0.31232 0.0
C434 C 0.46658 0.18952 0.31586 0.0
C435 C 0.45686 0.19663 0.28332 0.0
C436 C 0.46533 0.24666 0.2184 0.0
C437 C 0.48497 0.26611 0.21181 0.0
C438 C 0.49034 0.28607 0.23643 0.0
C439 C 0.47644 0.28675 0.26906 0.0
C440 C 0.45768 0.2667 0.27806 0.0
C441 C 0.45209 0.24692 0.25264 0.0
C442 C 0.39724 0.20375 0.93765 0.0
C443 C 0.45674 0.11481 0.2375 0.0
C444 C 0.99988 0.43872 0.73825 0.0
C445 C 0.0613 0.47684 0.67333 0.0
C446 C 0.04656 0.54436 0.68746 0.0
Mg447 Mg 0.01307 0.45117 0.63893 0.0
O448 O 0.00968 0.47527 0.65899 0.0
Mg449 Mg 0.02739 0.4933 0.71616 0.0
Mg450 Mg 0.0169 0.49984 0.61784 0.0
O451 O 0.02422 0.52443 0.57689 0.0
Mg452 Mg 0.02242 0.54919 0.59806 0.0
Mg453 Mg 0.00541 0.50656 0.52085 0.0
C454 C 0.99004 0.45633 0.54707 0.0
C455 C 0.04572 0.49711 0.53468 0.0
O456 O 0.01005 0.45958 0.75154 0.0
O457 O 0.99855 0.43173 0.6962 0.0
O458 O 0.05624 0.48825 0.70043 0.0
O459 O 0.04734 0.46172 0.64436 0.0
O460 O 0.9965 0.44517 0.57066 0.0
O461 O 0.9926 0.47518 0.56235 0.0
C462 C 0.98729 0.50305 0.69952 0.0
O463 O 0.99083 0.50471 0.65647 0.0
O464 O 0.99878 0.49873 0.72759 0.0
O465 O 0.0213 0.5399 0.48472 0.0
O466 O 0.03548 0.56811 0.53963 0.0
O467 O 0.97726 0.51253 0.53917 0.0
C468 C 0.03214 0.5608 0.49733 0.0
O469 O 0.98865 0.53954 0.59517 0.0
O470 O 0.04085 0.55617 0.66419 0.0
C471 C 0.97367 0.52493 0.56696 0.0
O472 O 0.04137 0.52444 0.67357 0.0
O473 O 0.04278 0.49508 0.57798 0.0
O474 O 0.03382 0.5014 0.50772 0.0
C475 C 0.48112 0.01309 0.76395 0.0
C476 C 0.44994 0.95613 0.66969 0.0
C477 C 0.52887 0.96527 0.66034 0.0
Mg478 Mg 0.47631 0.00613 0.65724 0.0
O479 O 0.50277 0.00683 0.6687 0.0
Mg480 Mg 0.50279 0.98512 0.71213 0.0
Mg481 Mg 0.51536 -0.00055 0.6154 0.0
O482 O 0.52786 0.99179 0.56288 0.0
Mg483 Mg 0.55337 0.99028 0.57387 0.0
Mg484 Mg 0.52888 0.01379 0.51919 0.0
C485 C 0.50284 0.03496 0.57445 0.0
C486 C 0.47811 0.97741 0.53085 0.0
O487 O 0.49069 0.0015 0.76603 0.0
O488 O 0.47506 0.01756 0.72584 0.0
O489 O 0.46686 0.95899 0.69311 0.0
O490 O 0.45015 0.97187 0.64818 0.0
O491 O 0.48677 0.02819 0.60068 0.0
O492 O 0.51683 0.02826 0.57753 0.0
C493 C 0.55304 0.02343 0.69925 0.0
O494 O 0.54832 0.02165 0.6558 0.0
O495 O 0.53872 0.01168 0.72718 0.0
O496 O 0.53903 0.99483 0.46546 0.0
O497 O 0.55238 0.97685 0.5064 0.0
O498 O 0.56526 0.03887 0.53909 0.0
C499 C 0.54651 0.98133 0.4681 0.0
O500 O 0.58057 0.02357 0.58116 0.0
O501 O 0.54472 0.97062 0.63412 0.0
C502 C 0.5817 0.04022 0.56191 0.0
O503 O 0.51464 0.97135 0.65371 0.0
O504 O 0.48207 0.97744 0.57421 0.0
O505 O 0.49299 0.98933 0.50426 0.0
C506 C 0.55681 0.57052 0.51152 0.0
C507 C 0.58069 0.52468 0.52912 0.0
C508 C 0.49799 0.46449 0.56033 0.0
Mg509 Mg 0.57076 0.55394 0.5965 0.0
O510 O 0.54018 0.53317 0.58783 0.0
Mg511 Mg 0.52891 0.5154 0.52768 0.0
Mg512 Mg 0.52505 0.50872 0.6315 0.0
O513 O 0.51109 0.48442 0.67358 0.0
Mg514 Mg 0.4815 0.46273 0.66274 0.0
Mg515 Mg 0.5207 0.50301 0.7329 0.0
C516 C 0.552 0.55292 0.68631 0.0
C517 C 0.56321 0.50521 0.68904 0.0
O518 O 0.54392 0.55012 0.49654 0.0
O519 O 0.56765 0.57614 0.55076 0.0
O520 O 0.56058 0.51499 0.51493 0.0
O521 O 0.58829 0.53978 0.56211 0.0
O522 O 0.56816 0.55181 0.67119 0.0
O523 O 0.53412 0.53485 0.69156 0.0
C524 C 0.48706 0.51304 0.57619 0.0
O525 O 0.49325 0.50898 0.61446 0.0
O526 O 0.49792 0.51624 0.54049 0.0
O527 O 0.50597 0.46952 0.76762 0.0
O528 O 0.48105 0.4424 0.71743 0.0
O529 O 0.48763 0.50205 0.73832 0.0
C530 C 0.49187 0.44897 0.75667 0.0
O531 O 0.4627 0.47801 0.68488 0.0
O532 O 0.48356 0.45425 0.58959 0.0
C533 C 0.46841 0.49266 0.71846 0.0
O534 O 0.51491 0.48368 0.57048 0.0
O535 O 0.55672 0.50781 0.6494 0.0
O536 O 0.55247 0.50337 0.72452 0.0
H537 H 0.15758 0.49389 0.21646 0.0
H538 H 0.13685 0.49656 0.27929 0.0
H539 H 0.13984 0.44323 0.34309 0.0
H540 H 0.16111 0.4408 0.28113 0.0
H541 H 0.09763 0.44107 0.34482 0.0
H542 H 0.17363 0.49168 0.38531 0.0
H543 H 0.21073 0.52156 0.3713 0.0
H544 H 0.18661 0.56665 0.35222 0.0
H545 H 0.14932 0.53692 0.36547 0.0
H546 H 0.05918 0.46674 0.55037 0.0
H547 H 0.08355 0.45956 0.50316 0.0
H548 H 0.09524 0.51489 0.42325 0.0
H549 H 0.07116 0.52197 0.46973 0.0
H550 H 0.13222 0.51322 0.43801 0.0
H551 H 0.05691 0.46337 0.38565 0.0
H552 H 0.01889 0.43454 0.39574 0.0
H553 H 0.04046 0.38918 0.43361 0.0
H554 H 0.07871 0.41791 0.42421 0.0
C555 C 0.15376 0.48263 0.24367 0.0
C556 C 0.16113 0.46718 0.2436 0.0
C557 C 0.14183 0.48413 0.27951 0.0
C558 C 0.13693 0.4702 0.31605 0.0
C559 C 0.14334 0.45406 0.31514 0.0
C560 C 0.15542 0.45264 0.27944 0.0
C561 C 0.12629 0.47352 0.35631 0.0
C562 C 0.10535 0.45666 0.36582 0.0
C563 C 0.13623 0.49398 0.3833 0.0
C564 C 0.15868 0.51202 0.37604 0.0
C565 C 0.17624 0.50792 0.37781 0.0
C566 C 0.19729 0.52483 0.37003 0.0
C567 C 0.20101 0.54597 0.36075 0.0
C568 C 0.1837 0.55026 0.35938 0.0
C569 C 0.1626 0.53339 0.36708 0.0
C570 C 0.06744 0.47765 0.52349 0.0
C571 C 0.06326 0.49485 0.51355 0.0
C572 C 0.08119 0.47346 0.49631 0.0
C573 C 0.09105 0.48656 0.45929 0.0
C574 C 0.08787 0.50455 0.4515 0.0
C575 C 0.07405 0.50855 0.47807 0.0
C576 C 0.10338 0.48095 0.42613 0.0
C577 C 0.12466 0.49743 0.41774 0.0
C578 C 0.09362 0.46027 0.39985 0.0
C579 C 0.07066 0.44285 0.40478 0.0
C580 C 0.05355 0.44729 0.39642 0.0
C581 C 0.03196 0.43097 0.40199 0.0
C582 C 0.02726 0.41006 0.41551 0.0
C583 C 0.04414 0.4054 0.42326 0.0
C584 C 0.06578 0.42169 0.41778 0.0
H585 H 0.01053 0.39744 0.41986 0.0
H586 H 0.21732 0.55904 0.35472 0.0
H587 H 0.75552 0.17408 0.37437 0.0
H588 H 0.73695 0.15545 0.44189 0.0
H589 H 0.67785 0.15226 0.38849 0.0
H590 H 0.69557 0.16935 0.31962 0.0
H591 H 0.6921 0.16636 0.49207 0.0
H592 H 0.67837 0.10965 0.36559 0.0
H593 H 0.69174 0.09234 0.30956 0.0
H594 H 0.7272 0.08179 0.41871 0.0
H595 H 0.71425 0.09935 0.47529 0.0
H596 H 0.59 0.08011 0.53118 0.0
H597 H 0.62527 0.1107 0.51359 0.0
H598 H 0.65741 0.07786 0.57318 0.0
H599 H 0.62198 0.04696 0.59079 0.0
H600 H 0.66735 0.08569 0.48762 0.0
H601 H 0.67121 0.12944 0.61563 0.0
H602 H 0.65978 0.14667 0.67579 0.0
H603 H 0.64713 0.18289 0.57523 0.0
H604 H 0.65803 0.16551 0.5141 0.0
C605 C 0.73852 0.16928 0.37664 0.0
C606 C 0.72707 0.17315 0.34104 0.0
C607 C 0.72808 0.15896 0.41566 0.0
C608 C 0.70616 0.15276 0.42022 0.0
C609 C 0.69491 0.1573 0.38582 0.0
C610 C 0.70515 0.16714 0.34642 0.0
C611 C 0.694 0.13935 0.45799 0.0
C612 C 0.68667 0.14873 0.49152 0.0
C613 C 0.68798 0.11669 0.45846 0.0
C614 C 0.69561 0.10606 0.42449 0.0
C615 C 0.68919 0.10383 0.37754 0.0
C616 C 0.69665 0.09394 0.34571 0.0
C617 C 0.71038 0.08604 0.36054 0.0
C618 C 0.71662 0.08796 0.40726 0.0
C619 C 0.70922 0.09788 0.4392 0.0
C620 C 0.60458 0.07961 0.54168 0.0
C621 C 0.60313 0.06085 0.56139 0.0
C622 C 0.62482 0.09726 0.53197 0.0
C623 C 0.64402 0.09655 0.5419 0.0
C624 C 0.64279 0.07871 0.5651 0.0
C625 C 0.62251 0.06106 0.57509 0.0
C626 C 0.66432 0.11234 0.52071 0.0
C627 C 0.67324 0.10344 0.48988 0.0
C628 C 0.67217 0.13552 0.52368 0.0
C629 C 0.66541 0.14607 0.5601 0.0
C630 C 0.66583 0.14094 0.60617 0.0
C631 C 0.65947 0.15077 0.64053 0.0
C632 C 0.65277 0.1659 0.62939 0.0
C633 C 0.65237 0.1712 0.58382 0.0
C634 C 0.65867 0.16137 0.54927 0.0
H635 H 0.64788 0.17352 0.65608 0.0
H636 H 0.71613 0.07838 0.33586 0.0
H637 H 0.58308 0.7032 0.19844 0.0
H638 H 0.58261 0.67831 0.25564 0.0
H639 H 0.54861 0.69991 0.34532 0.0
H640 H 0.54927 0.7252 0.28824 0.0
H641 H 0.58213 0.69483 0.39165 0.0
H642 H 0.51945 0.65354 0.28496 0.0
H643 H 0.50102 0.64049 0.20741 0.0
H644 H 0.53873 0.60889 0.17959 0.0
H645 H 0.55762 0.62202 0.2568 0.0
H646 H 0.55094 0.60518 0.53667 0.0
H647 H 0.55173 0.63334 0.48783 0.0
H648 H 0.56887 0.60443 0.37393 0.0
H649 H 0.56608 0.57517 0.42188 0.0
H650 H 0.54231 0.61434 0.34197 0.0
H651 H 0.6068 0.65698 0.44554 0.0
H652 H 0.62643 0.67063 0.52196 0.0
H653 H 0.58727 0.70007 0.55475 0.0
H654 H 0.56732 0.68646 0.47864 0.0
C655 C 0.57591 0.70303 0.23071 0.0
C656 C 0.56622 0.71618 0.23885 0.0
C657 C 0.57552 0.68868 0.26323 0.0
C658 C 0.56542 0.68714 0.30452 0.0
C659 C 0.55647 0.70086 0.31363 0.0
C660 C 0.55673 0.71516 0.28092 0.0
C661 C 0.56309 0.67022 0.33668 0.0
C662 C 0.57325 0.67719 0.38112 0.0
C663 C 0.55177 0.64728 0.32258 0.0
C664 C 0.54006 0.6389 0.27654 0.0
C665 C 0.52389 0.6439 0.26222 0.0
C666 C 0.51335 0.63648 0.21834 0.0
C667 C 0.51872 0.62389 0.18858 0.0
C668 C 0.53459 0.61864 0.2027 0.0
C669 C 0.5452 0.62604 0.24653 0.0
C670 C 0.55494 0.60499 0.50119 0.0
C671 C 0.5586 0.58821 0.48288 0.0
C672 C 0.55558 0.62119 0.47332 0.0
C673 C 0.5609 0.62149 0.4272 0.0
C674 C 0.56472 0.60469 0.40925 0.0
C675 C 0.56326 0.58802 0.43663 0.0
C676 C 0.56194 0.63882 0.39707 0.0
C677 C 0.55134 0.63193 0.35284 0.0
C678 C 0.57309 0.66186 0.41131 0.0
C679 C 0.58548 0.67057 0.45656 0.0
C680 C 0.60237 0.66633 0.4691 0.0
C681 C 0.61354 0.67406 0.51235 0.0
C682 C 0.60807 0.68617 0.54323 0.0
C683 C 0.59149 0.69069 0.53083 0.0
C684 C 0.58028 0.68302 0.4876 0.0
H685 H 0.61672 0.69208 0.57671 0.0
H686 H 0.51055 0.61817 0.15462 0.0
H687 H 0.82786 0.53446 0.34204 0.0
H688 H 0.84754 0.53296 0.41089 0.0
H689 H 0.90285 0.59648 0.38526 0.0
H690 H 0.88338 0.59776 0.31545 0.0
H691 H 0.91398 0.56585 0.38939 0.0
H692 H 0.87575 0.58991 0.48333 0.0
H693 H 0.84438 0.59144 0.51339 0.0
H694 H 0.81766 0.52469 0.55484 0.0
H695 H 0.84865 0.52257 0.52426 0.0
H696 H 0.96236 0.55342 0.60939 0.0
H697 H 0.93604 0.56302 0.57728 0.0
H698 H 0.91267 0.50808 0.4751 0.0
H699 H 0.93886 0.49831 0.50662 0.0
H700 H 0.88952 0.54248 0.54507 0.0
H701 H 0.92211 0.53266 0.37276 0.0
H702 H 0.95443 0.53284 0.3432 0.0
H703 H 0.99412 0.57532 0.46006 0.0
H704 H 0.9621 0.57571 0.48994 0.0
C705 C 0.84409 0.54828 0.35154 0.0
C706 C 0.85429 0.56602 0.32302 0.0
C707 C 0.8552 0.54756 0.39125 0.0
C708 C 0.87665 0.56463 0.40326 0.0
C709 C 0.88627 0.58316 0.37662 0.0
C710 C 0.87514 0.5839 0.33683 0.0
C711 C 0.8901 0.56112 0.43822 0.0
C712 C 0.90874 0.56107 0.42364 0.0
C713 C 0.88333 0.55496 0.48301 0.0
C714 C 0.86451 0.55604 0.50116 0.0
C715 C 0.86309 0.57546 0.49843 0.0
C716 C 0.84538 0.57645 0.51565 0.0
C717 C 0.82902 0.55816 0.53593 0.0
C718 C 0.83034 0.53885 0.53908 0.0
C719 C 0.84799 0.53775 0.52185 0.0
C720 C 0.95107 0.54282 0.58119 0.0
C721 C 0.95322 0.52556 0.5595 0.0
C722 C 0.936 0.54834 0.56301 0.0
C723 C 0.92295 0.53661 0.52318 0.0
C724 C 0.92293 0.51751 0.50551 0.0
C725 C 0.93794 0.51197 0.52361 0.0
C726 C 0.91263 0.54645 0.49515 0.0
C727 C 0.89476 0.54765 0.51103 0.0
C728 C 0.92017 0.55395 0.45156 0.0
C729 C 0.93964 0.55401 0.43381 0.0
C730 C 0.93774 0.54209 0.39209 0.0
C731 C 0.956 0.5421 0.37528 0.0
C732 C 0.97628 0.55402 0.39983 0.0
C733 C 0.97836 0.56599 0.44123 0.0
C734 C 0.96016 0.5661 0.45812 0.0
H735 H 0.99037 0.55405 0.38657 0.0
H736 H 0.81533 0.55897 0.54928 0.0
H737 H 0.32175 0.89894 0.22068 0.0
H738 H 0.34889 0.91966 0.28453 0.0
H739 H 0.34276 0.85841 0.32864 0.0
H740 H 0.31511 0.83755 0.26605 0.0
H741 H 0.34575 0.88504 0.40165 0.0
H742 H 0.38479 0.89208 0.26621 0.0
H743 H 0.39422 0.90101 0.18633 0.0
H744 H 0.41165 0.96892 0.21963 0.0
H745 H 0.40203 0.96032 0.29961 0.0
H746 H 0.44934 0.93277 0.53282 0.0
H747 H 0.41573 0.91109 0.48291 0.0
H748 H 0.42339 0.97197 0.4323 0.0
H749 H 0.45728 0.99332 0.48024 0.0
H750 H 0.41878 0.94489 0.36389 0.0
H751 H 0.38067 0.93724 0.5027 0.0
H752 H 0.37333 0.92743 0.58299 0.0
H753 H 0.35614 0.86009 0.54385 0.0
H754 H 0.36344 0.8695 0.46364 0.0
C755 C 0.32605 0.88988 0.24421 0.0
C756 C 0.31653 0.86665 0.23783 0.0
C757 C 0.34162 0.90174 0.28055 0.0
C758 C 0.34804 0.89059 0.31103 0.0
C759 C 0.33812 0.86736 0.30549 0.0
C760 C 0.32254 0.85551 0.26927 0.0
C761 C 0.36578 0.90321 0.34744 0.0
C762 C 0.36177 0.89808 0.39345 0.0
C763 C 0.38663 0.92027 0.3368 0.0
C764 C 0.39246 0.92549 0.28874 0.0
C765 C 0.39046 0.90888 0.2564 0.0
C766 C 0.39587 0.91388 0.21113 0.0
C767 C 0.40347 0.9355 0.19788 0.0
C768 C 0.40573 0.95217 0.22992 0.0
C769 C 0.40031 0.94724 0.27523 0.0
C770 C 0.44342 0.94141 0.51186 0.0
C771 C 0.45574 0.96457 0.51 0.0
C772 C 0.42425 0.92908 0.4834 0.0
C773 C 0.41701 0.93991 0.45374 0.0
C774 C 0.42869 0.96323 0.45454 0.0
C775 C 0.44796 0.97541 0.48207 0.0
C776 C 0.39871 0.92717 0.41845 0.0
C777 C 0.40269 0.93212 0.37239 0.0
C778 C 0.37795 0.90993 0.42917 0.0
C779 C 0.37271 0.9041 0.47719 0.0
C780 C 0.37533 0.92034 0.51129 0.0
C781 C 0.37116 0.91485 0.55683 0.0
C782 C 0.36428 0.89314 0.56864 0.0
C783 C 0.3614 0.87687 0.53484 0.0
C784 C 0.36549 0.88226 0.48928 0.0
H785 H 0.36118 0.88894 0.60393 0.0
H786 H 0.40765 0.93935 0.16281 0.0
H787 H 0.51619 0.32388 0.29583 0.0
H788 H 0.52283 0.35922 0.33183 0.0
H789 H 0.45335 0.33339 0.33311 0.0
H790 H 0.44659 0.2989 0.2934 0.0
H791 H 0.47102 0.3739 0.31378 0.0
H792 H 0.48741 0.33594 0.43081 0.0
H793 H 0.50635 0.31774 0.46493 0.0
H794 H 0.56816 0.37731 0.45666 0.0
H795 H 0.54955 0.39579 0.422 0.0
H796 H 0.4618 0.42902 0.51648 0.0
H797 H 0.4612 0.40451 0.45299 0.0
H798 H 0.53037 0.44749 0.44238 0.0
H799 H 0.53111 0.4721 0.50556 0.0
H800 H 0.51782 0.40331 0.45885 0.0
H801 H 0.49857 0.44271 0.35473 0.0
H802 H 0.47777 0.45995 0.32569 0.0
H803 H 0.41893 0.39629 0.31486 0.0
H804 H 0.43931 0.37868 0.34451 0.0
C805 C 0.5023 0.32579 0.30302 0.0
C806 C 0.48081 0.30828 0.29208 0.0
C807 C 0.50614 0.34598 0.32419 0.0
C808 C 0.4886 0.34887 0.33607 0.0
C809 C 0.46719 0.33159 0.32452 0.0
C810 C 0.46334 0.31164 0.30248 0.0
C811 C 0.49229 0.36954 0.3617 0.0
C812 C 0.48115 0.38024 0.34566 0.0
C813 C 0.50598 0.37825 0.40268 0.0
C814 C 0.51714 0.36715 0.4234 0.0
C815 C 0.50505 0.3451 0.436 0.0
C816 C 0.51571 0.33475 0.45547 0.0
C817 C 0.53845 0.34635 0.46284 0.0
C818 C 0.55056 0.36835 0.45086 0.0
C819 C 0.53997 0.37877 0.43134 0.0
C820 C 0.47676 0.43358 0.49978 0.0
C821 C 0.49651 0.45246 0.51614 0.0
C822 C 0.47638 0.41961 0.46342 0.0
C823 C 0.49576 0.42422 0.44313 0.0
C824 C 0.51525 0.44373 0.45755 0.0
C825 C 0.51559 0.45784 0.49349 0.0
C826 C 0.49608 0.40718 0.41157 0.0
C827 C 0.50798 0.39718 0.42655 0.0
C828 C 0.48279 0.3989 0.37021 0.0
C829 C 0.47046 0.40939 0.35216 0.0
C830 C 0.48116 0.4324 0.34652 0.0
C831 C 0.46945 0.44224 0.32987 0.0
C832 C 0.44703 0.42923 0.31851 0.0
C833 C 0.43629 0.40634 0.32368 0.0
C834 C 0.44793 0.39642 0.34035 0.0
H835 H 0.43799 0.43688 0.30563 0.0
H836 H 0.54667 0.33831 0.47793 0.0
H837 H 0.50707 0.83672 0.9819 0.0
H838 H 0.50086 0.86234 0.93882 0.0
H839 H 0.57029 0.90767 0.94183 0.0
H840 H 0.57667 0.88324 0.98944 0.0
H841 H 0.55024 0.93051 0.93457 0.0
H842 H 0.54325 0.86475 0.85685 0.0
H843 H 0.52863 0.82434 0.84495 0.0
H844 H 0.46395 0.81401 0.81982 0.0
H845 H 0.47818 0.85441 0.83272 0.0
H846 H 0.56337 0.96616 0.70677 0.0
H847 H 0.56299 0.94804 0.77703 0.0
H848 H 0.4934 0.921 0.77914 0.0
H849 H 0.49367 0.93939 0.709 0.0
H850 H 0.50964 0.88974 0.78757 0.0
H851 H 0.52201 0.96016 0.85177 0.0
H852 H 0.54104 0.00116 0.85821 0.0
H853 H 0.6007 0.00354 0.90238 0.0
H854 H 0.58229 0.96258 0.89456 0.0
C855 C 0.52109 0.85253 0.97546 0.0
C856 C 0.54251 0.85745 0.98814 0.0
C857 C 0.51746 0.86711 0.95016 0.0
C858 C 0.53514 0.88646 0.93541 0.0
C859 C 0.55637 0.89261 0.95204 0.0
C860 C 0.56 0.87836 0.97863 0.0
C861 C 0.53181 0.89835 0.89762 0.0
C862 C 0.54136 0.92161 0.90246 0.0
C863 C 0.52024 0.88674 0.85557 0.0
C864 C 0.51173 0.86255 0.84626 0.0
C865 C 0.5259 0.85385 0.84894 0.0
C866 C 0.51768 0.83094 0.84206 0.0
C867 C 0.49536 0.81659 0.83169 0.0
C868 C 0.48123 0.82515 0.82796 0.0
C869 C 0.48936 0.84805 0.83511 0.0
C870 C 0.54798 0.95633 0.72213 0.0
C871 C 0.52852 0.95408 0.70236 0.0
C872 C 0.54783 0.94615 0.76239 0.0
C873 C 0.5282 0.93338 0.78325 0.0
C874 C 0.5087 0.93093 0.76351 0.0
C875 C 0.50889 0.94143 0.72359 0.0
C876 C 0.52807 0.92179 0.82457 0.0
C877 C 0.51804 0.89857 0.82011 0.0
C878 C 0.53976 0.93355 0.86625 0.0
C879 C 0.55077 0.95823 0.87219 0.0
C880 C 0.53925 0.96941 0.8624 0.0
C881 C 0.54995 0.99267 0.86622 0.0
C882 C 0.57212 0.00496 0.8804 0.0
C883 C 0.58359 0.99401 0.89103 0.0
C884 C 0.57302 0.97076 0.88691 0.0
H885 H 0.5804 0.02297 0.88329 0.0
H886 H 0.48899 0.79884 0.82652 0.0
H887 H 0.69784 0.50238 0.93356 0.0
H888 H 0.6728 0.49591 0.86778 0.0
H889 H 0.72637 0.54311 0.79358 0.0
H890 H 0.75178 0.54946 0.8594 0.0
H891 H 0.6927 0.55113 0.79107 0.0
H892 H 0.70094 0.48878 0.75648 0.0
H893 H 0.70365 0.45554 0.7714 0.0
H894 H 0.63771 0.42217 0.81245 0.0
H895 H 0.63469 0.45531 0.79847 0.0
H896 H 0.59974 0.52459 0.63907 0.0
H897 H 0.63501 0.52688 0.65813 0.0
H898 H 0.60739 0.48629 0.77227 0.0
H899 H 0.57257 0.48396 0.75358 0.0
H900 H 0.63521 0.476 0.72866 0.0
H901 H 0.63321 0.54266 0.78711 0.0
H902 H 0.63013 0.57599 0.77543 0.0
H903 H 0.68452 0.60083 0.68993 0.0
H904 H 0.68773 0.56746 0.70073 0.0
C905 C 0.70445 0.51101 0.90294 0.0
C906 C 0.72685 0.5264 0.90179 0.0
C907 C 0.69008 0.5073 0.86527 0.0
C908 C 0.69776 0.51879 0.82549 0.0
C909 C 0.72013 0.53399 0.82387 0.0
C910 C 0.73458 0.53768 0.8616 0.0
C911 C 0.68192 0.51606 0.7876 0.0
C912 C 0.68053 0.53477 0.77625 0.0
C913 C 0.66601 0.49472 0.76828 0.0
C914 C 0.66762 0.4746 0.77645 0.0
C915 C 0.68705 0.47441 0.76891 0.0
C916 C 0.68863 0.45557 0.77719 0.0
C917 C 0.67087 0.43676 0.79287 0.0
C918 C 0.65146 0.43674 0.80024 0.0
C919 C 0.64978 0.45554 0.79204 0.0
C920 C 0.60117 0.51582 0.66758 0.0
C921 C 0.58356 0.50439 0.69528 0.0
C922 C 0.62128 0.51716 0.67846 0.0
C923 C 0.62383 0.50688 0.71683 0.0
C924 C 0.6058 0.4943 0.74248 0.0
C925 C 0.58594 0.49316 0.73199 0.0
C926 C 0.64547 0.51088 0.73435 0.0
C927 C 0.64794 0.49242 0.74191 0.0
C928 C 0.66235 0.53241 0.7503 0.0
C929 C 0.66054 0.5525 0.74424 0.0
C930 C 0.64442 0.55518 0.76561 0.0
C931 C 0.64266 0.57407 0.75917 0.0
C932 C 0.65707 0.59048 0.73183 0.0
C933 C 0.67333 0.58807 0.711 0.0
C934 C 0.67513 0.56918 0.71725 0.0
H935 H 0.65568 0.6051 0.72688 0.0
H936 H 0.67213 0.42219 0.79928 0.0
H937 H 0.21864 0.70126 0.90362 0.0
H938 H 0.19293 0.6635 0.87102 0.0
H939 H 0.14008 0.6774 0.87885 0.0
H940 H 0.16529 0.71456 0.91285 0.0
H941 H 0.12956 0.63871 0.91413 0.0
H942 H 0.1622 0.67543 0.77659 0.0
H943 H 0.19275 0.69629 0.72767 0.0
H944 H 0.20926 0.64464 0.73062 0.0
H945 H 0.17894 0.62359 0.78007 0.0
H946 H 0.0463 0.57508 0.74726 0.0
H947 H 0.07567 0.60018 0.80308 0.0
H948 H 0.10981 0.56429 0.77622 0.0
H949 H 0.08008 0.5388 0.72021 0.0
H950 H 0.13412 0.60798 0.76106 0.0
H951 H 0.09535 0.56775 0.88491 0.0
H952 H 0.06349 0.54688 0.93057 0.0
H953 H 0.05745 0.60507 0.95205 0.0
H954 H 0.08906 0.62619 0.90594 0.0
C955 C 0.20157 0.69631 0.89801 0.0
C956 C 0.19409 0.71103 0.9107 0.0
C957 C 0.18691 0.67475 0.8793 0.0
C958 C 0.16458 0.66762 0.87269 0.0
C959 C 0.15723 0.68251 0.8839 0.0
C960 C 0.17179 0.70395 0.90265 0.0
C961 C 0.14854 0.64459 0.85487 0.0
C962 C 0.1305 0.63196 0.88064 0.0
C963 C 0.15028 0.63542 0.81208 0.0
C964 C 0.16852 0.6481 0.78253 0.0
C965 C 0.17248 0.66863 0.76716 0.0
C966 C 0.18972 0.68046 0.73926 0.0
C967 C 0.20299 0.67184 0.72619 0.0
C968 C 0.199 0.65132 0.74088 0.0
C969 C 0.1818 0.63943 0.76883 0.0
C970 C 0.05971 0.57206 0.7544 0.0
C971 C 0.06106 0.55517 0.72923 0.0
C972 C 0.07645 0.58635 0.78652 0.0
C973 C 0.09494 0.58409 0.79391 0.0
C974 C 0.09562 0.56622 0.7712 0.0
C975 C 0.07861 0.55163 0.73941 0.0
C976 C 0.11459 0.60251 0.81939 0.0
C977 C 0.1334 0.61434 0.79519 0.0
C978 C 0.11348 0.61101 0.86349 0.0
C979 C 0.09454 0.5985 0.89169 0.0
C980 C 0.08712 0.57603 0.89906 0.0
C981 C 0.06913 0.56418 0.9251 0.0
C982 C 0.05845 0.57464 0.94418 0.0
C983 C 0.06576 0.59699 0.9373 0.0
C984 C 0.08375 0.60893 0.91127 0.0
H985 H 0.04453 0.56543 0.96437 0.0
H986 H 0.21632 0.68102 0.70457 0.0
H987 H 0.4128 0.11205 0.96231 0.0
H988 H 0.41984 0.08346 0.92939 0.0
H989 H 0.42367 0.06266 0.06483 0.0
H990 H 0.41677 0.09147 0.09821 0.0
H991 H 0.46424 0.08896 0.98515 0.0
H992 H 0.40238 0.99869 0.0037 0.0
H993 H 0.36311 0.97395 0.01343 0.0
H994 H 0.34788 0.01657 0.93723 0.0
H995 H 0.38696 0.0413 0.92641 0.0
H996 H 0.4735 0.99448 0.84718 0.0
H997 H 0.46131 0.00629 0.91541 0.0
H998 H 0.46509 0.06122 0.84442 0.0
H999 H 0.47692 0.04954 0.77671 0.0
H1000 H 0.42281 0.0112 0.91706 0.0
H1001 H 0.48691 0.10592 0.91762 0.0
H1002 H 0.5261 0.12949 0.90611 0.0
H1003 H 0.53764 0.07706 0.94465 0.0
H1004 H 0.49857 0.05328 0.95711 0.0
C1005 C 0.41431 0.10082 0.98487 0.0
C1006 C 0.4144 0.10399 0.03269 0.0
C1007 C 0.41822 0.08447 0.96609 0.0
C1008 C 0.42211 0.07095 0.99478 0.0
C1009 C 0.42033 0.07274 0.04224 0.0
C1010 C 0.41636 0.08914 0.06116 0.0
C1011 C 0.4328 0.05913 0.97582 0.0
C1012 C 0.45529 0.07188 0.9706 0.0
C1013 C 0.42116 0.03663 0.95873 0.0
C1014 C 0.39763 0.02212 0.96525 0.0
C1015 C 0.39064 0.00281 0.98922 0.0
C1016 C 0.36841 0.98875 0.99479 0.0
C1017 C 0.35303 0.99377 0.97624 0.0
C1018 C 0.35983 0.01281 0.95192 0.0
C1019 C 0.38203 0.0269 0.94622 0.0
C1020 C 0.47202 0.00926 0.84659 0.0
C1021 C 0.47611 0.02112 0.80676 0.0
C1022 C 0.46497 0.01586 0.88533 0.0
C1023 C 0.46247 0.03466 0.88484 0.0
C1024 C 0.46714 0.04679 0.84554 0.0
C1025 C 0.47382 0.04006 0.80685 0.0
C1026 C 0.45399 0.04153 0.92389 0.0
C1027 C 0.43201 0.02797 0.93312 0.0
C1028 C 0.4661 0.06335 0.94486 0.0
C1029 C 0.48974 0.07778 0.93824 0.0
C1030 C 0.49781 0.09947 0.92404 0.0
C1031 C 0.52002 0.11286 0.91724 0.0
C1032 C 0.53435 0.10477 0.92461 0.0
C1033 C 0.52651 0.08329 0.93887 0.0
C1034 C 0.50433 0.06984 0.94575 0.0
H1035 H 0.55152 0.11516 0.91927 0.0
H1036 H 0.33583 0.98285 0.98052 0.0
H1037 H 0.29634 0.47086 0.90974 0.0
H1038 H 0.32333 0.47509 0.85475 0.0
H1039 H 0.37526 0.51334 0.95909 0.0
H1040 H 0.34838 0.50971 0.01351 0.0
H1041 H 0.3876 0.53129 0.8822 0.0
H1042 H 0.35538 0.45617 0.92737 0.0
H1043 H 0.32539 0.41833 0.93857 0.0
H1044 H 0.30743 0.40764 0.79373 0.0
H1045 H 0.33716 0.44556 0.78176 0.0
H1046 H 0.47278 0.51683 0.79855 0.0
H1047 H 0.44437 0.51916 0.83841 0.0
H1048 H 0.39764 0.48055 0.72556 0.0
H1049 H 0.42607 0.47775 0.68563 0.0
H1050 H 0.38113 0.46408 0.80015 0.0
H1051 H 0.41768 0.53969 0.7566 0.0
H1052 H 0.44818 0.5777 0.74921 0.0
H1053 H 0.46047 0.58709 0.89583 0.0
H1054 H 0.42971 0.54929 0.90404 0.0
C1055 C 0.31353 0.48022 0.92082 0.0
C1056 C 0.32022 0.48995 0.96597 0.0
C1057 C 0.32897 0.48259 0.88941 0.0
C1058 C 0.35144 0.49427 0.90278 0.0
C1059 C 0.3581 0.50431 0.94769 0.0
C1060 C 0.3427 0.50223 0.97884 0.0
C1061 C 0.36803 0.49567 0.87064 0.0
C1062 C 0.38627 0.51657 0.86453 0.0
C1063 C 0.36618 0.47657 0.84664 0.0
C1064 C 0.34832 0.45378 0.85376 0.0
C1065 C 0.34493 0.44581 0.89797 0.0
C1066 C 0.328 0.42434 0.90445 0.0
C1067 C 0.31447 0.41062 0.86691 0.0
C1068 C 0.31789 0.41831 0.82279 0.0
C1069 C 0.33478 0.43978 0.81613 0.0
C1070 C 0.45659 0.50921 0.78156 0.0
C1071 C 0.45178 0.49702 0.73878 0.0
C1072 C 0.44029 0.51071 0.80442 0.0
C1073 C 0.41877 0.50038 0.78488 0.0
C1074 C 0.4141 0.48888 0.74134 0.0
C1075 C 0.43041 0.48727 0.71848 0.0
C1076 C 0.40088 0.49972 0.81184 0.0
C1077 C 0.38238 0.4789 0.81717 0.0
C1078 C 0.40271 0.51889 0.83565 0.0
C1079 C 0.42137 0.54159 0.8308 0.0
C1080 C 0.42687 0.54984 0.78718 0.0
C1081 C 0.4442 0.57136 0.78287 0.0
C1082 C 0.45636 0.58474 0.82198 0.0
C1083 C 0.45106 0.5767 0.86553 0.0
C1084 C 0.43358 0.55527 0.87002 0.0
H1085 H 0.46985 0.60135 0.81854 0.0
H1086 H 0.30138 0.394 0.87199 0.0
H1087 H 0.83373 0.30532 0.9399 0.0
H1088 H 0.8641 0.33239 0.89826 0.0
H1089 H 0.90624 0.31074 0.95898 0.0
H1090 H 0.8762 0.28424 0.00197 0.0
H1091 H 0.92668 0.35504 0.96104 0.0
H1092 H 0.88572 0.29446 0.84824 0.0
H1093 H 0.8528 0.26638 0.80199 0.0
H1094 H 0.84552 0.31822 0.74363 0.0
H1095 H 0.87825 0.34663 0.79003 0.0
H1096 H 0.98466 0.39404 0.72983 0.0
H1097 H 0.95952 0.36587 0.77841 0.0
H1098 H 0.96066 0.4173 0.86884 0.0
H1099 H 0.98628 0.44566 0.82095 0.0
H1100 H 0.91983 0.35634 0.79158 0.0
H1101 H 0.94766 0.39896 0.9759 0.0
H1102 H 0.98176 0.42502 0.02149 0.0
H1103 H 0.01797 0.40531 0.93517 0.0
H1104 H 0.98406 0.37892 0.88946 0.0
C1105 C 0.84948 0.30638 0.94449 0.0
C1106 C 0.8525 0.29251 0.97399 0.0
C1107 C 0.86678 0.32175 0.92046 0.0
C1108 C 0.88738 0.32344 0.92522 0.0
C1109 C 0.89047 0.30968 0.95474 0.0
C1110 C 0.8732 0.29435 0.97883 0.0
C1111 C 0.90574 0.33957 0.89944 0.0
C1112 C 0.92522 0.35534 0.92397 0.0
C1113 C 0.90396 0.33969 0.85104 0.0
C1114 C 0.88433 0.32266 0.82291 0.0
C1115 C 0.87701 0.29987 0.82579 0.0
C1116 C 0.8584 0.2839 0.79951 0.0
C1117 C 0.84704 0.29051 0.76997 0.0
C1118 C 0.85431 0.31312 0.76657 0.0
C1119 C 0.87291 0.32917 0.79281 0.0
C1120 C 0.97988 0.3994 0.76052 0.0
C1121 C 0.9874 0.42209 0.77142 0.0
C1122 C 0.96545 0.38326 0.78818 0.0
C1123 C 0.95814 0.38942 0.82723 0.0
C1124 C 0.96628 0.41213 0.83925 0.0
C1125 C 0.98093 0.42834 0.81179 0.0
C1126 C 0.9408 0.37202 0.85314 0.0
C1127 C 0.9214 0.35605 0.82863 0.0
C1128 C 0.94286 0.37146 0.90143 0.0
C1129 C 0.96333 0.38712 0.929 0.0
C1130 C 0.96289 0.40012 0.96676 0.0
C1131 C 0.98219 0.41497 0.9926 0.0
C1132 C 0.00203 0.41687 0.98114 0.0
C1133 C 0.0026 0.40388 0.9439 0.0
C1134 C 0.98335 0.389 0.91797 0.0
H1135 H 0.01695 0.42838 0.00117 0.0
H1136 H 0.83263 0.27812 0.74965 0.0
H1137 H 0.85215 0.56123 0.86889 0.0
H1138 H 0.87734 0.55627 0.82032 0.0
H1139 H 0.87668 0.50817 0.90988 0.0
H1140 H 0.85164 0.513 0.95823 0.0
H1141 H 0.91888 0.54148 0.89038 0.0
H1142 H 0.84868 0.49121 0.80888 0.0
H1143 H 0.81401 0.48212 0.76719 0.0
H1144 H 0.84931 0.52801 0.66634 0.0
H1145 H 0.88421 0.53764 0.70789 0.0
H1146 H 0.96808 0.48917 0.78006 0.0
H1147 H 0.94187 0.49702 0.81566 0.0
H1148 H 0.94096 0.53301 0.69947 0.0
H1149 H 0.96679 0.52446 0.66297 0.0
H1150 H 0.90138 0.5109 0.72792 0.0
H1151 H 0.97066 0.56054 0.80152 0.0
H1152 H 0.00665 0.5726 0.84062 0.0
H1153 H 0.97556 0.53322 0.95342 0.0
H1154 H 0.93936 0.52062 0.91467 0.0
C1155 C 0.85731 0.54952 0.87797 0.0
C1156 C 0.84975 0.53736 0.91716 0.0
C1157 C 0.87162 0.54665 0.85015 0.0
C1158 C 0.87882 0.53178 0.86138 0.0
C1159 C 0.8713 0.51968 0.90048 0.0
C1160 C 0.85684 0.52232 0.92787 0.0
C1161 C 0.8947 0.52913 0.83355 0.0
C1162 C 0.91499 0.53461 0.85498 0.0
C1163 C 0.89004 0.52116 0.7867 0.0
C1164 C 0.86905 0.51536 0.76184 0.0
C1165 C 0.84905 0.49954 0.7781 0.0
C1166 C 0.82936 0.49425 0.75443 0.0
C1167 C 0.82946 0.50454 0.71424 0.0
C1168 C 0.84926 0.5201 0.69755 0.0
C1169 C 0.869 0.52547 0.72114 0.0
C1170 C 0.96229 0.49869 0.76181 0.0
C1171 C 0.96986 0.50647 0.71867 0.0
C1172 C 0.94732 0.50327 0.78241 0.0
C1173 C 0.93984 0.51618 0.76098 0.0
C1174 C 0.94661 0.52319 0.71701 0.0
C1175 C 0.96143 0.51831 0.69605 0.0
C1176 C 0.92533 0.52254 0.78526 0.0
C1177 C 0.9054 0.51793 0.76319 0.0
C1178 C 0.93052 0.53186 0.83129 0.0
C1179 C 0.95227 0.5395 0.85499 0.0
C1180 C 0.97148 0.55432 0.83452 0.0
C1181 C 0.99193 0.56127 0.85664 0.0
C1182 C 0.99339 0.55365 0.89943 0.0
C1183 C 0.9744 0.5391 0.92025 0.0
C1184 C 0.95391 0.53206 0.89824 0.0
H1185 H 0.00923 0.55906 0.9165 0.0
H1186 H 0.81419 0.50042 0.69595 0.0
H1187 H 0.3331 0.85021 0.96837 0.0
H1188 H 0.35673 0.86836 0.90606 0.0
H1189 H 0.30172 0.86286 0.8256 0.0
H1190 H 0.27798 0.84456 0.88772 0.0
H1191 H 0.32621 0.85021 0.77464 0.0
H1192 H 0.33799 0.91203 0.87331 0.0
H1193 H 0.34661 0.93575 0.94504 0.0
H1194 H 0.41024 0.9424 0.95807 0.0
H1195 H 0.40192 0.91847 0.88674 0.0
H1196 H 0.40839 0.94822 0.64834 0.0
H1197 H 0.37566 0.92207 0.68557 0.0
H1198 H 0.41112 0.89317 0.74707 0.0
H1199 H 0.44366 0.91872 0.70952 0.0
H1200 H 0.39338 0.92396 0.80182 0.0
H1201 H 0.37846 0.85804 0.70454 0.0
H1202 H 0.36835 0.83454 0.63214 0.0
H1203 H 0.30934 0.83743 0.61492 0.0
H1204 H 0.31931 0.86131 0.68691 0.0
C1205 C 0.32605 0.85283 0.93736 0.0
C1206 C 0.30373 0.84605 0.93296 0.0
C1207 C 0.33957 0.86332 0.90193 0.0
C1208 C 0.33099 0.86711 0.86136 0.0
C1209 C 0.30867 0.86015 0.85667 0.0
C1210 C 0.29518 0.84986 0.89228 0.0
C1211 C 0.34538 0.87808 0.82373 0.0
C1212 C 0.34075 0.86648 0.78039 0.0
C1213 C 0.36434 0.89928 0.83126 0.0
C1214 C 0.36923 0.91323 0.87488 0.0
C1215 C 0.35373 0.91832 0.89175 0.0
C1216 C 0.35858 0.93187 0.93227 0.0
C1217 C 0.37893 0.94051 0.95617 0.0
C1218 C 0.39447 0.93565 0.93957 0.0
C1219 C 0.3897 0.92211 0.89907 0.0
C1220 C 0.40897 0.93562 0.66799 0.0
C1221 C 0.42882 0.93594 0.67684 0.0
C1222 C 0.39022 0.9207 0.68929 0.0
C1223 C 0.39107 0.90582 0.71918 0.0
C1224 C 0.41012 0.90444 0.72383 0.0
C1225 C 0.42875 0.91917 0.70239 0.0
C1226 C 0.37454 0.8958 0.75343 0.0
C1227 C 0.37874 0.90775 0.7961 0.0
C1228 C 0.35518 0.87507 0.74511 0.0
C1229 C 0.34981 0.86176 0.7007 0.0
C1230 C 0.36355 0.85404 0.68488 0.0
C1231 C 0.35776 0.8405 0.6441 0.0
C1232 C 0.33818 0.83443 0.61906 0.0
C1233 C 0.32446 0.84208 0.63445 0.0
C1234 C 0.33019 0.85564 0.67519 0.0
H1235 H 0.33367 0.82384 0.58763 0.0
H1236 H 0.38268 0.95102 0.9875 0.0
H1237 H 0.44616 0.31398 0.08409 0.0
H1238 H 0.45126 0.34314 0.03298 0.0
H1239 H 0.48289 0.32037 0.93906 0.0
H1240 H 0.47757 0.29114 0.98921 0.0
H1241 H 0.50541 0.36527 0.95407 0.0
H1242 H 0.43121 0.30714 0.91576 0.0
H1243 H 0.39328 0.2805 0.93232 0.0
H1244 H 0.38445 0.33448 0.98152 0.0
H1245 H 0.42247 0.36143 0.96586 0.0
H1246 H 0.46508 0.40371 0.74573 0.0
H1247 H 0.45908 0.37639 0.80177 0.0
H1248 H 0.50309 0.42911 0.90109 0.0
H1249 H 0.50951 0.45655 0.84515 0.0
H1250 H 0.44278 0.36984 0.88511 0.0
H1251 H 0.531 0.41037 0.96535 0.0
H1252 H 0.5687 0.4351 0.94417 0.0
H1253 H 0.54903 0.41266 0.80207 0.0
H1254 H 0.5113 0.38758 0.82248 0.0
C1255 C 0.45406 0.31512 0.05239 0.0
C1256 C 0.4616 0.30035 0.04089 0.0
C1257 C 0.45703 0.33181 0.02335 0.0
C1258 C 0.46748 0.3339 0.98228 0.0
C1259 C 0.47499 0.31919 0.9708 0.0
C1260 C 0.47199 0.30253 0.99963 0.0
C1261 C 0.47049 0.35122 0.9507 0.0
C1262 C 0.49173 0.36636 0.93921 0.0
C1263 C 0.45261 0.35244 0.93089 0.0
C1264 C 0.42974 0.33628 0.94011 0.0
C1265 C 0.42123 0.31332 0.93046 0.0
C1266 C 0.39971 0.29816 0.93962 0.0
C1267 C 0.38648 0.30579 0.95808 0.0
C1268 C 0.39473 0.32859 0.9673 0.0
C1269 C 0.41626 0.34382 0.95826 0.0
C1270 C 0.47351 0.40954 0.77947 0.0
C1271 C 0.48791 0.43234 0.79075 0.0
C1272 C 0.46996 0.39389 0.81154 0.0
C1273 C 0.48077 0.4007 0.85544 0.0
C1274 C 0.49481 0.42347 0.86717 0.0
C1275 C 0.49844 0.43913 0.8351 0.0
C1276 C 0.47771 0.38392 0.88852 0.0
C1277 C 0.45648 0.3689 0.90035 0.0
C1278 C 0.49557 0.38256 0.90806 0.0
C1279 C 0.51829 0.39729 0.89543 0.0
C1280 C 0.53475 0.41066 0.92962 0.0
C1281 C 0.55612 0.42474 0.91774 0.0
C1282 C 0.56124 0.42551 0.87179 0.0
C1283 C 0.54502 0.41212 0.83763 0.0
C1284 C 0.52364 0.39798 0.84933 0.0
H1285 H 0.57778 0.43645 0.86266 0.0
H1286 H 0.36982 0.29403 0.96515 0.0
H1287 H 0.17532 0.44431 0.94193 0.0
H1288 H 0.15663 0.44711 0.87284 0.0
H1289 H 0.20432 0.51681 0.87193 0.0
H1290 H 0.22392 0.51404 0.93966 0.0
H1291 H 0.15815 0.50476 0.87063 0.0
H1292 H 0.20656 0.48673 0.79182 0.0
H1293 H 0.22428 0.46455 0.77552 0.0
H1294 H 0.16172 0.40692 0.73819 0.0
H1295 H 0.14359 0.42868 0.75495 0.0
H1296 H 0.10018 0.51516 0.68931 0.0
H1297 H 0.13347 0.51851 0.72563 0.0
H1298 H 0.10344 0.4469 0.71722 0.0
H1299 H 0.07078 0.44365 0.67804 0.0
H1300 H 0.14556 0.46387 0.71865 0.0
H1301 H 0.09664 0.47584 0.80993 0.0
H1302 H 0.07503 0.49365 0.8296 0.0
H1303 H 0.13375 0.55723 0.84967 0.0
H1304 H 0.15572 0.5398 0.82951 0.0
C1305 C 0.18224 0.46014 0.92653 0.0
C1306 C 0.20115 0.47898 0.94672 0.0
C1307 C 0.17144 0.4617 0.8871 0.0
C1308 C 0.17918 0.48214 0.86735 0.0
C1309 C 0.19814 0.5009 0.88681 0.0
C1310 C 0.20917 0.4993 0.92581 0.0
C1311 C 0.16644 0.48418 0.82856 0.0
C1312 C 0.15581 0.4963 0.837 0.0
C1313 C 0.16281 0.4724 0.78543 0.0
C1314 C 0.1737 0.45932 0.77497 0.0
C1315 C 0.19656 0.46929 0.78049 0.0
C1316 C 0.20668 0.45679 0.7711 0.0
C1317 C 0.19413 0.43433 0.75591 0.0
C1318 C 0.17143 0.42433 0.74998 0.0
C1319 C 0.16122 0.43674 0.75936 0.0
C1320 C 0.10113 0.50023 0.69345 0.0
C1321 C 0.08295 0.47915 0.68149 0.0
C1322 C 0.12006 0.50212 0.71446 0.0
C1323 C 0.12062 0.48293 0.72577 0.0
C1324 C 0.10334 0.46195 0.70927 0.0
C1325 C 0.08466 0.46008 0.68685 0.0
C1326 C 0.13718 0.48445 0.76068 0.0
C1327 C 0.14833 0.47283 0.75183 0.0
C1328 C 0.1408 0.4961 0.80416 0.0
C1329 C 0.12779 0.50657 0.8178 0.0
C1330 C 0.10494 0.49363 0.81847 0.0
C1331 C 0.09263 0.50364 0.82966 0.0
C1332 C 0.10301 0.52655 0.8408 0.0
C1333 C 0.12574 0.53948 0.84101 0.0
C1334 C 0.13814 0.52955 0.82972 0.0
H1335 H 0.09342 0.53425 0.84927 0.0
H1336 H 0.202 0.42468 0.74866 0.0
H1337 H 0.74674 0.15771 0.89791 0.0
H1338 H 0.71984 0.13196 0.83784 0.0
H1339 H 0.67514 0.15407 0.87685 0.0
H1340 H 0.70161 0.17943 0.93708 0.0
H1341 H 0.68146 0.09759 0.8499 0.0
H1342 H 0.64191 0.14954 0.78702 0.0
H1343 H 0.65366 0.18768 0.76569 0.0
H1344 H 0.71757 0.19815 0.74229 0.0
H1345 H 0.70613 0.15997 0.76281 0.0
H1346 H 0.57018 0.02943 0.78773 0.0
H1347 H 0.60659 0.05732 0.81897 0.0
H1348 H 0.62341 0.08192 0.68433 0.0
H1349 H 0.58654 0.0549 0.65358 0.0
H1350 H 0.63725 0.1151 0.74202 0.0
H1351 H 0.64356 0.0508 0.73597 0.0
H1352 H 0.63375 0.01201 0.7471 0.0
H1353 H 0.64145 0.02585 0.89349 0.0
H1354 H 0.65052 0.06449 0.88338 0.0
C1355 C 0.73125 0.15722 0.8934 0.0
C1356 C 0.72635 0.17064 0.92244 0.0
C1357 C 0.71594 0.14257 0.85893 0.0
C1358 C 0.69553 0.14119 0.85258 0.0
C1359 C 0.69094 0.15514 0.8804 0.0
C1360 C 0.70616 0.16971 0.91489 0.0
C1361 C 0.6781 0.12372 0.82042 0.0
C1362 C 0.67188 0.1014 0.82601 0.0
C1363 C 0.66605 0.12871 0.7881 0.0
C1364 C 0.6732 0.15192 0.7769 0.0
C1365 C 0.65847 0.15996 0.77731 0.0
C1366 C 0.66507 0.18159 0.76533 0.0
C1367 C 0.68636 0.19535 0.75277 0.0
C1368 C 0.7011 0.1875 0.75221 0.0
C1369 C 0.69458 0.16589 0.76414 0.0
C1370 C 0.58162 0.04071 0.76468 0.0
C1371 C 0.57548 0.03973 0.71789 0.0
C1372 C 0.60255 0.05655 0.78253 0.0
C1373 C 0.61795 0.0715 0.75388 0.0
C1374 C 0.6119 0.07049 0.70712 0.0
C1375 C 0.59086 0.05485 0.68941 0.0
C1376 C 0.63989 0.08894 0.77344 0.0
C1377 C 0.64697 0.11124 0.76541 0.0
C1378 C 0.65307 0.0839 0.8025 0.0
C1379 C 0.6476 0.06058 0.80887 0.0
C1380 C 0.64294 0.04553 0.77057 0.0
C1381 C 0.63747 0.02353 0.77671 0.0
C1382 C 0.63687 0.01643 0.82098 0.0
C1383 C 0.6418 0.03133 0.85921 0.0
C1384 C 0.64708 0.05329 0.8533 0.0
H1385 H 0.63264 -0.0006 0.82567 0.0
H1386 H 0.69142 0.21207 0.74339 0.0
H1387 H 0.57482 0.70316 0.83111 0.0
H1388 H 0.57063 0.68171 0.75998 0.0
H1389 H 0.50794 0.67593 0.728 0.0
H1390 H 0.51228 0.6981 0.7994 0.0
H1391 H 0.50461 0.63643 0.72395 0.0
H1392 H 0.54753 0.70052 0.65014 0.0
H1393 H 0.57674 0.73859 0.63808 0.0
H1394 H 0.62502 0.71914 0.65989 0.0
H1395 H 0.59619 0.68104 0.67263 0.0
H1396 H 0.5189 0.55139 0.63137 0.0
H1397 H 0.51357 0.58248 0.61418 0.0
H1398 H 0.57373 0.6274 0.69339 0.0
H1399 H 0.58 0.59653 0.70672 0.0
H1400 H 0.56608 0.64918 0.62893 0.0
H1401 H 0.51621 0.59486 0.74925 0.0
H1402 H 0.48706 0.55624 0.75853 0.0
H1403 H 0.4513 0.55808 0.6384 0.0
H1404 H 0.48013 0.59678 0.62889 0.0
C1405 C 0.56043 0.698 0.80843 0.0
C1406 C 0.54387 0.70232 0.82114 0.0
C1407 C 0.55808 0.68578 0.76746 0.0
C1408 C 0.53913 0.67754 0.73811 0.0
C1409 C 0.52279 0.68233 0.7499 0.0
C1410 C 0.52519 0.69475 0.79096 0.0
C1411 C 0.53539 0.66104 0.69988 0.0
C1412 C 0.51765 0.63941 0.70175 0.0
C1413 C 0.55197 0.66488 0.66973 0.0
C1414 C 0.5696 0.68782 0.66223 0.0
C1415 C 0.56438 0.70436 0.65258 0.0
C1416 C 0.58088 0.72597 0.64558 0.0
C1417 C 0.60272 0.73128 0.64819 0.0
C1418 C 0.60809 0.71499 0.65781 0.0
C1419 C 0.59165 0.69335 0.66474 0.0
C1420 C 0.5312 0.56797 0.64407 0.0
C1421 C 0.54961 0.57158 0.67135 0.0
C1422 C 0.52812 0.58575 0.63432 0.0
C1423 C 0.5428 0.60719 0.65388 0.0
C1424 C 0.56206 0.611 0.67799 0.0
C1425 C 0.56554 0.59335 0.68619 0.0
C1426 C 0.53674 0.62475 0.65765 0.0
C1427 C 0.55246 0.64654 0.64896 0.0
C1428 C 0.51811 0.62118 0.6808 0.0
C1429 C 0.50022 0.59858 0.68842 0.0
C1430 C 0.502 0.58704 0.72518 0.0
C1431 C 0.48559 0.56513 0.73033 0.0
C1432 C 0.46736 0.55468 0.69896 0.0
C1433 C 0.4654 0.56619 0.66267 0.0
C1434 C 0.4817 0.58813 0.65751 0.0
H1435 H 0.45467 0.53775 0.70292 0.0
H1436 H 0.61547 0.74801 0.64274 0.0
H1437 H 0.48148 0.18334 0.40207 0.0
H1438 H 0.49094 0.15899 0.44228 0.0
H1439 H 0.52442 0.154 0.32552 0.0
H1440 H 0.51359 0.17698 0.28374 0.0
H1441 H 0.50116 0.11513 0.35209 0.0
H1442 H 0.55234 0.18363 0.43171 0.0
H1443 H 0.56594 0.22018 0.47356 0.0
H1444 H 0.52388 0.18872 0.58209 0.0
H1445 H 0.50979 0.152 0.54063 0.0
H1446 H 0.53195 0.05213 0.50619 0.0
H1447 H 0.53677 0.08194 0.4568 0.0
H1448 H 0.48523 0.08636 0.52201 0.0
H1449 H 0.4799 0.05667 0.57011 0.0
H1450 H 0.52701 0.12848 0.51677 0.0
H1451 H 0.4722 0.06095 0.42603 0.0
H1452 H 0.46028 0.02479 0.3839 0.0
H1453 H 0.51317 0.05624 0.29555 0.0
H1454 H 0.52561 0.09255 0.33773 0.0
C1455 C 0.49093 0.17716 0.38494 0.0
C1456 C 0.49681 0.18226 0.33967 0.0
C1457 C 0.49661 0.16344 0.40826 0.0
C1458 C 0.50876 0.1549 0.38732 0.0
C1459 C 0.51518 0.16046 0.34258 0.0
C1460 C 0.50921 0.17391 0.31896 0.0
C1461 C 0.51332 0.13895 0.41101 0.0
C1462 C 0.50736 0.11835 0.38778 0.0
C1463 C 0.52143 0.14299 0.4576 0.0
C1464 C 0.52994 0.16505 0.48289 0.0
C1465 C 0.5459 0.18451 0.46437 0.0
C1466 C 0.5537 0.20526 0.48805 0.0
C1467 C 0.54576 0.20677 0.53043 0.0
C1468 C 0.53003 0.18752 0.54927 0.0
C1469 C 0.52215 0.16673 0.52573 0.0
C1470 C 0.52152 0.0593 0.50962 0.0
C1471 C 0.5055 0.05191 0.54209 0.0
C1472 C 0.52435 0.07636 0.48155 0.0
C1473 C 0.51144 0.08638 0.4862 0.0
C1474 C 0.49544 0.07892 0.51822 0.0
C1475 C 0.49236 0.06179 0.54553 0.0
C1476 C 0.51418 0.10473 0.4582 0.0
C1477 C 0.52148 0.12571 0.48068 0.0
C1478 C 0.50764 0.10117 0.4109 0.0
C1479 C 0.50001 0.07939 0.38541 0.0
C1480 C 0.48141 0.06011 0.39792 0.0
C1481 C 0.47453 0.0396 0.37398 0.0
C1482 C 0.486 0.03821 0.33717 0.0
C1483 C 0.50433 0.05734 0.32414 0.0
C1484 C 0.51131 0.07788 0.34805 0.0
H1485 H 0.48065 0.02231 0.31866 0.0
H1486 H 0.55182 0.22285 0.54869 0.0
H1487 H 0.34036 0.51899 0.34879 0.0
H1488 H 0.36806 0.52462 0.40807 0.0
H1489 H 0.3276 0.45753 0.44703 0.0
H1490 H 0.29934 0.45179 0.3879 0.0
H1491 H 0.35372 0.49319 0.52389 0.0
H1492 H 0.36065 0.4606 0.38094 0.0
H1493 H 0.36132 0.45742 0.29659 0.0
H1494 H 0.4165 0.5236 0.3002 0.0
H1495 H 0.4159 0.52732 0.38458 0.0
H1496 H 0.44727 0.48349 0.60584 0.0
H1497 H 0.41213 0.47966 0.57987 0.0
H1498 H 0.44608 0.53999 0.50927 0.0
H1499 H 0.48103 0.54366 0.53475 0.0
H1500 H 0.42045 0.50392 0.45164 0.0
H1501 H 0.41357 0.53717 0.59331 0.0
H1502 H 0.41161 0.54223 0.67664 0.0
H1503 H 0.35696 0.47582 0.67633 0.0
H1504 H 0.35868 0.47037 0.59274 0.0
C1505 C 0.337 0.50561 0.37078 0.0
C1506 C 0.31771 0.48489 0.36355 0.0
C1507 C 0.35287 0.50886 0.40457 0.0
C1508 C 0.34983 0.49145 0.4316 0.0
C1509 C 0.33012 0.47115 0.42648 0.0
C1510 C 0.31416 0.46784 0.39244 0.0
C1511 C 0.3685 0.49379 0.46033 0.0
C1512 C 0.36824 0.49517 0.50837 0.0
C1513 C 0.3874 0.49664 0.4397 0.0
C1514 C 0.38811 0.4943 0.38904 0.0
C1515 C 0.37282 0.47454 0.36372 0.0
C1516 C 0.3732 0.47263 0.31591 0.0
C1517 C 0.38891 0.49031 0.29305 0.0
C1518 C 0.40432 0.50992 0.31797 0.0
C1519 C 0.40398 0.51193 0.36579 0.0
C1520 C 0.44717 0.49637 0.58644 0.0
C1521 C 0.46668 0.5137 0.57172 0.0
C1522 C 0.42712 0.49416 0.57154 0.0
C1523 C 0.42655 0.50941 0.54219 0.0
C1524 C 0.4462 0.52795 0.53157 0.0
C1525 C 0.46611 0.53002 0.54601 0.0
C1526 C 0.40614 0.50407 0.51567 0.0
C1527 C 0.40598 0.50184 0.46759 0.0
C1528 C 0.38697 0.50041 0.53646 0.0
C1529 C 0.38642 0.50329 0.5869 0.0
C1530 C 0.40133 0.52354 0.61112 0.0
C1531 C 0.40019 0.52651 0.65839 0.0
C1532 C 0.38416 0.50934 0.68185 0.0
C1533 C 0.36933 0.48912 0.65808 0.0
C1534 C 0.37037 0.48609 0.61075 0.0
H1535 H 0.38317 0.51165 0.71842 0.0
H1536 H 0.38919 0.48878 0.25605 0.0
H1537 H 0.89611 0.31968 0.20716 0.0
H1538 H 0.9242 0.35126 0.25419 0.0
H1539 H 0.88642 0.38429 0.24597 0.0
H1540 H 0.85902 0.35364 0.19455 0.0
H1541 H 0.93009 0.41468 0.26149 0.0
H1542 H 0.8765 0.34828 0.32679 0.0
H1543 H 0.85556 0.30762 0.3321 0.0
H1544 H 0.91472 0.30734 0.36881 0.0
H1545 H 0.93608 0.34797 0.36267 0.0
H1546 H 0.96241 0.46498 0.49503 0.0
H1547 H 0.94333 0.4462 0.42069 0.0
H1548 H 0.97759 0.40932 0.41858 0.0
H1549 H 0.99625 0.42755 0.49266 0.0
H1550 H 0.93467 0.38245 0.40727 0.0
H1551 H 0.98806 0.45089 0.34458 0.0
H1552 H 0.00731 0.49166 0.34043 0.0
H1553 H 0.94658 0.48871 0.30379 0.0
H1554 H 0.92692 0.44793 0.30823 0.0
C1555 C 0.89405 0.33398 0.21314 0.0
C1556 C 0.87471 0.33356 0.19811 0.0
C1557 C 0.91018 0.35206 0.24057 0.0
C1558 C 0.90696 0.36968 0.25505 0.0
C1559 C 0.88904 0.37064 0.23589 0.0
C1560 C 0.87315 0.35283 0.20719 0.0
C1561 C 0.91986 0.38449 0.29591 0.0
C1562 C 0.93107 0.40771 0.29345 0.0
C1563 C 0.92084 0.37538 0.33784 0.0
C1564 C 0.9079 0.35113 0.34389 0.0
C1565 C 0.88504 0.33954 0.33593 0.0
C1566 C 0.8731 0.31649 0.33901 0.0
C1567 C 0.88381 0.3049 0.35068 0.0
C1568 C 0.90646 0.31635 0.35968 0.0
C1569 C 0.91849 0.33938 0.35641 0.0
C1570 C 0.96607 0.4531 0.47826 0.0
C1571 C 0.98048 0.44741 0.49996 0.0
C1572 C 0.95525 0.44247 0.43577 0.0
C1573 C 0.95904 0.42634 0.41419 0.0
C1574 C 0.97432 0.4216 0.43479 0.0
C1575 C 0.98491 0.43198 0.47723 0.0
C1576 C 0.94572 0.41268 0.37259 0.0
C1577 C 0.93399 0.38954 0.37522 0.0
C1578 C 0.94408 0.42198 0.33142 0.0
C1579 C 0.956 0.44637 0.32705 0.0
C1580 C 0.9788 0.45894 0.33577 0.0
C1581 C 0.98978 0.48205 0.33336 0.0
C1582 C 0.97817 0.49277 0.32195 0.0
C1583 C 0.95555 0.48038 0.31263 0.0
C1584 C 0.94449 0.45727 0.31499 0.0
H1585 H 0.98668 0.51067 0.3203 0.0
H1586 H 0.8746 0.28704 0.3527 0.0
H1587 H 0.57471 0.86715 0.13972 0.0
H1588 H 0.57145 0.89779 0.17557 0.0
H1589 H 0.5418 0.85841 0.29017 0.0
H1590 H 0.54507 0.82777 0.2546 0.0
H1591 H 0.51927 0.87786 0.25901 0.0
H1592 H 0.59512 0.8999 0.29768 0.0
H1593 H 0.63251 0.90961 0.27963 0.0
H1594 H 0.63787 0.963 0.20174 0.0
H1595 H 0.60037 0.95341 0.21889 0.0
H1596 H 0.54252 0.9406 0.46351 0.0
H1597 H 0.54338 0.91924 0.39636 0.0
H1598 H 0.55246 0.9719 0.31066 0.0
H1599 H 0.55115 0.9936 0.3786 0.0
H1600 H 0.58358 0.95165 0.30674 0.0
H1601 H 0.50955 0.93356 0.285 0.0
H1602 H 0.47293 0.92385 0.30879 0.0
H1603 H 0.46452 0.86294 0.35853 0.0
H1604 H 0.50123 0.87244 0.33574 0.0
C1605 C 0.56784 0.86519 0.17295 0.0
C1606 C 0.56029 0.84514 0.19462 0.0
C1607 C 0.56586 0.88264 0.19318 0.0
C1608 C 0.55641 0.88036 0.2355 0.0
C1609 C 0.549 0.86043 0.2573 0.0
C1610 C 0.55093 0.84297 0.23707 0.0
C1611 C 0.55415 0.89863 0.25758 0.0
C1612 C 0.53331 0.89403 0.26925 0.0
C1613 C 0.57237 0.92002 0.26934 0.0
C1614 C 0.59487 0.92575 0.25902 0.0
C1615 C 0.60421 0.91358 0.27636 0.0
C1616 C 0.62543 0.91908 0.26637 0.0
C1617 C 0.63753 0.93686 0.23941 0.0
C1618 C 0.62845 0.9492 0.22251 0.0
C1619 C 0.60723 0.94374 0.23236 0.0
C1620 C 0.54473 0.94777 0.43049 0.0
C1621 C 0.54692 0.96886 0.42631 0.0
C1622 C 0.54509 0.93546 0.39214 0.0
C1623 C 0.5479 0.94401 0.34879 0.0
C1624 C 0.55022 0.9651 0.34405 0.0
C1625 C 0.54942 0.97738 0.38267 0.0
C1626 C 0.54886 0.9305 0.30957 0.0
C1627 C 0.56944 0.93582 0.29483 0.0
C1628 C 0.53042 0.90972 0.29517 0.0
C1629 C 0.50822 0.90378 0.30877 0.0
C1630 C 0.49997 0.91817 0.30132 0.0
C1631 C 0.47917 0.91269 0.31458 0.0
C1632 C 0.46641 0.8928 0.33519 0.0
C1633 C 0.47442 0.87833 0.34252 0.0
C1634 C 0.49521 0.88375 0.32936 0.0
H1635 H 0.45032 0.88859 0.34544 0.0
H1636 H 0.65396 0.9411 0.23173 0.0
H1637 H 0.6864 0.54552 0.17862 0.0
H1638 H 0.66449 0.54201 0.24425 0.0
H1639 H 0.69056 0.50542 0.31198 0.0
H1640 H 0.71213 0.50854 0.24639 0.0
H1641 H 0.64924 0.48731 0.32655 0.0
H1642 H 0.70993 0.56104 0.34046 0.0
H1643 H 0.73543 0.59827 0.3153 0.0
H1644 H 0.68279 0.61187 0.29832 0.0
H1645 H 0.65691 0.57457 0.32257 0.0
H1646 H 0.62559 0.54594 0.53912 0.0
H1647 H 0.65017 0.54417 0.48427 0.0
H1648 H 0.59467 0.49378 0.39998 0.0
H1649 H 0.57018 0.49493 0.45495 0.0
H1650 H 0.65426 0.55552 0.40041 0.0
H1651 H 0.60706 0.46188 0.33432 0.0
H1652 H 0.58504 0.42523 0.36571 0.0
H1653 H 0.61714 0.45249 0.49945 0.0
H1654 H 0.63949 0.48921 0.46884 0.0
C1655 C 0.68733 0.53659 0.20737 0.0
C1656 C 0.70097 0.52724 0.20708 0.0
C1657 C 0.67486 0.53465 0.24498 0.0
C1658 C 0.67605 0.52368 0.2835 0.0
C1659 C 0.68924 0.51388 0.28274 0.0
C1660 C 0.70153 0.51562 0.24502 0.0
C1661 C 0.66401 0.5229 0.32502 0.0
C1662 C 0.65033 0.50223 0.34266 0.0
C1663 C 0.66592 0.54241 0.3472 0.0
C1664 C 0.68146 0.56493 0.33295 0.0
C1665 C 0.70378 0.57192 0.33105 0.0
C1666 C 0.7183 0.59303 0.31698 0.0
C1667 C 0.71073 0.6074 0.30516 0.0
C1668 C 0.68862 0.60071 0.30745 0.0
C1669 C 0.67402 0.57958 0.32137 0.0
C1670 C 0.61864 0.53406 0.50954 0.0
C1671 C 0.59585 0.52069 0.50146 0.0
C1672 C 0.63273 0.53319 0.47796 0.0
C1673 C 0.62436 0.51887 0.43777 0.0
C1674 C 0.60167 0.50475 0.43089 0.0
C1675 C 0.58761 0.50551 0.46246 0.0
C1676 C 0.63903 0.51986 0.40126 0.0
C1677 C 0.65321 0.54059 0.38448 0.0
C1678 C 0.63805 0.50048 0.38078 0.0
C1679 C 0.62484 0.47835 0.3993 0.0
C1680 C 0.60949 0.46003 0.37037 0.0
C1681 C 0.59693 0.43925 0.38805 0.0
C1682 C 0.59968 0.43656 0.43455 0.0
C1683 C 0.61499 0.45462 0.46347 0.0
C1684 C 0.62757 0.47542 0.44599 0.0
H1685 H 0.58999 0.42047 0.44818 0.0
H1686 H 0.72199 0.62375 0.29429 0.0
H1687 H 0.15217 0.73128 0.29772 0.0
H1688 H 0.12604 0.70041 0.33998 0.0
H1689 H 0.09166 0.66418 0.21217 0.0
H1690 H 0.11767 0.6954 0.16963 0.0
H1691 H 0.06348 0.65611 0.28441 0.0
H1692 H 0.12791 0.65378 0.25386 0.0
H1693 H 0.1675 0.66883 0.2497 0.0
H1694 H 0.1768 0.68204 0.3963 0.0
H1695 H 0.13728 0.66746 0.40126 0.0
H1696 H 0.0252 0.55334 0.40341 0.0
H1697 H 0.04171 0.58084 0.34584 0.0
H1698 H 0.07742 0.63227 0.45399 0.0
H1699 H 0.06079 0.6053 0.51155 0.0
H1700 H 0.10269 0.62801 0.38047 0.0
H1701 H 0.03714 0.6326 0.40682 0.0
H1702 H 0.99714 0.61509 0.40875 0.0
H1703 H 0.98951 0.59381 0.26562 0.0
H1704 H 0.02951 0.61101 0.26299 0.0
C1705 C 0.13873 0.71694 0.27877 0.0
C1706 C 0.137 0.71551 0.23057 0.0
C1707 C 0.12383 0.69935 0.30283 0.0
C1708 C 0.10721 0.67988 0.27907 0.0
C1709 C 0.10441 0.67907 0.23105 0.0
C1710 C 0.11925 0.69685 0.20687 0.0
C1711 C 0.09478 0.65969 0.30433 0.0
C1712 C 0.07198 0.64974 0.30487 0.0
C1713 C 0.10587 0.6512 0.33053 0.0
C1714 C 0.12963 0.65967 0.32788 0.0
C1715 C 0.13841 0.66003 0.28519 0.0
C1716 C 0.16084 0.66847 0.28268 0.0
C1717 C 0.17466 0.67642 0.3227 0.0
C1718 C 0.16607 0.67589 0.36533 0.0
C1719 C 0.14365 0.66753 0.36801 0.0
C1720 C 0.03643 0.57054 0.41492 0.0
C1721 C 0.04162 0.57713 0.46209 0.0
C1722 C 0.0458 0.58617 0.38202 0.0
C1723 C 0.06071 0.60848 0.39591 0.0
C1724 C 0.06592 0.61508 0.44279 0.0
C1725 C 0.05635 0.59962 0.47559 0.0
C1726 C 0.07162 0.6251 0.362 0.0
C1727 C 0.09417 0.63425 0.35958 0.0
C1728 C 0.06023 0.63248 0.33367 0.0
C1729 C 0.03629 0.62292 0.3348 0.0
C1730 C 0.02693 0.62411 0.37581 0.0
C1731 C 0.00427 0.61426 0.37702 0.0
C1732 C 0.99079 0.60329 0.33737 0.0
C1733 C 0.99997 0.60229 0.29633 0.0
C1734 C 0.02264 0.61213 0.29493 0.0
H1735 H 0.97324 0.59556 0.33846 0.0
H1736 H 0.19203 0.68295 0.3207 0.0
loop_
_geom_bond_atom_site_label_1
_geom_bond_atom_site_label_2
_geom_bond_distance
_geom_bond_site_symmetry_2
_ccdc_geom_bond_type
H0 O26 0.856 . S
H1 O29 0.854 . S
H2 C37 0.930 . S
H3 C38 0.930 . S
H4 C40 0.930 . S
H5 C41 0.930 . S
H6 C43 0.931 . S
H7 C44 0.930 . S
H8 C46 0.930 . S
H9 C47 0.929 . S
H10 C49 0.930 . S
H11 C50 0.931 . S
H12 C52 0.930 . S
H13 C53 0.929 . S
H14 C55 0.931 . S
H15 C56 0.930 . S
H16 C58 0.930 . S
H17 C59 0.932 . S
H18 C61 0.930 . S
H19 C62 0.929 . S
H20 C64 0.931 . S
H21 C65 0.930 . S
H22 C67 0.929 . S
H23 C68 0.931 . S
H24 C70 0.930 . S
H25 C71 0.929 . S
O26 H0 0.856 . S
O26 C72 1.300 . S
O27 C72 1.209 . S
O28 C73 1.199 . S
O29 H1 0.854 . S
O29 C73 1.297 . S
C30 C31 1.404 . S
C30 C35 1.397 . S
C30 C36 1.492 . S
C31 C30 1.404 . S
C31 C32 1.396 . S
C31 C42 1.492 . S
C32 C31 1.396 . S
C32 C33 1.397 . S
C32 C48 1.509 . S
C33 C32 1.397 . S
C33 C34 1.412 . S
C33 C54 1.485 . S
C34 C33 1.412 . S
C34 C35 1.388 . S
C34 C60 1.490 . S
C35 C30 1.397 . S
C35 C34 1.388 . S
C35 C66 1.519 . S
C36 C30 1.492 . S
C36 C37 1.363 . S
C36 C41 1.390 . S
C37 H2 0.930 . S
C37 C36 1.363 . S
C37 C38 1.372 . S
C38 H3 0.930 . S
C38 C37 1.372 . S
C38 C39 1.383 . S
C39 C38 1.383 . S
C39 C40 1.395 . S
C40 H4 0.930 . S
C40 C39 1.395 . S
C40 C41 1.362 . S
C41 H5 0.930 . S
C41 C36 1.390 . S
C41 C40 1.362 . S
C42 C31 1.492 . S
C42 C43 1.377 . S
C42 C47 1.397 . S
C43 H6 0.931 . S
C43 C42 1.377 . S
C43 C44 1.376 . S
C44 H7 0.930 . S
C44 C43 1.376 . S
C44 C45 1.376 . S
C45 C44 1.376 . S
C45 C46 1.378 . S
C45 C72 1.486 . S
C46 H8 0.930 . S
C46 C45 1.378 . S
C46 C47 1.376 . S
C47 H9 0.929 . S
C47 C42 1.397 . S
C47 C46 1.376 . S
C48 C32 1.509 . S
C48 C49 1.391 . S
C48 C53 1.386 . S
C49 H10 0.930 . S
C49 C48 1.391 . S
C49 C50 1.375 . S
C50 H11 0.931 . S
C50 C49 1.375 . S
C50 C51 1.375 . S
C51 C50 1.375 . S
C51 C52 1.361 . S
C52 H12 0.930 . S
C52 C51 1.361 . S
C52 C53 1.399 . S
C53 H13 0.929 . S
C53 C48 1.386 . S
C53 C52 1.399 . S
C54 C33 1.485 . S
C54 C55 1.394 . S
C54 C59 1.360 . S
C55 H14 0.931 . S
C55 C54 1.394 . S
C55 C56 1.372 . S
C56 H15 0.930 . S
C56 C55 1.372 . S
C56 C57 1.397 . S
C57 C56 1.397 . S
C57 C58 1.390 . S
C57 C73 1.476 . S
C58 H16 0.930 . S
C58 C57 1.390 . S
C58 C59 1.366 . S
C59 H17 0.932 . S
C59 C54 1.360 . S
C59 C58 1.366 . S
C60 C34 1.490 . S
C60 C61 1.380 . S
C60 C65 1.386 . S
C61 H18 0.930 . S
C61 C60 1.380 . S
C61 C62 1.381 . S
C62 H19 0.929 . S
C62 C61 1.381 . S
C62 C63 1.371 . S
C63 C62 1.371 . S
C63 C64 1.380 . S
C64 H20 0.931 . S
C64 C63 1.380 . S
C64 C65 1.387 . S
C65 H21 0.930 . S
C65 C60 1.386 . S
C65 C64 1.387 . S
C66 C35 1.519 . S
C66 C67 1.377 . S
C66 C71 1.361 . S
C67 H22 0.929 . S
C67 C66 1.377 . S
C67 C68 1.386 . S
C68 H23 0.931 . S
C68 C67 1.386 . S
C68 C69 1.363 . S
C69 C68 1.363 . S
C69 C70 1.385 . S
C70 H24 0.930 . S
C70 C69 1.385 . S
C70 C71 1.396 . S
C71 H25 0.929 . S
C71 C66 1.361 . S
C71 C70 1.396 . S
C72 O26 1.300 . S
C72 O27 1.209 . S
C72 C45 1.486 . S
C73 O28 1.199 . S
C73 O29 1.297 . S
C73 C57 1.476 . S
H74 O100 0.856 . S
H75 O103 0.854 . S
H76 C111 0.930 . S
H77 C112 0.930 . S
H78 C114 0.930 . S
H79 C115 0.930 . S
H80 C117 0.931 . S
H81 C118 0.930 . S
H82 C120 0.930 . S
H83 C121 0.929 . S
H84 C123 0.930 . S
H85 C124 0.931 . S
H86 C126 0.930 . S
H87 C127 0.929 . S
H88 C129 0.931 . S
H89 C130 0.930 . S
H90 C132 0.930 . S
H91 C133 0.932 . S
H92 C135 0.930 . S
H93 C136 0.929 . S
H94 C138 0.931 . S
H95 C139 0.930 . S
H96 C141 0.929 . S
H97 C142 0.931 . S
H98 C144 0.930 . S
H99 C145 0.929 . S
O100 H74 0.856 . S
O100 C146 1.300 . S
O101 C146 1.209 . S
O102 C147 1.199 . S
O103 H75 0.854 . S
O103 C147 1.297 . S
C104 C105 1.404 . S
C104 C109 1.397 . S
C104 C110 1.492 . S
C105 C104 1.404 . S
C105 C106 1.396 . S
C105 C116 1.492 . S
C106 C105 1.396 . S
C106 C107 1.397 . S
C106 C122 1.509 . S
C107 C106 1.397 . S
C107 C108 1.412 . S
C107 C128 1.485 . S
C108 C107 1.412 . S
C108 C109 1.388 . S
C108 C134 1.490 . S
C109 C104 1.397 . S
C109 C108 1.388 . S
C109 C140 1.519 . S
C110 C104 1.492 . S
C110 C111 1.363 . S
C110 C115 1.390 . S
C111 H76 0.930 . S
C111 C110 1.363 . S
C111 C112 1.372 . S
C112 H77 0.930 . S
C112 C111 1.372 . S
C112 C113 1.383 . S
C113 C112 1.383 . S
C113 C114 1.395 . S
C114 H78 0.930 . S
C114 C113 1.395 . S
C114 C115 1.362 . S
C115 H79 0.930 . S
C115 C110 1.390 . S
C115 C114 1.362 . S
C116 C105 1.492 . S
C116 C117 1.377 . S
C116 C121 1.397 . S
C117 H80 0.931 . S
C117 C116 1.377 . S
C117 C118 1.376 . S
C118 H81 0.930 . S
C118 C117 1.376 . S
C118 C119 1.376 . S
C119 C118 1.376 . S
C119 C120 1.378 . S
C119 C146 1.486 . S
C120 H82 0.930 . S
C120 C119 1.378 . S
C120 C121 1.376 . S
C121 H83 0.929 . S
C121 C116 1.397 . S
C121 C120 1.376 . S
C122 C106 1.509 . S
C122 C123 1.391 . S
C122 C127 1.386 . S
C123 H84 0.930 . S
C123 C122 1.391 . S
C123 C124 1.375 . S
C124 H85 0.931 . S
C124 C123 1.375 . S
C124 C125 1.375 . S
C125 C124 1.375 . S
C125 C126 1.361 . S
C126 H86 0.930 . S
C126 C125 1.361 . S
C126 C127 1.399 . S
C127 H87 0.929 . S
C127 C122 1.386 . S
C127 C126 1.399 . S
C128 C107 1.485 . S
C128 C129 1.394 . S
C128 C133 1.360 . S
C129 H88 0.931 . S
C129 C128 1.394 . S
C129 C130 1.372 . S
C130 H89 0.930 . S
C130 C129 1.372 . S
C130 C131 1.397 . S
C131 C130 1.397 . S
C131 C132 1.390 . S
C131 C147 1.476 . S
C132 H90 0.930 . S
C132 C131 1.390 . S
C132 C133 1.366 . S
C133 H91 0.932 . S
C133 C128 1.360 . S
C133 C132 1.366 . S
C134 C108 1.490 . S
C134 C135 1.380 . S
C134 C139 1.386 . S
C135 H92 0.930 . S
C135 C134 1.380 . S
C135 C136 1.381 1_554 S
C136 H93 0.929 . S
C136 C135 1.381 1_556 S
C136 C137 1.371 . S
C137 C136 1.371 . S
C137 C138 1.380 . S
C138 H94 0.931 . S
C138 C137 1.380 . S
C138 C139 1.387 1_556 S
C139 H95 0.930 . S
C139 C134 1.386 . S
C139 C138 1.387 1_554 S
C140 C109 1.519 . S
C140 C141 1.377 . S
C140 C145 1.361 . S
C141 H96 0.929 . S
C141 C140 1.377 . S
C141 C142 1.386 . S
C142 H97 0.931 . S
C142 C141 1.386 . S
C142 C143 1.363 . S
C143 C142 1.363 . S
C143 C144 1.385 . S
C144 H98 0.930 . S
C144 C143 1.385 . S
C144 C145 1.396 . S
C145 H99 0.929 . S
C145 C140 1.361 . S
C145 C144 1.396 . S
C146 O100 1.300 . S
C146 O101 1.209 . S
C146 C119 1.486 . S
C147 O102 1.199 . S
C147 O103 1.297 . S
C147 C131 1.476 . S
H148 O174 0.856 . S
H149 O177 0.854 . S
H150 C185 0.930 . S
H151 C186 0.930 . S
H152 C188 0.930 . S
H153 C189 0.930 . S
H154 C191 0.931 . S
H155 C192 0.930 . S
H156 C194 0.930 . S
H157 C195 0.929 . S
H158 C197 0.930 . S
H159 C198 0.931 . S
H160 C200 0.930 . S
H161 C201 0.929 . S
H162 C203 0.931 . S
H163 C204 0.930 . S
H164 C206 0.930 . S
H165 C207 0.932 1_556 S
H166 C209 0.930 . S
H167 C210 0.929 . S
H168 C212 0.931 . S
H169 C213 0.930 . S
H170 C215 0.929 . S
H171 C216 0.931 . S
H172 C218 0.930 . S
H173 C219 0.929 . S
O174 H148 0.856 . S
O174 C220 1.300 . S
O175 C220 1.209 . S
O176 C221 1.199 . S
O177 H149 0.854 . S
O177 C221 1.297 . S
C178 C179 1.404 . S
C178 C183 1.397 1_556 S
C178 C184 1.492 . S
C179 C178 1.404 . S
C179 C180 1.396 . S
C179 C190 1.492 . S
C180 C179 1.396 . S
C180 C181 1.406 . S
C180 C196 1.509 . S
C181 C180 1.406 . S
C181 C182 1.406 1_556 S
C181 C202 1.482 1_556 S
C182 C181 1.406 1_554 S
C182 C183 1.388 . S
C182 C208 1.490 . S
C183 C178 1.397 1_554 S
C183 C182 1.388 . S
C183 C214 1.519 . S
C184 C178 1.492 . S
C184 C185 1.363 . S
C184 C189 1.390 . S
C185 H150 0.930 . S
C185 C184 1.363 . S
C185 C186 1.372 . S
C186 H151 0.930 . S
C186 C185 1.372 . S
C186 C187 1.383 . S
C187 C186 1.383 . S
C187 C188 1.395 . S
C188 H152 0.930 . S
C188 C187 1.395 . S
C188 C189 1.362 . S
C189 H153 0.930 . S
C189 C184 1.390 . S
C189 C188 1.362 . S
C190 C179 1.492 . S
C190 C191 1.377 . S
C190 C195 1.397 . S
C191 H154 0.931 . S
C191 C190 1.377 . S
C191 C192 1.376 . S
C192 H155 0.930 . S
C192 C191 1.376 . S
C192 C193 1.376 . S
C193 C192 1.376 . S
C193 C194 1.378 . S
C193 C220 1.486 . S
C194 H156 0.930 . S
C194 C193 1.378 . S
C194 C195 1.376 . S
C195 H157 0.929 . S
C195 C190 1.397 . S
C195 C194 1.376 . S
C196 C180 1.509 . S
C196 C197 1.391 . S
C196 C201 1.386 . S
C197 H158 0.930 . S
C197 C196 1.391 . S
C197 C198 1.375 . S
C198 H159 0.931 . S
C198 C197 1.375 . S
C198 C199 1.375 . S
C199 C198 1.375 . S
C199 C200 1.361 . S
C200 H160 0.930 . S
C200 C199 1.361 . S
C200 C201 1.399 . S
C201 H161 0.929 . S
C201 C196 1.386 . S
C201 C200 1.399 . S
C202 C181 1.482 1_554 S
C202 C203 1.394 . S
C202 C207 1.360 . S
C203 H162 0.931 . S
C203 C202 1.394 . S
C203 C204 1.372 . S
C204 H163 0.930 . S
C204 C203 1.372 . S
C204 C205 1.397 . S
C205 C204 1.397 . S
C205 C206 1.390 . S
C205 C221 1.476 . S
C206 H164 0.930 . S
C206 C205 1.390 . S
C206 C207 1.366 . S
C207 H165 0.932 1_554 S
C207 C202 1.360 . S
C207 C206 1.366 . S
C208 C182 1.490 . S
C208 C209 1.380 . S
C208 C213 1.386 . S
C209 H166 0.930 . S
C209 C208 1.380 . S
C209 C210 1.381 . S
C210 H167 0.929 . S
C210 C209 1.381 . S
C210 C211 1.371 . S
C211 C210 1.371 . S
C211 C212 1.380 . S
C212 H168 0.931 . S
C212 C211 1.380 . S
C212 C213 1.387 . S
C213 H169 0.930 . S
C213 C208 1.386 . S
C213 C212 1.387 . S
C214 C183 1.519 . S
C214 C215 1.377 . S
C214 C219 1.361 . S
C215 H170 0.929 . S
C215 C214 1.377 . S
C215 C216 1.386 . S
C216 H171 0.931 . S
C216 C215 1.386 . S
C216 C217 1.363 . S
C217 C216 1.363 . S
C217 C218 1.385 . S
C218 H172 0.930 . S
C218 C217 1.385 . S
C218 C219 1.396 . S
C219 H173 0.929 . S
C219 C214 1.361 . S
C219 C218 1.396 . S
C220 O174 1.300 . S
C220 O175 1.209 . S
C220 C193 1.486 . S
C221 O176 1.199 . S
C221 O177 1.297 . S
C221 C205 1.476 . S
H222 O248 0.856 . S
H223 O251 0.854 . S
H224 C259 0.930 . S
H225 C260 0.930 . S
H226 C262 0.930 . S
H227 C263 0.930 . S
H228 C265 0.931 . S
H229 C266 0.930 . S
H230 C268 0.930 . S
H231 C269 0.929 . S
H232 C271 0.930 . S
H233 C272 0.931 . S
H234 C274 0.930 . S
H235 C275 0.929 . S
H236 C277 0.931 . S
H237 C278 0.930 . S
H238 C280 0.930 . S
H239 C281 0.932 . S
H240 C283 0.930 . S
H241 C284 0.929 . S
H242 C286 0.931 . S
H243 C287 0.930 1_554 S
H244 C289 0.929 . S
H245 C290 0.931 . S
H246 C292 0.930 . S
H247 C293 0.929 . S
O248 H222 0.856 . S
O248 C294 1.300 . S
O249 C294 1.209 . S
O250 C295 1.199 . S
O251 H223 0.854 . S
O251 C295 1.297 . S
C252 C253 1.404 . S
C252 C257 1.397 . S
C252 C258 1.492 . S
C253 C252 1.404 . S
C253 C254 1.396 . S
C253 C264 1.492 . S
C254 C253 1.396 . S
C254 C255 1.397 . S
C254 C270 1.509 . S
C255 C254 1.397 . S
C255 C256 1.412 . S
C255 C276 1.485 . S
C256 C255 1.412 . S
C256 C257 1.388 . S
C256 C282 1.490 . S
C257 C252 1.397 . S
C257 C256 1.388 . S
C257 C288 1.519 . S
C258 C252 1.492 . S
C258 C259 1.363 . S
C258 C263 1.390 . S
C259 H224 0.930 . S
C259 C258 1.363 . S
C259 C260 1.372 . S
C260 H225 0.930 . S
C260 C259 1.372 . S
C260 C261 1.383 . S
C261 C260 1.383 . S
C261 C262 1.395 . S
C262 H226 0.930 . S
C262 C261 1.395 . S
C262 C263 1.362 . S
C263 H227 0.930 . S
C263 C258 1.390 . S
C263 C262 1.362 . S
C264 C253 1.492 . S
C264 C265 1.377 . S
C264 C269 1.397 . S
C265 H228 0.931 . S
C265 C264 1.377 . S
C265 C266 1.376 . S
C266 H229 0.930 . S
C266 C265 1.376 . S
C266 C267 1.376 . S
C267 C266 1.376 . S
C267 C268 1.378 . S
C267 C294 1.486 . S
C268 H230 0.930 . S
C268 C267 1.378 . S
C268 C269 1.376 . S
C269 H231 0.929 . S
C269 C264 1.397 . S
C269 C268 1.376 . S
C270 C254 1.509 . S
C270 C271 1.391 . S
C270 C275 1.386 . S
C271 H232 0.930 . S
C271 C270 1.391 . S
C271 C272 1.375 . S
C272 H233 0.931 . S
C272 C271 1.375 . S
C272 C273 1.375 . S
C273 C272 1.375 . S
C273 C274 1.361 . S
C274 H234 0.930 . S
C274 C273 1.361 . S
C274 C275 1.399 . S
C275 H235 0.929 . S
C275 C270 1.386 . S
C275 C274 1.399 . S
C276 C255 1.485 . S
C276 C277 1.394 . S
C276 C281 1.360 . S
C277 H236 0.931 . S
C277 C276 1.394 . S
C277 C278 1.372 . S
C278 H237 0.930 . S
C278 C277 1.372 . S
C278 C279 1.397 . S
C279 C278 1.397 . S
C279 C280 1.390 . S
C279 C295 1.476 . S
C280 H238 0.930 . S
C280 C279 1.390 . S
C280 C281 1.366 . S
C281 H239 0.932 . S
C281 C276 1.360 . S
C281 C280 1.366 . S
C282 C256 1.490 . S
C282 C283 1.380 1_554 S
C282 C287 1.386 1_554 S
C283 H240 0.930 . S
C283 C282 1.380 1_556 S
C283 C284 1.381 . S
C284 H241 0.929 . S
C284 C283 1.381 . S
C284 C285 1.371 . S
C285 C284 1.371 . S
C285 C286 1.380 . S
C286 H242 0.931 . S
C286 C285 1.380 . S
C286 C287 1.387 . S
C287 H243 0.930 1_556 S
C287 C282 1.386 1_556 S
C287 C286 1.387 . S
C288 C257 1.519 . S
C288 C289 1.377 . S
C288 C293 1.361 . S
C289 H244 0.929 . S
C289 C288 1.377 . S
C289 C290 1.386 1_554 S
C290 H245 0.931 . S
C290 C289 1.386 1_556 S
C290 C291 1.363 . S
C291 C290 1.363 . S
C291 C292 1.385 . S
C292 H246 0.930 . S
C292 C291 1.385 . S
C292 C293 1.396 1_556 S
C293 H247 0.929 . S
C293 C288 1.361 . S
C293 C292 1.396 1_554 S
C294 O248 1.300 . S
C294 O249 1.209 . S
C294 C267 1.486 . S
C295 O250 1.199 . S
C295 O251 1.297 . S
C295 C279 1.476 . S
H296 O322 0.856 . S
H297 O325 0.854 . S
H298 C333 0.930 . S
H299 C334 0.930 . S
H300 C336 0.930 . S
H301 C337 0.930 . S
H302 C339 0.931 . S
H303 C340 0.930 . S
H304 C342 0.930 . S
H305 C343 0.929 . S
H306 C345 0.930 . S
H307 C346 0.931 . S
H308 C348 0.930 . S
H309 C349 0.929 . S
H310 C351 0.931 . S
H311 C352 0.930 . S
H312 C354 0.930 . S
H313 C355 0.932 . S
H314 C357 0.930 . S
H315 C358 0.929 . S
H316 C360 0.931 . S
H317 C361 0.927 1_554 S
H318 C363 0.929 . S
H319 C364 0.931 . S
H320 C366 0.930 . S
H321 C367 0.929 . S
O322 H296 0.856 . S
O322 C368 1.300 . S
O323 C368 1.209 . S
O324 C369 1.199 . S
O325 H297 0.854 . S
O325 C369 1.297 . S
C326 C327 1.404 . S
C326 C331 1.397 . S
C326 C332 1.492 . S
C327 C326 1.404 . S
C327 C328 1.396 . S
C327 C338 1.492 . S
C328 C327 1.396 . S
C328 C329 1.397 . S
C328 C344 1.509 . S
C329 C328 1.397 . S
C329 C330 1.412 . S
C329 C350 1.485 . S
C330 C329 1.412 . S
C330 C331 1.388 . S
C330 C356 1.490 . S
C331 C326 1.397 . S
C331 C330 1.388 . S
C331 C362 1.519 . S
C332 C326 1.492 . S
C332 C333 1.363 . S
C332 C337 1.390 . S
C333 H298 0.930 . S
C333 C332 1.363 . S
C333 C334 1.372 . S
C334 H299 0.930 . S
C334 C333 1.372 . S
C334 C335 1.383 . S
C335 C334 1.383 . S
C335 C336 1.395 . S
C336 H300 0.930 . S
C336 C335 1.395 . S
C336 C337 1.362 . S
C337 H301 0.930 . S
C337 C332 1.390 . S
C337 C336 1.362 . S
C338 C327 1.492 . S
C338 C339 1.377 . S
C338 C343 1.397 . S
C339 H302 0.931 . S
C339 C338 1.377 . S
C339 C340 1.376 . S
C340 H303 0.930 . S
C340 C339 1.376 . S
C340 C341 1.376 . S
C341 C340 1.376 . S
C341 C342 1.378 . S
C341 C368 1.486 . S
C342 H304 0.930 . S
C342 C341 1.378 . S
C342 C343 1.376 . S
C343 H305 0.929 . S
C343 C338 1.397 . S
C343 C342 1.376 . S
C344 C328 1.509 . S
C344 C345 1.391 . S
C344 C349 1.386 . S
C345 H306 0.930 . S
C345 C344 1.391 . S
C345 C346 1.375 . S
C346 H307 0.931 . S
C346 C345 1.375 . S
C346 C347 1.375 . S
C347 C346 1.375 . S
C347 C348 1.361 . S
C348 H308 0.930 . S
C348 C347 1.361 . S
C348 C349 1.399 . S
C349 H309 0.929 . S
C349 C344 1.386 . S
C349 C348 1.399 . S
C350 C329 1.485 . S
C350 C351 1.394 . S
C350 C355 1.360 . S
C351 H310 0.931 . S
C351 C350 1.394 . S
C351 C352 1.372 . S
C352 H311 0.930 . S
C352 C351 1.372 . S
C352 C353 1.397 . S
C353 C352 1.397 . S
C353 C354 1.390 . S
C353 C369 1.476 . S
C354 H312 0.930 . S
C354 C353 1.390 . S
C354 C355 1.366 . S
C355 H313 0.932 . S
C355 C350 1.360 . S
C355 C354 1.366 . S
C356 C330 1.490 . S
C356 C357 1.380 . S
C356 C361 1.382 1_554 S
C357 H314 0.930 . S
C357 C356 1.380 . S
C357 C358 1.381 1_554 S
C358 H315 0.929 . S
C358 C357 1.381 1_556 S
C358 C359 1.371 . S
C359 C358 1.371 . S
C359 C360 1.380 . S
C360 H316 0.931 . S
C360 C359 1.380 . S
C360 C361 1.394 . S
C361 H317 0.927 1_556 S
C361 C356 1.382 1_556 S
C361 C360 1.394 . S
C362 C331 1.519 . S
C362 C363 1.377 . S
C362 C367 1.361 . S
C363 H318 0.929 . S
C363 C362 1.377 . S
C363 C364 1.386 . S
C364 H319 0.931 . S
C364 C363 1.386 . S
C364 C365 1.363 1_554 S
C365 C364 1.363 1_556 S
C365 C366 1.385 . S
C366 H320 0.930 . S
C366 C365 1.385 . S
C366 C367 1.396 1_556 S
C367 H321 0.929 . S
C367 C362 1.361 . S
C367 C366 1.396 1_554 S
C368 O322 1.300 . S
C368 O323 1.209 . S
C368 C341 1.486 . S
C369 O324 1.199 . S
C369 O325 1.297 . S
C369 C353 1.476 . S
H370 O396 0.856 . S
H371 O399 0.854 . S
H372 C407 0.930 . S
H373 C408 0.930 . S
H374 C410 0.930 . S
H375 C411 0.930 . S
H376 C413 0.931 . S
H377 C414 0.930 . S
H378 C416 0.930 1_556 S
H379 C417 0.929 . S
H380 C419 0.930 . S
H381 C420 0.931 . S
H382 C422 0.930 . S
H383 C423 0.929 . S
H384 C425 0.931 . S
H385 C426 0.930 . S
H386 C428 0.930 . S
H387 C429 0.932 . S
H388 C431 0.930 . S
H389 C432 0.929 . S
H390 C434 0.931 . S
H391 C435 0.930 . S
H392 C437 0.929 . S
H393 C438 0.931 . S
H394 C440 0.930 . S
H395 C441 0.929 . S
O396 H370 0.856 . S
O396 C442 1.300 . S
O397 C442 1.209 . S
O398 C443 1.199 . S
O399 H371 0.854 . S
O399 C443 1.297 . S
C400 C401 1.404 . S
C400 C405 1.397 . S
C400 C406 1.492 . S
C401 C400 1.404 . S
C401 C402 1.396 . S
C401 C412 1.492 . S
C402 C401 1.396 . S
C402 C403 1.397 . S
C402 C418 1.509 . S
C403 C402 1.397 . S
C403 C404 1.412 . S
C403 C424 1.485 . S
C404 C403 1.412 . S
C404 C405 1.388 . S
C404 C430 1.490 . S
C405 C400 1.397 . S
C405 C404 1.388 . S
C405 C436 1.519 . S
C406 C400 1.492 . S
C406 C407 1.363 . S
C406 C411 1.390 . S
C407 H372 0.930 . S
C407 C406 1.363 . S
C407 C408 1.372 . S
C408 H373 0.930 . S
C408 C407 1.372 . S
C408 C409 1.383 . S
C409 C408 1.383 . S
C409 C410 1.395 . S
C410 H374 0.930 . S
C410 C409 1.395 . S
C410 C411 1.362 . S
C411 H375 0.930 . S
C411 C406 1.390 . S
C411 C410 1.362 . S
C412 C401 1.492 . S
C412 C413 1.377 . S
C412 C417 1.397 . S
C413 H376 0.931 . S
C413 C412 1.377 . S
C413 C414 1.376 1_554 S
C414 H377 0.930 . S
C414 C413 1.376 1_556 S
C414 C415 1.376 . S
C415 C414 1.376 . S
C415 C416 1.379 1_556 S
C415 C442 1.486 . S
C416 H378 0.930 1_554 S
C416 C415 1.379 1_554 S
C416 C417 1.375 . S
C417 H379 0.929 . S
C417 C412 1.397 . S
C417 C416 1.375 . S
C418 C402 1.509 . S
C418 C419 1.391 . S
C418 C423 1.386 . S
C419 H380 0.930 . S
C419 C418 1.391 . S
C419 C420 1.375 . S
C420 H381 0.931 . S
C420 C419 1.375 . S
C420 C421 1.375 . S
C421 C420 1.375 . S
C421 C422 1.361 . S
C422 H382 0.930 . S
C422 C421 1.361 . S
C422 C423 1.399 . S
C423 H383 0.929 . S
C423 C418 1.386 . S
C423 C422 1.399 . S
C424 C403 1.485 . S
C424 C425 1.394 . S
C424 C429 1.360 . S
C425 H384 0.931 . S
C425 C424 1.394 . S
C425 C426 1.372 . S
C426 H385 0.930 . S
C426 C425 1.372 . S
C426 C427 1.397 . S
C427 C426 1.397 . S
C427 C428 1.390 . S
C427 C443 1.476 . S
C428 H386 0.930 . S
C428 C427 1.390 . S
C428 C429 1.366 . S
C429 H387 0.932 . S
C429 C424 1.360 . S
C429 C428 1.366 . S
C430 C404 1.490 . S
C430 C431 1.380 . S
C430 C435 1.386 . S
C431 H388 0.930 . S
C431 C430 1.380 . S
C431 C432 1.381 . S
C432 H389 0.929 . S
C432 C431 1.381 . S
C432 C433 1.371 . S
C433 C432 1.371 . S
C433 C434 1.380 . S
C434 H390 0.931 . S
C434 C433 1.380 . S
C434 C435 1.387 . S
C435 H391 0.930 . S
C435 C430 1.386 . S
C435 C434 1.387 . S
C436 C405 1.519 . S
C436 C437 1.377 . S
C436 C441 1.361 . S
C437 H392 0.929 . S
C437 C436 1.377 . S
C437 C438 1.386 . S
C438 H393 0.931 . S
C438 C437 1.386 . S
C438 C439 1.363 . S
C439 C438 1.363 . S
C439 C440 1.385 . S
C440 H394 0.930 . S
C440 C439 1.385 . S
C440 C441 1.396 . S
C441 H395 0.929 . S
C441 C436 1.361 . S
C441 C440 1.396 . S
C442 O396 1.300 . S
C442 O397 1.209 . S
C442 C415 1.486 . S
C443 O398 1.199 . S
C443 O399 1.297 . S
C443 C427 1.476 . S
C444 O456 1.241 . S
C444 O457 1.280 . S
C445 O458 1.277 . S
C445 O459 1.245 . S
C446 O470 1.247 . S
C446 O472 1.289 . S
Mg447 O448 1.926 . S
Mg447 O457 1.984 1_455 S
Mg447 O459 1.988 . S
Mg447 O460 2.061 1_455 S
O448 Mg447 1.926 . S
O448 Mg449 1.986 . S
O448 Mg450 1.917 . S
Mg449 O448 1.986 . S
Mg449 O456 2.042 1_455 S
Mg449 O458 2.041 . S
Mg449 O464 2.038 1_455 S
Mg449 O472 2.238 . S
Mg450 O448 1.917 . S
Mg450 O451 1.917 . S
Mg450 O461 2.106 1_455 S
Mg450 O463 2.079 1_455 S
Mg450 O472 2.106 . S
Mg450 O473 2.079 . S
O451 Mg450 1.917 . S
O451 Mg452 1.926 . S
O451 Mg453 1.986 . S
Mg452 O451 1.926 . S
Mg452 O466 1.984 . S
Mg452 O469 1.988 1_455 S
Mg452 O470 2.061 . S
Mg453 O451 1.986 . S
Mg453 O461 2.238 1_455 S
Mg453 O465 2.042 . S
Mg453 O467 2.041 1_455 S
Mg453 O474 2.038 . S
C454 O460 1.247 . S
C454 O461 1.289 . S
C455 O473 1.245 . S
C455 O474 1.274 . S
O456 C444 1.241 . S
O456 Mg449 2.042 1_655 S
O457 C444 1.280 . S
O457 Mg447 1.984 1_655 S
O458 C445 1.277 . S
O458 Mg449 2.041 . S
O459 C445 1.245 . S
O459 Mg447 1.988 . S
O460 Mg447 2.061 1_655 S
O460 C454 1.247 . S
O461 Mg450 2.106 1_655 S
O461 Mg453 2.238 1_655 S
O461 C454 1.289 . S
C462 O463 1.245 . S
C462 O464 1.274 . S
O463 Mg450 2.079 1_655 S
O463 C462 1.245 . S
O464 Mg449 2.038 1_655 S
O464 C462 1.274 . S
O465 Mg453 2.042 . S
O465 C468 1.241 . S
O466 Mg452 1.984 . S
O466 C468 1.280 . S
O467 Mg453 2.041 1_655 S
O467 C471 1.277 . S
C468 O465 1.241 . S
C468 O466 1.280 . S
O469 Mg452 1.988 1_655 S
O469 C471 1.245 . S
O470 C446 1.247 . S
O470 Mg452 2.061 . S
C471 O467 1.277 . S
C471 O469 1.245 . S
O472 C446 1.289 . S
O472 Mg449 2.238 . S
O472 Mg450 2.106 . S
O473 Mg450 2.079 . S
O473 C455 1.245 . S
O474 Mg453 2.038 . S
O474 C455 1.274 . S
C475 O487 1.241 . S
C475 O488 1.280 . S
C476 O489 1.277 . S
C476 O490 1.245 . S
C477 O501 1.247 . S
C477 O503 1.289 . S
Mg478 O479 1.926 . S
Mg478 O488 1.984 . S
Mg478 O490 1.988 1_545 S
Mg478 O491 2.061 . S
O479 Mg478 1.926 . S
O479 Mg480 1.986 . S
O479 Mg481 1.917 . S
Mg480 O479 1.986 . S
Mg480 O487 2.042 . S
Mg480 O489 2.041 1_545 S
Mg480 O495 2.038 . S
Mg480 O503 2.238 1_545 S
Mg481 O479 1.917 . S
Mg481 O482 1.917 1_545 S
Mg481 O492 2.106 . S
Mg481 O494 2.079 . S
Mg481 O503 2.106 1_545 S
Mg481 O504 2.079 1_545 S
O482 Mg481 1.917 1_565 S
O482 Mg483 1.926 . S
O482 Mg484 1.986 1_565 S
Mg483 O482 1.926 . S
Mg483 O497 1.984 . S
Mg483 O500 1.988 1_565 S
Mg483 O501 2.061 . S
Mg484 O482 1.986 1_545 S
Mg484 O492 2.238 . S
Mg484 O496 2.042 1_545 S
Mg484 O498 2.041 . S
Mg484 O505 2.038 1_545 S
C485 O491 1.247 . S
C485 O492 1.289 . S
C486 O504 1.245 . S
C486 O505 1.274 . S
O487 C475 1.241 . S
O487 Mg480 2.042 . S
O488 C475 1.280 . S
O488 Mg478 1.984 . S
O489 C476 1.277 . S
O489 Mg480 2.041 1_565 S
O490 C476 1.245 . S
O490 Mg478 1.988 1_565 S
O491 Mg478 2.061 . S
O491 C485 1.247 . S
O492 Mg481 2.106 . S
O492 Mg484 2.238 . S
O492 C485 1.289 . S
C493 O494 1.245 . S
C493 O495 1.274 . S
O494 Mg481 2.079 . S
O494 C493 1.245 . S
O495 Mg480 2.038 . S
O495 C493 1.274 . S
O496 Mg484 2.042 1_565 S
O496 C499 1.241 . S
O497 Mg483 1.984 . S
O497 C499 1.280 . S
O498 Mg484 2.041 . S
O498 C502 1.277 . S
C499 O496 1.241 . S
C499 O497 1.280 . S
O500 Mg483 1.988 1_545 S
O500 C502 1.245 . S
O501 C477 1.247 . S
O501 Mg483 2.061 . S
C502 O498 1.277 . S
C502 O500 1.245 . S
O503 C477 1.289 . S
O503 Mg480 2.238 1_565 S
O503 Mg481 2.106 1_565 S
O504 Mg481 2.079 1_565 S
O504 C486 1.245 . S
O505 Mg484 2.038 1_565 S
O505 C486 1.274 . S
C506 O518 1.241 . S
C506 O519 1.280 . S
C507 O520 1.277 . S
C507 O521 1.245 . S
C508 O532 1.247 . S
C508 O534 1.289 . S
Mg509 O510 1.926 . S
Mg509 O519 1.984 . S
Mg509 O521 1.988 . S
Mg509 O522 2.061 . S
O510 Mg509 1.926 . S
O510 Mg511 1.986 . S
O510 Mg512 1.917 . S
Mg511 O510 1.986 . S
Mg511 O518 2.042 . S
Mg511 O520 2.041 . S
Mg511 O526 2.038 . S
Mg511 O534 2.238 . S
Mg512 O510 1.917 . S
Mg512 O513 1.917 . S
Mg512 O523 2.106 . S
Mg512 O525 2.079 . S
Mg512 O534 2.106 . S
Mg512 O535 2.079 . S
O513 Mg512 1.917 . S
O513 Mg514 1.926 . S
O513 Mg515 1.986 . S
Mg514 O513 1.926 . S
Mg514 O528 1.984 . S
Mg514 O531 1.988 . S
Mg514 O532 2.061 . S
Mg515 O513 1.986 . S
Mg515 O523 2.238 . S
Mg515 O527 2.042 . S
Mg515 O529 2.041 . S
Mg515 O536 2.038 . S
C516 O522 1.247 . S
C516 O523 1.289 . S
C517 O535 1.245 . S
C517 O536 1.274 . S
O518 C506 1.241 . S
O518 Mg511 2.042 . S
O519 C506 1.280 . S
O519 Mg509 1.984 . S
O520 C507 1.277 . S
O520 Mg511 2.041 . S
O521 C507 1.245 . S
O521 Mg509 1.988 . S
O522 Mg509 2.061 . S
O522 C516 1.247 . S
O523 Mg512 2.106 . S
O523 Mg515 2.238 . S
O523 C516 1.289 . S
C524 O525 1.245 . S
C524 O526 1.274 . S
O525 Mg512 2.079 . S
O525 C524 1.245 . S
O526 Mg511 2.038 . S
O526 C524 1.274 . S
O527 Mg515 2.042 . S
O527 C530 1.241 . S
O528 Mg514 1.984 . S
O528 C530 1.280 . S
O529 Mg515 2.041 . S
O529 C533 1.277 . S
C530 O527 1.241 . S
C530 O528 1.280 . S
O531 Mg514 1.988 . S
O531 C533 1.245 . S
O532 C508 1.247 . S
O532 Mg514 2.061 . S
C533 O529 1.277 . S
C533 O531 1.245 . S
O534 C508 1.289 . S
O534 Mg511 2.238 . S
O534 Mg512 2.106 . S
O535 Mg512 2.079 . S
O535 C517 1.245 . S
O536 Mg515 2.038 . S
O536 C517 1.274 . S
H537 C555 0.951 . S
H538 C557 0.951 . S
H539 C559 0.950 . S
H540 C560 0.950 . S
H541 C562 0.950 . S
H542 C565 0.950 . S
H543 C566 0.950 . S
H544 C568 0.950 . S
H545 C569 0.950 . S
H546 C570 0.951 . S
H547 C572 0.951 . S
H548 C574 0.950 . S
H549 C575 0.950 . S
H550 C577 0.950 . S
H551 C580 0.950 . S
H552 C581 0.950 . S
H553 C583 0.950 . S
H554 C584 0.950 . S
C555 H537 0.951 . S
C555 C556 1.366 . S
C555 C557 1.388 . S
C556 C555 1.366 . S
C556 C560 1.385 . S
C557 H538 0.951 . S
C557 C555 1.388 . S
C557 C558 1.366 . S
C558 C557 1.366 . S
C558 C559 1.414 . S
C558 C561 1.499 . S
C559 H539 0.950 . S
C559 C558 1.414 . S
C559 C560 1.374 . S
C560 H540 0.950 . S
C560 C556 1.385 . S
C560 C559 1.374 . S
C561 C558 1.499 . S
C561 C562 1.373 . S
C561 C563 1.389 . S
C562 H541 0.950 . S
C562 C561 1.373 . S
C562 C578 1.377 . S
C563 C561 1.389 . S
C563 C564 1.524 . S
C563 C577 1.377 . S
C564 C563 1.524 . S
C564 C565 1.397 . S
C564 C569 1.363 . S
C565 H542 0.950 . S
C565 C564 1.397 . S
C565 C566 1.334 . S
C566 H543 0.950 . S
C566 C565 1.334 . S
C566 C567 1.287 . S
C567 C566 1.287 . S
C567 C568 1.524 . S
C567 H586 0.913 . S
C568 H544 0.950 . S
C568 C567 1.524 . S
C568 C569 1.415 . S
C569 H545 0.950 . S
C569 C564 1.363 . S
C569 C568 1.415 . S
C570 H546 0.951 . S
C570 C571 1.366 . S
C570 C572 1.388 . S
C571 C570 1.366 . S
C571 C575 1.385 . S
C572 H547 0.951 . S
C572 C570 1.388 . S
C572 C573 1.366 . S
C573 C572 1.366 . S
C573 C574 1.414 . S
C573 C576 1.499 . S
C574 H548 0.950 . S
C574 C573 1.414 . S
C574 C575 1.374 . S
C575 H549 0.950 . S
C575 C571 1.385 . S
C575 C574 1.374 . S
C576 C573 1.499 . S
C576 C577 1.373 . S
C576 C578 1.389 . S
C577 H550 0.950 . S
C577 C563 1.377 . S
C577 C576 1.373 . S
C578 C562 1.377 . S
C578 C576 1.389 . S
C578 C579 1.524 . S
C579 C578 1.524 . S
C579 C580 1.397 . S
C579 C584 1.363 . S
C580 H551 0.950 . S
C580 C579 1.397 . S
C580 C581 1.334 . S
C581 H552 0.950 . S
C581 C580 1.334 . S
C581 C582 1.287 . S
C582 C581 1.287 . S
C582 C583 1.524 . S
C582 H585 0.999 . S
C583 H553 0.950 . S
C583 C582 1.524 . S
C583 C584 1.415 . S
C584 H554 0.950 . S
C584 C579 1.363 . S
C584 C583 1.415 . S
H585 C582 0.999 . S
H586 C567 0.913 . S
H587 C605 0.951 . S
H588 C607 0.951 . S
H589 C609 0.950 . S
H590 C610 0.950 . S
H591 C612 0.950 . S
H592 C615 0.950 . S
H593 C616 0.950 . S
H594 C618 0.950 . S
H595 C619 0.950 . S
H596 C620 0.951 . S
H597 C622 0.951 . S
H598 C624 0.950 . S
H599 C625 0.950 . S
H600 C627 0.950 . S
H601 C630 0.950 . S
H602 C631 0.950 . S
H603 C633 0.950 . S
H604 C634 0.950 . S
C605 H587 0.951 . S
C605 C606 1.366 . S
C605 C607 1.388 . S
C606 C605 1.366 . S
C606 C610 1.385 . S
C607 H588 0.951 . S
C607 C605 1.388 . S
C607 C608 1.366 . S
C608 C607 1.366 . S
C608 C609 1.414 . S
C608 C611 1.499 . S
C609 H589 0.950 . S
C609 C608 1.414 . S
C609 C610 1.374 . S
C610 H590 0.950 . S
C610 C606 1.385 . S
C610 C609 1.374 . S
C611 C608 1.499 . S
C611 C612 1.373 . S
C611 C613 1.389 . S
C612 H591 0.950 . S
C612 C611 1.373 . S
C612 C628 1.377 . S
C613 C611 1.389 . S
C613 C614 1.524 . S
C613 C627 1.377 . S
C614 C613 1.524 . S
C614 C615 1.397 . S
C614 C619 1.363 . S
C615 H592 0.950 . S
C615 C614 1.397 . S
C615 C616 1.334 . S
C616 H593 0.950 . S
C616 C615 1.334 . S
C616 C617 1.287 . S
C617 C616 1.287 . S
C617 C618 1.524 . S
C617 H636 0.913 . S
C618 H594 0.950 . S
C618 C617 1.524 . S
C618 C619 1.415 . S
C619 H595 0.950 . S
C619 C614 1.363 . S
C619 C618 1.415 . S
C620 H596 0.951 . S
C620 C621 1.366 . S
C620 C622 1.388 . S
C621 C620 1.366 . S
C621 C625 1.385 . S
C622 H597 0.951 . S
C622 C620 1.388 . S
C622 C623 1.366 . S
C623 C622 1.366 . S
C623 C624 1.414 . S
C623 C626 1.499 . S
C624 H598 0.950 . S
C624 C623 1.414 . S
C624 C625 1.374 . S
C625 H599 0.950 . S
C625 C621 1.385 . S
C625 C624 1.374 . S
C626 C623 1.499 . S
C626 C627 1.373 . S
C626 C628 1.389 . S
C627 H600 0.950 . S
C627 C613 1.377 . S
C627 C626 1.373 . S
C628 C612 1.377 . S
C628 C626 1.389 . S
C628 C629 1.524 . S
C629 C628 1.524 . S
C629 C630 1.397 . S
C629 C634 1.363 . S
C630 H601 0.950 . S
C630 C629 1.397 . S
C630 C631 1.334 . S
C631 H602 0.950 . S
C631 C630 1.334 . S
C631 C632 1.287 . S
C632 C631 1.287 . S
C632 C633 1.524 . S
C632 H635 0.999 . S
C633 H603 0.950 . S
C633 C632 1.524 . S
C633 C634 1.415 . S
C634 H604 0.950 . S
C634 C629 1.363 . S
C634 C633 1.415 . S
H635 C632 0.999 . S
H636 C617 0.913 . S
H637 C655 0.951 . S
H638 C657 0.951 . S
H639 C659 0.950 . S
H640 C660 0.950 . S
H641 C662 0.950 . S
H642 C665 0.950 . S
H643 C666 0.950 . S
H644 C668 0.950 . S
H645 C669 0.950 . S
H646 C670 0.951 . S
H647 C672 0.951 . S
H648 C674 0.950 . S
H649 C675 0.950 . S
H650 C677 0.950 . S
H651 C680 0.950 . S
H652 C681 0.950 . S
H653 C683 0.950 . S
H654 C684 0.950 . S
C655 H637 0.951 . S
C655 C656 1.366 . S
C655 C657 1.388 . S
C656 C655 1.366 . S
C656 C660 1.385 . S
C657 H638 0.951 . S
C657 C655 1.388 . S
C657 C658 1.366 . S
C658 C657 1.366 . S
C658 C659 1.414 . S
C658 C661 1.499 . S
C659 H639 0.950 . S
C659 C658 1.414 . S
C659 C660 1.374 . S
C660 H640 0.950 . S
C660 C656 1.385 . S
C660 C659 1.374 . S
C661 C658 1.499 . S
C661 C662 1.373 . S
C661 C663 1.389 . S
C662 H641 0.950 . S
C662 C661 1.373 . S
C662 C678 1.377 . S
C663 C661 1.389 . S
C663 C664 1.524 . S
C663 C677 1.377 . S
C664 C663 1.524 . S
C664 C665 1.397 . S
C664 C669 1.363 . S
C665 H642 0.950 . S
C665 C664 1.397 . S
C665 C666 1.334 . S
C666 H643 0.950 . S
C666 C665 1.334 . S
C666 C667 1.287 . S
C667 C666 1.287 . S
C667 C668 1.524 . S
C667 H686 0.913 . S
C668 H644 0.950 . S
C668 C667 1.524 . S
C668 C669 1.415 . S
C669 H645 0.950 . S
C669 C664 1.363 . S
C669 C668 1.415 . S
C670 H646 0.951 . S
C670 C671 1.366 . S
C670 C672 1.388 . S
C671 C670 1.366 . S
C671 C675 1.385 . S
C672 H647 0.951 . S
C672 C670 1.388 . S
C672 C673 1.366 . S
C673 C672 1.366 . S
C673 C674 1.414 . S
C673 C676 1.499 . S
C674 H648 0.950 . S
C674 C673 1.414 . S
C674 C675 1.374 . S
C675 H649 0.950 . S
C675 C671 1.385 . S
C675 C674 1.374 . S
C676 C673 1.499 . S
C676 C677 1.373 . S
C676 C678 1.389 . S
C677 H650 0.950 . S
C677 C663 1.377 . S
C677 C676 1.373 . S
C678 C662 1.377 . S
C678 C676 1.389 . S
C678 C679 1.524 . S
C679 C678 1.524 . S
C679 C680 1.397 . S
C679 C684 1.363 . S
C680 H651 0.950 . S
C680 C679 1.397 . S
C680 C681 1.334 . S
C681 H652 0.950 . S
C681 C680 1.334 . S
C681 C682 1.287 . S
C682 C681 1.287 . S
C682 C683 1.524 . S
C682 H685 0.999 . S
C683 H653 0.950 . S
C683 C682 1.524 . S
C683 C684 1.415 . S
C684 H654 0.950 . S
C684 C679 1.363 . S
C684 C683 1.415 . S
H685 C682 0.999 . S
H686 C667 0.913 . S
H687 C705 0.951 . S
H688 C707 0.951 . S
H689 C709 0.950 . S
H690 C710 0.950 . S
H691 C712 0.950 . S
H692 C715 0.950 . S
H693 C716 0.950 . S
H694 C718 0.950 . S
H695 C719 0.950 . S
H696 C720 0.985 . S
H697 C722 0.951 . S
H698 C724 0.950 . S
H699 C725 0.950 . S
H700 C727 0.950 . S
H701 C730 0.950 . S
H702 C731 0.950 . S
H703 C733 0.950 . S
H704 C734 0.950 . S
C705 H687 0.951 . S
C705 C706 1.366 . S
C705 C707 1.388 . S
C706 C705 1.366 . S
C706 C710 1.385 . S
C707 H688 0.951 . S
C707 C705 1.388 . S
C707 C708 1.366 . S
C708 C707 1.366 . S
C708 C709 1.414 . S
C708 C711 1.499 . S
C709 H689 0.950 . S
C709 C708 1.414 . S
C709 C710 1.374 . S
C710 H690 0.950 . S
C710 C706 1.385 . S
C710 C709 1.374 . S
C711 C708 1.499 . S
C711 C712 1.373 . S
C711 C713 1.389 . S
C712 H691 0.950 . S
C712 C711 1.373 . S
C712 C728 1.377 . S
C713 C711 1.389 . S
C713 C714 1.524 . S
C713 C727 1.377 . S
C714 C713 1.524 . S
C714 C715 1.397 . S
C714 C719 1.363 . S
C715 H692 0.950 . S
C715 C714 1.397 . S
C715 C716 1.334 . S
C716 H693 0.950 . S
C716 C715 1.334 . S
C716 C717 1.287 . S
C717 C716 1.287 . S
C717 C718 1.524 . S
C717 H736 0.913 . S
C718 H694 0.950 . S
C718 C717 1.524 . S
C718 C719 1.415 . S
C719 H695 0.950 . S
C719 C714 1.363 . S
C719 C718 1.415 . S
C720 H696 0.985 . S
C720 C721 1.366 . S
C720 C722 1.388 . S
C721 C720 1.366 . S
C721 C725 1.385 . S
C722 H697 0.951 . S
C722 C720 1.388 . S
C722 C723 1.366 . S
C723 C722 1.366 . S
C723 C724 1.414 . S
C723 C726 1.499 . S
C724 H698 0.950 . S
C724 C723 1.414 . S
C724 C725 1.374 . S
C725 H699 0.950 . S
C725 C721 1.385 . S
C725 C724 1.374 . S
C726 C723 1.499 . S
C726 C727 1.373 . S
C726 C728 1.389 . S
C727 H700 0.950 . S
C727 C713 1.377 . S
C727 C726 1.373 . S
C728 C712 1.377 . S
C728 C726 1.389 . S
C728 C729 1.524 . S
C729 C728 1.524 . S
C729 C730 1.397 . S
C729 C734 1.363 . S
C730 H701 0.950 . S
C730 C729 1.397 . S
C730 C731 1.334 . S
C731 H702 0.950 . S
C731 C730 1.334 . S
C731 C732 1.287 . S
C732 C731 1.287 . S
C732 C733 1.524 . S
C732 H735 0.999 . S
C733 H703 0.950 . S
C733 C732 1.524 . S
C733 C734 1.415 . S
C734 H704 0.950 . S
C734 C729 1.363 . S
C734 C733 1.415 . S
H735 C732 0.999 . S
H736 C717 0.913 . S
H737 C755 0.951 . S
H738 C757 0.951 . S
H739 C759 0.950 . S
H740 C760 0.950 . S
H741 C762 0.950 . S
H742 C765 0.950 . S
H743 C766 0.950 . S
H744 C768 0.950 . S
H745 C769 0.950 . S
H746 C770 0.951 . S
H747 C772 0.951 . S
H748 C774 0.950 . S
H749 C775 0.950 . S
H750 C777 0.950 . S
H751 C780 0.950 . S
H752 C781 0.950 . S
H753 C783 0.950 . S
H754 C784 0.950 . S
C755 H737 0.951 . S
C755 C756 1.366 . S
C755 C757 1.388 . S
C756 C755 1.366 . S
C756 C760 1.385 . S
C757 H738 0.951 . S
C757 C755 1.388 . S
C757 C758 1.366 . S
C758 C757 1.366 . S
C758 C759 1.414 . S
C758 C761 1.499 . S
C759 H739 0.950 . S
C759 C758 1.414 . S
C759 C760 1.374 . S
C760 H740 0.950 . S
C760 C756 1.385 . S
C760 C759 1.374 . S
C761 C758 1.499 . S
C761 C762 1.373 . S
C761 C763 1.389 . S
C762 H741 0.950 . S
C762 C761 1.373 . S
C762 C778 1.377 . S
C763 C761 1.389 . S
C763 C764 1.524 . S
C763 C777 1.377 . S
C764 C763 1.524 . S
C764 C765 1.397 . S
C764 C769 1.363 . S
C765 H742 0.950 . S
C765 C764 1.397 . S
C765 C766 1.334 . S
C766 H743 0.950 . S
C766 C765 1.334 . S
C766 C767 1.287 . S
C767 C766 1.287 . S
C767 C768 1.524 . S
C767 H786 0.913 . S
C768 H744 0.950 . S
C768 C767 1.524 . S
C768 C769 1.415 . S
C769 H745 0.950 . S
C769 C764 1.363 . S
C769 C768 1.415 . S
C770 H746 0.951 . S
C770 C771 1.366 . S
C770 C772 1.388 . S
C771 C770 1.366 . S
C771 C775 1.385 . S
C772 H747 0.951 . S
C772 C770 1.388 . S
C772 C773 1.366 . S
C773 C772 1.366 . S
C773 C774 1.414 . S
C773 C776 1.499 . S
C774 H748 0.950 . S
C774 C773 1.414 . S
C774 C775 1.374 . S
C775 H749 0.950 . S
C775 C771 1.385 . S
C775 C774 1.374 . S
C776 C773 1.499 . S
C776 C777 1.373 . S
C776 C778 1.389 . S
C777 H750 0.950 . S
C777 C763 1.377 . S
C777 C776 1.373 . S
C778 C762 1.377 . S
C778 C776 1.389 . S
C778 C779 1.524 . S
C779 C778 1.524 . S
C779 C780 1.397 . S
C779 C784 1.363 . S
C780 H751 0.950 . S
C780 C779 1.397 . S
C780 C781 1.334 . S
C781 H752 0.950 . S
C781 C780 1.334 . S
C781 C782 1.287 . S
C782 C781 1.287 . S
C782 C783 1.524 . S
C782 H785 0.999 . S
C783 H753 0.950 . S
C783 C782 1.524 . S
C783 C784 1.415 . S
C784 H754 0.950 . S
C784 C779 1.363 . S
C784 C783 1.415 . S
H785 C782 0.999 . S
H786 C767 0.913 . S
H787 C805 0.951 . S
H788 C807 0.951 . S
H789 C809 0.950 . S
H790 C810 0.950 . S
H791 C812 0.950 . S
H792 C815 0.950 . S
H793 C816 0.950 . S
H794 C818 0.950 . S
H795 C819 0.950 . S
H796 C820 0.951 . S
H797 C822 0.951 . S
H798 C824 0.950 . S
H799 C825 0.950 . S
H800 C827 0.950 . S
H801 C830 0.950 . S
H802 C831 0.950 . S
H803 C833 0.950 . S
H804 C834 0.950 . S
C805 H787 0.951 . S
C805 C806 1.366 . S
C805 C807 1.388 . S
C806 C805 1.366 . S
C806 C810 1.385 . S
C807 H788 0.951 . S
C807 C805 1.388 . S
C807 C808 1.366 . S
C808 C807 1.366 . S
C808 C809 1.414 . S
C808 C811 1.499 . S
C809 H789 0.950 . S
C809 C808 1.414 . S
C809 C810 1.374 . S
C810 H790 0.950 . S
C810 C806 1.385 . S
C810 C809 1.374 . S
C811 C808 1.499 . S
C811 C812 1.373 . S
C811 C813 1.389 . S
C812 H791 0.950 . S
C812 C811 1.373 . S
C812 C828 1.377 . S
C813 C811 1.389 . S
C813 C814 1.524 . S
C813 C827 1.377 . S
C814 C813 1.524 . S
C814 C815 1.397 . S
C814 C819 1.363 . S
C815 H792 0.950 . S
C815 C814 1.397 . S
C815 C816 1.334 . S
C816 H793 0.950 . S
C816 C815 1.334 . S
C816 C817 1.287 . S
C817 C816 1.287 . S
C817 C818 1.524 . S
C817 H836 0.913 . S
C818 H794 0.950 . S
C818 C817 1.524 . S
C818 C819 1.415 . S
C819 H795 0.950 . S
C819 C814 1.363 . S
C819 C818 1.415 . S
C820 H796 0.951 . S
C820 C821 1.366 . S
C820 C822 1.388 . S
C821 C820 1.366 . S
C821 C825 1.385 . S
C822 H797 0.951 . S
C822 C820 1.388 . S
C822 C823 1.366 . S
C823 C822 1.366 . S
C823 C824 1.414 . S
C823 C826 1.499 . S
C824 H798 0.950 . S
C824 C823 1.414 . S
C824 C825 1.374 . S
C825 H799 0.950 . S
C825 C821 1.385 . S
C825 C824 1.374 . S
C826 C823 1.499 . S
C826 C827 1.373 . S
C826 C828 1.389 . S
C827 H800 0.950 . S
C827 C813 1.377 . S
C827 C826 1.373 . S
C828 C812 1.377 . S
C828 C826 1.389 . S
C828 C829 1.524 . S
C829 C828 1.524 . S
C829 C830 1.397 . S
C829 C834 1.363 . S
C830 H801 0.950 . S
C830 C829 1.397 . S
C830 C831 1.334 . S
C831 H802 0.950 . S
C831 C830 1.334 . S
C831 C832 1.287 . S
C832 C831 1.287 . S
C832 C833 1.524 . S
C832 H835 0.999 . S
C833 H803 0.950 . S
C833 C832 1.524 . S
C833 C834 1.415 . S
C834 H804 0.950 . S
C834 C829 1.363 . S
C834 C833 1.415 . S
H835 C832 0.999 . S
H836 C817 0.913 . S
H837 C855 0.951 . S
H838 C857 0.951 . S
H839 C859 0.950 . S
H840 C860 0.950 . S
H841 C862 0.950 . S
H842 C865 0.950 . S
H843 C866 0.950 . S
H844 C868 0.950 . S
H845 C869 0.950 . S
H846 C870 0.951 . S
H847 C872 0.951 . S
H848 C874 0.950 . S
H849 C875 0.950 . S
H850 C877 0.950 . S
H851 C880 0.950 . S
H852 C881 0.950 . S
H853 C883 0.950 1_545 S
H854 C884 0.950 . S
C855 H837 0.951 . S
C855 C856 1.366 . S
C855 C857 1.388 . S
C856 C855 1.366 . S
C856 C860 1.385 . S
C857 H838 0.951 . S
C857 C855 1.388 . S
C857 C858 1.366 . S
C858 C857 1.366 . S
C858 C859 1.414 . S
C858 C861 1.499 . S
C859 H839 0.950 . S
C859 C858 1.414 . S
C859 C860 1.374 . S
C860 H840 0.950 . S
C860 C856 1.385 . S
C860 C859 1.374 . S
C861 C858 1.499 . S
C861 C862 1.373 . S
C861 C863 1.389 . S
C862 H841 0.950 . S
C862 C861 1.373 . S
C862 C878 1.377 . S
C863 C861 1.389 . S
C863 C864 1.524 . S
C863 C877 1.377 . S
C864 C863 1.524 . S
C864 C865 1.397 . S
C864 C869 1.363 . S
C865 H842 0.950 . S
C865 C864 1.397 . S
C865 C866 1.334 . S
C866 H843 0.950 . S
C866 C865 1.334 . S
C866 C867 1.287 . S
C867 C866 1.287 . S
C867 C868 1.524 . S
C867 H886 0.913 . S
C868 H844 0.950 . S
C868 C867 1.524 . S
C868 C869 1.415 . S
C869 H845 0.950 . S
C869 C864 1.363 . S
C869 C868 1.415 . S
C870 H846 0.951 . S
C870 C871 1.366 . S
C870 C872 1.388 . S
C871 C870 1.366 . S
C871 C875 1.385 . S
C872 H847 0.951 . S
C872 C870 1.388 . S
C872 C873 1.366 . S
C873 C872 1.366 . S
C873 C874 1.414 . S
C873 C876 1.499 . S
C874 H848 0.950 . S
C874 C873 1.414 . S
C874 C875 1.374 . S
C875 H849 0.950 . S
C875 C871 1.385 . S
C875 C874 1.374 . S
C876 C873 1.499 . S
C876 C877 1.373 . S
C876 C878 1.389 . S
C877 H850 0.950 . S
C877 C863 1.377 . S
C877 C876 1.373 . S
C878 C862 1.377 . S
C878 C876 1.389 . S
C878 C879 1.524 . S
C879 C878 1.524 . S
C879 C880 1.397 . S
C879 C884 1.363 . S
C880 H851 0.950 . S
C880 C879 1.397 . S
C880 C881 1.334 . S
C881 H852 0.950 . S
C881 C880 1.334 . S
C881 C882 1.287 . S
C882 C881 1.287 . S
C882 C883 1.524 . S
C882 H885 0.999 1_565 S
C883 H853 0.950 1_565 S
C883 C882 1.524 . S
C883 C884 1.415 . S
C884 H854 0.950 . S
C884 C879 1.363 . S
C884 C883 1.415 . S
H885 C882 0.999 1_545 S
H886 C867 0.913 . S
H887 C905 0.951 . S
H888 C907 0.951 . S
H889 C909 0.950 . S
H890 C910 0.950 . S
H891 C912 0.950 . S
H892 C915 0.950 . S
H893 C916 0.950 . S
H894 C918 0.950 . S
H895 C919 0.950 . S
H896 C920 0.951 . S
H897 C922 0.951 . S
H898 C924 0.950 . S
H899 C925 0.950 . S
H900 C927 0.950 . S
H901 C930 0.950 . S
H902 C931 0.950 . S
H903 C933 0.950 . S
H904 C934 0.950 . S
C905 H887 0.951 . S
C905 C906 1.366 . S
C905 C907 1.388 . S
C906 C905 1.366 . S
C906 C910 1.385 . S
C907 H888 0.951 . S
C907 C905 1.388 . S
C907 C908 1.366 . S
C908 C907 1.366 . S
C908 C909 1.414 . S
C908 C911 1.499 . S
C909 H889 0.950 . S
C909 C908 1.414 . S
C909 C910 1.374 . S
C910 H890 0.950 . S
C910 C906 1.385 . S
C910 C909 1.374 . S
C911 C908 1.499 . S
C911 C912 1.373 . S
C911 C913 1.389 . S
C912 H891 0.950 . S
C912 C911 1.373 . S
C912 C928 1.377 . S
C913 C911 1.389 . S
C913 C914 1.524 . S
C913 C927 1.377 . S
C914 C913 1.524 . S
C914 C915 1.397 . S
C914 C919 1.363 . S
C915 H892 0.950 . S
C915 C914 1.397 . S
C915 C916 1.334 . S
C916 H893 0.950 . S
C916 C915 1.334 . S
C916 C917 1.287 . S
C917 C916 1.287 . S
C917 C918 1.524 . S
C917 H936 0.913 . S
C918 H894 0.950 . S
C918 C917 1.524 . S
C918 C919 1.415 . S
C919 H895 0.950 . S
C919 C914 1.363 . S
C919 C918 1.415 . S
C920 H896 0.951 . S
C920 C921 1.366 . S
C920 C922 1.388 . S
C921 C920 1.366 . S
C921 C925 1.385 . S
C922 H897 0.951 . S
C922 C920 1.388 . S
C922 C923 1.366 . S
C923 C922 1.366 . S
C923 C924 1.414 . S
C923 C926 1.499 . S
C924 H898 0.950 . S
C924 C923 1.414 . S
C924 C925 1.374 . S
C925 H899 0.950 . S
C925 C921 1.385 . S
C925 C924 1.374 . S
C926 C923 1.499 . S
C926 C927 1.373 . S
C926 C928 1.389 . S
C927 H900 0.950 . S
C927 C913 1.377 . S
C927 C926 1.373 . S
C928 C912 1.377 . S
C928 C926 1.389 . S
C928 C929 1.524 . S
C929 C928 1.524 . S
C929 C930 1.397 . S
C929 C934 1.363 . S
C930 H901 0.950 . S
C930 C929 1.397 . S
C930 C931 1.334 . S
C931 H902 0.950 . S
C931 C930 1.334 . S
C931 C932 1.287 . S
C932 C931 1.287 . S
C932 C933 1.524 . S
C932 H935 0.999 . S
C933 H903 0.950 . S
C933 C932 1.524 . S
C933 C934 1.415 . S
C934 H904 0.950 . S
C934 C929 1.363 . S
C934 C933 1.415 . S
H935 C932 0.999 . S
H936 C917 0.913 . S
H937 C955 0.951 . S
H938 C957 0.951 . S
H939 C959 0.950 . S
H940 C960 0.950 . S
H941 C962 0.950 . S
H942 C965 0.950 . S
H943 C966 0.950 . S
H944 C968 0.950 . S
H945 C969 0.950 . S
H946 C970 0.951 . S
H947 C972 0.951 . S
H948 C974 0.950 . S
H949 C975 0.950 . S
H950 C977 0.950 . S
H951 C980 0.950 . S
H952 C981 0.950 . S
H953 C983 0.950 . S
H954 C984 0.950 . S
C955 H937 0.951 . S
C955 C956 1.366 . S
C955 C957 1.388 . S
C956 C955 1.366 . S
C956 C960 1.385 . S
C957 H938 0.951 . S
C957 C955 1.388 . S
C957 C958 1.366 . S
C958 C957 1.366 . S
C958 C959 1.414 . S
C958 C961 1.499 . S
C959 H939 0.950 . S
C959 C958 1.414 . S
C959 C960 1.374 . S
C960 H940 0.950 . S
C960 C956 1.385 . S
C960 C959 1.374 . S
C961 C958 1.499 . S
C961 C962 1.373 . S
C961 C963 1.389 . S
C962 H941 0.950 . S
C962 C961 1.373 . S
C962 C978 1.377 . S
C963 C961 1.389 . S
C963 C964 1.524 . S
C963 C977 1.377 . S
C964 C963 1.524 . S
C964 C965 1.397 . S
C964 C969 1.363 . S
C965 H942 0.950 . S
C965 C964 1.397 . S
C965 C966 1.334 . S
C966 H943 0.950 . S
C966 C965 1.334 . S
C966 C967 1.287 . S
C967 C966 1.287 . S
C967 C968 1.524 . S
C967 H986 0.913 . S
C968 H944 0.950 . S
C968 C967 1.524 . S
C968 C969 1.415 . S
C969 H945 0.950 . S
C969 C964 1.363 . S
C969 C968 1.415 . S
C970 H946 0.951 . S
C970 C971 1.366 . S
C970 C972 1.388 . S
C971 C970 1.366 . S
C971 C975 1.385 . S
C972 H947 0.951 . S
C972 C970 1.388 . S
C972 C973 1.366 . S
C973 C972 1.366 . S
C973 C974 1.414 . S
C973 C976 1.499 . S
C974 H948 0.950 . S
C974 C973 1.414 . S
C974 C975 1.374 . S
C975 H949 0.950 . S
C975 C971 1.385 . S
C975 C974 1.374 . S
C976 C973 1.499 . S
C976 C977 1.373 . S
C976 C978 1.389 . S
C977 H950 0.950 . S
C977 C963 1.377 . S
C977 C976 1.373 . S
C978 C962 1.377 . S
C978 C976 1.389 . S
C978 C979 1.524 . S
C979 C978 1.524 . S
C979 C980 1.397 . S
C979 C984 1.363 . S
C980 H951 0.950 . S
C980 C979 1.397 . S
C980 C981 1.334 . S
C981 H952 0.950 . S
C981 C980 1.334 . S
C981 C982 1.287 . S
C982 C981 1.287 . S
C982 C983 1.524 . S
C982 H985 0.999 . S
C983 H953 0.950 . S
C983 C982 1.524 . S
C983 C984 1.415 . S
C984 H954 0.950 . S
C984 C979 1.363 . S
C984 C983 1.415 . S
H985 C982 0.999 . S
H986 C967 0.913 . S
H987 C1005 0.951 . S
H988 C1007 0.951 . S
H989 C1009 0.950 . S
H990 C1010 0.950 . S
H991 C1012 0.950 . S
H992 C1015 0.950 . S
H993 C1016 0.950 1_554 S
H994 C1018 0.950 . S
H995 C1019 0.950 . S
H996 C1020 0.951 . S
H997 C1022 0.951 . S
H998 C1024 0.950 . S
H999 C1025 0.950 . S
H1000 C1027 0.950 . S
H1001 C1030 0.950 . S
H1002 C1031 0.950 . S
H1003 C1033 0.950 . S
H1004 C1034 0.950 . S
C1005 H987 0.951 . S
C1005 C1006 1.375 . S
C1005 C1007 1.388 . S
C1006 C1005 1.375 . S
C1006 C1010 1.384 1_556 S
C1007 H988 0.951 . S
C1007 C1005 1.388 . S
C1007 C1008 1.366 . S
C1008 C1007 1.366 . S
C1008 C1009 1.414 . S
C1008 C1011 1.499 . S
C1009 H989 0.950 . S
C1009 C1008 1.414 . S
C1009 C1010 1.374 1_556 S
C1010 H990 0.950 . S
C1010 C1006 1.384 1_554 S
C1010 C1009 1.374 1_554 S
C1011 C1008 1.499 . S
C1011 C1012 1.373 . S
C1011 C1013 1.389 . S
C1012 H991 0.950 . S
C1012 C1011 1.373 . S
C1012 C1028 1.377 . S
C1013 C1011 1.389 . S
C1013 C1014 1.524 . S
C1013 C1027 1.377 . S
C1014 C1013 1.524 . S
C1014 C1015 1.397 . S
C1014 C1019 1.363 . S
C1015 H992 0.950 . S
C1015 C1014 1.397 . S
C1015 C1016 1.334 . S
C1016 H993 0.950 1_556 S
C1016 C1015 1.334 . S
C1016 C1017 1.287 . S
C1017 C1016 1.287 . S
C1017 C1018 1.524 . S
C1017 H1036 0.913 . S
C1018 H994 0.950 . S
C1018 C1017 1.524 . S
C1018 C1019 1.415 . S
C1019 H995 0.950 . S
C1019 C1014 1.363 . S
C1019 C1018 1.415 . S
C1020 H996 0.951 . S
C1020 C1021 1.366 . S
C1020 C1022 1.388 . S
C1021 C1020 1.366 . S
C1021 C1025 1.385 . S
C1022 H997 0.951 . S
C1022 C1020 1.388 . S
C1022 C1023 1.366 . S
C1023 C1022 1.366 . S
C1023 C1024 1.414 . S
C1023 C1026 1.499 . S
C1024 H998 0.950 . S
C1024 C1023 1.414 . S
C1024 C1025 1.374 . S
C1025 H999 0.950 . S
C1025 C1021 1.385 . S
C1025 C1024 1.374 . S
C1026 C1023 1.499 . S
C1026 C1027 1.373 . S
C1026 C1028 1.389 . S
C1027 H1000 0.950 . S
C1027 C1013 1.377 . S
C1027 C1026 1.373 . S
C1028 C1012 1.377 . S
C1028 C1026 1.389 . S
C1028 C1029 1.524 . S
C1029 C1028 1.524 . S
C1029 C1030 1.397 . S
C1029 C1034 1.363 . S
C1030 H1001 0.950 . S
C1030 C1029 1.397 . S
C1030 C1031 1.334 . S
C1031 H1002 0.950 . S
C1031 C1030 1.334 . S
C1031 C1032 1.287 . S
C1032 C1031 1.287 . S
C1032 C1033 1.524 . S
C1032 H1035 0.999 . S
C1033 H1003 0.950 . S
C1033 C1032 1.524 . S
C1033 C1034 1.415 . S
C1034 H1004 0.950 . S
C1034 C1029 1.363 . S
C1034 C1033 1.415 . S
H1035 C1032 0.999 . S
H1036 C1017 0.913 . S
H1037 C1055 0.951 . S
H1038 C1057 0.951 . S
H1039 C1059 0.950 . S
H1040 C1060 0.950 1_554 S
H1041 C1062 0.950 . S
H1042 C1065 0.950 . S
H1043 C1066 0.950 . S
H1044 C1068 0.950 . S
H1045 C1069 0.950 . S
H1046 C1070 0.951 . S
H1047 C1072 0.951 . S
H1048 C1074 0.950 . S
H1049 C1075 0.950 . S
H1050 C1077 0.950 . S
H1051 C1080 0.950 . S
H1052 C1081 0.950 . S
H1053 C1083 0.950 . S
H1054 C1084 0.950 . S
C1055 H1037 0.951 . S
C1055 C1056 1.366 . S
C1055 C1057 1.388 . S
C1056 C1055 1.366 . S
C1056 C1060 1.385 . S
C1057 H1038 0.951 . S
C1057 C1055 1.388 . S
C1057 C1058 1.366 . S
C1058 C1057 1.366 . S
C1058 C1059 1.414 . S
C1058 C1061 1.499 . S
C1059 H1039 0.950 . S
C1059 C1058 1.414 . S
C1059 C1060 1.374 . S
C1060 H1040 0.950 1_556 S
C1060 C1056 1.385 . S
C1060 C1059 1.374 . S
C1061 C1058 1.499 . S
C1061 C1062 1.373 . S
C1061 C1063 1.389 . S
C1062 H1041 0.950 . S
C1062 C1061 1.373 . S
C1062 C1078 1.377 . S
C1063 C1061 1.389 . S
C1063 C1064 1.524 . S
C1063 C1077 1.377 . S
C1064 C1063 1.524 . S
C1064 C1065 1.397 . S
C1064 C1069 1.363 . S
C1065 H1042 0.950 . S
C1065 C1064 1.397 . S
C1065 C1066 1.334 . S
C1066 H1043 0.950 . S
C1066 C1065 1.334 . S
C1066 C1067 1.287 . S
C1067 C1066 1.287 . S
C1067 C1068 1.524 . S
C1067 H1086 0.913 . S
C1068 H1044 0.950 . S
C1068 C1067 1.524 . S
C1068 C1069 1.415 . S
C1069 H1045 0.950 . S
C1069 C1064 1.363 . S
C1069 C1068 1.415 . S
C1070 H1046 0.951 . S
C1070 C1071 1.366 . S
C1070 C1072 1.388 . S
C1071 C1070 1.366 . S
C1071 C1075 1.385 . S
C1072 H1047 0.951 . S
C1072 C1070 1.388 . S
C1072 C1073 1.366 . S
C1073 C1072 1.366 . S
C1073 C1074 1.414 . S
C1073 C1076 1.499 . S
C1074 H1048 0.950 . S
C1074 C1073 1.414 . S
C1074 C1075 1.374 . S
C1075 H1049 0.950 . S
C1075 C1071 1.385 . S
C1075 C1074 1.374 . S
C1076 C1073 1.499 . S
C1076 C1077 1.373 . S
C1076 C1078 1.389 . S
C1077 H1050 0.950 . S
C1077 C1063 1.377 . S
C1077 C1076 1.373 . S
C1078 C1062 1.377 . S
C1078 C1076 1.389 . S
C1078 C1079 1.524 . S
C1079 C1078 1.524 . S
C1079 C1080 1.397 . S
C1079 C1084 1.363 . S
C1080 H1051 0.950 . S
C1080 C1079 1.397 . S
C1080 C1081 1.334 . S
C1081 H1052 0.950 . S
C1081 C1080 1.334 . S
C1081 C1082 1.287 . S
C1082 C1081 1.287 . S
C1082 C1083 1.524 . S
C1082 H1085 0.999 . S
C1083 H1053 0.950 . S
C1083 C1082 1.524 . S
C1083 C1084 1.415 . S
C1084 H1054 0.950 . S
C1084 C1079 1.363 . S
C1084 C1083 1.415 . S
H1085 C1082 0.999 . S
H1086 C1067 0.913 . S
H1087 C1105 0.951 . S
H1088 C1107 0.951 . S
H1089 C1109 0.950 . S
H1090 C1110 0.950 . S
H1091 C1112 0.950 . S
H1092 C1115 0.950 . S
H1093 C1116 0.950 . S
H1094 C1118 0.950 . S
H1095 C1119 0.950 . S
H1096 C1120 0.951 . S
H1097 C1122 0.951 . S
H1098 C1124 0.950 . S
H1099 C1125 0.950 . S
H1100 C1127 0.950 . S
H1101 C1130 0.950 . S
H1102 C1131 0.950 . S
H1103 C1133 0.950 . S
H1104 C1134 0.950 . S
C1105 H1087 0.951 . S
C1105 C1106 1.366 . S
C1105 C1107 1.388 . S
C1106 C1105 1.366 . S
C1106 C1110 1.385 . S
C1107 H1088 0.951 . S
C1107 C1105 1.388 . S
C1107 C1108 1.366 . S
C1108 C1107 1.366 . S
C1108 C1109 1.414 . S
C1108 C1111 1.499 . S
C1109 H1089 0.950 . S
C1109 C1108 1.414 . S
C1109 C1110 1.374 . S
C1110 H1090 0.950 . S
C1110 C1106 1.385 . S
C1110 C1109 1.374 . S
C1111 C1108 1.499 . S
C1111 C1112 1.373 . S
C1111 C1113 1.389 . S
C1112 H1091 0.950 . S
C1112 C1111 1.373 . S
C1112 C1128 1.377 . S
C1113 C1111 1.389 . S
C1113 C1114 1.524 . S
C1113 C1127 1.377 . S
C1114 C1113 1.524 . S
C1114 C1115 1.397 . S
C1114 C1119 1.363 . S
C1115 H1092 0.950 . S
C1115 C1114 1.397 . S
C1115 C1116 1.334 . S
C1116 H1093 0.950 . S
C1116 C1115 1.334 . S
C1116 C1117 1.287 . S
C1117 C1116 1.287 . S
C1117 C1118 1.524 . S
C1117 H1136 0.913 . S
C1118 H1094 0.950 . S
C1118 C1117 1.524 . S
C1118 C1119 1.415 . S
C1119 H1095 0.950 . S
C1119 C1114 1.363 . S
C1119 C1118 1.415 . S
C1120 H1096 0.951 . S
C1120 C1121 1.366 . S
C1120 C1122 1.388 . S
C1121 C1120 1.366 . S
C1121 C1125 1.385 . S
C1122 H1097 0.951 . S
C1122 C1120 1.388 . S
C1122 C1123 1.366 . S
C1123 C1122 1.366 . S
C1123 C1124 1.414 . S
C1123 C1126 1.499 . S
C1124 H1098 0.950 . S
C1124 C1123 1.414 . S
C1124 C1125 1.374 . S
C1125 H1099 0.950 . S
C1125 C1121 1.385 . S
C1125 C1124 1.374 . S
C1126 C1123 1.499 . S
C1126 C1127 1.373 . S
C1126 C1128 1.389 . S
C1127 H1100 0.950 . S
C1127 C1113 1.377 . S
C1127 C1126 1.373 . S
C1128 C1112 1.377 . S
C1128 C1126 1.389 . S
C1128 C1129 1.524 . S
C1129 C1128 1.524 . S
C1129 C1130 1.397 . S
C1129 C1134 1.363 . S
C1130 H1101 0.950 . S
C1130 C1129 1.397 . S
C1130 C1131 1.334 . S
C1131 H1102 0.950 . S
C1131 C1130 1.334 . S
C1131 C1132 1.287 . S
C1132 C1131 1.287 . S
C1132 C1133 1.524 . S
C1132 H1135 0.992 1_655 S
C1133 H1103 0.950 . S
C1133 C1132 1.524 . S
C1133 C1134 1.415 . S
C1134 H1104 0.950 . S
C1134 C1129 1.363 . S
C1134 C1133 1.415 . S
H1135 C1132 0.992 1_455 S
H1136 C1117 0.913 . S
H1137 C1155 0.951 . S
H1138 C1157 0.951 . S
H1139 C1159 0.950 . S
H1140 C1160 0.950 . S
H1141 C1162 0.950 . S
H1142 C1165 0.950 . S
H1143 C1166 0.950 . S
H1144 C1168 0.950 . S
H1145 C1169 0.950 . S
H1146 C1170 0.951 . S
H1147 C1172 0.951 . S
H1148 C1174 0.950 . S
H1149 C1175 0.950 . S
H1150 C1177 0.950 . S
H1151 C1180 0.950 . S
H1152 C1181 0.950 . S
H1153 C1183 0.950 . S
H1154 C1184 0.950 . S
C1155 H1137 0.951 . S
C1155 C1156 1.366 . S
C1155 C1157 1.388 . S
C1156 C1155 1.366 . S
C1156 C1160 1.385 . S
C1157 H1138 0.951 . S
C1157 C1155 1.388 . S
C1157 C1158 1.366 . S
C1158 C1157 1.366 . S
C1158 C1159 1.414 . S
C1158 C1161 1.499 . S
C1159 H1139 0.950 . S
C1159 C1158 1.414 . S
C1159 C1160 1.374 . S
C1160 H1140 0.950 . S
C1160 C1156 1.385 . S
C1160 C1159 1.374 . S
C1161 C1158 1.499 . S
C1161 C1162 1.373 . S
C1161 C1163 1.389 . S
C1162 H1141 0.950 . S
C1162 C1161 1.373 . S
C1162 C1178 1.377 . S
C1163 C1161 1.389 . S
C1163 C1164 1.524 . S
C1163 C1177 1.377 . S
C1164 C1163 1.524 . S
C1164 C1165 1.397 . S
C1164 C1169 1.363 . S
C1165 H1142 0.950 . S
C1165 C1164 1.397 . S
C1165 C1166 1.334 . S
C1166 H1143 0.950 . S
C1166 C1165 1.334 . S
C1166 C1167 1.287 . S
C1167 C1166 1.287 . S
C1167 C1168 1.524 . S
C1167 H1186 0.913 . S
C1168 H1144 0.950 . S
C1168 C1167 1.524 . S
C1168 C1169 1.415 . S
C1169 H1145 0.950 . S
C1169 C1164 1.363 . S
C1169 C1168 1.415 . S
C1170 H1146 0.951 . S
C1170 C1171 1.366 . S
C1170 C1172 1.388 . S
C1171 C1170 1.366 . S
C1171 C1175 1.385 . S
C1172 H1147 0.951 . S
C1172 C1170 1.388 . S
C1172 C1173 1.366 . S
C1173 C1172 1.366 . S
C1173 C1174 1.414 . S
C1173 C1176 1.499 . S
C1174 H1148 0.950 . S
C1174 C1173 1.414 . S
C1174 C1175 1.374 . S
C1175 H1149 0.950 . S
C1175 C1171 1.385 . S
C1175 C1174 1.374 . S
C1176 C1173 1.499 . S
C1176 C1177 1.373 . S
C1176 C1178 1.389 . S
C1177 H1150 0.950 . S
C1177 C1163 1.377 . S
C1177 C1176 1.373 . S
C1178 C1162 1.377 . S
C1178 C1176 1.389 . S
C1178 C1179 1.524 . S
C1179 C1178 1.524 . S
C1179 C1180 1.397 . S
C1179 C1184 1.363 . S
C1180 H1151 0.950 . S
C1180 C1179 1.397 . S
C1180 C1181 1.334 . S
C1181 H1152 0.950 . S
C1181 C1180 1.334 . S
C1181 C1182 1.287 . S
C1182 C1181 1.287 . S
C1182 C1183 1.524 . S
C1182 H1185 0.999 . S
C1183 H1153 0.950 . S
C1183 C1182 1.524 . S
C1183 C1184 1.415 . S
C1184 H1154 0.950 . S
C1184 C1179 1.363 . S
C1184 C1183 1.415 . S
H1185 C1182 0.999 . S
H1186 C1167 0.913 . S
H1187 C1205 0.951 . S
H1188 C1207 0.951 . S
H1189 C1209 0.950 . S
H1190 C1210 0.950 . S
H1191 C1212 0.950 . S
H1192 C1215 0.950 . S
H1193 C1216 0.950 . S
H1194 C1218 0.950 1_554 S
H1195 C1219 0.950 . S
H1196 C1220 0.951 . S
H1197 C1222 0.951 . S
H1198 C1224 0.950 . S
H1199 C1225 0.950 . S
H1200 C1227 0.950 . S
H1201 C1230 0.950 . S
H1202 C1231 0.950 . S
H1203 C1233 0.950 . S
H1204 C1234 0.950 . S
C1205 H1187 0.951 . S
C1205 C1206 1.366 . S
C1205 C1207 1.388 . S
C1206 C1205 1.366 . S
C1206 C1210 1.385 . S
C1207 H1188 0.951 . S
C1207 C1205 1.388 . S
C1207 C1208 1.366 . S
C1208 C1207 1.366 . S
C1208 C1209 1.414 . S
C1208 C1211 1.499 . S
C1209 H1189 0.950 . S
C1209 C1208 1.414 . S
C1209 C1210 1.374 . S
C1210 H1190 0.950 . S
C1210 C1206 1.385 . S
C1210 C1209 1.374 . S
C1211 C1208 1.499 . S
C1211 C1212 1.373 . S
C1211 C1213 1.389 . S
C1212 H1191 0.950 . S
C1212 C1211 1.373 . S
C1212 C1228 1.377 . S
C1213 C1211 1.389 . S
C1213 C1214 1.524 . S
C1213 C1227 1.377 . S
C1214 C1213 1.524 . S
C1214 C1215 1.397 . S
C1214 C1219 1.363 . S
C1215 H1192 0.950 . S
C1215 C1214 1.397 . S
C1215 C1216 1.334 . S
C1216 H1193 0.950 . S
C1216 C1215 1.334 . S
C1216 C1217 1.287 . S
C1217 C1216 1.287 . S
C1217 C1218 1.524 . S
C1217 H1236 0.913 1_556 S
C1218 H1194 0.950 1_556 S
C1218 C1217 1.524 . S
C1218 C1219 1.415 . S
C1219 H1195 0.950 . S
C1219 C1214 1.363 . S
C1219 C1218 1.415 . S
C1220 H1196 0.951 . S
C1220 C1221 1.366 . S
C1220 C1222 1.388 . S
C1221 C1220 1.366 . S
C1221 C1225 1.385 . S
C1222 H1197 0.951 . S
C1222 C1220 1.388 . S
C1222 C1223 1.366 . S
C1223 C1222 1.366 . S
C1223 C1224 1.414 . S
C1223 C1226 1.499 . S
C1224 H1198 0.950 . S
C1224 C1223 1.414 . S
C1224 C1225 1.374 . S
C1225 H1199 0.950 . S
C1225 C1221 1.385 . S
C1225 C1224 1.374 . S
C1226 C1223 1.499 . S
C1226 C1227 1.373 . S
C1226 C1228 1.389 . S
C1227 H1200 0.950 . S
C1227 C1213 1.377 . S
C1227 C1226 1.373 . S
C1228 C1212 1.377 . S
C1228 C1226 1.389 . S
C1228 C1229 1.524 . S
C1229 C1228 1.524 . S
C1229 C1230 1.397 . S
C1229 C1234 1.363 . S
C1230 H1201 0.950 . S
C1230 C1229 1.397 . S
C1230 C1231 1.334 . S
C1231 H1202 0.950 . S
C1231 C1230 1.334 . S
C1231 C1232 1.287 . S
C1232 C1231 1.287 . S
C1232 C1233 1.524 . S
C1232 H1235 0.999 . S
C1233 H1203 0.950 . S
C1233 C1232 1.524 . S
C1233 C1234 1.415 . S
C1234 H1204 0.950 . S
C1234 C1229 1.363 . S
C1234 C1233 1.415 . S
H1235 C1232 0.999 . S
H1236 C1217 0.913 1_554 S
H1237 C1255 0.951 . S
H1238 C1257 0.951 . S
H1239 C1259 0.950 1_556 S
H1240 C1260 0.950 . S
H1241 C1262 0.950 . S
H1242 C1265 0.950 . S
H1243 C1266 0.950 . S
H1244 C1268 0.950 . S
H1245 C1269 0.950 . S
H1246 C1270 0.951 . S
H1247 C1272 0.951 . S
H1248 C1274 0.950 . S
H1249 C1275 0.950 . S
H1250 C1277 0.950 . S
H1251 C1280 0.950 . S
H1252 C1281 0.950 . S
H1253 C1283 0.950 . S
H1254 C1284 0.950 . S
C1255 H1237 0.951 . S
C1255 C1256 1.366 . S
C1255 C1257 1.388 . S
C1256 C1255 1.366 . S
C1256 C1260 1.385 . S
C1257 H1238 0.951 . S
C1257 C1255 1.388 . S
C1257 C1258 1.374 . S
C1258 C1257 1.374 . S
C1258 C1259 1.414 . S
C1258 C1261 1.490 1_554 S
C1259 H1239 0.950 1_554 S
C1259 C1258 1.414 . S
C1259 C1260 1.374 . S
C1260 H1240 0.950 . S
C1260 C1256 1.385 . S
C1260 C1259 1.374 . S
C1261 C1258 1.490 1_556 S
C1261 C1262 1.373 . S
C1261 C1263 1.389 . S
C1262 H1241 0.950 . S
C1262 C1261 1.373 . S
C1262 C1278 1.377 . S
C1263 C1261 1.389 . S
C1263 C1264 1.524 . S
C1263 C1277 1.377 . S
C1264 C1263 1.524 . S
C1264 C1265 1.397 . S
C1264 C1269 1.363 . S
C1265 H1242 0.950 . S
C1265 C1264 1.397 . S
C1265 C1266 1.334 . S
C1266 H1243 0.950 . S
C1266 C1265 1.334 . S
C1266 C1267 1.287 . S
C1267 C1266 1.287 . S
C1267 C1268 1.524 . S
C1267 H1286 0.913 . S
C1268 H1244 0.950 . S
C1268 C1267 1.524 . S
C1268 C1269 1.415 . S
C1269 H1245 0.950 . S
C1269 C1264 1.363 . S
C1269 C1268 1.415 . S
C1270 H1246 0.951 . S
C1270 C1271 1.366 . S
C1270 C1272 1.388 . S
C1271 C1270 1.366 . S
C1271 C1275 1.385 . S
C1272 H1247 0.951 . S
C1272 C1270 1.388 . S
C1272 C1273 1.366 . S
C1273 C1272 1.366 . S
C1273 C1274 1.414 . S
C1273 C1276 1.499 . S
C1274 H1248 0.950 . S
C1274 C1273 1.414 . S
C1274 C1275 1.374 . S
C1275 H1249 0.950 . S
C1275 C1271 1.385 . S
C1275 C1274 1.374 . S
C1276 C1273 1.499 . S
C1276 C1277 1.373 . S
C1276 C1278 1.389 . S
C1277 H1250 0.950 . S
C1277 C1263 1.377 . S
C1277 C1276 1.373 . S
C1278 C1262 1.377 . S
C1278 C1276 1.389 . S
C1278 C1279 1.524 . S
C1279 C1278 1.524 . S
C1279 C1280 1.397 . S
C1279 C1284 1.363 . S
C1280 H1251 0.950 . S
C1280 C1279 1.397 . S
C1280 C1281 1.334 . S
C1281 H1252 0.950 . S
C1281 C1280 1.334 . S
C1281 C1282 1.287 . S
C1282 C1281 1.287 . S
C1282 C1283 1.524 . S
C1282 H1285 0.999 . S
C1283 H1253 0.950 . S
C1283 C1282 1.524 . S
C1283 C1284 1.415 . S
C1284 H1254 0.950 . S
C1284 C1279 1.363 . S
C1284 C1283 1.415 . S
H1285 C1282 0.999 . S
H1286 C1267 0.913 . S
H1287 C1305 0.951 . S
H1288 C1307 0.951 . S
H1289 C1309 0.950 . S
H1290 C1310 0.950 . S
H1291 C1312 0.950 . S
H1292 C1315 0.950 . S
H1293 C1316 0.950 . S
H1294 C1318 0.950 . S
H1295 C1319 0.950 . S
H1296 C1320 0.951 . S
H1297 C1322 0.951 . S
H1298 C1324 0.950 . S
H1299 C1325 0.950 . S
H1300 C1327 0.950 . S
H1301 C1330 0.950 . S
H1302 C1331 0.950 . S
H1303 C1333 0.950 . S
H1304 C1334 0.950 . S
C1305 H1287 0.951 . S
C1305 C1306 1.366 . S
C1305 C1307 1.388 1_554 S
C1306 C1305 1.366 . S
C1306 C1310 1.385 1_554 S
C1307 H1288 0.951 . S
C1307 C1305 1.388 1_556 S
C1307 C1308 1.366 . S
C1308 C1307 1.366 . S
C1308 C1309 1.414 . S
C1308 C1311 1.499 . S
C1309 H1289 0.950 . S
C1309 C1308 1.414 . S
C1309 C1310 1.374 . S
C1310 H1290 0.950 . S
C1310 C1306 1.385 1_556 S
C1310 C1309 1.374 . S
C1311 C1308 1.499 . S
C1311 C1312 1.373 . S
C1311 C1313 1.389 . S
C1312 H1291 0.950 . S
C1312 C1311 1.373 . S
C1312 C1328 1.377 . S
C1313 C1311 1.389 . S
C1313 C1314 1.524 . S
C1313 C1327 1.377 . S
C1314 C1313 1.524 . S
C1314 C1315 1.397 . S
C1314 C1319 1.363 . S
C1315 H1292 0.950 . S
C1315 C1314 1.397 . S
C1315 C1316 1.334 . S
C1316 H1293 0.950 . S
C1316 C1315 1.334 . S
C1316 C1317 1.287 . S
C1317 C1316 1.287 . S
C1317 C1318 1.524 . S
C1317 H1336 0.913 . S
C1318 H1294 0.950 . S
C1318 C1317 1.524 . S
C1318 C1319 1.415 . S
C1319 H1295 0.950 . S
C1319 C1314 1.363 . S
C1319 C1318 1.415 . S
C1320 H1296 0.951 . S
C1320 C1321 1.366 . S
C1320 C1322 1.388 . S
C1321 C1320 1.366 . S
C1321 C1325 1.385 . S
C1322 H1297 0.951 . S
C1322 C1320 1.388 . S
C1322 C1323 1.366 . S
C1323 C1322 1.366 . S
C1323 C1324 1.414 . S
C1323 C1326 1.499 . S
C1324 H1298 0.950 . S
C1324 C1323 1.414 . S
C1324 C1325 1.374 . S
C1325 H1299 0.950 . S
C1325 C1321 1.385 . S
C1325 C1324 1.374 . S
C1326 C1323 1.499 . S
C1326 C1327 1.373 . S
C1326 C1328 1.389 . S
C1327 H1300 0.950 . S
C1327 C1313 1.377 . S
C1327 C1326 1.373 . S
C1328 C1312 1.377 . S
C1328 C1326 1.389 . S
C1328 C1329 1.524 . S
C1329 C1328 1.524 . S
C1329 C1330 1.397 . S
C1329 C1334 1.363 . S
C1330 H1301 0.950 . S
C1330 C1329 1.397 . S
C1330 C1331 1.334 . S
C1331 H1302 0.950 . S
C1331 C1330 1.334 . S
C1331 C1332 1.287 . S
C1332 C1331 1.287 . S
C1332 C1333 1.524 . S
C1332 H1335 0.999 . S
C1333 H1303 0.950 . S
C1333 C1332 1.524 . S
C1333 C1334 1.415 . S
C1334 H1304 0.950 . S
C1334 C1329 1.363 . S
C1334 C1333 1.415 . S
H1335 C1332 0.999 . S
H1336 C1317 0.913 . S
H1337 C1355 0.951 . S
H1338 C1357 0.951 . S
H1339 C1359 0.950 . S
H1340 C1360 0.950 . S
H1341 C1362 0.950 . S
H1342 C1365 0.950 . S
H1343 C1366 0.950 . S
H1344 C1368 0.950 . S
H1345 C1369 0.950 . S
H1346 C1370 0.951 . S
H1347 C1372 0.951 . S
H1348 C1374 0.950 . S
H1349 C1375 0.950 . S
H1350 C1377 0.950 . S
H1351 C1380 0.950 . S
H1352 C1381 0.950 . S
H1353 C1383 0.950 . S
H1354 C1384 0.950 . S
C1355 H1337 0.951 . S
C1355 C1356 1.366 . S
C1355 C1357 1.388 . S
C1356 C1355 1.366 . S
C1356 C1360 1.385 . S
C1357 H1338 0.951 . S
C1357 C1355 1.388 . S
C1357 C1358 1.366 . S
C1358 C1357 1.366 . S
C1358 C1359 1.414 . S
C1358 C1361 1.499 . S
C1359 H1339 0.950 . S
C1359 C1358 1.414 . S
C1359 C1360 1.374 . S
C1360 H1340 0.950 . S
C1360 C1356 1.385 . S
C1360 C1359 1.374 . S
C1361 C1358 1.499 . S
C1361 C1362 1.373 . S
C1361 C1363 1.389 . S
C1362 H1341 0.950 . S
C1362 C1361 1.373 . S
C1362 C1378 1.377 . S
C1363 C1361 1.389 . S
C1363 C1364 1.524 . S
C1363 C1377 1.377 . S
C1364 C1363 1.524 . S
C1364 C1365 1.397 . S
C1364 C1369 1.363 . S
C1365 H1342 0.950 . S
C1365 C1364 1.397 . S
C1365 C1366 1.334 . S
C1366 H1343 0.950 . S
C1366 C1365 1.334 . S
C1366 C1367 1.287 . S
C1367 C1366 1.287 . S
C1367 C1368 1.524 . S
C1367 H1386 0.913 . S
C1368 H1344 0.950 . S
C1368 C1367 1.524 . S
C1368 C1369 1.415 . S
C1369 H1345 0.950 . S
C1369 C1364 1.363 . S
C1369 C1368 1.415 . S
C1370 H1346 0.951 . S
C1370 C1371 1.366 . S
C1370 C1372 1.388 . S
C1371 C1370 1.366 . S
C1371 C1375 1.385 . S
C1372 H1347 0.951 . S
C1372 C1370 1.388 . S
C1372 C1373 1.366 . S
C1373 C1372 1.366 . S
C1373 C1374 1.414 . S
C1373 C1376 1.499 . S
C1374 H1348 0.950 . S
C1374 C1373 1.414 . S
C1374 C1375 1.374 . S
C1375 H1349 0.950 . S
C1375 C1371 1.385 . S
C1375 C1374 1.374 . S
C1376 C1373 1.499 . S
C1376 C1377 1.373 . S
C1376 C1378 1.389 . S
C1377 H1350 0.950 . S
C1377 C1363 1.377 . S
C1377 C1376 1.373 . S
C1378 C1362 1.377 . S
C1378 C1376 1.389 . S
C1378 C1379 1.524 . S
C1379 C1378 1.524 . S
C1379 C1380 1.397 . S
C1379 C1384 1.363 . S
C1380 H1351 0.950 . S
C1380 C1379 1.397 . S
C1380 C1381 1.334 . S
C1381 H1352 0.950 . S
C1381 C1380 1.334 . S
C1381 C1382 1.287 . S
C1382 C1381 1.287 . S
C1382 C1383 1.524 . S
C1382 H1385 0.999 . S
C1383 H1353 0.950 . S
C1383 C1382 1.524 . S
C1383 C1384 1.415 . S
C1384 H1354 0.950 . S
C1384 C1379 1.363 . S
C1384 C1383 1.415 . S
H1385 C1382 0.999 . S
H1386 C1367 0.913 . S
H1387 C1405 0.951 . S
H1388 C1407 0.951 . S
H1389 C1409 0.950 . S
H1390 C1410 0.950 . S
H1391 C1412 0.950 . S
H1392 C1415 0.950 . S
H1393 C1416 0.950 . S
H1394 C1418 0.950 . S
H1395 C1419 0.950 . S
H1396 C1420 0.951 . S
H1397 C1422 0.951 . S
H1398 C1424 0.950 . S
H1399 C1425 0.950 . S
H1400 C1427 0.950 . S
H1401 C1430 0.950 . S
H1402 C1431 0.950 . S
H1403 C1433 0.950 . S
H1404 C1434 0.950 . S
C1405 H1387 0.951 . S
C1405 C1406 1.366 . S
C1405 C1407 1.388 . S
C1406 C1405 1.366 . S
C1406 C1410 1.385 . S
C1407 H1388 0.951 . S
C1407 C1405 1.388 . S
C1407 C1408 1.366 . S
C1408 C1407 1.366 . S
C1408 C1409 1.414 . S
C1408 C1411 1.499 . S
C1409 H1389 0.950 . S
C1409 C1408 1.414 . S
C1409 C1410 1.374 . S
C1410 H1390 0.950 . S
C1410 C1406 1.385 . S
C1410 C1409 1.374 . S
C1411 C1408 1.499 . S
C1411 C1412 1.373 . S
C1411 C1413 1.389 . S
C1412 H1391 0.950 . S
C1412 C1411 1.373 . S
C1412 C1428 1.377 . S
C1413 C1411 1.389 . S
C1413 C1414 1.524 . S
C1413 C1427 1.377 . S
C1414 C1413 1.524 . S
C1414 C1415 1.397 . S
C1414 C1419 1.363 . S
C1415 H1392 0.950 . S
C1415 C1414 1.397 . S
C1415 C1416 1.334 . S
C1416 H1393 0.950 . S
C1416 C1415 1.334 . S
C1416 C1417 1.287 . S
C1417 C1416 1.287 . S
C1417 C1418 1.524 . S
C1417 H1436 0.913 . S
C1418 H1394 0.950 . S
C1418 C1417 1.524 . S
C1418 C1419 1.415 . S
C1419 H1395 0.950 . S
C1419 C1414 1.363 . S
C1419 C1418 1.415 . S
C1420 H1396 0.951 . S
C1420 C1421 1.366 . S
C1420 C1422 1.388 . S
C1421 C1420 1.366 . S
C1421 C1425 1.385 . S
C1422 H1397 0.951 . S
C1422 C1420 1.388 . S
C1422 C1423 1.366 . S
C1423 C1422 1.366 . S
C1423 C1424 1.414 . S
C1423 C1426 1.499 . S
C1424 H1398 0.950 . S
C1424 C1423 1.414 . S
C1424 C1425 1.374 . S
C1425 H1399 0.950 . S
C1425 C1421 1.385 . S
C1425 C1424 1.374 . S
C1426 C1423 1.499 . S
C1426 C1427 1.373 . S
C1426 C1428 1.389 . S
C1427 H1400 0.950 . S
C1427 C1413 1.377 . S
C1427 C1426 1.373 . S
C1428 C1412 1.377 . S
C1428 C1426 1.389 . S
C1428 C1429 1.524 . S
C1429 C1428 1.524 . S
C1429 C1430 1.397 . S
C1429 C1434 1.363 . S
C1430 H1401 0.950 . S
C1430 C1429 1.397 . S
C1430 C1431 1.334 . S
C1431 H1402 0.950 . S
C1431 C1430 1.334 . S
C1431 C1432 1.287 . S
C1432 C1431 1.287 . S
C1432 C1433 1.524 . S
C1432 H1435 0.999 . S
C1433 H1403 0.950 . S
C1433 C1432 1.524 . S
C1433 C1434 1.415 . S
C1434 H1404 0.950 . S
C1434 C1429 1.363 . S
C1434 C1433 1.415 . S
H1435 C1432 0.999 . S
H1436 C1417 0.913 . S
H1437 C1455 0.951 . S
H1438 C1457 0.951 . S
H1439 C1459 0.950 . S
H1440 C1460 0.950 . S
H1441 C1462 0.950 . S
H1442 C1465 0.950 . S
H1443 C1466 0.950 . S
H1444 C1468 0.950 . S
H1445 C1469 0.950 . S
H1446 C1470 0.951 . S
H1447 C1472 0.951 . S
H1448 C1474 0.950 . S
H1449 C1475 0.950 . S
H1450 C1477 0.950 . S
H1451 C1480 0.950 . S
H1452 C1481 0.950 . S
H1453 C1483 0.950 . S
H1454 C1484 0.950 . S
C1455 H1437 0.951 . S
C1455 C1456 1.366 . S
C1455 C1457 1.388 . S
C1456 C1455 1.366 . S
C1456 C1460 1.385 . S
C1457 H1438 0.951 . S
C1457 C1455 1.388 . S
C1457 C1458 1.366 . S
C1458 C1457 1.366 . S
C1458 C1459 1.414 . S
C1458 C1461 1.499 . S
C1459 H1439 0.950 . S
C1459 C1458 1.414 . S
C1459 C1460 1.374 . S
C1460 H1440 0.950 . S
C1460 C1456 1.385 . S
C1460 C1459 1.374 . S
C1461 C1458 1.499 . S
C1461 C1462 1.373 . S
C1461 C1463 1.389 . S
C1462 H1441 0.950 . S
C1462 C1461 1.373 . S
C1462 C1478 1.377 . S
C1463 C1461 1.389 . S
C1463 C1464 1.524 . S
C1463 C1477 1.377 . S
C1464 C1463 1.524 . S
C1464 C1465 1.397 . S
C1464 C1469 1.363 . S
C1465 H1442 0.950 . S
C1465 C1464 1.397 . S
C1465 C1466 1.334 . S
C1466 H1443 0.950 . S
C1466 C1465 1.334 . S
C1466 C1467 1.287 . S
C1467 C1466 1.287 . S
C1467 C1468 1.524 . S
C1467 H1486 0.913 . S
C1468 H1444 0.950 . S
C1468 C1467 1.524 . S
C1468 C1469 1.415 . S
C1469 H1445 0.950 . S
C1469 C1464 1.363 . S
C1469 C1468 1.415 . S
C1470 H1446 0.951 . S
C1470 C1471 1.366 . S
C1470 C1472 1.388 . S
C1471 C1470 1.366 . S
C1471 C1475 1.385 . S
C1472 H1447 0.951 . S
C1472 C1470 1.388 . S
C1472 C1473 1.366 . S
C1473 C1472 1.366 . S
C1473 C1474 1.414 . S
C1473 C1476 1.499 . S
C1474 H1448 0.950 . S
C1474 C1473 1.414 . S
C1474 C1475 1.374 . S
C1475 H1449 0.950 . S
C1475 C1471 1.385 . S
C1475 C1474 1.374 . S
C1476 C1473 1.499 . S
C1476 C1477 1.373 . S
C1476 C1478 1.389 . S
C1477 H1450 0.950 . S
C1477 C1463 1.377 . S
C1477 C1476 1.373 . S
C1478 C1462 1.377 . S
C1478 C1476 1.389 . S
C1478 C1479 1.524 . S
C1479 C1478 1.524 . S
C1479 C1480 1.397 . S
C1479 C1484 1.363 . S
C1480 H1451 0.950 . S
C1480 C1479 1.397 . S
C1480 C1481 1.334 . S
C1481 H1452 0.950 . S
C1481 C1480 1.334 . S
C1481 C1482 1.287 . S
C1482 C1481 1.287 . S
C1482 C1483 1.524 . S
C1482 H1485 0.999 . S
C1483 H1453 0.950 . S
C1483 C1482 1.524 . S
C1483 C1484 1.415 . S
C1484 H1454 0.950 . S
C1484 C1479 1.363 . S
C1484 C1483 1.415 . S
H1485 C1482 0.999 . S
H1486 C1467 0.913 . S
H1487 C1505 0.951 . S
H1488 C1507 0.951 . S
H1489 C1509 0.950 . S
H1490 C1510 0.950 . S
H1491 C1512 0.950 . S
H1492 C1515 0.950 . S
H1493 C1516 0.950 . S
H1494 C1518 0.950 . S
H1495 C1519 0.950 . S
H1496 C1520 0.951 . S
H1497 C1522 0.951 . S
H1498 C1524 0.950 . S
H1499 C1525 0.950 . S
H1500 C1527 0.950 . S
H1501 C1530 0.950 . S
H1502 C1531 0.950 . S
H1503 C1533 0.950 . S
H1504 C1534 0.950 . S
C1505 H1487 0.951 . S
C1505 C1506 1.366 . S
C1505 C1507 1.388 . S
C1506 C1505 1.366 . S
C1506 C1510 1.385 . S
C1507 H1488 0.951 . S
C1507 C1505 1.388 . S
C1507 C1508 1.366 . S
C1508 C1507 1.366 . S
C1508 C1509 1.414 . S
C1508 C1511 1.499 . S
C1509 H1489 0.950 . S
C1509 C1508 1.414 . S
C1509 C1510 1.374 . S
C1510 H1490 0.950 . S
C1510 C1506 1.385 . S
C1510 C1509 1.374 . S
C1511 C1508 1.499 . S
C1511 C1512 1.373 . S
C1511 C1513 1.389 . S
C1512 H1491 0.950 . S
C1512 C1511 1.373 . S
C1512 C1528 1.377 . S
C1513 C1511 1.389 . S
C1513 C1514 1.524 . S
C1513 C1527 1.377 . S
C1514 C1513 1.524 . S
C1514 C1515 1.397 . S
C1514 C1519 1.363 . S
C1515 H1492 0.950 . S
C1515 C1514 1.397 . S
C1515 C1516 1.334 . S
C1516 H1493 0.950 . S
C1516 C1515 1.334 . S
C1516 C1517 1.287 . S
C1517 C1516 1.287 . S
C1517 C1518 1.524 . S
C1517 H1536 0.913 . S
C1518 H1494 0.950 . S
C1518 C1517 1.524 . S
C1518 C1519 1.415 . S
C1519 H1495 0.950 . S
C1519 C1514 1.363 . S
C1519 C1518 1.415 . S
C1520 H1496 0.951 . S
C1520 C1521 1.366 . S
C1520 C1522 1.388 . S
C1521 C1520 1.366 . S
C1521 C1525 1.385 . S
C1522 H1497 0.951 . S
C1522 C1520 1.388 . S
C1522 C1523 1.366 . S
C1523 C1522 1.366 . S
C1523 C1524 1.414 . S
C1523 C1526 1.499 . S
C1524 H1498 0.950 . S
C1524 C1523 1.414 . S
C1524 C1525 1.374 . S
C1525 H1499 0.950 . S
C1525 C1521 1.385 . S
C1525 C1524 1.374 . S
C1526 C1523 1.499 . S
C1526 C1527 1.373 . S
C1526 C1528 1.389 . S
C1527 H1500 0.950 . S
C1527 C1513 1.377 . S
C1527 C1526 1.373 . S
C1528 C1512 1.377 . S
C1528 C1526 1.389 . S
C1528 C1529 1.524 . S
C1529 C1528 1.524 . S
C1529 C1530 1.397 . S
C1529 C1534 1.363 . S
C1530 H1501 0.950 . S
C1530 C1529 1.397 . S
C1530 C1531 1.334 . S
C1531 H1502 0.950 . S
C1531 C1530 1.334 . S
C1531 C1532 1.287 . S
C1532 C1531 1.287 . S
C1532 C1533 1.524 . S
C1532 H1535 0.999 . S
C1533 H1503 0.950 . S
C1533 C1532 1.524 . S
C1533 C1534 1.415 . S
C1534 H1504 0.950 . S
C1534 C1529 1.363 . S
C1534 C1533 1.415 . S
H1535 C1532 0.999 . S
H1536 C1517 0.913 . S
H1537 C1555 0.951 . S
H1538 C1557 0.951 . S
H1539 C1559 0.950 . S
H1540 C1560 0.950 . S
H1541 C1562 0.950 . S
H1542 C1565 0.950 . S
H1543 C1566 0.950 . S
H1544 C1568 0.950 . S
H1545 C1569 0.950 . S
H1546 C1570 0.951 . S
H1547 C1572 0.951 . S
H1548 C1574 0.950 . S
H1549 C1575 0.950 . S
H1550 C1577 0.950 . S
H1551 C1580 0.950 . S
H1552 C1581 0.950 . S
H1553 C1583 0.950 . S
H1554 C1584 0.950 . S
C1555 H1537 0.951 . S
C1555 C1556 1.366 . S
C1555 C1557 1.388 . S
C1556 C1555 1.366 . S
C1556 C1560 1.385 . S
C1557 H1538 0.951 . S
C1557 C1555 1.388 . S
C1557 C1558 1.366 . S
C1558 C1557 1.366 . S
C1558 C1559 1.414 . S
C1558 C1561 1.499 . S
C1559 H1539 0.950 . S
C1559 C1558 1.414 . S
C1559 C1560 1.374 . S
C1560 H1540 0.950 . S
C1560 C1556 1.385 . S
C1560 C1559 1.374 . S
C1561 C1558 1.499 . S
C1561 C1562 1.373 . S
C1561 C1563 1.389 . S
C1562 H1541 0.950 . S
C1562 C1561 1.373 . S
C1562 C1578 1.377 . S
C1563 C1561 1.389 . S
C1563 C1564 1.524 . S
C1563 C1577 1.377 . S
C1564 C1563 1.524 . S
C1564 C1565 1.397 . S
C1564 C1569 1.363 . S
C1565 H1542 0.950 . S
C1565 C1564 1.397 . S
C1565 C1566 1.334 . S
C1566 H1543 0.950 . S
C1566 C1565 1.334 . S
C1566 C1567 1.287 . S
C1567 C1566 1.287 . S
C1567 C1568 1.524 . S
C1567 H1586 0.913 . S
C1568 H1544 0.950 . S
C1568 C1567 1.524 . S
C1568 C1569 1.415 . S
C1569 H1545 0.950 . S
C1569 C1564 1.363 . S
C1569 C1568 1.415 . S
C1570 H1546 0.951 . S
C1570 C1571 1.366 . S
C1570 C1572 1.388 . S
C1571 C1570 1.366 . S
C1571 C1575 1.385 . S
C1572 H1547 0.951 . S
C1572 C1570 1.388 . S
C1572 C1573 1.366 . S
C1573 C1572 1.366 . S
C1573 C1574 1.414 . S
C1573 C1576 1.499 . S
C1574 H1548 0.950 . S
C1574 C1573 1.414 . S
C1574 C1575 1.374 . S
C1575 H1549 0.950 . S
C1575 C1571 1.385 . S
C1575 C1574 1.374 . S
C1576 C1573 1.499 . S
C1576 C1577 1.373 . S
C1576 C1578 1.389 . S
C1577 H1550 0.950 . S
C1577 C1563 1.377 . S
C1577 C1576 1.373 . S
C1578 C1562 1.377 . S
C1578 C1576 1.389 . S
C1578 C1579 1.524 . S
C1579 C1578 1.524 . S
C1579 C1580 1.397 . S
C1579 C1584 1.363 . S
C1580 H1551 0.950 . S
C1580 C1579 1.397 . S
C1580 C1581 1.334 . S
C1581 H1552 0.950 . S
C1581 C1580 1.334 . S
C1581 C1582 1.287 . S
C1582 C1581 1.287 . S
C1582 C1583 1.524 . S
C1582 H1585 0.999 . S
C1583 H1553 0.950 . S
C1583 C1582 1.524 . S
C1583 C1584 1.415 . S
C1584 H1554 0.950 . S
C1584 C1579 1.363 . S
C1584 C1583 1.415 . S
H1585 C1582 0.999 . S
H1586 C1567 0.913 . S
H1587 C1605 0.951 . S
H1588 C1607 0.951 . S
H1589 C1609 0.950 . S
H1590 C1610 0.950 . S
H1591 C1612 0.950 . S
H1592 C1615 0.950 . S
H1593 C1616 0.950 . S
H1594 C1618 0.950 . S
H1595 C1619 0.950 . S
H1596 C1620 0.951 . S
H1597 C1622 0.951 . S
H1598 C1624 0.950 . S
H1599 C1625 0.950 . S
H1600 C1627 0.950 . S
H1601 C1630 0.950 . S
H1602 C1631 0.950 . S
H1603 C1633 0.950 . S
H1604 C1634 0.950 . S
C1605 H1587 0.951 . S
C1605 C1606 1.366 . S
C1605 C1607 1.388 . S
C1606 C1605 1.366 . S
C1606 C1610 1.385 . S
C1607 H1588 0.951 . S
C1607 C1605 1.388 . S
C1607 C1608 1.366 . S
C1608 C1607 1.366 . S
C1608 C1609 1.414 . S
C1608 C1611 1.499 . S
C1609 H1589 0.950 . S
C1609 C1608 1.414 . S
C1609 C1610 1.374 . S
C1610 H1590 0.950 . S
C1610 C1606 1.385 . S
C1610 C1609 1.374 . S
C1611 C1608 1.499 . S
C1611 C1612 1.373 . S
C1611 C1613 1.389 . S
C1612 H1591 0.950 . S
C1612 C1611 1.373 . S
C1612 C1628 1.377 . S
C1613 C1611 1.389 . S
C1613 C1614 1.524 . S
C1613 C1627 1.377 . S
C1614 C1613 1.524 . S
C1614 C1615 1.397 . S
C1614 C1619 1.363 . S
C1615 H1592 0.950 . S
C1615 C1614 1.397 . S
C1615 C1616 1.334 . S
C1616 H1593 0.950 . S
C1616 C1615 1.334 . S
C1616 C1617 1.287 . S
C1617 C1616 1.287 . S
C1617 C1618 1.524 . S
C1617 H1636 0.913 . S
C1618 H1594 0.950 . S
C1618 C1617 1.524 . S
C1618 C1619 1.415 . S
C1619 H1595 0.950 . S
C1619 C1614 1.363 . S
C1619 C1618 1.415 . S
C1620 H1596 0.951 . S
C1620 C1621 1.366 . S
C1620 C1622 1.388 . S
C1621 C1620 1.366 . S
C1621 C1625 1.385 . S
C1622 H1597 0.951 . S
C1622 C1620 1.388 . S
C1622 C1623 1.366 . S
C1623 C1622 1.366 . S
C1623 C1624 1.414 . S
C1623 C1626 1.499 . S
C1624 H1598 0.950 . S
C1624 C1623 1.414 . S
C1624 C1625 1.374 . S
C1625 H1599 0.950 . S
C1625 C1621 1.385 . S
C1625 C1624 1.374 . S
C1626 C1623 1.499 . S
C1626 C1627 1.373 . S
C1626 C1628 1.389 . S
C1627 H1600 0.950 . S
C1627 C1613 1.377 . S
C1627 C1626 1.373 . S
C1628 C1612 1.377 . S
C1628 C1626 1.389 . S
C1628 C1629 1.524 . S
C1629 C1628 1.524 . S
C1629 C1630 1.397 . S
C1629 C1634 1.363 . S
C1630 H1601 0.950 . S
C1630 C1629 1.397 . S
C1630 C1631 1.334 . S
C1631 H1602 0.950 . S
C1631 C1630 1.334 . S
C1631 C1632 1.287 . S
C1632 C1631 1.287 . S
C1632 C1633 1.524 . S
C1632 H1635 0.999 . S
C1633 H1603 0.950 . S
C1633 C1632 1.524 . S
C1633 C1634 1.415 . S
C1634 H1604 0.950 . S
C1634 C1629 1.363 . S
C1634 C1633 1.415 . S
H1635 C1632 0.999 . S
H1636 C1617 0.913 . S
H1637 C1655 0.951 . S
H1638 C1657 0.951 . S
H1639 C1659 0.950 . S
H1640 C1660 0.950 . S
H1641 C1662 0.950 . S
H1642 C1665 0.950 . S
H1643 C1666 0.950 . S
H1644 C1668 0.950 . S
H1645 C1669 0.950 . S
H1646 C1670 0.951 . S
H1647 C1672 0.951 . S
H1648 C1674 0.950 . S
H1649 C1675 0.950 . S
H1650 C1677 0.950 . S
H1651 C1680 0.950 . S
H1652 C1681 0.950 . S
H1653 C1683 0.950 . S
H1654 C1684 0.950 . S
C1655 H1637 0.951 . S
C1655 C1656 1.366 . S
C1655 C1657 1.388 . S
C1656 C1655 1.366 . S
C1656 C1660 1.385 . S
C1657 H1638 0.951 . S
C1657 C1655 1.388 . S
C1657 C1658 1.366 . S
C1658 C1657 1.366 . S
C1658 C1659 1.414 . S
C1658 C1661 1.499 . S
C1659 H1639 0.950 . S
C1659 C1658 1.414 . S
C1659 C1660 1.374 . S
C1660 H1640 0.950 . S
C1660 C1656 1.385 . S
C1660 C1659 1.374 . S
C1661 C1658 1.499 . S
C1661 C1662 1.373 . S
C1661 C1663 1.389 . S
C1662 H1641 0.950 . S
C1662 C1661 1.373 . S
C1662 C1678 1.377 . S
C1663 C1661 1.389 . S
C1663 C1664 1.524 . S
C1663 C1677 1.377 . S
C1664 C1663 1.524 . S
C1664 C1665 1.397 . S
C1664 C1669 1.363 . S
C1665 H1642 0.950 . S
C1665 C1664 1.397 . S
C1665 C1666 1.334 . S
C1666 H1643 0.950 . S
C1666 C1665 1.334 . S
C1666 C1667 1.287 . S
C1667 C1666 1.287 . S
C1667 C1668 1.524 . S
C1667 H1686 0.913 . S
C1668 H1644 0.950 . S
C1668 C1667 1.524 . S
C1668 C1669 1.415 . S
C1669 H1645 0.950 . S
C1669 C1664 1.363 . S
C1669 C1668 1.415 . S
C1670 H1646 0.951 . S
C1670 C1671 1.366 . S
C1670 C1672 1.388 . S
C1671 C1670 1.366 . S
C1671 C1675 1.385 . S
C1672 H1647 0.951 . S
C1672 C1670 1.388 . S
C1672 C1673 1.366 . S
C1673 C1672 1.366 . S
C1673 C1674 1.414 . S
C1673 C1676 1.499 . S
C1674 H1648 0.950 . S
C1674 C1673 1.414 . S
C1674 C1675 1.374 . S
C1675 H1649 0.950 . S
C1675 C1671 1.385 . S
C1675 C1674 1.374 . S
C1676 C1673 1.499 . S
C1676 C1677 1.373 . S
C1676 C1678 1.389 . S
C1677 H1650 0.950 . S
C1677 C1663 1.377 . S
C1677 C1676 1.373 . S
C1678 C1662 1.377 . S
C1678 C1676 1.389 . S
C1678 C1679 1.524 . S
C1679 C1678 1.524 . S
C1679 C1680 1.397 . S
C1679 C1684 1.363 . S
C1680 H1651 0.950 . S
C1680 C1679 1.397 . S
C1680 C1681 1.334 . S
C1681 H1652 0.950 . S
C1681 C1680 1.334 . S
C1681 C1682 1.287 . S
C1682 C1681 1.287 . S
C1682 C1683 1.524 . S
C1682 H1685 0.999 . S
C1683 H1653 0.950 . S
C1683 C1682 1.524 . S
C1683 C1684 1.415 . S
C1684 H1654 0.950 . S
C1684 C1679 1.363 . S
C1684 C1683 1.415 . S
H1685 C1682 0.999 . S
H1686 C1667 0.913 . S
H1687 C1705 0.951 . S
H1688 C1707 0.951 . S
H1689 C1709 0.950 . S
H1690 C1710 0.950 . S
H1691 C1712 0.950 . S
H1692 C1715 0.950 . S
H1693 C1716 0.950 . S
H1694 C1718 0.950 . S
H1695 C1719 0.950 . S
H1696 C1720 0.951 . S
H1697 C1722 0.951 . S
H1698 C1724 0.950 . S
H1699 C1725 0.950 . S
H1700 C1727 0.950 . S
H1701 C1730 0.950 . S
H1702 C1731 0.950 . S
H1703 C1733 0.950 . S
H1704 C1734 0.950 . S
C1705 H1687 0.951 . S
C1705 C1706 1.366 . S
C1705 C1707 1.388 . S
C1706 C1705 1.366 . S
C1706 C1710 1.385 . S
C1707 H1688 0.951 . S
C1707 C1705 1.388 . S
C1707 C1708 1.366 . S
C1708 C1707 1.366 . S
C1708 C1709 1.414 . S
C1708 C1711 1.499 . S
C1709 H1689 0.950 . S
C1709 C1708 1.414 . S
C1709 C1710 1.374 . S
C1710 H1690 0.950 . S
C1710 C1706 1.385 . S
C1710 C1709 1.374 . S
C1711 C1708 1.499 . S
C1711 C1712 1.373 . S
C1711 C1713 1.389 . S
C1712 H1691 0.950 . S
C1712 C1711 1.373 . S
C1712 C1728 1.377 . S
C1713 C1711 1.389 . S
C1713 C1714 1.524 . S
C1713 C1727 1.377 . S
C1714 C1713 1.524 . S
C1714 C1715 1.397 . S
C1714 C1719 1.363 . S
C1715 H1692 0.950 . S
C1715 C1714 1.397 . S
C1715 C1716 1.334 . S
C1716 H1693 0.950 . S
C1716 C1715 1.334 . S
C1716 C1717 1.287 . S
C1717 C1716 1.287 . S
C1717 C1718 1.524 . S
C1717 H1736 0.913 . S
C1718 H1694 0.950 . S
C1718 C1717 1.524 . S
C1718 C1719 1.415 . S
C1719 H1695 0.950 . S
C1719 C1714 1.363 . S
C1719 C1718 1.415 . S
C1720 H1696 0.951 . S
C1720 C1721 1.366 . S
C1720 C1722 1.388 . S
C1721 C1720 1.366 . S
C1721 C1725 1.385 . S
C1722 H1697 0.951 . S
C1722 C1720 1.388 . S
C1722 C1723 1.366 . S
C1723 C1722 1.366 . S
C1723 C1724 1.414 . S
C1723 C1726 1.499 . S
C1724 H1698 0.950 . S
C1724 C1723 1.414 . S
C1724 C1725 1.374 . S
C1725 H1699 0.950 . S
C1725 C1721 1.385 . S
C1725 C1724 1.374 . S
C1726 C1723 1.499 . S
C1726 C1727 1.373 . S
C1726 C1728 1.389 . S
C1727 H1700 0.950 . S
C1727 C1713 1.377 . S
C1727 C1726 1.373 . S
C1728 C1712 1.377 . S
C1728 C1726 1.389 . S
C1728 C1729 1.524 . S
C1729 C1728 1.524 . S
C1729 C1730 1.397 . S
C1729 C1734 1.363 . S
C1730 H1701 0.950 . S
C1730 C1729 1.397 . S
C1730 C1731 1.334 . S
C1731 H1702 0.950 . S
C1731 C1730 1.334 . S
C1731 C1732 1.287 . S
C1732 C1731 1.287 . S
C1732 C1733 1.524 . S
C1732 H1735 0.999 . S
C1733 H1703 0.950 . S
C1733 C1732 1.524 . S
C1733 C1734 1.415 . S
C1734 H1704 0.950 . S
C1734 C1729 1.363 . S
C1734 C1733 1.415 . S
H1735 C1732 0.999 . S
H1736 C1717 0.913 . S
C556 C39 1.906 . S
C571 C455 1.869 . S
C606 C125 0.792 . S
C621 C502 0.790 . S
C671 C506 2.115 . S
C656 C211 2.062 . S
C721 C471 0.744 . S
C706 C273 0.743 . S
C756 C335 1.940 . S
C771 C486 1.922 . S
C821 C508 1.269 . S
C806 C439 1.301 . S
C871 C477 1.321 . S
C856 C187 1.334 . S
C906 C291 1.864 . S
C921 C517 1.817 . S
C971 C446 1.516 . S
C956 C359 1.453 . S
C1006 C421 0.604 1_556 S
C1021 C475 0.634 . S
C1056 C63 2.191 1_556 S
C1071 C533 2.279 . S
C1121 C444 2.018 . S
C1106 C143 2.059 1_556 S
C1171 C462 2.085 . S
C1156 C285 2.013 . S
C1221 C476 2.049 . S
C1206 C365 2.099 . S
C1271 C530 2.039 . S
C1256 C409 2.030 . S
C1321 C445 1.995 . S
C1306 C69 2.051 . S
C1371 C493 1.941 . S
C1356 C137 1.906 . S
C1406 C199 0.425 . S
C1421 C516 0.562 . S
C1471 C485 1.542 . S
C1456 C433 1.470 . S
C1521 C524 0.428 . S
C1506 C51 0.325 . S
C1571 C454 1.331 . S
C1556 C113 1.346 . S
C1621 C499 1.901 . S
C1606 C217 1.954 . S
C1656 C261 2.124 . S
C1671 C507 2.116 . S
C1706 C347 0.556 . S
C1721 C468 0.585 . S
