# Generated by pormake.
# Topology anh, (6,3)-cn, num edge types: 1
# Building blocks:
#     Node 0, Type 0, BuildingBlock: BETGAK_clean_sbu_0, # of connection points: 6
#     Node 1, Type 0, BuildingBlock: BETGAK_clean_sbu_0, # of connection points: 6
#     Node 2, Type 0, BuildingBlock: BETGAK_clean_sbu_0, # of connection points: 6
#     Node 3, Type 1, BuildingBlock: VETTIZ_charged_linker_0, # of connection points: 3
#     Node 4, Type 1, BuildingBlock: VETTIZ_charged_linker_0, # of connection points: 3
#     Node 5, Type 1, BuildingBlock: VETTIZ_charged_linker_0, # of connection points: 3
#     Node 6, Type 1, BuildingBlock: VETTIZ_charged_linker_0, # of connection points: 3
#     Node 7, Type 1, BuildingBlock: VETTIZ_charged_linker_0, # of connection points: 3
#     Node 8, Type 1, BuildingBlock: VETTIZ_charged_linker_0, # of connection points: 3
#     Edge 9, Type (0, 1), BuildingBlock: ZUJKAS_clean_linker_0, # of connection points: 2
#     Edge 10, Type (0, 1), BuildingBlock: ZUJKAS_clean_linker_0, # of connection points: 2
#     Edge 11, Type (0, 1), BuildingBlock: ZUJKAS_clean_linker_0, # of connection points: 2
#     Edge 12, Type (0, 1), BuildingBlock: ZUJKAS_clean_linker_0, # of connection points: 2
#     Edge 13, Type (0, 1), BuildingBlock: ZUJKAS_clean_linker_0, # of connection points: 2
#     Edge 14, Type (0, 1), BuildingBlock: ZUJKAS_clean_linker_0, # of connection points: 2
#     Edge 15, Type (0, 1), BuildingBlock: ZUJKAS_clean_linker_0, # of connection points: 2
#     Edge 16, Type (0, 1), BuildingBlock: ZUJKAS_clean_linker_0, # of connection points: 2
#     Edge 17, Type (0, 1), BuildingBlock: ZUJKAS_clean_linker_0, # of connection points: 2
#     Edge 18, Type (0, 1), BuildingBlock: ZUJKAS_clean_linker_0, # of connection points: 2
#     Edge 19, Type (0, 1), BuildingBlock: ZUJKAS_clean_linker_0, # of connection points: 2
#     Edge 20, Type (0, 1), BuildingBlock: ZUJKAS_clean_linker_0, # of connection points: 2
#     Edge 21, Type (0, 1), BuildingBlock: ZUJKAS_clean_linker_0, # of connection points: 2
#     Edge 22, Type (0, 1), BuildingBlock: ZUJKAS_clean_linker_0, # of connection points: 2
#     Edge 23, Type (0, 1), BuildingBlock: ZUJKAS_clean_linker_0, # of connection points: 2
#     Edge 24, Type (0, 1), BuildingBlock: ZUJKAS_clean_linker_0, # of connection points: 2
#     Edge 25, Type (0, 1), BuildingBlock: ZUJKAS_clean_linker_0, # of connection points: 2
#     Edge 26, Type (0, 1), BuildingBlock: ZUJKAS_clean_linker_0, # of connection points: 2
# Relax obj value: 0.169
# Max RMSD: 0.199
# Mean RMSD: 0.153
data_MOF--net-anh--node1-BETGAK_clean_sbu_0--node2-VETTIZ_charged_linker_0--edge1-ZUJKAS_clean_linker_0
_symmetry_space_group_name_H-M    P1
_symmetry_Int_Tables_number       1
_symmetry_cell_setting            triclinic
loop_
_symmetry_equiv_pos_as_xyz
'x, y, z'
_cell_length_a     45.206661
_cell_length_b     51.887548
_cell_length_c     82.675164
_cell_angle_alpha  92.27554
_cell_angle_beta   89.657377
_cell_angle_gamma 127.22632
loop_
_atom_site_label
_atom_site_type_symbol
_atom_site_fract_x
_atom_site_fract_y
_atom_site_fract_z
_atom_type_partial_charge
La0 La 0.08923 0.50873 0.15126 0.0
La1 La 1.04582 0.53188 0.16234 0.0
C2 C 0.13396 0.50189 0.13759 0.0
C3 C 0.17372 0.51746 0.14069 0.0
C4 C 0.18392 0.49993 0.14806 0.0
C5 C 0.22089 0.5148 0.15237 0.0
C6 C 0.24869 0.54749 0.1492 0.0
C7 C 0.23861 0.565 0.14162 0.0
C8 C 0.20146 0.55011 0.13737 0.0
C9 C 0.08033 0.50863 0.18275 0.0
C10 C 0.13031 0.58528 0.15872 0.0
C11 C 1.00001 0.53676 0.17676 0.0
C12 C 0.96082 0.51226 0.18069 0.0
C13 C 0.93994 0.48197 0.17234 0.0
C14 C 0.90283 0.45852 0.17593 0.0
C15 C 0.88516 0.46524 0.18751 0.0
C16 C 0.90634 0.49556 0.19605 0.0
C17 C 0.94399 0.5188 0.19274 0.0
C18 C 0.05633 0.53299 0.13093 0.0
C19 C 1.00592 0.45631 0.15514 0.0
O20 O 0.11167 0.48342 0.14897 0.0
O21 O 0.12541 0.52003 0.13208 0.0
O22 O 0.0821 0.48772 0.17475 0.0
O23 O 0.08647 0.52978 0.17343 0.0
O24 O 0.13118 0.56208 0.15194 0.0
O25 O 0.0999 0.57861 0.16549 0.0
O26 O 1.0068 0.54125 0.16132 0.0
O27 O 1.02384 0.53469 0.18426 0.0
O28 O 1.05542 0.55435 0.13907 0.0
O29 O 1.04905 0.51118 0.1401 0.0
O30 O 1.00773 0.4788 0.16425 0.0
O31 O 1.0339 0.46419 0.14588 0.0
H32 H 0.16313 0.47478 0.1508 0.0
H33 H 0.22762 0.50072 0.15839 0.0
H34 H 0.25945 0.59007 0.13879 0.0
H35 H 0.19452 0.56427 0.13163 0.0
H36 H 0.95197 0.47653 0.16276 0.0
H37 H 0.88782 0.4353 0.16933 0.0
H38 H 0.89362 0.50182 0.20489 0.0
H39 H 0.95971 0.54208 0.19931 0.0
La40 La 0.5964 0.01928 0.49118 0.0
La41 La 0.54971 0.04031 0.48262 0.0
C42 C 0.62204 0.99351 0.50453 0.0
C43 C 0.61159 0.96066 0.50575 0.0
C44 C 0.59895 0.93909 0.49215 0.0
C45 C 0.59098 0.90866 0.4935 0.0
C46 C 0.59507 0.89913 0.5085 0.0
C47 C 0.6069 0.92052 0.52213 0.0
C48 C 0.61519 0.95101 0.52074 0.0
C49 C 0.5923 0.0263 0.46013 0.0
C50 C 0.50852 0.96621 0.48439 0.0
C51 C 0.52412 0.067 0.4703 0.0
C52 C 0.5321 0.09886 0.473 0.0
C53 C 0.5519 0.1182 0.48693 0.0
C54 C 0.55772 0.14768 0.48992 0.0
C55 C 0.54413 0.15857 0.47896 0.0
C56 C 0.52514 0.13938 0.46479 0.0
C57 C 0.51911 0.10975 0.46187 0.0
C58 C 0.55521 0.03448 0.51378 0.0
C59 C 0.63816 0.09335 0.48834 0.0
O60 O 0.632 1.0061 0.4903 0.0
O61 O 0.60057 0.99914 0.51184 0.0
O62 O 0.62111 0.03167 0.46724 0.0
O63 O 0.56627 0.01473 0.46997 0.0
O64 O 0.53921 0.97363 0.49148 0.0
O65 O 0.50818 0.98858 0.47744 0.0
O66 O 0.50914 0.04786 0.48245 0.0
O67 O 0.55071 0.06709 0.46387 0.0
O68 O 0.52623 0.02906 0.50688 0.0
O69 O 0.58049 0.04551 0.50364 0.0
O70 O 0.60671 0.08582 0.48208 0.0
O71 O 0.63952 0.07124 0.49493 0.0
H72 H 0.59557 0.94582 0.48046 0.0
H73 H 0.58152 0.89255 0.48283 0.0
H74 H 0.61066 0.914 0.53381 0.0
H75 H 0.62488 0.96727 0.53137 0.0
H76 H 0.56224 0.11019 0.49565 0.0
H77 H 0.57202 0.16149 0.50105 0.0
H78 H 0.51486 0.1472 0.45593 0.0
H79 H 0.50399 0.09521 0.451 0.0
La80 La 0.61257 0.56396 0.84179 0.0
La81 La 0.56185 0.49243 0.84636 0.0
C82 C 0.64223 0.61939 0.83123 0.0
C83 C 0.6326 0.64182 0.82962 0.0
C84 C 0.62504 0.65404 0.8432 0.0
C85 C 0.61758 0.67632 0.84138 0.0
C86 C 0.61723 0.68663 0.82596 0.0
C87 C 0.62423 0.67399 0.81239 0.0
C88 C 0.63197 0.65194 0.81422 0.0
C89 C 0.60462 0.54662 0.87182 0.0
C90 C 0.52368 0.52705 0.84572 0.0
C91 C 0.53274 0.4367 0.8564 0.0
C92 C 0.54027 0.41293 0.85397 0.0
C93 C 0.5583 0.41298 0.84008 0.0
C94 C 0.56408 0.38955 0.83754 0.0
C95 C 0.55231 0.36578 0.84894 0.0
C96 C 0.53512 0.36644 0.86305 0.0
C97 C 0.52911 0.38977 0.86551 0.0
C98 C 0.57063 0.50932 0.81612 0.0
C99 C 0.65117 0.5298 0.84319 0.0
O100 O 0.64802 0.6144 0.84589 0.0
O101 O 0.62303 0.59264 0.82209 0.0
O102 O 0.63535 0.57168 0.86633 0.0
O103 O 0.5796 0.5339 0.861 0.0
O104 O 0.55634 0.55278 0.84075 0.0
O105 O 0.5206 0.50148 0.85072 0.0
O106 O 0.52081 0.44224 0.84359 0.0
O107 O 0.55817 0.46348 0.86458 0.0
O108 O 0.54031 0.48383 0.82152 0.0
O109 O 0.59526 0.52239 0.82712 0.0
O110 O 0.61804 0.50361 0.84744 0.0
O111 O 0.65484 0.55583 0.83855 0.0
H112 H 0.62515 0.64662 0.85525 0.0
H113 H 0.61192 0.68538 0.85204 0.0
H114 H 0.6246 0.68174 0.80037 0.0
H115 H 0.63788 0.643 0.80358 0.0
H116 H 0.56741 0.43086 0.83106 0.0
H117 H 0.57697 0.38965 0.82645 0.0
H118 H 0.52633 0.34896 0.87224 0.0
H119 H 0.51552 0.38961 0.87639 0.0
C120 C 0.65974 0.10999 0.1845 0.0
C121 C 0.68853 0.13974 0.19239 0.0
C122 C 0.68727 0.14348 0.20929 0.0
C123 C 0.63138 0.0884 0.21046 0.0
C124 C 0.63145 0.08456 0.19382 0.0
C125 C 0.5987 0.0509 0.18784 0.0
H126 H 0.44906 0.89929 0.20767 0.0
C127 C 0.59945 0.05768 0.21683 0.0
C128 C 0.57981 0.03532 0.20369 0.0
H129 H 0.4858 0.93248 0.15945 0.0
H130 H 0.53568 0.98635 0.17067 0.0
H131 H 0.52931 0.93444 0.22406 0.0
H132 H 0.45456 0.95913 0.22022 0.0
H133 H 0.47565 0.97391 0.2395 0.0
H134 H 0.44784 0.93095 0.23448 0.0
H135 H 0.48682 0.9147 0.23494 0.0
H136 H 0.52969 0.95088 0.24309 0.0
C137 C 0.61373 0.03405 0.17933 0.0
C138 C 0.5738 0.05416 0.17679 0.0
C139 C 0.58319 0.04853 0.2778 0.0
C140 C 0.55701 0.02303 0.28755 0.0
C141 C 0.52766 0.99326 0.28003 0.0
C142 C 0.52475 0.98878 0.26313 0.0
C143 C 0.55146 0.01432 0.25355 0.0
C144 C 0.57981 0.04365 0.26092 0.0
C145 C 0.60545 0.0681 0.24882 0.0
C146 C 0.58792 0.04849 0.23296 0.0
C147 C 0.55655 0.01705 0.23584 0.0
C148 C 0.64469 0.07734 0.25188 0.0
C149 C 0.60333 0.09685 0.25048 0.0
C150 C 0.46807 0.918 0.19948 0.0
C151 C 0.46394 0.9115 0.1827 0.0
C152 C 0.48859 0.93689 0.17246 0.0
C153 C 0.51751 0.96806 0.179 0.0
C154 C 0.52144 0.97395 0.19593 0.0
C155 C 0.49646 0.949 0.20576 0.0
C156 C 0.50319 0.95915 0.22337 0.0
C157 C 0.53663 0.99429 0.2227 0.0
C158 C 0.54778 1.00316 0.20665 0.0
C159 C 0.51252 0.93873 0.23196 0.0
C160 C 0.46858 0.95547 0.22988 0.0
H161 H 0.66025 0.12285 0.2311 0.0
H162 H 0.6597 0.10641 0.1715 0.0
H163 H 0.57123 0.07283 0.18196 0.0
H164 H 0.54512 0.03163 0.17554 0.0
H165 H 0.58571 0.06153 0.16455 0.0
H166 H 0.63647 0.03758 0.18676 0.0
H167 H 0.62506 0.04425 0.16733 0.0
H168 H 0.59246 1.00764 0.17761 0.0
H169 H 0.60583 0.07183 0.28319 0.0
H170 H 0.50736 0.97309 0.28723 0.0
H171 H 0.502 0.96541 0.25822 0.0
H172 H 0.64279 0.05595 0.25548 0.0
H173 H 0.65982 0.09632 0.26176 0.0
H174 H 0.66193 0.08563 0.241 0.0
H175 H 0.57571 0.08882 0.25482 0.0
H176 H 0.60628 0.10774 0.23878 0.0
H177 H 0.62468 0.11598 0.25924 0.0
H178 H 0.70826 0.16626 0.21566 0.0
C179 C 0.65909 0.11818 0.2183 0.0
C180 C 0.572 0.60133 0.54503 0.0
C181 C 0.57272 0.62576 0.55361 0.0
C182 C 0.57711 0.62855 0.57061 0.0
C183 C 0.57963 0.58325 0.57027 0.0
C184 C 0.57548 0.58039 0.5536 0.0
C185 C 0.5753 0.55304 0.54653 0.0
H186 H 0.5896 0.43217 0.55886 0.0
C187 C 0.58295 0.55824 0.57554 0.0
C188 C 0.58059 0.54043 0.5617 0.0
H189 H 0.57015 0.45861 0.51342 0.0
H190 H 0.57167 0.5014 0.52732 0.0
H191 H 0.65108 0.50461 0.57338 0.0
H192 H 0.53273 0.43678 0.57864 0.0
H193 H 0.55168 0.45568 0.59779 0.0
H194 H 0.56463 0.43209 0.58822 0.0
H195 H 0.63001 0.46951 0.58526 0.0
H196 H 0.6419 0.50733 0.5938 0.0
C197 C 0.60862 0.5675 0.53511 0.0
C198 C 0.53696 0.52762 0.53816 0.0
C199 C 0.59722 0.54915 0.63554 0.0
C200 C 0.60136 0.5287 0.64424 0.0
C201 C 0.60325 0.50577 0.63557 0.0
C202 C 0.60042 0.50287 0.61862 0.0
C203 C 0.59568 0.52313 0.61014 0.0
C204 C 0.59455 0.546 0.61861 0.0
C205 C 0.58999 0.5658 0.60759 0.0
C206 C 0.58793 0.55065 0.59112 0.0
C207 C 0.59114 0.52563 0.5927 0.0
C208 C 0.62508 0.6016 0.60962 0.0
C209 C 0.553 0.56014 0.61166 0.0
C210 C 0.58616 0.44744 0.55186 0.0
C211 C 0.58008 0.4422 0.53501 0.0
C212 C 0.57478 0.46212 0.52642 0.0
C213 C 0.57577 0.48699 0.53451 0.0
C214 C 0.5818 0.49185 0.55139 0.0
C215 C 0.5867 0.47208 0.55975 0.0
C216 C 0.59146 0.47979 0.57768 0.0
C217 C 0.58891 0.50762 0.57876 0.0
C218 C 0.58344 0.51479 0.56333 0.0
C219 C 0.63047 0.49069 0.58296 0.0
C220 C 0.55871 0.4496 0.58616 0.0
H221 H 0.5838 0.61108 0.59186 0.0
H222 H 0.56847 0.59837 0.53198 0.0
H223 H 0.51447 0.52585 0.54492 0.0
H224 H 0.52905 0.50288 0.53785 0.0
H225 H 0.53628 0.53422 0.52562 0.0
H226 H 0.63368 0.59053 0.54054 0.0
H227 H 0.60242 0.57291 0.52328 0.0
H228 H 0.61692 0.5516 0.53293 0.0
H229 H 0.59534 0.56686 0.64176 0.0
H230 H 0.60712 0.49009 0.6419 0.0
H231 H 0.60192 0.48486 0.61279 0.0
H232 H 0.65001 0.60326 0.61297 0.0
H233 H 0.62149 0.61496 0.61926 0.0
H234 H 0.63265 0.61467 0.59827 0.0
H235 H 0.53119 0.53443 0.61452 0.0
H236 H 0.54118 0.56457 0.60146 0.0
H237 H 0.55658 0.57552 0.62235 0.0
H238 H 0.57858 0.64748 0.57753 0.0
C239 C 0.58049 0.6075 0.57895 0.0
C240 C 0.17397 0.5288 0.85468 0.0
C241 C 0.20116 0.5281 0.86306 0.0
C242 C 0.20072 0.52858 0.88003 0.0
C243 C 0.14787 0.52993 0.88044 0.0
C244 C 0.1472 0.52953 0.86372 0.0
C245 C 0.11511 0.52978 0.85775 0.0
H246 H 0.96367 0.52636 0.88167 0.0
C247 C 0.11737 0.53041 0.88675 0.0
C248 C 0.09716 0.53016 0.87364 0.0
H249 H 0.99539 0.52945 0.83215 0.0
H250 H 1.04842 0.5309 0.84131 0.0
H251 H 0.97538 0.47688 0.8934 0.0
H252 H 1.04253 0.58048 0.89426 0.0
H253 H 1.05407 0.57198 0.91243 0.0
H254 H 1.00677 0.55719 0.90863 0.0
H255 H 0.96767 0.50009 0.90692 0.0
H256 H 0.99789 0.48993 0.91243 0.0
C257 C 0.08774 0.49886 0.84721 0.0
C258 C 0.13124 0.56065 0.84846 0.0
C259 C 0.10474 0.53286 0.94804 0.0
C260 C 0.08029 0.5341 0.95802 0.0
C261 C 1.05211 0.534 0.95078 0.0
C262 C 1.04835 0.53278 0.93392 0.0
C263 C 0.07316 0.53183 0.92403 0.0
C264 C 0.10076 0.53196 0.93115 0.0
C265 C 0.12482 0.53131 0.91878 0.0
C266 C 0.10717 0.53088 0.90301 0.0
C267 C 0.0769 0.53099 0.9062 0.0
C268 C 0.12047 0.49948 0.92058 0.0
C269 C 0.165 0.56302 0.92144 0.0
C270 C 0.98148 0.52697 0.87261 0.0
C271 C 0.9744 0.52715 0.85617 0.0
C272 C 0.99969 0.52907 0.84498 0.0
C273 C 1.03038 0.5298 0.85028 0.0
C274 C 1.0365 0.52919 0.86698 0.0
C275 C 1.01199 0.52823 0.87763 0.0
C276 C 1.02198 0.52935 0.8949 0.0
C277 C 0.05591 0.53028 0.89329 0.0
C278 C 0.06536 0.53006 0.87693 0.0
C279 C 0.98912 0.49765 0.90246 0.0
C280 C 1.03162 0.56117 0.90312 0.0
H281 H 0.17684 0.52986 0.90151 0.0
H282 H 0.17333 0.52836 0.84158 0.0
H283 H 0.15256 0.58249 0.85605 0.0
H284 H 0.1095 0.56317 0.84512 0.0
H285 H 0.14457 0.56032 0.8372 0.0
H286 H 0.07808 0.477 0.85396 0.0
H287 H 0.10125 0.49854 0.83601 0.0
H288 H 0.06295 0.49699 0.84366 0.0
H289 H 0.12686 0.53312 0.95324 0.0
H290 H 1.03257 0.53446 0.95819 0.0
H291 H 1.02604 0.53249 0.92932 0.0
H292 H 0.09264 0.47993 0.9252 0.0
H293 H 0.14161 0.50314 0.92919 0.0
H294 H 0.12199 0.48921 0.90891 0.0
H295 H 0.16488 0.58334 0.92617 0.0
H296 H 0.18062 0.57187 0.9101 0.0
H297 H 0.1809 0.55995 0.9303 0.0
H298 H 0.2209 0.52818 0.8868 0.0
C299 C 0.17477 0.52955 0.88862 0.0
C300 C 0.99082 0.43667 0.45917 0.0
C301 C 0.96407 0.40638 0.45118 0.0
C302 C 0.96291 0.4041 0.43414 0.0
C303 C 1.01396 0.46115 0.43313 0.0
C304 C 1.01581 0.46372 0.44987 0.0
C305 C 1.04727 0.49775 0.45599 0.0
H306 H 0.18532 0.65405 0.43719 0.0
C307 C 1.04269 0.49331 0.42689 0.0
C308 C 0.06254 0.51517 0.44018 0.0
H309 H 0.15979 0.61557 0.48486 0.0
H310 H 0.10944 0.56218 0.47334 0.0
H311 H 0.181 0.59695 0.42047 0.0
H312 H 0.10257 0.61775 0.42445 0.0
H313 H 0.09632 0.60088 0.4048 0.0
H314 H 0.14069 0.63823 0.41086 0.0
H315 H 0.18465 0.62756 0.40919 0.0
H316 H 0.15828 0.58608 0.40153 0.0
C317 C 0.07592 0.49629 0.46514 0.0
C318 C 1.03088 0.51141 0.46649 0.0
C319 C 1.05326 0.50684 0.36598 0.0
C320 C 0.07596 0.53393 0.35644 0.0
C321 C 0.10102 0.56472 0.36426 0.0
C322 C 0.10414 0.56837 0.38117 0.0
C323 C 0.08187 0.541 0.3905 0.0
C324 C 0.05658 0.51098 0.3829 0.0
C325 C 1.03444 0.48485 0.39482 0.0
C326 C 1.05124 0.5041 0.41082 0.0
C327 C 0.07912 0.53683 0.40818 0.0
C328 C 1.0423 0.45979 0.39199 0.0
C329 C 0.99304 0.47082 0.39267 0.0
C330 C 0.16864 0.63428 0.44523 0.0
C331 C 0.17617 0.63913 0.46195 0.0
C332 C 0.15443 0.61244 0.47191 0.0
C333 C 0.1253 0.58152 0.4652 0.0
C334 C 0.11831 0.57718 0.44834 0.0
C335 C 0.14018 0.60349 0.43875 0.0
C336 C 0.1307 0.59489 0.42108 0.0
C337 C 0.09945 0.55901 0.42147 0.0
C338 C 0.09171 0.54844 0.43743 0.0
C339 C 0.16533 0.60184 0.41248 0.0
C340 C 0.11708 0.61397 0.41482 0.0
H341 H 0.9848 0.42753 0.41222 0.0
H342 H 0.99253 0.43907 0.47227 0.0
H343 H 1.00634 0.50691 0.46023 0.0
H344 H 1.05072 0.53784 0.46884 0.0
H345 H 1.02173 0.49962 0.47829 0.0
H346 H 0.07916 0.47877 0.45889 0.0
H347 H 0.06697 0.4884 0.47768 0.0
H348 H 0.104 0.51963 0.4656 0.0
H349 H 1.03378 0.48278 0.36045 0.0
H350 H 0.11823 0.58616 0.3573 0.0
H351 H 0.12396 0.59243 0.38629 0.0
H352 H 0.07167 0.47196 0.38853 0.0
H353 H 1.02422 0.44178 0.3821 0.0
H354 H 1.03894 0.44688 0.40298 0.0
H355 H 0.99035 0.48949 0.38854 0.0
H356 H 0.97776 0.46291 0.40412 0.0
H357 H 0.97846 0.45027 0.38354 0.0
H358 H 0.94237 0.38125 0.4277 0.0
C359 C 0.98751 0.43114 0.42513 0.0
C360 C 0.58345 0.95314 0.78628 0.0
C361 C 0.58365 0.92918 0.77773 0.0
C362 C 0.58496 0.92937 0.76068 0.0
C363 C 0.58553 0.97633 0.76093 0.0
C364 C 0.58436 0.97639 0.77764 0.0
C365 C 0.58416 1.00355 0.78468 0.0
H366 H 0.5907 0.13556 0.77207 0.0
C367 C 0.58658 1.00368 0.7556 0.0
C368 C 0.58588 0.01989 0.76944 0.0
H369 H 0.58113 0.09373 0.81777 0.0
H370 H 0.58162 0.05195 0.80391 0.0
H371 H 0.6509 0.12801 0.75658 0.0
H372 H 0.53165 0.06931 0.75337 0.0
H373 H 0.54662 0.06753 0.73402 0.0
H374 H 0.56091 0.10602 0.74275 0.0
H375 H 0.62673 0.13929 0.74538 0.0
H376 H 0.6379 0.11404 0.73629 0.0
C377 C 0.61937 0.02601 0.79559 0.0
C378 C 0.54719 0.98847 0.79361 0.0
C379 C 0.59032 0.02238 0.69547 0.0
C380 C 0.59178 0.04586 0.68676 0.0
C381 C 0.59323 0.07062 0.69538 0.0
C382 C 0.59289 0.07183 0.71233 0.0
C383 C 0.59108 0.04802 0.72085 0.0
C384 C 0.59004 0.02395 0.71241 0.0
C385 C 0.58852 1.00089 0.72349 0.0
C386 C 0.58829 0.01483 0.73995 0.0
C387 C 0.58975 0.04237 0.73832 0.0
C388 C 0.62423 1.00336 0.72113 0.0
C389 C 0.55174 0.96666 0.71977 0.0
C390 C 0.58921 0.11766 0.77912 0.0
C391 C 0.58627 0.11812 0.79604 0.0
C392 C 0.58337 0.09384 0.80472 0.0
C393 C 0.58375 0.06968 0.79665 0.0
C394 C 0.58673 0.0696 0.77969 0.0
C395 C 0.58918 0.09328 0.77125 0.0
C396 C 0.59077 0.08894 0.75328 0.0
C397 C 0.58924 0.05893 0.75227 0.0
C398 C 0.58709 0.04771 0.76776 0.0
C399 C 0.62833 0.11912 0.74743 0.0
C400 C 0.55594 0.08284 0.74531 0.0
H401 H 0.58692 0.95141 0.73934 0.0
H402 H 0.58224 0.95359 0.79936 0.0
H403 H 0.52398 0.96562 0.78721 0.0
H404 H 0.53835 1.0042 0.79401 0.0
H405 H 0.54917 0.98262 0.80615 0.0
H406 H 0.64387 0.02969 0.78979 0.0
H407 H 0.61582 0.01534 0.80749 0.0
H408 H 0.62703 0.05051 0.79766 0.0
H409 H 0.58968 1.00327 0.68924 0.0
H410 H 0.59392 0.08879 0.68898 0.0
H411 H 0.59381 0.09117 0.71813 0.0
H412 H 0.64809 0.02822 0.7179 0.0
H413 H 0.62026 0.98631 0.71126 0.0
H414 H 0.63364 0.99901 0.73229 0.0
H415 H 0.52878 0.96812 0.7169 0.0
H416 H 0.54189 0.95084 0.73016 0.0
H417 H 0.55455 0.95446 0.70919 0.0
H418 H 0.58589 0.9117 0.75378 0.0
C419 C 0.58586 0.95269 0.75228 0.0
C420 C 0.56648 0.40439 0.1415 0.0
C421 C 0.57205 0.38188 0.13557 0.0
C422 C 0.56685 0.37345 0.11883 0.0
C423 C 0.55477 0.41216 0.11418 0.0
C424 C 0.5579 0.41912 0.13067 0.0
C425 C 0.55292 0.44466 0.13501 0.0
H426 H 0.52413 0.55071 0.11061 0.0
C427 C 0.54844 0.43345 0.10619 0.0
C428 C 0.54704 0.45236 0.11838 0.0
H429 H 0.53229 0.52939 0.15971 0.0
H430 H 0.54382 0.49191 0.14966 0.0
H431 H 0.59136 0.54937 0.09581 0.0
H432 H 0.47257 0.48141 0.09817 0.0
H433 H 0.484 0.47163 0.07982 0.0
H434 H 0.49451 0.51107 0.08301 0.0
H435 H 0.55985 0.55251 0.08461 0.0
H436 H 0.57471 0.5293 0.07668 0.0
C437 C 0.58925 0.47402 0.14341 0.0
C438 C 0.51786 0.42919 0.14546 0.0
C439 C 0.54685 0.43591 0.04461 0.0
C440 C 0.54137 0.45345 0.03411 0.0
C441 C 0.53331 0.47399 0.04065 0.0
C442 C 0.53175 0.47782 0.05737 0.0
C443 C 0.53821 0.46088 0.06776 0.0
C444 C 0.54472 0.43974 0.06138 0.0
C445 C 0.5492 0.42279 0.07444 0.0
C446 C 0.54548 0.43813 0.08963 0.0
C447 C 0.53963 0.46073 0.08555 0.0
C448 C 0.58849 0.43157 0.07321 0.0
C449 C 0.5171 0.386 0.07248 0.0
C450 C 0.52861 0.53814 0.11924 0.0
C451 C 0.52711 0.54294 0.13598 0.0
C452 C 0.53363 0.52638 0.14675 0.0
C453 C 0.53979 0.50427 0.14088 0.0
C454 C 0.53928 0.49856 0.12406 0.0
C455 C 0.53415 0.51568 0.11359 0.0
C456 C 0.53298 0.5058 0.09615 0.0
C457 C 0.53803 0.47969 0.09784 0.0
C458 C 0.54186 0.47563 0.11417 0.0
C459 C 0.56621 0.53568 0.08772 0.0
C460 C 0.49422 0.49194 0.08876 0.0
H461 H 0.55554 0.3816 0.09549 0.0
H462 H 0.57068 0.41183 0.15423 0.0
H463 H 0.49644 0.40327 0.14168 0.0
H464 H 0.50385 0.44055 0.14411 0.0
H465 H 0.52471 0.43023 0.15846 0.0
H466 H 0.614 0.47806 0.13768 0.0
H467 H 0.5902 0.47002 0.15643 0.0
H468 H 0.59321 0.49705 0.14232 0.0
H469 H 0.55271 0.41971 0.03986 0.0
H470 H 0.52933 0.48795 0.03281 0.0
H471 H 0.52609 0.49423 0.06153 0.0
H472 H 0.60954 0.45793 0.07141 0.0
H473 H 0.58983 0.41815 0.06279 0.0
H474 H 0.59759 0.42672 0.08426 0.0
H475 H 0.49179 0.38143 0.06703 0.0
H476 H 0.50797 0.37419 0.08421 0.0
H477 H 0.52504 0.37344 0.06451 0.0
H478 H 0.5704 0.35582 0.11394 0.0
C479 C 0.55826 0.38846 0.10812 0.0
H480 H 0.30222 0.60893 0.16222 0.0
H481 H 0.36753 0.63317 0.16874 0.0
H482 H 0.3487 0.54436 0.15219 0.0
H483 H 0.28442 0.52043 0.14539 0.0
H484 H 0.38888 0.57478 0.18436 0.0
H485 H 0.44686 0.6565 0.13255 0.0
H486 H 0.41513 0.6555 0.14636 0.0
H487 H 0.39829 0.62225 0.13205 0.0
C488 C 0.31217 0.5947 0.15993 0.0
C489 C 0.2881 0.56267 0.15336 0.0
C490 C 0.34931 0.6085 0.16376 0.0
C491 C 0.36266 0.59039 0.16106 0.0
C492 C 0.33867 0.55853 0.15458 0.0
H493 H 0.47173 0.54236 0.12309 0.0
H494 H 0.44656 0.56954 0.13346 0.0
C495 C 0.30189 0.54485 0.15072 0.0
C496 C 0.40192 0.6041 0.16393 0.0
H497 H 0.47878 0.6364 0.1411 0.0
C498 C 0.40955 0.58954 0.17542 0.0
C499 C 0.42884 0.62379 0.1524 0.0
C500 C 0.4222 0.64061 0.14012 0.0
C501 C 0.44067 0.58983 0.17402 0.0
C502 C 0.46453 0.60527 0.16086 0.0
C503 C 0.46013 0.6243 0.15107 0.0
C504 C 0.48476 0.59338 0.15403 0.0
C505 C 0.44492 0.56996 0.18523 0.0
C506 C 0.515 0.59801 0.16208 0.0
C507 C 0.5297 0.58231 0.15608 0.0
C508 C 0.51438 0.56201 0.14195 0.0
C509 C 0.48483 0.55836 0.13377 0.0
C510 C 0.47031 0.57389 0.13971 0.0
H511 H 0.42423 0.55988 0.19501 0.0
H512 H 0.44155 0.54957 0.17825 0.0
H513 H 0.47316 0.5852 0.19089 0.0
H514 H 0.52661 0.61307 0.17312 0.0
H515 H 0.55266 0.58574 0.16257 0.0
H516 H 0.70951 0.11797 0.49729 0.0
H517 H 0.76606 0.17332 0.49466 0.0
H518 H 0.7009 0.20135 0.47597 0.0
H519 H 0.64438 0.14608 0.47831 0.0
H520 H 0.75901 0.21986 0.45697 0.0
H521 H 0.80872 0.25742 0.5208 0.0
H522 H 0.80024 0.22002 0.51427 0.0
H523 H 0.76216 0.22234 0.51527 0.0
C524 C 0.70711 0.13599 0.49282 0.0
C525 C 0.67231 0.12746 0.48799 0.0
C526 C 0.73952 0.16774 0.49142 0.0
C527 C 0.73779 0.19171 0.48532 0.0
C528 C 0.70299 0.18336 0.48078 0.0
H529 H 0.91691 0.39887 0.4749 0.0
H530 H 0.86272 0.34727 0.48488 0.0
C531 C 0.67064 0.15166 0.48212 0.0
C532 C 0.77234 0.22473 0.4824 0.0
H533 H 0.85167 0.29141 0.50057 0.0
C534 C 0.77909 0.23553 0.46655 0.0
C535 C 0.79848 0.24541 0.49491 0.0
C536 C 0.79196 0.2359 0.5123 0.0
C537 C 0.81149 0.26596 0.46279 0.0
C538 C 0.83833 0.2861 0.47514 0.0
C539 C 0.83127 0.27579 0.49109 0.0
C540 C 0.87404 0.3176 0.47142 0.0
C541 C 0.81669 0.27638 0.44556 0.0
C542 C 0.89921 0.3181 0.46117 0.0
C543 C 0.92997 0.34735 0.45551 0.0
C544 C 0.93639 0.3768 0.46004 0.0
C545 C 0.91275 0.37657 0.47128 0.0
C546 C 0.88174 0.34712 0.47692 0.0
H547 H 0.79003 0.26201 0.43851 0.0
H548 H 0.82894 0.30245 0.44523 0.0
H549 H 0.83599 0.27278 0.4395 0.0
H550 H 0.89416 0.29567 0.45699 0.0
H551 H 0.94793 0.34682 0.447 0.0
H552 H 0.64667 0.74278 0.8441 0.0
H553 H 0.63798 0.78435 0.83992 0.0
H554 H 0.56486 0.72774 0.79902 0.0
H555 H 0.57298 0.68592 0.80324 0.0
H556 H 0.65534 0.81875 0.81101 0.0
H557 H 0.5067 0.75179 0.826 0.0
H558 H 0.5343 0.73927 0.83229 0.0
H559 H 0.51592 0.73029 0.81192 0.0
C560 C 0.62824 0.73894 0.83439 0.0
C561 C 0.61047 0.71105 0.824 0.0
C562 C 0.62345 0.76277 0.83198 0.0
C563 C 0.60043 0.75893 0.81929 0.0
C564 C 0.58227 0.73093 0.80905 0.0
H565 H 0.54416 0.86469 0.76935 0.0
H566 H 0.54869 0.82501 0.78144 0.0
C567 C 0.58723 0.70722 0.81137 0.0
C568 C 0.59717 0.78503 0.81605 0.0
H569 H 0.53422 0.80052 0.81194 0.0
C570 C 0.629 0.815 0.81143 0.0
C571 C 0.56275 0.77998 0.8166 0.0
C572 C 0.52799 0.7487 0.82211 0.0
C573 C 0.62702 0.83958 0.80658 0.0
C574 C 0.59237 0.83424 0.80673 0.0
C575 C 0.56075 0.80459 0.81184 0.0
C576 C 0.58786 0.85809 0.8004 0.0
C577 C 0.66168 0.87038 0.80059 0.0
C578 C 0.60758 0.8897 0.80731 0.0
C579 C 0.60535 0.91263 0.8003 0.0
C580 C 0.5832 0.90427 0.78629 0.0
C581 C 0.5621 0.87213 0.77992 0.0
C582 C 0.56442 0.84933 0.78689 0.0
H583 H 0.68386 0.86774 0.79791 0.0
H584 H 0.6555 0.87781 0.78947 0.0
H585 H 0.67263 0.89011 0.81003 0.0
H586 H 0.62525 0.8968 0.81794 0.0
H587 H 0.62197 0.93716 0.8055 0.0
H588 H 0.84453 0.45124 0.21531 0.0
H589 H 0.7766 0.41727 0.21719 0.0
H590 H 0.76589 0.39269 0.16604 0.0
H591 H 0.83263 0.42691 0.1639 0.0
H592 H 0.7351 0.43007 0.20069 0.0
H593 H 0.68329 0.30586 0.18332 0.0
H594 H 0.73008 0.33611 0.19112 0.0
H595 H 0.71924 0.33318 0.16984 0.0
C596 C 0.82764 0.43829 0.20451 0.0
C597 C 0.84425 0.44184 0.18946 0.0
C598 C 0.78886 0.41858 0.20566 0.0
C599 C 0.76617 0.40174 0.19184 0.0
C600 C 0.78273 0.4044 0.17699 0.0
H601 H 0.62582 0.37479 0.12864 0.0
H602 H 0.66133 0.36833 0.14768 0.0
C603 C 0.82117 0.4242 0.17579 0.0
C604 C 0.72587 0.38614 0.19181 0.0
H605 H 0.64717 0.32324 0.17193 0.0
C606 C 0.71515 0.40611 0.19508 0.0
C607 C 0.69976 0.35471 0.18474 0.0
C608 C 0.70868 0.33117 0.18224 0.0
C609 C 0.68109 0.39748 0.18918 0.0
C610 C 0.65721 0.36795 0.18001 0.0
C611 C 0.66575 0.34607 0.17876 0.0
C612 C 0.62942 0.36357 0.16852 0.0
C613 C 0.673 0.42172 0.19112 0.0
C614 C 0.59851 0.36144 0.1738 0.0
C615 C 0.57785 0.36501 0.16284 0.0
C616 C 0.58789 0.37076 0.14647 0.0
C617 C 0.61697 0.3701 0.14107 0.0
C618 C 0.63744 0.36648 0.15198 0.0
H619 H 0.69544 0.44422 0.19797 0.0
H620 H 0.6695 0.42834 0.17906 0.0
H621 H 0.64671 0.4108 0.19769 0.0
H622 H 0.5916 0.35876 0.18649 0.0
H623 H 0.55512 0.36477 0.16732 0.0
H624 H 0.49856 0.91301 0.49662 0.0
H625 H 0.44245 0.8566 0.49481 0.0
H626 H 0.3853 0.88541 0.46866 0.0
H627 H 0.44112 0.94165 0.47026 0.0
H628 H 0.36927 0.82856 0.50575 0.0
H629 H 0.37124 0.81311 0.4391 0.0
H630 H 0.41095 0.84632 0.45071 0.0
H631 H 0.37333 0.84765 0.44552 0.0
C632 C 0.47409 0.90737 0.49045 0.0
C633 C 0.47453 0.93194 0.48348 0.0
C634 C 0.442 0.87509 0.48947 0.0
C635 C 0.40981 0.86668 0.48141 0.0
C636 C 0.41 0.8912 0.47468 0.0
H637 H 0.19018 0.69659 0.45558 0.0
H638 H 0.24668 0.75111 0.46208 0.0
C639 C 0.44198 0.92343 0.47566 0.0
C640 C 0.37596 0.83234 0.47995 0.0
H641 H 0.31606 0.77201 0.45214 0.0
C642 C 0.35774 0.81605 0.49405 0.0
C643 C 0.36105 0.81598 0.46468 0.0
C644 C 0.3803 0.8315 0.44914 0.0
C645 C 0.32424 0.78428 0.49324 0.0
C646 C 0.30888 0.76826 0.47793 0.0
C647 C 0.32764 0.78435 0.46388 0.0
C648 C 0.27288 0.7352 0.47599 0.0
C649 C 0.30493 0.76854 0.50872 0.0
C650 C 0.26827 0.708 0.48198 0.0
C651 C 0.23571 0.67664 0.47832 0.0
C652 C 0.20747 0.672 0.46846 0.0
C653 C 0.21156 0.69938 0.46311 0.0
C654 C 0.24386 0.73056 0.46681 0.0
H655 H 0.3156 0.78653 0.51908 0.0
H656 H 0.27449 0.75548 0.50737 0.0
H657 H 0.30975 0.75064 0.51164 0.0
H658 H 0.29048 0.71088 0.48886 0.0
H659 H 0.23354 0.65601 0.48244 0.0
H660 H 0.61097 0.37122 0.83483 0.0
H661 H 0.61633 0.32798 0.82801 0.0
H662 H 0.511 0.25892 0.85001 0.0
H663 H 0.50433 0.30157 0.85605 0.0
H664 H 0.61887 0.28727 0.8464 0.0
H665 H 0.49406 0.21626 0.80574 0.0
H666 H 0.51383 0.25692 0.81319 0.0
H667 H 0.48448 0.22321 0.82586 0.0
C668 C 0.58867 0.34678 0.83805 0.0
C669 C 0.55699 0.33992 0.84583 0.0
C670 C 0.59197 0.32211 0.83427 0.0
C671 C 0.56373 0.29007 0.8382 0.0
C672 C 0.53274 0.28331 0.8465 0.0
H673 H 0.53827 0.11039 0.81919 0.0
H674 H 0.53367 0.15193 0.8311 0.0
C675 C 0.52924 0.30789 0.85016 0.0
C676 C 0.56668 0.26377 0.83347 0.0
H677 H 0.52342 0.19215 0.81137 0.0
C678 C 0.59799 0.26648 0.83875 0.0
C679 C 0.53946 0.23665 0.82343 0.0
C680 C 0.50625 0.23315 0.81659 0.0
C681 C 0.60273 0.24279 0.8343 0.0
C682 C 0.57555 0.21579 0.82427 0.0
C683 C 0.54403 0.2128 0.81917 0.0
C684 C 0.58019 0.19122 0.81818 0.0
C685 C 0.6367 0.24671 0.84036 0.0
C686 C 0.60792 0.19964 0.80703 0.0
C687 C 0.61048 0.17602 0.80018 0.0
C688 C 0.5854 0.14352 0.80438 0.0
C689 C 0.55821 0.13528 0.81587 0.0
C690 C 0.55544 0.15891 0.82261 0.0
H691 H 0.65055 0.26464 0.85075 0.0
H692 H 0.6293 0.22317 0.84409 0.0
H693 H 0.6569 0.25528 0.83045 0.0
H694 H 0.62698 0.22436 0.8033 0.0
H695 H 0.63184 0.18311 0.79144 0.0
H696 H 0.61807 0.87156 0.48837 0.0
H697 H 0.60996 0.82088 0.49173 0.0
H698 H 0.54914 0.80489 0.53532 0.0
H699 H 0.55685 0.8553 0.53197 0.0
H700 H 0.63536 0.80771 0.51995 0.0
H701 H 0.48347 0.71687 0.50885 0.0
H702 H 0.50958 0.75773 0.50202 0.0
H703 H 0.49652 0.74978 0.52283 0.0
C704 C 0.60241 0.85694 0.49851 0.0
C705 C 0.58808 0.8674 0.50991 0.0
C706 C 0.59794 0.8281 0.50044 0.0
C707 C 0.5786 0.80899 0.51367 0.0
C708 C 0.56368 0.81905 0.52489 0.0
H709 H 0.5337 0.64833 0.56277 0.0
H710 H 0.53508 0.69133 0.55091 0.0
C711 C 0.56839 0.84799 0.52305 0.0
C712 C 0.57618 0.77972 0.51644 0.0
H713 H 0.51448 0.69832 0.52138 0.0
C714 C 0.60903 0.78368 0.52004 0.0
C715 C 0.54176 0.7485 0.51656 0.0
C716 C 0.5058 0.74277 0.51222 0.0
C717 C 0.60825 0.75747 0.52456 0.0
C718 C 0.57369 0.72628 0.52509 0.0
C719 C 0.54094 0.72219 0.52095 0.0
C720 C 0.57069 0.69828 0.53123 0.0
C721 C 0.64426 0.76378 0.52955 0.0
C722 C 0.58935 0.68713 0.52384 0.0
C723 C 0.58903 0.66275 0.53075 0.0
C724 C 0.56981 0.64893 0.54511 0.0
C725 C 0.5495 0.65896 0.55193 0.0
C726 C 0.54999 0.68337 0.54508 0.0
H727 H 0.66686 0.79001 0.53196 0.0
H728 H 0.64068 0.75072 0.54059 0.0
H729 H 0.65321 0.75498 0.51966 0.0
H730 H 0.60481 0.69778 0.51293 0.0
H731 H 0.60495 0.6556 0.52518 0.0
H732 H 0.65703 0.48342 0.85453 0.0
H733 H 0.71144 0.48369 0.85525 0.0
H734 H 0.77586 0.57506 0.83213 0.0
H735 H 0.72198 0.57543 0.83191 0.0
H736 H 0.75241 0.48129 0.83406 0.0
H737 H 0.84831 0.59945 0.86716 0.0
H738 H 0.79945 0.58047 0.86476 0.0
H739 H 0.83094 0.60326 0.84871 0.0
C740 C 0.68281 0.50376 0.84967 0.0
C741 C 0.68466 0.52956 0.84329 0.0
C742 C 0.71421 0.50387 0.85007 0.0
C743 C 0.74884 0.52977 0.84412 0.0
C744 C 0.75041 0.55518 0.83738 0.0
H745 H 0.9688 0.56604 0.83603 0.0
H746 H 0.91511 0.56665 0.8321 0.0
C747 C 0.71912 0.55521 0.83711 0.0
C748 C 0.78265 0.52972 0.84466 0.0
H749 H 0.87533 0.57545 0.85587 0.0
C750 C 0.77914 0.50197 0.83892 0.0
C751 C 0.81821 0.55646 0.85094 0.0
C752 C 0.82445 0.58645 0.85839 0.0
C753 C 0.80941 0.50034 0.83911 0.0
C754 C 0.84487 0.52706 0.84534 0.0
C755 C 0.84859 0.55492 0.85094 0.0
C756 C 0.87766 0.5259 0.84691 0.0
C757 C 0.80317 0.46994 0.83235 0.0
C758 C 0.87528 0.50286 0.85647 0.0
C759 C 0.90599 0.50257 0.85874 0.0
C760 C 0.94052 0.52522 0.85152 0.0
C761 C 0.94277 0.54787 0.84161 0.0
C762 C 0.91198 0.5484 0.83948 0.0
H763 H 0.77866 0.45584 0.82394 0.0
H764 H 0.82792 0.47569 0.82583 0.0
H765 H 0.79798 0.45433 0.84246 0.0
H766 H 0.84979 0.48547 0.86262 0.0
H767 H 0.90288 0.4848 0.86653 0.0
H768 H 0.13836 0.64023 0.16883 0.0
H769 H 0.19514 0.69609 0.16999 0.0
H770 H 0.25731 0.66348 0.15151 0.0
H771 H 0.20058 0.60766 0.15003 0.0
H772 H 0.25753 0.72213 0.18755 0.0
H773 H 0.29244 0.73767 0.1226 0.0
H774 H 0.24774 0.70411 0.1296 0.0
H775 H 0.28691 0.70327 0.13046 0.0
C776 C 0.16403 0.6449 0.1649 0.0
C777 C 0.16476 0.61934 0.15927 0.0
C778 C 0.19652 0.67693 0.16555 0.0
C779 C 0.2305 0.6842 0.16057 0.0
C780 C 0.23135 0.65871 0.15501 0.0
H781 H 0.44717 0.85458 0.19231 0.0
H782 H 0.39123 0.79979 0.18565 0.0
C783 C 0.19883 0.62669 0.15428 0.0
C784 C 0.26529 0.71816 0.16211 0.0
H785 H 0.33981 0.7784 0.14121 0.0
C786 C 0.27535 0.73444 0.17738 0.0
C787 C 0.28843 0.73451 0.14881 0.0
C788 C 0.2782 0.71914 0.13191 0.0
C789 C 0.30815 0.76617 0.17981 0.0
C790 C 0.33214 0.78199 0.16668 0.0
C791 C 0.32169 0.76613 0.1513 0.0
C792 C 0.36829 0.81484 0.16892 0.0
C793 C 0.31663 0.78259 0.19643 0.0
C794 C 0.37511 0.84143 0.16103 0.0
C795 C 0.40743 0.87291 0.16471 0.0
C796 C 0.43333 0.87822 0.17637 0.0
C797 C 0.42745 0.85129 0.18345 0.0
C798 C 0.39541 0.81997 0.17971 0.0
H799 H 0.29123 0.77107 0.20378 0.0
H800 H 0.33657 0.78063 0.20292 0.0
H801 H 0.32936 0.80869 0.19561 0.0
H802 H 0.35468 0.838 0.15257 0.0
H803 H 0.41117 0.8932 0.15912 0.0
H804 H 0.60426 0.2156 0.49318 0.0
H805 H 0.60976 0.26433 0.50083 0.0
H806 H 0.50114 0.22073 0.47984 0.0
H807 H 0.49447 0.17125 0.47295 0.0
H808 H 0.60889 0.30681 0.48315 0.0
H809 H 0.49003 0.24652 0.52477 0.0
H810 H 0.50927 0.2269 0.51667 0.0
H811 H 0.47771 0.22876 0.50457 0.0
C812 C 0.5813 0.21615 0.49036 0.0
C813 C 0.54873 0.18922 0.4826 0.0
C814 C 0.58465 0.24419 0.49461 0.0
C815 C 0.55557 0.24598 0.4912 0.0
C816 C 0.52359 0.21965 0.48295 0.0
H817 H 0.52871 0.39712 0.51239 0.0
H818 H 0.52348 0.35051 0.50027 0.0
C819 C 0.52007 0.1915 0.4788 0.0
C820 C 0.55871 0.27532 0.49639 0.0
H821 H 0.51759 0.30122 0.51949 0.0
C822 C 0.58893 0.30558 0.49111 0.0
C823 C 0.5327 0.27373 0.50682 0.0
C824 C 0.50081 0.2423 0.51368 0.0
C825 C 0.59372 0.3342 0.49589 0.0
C826 C 0.56772 0.33253 0.50627 0.0
C827 C 0.5373 0.30233 0.51142 0.0
C828 C 0.57245 0.36198 0.51259 0.0
C829 C 0.62643 0.36604 0.48975 0.0
C830 C 0.60175 0.38382 0.52349 0.0
C831 C 0.60471 0.4103 0.53045 0.0
C832 C 0.57845 0.41549 0.52663 0.0
C833 C 0.54958 0.39395 0.51543 0.0
C834 C 0.54645 0.36727 0.50856 0.0
H835 H 0.63901 0.36253 0.47913 0.0
H836 H 0.618 0.38127 0.48632 0.0
H837 H 0.64802 0.37943 0.49952 0.0
H838 H 0.62182 0.37993 0.52691 0.0
H839 H 0.62738 0.42659 0.53897 0.0
H840 H 0.51929 0.57662 0.83868 0.0
H841 H 0.46525 0.577 0.83989 0.0
H842 H 0.3973 0.47833 0.85461 0.0
H843 H 0.45124 0.47809 0.85381 0.0
H844 H 0.39953 0.54478 0.82446 0.0
H845 H 0.36909 0.51537 0.88875 0.0
H846 H 0.41123 0.52569 0.87976 0.0
H847 H 0.36864 0.4851 0.87727 0.0
C848 C 0.49293 0.55498 0.84228 0.0
C849 C 0.49026 0.52741 0.84629 0.0
C850 C 0.46173 0.5552 0.84293 0.0
C851 C 0.42661 0.52794 0.8477 0.0
C852 C 0.42383 0.5002 0.85138 0.0
H853 H 0.20375 0.47684 0.86194 0.0
H854 H 0.25761 0.47733 0.85707 0.0
C855 C 0.45498 0.5 0.85079 0.0
C856 C 0.39308 0.52834 0.84863 0.0
H857 H 0.32251 0.51195 0.87333 0.0
C858 C 0.38294 0.53777 0.83523 0.0
C859 C 0.3708 0.5194 0.8626 0.0
C860 C 0.38067 0.51115 0.87796 0.0
C861 C 0.35129 0.53755 0.83524 0.0
C862 C 0.32873 0.5281 0.84912 0.0
C863 C 0.33909 0.51899 0.86255 0.0
C864 C 0.29427 0.52711 0.85009 0.0
C865 C 0.34171 0.54656 0.82009 0.0
C866 C 0.29557 0.55458 0.84748 0.0
C867 C 0.26419 0.55412 0.85008 0.0
C868 C 0.23031 0.52617 0.85532 0.0
C869 C 0.22877 0.4985 0.85741 0.0
C870 C 0.25999 0.49895 0.85484 0.0
H871 H 0.35462 0.54407 0.80926 0.0
H872 H 0.31118 0.53127 0.81796 0.0
H873 H 0.35236 0.57223 0.82144 0.0
H874 H 0.32147 0.57704 0.84424 0.0
H875 H 0.26716 0.57631 0.84898 0.0
H876 H 0.95191 0.42979 0.17776 0.0
H877 H 0.89702 0.37361 0.17915 0.0
H878 H 0.92705 0.34927 0.13466 0.0
H879 H 0.98302 0.40552 0.13351 0.0
H880 H 0.83763 0.33526 0.16048 0.0
H881 H 0.91332 0.28211 0.16265 0.0
H882 H 0.93689 0.32519 0.16435 0.0
H883 H 0.92173 0.30407 0.14482 0.0
C884 C 0.94693 0.41254 0.16824 0.0
C885 C 0.97206 0.42215 0.15557 0.0
C886 C 0.9154 0.38033 0.16905 0.0
C887 C 0.90801 0.35686 0.15717 0.0
C888 C 0.93254 0.36659 0.14424 0.0
H889 H 0.68757 0.16467 0.16364 0.0
H890 H 0.73959 0.21504 0.15183 0.0
C891 C 0.96447 0.39883 0.14354 0.0
C892 C 0.87478 0.32241 0.15862 0.0
H893 H 0.84801 0.24565 0.16252 0.0
C894 C 0.83987 0.31562 0.16083 0.0
C895 C 0.87762 0.2967 0.15916 0.0
C896 C 0.91441 0.30232 0.15777 0.0
C897 C 0.80816 0.28432 0.16413 0.0
C898 C 0.81103 0.25864 0.16473 0.0
C899 C 0.84565 0.26519 0.16192 0.0
C900 C 0.77996 0.22596 0.17029 0.0
C901 C 0.77244 0.27955 0.16784 0.0
C902 C 0.78569 0.2142 0.18397 0.0
C903 C 0.75638 0.18527 0.19048 0.0
C904 C 0.72033 0.16734 0.18358 0.0
C905 C 0.71493 0.17798 0.16928 0.0
C906 C 0.74456 0.20702 0.16266 0.0
H907 H 0.77706 0.30295 0.17038 0.0
H908 H 0.75304 0.26714 0.15725 0.0
H909 H 0.75888 0.2643 0.17845 0.0
H910 H 0.81268 0.22803 0.19003 0.0
H911 H 0.76175 0.17743 0.20128 0.0
H912 H 0.06701 0.57647 0.10967 0.0
H913 H 0.07496 0.57569 0.08037 0.0
H914 H 0.0681 0.48939 0.08337 0.0
H915 H 0.05894 0.4895 0.1126 0.0
H916 H 0.12826 0.57923 0.06275 0.0
H917 H 0.99059 0.46186 0.0486 0.0
H918 H 1.0021 0.48287 0.06814 0.0
H919 H 1.0184 0.45949 0.06295 0.0
C920 C 0.06706 0.55727 0.10405 0.0
C921 C 0.06209 0.53291 0.11335 0.0
C922 C 0.0717 0.5569 0.08734 0.0
C923 C 0.07151 0.53219 0.07962 0.0
C924 C 0.06745 0.50825 0.08898 0.0
H925 H 0.08988 0.49712 0.97669 0.0
H926 H 0.09137 0.49711 0.00638 0.0
C927 C 0.06248 0.50847 0.10569 0.0
C928 C 0.07561 0.53167 0.0618 0.0
H929 H 1.03172 0.48651 0.02685 0.0
C930 C 0.10717 0.55893 0.05491 0.0
C931 C 1.04808 0.50513 0.05157 0.0
C932 C 1.01272 0.4758 0.05814 0.0
C933 C 0.11184 0.56045 0.03808 0.0
C934 C 0.08413 0.53411 0.02789 0.0
C935 C 1.05299 0.50658 0.03475 0.0
C936 C 0.08576 0.53546 0.01002 0.0
C937 C 0.14631 0.59021 0.03129 0.0
C938 C 0.08211 0.55702 0.00231 0.0
C939 C 0.08107 0.55697 0.98543 0.0
C940 C 0.08372 0.53537 0.97593 0.0
C941 C 0.08811 0.51421 0.9837 0.0
C942 C 0.08881 0.51408 0.00062 0.0
H943 H 0.16871 0.60472 0.04067 0.0
H944 H 0.15695 0.58345 0.02114 0.0
H945 H 0.1394 0.60572 0.02652 0.0
H946 H 0.07926 0.57343 0.00935 0.0
H947 H 0.07796 0.57371 0.97978 0.0
H948 H 0.53032 1.00761 0.44298 0.0
H949 H 0.52431 1.00912 0.41361 0.0
H950 H 0.64062 0.05248 0.40867 0.0
H951 H 0.6466 0.05049 0.43792 0.0
H952 H 0.56075 0.0607 0.39293 0.0
H953 H 0.59037 0.97346 0.37736 0.0
H954 H 0.57991 0.97935 0.39766 0.0
H955 H 0.62575 1.00762 0.38992 0.0
C956 C 0.55456 0.01746 0.4356 0.0
C957 C 0.58883 0.02859 0.44264 0.0
C958 C 0.55112 0.01836 0.41886 0.0
C959 C 0.58186 0.03034 0.40895 0.0
C960 C 0.61636 0.04243 0.41606 0.0
H961 H 0.62038 0.05161 0.306 0.0
H962 H 0.62624 0.05535 0.33557 0.0
C963 C 0.61978 0.04142 0.43276 0.0
C964 C 0.57786 0.02997 0.39114 0.0
H965 H 0.58808 1.00066 0.35556 0.0
C966 C 0.56654 0.04747 0.38474 0.0
C967 C 0.58532 0.01257 0.38051 0.0
C968 C 0.59567 0.99192 0.38669 0.0
C969 C 0.56327 0.04862 0.36794 0.0
C970 C 0.57118 0.03153 0.35734 0.0
C971 C 0.58229 0.01391 0.36375 0.0
C972 C 0.56779 0.03127 0.33953 0.0
C973 C 0.55212 0.06857 0.36164 0.0
C974 C 0.53297 0.01652 0.332 0.0
C975 C 0.52953 0.01439 0.31512 0.0
C976 C 0.56087 0.02693 0.30547 0.0
C977 C 0.5958 0.04211 0.31309 0.0
C978 C 0.59918 0.04411 0.32996 0.0
H979 H 0.55523 0.08593 0.37109 0.0
H980 H 0.56905 0.08229 0.3511 0.0
H981 H 0.52254 0.0522 0.35756 0.0
H982 H 0.50832 1.00604 0.33918 0.0
H983 H 0.5023 1.00276 0.30961 0.0
H984 H 0.637 0.55299 0.8019 0.0
H985 H 0.64788 0.5635 0.77296 0.0
H986 H 0.53028 0.49374 0.76278 0.0
H987 H 0.51925 0.4832 0.79162 0.0
H988 H 0.62786 0.51543 0.74792 0.0
H989 H 0.56066 0.57462 0.73843 0.0
H990 H 0.57498 0.57175 0.75822 0.0
H991 H 0.5325 0.53745 0.74884 0.0
C992 C 0.61348 0.54021 0.79349 0.0
C993 C 0.57728 0.51728 0.79894 0.0
C994 C 0.61972 0.5462 0.777 0.0
C995 C 0.58983 0.52966 0.76579 0.0
C996 C 0.55363 0.50715 0.77128 0.0
H997 H 0.56914 0.47876 0.66486 0.0
H998 H 0.57065 0.48199 0.69442 0.0
C999 C 0.54741 0.50101 0.78772 0.0
C1000 C 0.59644 0.53421 0.74823 0.0
H1001 H 0.57328 0.55528 0.71466 0.0
C1002 C 0.61633 0.52451 0.74066 0.0
C1003 C 0.58167 0.54634 0.73884 0.0
C1004 C 0.56154 0.55844 0.74649 0.0
C1005 C 0.62047 0.52533 0.72381 0.0
C1006 C 0.60403 0.53587 0.71433 0.0
C1007 C 0.58554 0.54691 0.72197 0.0
C1008 C 0.60434 0.53429 0.69643 0.0
C1009 C 0.64209 0.51463 0.71625 0.0
C1010 C 0.62242 0.56264 0.68777 0.0
C1011 C 0.62188 0.56093 0.67084 0.0
C1012 C 0.6029 0.53076 0.66226 0.0
C1013 C 0.58467 0.50242 0.67104 0.0
C1014 C 0.5854 0.50419 0.68795 0.0
H1015 H 0.66067 0.51524 0.72526 0.0
H1016 H 0.62238 0.48937 0.71125 0.0
H1017 H 0.65911 0.53021 0.70617 0.0
H1018 H 0.63709 0.58609 0.69413 0.0
H1019 H 0.63655 0.58325 0.66448 0.0
H1020 H 0.50285 0.01281 0.53679 0.0
H1021 H 0.51147 0.01431 0.56612 0.0
H1022 H 0.62724 0.05704 0.55971 0.0
H1023 H 0.61869 0.05535 0.53031 0.0
H1024 H 0.5916 1.00704 0.58188 0.0
H1025 H 0.5662 0.09779 0.59508 0.0
H1026 H 0.52977 0.06269 0.58331 0.0
H1027 H 0.57518 0.08959 0.57496 0.0
C1028 C 0.53011 0.02247 0.54165 0.0
C1029 C 0.56017 0.03415 0.53134 0.0
C1030 C 0.53503 0.02343 0.55839 0.0
C1031 C 0.57013 0.03629 0.56508 0.0
C1032 C 0.59998 0.04718 0.55477 0.0
H1033 H 0.63328 0.09597 0.6665 0.0
H1034 H 0.63016 0.0936 0.63689 0.0
C1035 C 0.59507 0.04621 0.53801 0.0
C1036 C 0.57571 0.03869 0.58286 0.0
H1037 H 0.56947 0.07264 0.61765 0.0
C1038 C 0.58693 0.02146 0.58973 0.0
C1039 C 0.57014 0.05794 0.59301 0.0
C1040 C 0.56 0.07832 0.58624 0.0
C1041 C 0.59188 0.02238 0.60655 0.0
C1042 C 0.5849 0.04065 0.61674 0.0
C1043 C 0.5745 0.05843 0.60983 0.0
C1044 C 0.58803 0.04164 0.63462 0.0
C1045 C 0.60494 1.00412 0.61325 0.0
C1046 C 0.56528 0.01323 0.64316 0.0
C1047 C 0.56693 0.01452 0.66008 0.0
C1048 C 0.59115 0.04431 0.66878 0.0
C1049 C 0.61404 0.07271 0.66017 0.0
C1050 C 0.61243 0.07138 0.64326 0.0
H1051 H 0.61867 0.99897 0.60389 0.0
H1052 H 0.62467 0.01791 0.62364 0.0
H1053 H 0.58064 0.9806 0.61757 0.0
H1054 H 0.54561 0.99013 0.63676 0.0
H1055 H 0.54851 0.99229 0.66636 0.0
H1056 H 0.65895 0.56401 0.89389 0.0
H1057 H 0.65108 0.54164 0.92052 0.0
H1058 H 0.53218 0.47808 0.91258 0.0
H1059 H 0.53999 0.49981 0.88587 0.0
H1060 H 0.61557 0.54367 0.94591 0.0
H1061 H 0.54927 0.41536 0.92808 0.0
H1062 H 0.57159 0.44695 0.91369 0.0
H1063 H 0.52478 0.42913 0.91977 0.0
C1064 C 0.63119 0.54513 0.89783 0.0
C1065 C 0.60007 0.53352 0.88787 0.0
C1066 C 0.62673 0.53229 0.91299 0.0
C1067 C 0.5911 0.50768 0.91839 0.0
C1068 C 0.55999 0.49632 0.90847 0.0
H1069 H 0.4945 0.44411 0.01006 0.0
H1070 H 0.50823 0.45351 0.98126 0.0
C1071 C 0.56445 0.50899 0.89329 0.0
C1072 C 0.58617 0.4956 0.93489 0.0
H1073 H 0.54311 0.42655 0.95601 0.0
C1074 C 0.60031 0.51812 0.94809 0.0
C1075 C 0.56631 0.46223 0.93772 0.0
C1076 C 0.55247 0.43708 0.92405 0.0
C1077 C 0.59373 0.50807 0.96405 0.0
C1078 C 0.57251 0.47468 0.96685 0.0
C1079 C 0.5593 0.45214 0.95373 0.0
C1080 C 0.56173 0.46308 0.9834 0.0
C1081 C 0.6083 0.53302 0.97788 0.0
C1082 C 0.58684 0.46432 0.99391 0.0
C1083 C 0.57899 0.45882 0.01035 0.0
C1084 C 0.54614 0.45238 0.01644 0.0
C1085 C 0.52011 0.44923 0.00565 0.0
C1086 C 0.52782 0.45446 0.98924 0.0
H1087 H 0.62369 0.55805 0.97364 0.0
H1088 H 0.58488 0.52768 0.98538 0.0
H1089 H 0.62719 0.53182 0.98578 0.0
H1090 H 0.61323 0.47112 0.98955 0.0
H1091 H 0.59963 0.46165 0.01845 0.0
H1092 H 0.09297 0.55862 0.20179 0.0
H1093 H 0.08961 0.56121 0.23135 0.0
H1094 H 1.05468 0.4634 0.23291 0.0
H1095 H 0.05907 0.46109 0.20342 0.0
H1096 H 1.03315 0.52585 0.25202 0.0
H1097 H 0.14289 0.5114 0.26392 0.0
H1098 H 0.13409 0.51902 0.24409 0.0
H1099 H 0.10505 0.47878 0.25155 0.0
C1100 C 0.08457 0.5377 0.20848 0.0
C1101 C 0.07665 0.50978 0.20042 0.0
C1102 C 0.08261 0.53918 0.22533 0.0
C1103 C 0.07261 0.51273 0.23436 0.0
C1104 C 0.06343 0.4844 0.22623 0.0
H1105 H 1.01435 0.49344 0.33657 0.0
H1106 H 1.01222 0.48714 0.30704 0.0
C1107 C 0.06576 0.48304 0.2094 0.0
C1108 C 0.07217 0.51497 0.25229 0.0
H1109 H 0.10942 0.50958 0.2866 0.0
C1110 C 1.04986 0.52235 0.2596 0.0
C1111 C 0.09439 0.51083 0.26214 0.0
C1112 C 0.12074 0.50489 0.25505 0.0
C1113 C 1.04903 0.52558 0.27652 0.0
C1114 C 0.07041 0.52047 0.28637 0.0
C1115 C 0.09277 0.51317 0.27903 0.0
C1116 C 0.07131 0.52387 0.30429 0.0
C1117 C 1.0261 0.53531 0.28362 0.0
C1118 C 0.10535 0.54581 0.31261 0.0
C1119 C 0.10679 0.54893 0.32948 0.0
C1120 C 0.07415 0.53026 0.33845 0.0
C1121 C 1.04006 0.50808 0.33008 0.0
C1122 C 1.0387 0.50477 0.31317 0.0
H1123 H 1.01991 0.54685 0.27459 0.0
H1124 H 0.99924 0.5134 0.28762 0.0
H1125 H 1.04054 0.55241 0.29427 0.0
H1126 H 0.13092 0.5606 0.30602 0.0
H1127 H 0.13364 0.56573 0.33549 0.0
loop_
_geom_bond_atom_site_label_1
_geom_bond_atom_site_label_2
_geom_bond_distance
_geom_bond_site_symmetry_2
_ccdc_geom_bond_type
La0 C2 2.928 . S
La0 O20 2.521 . S
La0 O21 2.628 . S
La0 O22 2.554 . S
La0 O23 2.757 . S
La0 O24 2.470 . S
La0 O29 2.482 . S
La0 O31 2.503 1_455 S
La1 C11 2.928 . S
La1 O23 2.482 1_655 S
La1 O25 2.503 1_655 S
La1 O26 2.521 . S
La1 O27 2.628 . S
La1 O28 2.551 1_655 S
La1 O29 2.757 1_655 S
La1 O30 2.470 . S
C2 La0 2.928 . S
C2 C3 1.503 . S
C2 O20 1.261 . S
C2 O21 1.243 . S
C3 C2 1.503 . S
C3 C4 1.394 . S
C3 C8 1.373 . S
C4 C3 1.394 . S
C4 C5 1.380 . S
C4 H32 0.930 . S
C5 C4 1.380 . S
C5 C6 1.376 . S
C5 H33 0.930 . S
C6 C5 1.376 . S
C6 C7 1.370 . S
C7 C6 1.370 . S
C7 C8 1.396 . S
C7 H34 0.929 . S
C8 C3 1.373 . S
C8 C7 1.396 . S
C8 H35 0.929 . S
C9 O22 1.240 . S
C9 O23 1.289 . S
C10 O24 1.258 . S
C10 O25 1.256 . S
C11 La1 2.928 . S
C11 C12 1.503 . S
C11 O26 1.261 . S
C11 O27 1.243 . S
C12 C11 1.503 . S
C12 C13 1.394 . S
C12 C17 1.373 . S
C13 C12 1.394 . S
C13 C14 1.380 . S
C13 H36 0.930 . S
C14 C13 1.380 . S
C14 C15 1.376 . S
C14 H37 0.930 . S
C15 C14 1.376 . S
C15 C16 1.370 . S
C16 C15 1.370 . S
C16 C17 1.396 . S
C16 H38 0.929 . S
C17 C12 1.373 . S
C17 C16 1.396 . S
C17 H39 0.929 . S
C18 O28 1.254 . S
C18 O29 1.289 . S
C19 O30 1.258 . S
C19 O31 1.256 . S
O20 La0 2.521 . S
O20 C2 1.261 . S
O21 La0 2.628 . S
O21 C2 1.243 . S
O22 La0 2.554 . S
O22 C9 1.240 . S
O23 La0 2.757 . S
O23 La1 2.482 1_455 S
O23 C9 1.289 . S
O24 La0 2.470 . S
O24 C10 1.258 . S
O25 La1 2.503 1_455 S
O25 C10 1.256 . S
O26 La1 2.521 . S
O26 C11 1.261 . S
O27 La1 2.628 . S
O27 C11 1.243 . S
O28 La1 2.551 1_455 S
O28 C18 1.254 . S
O29 La0 2.482 . S
O29 La1 2.757 1_455 S
O29 C18 1.289 . S
O30 La1 2.470 . S
O30 C19 1.258 . S
O31 La0 2.503 1_655 S
O31 C19 1.256 . S
H32 C4 0.930 . S
H33 C5 0.930 . S
H34 C7 0.929 . S
H35 C8 0.929 . S
H36 C13 0.930 . S
H37 C14 0.930 . S
H38 C16 0.929 . S
H39 C17 0.929 . S
La40 C42 2.928 . S
La40 O60 2.521 . S
La40 O61 2.628 . S
La40 O62 2.554 . S
La40 O63 2.757 1_565 S
La40 O64 2.470 . S
La40 O69 2.491 . S
La40 O71 2.503 1_565 S
La41 C51 2.928 . S
La41 O63 2.482 . S
La41 O65 2.503 1_545 S
La41 O66 2.521 . S
La41 O67 2.628 . S
La41 O68 2.554 . S
La41 O69 2.742 1_545 S
La41 O70 2.470 . S
C42 La40 2.928 . S
C42 C43 1.503 . S
C42 O60 1.261 . S
C42 O61 1.243 . S
C43 C42 1.503 . S
C43 C44 1.394 . S
C43 C48 1.373 . S
C44 C43 1.394 . S
C44 C45 1.380 . S
C44 H72 0.930 . S
C45 C44 1.380 . S
C45 C46 1.376 . S
C45 H73 0.930 . S
C46 C45 1.376 . S
C46 C47 1.370 . S
C47 C46 1.370 . S
C47 C48 1.396 . S
C47 H74 0.929 . S
C48 C43 1.373 . S
C48 C47 1.396 . S
C48 H75 0.929 . S
C49 O62 1.240 1_545 S
C49 O63 1.289 . S
C50 O64 1.258 . S
C50 O65 1.256 . S
C51 La41 2.928 . S
C51 C52 1.503 . S
C51 O66 1.261 . S
C51 O67 1.243 . S
C52 C51 1.503 . S
C52 C53 1.394 . S
C52 C57 1.373 . S
C53 C52 1.394 . S
C53 C54 1.380 . S
C53 H76 0.930 . S
C54 C53 1.380 . S
C54 C55 1.376 . S
C54 H77 0.930 . S
C55 C54 1.376 . S
C55 C56 1.370 . S
C56 C55 1.370 . S
C56 C57 1.396 . S
C56 H78 0.929 . S
C57 C52 1.373 . S
C57 C56 1.396 . S
C57 H79 0.929 . S
C58 O68 1.240 . S
C58 O69 1.281 1_545 S
C59 O70 1.258 . S
C59 O71 1.256 . S
O60 La40 2.521 . S
O60 C42 1.261 . S
O61 La40 2.628 . S
O61 C42 1.243 . S
O62 La40 2.554 . S
O62 C49 1.240 1_565 S
O63 La40 2.757 1_545 S
O63 La41 2.482 . S
O63 C49 1.289 . S
O64 La40 2.470 . S
O64 C50 1.258 . S
O65 La41 2.503 1_565 S
O65 C50 1.256 . S
O66 La41 2.521 . S
O66 C51 1.261 . S
O67 La41 2.628 . S
O67 C51 1.243 . S
O68 La41 2.554 . S
O68 C58 1.240 . S
O69 La40 2.491 . S
O69 La41 2.742 1_565 S
O69 C58 1.281 1_565 S
O70 La41 2.470 . S
O70 C59 1.258 . S
O71 La40 2.503 1_545 S
O71 C59 1.256 . S
H72 C44 0.930 . S
H73 C45 0.930 . S
H74 C47 0.929 . S
H75 C48 0.929 . S
H76 C53 0.930 . S
H77 C54 0.930 . S
H78 C56 0.929 . S
H79 C57 0.929 . S
La80 C82 2.928 . S
La80 O100 2.521 . S
La80 O101 2.628 . S
La80 O102 2.554 . S
La80 O103 2.757 . S
La80 O104 2.470 . S
La80 O109 2.482 . S
La80 O111 2.503 . S
La81 C91 2.928 . S
La81 O103 2.482 . S
La81 O105 2.503 . S
La81 O106 2.521 . S
La81 O107 2.628 . S
La81 O108 2.554 . S
La81 O109 2.757 . S
La81 O110 2.470 . S
C82 La80 2.928 . S
C82 C83 1.503 . S
C82 O100 1.261 . S
C82 O101 1.243 . S
C83 C82 1.503 . S
C83 C84 1.394 . S
C83 C88 1.373 . S
C84 C83 1.394 . S
C84 C85 1.380 . S
C84 H112 0.930 . S
C85 C84 1.380 . S
C85 C86 1.376 . S
C85 H113 0.930 . S
C86 C85 1.376 . S
C86 C87 1.370 . S
C87 C86 1.370 . S
C87 C88 1.396 . S
C87 H114 0.929 . S
C88 C83 1.373 . S
C88 C87 1.396 . S
C88 H115 0.929 . S
C89 O102 1.240 . S
C89 O103 1.289 . S
C90 O104 1.258 . S
C90 O105 1.256 . S
C91 La81 2.928 . S
C91 C92 1.503 . S
C91 O106 1.261 . S
C91 O107 1.243 . S
C92 C91 1.503 . S
C92 C93 1.394 . S
C92 C97 1.373 . S
C93 C92 1.394 . S
C93 C94 1.380 . S
C93 H116 0.930 . S
C94 C93 1.380 . S
C94 C95 1.376 . S
C94 H117 0.930 . S
C95 C94 1.376 . S
C95 C96 1.370 . S
C96 C95 1.370 . S
C96 C97 1.396 . S
C96 H118 0.929 . S
C97 C92 1.373 . S
C97 C96 1.396 . S
C97 H119 0.929 . S
C98 O108 1.240 . S
C98 O109 1.289 . S
C99 O110 1.258 . S
C99 O111 1.256 . S
O100 La80 2.521 . S
O100 C82 1.261 . S
O101 La80 2.628 . S
O101 C82 1.243 . S
O102 La80 2.554 . S
O102 C89 1.240 . S
O103 La80 2.757 . S
O103 La81 2.482 . S
O103 C89 1.289 . S
O104 La80 2.470 . S
O104 C90 1.258 . S
O105 La81 2.503 . S
O105 C90 1.256 . S
O106 La81 2.521 . S
O106 C91 1.261 . S
O107 La81 2.628 . S
O107 C91 1.243 . S
O108 La81 2.554 . S
O108 C98 1.240 . S
O109 La80 2.482 . S
O109 La81 2.757 . S
O109 C98 1.289 . S
O110 La81 2.470 . S
O110 C99 1.258 . S
O111 La80 2.503 . S
O111 C99 1.256 . S
H112 C84 0.930 . S
H113 C85 0.930 . S
H114 C87 0.929 . S
H115 C88 0.929 . S
H116 C93 0.930 . S
H117 C94 0.930 . S
H118 C96 0.929 . S
H119 C97 0.929 . S
C120 C121 1.391 . S
C120 C124 1.391 . S
C120 H162 0.948 . S
C121 C120 1.391 . S
C121 C122 1.391 . S
C122 C121 1.391 . S
C122 H178 0.947 . S
C122 C179 1.392 . S
C123 C124 1.391 . S
C123 C127 1.397 . S
C123 C179 1.419 . S
C124 C120 1.391 . S
C124 C123 1.391 . S
C124 C125 1.399 . S
C125 C124 1.399 . S
C125 C128 1.396 . S
C125 C137 1.453 . S
C125 C138 1.684 . S
H126 C150 0.948 . S
C127 C123 1.397 . S
C127 C128 1.394 . S
C127 C146 1.723 . S
C128 C125 1.396 . S
C128 C127 1.394 . S
C128 C158 1.723 1_545 S
H129 C152 0.947 . S
H130 C153 0.948 . S
H131 C159 0.982 . S
H132 C160 0.979 . S
H133 C160 0.980 . S
H134 C160 0.983 . S
H135 C159 0.979 . S
H136 C159 0.977 . S
C137 C125 1.453 . S
C137 H166 0.982 . S
C137 H167 0.979 . S
C137 H168 0.967 1_545 S
C138 C125 1.684 . S
C138 H163 0.979 . S
C138 H164 0.980 . S
C138 H165 0.983 . S
C139 C140 1.391 . S
C139 C144 1.391 . S
C139 H169 0.948 . S
C140 C139 1.391 . S
C140 C141 1.391 1_545 S
C141 C140 1.391 1_565 S
C141 C142 1.392 . S
C141 H170 0.947 . S
C142 C141 1.392 . S
C142 C143 1.419 1_565 S
C142 H171 0.948 . S
C143 C142 1.419 1_545 S
C143 C144 1.391 . S
C143 C147 1.397 . S
C144 C139 1.391 . S
C144 C143 1.391 . S
C144 C145 1.399 . S
C145 C144 1.399 . S
C145 C146 1.396 . S
C145 C148 1.453 . S
C145 C149 1.684 . S
C146 C127 1.723 . S
C146 C145 1.396 . S
C146 C147 1.394 . S
C147 C143 1.397 . S
C147 C146 1.394 . S
C147 C157 1.723 1_545 S
C148 C145 1.453 . S
C148 H172 0.982 . S
C148 H173 0.979 . S
C148 H174 0.977 . S
C149 C145 1.684 . S
C149 H175 0.979 . S
C149 H176 0.980 . S
C149 H177 0.983 . S
C150 H126 0.948 . S
C150 C151 1.391 . S
C150 C155 1.391 . S
C151 C150 1.391 . S
C151 C152 1.391 . S
C152 H129 0.947 . S
C152 C151 1.391 . S
C152 C153 1.392 . S
C153 H130 0.948 . S
C153 C152 1.392 . S
C153 C154 1.419 . S
C154 C153 1.419 . S
C154 C155 1.391 . S
C154 C158 1.397 . S
C155 C150 1.391 . S
C155 C154 1.391 . S
C155 C156 1.399 . S
C156 C155 1.399 . S
C156 C157 1.396 . S
C156 C159 1.453 . S
C156 C160 1.684 . S
C157 C147 1.723 1_565 S
C157 C156 1.396 . S
C157 C158 1.394 . S
C158 C128 1.723 1_565 S
C158 C154 1.397 . S
C158 C157 1.394 . S
C159 H131 0.982 . S
C159 H135 0.979 . S
C159 H136 0.977 . S
C159 C156 1.453 . S
C160 H132 0.979 . S
C160 H133 0.980 . S
C160 H134 0.983 . S
C160 C156 1.684 . S
H161 C179 0.948 . S
H162 C120 0.948 . S
H163 C138 0.979 . S
H164 C138 0.980 . S
H165 C138 0.983 . S
H166 C137 0.982 . S
H167 C137 0.979 . S
H168 C137 0.967 1_565 S
H169 C139 0.948 . S
H170 C141 0.947 . S
H171 C142 0.948 . S
H172 C148 0.982 . S
H173 C148 0.979 . S
H174 C148 0.977 . S
H175 C149 0.979 . S
H176 C149 0.980 . S
H177 C149 0.983 . S
H178 C122 0.947 . S
C179 C122 1.392 . S
C179 C123 1.419 . S
C179 H161 0.948 . S
C180 C181 1.391 . S
C180 C184 1.391 . S
C180 H222 0.948 . S
C181 C180 1.391 . S
C181 C182 1.391 . S
C182 C181 1.391 . S
C182 H238 0.947 . S
C182 C239 1.392 . S
C183 C184 1.391 . S
C183 C187 1.397 . S
C183 C239 1.419 . S
C184 C180 1.391 . S
C184 C183 1.391 . S
C184 C185 1.399 . S
C185 C184 1.399 . S
C185 C188 1.396 . S
C185 C197 1.453 . S
C185 C198 1.684 . S
H186 C210 0.948 . S
C187 C183 1.397 . S
C187 C188 1.394 . S
C187 C206 1.723 . S
C188 C185 1.396 . S
C188 C187 1.394 . S
C188 C218 1.723 . S
H189 C212 0.947 . S
H190 C213 0.948 . S
H191 C219 0.982 . S
H192 C220 0.979 . S
H193 C220 0.980 . S
H194 C220 0.983 . S
H195 C219 0.979 . S
H196 C219 0.977 . S
C197 C185 1.453 . S
C197 H226 0.982 . S
C197 H227 0.979 . S
C197 H228 0.977 . S
C198 C185 1.684 . S
C198 H223 0.979 . S
C198 H224 0.980 . S
C198 H225 0.983 . S
C199 C200 1.391 . S
C199 C204 1.391 . S
C199 H229 0.948 . S
C200 C199 1.391 . S
C200 C201 1.391 . S
C201 C200 1.391 . S
C201 C202 1.392 . S
C201 H230 0.947 . S
C202 C201 1.392 . S
C202 C203 1.419 . S
C202 H231 0.948 . S
C203 C202 1.419 . S
C203 C204 1.391 . S
C203 C207 1.397 . S
C204 C199 1.391 . S
C204 C203 1.391 . S
C204 C205 1.399 . S
C205 C204 1.399 . S
C205 C206 1.396 . S
C205 C208 1.453 . S
C205 C209 1.684 . S
C206 C187 1.723 . S
C206 C205 1.396 . S
C206 C207 1.394 . S
C207 C203 1.397 . S
C207 C206 1.394 . S
C207 C217 1.723 . S
C208 C205 1.453 . S
C208 H232 0.982 . S
C208 H233 0.979 . S
C208 H234 0.977 . S
C209 C205 1.684 . S
C209 H235 0.979 . S
C209 H236 0.980 . S
C209 H237 0.983 . S
C210 H186 0.948 . S
C210 C211 1.391 . S
C210 C215 1.391 . S
C211 C210 1.391 . S
C211 C212 1.391 . S
C212 H189 0.947 . S
C212 C211 1.391 . S
C212 C213 1.392 . S
C213 H190 0.948 . S
C213 C212 1.392 . S
C213 C214 1.419 . S
C214 C213 1.419 . S
C214 C215 1.391 . S
C214 C218 1.397 . S
C215 C210 1.391 . S
C215 C214 1.391 . S
C215 C216 1.399 . S
C216 C215 1.399 . S
C216 C217 1.396 . S
C216 C219 1.453 . S
C216 C220 1.684 . S
C217 C207 1.723 . S
C217 C216 1.396 . S
C217 C218 1.394 . S
C218 C188 1.723 . S
C218 C214 1.397 . S
C218 C217 1.394 . S
C219 H191 0.982 . S
C219 H195 0.979 . S
C219 H196 0.977 . S
C219 C216 1.453 . S
C220 H192 0.979 . S
C220 H193 0.980 . S
C220 H194 0.983 . S
C220 C216 1.684 . S
H221 C239 0.948 . S
H222 C180 0.948 . S
H223 C198 0.979 . S
H224 C198 0.980 . S
H225 C198 0.983 . S
H226 C197 0.982 . S
H227 C197 0.979 . S
H228 C197 0.977 . S
H229 C199 0.948 . S
H230 C201 0.947 . S
H231 C202 0.948 . S
H232 C208 0.982 . S
H233 C208 0.979 . S
H234 C208 0.977 . S
H235 C209 0.979 . S
H236 C209 0.980 . S
H237 C209 0.983 . S
H238 C182 0.947 . S
C239 C182 1.392 . S
C239 C183 1.419 . S
C239 H221 0.948 . S
C240 C241 1.391 . S
C240 C244 1.391 . S
C240 H282 0.948 . S
C241 C240 1.391 . S
C241 C242 1.391 . S
C242 C241 1.391 . S
C242 H298 0.947 . S
C242 C299 1.392 . S
C243 C244 1.391 . S
C243 C247 1.397 . S
C243 C299 1.419 . S
C244 C240 1.391 . S
C244 C243 1.391 . S
C244 C245 1.399 . S
C245 C244 1.399 . S
C245 C248 1.396 . S
C245 C257 1.453 . S
C245 C258 1.684 . S
H246 C270 0.948 . S
C247 C243 1.397 . S
C247 C248 1.394 . S
C247 C266 1.723 . S
C248 C245 1.396 . S
C248 C247 1.394 . S
C248 C278 1.723 . S
H249 C272 0.947 . S
H250 C273 0.950 . S
H251 C279 0.982 . S
H252 C280 0.979 1_455 S
H253 C280 0.980 . S
H254 C280 0.983 . S
H255 C279 0.979 . S
H256 C279 0.977 . S
C257 C245 1.453 . S
C257 H286 0.982 . S
C257 H287 0.979 . S
C257 H288 0.977 . S
C258 C245 1.684 . S
C258 H283 0.979 . S
C258 H284 0.980 . S
C258 H285 0.983 . S
C259 C260 1.391 . S
C259 C264 1.391 . S
C259 H289 0.948 . S
C260 C259 1.391 . S
C260 C261 1.391 . S
C261 C260 1.391 . S
C261 C262 1.392 . S
C261 H290 0.947 1_455 S
C262 C261 1.392 . S
C262 C263 1.419 . S
C262 H291 0.948 1_455 S
C263 C262 1.419 . S
C263 C264 1.391 . S
C263 C267 1.397 . S
C264 C259 1.391 . S
C264 C263 1.391 . S
C264 C265 1.399 . S
C265 C264 1.399 . S
C265 C266 1.396 . S
C265 C268 1.453 . S
C265 C269 1.684 . S
C266 C247 1.723 . S
C266 C265 1.396 . S
C266 C267 1.394 . S
C267 C263 1.397 . S
C267 C266 1.394 . S
C267 C277 1.723 . S
C268 C265 1.453 . S
C268 H292 0.982 . S
C268 H293 0.979 . S
C268 H294 0.977 . S
C269 C265 1.684 . S
C269 H295 0.979 . S
C269 H296 0.980 . S
C269 H297 0.983 . S
C270 H246 0.948 . S
C270 C271 1.391 . S
C270 C275 1.391 . S
C271 C270 1.391 . S
C271 C272 1.391 . S
C272 H249 0.947 . S
C272 C271 1.391 . S
C272 C273 1.389 1_655 S
C273 H250 0.950 . S
C273 C272 1.389 1_455 S
C273 C274 1.419 1_455 S
C274 C273 1.419 1_655 S
C274 C275 1.398 . S
C274 C278 1.391 1_655 S
C275 C270 1.391 . S
C275 C274 1.398 . S
C275 C276 1.399 . S
C276 C275 1.399 . S
C276 C277 1.396 1_655 S
C276 C279 1.453 . S
C276 C280 1.684 . S
C277 C267 1.723 . S
C277 C276 1.396 1_455 S
C277 C278 1.394 . S
C278 C248 1.723 . S
C278 C274 1.391 1_455 S
C278 C277 1.394 . S
C279 H251 0.982 . S
C279 H255 0.979 . S
C279 H256 0.977 . S
C279 C276 1.453 . S
C280 H252 0.979 1_655 S
C280 H253 0.980 . S
C280 H254 0.983 . S
C280 C276 1.684 . S
H281 C299 0.948 . S
H282 C240 0.948 . S
H283 C258 0.979 . S
H284 C258 0.980 . S
H285 C258 0.983 . S
H286 C257 0.982 . S
H287 C257 0.979 . S
H288 C257 0.977 . S
H289 C259 0.948 . S
H290 C261 0.947 1_655 S
H291 C262 0.948 1_655 S
H292 C268 0.982 . S
H293 C268 0.979 . S
H294 C268 0.977 . S
H295 C269 0.979 . S
H296 C269 0.980 . S
H297 C269 0.983 . S
H298 C242 0.947 . S
C299 C242 1.392 . S
C299 C243 1.419 . S
C299 H281 0.948 . S
C300 C301 1.391 . S
C300 C304 1.391 . S
C300 H342 0.948 . S
C301 C300 1.391 . S
C301 C302 1.391 . S
C302 C301 1.391 . S
C302 H358 0.947 . S
C302 C359 1.392 . S
C303 C304 1.391 . S
C303 C307 1.397 . S
C303 C359 1.419 . S
C304 C300 1.391 . S
C304 C303 1.391 . S
C304 C305 1.399 . S
C305 C304 1.399 . S
C305 C308 1.396 . S
C305 C317 1.453 . S
C305 C318 1.684 . S
H306 C330 0.948 . S
C307 C303 1.397 . S
C307 C308 1.394 . S
C307 C326 1.723 . S
C308 C305 1.396 . S
C308 C307 1.394 . S
C308 C338 1.723 1_655 S
H309 C332 0.947 . S
H310 C333 0.948 . S
H311 C339 0.982 . S
H312 C340 0.979 . S
H313 C340 0.980 . S
H314 C340 0.983 . S
H315 C339 0.979 . S
H316 C339 0.977 . S
C317 C305 1.453 . S
C317 H346 0.982 1_655 S
C317 H347 0.979 . S
C317 H348 0.977 1_655 S
C318 C305 1.684 . S
C318 H343 0.979 . S
C318 H344 0.980 . S
C318 H345 0.983 . S
C319 C320 1.391 1_655 S
C319 C324 1.391 . S
C319 H349 0.948 . S
C320 C319 1.391 1_455 S
C320 C321 1.391 . S
C321 C320 1.391 . S
C321 C322 1.392 . S
C321 H350 0.947 . S
C322 C321 1.392 . S
C322 C323 1.419 . S
C322 H351 0.948 . S
C323 C322 1.419 . S
C323 C324 1.391 1_455 S
C323 C327 1.397 . S
C324 C319 1.391 . S
C324 C323 1.391 1_655 S
C324 C325 1.399 . S
C325 C324 1.399 . S
C325 C326 1.396 . S
C325 C328 1.453 . S
C325 C329 1.684 . S
C326 C307 1.723 . S
C326 C325 1.396 . S
C326 C327 1.394 1_655 S
C327 C323 1.397 . S
C327 C326 1.394 1_455 S
C327 C337 1.723 . S
C328 C325 1.453 . S
C328 H352 0.982 . S
C328 H353 0.979 . S
C328 H354 0.977 . S
C329 C325 1.684 . S
C329 H355 0.979 . S
C329 H356 0.980 . S
C329 H357 0.983 . S
C330 H306 0.948 . S
C330 C331 1.391 . S
C330 C335 1.391 . S
C331 C330 1.391 . S
C331 C332 1.391 . S
C332 H309 0.947 . S
C332 C331 1.391 . S
C332 C333 1.392 . S
C333 H310 0.948 . S
C333 C332 1.392 . S
C333 C334 1.419 . S
C334 C333 1.419 . S
C334 C335 1.391 . S
C334 C338 1.397 . S
C335 C330 1.391 . S
C335 C334 1.391 . S
C335 C336 1.399 . S
C336 C335 1.399 . S
C336 C337 1.396 . S
C336 C339 1.453 . S
C336 C340 1.684 . S
C337 C327 1.723 . S
C337 C336 1.396 . S
C337 C338 1.394 . S
C338 C308 1.723 1_455 S
C338 C334 1.397 . S
C338 C337 1.394 . S
C339 H311 0.982 . S
C339 H315 0.979 . S
C339 H316 0.977 . S
C339 C336 1.453 . S
C340 H312 0.979 . S
C340 H313 0.980 . S
C340 H314 0.983 . S
C340 C336 1.684 . S
H341 C359 0.948 . S
H342 C300 0.948 . S
H343 C318 0.979 . S
H344 C318 0.980 . S
H345 C318 0.983 . S
H346 C317 0.982 1_455 S
H347 C317 0.979 . S
H348 C317 0.977 1_455 S
H349 C319 0.948 . S
H350 C321 0.947 . S
H351 C322 0.948 . S
H352 C328 0.982 . S
H353 C328 0.979 . S
H354 C328 0.977 . S
H355 C329 0.979 . S
H356 C329 0.980 . S
H357 C329 0.983 . S
H358 C302 0.947 . S
C359 C302 1.392 . S
C359 C303 1.419 . S
C359 H341 0.948 . S
C360 C361 1.391 . S
C360 C364 1.391 . S
C360 H402 0.948 . S
C361 C360 1.391 . S
C361 C362 1.391 . S
C362 C361 1.391 . S
C362 H418 0.947 . S
C362 C419 1.392 . S
C363 C364 1.391 . S
C363 C367 1.397 . S
C363 C419 1.419 . S
C364 C360 1.391 . S
C364 C363 1.391 . S
C364 C365 1.399 . S
C365 C364 1.399 . S
C365 C368 1.396 . S
C365 C377 1.453 1_565 S
C365 C378 1.684 . S
H366 C390 0.948 . S
C367 C363 1.397 . S
C367 C368 1.394 . S
C367 C386 1.723 . S
C368 C365 1.396 . S
C368 C367 1.394 . S
C368 C398 1.723 1_565 S
H369 C392 0.947 . S
H370 C393 0.948 . S
H371 C399 0.982 . S
H372 C400 0.979 . S
H373 C400 0.980 . S
H374 C400 0.983 . S
H375 C399 0.979 . S
H376 C399 0.977 . S
C377 C365 1.453 1_545 S
C377 H406 0.982 . S
C377 H407 0.979 1_545 S
C377 H408 0.977 . S
C378 C365 1.684 . S
C378 H403 0.979 . S
C378 H404 0.980 . S
C378 H405 0.983 . S
C379 C380 1.385 1_565 S
C379 C384 1.391 . S
C379 H409 0.948 . S
C380 C379 1.385 1_545 S
C380 C381 1.398 . S
C381 C380 1.398 . S
C381 C382 1.392 . S
C381 H410 0.947 . S
C382 C381 1.392 . S
C382 C383 1.419 . S
C382 H411 0.948 . S
C383 C382 1.419 . S
C383 C384 1.391 1_545 S
C383 C387 1.397 . S
C384 C379 1.391 . S
C384 C383 1.391 1_565 S
C384 C385 1.399 . S
C385 C384 1.399 . S
C385 C386 1.396 . S
C385 C388 1.453 . S
C385 C389 1.684 . S
C386 C367 1.723 . S
C386 C385 1.396 . S
C386 C387 1.394 1_565 S
C387 C383 1.397 . S
C387 C386 1.394 1_545 S
C387 C397 1.723 . S
C388 C385 1.453 . S
C388 H412 0.982 . S
C388 H413 0.979 . S
C388 H414 0.977 . S
C389 C385 1.684 . S
C389 H415 0.979 . S
C389 H416 0.980 . S
C389 H417 0.983 . S
C390 H366 0.948 . S
C390 C391 1.391 . S
C390 C395 1.391 . S
C391 C390 1.391 . S
C391 C392 1.391 . S
C392 H369 0.947 . S
C392 C391 1.391 . S
C392 C393 1.392 . S
C393 H370 0.948 . S
C393 C392 1.392 . S
C393 C394 1.419 . S
C394 C393 1.419 . S
C394 C395 1.391 . S
C394 C398 1.397 . S
C395 C390 1.391 . S
C395 C394 1.391 . S
C395 C396 1.399 . S
C396 C395 1.399 . S
C396 C397 1.396 . S
C396 C399 1.453 . S
C396 C400 1.684 . S
C397 C387 1.723 . S
C397 C396 1.396 . S
C397 C398 1.394 . S
C398 C368 1.723 1_545 S
C398 C394 1.397 . S
C398 C397 1.394 . S
C399 H371 0.982 . S
C399 H375 0.979 . S
C399 H376 0.977 . S
C399 C396 1.453 . S
C400 H372 0.979 . S
C400 H373 0.980 . S
C400 H374 0.983 . S
C400 C396 1.684 . S
H401 C419 0.948 . S
H402 C360 0.948 . S
H403 C378 0.979 . S
H404 C378 0.980 . S
H405 C378 0.983 . S
H406 C377 0.982 . S
H407 C377 0.979 1_565 S
H408 C377 0.977 . S
H409 C379 0.948 . S
H410 C381 0.947 . S
H411 C382 0.948 . S
H412 C388 0.982 . S
H413 C388 0.979 . S
H414 C388 0.977 . S
H415 C389 0.979 . S
H416 C389 0.980 . S
H417 C389 0.983 . S
H418 C362 0.947 . S
C419 C362 1.392 . S
C419 C363 1.419 . S
C419 H401 0.948 . S
C420 C421 1.391 . S
C420 C424 1.391 . S
C420 H462 0.948 . S
C421 C420 1.391 . S
C421 C422 1.391 . S
C422 C421 1.391 . S
C422 H478 0.947 . S
C422 C479 1.392 . S
C423 C424 1.391 . S
C423 C427 1.397 . S
C423 C479 1.419 . S
C424 C420 1.391 . S
C424 C423 1.391 . S
C424 C425 1.399 . S
C425 C424 1.399 . S
C425 C428 1.396 . S
C425 C437 1.453 . S
C425 C438 1.684 . S
H426 C450 0.948 . S
C427 C423 1.397 . S
C427 C428 1.394 . S
C427 C446 1.723 . S
C428 C425 1.396 . S
C428 C427 1.394 . S
C428 C458 1.723 . S
H429 C452 0.947 . S
H430 C453 0.948 . S
H431 C459 0.982 . S
H432 C460 0.979 . S
H433 C460 0.980 . S
H434 C460 0.983 . S
H435 C459 0.979 . S
H436 C459 0.977 . S
C437 C425 1.453 . S
C437 H466 0.982 . S
C437 H467 0.979 . S
C437 H468 0.977 . S
C438 C425 1.684 . S
C438 H463 0.979 . S
C438 H464 0.980 . S
C438 H465 0.983 . S
C439 C440 1.391 . S
C439 C444 1.391 . S
C439 H469 0.948 . S
C440 C439 1.391 . S
C440 C441 1.391 . S
C441 C440 1.391 . S
C441 C442 1.392 . S
C441 H470 0.947 . S
C442 C441 1.392 . S
C442 C443 1.419 . S
C442 H471 0.948 . S
C443 C442 1.419 . S
C443 C444 1.391 . S
C443 C447 1.397 . S
C444 C439 1.391 . S
C444 C443 1.391 . S
C444 C445 1.399 . S
C445 C444 1.399 . S
C445 C446 1.396 . S
C445 C448 1.453 . S
C445 C449 1.684 . S
C446 C427 1.723 . S
C446 C445 1.396 . S
C446 C447 1.394 . S
C447 C443 1.397 . S
C447 C446 1.394 . S
C447 C457 1.723 . S
C448 C445 1.453 . S
C448 H472 0.982 . S
C448 H473 0.979 . S
C448 H474 0.977 . S
C449 C445 1.684 . S
C449 H475 0.979 . S
C449 H476 0.980 . S
C449 H477 0.983 . S
C450 H426 0.948 . S
C450 C451 1.391 . S
C450 C455 1.391 . S
C451 C450 1.391 . S
C451 C452 1.391 . S
C452 H429 0.947 . S
C452 C451 1.391 . S
C452 C453 1.392 . S
C453 H430 0.948 . S
C453 C452 1.392 . S
C453 C454 1.419 . S
C454 C453 1.419 . S
C454 C455 1.391 . S
C454 C458 1.397 . S
C455 C450 1.391 . S
C455 C454 1.391 . S
C455 C456 1.399 . S
C456 C455 1.399 . S
C456 C457 1.396 . S
C456 C459 1.453 . S
C456 C460 1.684 . S
C457 C447 1.723 . S
C457 C456 1.396 . S
C457 C458 1.394 . S
C458 C428 1.723 . S
C458 C454 1.397 . S
C458 C457 1.394 . S
C459 H431 0.982 . S
C459 H435 0.979 . S
C459 H436 0.977 . S
C459 C456 1.453 . S
C460 H432 0.979 . S
C460 H433 0.980 . S
C460 H434 0.983 . S
C460 C456 1.684 . S
H461 C479 0.948 . S
H462 C420 0.948 . S
H463 C438 0.979 . S
H464 C438 0.980 . S
H465 C438 0.983 . S
H466 C437 0.982 . S
H467 C437 0.979 . S
H468 C437 0.977 . S
H469 C439 0.948 . S
H470 C441 0.947 . S
H471 C442 0.948 . S
H472 C448 0.982 . S
H473 C448 0.979 . S
H474 C448 0.977 . S
H475 C449 0.979 . S
H476 C449 0.980 . S
H477 C449 0.983 . S
H478 C422 0.947 . S
C479 C422 1.392 . S
C479 C423 1.419 . S
C479 H461 0.948 . S
H480 C488 0.929 . S
H481 C490 0.930 . S
H482 C492 0.930 . S
H483 C495 0.929 . S
H484 C498 0.930 . S
H485 C500 0.960 . S
H486 C500 0.960 . S
H487 C500 0.960 . S
C488 H480 0.929 . S
C488 C489 1.377 . S
C488 C490 1.384 . S
C489 C488 1.377 . S
C489 C495 1.390 . S
C490 H481 0.930 . S
C490 C488 1.384 . S
C490 C491 1.372 . S
C491 C490 1.372 . S
C491 C492 1.400 . S
C491 C496 1.490 . S
C492 H482 0.930 . S
C492 C491 1.400 . S
C492 C495 1.386 . S
H493 C509 0.930 . S
H494 C510 0.931 . S
C495 H483 0.929 . S
C495 C489 1.390 . S
C495 C492 1.386 . S
C496 C491 1.490 . S
C496 C498 1.395 . S
C496 C499 1.403 . S
H497 C503 0.930 . S
C498 H484 0.930 . S
C498 C496 1.395 . S
C498 C501 1.403 . S
C499 C496 1.403 . S
C499 C500 1.524 . S
C499 C503 1.400 . S
C500 H485 0.960 . S
C500 H486 0.960 . S
C500 H487 0.960 . S
C500 C499 1.524 . S
C501 C498 1.403 . S
C501 C502 1.392 . S
C501 C505 1.495 . S
C502 C501 1.392 . S
C502 C503 1.385 . S
C502 C504 1.478 . S
C503 H497 0.930 . S
C503 C499 1.400 . S
C503 C502 1.385 . S
C504 C502 1.478 . S
C504 C506 1.381 . S
C504 C510 1.383 . S
C505 C501 1.495 . S
C505 H511 0.959 . S
C505 H512 0.961 . S
C505 H513 0.960 . S
C506 C504 1.381 . S
C506 C507 1.394 . S
C506 H514 0.930 . S
C507 C506 1.394 . S
C507 C508 1.383 . S
C507 H515 0.929 . S
C508 C507 1.383 . S
C508 C509 1.377 . S
C509 H493 0.930 . S
C509 C508 1.377 . S
C509 C510 1.379 . S
C510 H494 0.931 . S
C510 C504 1.383 . S
C510 C509 1.379 . S
H511 C505 0.959 . S
H512 C505 0.961 . S
H513 C505 0.960 . S
H514 C506 0.930 . S
H515 C507 0.929 . S
H516 C524 0.929 . S
H517 C526 0.930 . S
H518 C528 0.930 . S
H519 C531 0.929 . S
H520 C534 0.930 . S
H521 C536 0.960 . S
H522 C536 0.960 . S
H523 C536 0.960 . S
C524 H516 0.929 . S
C524 C525 1.377 . S
C524 C526 1.384 . S
C525 C524 1.377 . S
C525 C531 1.390 . S
C526 H517 0.930 . S
C526 C524 1.384 . S
C526 C527 1.372 . S
C527 C526 1.372 . S
C527 C528 1.400 . S
C527 C532 1.490 . S
C528 H518 0.930 . S
C528 C527 1.400 . S
C528 C531 1.386 . S
H529 C545 0.930 . S
H530 C546 0.931 . S
C531 H519 0.929 . S
C531 C525 1.390 . S
C531 C528 1.386 . S
C532 C527 1.490 . S
C532 C534 1.395 . S
C532 C535 1.403 . S
H533 C539 0.930 . S
C534 H520 0.930 . S
C534 C532 1.395 . S
C534 C537 1.403 . S
C535 C532 1.403 . S
C535 C536 1.524 . S
C535 C539 1.400 . S
C536 H521 0.960 . S
C536 H522 0.960 . S
C536 H523 0.960 . S
C536 C535 1.524 . S
C537 C534 1.403 . S
C537 C538 1.392 . S
C537 C541 1.495 . S
C538 C537 1.392 . S
C538 C539 1.385 . S
C538 C540 1.478 . S
C539 H533 0.930 . S
C539 C535 1.400 . S
C539 C538 1.385 . S
C540 C538 1.478 . S
C540 C542 1.381 . S
C540 C546 1.383 . S
C541 C537 1.495 . S
C541 H547 0.959 . S
C541 H548 0.961 . S
C541 H549 0.960 . S
C542 C540 1.381 . S
C542 C543 1.394 . S
C542 H550 0.930 . S
C543 C542 1.394 . S
C543 C544 1.383 . S
C543 H551 0.929 . S
C544 C543 1.383 . S
C544 C545 1.377 . S
C545 H529 0.930 . S
C545 C544 1.377 . S
C545 C546 1.379 . S
C546 H530 0.931 . S
C546 C540 1.383 . S
C546 C545 1.379 . S
H547 C541 0.959 . S
H548 C541 0.961 . S
H549 C541 0.960 . S
H550 C542 0.930 . S
H551 C543 0.929 . S
H552 C560 0.929 . S
H553 C562 0.930 . S
H554 C564 0.930 . S
H555 C567 0.929 . S
H556 C570 0.930 . S
H557 C572 0.960 . S
H558 C572 0.960 . S
H559 C572 0.960 . S
C560 H552 0.929 . S
C560 C561 1.377 . S
C560 C562 1.384 . S
C561 C560 1.377 . S
C561 C567 1.390 . S
C562 H553 0.930 . S
C562 C560 1.384 . S
C562 C563 1.372 . S
C563 C562 1.372 . S
C563 C564 1.400 . S
C563 C568 1.490 . S
C564 H554 0.930 . S
C564 C563 1.400 . S
C564 C567 1.386 . S
H565 C581 0.930 . S
H566 C582 0.931 . S
C567 H555 0.929 . S
C567 C561 1.390 . S
C567 C564 1.386 . S
C568 C563 1.490 . S
C568 C570 1.395 . S
C568 C571 1.403 . S
H569 C575 0.930 . S
C570 H556 0.930 . S
C570 C568 1.395 . S
C570 C573 1.403 . S
C571 C568 1.403 . S
C571 C572 1.524 . S
C571 C575 1.400 . S
C572 H557 0.960 . S
C572 H558 0.960 . S
C572 H559 0.960 . S
C572 C571 1.524 . S
C573 C570 1.403 . S
C573 C574 1.392 . S
C573 C577 1.495 . S
C574 C573 1.392 . S
C574 C575 1.385 . S
C574 C576 1.478 . S
C575 H569 0.930 . S
C575 C571 1.400 . S
C575 C574 1.385 . S
C576 C574 1.478 . S
C576 C578 1.381 . S
C576 C582 1.383 . S
C577 C573 1.495 . S
C577 H583 0.959 . S
C577 H584 0.961 . S
C577 H585 0.960 . S
C578 C576 1.381 . S
C578 C579 1.394 . S
C578 H586 0.930 . S
C579 C578 1.394 . S
C579 C580 1.383 . S
C579 H587 0.929 . S
C580 C579 1.383 . S
C580 C581 1.377 . S
C581 H565 0.930 . S
C581 C580 1.377 . S
C581 C582 1.379 . S
C582 H566 0.931 . S
C582 C576 1.383 . S
C582 C581 1.379 . S
H583 C577 0.959 . S
H584 C577 0.961 . S
H585 C577 0.960 . S
H586 C578 0.930 . S
H587 C579 0.929 . S
H588 C596 0.929 . S
H589 C598 0.930 . S
H590 C600 0.930 . S
H591 C603 0.929 . S
H592 C606 0.930 . S
H593 C608 0.960 . S
H594 C608 0.960 . S
H595 C608 0.960 . S
C596 H588 0.929 . S
C596 C597 1.377 . S
C596 C598 1.384 . S
C597 C596 1.377 . S
C597 C603 1.390 . S
C598 H589 0.930 . S
C598 C596 1.384 . S
C598 C599 1.372 . S
C599 C598 1.372 . S
C599 C600 1.400 . S
C599 C604 1.490 . S
C600 H590 0.930 . S
C600 C599 1.400 . S
C600 C603 1.386 . S
H601 C617 0.930 . S
H602 C618 0.931 . S
C603 H591 0.929 . S
C603 C597 1.390 . S
C603 C600 1.386 . S
C604 C599 1.490 . S
C604 C606 1.395 . S
C604 C607 1.403 . S
H605 C611 0.930 . S
C606 H592 0.930 . S
C606 C604 1.395 . S
C606 C609 1.403 . S
C607 C604 1.403 . S
C607 C608 1.524 . S
C607 C611 1.400 . S
C608 H593 0.960 . S
C608 H594 0.960 . S
C608 H595 0.960 . S
C608 C607 1.524 . S
C609 C606 1.403 . S
C609 C610 1.392 . S
C609 C613 1.495 . S
C610 C609 1.392 . S
C610 C611 1.385 . S
C610 C612 1.478 . S
C611 H605 0.930 . S
C611 C607 1.400 . S
C611 C610 1.385 . S
C612 C610 1.478 . S
C612 C614 1.381 . S
C612 C618 1.383 . S
C613 C609 1.495 . S
C613 H619 0.959 . S
C613 H620 0.961 . S
C613 H621 0.960 . S
C614 C612 1.381 . S
C614 C615 1.394 . S
C614 H622 0.930 . S
C615 C614 1.394 . S
C615 C616 1.383 . S
C615 H623 0.929 . S
C616 C615 1.383 . S
C616 C617 1.377 . S
C617 H601 0.930 . S
C617 C616 1.377 . S
C617 C618 1.379 . S
C618 H602 0.931 . S
C618 C612 1.383 . S
C618 C617 1.379 . S
H619 C613 0.959 . S
H620 C613 0.961 . S
H621 C613 0.960 . S
H622 C614 0.930 . S
H623 C615 0.929 . S
H624 C632 0.929 . S
H625 C634 0.930 . S
H626 C636 0.930 . S
H627 C639 0.929 . S
H628 C642 0.930 . S
H629 C644 0.960 . S
H630 C644 0.960 . S
H631 C644 0.960 . S
C632 H624 0.929 . S
C632 C633 1.377 . S
C632 C634 1.384 . S
C633 C632 1.377 . S
C633 C639 1.390 . S
C634 H625 0.930 . S
C634 C632 1.384 . S
C634 C635 1.372 . S
C635 C634 1.372 . S
C635 C636 1.400 . S
C635 C640 1.490 . S
C636 H626 0.930 . S
C636 C635 1.400 . S
C636 C639 1.386 . S
H637 C653 0.930 . S
H638 C654 0.931 . S
C639 H627 0.929 . S
C639 C633 1.390 . S
C639 C636 1.386 . S
C640 C635 1.490 . S
C640 C642 1.395 . S
C640 C643 1.403 . S
H641 C647 0.930 . S
C642 H628 0.930 . S
C642 C640 1.395 . S
C642 C645 1.403 . S
C643 C640 1.403 . S
C643 C644 1.524 . S
C643 C647 1.400 . S
C644 H629 0.960 . S
C644 H630 0.960 . S
C644 H631 0.960 . S
C644 C643 1.524 . S
C645 C642 1.403 . S
C645 C646 1.392 . S
C645 C649 1.495 . S
C646 C645 1.392 . S
C646 C647 1.385 . S
C646 C648 1.478 . S
C647 H641 0.930 . S
C647 C643 1.400 . S
C647 C646 1.385 . S
C648 C646 1.478 . S
C648 C650 1.381 . S
C648 C654 1.383 . S
C649 C645 1.495 . S
C649 H655 0.959 . S
C649 H656 0.961 . S
C649 H657 0.960 . S
C650 C648 1.381 . S
C650 C651 1.394 . S
C650 H658 0.930 . S
C651 C650 1.394 . S
C651 C652 1.383 . S
C651 H659 0.929 . S
C652 C651 1.383 . S
C652 C653 1.377 . S
C653 H637 0.930 . S
C653 C652 1.377 . S
C653 C654 1.379 . S
C654 H638 0.931 . S
C654 C648 1.383 . S
C654 C653 1.379 . S
H655 C649 0.959 . S
H656 C649 0.961 . S
H657 C649 0.960 . S
H658 C650 0.930 . S
H659 C651 0.929 . S
H660 C668 0.929 . S
H661 C670 0.930 . S
H662 C672 0.930 . S
H663 C675 0.929 . S
H664 C678 0.930 . S
H665 C680 0.960 . S
H666 C680 0.960 . S
H667 C680 0.960 . S
C668 H660 0.929 . S
C668 C669 1.377 . S
C668 C670 1.384 . S
C669 C668 1.377 . S
C669 C675 1.390 . S
C670 H661 0.930 . S
C670 C668 1.384 . S
C670 C671 1.372 . S
C671 C670 1.372 . S
C671 C672 1.400 . S
C671 C676 1.490 . S
C672 H662 0.930 . S
C672 C671 1.400 . S
C672 C675 1.386 . S
H673 C689 0.930 . S
H674 C690 0.931 . S
C675 H663 0.929 . S
C675 C669 1.390 . S
C675 C672 1.386 . S
C676 C671 1.490 . S
C676 C678 1.395 . S
C676 C679 1.403 . S
H677 C683 0.930 . S
C678 H664 0.930 . S
C678 C676 1.395 . S
C678 C681 1.403 . S
C679 C676 1.403 . S
C679 C680 1.524 . S
C679 C683 1.400 . S
C680 H665 0.960 . S
C680 H666 0.960 . S
C680 H667 0.960 . S
C680 C679 1.524 . S
C681 C678 1.403 . S
C681 C682 1.392 . S
C681 C685 1.495 . S
C682 C681 1.392 . S
C682 C683 1.385 . S
C682 C684 1.478 . S
C683 H677 0.930 . S
C683 C679 1.400 . S
C683 C682 1.385 . S
C684 C682 1.478 . S
C684 C686 1.381 . S
C684 C690 1.383 . S
C685 C681 1.495 . S
C685 H691 0.959 . S
C685 H692 0.961 . S
C685 H693 0.960 . S
C686 C684 1.381 . S
C686 C687 1.394 . S
C686 H694 0.930 . S
C687 C686 1.394 . S
C687 C688 1.383 . S
C687 H695 0.929 . S
C688 C687 1.383 . S
C688 C689 1.377 . S
C689 H673 0.930 . S
C689 C688 1.377 . S
C689 C690 1.379 . S
C690 H674 0.931 . S
C690 C684 1.383 . S
C690 C689 1.379 . S
H691 C685 0.959 . S
H692 C685 0.961 . S
H693 C685 0.960 . S
H694 C686 0.930 . S
H695 C687 0.929 . S
H696 C704 0.929 . S
H697 C706 0.930 . S
H698 C708 0.930 . S
H699 C711 0.929 . S
H700 C714 0.930 . S
H701 C716 0.960 . S
H702 C716 0.960 . S
H703 C716 0.960 . S
C704 H696 0.929 . S
C704 C705 1.377 . S
C704 C706 1.384 . S
C705 C704 1.377 . S
C705 C711 1.390 . S
C706 H697 0.930 . S
C706 C704 1.384 . S
C706 C707 1.372 . S
C707 C706 1.372 . S
C707 C708 1.400 . S
C707 C712 1.490 . S
C708 H698 0.930 . S
C708 C707 1.400 . S
C708 C711 1.386 . S
H709 C725 0.930 . S
H710 C726 0.931 . S
C711 H699 0.929 . S
C711 C705 1.390 . S
C711 C708 1.386 . S
C712 C707 1.490 . S
C712 C714 1.395 . S
C712 C715 1.403 . S
H713 C719 0.930 . S
C714 H700 0.930 . S
C714 C712 1.395 . S
C714 C717 1.403 . S
C715 C712 1.403 . S
C715 C716 1.524 . S
C715 C719 1.400 . S
C716 H701 0.960 . S
C716 H702 0.960 . S
C716 H703 0.960 . S
C716 C715 1.524 . S
C717 C714 1.403 . S
C717 C718 1.392 . S
C717 C721 1.495 . S
C718 C717 1.392 . S
C718 C719 1.385 . S
C718 C720 1.478 . S
C719 H713 0.930 . S
C719 C715 1.400 . S
C719 C718 1.385 . S
C720 C718 1.478 . S
C720 C722 1.381 . S
C720 C726 1.383 . S
C721 C717 1.495 . S
C721 H727 0.959 . S
C721 H728 0.961 . S
C721 H729 0.960 . S
C722 C720 1.381 . S
C722 C723 1.394 . S
C722 H730 0.930 . S
C723 C722 1.394 . S
C723 C724 1.383 . S
C723 H731 0.929 . S
C724 C723 1.383 . S
C724 C725 1.377 . S
C725 H709 0.930 . S
C725 C724 1.377 . S
C725 C726 1.379 . S
C726 H710 0.931 . S
C726 C720 1.383 . S
C726 C725 1.379 . S
H727 C721 0.959 . S
H728 C721 0.961 . S
H729 C721 0.960 . S
H730 C722 0.930 . S
H731 C723 0.929 . S
H732 C740 0.929 . S
H733 C742 0.930 . S
H734 C744 0.930 . S
H735 C747 0.929 . S
H736 C750 0.930 . S
H737 C752 0.960 . S
H738 C752 0.960 . S
H739 C752 0.960 . S
C740 H732 0.929 . S
C740 C741 1.377 . S
C740 C742 1.384 . S
C741 C740 1.377 . S
C741 C747 1.390 . S
C742 H733 0.930 . S
C742 C740 1.384 . S
C742 C743 1.372 . S
C743 C742 1.372 . S
C743 C744 1.400 . S
C743 C748 1.490 . S
C744 H734 0.930 . S
C744 C743 1.400 . S
C744 C747 1.386 . S
H745 C761 0.930 . S
H746 C762 0.931 . S
C747 H735 0.929 . S
C747 C741 1.390 . S
C747 C744 1.386 . S
C748 C743 1.490 . S
C748 C750 1.395 . S
C748 C751 1.403 . S
H749 C755 0.930 . S
C750 H736 0.930 . S
C750 C748 1.395 . S
C750 C753 1.403 . S
C751 C748 1.403 . S
C751 C752 1.524 . S
C751 C755 1.400 . S
C752 H737 0.960 . S
C752 H738 0.960 . S
C752 H739 0.960 . S
C752 C751 1.524 . S
C753 C750 1.403 . S
C753 C754 1.392 . S
C753 C757 1.495 . S
C754 C753 1.392 . S
C754 C755 1.385 . S
C754 C756 1.478 . S
C755 H749 0.930 . S
C755 C751 1.400 . S
C755 C754 1.385 . S
C756 C754 1.478 . S
C756 C758 1.381 . S
C756 C762 1.383 . S
C757 C753 1.495 . S
C757 H763 0.959 . S
C757 H764 0.961 . S
C757 H765 0.960 . S
C758 C756 1.381 . S
C758 C759 1.394 . S
C758 H766 0.930 . S
C759 C758 1.394 . S
C759 C760 1.383 . S
C759 H767 0.929 . S
C760 C759 1.383 . S
C760 C761 1.377 . S
C761 H745 0.930 . S
C761 C760 1.377 . S
C761 C762 1.379 . S
C762 H746 0.931 . S
C762 C756 1.383 . S
C762 C761 1.379 . S
H763 C757 0.959 . S
H764 C757 0.961 . S
H765 C757 0.960 . S
H766 C758 0.930 . S
H767 C759 0.929 . S
H768 C776 0.929 . S
H769 C778 0.930 . S
H770 C780 0.930 . S
H771 C783 0.929 . S
H772 C786 0.930 . S
H773 C788 0.960 . S
H774 C788 0.960 . S
H775 C788 0.960 . S
C776 H768 0.929 . S
C776 C777 1.377 . S
C776 C778 1.384 . S
C777 C776 1.377 . S
C777 C783 1.390 . S
C778 H769 0.930 . S
C778 C776 1.384 . S
C778 C779 1.372 . S
C779 C778 1.372 . S
C779 C780 1.400 . S
C779 C784 1.490 . S
C780 H770 0.930 . S
C780 C779 1.400 . S
C780 C783 1.386 . S
H781 C797 0.930 . S
H782 C798 0.931 . S
C783 H771 0.929 . S
C783 C777 1.390 . S
C783 C780 1.386 . S
C784 C779 1.490 . S
C784 C786 1.395 . S
C784 C787 1.403 . S
H785 C791 0.930 . S
C786 H772 0.930 . S
C786 C784 1.395 . S
C786 C789 1.403 . S
C787 C784 1.403 . S
C787 C788 1.524 . S
C787 C791 1.400 . S
C788 H773 0.960 . S
C788 H774 0.960 . S
C788 H775 0.960 . S
C788 C787 1.524 . S
C789 C786 1.403 . S
C789 C790 1.392 . S
C789 C793 1.495 . S
C790 C789 1.392 . S
C790 C791 1.385 . S
C790 C792 1.478 . S
C791 H785 0.930 . S
C791 C787 1.400 . S
C791 C790 1.385 . S
C792 C790 1.478 . S
C792 C794 1.381 . S
C792 C798 1.383 . S
C793 C789 1.495 . S
C793 H799 0.959 . S
C793 H800 0.961 . S
C793 H801 0.960 . S
C794 C792 1.381 . S
C794 C795 1.394 . S
C794 H802 0.930 . S
C795 C794 1.394 . S
C795 C796 1.383 . S
C795 H803 0.929 . S
C796 C795 1.383 . S
C796 C797 1.377 . S
C797 H781 0.930 . S
C797 C796 1.377 . S
C797 C798 1.379 . S
C798 H782 0.931 . S
C798 C792 1.383 . S
C798 C797 1.379 . S
H799 C793 0.959 . S
H800 C793 0.961 . S
H801 C793 0.960 . S
H802 C794 0.930 . S
H803 C795 0.929 . S
H804 C812 0.929 . S
H805 C814 0.930 . S
H806 C816 0.930 . S
H807 C819 0.929 . S
H808 C822 0.930 . S
H809 C824 0.960 . S
H810 C824 0.960 . S
H811 C824 0.960 . S
C812 H804 0.929 . S
C812 C813 1.377 . S
C812 C814 1.384 . S
C813 C812 1.377 . S
C813 C819 1.390 . S
C814 H805 0.930 . S
C814 C812 1.384 . S
C814 C815 1.372 . S
C815 C814 1.372 . S
C815 C816 1.400 . S
C815 C820 1.490 . S
C816 H806 0.930 . S
C816 C815 1.400 . S
C816 C819 1.386 . S
H817 C833 0.930 . S
H818 C834 0.931 . S
C819 H807 0.929 . S
C819 C813 1.390 . S
C819 C816 1.386 . S
C820 C815 1.490 . S
C820 C822 1.395 . S
C820 C823 1.403 . S
H821 C827 0.930 . S
C822 H808 0.930 . S
C822 C820 1.395 . S
C822 C825 1.403 . S
C823 C820 1.403 . S
C823 C824 1.524 . S
C823 C827 1.400 . S
C824 H809 0.960 . S
C824 H810 0.960 . S
C824 H811 0.960 . S
C824 C823 1.524 . S
C825 C822 1.403 . S
C825 C826 1.392 . S
C825 C829 1.495 . S
C826 C825 1.392 . S
C826 C827 1.385 . S
C826 C828 1.478 . S
C827 H821 0.930 . S
C827 C823 1.400 . S
C827 C826 1.385 . S
C828 C826 1.478 . S
C828 C830 1.381 . S
C828 C834 1.383 . S
C829 C825 1.495 . S
C829 H835 0.959 . S
C829 H836 0.961 . S
C829 H837 0.960 . S
C830 C828 1.381 . S
C830 C831 1.394 . S
C830 H838 0.930 . S
C831 C830 1.394 . S
C831 C832 1.383 . S
C831 H839 0.929 . S
C832 C831 1.383 . S
C832 C833 1.377 . S
C833 H817 0.930 . S
C833 C832 1.377 . S
C833 C834 1.379 . S
C834 H818 0.931 . S
C834 C828 1.383 . S
C834 C833 1.379 . S
H835 C829 0.959 . S
H836 C829 0.961 . S
H837 C829 0.960 . S
H838 C830 0.930 . S
H839 C831 0.929 . S
H840 C848 0.929 . S
H841 C850 0.930 . S
H842 C852 0.930 . S
H843 C855 0.929 . S
H844 C858 0.930 . S
H845 C860 0.960 . S
H846 C860 0.960 . S
H847 C860 0.960 . S
C848 H840 0.929 . S
C848 C849 1.377 . S
C848 C850 1.384 . S
C849 C848 1.377 . S
C849 C855 1.390 . S
C850 H841 0.930 . S
C850 C848 1.384 . S
C850 C851 1.372 . S
C851 C850 1.372 . S
C851 C852 1.400 . S
C851 C856 1.490 . S
C852 H842 0.930 . S
C852 C851 1.400 . S
C852 C855 1.386 . S
H853 C869 0.930 . S
H854 C870 0.931 . S
C855 H843 0.929 . S
C855 C849 1.390 . S
C855 C852 1.386 . S
C856 C851 1.490 . S
C856 C858 1.395 . S
C856 C859 1.403 . S
H857 C863 0.930 . S
C858 H844 0.930 . S
C858 C856 1.395 . S
C858 C861 1.403 . S
C859 C856 1.403 . S
C859 C860 1.524 . S
C859 C863 1.400 . S
C860 H845 0.960 . S
C860 H846 0.960 . S
C860 H847 0.960 . S
C860 C859 1.524 . S
C861 C858 1.403 . S
C861 C862 1.392 . S
C861 C865 1.495 . S
C862 C861 1.392 . S
C862 C863 1.385 . S
C862 C864 1.478 . S
C863 H857 0.930 . S
C863 C859 1.400 . S
C863 C862 1.385 . S
C864 C862 1.478 . S
C864 C866 1.381 . S
C864 C870 1.383 . S
C865 C861 1.495 . S
C865 H871 0.959 . S
C865 H872 0.961 . S
C865 H873 0.960 . S
C866 C864 1.381 . S
C866 C867 1.394 . S
C866 H874 0.930 . S
C867 C866 1.394 . S
C867 C868 1.383 . S
C867 H875 0.929 . S
C868 C867 1.383 . S
C868 C869 1.377 . S
C869 H853 0.930 . S
C869 C868 1.377 . S
C869 C870 1.379 . S
C870 H854 0.931 . S
C870 C864 1.383 . S
C870 C869 1.379 . S
H871 C865 0.959 . S
H872 C865 0.961 . S
H873 C865 0.960 . S
H874 C866 0.930 . S
H875 C867 0.929 . S
H876 C884 0.929 . S
H877 C886 0.930 . S
H878 C888 0.930 . S
H879 C891 0.929 . S
H880 C894 0.930 . S
H881 C896 0.960 . S
H882 C896 0.960 . S
H883 C896 0.960 . S
C884 H876 0.929 . S
C884 C885 1.377 . S
C884 C886 1.384 . S
C885 C884 1.377 . S
C885 C891 1.390 . S
C886 H877 0.930 . S
C886 C884 1.384 . S
C886 C887 1.372 . S
C887 C886 1.372 . S
C887 C888 1.400 . S
C887 C892 1.490 . S
C888 H878 0.930 . S
C888 C887 1.400 . S
C888 C891 1.386 . S
H889 C905 0.930 . S
H890 C906 0.931 . S
C891 H879 0.929 . S
C891 C885 1.390 . S
C891 C888 1.386 . S
C892 C887 1.490 . S
C892 C894 1.395 . S
C892 C895 1.403 . S
H893 C899 0.930 . S
C894 H880 0.930 . S
C894 C892 1.395 . S
C894 C897 1.403 . S
C895 C892 1.403 . S
C895 C896 1.524 . S
C895 C899 1.400 . S
C896 H881 0.960 . S
C896 H882 0.960 . S
C896 H883 0.960 . S
C896 C895 1.524 . S
C897 C894 1.403 . S
C897 C898 1.392 . S
C897 C901 1.495 . S
C898 C897 1.392 . S
C898 C899 1.385 . S
C898 C900 1.478 . S
C899 H893 0.930 . S
C899 C895 1.400 . S
C899 C898 1.385 . S
C900 C898 1.478 . S
C900 C902 1.381 . S
C900 C906 1.383 . S
C901 C897 1.495 . S
C901 H907 0.959 . S
C901 H908 0.961 . S
C901 H909 0.960 . S
C902 C900 1.381 . S
C902 C903 1.394 . S
C902 H910 0.930 . S
C903 C902 1.394 . S
C903 C904 1.383 . S
C903 H911 0.929 . S
C904 C903 1.383 . S
C904 C905 1.377 . S
C905 H889 0.930 . S
C905 C904 1.377 . S
C905 C906 1.379 . S
C906 H890 0.931 . S
C906 C900 1.383 . S
C906 C905 1.379 . S
H907 C901 0.959 . S
H908 C901 0.961 . S
H909 C901 0.960 . S
H910 C902 0.930 . S
H911 C903 0.929 . S
H912 C920 0.929 . S
H913 C922 0.930 . S
H914 C924 0.930 . S
H915 C927 0.929 . S
H916 C930 0.930 . S
H917 C932 0.960 . S
H918 C932 0.960 . S
H919 C932 0.960 . S
C920 H912 0.929 . S
C920 C921 1.377 . S
C920 C922 1.384 . S
C921 C920 1.377 . S
C921 C927 1.390 . S
C922 H913 0.930 . S
C922 C920 1.384 . S
C922 C923 1.372 . S
C923 C922 1.372 . S
C923 C924 1.400 . S
C923 C928 1.490 . S
C924 H914 0.930 . S
C924 C923 1.400 . S
C924 C927 1.386 . S
H925 C941 0.930 . S
H926 C942 0.931 . S
C927 H915 0.929 . S
C927 C921 1.390 . S
C927 C924 1.386 . S
C928 C923 1.490 . S
C928 C930 1.395 . S
C928 C931 1.403 . S
H929 C935 0.930 1_655 S
C930 H916 0.930 . S
C930 C928 1.395 . S
C930 C933 1.403 . S
C931 C928 1.403 . S
C931 C932 1.524 1_455 S
C931 C935 1.400 . S
C932 H917 0.960 . S
C932 H918 0.960 . S
C932 H919 0.960 . S
C932 C931 1.524 1_655 S
C933 C930 1.403 . S
C933 C934 1.392 . S
C933 C937 1.495 . S
C934 C933 1.392 . S
C934 C935 1.385 . S
C934 C936 1.478 . S
C935 H929 0.930 1_455 S
C935 C931 1.400 . S
C935 C934 1.385 . S
C936 C934 1.478 . S
C936 C938 1.381 . S
C936 C942 1.383 . S
C937 C933 1.495 . S
C937 H943 0.959 . S
C937 H944 0.961 . S
C937 H945 0.960 . S
C938 C936 1.381 . S
C938 C939 1.394 1_554 S
C938 H946 0.930 . S
C939 C938 1.394 1_556 S
C939 C940 1.383 . S
C939 H947 0.929 . S
C940 C939 1.383 . S
C940 C941 1.377 . S
C941 H925 0.930 . S
C941 C940 1.377 . S
C941 C942 1.379 1_556 S
C942 H926 0.931 . S
C942 C936 1.383 . S
C942 C941 1.379 1_554 S
H943 C937 0.959 . S
H944 C937 0.961 . S
H945 C937 0.960 . S
H946 C938 0.930 . S
H947 C939 0.929 . S
H948 C956 0.929 . S
H949 C958 0.930 . S
H950 C960 0.930 . S
H951 C963 0.929 . S
H952 C966 0.930 . S
H953 C968 0.960 . S
H954 C968 0.960 . S
H955 C968 0.960 . S
C956 H948 0.929 . S
C956 C957 1.377 . S
C956 C958 1.384 . S
C957 C956 1.377 . S
C957 C963 1.390 . S
C958 H949 0.930 . S
C958 C956 1.384 . S
C958 C959 1.372 . S
C959 C958 1.372 . S
C959 C960 1.400 . S
C959 C964 1.490 . S
C960 H950 0.930 . S
C960 C959 1.400 . S
C960 C963 1.386 . S
H961 C977 0.930 . S
H962 C978 0.931 . S
C963 H951 0.929 . S
C963 C957 1.390 . S
C963 C960 1.386 . S
C964 C959 1.490 . S
C964 C966 1.395 . S
C964 C967 1.403 1_545 S
H965 C971 0.930 . S
C966 H952 0.930 . S
C966 C964 1.395 . S
C966 C969 1.403 . S
C967 C964 1.403 1_565 S
C967 C968 1.524 . S
C967 C971 1.400 . S
C968 H953 0.960 . S
C968 H954 0.960 . S
C968 H955 0.960 . S
C968 C967 1.524 . S
C969 C966 1.403 . S
C969 C970 1.392 . S
C969 C973 1.495 . S
C970 C969 1.392 . S
C970 C971 1.385 1_545 S
C970 C972 1.478 . S
C971 H965 0.930 . S
C971 C967 1.400 . S
C971 C970 1.385 1_565 S
C972 C970 1.478 . S
C972 C974 1.381 . S
C972 C978 1.383 . S
C973 C969 1.495 . S
C973 H979 0.959 . S
C973 H980 0.961 . S
C973 H981 0.960 . S
C974 C972 1.381 . S
C974 C975 1.394 . S
C974 H982 0.930 . S
C975 C974 1.394 . S
C975 C976 1.383 . S
C975 H983 0.929 . S
C976 C975 1.383 . S
C976 C977 1.377 . S
C977 H961 0.930 . S
C977 C976 1.377 . S
C977 C978 1.379 . S
C978 H962 0.931 . S
C978 C972 1.383 . S
C978 C977 1.379 . S
H979 C973 0.959 . S
H980 C973 0.961 . S
H981 C973 0.960 . S
H982 C974 0.930 . S
H983 C975 0.929 . S
H984 C992 0.929 . S
H985 C994 0.930 . S
H986 C996 0.930 . S
H987 C999 0.929 . S
H988 C1002 0.930 . S
H989 C1004 0.960 . S
H990 C1004 0.960 . S
H991 C1004 0.960 . S
C992 H984 0.929 . S
C992 C993 1.377 . S
C992 C994 1.384 . S
C993 C992 1.377 . S
C993 C999 1.390 . S
C994 H985 0.930 . S
C994 C992 1.384 . S
C994 C995 1.372 . S
C995 C994 1.372 . S
C995 C996 1.400 . S
C995 C1000 1.490 . S
C996 H986 0.930 . S
C996 C995 1.400 . S
C996 C999 1.386 . S
H997 C1013 0.930 . S
H998 C1014 0.931 . S
C999 H987 0.929 . S
C999 C993 1.390 . S
C999 C996 1.386 . S
C1000 C995 1.490 . S
C1000 C1002 1.395 . S
C1000 C1003 1.403 . S
H1001 C1007 0.930 . S
C1002 H988 0.930 . S
C1002 C1000 1.395 . S
C1002 C1005 1.403 . S
C1003 C1000 1.403 . S
C1003 C1004 1.524 . S
C1003 C1007 1.400 . S
C1004 H989 0.960 . S
C1004 H990 0.960 . S
C1004 H991 0.960 . S
C1004 C1003 1.524 . S
C1005 C1002 1.403 . S
C1005 C1006 1.392 . S
C1005 C1009 1.495 . S
C1006 C1005 1.392 . S
C1006 C1007 1.385 . S
C1006 C1008 1.478 . S
C1007 H1001 0.930 . S
C1007 C1003 1.400 . S
C1007 C1006 1.385 . S
C1008 C1006 1.478 . S
C1008 C1010 1.381 . S
C1008 C1014 1.383 . S
C1009 C1005 1.495 . S
C1009 H1015 0.959 . S
C1009 H1016 0.961 . S
C1009 H1017 0.960 . S
C1010 C1008 1.381 . S
C1010 C1011 1.394 . S
C1010 H1018 0.930 . S
C1011 C1010 1.394 . S
C1011 C1012 1.383 . S
C1011 H1019 0.929 . S
C1012 C1011 1.383 . S
C1012 C1013 1.377 . S
C1013 H997 0.930 . S
C1013 C1012 1.377 . S
C1013 C1014 1.379 . S
C1014 H998 0.931 . S
C1014 C1008 1.383 . S
C1014 C1013 1.379 . S
H1015 C1009 0.959 . S
H1016 C1009 0.961 . S
H1017 C1009 0.960 . S
H1018 C1010 0.930 . S
H1019 C1011 0.929 . S
H1020 C1028 0.929 . S
H1021 C1030 0.930 . S
H1022 C1032 0.930 . S
H1023 C1035 0.929 . S
H1024 C1038 0.930 . S
H1025 C1040 0.960 . S
H1026 C1040 0.960 . S
H1027 C1040 0.960 . S
C1028 H1020 0.929 . S
C1028 C1029 1.377 1_565 S
C1028 C1030 1.384 . S
C1029 C1028 1.377 1_545 S
C1029 C1035 1.390 . S
C1030 H1021 0.930 . S
C1030 C1028 1.384 . S
C1030 C1031 1.372 1_565 S
C1031 C1030 1.372 1_545 S
C1031 C1032 1.400 . S
C1031 C1036 1.492 . S
C1032 H1022 0.930 . S
C1032 C1031 1.400 . S
C1032 C1035 1.386 . S
H1033 C1049 0.930 . S
H1034 C1050 0.931 . S
C1035 H1023 0.929 . S
C1035 C1029 1.390 . S
C1035 C1032 1.386 . S
C1036 C1031 1.492 . S
C1036 C1038 1.374 1_545 S
C1036 C1039 1.421 . S
H1037 C1043 0.930 . S
C1038 H1024 0.930 . S
C1038 C1036 1.374 1_565 S
C1038 C1041 1.403 . S
C1039 C1036 1.421 . S
C1039 C1040 1.524 . S
C1039 C1043 1.400 . S
C1040 H1025 0.960 . S
C1040 H1026 0.960 . S
C1040 H1027 0.960 . S
C1040 C1039 1.524 . S
C1041 C1038 1.403 . S
C1041 C1042 1.392 . S
C1041 C1045 1.495 . S
C1042 C1041 1.392 . S
C1042 C1043 1.385 1_565 S
C1042 C1044 1.478 . S
C1043 H1037 0.930 . S
C1043 C1039 1.400 . S
C1043 C1042 1.385 1_545 S
C1044 C1042 1.478 . S
C1044 C1046 1.381 . S
C1044 C1050 1.383 1_565 S
C1045 C1041 1.495 . S
C1045 H1051 0.959 . S
C1045 H1052 0.961 . S
C1045 H1053 0.960 . S
C1046 C1044 1.381 . S
C1046 C1047 1.394 . S
C1046 H1054 0.930 . S
C1047 C1046 1.394 . S
C1047 C1048 1.383 . S
C1047 H1055 0.929 . S
C1048 C1047 1.383 . S
C1048 C1049 1.377 1_565 S
C1049 H1033 0.930 . S
C1049 C1048 1.377 1_545 S
C1049 C1050 1.379 . S
C1050 H1034 0.931 . S
C1050 C1044 1.383 1_545 S
C1050 C1049 1.379 . S
H1051 C1045 0.959 . S
H1052 C1045 0.961 . S
H1053 C1045 0.960 . S
H1054 C1046 0.930 . S
H1055 C1047 0.929 . S
H1056 C1064 0.929 . S
H1057 C1066 0.930 . S
H1058 C1068 0.930 . S
H1059 C1071 0.929 . S
H1060 C1074 0.930 . S
H1061 C1076 0.960 . S
H1062 C1076 0.960 . S
H1063 C1076 0.960 . S
C1064 H1056 0.929 . S
C1064 C1065 1.377 . S
C1064 C1066 1.384 . S
C1065 C1064 1.377 . S
C1065 C1071 1.390 . S
C1066 H1057 0.930 . S
C1066 C1064 1.384 . S
C1066 C1067 1.372 . S
C1067 C1066 1.372 . S
C1067 C1068 1.400 . S
C1067 C1072 1.490 . S
C1068 H1058 0.930 . S
C1068 C1067 1.400 . S
C1068 C1071 1.386 . S
H1069 C1085 0.930 . S
H1070 C1086 0.931 . S
C1071 H1059 0.929 . S
C1071 C1065 1.390 . S
C1071 C1068 1.386 . S
C1072 C1067 1.490 . S
C1072 C1074 1.395 . S
C1072 C1075 1.403 . S
H1073 C1079 0.930 . S
C1074 H1060 0.930 . S
C1074 C1072 1.395 . S
C1074 C1077 1.403 . S
C1075 C1072 1.403 . S
C1075 C1076 1.524 . S
C1075 C1079 1.400 . S
C1076 H1061 0.960 . S
C1076 H1062 0.960 . S
C1076 H1063 0.960 . S
C1076 C1075 1.524 . S
C1077 C1074 1.403 . S
C1077 C1078 1.392 . S
C1077 C1081 1.495 . S
C1078 C1077 1.392 . S
C1078 C1079 1.385 . S
C1078 C1080 1.478 . S
C1079 H1073 0.930 . S
C1079 C1075 1.400 . S
C1079 C1078 1.385 . S
C1080 C1078 1.478 . S
C1080 C1082 1.381 . S
C1080 C1086 1.383 . S
C1081 C1077 1.495 . S
C1081 H1087 0.959 . S
C1081 H1088 0.961 . S
C1081 H1089 0.960 . S
C1082 C1080 1.381 . S
C1082 C1083 1.394 1_556 S
C1082 H1090 0.930 . S
C1083 C1082 1.394 1_554 S
C1083 C1084 1.383 . S
C1083 H1091 0.929 . S
C1084 C1083 1.383 . S
C1084 C1085 1.377 . S
C1085 H1069 0.930 . S
C1085 C1084 1.377 . S
C1085 C1086 1.379 1_554 S
C1086 H1070 0.931 . S
C1086 C1080 1.383 . S
C1086 C1085 1.379 1_556 S
H1087 C1081 0.959 . S
H1088 C1081 0.961 . S
H1089 C1081 0.960 . S
H1090 C1082 0.930 . S
H1091 C1083 0.929 . S
H1092 C1100 0.929 . S
H1093 C1102 0.930 . S
H1094 C1104 0.930 . S
H1095 C1107 0.929 . S
H1096 C1110 0.930 . S
H1097 C1112 0.960 . S
H1098 C1112 0.960 . S
H1099 C1112 0.963 . S
C1100 H1092 0.929 . S
C1100 C1101 1.377 . S
C1100 C1102 1.384 . S
C1101 C1100 1.377 . S
C1101 C1107 1.390 1_455 S
C1102 H1093 0.930 . S
C1102 C1100 1.384 . S
C1102 C1103 1.372 . S
C1103 C1102 1.372 . S
C1103 C1104 1.400 1_455 S
C1103 C1108 1.490 . S
C1104 H1094 0.930 . S
C1104 C1103 1.400 1_655 S
C1104 C1107 1.386 . S
H1105 C1121 0.930 . S
H1106 C1122 0.931 . S
C1107 H1095 0.929 . S
C1107 C1101 1.390 1_655 S
C1107 C1104 1.386 . S
C1108 C1103 1.490 . S
C1108 C1110 1.395 . S
C1108 C1111 1.403 . S
H1109 C1115 0.930 . S
C1110 H1096 0.930 . S
C1110 C1108 1.395 . S
C1110 C1113 1.403 . S
C1111 C1108 1.403 . S
C1111 C1112 1.524 . S
C1111 C1115 1.400 . S
C1112 H1097 0.960 . S
C1112 H1098 0.960 . S
C1112 H1099 0.963 . S
C1112 C1111 1.524 . S
C1113 C1110 1.403 . S
C1113 C1114 1.392 . S
C1113 C1117 1.495 1_455 S
C1114 C1113 1.392 . S
C1114 C1115 1.385 . S
C1114 C1116 1.478 . S
C1115 H1109 0.930 . S
C1115 C1111 1.400 . S
C1115 C1114 1.385 . S
C1116 C1114 1.478 . S
C1116 C1118 1.381 . S
C1116 C1122 1.383 1_455 S
C1117 C1113 1.495 1_655 S
C1117 H1123 0.959 . S
C1117 H1124 0.961 . S
C1117 H1125 0.960 1_655 S
C1118 C1116 1.381 . S
C1118 C1119 1.394 . S
C1118 H1126 0.930 . S
C1119 C1118 1.394 . S
C1119 C1120 1.383 1_455 S
C1119 H1127 0.929 . S
C1120 C1119 1.383 1_655 S
C1120 C1121 1.377 . S
C1121 H1105 0.930 . S
C1121 C1120 1.377 . S
C1121 C1122 1.379 . S
C1122 H1106 0.931 . S
C1122 C1116 1.383 1_655 S
C1122 C1121 1.379 . S
H1123 C1117 0.959 . S
H1124 C1117 0.961 . S
H1125 C1117 0.960 1_455 S
H1126 C1118 0.930 . S
H1127 C1119 0.929 . S
C489 C6 0.429 . S
C508 C451 0.357 . S
C525 C59 1.844 . S
C544 C301 1.702 . S
C561 C86 1.144 . S
C580 C361 1.094 . S
C597 C15 0.326 . S
C616 C421 0.501 . S
C652 C331 1.960 . S
C633 C50 1.941 . S
C688 C391 1.267 . S
C669 C95 1.249 . S
C705 C46 1.138 . S
C724 C181 1.073 . S
C741 C99 3.057 . S
C760 C271 3.055 . S
C777 C10 1.968 . S
C796 C151 1.991 . S
C832 C211 1.249 . S
C813 C55 1.225 . S
C868 C241 2.818 . S
C849 C90 2.925 . S
C885 C19 1.833 . S
C904 C121 1.700 . S
C940 C260 1.740 . S
C921 C18 1.689 . S
C957 C49 1.330 . S
C976 C140 1.356 . S
C993 C98 1.454 . S
C1012 C200 1.462 . S
C1048 C380 1.473 1_565 S
C1029 C58 1.433 . S
C1084 C440 1.098 . S
C1065 C89 1.083 . S
C1101 C9 1.320 . S
C1120 C320 1.327 1_655 S
