# Generated by pormake.
# Topology sit, (3,6)-cn, num edge types: 1
# Building blocks:
#     Node 0, Type 0, BuildingBlock: QEWDON_clean_linker_0, # of connection points: 3
#     Node 1, Type 0, BuildingBlock: QEWDON_clean_linker_0, # of connection points: 3
#     Node 2, Type 0, BuildingBlock: QEWDON_clean_linker_0, # of connection points: 3
#     Node 3, Type 0, BuildingBlock: QEWDON_clean_linker_0, # of connection points: 3
#     Node 4, Type 1, BuildingBlock: MIDCAF_clean_sbu_0, # of connection points: 6
#     Node 5, Type 1, BuildingBlock: MIDCAF_clean_sbu_0, # of connection points: 6
#     Edge 6, Type (0, 1), BuildingBlock: KIFKEQ_clean_linker_1, # of connection points: 2
#     Edge 7, Type (0, 1), BuildingBlock: KIFKEQ_clean_linker_1, # of connection points: 2
#     Edge 8, Type (0, 1), BuildingBlock: KIFKEQ_clean_linker_1, # of connection points: 2
#     Edge 9, Type (0, 1), BuildingBlock: KIFKEQ_clean_linker_1, # of connection points: 2
#     Edge 10, Type (0, 1), BuildingBlock: KIFKEQ_clean_linker_1, # of connection points: 2
#     Edge 11, Type (0, 1), BuildingBlock: KIFKEQ_clean_linker_1, # of connection points: 2
#     Edge 12, Type (0, 1), BuildingBlock: KIFKEQ_clean_linker_1, # of connection points: 2
#     Edge 13, Type (0, 1), BuildingBlock: KIFKEQ_clean_linker_1, # of connection points: 2
#     Edge 14, Type (0, 1), BuildingBlock: KIFKEQ_clean_linker_1, # of connection points: 2
#     Edge 15, Type (0, 1), BuildingBlock: KIFKEQ_clean_linker_1, # of connection points: 2
#     Edge 16, Type (0, 1), BuildingBlock: KIFKEQ_clean_linker_1, # of connection points: 2
#     Edge 17, Type (0, 1), BuildingBlock: KIFKEQ_clean_linker_1, # of connection points: 2
# Relax obj value: 0.077
# Max RMSD: 0.184
# Mean RMSD: 0.150
data_MOF--net-sit--node1-MIDCAF_clean_sbu_0--node2-QEWDON_clean_linker_0--edge1-KIFKEQ_clean_linker_1
_symmetry_space_group_name_H-M    P1
_symmetry_Int_Tables_number       1
_symmetry_cell_setting            triclinic
loop_
_symmetry_equiv_pos_as_xyz
'x, y, z'
_cell_length_a     22.21056
_cell_length_b     33.287227
_cell_length_c     40.084992
_cell_angle_alpha  90.089972
_cell_angle_beta   84.634269
_cell_angle_gamma 81.276531
loop_
_atom_site_label
_atom_site_type_symbol
_atom_site_fract_x
_atom_site_fract_y
_atom_site_fract_z
_atom_type_partial_charge
H0 H 0.16085 0.3325 0.02084 0.0
C1 C 0.11814 0.35179 0.01718 0.0
C2 C 0.11804 0.39277 0.00847 0.0
C3 C 0.06376 0.33485 0.01879 0.0
H4 H 0.06229 0.44761 0.99387 0.0
C5 C 0.06264 0.41662 1.00224 0.0
C6 C 0.00845 0.39987 1.00323 0.0
C7 C 0.00893 0.35909 0.01209 0.0
C8 C 0.06577 0.29052 0.02159 0.0
H9 H -0.03229 0.34543 0.01144 0.0
C10 C 0.06142 0.27202 0.053 0.0
C11 C 0.05961 0.22984 0.05532 0.0
C12 C 0.06973 0.2668 0.99233 0.0
H13 H 0.07298 0.2807 0.96793 0.0
C14 C 0.06889 0.22508 0.99434 0.0
H15 H 0.05913 0.29062 0.07542 0.0
C16 C 0.06347 0.2067 0.02552 0.0
H17 H 0.06092 0.17449 0.02619 0.0
H18 H 0.07153 0.20699 0.97164 0.0
H19 H 0.05387 0.74796 0.07677 0.0
C20 C 0.02277 0.73649 0.06118 0.0
C21 C 0.04564 0.70564 0.03716 0.0
C22 C -0.04048 0.75155 0.06549 0.0
H23 H 0.02282 0.66677 0.99875 0.0
C24 C 0.00525 0.69037 0.01734 0.0
C25 C 0.94289 0.70582 0.0205 0.0
C26 C 0.92048 0.73646 0.04442 0.0
C27 C 0.93267 0.78254 0.09186 0.0
H28 H 0.8724 0.74922 0.04611 0.0
C29 C -0.03746 0.8154 0.09976 0.0
C30 C 0.93359 0.84575 0.12301 0.0
C31 C 0.87481 0.77985 0.10871 0.0
H32 H 0.85132 0.75441 0.10423 0.0
C33 C 0.84627 0.80985 0.13161 0.0
H34 H 0.00725 0.81804 0.08739 0.0
C35 C 0.87513 0.84277 0.13854 0.0
H36 H 0.85245 0.86541 0.15685 0.0
H37 H 0.80169 0.80744 0.14418 0.0
H38 H 0.64437 0.8451 0.53021 0.0
C39 C 0.60579 0.86791 0.52574 0.0
C40 C 0.61477 0.90816 0.51875 0.0
C41 C 0.54778 0.85634 0.52449 0.0
H42 H 0.57079 0.96777 0.50617 0.0
C43 C 0.56426 0.93694 0.51226 0.0
C44 C 0.50646 0.92566 0.51017 0.0
C45 C 0.49844 0.88527 0.51668 0.0
C46 C 0.53999 0.81308 0.5268 0.0
H47 H 0.45466 0.87565 0.51388 0.0
C48 C 0.5447 0.79224 0.55712 0.0
C49 C 0.53303 0.75172 0.55959 0.0
C50 C 0.52544 0.79296 0.49854 0.0
H51 H 0.52166 0.80856 0.47495 0.0
C52 C 0.51551 0.75264 0.5005 0.0
H53 H 0.5562 0.80792 0.57881 0.0
C54 C 0.51884 0.73218 0.53079 0.0
H55 H 0.50852 0.70142 0.53179 0.0
H56 H 0.5041 0.73738 0.47861 0.0
H57 H 0.54968 0.24232 0.58172 0.0
C58 C 0.51669 0.23163 0.56695 0.0
C59 C 0.53625 0.1999 0.54323 0.0
C60 C 0.45448 0.24908 0.57171 0.0
H61 H 0.50841 0.16221 0.50545 0.0
C62 C 0.49341 0.18608 0.52415 0.0
C63 C 0.43193 0.20385 0.52785 0.0
C64 C 0.4129 0.23521 0.55161 0.0
C65 C 0.4315 0.28191 0.59717 0.0
H66 H 0.36562 0.24981 0.55367 0.0
C67 C 0.46456 0.314 0.60272 0.0
C68 C 0.43883 0.3464 0.62482 0.0
C69 C 0.37386 0.28207 0.61522 0.0
H70 H 0.34796 0.25741 0.6124 0.0
C71 C 0.34862 0.31404 0.63708 0.0
H72 H 0.50913 0.31448 0.58933 0.0
C73 C 0.38054 0.34618 0.64166 0.0
H74 H 0.36031 0.37049 0.6591 0.0
H75 H 0.30414 0.31383 0.65061 0.0
Zn76 Zn 0.00262 0.15134 0.354 0.0
Zn77 Zn 0.0819 0.99405 0.35114 0.0
Zn78 Zn 0.03738 0.07202 0.35545 0.0
C79 C 0.06054 1.01492 0.28698 0.0
C80 C -0.02918 1.0052 0.39416 0.0
O81 O 0.10801 0.10213 0.37607 0.0
O82 O 0.07332 0.168 0.37434 0.0
C83 C 0.01072 0.12563 0.28851 0.0
O84 O 0.04082 1.04906 0.30255 0.0
O85 O 0.08344 0.98448 0.3027 0.0
O86 O 0.01404 0.97849 0.38213 0.0
O87 O -0.02978 1.04288 0.38665 0.0
O88 O -0.00457 0.15792 0.30572 0.0
O89 O 0.02775 0.09161 0.30276 0.0
O90 O -0.04893 0.08577 0.38937 0.0
O91 O 0.92705 0.15224 0.38352 0.0
C92 C 0.91543 0.11956 0.39672 0.0
O93 O 0.12608 0.05983 0.37801 0.0
O94 O 0.16043 0.99428 0.36932 0.0
C95 C 0.11382 0.13941 0.38172 0.0
C96 C 0.16683 1.02837 0.38099 0.0
Zn97 Zn 0.52514 0.6479 0.85353 0.0
Zn98 Zn 0.56064 0.49646 0.84352 0.0
Zn99 Zn 0.54087 0.57058 0.85082 0.0
C100 C 0.57016 0.51965 0.78017 0.0
C101 C 0.44641 0.51244 0.87682 0.0
O102 O 0.61866 0.5903 0.87326 0.0
O103 O 0.60884 0.65596 0.86228 0.0
C104 C 0.51169 0.63052 0.78856 0.0
O105 O 0.54493 0.55234 0.79647 0.0
O106 O 0.59183 0.48896 0.79598 0.0
O107 O 0.47678 0.48544 0.85727 0.0
O108 O 0.46481 0.54702 0.87981 0.0
O109 O 0.49809 0.66034 0.80871 0.0
O110 O 0.53196 0.59501 0.79937 0.0
O111 O 0.4572 0.58952 0.88552 0.0
O112 O 0.46329 0.65458 0.89272 0.0
C113 C 0.43804 0.62399 0.90055 0.0
O114 O 0.62667 0.54747 0.87401 0.0
O115 O 0.61944 0.48212 0.87662 0.0
C116 C 0.63843 0.62471 0.87411 0.0
C117 C 0.64563 0.51142 0.88418 0.0
H118 H 0.10888 0.15299 0.07381 0.0
H119 H -0.0087 0.26185 0.11236 0.0
H120 H 0.09091 0.12008 0.12719 0.0
H121 H -0.0222 0.2304 0.1663 0.0
H122 H 0.92054 0.16313 0.25385 0.0
H123 H 0.92904 0.1826 0.19533 0.0
H124 H 0.11439 0.11817 0.18307 0.0
H125 H 0.10359 0.09653 0.24131 0.0
C126 C 0.07923 0.17001 0.09361 0.0
C127 C 0.05143 0.21019 0.08853 0.0
C128 C 0.06955 0.15121 0.12445 0.0
C129 C 0.03242 0.17227 0.15119 0.0
C130 C 0.00544 0.21264 0.14619 0.0
C131 C 0.01432 0.23116 0.11528 0.0
C132 C -0.03766 0.15218 0.23823 0.0
C133 C 0.01152 0.1286 0.2519 0.0
C134 C -0.0323 0.16381 0.20483 0.0
C135 C 0.02318 0.15323 0.1846 0.0
C136 C 0.07093 0.127 0.19775 0.0
C137 C 0.0649 0.1145 0.23111 0.0
H138 H 0.04368 0.83964 0.14826 0.0
H139 H 0.89209 0.92718 0.12253 0.0
H140 H 0.08198 0.89194 0.17875 0.0
H141 H 0.93185 0.98069 0.15151 0.0
H142 H 0.14507 0.9814 0.23778 0.0
H143 H 0.12375 0.95012 0.18603 0.0
H144 H 0.93181 0.99862 0.20727 0.0
H145 H -0.04528 1.03216 0.25751 0.0
C146 C 0.02002 0.87059 0.148 0.0
C147 C -0.03524 0.87935 0.13341 0.0
C148 C 0.04202 0.90088 0.16542 0.0
C149 C 0.00965 0.94085 0.1682 0.0
C150 C -0.04277 0.9502 0.15078 0.0
C151 C 0.93469 0.91968 0.13388 0.0
C152 C 0.09885 0.98675 0.2304 0.0
C153 C 0.05135 1.00874 0.25159 0.0
C154 C 0.08633 0.96833 0.20103 0.0
C155 C 0.02565 0.97031 0.19291 0.0
C156 C -0.02082 0.99615 0.21242 0.0
C157 C -0.00788 1.01552 0.24136 0.0
H158 H 0.49097 0.78446 0.62162 0.0
H159 H 0.5714 0.67093 0.57204 0.0
H160 H 0.48435 0.75007 0.67473 0.0
H161 H 0.56077 0.63583 0.62514 0.0
H162 H 0.59351 0.60027 0.73596 0.0
H163 H 0.59893 0.6268 0.67901 0.0
H164 H 0.42652 0.7052 0.70364 0.0
H165 H 0.42298 0.67996 0.76058 0.0
C166 C 0.50756 0.75217 0.62199 0.0
C167 C 0.53176 0.73061 0.59238 0.0
C168 C 0.5026 0.73218 0.65247 0.0
C169 C 0.52092 0.68991 0.65424 0.0
C170 C 0.5462 0.66836 0.62477 0.0
C171 C 0.55171 0.68849 0.59423 0.0
C172 C 0.55616 0.62239 0.72877 0.0
C173 C 0.50807 0.63835 0.75258 0.0
C174 C 0.55926 0.63774 0.6962 0.0
C175 C 0.51396 0.66901 0.68693 0.0
C176 C 0.46334 0.68224 0.71017 0.0
C177 C 0.46082 0.66742 0.74269 0.0
H178 H 0.54889 0.33952 0.65015 0.0
H179 H 0.40385 0.42791 0.61835 0.0
H180 H 0.59078 0.39298 0.67717 0.0
H181 H 0.44737 0.48239 0.64368 0.0
H182 H 0.65682 0.48332 0.73289 0.0
H183 H 0.6364 0.45009 0.68184 0.0
H184 H 0.4463 0.50492 0.69822 0.0
H185 H 0.46845 0.54014 0.74766 0.0
C186 C 0.52758 0.37076 0.64775 0.0
C187 C 0.47297 0.37962 0.63254 0.0
C188 C 0.55166 0.40171 0.66315 0.0
C189 C 0.52205 0.44239 0.66325 0.0
C190 C 0.47061 0.45149 0.64502 0.0
C191 C 0.44593 0.42037 0.63019 0.0
C192 C 0.61143 0.48974 0.72447 0.0
C193 C 0.56399 0.5138 0.7443 0.0
C194 C 0.59935 0.47016 0.69552 0.0
C195 C 0.5391 0.47319 0.68647 0.0
C196 C 0.49332 0.50144 0.70416 0.0
C197 C 0.50589 0.52188 0.73265 0.0
H198 H 0.22047 0.35441 0.97217 0.0
H199 H 0.14505 0.46853 0.02221 0.0
H200 H 0.30201 0.38626 0.94377 0.0
H201 H 0.22569 0.50091 0.9925 0.0
H202 H 0.41264 0.53365 0.94255 0.0
H203 H 0.33815 0.50453 0.98062 0.0
H204 H 0.29214 0.43538 0.89786 0.0
H205 H 0.36598 0.46437 0.8602 0.0
C206 C 0.2223 0.38597 0.97796 0.0
C207 C 0.17579 0.40907 0.99912 0.0
C208 C 0.26847 0.40442 0.96121 0.0
C209 C 0.26898 0.44633 0.96514 0.0
C210 C 0.22608 0.46863 0.98876 0.0
C211 C 0.1799 0.45011 0.00567 0.0
C212 C 0.38522 0.51308 0.93249 0.0
C213 C 0.39441 0.50147 0.89847 0.0
C214 C 0.34317 0.49614 0.95428 0.0
C215 C 0.31052 0.46695 0.94233 0.0
C216 C 0.31793 0.45692 0.90798 0.0
C217 C 0.35959 0.47385 0.88634 0.0
H218 H 0.82821 0.68756 0.03756 0.0
H219 H -0.03579 0.68903 0.95328 0.0
H220 H 0.75933 0.66366 1.00075 0.0
H221 H 0.8966 0.66321 0.91682 0.0
H222 H 0.72541 0.6723 0.85796 0.0
H223 H 0.80256 0.6888 0.89309 0.0
H224 H 0.74477 0.60554 0.96786 0.0
H225 H 0.66581 0.59068 0.93324 0.0
C226 C 0.84343 0.68264 0.0112 0.0
C227 C 0.90151 0.69032 0.99832 0.0
C228 C 0.80437 0.66836 0.9902 0.0
C229 C 0.82264 0.66138 0.95588 0.0
C230 C 0.88102 0.6686 0.94309 0.0
C231 C 0.91996 0.68301 0.96405 0.0
C232 C 0.73009 0.65711 0.88167 0.0
C233 C 0.69081 0.62962 0.89268 0.0
C234 C 0.77435 0.66636 0.90172 0.0
C235 C 0.77974 0.64849 0.93329 0.0
C236 C 0.74132 0.62013 0.94384 0.0
C237 C 0.69684 0.6111 0.92383 0.0
H238 H 0.89087 0.41558 0.03253 0.0
H239 H 0.00487 0.4358 0.94285 0.0
H240 H 0.8014 0.45125 0.0079 0.0
H241 H 0.91602 0.46944 0.91748 0.0
H242 H 0.75248 0.54376 0.88077 0.0
H243 H 0.83837 0.52496 0.91459 0.0
H244 H 0.73973 0.43754 0.96673 0.0
H245 H 0.65324 0.45872 0.93493 0.0
C246 C 0.89656 0.42776 0.00758 0.0
C247 C -0.04559 0.42309 0.98957 0.0
C248 C 0.84551 0.44804 0.99336 0.0
C249 C 0.85125 0.46315 0.96054 0.0
C250 C 0.90972 0.45909 0.94298 0.0
C251 C -0.03932 0.43949 0.95741 0.0
C252 C 0.74881 0.52156 0.90028 0.0
C253 C 0.69613 0.50315 0.90567 0.0
C254 C 0.79821 0.51026 0.91932 0.0
C255 C 0.79627 0.47955 0.94344 0.0
C256 C 0.74275 0.46183 0.94903 0.0
C257 C 0.69333 0.47359 0.93045 0.0
H258 H 0.10183 0.62688 0.03278 0.0
H259 H 0.13765 0.7504 0.02357 0.0
H260 H 0.20354 0.60206 0.00528 0.0
H261 H 0.23918 0.72581 0.99591 0.0
H262 H 0.42844 0.67103 0.95632 0.0
H263 H 0.34061 0.68697 0.99791 0.0
H264 H 0.2445 0.60575 0.94644 0.0
H265 H 0.33285 0.5899 0.90476 0.0
C266 C 0.13226 0.64861 0.02567 0.0
C267 C 0.11185 0.69058 0.03001 0.0
C268 C 0.19018 0.63444 0.00967 0.0
C269 C 0.22896 0.66196 0.99782 0.0
C270 C 0.21053 0.70375 0.00485 0.0
C271 C 0.15248 0.71792 0.02085 0.0
C272 C 0.38875 0.65618 0.95419 0.0
C273 C 0.38738 0.62905 0.92747 0.0
C274 C 0.33848 0.66538 0.97797 0.0
C275 C 0.28546 0.64784 0.97545 0.0
C276 C 0.285 0.61938 0.9494 0.0
C277 C 0.3355 0.6102 0.92554 0.0
H278 H 0.65492 0.97935 0.53463 0.0
H279 H 0.71511 0.86259 0.48537 0.0
H280 H 0.74559 1.00429 0.50827 0.0
H281 H 0.80657 0.88707 0.46044 0.0
H282 H 0.85035 1.03933 0.40541 0.0
H283 H 0.77135 1.01604 0.44416 0.0
H284 H 0.90328 0.91617 0.47276 0.0
H285 H -0.01739 0.94041 0.43524 0.0
C286 C 0.68817 0.95867 0.51892 0.0
C287 C 0.67711 0.91916 0.51167 0.0
C288 C 0.7399 0.97302 0.50384 0.0
C289 C 0.78234 0.94777 0.48195 0.0
C290 C 0.77449 0.90714 0.47728 0.0
C291 C 0.72224 0.893 0.49186 0.0
C292 C 0.86275 1.0132 0.42076 0.0
C293 C 0.92273 0.9922 0.41781 0.0
C294 C 0.81763 0.99976 0.44279 0.0
C295 C 0.83152 0.96447 0.46159 0.0
C296 C 0.89148 0.94346 0.45859 0.0
C297 C 0.93668 0.95727 0.43702 0.0
H298 H 0.44899 0.18924 0.46018 0.0
H299 H 0.31562 0.18952 0.54588 0.0
H300 H 0.37443 0.17209 0.42358 0.0
H301 H 0.24116 0.17234 0.50932 0.0
H302 H 0.10442 0.19489 0.4317 0.0
H303 H 0.18356 0.20835 0.46648 0.0
H304 H 0.3144 0.11851 0.40962 0.0
H305 H 0.23499 0.10642 0.37378 0.0
C306 C 0.40403 0.18504 0.47125 0.0
C307 C 0.38796 0.19098 0.50588 0.0
C308 C 0.36139 0.17522 0.45028 0.0
C309 C 0.30181 0.17126 0.46354 0.0
C310 C 0.28638 0.17601 0.49829 0.0
C311 C 0.32895 0.18583 0.51923 0.0
C312 C 0.15028 0.17835 0.42645 0.0
C313 C 0.16361 0.14902 0.4006 0.0
C314 C 0.19538 0.18566 0.4466 0.0
C315 C 0.25491 0.16395 0.4412 0.0
C316 C 0.26887 0.13565 0.41444 0.0
C317 C 0.22348 0.12835 0.39421 0.0
H318 H 0.51918 0.97762 0.45822 0.0
H319 H 0.38302 0.93799 0.5297 0.0
H320 H 0.43898 1.01751 0.42997 0.0
H321 H 0.3023 0.97684 0.50022 0.0
H322 H 0.16655 1.05801 0.44434 0.0
H323 H 0.25151 1.04526 0.48 0.0
H324 H 0.36895 0.98802 0.39568 0.0
H325 H 0.28455 1.00052 0.36065 0.0
C326 C 0.47221 0.97824 0.46854 0.0
C327 C 0.45751 0.95436 0.49621 0.0
C328 C 0.42625 1.00094 0.45211 0.0
C329 C 0.3645 1.00001 0.46271 0.0
C330 C 0.3496 0.97838 0.49166 0.0
C331 C 0.39574 0.95568 0.50824 0.0
C332 C 0.21122 1.04387 0.43343 0.0
C333 C 0.21961 1.0302 0.39994 0.0
C334 C 0.2595 1.03636 0.45377 0.0
C335 C 0.31665 1.01549 0.44063 0.0
C336 C 0.32572 1.0046 0.40644 0.0
C337 C 0.27748 1.01156 0.38638 0.0
H338 H 0.62933 0.24324 0.52881 0.0
H339 H 0.59009 0.12032 0.53681 0.0
H340 H 0.72792 0.21812 0.49785 0.0
H341 H 0.68901 0.09521 0.50566 0.0
H342 H 0.90265 0.08054 0.457 0.0
H343 H 0.81702 0.09625 0.50121 0.0
H344 H 0.72448 0.18385 0.43667 0.0
H345 H 0.80773 0.16738 0.39267 0.0
C346 C 0.64289 0.21075 0.52523 0.0
C347 C 0.60186 0.18378 0.53479 0.0
C348 C 0.69904 0.1964 0.50733 0.0
C349 C 0.71529 0.15486 0.49904 0.0
C350 C 0.67739 0.12734 0.51179 0.0
C351 C 0.62089 0.14174 0.52948 0.0
C352 C 0.86304 0.10221 0.4521 0.0
C353 C 0.86132 0.12248 0.42137 0.0
C354 C 0.81466 0.11151 0.47742 0.0
C355 C 0.7652 0.14194 0.47245 0.0
C356 C 0.7628 0.16092 0.44132 0.0
C357 C 0.81016 0.15124 0.41609 0.0
loop_
_geom_bond_atom_site_label_1
_geom_bond_atom_site_label_2
_geom_bond_distance
_geom_bond_site_symmetry_2
_ccdc_geom_bond_type
H0 C1 0.949 . S
C1 H0 0.949 . S
C1 C2 1.395 1_554 S
C1 C3 1.391 . S
C2 C1 1.395 1_556 S
C2 C5 1.390 . S
C3 C1 1.391 . S
C3 C7 1.387 . S
C3 C8 1.491 . S
H4 C5 0.950 . S
C5 C2 1.390 . S
C5 H4 0.950 . S
C5 C6 1.378 . S
C6 C5 1.378 . S
C6 C7 1.409 1_556 S
C7 C3 1.387 . S
C7 C6 1.409 1_554 S
C7 H9 0.951 . S
C8 C3 1.491 . S
C8 C10 1.382 . S
C8 C12 1.404 . S
H9 C7 0.951 . S
C10 C8 1.382 . S
C10 C11 1.390 . S
C10 H15 0.949 . S
C11 C10 1.390 . S
C11 C16 1.399 . S
C12 C8 1.404 . S
C12 H13 0.950 . S
C12 C14 1.375 . S
H13 C12 0.950 . S
C14 C12 1.375 . S
C14 C16 1.382 . S
C14 H18 0.950 . S
H15 C10 0.949 . S
C16 C11 1.399 . S
C16 C14 1.382 . S
C16 H17 0.952 . S
H17 C16 0.952 . S
H18 C14 0.950 . S
H19 C20 0.949 . S
C20 H19 0.949 . S
C20 C21 1.395 1_554 S
C20 C22 1.391 1_455 S
C21 C20 1.395 1_556 S
C21 C24 1.390 . S
C22 C20 1.391 1_655 S
C22 C26 1.387 . S
C22 C27 1.491 . S
H23 C24 0.950 . S
C24 C21 1.390 . S
C24 H23 0.950 . S
C24 C25 1.378 1_455 S
C25 C24 1.378 1_655 S
C25 C26 1.409 1_556 S
C26 C22 1.387 . S
C26 C25 1.409 1_554 S
C26 H28 0.951 . S
C27 C22 1.491 . S
C27 C29 1.382 1_655 S
C27 C31 1.404 . S
H28 C26 0.951 . S
C29 C27 1.382 1_455 S
C29 C30 1.390 1_455 S
C29 H34 0.949 . S
C30 C29 1.390 1_655 S
C30 C35 1.399 . S
C31 C27 1.404 . S
C31 H32 0.950 . S
C31 C33 1.375 . S
H32 C31 0.950 . S
C33 C31 1.375 . S
C33 C35 1.382 . S
C33 H37 0.950 . S
H34 C29 0.949 . S
C35 C30 1.399 . S
C35 C33 1.382 . S
C35 H36 0.952 . S
H36 C35 0.952 . S
H37 C33 0.950 . S
H38 C39 0.949 . S
C39 H38 0.949 . S
C39 C40 1.395 . S
C39 C41 1.391 . S
C40 C39 1.395 . S
C40 C43 1.390 . S
C41 C39 1.391 . S
C41 C45 1.387 . S
C41 C46 1.491 . S
H42 C43 0.950 . S
C43 C40 1.390 . S
C43 H42 0.950 . S
C43 C44 1.378 . S
C44 C43 1.378 . S
C44 C45 1.409 . S
C45 C41 1.387 . S
C45 C44 1.409 . S
C45 H47 0.951 . S
C46 C41 1.491 . S
C46 C48 1.382 . S
C46 C50 1.404 . S
H47 C45 0.951 . S
C48 C46 1.382 . S
C48 C49 1.390 . S
C48 H53 0.949 . S
C49 C48 1.390 . S
C49 C54 1.399 . S
C50 C46 1.404 . S
C50 H51 0.950 . S
C50 C52 1.375 . S
H51 C50 0.950 . S
C52 C50 1.375 . S
C52 C54 1.382 . S
C52 H56 0.950 . S
H53 C48 0.949 . S
C54 C49 1.399 . S
C54 C52 1.382 . S
C54 H55 0.952 . S
H55 C54 0.952 . S
H56 C52 0.950 . S
H57 C58 0.949 . S
C58 H57 0.949 . S
C58 C59 1.395 . S
C58 C60 1.391 . S
C59 C58 1.395 . S
C59 C62 1.390 . S
C60 C58 1.391 . S
C60 C64 1.387 . S
C60 C65 1.491 . S
H61 C62 0.950 . S
C62 C59 1.390 . S
C62 H61 0.950 . S
C62 C63 1.378 . S
C63 C62 1.378 . S
C63 C64 1.409 . S
C64 C60 1.387 . S
C64 C63 1.409 . S
C64 H66 0.951 . S
C65 C60 1.491 . S
C65 C67 1.382 . S
C65 C69 1.404 . S
H66 C64 0.951 . S
C67 C65 1.382 . S
C67 C68 1.390 . S
C67 H72 0.949 . S
C68 C67 1.390 . S
C68 C73 1.399 . S
C69 C65 1.404 . S
C69 H70 0.950 . S
C69 C71 1.375 . S
H70 C69 0.950 . S
C71 C69 1.375 . S
C71 C73 1.382 . S
C71 H75 0.950 . S
H72 C67 0.949 . S
C73 C68 1.399 . S
C73 C71 1.382 . S
C73 H74 0.952 . S
H74 C73 0.952 . S
H75 C71 0.950 . S
Zn76 O82 1.920 . S
Zn76 O88 1.898 . S
Zn76 O91 1.905 1_455 S
Zn77 O85 1.905 . S
Zn77 O86 1.898 . S
Zn77 O94 1.920 . S
Zn78 O81 2.080 . S
Zn78 O84 2.114 1_545 S
Zn78 O87 2.120 1_545 S
Zn78 O89 2.120 . S
Zn78 O90 2.114 1_455 S
Zn78 O93 2.080 1_545 S
C79 O84 1.166 . S
C79 O85 1.182 . S
C80 O86 1.167 . S
C80 O87 1.299 . S
O81 Zn78 2.080 . S
O81 C95 1.305 . S
O82 Zn76 1.920 . S
O82 C95 1.234 . S
C83 O88 1.167 . S
C83 O89 1.299 . S
O84 Zn78 2.114 1_565 S
O84 C79 1.166 . S
O85 Zn77 1.905 . S
O85 C79 1.182 . S
O86 Zn77 1.898 . S
O86 C80 1.167 . S
O87 Zn78 2.120 1_565 S
O87 C80 1.299 . S
O88 Zn76 1.898 . S
O88 C83 1.167 . S
O89 Zn78 2.120 . S
O89 C83 1.299 . S
O90 Zn78 2.114 1_655 S
O90 C92 1.166 . S
O91 Zn76 1.905 1_655 S
O91 C92 1.182 . S
C92 O90 1.166 . S
C92 O91 1.182 . S
O93 Zn78 2.080 1_565 S
O93 C96 1.305 . S
O94 Zn77 1.920 . S
O94 C96 1.234 . S
C95 O81 1.305 . S
C95 O82 1.234 . S
C96 O93 1.305 . S
C96 O94 1.234 . S
Zn97 O103 1.920 . S
Zn97 O109 1.898 . S
Zn97 O112 1.905 . S
Zn98 O106 1.905 . S
Zn98 O107 1.898 . S
Zn98 O115 1.920 . S
Zn99 O102 2.080 . S
Zn99 O105 2.114 . S
Zn99 O108 2.120 . S
Zn99 O110 2.120 . S
Zn99 O111 2.114 . S
Zn99 O114 2.080 . S
C100 O105 1.166 . S
C100 O106 1.182 . S
C101 O107 1.167 . S
C101 O108 1.299 . S
O102 Zn99 2.080 . S
O102 C116 1.305 . S
O103 Zn97 1.920 . S
O103 C116 1.234 . S
C104 O109 1.167 . S
C104 O110 1.299 . S
O105 Zn99 2.114 . S
O105 C100 1.166 . S
O106 Zn98 1.905 . S
O106 C100 1.182 . S
O107 Zn98 1.898 . S
O107 C101 1.167 . S
O108 Zn99 2.120 . S
O108 C101 1.299 . S
O109 Zn97 1.898 . S
O109 C104 1.167 . S
O110 Zn99 2.120 . S
O110 C104 1.299 . S
O111 Zn99 2.114 . S
O111 C113 1.166 . S
O112 Zn97 1.905 . S
O112 C113 1.182 . S
C113 O111 1.166 . S
C113 O112 1.182 . S
O114 Zn99 2.080 . S
O114 C117 1.305 . S
O115 Zn98 1.920 . S
O115 C117 1.234 . S
C116 O102 1.305 . S
C116 O103 1.234 . S
C117 O114 1.305 . S
C117 O115 1.234 . S
H118 C126 0.950 . S
H119 C131 0.950 . S
H120 C128 0.950 . S
H121 C130 0.950 . S
H122 C132 0.950 . S
H123 C134 0.950 . S
H124 C136 0.950 . S
H125 C137 0.950 . S
C126 H118 0.950 . S
C126 C127 1.386 . S
C126 C128 1.391 . S
C127 C126 1.386 . S
C127 C131 1.393 . S
C128 H120 0.950 . S
C128 C126 1.391 . S
C128 C129 1.400 . S
C129 C128 1.400 . S
C129 C130 1.398 . S
C129 C135 1.491 . S
C130 H121 0.950 . S
C130 C129 1.398 . S
C130 C131 1.391 . S
C131 H119 0.950 . S
C131 C127 1.393 . S
C131 C130 1.391 . S
C132 H122 0.950 . S
C132 C133 1.386 . S
C132 C134 1.391 . S
C133 C132 1.386 . S
C133 C137 1.393 . S
C134 H123 0.950 . S
C134 C132 1.391 . S
C134 C135 1.400 . S
C135 C129 1.491 . S
C135 C134 1.400 . S
C135 C136 1.398 . S
C136 H124 0.950 . S
C136 C135 1.398 . S
C136 C137 1.391 . S
C137 H125 0.950 . S
C137 C133 1.393 . S
C137 C136 1.391 . S
H138 C146 0.950 . S
H139 C151 0.950 . S
H140 C148 0.950 . S
H141 C150 0.950 . S
H142 C152 0.950 . S
H143 C154 0.950 . S
H144 C156 0.950 . S
H145 C157 0.950 . S
C146 H138 0.950 . S
C146 C147 1.386 . S
C146 C148 1.391 . S
C147 C146 1.386 . S
C147 C151 1.393 . S
C148 H140 0.950 . S
C148 C146 1.391 . S
C148 C149 1.400 . S
C149 C148 1.400 . S
C149 C150 1.398 . S
C149 C155 1.491 . S
C150 H141 0.950 . S
C150 C149 1.398 . S
C150 C151 1.391 . S
C151 H139 0.950 . S
C151 C147 1.393 . S
C151 C150 1.391 . S
C152 H142 0.950 . S
C152 C153 1.386 . S
C152 C154 1.391 . S
C153 C152 1.386 . S
C153 C157 1.393 . S
C154 H143 0.950 . S
C154 C152 1.391 . S
C154 C155 1.400 . S
C155 C149 1.491 . S
C155 C154 1.400 . S
C155 C156 1.398 . S
C156 H144 0.950 . S
C156 C155 1.398 . S
C156 C157 1.391 . S
C157 H145 0.950 . S
C157 C153 1.393 . S
C157 C156 1.391 . S
H158 C166 0.950 . S
H159 C171 0.950 . S
H160 C168 0.950 . S
H161 C170 0.950 . S
H162 C172 0.950 . S
H163 C174 0.950 . S
H164 C176 0.950 . S
H165 C177 0.950 . S
C166 H158 0.950 . S
C166 C167 1.386 . S
C166 C168 1.391 . S
C167 C166 1.386 . S
C167 C171 1.393 . S
C168 H160 0.950 . S
C168 C166 1.391 . S
C168 C169 1.400 . S
C169 C168 1.400 . S
C169 C170 1.398 . S
C169 C175 1.491 . S
C170 H161 0.950 . S
C170 C169 1.398 . S
C170 C171 1.391 . S
C171 H159 0.950 . S
C171 C167 1.393 . S
C171 C170 1.391 . S
C172 H162 0.950 . S
C172 C173 1.386 . S
C172 C174 1.391 . S
C173 C172 1.386 . S
C173 C177 1.393 . S
C174 H163 0.950 . S
C174 C172 1.391 . S
C174 C175 1.400 . S
C175 C169 1.491 . S
C175 C174 1.400 . S
C175 C176 1.398 . S
C176 H164 0.950 . S
C176 C175 1.398 . S
C176 C177 1.391 . S
C177 H165 0.950 . S
C177 C173 1.393 . S
C177 C176 1.391 . S
H178 C186 0.950 . S
H179 C191 0.950 . S
H180 C188 0.950 . S
H181 C190 0.950 . S
H182 C192 0.950 . S
H183 C194 0.950 . S
H184 C196 0.950 . S
H185 C197 0.950 . S
C186 H178 0.950 . S
C186 C187 1.386 . S
C186 C188 1.391 . S
C187 C186 1.386 . S
C187 C191 1.393 . S
C188 H180 0.950 . S
C188 C186 1.391 . S
C188 C189 1.400 . S
C189 C188 1.400 . S
C189 C190 1.398 . S
C189 C195 1.491 . S
C190 H181 0.950 . S
C190 C189 1.398 . S
C190 C191 1.391 . S
C191 H179 0.950 . S
C191 C187 1.393 . S
C191 C190 1.391 . S
C192 H182 0.950 . S
C192 C193 1.386 . S
C192 C194 1.391 . S
C193 C192 1.386 . S
C193 C197 1.393 . S
C194 H183 0.950 . S
C194 C192 1.391 . S
C194 C195 1.400 . S
C195 C189 1.491 . S
C195 C194 1.400 . S
C195 C196 1.398 . S
C196 H184 0.950 . S
C196 C195 1.398 . S
C196 C197 1.391 . S
C197 H185 0.950 . S
C197 C193 1.393 . S
C197 C196 1.391 . S
H198 C206 0.950 . S
H199 C211 0.950 . S
H200 C208 0.950 . S
H201 C210 0.950 1_554 S
H202 C212 0.950 . S
H203 C214 0.950 . S
H204 C216 0.950 . S
H205 C217 0.950 . S
C206 H198 0.950 . S
C206 C207 1.386 . S
C206 C208 1.391 . S
C207 C206 1.386 . S
C207 C211 1.393 1_556 S
C208 H200 0.950 . S
C208 C206 1.391 . S
C208 C209 1.400 . S
C209 C208 1.400 . S
C209 C210 1.398 . S
C209 C215 1.491 . S
C210 H201 0.950 1_556 S
C210 C209 1.398 . S
C210 C211 1.391 1_556 S
C211 H199 0.950 . S
C211 C207 1.393 1_554 S
C211 C210 1.391 1_554 S
C212 H202 0.950 . S
C212 C213 1.386 . S
C212 C214 1.391 . S
C213 C212 1.386 . S
C213 C217 1.393 . S
C214 H203 0.950 . S
C214 C212 1.391 . S
C214 C215 1.400 . S
C215 C209 1.491 . S
C215 C214 1.400 . S
C215 C216 1.398 . S
C216 H204 0.950 . S
C216 C215 1.398 . S
C216 C217 1.391 . S
C217 H205 0.950 . S
C217 C213 1.393 . S
C217 C216 1.391 . S
H218 C226 0.950 . S
H219 C231 0.950 . S
H220 C228 0.950 . S
H221 C230 0.950 . S
H222 C232 0.950 . S
H223 C234 0.950 . S
H224 C236 0.950 . S
H225 C237 0.950 . S
C226 H218 0.950 . S
C226 C227 1.386 . S
C226 C228 1.391 . S
C227 C226 1.386 . S
C227 C231 1.393 . S
C228 H220 0.950 . S
C228 C226 1.391 . S
C228 C229 1.400 . S
C229 C228 1.400 . S
C229 C230 1.398 . S
C229 C235 1.491 . S
C230 H221 0.950 . S
C230 C229 1.398 . S
C230 C231 1.391 . S
C231 H219 0.950 . S
C231 C227 1.393 . S
C231 C230 1.391 . S
C232 H222 0.950 . S
C232 C233 1.386 . S
C232 C234 1.391 . S
C233 C232 1.386 . S
C233 C237 1.393 . S
C234 H223 0.950 . S
C234 C232 1.391 . S
C234 C235 1.400 . S
C235 C229 1.491 . S
C235 C234 1.400 . S
C235 C236 1.398 . S
C236 H224 0.950 . S
C236 C235 1.398 . S
C236 C237 1.391 . S
C237 H225 0.950 . S
C237 C233 1.393 . S
C237 C236 1.391 . S
H238 C246 0.950 . S
H239 C251 0.950 . S
H240 C248 0.950 . S
H241 C250 0.950 1_455 S
H242 C252 0.950 . S
H243 C254 0.950 . S
H244 C256 0.950 . S
H245 C257 0.950 . S
C246 H238 0.950 . S
C246 C247 1.386 1_655 S
C246 C248 1.391 . S
C247 C246 1.386 1_455 S
C247 C251 1.393 . S
C248 H240 0.950 . S
C248 C246 1.391 . S
C248 C249 1.400 . S
C249 C248 1.400 . S
C249 C250 1.398 . S
C249 C255 1.491 . S
C250 H241 0.950 1_655 S
C250 C249 1.398 . S
C250 C251 1.391 1_655 S
C251 H239 0.950 . S
C251 C247 1.393 . S
C251 C250 1.391 1_455 S
C252 H242 0.950 . S
C252 C253 1.386 . S
C252 C254 1.391 . S
C253 C252 1.386 . S
C253 C257 1.393 . S
C254 H243 0.950 . S
C254 C252 1.391 . S
C254 C255 1.400 . S
C255 C249 1.491 . S
C255 C254 1.400 . S
C255 C256 1.398 . S
C256 H244 0.950 . S
C256 C255 1.398 . S
C256 C257 1.391 . S
C257 H245 0.950 . S
C257 C253 1.393 . S
C257 C256 1.391 . S
H258 C266 0.950 . S
H259 C271 0.950 . S
H260 C268 0.950 . S
H261 C270 0.950 . S
H262 C272 0.950 . S
H263 C274 0.950 . S
H264 C276 0.950 . S
H265 C277 0.950 . S
C266 H258 0.950 . S
C266 C267 1.386 . S
C266 C268 1.391 . S
C267 C266 1.386 . S
C267 C271 1.393 . S
C268 H260 0.950 . S
C268 C266 1.391 . S
C268 C269 1.400 . S
C269 C268 1.400 . S
C269 C270 1.398 . S
C269 C275 1.491 . S
C270 H261 0.950 . S
C270 C269 1.398 . S
C270 C271 1.391 . S
C271 H259 0.950 . S
C271 C267 1.393 . S
C271 C270 1.391 . S
C272 H262 0.950 . S
C272 C273 1.386 . S
C272 C274 1.391 . S
C273 C272 1.386 . S
C273 C277 1.393 . S
C274 H263 0.950 . S
C274 C272 1.391 . S
C274 C275 1.400 . S
C275 C269 1.491 . S
C275 C274 1.400 . S
C275 C276 1.398 . S
C276 H264 0.950 . S
C276 C275 1.398 . S
C276 C277 1.391 . S
C277 H265 0.950 . S
C277 C273 1.393 . S
C277 C276 1.391 . S
H278 C286 0.950 . S
H279 C291 0.950 . S
H280 C288 0.950 . S
H281 C290 0.950 . S
H282 C292 0.950 . S
H283 C294 0.950 . S
H284 C296 0.950 . S
H285 C297 0.950 1_455 S
C286 H278 0.950 . S
C286 C287 1.386 . S
C286 C288 1.391 . S
C287 C286 1.386 . S
C287 C291 1.393 . S
C288 H280 0.950 . S
C288 C286 1.391 . S
C288 C289 1.400 . S
C289 C288 1.400 . S
C289 C290 1.398 . S
C289 C295 1.491 . S
C290 H281 0.950 . S
C290 C289 1.398 . S
C290 C291 1.391 . S
C291 H279 0.950 . S
C291 C287 1.393 . S
C291 C290 1.391 . S
C292 H282 0.950 . S
C292 C293 1.386 . S
C292 C294 1.391 . S
C293 C292 1.386 . S
C293 C297 1.393 . S
C294 H283 0.950 . S
C294 C292 1.391 . S
C294 C295 1.400 . S
C295 C289 1.491 . S
C295 C294 1.400 . S
C295 C296 1.398 . S
C296 H284 0.950 . S
C296 C295 1.398 . S
C296 C297 1.391 . S
C297 H285 0.950 1_655 S
C297 C293 1.393 . S
C297 C296 1.391 . S
H298 C306 0.950 . S
H299 C311 0.950 . S
H300 C308 0.950 . S
H301 C310 0.950 . S
H302 C312 0.950 . S
H303 C314 0.950 . S
H304 C316 0.950 . S
H305 C317 0.950 . S
C306 H298 0.950 . S
C306 C307 1.386 . S
C306 C308 1.391 . S
C307 C306 1.386 . S
C307 C311 1.393 . S
C308 H300 0.950 . S
C308 C306 1.391 . S
C308 C309 1.400 . S
C309 C308 1.400 . S
C309 C310 1.398 . S
C309 C315 1.491 . S
C310 H301 0.950 . S
C310 C309 1.398 . S
C310 C311 1.391 . S
C311 H299 0.950 . S
C311 C307 1.393 . S
C311 C310 1.391 . S
C312 H302 0.950 . S
C312 C313 1.386 . S
C312 C314 1.391 . S
C313 C312 1.386 . S
C313 C317 1.393 . S
C314 H303 0.950 . S
C314 C312 1.391 . S
C314 C315 1.400 . S
C315 C309 1.491 . S
C315 C314 1.400 . S
C315 C316 1.398 . S
C316 H304 0.950 . S
C316 C315 1.398 . S
C316 C317 1.391 . S
C317 H305 0.950 . S
C317 C313 1.393 . S
C317 C316 1.391 . S
H318 C326 0.950 . S
H319 C331 0.950 . S
H320 C328 0.950 . S
H321 C330 0.950 . S
H322 C332 0.950 . S
H323 C334 0.950 . S
H324 C336 0.950 . S
H325 C337 0.950 . S
C326 H318 0.950 . S
C326 C327 1.386 . S
C326 C328 1.391 . S
C327 C326 1.386 . S
C327 C331 1.393 . S
C328 H320 0.950 . S
C328 C326 1.391 . S
C328 C329 1.400 . S
C329 C328 1.400 . S
C329 C330 1.398 . S
C329 C335 1.491 . S
C330 H321 0.950 . S
C330 C329 1.398 . S
C330 C331 1.391 . S
C331 H319 0.950 . S
C331 C327 1.393 . S
C331 C330 1.391 . S
C332 H322 0.950 . S
C332 C333 1.386 . S
C332 C334 1.391 . S
C333 C332 1.386 . S
C333 C337 1.393 . S
C334 H323 0.950 . S
C334 C332 1.391 . S
C334 C335 1.400 . S
C335 C329 1.491 . S
C335 C334 1.400 . S
C335 C336 1.398 . S
C336 H324 0.950 . S
C336 C335 1.398 . S
C336 C337 1.391 . S
C337 H325 0.950 . S
C337 C333 1.393 . S
C337 C336 1.391 . S
H338 C346 0.950 . S
H339 C351 0.950 . S
H340 C348 0.950 . S
H341 C350 0.950 . S
H342 C352 0.950 . S
H343 C354 0.950 . S
H344 C356 0.950 . S
H345 C357 0.950 . S
C346 H338 0.950 . S
C346 C347 1.386 . S
C346 C348 1.391 . S
C347 C346 1.386 . S
C347 C351 1.393 . S
C348 H340 0.950 . S
C348 C346 1.391 . S
C348 C349 1.400 . S
C349 C348 1.400 . S
C349 C350 1.398 . S
C349 C355 1.491 . S
C350 H341 0.950 . S
C350 C349 1.398 . S
C350 C351 1.391 . S
C351 H339 0.950 . S
C351 C347 1.393 . S
C351 C350 1.391 . S
C352 H342 0.950 . S
C352 C353 1.386 . S
C352 C354 1.391 . S
C353 C352 1.386 . S
C353 C357 1.393 . S
C354 H343 0.950 . S
C354 C352 1.391 . S
C354 C355 1.400 . S
C355 C349 1.491 . S
C355 C354 1.400 . S
C355 C356 1.398 . S
C356 H344 0.950 . S
C356 C355 1.398 . S
C356 C357 1.391 . S
C357 H345 0.950 . S
C357 C353 1.393 . S
C357 C356 1.391 . S
C133 C83 1.446 . S
C127 C11 1.448 . S
C153 C79 1.413 . S
C147 C30 1.421 1_455 S
C173 C104 1.421 . S
C167 C49 1.413 . S
C187 C68 1.410 . S
C193 C100 1.424 . S
C207 C2 1.255 . S
C213 C101 1.122 . S
C233 C116 1.136 . S
C227 C25 1.278 . S
C247 C6 1.797 . S
C253 C117 1.627 . S
C273 C113 1.685 . S
C267 C21 1.810 . S
C293 C80 1.171 1_655 S
C287 C40 1.282 . S
C307 C63 1.273 . S
C313 C95 1.132 . S
C333 C96 1.656 . S
C327 C44 1.801 . S
C353 C92 1.693 . S
C347 C59 1.815 . S
