# Generated by pormake.
# Topology rtl, (3,6)-cn, num edge types: 1
# Building blocks:
#     Node 0, Type 0, BuildingBlock: PAMTOO_clean_linker_0, # of connection points: 3
#     Node 1, Type 0, BuildingBlock: PAMTOO_clean_linker_0, # of connection points: 3
#     Node 2, Type 0, BuildingBlock: PAMTOO_clean_linker_0, # of connection points: 3
#     Node 3, Type 0, BuildingBlock: PAMTOO_clean_linker_0, # of connection points: 3
#     Node 4, Type 1, BuildingBlock: KUMBUR_clean_sbu_1, # of connection points: 6
#     Node 5, Type 1, BuildingBlock: KUMBUR_clean_sbu_1, # of connection points: 6
#     Edge 6, Type (0, 1), BuildingBlock: XUDNAN_clean_linker_2, # of connection points: 2
#     Edge 7, Type (0, 1), BuildingBlock: XUDNAN_clean_linker_2, # of connection points: 2
#     Edge 8, Type (0, 1), BuildingBlock: XUDNAN_clean_linker_2, # of connection points: 2
#     Edge 9, Type (0, 1), BuildingBlock: XUDNAN_clean_linker_2, # of connection points: 2
#     Edge 10, Type (0, 1), BuildingBlock: XUDNAN_clean_linker_2, # of connection points: 2
#     Edge 11, Type (0, 1), BuildingBlock: XUDNAN_clean_linker_2, # of connection points: 2
#     Edge 12, Type (0, 1), BuildingBlock: XUDNAN_clean_linker_2, # of connection points: 2
#     Edge 13, Type (0, 1), BuildingBlock: XUDNAN_clean_linker_2, # of connection points: 2
#     Edge 14, Type (0, 1), BuildingBlock: XUDNAN_clean_linker_2, # of connection points: 2
#     Edge 15, Type (0, 1), BuildingBlock: XUDNAN_clean_linker_2, # of connection points: 2
#     Edge 16, Type (0, 1), BuildingBlock: XUDNAN_clean_linker_2, # of connection points: 2
#     Edge 17, Type (0, 1), BuildingBlock: XUDNAN_clean_linker_2, # of connection points: 2
# Relax obj value: 0.052
# Max RMSD: 0.218
# Mean RMSD: 0.163
data_MOF--net-rtl--node1-KUMBUR_clean_sbu_1--node2-PAMTOO_clean_linker_0--edge1-XUDNAN_clean_linker_2
_symmetry_space_group_name_H-M    P1
_symmetry_Int_Tables_number       1
_symmetry_cell_setting            triclinic
loop_
_symmetry_equiv_pos_as_xyz
'x, y, z'
_cell_length_a     34.786481
_cell_length_b     35.307871
_cell_length_c     26.884433
_cell_angle_alpha  79.049412
_cell_angle_beta   98.250696
_cell_angle_gamma 91.585876
loop_
_atom_site_label
_atom_site_type_symbol
_atom_site_fract_x
_atom_site_fract_y
_atom_site_fract_z
_atom_type_partial_charge
H0 H 0.15826 0.89183 0.98111 0.0
H1 H 0.24406 0.81967 0.08561 0.0
H2 H 0.23004 0.81637 0.92534 0.0
H3 H 0.24224 0.74233 0.98745 0.0
C4 C 0.26061 0.74914 0.02208 0.0
O5 O 0.26846 0.78821 0.01473 0.0
H6 H 0.24443 0.74071 0.05532 0.0
C7 C 0.18121 0.87051 0.9882 0.0
C8 C 0.19187 0.85578 0.94717 0.0
C9 C 0.19977 0.85768 0.03837 0.0
C10 C 0.22948 0.82997 0.04717 0.0
C11 C 0.24003 0.81493 1.00637 0.0
C12 C 0.22139 0.82798 0.9566 0.0
H13 H 0.66424 0.64501 0.67378 0.0
H14 H 0.75873 0.70798 0.6075 0.0
H15 H 0.73739 0.71898 0.75669 0.0
H16 H 0.75974 0.79486 0.69234 0.0
C17 C 0.77282 0.78197 0.66404 0.0
O18 O 0.77945 0.74313 0.68299 0.0
H19 H 0.75193 0.78588 0.62792 0.0
C20 C 0.68911 0.66404 0.67605 0.0
C21 C 0.69922 0.67938 0.72078 0.0
C22 C 0.7097 0.67449 0.63396 0.0
C23 C 0.74126 0.70015 0.63812 0.0
C24 C 0.75053 0.71676 0.68155 0.0
C25 C 0.72965 0.70633 0.7229 0.0
H26 H 0.89356 0.16087 0.08481 0.0
H27 H 0.80422 0.23451 0.98961 0.0
H28 H 0.81645 0.22219 0.15308 0.0
H29 H 0.73573 0.21432 0.08774 0.0
C30 C 0.73835 0.24279 0.06216 0.0
O31 O 0.77649 0.25505 0.06614 0.0
H32 H 0.72834 0.23901 0.02222 0.0
C33 C 0.86876 0.17973 0.08069 0.0
C34 C 0.8569 0.1892 0.12448 0.0
C35 C 0.85013 0.19605 0.03166 0.0
C36 C 0.81898 0.22162 0.02705 0.0
C37 C 0.80643 0.23043 0.07082 0.0
C38 C 0.82559 0.21445 0.11944 0.0
H39 H 0.39251 0.38949 0.46809 0.0
H40 H 0.32704 0.29681 0.54571 0.0
H41 H 0.32887 0.30952 0.38432 0.0
H42 H 0.25279 0.2819 0.41367 0.0
C43 C 0.26217 0.27133 0.45518 0.0
O44 O 0.30221 0.26832 0.46427 0.0
H45 H 0.25246 0.2925 0.47668 0.0
C46 C 0.37406 0.36429 0.46734 0.0
C47 C 0.3626 0.35175 0.42078 0.0
C48 C 0.36131 0.34472 0.51274 0.0
C49 C 0.33738 0.3121 0.51123 0.0
C50 C 0.32559 0.29957 0.46506 0.0
C51 C 0.33814 0.3194 0.41994 0.0
Tb52 Tb 0.03749 0.98003 0.49416 0.0
C53 C 0.93531 0.10936 0.49049 0.0
N54 N 0.9717 0.11038 0.51604 0.0
C55 C 0.97937 0.17572 0.47377 0.0
C56 C 0.91995 0.14106 0.45353 0.0
C57 C 0.9934 0.1433 0.50976 0.0
C58 C 0.94268 0.17441 0.44496 0.0
C59 C 0.8746 0.0751 0.47883 0.0
C60 C 0.91332 0.07667 0.50265 0.0
C61 C 0.85969 0.10563 0.43982 0.0
C62 C 0.88236 0.13857 0.42715 0.0
Tb63 Tb 0.99374 0.05563 0.57089 0.0
N64 N 0.92878 0.04803 0.54101 0.0
C65 C 0.85145 0.04395 0.49685 0.0
C66 C 0.90454 0.0206 0.563 0.0
C67 C 0.86616 0.01724 0.54016 0.0
H68 H 0.02186 0.14409 0.53175 0.0
H69 H 0.84768 0.99457 0.55676 0.0
H70 H 0.95961 0.95691 0.42063 0.0
H71 H 0.15631 0.88868 0.59753 0.0
H72 H 0.91413 1.00136 0.59863 0.0
H73 H 0.82154 0.04161 0.47968 0.0
H74 H 0.12573 0.94975 0.54917 0.0
H75 H 0.99694 0.20153 0.46798 0.0
H76 H 0.83021 0.10465 0.42053 0.0
H77 H 0.8702 0.16233 0.39792 0.0
H78 H 0.91971 0.89864 0.41253 0.0
H79 H 0.93197 0.19942 0.41684 0.0
H80 H 0.11739 0.82863 0.6086 0.0
N81 N 1.00026 0.92757 0.48144 0.0
C82 C 1.01257 0.89318 0.5101 0.0
C83 C 0.94559 0.89676 0.44051 0.0
C84 C 0.99102 0.85917 0.50683 0.0
C85 C 0.9682 0.92965 0.44515 0.0
C86 C 0.95666 0.86146 0.4722 0.0
N87 N 0.06959 0.92486 0.53644 0.0
C88 C 0.10847 0.9237 0.55448 0.0
C89 C 0.06499 0.85612 0.565 0.0
C90 C 0.04878 0.89173 0.53871 0.0
C91 C 0.10379 0.85537 0.58793 0.0
C92 C 0.12588 0.88919 0.58165 0.0
H93 H 0.93933 0.83596 0.46822 0.0
H94 H 0.98919 0.79746 0.53483 0.0
H95 H 0.0542 0.79476 0.58588 0.0
O96 O 0.05392 0.0155 0.42824 0.0
O97 O 0.06696 0.98055 0.57206 0.0
O98 O 0.02685 1.00698 0.62005 0.0
O99 O 0.06334 0.95433 0.44275 0.0
O100 O 0.0792 0.02405 0.51702 0.0
O101 O 0.05185 0.07198 0.55181 0.0
O102 O 0.96093 0.07836 0.61842 0.0
O103 O 1.00641 0.06935 0.49184 0.0
O104 O 0.98706 0.01583 0.45991 0.0
O105 O 0.02254 0.08565 0.62599 0.0
O106 O 0.9801 0.99436 0.59217 0.0
O107 O 0.97867 0.97843 0.51407 0.0
C108 C 0.05653 0.98581 0.6156 0.0
C109 C 0.0522 0.98496 0.35661 0.0
C110 C 0.06638 0.96841 0.27672 0.0
C111 C 0.02884 0.98099 0.25352 0.0
C112 C 1.01478 0.99677 0.33296 0.0
C113 C 1.00326 0.99475 0.28161 0.0
C114 C 0.07763 0.97049 0.32863 0.0
C115 C 0.08051 0.05722 0.53384 0.0
C116 C 0.06536 0.9865 0.41065 0.0
C117 C 1.00555 0.8239 0.53614 0.0
C118 C 0.04256 0.82237 0.56522 0.0
C119 C 0.9891 0.05333 0.4545 0.0
C120 C 0.99309 0.07887 0.70115 0.0
C121 C 0.97399 0.09018 0.7813 0.0
C122 C 0.99541 0.05729 0.80742 0.0
C123 C 1.01365 0.04589 0.728 0.0
C124 C 0.97304 0.10069 0.72779 0.0
C125 C 1.01467 0.03522 0.78081 0.0
C126 C 0.9728 0.96922 0.56181 0.0
C127 C 0.9912 0.09023 0.64523 0.0
H128 H 0.01921 0.98058 0.21351 0.0
H129 H 0.99455 1.00739 0.35413 0.0
H130 H 0.9744 1.00388 0.26341 0.0
H131 H 0.10603 0.96031 0.34784 0.0
H132 H 0.99768 0.04864 0.84857 0.0
H133 H 0.02883 0.02835 0.70824 0.0
H134 H 0.95625 0.12543 0.70652 0.0
H135 H 0.03043 0.00971 0.80131 0.0
Tb136 Tb 0.49361 0.4931 1.00777 0.0
C137 C 0.6451 0.54688 0.0799 0.0
N138 N 0.62561 0.51851 0.10772 0.0
C139 C 0.68081 0.47671 0.11927 0.0
C140 C 0.68195 0.54029 0.06716 0.0
C141 C 0.64471 0.48522 0.13176 0.0
C142 C 0.69897 0.50395 0.08544 0.0
C143 C 0.65083 0.6151 0.04546 0.0
C144 C 0.63003 0.58376 0.06939 0.0
C145 C 0.68601 0.60821 0.02876 0.0
C146 C 0.70153 0.57079 0.0395 0.0
Tb147 Tb 0.5643 0.53484 0.11934 0.0
N148 N 0.59563 0.5891 0.08524 0.0
C149 C 0.63618 0.65239 0.04061 0.0
C150 C 0.58242 0.62543 0.08386 0.0
C151 C 0.60225 0.65762 0.06087 0.0
H152 H 0.63211 0.46488 0.16031 0.0
H153 H 0.59119 0.68637 0.0584 0.0
H154 H 0.40439 0.52393 0.99942 0.0
H155 H 0.54266 0.34787 0.01336 0.0
H156 H 0.55593 0.62929 0.099 0.0
H157 H 0.65134 0.67731 0.02254 0.0
H158 H 0.543 0.41888 0.98783 0.0
H159 H 0.69485 0.44943 0.13643 0.0
H160 H 0.70213 0.63178 0.00928 0.0
H161 H 0.72953 0.56614 0.02847 0.0
H162 H 0.34117 0.49743 0.02201 0.0
H163 H 0.7272 0.49757 0.07646 0.0
H164 H 0.48895 0.3154 0.05633 0.0
N165 N 0.43396 0.47048 0.02499 0.0
C166 C 0.43075 0.4321 0.04215 0.0
C167 C 0.36624 0.47875 0.02834 0.0
C168 C 0.39557 0.41553 0.05576 0.0
C169 C 0.40202 0.49373 0.01567 0.0
C170 C 0.36321 0.43959 0.04957 0.0
N171 N 0.49349 0.4268 0.02285 0.0
C172 C 0.5207 0.40511 0.0091 0.0
C173 C 0.45939 0.36888 0.05483 0.0
C174 C 0.46209 0.40934 0.04181 0.0
C175 C 0.48977 0.34661 0.04678 0.0
C176 C 0.5201 0.36482 0.02252 0.0
H177 H 0.33553 0.42803 0.0594 0.0
H178 H 0.36696 0.36209 0.08417 0.0
H179 H 0.423 0.32107 0.08329 0.0
O180 O 0.48085 0.47221 0.93916 0.0
O181 O 0.47262 0.49278 0.08138 0.0
O182 O 0.52715 0.48518 0.14283 0.0
O183 O 0.4745 0.53239 0.93971 0.0
O184 O 0.55414 0.47389 0.03295 0.0
O185 O 0.56584 0.47276 0.11915 0.0
O186 O 0.54441 0.55275 0.18192 0.0
O187 O 0.55254 0.5663 0.03985 0.0
O188 O 0.55092 0.51677 0.99732 0.0
O189 O 0.60489 0.54421 0.1813 0.0
O190 O 0.50874 0.56507 0.0964 0.0
O191 O 0.47433 0.54944 0.02064 0.0
C192 C 0.48936 0.48251 0.12915 0.0
C193 C 0.4333 0.50542 0.87615 0.0
C194 C 0.39759 0.48043 0.80394 0.0
C195 C 0.36678 0.50555 0.80321 0.0
C196 C 0.40211 0.53013 0.87508 0.0
C197 C 0.36905 0.53007 0.83874 0.0
C198 C 0.43075 0.48068 0.84055 0.0
C199 C 0.56805 0.45658 0.07949 0.0
C200 C 0.46946 0.50549 0.91234 0.0
C201 C 0.39354 0.37544 0.07273 0.0
C202 C 0.42548 0.3521 0.07234 0.0
C203 C 0.55815 0.55292 0.99929 0.0
C204 C 0.58458 0.53473 0.26165 0.0
C205 C 0.60997 0.54169 0.34912 0.0
C206 C 0.60793 0.50129 0.36436 0.0
C207 C 0.58288 0.49465 0.2774 0.0
C208 C 0.59689 0.55801 0.29762 0.0
C209 C 0.59405 0.47811 0.32879 0.0
C210 C 0.47998 0.57014 0.05765 0.0
C211 C 0.57902 0.55284 0.20737 0.0
H212 H 0.34077 0.50583 0.77565 0.0
H213 H 0.40331 0.54957 0.90194 0.0
H214 H 0.34509 0.54918 0.83806 0.0
H215 H 0.45504 0.46198 0.84083 0.0
H216 H 0.61817 0.48731 0.40325 0.0
H217 H 0.57404 0.47624 0.24983 0.0
H218 H 0.59733 0.58898 0.28461 0.0
H219 H 0.59314 0.44709 0.34083 0.0
H220 H 0.19701 0.25595 0.50254 0.0
H221 H 0.28309 0.20021 0.43935 0.0
H222 H 0.24906 0.13777 0.45935 0.0
H223 H 0.18109 0.1757 0.60613 0.0
H224 H 0.12961 0.18459 0.59867 0.0
H225 H 0.16253 0.22398 0.58319 0.0
H226 H 0.12393 0.24158 0.492 0.0
H227 H 0.09096 0.20229 0.50723 0.0
H228 H 0.11622 0.2053 0.45259 0.0
H229 H 0.2031 0.08219 0.4818 0.0
H230 H 0.14825 0.03885 0.50179 0.0
H231 H 0.09249 0.13144 0.55054 0.0
C232 C 0.20913 0.23041 0.49394 0.0
C233 C 0.24334 0.23262 0.47082 0.0
C234 C 0.25752 0.19888 0.45835 0.0
C235 C 0.23835 0.16336 0.46948 0.0
C236 C 0.20481 0.16213 0.49267 0.0
C237 C 0.1903 0.19482 0.50466 0.0
C238 C 0.15252 0.18633 0.52656 0.0
C239 C 0.15671 0.19304 0.58193 0.0
C240 C 0.11894 0.21029 0.49256 0.0
C241 C 0.14777 0.14387 0.52449 0.0
C242 C 0.17829 0.13034 0.50511 0.0
C243 C 0.17924 0.09243 0.49744 0.0
C244 C 0.14787 0.06798 0.50898 0.0
C245 C 0.11584 0.08149 0.52792 0.0
C246 C 0.11645 0.11984 0.53656 0.0
H247 H 0.28444 0.69521 0.9703 0.0
H248 H 0.32037 0.75212 0.09885 0.0
H249 H 0.3815 0.71457 0.11919 0.0
H250 H 0.32142 0.6018 0.03172 0.0
H251 H 0.33704 0.59021 0.9753 0.0
H252 H 0.29685 0.62265 0.96919 0.0
H253 H 0.33182 0.67489 0.91015 0.0
H254 H 0.37205 0.6425 0.91606 0.0
H255 H 0.38032 0.6896 0.93223 0.0
H256 H 0.437 0.67008 0.12719 0.0
H257 H 0.48387 0.62032 0.12425 0.0
H258 H 0.41294 0.59172 0.98949 0.0
C259 C 0.30541 0.69992 1.00243 0.0
C260 C 0.29809 0.7268 0.03285 0.0
C261 C 0.3258 0.7319 0.07498 0.0
C262 C 0.36048 0.71074 0.08673 0.0
C263 C 0.36688 0.68452 0.05602 0.0
C264 C 0.3402 0.67892 0.01477 0.0
C265 C 0.35391 0.64801 0.98905 0.0
C266 C 0.32562 0.61364 0.99148 0.0
C267 C 0.35989 0.66476 0.93358 0.0
C268 C 0.39231 0.63695 0.02258 0.0
C269 C 0.39914 0.65851 0.06081 0.0
C270 C 0.43206 0.65309 0.09733 0.0
C271 C 0.45857 0.62458 0.09522 0.0
C272 C 0.4522 0.60159 0.05679 0.0
C273 C 0.41872 0.6084 0.01958 0.0
H274 H 0.79012 0.8288 0.57539 0.0
H275 H 0.83915 0.78312 0.73217 0.0
H276 H 0.8991 0.82104 0.7195 0.0
H277 H 0.88167 0.83319 0.51928 0.0
H278 H 0.86809 0.87785 0.47582 0.0
H279 H 0.83121 0.84395 0.49604 0.0
H280 H 0.79757 0.89774 0.52737 0.0
H281 H 0.83474 0.93157 0.50814 0.0
H282 H 0.82471 0.923 0.5733 0.0
H283 H 0.94971 0.86914 0.69324 0.0
H284 H 0.98832 0.92378 0.655 0.0
H285 H 0.90833 0.93712 0.5137 0.0
C286 C 0.81387 0.82619 0.60665 0.0
C287 C 0.81043 0.80256 0.65458 0.0
C288 C 0.84161 0.8006 0.69502 0.0
C289 C 0.87567 0.82199 0.68811 0.0
C290 C 0.87809 0.84518 0.64047 0.0
C291 C 0.84809 0.84736 0.60034 0.0
C292 C 0.85702 0.8765 0.55417 0.0
C293 C 0.85969 0.85668 0.50863 0.0
C294 C 0.82672 0.90913 0.53993 0.0
C295 C 0.8964 0.89101 0.57492 0.0
C296 C 0.90801 0.87238 0.62476 0.0
C297 C 0.94144 0.88321 0.65386 0.0
C298 C 0.96326 0.91419 0.63181 0.0
C299 C 0.95201 0.93365 0.58095 0.0
C300 C 0.91841 0.92159 0.55191 0.0
H301 H 0.71245 0.31204 1.00327 0.0
H302 H 0.70849 0.23983 0.15204 0.0
H303 H 0.66534 0.2872 0.17345 0.0
H304 H 0.71285 0.4043 0.04624 0.0
H305 H 0.68294 0.42789 0.98899 0.0
H306 H 0.7145 0.38892 0.98633 0.0
H307 H 0.65541 0.35261 0.94684 0.0
H308 H 0.62373 0.39134 0.94989 0.0
H309 H 0.61378 0.34273 0.98025 0.0
H310 H 0.62047 0.34118 0.17701 0.0
H311 H 0.57878 0.39898 0.16343 0.0
H312 H 0.61338 0.43666 0.01317 0.0
C313 C 0.70252 0.30642 0.04037 0.0
C314 C 0.71321 0.27219 0.07583 0.0
C315 C 0.70016 0.26576 0.12425 0.0
C316 C 0.67575 0.29248 0.1367 0.0
C317 C 0.66508 0.32564 0.1005 0.0
C318 C 0.67828 0.33288 0.05346 0.0
C319 C 0.66225 0.37058 0.0213 0.0
C320 C 0.6951 0.39963 0.01007 0.0
C321 C 0.63731 0.36389 0.97164 0.0
C322 C 0.63756 0.38311 0.05725 0.0
C323 C 0.63962 0.35687 0.10278 0.0
C324 C 0.61877 0.362 0.14159 0.0
C325 C 0.59521 0.39482 0.13358 0.0
C326 C 0.59266 0.42194 0.08714 0.0
C327 C 0.61439 0.41606 0.04876 0.0
H328 H 0.12615 0.86249 0.06106 0.0
H329 H 0.2463 0.88856 0.11155 0.0
H330 H 0.22562 0.91889 0.17932 0.0
H331 H 0.08455 0.94834 0.07918 0.0
H332 H 0.04198 0.92524 0.10227 0.0
H333 H 0.06639 0.9045 0.05914 0.0
H334 H 0.0741 0.83984 0.12409 0.0
H335 H 0.04943 0.86029 0.16728 0.0
H336 H 0.09709 0.83954 0.18868 0.0
H337 H 0.19095 0.95053 0.23719 0.0
H338 H 0.146 0.97669 0.2851 0.0
H339 H 0.04878 0.92567 0.20031 0.0
C340 C 0.14807 0.87445 0.0866 0.0
C341 C 0.1878 0.8734 0.08114 0.0
C342 C 0.21576 0.88895 0.11543 0.0
C343 C 0.20425 0.90633 0.1538 0.0
C344 C 0.16475 0.90737 0.1577 0.0
C345 C 0.13715 0.89136 0.12547 0.0
C346 C 0.09662 0.89607 0.1378 0.0
C347 C 0.07088 0.91997 0.09186 0.0
C348 C 0.07824 0.85659 0.15553 0.0
C349 C 0.10559 0.91797 0.18136 0.0
C350 C 0.14501 0.9243 0.19218 0.0
C351 C 0.16008 0.94517 0.22961 0.0
C352 C 0.13422 0.95972 0.25691 0.0
C353 C 0.09363 0.95308 0.24712 0.0
C354 C 0.07944 0.93176 0.20871 0.0
H355 H 0.6835 0.60607 0.76841 0.0
H356 H 0.66527 0.7265 0.77168 0.0
H357 H 0.62612 0.70717 0.8424 0.0
H358 H 0.58995 0.571 0.79398 0.0
H359 H 0.60755 0.52663 0.83501 0.0
H360 H 0.63445 0.5498 0.78513 0.0
H361 H 0.69592 0.55148 0.85202 0.0
H362 H 0.66919 0.52795 0.90192 0.0
H363 H 0.6931 0.57328 0.90686 0.0
H364 H 0.58651 0.67464 0.90984 0.0
H365 H 0.55373 0.6313 0.9742 0.0
H366 H 0.60049 0.53193 0.93016 0.0
C367 C 0.67123 0.6283 0.78412 0.0
C368 C 0.67717 0.66779 0.76458 0.0
C369 C 0.66114 0.69613 0.78636 0.0
C370 C 0.63877 0.68541 0.82631 0.0
C371 C 0.63317 0.64623 0.84442 0.0
C372 C 0.64937 0.6181 0.82453 0.0
C373 C 0.63966 0.57803 0.85169 0.0
C374 C 0.61653 0.55502 0.81421 0.0
C375 C 0.67667 0.55642 0.87978 0.0
C376 C 0.61477 0.588 0.88921 0.0
C377 C 0.61136 0.6275 0.88433 0.0
C378 C 0.58937 0.64369 0.91435 0.0
C379 C 0.57099 0.61887 0.95092 0.0
C380 C 0.57512 0.57836 0.9577 0.0
C381 C 0.59684 0.5628 0.92584 0.0
H382 H 0.85019 0.12013 0.1892 0.0
H383 H 0.91515 0.22716 0.17194 0.0
H384 H 0.95691 0.20337 0.25412 0.0
H385 H 0.85225 0.1079 0.32671 0.0
H386 H 0.85783 0.05621 0.3388 0.0
H387 H 0.83248 0.08078 0.27861 0.0
H388 H 0.8781 0.05114 0.22952 0.0
H389 H 0.90497 0.02611 0.28837 0.0
H390 H 0.92976 0.05815 0.24266 0.0
H391 H 0.99279 0.16734 0.33555 0.0
H392 H 0.01839 0.1229 0.41508 0.0
H393 H 0.92925 0.03937 0.38174 0.0
C394 C 0.87303 0.1385 0.20324 0.0
C395 C 0.87969 0.17543 0.17493 0.0
C396 C 0.90978 0.19887 0.1937 0.0
C397 C 0.93358 0.18556 0.24007 0.0
C398 C 0.92663 0.14885 0.2671 0.0
C399 C 0.89688 0.12575 0.24977 0.0
C400 C 0.89573 0.0875 0.28646 0.0
C401 C 0.8573 0.08281 0.30901 0.0
C402 C 0.90255 0.0537 0.26021 0.0
C403 C 0.92971 0.09258 0.32677 0.0
C404 C 0.94712 0.12816 0.31467 0.0
C405 C 0.97925 0.13951 0.34562 0.0
C406 C 0.99355 0.11411 0.39069 0.0
C407 C 0.97558 0.07794 0.40458 0.0
C408 C 0.94358 0.06683 0.37183 0.0
H409 H 0.35534 0.41839 0.52971 0.0
H410 H 0.39011 0.30244 0.60605 0.0
H411 H 0.40425 0.32478 0.68859 0.0
H412 H 0.42658 0.46969 0.60558 0.0
H413 H 0.39322 0.5076 0.60661 0.0
H414 H 0.38785 0.48283 0.55328 0.0
H415 H 0.31683 0.46556 0.56726 0.0
H416 H 0.32204 0.49004 0.62083 0.0
H417 H 0.30703 0.44023 0.62898 0.0
H418 H 0.41362 0.35948 0.76285 0.0
H419 H 0.41638 0.40384 0.82416 0.0
H420 H 0.37388 0.49701 0.70002 0.0
C421 C 0.3665 0.39789 0.56373 0.0
C422 C 0.3719 0.35874 0.56158 0.0
C423 C 0.38574 0.33253 0.607 0.0
C424 C 0.39392 0.34498 0.65395 0.0
C425 C 0.38786 0.38367 0.65489 0.0
C426 C 0.3744 0.40975 0.61103 0.0
C427 C 0.36894 0.4494 0.6229 0.0
C428 C 0.39576 0.47913 0.59547 0.0
C429 C 0.32617 0.46203 0.60918 0.0
C430 C 0.38131 0.44151 0.6803 0.0
C431 C 0.39237 0.40348 0.69791 0.0
C432 C 0.40511 0.38934 0.74949 0.0
C433 C 0.40668 0.41476 0.78398 0.0
C434 C 0.39533 0.45384 0.76687 0.0
C435 C 0.38237 0.46721 0.7143 0.0
H436 H 0.67361 0.60506 0.6203 0.0
H437 H 0.71656 0.71151 0.53558 0.0
H438 H 0.69833 0.68767 0.45567 0.0
H439 H 0.69844 0.54022 0.54326 0.0
H440 H 0.65407 0.51276 0.5458 0.0
H441 H 0.67289 0.53661 0.59778 0.0
H442 H 0.60762 0.57274 0.58793 0.0
H443 H 0.58849 0.5488 0.53615 0.0
H444 H 0.58833 0.60073 0.52653 0.0
H445 H 0.67855 0.65158 0.3853 0.0
H446 H 0.65146 0.60901 0.32715 0.0
H447 H 0.61071 0.53082 0.45459 0.0
C448 C 0.67893 0.62376 0.58515 0.0
C449 C 0.69759 0.66001 0.5852 0.0
C450 C 0.70393 0.68301 0.53764 0.0
C451 C 0.69322 0.66994 0.49162 0.0
C452 C 0.67521 0.63418 0.49324 0.0
C453 C 0.66737 0.6117 0.53853 0.0
C454 C 0.64558 0.57536 0.52898 0.0
C455 C 0.66917 0.5391 0.55554 0.0
C456 C 0.6051 0.57437 0.54589 0.0
C457 C 0.64282 0.58088 0.47124 0.0
C458 C 0.66062 0.61476 0.45168 0.0
C459 C 0.66364 0.62541 0.39992 0.0
C460 C 0.64758 0.60105 0.367 0.0
C461 C 0.62763 0.56672 0.38547 0.0
C462 C 0.62556 0.55664 0.43867 0.0
H463 H 0.86732 0.12539 0.01265 0.0
H464 H 0.86611 0.24758 0.94744 0.0
H465 H 0.89497 0.23384 0.87379 0.0
H466 H 0.95736 0.10365 0.9794 0.0
H467 H 0.94266 0.05729 0.96439 0.0
H468 H 0.91976 0.07655 0.01015 0.0
H469 H 0.85222 0.06983 0.95755 0.0
H470 H 0.8749 0.05029 0.91175 0.0
H471 H 0.84379 0.09193 0.89073 0.0
H472 H 0.92933 0.20695 0.81133 0.0
H473 H 0.96287 0.16901 0.76246 0.0
H474 H 0.93753 0.06393 0.866 0.0
C475 C 0.87287 0.14919 0.98262 0.0
C476 C 0.86452 0.18755 0.98562 0.0
C477 C 0.87195 0.21796 0.94553 0.0
C478 C 0.88847 0.21044 0.90373 0.0
C479 C 0.89689 0.17231 0.90232 0.0
C480 C 0.88888 0.14215 0.9404 0.0
C481 C 0.90122 0.10387 0.93026 0.0
C482 C 0.93208 0.0842 0.97362 0.0
C483 C 0.86593 0.07743 0.92207 0.0
C484 C 0.91827 0.11726 0.88114 0.0
C485 C 0.91553 0.1568 0.86561 0.0
C486 C 0.93103 0.17588 0.82265 0.0
C487 C 0.94986 0.15396 0.7949 0.0
C488 C 0.95286 0.11327 0.80994 0.0
C489 C 0.93635 0.09492 0.8535 0.0
H490 H 0.43693 0.36735 0.39903 0.0
H491 H 0.31578 0.38437 0.33429 0.0
H492 H 0.33529 0.42115 0.25389 0.0
H493 H 0.47269 0.45986 0.34075 0.0
H494 H 0.51713 0.44087 0.32825 0.0
H495 H 0.49408 0.41692 0.38156 0.0
H496 H 0.49211 0.35312 0.34698 0.0
H497 H 0.51552 0.37686 0.29388 0.0
H498 H 0.46978 0.35254 0.28231 0.0
H499 H 0.36767 0.45816 0.18247 0.0
H500 H 0.41059 0.48807 0.121 0.0
H501 H 0.51133 0.44214 0.22774 0.0
C502 C 0.41464 0.37901 0.36787 0.0
C503 C 0.37483 0.37332 0.37269 0.0
C504 C 0.34637 0.38846 0.33111 0.0
C505 C 0.3572 0.40946 0.28549 0.0
C506 C 0.39664 0.41459 0.28184 0.0
C507 C 0.42499 0.39944 0.32158 0.0
C508 C 0.4653 0.40792 0.30669 0.0
C509 C 0.48866 0.43288 0.3414 0.0
C510 C 0.48694 0.37037 0.30751 0.0
C511 C 0.45515 0.43033 0.25249 0.0
C512 C 0.41537 0.43415 0.2393 0.0
C513 C 0.39882 0.45466 0.19202 0.0
C514 C 0.4235 0.47119 0.15698 0.0
C515 C 0.4643 0.46639 0.16849 0.0
C516 C 0.48028 0.44606 0.21737 0.0
H517 H 0.17759 0.93004 0.8957 0.0
H518 H 0.15989 0.81037 0.88081 0.0
H519 H 0.12375 0.8312 0.79416 0.0
H520 H 0.08558 0.96532 0.83207 0.0
H521 H 0.10344 0.01043 0.79949 0.0
H522 H 0.12915 0.98665 0.85979 0.0
H523 H 0.19205 0.98628 0.81914 0.0
H524 H 0.16686 0.01058 0.75871 0.0
H525 H 0.19144 0.9656 0.76266 0.0
H526 H 0.08731 0.86435 0.7119 0.0
H527 H 0.05509 0.90829 0.63599 0.0
H528 H 0.09807 1.00702 0.70116 0.0
C529 C 0.16608 0.90832 0.87405 0.0
C530 C 0.17138 0.86861 0.89473 0.0
C531 C 0.15632 0.84091 0.86533 0.0
C532 C 0.13568 0.85246 0.81628 0.0
C533 C 0.13078 0.8918 0.79708 0.0
C534 C 0.14583 0.91937 0.82469 0.0
C535 C 0.13657 0.95978 0.79474 0.0
C536 C 0.11221 0.98185 0.82321 0.0
C537 C 0.17396 0.98185 0.78312 0.0
C538 C 0.11318 0.95056 0.74643 0.0
C539 C 0.11041 0.91111 0.74871 0.0
C540 C 0.08986 0.89525 0.7093 0.0
C541 C 0.07207 0.92037 0.66608 0.0
C542 C 0.07528 0.96074 0.66224 0.0
C543 C 0.09562 0.97614 0.70317 0.0
loop_
_geom_bond_atom_site_label_1
_geom_bond_atom_site_label_2
_geom_bond_distance
_geom_bond_site_symmetry_2
_ccdc_geom_bond_type
H0 C7 0.929 . S
H1 C10 0.930 . S
H2 C12 0.929 . S
H3 C4 0.969 . S
C4 H3 0.969 . S
C4 O5 1.550 . S
C4 H6 0.973 . S
O5 C4 1.550 . S
O5 C11 1.412 . S
H6 C4 0.973 . S
C7 H0 0.929 . S
C7 C8 1.400 1_554 S
C7 C9 1.364 . S
C8 C7 1.400 1_556 S
C8 C12 1.377 . S
C9 C7 1.364 . S
C9 C10 1.374 . S
C10 H1 0.930 . S
C10 C9 1.374 . S
C10 C11 1.383 . S
C11 O5 1.412 . S
C11 C10 1.383 . S
C11 C12 1.394 1_554 S
C12 H2 0.929 . S
C12 C8 1.377 . S
C12 C11 1.394 1_556 S
H13 C20 0.929 . S
H14 C23 0.930 . S
H15 C25 0.929 . S
H16 C17 0.969 . S
C17 H16 0.969 . S
C17 O18 1.550 . S
C17 H19 0.973 . S
O18 C17 1.550 . S
O18 C24 1.412 . S
H19 C17 0.973 . S
C20 H13 0.929 . S
C20 C21 1.400 . S
C20 C22 1.364 . S
C21 C20 1.400 . S
C21 C25 1.377 . S
C22 C20 1.364 . S
C22 C23 1.374 . S
C23 H14 0.930 . S
C23 C22 1.374 . S
C23 C24 1.383 . S
C24 O18 1.412 . S
C24 C23 1.383 . S
C24 C25 1.394 . S
C25 H15 0.929 . S
C25 C21 1.377 . S
C25 C24 1.394 . S
H26 C33 0.929 . S
H27 C36 0.930 1_556 S
H28 C38 0.929 . S
H29 C30 0.969 . S
C30 H29 0.969 . S
C30 O31 1.550 . S
C30 H32 0.973 1_554 S
O31 C30 1.550 . S
O31 C37 1.412 . S
H32 C30 0.973 1_556 S
C33 H26 0.929 . S
C33 C34 1.400 . S
C33 C35 1.364 . S
C34 C33 1.400 . S
C34 C38 1.377 . S
C35 C33 1.364 . S
C35 C36 1.374 . S
C36 H27 0.930 1_554 S
C36 C35 1.374 . S
C36 C37 1.383 . S
C37 O31 1.412 . S
C37 C36 1.383 . S
C37 C38 1.394 . S
C38 H28 0.929 . S
C38 C34 1.377 . S
C38 C37 1.394 . S
H39 C46 0.929 . S
H40 C49 0.930 . S
H41 C51 0.929 . S
H42 C43 0.969 . S
C43 H42 0.969 . S
C43 O44 1.550 . S
C43 H45 0.973 . S
O44 C43 1.550 . S
O44 C50 1.412 . S
H45 C43 0.973 . S
C46 H39 0.929 . S
C46 C47 1.400 . S
C46 C48 1.364 . S
C47 C46 1.400 . S
C47 C51 1.377 . S
C48 C46 1.364 . S
C48 C49 1.374 . S
C49 H40 0.930 . S
C49 C48 1.374 . S
C49 C50 1.383 . S
C50 O44 1.412 . S
C50 C49 1.383 . S
C50 C51 1.394 . S
C51 H41 0.929 . S
C51 C47 1.377 . S
C51 C50 1.394 . S
Tb52 N81 2.617 . S
Tb52 N87 2.572 . S
Tb52 O96 2.465 . S
Tb52 O97 2.387 . S
Tb52 O99 2.428 . S
Tb52 O100 2.308 1_565 S
Tb52 O104 2.349 1_465 S
Tb52 O107 2.393 1_455 S
Tb52 C116 2.802 . S
C53 N54 1.379 . S
C53 C56 1.416 . S
C53 C60 1.424 . S
N54 C53 1.379 . S
N54 C57 1.334 1_655 S
N54 Tb63 2.617 . S
C55 C57 1.390 . S
C55 C58 1.339 1_455 S
C55 H75 0.930 . S
C56 C53 1.416 . S
C56 C58 1.416 . S
C56 C62 1.448 . S
C57 N54 1.334 1_455 S
C57 C55 1.390 . S
C57 H68 0.930 . S
C58 C55 1.339 1_655 S
C58 C56 1.416 . S
C58 H79 0.930 . S
C59 C60 1.413 . S
C59 C61 1.427 . S
C59 C65 1.416 . S
C60 C53 1.424 . S
C60 C59 1.413 . S
C60 N64 1.361 . S
C61 C59 1.427 . S
C61 C62 1.328 . S
C61 H76 0.929 . S
C62 C56 1.448 . S
C62 C61 1.328 . S
C62 H77 0.930 . S
Tb63 N54 2.617 . S
Tb63 N64 2.572 . S
Tb63 O98 2.349 1_655 S
Tb63 O101 2.393 1_655 S
Tb63 O102 2.465 . S
Tb63 O103 2.387 . S
Tb63 O105 2.428 . S
Tb63 O106 2.308 1_545 S
Tb63 C127 2.802 . S
N64 C60 1.361 . S
N64 Tb63 2.572 . S
N64 C66 1.340 . S
C65 C59 1.416 . S
C65 C67 1.332 . S
C65 H73 0.931 . S
C66 N64 1.340 . S
C66 C67 1.407 . S
C66 H72 0.930 . S
C67 C65 1.332 . S
C67 C66 1.407 . S
C67 H69 0.929 . S
H68 C57 0.930 . S
H69 C67 0.929 . S
H70 C85 0.930 1_655 S
H71 C92 0.929 . S
H72 C66 0.930 . S
H73 C65 0.931 . S
H74 C88 0.930 . S
H75 C55 0.930 . S
H76 C61 0.929 . S
H77 C62 0.930 . S
H78 C83 0.930 1_655 S
H79 C58 0.930 . S
H80 C91 0.931 . S
N81 Tb52 2.617 . S
N81 C82 1.379 . S
N81 C85 1.334 . S
C82 N81 1.379 . S
C82 C84 1.416 . S
C82 C90 1.424 . S
C83 H78 0.930 1_455 S
C83 C85 1.390 . S
C83 C86 1.339 . S
C84 C82 1.416 . S
C84 C86 1.416 . S
C84 C117 1.448 . S
C85 H70 0.930 1_455 S
C85 N81 1.334 . S
C85 C83 1.390 . S
C86 C83 1.339 . S
C86 C84 1.416 . S
C86 H93 0.930 . S
N87 Tb52 2.572 . S
N87 C88 1.340 . S
N87 C90 1.361 . S
C88 H74 0.930 . S
C88 N87 1.340 . S
C88 C92 1.407 . S
C89 C90 1.413 . S
C89 C91 1.416 . S
C89 C118 1.427 . S
C90 C82 1.424 . S
C90 N87 1.361 . S
C90 C89 1.413 . S
C91 H80 0.931 . S
C91 C89 1.416 . S
C91 C92 1.332 . S
C92 H71 0.929 . S
C92 C88 1.407 . S
C92 C91 1.332 . S
H93 C86 0.930 . S
H94 C117 0.930 . S
H95 C118 0.929 . S
O96 Tb52 2.465 . S
O96 C116 1.264 . S
O97 Tb52 2.387 . S
O97 C108 1.264 . S
O98 Tb63 2.349 1_455 S
O98 C108 1.243 1_545 S
O99 Tb52 2.428 . S
O99 C116 1.256 . S
O100 Tb52 2.308 1_545 S
O100 C115 1.266 . S
O101 Tb63 2.393 1_455 S
O101 C115 1.248 . S
O102 Tb63 2.465 . S
O102 C127 1.264 . S
O103 Tb63 2.387 . S
O103 C119 1.264 . S
O104 Tb52 2.349 1_645 S
O104 C119 1.243 . S
O105 Tb63 2.428 . S
O105 C127 1.256 . S
O106 Tb63 2.308 1_565 S
O106 C126 1.266 . S
O107 Tb52 2.393 1_655 S
O107 C126 1.248 . S
C108 O97 1.264 . S
C108 O98 1.243 1_565 S
C109 C112 1.399 . S
C109 C114 1.383 . S
C109 C116 1.496 . S
C110 C111 1.399 . S
C110 C114 1.389 . S
C111 C110 1.399 . S
C111 C113 1.380 . S
C111 H128 0.929 . S
C112 C109 1.399 . S
C112 C113 1.392 . S
C112 H129 0.929 . S
C113 C111 1.380 . S
C113 C112 1.392 . S
C113 H130 0.929 . S
C114 C109 1.383 . S
C114 C110 1.389 . S
C114 H131 0.931 . S
C115 O100 1.266 . S
C115 O101 1.248 . S
C116 Tb52 2.802 . S
C116 O96 1.264 . S
C116 O99 1.256 . S
C116 C109 1.496 . S
C117 C84 1.448 . S
C117 H94 0.930 . S
C117 C118 1.328 . S
C118 C89 1.427 . S
C118 H95 0.929 . S
C118 C117 1.328 . S
C119 O103 1.264 . S
C119 O104 1.243 . S
C120 C123 1.399 . S
C120 C124 1.383 . S
C120 C127 1.496 . S
C121 C122 1.399 . S
C121 C124 1.389 . S
C122 C121 1.399 . S
C122 C125 1.380 . S
C122 H132 0.929 . S
C123 C120 1.399 . S
C123 C125 1.392 . S
C123 H133 0.929 . S
C124 C120 1.383 . S
C124 C121 1.389 . S
C124 H134 0.931 . S
C125 C122 1.380 . S
C125 C123 1.392 . S
C125 H135 0.929 . S
C126 O106 1.266 . S
C126 O107 1.248 . S
C127 Tb63 2.802 . S
C127 O102 1.264 . S
C127 O105 1.256 . S
C127 C120 1.496 . S
H128 C111 0.929 . S
H129 C112 0.929 . S
H130 C113 0.929 . S
H131 C114 0.931 . S
H132 C122 0.929 . S
H133 C123 0.929 . S
H134 C124 0.931 . S
H135 C125 0.929 . S
Tb136 N165 2.617 . S
Tb136 N171 2.572 1_556 S
Tb136 O180 2.465 . S
Tb136 O181 2.387 1_556 S
Tb136 O183 2.428 . S
Tb136 O184 2.308 1_556 S
Tb136 O188 2.349 . S
Tb136 O191 2.393 1_556 S
Tb136 C200 2.802 . S
C137 N138 1.379 . S
C137 C140 1.416 . S
C137 C144 1.424 . S
N138 C137 1.379 . S
N138 C141 1.334 . S
N138 Tb147 2.617 . S
C139 C141 1.390 . S
C139 C142 1.339 . S
C139 H159 0.930 . S
C140 C137 1.416 . S
C140 C142 1.416 . S
C140 C146 1.448 . S
C141 N138 1.334 . S
C141 C139 1.390 . S
C141 H152 0.930 . S
C142 C139 1.339 . S
C142 C140 1.416 . S
C142 H163 0.930 . S
C143 C144 1.413 . S
C143 C145 1.427 . S
C143 C149 1.416 . S
C144 C137 1.424 . S
C144 C143 1.413 . S
C144 N148 1.361 . S
C145 C143 1.427 . S
C145 C146 1.328 . S
C145 H160 0.929 . S
C146 C140 1.448 . S
C146 C145 1.328 . S
C146 H161 0.930 . S
Tb147 N138 2.617 . S
Tb147 N148 2.572 . S
Tb147 O182 2.349 . S
Tb147 O185 2.393 . S
Tb147 O186 2.465 . S
Tb147 O187 2.387 . S
Tb147 O189 2.428 . S
Tb147 O190 2.308 . S
Tb147 C211 2.802 . S
N148 C144 1.361 . S
N148 Tb147 2.572 . S
N148 C150 1.340 . S
C149 C143 1.416 . S
C149 C151 1.332 . S
C149 H157 0.931 . S
C150 N148 1.340 . S
C150 C151 1.407 . S
C150 H156 0.930 . S
C151 C149 1.332 . S
C151 C150 1.407 . S
C151 H153 0.929 . S
H152 C141 0.930 . S
H153 C151 0.929 . S
H154 C169 0.930 . S
H155 C176 0.929 . S
H156 C150 0.930 . S
H157 C149 0.931 . S
H158 C172 0.930 . S
H159 C139 0.930 . S
H160 C145 0.929 . S
H161 C146 0.930 . S
H162 C167 0.930 . S
H163 C142 0.930 . S
H164 C175 0.931 . S
N165 Tb136 2.617 . S
N165 C166 1.379 1_556 S
N165 C169 1.334 . S
C166 N165 1.379 1_554 S
C166 C168 1.416 . S
C166 C174 1.424 . S
C167 H162 0.930 . S
C167 C169 1.390 . S
C167 C170 1.339 1_556 S
C168 C166 1.416 . S
C168 C170 1.416 . S
C168 C201 1.448 . S
C169 H154 0.930 . S
C169 N165 1.334 . S
C169 C167 1.390 . S
C170 C167 1.339 1_554 S
C170 C168 1.416 . S
C170 H177 0.930 . S
N171 Tb136 2.572 1_554 S
N171 C172 1.340 . S
N171 C174 1.361 . S
C172 H158 0.930 . S
C172 N171 1.340 . S
C172 C176 1.407 . S
C173 C174 1.413 . S
C173 C175 1.416 . S
C173 C202 1.427 . S
C174 C166 1.424 . S
C174 N171 1.361 . S
C174 C173 1.413 . S
C175 H164 0.931 . S
C175 C173 1.416 . S
C175 C176 1.332 . S
C176 H155 0.929 . S
C176 C172 1.407 . S
C176 C175 1.332 . S
H177 C170 0.930 . S
H178 C201 0.930 . S
H179 C202 0.929 . S
O180 Tb136 2.465 . S
O180 C200 1.264 . S
O181 Tb136 2.387 1_554 S
O181 C192 1.264 . S
O182 Tb147 2.349 . S
O182 C192 1.243 . S
O183 Tb136 2.428 . S
O183 C200 1.256 . S
O184 Tb136 2.308 1_554 S
O184 C199 1.266 . S
O185 Tb147 2.393 . S
O185 C199 1.248 . S
O186 Tb147 2.465 . S
O186 C211 1.264 . S
O187 Tb147 2.387 . S
O187 C203 1.264 1_554 S
O188 Tb136 2.349 . S
O188 C203 1.243 . S
O189 Tb147 2.428 . S
O189 C211 1.256 . S
O190 Tb147 2.308 . S
O190 C210 1.266 . S
O191 Tb136 2.393 1_554 S
O191 C210 1.248 . S
C192 O181 1.264 . S
C192 O182 1.243 . S
C193 C196 1.399 . S
C193 C198 1.383 . S
C193 C200 1.496 . S
C194 C195 1.399 . S
C194 C198 1.389 . S
C195 C194 1.399 . S
C195 C197 1.380 . S
C195 H212 0.929 . S
C196 C193 1.399 . S
C196 C197 1.392 . S
C196 H213 0.929 . S
C197 C195 1.380 . S
C197 C196 1.392 . S
C197 H214 0.929 . S
C198 C193 1.383 . S
C198 C194 1.389 . S
C198 H215 0.931 . S
C199 O184 1.266 . S
C199 O185 1.248 . S
C200 Tb136 2.802 . S
C200 O180 1.264 . S
C200 O183 1.256 . S
C200 C193 1.496 . S
C201 C168 1.448 . S
C201 H178 0.930 . S
C201 C202 1.328 . S
C202 C173 1.427 . S
C202 H179 0.929 . S
C202 C201 1.328 . S
C203 O187 1.264 1_556 S
C203 O188 1.243 . S
C204 C207 1.399 . S
C204 C208 1.383 . S
C204 C211 1.496 . S
C205 C206 1.399 . S
C205 C208 1.389 . S
C206 C205 1.399 . S
C206 C209 1.380 . S
C206 H216 0.929 . S
C207 C204 1.399 . S
C207 C209 1.392 . S
C207 H217 0.929 . S
C208 C204 1.383 . S
C208 C205 1.389 . S
C208 H218 0.931 . S
C209 C206 1.380 . S
C209 C207 1.392 . S
C209 H219 0.929 . S
C210 O190 1.266 . S
C210 O191 1.248 . S
C211 Tb147 2.802 . S
C211 O186 1.264 . S
C211 O189 1.256 . S
C211 C204 1.496 . S
H212 C195 0.929 . S
H213 C196 0.929 . S
H214 C197 0.929 . S
H215 C198 0.931 . S
H216 C206 0.929 . S
H217 C207 0.929 . S
H218 C208 0.931 . S
H219 C209 0.929 . S
H220 C232 0.930 . S
H221 C234 0.930 . S
H222 C235 0.930 . S
H223 C239 0.959 . S
H224 C239 0.959 . S
H225 C239 0.961 . S
H226 C240 0.960 . S
H227 C240 0.961 . S
H228 C240 0.959 . S
H229 C243 0.929 . S
H230 C244 0.931 . S
H231 C246 0.930 . S
C232 H220 0.930 . S
C232 C233 1.399 . S
C232 C237 1.399 . S
C233 C232 1.399 . S
C233 C234 1.376 . S
C234 H221 0.930 . S
C234 C233 1.376 . S
C234 C235 1.388 . S
C235 H222 0.930 . S
C235 C234 1.388 . S
C235 C236 1.390 . S
C236 C235 1.390 . S
C236 C237 1.394 . S
C236 C242 1.465 . S
C237 C232 1.399 . S
C237 C236 1.394 . S
C237 C238 1.516 . S
C238 C237 1.516 . S
C238 C239 1.502 . S
C238 C240 1.561 . S
C238 C241 1.526 . S
C239 H223 0.959 . S
C239 H224 0.959 . S
C239 H225 0.961 . S
C239 C238 1.502 . S
C240 H226 0.960 . S
C240 H227 0.961 . S
C240 H228 0.959 . S
C240 C238 1.561 . S
C241 C238 1.526 . S
C241 C242 1.396 . S
C241 C246 1.390 . S
C242 C236 1.465 . S
C242 C241 1.396 . S
C242 C243 1.399 . S
C243 H229 0.929 . S
C243 C242 1.399 . S
C243 C244 1.385 . S
C244 H230 0.931 . S
C244 C243 1.385 . S
C244 C245 1.389 . S
C245 C244 1.389 . S
C245 C246 1.387 . S
C246 H231 0.930 . S
C246 C241 1.390 . S
C246 C245 1.387 . S
H247 C259 0.930 1_556 S
H248 C261 0.930 . S
H249 C262 0.930 . S
H250 C266 0.959 . S
H251 C266 0.959 . S
H252 C266 0.961 . S
H253 C267 0.960 . S
H254 C267 0.961 . S
H255 C267 0.959 . S
H256 C270 0.929 . S
H257 C271 0.931 . S
H258 C273 0.930 1_556 S
C259 H247 0.930 1_554 S
C259 C260 1.399 . S
C259 C264 1.399 . S
C260 C259 1.399 . S
C260 C261 1.376 . S
C261 H248 0.930 . S
C261 C260 1.376 . S
C261 C262 1.388 . S
C262 H249 0.930 . S
C262 C261 1.388 . S
C262 C263 1.390 . S
C263 C262 1.390 . S
C263 C264 1.394 . S
C263 C269 1.465 . S
C264 C259 1.399 . S
C264 C263 1.394 . S
C264 C265 1.516 1_554 S
C265 C264 1.516 1_556 S
C265 C266 1.502 . S
C265 C267 1.561 . S
C265 C268 1.526 1_556 S
C266 H250 0.959 . S
C266 H251 0.959 . S
C266 H252 0.961 . S
C266 C265 1.502 . S
C267 H253 0.960 . S
C267 H254 0.961 . S
C267 H255 0.959 . S
C267 C265 1.561 . S
C268 C265 1.526 1_554 S
C268 C269 1.396 . S
C268 C273 1.390 . S
C269 C263 1.465 . S
C269 C268 1.396 . S
C269 C270 1.399 . S
C270 H256 0.929 . S
C270 C269 1.399 . S
C270 C271 1.385 . S
C271 H257 0.931 . S
C271 C270 1.385 . S
C271 C272 1.389 . S
C272 C271 1.389 . S
C272 C273 1.387 . S
C273 H258 0.930 1_554 S
C273 C268 1.390 . S
C273 C272 1.387 . S
H274 C286 0.930 . S
H275 C288 0.930 . S
H276 C289 0.930 . S
H277 C293 0.959 . S
H278 C293 0.959 . S
H279 C293 0.961 . S
H280 C294 0.960 . S
H281 C294 0.961 . S
H282 C294 0.959 . S
H283 C297 0.929 . S
H284 C298 0.931 . S
H285 C300 0.930 . S
C286 H274 0.930 . S
C286 C287 1.399 . S
C286 C291 1.399 . S
C287 C286 1.399 . S
C287 C288 1.376 . S
C288 H275 0.930 . S
C288 C287 1.376 . S
C288 C289 1.388 . S
C289 H276 0.930 . S
C289 C288 1.388 . S
C289 C290 1.390 . S
C290 C289 1.390 . S
C290 C291 1.394 . S
C290 C296 1.465 . S
C291 C286 1.399 . S
C291 C290 1.394 . S
C291 C292 1.516 . S
C292 C291 1.516 . S
C292 C293 1.502 . S
C292 C294 1.561 . S
C292 C295 1.526 . S
C293 H277 0.959 . S
C293 H278 0.959 . S
C293 H279 0.961 . S
C293 C292 1.502 . S
C294 H280 0.960 . S
C294 H281 0.961 . S
C294 H282 0.959 . S
C294 C292 1.561 . S
C295 C292 1.526 . S
C295 C296 1.396 . S
C295 C300 1.390 . S
C296 C290 1.465 . S
C296 C295 1.396 . S
C296 C297 1.399 . S
C297 H283 0.929 . S
C297 C296 1.399 . S
C297 C298 1.385 . S
C298 H284 0.931 . S
C298 C297 1.385 . S
C298 C299 1.389 . S
C299 C298 1.389 . S
C299 C300 1.387 . S
C300 H285 0.930 . S
C300 C295 1.390 . S
C300 C299 1.387 . S
H301 C313 0.914 1_556 S
H302 C315 0.930 . S
H303 C316 0.930 . S
H304 C320 0.959 . S
H305 C320 0.959 . S
H306 C320 0.961 . S
H307 C321 0.960 . S
H308 C321 0.961 . S
H309 C321 0.959 . S
H310 C324 0.929 . S
H311 C325 0.931 . S
H312 C327 0.930 1_556 S
C313 H301 0.914 1_554 S
C313 C314 1.408 . S
C313 C318 1.406 . S
C314 C313 1.408 . S
C314 C315 1.376 . S
C315 H302 0.930 . S
C315 C314 1.376 . S
C315 C316 1.388 . S
C316 H303 0.930 . S
C316 C315 1.388 . S
C316 C317 1.390 . S
C317 C316 1.390 . S
C317 C318 1.394 . S
C317 C323 1.465 . S
C318 C313 1.406 . S
C318 C317 1.394 . S
C318 C319 1.516 1_554 S
C319 C318 1.516 1_556 S
C319 C320 1.502 . S
C319 C321 1.561 . S
C319 C322 1.526 1_556 S
C320 H304 0.959 . S
C320 H305 0.959 . S
C320 H306 0.961 . S
C320 C319 1.502 . S
C321 H307 0.960 . S
C321 H308 0.961 . S
C321 H309 0.959 . S
C321 C319 1.561 . S
C322 C319 1.526 1_554 S
C322 C323 1.396 . S
C322 C327 1.390 . S
C323 C317 1.465 . S
C323 C322 1.396 . S
C323 C324 1.399 . S
C324 H310 0.929 . S
C324 C323 1.399 . S
C324 C325 1.385 . S
C325 H311 0.931 . S
C325 C324 1.385 . S
C325 C326 1.389 . S
C326 C325 1.389 . S
C326 C327 1.387 . S
C327 H312 0.930 1_554 S
C327 C322 1.390 . S
C327 C326 1.387 . S
H328 C340 0.930 . S
H329 C342 0.930 . S
H330 C343 0.930 . S
H331 C347 0.959 . S
H332 C347 0.959 . S
H333 C347 0.961 . S
H334 C348 0.960 . S
H335 C348 0.961 . S
H336 C348 0.959 . S
H337 C351 0.929 1_545 S
H338 C352 0.931 1_545 S
H339 C354 0.930 . S
C340 H328 0.930 . S
C340 C341 1.399 . S
C340 C345 1.399 . S
C341 C340 1.399 . S
C341 C342 1.376 . S
C342 H329 0.930 . S
C342 C341 1.376 . S
C342 C343 1.388 . S
C343 H330 0.930 . S
C343 C342 1.388 . S
C343 C344 1.390 . S
C344 C343 1.390 . S
C344 C345 1.394 . S
C344 C350 1.465 . S
C345 C340 1.399 . S
C345 C344 1.394 . S
C345 C346 1.516 . S
C346 C345 1.516 . S
C346 C347 1.502 . S
C346 C348 1.561 . S
C346 C349 1.526 . S
C347 H331 0.959 . S
C347 H332 0.959 . S
C347 H333 0.961 . S
C347 C346 1.502 . S
C348 H334 0.960 . S
C348 H335 0.961 . S
C348 H336 0.959 . S
C348 C346 1.561 . S
C349 C346 1.526 . S
C349 C350 1.396 . S
C349 C354 1.390 . S
C350 C344 1.465 . S
C350 C349 1.396 . S
C350 C351 1.399 . S
C351 H337 0.929 1_565 S
C351 C350 1.399 . S
C351 C352 1.385 . S
C352 H338 0.931 1_565 S
C352 C351 1.385 . S
C352 C353 1.389 . S
C353 C352 1.389 . S
C353 C354 1.387 . S
C354 H339 0.930 . S
C354 C349 1.390 . S
C354 C353 1.387 . S
H355 C367 0.930 . S
H356 C369 0.930 . S
H357 C370 0.930 . S
H358 C374 0.959 . S
H359 C374 0.959 . S
H360 C374 0.961 . S
H361 C375 0.960 . S
H362 C375 0.961 . S
H363 C375 0.959 . S
H364 C378 0.929 . S
H365 C379 0.931 . S
H366 C381 0.930 . S
C367 H355 0.930 . S
C367 C368 1.399 . S
C367 C372 1.399 . S
C368 C367 1.399 . S
C368 C369 1.376 . S
C369 H356 0.930 . S
C369 C368 1.376 . S
C369 C370 1.388 . S
C370 H357 0.930 . S
C370 C369 1.388 . S
C370 C371 1.390 . S
C371 C370 1.390 . S
C371 C372 1.394 . S
C371 C377 1.465 . S
C372 C367 1.399 . S
C372 C371 1.394 . S
C372 C373 1.516 . S
C373 C372 1.516 . S
C373 C374 1.502 . S
C373 C375 1.561 . S
C373 C376 1.526 . S
C374 H358 0.959 . S
C374 H359 0.959 . S
C374 H360 0.961 . S
C374 C373 1.502 . S
C375 H361 0.960 . S
C375 H362 0.961 . S
C375 H363 0.959 . S
C375 C373 1.561 . S
C376 C373 1.526 . S
C376 C377 1.396 . S
C376 C381 1.390 . S
C377 C371 1.465 . S
C377 C376 1.396 . S
C377 C378 1.399 . S
C378 H364 0.929 . S
C378 C377 1.399 . S
C378 C379 1.385 . S
C379 H365 0.931 . S
C379 C378 1.385 . S
C379 C380 1.389 . S
C380 C379 1.389 . S
C380 C381 1.387 . S
C381 H366 0.930 . S
C381 C376 1.390 . S
C381 C380 1.387 . S
H382 C394 0.930 . S
H383 C396 0.930 . S
H384 C397 0.930 . S
H385 C401 0.959 . S
H386 C401 0.959 . S
H387 C401 0.961 . S
H388 C402 0.954 1_565 S
H389 C402 0.961 1_565 S
H390 C402 0.959 . S
H391 C405 0.929 . S
H392 C406 0.931 . S
H393 C408 0.930 . S
C394 H382 0.930 . S
C394 C395 1.399 . S
C394 C399 1.399 . S
C395 C394 1.399 . S
C395 C396 1.376 . S
C396 H383 0.930 . S
C396 C395 1.376 . S
C396 C397 1.388 . S
C397 H384 0.930 . S
C397 C396 1.388 . S
C397 C398 1.390 . S
C398 C397 1.390 . S
C398 C399 1.394 . S
C398 C404 1.465 . S
C399 C394 1.399 . S
C399 C398 1.394 . S
C399 C400 1.516 . S
C400 C399 1.516 . S
C400 C401 1.502 . S
C400 C402 1.561 . S
C400 C403 1.526 . S
C401 H385 0.959 . S
C401 H386 0.959 . S
C401 H387 0.961 . S
C401 C400 1.502 . S
C402 H388 0.954 1_545 S
C402 H389 0.961 1_545 S
C402 H390 0.959 . S
C402 C400 1.561 . S
C403 C400 1.526 . S
C403 C404 1.396 . S
C403 C408 1.390 . S
C404 C398 1.465 . S
C404 C403 1.396 . S
C404 C405 1.399 . S
C405 H391 0.929 . S
C405 C404 1.399 . S
C405 C406 1.385 . S
C406 H392 0.931 . S
C406 C405 1.385 . S
C406 C407 1.389 . S
C407 C406 1.389 . S
C407 C408 1.387 . S
C408 H393 0.930 . S
C408 C403 1.390 . S
C408 C407 1.387 . S
H409 C421 0.930 . S
H410 C423 0.930 . S
H411 C424 0.930 . S
H412 C428 0.959 . S
H413 C428 0.959 . S
H414 C428 0.961 . S
H415 C429 0.960 . S
H416 C429 0.961 . S
H417 C429 0.959 . S
H418 C432 0.929 . S
H419 C433 0.931 . S
H420 C435 0.930 . S
C421 H409 0.930 . S
C421 C422 1.399 . S
C421 C426 1.399 . S
C422 C421 1.399 . S
C422 C423 1.376 . S
C423 H410 0.930 . S
C423 C422 1.376 . S
C423 C424 1.388 . S
C424 H411 0.930 . S
C424 C423 1.388 . S
C424 C425 1.390 . S
C425 C424 1.390 . S
C425 C426 1.394 . S
C425 C431 1.465 . S
C426 C421 1.399 . S
C426 C425 1.394 . S
C426 C427 1.516 . S
C427 C426 1.516 . S
C427 C428 1.502 . S
C427 C429 1.561 . S
C427 C430 1.526 . S
C428 H412 0.959 . S
C428 H413 0.959 . S
C428 H414 0.961 . S
C428 C427 1.502 . S
C429 H415 0.960 . S
C429 H416 0.961 . S
C429 H417 0.959 . S
C429 C427 1.561 . S
C430 C427 1.526 . S
C430 C431 1.396 . S
C430 C435 1.390 . S
C431 C425 1.465 . S
C431 C430 1.396 . S
C431 C432 1.399 . S
C432 H418 0.929 . S
C432 C431 1.399 . S
C432 C433 1.385 . S
C433 H419 0.931 . S
C433 C432 1.385 . S
C433 C434 1.389 . S
C434 C433 1.389 . S
C434 C435 1.387 . S
C435 H420 0.930 . S
C435 C430 1.390 . S
C435 C434 1.387 . S
H436 C448 0.930 . S
H437 C450 0.930 . S
H438 C451 0.930 . S
H439 C455 0.959 . S
H440 C455 0.959 . S
H441 C455 0.961 . S
H442 C456 0.960 . S
H443 C456 0.961 . S
H444 C456 0.959 . S
H445 C459 0.929 . S
H446 C460 0.931 . S
H447 C462 0.930 . S
C448 H436 0.930 . S
C448 C449 1.399 . S
C448 C453 1.399 . S
C449 C448 1.399 . S
C449 C450 1.376 . S
C450 H437 0.930 . S
C450 C449 1.376 . S
C450 C451 1.388 . S
C451 H438 0.930 . S
C451 C450 1.388 . S
C451 C452 1.390 . S
C452 C451 1.390 . S
C452 C453 1.394 . S
C452 C458 1.465 . S
C453 C448 1.399 . S
C453 C452 1.394 . S
C453 C454 1.516 . S
C454 C453 1.516 . S
C454 C455 1.502 . S
C454 C456 1.561 . S
C454 C457 1.526 . S
C455 H439 0.959 . S
C455 H440 0.959 . S
C455 H441 0.961 . S
C455 C454 1.502 . S
C456 H442 0.960 . S
C456 H443 0.961 . S
C456 H444 0.959 . S
C456 C454 1.561 . S
C457 C454 1.526 . S
C457 C458 1.396 . S
C457 C462 1.390 . S
C458 C452 1.465 . S
C458 C457 1.396 . S
C458 C459 1.399 . S
C459 H445 0.929 . S
C459 C458 1.399 . S
C459 C460 1.385 . S
C460 H446 0.931 . S
C460 C459 1.385 . S
C460 C461 1.389 . S
C461 C460 1.389 . S
C461 C462 1.387 . S
C462 H447 0.930 . S
C462 C457 1.390 . S
C462 C461 1.387 . S
H463 C475 0.930 . S
H464 C477 0.930 . S
H465 C478 0.930 . S
H466 C482 0.959 . S
H467 C482 0.959 1_565 S
H468 C482 0.961 . S
H469 C483 0.960 . S
H470 C483 0.961 . S
H471 C483 0.959 . S
H472 C486 0.929 . S
H473 C487 0.931 . S
H474 C489 0.930 . S
C475 H463 0.930 . S
C475 C476 1.399 . S
C475 C480 1.399 . S
C476 C475 1.399 . S
C476 C477 1.376 . S
C477 H464 0.930 . S
C477 C476 1.376 . S
C477 C478 1.388 . S
C478 H465 0.930 . S
C478 C477 1.388 . S
C478 C479 1.390 . S
C479 C478 1.390 . S
C479 C480 1.394 . S
C479 C485 1.465 . S
C480 C475 1.399 . S
C480 C479 1.394 . S
C480 C481 1.516 . S
C481 C480 1.516 . S
C481 C482 1.502 . S
C481 C483 1.561 . S
C481 C484 1.526 . S
C482 H466 0.959 . S
C482 H467 0.959 1_545 S
C482 H468 0.961 . S
C482 C481 1.502 . S
C483 H469 0.960 . S
C483 H470 0.961 . S
C483 H471 0.959 . S
C483 C481 1.561 . S
C484 C481 1.526 . S
C484 C485 1.396 . S
C484 C489 1.390 . S
C485 C479 1.465 . S
C485 C484 1.396 . S
C485 C486 1.399 . S
C486 H472 0.929 . S
C486 C485 1.399 . S
C486 C487 1.385 . S
C487 H473 0.931 . S
C487 C486 1.385 . S
C487 C488 1.389 . S
C488 C487 1.389 . S
C488 C489 1.387 . S
C489 H474 0.930 . S
C489 C484 1.390 . S
C489 C488 1.387 . S
H490 C502 0.930 . S
H491 C504 0.930 . S
H492 C505 0.930 . S
H493 C509 0.959 . S
H494 C509 0.959 . S
H495 C509 0.961 . S
H496 C510 0.960 . S
H497 C510 0.961 . S
H498 C510 0.959 . S
H499 C513 0.929 . S
H500 C514 0.931 . S
H501 C516 0.930 . S
C502 H490 0.930 . S
C502 C503 1.399 . S
C502 C507 1.399 . S
C503 C502 1.399 . S
C503 C504 1.376 . S
C504 H491 0.930 . S
C504 C503 1.376 . S
C504 C505 1.388 . S
C505 H492 0.930 . S
C505 C504 1.388 . S
C505 C506 1.390 . S
C506 C505 1.390 . S
C506 C507 1.394 . S
C506 C512 1.465 . S
C507 C502 1.399 . S
C507 C506 1.394 . S
C507 C508 1.516 . S
C508 C507 1.516 . S
C508 C509 1.502 . S
C508 C510 1.561 . S
C508 C511 1.526 . S
C509 H493 0.959 . S
C509 H494 0.959 . S
C509 H495 0.961 . S
C509 C508 1.502 . S
C510 H496 0.960 . S
C510 H497 0.961 . S
C510 H498 0.959 . S
C510 C508 1.561 . S
C511 C508 1.526 . S
C511 C512 1.396 . S
C511 C516 1.390 . S
C512 C506 1.465 . S
C512 C511 1.396 . S
C512 C513 1.399 . S
C513 H499 0.929 . S
C513 C512 1.399 . S
C513 C514 1.385 . S
C514 H500 0.931 . S
C514 C513 1.385 . S
C514 C515 1.389 . S
C515 C514 1.389 . S
C515 C516 1.387 . S
C516 H501 0.930 . S
C516 C511 1.390 . S
C516 C515 1.387 . S
H517 C529 0.930 . S
H518 C531 0.930 . S
H519 C532 0.930 . S
H520 C536 0.976 . S
H521 C536 0.936 1_545 S
H522 C536 0.949 1_545 S
H523 C537 0.960 . S
H524 C537 0.961 . S
H525 C537 0.959 1_565 S
H526 C540 0.929 . S
H527 C541 0.931 . S
H528 C543 0.930 1_545 S
C529 H517 0.930 . S
C529 C530 1.399 . S
C529 C534 1.399 . S
C530 C529 1.399 . S
C530 C531 1.376 . S
C531 H518 0.930 . S
C531 C530 1.376 . S
C531 C532 1.388 . S
C532 H519 0.930 . S
C532 C531 1.388 . S
C532 C533 1.390 . S
C533 C532 1.390 . S
C533 C534 1.394 . S
C533 C539 1.465 . S
C534 C529 1.399 . S
C534 C533 1.394 . S
C534 C535 1.516 . S
C535 C534 1.516 . S
C535 C536 1.521 . S
C535 C537 1.561 1_565 S
C535 C538 1.526 . S
C536 H520 0.976 . S
C536 H521 0.936 1_565 S
C536 H522 0.949 1_565 S
C536 C535 1.521 . S
C537 H523 0.960 . S
C537 H524 0.961 . S
C537 H525 0.959 1_545 S
C537 C535 1.561 1_545 S
C538 C535 1.526 . S
C538 C539 1.396 . S
C538 C543 1.390 . S
C539 C533 1.465 . S
C539 C538 1.396 . S
C539 C540 1.399 . S
C540 H526 0.929 . S
C540 C539 1.399 . S
C540 C541 1.385 . S
C541 H527 0.931 . S
C541 C540 1.385 . S
C541 C542 1.389 . S
C542 C541 1.389 . S
C542 C543 1.387 . S
C543 H528 0.930 1_565 S
C543 C538 1.390 . S
C543 C542 1.387 . S
C245 C115 1.656 . S
C233 C43 1.547 . S
C260 C4 1.601 . S
C272 C210 1.651 . S
C287 C17 1.621 . S
C299 C126 1.669 . S
C314 C30 1.647 . S
C326 C199 1.612 . S
C353 C110 1.463 . S
C341 C9 1.570 . S
C380 C203 1.660 . S
C368 C21 1.666 . S
C395 C34 1.606 . S
C407 C119 1.617 . S
C422 C48 1.586 . S
C434 C194 1.449 . S
C461 C205 1.454 . S
C449 C22 1.580 . S
C488 C121 1.344 . S
C476 C35 1.583 1_556 S
C515 C192 1.662 . S
C503 C47 1.641 . S
C530 C8 1.601 . S
C542 C108 1.617 . S
