# Generated by pormake.
# Topology ssa, (4,4)-cn, num edge types: 1
# Building blocks:
#     Node 0, Type 0, BuildingBlock: KOZSID_clean_sbu_0, # of connection points: 4
#     Node 1, Type 0, BuildingBlock: KOZSID_clean_sbu_0, # of connection points: 4
#     Node 2, Type 0, BuildingBlock: KOZSID_clean_sbu_0, # of connection points: 4
#     Node 3, Type 0, BuildingBlock: KOZSID_clean_sbu_0, # of connection points: 4
#     Node 4, Type 0, BuildingBlock: KOZSID_clean_sbu_0, # of connection points: 4
#     Node 5, Type 0, BuildingBlock: KOZSID_clean_sbu_0, # of connection points: 4
#     Node 6, Type 1, BuildingBlock: MIFKUJ_clean_linker_1, # of connection points: 4
#     Node 7, Type 1, BuildingBlock: MIFKUJ_clean_linker_1, # of connection points: 4
#     Node 8, Type 1, BuildingBlock: MIFKUJ_clean_linker_1, # of connection points: 4
#     Node 9, Type 1, BuildingBlock: MIFKUJ_clean_linker_1, # of connection points: 4
#     Node 10, Type 1, BuildingBlock: MIFKUJ_clean_linker_1, # of connection points: 4
#     Node 11, Type 1, BuildingBlock: MIFKUJ_clean_linker_1, # of connection points: 4
#     Edge 12, Type (0, 1), BuildingBlock: TEMPAE_clean_linker_10, # of connection points: 2
#     Edge 13, Type (0, 1), BuildingBlock: TEMPAE_clean_linker_10, # of connection points: 2
#     Edge 14, Type (0, 1), BuildingBlock: TEMPAE_clean_linker_10, # of connection points: 2
#     Edge 15, Type (0, 1), BuildingBlock: TEMPAE_clean_linker_10, # of connection points: 2
#     Edge 16, Type (0, 1), BuildingBlock: TEMPAE_clean_linker_10, # of connection points: 2
#     Edge 17, Type (0, 1), BuildingBlock: TEMPAE_clean_linker_10, # of connection points: 2
#     Edge 18, Type (0, 1), BuildingBlock: TEMPAE_clean_linker_10, # of connection points: 2
#     Edge 19, Type (0, 1), BuildingBlock: TEMPAE_clean_linker_10, # of connection points: 2
#     Edge 20, Type (0, 1), BuildingBlock: TEMPAE_clean_linker_10, # of connection points: 2
#     Edge 21, Type (0, 1), BuildingBlock: TEMPAE_clean_linker_10, # of connection points: 2
#     Edge 22, Type (0, 1), BuildingBlock: TEMPAE_clean_linker_10, # of connection points: 2
#     Edge 23, Type (0, 1), BuildingBlock: TEMPAE_clean_linker_10, # of connection points: 2
#     Edge 24, Type (0, 1), BuildingBlock: TEMPAE_clean_linker_10, # of connection points: 2
#     Edge 25, Type (0, 1), BuildingBlock: TEMPAE_clean_linker_10, # of connection points: 2
#     Edge 26, Type (0, 1), BuildingBlock: TEMPAE_clean_linker_10, # of connection points: 2
#     Edge 27, Type (0, 1), BuildingBlock: TEMPAE_clean_linker_10, # of connection points: 2
#     Edge 28, Type (0, 1), BuildingBlock: TEMPAE_clean_linker_10, # of connection points: 2
#     Edge 29, Type (0, 1), BuildingBlock: TEMPAE_clean_linker_10, # of connection points: 2
#     Edge 30, Type (0, 1), BuildingBlock: TEMPAE_clean_linker_10, # of connection points: 2
#     Edge 31, Type (0, 1), BuildingBlock: TEMPAE_clean_linker_10, # of connection points: 2
#     Edge 32, Type (0, 1), BuildingBlock: TEMPAE_clean_linker_10, # of connection points: 2
#     Edge 33, Type (0, 1), BuildingBlock: TEMPAE_clean_linker_10, # of connection points: 2
#     Edge 34, Type (0, 1), BuildingBlock: TEMPAE_clean_linker_10, # of connection points: 2
#     Edge 35, Type (0, 1), BuildingBlock: TEMPAE_clean_linker_10, # of connection points: 2
# Relax obj value: 0.005
# Max RMSD: 0.021
# Mean RMSD: 0.012
data_MOF--net-ssa--node1-KOZSID_clean_sbu_0--node2-MIFKUJ_clean_linker_1--edge1-TEMPAE_clean_linker_10
_symmetry_space_group_name_H-M    P1
_symmetry_Int_Tables_number       1
_symmetry_cell_setting            triclinic
loop_
_symmetry_equiv_pos_as_xyz
'x, y, z'
_cell_length_a     65.650007
_cell_length_b     67.005177
_cell_length_c     42.804375
_cell_angle_alpha  87.601837
_cell_angle_beta   90.011167
_cell_angle_gamma 122.11616
loop_
_atom_site_label
_atom_site_type_symbol
_atom_site_fract_x
_atom_site_fract_y
_atom_site_fract_z
_atom_type_partial_charge
C0 C 0.96062 0.51168 0.99291 0.0
C1 C 0.93845 0.50455 0.00678 0.0
C2 C 0.93603 0.49125 0.03309 0.0
C3 C 0.95652 0.49063 0.03364 0.0
N4 N 0.97207 0.50289 0.00937 0.0
Co5 Co 0.00253 0.50398 0.99912 0.0
N6 N 0.99804 0.48304 0.03685 0.0
C7 C 0.97999 0.47399 0.05862 0.0
C8 C 0.98255 0.46172 0.08305 0.0
C9 C 0.0037 0.46325 0.07683 0.0
C10 C 0.01276 0.47627 0.04865 0.0
N11 N 0.03261 0.50457 0.98835 0.0
C12 C 0.04345 0.49484 0.00398 0.0
C13 C 0.06383 0.499 0.98793 0.0
C14 C 0.06634 0.51238 0.9616 0.0
C15 C 0.04732 0.51543 0.96294 0.0
N16 N 0.0074 0.52539 0.96188 0.0
C17 C 0.02628 0.53565 0.94126 0.0
C18 C 0.02527 0.55037 0.919 0.0
C19 C 0.00437 0.54927 0.92553 0.0
C20 C 0.9936 0.5336 0.95128 0.0
N21 N 0.02135 0.53195 0.02472 0.0
C22 C 0.04913 0.57052 0.06248 0.0
C23 C 0.05816 0.56901 0.03374 0.0
C24 C 0.04405 0.54983 0.01533 0.0
C25 C 0.02579 0.55264 0.07174 0.0
C26 C 0.01235 0.53365 0.05272 0.0
N27 N 0.98372 0.47598 0.97352 0.0
C28 C 0.97766 0.45652 0.92491 0.0
C29 C 0.95602 0.43702 0.9365 0.0
C30 C 0.94861 0.43711 0.96698 0.0
C31 C 0.96275 0.45649 0.98506 0.0
C32 C 0.99102 0.47577 0.94357 0.0
H33 H 0.95625 0.45531 0.00823 0.0
H34 H 0.00703 0.49036 0.93311 0.0
H35 H 0.05201 0.54981 0.9937 0.0
H36 H 0.99484 0.52042 0.06135 0.0
C37 C 0.96119 0.47787 0.05593 0.0
C38 C 0.96978 0.52629 0.9638 0.0
C39 C 0.03589 0.48264 0.03473 0.0
C40 C 0.04395 0.53006 0.94229 0.0
H41 H 0.92503 0.50805 0.9986 0.0
H42 H 0.92084 0.48252 0.04942 0.0
H43 H 0.97073 0.45315 0.10336 0.0
H44 H 0.01171 0.45599 0.0918 0.0
H45 H 0.07598 0.49344 0.99494 0.0
H46 H 0.08072 0.51964 0.94409 0.0
H47 H 0.03799 0.56035 0.89993 0.0
H48 H 0.99761 0.55862 0.91241 0.0
H49 H 0.07603 0.58265 0.02536 0.0
H50 H 0.01808 0.553 0.09393 0.0
H51 H 0.98396 0.45716 0.90127 0.0
H52 H 0.93203 0.42218 0.97695 0.0
C53 C 0.5372 0.01456 0.55572 0.0
C54 C 0.53841 0.00609 0.5854 0.0
C55 C 0.51737 0.98496 0.59069 0.0
C56 C 0.5045 0.98181 0.56419 0.0
N57 N 0.51616 0.99945 0.54199 0.0
Co58 Co 0.50301 0.00302 0.50118 0.0
N59 N 0.47137 0.97264 0.5099 0.0
C60 C 0.46551 0.95753 0.53512 0.0
C61 C 0.44366 0.93696 0.5333 0.0
C62 C 0.43504 0.93885 0.50513 0.0
C63 C 0.45203 0.96082 0.49146 0.0
N64 N 0.48966 0.00705 0.46091 0.0
C65 C 0.46779 0.99304 0.44838 0.0
C66 C 0.46538 0.00331 0.42088 0.0
C67 C 0.48675 0.02406 0.41525 0.0
C68 C 0.50083 0.02551 0.43973 0.0
N69 N 0.53486 0.03297 0.49196 0.0
C70 C 0.5416 0.04706 0.46557 0.0
C71 C 0.5646 0.06635 0.46597 0.0
C72 C 0.573 0.06465 0.49448 0.0
C73 C 0.55447 0.04442 0.50994 0.0
N74 N 0.5148 0.98509 0.47989 0.0
C75 C 0.52848 0.95773 0.44816 0.0
C76 C 0.53126 0.97821 0.43391 0.0
C77 C 0.52435 0.99149 0.45003 0.0
C78 C 0.51934 0.95158 0.47889 0.0
C79 C 0.51283 0.96544 0.49421 0.0
N80 N 0.49124 0.02092 0.52246 0.0
C81 C 0.49085 0.05658 0.52683 0.0
C82 C 0.47737 0.04783 0.55481 0.0
C83 C 0.47045 0.02511 0.56591 0.0
C84 C 0.47748 0.01206 0.54947 0.0
C85 C 0.49744 0.04293 0.51114 0.0
H86 H 0.47177 0.99494 0.55927 0.0
H87 H 0.5079 0.05077 0.49016 0.0
H88 H 0.52667 0.0067 0.43767 0.0
H89 H 0.50587 0.95963 0.51747 0.0
C90 C 0.48126 0.96278 0.55971 0.0
C91 C 0.55596 0.0375 0.54218 0.0
C92 C 0.44928 0.96946 0.4607 0.0
C93 C 0.52502 0.04319 0.44248 0.0
H94 H 0.55275 0.0145 0.60186 0.0
H95 H 0.51188 0.97351 0.61164 0.0
H96 H 0.43528 0.92207 0.5501 0.0
H97 H 0.41831 0.92524 0.49568 0.0
H98 H 0.44994 0.99631 0.40603 0.0
H99 H 0.49161 0.0364 0.39534 0.0
H100 H 0.57383 0.08046 0.44818 0.0
H101 H 0.59053 0.07723 0.50328 0.0
H102 H 0.53869 0.98404 0.41034 0.0
H103 H 0.5166 0.93576 0.49096 0.0
H104 H 0.49689 0.07417 0.51738 0.0
H105 H 0.45964 0.01738 0.58721 0.0
C106 C 0.53982 0.52864 0.95016 0.0
C107 C 0.54497 0.5411 0.9215 0.0
C108 C 0.52534 0.54217 0.91431 0.0
C109 C 0.50929 0.53017 0.93867 0.0
N110 N 0.51758 0.52177 0.96132 0.0
Co111 Co 0.49909 0.50118 0.9992 0.0
N112 N 0.46976 0.50171 0.98764 0.0
C113 C 0.46751 0.51351 0.96282 0.0
C114 C 0.4455 0.51118 0.96152 0.0
C115 C 0.43305 0.49742 0.98738 0.0
C116 C 0.44831 0.49222 0.00308 0.0
N117 N 0.48029 0.47972 0.0363 0.0
C118 C 0.45761 0.47183 0.04674 0.0
C119 C 0.45174 0.45755 0.07391 0.0
C120 C 0.47137 0.45642 0.08087 0.0
C121 C 0.48809 0.47004 0.05778 0.0
N122 N 0.5287 0.50146 0.01146 0.0
C123 C 0.53162 0.49142 0.03775 0.0
C124 C 0.55413 0.495 0.04008 0.0
C125 C 0.56629 0.50791 0.01354 0.0
C126 C 0.55032 0.51129 0.99637 0.0
N127 N 0.50971 0.52934 0.02414 0.0
C128 C 0.52204 0.56819 0.06033 0.0
C129 C 0.51944 0.54769 0.07398 0.0
C130 C 0.51362 0.52875 0.05556 0.0
C131 C 0.51892 0.56923 0.02821 0.0
C132 C 0.51259 0.54967 0.01072 0.0
N133 N 0.48846 0.47306 0.97433 0.0
C134 C 0.48582 0.43618 0.96685 0.0
C135 C 0.47524 0.43405 0.93785 0.0
C136 C 0.47105 0.45162 0.92768 0.0
C137 C 0.47772 0.47078 0.94612 0.0
C138 C 0.49218 0.45562 0.98456 0.0
H139 H 0.47415 0.48359 0.93692 0.0
H140 H 0.50035 0.45628 0.00631 0.0
H141 H 0.51218 0.51376 0.06741 0.0
H142 H 0.50982 0.55135 0.9865 0.0
C143 C 0.48621 0.52619 0.94077 0.0
C144 C 0.55618 0.52293 0.96524 0.0
C145 C 0.44178 0.47875 0.03299 0.0
C146 C 0.51214 0.47657 0.05792 0.0
H147 H 0.56102 0.54831 0.90688 0.0
H148 H 0.52287 0.5503 0.89348 0.0
H149 H 0.4393 0.51869 0.94393 0.0
H150 H 0.41486 0.49201 0.99413 0.0
H151 H 0.43533 0.44944 0.08798 0.0
H152 H 0.47358 0.44762 0.10118 0.0
H153 H 0.56065 0.48828 0.05834 0.0
H154 H 0.58463 0.51367 0.00713 0.0
H155 H 0.52199 0.54632 0.09882 0.0
H156 H 0.52068 0.58483 0.01677 0.0
H157 H 0.48969 0.42318 0.97563 0.0
H158 H 0.46257 0.45059 0.90559 0.0
C159 C 0.95492 0.45038 0.5096 0.0
C160 C 0.93261 0.43424 0.49776 0.0
C161 C 0.93001 0.44469 0.47137 0.0
C162 C 0.95062 0.4666 0.46875 0.0
N163 N 0.96645 0.47074 0.49164 0.0
Co164 Co 0.99754 0.50119 0.4985 0.0
N165 N 0.99281 0.51708 0.46089 0.0
C166 C 0.97448 0.50719 0.44074 0.0
C167 C 0.97671 0.52211 0.41625 0.0
C168 C 0.9979 0.54272 0.42074 0.0
C169 C 0.00733 0.53917 0.44793 0.0
N170 N 0.02819 0.53183 0.50604 0.0
C171 C 0.03893 0.55271 0.48934 0.0
C172 C 0.05993 0.56973 0.50302 0.0
C173 C 0.0628 0.5591 0.52903 0.0
C174 C 0.04341 0.53636 0.52986 0.0
N175 N 0.00265 0.48517 0.53554 0.0
C176 C 0.02201 0.49446 0.55405 0.0
C177 C 0.0206 0.47902 0.57726 0.0
C178 C 0.99892 0.45872 0.57359 0.0
C179 C 0.98825 0.46305 0.5484 0.0
N180 N 0.01526 0.49166 0.47146 0.0
C181 C 0.04097 0.47908 0.43246 0.0
C182 C 0.05126 0.49177 0.45915 0.0
C183 C 0.03817 0.49761 0.47823 0.0
C184 C 0.01747 0.47271 0.42578 0.0
C185 C 0.00513 0.47925 0.44527 0.0
N186 N 0.97984 0.51064 0.52554 0.0
C187 C 0.97475 0.52399 0.57489 0.0
C188 C 0.95333 0.52166 0.56516 0.0
C189 C 0.94562 0.51417 0.5351 0.0
C190 C 0.95914 0.50898 0.51574 0.0
C191 C 0.98756 0.51832 0.55492 0.0
H192 H 0.95237 0.50348 0.49305 0.0
H193 H 0.00348 0.51999 0.56393 0.0
H194 H 0.04713 0.50714 0.49819 0.0
H195 H 0.98745 0.4741 0.43855 0.0
C196 C 0.95536 0.4839 0.44556 0.0
C197 C 0.96399 0.44596 0.53855 0.0
C198 C 0.03056 0.55698 0.45978 0.0
C199 C 0.0401 0.51834 0.55095 0.0
H200 H 0.91928 0.41686 0.5074 0.0
H201 H 0.91467 0.43739 0.4563 0.0
H202 H 0.9645 0.51836 0.39722 0.0
H203 H 0.00567 0.55847 0.40547 0.0
H204 H 0.07218 0.58782 0.49464 0.0
H205 H 0.07763 0.56683 0.54493 0.0
H206 H 0.03344 0.48237 0.59532 0.0
H207 H 0.99153 0.4427 0.58827 0.0
H208 H 0.06957 0.49758 0.46518 0.0
H209 H 0.00847 0.46259 0.40566 0.0
H210 H 0.98131 0.52963 0.59811 0.0
H211 H 0.92926 0.51243 0.52647 0.0
C212 C 0.46454 0.99132 0.05381 0.0
C213 C 0.46372 0.00208 0.08041 0.0
C214 C 0.48493 0.0233 0.0808 0.0
C215 C 0.49737 0.02434 0.05447 0.0
N216 N 0.48529 0.00523 0.03696 0.0
Co217 Co 0.49698 0.99927 0.99718 0.0
N218 N 0.52855 0.03023 0.99832 0.0
C219 C 0.53519 0.04681 0.01972 0.0
C220 C 0.55698 0.06705 0.01315 0.0
C221 C 0.56482 0.06328 0.98588 0.0
C222 C 0.54743 0.04064 0.97755 0.0
N223 N 0.50889 0.99303 0.95784 0.0
C224 C 0.53034 0.00613 0.94218 0.0
C225 C 0.53179 0.99442 0.91705 0.0
C226 C 0.51029 0.97353 0.91625 0.0
C227 C 0.4971 0.97349 0.94104 0.0
N228 N 0.46518 0.96856 0.99564 0.0
C229 C 0.45793 0.95262 0.97323 0.0
C230 C 0.43554 0.93291 0.9789 0.0
C231 C 0.42799 0.93634 0.00666 0.0
C232 C 0.44626 0.95817 0.01631 0.0
N233 N 0.48357 0.01511 0.97218 0.0
C234 C 0.46594 0.03863 0.93586 0.0
C235 C 0.46245 0.01719 0.927 0.0
C236 C 0.47145 0.00591 0.94525 0.0
C237 C 0.47818 0.04787 0.96343 0.0
C238 C 0.48652 0.03585 0.98115 0.0
N239 N 0.51036 0.98345 0.0222 0.0
C240 C 0.51253 0.9491 0.03431 0.0
C241 C 0.52743 0.95992 0.05948 0.0
C242 C 0.53397 0.98295 0.06528 0.0
C243 C 0.52522 0.99424 0.0466 0.0
C244 C 0.50448 0.96113 0.01602 0.0
H245 H 0.53059 0.01162 0.05253 0.0
H246 H 0.49324 0.95183 0.99726 0.0
H247 H 0.46848 0.98983 0.93697 0.0
H248 H 0.49554 0.0439 0.00184 0.0
C249 C 0.52032 0.04309 0.04544 0.0
C250 C 0.44532 0.96773 0.04594 0.0
C251 C 0.54957 0.02989 0.94965 0.0
C252 C 0.47348 0.95556 0.94879 0.0
H253 H 0.44934 0.99522 0.09787 0.0
H254 H 0.49065 0.03636 0.09827 0.0
H255 H 0.56592 0.08284 0.02633 0.0
H256 H 0.58138 0.07604 0.97348 0.0
H257 H 0.54677 0.00038 0.90079 0.0
H258 H 0.50489 0.96001 0.89953 0.0
H259 H 0.4262 0.91748 0.96508 0.0
H260 H 0.41119 0.92379 0.01873 0.0
H261 H 0.4528 0.00906 0.9061 0.0
H262 H 0.48185 0.06464 0.97116 0.0
H263 H 0.50654 0.93115 0.02903 0.0
H264 H 0.54579 0.9923 0.08415 0.0
C265 C 0.50989 0.55295 0.49164 0.0
C266 C 0.50322 0.56768 0.50363 0.0
C267 C 0.48888 0.556 0.52937 0.0
C268 C 0.48738 0.53481 0.53148 0.0
N269 N 0.50016 0.53231 0.50889 0.0
Co270 Co 0.50068 0.50324 0.50132 0.0
N271 N 0.47949 0.48609 0.53919 0.0
C272 C 0.47106 0.49483 0.55997 0.0
C273 C 0.45819 0.47941 0.58465 0.0
C274 C 0.45876 0.45974 0.57965 0.0
C275 C 0.47191 0.46433 0.55202 0.0
N276 N 0.50005 0.47374 0.49262 0.0
C277 C 0.4894 0.45272 0.50898 0.0
C278 C 0.49287 0.43663 0.49432 0.0
C279 C 0.50647 0.44801 0.4679 0.0
C280 C 0.51041 0.47026 0.46788 0.0
N281 N 0.52306 0.5208 0.46463 0.0
C282 C 0.53347 0.51279 0.44582 0.0
C283 C 0.54877 0.52915 0.42334 0.0
C284 C 0.54799 0.54876 0.42795 0.0
C285 C 0.53199 0.54309 0.45287 0.0
N286 N 0.52906 0.5141 0.52805 0.0
C287 C 0.56867 0.52816 0.56707 0.0
C288 C 0.56545 0.51512 0.54083 0.0
C289 C 0.54587 0.50853 0.5217 0.0
C290 C 0.55175 0.53422 0.5732 0.0
C291 C 0.53219 0.52696 0.55368 0.0
N292 N 0.47227 0.49236 0.47456 0.0
C293 C 0.45406 0.48223 0.42389 0.0
C294 C 0.43257 0.47884 0.43585 0.0
C295 C 0.43122 0.48189 0.46774 0.0
C296 C 0.45112 0.48877 0.48641 0.0
C297 C 0.4734 0.48868 0.44351 0.0
H298 H 0.44893 0.4912 0.51032 0.0
H299 H 0.48915 0.49083 0.43285 0.0
H300 H 0.54462 0.49872 0.50206 0.0
H301 H 0.51978 0.53188 0.55992 0.0
C302 C 0.47472 0.51721 0.55489 0.0
C303 C 0.52492 0.55902 0.46339 0.0
C304 C 0.47708 0.44766 0.53923 0.0
C305 C 0.52633 0.48907 0.44754 0.0
H306 H 0.50795 0.58498 0.4946 0.0
H307 H 0.48041 0.56216 0.54461 0.0
H308 H 0.44947 0.48216 0.60397 0.0
H309 H 0.45054 0.44384 0.59469 0.0
H310 H 0.48678 0.41874 0.5024 0.0
H311 H 0.51351 0.4412 0.45141 0.0
H312 H 0.55865 0.52684 0.4051 0.0
H313 H 0.55761 0.56518 0.41401 0.0
H314 H 0.57773 0.50957 0.53524 0.0
H315 H 0.55355 0.54461 0.59292 0.0
H316 H 0.45627 0.48041 0.39931 0.0
H317 H 0.41486 0.47901 0.47843 0.0
H318 H 0.1761 0.4234 0.16383 0.0
H319 H 0.14699 0.42781 0.13331 0.0
H320 H 0.1642 0.48896 0.18418 0.0
H321 H 0.1939 0.48511 0.21381 0.0
H322 H 0.22297 0.45065 0.16876 0.0
H323 H 0.15495 0.42268 0.23992 0.0
H324 H 0.12505 0.42621 0.26892 0.0
H325 H 0.18203 0.48276 0.31981 0.0
H326 H 0.21173 0.48034 0.28915 0.0
H327 H 0.27256 0.48433 0.27942 0.0
H328 H 0.30543 0.48625 0.30909 0.0
H329 H 0.28514 0.41754 0.27885 0.0
H330 H 0.25248 0.41589 0.24841 0.0
H331 H 0.22238 0.44942 0.2847 0.0
H332 H 0.28926 0.4821 0.21351 0.0
H333 H 0.32205 0.48398 0.1838 0.0
H334 H 0.27055 0.42352 0.13359 0.0
H335 H 0.23765 0.42091 0.16449 0.0
C336 C 0.18689 0.45365 0.19153 0.0
C337 C 0.17372 0.43785 0.16828 0.0
C338 C 0.15711 0.44035 0.1509 0.0
C339 C 0.15325 0.45859 0.15667 0.0
C340 C 0.1666 0.47455 0.17966 0.0
C341 C 0.1835 0.4723 0.19663 0.0
C342 C 0.20438 0.45083 0.21015 0.0
C343 C 0.22252 0.44989 0.19414 0.0
C344 C 0.20419 0.45049 0.24331 0.0
C345 C 0.18566 0.4515 0.26194 0.0
C346 C 0.16099 0.43605 0.25704 0.0
C347 C 0.14388 0.4379 0.27395 0.0
C348 C 0.15107 0.45492 0.29659 0.0
C349 C 0.17578 0.46984 0.30206 0.0
C350 C 0.19283 0.46825 0.28481 0.0
C351 C 0.26019 0.45 0.26173 0.0
C352 C 0.27517 0.46967 0.27921 0.0
C353 C 0.29396 0.47082 0.29594 0.0
C354 C 0.29775 0.45208 0.29603 0.0
C355 C 0.28248 0.43217 0.27904 0.0
C356 C 0.26393 0.43123 0.26172 0.0
C357 C 0.2409 0.44952 0.24327 0.0
C358 C 0.22245 0.44975 0.25933 0.0
C359 C 0.24102 0.44961 0.21023 0.0
C360 C 0.26096 0.45095 0.19189 0.0
C361 C 0.28497 0.46885 0.19671 0.0
C362 C 0.3037 0.47004 0.17959 0.0
C363 C 0.29876 0.45378 0.15665 0.0
C364 C 0.27476 0.43623 0.1512 0.0
C365 C 0.25602 0.43476 0.1688 0.0
H366 H 0.73348 0.20472 0.81209 0.0
H367 H 0.70114 0.17361 0.84427 0.0
H368 H 0.69434 0.12233 0.77983 0.0
H369 H 0.72947 0.15335 0.75058 0.0
H370 H 0.77444 0.21795 0.79978 0.0
H371 H 0.70632 0.18942 0.7327 0.0
H372 H 0.67229 0.16102 0.70219 0.0
H373 H 0.72041 0.15078 0.64616 0.0
H374 H 0.75428 0.17876 0.67711 0.0
H375 H 0.82607 0.24454 0.68531 0.0
H376 H 0.8568 0.27984 0.6548 0.0
H377 H 0.82906 0.31982 0.69242 0.0
H378 H 0.79873 0.28463 0.72345 0.0
H379 H 0.7726 0.22425 0.68419 0.0
H380 H 0.84181 0.26303 0.7508 0.0
H381 H 0.87211 0.29673 0.77946 0.0
H382 H 0.81601 0.29238 0.83736 0.0
H383 H 0.78561 0.25978 0.80754 0.0
C384 C 0.73387 0.18166 0.77835 0.0
C385 C 0.72544 0.18673 0.80517 0.0
C386 C 0.70635 0.16876 0.82331 0.0
C387 C 0.69429 0.14518 0.8145 0.0
C388 C 0.70301 0.14008 0.78782 0.0
C389 C 0.72292 0.15801 0.77048 0.0
C390 C 0.75401 0.20135 0.75901 0.0
C391 C 0.77374 0.21938 0.77452 0.0
C392 C 0.7536 0.20315 0.72586 0.0
C393 C 0.73282 0.18595 0.70753 0.0
C394 C 0.70951 0.18085 0.7141 0.0
C395 C 0.69009 0.16466 0.69665 0.0
C396 C 0.69373 0.15368 0.67186 0.0
C397 C 0.71712 0.15911 0.66499 0.0
C398 C 0.73646 0.17505 0.68268 0.0
C399 C 0.81031 0.26212 0.70665 0.0
C400 C 0.82668 0.26094 0.68698 0.0
C401 C 0.84422 0.28104 0.66976 0.0
C402 C 0.8452 0.30242 0.67142 0.0
C403 C 0.82856 0.30348 0.69077 0.0
C404 C 0.81133 0.28349 0.70845 0.0
C405 C 0.79205 0.24096 0.72524 0.0
C406 C 0.77299 0.22264 0.70948 0.0
C407 C 0.79244 0.23948 0.75825 0.0
C408 C 0.81128 0.25905 0.77649 0.0
C409 C 0.83592 0.26956 0.76922 0.0
C410 C 0.85325 0.28865 0.78573 0.0
C411 C 0.84625 0.29701 0.81046 0.0
C412 C 0.82176 0.28611 0.81841 0.0
C413 C 0.80444 0.26745 0.80143 0.0
H414 H 0.59399 0.82714 0.31885 0.0
H415 H 0.5899 0.85519 0.34919 0.0
H416 H 0.52011 0.82989 0.30998 0.0
H417 H 0.52417 0.80183 0.28009 0.0
H418 H 0.56436 0.77751 0.31928 0.0
H419 H 0.58981 0.84412 0.24824 0.0
H420 H 0.58609 0.87447 0.22028 0.0
H421 H 0.52529 0.82038 0.1713 0.0
H422 H 0.52792 0.79018 0.20112 0.0
H423 H 0.52038 0.72801 0.21382 0.0
H424 H 0.51497 0.69555 0.18359 0.0
H425 H 0.58772 0.71501 0.20382 0.0
H426 H 0.59237 0.74669 0.23551 0.0
H427 H 0.55789 0.7778 0.20376 0.0
H428 H 0.52278 0.71526 0.28488 0.0
H429 H 0.5187 0.68187 0.3163 0.0
H430 H 0.59291 0.72505 0.34258 0.0
H431 H 0.59684 0.75857 0.31116 0.0
C432 C 0.55949 0.81259 0.29704 0.0
C433 C 0.5778 0.82763 0.31693 0.0
C434 C 0.57551 0.84371 0.33405 0.0
C435 C 0.5547 0.84473 0.33189 0.0
C436 C 0.53626 0.82937 0.3123 0.0
C437 C 0.53863 0.81346 0.29507 0.0
C438 C 0.56196 0.79588 0.27825 0.0
C439 C 0.56356 0.77796 0.29396 0.0
C440 C 0.56028 0.7961 0.24524 0.0
C441 C 0.55891 0.81479 0.22722 0.0
C442 C 0.57543 0.83879 0.23186 0.0
C443 C 0.57348 0.85618 0.21549 0.0
C444 C 0.55528 0.84994 0.19361 0.0
C445 C 0.53919 0.82589 0.18846 0.0
C446 C 0.54088 0.80854 0.20521 0.0
C447 C 0.55676 0.7397 0.22679 0.0
C448 C 0.53511 0.72518 0.21176 0.0
C449 C 0.53214 0.70673 0.19428 0.0
C450 C 0.55099 0.70269 0.1909 0.0
C451 C 0.57269 0.71732 0.20617 0.0
C452 C 0.57548 0.73556 0.22413 0.0
C453 C 0.55971 0.75936 0.2449 0.0
C454 C 0.55927 0.77782 0.22902 0.0
C455 C 0.56204 0.7595 0.27766 0.0
C456 C 0.56013 0.73926 0.29569 0.0
C457 C 0.5382 0.71747 0.29727 0.0
C458 C 0.53586 0.6985 0.3153 0.0
C459 C 0.55548 0.70097 0.33188 0.0
C460 C 0.57757 0.72271 0.32986 0.0
C461 C 0.57981 0.74182 0.31209 0.0
H462 H 0.73871 0.53034 0.71288 0.0
H463 H 0.70646 0.52757 0.68168 0.0
H464 H 0.70982 0.58385 0.732 0.0
H465 H 0.74348 0.58773 0.76161 0.0
H466 H 0.78253 0.56092 0.71819 0.0
H467 H 0.71478 0.52498 0.78749 0.0
H468 H 0.68036 0.52018 0.81685 0.0
H469 H 0.72825 0.5814 0.86845 0.0
H470 H 0.76268 0.5867 0.83825 0.0
H471 H 0.84925 0.58628 0.7842 0.0
H472 H 0.87865 0.58149 0.81178 0.0
H473 H 0.82269 0.53096 0.87716 0.0
H474 H 0.79299 0.53306 0.8463 0.0
H475 H 0.7806 0.56023 0.83401 0.0
H476 H 0.83268 0.59106 0.71607 0.0
H477 H 0.8612 0.58661 0.68514 0.0
H478 H 0.83459 0.51829 0.73167 0.0
H479 H 0.8068 0.52336 0.76327 0.0
C480 C 0.74346 0.5591 0.73985 0.0
C481 C 0.73276 0.54233 0.71695 0.0
C482 C 0.714 0.54052 0.6994 0.0
C483 C 0.7052 0.55524 0.70457 0.0
C484 C 0.71619 0.57231 0.72721 0.0
C485 C 0.73528 0.57438 0.74444 0.0
C486 C 0.76291 0.56018 0.759 0.0
C487 C 0.78209 0.5608 0.74354 0.0
C488 C 0.7622 0.55958 0.79212 0.0
C489 C 0.74131 0.5565 0.81019 0.0
C490 C 0.71789 0.53762 0.80474 0.0
C491 C 0.69824 0.53483 0.82157 0.0
C492 C 0.7017 0.5505 0.84475 0.0
C493 C 0.72515 0.56906 0.85074 0.0
C494 C 0.74478 0.57208 0.83352 0.0
C495 C 0.81859 0.55944 0.81227 0.0
C496 C 0.84315 0.57359 0.80387 0.0
C497 C 0.8602 0.57123 0.82037 0.0
C498 C 0.85335 0.55558 0.84688 0.0
C499 C 0.82887 0.54255 0.85634 0.0
C500 C 0.81173 0.54413 0.83896 0.0
C501 C 0.79996 0.56029 0.79324 0.0
C502 C 0.78108 0.56036 0.80868 0.0
C503 C 0.80016 0.56017 0.76014 0.0
C504 C 0.8178 0.55762 0.74206 0.0
C505 C 0.83314 0.57521 0.71966 0.0
C506 C 0.84932 0.57255 0.7019 0.0
C507 C 0.85018 0.55205 0.70581 0.0
C508 C 0.83474 0.53448 0.72838 0.0
C509 C 0.81874 0.53727 0.74635 0.0
H510 H 0.24963 0.83632 0.20842 0.0
H511 H 0.28444 0.8663 0.17627 0.0
H512 H 0.32642 0.83859 0.21235 0.0
H513 H 0.29178 0.80905 0.24517 0.0
H514 H 0.22842 0.78472 0.20755 0.0
H515 H 0.27291 0.85078 0.27204 0.0
H516 H 0.308 0.87953 0.2991 0.0
H517 H 0.2992 0.82405 0.3643 0.0
H518 H 0.26702 0.79514 0.33357 0.0
H519 H 0.2123 0.73818 0.32847 0.0
H520 H 0.18025 0.70418 0.35876 0.0
H521 H 0.12722 0.71206 0.30969 0.0
H522 H 0.15946 0.74622 0.27939 0.0
H523 H 0.22628 0.78303 0.32345 0.0
H524 H 0.19739 0.71991 0.25385 0.0
H525 H 0.16839 0.68693 0.22351 0.0
H526 H 0.14958 0.73252 0.17472 0.0
H527 H 0.17906 0.76558 0.20484 0.0
C528 C 0.26829 0.82067 0.22924 0.0
C529 C 0.26638 0.83681 0.20948 0.0
C530 C 0.2862 0.85391 0.19132 0.0
C531 C 0.30796 0.85465 0.19206 0.0
C532 C 0.30976 0.83828 0.2115 0.0
C533 C 0.29009 0.8215 0.23018 0.0
C534 C 0.2473 0.80265 0.24846 0.0
C535 C 0.22781 0.78454 0.23291 0.0
C536 C 0.24707 0.80219 0.28163 0.0
C537 C 0.26757 0.82045 0.29976 0.0
C538 C 0.27913 0.84463 0.29134 0.0
C539 C 0.299 0.86133 0.30769 0.0
C540 C 0.30707 0.85452 0.33422 0.0
C541 C 0.29456 0.83033 0.3435 0.0
C542 C 0.27552 0.81358 0.32618 0.0
C543 C 0.18829 0.74468 0.30154 0.0
C544 C 0.19379 0.73275 0.32443 0.0
C545 C 0.17545 0.71334 0.34176 0.0
C546 C 0.15121 0.70546 0.33662 0.0
C547 C 0.14572 0.71757 0.31391 0.0
C548 C 0.16411 0.73708 0.29663 0.0
C549 C 0.20798 0.76477 0.28258 0.0
C550 C 0.22704 0.78338 0.29811 0.0
C551 C 0.20847 0.76529 0.24953 0.0
C552 C 0.19021 0.74514 0.2318 0.0
C553 C 0.18684 0.72273 0.23683 0.0
C554 C 0.17018 0.70386 0.21952 0.0
C555 C 0.15656 0.70702 0.19671 0.0
C556 C 0.15995 0.72952 0.19182 0.0
C557 C 0.17671 0.74841 0.20909 0.0
H558 H 0.47458 0.28882 0.75027 0.0
H559 H 0.47928 0.32118 0.78028 0.0
H560 H 0.40971 0.27404 0.82506 0.0
H561 H 0.40487 0.24176 0.79434 0.0
H562 H 0.43318 0.223 0.79496 0.0
H563 H 0.4756 0.27414 0.67887 0.0
H564 H 0.48029 0.30794 0.64818 0.0
H565 H 0.41209 0.29284 0.68568 0.0
H566 H 0.40786 0.25937 0.71697 0.0
H567 H 0.4111 0.17902 0.67623 0.0
H568 H 0.41665 0.15101 0.64826 0.0
H569 H 0.47999 0.17054 0.70156 0.0
H570 H 0.47459 0.1988 0.72898 0.0
H571 H 0.442 0.22758 0.6793 0.0
H572 H 0.4075 0.15821 0.74875 0.0
H573 H 0.40995 0.12745 0.77774 0.0
H574 H 0.46403 0.18009 0.83614 0.0
H575 H 0.46295 0.21083 0.80538 0.0
C576 C 0.43925 0.26295 0.76982 0.0
C577 C 0.46018 0.28552 0.7662 0.0
C578 C 0.46295 0.30394 0.78359 0.0
C579 C 0.44489 0.30013 0.80509 0.0
C580 C 0.42382 0.27756 0.80845 0.0
C581 C 0.42109 0.25909 0.79108 0.0
C582 C 0.43703 0.24319 0.75251 0.0
C583 C 0.43486 0.22382 0.76966 0.0
C584 C 0.4392 0.24434 0.71952 0.0
C585 C 0.44142 0.26431 0.70023 0.0
C586 C 0.4616 0.27805 0.68031 0.0
C587 C 0.4642 0.29732 0.6627 0.0
C588 C 0.44653 0.30309 0.66439 0.0
C589 C 0.42619 0.2891 0.68416 0.0
C590 C 0.42368 0.2699 0.70194 0.0
C591 C 0.44231 0.19081 0.70483 0.0
C592 C 0.4262 0.17728 0.68179 0.0
C593 C 0.42928 0.16118 0.66603 0.0
C594 C 0.4487 0.15852 0.67281 0.0
C595 C 0.46496 0.17231 0.69567 0.0
C596 C 0.46182 0.18834 0.71149 0.0
C597 C 0.43883 0.20765 0.72181 0.0
C598 C 0.43989 0.22646 0.70458 0.0
C599 C 0.43597 0.2061 0.75481 0.0
C600 C 0.43542 0.18695 0.77438 0.0
C601 C 0.42008 0.16314 0.76758 0.0
C602 C 0.42127 0.1455 0.7845 0.0
C603 C 0.43742 0.15125 0.80912 0.0
C604 C 0.45186 0.17501 0.81682 0.0
C605 C 0.451 0.19264 0.79951 0.0
C606 C 0.07447 0.49763 0.06242 0.0
C607 C 0.0527 0.47842 0.05275 0.0
C608 C 0.09084 0.49414 0.079 0.0
C609 C 0.08505 0.47087 0.08644 0.0
C610 C 0.063 0.4514 0.07675 0.0
C611 C 0.04718 0.45544 0.05963 0.0
C612 C 0.11434 0.51535 0.08846 0.0
C613 C 0.05606 0.42635 0.08463 0.0
C614 C 0.13604 0.46167 0.10593 0.0
C615 C 0.13541 0.46108 0.13868 0.0
C616 C 0.11971 0.46481 0.08859 0.0
C617 C 0.1021 0.46696 0.10447 0.0
C618 C 0.1011 0.4659 0.13758 0.0
C619 C 0.11794 0.46319 0.1543 0.0
C620 C 0.1216 0.46626 0.05331 0.0
C621 C 0.08232 0.46771 0.15533 0.0
H622 H 0.07867 0.51539 0.05684 0.0
H623 H 0.03039 0.44067 0.05178 0.0
H624 H 0.1156 0.51517 0.1143 0.0
H625 H 0.12963 0.51467 0.07883 0.0
H626 H 0.11632 0.53225 0.08014 0.0
H627 H 0.03804 0.4132 0.07588 0.0
H628 H 0.06953 0.42317 0.07435 0.0
H629 H 0.05594 0.42342 0.11036 0.0
H630 H 0.14969 0.46022 0.09388 0.0
H631 H 0.11733 0.4625 0.17966 0.0
H632 H 0.125 0.48355 0.0442 0.0
H633 H 0.10437 0.4524 0.04358 0.0
H634 H 0.13625 0.46415 0.04457 0.0
H635 H 0.08457 0.48511 0.14981 0.0
H636 H 0.08338 0.46559 0.18105 0.0
H637 H 0.06406 0.454 0.14801 0.0
C638 C 0.57717 0.07481 0.57064 0.0
C639 C 0.57602 0.05441 0.56164 0.0
C640 C 0.59611 0.09116 0.58876 0.0
C641 C 0.6142 0.08686 0.59811 0.0
C642 C 0.61302 0.06618 0.58902 0.0
C643 C 0.59397 0.05024 0.57068 0.0
C644 C 0.59683 0.11307 0.59775 0.0
C645 C 0.63188 0.06091 0.59864 0.0
C646 C 0.67513 0.13853 0.62028 0.0
C647 C 0.67323 0.13671 0.65303 0.0
C648 C 0.65598 0.12254 0.60212 0.0
C649 C 0.63451 0.10413 0.6171 0.0
C650 C 0.6325 0.10218 0.65018 0.0
C651 C 0.65185 0.1186 0.66776 0.0
C652 C 0.65869 0.12537 0.5669 0.0
C653 C 0.61 0.08264 0.667 0.0
H654 H 0.56322 0.07793 0.56342 0.0
H655 H 0.59301 0.03446 0.5634 0.0
H656 H 0.59666 0.11379 0.62359 0.0
H657 H 0.61377 0.12901 0.58866 0.0
H658 H 0.58138 0.11378 0.58856 0.0
H659 H 0.62806 0.04383 0.59017 0.0
H660 H 0.6498 0.07516 0.58927 0.0
H661 H 0.63292 0.0604 0.62451 0.0
H662 H 0.69154 0.15268 0.60883 0.0
H663 H 0.65043 0.11703 0.69309 0.0
H664 H 0.64431 0.12749 0.55693 0.0
H665 H 0.65665 0.1093 0.5573 0.0
H666 H 0.67642 0.14084 0.55889 0.0
H667 H 0.59427 0.08356 0.65983 0.0
H668 H 0.61134 0.08354 0.69284 0.0
H669 H 0.60648 0.06525 0.66043 0.0
C670 C 0.54681 0.61092 0.07187 0.0
C671 C 0.52733 0.58812 0.07968 0.0
C672 C 0.55188 0.62993 0.09007 0.0
C673 C 0.53673 0.62606 0.11617 0.0
C674 C 0.51696 0.60303 0.12402 0.0
C675 C 0.51266 0.58428 0.10584 0.0
C676 C 0.57341 0.65414 0.08137 0.0
C677 C 0.50007 0.59827 0.15123 0.0
C678 C 0.55819 0.67023 0.18003 0.0
C679 C 0.54795 0.68341 0.17134 0.0
C680 C 0.55515 0.65186 0.16193 0.0
C681 C 0.54111 0.64617 0.13482 0.0
C682 C 0.53077 0.65938 0.12586 0.0
C683 C 0.53456 0.67798 0.14396 0.0
C684 C 0.56678 0.63841 0.17195 0.0
C685 C 0.51542 0.65366 0.09732 0.0
H686 H 0.55824 0.61379 0.05173 0.0
H687 H 0.49746 0.56663 0.11166 0.0
H688 H 0.56746 0.66648 0.07529 0.0
H689 H 0.58537 0.66118 0.10163 0.0
H690 H 0.58398 0.65398 0.06122 0.0
H691 H 0.48553 0.57935 0.15419 0.0
H692 H 0.5102 0.60372 0.1732 0.0
H693 H 0.49173 0.60887 0.14772 0.0
H694 H 0.56829 0.67398 0.20131 0.0
H695 H 0.52702 0.68833 0.13653 0.0
H696 H 0.57799 0.63855 0.15243 0.0
H697 H 0.55272 0.61971 0.17789 0.0
H698 H 0.57827 0.64589 0.19258 0.0
H699 H 0.52601 0.65527 0.07613 0.0
H700 H 0.50841 0.66544 0.09375 0.0
H701 H 0.49994 0.63514 0.09961 0.0
C702 C 0.91408 0.51043 0.59033 0.0
C703 C 0.93889 0.5266 0.5864 0.0
C704 C 0.90011 0.51474 0.61042 0.0
C705 C 0.9112 0.53589 0.62664 0.0
C706 C 0.93626 0.55231 0.62272 0.0
C707 C 0.94985 0.54738 0.60278 0.0
C708 C 0.8735 0.49665 0.61432 0.0
C709 C 0.94864 0.57519 0.63928 0.0
C710 C 0.87022 0.55596 0.65402 0.0
C711 C 0.86661 0.5487 0.68585 0.0
C712 C 0.88513 0.55238 0.63467 0.0
C713 C 0.89643 0.54093 0.6473 0.0
C714 C 0.89303 0.53369 0.67941 0.0
C715 C 0.8783 0.53781 0.69834 0.0
C716 C 0.88847 0.56052 0.60058 0.0
C717 C 0.90468 0.52129 0.69366 0.0
H718 H 0.90564 0.49421 0.57796 0.0
H719 H 0.96901 0.55997 0.59956 0.0
H720 H 0.8688 0.4909 0.63936 0.0
H721 H 0.86307 0.50459 0.60674 0.0
H722 H 0.86778 0.48086 0.60061 0.0
H723 H 0.96828 0.586 0.63389 0.0
H724 H 0.94066 0.58569 0.63235 0.0
H725 H 0.94584 0.57156 0.66495 0.0
H726 H 0.861 0.56404 0.64398 0.0
H727 H 0.87596 0.53249 0.72299 0.0
H728 H 0.88104 0.54508 0.58572 0.0
H729 H 0.90791 0.57215 0.59441 0.0
H730 H 0.87946 0.57026 0.59479 0.0
H731 H 0.89848 0.50466 0.68178 0.0
H732 H 0.90046 0.51703 0.7191 0.0
H733 H 0.9245 0.53248 0.69016 0.0
C734 C 0.43018 0.9453 0.0974 0.0
C735 C 0.4254 0.9529 0.06895 0.0
C736 C 0.41148 0.93047 0.11888 0.0
C737 C 0.38745 0.92269 0.11128 0.0
C738 C 0.38263 0.93072 0.08275 0.0
C739 C 0.40177 0.94606 0.0621 0.0
C740 C 0.41739 0.92278 0.14941 0.0
C741 C 0.35723 0.92249 0.07356 0.0
C742 C 0.33827 0.86454 0.14964 0.0
C743 C 0.32858 0.87213 0.17193 0.0
C744 C 0.35733 0.88085 0.12957 0.0
C745 C 0.36727 0.9053 0.13249 0.0
C746 C 0.35778 0.91304 0.15542 0.0
C747 C 0.33828 0.89629 0.17464 0.0
C748 C 0.36661 0.87191 0.10496 0.0
C749 C 0.36829 0.93896 0.15972 0.0
H750 H 0.44856 0.9508 0.10263 0.0
H751 H 0.39826 0.95223 0.04015 0.0
H752 H 0.40913 0.92634 0.16931 0.0
H753 H 0.40974 0.90349 0.15007 0.0
H754 H 0.43709 0.93191 0.15281 0.0
H755 H 0.35662 0.93075 0.05082 0.0
H756 H 0.34673 0.90305 0.07179 0.0
H757 H 0.34821 0.92665 0.09177 0.0
H758 H 0.33054 0.84579 0.1475 0.0
H759 H 0.33077 0.90205 0.19208 0.0
H760 H 0.3859 0.87861 0.10859 0.0
H761 H 0.36525 0.87861 0.0814 0.0
H762 H 0.35653 0.85233 0.10532 0.0
H763 H 0.3878 0.94784 0.1643 0.0
H764 H 0.35937 0.94204 0.17935 0.0
H765 H 0.36648 0.94744 0.13799 0.0
C766 C 0.48887 0.42713 0.57791 0.0
C767 C 0.47153 0.42632 0.55817 0.0
C768 C 0.4842 0.40697 0.59561 0.0
C769 C 0.46165 0.38562 0.59332 0.0
C770 C 0.444 0.38489 0.57349 0.0
C771 C 0.44919 0.40534 0.55606 0.0
C772 C 0.50347 0.40846 0.61646 0.0
C773 C 0.41977 0.36247 0.57048 0.0
C774 C 0.45899 0.3288 0.61508 0.0
C775 C 0.44952 0.32377 0.6458 0.0
C776 C 0.46282 0.34876 0.59766 0.0
C777 C 0.45681 0.36395 0.61114 0.0
C778 C 0.4468 0.35877 0.64188 0.0
C779 C 0.44336 0.3388 0.65889 0.0
C780 C 0.47358 0.35374 0.56494 0.0
C781 C 0.44009 0.37454 0.65697 0.0
H782 H 0.50613 0.44353 0.5793 0.0
H783 H 0.43591 0.40498 0.54063 0.0
H784 H 0.49646 0.40309 0.64093 0.0
H785 H 0.50866 0.39608 0.60892 0.0
H786 H 0.51982 0.42652 0.61604 0.0
H787 H 0.40785 0.36502 0.55463 0.0
H788 H 0.42214 0.34856 0.56132 0.0
H789 H 0.41068 0.35589 0.59381 0.0
H790 H 0.4634 0.31708 0.60458 0.0
H791 H 0.43632 0.33523 0.68273 0.0
H792 H 0.49087 0.37105 0.56353 0.0
H793 H 0.46139 0.35485 0.548 0.0
H794 H 0.47694 0.33998 0.55771 0.0
H795 H 0.45639 0.39235 0.65924 0.0
H796 H 0.43153 0.3675 0.68053 0.0
H797 H 0.42749 0.37668 0.64202 0.0
C798 C 0.54481 0.93129 0.44624 0.0
C799 C 0.53435 0.94249 0.43089 0.0
C800 C 0.54918 0.91585 0.43064 0.0
C801 C 0.54317 0.91166 0.39882 0.0
C802 C 0.53317 0.92332 0.38296 0.0
C803 C 0.52877 0.93848 0.39921 0.0
C804 C 0.55981 0.90369 0.44837 0.0
C805 C 0.52662 0.91939 0.34898 0.0
C806 C 0.57105 0.88545 0.35034 0.0
C807 C 0.55214 0.86177 0.34989 0.0
C808 C 0.56846 0.9019 0.36631 0.0
C809 C 0.54651 0.89441 0.3824 0.0
C810 C 0.5275 0.87045 0.38243 0.0
C811 C 0.53052 0.85444 0.36608 0.0
C812 C 0.58903 0.92734 0.36551 0.0
C813 C 0.50391 0.86173 0.39958 0.0
H814 H 0.54957 0.93456 0.47054 0.0
H815 H 0.52036 0.94673 0.38723 0.0
H816 H 0.54702 0.8843 0.4489 0.0
H817 H 0.57655 0.90749 0.43633 0.0
H818 H 0.564 0.90928 0.47282 0.0
H819 H 0.52022 0.93077 0.3396 0.0
H820 H 0.5424 0.92299 0.33463 0.0
H821 H 0.51224 0.90068 0.34623 0.0
H822 H 0.58769 0.89122 0.33757 0.0
H823 H 0.51598 0.83609 0.3661 0.0
H824 H 0.59427 0.93316 0.38967 0.0
H825 H 0.58328 0.93873 0.3543 0.0
H826 H 0.60508 0.93021 0.35248 0.0
H827 H 0.50713 0.86572 0.42464 0.0
H828 H 0.49115 0.84244 0.3979 0.0
H829 H 0.49534 0.87103 0.38984 0.0
C830 C 0.5797 0.50855 0.93922 0.0
C831 C 0.57807 0.52751 0.94817 0.0
C832 C 0.60014 0.51243 0.92297 0.0
C833 C 0.6192 0.53584 0.91518 0.0
C834 C 0.61762 0.55506 0.92436 0.0
C835 C 0.59713 0.55064 0.9411 0.0
C836 C 0.60131 0.49149 0.91403 0.0
C837 C 0.63743 0.58024 0.91618 0.0
C838 C 0.68091 0.54685 0.89555 0.0
C839 C 0.68084 0.54731 0.86279 0.0
C840 C 0.66095 0.54312 0.91294 0.0
C841 C 0.64064 0.54018 0.89712 0.0
C842 C 0.64067 0.54102 0.864 0.0
C843 C 0.66071 0.54438 0.84723 0.0
C844 C 0.66142 0.54193 0.94822 0.0
C845 C 0.61952 0.53834 0.8463 0.0
H846 H 0.5649 0.49068 0.94494 0.0
H847 H 0.59582 0.56523 0.94839 0.0
H848 H 0.60256 0.49134 0.88821 0.0
H849 H 0.61769 0.49284 0.92356 0.0
H850 H 0.58532 0.47446 0.92278 0.0
H851 H 0.63334 0.59316 0.92489 0.0
H852 H 0.65458 0.58389 0.92626 0.0
H853 H 0.64026 0.58304 0.89041 0.0
H854 H 0.69641 0.54891 0.90756 0.0
H855 H 0.66076 0.54495 0.82188 0.0
H856 H 0.6464 0.52452 0.95755 0.0
H857 H 0.65878 0.55556 0.95778 0.0
H858 H 0.6786 0.5446 0.95691 0.0
H859 H 0.60322 0.52077 0.85221 0.0
H860 H 0.62272 0.54021 0.82056 0.0
H861 H 0.61566 0.55179 0.85332 0.0
C862 C 0.04271 0.59718 0.43832 0.0
C863 C 0.04681 0.57872 0.44043 0.0
C864 C 0.05855 0.61816 0.42092 0.0
C865 C 0.0789 0.62057 0.4055 0.0
C866 C 0.08288 0.60174 0.40742 0.0
C867 C 0.06674 0.581 0.42495 0.0
C868 C 0.05375 0.63784 0.4194 0.0
C869 C 0.10436 0.60364 0.39136 0.0
C870 C 0.11164 0.66686 0.3394 0.0
C871 C 0.13183 0.68439 0.35459 0.0
C872 C 0.09395 0.64618 0.35583 0.0
C873 C 0.09653 0.64302 0.38818 0.0
C874 C 0.11655 0.66092 0.40378 0.0
C875 C 0.13395 0.68139 0.3868 0.0
C876 C 0.07285 0.62744 0.33841 0.0
C877 C 0.11986 0.65824 0.4383 0.0
H878 H 0.02724 0.59523 0.45054 0.0
H879 H 0.06974 0.56657 0.42682 0.0
H880 H 0.06877 0.65367 0.43 0.0
H881 H 0.05282 0.6429 0.39467 0.0
H882 H 0.0367 0.63284 0.43183 0.0
H883 H 0.10443 0.58713 0.39443 0.0
H884 H 0.10453 0.60782 0.36597 0.0
H885 H 0.1212 0.61829 0.40088 0.0
H886 H 0.11004 0.66898 0.31445 0.0
H887 H 0.14934 0.69506 0.39872 0.0
H888 H 0.0557 0.62283 0.35012 0.0
H889 H 0.07338 0.61116 0.33874 0.0
H890 H 0.0728 0.63315 0.31368 0.0
H891 H 0.10375 0.65467 0.45183 0.0
H892 H 0.13593 0.67419 0.44716 0.0
H893 H 0.12183 0.64293 0.44285 0.0
C894 C 0.44964 0.06502 0.93021 0.0
C895 C 0.45775 0.05181 0.91619 0.0
C896 C 0.44449 0.07968 0.91215 0.0
C897 C 0.44691 0.08074 0.87919 0.0
C898 C 0.45368 0.06642 0.86474 0.0
C899 C 0.45928 0.05233 0.88341 0.0
C900 C 0.43757 0.09487 0.92847 0.0
C901 C 0.45597 0.06671 0.8296 0.0
C902 C 0.41947 0.11006 0.83295 0.0
C903 C 0.4397 0.13275 0.82632 0.0
C904 C 0.42159 0.09269 0.84943 0.0
C905 C 0.44437 0.0983 0.86011 0.0
C906 C 0.46484 0.12107 0.85335 0.0
C907 C 0.46231 0.13788 0.83622 0.0
C908 C 0.39944 0.06843 0.85569 0.0
C909 C 0.48943 0.12784 0.86461 0.0
H910 H 0.44775 0.06429 0.95544 0.0
H911 H 0.4657 0.0424 0.87225 0.0
H912 H 0.45171 0.11376 0.92388 0.0
H913 H 0.42057 0.09218 0.91914 0.0
H914 H 0.43526 0.09107 0.95418 0.0
H915 H 0.45847 0.05249 0.82196 0.0
H916 H 0.43975 0.06469 0.81846 0.0
H917 H 0.47164 0.08393 0.82089 0.0
H918 H 0.40188 0.10592 0.82572 0.0
H919 H 0.47818 0.15509 0.83054 0.0
H920 H 0.3955 0.06493 0.88122 0.0
H921 H 0.4026 0.0548 0.84742 0.0
H922 H 0.38337 0.06642 0.84403 0.0
H923 H 0.48896 0.12559 0.89049 0.0
H924 H 0.50349 0.14639 0.85766 0.0
H925 H 0.49472 0.11607 0.85501 0.0
C926 C 0.3976 0.48217 0.42003 0.0
C927 C 0.412 0.47281 0.41511 0.0
C928 C 0.37853 0.47715 0.40036 0.0
C929 C 0.37401 0.46287 0.37465 0.0
C930 C 0.38835 0.45328 0.36951 0.0
C931 C 0.407 0.45817 0.38997 0.0
C932 C 0.36344 0.48749 0.40684 0.0
C933 C 0.38425 0.43823 0.34207 0.0
C934 C 0.31268 0.43653 0.33817 0.0
C935 C 0.31754 0.45348 0.31421 0.0
C936 C 0.33102 0.43905 0.35769 0.0
C937 C 0.35477 0.45873 0.35261 0.0
C938 C 0.35989 0.47531 0.3275 0.0
C939 C 0.34113 0.47262 0.30881 0.0
C940 C 0.32479 0.42125 0.38456 0.0
C941 C 0.38507 0.49624 0.3209 0.0
H942 H 0.4015 0.49386 0.43893 0.0
H943 H 0.41768 0.45048 0.38622 0.0
H944 H 0.36577 0.5 0.38731 0.0
H945 H 0.3441 0.47331 0.40837 0.0
H946 H 0.36832 0.49699 0.42892 0.0
H947 H 0.39683 0.4319 0.34152 0.0
H948 H 0.36554 0.42271 0.34296 0.0
H949 H 0.38659 0.4485 0.31989 0.0
H950 H 0.29435 0.42184 0.34239 0.0
H951 H 0.34482 0.48561 0.29008 0.0
H952 H 0.32773 0.42997 0.40703 0.0
H953 H 0.33672 0.41422 0.38392 0.0
H954 H 0.30579 0.40625 0.3842 0.0
H955 H 0.39079 0.50827 0.34052 0.0
H956 H 0.38637 0.50635 0.29895 0.0
H957 H 0.39791 0.49033 0.31907 0.0
C958 C 0.91676 0.40896 0.9127 0.0
C959 C 0.94101 0.41681 0.91683 0.0
C960 C 0.90218 0.38974 0.89432 0.0
C961 C 0.91199 0.37776 0.88034 0.0
C962 C 0.9365 0.38561 0.88452 0.0
C963 C 0.95082 0.40525 0.90245 0.0
C964 C 0.87626 0.38223 0.8899 0.0
C965 C 0.94747 0.373 0.87056 0.0
C966 C 0.86628 0.31474 0.86013 0.0
C967 C 0.86433 0.31731 0.82785 0.0
C968 C 0.8824 0.33414 0.87732 0.0
C969 C 0.89637 0.35673 0.86192 0.0
C970 C 0.89458 0.35933 0.82919 0.0
C971 C 0.87875 0.33947 0.81245 0.0
C972 C 0.88419 0.33055 0.91204 0.0
C973 C 0.90875 0.38318 0.81205 0.0
H974 H 0.90927 0.41808 0.92362 0.0
H975 H 0.96957 0.41128 0.90586 0.0
H976 H 0.87254 0.38205 0.86458 0.0
H977 H 0.86415 0.36403 0.89995 0.0
H978 H 0.87174 0.39408 0.90116 0.0
H979 H 0.96681 0.38136 0.87595 0.0
H980 H 0.93767 0.35435 0.87967 0.0
H981 H 0.94566 0.37281 0.84479 0.0
H982 H 0.85512 0.2975 0.8719 0.0
H983 H 0.877 0.34137 0.78748 0.0
H984 H 0.8777 0.34015 0.92512 0.0
H985 H 0.90323 0.33789 0.91819 0.0
H986 H 0.87345 0.31162 0.91999 0.0
H987 H 0.90346 0.39506 0.82128 0.0
H988 H 0.90582 0.38208 0.78646 0.0
H989 H 0.92825 0.39139 0.81606 0.0
C990 C 0.94802 0.52541 0.91532 0.0
C991 C 0.95436 0.53264 0.94592 0.0
C992 C 0.93311 0.53076 0.89831 0.0
C993 C 0.92338 0.5426 0.91286 0.0
C994 C 0.92984 0.55004 0.94374 0.0
C995 C 0.94586 0.54559 0.95955 0.0
C996 C 0.92759 0.52351 0.86493 0.0
C997 C 0.9191 0.56184 0.96055 0.0
C998 C 0.89583 0.57083 0.8644 0.0
C999 C 0.87144 0.5525 0.86421 0.0
C1000 C 0.91302 0.5677 0.87947 0.0
C1001 C 0.90556 0.54618 0.89628 0.0
C1002 C 0.88101 0.52786 0.89709 0.0
C1003 C 0.86444 0.53098 0.88038 0.0
C1004 C 0.93922 0.58733 0.87703 0.0
C1005 C 0.87217 0.50488 0.91562 0.0
H1006 H 0.95476 0.51553 0.90472 0.0
H1007 H 0.95113 0.55151 0.98304 0.0
H1008 H 0.9084 0.50928 0.86331 0.0
H1009 H 0.9306 0.53863 0.8495 0.0
H1010 H 0.93882 0.51703 0.85597 0.0
H1011 H 0.92584 0.56631 0.98465 0.0
H1012 H 0.92326 0.57823 0.94738 0.0
H1013 H 0.89921 0.54997 0.96193 0.0
H1014 H 0.90169 0.58777 0.85283 0.0
H1015 H 0.846 0.51628 0.87989 0.0
H1016 H 0.95016 0.58053 0.86811 0.0
H1017 H 0.94588 0.59402 0.90048 0.0
H1018 H 0.94228 0.60233 0.86127 0.0
H1019 H 0.87963 0.49516 0.90514 0.0
H1020 H 0.85223 0.49334 0.91632 0.0
H1021 H 0.8785 0.50839 0.93998 0.0
C1022 C 0.40475 0.94467 0.45228 0.0
C1023 C 0.42832 0.95389 0.44115 0.0
C1024 C 0.38495 0.92874 0.43493 0.0
C1025 C 0.38884 0.92318 0.40482 0.0
C1026 C 0.41263 0.93357 0.39272 0.0
C1027 C 0.43209 0.94828 0.4114 0.0
C1028 C 0.35996 0.91725 0.4493 0.0
C1029 C 0.41756 0.92912 0.36011 0.0
C1030 C 0.34205 0.86572 0.36976 0.0
C1031 C 0.32829 0.87237 0.35212 0.0
C1032 C 0.36125 0.88189 0.38767 0.0
C1033 C 0.36809 0.9058 0.38649 0.0
C1034 C 0.35509 0.913 0.36791 0.0
C1035 C 0.33497 0.89614 0.35179 0.0
C1036 C 0.37409 0.87328 0.40812 0.0
C1037 C 0.3625 0.93855 0.36487 0.0
H1038 H 0.40185 0.94936 0.47506 0.0
H1039 H 0.45034 0.95553 0.4027 0.0
H1040 H 0.34881 0.92172 0.43482 0.0
H1041 H 0.35111 0.89777 0.44999 0.0
H1042 H 0.36013 0.92278 0.47345 0.0
H1043 H 0.43682 0.94077 0.3529 0.0
H1044 H 0.41247 0.91053 0.35891 0.0
H1045 H 0.40652 0.93198 0.34303 0.0
H1046 H 0.33802 0.84784 0.36969 0.0
H1047 H 0.32451 0.90181 0.33914 0.0
H1048 H 0.37495 0.87888 0.43238 0.0
H1049 H 0.39285 0.88118 0.39934 0.0
H1050 H 0.36508 0.85377 0.4088 0.0
H1051 H 0.35959 0.94419 0.38754 0.0
H1052 H 0.3522 0.94167 0.34682 0.0
H1053 H 0.38196 0.94993 0.35866 0.0
C1054 C 0.4591 0.39108 0.93167 0.0
C1055 C 0.46913 0.41394 0.91811 0.0
C1056 C 0.45415 0.37213 0.91345 0.0
C1057 C 0.45928 0.3761 0.88087 0.0
C1058 C 0.46899 0.39902 0.86693 0.0
C1059 C 0.47384 0.41766 0.88571 0.0
C1060 C 0.44377 0.34792 0.92916 0.0
C1061 C 0.47472 0.40395 0.83225 0.0
C1062 C 0.47047 0.33389 0.83885 0.0
C1063 C 0.4484 0.31951 0.82455 0.0
C1064 C 0.47419 0.3523 0.85732 0.0
C1065 C 0.4554 0.35648 0.86154 0.0
C1066 C 0.43305 0.34201 0.84721 0.0
C1067 C 0.42979 0.32363 0.82894 0.0
C1068 C 0.49822 0.36723 0.8724 0.0
C1069 C 0.41267 0.34604 0.85102 0.0
H1070 H 0.45507 0.38799 0.9566 0.0
H1071 H 0.48189 0.43531 0.8751 0.0
H1072 H 0.42672 0.33502 0.91806 0.0
H1073 H 0.45644 0.34192 0.9261 0.0
H1074 H 0.44017 0.34765 0.95458 0.0
H1075 H 0.48112 0.4225 0.82482 0.0
H1076 H 0.48885 0.40038 0.82596 0.0
H1077 H 0.45855 0.39204 0.81883 0.0
H1078 H 0.48478 0.33055 0.83592 0.0
H1079 H 0.41279 0.31269 0.81769 0.0
H1080 H 0.49568 0.36622 0.89817 0.0
H1081 H 0.50652 0.38599 0.86438 0.0
H1082 H 0.51092 0.36161 0.86689 0.0
H1083 H 0.40785 0.34476 0.87617 0.0
H1084 H 0.39637 0.33312 0.83852 0.0
H1085 H 0.41841 0.36409 0.84195 0.0
C1086 C 0.05262 0.47356 0.37898 0.0
C1087 C 0.05489 0.47303 0.41159 0.0
C1088 C 0.06654 0.46904 0.35905 0.0
C1089 C 0.08351 0.46436 0.37196 0.0
C1090 C 0.0856 0.46335 0.4048 0.0
C1091 C 0.0711 0.46742 0.4242 0.0
C1092 C 0.06351 0.46987 0.32414 0.0
C1093 C 0.10368 0.45865 0.41946 0.0
C1094 C 0.1109 0.43724 0.32447 0.0
C1095 C 0.13306 0.45725 0.31457 0.0
C1096 C 0.09425 0.43931 0.34241 0.0
C1097 C 0.10009 0.46186 0.35116 0.0
C1098 C 0.12223 0.48213 0.34092 0.0
C1099 C 0.13828 0.4796 0.32247 0.0
C1100 C 0.07059 0.41733 0.35243 0.0
C1101 C 0.12923 0.50649 0.35001 0.0
H1102 H 0.04041 0.47814 0.36888 0.0
H1103 H 0.07263 0.46639 0.44934 0.0
H1104 H 0.08008 0.48509 0.31299 0.0
H1105 H 0.06081 0.45368 0.31401 0.0
H1106 H 0.04805 0.47159 0.318 0.0
H1107 H 0.10266 0.45788 0.44543 0.0
H1108 H 0.10074 0.44173 0.41175 0.0
H1109 H 0.12215 0.47277 0.4116 0.0
H1110 H 0.10673 0.41986 0.31881 0.0
H1111 H 0.15504 0.49524 0.31432 0.0
H1112 H 0.05543 0.41937 0.34581 0.0
H1113 H 0.06971 0.41459 0.37825 0.0
H1114 H 0.06805 0.40134 0.34179 0.0
H1115 H 0.11561 0.51041 0.34194 0.0
H1116 H 0.1471 0.52046 0.34002 0.0
H1117 H 0.12973 0.50729 0.37587 0.0
C1118 C 0.59409 0.05229 0.93874 0.0
C1119 C 0.57083 0.04366 0.92798 0.0
C1120 C 0.61434 0.0675 0.9196 0.0
C1121 C 0.61114 0.07304 0.88839 0.0
C1122 C 0.58764 0.06286 0.87673 0.0
C1123 C 0.56774 0.04879 0.89694 0.0
C1124 C 0.63902 0.07873 0.93336 0.0
C1125 C 0.58347 0.06739 0.84319 0.0
C1126 C 0.65794 0.1319 0.84942 0.0
C1127 C 0.67266 0.12631 0.83294 0.0
C1128 C 0.63834 0.11486 0.8681 0.0
C1129 C 0.6322 0.09117 0.86897 0.0
C1130 C 0.64617 0.08502 0.85145 0.0
C1131 C 0.66656 0.10272 0.83433 0.0
C1132 C 0.62433 0.12232 0.88717 0.0
C1133 C 0.63952 0.05973 0.8507 0.0
H1134 H 0.59638 0.04801 0.96267 0.0
H1135 H 0.54971 0.04199 0.88859 0.0
H1136 H 0.65093 0.0756 0.91884 0.0
H1137 H 0.6473 0.09812 0.9335 0.0
H1138 H 0.63843 0.07192 0.95768 0.0
H1139 H 0.56452 0.05522 0.83655 0.0
H1140 H 0.58778 0.08575 0.83974 0.0
H1141 H 0.59547 0.06539 0.8271 0.0
H1142 H 0.66157 0.14967 0.84782 0.0
H1143 H 0.67775 0.09794 0.8223 0.0
H1144 H 0.62295 0.1162 0.91202 0.0
H1145 H 0.60577 0.11411 0.87852 0.0
H1146 H 0.63276 0.14177 0.88609 0.0
H1147 H 0.64156 0.05348 0.87418 0.0
H1148 H 0.65086 0.05755 0.83364 0.0
H1149 H 0.62037 0.0482 0.84448 0.0
C1150 C 0.52137 0.57809 0.41418 0.0
C1151 C 0.53129 0.58043 0.44374 0.0
C1152 C 0.52661 0.59804 0.39551 0.0
C1153 C 0.54187 0.62079 0.40698 0.0
C1154 C 0.55223 0.6232 0.4367 0.0
C1155 C 0.54697 0.60292 0.45465 0.0
C1156 C 0.51547 0.59476 0.3638 0.0
C1157 C 0.56836 0.64713 0.44983 0.0
C1158 C 0.56894 0.67368 0.34898 0.0
C1159 C 0.55261 0.68096 0.35173 0.0
C1160 C 0.56578 0.65415 0.36694 0.0
C1161 C 0.54603 0.64195 0.38844 0.0
C1162 C 0.52981 0.6496 0.39176 0.0
C1163 C 0.5332 0.66891 0.37318 0.0
C1164 C 0.58323 0.64628 0.36247 0.0
C1165 C 0.50875 0.63726 0.41477 0.0
H1166 H 0.50932 0.56059 0.40586 0.0
H1167 H 0.55472 0.60455 0.47748 0.0
H1168 H 0.50309 0.60129 0.36349 0.0
H1169 H 0.52965 0.60524 0.34552 0.0
H1170 H 0.50522 0.57598 0.35758 0.0
H1171 H 0.57554 0.64598 0.47289 0.0
H1172 H 0.58371 0.65852 0.43339 0.0
H1173 H 0.5582 0.65593 0.45261 0.0
H1174 H 0.58386 0.68292 0.33222 0.0
H1175 H 0.52073 0.67474 0.37556 0.0
H1176 H 0.57353 0.62802 0.35433 0.0
H1177 H 0.59138 0.64603 0.38507 0.0
H1178 H 0.59789 0.65794 0.34521 0.0
H1179 H 0.49643 0.61872 0.40846 0.0
H1180 H 0.49839 0.64603 0.4154 0.0
H1181 H 0.51517 0.6368 0.43861 0.0
C1182 C 0.46455 0.07701 0.55685 0.0
C1183 C 0.47123 0.06263 0.5726 0.0
C1184 C 0.46007 0.09208 0.57317 0.0
C1185 C 0.46218 0.09271 0.60607 0.0
C1186 C 0.46837 0.07786 0.62222 0.0
C1187 C 0.47288 0.06305 0.60528 0.0
C1188 C 0.45349 0.10764 0.55513 0.0
C1189 C 0.47074 0.078 0.65731 0.0
C1190 C 0.47501 0.14821 0.64448 0.0
C1191 C 0.45212 0.14156 0.6559 0.0
C1192 C 0.47852 0.13246 0.62827 0.0
C1193 C 0.45867 0.10947 0.62347 0.0
C1194 C 0.43554 0.10261 0.63507 0.0
C1195 C 0.43252 0.11877 0.65109 0.0
C1196 C 0.50345 0.14048 0.61606 0.0
C1197 C 0.41398 0.07819 0.63062 0.0
H1198 H 0.46287 0.07652 0.53166 0.0
H1199 H 0.47833 0.05224 0.61761 0.0
H1200 H 0.43608 0.10439 0.56416 0.0
H1201 H 0.46729 0.12646 0.55844 0.0
H1202 H 0.45202 0.10463 0.52968 0.0
H1203 H 0.47451 0.06457 0.66649 0.0
H1204 H 0.48554 0.09564 0.66403 0.0
H1205 H 0.45398 0.07463 0.66882 0.0
H1206 H 0.49016 0.1659 0.64781 0.0
H1207 H 0.41485 0.11347 0.66021 0.0
H1208 H 0.50334 0.13937 0.59026 0.0
H1209 H 0.50915 0.12869 0.62597 0.0
H1210 H 0.51699 0.15888 0.62193 0.0
H1211 H 0.41122 0.07498 0.60531 0.0
H1212 H 0.39724 0.07558 0.64123 0.0
H1213 H 0.4172 0.06475 0.64126 0.0
C1214 C 0.41926 0.49297 0.06188 0.0
C1215 C 0.4201 0.47409 0.0507 0.0
C1216 C 0.39896 0.48907 0.07851 0.0
C1217 C 0.37925 0.46568 0.08449 0.0
C1218 C 0.38006 0.44653 0.07317 0.0
C1219 C 0.40041 0.45102 0.05601 0.0
C1220 C 0.39862 0.50997 0.08969 0.0
C1221 C 0.35956 0.42135 0.0795 0.0
C1222 C 0.33816 0.45657 0.15322 0.0
C1223 C 0.31871 0.45553 0.13811 0.0
C1224 C 0.35769 0.45919 0.13599 0.0
C1225 C 0.35795 0.46132 0.10292 0.0
C1226 C 0.33823 0.46009 0.08756 0.0
C1227 C 0.3187 0.45697 0.10538 0.0
C1228 C 0.37817 0.45996 0.15319 0.0
C1229 C 0.33806 0.46273 0.05237 0.0
H1230 H 0.43455 0.51081 0.05753 0.0
H1231 H 0.40112 0.4365 0.047 0.0
H1232 H 0.38266 0.50973 0.08063 0.0
H1233 H 0.39714 0.50893 0.11559 0.0
H1234 H 0.41505 0.52705 0.0821 0.0
H1235 H 0.36313 0.40848 0.06933 0.0
H1236 H 0.35638 0.4174 0.1051 0.0
H1237 H 0.34276 0.41881 0.06963 0.0
H1238 H 0.33803 0.45526 0.17856 0.0
H1239 H 0.30372 0.45637 0.09376 0.0
H1240 H 0.39491 0.47747 0.14882 0.0
H1241 H 0.38148 0.44657 0.14435 0.0
H1242 H 0.37455 0.45668 0.17883 0.0
H1243 H 0.35343 0.48031 0.04411 0.0
H1244 H 0.32115 0.4609 0.04402 0.0
H1245 H 0.34033 0.44929 0.04144 0.0
C1246 C 0.94065 0.4274 0.58853 0.0
C1247 C 0.94799 0.42478 0.55911 0.0
C1248 C 0.9249 0.40761 0.60791 0.0
C1249 C 0.916 0.38473 0.59723 0.0
C1250 C 0.92373 0.38206 0.56767 0.0
C1251 C 0.93996 0.40219 0.54912 0.0
C1252 C 0.91748 0.41117 0.63955 0.0
C1253 C 0.91437 0.35797 0.55529 0.0
C1254 C 0.88787 0.3319 0.65526 0.0
C1255 C 0.86337 0.32353 0.65265 0.0
C1256 C 0.90529 0.35202 0.63765 0.0
C1257 C 0.89788 0.36362 0.61646 0.0
C1258 C 0.87309 0.35504 0.61355 0.0
C1259 C 0.85612 0.33522 0.63198 0.0
C1260 C 0.93158 0.36097 0.64187 0.0
C1261 C 0.86448 0.36666 0.59077 0.0
H1262 H 0.94709 0.44498 0.59618 0.0
H1263 H 0.94597 0.40033 0.52644 0.0
H1264 H 0.89792 0.40421 0.64018 0.0
H1265 H 0.92081 0.4012 0.65805 0.0
H1266 H 0.92732 0.43006 0.6452 0.0
H1267 H 0.92246 0.35897 0.53204 0.0
H1268 H 0.91818 0.34725 0.57185 0.0
H1269 H 0.89454 0.34855 0.55318 0.0
H1270 H 0.89339 0.32287 0.67147 0.0
H1271 H 0.83712 0.32857 0.62987 0.0
H1272 H 0.94125 0.37953 0.64888 0.0
H1273 H 0.93988 0.36079 0.61941 0.0
H1274 H 0.93434 0.35023 0.65983 0.0
H1275 H 0.87197 0.38523 0.59669 0.0
H1276 H 0.84455 0.35742 0.59079 0.0
H1277 H 0.87104 0.36699 0.56675 0.0
C1278 C 0.54036 0.93094 0.06726 0.0
C1279 C 0.53529 0.94685 0.07997 0.0
C1280 C 0.54531 0.91667 0.08653 0.0
C1281 C 0.54576 0.91872 0.11932 0.0
C1282 C 0.54198 0.93562 0.13225 0.0
C1283 C 0.53654 0.94932 0.11246 0.0
C1284 C 0.54905 0.8987 0.07186 0.0
C1285 C 0.5428 0.93864 0.16708 0.0
C1286 C 0.53018 0.86407 0.16907 0.0
C1287 C 0.55301 0.8683 0.17605 0.0
C1288 C 0.52763 0.88047 0.15093 0.0
C1289 C 0.54839 0.90194 0.14009 0.0
C1290 C 0.57147 0.90679 0.14802 0.0
C1291 C 0.57352 0.88981 0.16562 0.0
C1292 C 0.50268 0.87454 0.14274 0.0
C1293 C 0.59399 0.92972 0.13739 0.0
H1294 H 0.54006 0.9293 0.04216 0.0
H1295 H 0.53245 0.96137 0.12264 0.0
H1296 H 0.56632 0.90098 0.07929 0.0
H1297 H 0.53449 0.88066 0.07997 0.0
H1298 H 0.54913 0.90002 0.0459 0.0
H1299 H 0.54226 0.95433 0.17304 0.0
H1300 H 0.52723 0.92278 0.1789 0.0
H1301 H 0.55936 0.9404 0.17665 0.0
H1302 H 0.5142 0.84782 0.17767 0.0
H1303 H 0.59125 0.89321 0.17058 0.0
H1304 H 0.50087 0.87431 0.11695 0.0
H1305 H 0.49964 0.88825 0.15097 0.0
H1306 H 0.48838 0.85713 0.15318 0.0
H1307 H 0.59597 0.93069 0.11154 0.0
H1308 H 0.61043 0.93162 0.14772 0.0
H1309 H 0.5927 0.94488 0.14386 0.0
C1310 C 0.61165 0.54071 0.57578 0.0
C1311 C 0.5892 0.53485 0.58812 0.0
C1312 C 0.63062 0.54527 0.59541 0.0
C1313 C 0.6273 0.54448 0.6282 0.0
C1314 C 0.60508 0.53959 0.64081 0.0
C1315 C 0.58623 0.5346 0.62066 0.0
C1316 C 0.65397 0.55019 0.58107 0.0
C1317 C 0.601 0.53897 0.67565 0.0
C1318 C 0.66578 0.5301 0.67858 0.0
C1319 C 0.68462 0.55259 0.68636 0.0
C1320 C 0.64696 0.52725 0.6599 0.0
C1321 C 0.64659 0.54733 0.64928 0.0
C1322 C 0.66502 0.57002 0.65792 0.0
C1323 C 0.68394 0.57241 0.67612 0.0
C1324 C 0.62774 0.50275 0.65097 0.0
C1325 C 0.66497 0.5918 0.64748 0.0
H1326 H 0.61437 0.54152 0.55069 0.0
H1327 H 0.56894 0.52984 0.63056 0.0
H1328 H 0.66922 0.56722 0.58878 0.0
H1329 H 0.65727 0.53623 0.58919 0.0
H1330 H 0.6539 0.55085 0.5551 0.0
H1331 H 0.58358 0.53715 0.6815 0.0
H1332 H 0.60114 0.52389 0.68713 0.0
H1333 H 0.61575 0.55529 0.68569 0.0
H1334 H 0.66575 0.51461 0.687 0.0
H1335 H 0.69847 0.58988 0.68171 0.0
H1336 H 0.62749 0.5018 0.62514 0.0
H1337 H 0.60977 0.49869 0.65881 0.0
H1338 H 0.6306 0.48896 0.66128 0.0
H1339 H 0.66714 0.5944 0.62166 0.0
H1340 H 0.67963 0.60793 0.65805 0.0
H1341 H 0.64748 0.5896 0.65386 0.0
C1342 C 0.08823 0.5978 0.08764 0.0
C1343 C 0.06415 0.59044 0.08277 0.0
C1344 C 0.10274 0.61664 0.10664 0.0
C1345 C 0.09298 0.62853 0.12095 0.0
C1346 C 0.06866 0.62117 0.11618 0.0
C1347 C 0.05449 0.60213 0.09724 0.0
C1348 C 0.12852 0.62379 0.11142 0.0
C1349 C 0.05768 0.63355 0.13081 0.0
C1350 C 0.12514 0.66415 0.19126 0.0
C1351 C 0.1394 0.68705 0.17758 0.0
C1352 C 0.10973 0.64498 0.1732 0.0
C1353 C 0.10837 0.64881 0.14069 0.0
C1354 C 0.12229 0.67193 0.12685 0.0
C1355 C 0.1377 0.69073 0.14541 0.0
C1356 C 0.09519 0.62058 0.18881 0.0
C1357 C 0.12126 0.67673 0.09228 0.0
H1358 H 0.09567 0.5886 0.07686 0.0
H1359 H 0.03595 0.59664 0.0933 0.0
H1360 H 0.14087 0.6424 0.10295 0.0
H1361 H 0.13167 0.62267 0.13672 0.0
H1362 H 0.13326 0.61252 0.09896 0.0
H1363 H 0.03845 0.62553 0.125 0.0
H1364 H 0.05909 0.63295 0.15662 0.0
H1365 H 0.06774 0.65241 0.12266 0.0
H1366 H 0.12603 0.66118 0.21617 0.0
H1367 H 0.14886 0.70828 0.13453 0.0
H1368 H 0.10031 0.60889 0.17846 0.0
H1369 H 0.07577 0.61281 0.18468 0.0
H1370 H 0.0979 0.62066 0.21444 0.0
H1371 H 0.12781 0.66741 0.07867 0.0
H1372 H 0.13231 0.69585 0.08541 0.0
H1373 H 0.10239 0.66984 0.08562 0.0
loop_
_geom_bond_atom_site_label_1
_geom_bond_atom_site_label_2
_geom_bond_distance
_geom_bond_site_symmetry_2
_ccdc_geom_bond_type
C0 C1 1.443 1_556 S
C0 N4 1.376 1_556 S
C0 C38 1.389 . S
C1 C0 1.443 1_554 S
C1 C2 1.340 . S
C1 H41 0.951 1_554 S
C2 C1 1.340 . S
C2 C3 1.439 . S
C2 H42 0.950 . S
C3 C2 1.439 . S
C3 N4 1.374 . S
C3 C37 1.395 . S
N4 C0 1.376 1_554 S
N4 C3 1.374 . S
N4 Co5 1.999 1_655 S
Co5 N4 1.999 1_455 S
Co5 N6 2.018 1_455 S
Co5 N11 2.018 1_554 S
Co5 N16 1.972 1_554 S
Co5 N21 2.298 . S
Co5 N27 2.267 1_454 S
N6 Co5 2.018 1_655 S
N6 C7 1.376 . S
N6 C10 1.383 1_655 S
C7 N6 1.376 . S
C7 C8 1.446 . S
C7 C37 1.391 . S
C8 C7 1.446 . S
C8 C9 1.339 1_655 S
C8 H43 0.949 . S
C9 C8 1.339 1_455 S
C9 C10 1.439 . S
C9 H44 0.950 . S
C10 N6 1.383 1_455 S
C10 C9 1.439 . S
C10 C39 1.392 . S
N11 Co5 2.018 1_556 S
N11 C12 1.376 1_556 S
N11 C15 1.374 . S
C12 N11 1.376 1_554 S
C12 C13 1.443 1_554 S
C12 C39 1.389 . S
C13 C12 1.443 1_556 S
C13 C14 1.340 . S
C13 H45 0.951 1_556 S
C14 C13 1.340 . S
C14 C15 1.439 . S
C14 H46 0.950 . S
C15 N11 1.374 . S
C15 C14 1.439 . S
C15 C40 1.395 . S
N16 Co5 1.972 1_556 S
N16 C17 1.376 . S
N16 C20 1.383 1_455 S
C17 N16 1.376 . S
C17 C18 1.446 . S
C17 C40 1.391 . S
C18 C17 1.446 . S
C18 C19 1.339 1_455 S
C18 H47 0.949 . S
C19 C18 1.339 1_655 S
C19 C20 1.439 . S
C19 H48 0.950 . S
C20 N16 1.383 1_655 S
C20 C19 1.439 . S
C20 C38 1.392 . S
N21 Co5 2.298 . S
N21 C24 1.332 . S
N21 C26 1.332 . S
C22 C23 1.386 . S
C22 C25 1.388 . S
C23 C22 1.386 . S
C23 C24 1.382 . S
C23 H49 0.950 . S
C24 N21 1.332 . S
C24 C23 1.382 . S
C24 H35 0.952 1_554 S
C25 C22 1.388 . S
C25 C26 1.382 . S
C25 H50 0.950 . S
C26 N21 1.332 . S
C26 C25 1.382 . S
C26 H36 0.948 . S
N27 Co5 2.267 1_656 S
N27 C31 1.332 . S
N27 C32 1.332 . S
C28 C29 1.388 . S
C28 C32 1.382 . S
C28 H51 0.950 . S
C29 C28 1.388 . S
C29 C30 1.386 . S
C30 C29 1.386 . S
C30 C31 1.382 . S
C30 H52 0.950 . S
C31 N27 1.332 . S
C31 C30 1.382 . S
C31 H33 0.952 1_556 S
C32 N27 1.332 . S
C32 C28 1.382 . S
C32 H34 0.948 . S
H33 C31 0.952 1_554 S
H34 C32 0.948 . S
H35 C24 0.952 1_556 S
H36 C26 0.948 . S
C37 C3 1.395 . S
C37 C7 1.391 . S
C38 C0 1.389 . S
C38 C20 1.392 . S
C39 C10 1.392 . S
C39 C12 1.389 . S
C40 C15 1.395 . S
C40 C17 1.391 . S
H41 C1 0.951 1_556 S
H42 C2 0.950 . S
H43 C8 0.949 . S
H44 C9 0.950 . S
H45 C13 0.951 1_554 S
H46 C14 0.950 . S
H47 C18 0.949 . S
H48 C19 0.950 . S
H49 C23 0.950 . S
H50 C25 0.950 . S
H51 C28 0.950 . S
H52 C30 0.950 . S
C53 C54 1.443 . S
C53 N57 1.374 . S
C53 C91 1.389 . S
C54 C53 1.443 . S
C54 C55 1.340 1_545 S
C54 H94 0.951 . S
C55 C54 1.340 1_565 S
C55 C56 1.439 . S
C55 H95 0.950 . S
C56 C55 1.439 . S
C56 N57 1.376 1_565 S
C56 C90 1.395 . S
N57 C53 1.374 . S
N57 C56 1.376 1_545 S
N57 Co58 2.007 . S
Co58 N57 2.007 . S
Co58 N59 1.995 1_545 S
Co58 N64 2.008 . S
Co58 N69 1.995 . S
Co58 N74 2.282 1_545 S
Co58 N80 2.282 . S
N59 Co58 1.995 1_565 S
N59 C60 1.376 . S
N59 C63 1.383 . S
C60 N59 1.376 . S
C60 C61 1.446 . S
C60 C90 1.391 . S
C61 C60 1.446 . S
C61 C62 1.339 . S
C61 H96 0.949 . S
C62 C61 1.339 . S
C62 C63 1.439 . S
C62 H97 0.950 . S
C63 N59 1.383 . S
C63 C62 1.439 . S
C63 C92 1.392 . S
N64 Co58 2.008 . S
N64 C65 1.376 1_545 S
N64 C68 1.374 . S
C65 N64 1.376 1_565 S
C65 C66 1.443 . S
C65 C92 1.389 . S
C66 C65 1.443 . S
C66 C67 1.340 1_565 S
C66 H98 0.951 . S
C67 C66 1.340 1_545 S
C67 C68 1.439 . S
C67 H99 0.950 . S
C68 N64 1.374 . S
C68 C67 1.439 . S
C68 C93 1.395 . S
N69 Co58 1.995 . S
N69 C70 1.376 . S
N69 C73 1.383 . S
C70 N69 1.376 . S
C70 C71 1.446 . S
C70 C93 1.391 . S
C71 C70 1.446 . S
C71 C72 1.339 . S
C71 H100 0.949 . S
C72 C71 1.339 . S
C72 C73 1.439 . S
C72 H101 0.950 . S
C73 N69 1.383 . S
C73 C72 1.439 . S
C73 C91 1.392 . S
N74 Co58 2.282 1_565 S
N74 C77 1.332 . S
N74 C79 1.332 . S
C75 C76 1.386 . S
C75 C78 1.388 . S
C76 C75 1.386 . S
C76 C77 1.382 . S
C76 H102 0.950 . S
C77 N74 1.332 . S
C77 C76 1.382 . S
C77 H88 0.952 1_565 S
C78 C75 1.388 . S
C78 C79 1.382 . S
C78 H103 0.950 . S
C79 N74 1.332 . S
C79 C78 1.382 . S
C79 H89 0.948 . S
N80 Co58 2.282 . S
N80 C84 1.332 . S
N80 C85 1.332 . S
C81 C82 1.388 . S
C81 C85 1.382 . S
C81 H104 0.950 . S
C82 C81 1.388 . S
C82 C83 1.386 . S
C83 C82 1.386 . S
C83 C84 1.382 . S
C83 H105 0.950 . S
C84 N80 1.332 . S
C84 C83 1.382 . S
C84 H86 0.948 1_545 S
C85 N80 1.332 . S
C85 C81 1.382 . S
C85 H87 0.948 . S
H86 C84 0.948 1_565 S
H87 C85 0.948 . S
H88 C77 0.952 1_545 S
H89 C79 0.948 . S
C90 C56 1.395 . S
C90 C60 1.391 . S
C91 C53 1.389 . S
C91 C73 1.392 . S
C92 C63 1.392 . S
C92 C65 1.389 . S
C93 C68 1.395 . S
C93 C70 1.391 . S
H94 C54 0.951 . S
H95 C55 0.950 . S
H96 C61 0.949 . S
H97 C62 0.950 . S
H98 C66 0.951 . S
H99 C67 0.950 . S
H100 C71 0.949 . S
H101 C72 0.950 . S
H102 C76 0.950 . S
H103 C78 0.950 . S
H104 C81 0.950 . S
H105 C83 0.950 . S
C106 C107 1.443 . S
C106 N110 1.376 . S
C106 C144 1.389 . S
C107 C106 1.443 . S
C107 C108 1.340 . S
C107 H147 0.951 . S
C108 C107 1.340 . S
C108 C109 1.439 . S
C108 H148 0.950 . S
C109 C108 1.439 . S
C109 N110 1.374 . S
C109 C143 1.395 . S
N110 C106 1.376 . S
N110 C109 1.374 . S
N110 Co111 1.985 1_556 S
Co111 N110 1.985 1_554 S
Co111 N112 1.988 1_554 S
Co111 N117 2.031 . S
Co111 N122 2.001 . S
Co111 N127 2.296 . S
Co111 N133 2.269 1_554 S
N112 Co111 1.988 1_556 S
N112 C113 1.376 . S
N112 C116 1.383 1_556 S
C113 N112 1.376 . S
C113 C114 1.446 . S
C113 C143 1.391 . S
C114 C113 1.446 . S
C114 C115 1.339 . S
C114 H149 0.949 . S
C115 C114 1.339 . S
C115 C116 1.439 1_556 S
C115 H150 0.950 1_556 S
C116 N112 1.383 1_554 S
C116 C115 1.439 1_554 S
C116 C145 1.392 . S
N117 Co111 2.031 . S
N117 C118 1.376 . S
N117 C121 1.374 . S
C118 N117 1.376 . S
C118 C119 1.443 . S
C118 C145 1.389 . S
C119 C118 1.443 . S
C119 C120 1.340 . S
C119 H151 0.951 . S
C120 C119 1.340 . S
C120 C121 1.439 . S
C120 H152 0.950 . S
C121 N117 1.374 . S
C121 C120 1.439 . S
C121 C146 1.395 . S
N122 Co111 2.001 . S
N122 C123 1.376 . S
N122 C126 1.383 1_554 S
C123 N122 1.376 . S
C123 C124 1.446 . S
C123 C146 1.391 . S
C124 C123 1.446 . S
C124 C125 1.339 . S
C124 H153 0.949 . S
C125 C124 1.339 . S
C125 C126 1.439 1_554 S
C125 H154 0.941 1_554 S
C126 N122 1.383 1_556 S
C126 C125 1.439 1_556 S
C126 C144 1.392 . S
N127 Co111 2.296 . S
N127 C130 1.332 . S
N127 C132 1.332 . S
C128 C129 1.386 . S
C128 C131 1.388 . S
C129 C128 1.386 . S
C129 C130 1.382 . S
C129 H155 0.950 . S
C130 N127 1.332 . S
C130 C129 1.382 . S
C130 H141 0.952 . S
C131 C128 1.388 . S
C131 C132 1.382 . S
C131 H156 0.950 . S
C132 N127 1.332 . S
C132 C131 1.382 . S
C132 H142 0.948 1_554 S
N133 Co111 2.269 1_556 S
N133 C137 1.332 . S
N133 C138 1.332 . S
C134 C135 1.388 . S
C134 C138 1.382 . S
C134 H157 0.950 . S
C135 C134 1.388 . S
C135 C136 1.386 . S
C136 C135 1.386 . S
C136 C137 1.382 . S
C136 H158 0.950 . S
C137 N133 1.332 . S
C137 C136 1.382 . S
C137 H139 0.952 . S
C138 N133 1.332 . S
C138 C134 1.382 . S
C138 H140 0.948 1_556 S
H139 C137 0.952 . S
H140 C138 0.948 1_554 S
H141 C130 0.952 . S
H142 C132 0.948 1_556 S
C143 C109 1.395 . S
C143 C113 1.391 . S
C144 C106 1.389 . S
C144 C126 1.392 . S
C145 C116 1.392 . S
C145 C118 1.389 . S
C146 C121 1.395 . S
C146 C123 1.391 . S
H147 C107 0.951 . S
H148 C108 0.950 . S
H149 C114 0.949 . S
H150 C115 0.950 1_554 S
H151 C119 0.951 . S
H152 C120 0.950 . S
H153 C124 0.949 . S
H154 C125 0.941 1_556 S
H155 C129 0.950 . S
H156 C131 0.950 . S
H157 C134 0.950 . S
H158 C136 0.950 . S
C159 C160 1.443 . S
C159 N163 1.376 . S
C159 C197 1.389 . S
C160 C159 1.443 . S
C160 C161 1.340 . S
C160 H200 0.951 . S
C161 C160 1.340 . S
C161 C162 1.439 . S
C161 H201 0.950 . S
C162 C161 1.439 . S
C162 N163 1.374 . S
C162 C196 1.395 . S
N163 C159 1.376 . S
N163 C162 1.374 . S
N163 Co164 1.999 1_655 S
Co164 N163 1.999 1_455 S
Co164 N165 1.989 1_455 S
Co164 N170 2.017 . S
Co164 N175 2.000 . S
Co164 N180 2.294 . S
Co164 N186 2.271 1_455 S
N165 Co164 1.989 1_655 S
N165 C166 1.376 . S
N165 C169 1.383 1_655 S
C166 N165 1.376 . S
C166 C167 1.446 . S
C166 C196 1.391 . S
C167 C166 1.446 . S
C167 C168 1.339 1_655 S
C167 H202 0.949 . S
C168 C167 1.339 1_455 S
C168 C169 1.439 . S
C168 H203 0.950 . S
C169 N165 1.383 1_455 S
C169 C168 1.439 . S
C169 C198 1.392 . S
N170 Co164 2.017 . S
N170 C171 1.376 . S
N170 C174 1.374 . S
C171 N170 1.376 . S
C171 C172 1.443 . S
C171 C198 1.389 . S
C172 C171 1.443 . S
C172 C173 1.340 . S
C172 H204 0.951 . S
C173 C172 1.340 . S
C173 C174 1.439 . S
C173 H205 0.950 . S
C174 N170 1.374 . S
C174 C173 1.439 . S
C174 C199 1.395 . S
N175 Co164 2.000 . S
N175 C176 1.376 . S
N175 C179 1.383 1_455 S
C176 N175 1.376 . S
C176 C177 1.446 . S
C176 C199 1.391 . S
C177 C176 1.446 . S
C177 C178 1.339 1_455 S
C177 H206 0.949 . S
C178 C177 1.339 1_655 S
C178 C179 1.439 . S
C178 H207 0.950 . S
C179 N175 1.383 1_655 S
C179 C178 1.439 . S
C179 C197 1.392 . S
N180 Co164 2.294 . S
N180 C183 1.332 . S
N180 C185 1.332 . S
C181 C182 1.386 . S
C181 C184 1.388 . S
C182 C181 1.386 . S
C182 C183 1.382 . S
C182 H208 0.950 . S
C183 N180 1.332 . S
C183 C182 1.382 . S
C183 H194 0.952 . S
C184 C181 1.388 . S
C184 C185 1.382 . S
C184 H209 0.950 . S
C185 N180 1.332 . S
C185 C184 1.382 . S
C185 H195 0.948 . S
N186 Co164 2.271 1_655 S
N186 C190 1.332 . S
N186 C191 1.332 . S
C187 C188 1.388 . S
C187 C191 1.382 . S
C187 H210 0.950 . S
C188 C187 1.388 . S
C188 C189 1.386 . S
C189 C188 1.386 . S
C189 C190 1.382 . S
C189 H211 0.950 . S
C190 N186 1.332 . S
C190 C189 1.382 . S
C190 H192 0.952 . S
C191 N186 1.332 . S
C191 C187 1.382 . S
C191 H193 0.948 . S
H192 C190 0.952 . S
H193 C191 0.948 . S
H194 C183 0.952 . S
H195 C185 0.948 . S
C196 C162 1.395 . S
C196 C166 1.391 . S
C197 C159 1.389 . S
C197 C179 1.392 . S
C198 C169 1.392 . S
C198 C171 1.389 . S
C199 C174 1.395 . S
C199 C176 1.391 . S
H200 C160 0.951 . S
H201 C161 0.950 . S
H202 C167 0.949 . S
H203 C168 0.950 . S
H204 C172 0.951 . S
H205 C173 0.950 . S
H206 C177 0.949 . S
H207 C178 0.950 . S
H208 C182 0.950 . S
H209 C184 0.950 . S
H210 C187 0.950 . S
H211 C189 0.950 . S
C212 C213 1.443 . S
C212 N216 1.376 1_565 S
C212 C250 1.389 . S
C213 C212 1.443 . S
C213 C214 1.340 1_565 S
C213 H253 0.951 . S
C214 C213 1.340 1_545 S
C214 C215 1.439 . S
C214 H254 0.950 . S
C215 C214 1.439 . S
C215 N216 1.374 . S
C215 C249 1.395 . S
N216 C212 1.376 1_545 S
N216 C215 1.374 . S
N216 Co217 2.029 . S
Co217 N216 2.029 . S
Co217 N218 1.999 . S
Co217 N223 1.995 1_554 S
Co217 N228 1.990 1_544 S
Co217 N233 2.273 1_554 S
Co217 N239 2.292 1_545 S
N218 Co217 1.999 . S
N218 C219 1.376 . S
N218 C222 1.383 1_554 S
C219 N218 1.376 . S
C219 C220 1.446 . S
C219 C249 1.391 . S
C220 C219 1.446 . S
C220 C221 1.339 1_554 S
C220 H255 0.949 . S
C221 C220 1.339 1_556 S
C221 C222 1.439 . S
C221 H256 0.950 . S
C222 N218 1.383 1_556 S
C222 C221 1.439 . S
C222 C251 1.392 . S
N223 Co217 1.995 1_556 S
N223 C224 1.384 . S
N223 C227 1.362 1_545 S
C224 N223 1.384 . S
C224 C225 1.443 . S
C224 C251 1.389 . S
C225 C224 1.443 . S
C225 C226 1.340 1_545 S
C225 H257 0.951 . S
C226 C225 1.340 1_565 S
C226 C227 1.439 . S
C226 H258 0.950 . S
C227 N223 1.362 1_565 S
C227 C226 1.439 . S
C227 C252 1.395 . S
N228 Co217 1.990 1_566 S
N228 C229 1.376 . S
N228 C232 1.383 1_556 S
C229 N228 1.376 . S
C229 C230 1.446 . S
C229 C252 1.391 . S
C230 C229 1.446 . S
C230 C231 1.339 1_556 S
C230 H259 0.949 . S
C231 C230 1.339 1_554 S
C231 C232 1.439 . S
C231 H260 0.950 . S
C232 N228 1.383 1_554 S
C232 C231 1.439 . S
C232 C250 1.392 . S
N233 Co217 2.273 1_556 S
N233 C236 1.332 . S
N233 C238 1.332 . S
C234 C235 1.386 . S
C234 C237 1.388 . S
C235 C234 1.386 . S
C235 C236 1.382 . S
C235 H261 0.950 . S
C236 N233 1.332 . S
C236 C235 1.382 . S
C236 H247 0.969 . S
C237 C234 1.388 . S
C237 C238 1.382 . S
C237 H262 0.950 . S
C238 N233 1.332 . S
C238 C237 1.382 . S
C238 H248 0.970 . S
N239 Co217 2.292 1_565 S
N239 C243 1.332 . S
N239 C244 1.332 . S
C240 C241 1.388 . S
C240 C244 1.382 . S
C240 H263 0.950 . S
C241 C240 1.388 . S
C241 C242 1.386 . S
C242 C241 1.386 . S
C242 C243 1.382 . S
C242 H264 0.950 . S
C243 N239 1.332 . S
C243 C242 1.382 . S
C243 H245 0.952 1_565 S
C244 N239 1.332 . S
C244 C240 1.382 . S
C244 H246 0.948 . S
H245 C243 0.952 1_545 S
H246 C244 0.948 . S
H247 C236 0.969 . S
H248 C238 0.970 . S
C249 C215 1.395 . S
C249 C219 1.391 . S
C250 C212 1.389 . S
C250 C232 1.392 . S
C251 C222 1.392 . S
C251 C224 1.389 . S
C252 C227 1.395 . S
C252 C229 1.391 . S
H253 C213 0.951 . S
H254 C214 0.950 . S
H255 C220 0.949 . S
H256 C221 0.950 . S
H257 C225 0.951 . S
H258 C226 0.950 . S
H259 C230 0.949 . S
H260 C231 0.950 . S
H261 C235 0.950 . S
H262 C237 0.950 . S
H263 C240 0.950 . S
H264 C242 0.950 . S
C265 C266 1.443 . S
C265 N269 1.376 . S
C265 C303 1.389 . S
C266 C265 1.443 . S
C266 C267 1.340 . S
C266 H306 0.951 . S
C267 C266 1.340 . S
C267 C268 1.439 . S
C267 H307 0.950 . S
C268 C267 1.439 . S
C268 N269 1.374 . S
C268 C302 1.395 . S
N269 C265 1.376 . S
N269 C268 1.374 . S
N269 Co270 2.008 . S
Co270 N269 2.008 . S
Co270 N271 1.995 . S
Co270 N276 2.008 . S
Co270 N281 1.995 . S
Co270 N286 2.282 . S
Co270 N292 2.282 . S
N271 Co270 1.995 . S
N271 C272 1.376 . S
N271 C275 1.383 . S
C272 N271 1.376 . S
C272 C273 1.446 . S
C272 C302 1.391 . S
C273 C272 1.446 . S
C273 C274 1.339 . S
C273 H308 0.949 . S
C274 C273 1.339 . S
C274 C275 1.439 . S
C274 H309 0.950 . S
C275 N271 1.383 . S
C275 C274 1.439 . S
C275 C304 1.392 . S
N276 Co270 2.008 . S
N276 C277 1.376 . S
N276 C280 1.374 . S
C277 N276 1.376 . S
C277 C278 1.443 . S
C277 C304 1.389 . S
C278 C277 1.443 . S
C278 C279 1.340 . S
C278 H310 0.951 . S
C279 C278 1.340 . S
C279 C280 1.439 . S
C279 H311 0.950 . S
C280 N276 1.374 . S
C280 C279 1.439 . S
C280 C305 1.395 . S
N281 Co270 1.995 . S
N281 C282 1.376 . S
N281 C285 1.383 . S
C282 N281 1.376 . S
C282 C283 1.446 . S
C282 C305 1.391 . S
C283 C282 1.446 . S
C283 C284 1.339 . S
C283 H312 0.949 . S
C284 C283 1.339 . S
C284 C285 1.439 . S
C284 H313 0.950 . S
C285 N281 1.383 . S
C285 C284 1.439 . S
C285 C303 1.392 . S
N286 Co270 2.282 . S
N286 C289 1.332 . S
N286 C291 1.332 . S
C287 C288 1.386 . S
C287 C290 1.388 . S
C288 C287 1.386 . S
C288 C289 1.382 . S
C288 H314 0.950 . S
C289 N286 1.332 . S
C289 C288 1.382 . S
C289 H300 0.952 . S
C290 C287 1.388 . S
C290 C291 1.382 . S
C290 H315 0.950 . S
C291 N286 1.332 . S
C291 C290 1.382 . S
C291 H301 0.948 . S
N292 Co270 2.282 . S
N292 C296 1.332 . S
N292 C297 1.332 . S
C293 C294 1.388 . S
C293 C297 1.382 . S
C293 H316 0.950 . S
C294 C293 1.388 . S
C294 C295 1.386 . S
C295 C294 1.386 . S
C295 C296 1.382 . S
C295 H317 0.950 . S
C296 N292 1.332 . S
C296 C295 1.382 . S
C296 H298 0.952 . S
C297 N292 1.332 . S
C297 C293 1.382 . S
C297 H299 0.948 . S
H298 C296 0.952 . S
H299 C297 0.948 . S
H300 C289 0.952 . S
H301 C291 0.948 . S
C302 C268 1.395 . S
C302 C272 1.391 . S
C303 C265 1.389 . S
C303 C285 1.392 . S
C304 C275 1.392 . S
C304 C277 1.389 . S
C305 C280 1.395 . S
C305 C282 1.391 . S
H306 C266 0.951 . S
H307 C267 0.950 . S
H308 C273 0.949 . S
H309 C274 0.950 . S
H310 C278 0.951 . S
H311 C279 0.950 . S
H312 C283 0.949 . S
H313 C284 0.950 . S
H314 C288 0.950 . S
H315 C290 0.950 . S
H316 C293 0.950 . S
H317 C295 0.950 . S
H318 C337 0.949 . S
H319 C338 0.950 . S
H320 C340 0.950 . S
H321 C341 0.950 . S
H322 C343 0.950 . S
H323 C346 0.950 . S
H324 C347 0.950 . S
H325 C349 0.951 . S
H326 C350 0.949 . S
H327 C352 0.949 . S
H328 C353 0.950 . S
H329 C355 0.950 . S
H330 C356 0.950 . S
H331 C358 0.950 . S
H332 C361 0.950 . S
H333 C362 0.950 . S
H334 C364 0.951 . S
H335 C365 0.949 . S
C336 C337 1.376 . S
C336 C341 1.386 . S
C336 C342 1.483 . S
C337 H318 0.949 . S
C337 C336 1.376 . S
C337 C338 1.397 . S
C338 H319 0.950 . S
C338 C337 1.397 . S
C338 C339 1.391 . S
C339 C338 1.391 . S
C339 C340 1.405 . S
C340 H320 0.950 . S
C340 C339 1.405 . S
C340 C341 1.367 . S
C341 H321 0.950 . S
C341 C336 1.386 . S
C341 C340 1.367 . S
C342 C336 1.483 . S
C342 C343 1.382 . S
C342 C344 1.403 . S
C343 H322 0.950 . S
C343 C342 1.382 . S
C343 C359 1.411 . S
C344 C342 1.403 . S
C344 C345 1.489 . S
C344 C358 1.411 . S
C345 C344 1.489 . S
C345 C346 1.383 . S
C345 C350 1.382 . S
C346 H323 0.950 . S
C346 C345 1.383 . S
C346 C347 1.395 . S
C347 H324 0.950 . S
C347 C346 1.395 . S
C347 C348 1.288 . S
C348 C347 1.288 . S
C348 C349 1.392 . S
C349 H325 0.951 . S
C349 C348 1.392 . S
C349 C350 1.392 . S
C350 H326 0.949 . S
C350 C345 1.382 . S
C350 C349 1.392 . S
C351 C352 1.376 . S
C351 C356 1.386 . S
C351 C357 1.483 . S
C352 H327 0.949 . S
C352 C351 1.376 . S
C352 C353 1.397 . S
C353 H328 0.950 . S
C353 C352 1.397 . S
C353 C354 1.391 . S
C354 C353 1.391 . S
C354 C355 1.405 . S
C355 H329 0.950 . S
C355 C354 1.405 . S
C355 C356 1.367 . S
C356 H330 0.950 . S
C356 C351 1.386 . S
C356 C355 1.367 . S
C357 C351 1.483 . S
C357 C358 1.382 . S
C357 C359 1.403 . S
C358 H331 0.950 . S
C358 C344 1.411 . S
C358 C357 1.382 . S
C359 C343 1.411 . S
C359 C357 1.403 . S
C359 C360 1.489 . S
C360 C359 1.489 . S
C360 C361 1.383 . S
C360 C365 1.382 . S
C361 H332 0.950 . S
C361 C360 1.383 . S
C361 C362 1.395 . S
C362 H333 0.950 . S
C362 C361 1.395 . S
C362 C363 1.288 . S
C363 C362 1.288 . S
C363 C364 1.392 . S
C364 H334 0.951 . S
C364 C363 1.392 . S
C364 C365 1.392 . S
C365 H335 0.949 . S
C365 C360 1.382 . S
C365 C364 1.392 . S
H366 C385 0.949 . S
H367 C386 0.950 . S
H368 C388 0.950 . S
H369 C389 0.950 . S
H370 C391 0.950 . S
H371 C394 0.950 . S
H372 C395 0.950 . S
H373 C397 0.951 . S
H374 C398 0.949 . S
H375 C400 0.949 . S
H376 C401 0.950 . S
H377 C403 0.950 . S
H378 C404 0.950 . S
H379 C406 0.950 . S
H380 C409 0.950 . S
H381 C410 0.950 . S
H382 C412 0.951 . S
H383 C413 0.949 . S
C384 C385 1.376 . S
C384 C389 1.386 . S
C384 C390 1.483 . S
C385 H366 0.949 . S
C385 C384 1.376 . S
C385 C386 1.397 . S
C386 H367 0.950 . S
C386 C385 1.397 . S
C386 C387 1.391 . S
C387 C386 1.391 . S
C387 C388 1.405 . S
C388 H368 0.950 . S
C388 C387 1.405 . S
C388 C389 1.367 . S
C389 H369 0.950 . S
C389 C384 1.386 . S
C389 C388 1.367 . S
C390 C384 1.483 . S
C390 C391 1.382 . S
C390 C392 1.403 . S
C391 H370 0.950 . S
C391 C390 1.382 . S
C391 C407 1.411 . S
C392 C390 1.403 . S
C392 C393 1.489 . S
C392 C406 1.411 . S
C393 C392 1.489 . S
C393 C394 1.383 . S
C393 C398 1.382 . S
C394 H371 0.950 . S
C394 C393 1.383 . S
C394 C395 1.395 . S
C395 H372 0.950 . S
C395 C394 1.395 . S
C395 C396 1.288 . S
C396 C395 1.288 . S
C396 C397 1.392 . S
C397 H373 0.951 . S
C397 C396 1.392 . S
C397 C398 1.392 . S
C398 H374 0.949 . S
C398 C393 1.382 . S
C398 C397 1.392 . S
C399 C400 1.376 . S
C399 C404 1.386 . S
C399 C405 1.483 . S
C400 H375 0.949 . S
C400 C399 1.376 . S
C400 C401 1.397 . S
C401 H376 0.950 . S
C401 C400 1.397 . S
C401 C402 1.391 . S
C402 C401 1.391 . S
C402 C403 1.405 . S
C403 H377 0.950 . S
C403 C402 1.405 . S
C403 C404 1.367 . S
C404 H378 0.950 . S
C404 C399 1.386 . S
C404 C403 1.367 . S
C405 C399 1.483 . S
C405 C406 1.382 . S
C405 C407 1.403 . S
C406 H379 0.950 . S
C406 C392 1.411 . S
C406 C405 1.382 . S
C407 C391 1.411 . S
C407 C405 1.403 . S
C407 C408 1.489 . S
C408 C407 1.489 . S
C408 C409 1.383 . S
C408 C413 1.382 . S
C409 H380 0.950 . S
C409 C408 1.383 . S
C409 C410 1.395 . S
C410 H381 0.950 . S
C410 C409 1.395 . S
C410 C411 1.288 . S
C411 C410 1.288 . S
C411 C412 1.392 . S
C412 H382 0.951 . S
C412 C411 1.392 . S
C412 C413 1.392 . S
C413 H383 0.949 . S
C413 C408 1.382 . S
C413 C412 1.392 . S
H414 C433 0.949 . S
H415 C434 0.950 . S
H416 C436 0.950 . S
H417 C437 0.950 . S
H418 C439 0.950 . S
H419 C442 0.950 . S
H420 C443 0.950 . S
H421 C445 0.951 . S
H422 C446 0.949 . S
H423 C448 0.949 . S
H424 C449 0.950 . S
H425 C451 0.950 . S
H426 C452 0.950 . S
H427 C454 0.950 . S
H428 C457 0.950 . S
H429 C458 0.950 . S
H430 C460 0.951 . S
H431 C461 0.949 . S
C432 C433 1.376 . S
C432 C437 1.386 . S
C432 C438 1.483 . S
C433 H414 0.949 . S
C433 C432 1.376 . S
C433 C434 1.397 . S
C434 H415 0.950 . S
C434 C433 1.397 . S
C434 C435 1.391 . S
C435 C434 1.391 . S
C435 C436 1.405 . S
C436 H416 0.950 . S
C436 C435 1.405 . S
C436 C437 1.367 . S
C437 H417 0.950 . S
C437 C432 1.386 . S
C437 C436 1.367 . S
C438 C432 1.483 . S
C438 C439 1.382 . S
C438 C440 1.403 . S
C439 H418 0.950 . S
C439 C438 1.382 . S
C439 C455 1.411 . S
C440 C438 1.403 . S
C440 C441 1.489 . S
C440 C454 1.411 . S
C441 C440 1.489 . S
C441 C442 1.383 . S
C441 C446 1.382 . S
C442 H419 0.950 . S
C442 C441 1.383 . S
C442 C443 1.395 . S
C443 H420 0.950 . S
C443 C442 1.395 . S
C443 C444 1.288 . S
C444 C443 1.288 . S
C444 C445 1.392 . S
C445 H421 0.951 . S
C445 C444 1.392 . S
C445 C446 1.392 . S
C446 H422 0.949 . S
C446 C441 1.382 . S
C446 C445 1.392 . S
C447 C448 1.376 . S
C447 C452 1.386 . S
C447 C453 1.483 . S
C448 H423 0.949 . S
C448 C447 1.376 . S
C448 C449 1.397 . S
C449 H424 0.950 . S
C449 C448 1.397 . S
C449 C450 1.391 . S
C450 C449 1.391 . S
C450 C451 1.405 . S
C451 H425 0.950 . S
C451 C450 1.405 . S
C451 C452 1.367 . S
C452 H426 0.950 . S
C452 C447 1.386 . S
C452 C451 1.367 . S
C453 C447 1.483 . S
C453 C454 1.382 . S
C453 C455 1.403 . S
C454 H427 0.950 . S
C454 C440 1.411 . S
C454 C453 1.382 . S
C455 C439 1.411 . S
C455 C453 1.403 . S
C455 C456 1.489 . S
C456 C455 1.489 . S
C456 C457 1.383 . S
C456 C461 1.382 . S
C457 H428 0.950 . S
C457 C456 1.383 . S
C457 C458 1.395 . S
C458 H429 0.950 . S
C458 C457 1.395 . S
C458 C459 1.288 . S
C459 C458 1.288 . S
C459 C460 1.392 . S
C460 H430 0.951 . S
C460 C459 1.392 . S
C460 C461 1.392 . S
C461 H431 0.949 . S
C461 C456 1.382 . S
C461 C460 1.392 . S
H462 C481 0.949 . S
H463 C482 0.950 . S
H464 C484 0.950 . S
H465 C485 0.950 . S
H466 C487 0.950 . S
H467 C490 0.950 . S
H468 C491 0.950 . S
H469 C493 0.951 . S
H470 C494 0.949 . S
H471 C496 0.949 . S
H472 C497 0.950 . S
H473 C499 0.950 . S
H474 C500 0.950 . S
H475 C502 0.950 . S
H476 C505 0.950 . S
H477 C506 0.950 . S
H478 C508 0.951 . S
H479 C509 0.949 . S
C480 C481 1.376 . S
C480 C485 1.386 . S
C480 C486 1.483 . S
C481 H462 0.949 . S
C481 C480 1.376 . S
C481 C482 1.397 . S
C482 H463 0.950 . S
C482 C481 1.397 . S
C482 C483 1.391 . S
C483 C482 1.391 . S
C483 C484 1.405 . S
C484 H464 0.950 . S
C484 C483 1.405 . S
C484 C485 1.367 . S
C485 H465 0.950 . S
C485 C480 1.386 . S
C485 C484 1.367 . S
C486 C480 1.483 . S
C486 C487 1.382 . S
C486 C488 1.403 . S
C487 H466 0.950 . S
C487 C486 1.382 . S
C487 C503 1.411 . S
C488 C486 1.403 . S
C488 C489 1.489 . S
C488 C502 1.411 . S
C489 C488 1.489 . S
C489 C490 1.383 . S
C489 C494 1.382 . S
C490 H467 0.950 . S
C490 C489 1.383 . S
C490 C491 1.395 . S
C491 H468 0.950 . S
C491 C490 1.395 . S
C491 C492 1.288 . S
C492 C491 1.288 . S
C492 C493 1.392 . S
C493 H469 0.951 . S
C493 C492 1.392 . S
C493 C494 1.392 . S
C494 H470 0.949 . S
C494 C489 1.382 . S
C494 C493 1.392 . S
C495 C496 1.376 . S
C495 C500 1.386 . S
C495 C501 1.483 . S
C496 H471 0.949 . S
C496 C495 1.376 . S
C496 C497 1.397 . S
C497 H472 0.950 . S
C497 C496 1.397 . S
C497 C498 1.391 . S
C498 C497 1.391 . S
C498 C499 1.405 . S
C499 H473 0.950 . S
C499 C498 1.405 . S
C499 C500 1.367 . S
C500 H474 0.950 . S
C500 C495 1.386 . S
C500 C499 1.367 . S
C501 C495 1.483 . S
C501 C502 1.382 . S
C501 C503 1.403 . S
C502 H475 0.950 . S
C502 C488 1.411 . S
C502 C501 1.382 . S
C503 C487 1.411 . S
C503 C501 1.403 . S
C503 C504 1.489 . S
C504 C503 1.489 . S
C504 C505 1.383 . S
C504 C509 1.382 . S
C505 H476 0.950 . S
C505 C504 1.383 . S
C505 C506 1.395 . S
C506 H477 0.950 . S
C506 C505 1.395 . S
C506 C507 1.288 . S
C507 C506 1.288 . S
C507 C508 1.392 . S
C508 H478 0.951 . S
C508 C507 1.392 . S
C508 C509 1.392 . S
C509 H479 0.949 . S
C509 C504 1.382 . S
C509 C508 1.392 . S
H510 C529 0.949 . S
H511 C530 0.950 . S
H512 C532 0.950 . S
H513 C533 0.950 . S
H514 C535 0.950 . S
H515 C538 0.950 . S
H516 C539 0.950 . S
H517 C541 0.951 . S
H518 C542 0.949 . S
H519 C544 0.949 . S
H520 C545 0.950 . S
H521 C547 0.950 . S
H522 C548 0.950 . S
H523 C550 0.950 . S
H524 C553 0.950 . S
H525 C554 0.950 . S
H526 C556 0.951 . S
H527 C557 0.949 . S
C528 C529 1.376 . S
C528 C533 1.386 . S
C528 C534 1.483 . S
C529 H510 0.949 . S
C529 C528 1.376 . S
C529 C530 1.397 . S
C530 H511 0.950 . S
C530 C529 1.397 . S
C530 C531 1.391 . S
C531 C530 1.391 . S
C531 C532 1.405 . S
C532 H512 0.950 . S
C532 C531 1.405 . S
C532 C533 1.367 . S
C533 H513 0.950 . S
C533 C528 1.386 . S
C533 C532 1.367 . S
C534 C528 1.483 . S
C534 C535 1.382 . S
C534 C536 1.403 . S
C535 H514 0.950 . S
C535 C534 1.382 . S
C535 C551 1.411 . S
C536 C534 1.403 . S
C536 C537 1.489 . S
C536 C550 1.411 . S
C537 C536 1.489 . S
C537 C538 1.383 . S
C537 C542 1.382 . S
C538 H515 0.950 . S
C538 C537 1.383 . S
C538 C539 1.395 . S
C539 H516 0.950 . S
C539 C538 1.395 . S
C539 C540 1.288 . S
C540 C539 1.288 . S
C540 C541 1.392 . S
C541 H517 0.951 . S
C541 C540 1.392 . S
C541 C542 1.392 . S
C542 H518 0.949 . S
C542 C537 1.382 . S
C542 C541 1.392 . S
C543 C544 1.376 . S
C543 C548 1.386 . S
C543 C549 1.483 . S
C544 H519 0.949 . S
C544 C543 1.376 . S
C544 C545 1.397 . S
C545 H520 0.950 . S
C545 C544 1.397 . S
C545 C546 1.391 . S
C546 C545 1.391 . S
C546 C547 1.405 . S
C547 H521 0.950 . S
C547 C546 1.405 . S
C547 C548 1.367 . S
C548 H522 0.950 . S
C548 C543 1.386 . S
C548 C547 1.367 . S
C549 C543 1.483 . S
C549 C550 1.382 . S
C549 C551 1.403 . S
C550 H523 0.950 . S
C550 C536 1.411 . S
C550 C549 1.382 . S
C551 C535 1.411 . S
C551 C549 1.403 . S
C551 C552 1.489 . S
C552 C551 1.489 . S
C552 C553 1.383 . S
C552 C557 1.382 . S
C553 H524 0.950 . S
C553 C552 1.383 . S
C553 C554 1.395 . S
C554 H525 0.950 . S
C554 C553 1.395 . S
C554 C555 1.288 . S
C555 C554 1.288 . S
C555 C556 1.392 . S
C556 H526 0.951 . S
C556 C555 1.392 . S
C556 C557 1.392 . S
C557 H527 0.949 . S
C557 C552 1.382 . S
C557 C556 1.392 . S
H558 C577 0.949 . S
H559 C578 0.950 . S
H560 C580 0.950 . S
H561 C581 0.950 . S
H562 C583 0.950 . S
H563 C586 0.950 . S
H564 C587 0.950 . S
H565 C589 0.951 . S
H566 C590 0.949 . S
H567 C592 0.949 . S
H568 C593 0.950 . S
H569 C595 0.950 . S
H570 C596 0.950 . S
H571 C598 0.950 . S
H572 C601 0.950 . S
H573 C602 0.950 . S
H574 C604 0.951 . S
H575 C605 0.949 . S
C576 C577 1.376 . S
C576 C581 1.386 . S
C576 C582 1.483 . S
C577 H558 0.949 . S
C577 C576 1.376 . S
C577 C578 1.397 . S
C578 H559 0.950 . S
C578 C577 1.397 . S
C578 C579 1.391 . S
C579 C578 1.391 . S
C579 C580 1.405 . S
C580 H560 0.950 . S
C580 C579 1.405 . S
C580 C581 1.367 . S
C581 H561 0.950 . S
C581 C576 1.386 . S
C581 C580 1.367 . S
C582 C576 1.483 . S
C582 C583 1.382 . S
C582 C584 1.403 . S
C583 H562 0.950 . S
C583 C582 1.382 . S
C583 C599 1.411 . S
C584 C582 1.403 . S
C584 C585 1.489 . S
C584 C598 1.411 . S
C585 C584 1.489 . S
C585 C586 1.383 . S
C585 C590 1.382 . S
C586 H563 0.950 . S
C586 C585 1.383 . S
C586 C587 1.395 . S
C587 H564 0.950 . S
C587 C586 1.395 . S
C587 C588 1.288 . S
C588 C587 1.288 . S
C588 C589 1.392 . S
C589 H565 0.951 . S
C589 C588 1.392 . S
C589 C590 1.392 . S
C590 H566 0.949 . S
C590 C585 1.382 . S
C590 C589 1.392 . S
C591 C592 1.376 . S
C591 C596 1.386 . S
C591 C597 1.483 . S
C592 H567 0.949 . S
C592 C591 1.376 . S
C592 C593 1.397 . S
C593 H568 0.950 . S
C593 C592 1.397 . S
C593 C594 1.391 . S
C594 C593 1.391 . S
C594 C595 1.405 . S
C595 H569 0.950 . S
C595 C594 1.405 . S
C595 C596 1.367 . S
C596 H570 0.950 . S
C596 C591 1.386 . S
C596 C595 1.367 . S
C597 C591 1.483 . S
C597 C598 1.382 . S
C597 C599 1.403 . S
C598 H571 0.950 . S
C598 C584 1.411 . S
C598 C597 1.382 . S
C599 C583 1.411 . S
C599 C597 1.403 . S
C599 C600 1.489 . S
C600 C599 1.489 . S
C600 C601 1.383 . S
C600 C605 1.382 . S
C601 H572 0.950 . S
C601 C600 1.383 . S
C601 C602 1.395 . S
C602 H573 0.950 . S
C602 C601 1.395 . S
C602 C603 1.288 . S
C603 C602 1.288 . S
C603 C604 1.392 . S
C604 H574 0.951 . S
C604 C603 1.392 . S
C604 C605 1.392 . S
C605 H575 0.949 . S
C605 C600 1.382 . S
C605 C604 1.392 . S
C606 C607 1.391 . S
C606 C608 1.394 . S
C606 H622 0.931 . S
C607 C606 1.391 . S
C607 C611 1.376 . S
C608 C606 1.394 . S
C608 C609 1.369 . S
C608 C612 1.531 . S
C609 C608 1.369 . S
C609 C610 1.410 . S
C609 C617 1.503 . S
C610 C609 1.410 . S
C610 C611 1.392 . S
C610 C613 1.511 . S
C611 C607 1.376 . S
C611 C610 1.392 . S
C611 H623 0.929 . S
C612 C608 1.531 . S
C612 H624 0.960 . S
C612 H625 0.962 . S
C612 H626 0.960 . S
C613 C610 1.511 . S
C613 H627 0.961 . S
C613 H628 0.961 . S
C613 H629 0.961 . S
C614 C615 1.370 . S
C614 C616 1.363 . S
C614 H630 0.931 . S
C615 C614 1.370 . S
C615 C619 1.408 . S
C616 C614 1.363 . S
C616 C617 1.370 . S
C616 C620 1.524 . S
C617 C609 1.503 . S
C617 C616 1.370 . S
C617 C618 1.403 . S
C618 C617 1.403 . S
C618 C619 1.404 . S
C618 C621 1.539 . S
C619 C615 1.408 . S
C619 C618 1.404 . S
C619 H631 0.930 . S
C620 C616 1.524 . S
C620 H632 0.956 . S
C620 H633 0.961 . S
C620 H634 0.961 . S
C621 C618 1.539 . S
C621 H635 0.958 . S
C621 H636 0.961 . S
C621 H637 0.960 . S
H622 C606 0.931 . S
H623 C611 0.929 . S
H624 C612 0.960 . S
H625 C612 0.962 . S
H626 C612 0.960 . S
H627 C613 0.961 . S
H628 C613 0.961 . S
H629 C613 0.961 . S
H630 C614 0.931 . S
H631 C619 0.930 . S
H632 C620 0.956 . S
H633 C620 0.961 . S
H634 C620 0.961 . S
H635 C621 0.958 . S
H636 C621 0.961 . S
H637 C621 0.960 . S
C638 C639 1.391 . S
C638 C640 1.394 . S
C638 H654 0.931 . S
C639 C638 1.391 . S
C639 C643 1.376 . S
C640 C638 1.394 . S
C640 C641 1.369 . S
C640 C644 1.531 . S
C641 C640 1.369 . S
C641 C642 1.410 . S
C641 C649 1.503 . S
C642 C641 1.410 . S
C642 C643 1.392 . S
C642 C645 1.511 . S
C643 C639 1.376 . S
C643 C642 1.392 . S
C643 H655 0.929 . S
C644 C640 1.531 . S
C644 H656 0.960 . S
C644 H657 0.962 . S
C644 H658 0.960 . S
C645 C642 1.511 . S
C645 H659 0.961 . S
C645 H660 0.961 . S
C645 H661 0.961 . S
C646 C647 1.370 . S
C646 C648 1.363 . S
C646 H662 0.931 . S
C647 C646 1.370 . S
C647 C651 1.408 . S
C648 C646 1.363 . S
C648 C649 1.370 . S
C648 C652 1.524 . S
C649 C641 1.503 . S
C649 C648 1.370 . S
C649 C650 1.403 . S
C650 C649 1.403 . S
C650 C651 1.404 . S
C650 C653 1.539 . S
C651 C647 1.408 . S
C651 C650 1.404 . S
C651 H663 0.930 . S
C652 C648 1.524 . S
C652 H664 0.956 . S
C652 H665 0.961 . S
C652 H666 0.961 . S
C653 C650 1.539 . S
C653 H667 0.958 . S
C653 H668 0.961 . S
C653 H669 0.960 . S
H654 C638 0.931 . S
H655 C643 0.929 . S
H656 C644 0.960 . S
H657 C644 0.962 . S
H658 C644 0.960 . S
H659 C645 0.961 . S
H660 C645 0.961 . S
H661 C645 0.961 . S
H662 C646 0.931 . S
H663 C651 0.930 . S
H664 C652 0.956 . S
H665 C652 0.961 . S
H666 C652 0.961 . S
H667 C653 0.958 . S
H668 C653 0.961 . S
H669 C653 0.960 . S
C670 C671 1.391 . S
C670 C672 1.394 . S
C670 H686 0.931 . S
C671 C670 1.391 . S
C671 C675 1.376 . S
C672 C670 1.394 . S
C672 C673 1.369 . S
C672 C676 1.531 . S
C673 C672 1.369 . S
C673 C674 1.410 . S
C673 C681 1.503 . S
C674 C673 1.410 . S
C674 C675 1.392 . S
C674 C677 1.511 . S
C675 C671 1.376 . S
C675 C674 1.392 . S
C675 H687 0.929 . S
C676 C672 1.531 . S
C676 H688 0.960 . S
C676 H689 0.962 . S
C676 H690 0.960 . S
C677 C674 1.511 . S
C677 H691 0.961 . S
C677 H692 0.961 . S
C677 H693 0.961 . S
C678 C679 1.370 . S
C678 C680 1.363 . S
C678 H694 0.931 . S
C679 C678 1.370 . S
C679 C683 1.408 . S
C680 C678 1.363 . S
C680 C681 1.370 . S
C680 C684 1.524 . S
C681 C673 1.503 . S
C681 C680 1.370 . S
C681 C682 1.403 . S
C682 C681 1.403 . S
C682 C683 1.404 . S
C682 C685 1.539 . S
C683 C679 1.408 . S
C683 C682 1.404 . S
C683 H695 0.930 . S
C684 C680 1.524 . S
C684 H696 0.956 . S
C684 H697 0.961 . S
C684 H698 0.961 . S
C685 C682 1.539 . S
C685 H699 0.958 . S
C685 H700 0.961 . S
C685 H701 0.960 . S
H686 C670 0.931 . S
H687 C675 0.929 . S
H688 C676 0.960 . S
H689 C676 0.962 . S
H690 C676 0.960 . S
H691 C677 0.961 . S
H692 C677 0.961 . S
H693 C677 0.961 . S
H694 C678 0.931 . S
H695 C683 0.930 . S
H696 C684 0.956 . S
H697 C684 0.961 . S
H698 C684 0.961 . S
H699 C685 0.958 . S
H700 C685 0.961 . S
H701 C685 0.960 . S
C702 C703 1.391 . S
C702 C704 1.394 . S
C702 H718 0.931 . S
C703 C702 1.391 . S
C703 C707 1.376 . S
C704 C702 1.394 . S
C704 C705 1.369 . S
C704 C708 1.531 . S
C705 C704 1.369 . S
C705 C706 1.410 . S
C705 C713 1.503 . S
C706 C705 1.410 . S
C706 C707 1.392 . S
C706 C709 1.511 . S
C707 C703 1.376 . S
C707 C706 1.392 . S
C707 H719 0.929 . S
C708 C704 1.531 . S
C708 H720 0.960 . S
C708 H721 0.962 . S
C708 H722 0.960 . S
C709 C706 1.511 . S
C709 H723 0.961 . S
C709 H724 0.961 . S
C709 H725 0.961 . S
C710 C711 1.370 . S
C710 C712 1.363 . S
C710 H726 0.931 . S
C711 C710 1.370 . S
C711 C715 1.408 . S
C712 C710 1.363 . S
C712 C713 1.370 . S
C712 C716 1.524 . S
C713 C705 1.503 . S
C713 C712 1.370 . S
C713 C714 1.403 . S
C714 C713 1.403 . S
C714 C715 1.404 . S
C714 C717 1.539 . S
C715 C711 1.408 . S
C715 C714 1.404 . S
C715 H727 0.930 . S
C716 C712 1.524 . S
C716 H728 0.956 . S
C716 H729 0.961 . S
C716 H730 0.961 . S
C717 C714 1.539 . S
C717 H731 0.958 . S
C717 H732 0.961 . S
C717 H733 0.960 . S
H718 C702 0.931 . S
H719 C707 0.929 . S
H720 C708 0.960 . S
H721 C708 0.962 . S
H722 C708 0.960 . S
H723 C709 0.961 . S
H724 C709 0.961 . S
H725 C709 0.961 . S
H726 C710 0.931 . S
H727 C715 0.930 . S
H728 C716 0.956 . S
H729 C716 0.961 . S
H730 C716 0.961 . S
H731 C717 0.958 . S
H732 C717 0.961 . S
H733 C717 0.960 . S
C734 C735 1.391 . S
C734 C736 1.394 . S
C734 H750 0.931 . S
C735 C734 1.391 . S
C735 C739 1.376 . S
C736 C734 1.394 . S
C736 C737 1.369 . S
C736 C740 1.531 . S
C737 C736 1.369 . S
C737 C738 1.410 . S
C737 C745 1.503 . S
C738 C737 1.410 . S
C738 C739 1.392 . S
C738 C741 1.511 . S
C739 C735 1.376 . S
C739 C738 1.392 . S
C739 H751 0.929 . S
C740 C736 1.531 . S
C740 H752 0.960 . S
C740 H753 0.962 . S
C740 H754 0.960 . S
C741 C738 1.511 . S
C741 H755 0.961 . S
C741 H756 0.961 . S
C741 H757 0.961 . S
C742 C743 1.370 . S
C742 C744 1.363 . S
C742 H758 0.931 . S
C743 C742 1.370 . S
C743 C747 1.408 . S
C744 C742 1.363 . S
C744 C745 1.370 . S
C744 C748 1.524 . S
C745 C737 1.503 . S
C745 C744 1.370 . S
C745 C746 1.403 . S
C746 C745 1.403 . S
C746 C747 1.404 . S
C746 C749 1.539 . S
C747 C743 1.408 . S
C747 C746 1.404 . S
C747 H759 0.930 . S
C748 C744 1.524 . S
C748 H760 0.956 . S
C748 H761 0.961 . S
C748 H762 0.961 . S
C749 C746 1.539 . S
C749 H763 0.958 . S
C749 H764 0.961 . S
C749 H765 0.960 . S
H750 C734 0.931 . S
H751 C739 0.929 . S
H752 C740 0.960 . S
H753 C740 0.962 . S
H754 C740 0.960 . S
H755 C741 0.961 . S
H756 C741 0.961 . S
H757 C741 0.961 . S
H758 C742 0.931 . S
H759 C747 0.930 . S
H760 C748 0.956 . S
H761 C748 0.961 . S
H762 C748 0.961 . S
H763 C749 0.958 . S
H764 C749 0.961 . S
H765 C749 0.960 . S
C766 C767 1.391 . S
C766 C768 1.394 . S
C766 H782 0.931 . S
C767 C766 1.391 . S
C767 C771 1.376 . S
C768 C766 1.394 . S
C768 C769 1.369 . S
C768 C772 1.531 . S
C769 C768 1.369 . S
C769 C770 1.410 . S
C769 C777 1.503 . S
C770 C769 1.410 . S
C770 C771 1.392 . S
C770 C773 1.511 . S
C771 C767 1.376 . S
C771 C770 1.392 . S
C771 H783 0.929 . S
C772 C768 1.531 . S
C772 H784 0.960 . S
C772 H785 0.962 . S
C772 H786 0.960 . S
C773 C770 1.511 . S
C773 H787 0.961 . S
C773 H788 0.961 . S
C773 H789 0.961 . S
C774 C775 1.370 . S
C774 C776 1.363 . S
C774 H790 0.931 . S
C775 C774 1.370 . S
C775 C779 1.408 . S
C776 C774 1.363 . S
C776 C777 1.370 . S
C776 C780 1.524 . S
C777 C769 1.503 . S
C777 C776 1.370 . S
C777 C778 1.403 . S
C778 C777 1.403 . S
C778 C779 1.404 . S
C778 C781 1.539 . S
C779 C775 1.408 . S
C779 C778 1.404 . S
C779 H791 0.930 . S
C780 C776 1.524 . S
C780 H792 0.956 . S
C780 H793 0.961 . S
C780 H794 0.961 . S
C781 C778 1.539 . S
C781 H795 0.958 . S
C781 H796 0.961 . S
C781 H797 0.960 . S
H782 C766 0.931 . S
H783 C771 0.929 . S
H784 C772 0.960 . S
H785 C772 0.962 . S
H786 C772 0.960 . S
H787 C773 0.961 . S
H788 C773 0.961 . S
H789 C773 0.961 . S
H790 C774 0.931 . S
H791 C779 0.930 . S
H792 C780 0.956 . S
H793 C780 0.961 . S
H794 C780 0.961 . S
H795 C781 0.958 . S
H796 C781 0.961 . S
H797 C781 0.960 . S
C798 C799 1.391 . S
C798 C800 1.394 . S
C798 H814 0.931 . S
C799 C798 1.391 . S
C799 C803 1.376 . S
C800 C798 1.394 . S
C800 C801 1.369 . S
C800 C804 1.531 . S
C801 C800 1.369 . S
C801 C802 1.410 . S
C801 C809 1.503 . S
C802 C801 1.410 . S
C802 C803 1.392 . S
C802 C805 1.511 . S
C803 C799 1.376 . S
C803 C802 1.392 . S
C803 H815 0.929 . S
C804 C800 1.531 . S
C804 H816 0.960 . S
C804 H817 0.962 . S
C804 H818 0.960 . S
C805 C802 1.511 . S
C805 H819 0.961 . S
C805 H820 0.961 . S
C805 H821 0.961 . S
C806 C807 1.370 . S
C806 C808 1.363 . S
C806 H822 0.931 . S
C807 C806 1.370 . S
C807 C811 1.408 . S
C808 C806 1.363 . S
C808 C809 1.370 . S
C808 C812 1.524 . S
C809 C801 1.503 . S
C809 C808 1.370 . S
C809 C810 1.403 . S
C810 C809 1.403 . S
C810 C811 1.404 . S
C810 C813 1.539 . S
C811 C807 1.408 . S
C811 C810 1.404 . S
C811 H823 0.930 . S
C812 C808 1.524 . S
C812 H824 0.956 . S
C812 H825 0.961 . S
C812 H826 0.961 . S
C813 C810 1.539 . S
C813 H827 0.958 . S
C813 H828 0.961 . S
C813 H829 0.960 . S
H814 C798 0.931 . S
H815 C803 0.929 . S
H816 C804 0.960 . S
H817 C804 0.962 . S
H818 C804 0.960 . S
H819 C805 0.961 . S
H820 C805 0.961 . S
H821 C805 0.961 . S
H822 C806 0.931 . S
H823 C811 0.930 . S
H824 C812 0.956 . S
H825 C812 0.961 . S
H826 C812 0.961 . S
H827 C813 0.958 . S
H828 C813 0.961 . S
H829 C813 0.960 . S
C830 C831 1.391 . S
C830 C832 1.394 . S
C830 H846 0.931 . S
C831 C830 1.391 . S
C831 C835 1.376 . S
C832 C830 1.394 . S
C832 C833 1.369 . S
C832 C836 1.531 . S
C833 C832 1.369 . S
C833 C834 1.410 . S
C833 C841 1.503 . S
C834 C833 1.410 . S
C834 C835 1.392 . S
C834 C837 1.511 . S
C835 C831 1.376 . S
C835 C834 1.392 . S
C835 H847 0.929 . S
C836 C832 1.531 . S
C836 H848 0.960 . S
C836 H849 0.962 . S
C836 H850 0.960 . S
C837 C834 1.511 . S
C837 H851 0.961 . S
C837 H852 0.961 . S
C837 H853 0.961 . S
C838 C839 1.370 . S
C838 C840 1.363 . S
C838 H854 0.931 . S
C839 C838 1.370 . S
C839 C843 1.408 . S
C840 C838 1.363 . S
C840 C841 1.370 . S
C840 C844 1.524 . S
C841 C833 1.503 . S
C841 C840 1.370 . S
C841 C842 1.403 . S
C842 C841 1.403 . S
C842 C843 1.404 . S
C842 C845 1.539 . S
C843 C839 1.408 . S
C843 C842 1.404 . S
C843 H855 0.930 . S
C844 C840 1.524 . S
C844 H856 0.956 . S
C844 H857 0.961 . S
C844 H858 0.961 . S
C845 C842 1.539 . S
C845 H859 0.958 . S
C845 H860 0.961 . S
C845 H861 0.960 . S
H846 C830 0.931 . S
H847 C835 0.929 . S
H848 C836 0.960 . S
H849 C836 0.962 . S
H850 C836 0.960 . S
H851 C837 0.961 . S
H852 C837 0.961 . S
H853 C837 0.961 . S
H854 C838 0.931 . S
H855 C843 0.930 . S
H856 C844 0.956 . S
H857 C844 0.961 . S
H858 C844 0.961 . S
H859 C845 0.958 . S
H860 C845 0.961 . S
H861 C845 0.960 . S
C862 C863 1.391 . S
C862 C864 1.394 . S
C862 H878 0.931 . S
C863 C862 1.391 . S
C863 C867 1.376 . S
C864 C862 1.394 . S
C864 C865 1.369 . S
C864 C868 1.531 . S
C865 C864 1.369 . S
C865 C866 1.410 . S
C865 C873 1.503 . S
C866 C865 1.410 . S
C866 C867 1.392 . S
C866 C869 1.511 . S
C867 C863 1.376 . S
C867 C866 1.392 . S
C867 H879 0.929 . S
C868 C864 1.531 . S
C868 H880 0.960 . S
C868 H881 0.962 . S
C868 H882 0.960 . S
C869 C866 1.511 . S
C869 H883 0.961 . S
C869 H884 0.961 . S
C869 H885 0.961 . S
C870 C871 1.370 . S
C870 C872 1.363 . S
C870 H886 0.931 . S
C871 C870 1.370 . S
C871 C875 1.408 . S
C872 C870 1.363 . S
C872 C873 1.370 . S
C872 C876 1.524 . S
C873 C865 1.503 . S
C873 C872 1.370 . S
C873 C874 1.403 . S
C874 C873 1.403 . S
C874 C875 1.404 . S
C874 C877 1.539 . S
C875 C871 1.408 . S
C875 C874 1.404 . S
C875 H887 0.930 . S
C876 C872 1.524 . S
C876 H888 0.956 . S
C876 H889 0.961 . S
C876 H890 0.961 . S
C877 C874 1.539 . S
C877 H891 0.958 . S
C877 H892 0.961 . S
C877 H893 0.960 . S
H878 C862 0.931 . S
H879 C867 0.929 . S
H880 C868 0.960 . S
H881 C868 0.962 . S
H882 C868 0.960 . S
H883 C869 0.961 . S
H884 C869 0.961 . S
H885 C869 0.961 . S
H886 C870 0.931 . S
H887 C875 0.930 . S
H888 C876 0.956 . S
H889 C876 0.961 . S
H890 C876 0.961 . S
H891 C877 0.958 . S
H892 C877 0.961 . S
H893 C877 0.960 . S
C894 C895 1.391 . S
C894 C896 1.394 . S
C894 H910 0.931 . S
C895 C894 1.391 . S
C895 C899 1.376 . S
C896 C894 1.394 . S
C896 C897 1.369 . S
C896 C900 1.531 . S
C897 C896 1.369 . S
C897 C898 1.410 . S
C897 C905 1.503 . S
C898 C897 1.410 . S
C898 C899 1.392 . S
C898 C901 1.511 . S
C899 C895 1.376 . S
C899 C898 1.392 . S
C899 H911 0.929 . S
C900 C896 1.531 . S
C900 H912 0.960 . S
C900 H913 0.962 . S
C900 H914 0.960 . S
C901 C898 1.511 . S
C901 H915 0.961 . S
C901 H916 0.961 . S
C901 H917 0.961 . S
C902 C903 1.370 . S
C902 C904 1.363 . S
C902 H918 0.931 . S
C903 C902 1.370 . S
C903 C907 1.408 . S
C904 C902 1.363 . S
C904 C905 1.370 . S
C904 C908 1.524 . S
C905 C897 1.503 . S
C905 C904 1.370 . S
C905 C906 1.403 . S
C906 C905 1.403 . S
C906 C907 1.404 . S
C906 C909 1.539 . S
C907 C903 1.408 . S
C907 C906 1.404 . S
C907 H919 0.930 . S
C908 C904 1.524 . S
C908 H920 0.956 . S
C908 H921 0.961 . S
C908 H922 0.961 . S
C909 C906 1.539 . S
C909 H923 0.958 . S
C909 H924 0.961 . S
C909 H925 0.960 . S
H910 C894 0.931 . S
H911 C899 0.929 . S
H912 C900 0.960 . S
H913 C900 0.962 . S
H914 C900 0.960 . S
H915 C901 0.961 . S
H916 C901 0.961 . S
H917 C901 0.961 . S
H918 C902 0.931 . S
H919 C907 0.930 . S
H920 C908 0.956 . S
H921 C908 0.961 . S
H922 C908 0.961 . S
H923 C909 0.958 . S
H924 C909 0.961 . S
H925 C909 0.960 . S
C926 C927 1.391 . S
C926 C928 1.394 . S
C926 H942 0.931 . S
C927 C926 1.391 . S
C927 C931 1.376 . S
C928 C926 1.394 . S
C928 C929 1.369 . S
C928 C932 1.531 . S
C929 C928 1.369 . S
C929 C930 1.410 . S
C929 C937 1.503 . S
C930 C929 1.410 . S
C930 C931 1.392 . S
C930 C933 1.511 . S
C931 C927 1.376 . S
C931 C930 1.392 . S
C931 H943 0.929 . S
C932 C928 1.531 . S
C932 H944 0.960 . S
C932 H945 0.962 . S
C932 H946 0.960 . S
C933 C930 1.511 . S
C933 H947 0.961 . S
C933 H948 0.961 . S
C933 H949 0.961 . S
C934 C935 1.370 . S
C934 C936 1.363 . S
C934 H950 0.931 . S
C935 C934 1.370 . S
C935 C939 1.408 . S
C936 C934 1.363 . S
C936 C937 1.370 . S
C936 C940 1.524 . S
C937 C929 1.503 . S
C937 C936 1.370 . S
C937 C938 1.403 . S
C938 C937 1.403 . S
C938 C939 1.404 . S
C938 C941 1.539 . S
C939 C935 1.408 . S
C939 C938 1.404 . S
C939 H951 0.930 . S
C940 C936 1.524 . S
C940 H952 0.956 . S
C940 H953 0.961 . S
C940 H954 0.961 . S
C941 C938 1.539 . S
C941 H955 0.958 . S
C941 H956 0.961 . S
C941 H957 0.960 . S
H942 C926 0.931 . S
H943 C931 0.929 . S
H944 C932 0.960 . S
H945 C932 0.962 . S
H946 C932 0.960 . S
H947 C933 0.961 . S
H948 C933 0.961 . S
H949 C933 0.961 . S
H950 C934 0.931 . S
H951 C939 0.930 . S
H952 C940 0.956 . S
H953 C940 0.961 . S
H954 C940 0.961 . S
H955 C941 0.958 . S
H956 C941 0.961 . S
H957 C941 0.960 . S
C958 C959 1.391 . S
C958 C960 1.394 . S
C958 H974 0.931 . S
C959 C958 1.391 . S
C959 C963 1.376 . S
C960 C958 1.394 . S
C960 C961 1.369 . S
C960 C964 1.531 . S
C961 C960 1.369 . S
C961 C962 1.410 . S
C961 C969 1.503 . S
C962 C961 1.410 . S
C962 C963 1.392 . S
C962 C965 1.511 . S
C963 C959 1.376 . S
C963 C962 1.392 . S
C963 H975 0.929 . S
C964 C960 1.531 . S
C964 H976 0.960 . S
C964 H977 0.962 . S
C964 H978 0.960 . S
C965 C962 1.511 . S
C965 H979 0.961 . S
C965 H980 0.961 . S
C965 H981 0.961 . S
C966 C967 1.370 . S
C966 C968 1.363 . S
C966 H982 0.931 . S
C967 C966 1.370 . S
C967 C971 1.408 . S
C968 C966 1.363 . S
C968 C969 1.370 . S
C968 C972 1.524 . S
C969 C961 1.503 . S
C969 C968 1.370 . S
C969 C970 1.403 . S
C970 C969 1.403 . S
C970 C971 1.404 . S
C970 C973 1.539 . S
C971 C967 1.408 . S
C971 C970 1.404 . S
C971 H983 0.930 . S
C972 C968 1.524 . S
C972 H984 0.956 . S
C972 H985 0.961 . S
C972 H986 0.961 . S
C973 C970 1.539 . S
C973 H987 0.958 . S
C973 H988 0.961 . S
C973 H989 0.960 . S
H974 C958 0.931 . S
H975 C963 0.929 . S
H976 C964 0.960 . S
H977 C964 0.962 . S
H978 C964 0.960 . S
H979 C965 0.961 . S
H980 C965 0.961 . S
H981 C965 0.961 . S
H982 C966 0.931 . S
H983 C971 0.930 . S
H984 C972 0.956 . S
H985 C972 0.961 . S
H986 C972 0.961 . S
H987 C973 0.958 . S
H988 C973 0.961 . S
H989 C973 0.960 . S
C990 C991 1.391 . S
C990 C992 1.394 . S
C990 H1006 0.931 . S
C991 C990 1.391 . S
C991 C995 1.376 . S
C992 C990 1.394 . S
C992 C993 1.369 . S
C992 C996 1.531 . S
C993 C992 1.369 . S
C993 C994 1.410 . S
C993 C1001 1.503 . S
C994 C993 1.410 . S
C994 C995 1.392 . S
C994 C997 1.511 . S
C995 C991 1.376 . S
C995 C994 1.392 . S
C995 H1007 0.929 . S
C996 C992 1.531 . S
C996 H1008 0.960 . S
C996 H1009 0.962 . S
C996 H1010 0.960 . S
C997 C994 1.511 . S
C997 H1011 0.961 . S
C997 H1012 0.961 . S
C997 H1013 0.961 . S
C998 C999 1.370 . S
C998 C1000 1.363 . S
C998 H1014 0.931 . S
C999 C998 1.370 . S
C999 C1003 1.408 . S
C1000 C998 1.363 . S
C1000 C1001 1.370 . S
C1000 C1004 1.524 . S
C1001 C993 1.503 . S
C1001 C1000 1.370 . S
C1001 C1002 1.403 . S
C1002 C1001 1.403 . S
C1002 C1003 1.404 . S
C1002 C1005 1.539 . S
C1003 C999 1.408 . S
C1003 C1002 1.404 . S
C1003 H1015 0.930 . S
C1004 C1000 1.524 . S
C1004 H1016 0.956 . S
C1004 H1017 0.961 . S
C1004 H1018 0.961 . S
C1005 C1002 1.539 . S
C1005 H1019 0.958 . S
C1005 H1020 0.961 . S
C1005 H1021 0.960 . S
H1006 C990 0.931 . S
H1007 C995 0.929 . S
H1008 C996 0.960 . S
H1009 C996 0.962 . S
H1010 C996 0.960 . S
H1011 C997 0.961 . S
H1012 C997 0.961 . S
H1013 C997 0.961 . S
H1014 C998 0.931 . S
H1015 C1003 0.930 . S
H1016 C1004 0.956 . S
H1017 C1004 0.961 . S
H1018 C1004 0.961 . S
H1019 C1005 0.958 . S
H1020 C1005 0.961 . S
H1021 C1005 0.960 . S
C1022 C1023 1.391 . S
C1022 C1024 1.394 . S
C1022 H1038 0.931 . S
C1023 C1022 1.391 . S
C1023 C1027 1.376 . S
C1024 C1022 1.394 . S
C1024 C1025 1.369 . S
C1024 C1028 1.531 . S
C1025 C1024 1.369 . S
C1025 C1026 1.410 . S
C1025 C1033 1.503 . S
C1026 C1025 1.410 . S
C1026 C1027 1.392 . S
C1026 C1029 1.511 . S
C1027 C1023 1.376 . S
C1027 C1026 1.392 . S
C1027 H1039 0.929 . S
C1028 C1024 1.531 . S
C1028 H1040 0.960 . S
C1028 H1041 0.962 . S
C1028 H1042 0.960 . S
C1029 C1026 1.511 . S
C1029 H1043 0.961 . S
C1029 H1044 0.961 . S
C1029 H1045 0.961 . S
C1030 C1031 1.370 . S
C1030 C1032 1.363 . S
C1030 H1046 0.931 . S
C1031 C1030 1.370 . S
C1031 C1035 1.408 . S
C1032 C1030 1.363 . S
C1032 C1033 1.370 . S
C1032 C1036 1.524 . S
C1033 C1025 1.503 . S
C1033 C1032 1.370 . S
C1033 C1034 1.403 . S
C1034 C1033 1.403 . S
C1034 C1035 1.404 . S
C1034 C1037 1.539 . S
C1035 C1031 1.408 . S
C1035 C1034 1.404 . S
C1035 H1047 0.930 . S
C1036 C1032 1.524 . S
C1036 H1048 0.956 . S
C1036 H1049 0.961 . S
C1036 H1050 0.961 . S
C1037 C1034 1.539 . S
C1037 H1051 0.958 . S
C1037 H1052 0.961 . S
C1037 H1053 0.960 . S
H1038 C1022 0.931 . S
H1039 C1027 0.929 . S
H1040 C1028 0.960 . S
H1041 C1028 0.962 . S
H1042 C1028 0.960 . S
H1043 C1029 0.961 . S
H1044 C1029 0.961 . S
H1045 C1029 0.961 . S
H1046 C1030 0.931 . S
H1047 C1035 0.930 . S
H1048 C1036 0.956 . S
H1049 C1036 0.961 . S
H1050 C1036 0.961 . S
H1051 C1037 0.958 . S
H1052 C1037 0.961 . S
H1053 C1037 0.960 . S
C1054 C1055 1.391 . S
C1054 C1056 1.394 . S
C1054 H1070 0.931 . S
C1055 C1054 1.391 . S
C1055 C1059 1.376 . S
C1056 C1054 1.394 . S
C1056 C1057 1.369 . S
C1056 C1060 1.531 . S
C1057 C1056 1.369 . S
C1057 C1058 1.410 . S
C1057 C1065 1.503 . S
C1058 C1057 1.410 . S
C1058 C1059 1.392 . S
C1058 C1061 1.511 . S
C1059 C1055 1.376 . S
C1059 C1058 1.392 . S
C1059 H1071 0.929 . S
C1060 C1056 1.531 . S
C1060 H1072 0.960 . S
C1060 H1073 0.962 . S
C1060 H1074 0.960 . S
C1061 C1058 1.511 . S
C1061 H1075 0.961 . S
C1061 H1076 0.961 . S
C1061 H1077 0.961 . S
C1062 C1063 1.370 . S
C1062 C1064 1.363 . S
C1062 H1078 0.931 . S
C1063 C1062 1.370 . S
C1063 C1067 1.408 . S
C1064 C1062 1.363 . S
C1064 C1065 1.370 . S
C1064 C1068 1.524 . S
C1065 C1057 1.503 . S
C1065 C1064 1.370 . S
C1065 C1066 1.403 . S
C1066 C1065 1.403 . S
C1066 C1067 1.404 . S
C1066 C1069 1.539 . S
C1067 C1063 1.408 . S
C1067 C1066 1.404 . S
C1067 H1079 0.930 . S
C1068 C1064 1.524 . S
C1068 H1080 0.956 . S
C1068 H1081 0.961 . S
C1068 H1082 0.961 . S
C1069 C1066 1.539 . S
C1069 H1083 0.958 . S
C1069 H1084 0.961 . S
C1069 H1085 0.960 . S
H1070 C1054 0.931 . S
H1071 C1059 0.929 . S
H1072 C1060 0.960 . S
H1073 C1060 0.962 . S
H1074 C1060 0.960 . S
H1075 C1061 0.961 . S
H1076 C1061 0.961 . S
H1077 C1061 0.961 . S
H1078 C1062 0.931 . S
H1079 C1067 0.930 . S
H1080 C1068 0.956 . S
H1081 C1068 0.961 . S
H1082 C1068 0.961 . S
H1083 C1069 0.958 . S
H1084 C1069 0.961 . S
H1085 C1069 0.960 . S
C1086 C1087 1.391 . S
C1086 C1088 1.394 . S
C1086 H1102 0.931 . S
C1087 C1086 1.391 . S
C1087 C1091 1.376 . S
C1088 C1086 1.394 . S
C1088 C1089 1.369 . S
C1088 C1092 1.531 . S
C1089 C1088 1.369 . S
C1089 C1090 1.410 . S
C1089 C1097 1.503 . S
C1090 C1089 1.410 . S
C1090 C1091 1.392 . S
C1090 C1093 1.511 . S
C1091 C1087 1.376 . S
C1091 C1090 1.392 . S
C1091 H1103 0.929 . S
C1092 C1088 1.531 . S
C1092 H1104 0.960 . S
C1092 H1105 0.962 . S
C1092 H1106 0.960 . S
C1093 C1090 1.511 . S
C1093 H1107 0.961 . S
C1093 H1108 0.961 . S
C1093 H1109 0.961 . S
C1094 C1095 1.370 . S
C1094 C1096 1.363 . S
C1094 H1110 0.931 . S
C1095 C1094 1.370 . S
C1095 C1099 1.408 . S
C1096 C1094 1.363 . S
C1096 C1097 1.370 . S
C1096 C1100 1.524 . S
C1097 C1089 1.503 . S
C1097 C1096 1.370 . S
C1097 C1098 1.403 . S
C1098 C1097 1.403 . S
C1098 C1099 1.404 . S
C1098 C1101 1.539 . S
C1099 C1095 1.408 . S
C1099 C1098 1.404 . S
C1099 H1111 0.930 . S
C1100 C1096 1.524 . S
C1100 H1112 0.956 . S
C1100 H1113 0.961 . S
C1100 H1114 0.961 . S
C1101 C1098 1.539 . S
C1101 H1115 0.958 . S
C1101 H1116 0.961 . S
C1101 H1117 0.960 . S
H1102 C1086 0.931 . S
H1103 C1091 0.929 . S
H1104 C1092 0.960 . S
H1105 C1092 0.962 . S
H1106 C1092 0.960 . S
H1107 C1093 0.961 . S
H1108 C1093 0.961 . S
H1109 C1093 0.961 . S
H1110 C1094 0.931 . S
H1111 C1099 0.930 . S
H1112 C1100 0.956 . S
H1113 C1100 0.961 . S
H1114 C1100 0.961 . S
H1115 C1101 0.958 . S
H1116 C1101 0.961 . S
H1117 C1101 0.960 . S
C1118 C1119 1.391 . S
C1118 C1120 1.394 . S
C1118 H1134 0.931 . S
C1119 C1118 1.391 . S
C1119 C1123 1.376 . S
C1120 C1118 1.394 . S
C1120 C1121 1.369 . S
C1120 C1124 1.531 . S
C1121 C1120 1.369 . S
C1121 C1122 1.410 . S
C1121 C1129 1.503 . S
C1122 C1121 1.410 . S
C1122 C1123 1.392 . S
C1122 C1125 1.511 . S
C1123 C1119 1.376 . S
C1123 C1122 1.392 . S
C1123 H1135 0.929 . S
C1124 C1120 1.531 . S
C1124 H1136 0.960 . S
C1124 H1137 0.962 . S
C1124 H1138 0.960 . S
C1125 C1122 1.511 . S
C1125 H1139 0.961 . S
C1125 H1140 0.961 . S
C1125 H1141 0.961 . S
C1126 C1127 1.370 . S
C1126 C1128 1.363 . S
C1126 H1142 0.931 . S
C1127 C1126 1.370 . S
C1127 C1131 1.408 . S
C1128 C1126 1.363 . S
C1128 C1129 1.370 . S
C1128 C1132 1.524 . S
C1129 C1121 1.503 . S
C1129 C1128 1.370 . S
C1129 C1130 1.403 . S
C1130 C1129 1.403 . S
C1130 C1131 1.404 . S
C1130 C1133 1.539 . S
C1131 C1127 1.408 . S
C1131 C1130 1.404 . S
C1131 H1143 0.930 . S
C1132 C1128 1.524 . S
C1132 H1144 0.956 . S
C1132 H1145 0.961 . S
C1132 H1146 0.961 . S
C1133 C1130 1.539 . S
C1133 H1147 0.958 . S
C1133 H1148 0.961 . S
C1133 H1149 0.960 . S
H1134 C1118 0.931 . S
H1135 C1123 0.929 . S
H1136 C1124 0.960 . S
H1137 C1124 0.962 . S
H1138 C1124 0.960 . S
H1139 C1125 0.961 . S
H1140 C1125 0.961 . S
H1141 C1125 0.961 . S
H1142 C1126 0.931 . S
H1143 C1131 0.930 . S
H1144 C1132 0.956 . S
H1145 C1132 0.961 . S
H1146 C1132 0.961 . S
H1147 C1133 0.958 . S
H1148 C1133 0.961 . S
H1149 C1133 0.960 . S
C1150 C1151 1.391 . S
C1150 C1152 1.394 . S
C1150 H1166 0.931 . S
C1151 C1150 1.391 . S
C1151 C1155 1.376 . S
C1152 C1150 1.394 . S
C1152 C1153 1.369 . S
C1152 C1156 1.531 . S
C1153 C1152 1.369 . S
C1153 C1154 1.410 . S
C1153 C1161 1.503 . S
C1154 C1153 1.410 . S
C1154 C1155 1.392 . S
C1154 C1157 1.511 . S
C1155 C1151 1.376 . S
C1155 C1154 1.392 . S
C1155 H1167 0.929 . S
C1156 C1152 1.531 . S
C1156 H1168 0.960 . S
C1156 H1169 0.962 . S
C1156 H1170 0.960 . S
C1157 C1154 1.511 . S
C1157 H1171 0.961 . S
C1157 H1172 0.961 . S
C1157 H1173 0.961 . S
C1158 C1159 1.370 . S
C1158 C1160 1.363 . S
C1158 H1174 0.931 . S
C1159 C1158 1.370 . S
C1159 C1163 1.408 . S
C1160 C1158 1.363 . S
C1160 C1161 1.370 . S
C1160 C1164 1.524 . S
C1161 C1153 1.503 . S
C1161 C1160 1.370 . S
C1161 C1162 1.403 . S
C1162 C1161 1.403 . S
C1162 C1163 1.404 . S
C1162 C1165 1.539 . S
C1163 C1159 1.408 . S
C1163 C1162 1.404 . S
C1163 H1175 0.930 . S
C1164 C1160 1.524 . S
C1164 H1176 0.956 . S
C1164 H1177 0.961 . S
C1164 H1178 0.961 . S
C1165 C1162 1.539 . S
C1165 H1179 0.958 . S
C1165 H1180 0.961 . S
C1165 H1181 0.960 . S
H1166 C1150 0.931 . S
H1167 C1155 0.929 . S
H1168 C1156 0.960 . S
H1169 C1156 0.962 . S
H1170 C1156 0.960 . S
H1171 C1157 0.961 . S
H1172 C1157 0.961 . S
H1173 C1157 0.961 . S
H1174 C1158 0.931 . S
H1175 C1163 0.930 . S
H1176 C1164 0.956 . S
H1177 C1164 0.961 . S
H1178 C1164 0.961 . S
H1179 C1165 0.958 . S
H1180 C1165 0.961 . S
H1181 C1165 0.960 . S
C1182 C1183 1.391 . S
C1182 C1184 1.394 . S
C1182 H1198 0.931 . S
C1183 C1182 1.391 . S
C1183 C1187 1.376 . S
C1184 C1182 1.394 . S
C1184 C1185 1.369 . S
C1184 C1188 1.531 . S
C1185 C1184 1.369 . S
C1185 C1186 1.410 . S
C1185 C1193 1.503 . S
C1186 C1185 1.410 . S
C1186 C1187 1.392 . S
C1186 C1189 1.511 . S
C1187 C1183 1.376 . S
C1187 C1186 1.392 . S
C1187 H1199 0.929 . S
C1188 C1184 1.531 . S
C1188 H1200 0.960 . S
C1188 H1201 0.962 . S
C1188 H1202 0.960 . S
C1189 C1186 1.511 . S
C1189 H1203 0.961 . S
C1189 H1204 0.961 . S
C1189 H1205 0.961 . S
C1190 C1191 1.370 . S
C1190 C1192 1.363 . S
C1190 H1206 0.931 . S
C1191 C1190 1.370 . S
C1191 C1195 1.408 . S
C1192 C1190 1.363 . S
C1192 C1193 1.370 . S
C1192 C1196 1.524 . S
C1193 C1185 1.503 . S
C1193 C1192 1.370 . S
C1193 C1194 1.403 . S
C1194 C1193 1.403 . S
C1194 C1195 1.404 . S
C1194 C1197 1.539 . S
C1195 C1191 1.408 . S
C1195 C1194 1.404 . S
C1195 H1207 0.930 . S
C1196 C1192 1.524 . S
C1196 H1208 0.956 . S
C1196 H1209 0.961 . S
C1196 H1210 0.961 . S
C1197 C1194 1.539 . S
C1197 H1211 0.958 . S
C1197 H1212 0.961 . S
C1197 H1213 0.960 . S
H1198 C1182 0.931 . S
H1199 C1187 0.929 . S
H1200 C1188 0.960 . S
H1201 C1188 0.962 . S
H1202 C1188 0.960 . S
H1203 C1189 0.961 . S
H1204 C1189 0.961 . S
H1205 C1189 0.961 . S
H1206 C1190 0.931 . S
H1207 C1195 0.930 . S
H1208 C1196 0.956 . S
H1209 C1196 0.961 . S
H1210 C1196 0.961 . S
H1211 C1197 0.958 . S
H1212 C1197 0.961 . S
H1213 C1197 0.960 . S
C1214 C1215 1.391 . S
C1214 C1216 1.394 . S
C1214 H1230 0.931 . S
C1215 C1214 1.391 . S
C1215 C1219 1.376 . S
C1216 C1214 1.394 . S
C1216 C1217 1.369 . S
C1216 C1220 1.531 . S
C1217 C1216 1.369 . S
C1217 C1218 1.410 . S
C1217 C1225 1.503 . S
C1218 C1217 1.410 . S
C1218 C1219 1.392 . S
C1218 C1221 1.511 . S
C1219 C1215 1.376 . S
C1219 C1218 1.392 . S
C1219 H1231 0.929 . S
C1220 C1216 1.531 . S
C1220 H1232 0.960 . S
C1220 H1233 0.962 . S
C1220 H1234 0.960 . S
C1221 C1218 1.511 . S
C1221 H1235 0.961 . S
C1221 H1236 0.961 . S
C1221 H1237 0.961 . S
C1222 C1223 1.370 . S
C1222 C1224 1.363 . S
C1222 H1238 0.931 . S
C1223 C1222 1.370 . S
C1223 C1227 1.408 . S
C1224 C1222 1.363 . S
C1224 C1225 1.370 . S
C1224 C1228 1.524 . S
C1225 C1217 1.503 . S
C1225 C1224 1.370 . S
C1225 C1226 1.403 . S
C1226 C1225 1.403 . S
C1226 C1227 1.404 . S
C1226 C1229 1.539 . S
C1227 C1223 1.408 . S
C1227 C1226 1.404 . S
C1227 H1239 0.930 . S
C1228 C1224 1.524 . S
C1228 H1240 0.956 . S
C1228 H1241 0.961 . S
C1228 H1242 0.961 . S
C1229 C1226 1.539 . S
C1229 H1243 0.958 . S
C1229 H1244 0.961 . S
C1229 H1245 0.960 . S
H1230 C1214 0.931 . S
H1231 C1219 0.929 . S
H1232 C1220 0.960 . S
H1233 C1220 0.962 . S
H1234 C1220 0.960 . S
H1235 C1221 0.961 . S
H1236 C1221 0.961 . S
H1237 C1221 0.961 . S
H1238 C1222 0.931 . S
H1239 C1227 0.930 . S
H1240 C1228 0.956 . S
H1241 C1228 0.961 . S
H1242 C1228 0.961 . S
H1243 C1229 0.958 . S
H1244 C1229 0.961 . S
H1245 C1229 0.960 . S
C1246 C1247 1.391 . S
C1246 C1248 1.394 . S
C1246 H1262 0.931 . S
C1247 C1246 1.391 . S
C1247 C1251 1.376 . S
C1248 C1246 1.394 . S
C1248 C1249 1.369 . S
C1248 C1252 1.531 . S
C1249 C1248 1.369 . S
C1249 C1250 1.410 . S
C1249 C1257 1.503 . S
C1250 C1249 1.410 . S
C1250 C1251 1.392 . S
C1250 C1253 1.511 . S
C1251 C1247 1.376 . S
C1251 C1250 1.392 . S
C1251 H1263 0.929 . S
C1252 C1248 1.531 . S
C1252 H1264 0.960 . S
C1252 H1265 0.962 . S
C1252 H1266 0.960 . S
C1253 C1250 1.511 . S
C1253 H1267 0.961 . S
C1253 H1268 0.961 . S
C1253 H1269 0.961 . S
C1254 C1255 1.370 . S
C1254 C1256 1.363 . S
C1254 H1270 0.931 . S
C1255 C1254 1.370 . S
C1255 C1259 1.408 . S
C1256 C1254 1.363 . S
C1256 C1257 1.370 . S
C1256 C1260 1.524 . S
C1257 C1249 1.503 . S
C1257 C1256 1.370 . S
C1257 C1258 1.403 . S
C1258 C1257 1.403 . S
C1258 C1259 1.404 . S
C1258 C1261 1.539 . S
C1259 C1255 1.408 . S
C1259 C1258 1.404 . S
C1259 H1271 0.930 . S
C1260 C1256 1.524 . S
C1260 H1272 0.956 . S
C1260 H1273 0.961 . S
C1260 H1274 0.961 . S
C1261 C1258 1.539 . S
C1261 H1275 0.958 . S
C1261 H1276 0.961 . S
C1261 H1277 0.960 . S
H1262 C1246 0.931 . S
H1263 C1251 0.929 . S
H1264 C1252 0.960 . S
H1265 C1252 0.962 . S
H1266 C1252 0.960 . S
H1267 C1253 0.961 . S
H1268 C1253 0.961 . S
H1269 C1253 0.961 . S
H1270 C1254 0.931 . S
H1271 C1259 0.930 . S
H1272 C1260 0.956 . S
H1273 C1260 0.961 . S
H1274 C1260 0.961 . S
H1275 C1261 0.958 . S
H1276 C1261 0.961 . S
H1277 C1261 0.960 . S
C1278 C1279 1.391 . S
C1278 C1280 1.394 . S
C1278 H1294 0.931 . S
C1279 C1278 1.391 . S
C1279 C1283 1.376 . S
C1280 C1278 1.394 . S
C1280 C1281 1.369 . S
C1280 C1284 1.531 . S
C1281 C1280 1.369 . S
C1281 C1282 1.410 . S
C1281 C1289 1.503 . S
C1282 C1281 1.410 . S
C1282 C1283 1.392 . S
C1282 C1285 1.511 . S
C1283 C1279 1.376 . S
C1283 C1282 1.392 . S
C1283 H1295 0.929 . S
C1284 C1280 1.531 . S
C1284 H1296 0.960 . S
C1284 H1297 0.962 . S
C1284 H1298 0.960 . S
C1285 C1282 1.511 . S
C1285 H1299 0.961 . S
C1285 H1300 0.961 . S
C1285 H1301 0.961 . S
C1286 C1287 1.370 . S
C1286 C1288 1.363 . S
C1286 H1302 0.931 . S
C1287 C1286 1.370 . S
C1287 C1291 1.408 . S
C1288 C1286 1.363 . S
C1288 C1289 1.370 . S
C1288 C1292 1.524 . S
C1289 C1281 1.503 . S
C1289 C1288 1.370 . S
C1289 C1290 1.403 . S
C1290 C1289 1.403 . S
C1290 C1291 1.404 . S
C1290 C1293 1.539 . S
C1291 C1287 1.408 . S
C1291 C1290 1.404 . S
C1291 H1303 0.930 . S
C1292 C1288 1.524 . S
C1292 H1304 0.956 . S
C1292 H1305 0.961 . S
C1292 H1306 0.961 . S
C1293 C1290 1.539 . S
C1293 H1307 0.958 . S
C1293 H1308 0.961 . S
C1293 H1309 0.960 . S
H1294 C1278 0.931 . S
H1295 C1283 0.929 . S
H1296 C1284 0.960 . S
H1297 C1284 0.962 . S
H1298 C1284 0.960 . S
H1299 C1285 0.961 . S
H1300 C1285 0.961 . S
H1301 C1285 0.961 . S
H1302 C1286 0.931 . S
H1303 C1291 0.930 . S
H1304 C1292 0.956 . S
H1305 C1292 0.961 . S
H1306 C1292 0.961 . S
H1307 C1293 0.958 . S
H1308 C1293 0.961 . S
H1309 C1293 0.960 . S
C1310 C1311 1.391 . S
C1310 C1312 1.394 . S
C1310 H1326 0.931 . S
C1311 C1310 1.391 . S
C1311 C1315 1.376 . S
C1312 C1310 1.394 . S
C1312 C1313 1.369 . S
C1312 C1316 1.531 . S
C1313 C1312 1.369 . S
C1313 C1314 1.410 . S
C1313 C1321 1.503 . S
C1314 C1313 1.410 . S
C1314 C1315 1.392 . S
C1314 C1317 1.511 . S
C1315 C1311 1.376 . S
C1315 C1314 1.392 . S
C1315 H1327 0.929 . S
C1316 C1312 1.531 . S
C1316 H1328 0.960 . S
C1316 H1329 0.962 . S
C1316 H1330 0.960 . S
C1317 C1314 1.511 . S
C1317 H1331 0.961 . S
C1317 H1332 0.961 . S
C1317 H1333 0.961 . S
C1318 C1319 1.370 . S
C1318 C1320 1.363 . S
C1318 H1334 0.931 . S
C1319 C1318 1.370 . S
C1319 C1323 1.408 . S
C1320 C1318 1.363 . S
C1320 C1321 1.370 . S
C1320 C1324 1.524 . S
C1321 C1313 1.503 . S
C1321 C1320 1.370 . S
C1321 C1322 1.403 . S
C1322 C1321 1.403 . S
C1322 C1323 1.404 . S
C1322 C1325 1.539 . S
C1323 C1319 1.408 . S
C1323 C1322 1.404 . S
C1323 H1335 0.930 . S
C1324 C1320 1.524 . S
C1324 H1336 0.956 . S
C1324 H1337 0.961 . S
C1324 H1338 0.961 . S
C1325 C1322 1.539 . S
C1325 H1339 0.958 . S
C1325 H1340 0.961 . S
C1325 H1341 0.960 . S
H1326 C1310 0.931 . S
H1327 C1315 0.929 . S
H1328 C1316 0.960 . S
H1329 C1316 0.962 . S
H1330 C1316 0.960 . S
H1331 C1317 0.961 . S
H1332 C1317 0.961 . S
H1333 C1317 0.961 . S
H1334 C1318 0.931 . S
H1335 C1323 0.930 . S
H1336 C1324 0.956 . S
H1337 C1324 0.961 . S
H1338 C1324 0.961 . S
H1339 C1325 0.958 . S
H1340 C1325 0.961 . S
H1341 C1325 0.960 . S
C1342 C1343 1.391 . S
C1342 C1344 1.394 . S
C1342 H1358 0.931 . S
C1343 C1342 1.391 . S
C1343 C1347 1.376 . S
C1344 C1342 1.394 . S
C1344 C1345 1.369 . S
C1344 C1348 1.531 . S
C1345 C1344 1.369 . S
C1345 C1346 1.410 . S
C1345 C1353 1.503 . S
C1346 C1345 1.410 . S
C1346 C1347 1.392 . S
C1346 C1349 1.511 . S
C1347 C1343 1.376 . S
C1347 C1346 1.392 . S
C1347 H1359 0.929 . S
C1348 C1344 1.531 . S
C1348 H1360 0.960 . S
C1348 H1361 0.962 . S
C1348 H1362 0.960 . S
C1349 C1346 1.511 . S
C1349 H1363 0.961 . S
C1349 H1364 0.961 . S
C1349 H1365 0.961 . S
C1350 C1351 1.370 . S
C1350 C1352 1.363 . S
C1350 H1366 0.931 . S
C1351 C1350 1.370 . S
C1351 C1355 1.408 . S
C1352 C1350 1.363 . S
C1352 C1353 1.370 . S
C1352 C1356 1.524 . S
C1353 C1345 1.503 . S
C1353 C1352 1.370 . S
C1353 C1354 1.403 . S
C1354 C1353 1.403 . S
C1354 C1355 1.404 . S
C1354 C1357 1.539 . S
C1355 C1351 1.408 . S
C1355 C1354 1.404 . S
C1355 H1367 0.930 . S
C1356 C1352 1.524 . S
C1356 H1368 0.956 . S
C1356 H1369 0.961 . S
C1356 H1370 0.961 . S
C1357 C1354 1.539 . S
C1357 H1371 0.958 . S
C1357 H1372 0.961 . S
C1357 H1373 0.960 . S
H1358 C1342 0.931 . S
H1359 C1347 0.929 . S
H1360 C1348 0.960 . S
H1361 C1348 0.962 . S
H1362 C1348 0.960 . S
H1363 C1349 0.961 . S
H1364 C1349 0.961 . S
H1365 C1349 0.961 . S
H1366 C1350 0.931 . S
H1367 C1355 0.930 . S
H1368 C1356 0.956 . S
H1369 C1356 0.961 . S
H1370 C1356 0.961 . S
H1371 C1357 0.958 . S
H1372 C1357 0.961 . S
H1373 C1357 0.960 . S
C607 C39 1.771 . S
C615 C339 1.750 . S
C639 C91 1.712 . S
C647 C396 1.725 . S
C679 C450 1.564 . S
C671 C128 1.597 . S
C711 C507 1.502 . S
C703 C188 1.540 . S
C743 C531 1.645 . S
C735 C250 1.632 . S
C775 C588 1.735 . S
C767 C304 1.720 . S
C799 C75 1.663 . S
C807 C435 1.633 . S
C831 C144 1.754 . S
C839 C492 1.751 . S
C871 C546 1.674 . S
C863 C198 1.697 . S
C903 C603 1.506 . S
C895 C234 1.573 . S
C927 C294 1.538 . S
C935 C354 1.506 . S
C967 C411 1.521 . S
C959 C29 1.561 . S
C999 C498 1.746 . S
C991 C38 1.775 . S
C1023 C92 1.709 . S
C1031 C540 1.687 . S
C1063 C579 1.575 . S
C1055 C135 1.586 . S
C1087 C181 1.550 . S
C1095 C348 1.490 . S
C1119 C251 1.632 . S
C1127 C387 1.632 . S
C1151 C303 1.733 . S
C1159 C459 1.729 . S
C1183 C82 1.645 . S
C1191 C594 1.648 . S
C1223 C363 1.754 . S
C1215 C145 1.751 . S
C1247 C197 1.708 . S
C1255 C402 1.684 . S
C1279 C241 1.555 . S
C1287 C444 1.528 . S
C1311 C287 1.522 . S
C1319 C483 1.521 . S
C1343 C22 1.558 . S
C1351 C555 1.561 . S
