# Generated by pormake.
# Topology zzz, (3,6)-cn, num edge types: 1
# Building blocks:
#     Node 0, Type 0, BuildingBlock: CUQRIR_clean_linker_1, # of connection points: 3
#     Node 1, Type 0, BuildingBlock: CUQRIR_clean_linker_1, # of connection points: 3
#     Node 2, Type 0, BuildingBlock: CUQRIR_clean_linker_1, # of connection points: 3
#     Node 3, Type 0, BuildingBlock: CUQRIR_clean_linker_1, # of connection points: 3
#     Node 4, Type 0, BuildingBlock: CUQRIR_clean_linker_1, # of connection points: 3
#     Node 5, Type 0, BuildingBlock: CUQRIR_clean_linker_1, # of connection points: 3
#     Node 6, Type 0, BuildingBlock: CUQRIR_clean_linker_1, # of connection points: 3
#     Node 7, Type 0, BuildingBlock: CUQRIR_clean_linker_1, # of connection points: 3
#     Node 8, Type 1, BuildingBlock: LEVNOQ01_clean_sbu_1, # of connection points: 6
#     Node 9, Type 1, BuildingBlock: LEVNOQ01_clean_sbu_1, # of connection points: 6
#     Node 10, Type 1, BuildingBlock: LEVNOQ01_clean_sbu_1, # of connection points: 6
#     Node 11, Type 1, BuildingBlock: LEVNOQ01_clean_sbu_1, # of connection points: 6
#     Edge 12, Type (0, 1), BuildingBlock: KIFKEQ_clean_linker_1, # of connection points: 2
#     Edge 13, Type (0, 1), BuildingBlock: KIFKEQ_clean_linker_1, # of connection points: 2
#     Edge 14, Type (0, 1), BuildingBlock: KIFKEQ_clean_linker_1, # of connection points: 2
#     Edge 15, Type (0, 1), BuildingBlock: KIFKEQ_clean_linker_1, # of connection points: 2
#     Edge 16, Type (0, 1), BuildingBlock: KIFKEQ_clean_linker_1, # of connection points: 2
#     Edge 17, Type (0, 1), BuildingBlock: KIFKEQ_clean_linker_1, # of connection points: 2
#     Edge 18, Type (0, 1), BuildingBlock: KIFKEQ_clean_linker_1, # of connection points: 2
#     Edge 19, Type (0, 1), BuildingBlock: KIFKEQ_clean_linker_1, # of connection points: 2
#     Edge 20, Type (0, 1), BuildingBlock: KIFKEQ_clean_linker_1, # of connection points: 2
#     Edge 21, Type (0, 1), BuildingBlock: KIFKEQ_clean_linker_1, # of connection points: 2
#     Edge 22, Type (0, 1), BuildingBlock: KIFKEQ_clean_linker_1, # of connection points: 2
#     Edge 23, Type (0, 1), BuildingBlock: KIFKEQ_clean_linker_1, # of connection points: 2
#     Edge 24, Type (0, 1), BuildingBlock: KIFKEQ_clean_linker_1, # of connection points: 2
#     Edge 25, Type (0, 1), BuildingBlock: KIFKEQ_clean_linker_1, # of connection points: 2
#     Edge 26, Type (0, 1), BuildingBlock: KIFKEQ_clean_linker_1, # of connection points: 2
#     Edge 27, Type (0, 1), BuildingBlock: KIFKEQ_clean_linker_1, # of connection points: 2
#     Edge 28, Type (0, 1), BuildingBlock: KIFKEQ_clean_linker_1, # of connection points: 2
#     Edge 29, Type (0, 1), BuildingBlock: KIFKEQ_clean_linker_1, # of connection points: 2
#     Edge 30, Type (0, 1), BuildingBlock: KIFKEQ_clean_linker_1, # of connection points: 2
#     Edge 31, Type (0, 1), BuildingBlock: KIFKEQ_clean_linker_1, # of connection points: 2
#     Edge 32, Type (0, 1), BuildingBlock: KIFKEQ_clean_linker_1, # of connection points: 2
#     Edge 33, Type (0, 1), BuildingBlock: KIFKEQ_clean_linker_1, # of connection points: 2
#     Edge 34, Type (0, 1), BuildingBlock: KIFKEQ_clean_linker_1, # of connection points: 2
#     Edge 35, Type (0, 1), BuildingBlock: KIFKEQ_clean_linker_1, # of connection points: 2
# Relax obj value: 0.148
# Max RMSD: 0.185
# Mean RMSD: 0.114
data_MOF--net-zzz--node1-LEVNOQ01_clean_sbu_1--node2-CUQRIR_clean_linker_1--edge1-KIFKEQ_clean_linker_1
_symmetry_space_group_name_H-M    P1
_symmetry_Int_Tables_number       1
_symmetry_cell_setting            triclinic
loop_
_symmetry_equiv_pos_as_xyz
'x, y, z'
_cell_length_a     48.049052
_cell_length_b     47.966163
_cell_length_c     14.377397
_cell_angle_alpha  90.122006
_cell_angle_beta   90.059619
_cell_angle_gamma 90.170677
loop_
_atom_site_label
_atom_site_type_symbol
_atom_site_fract_x
_atom_site_fract_y
_atom_site_fract_z
_atom_type_partial_charge
C0 C 0.74596 0.54845 0.21021 0.0
N1 N 0.77406 0.55058 0.21868 0.0
N2 N 0.73829 0.54898 0.1191 0.0
C3 C 0.72636 0.54328 0.28943 0.0
C4 C 0.76282 0.55114 0.07317 0.0
N5 N 0.78439 0.5522 0.13325 0.0
C6 C 0.76598 0.5501 0.9692 0.0
H7 H 0.72263 0.52052 0.29545 0.0
H8 H 0.70607 0.55352 0.27623 0.0
H9 H 0.73531 0.55101 0.35588 0.0
H10 H 0.74729 0.55872 0.93426 0.0
H11 H 0.76858 0.52808 0.94712 0.0
H12 H 0.78474 0.56192 0.94724 0.0
C13 C 0.94959 0.75089 0.21829 0.0
N14 N 0.9531 0.77893 0.22428 0.0
N15 N 0.95238 0.74213 0.12874 0.0
C16 C 0.94309 0.73221 0.29896 0.0
C17 C 0.95823 0.76581 0.08115 0.0
N18 N 0.95867 0.78804 0.13905 0.0
C19 C 0.9661 0.76681 0.97987 0.0
H20 H 0.96291 0.72482 0.32982 0.0
H21 H 0.93094 0.71376 0.27569 0.0
H22 H 0.93138 0.7437 0.35329 0.0
H23 H 0.94694 0.76953 0.93774 0.0
H24 H 0.97631 0.74715 0.95794 0.0
H25 H 0.98031 0.78453 0.96533 0.0
C26 C 0.75939 0.95147 0.21494 0.0
N27 N 0.73119 0.95026 0.21752 0.0
N28 N 0.76878 0.94888 0.12612 0.0
C29 C 0.7777 0.95589 0.29829 0.0
C30 C 0.74513 0.94672 0.075 0.0
N31 N 0.72241 0.94737 0.13042 0.0
C32 C 0.74425 0.94768 0.97042 0.0
H33 H 0.78053 0.9786 0.3098 0.0
H34 H 0.79847 0.94643 0.28683 0.0
H35 H 0.76794 0.94684 0.36136 0.0
H36 H 0.75464 0.92891 0.94192 0.0
H37 H 0.75594 0.96621 0.94548 0.0
H38 H 0.72264 0.9484 0.94334 0.0
C39 C 0.54777 0.76061 0.2134 0.0
N40 N 0.5475 0.73235 0.21908 0.0
N41 N 0.54994 0.76894 0.12313 0.0
C42 C 0.54612 0.77989 0.2954 0.0
C43 C 0.55033 0.74463 0.07466 0.0
N44 N 0.54911 0.72261 0.13285 0.0
C45 C 0.54926 0.74242 0.97023 0.0
H46 H 0.52393 0.78444 0.31009 0.0
H47 H 0.55697 0.79985 0.2805 0.0
H48 H 0.55531 0.77001 0.35798 0.0
H49 H 0.57066 0.74458 0.94228 0.0
H50 H 0.53632 0.75935 0.94058 0.0
H51 H 0.54082 0.72199 0.94722 0.0
C52 C 0.25639 0.45535 0.19011 0.0
N53 N 0.22841 0.45875 0.18295 0.0
N54 N 0.26478 0.45811 0.28014 0.0
C55 C 0.27533 0.44889 0.11017 0.0
C56 C 0.24093 0.46382 0.32676 0.0
N57 N 0.21898 0.46421 0.26792 0.0
C58 C 0.23948 0.47146 0.42826 0.0
H59 H 0.26404 0.43715 0.05521 0.0
H60 H 0.29361 0.43675 0.13407 0.0
H61 H 0.28291 0.46876 0.0799 0.0
H62 H 0.25907 0.4816 0.4516 0.0
H63 H 0.2364 0.45218 0.46955 0.0
H64 H 0.22182 0.48569 0.44232 0.0
C65 C 0.05877 0.26028 0.1883 0.0
N66 N 0.0593 0.23201 0.18547 0.0
N67 N 0.06003 0.2696 0.27759 0.0
C68 C 0.05594 0.27868 0.10464 0.0
C69 C 0.06058 0.24586 0.32862 0.0
N70 N 0.0603 0.22312 0.27281 0.0
C71 C 0.05775 0.24501 0.4328 0.0
H72 H 0.06552 0.29939 0.118 0.0
H73 H 0.03352 0.28174 0.08939 0.0
H74 H 0.06577 0.26883 0.04302 0.0
H75 H 0.03841 0.25593 0.45374 0.0
H76 H 0.07551 0.25623 0.46514 0.0
H77 H 0.05729 0.22335 0.45968 0.0
C78 C 0.24903 0.04864 0.18003 0.0
N79 N 0.2772 0.04839 0.17479 0.0
N80 N 0.24059 0.05142 0.26995 0.0
C81 C 0.22998 0.04583 0.09786 0.0
C82 C 0.26481 0.05215 0.31871 0.0
N83 N 0.28689 0.05059 0.26082 0.0
C84 C 0.26683 0.05183 0.42319 0.0
H85 H 0.23983 0.05478 0.03479 0.0
H86 H 0.20982 0.0563 0.1114 0.0
H87 H 0.22597 0.02337 0.08472 0.0
H88 H 0.25021 0.03849 0.45318 0.0
H89 H 0.26395 0.07335 0.44981 0.0
H90 H 0.2874 0.04427 0.44719 0.0
C91 C 0.45968 0.2471 0.18617 0.0
N92 N 0.45662 0.27513 0.17722 0.0
N93 N 0.45758 0.23941 0.27695 0.0
C94 C 0.46705 0.22765 0.10826 0.0
C95 C 0.45344 0.26386 0.32225 0.0
N96 N 0.45277 0.28539 0.26206 0.0
C97 C 0.45242 0.26711 0.42621 0.0
H98 H 0.45733 0.20692 0.11936 0.0
H99 H 0.48996 0.22485 0.10707 0.0
H100 H 0.4603 0.23624 0.0403 0.0
H101 H 0.47378 0.27109 0.45259 0.0
H102 H 0.44423 0.24792 0.45951 0.0
H103 H 0.43922 0.28516 0.44565 0.0
O104 O 0.04686 0.96929 0.88132 0.0
Mg105 Mg 0.05296 0.96833 0.73694 0.0
O106 O 0.00416 0.9793 0.84066 0.0
Mg107 Mg 0.00457 0.00521 0.70287 0.0
O108 O 0.05278 0.00524 0.6672 0.0
O109 O 0.09137 0.98013 0.69287 0.0
O110 O 0.00702 0.03081 0.56601 0.0
O111 O 0.01343 0.04645 0.78853 0.0
Mg112 Mg 0.96204 0.04097 0.66029 0.0
O113 O 0.95524 0.00529 0.73786 0.0
O114 O 0.96638 0.04315 0.51428 0.0
O115 O 0.97972 0.0739 0.739 0.0
O116 O 0.9221 0.03565 0.69518 0.0
C117 C 0.00914 0.94023 0.61558 0.0
C118 C 0.0212 0.96938 0.8999 0.0
C119 C 0.07948 0.00151 0.65602 0.0
C120 C 0.99234 0.04198 0.50277 0.0
C121 C 0.00124 0.07013 0.78829 0.0
C122 C 0.92927 0.01355 0.73997 0.0
O123 O 0.03202 0.93696 0.65861 0.0
O124 O -0.00375 0.96357 0.61897 0.0
O125 O 0.43595 0.97345 0.71848 0.0
Mg126 Mg 0.46756 0.95394 0.63704 0.0
O127 O 0.46213 0.00724 0.77906 0.0
Mg128 Mg 0.5044 0.00244 0.69671 0.0
O129 O 0.50326 0.95387 0.71443 0.0
O130 O 0.48093 0.91482 0.67317 0.0
O131 O 0.5463 -0.00339 0.61324 0.0
O132 O 0.52948 -0.00249 0.8336 0.0
Mg133 Mg 0.54219 0.04838 0.74967 0.0
O134 O 0.5053 0.05183 0.67816 0.0
O135 O 0.57334 0.03136 0.66139 0.0
O136 O 0.54346 0.03727 0.89164 0.0
O137 O 0.53132 0.08835 0.72373 0.0
C138 C 0.46965 0.99247 0.49158 0.0
C139 C 0.43871 0.99442 0.77221 0.0
C140 C 0.50074 0.92685 0.71889 0.0
C141 C 0.5696 0.00968 0.612 0.0
C142 C 0.54116 0.01115 0.89886 0.0
C143 C 0.51009 0.07869 0.67891 0.0
O144 O 0.46984 0.96616 0.49614 0.0
O145 O 0.47924 0.00664 0.55946 0.0
O146 O 0.53008 0.43505 0.7269 0.0
Mg147 Mg 0.54651 0.46726 0.64155 0.0
O148 O 0.49537 0.46125 0.77842 0.0
Mg149 Mg 0.50091 0.50367 0.69611 0.0
O150 O 0.55031 0.50363 0.71636 0.0
O151 O 0.58646 0.47773 0.66853 0.0
O152 O 0.50615 0.54624 0.61452 0.0
O153 O 0.50475 0.52851 0.83359 0.0
Mg154 Mg 0.45226 0.54141 0.74759 0.0
O155 O 0.4521 0.50411 0.67802 0.0
O156 O 0.47012 0.5721 0.65861 0.0
O157 O 0.46457 0.54226 0.88888 0.0
O158 O 0.41328 0.52711 0.7164 0.0
C159 C 0.51001 0.46837 0.49166 0.0
C160 C 0.50867 0.43812 0.77752 0.0
C161 C 0.57709 0.49874 0.71502 0.0
C162 C 0.49236 0.5691 0.61181 0.0
C163 C 0.49064 0.54002 0.89782 0.0
C164 C 0.42508 0.50659 0.67389 0.0
O165 O 0.53612 0.4668 0.49888 0.0
O166 O 0.49617 0.47907 0.55798 0.0
O167 O 0.9659 0.4658 0.89183 0.0
Mg168 Mg 0.96731 0.46183 0.74557 0.0
O169 O 0.97684 0.50695 0.84023 0.0
Mg170 Mg 0.00182 0.50528 0.70213 0.0
O171 O 0.00267 0.45593 0.66591 0.0
O172 O 0.97312 0.42199 0.70955 0.0
O173 O 0.0272 0.50548 0.56322 0.0
O174 O 0.04382 0.49772 0.78518 0.0
Mg175 Mg 0.03769 0.55387 0.66915 0.0
O176 O 0.00071 0.55374 0.73863 0.0
O177 O 0.03719 0.54842 0.52453 0.0
O178 O 0.06973 0.53421 0.74687 0.0
O179 O 0.02612 0.59234 0.71232 0.0
C180 C 0.93667 0.50015 0.61937 0.0
C181 C 0.9665 0.49181 0.90392 0.0
C182 C 0.99484 0.42974 0.66369 0.0
C183 C 0.03702 0.5228 0.50459 0.0
C184 C 0.0669 0.51117 0.78919 0.0
C185 C 0.00459 0.58056 0.74891 0.0
O186 O 0.93364 0.47858 0.66904 0.0
O187 O 0.96005 0.51304 0.6179 0.0
H188 H 0.21796 0.08841 0.38907 0.0
H189 H 0.20068 0.01238 0.23976 0.0
H190 H 0.17446 0.08306 0.47611 0.0
H191 H 0.15677 0.0072 0.32491 0.0
H192 H 0.07295 0.01042 0.47003 0.0
H193 H 0.10891 0.02765 0.36285 0.0
H194 H 0.16172 0.04742 0.59714 0.0
H195 H 0.12608 0.02988 0.703 0.0
C196 C 0.20454 0.07082 0.37385 0.0
C197 C 0.21276 0.05071 0.30828 0.0
C198 C 0.17965 0.06775 0.42347 0.0
C199 C 0.16218 0.04463 0.40789 0.0
C200 C 0.16957 0.02542 0.33794 0.0
C201 C 0.19468 0.02837 0.28898 0.0
C202 C 0.09183 0.0195 0.49834 0.0
C203 C 0.09659 0.01933 0.59476 0.0
C204 C 0.11255 0.029 0.43708 0.0
C205 C 0.13827 0.03879 0.47136 0.0
C206 C 0.1421 0.04033 0.56828 0.0
C207 C 0.12165 0.0304 0.6291 0.0
H208 H 0.42867 0.19076 0.2686 0.0
H209 H 0.50197 0.22926 0.38443 0.0
H210 H 0.43715 0.14874 0.36351 0.0
H211 H 0.51031 0.18798 0.47982 0.0
H212 H 0.49664 0.13175 0.72292 0.0
H213 H 0.48234 0.1686 0.61697 0.0
H214 H 0.47523 0.10864 0.39403 0.0
H215 H 0.49034 0.07155 0.50079 0.0
C216 C 0.44687 0.18991 0.31295 0.0
C217 C 0.46468 0.21314 0.31969 0.0
C218 C 0.45166 0.16602 0.36746 0.0
C219 C 0.47411 0.16525 0.43045 0.0
C220 C 0.49253 0.1881 0.43341 0.0
C221 C 0.48792 0.21164 0.37852 0.0
C222 C 0.4913 0.12623 0.65197 0.0
C223 C 0.49422 0.09864 0.62062 0.0
C224 C 0.48334 0.14741 0.591 0.0
C225 C 0.4781 0.14165 0.4967 0.0
C226 C 0.47906 0.11372 0.46636 0.0
C227 C 0.48729 0.09241 0.52775 0.0
H228 H 0.28226 0.42434 0.41712 0.0
H229 H 0.30923 0.49009 0.23482 0.0
H230 H 0.32545 0.42861 0.50646 0.0
H231 H 0.35255 0.49481 0.32429 0.0
H232 H 0.43277 0.49355 0.49026 0.0
H233 H 0.39724 0.47551 0.38254 0.0
H234 H 0.3407 0.46475 0.61318 0.0
H235 H 0.3761 0.48244 0.71932 0.0
C236 C 0.29783 0.4393 0.39517 0.0
C237 C 0.29245 0.45696 0.31954 0.0
C238 C 0.32249 0.4419 0.44649 0.0
C239 C 0.34244 0.46232 0.42358 0.0
C240 C 0.33784 0.47871 0.34369 0.0
C241 C 0.31307 0.47605 0.29227 0.0
C242 C 0.41313 0.48618 0.51798 0.0
C243 C 0.40737 0.48886 0.61339 0.0
C244 C 0.3926 0.47629 0.45619 0.0
C245 C 0.36596 0.46876 0.48883 0.0
C246 C 0.36098 0.46994 0.58525 0.0
C247 C 0.38131 0.48006 0.64642 0.0
H248 H 0.09343 0.30014 0.38992 0.0
H249 H 0.01444 0.30085 0.24851 0.0
H250 H 0.08051 0.34271 0.4752 0.0
H251 H 0.00148 0.34339 0.33228 0.0
H252 H 0.97307 0.38001 0.61171 0.0
H253 H 0.99154 0.34567 0.50584 0.0
H254 H 0.0649 0.39621 0.46439 0.0
H255 H 0.04603 0.43156 0.57241 0.0
C256 C 0.07362 0.30991 0.37551 0.0
C257 C 0.05487 0.29731 0.31298 0.0
C258 C 0.06628 0.33429 0.42378 0.0
C259 C 0.0399 0.3463 0.41103 0.0
C260 C 0.0219 0.33454 0.34406 0.0
C261 C 0.02933 0.31035 0.29553 0.0
C262 C 0.99321 0.38409 0.58076 0.0
C263 C 0.00802 0.40877 0.60095 0.0
C264 C 0.00367 0.36436 0.51894 0.0
C265 C 0.02947 0.36833 0.47548 0.0
C266 C 0.04483 0.39266 0.49652 0.0
C267 C 0.03404 0.41289 0.5581 0.0
H268 H 0.79963 0.91488 0.01736 0.0
H269 H 0.79945 0.9954 0.15011 0.0
H270 H 0.84196 0.92771 0.93103 0.0
H271 H 0.84177 0.00824 0.06554 0.0
H272 H 0.87918 0.03505 0.7871 0.0
H273 H 0.84456 0.01684 0.89221 0.0
H274 H 0.89498 0.94398 0.94029 0.0
H275 H 0.93057 0.96255 0.83281 0.0
C276 C 0.80914 0.93505 0.02964 0.0
C277 C 0.79635 0.9542 0.09011 0.0
C278 C 0.83339 0.94234 0.98076 0.0
C279 C 0.84509 0.96907 0.99081 0.0
C280 C 0.83315 0.98754 0.05573 0.0
C281 C 0.80908 0.98018 0.10481 0.0
C282 C 0.88318 0.01506 0.81931 0.0
C283 C 0.90794 0.00036 0.80134 0.0
C284 C 0.86327 0.00476 0.8807 0.0
C285 C 0.86715 0.97921 0.926 0.0
C286 C 0.8915 0.96387 0.9068 0.0
C287 C 0.91188 0.97449 0.84555 0.0
H288 H 0.51145 0.80923 0.15271 0.0
H289 H 0.58674 0.79101 0.00254 0.0
H290 H 0.50585 0.85235 0.06288 0.0
H291 H 0.58096 0.83362 0.91103 0.0
H292 H 0.5267 0.87829 0.67939 0.0
H293 H 0.54387 0.84383 0.79 0.0
H294 H 0.52677 0.90041 0.01659 0.0
H295 H 0.50996 0.93524 0.90458 0.0
C296 C 0.52721 0.8149 0.1024 0.0
C297 C 0.54941 0.79672 0.08403 0.0
C298 C 0.52401 0.83953 0.05073 0.0
C299 C 0.54283 0.8463 0.97907 0.0
C300 C 0.56594 0.82888 0.96491 0.0
C301 C 0.56926 0.80452 0.01718 0.0
C302 C 0.52757 0.88374 0.75252 0.0
C303 C 0.51745 0.90959 0.78324 0.0
C304 C 0.53734 0.86398 0.81605 0.0
C305 C 0.53659 0.86929 0.9123 0.0
C306 C 0.52752 0.89565 0.94296 0.0
C307 C 0.51824 0.91571 0.87888 0.0
H308 H 0.72556 0.50317 0.02084 0.0
H309 H 0.69145 0.58046 0.12096 0.0
H310 H 0.68407 0.49542 0.92548 0.0
H311 H 0.6492 0.57259 0.02615 0.0
H312 H 0.56972 0.52037 0.89114 0.0
H313 H 0.60679 0.53497 0.99949 0.0
H314 H 0.66756 0.52378 0.78203 0.0
H315 H 0.63084 0.51 0.67445 0.0
C316 C 0.70882 0.51821 0.02354 0.0
C317 C 0.71165 0.5424 0.07773 0.0
C318 C 0.68516 0.51393 0.9687 0.0
C319 C 0.66354 0.53363 0.96714 0.0
C320 C 0.66553 0.55709 0.02584 0.0
C321 C 0.68955 0.56153 0.08028 0.0
C322 C 0.59082 0.52232 0.86564 0.0
C323 C 0.5973 0.5143 0.77396 0.0
C324 C 0.61209 0.53031 0.92794 0.0
C325 C 0.64015 0.52998 0.89969 0.0
C326 C 0.64622 0.52376 0.80638 0.0
C327 C 0.62513 0.51606 0.7445 0.0
H328 H 0.98466 0.69854 0.17854 0.0
H329 H 0.91933 0.7232 0.99134 0.0
H330 H 0.99018 0.65469 0.09245 0.0
H331 H 0.92436 0.67941 0.90534 0.0
H332 H 0.97976 0.62856 0.69881 0.0
H333 H 0.96095 0.6642 0.80152 0.0
H334 H 0.97191 0.60932 0.03654 0.0
H335 H 0.99113 0.57359 0.93223 0.0
C336 C 0.97087 0.69407 0.12075 0.0
C337 C 0.95167 0.71418 0.09109 0.0
C338 C 0.97398 0.66898 0.07128 0.0
C339 C 0.95793 0.66357 0.99101 0.0
C340 C 0.93739 0.68301 0.96571 0.0
C341 C 0.93435 0.708 0.01508 0.0
C342 C 0.97717 0.62375 0.77191 0.0
C343 C 0.98634 0.59813 0.80726 0.0
C344 C 0.9664 0.6442 0.8311 0.0
C345 C 0.96494 0.63978 0.92774 0.0
C346 C 0.97287 0.61352 0.96264 0.0
C347 C 0.98344 0.59287 0.90284 0.0
H348 H 0.09436 0.17916 0.29517 0.0
H349 H 0.00883 0.20494 0.30726 0.0
H350 H 0.08031 0.13072 0.32212 0.0
H351 H 0.9944 0.15721 0.34107 0.0
H352 H 0.9689 0.07026 0.35648 0.0
H353 H 0.98769 0.11225 0.28445 0.0
H354 H 0.06453 0.10121 0.43691 0.0
H355 H 0.04641 0.05888 0.50388 0.0
C356 C 0.07256 0.17428 0.30532 0.0
C357 C 0.05257 0.19537 0.30003 0.0
C358 C 0.06441 0.14665 0.32072 0.0
C359 C 0.0361 0.13978 0.3332 0.0
C360 C 0.01627 0.16134 0.32931 0.0
C361 C 0.02444 0.18877 0.31207 0.0
C362 C 0.99017 0.07629 0.37169 0.0
C363 C 0.00597 0.06141 0.43699 0.0
C364 C 0.00083 0.10064 0.33163 0.0
C365 C 0.0273 0.11083 0.35736 0.0
C366 C 0.04408 0.09426 0.41509 0.0
C367 C 0.03363 0.06973 0.45369 0.0
H368 H 0.32915 0.08733 0.27123 0.0
H369 H 0.30792 0.00065 0.30044 0.0
H370 H 0.37841 0.07645 0.29975 0.0
H371 H 0.35666 0.9894 0.3314 0.0
H372 H 0.44511 0.97004 0.33602 0.0
H373 H 0.40258 0.98688 0.26236 0.0
H374 H 0.40642 0.0616 0.43025 0.0
H375 H 0.44862 0.04503 0.50272 0.0
C376 C 0.33522 0.06602 0.28517 0.0
C377 C 0.31517 0.04479 0.28593 0.0
C378 C 0.36324 0.05971 0.30075 0.0
C379 C 0.37153 0.03201 0.31708 0.0
C380 C 0.35117 0.01085 0.31715 0.0
C381 C 0.32327 0.01722 0.30139 0.0
C382 C 0.43741 0.99051 0.35468 0.0
C383 C 0.45021 0.00605 0.4259 0.0
C384 C 0.41289 3e-05 0.31319 0.0
C385 C 0.40072 0.02523 0.34233 0.0
C386 C 0.4152 0.04213 0.40597 0.0
C387 C 0.43967 0.03265 0.44726 0.0
H388 H 0.41473 0.32577 0.28952 0.0
H389 H 0.50255 0.30892 0.28346 0.0
H390 H 0.42436 0.37553 0.3157 0.0
H391 H 0.51269 0.35795 0.31378 0.0
H392 H 0.53025 0.44586 0.32998 0.0
H393 H 0.51264 0.40375 0.25444 0.0
H394 H 0.44077 0.40493 0.43517 0.0
H395 H 0.45777 0.44712 0.50738 0.0
C396 C 0.43607 0.3329 0.29528 0.0
C397 C 0.458 0.31397 0.28604 0.0
C398 C 0.44167 0.36124 0.30968 0.0
C399 C 0.46934 0.37091 0.316 0.0
C400 C 0.49116 0.35156 0.30689 0.0
C401 C 0.48549 0.32344 0.29155 0.0
C402 C 0.51015 0.43769 0.35076 0.0
C403 C 0.49559 0.44967 0.42535 0.0
C404 C 0.5002 0.41336 0.30841 0.0
C405 C 0.47577 0.40035 0.341 0.0
C406 C 0.45966 0.41421 0.40809 0.0
C407 C 0.46941 0.43867 0.44946 0.0
H408 H 0.18989 0.50611 0.19115 0.0
H409 H 0.18482 0.43991 0.39217 0.0
H410 H 0.14098 0.51692 0.21542 0.0
H411 H 0.13646 0.45225 0.4246 0.0
H412 H 0.04761 0.46885 0.45179 0.0
H413 H 0.08997 0.45282 0.37573 0.0
H414 H 0.11331 0.53851 0.32269 0.0
H415 H 0.07069 0.55415 0.39346 0.0
C416 C 0.17816 0.49403 0.24117 0.0
C417 C 0.19084 0.47212 0.28953 0.0
C418 C 0.15019 0.50032 0.25582 0.0
C419 C 0.13452 0.4855 0.32205 0.0
C420 C 0.14752 0.46373 0.3714 0.0
C421 C 0.17535 0.45699 0.35466 0.0
C422 C 0.06137 0.48414 0.42084 0.0
C423 C 0.05619 0.5128 0.43134 0.0
C424 C 0.08588 0.47499 0.37838 0.0
C425 C 0.10571 0.49436 0.34615 0.0
C426 C 0.09878 0.52284 0.34676 0.0
C427 C 0.07416 0.53191 0.38786 0.0
H428 H 0.00115 0.81673 0.21523 0.0
H429 H 0.93515 0.82227 0.01348 0.0
H430 H 0.01318 0.86542 0.18902 0.0
H431 H 0.94861 0.87038 0.9794 0.0
H432 H 0.96717 0.95938 0.95206 0.0
H433 H 0.95028 0.91716 0.02763 0.0
H434 H 0.03533 0.89228 0.08014 0.0
H435 H 0.05185 0.93473 0.00955 0.0
C436 C 0.98937 0.82852 0.16468 0.0
C437 C 0.96717 0.81605 0.11666 0.0
C438 C -0.00366 0.85635 0.14892 0.0
C439 C 0.98191 0.87207 0.08201 0.0
C440 C 0.95983 0.85928 0.03305 0.0
C441 C 0.95242 0.83159 0.0508 0.0
C442 C 0.98215 0.94529 0.98262 0.0
C443 C 0.01086 0.95003 0.97222 0.0
C444 C 0.97251 0.92087 0.02487 0.0
C445 C 0.99142 0.90069 0.05708 0.0
C446 C 0.02 0.90711 0.05617 0.0
C447 C 0.02958 0.93163 0.0152 0.0
H448 H 0.70158 -0.00177 0.1063 0.0
H449 H 0.68085 0.91104 0.09493 0.0
H450 H 0.65341 0.01039 0.07176 0.0
H451 H 0.63192 0.92267 0.06522 0.0
H452 H 0.56053 0.95819 0.88128 0.0
H453 H 0.60276 0.94015 0.94905 0.0
H454 H 0.60785 0.01225 0.12943 0.0
H455 H 0.56588 0.031 0.05778 0.0
C456 C 0.68643 0.98175 0.09582 0.0
C457 C 0.69457 0.95385 0.10146 0.0
C458 C 0.65875 0.98857 0.07811 0.0
C459 C 0.63849 0.96753 0.06701 0.0
C460 C 0.64689 0.93944 0.07261 0.0
C461 C 0.67479 0.93269 0.08909 0.0
C462 C 0.56994 0.96975 0.93796 0.0
C463 C 0.56003 0.99628 0.9631 0.0
C464 C 0.59442 0.95938 0.9768 0.0
C465 C 0.60935 0.97516 0.04265 0.0
C466 C 0.59748 5e-05 0.07618 0.0
C467 C 0.57318 0.01064 0.0362 0.0
H468 H 0.49892 0.69912 0.12068 0.0
H469 H 0.58643 0.68263 0.09402 0.0
H470 H 0.48829 0.65034 0.08733 0.0
H471 H 0.57651 0.63313 0.0663 0.0
H472 H 0.47086 0.56215 0.06082 0.0
H473 H 0.48855 0.60415 0.13696 0.0
H474 H 0.55922 0.60426 0.95076 0.0
H475 H 0.54231 0.56214 0.87883 0.0
C476 C 0.5158 0.68473 0.10753 0.0
C477 C 0.54331 0.69424 0.10772 0.0
C478 C 0.5099 0.65671 0.09046 0.0
C479 C 0.53155 0.63751 0.07485 0.0
C480 C 0.55926 0.64726 0.07669 0.0
C481 C 0.56504 0.67548 0.0921 0.0
C482 C 0.49074 0.5706 0.03905 0.0
C483 C 0.50506 0.55888 0.96352 0.0
C484 C 0.50072 0.59491 0.0816 0.0
C485 C 0.52487 0.60824 0.048 0.0
C486 C 0.54063 0.59475 0.97909 0.0
C487 C 0.53092 0.57028 0.93781 0.0
H488 H 0.82728 0.58822 0.11847 0.0
H489 H 0.80484 0.50153 0.1012 0.0
H490 H 0.87634 0.57628 0.09445 0.0
H491 H 0.85324 0.48921 0.07105 0.0
H492 H 0.9405 0.46742 0.05331 0.0
H493 H 0.89852 0.48464 0.12925 0.0
H494 H 0.90567 0.56179 0.97575 0.0
H495 H 0.94774 0.54515 0.90403 0.0
C496 C 0.83305 0.56663 0.10827 0.0
C497 C 0.81273 0.5457 0.11066 0.0
C498 C 0.86101 0.5597 0.09463 0.0
C499 C 0.86895 0.5317 0.08131 0.0
C500 C 0.84822 0.51089 0.0834 0.0
C501 C 0.82045 0.51785 0.0986 0.0
C502 C 0.93363 0.48845 0.03874 0.0
C503 C 0.94731 0.50475 0.97177 0.0
C504 C 0.90935 0.49822 0.0812 0.0
C505 C 0.89808 0.52426 0.05631 0.0
C506 C 0.91353 0.54166 0.99706 0.0
C507 C 0.93793 0.53208 0.95582 0.0
H508 H 0.0148 0.23059 0.0702 0.0
H509 H 0.09328 0.19132 0.1271 0.0
H510 H 0.00252 0.19272 0.96399 0.0
H511 H 0.08031 0.15185 0.02978 0.0
H512 H 0.05532 0.08661 0.81656 0.0
H513 H 0.07151 0.12887 0.89514 0.0
H514 H 0.98642 0.14841 0.96917 0.0
H515 H 0.97058 0.10758 0.88445 0.0
C516 C 0.02962 0.21401 0.05831 0.0
C517 C 0.0549 0.21371 0.10688 0.0
C518 C 0.02238 0.19181 0.99935 0.0
C519 C 0.03993 0.16837 0.98967 0.0
C520 C 0.06607 0.16922 0.03414 0.0
C521 C 0.07355 0.1918 0.09073 0.0
C522 C 0.04025 0.1 0.85022 0.0
C523 C 0.01174 0.09383 0.84459 0.0
C524 C 0.04945 0.12432 0.89558 0.0
C525 C 0.03039 0.14267 0.93854 0.0
C526 C 0.00188 0.1357 0.93478 0.0
C527 C 0.99272 0.11192 0.88733 0.0
H528 H 0.28442 -0.00088 0.08921 0.0
H529 H 0.31148 0.08459 0.09079 0.0
H530 H 0.3233 0.98676 0.98736 0.0
H531 H 0.35021 0.07285 0.98725 0.0
H532 H 0.38521 0.97597 0.75359 0.0
H533 H 0.34409 0.99062 0.83791 0.0
H534 H 0.39392 0.0487 0.99719 0.0
H535 H 0.43531 0.03451 0.91019 0.0
C536 C 0.2981 0.01542 0.0641 0.0
C537 C 0.29475 0.04285 0.09568 0.0
C538 C 0.32056 0.00842 0.00651 0.0
C539 C 0.3402 0.02876 0.97938 0.0
C540 C 0.33588 0.05652 0.00774 0.0
C541 C 0.31344 0.06342 0.06541 0.0
C542 C 0.38756 0.99191 0.80653 0.0
C543 C 0.41378 0.00393 0.8252 0.0
C544 C 0.36384 0.00024 0.85532 0.0
C545 C 0.36551 0.0208 0.92484 0.0
C546 C 0.39169 0.03307 0.94322 0.0
C547 C 0.41552 0.0248 0.89383 0.0
H548 H 0.50221 0.27815 0.06637 0.0
H549 H 0.421 0.31304 0.11108 0.0
H550 H 0.5134 0.31606 0.9596 0.0
H551 H 0.43264 0.35254 0.01331 0.0
H552 H 0.45553 0.41873 0.80335 0.0
H553 H 0.44128 0.37585 0.88113 0.0
H554 H 0.52695 0.36105 0.96042 0.0
H555 H 0.54096 0.4025 0.87588 0.0
C556 C 0.48652 0.29366 0.05137 0.0
C557 C 0.46071 0.29266 0.09658 0.0
C558 C 0.49312 0.31597 0.99217 0.0
C559 C 0.47434 0.33829 0.97888 0.0
C560 C 0.44782 0.33607 0.02002 0.0
C561 C 0.44104 0.31338 0.07671 0.0
C562 C 0.47116 0.40626 0.83804 0.0
C563 C 0.49931 0.414 0.83393 0.0
C564 C 0.46307 0.38156 0.88305 0.0
C565 C 0.48286 0.36433 0.92751 0.0
C566 C 0.51098 0.37283 0.92508 0.0
C567 C 0.51908 0.39699 0.87776 0.0
H568 H 0.23226 0.49099 0.02941 0.0
H569 H 0.18377 0.42586 0.15606 0.0
H570 H 0.19424 0.50032 0.92066 0.0
H571 H 0.14494 0.43607 0.05278 0.0
H572 H 0.07852 0.45675 0.8379 0.0
H573 H 0.12072 0.43915 0.91291 0.0
H574 H 0.15221 0.52346 0.93459 0.0
H575 H 0.11103 0.54054 0.85646 0.0
C576 C 0.21378 0.47803 0.0316 0.0
C577 C 0.21083 0.45783 0.10123 0.0
C578 C 0.19162 0.48377 0.97098 0.0
C579 C 0.16588 0.46966 0.9795 0.0
C580 C 0.16417 0.4475 0.04332 0.0
C581 C 0.1865 0.44151 0.10262 0.0
C582 C 0.0945 0.47144 0.85902 0.0
C583 C 0.09134 0.50006 0.84102 0.0
C584 C 0.11879 0.46138 0.90204 0.0
C585 C 0.14038 0.47974 0.92919 0.0
C586 C 0.13675 0.5084 0.91238 0.0
C587 C 0.11279 0.51833 0.86844 0.0
H588 H 0.92134 0.8243 0.24952 0.0
H589 H 0.98507 0.77479 0.3784 0.0
H590 H 0.93238 0.86319 0.35243 0.0
H591 H 0.99516 0.81286 0.48678 0.0
H592 H 0.03746 0.89558 0.54839 0.0
H593 H 0.01936 0.85451 0.47084 0.0
H594 H 0.93594 0.88744 0.49274 0.0
H595 H 0.95456 0.92951 0.56718 0.0
C596 C 0.93685 0.82139 0.30332 0.0
C597 C 0.95258 0.79674 0.3055 0.0
C598 C 0.9433 0.84372 0.36242 0.0
C599 C 0.96532 0.84169 0.42671 0.0
C600 C 0.97876 0.81569 0.43605 0.0
C601 C 0.97257 0.79352 0.37563 0.0
C602 C 0.01523 0.89416 0.53655 0.0
C603 C -0.00251 0.91594 0.56386 0.0
C604 C 0.00472 0.87028 0.49299 0.0
C605 C 0.976 0.8671 0.47652 0.0
C606 C 0.95818 0.88904 0.50346 0.0
C607 C 0.96883 0.91325 0.5461 0.0
H608 H 0.68961 0.91703 0.27424 0.0
H609 H 0.73002 0.99531 0.3316 0.0
H610 H 0.65026 0.93059 0.36985 0.0
H611 H 0.69218 0.00817 0.43622 0.0
H612 H 0.6075 0.04061 0.51733 0.0
H613 H 0.64813 0.02468 0.43258 0.0
H614 H 0.62755 0.93941 0.50392 0.0
H615 H 0.5856 0.95566 0.58218 0.0
C616 C 0.69037 0.93683 0.31042 0.0
C617 C 0.71267 0.95519 0.29502 0.0
C618 C 0.66784 0.94466 0.36606 0.0
C619 C 0.66735 0.97088 0.41045 0.0
C620 C 0.69102 0.98824 0.40111 0.0
C621 C 0.71322 0.98063 0.34308 0.0
C622 C 0.61157 0.01842 0.51375 0.0
C623 C 0.59325 -0.00063 0.55557 0.0
C624 C 0.63522 0.0092 0.46626 0.0
C625 C 0.64182 0.9806 0.4616 0.0
C626 C 0.62328 0.96153 0.50389 0.0
C627 C 0.59912 0.97079 0.54915 0.0
H628 H 0.50381 0.73119 0.33783 0.0
H629 H 0.58213 0.69223 0.2765 0.0
H630 H 0.49203 0.69295 0.44304 0.0
H631 H 0.56982 0.65268 0.37342 0.0
H632 H 0.54614 0.58653 0.58321 0.0
H633 H 0.56164 0.6293 0.50725 0.0
H634 H 0.47619 0.64834 0.43661 0.0
H635 H 0.46098 0.60683 0.51847 0.0
C636 C 0.51877 0.71469 0.34889 0.0
C637 C 0.54385 0.71457 0.29925 0.0
C638 C 0.51181 0.69227 0.40723 0.0
C639 C 0.52951 0.66888 0.41551 0.0
C640 C 0.5555 0.67 0.37035 0.0
C641 C 0.56265 0.6927 0.31421 0.0
C642 C 0.5308 0.59987 0.5508 0.0
C643 C 0.50237 0.59327 0.55655 0.0
C644 C 0.53962 0.62452 0.50695 0.0
C645 C 0.52028 0.64289 0.46561 0.0
C646 C 0.49186 0.63559 0.46964 0.0
C647 C 0.48306 0.61142 0.51548 0.0
H648 H 0.81157 0.58704 0.28462 0.0
H649 H 0.77679 0.50567 0.33199 0.0
H650 H 0.85102 0.57602 0.38358 0.0
H651 H 0.81461 0.4951 0.43976 0.0
H652 H 0.90095 0.46788 0.521 0.0
H653 H 0.85952 0.48176 0.4369 0.0
H654 H 0.87457 0.56764 0.51633 0.0
H655 H 0.91749 0.5535 0.5941 0.0
C656 C 0.81195 0.56711 0.31972 0.0
C657 C 0.79135 0.54714 0.30017 0.0
C658 C 0.83458 0.56069 0.37708 0.0
C659 C 0.83683 0.53426 0.41903 0.0
C660 C 0.81452 0.51529 0.40638 0.0
C661 C 0.79229 0.52152 0.34659 0.0
C662 C 0.8955 0.48978 0.5194 0.0
C663 C 0.91257 0.50963 0.56336 0.0
C664 C 0.87134 0.49781 0.47232 0.0
C665 C 0.8629 0.52593 0.47017 0.0
C666 C 0.88022 0.54584 0.5145 0.0
C667 C 0.90493 0.53781 0.55943 0.0
loop_
_geom_bond_atom_site_label_1
_geom_bond_atom_site_label_2
_geom_bond_distance
_geom_bond_site_symmetry_2
_ccdc_geom_bond_type
C0 N1 1.317 . S
C0 N2 1.348 . S
C0 C3 1.485 . S
N1 C0 1.317 . S
N1 N5 1.370 . S
N2 C0 1.348 . S
N2 C4 1.346 . S
C3 C0 1.485 . S
C3 H7 0.960 . S
C3 H8 0.961 . S
C3 H9 0.960 . S
C4 N2 1.346 . S
C4 N5 1.307 . S
C4 C6 1.486 1_554 S
N5 N1 1.370 . S
N5 C4 1.307 . S
C6 C4 1.486 1_556 S
C6 H10 0.960 . S
C6 H11 0.960 . S
C6 H12 0.959 . S
H7 C3 0.960 . S
H8 C3 0.961 . S
H9 C3 0.960 . S
H10 C6 0.960 . S
H11 C6 0.960 . S
H12 C6 0.959 . S
C13 N14 1.317 . S
C13 N15 1.348 . S
C13 C16 1.485 . S
N14 C13 1.317 . S
N14 N18 1.370 . S
N15 C13 1.348 . S
N15 C17 1.346 . S
C16 C13 1.485 . S
C16 H20 0.960 . S
C16 H21 0.961 . S
C16 H22 0.960 . S
C17 N15 1.346 . S
C17 N18 1.307 . S
C17 C19 1.486 1_554 S
N18 N14 1.370 . S
N18 C17 1.307 . S
C19 C17 1.486 1_556 S
C19 H23 0.960 . S
C19 H24 0.960 . S
C19 H25 0.959 . S
H20 C16 0.960 . S
H21 C16 0.961 . S
H22 C16 0.960 . S
H23 C19 0.960 . S
H24 C19 0.960 . S
H25 C19 0.959 . S
C26 N27 1.317 . S
C26 N28 1.348 . S
C26 C29 1.485 . S
N27 C26 1.317 . S
N27 N31 1.370 . S
N28 C26 1.348 . S
N28 C30 1.346 . S
C29 C26 1.485 . S
C29 H33 0.960 . S
C29 H34 0.961 . S
C29 H35 0.960 . S
C30 N28 1.346 . S
C30 N31 1.307 . S
C30 C32 1.486 1_554 S
N31 N27 1.370 . S
N31 C30 1.307 . S
C32 C30 1.486 1_556 S
C32 H36 0.960 . S
C32 H37 0.960 . S
C32 H38 0.959 . S
H33 C29 0.960 . S
H34 C29 0.961 . S
H35 C29 0.960 . S
H36 C32 0.960 . S
H37 C32 0.960 . S
H38 C32 0.959 . S
C39 N40 1.317 . S
C39 N41 1.348 . S
C39 C42 1.485 . S
N40 C39 1.317 . S
N40 N44 1.370 . S
N41 C39 1.348 . S
N41 C43 1.346 . S
C42 C39 1.485 . S
C42 H46 0.960 . S
C42 H47 0.961 . S
C42 H48 0.960 . S
C43 N41 1.346 . S
C43 N44 1.307 . S
C43 C45 1.486 1_554 S
N44 N40 1.370 . S
N44 C43 1.307 . S
C45 C43 1.486 1_556 S
C45 H49 0.960 . S
C45 H50 0.960 . S
C45 H51 0.959 . S
H46 C42 0.960 . S
H47 C42 0.961 . S
H48 C42 0.960 . S
H49 C45 0.960 . S
H50 C45 0.960 . S
H51 C45 0.959 . S
C52 N53 1.317 . S
C52 N54 1.348 . S
C52 C55 1.485 . S
N53 C52 1.317 . S
N53 N57 1.370 . S
N54 C52 1.348 . S
N54 C56 1.346 . S
C55 C52 1.485 . S
C55 H59 0.960 . S
C55 H60 0.961 . S
C55 H61 0.960 . S
C56 N54 1.346 . S
C56 N57 1.307 . S
C56 C58 1.486 . S
N57 N53 1.370 . S
N57 C56 1.307 . S
C58 C56 1.486 . S
C58 H62 0.960 . S
C58 H63 0.960 . S
C58 H64 0.959 . S
H59 C55 0.960 . S
H60 C55 0.961 . S
H61 C55 0.960 . S
H62 C58 0.960 . S
H63 C58 0.960 . S
H64 C58 0.959 . S
C65 N66 1.317 . S
C65 N67 1.348 . S
C65 C68 1.485 . S
N66 C65 1.317 . S
N66 N70 1.370 . S
N67 C65 1.348 . S
N67 C69 1.346 . S
C68 C65 1.485 . S
C68 H72 0.960 . S
C68 H73 0.961 . S
C68 H74 0.960 . S
C69 N67 1.346 . S
C69 N70 1.307 . S
C69 C71 1.486 . S
N70 N66 1.370 . S
N70 C69 1.307 . S
C71 C69 1.486 . S
C71 H75 0.960 . S
C71 H76 0.960 . S
C71 H77 0.959 . S
H72 C68 0.960 . S
H73 C68 0.961 . S
H74 C68 0.960 . S
H75 C71 0.960 . S
H76 C71 0.960 . S
H77 C71 0.959 . S
C78 N79 1.317 . S
C78 N80 1.348 . S
C78 C81 1.485 . S
N79 C78 1.317 . S
N79 N83 1.370 . S
N80 C78 1.348 . S
N80 C82 1.346 . S
C81 C78 1.485 . S
C81 H85 0.960 . S
C81 H86 0.961 . S
C81 H87 0.960 . S
C82 N80 1.346 . S
C82 N83 1.307 . S
C82 C84 1.486 . S
N83 N79 1.370 . S
N83 C82 1.307 . S
C84 C82 1.486 . S
C84 H88 0.960 . S
C84 H89 0.960 . S
C84 H90 0.959 . S
H85 C81 0.960 . S
H86 C81 0.961 . S
H87 C81 0.960 . S
H88 C84 0.960 . S
H89 C84 0.960 . S
H90 C84 0.959 . S
C91 N92 1.317 . S
C91 N93 1.348 . S
C91 C94 1.485 . S
N92 C91 1.317 . S
N92 N96 1.370 . S
N93 C91 1.348 . S
N93 C95 1.346 . S
C94 C91 1.485 . S
C94 H98 0.960 . S
C94 H99 0.961 . S
C94 H100 0.960 . S
C95 N93 1.346 . S
C95 N96 1.307 . S
C95 C97 1.486 . S
N96 N92 1.370 . S
N96 C95 1.307 . S
C97 C95 1.486 . S
C97 H101 0.960 . S
C97 H102 0.960 . S
C97 H103 0.959 . S
H98 C94 0.960 . S
H99 C94 0.961 . S
H100 C94 0.960 . S
H101 C97 0.960 . S
H102 C97 0.960 . S
H103 C97 0.959 . S
O104 Mg105 1.990 . S
O104 C118 1.253 . S
Mg105 O104 1.990 . S
Mg105 O108 2.180 . S
Mg105 O109 2.117 . S
Mg105 O123 2.030 . S
O106 Mg107 2.072 1_565 S
O106 C118 1.260 . S
Mg107 O106 2.072 1_545 S
Mg107 O108 2.099 1_545 S
Mg107 O110 2.079 . S
Mg107 O111 2.072 . S
Mg107 O113 2.099 1_455 S
Mg107 O124 2.079 1_445 S
O108 Mg105 2.180 . S
O108 Mg107 2.099 1_565 S
O108 C119 1.282 . S
O109 Mg105 2.117 . S
O109 C119 1.277 . S
O110 Mg107 2.079 . S
O110 C120 1.257 1_455 S
O111 Mg107 2.072 . S
O111 C121 1.260 . S
Mg112 O113 2.180 . S
Mg112 O114 2.030 . S
Mg112 O115 1.990 . S
Mg112 O116 2.117 . S
O113 Mg107 2.099 1_655 S
O113 Mg112 2.180 . S
O113 C122 1.279 . S
O114 Mg112 2.030 . S
O114 C120 1.262 . S
O115 Mg112 1.990 . S
O115 C121 1.253 1_655 S
O116 Mg112 2.117 . S
O116 C122 1.250 . S
C117 O123 1.248 1_655 S
C117 O124 1.264 . S
C118 O104 1.253 . S
C118 O106 1.260 . S
C119 O108 1.282 . S
C119 O109 1.277 . S
C120 O110 1.257 1_655 S
C120 O114 1.262 . S
C121 O111 1.260 . S
C121 O115 1.253 1_455 S
C122 O113 1.279 . S
C122 O116 1.250 . S
O123 Mg105 2.030 . S
O123 C117 1.248 1_455 S
O124 Mg107 2.079 1_665 S
O124 C117 1.264 . S
O125 Mg126 1.990 . S
O125 C139 1.253 1_565 S
Mg126 O125 1.990 . S
Mg126 O129 2.180 . S
Mg126 O130 2.117 . S
Mg126 O144 2.030 . S
O127 Mg128 2.072 . S
O127 C139 1.260 . S
Mg128 O127 2.072 . S
Mg128 O129 2.099 1_545 S
Mg128 O131 2.079 1_545 S
Mg128 O132 2.072 . S
Mg128 O134 2.099 . S
Mg128 O145 2.079 . S
O129 Mg126 2.180 . S
O129 Mg128 2.099 1_565 S
O129 C140 1.279 . S
O130 Mg126 2.117 . S
O130 C140 1.250 . S
O131 Mg128 2.079 1_565 S
O131 C141 1.264 . S
O132 Mg128 2.072 . S
O132 C142 1.260 . S
Mg133 O134 2.180 . S
Mg133 O135 2.030 . S
Mg133 O136 1.990 . S
Mg133 O137 2.117 . S
O134 Mg128 2.099 . S
O134 Mg133 2.180 . S
O134 C143 1.279 . S
O135 Mg133 2.030 . S
O135 C141 1.248 1_545 S
O136 Mg133 1.990 . S
O136 C142 1.253 . S
O137 Mg133 2.117 . S
O137 C143 1.250 . S
C138 O144 1.268 . S
C138 O145 1.255 1_565 S
C139 O125 1.253 1_545 S
C139 O127 1.260 . S
C140 O129 1.279 . S
C140 O130 1.250 . S
C141 O131 1.264 . S
C141 O135 1.248 1_565 S
C142 O132 1.260 . S
C142 O136 1.253 . S
C143 O134 1.279 . S
C143 O137 1.250 . S
O144 Mg126 2.030 . S
O144 C138 1.268 . S
O145 Mg128 2.079 . S
O145 C138 1.255 1_545 S
O146 Mg147 1.990 . S
O146 C160 1.253 . S
Mg147 O146 1.990 . S
Mg147 O150 2.180 . S
Mg147 O151 2.117 . S
Mg147 O165 2.030 . S
O148 Mg149 2.072 . S
O148 C160 1.260 . S
Mg149 O148 2.072 . S
Mg149 O150 2.099 . S
Mg149 O152 2.079 . S
Mg149 O153 2.072 . S
Mg149 O155 2.099 . S
Mg149 O166 2.079 . S
O150 Mg147 2.180 . S
O150 Mg149 2.099 . S
O150 C161 1.279 . S
O151 Mg147 2.117 . S
O151 C161 1.250 . S
O152 Mg149 2.079 . S
O152 C162 1.264 . S
O153 Mg149 2.072 . S
O153 C163 1.260 . S
Mg154 O155 2.180 . S
Mg154 O156 2.030 . S
Mg154 O157 1.990 . S
Mg154 O158 2.117 . S
O155 Mg149 2.099 . S
O155 Mg154 2.180 . S
O155 C164 1.279 . S
O156 Mg154 2.030 . S
O156 C162 1.248 . S
O157 Mg154 1.990 . S
O157 C163 1.253 . S
O158 Mg154 2.117 . S
O158 C164 1.250 . S
C159 O165 1.248 . S
C159 O166 1.264 . S
C160 O146 1.253 . S
C160 O148 1.260 . S
C161 O150 1.279 . S
C161 O151 1.250 . S
C162 O152 1.264 . S
C162 O156 1.248 . S
C163 O153 1.260 . S
C163 O157 1.253 . S
C164 O155 1.279 . S
C164 O158 1.250 . S
O165 Mg147 2.030 . S
O165 C159 1.248 . S
O166 Mg149 2.079 . S
O166 C159 1.264 . S
O167 Mg168 1.990 . S
O167 C181 1.253 . S
Mg168 O167 1.990 . S
Mg168 O171 2.180 . S
Mg168 O172 2.117 . S
Mg168 O186 2.030 . S
O169 Mg170 2.072 1_655 S
O169 C181 1.260 . S
Mg170 O169 2.072 1_455 S
Mg170 O171 2.099 1_455 S
Mg170 O173 2.079 . S
Mg170 O174 2.072 . S
Mg170 O176 2.099 . S
Mg170 O187 2.079 1_455 S
O171 Mg168 2.180 . S
O171 Mg170 2.099 1_655 S
O171 C182 1.281 . S
O172 Mg168 2.117 . S
O172 C182 1.266 . S
O173 Mg170 2.079 . S
O173 C183 1.264 . S
O174 Mg170 2.072 . S
O174 C184 1.260 . S
Mg175 O176 2.180 . S
Mg175 O177 2.030 . S
Mg175 O178 1.990 . S
Mg175 O179 2.117 . S
O176 Mg170 2.099 . S
O176 Mg175 2.180 . S
O176 C185 1.279 . S
O177 Mg175 2.030 . S
O177 C183 1.248 . S
O178 Mg175 1.990 . S
O178 C184 1.253 . S
O179 Mg175 2.117 . S
O179 C185 1.250 . S
C180 O186 1.248 . S
C180 O187 1.264 . S
C181 O167 1.253 . S
C181 O169 1.260 . S
C182 O171 1.281 . S
C182 O172 1.266 . S
C183 O173 1.264 . S
C183 O177 1.248 . S
C184 O174 1.260 . S
C184 O178 1.253 . S
C185 O176 1.279 . S
C185 O179 1.250 . S
O186 Mg168 2.030 . S
O186 C180 1.248 . S
O187 Mg170 2.079 1_655 S
O187 C180 1.264 . S
H188 C196 0.950 . S
H189 C201 0.950 . S
H190 C198 0.950 . S
H191 C200 0.950 . S
H192 C202 0.950 1_565 S
H193 C204 0.950 . S
H194 C206 0.950 . S
H195 C207 0.950 . S
C196 H188 0.950 . S
C196 C197 1.386 . S
C196 C198 1.391 . S
C197 C196 1.386 . S
C197 C201 1.393 . S
C198 H190 0.950 . S
C198 C196 1.391 . S
C198 C199 1.400 . S
C199 C198 1.400 . S
C199 C200 1.398 . S
C199 C205 1.491 . S
C200 H191 0.950 . S
C200 C199 1.398 . S
C200 C201 1.391 . S
C201 H189 0.950 . S
C201 C197 1.393 . S
C201 C200 1.391 . S
C202 H192 0.950 1_545 S
C202 C203 1.386 . S
C202 C204 1.391 . S
C203 C202 1.386 . S
C203 C207 1.393 . S
C204 H193 0.950 . S
C204 C202 1.391 . S
C204 C205 1.400 . S
C205 C199 1.491 . S
C205 C204 1.400 . S
C205 C206 1.398 . S
C206 H194 0.950 . S
C206 C205 1.398 . S
C206 C207 1.391 . S
C207 H195 0.950 . S
C207 C203 1.393 . S
C207 C206 1.391 . S
H208 C216 0.950 . S
H209 C221 0.950 . S
H210 C218 0.950 . S
H211 C220 0.950 . S
H212 C222 0.950 . S
H213 C224 0.950 . S
H214 C226 0.950 . S
H215 C227 0.950 . S
C216 H208 0.950 . S
C216 C217 1.386 . S
C216 C218 1.391 . S
C217 C216 1.386 . S
C217 C221 1.393 . S
C218 H210 0.950 . S
C218 C216 1.391 . S
C218 C219 1.400 . S
C219 C218 1.400 . S
C219 C220 1.398 . S
C219 C225 1.491 . S
C220 H211 0.950 . S
C220 C219 1.398 . S
C220 C221 1.391 . S
C221 H209 0.950 . S
C221 C217 1.393 . S
C221 C220 1.391 . S
C222 H212 0.950 . S
C222 C223 1.386 . S
C222 C224 1.391 . S
C223 C222 1.386 . S
C223 C227 1.393 . S
C224 H213 0.950 . S
C224 C222 1.391 . S
C224 C225 1.400 . S
C225 C219 1.491 . S
C225 C224 1.400 . S
C225 C226 1.398 . S
C226 H214 0.950 . S
C226 C225 1.398 . S
C226 C227 1.391 . S
C227 H215 0.950 . S
C227 C223 1.393 . S
C227 C226 1.391 . S
H228 C236 0.950 . S
H229 C241 0.950 . S
H230 C238 0.950 . S
H231 C240 0.950 . S
H232 C242 0.950 . S
H233 C244 0.950 . S
H234 C246 0.950 . S
H235 C247 0.950 . S
C236 H228 0.950 . S
C236 C237 1.386 . S
C236 C238 1.391 . S
C237 C236 1.386 . S
C237 C241 1.393 . S
C238 H230 0.950 . S
C238 C236 1.391 . S
C238 C239 1.400 . S
C239 C238 1.400 . S
C239 C240 1.398 . S
C239 C245 1.491 . S
C240 H231 0.950 . S
C240 C239 1.398 . S
C240 C241 1.391 . S
C241 H229 0.950 . S
C241 C237 1.393 . S
C241 C240 1.391 . S
C242 H232 0.950 . S
C242 C243 1.386 . S
C242 C244 1.391 . S
C243 C242 1.386 . S
C243 C247 1.393 . S
C244 H233 0.950 . S
C244 C242 1.391 . S
C244 C245 1.400 . S
C245 C239 1.491 . S
C245 C244 1.400 . S
C245 C246 1.398 . S
C246 H234 0.950 . S
C246 C245 1.398 . S
C246 C247 1.391 . S
C247 H235 0.950 . S
C247 C243 1.393 . S
C247 C246 1.391 . S
H248 C256 0.950 . S
H249 C261 0.950 . S
H250 C258 0.950 . S
H251 C260 0.950 1_655 S
H252 C262 0.950 . S
H253 C264 0.950 1_655 S
H254 C266 0.950 . S
H255 C267 0.950 . S
C256 H248 0.950 . S
C256 C257 1.386 . S
C256 C258 1.391 . S
C257 C256 1.386 . S
C257 C261 1.393 . S
C258 H250 0.950 . S
C258 C256 1.391 . S
C258 C259 1.400 . S
C259 C258 1.400 . S
C259 C260 1.398 . S
C259 C265 1.491 . S
C260 H251 0.950 1_455 S
C260 C259 1.398 . S
C260 C261 1.391 . S
C261 H249 0.950 . S
C261 C257 1.393 . S
C261 C260 1.391 . S
C262 H252 0.950 . S
C262 C263 1.386 1_655 S
C262 C264 1.391 1_655 S
C263 C262 1.386 1_455 S
C263 C267 1.393 . S
C264 H253 0.950 1_455 S
C264 C262 1.391 1_455 S
C264 C265 1.400 . S
C265 C259 1.491 . S
C265 C264 1.400 . S
C265 C266 1.398 . S
C266 H254 0.950 . S
C266 C265 1.398 . S
C266 C267 1.391 . S
C267 H255 0.950 . S
C267 C263 1.393 . S
C267 C266 1.391 . S
H268 C276 0.950 . S
H269 C281 0.950 1_545 S
H270 C278 0.950 . S
H271 C280 0.950 . S
H272 C282 0.950 . S
H273 C284 0.950 . S
H274 C286 0.950 . S
H275 C287 0.950 . S
C276 H268 0.950 . S
C276 C277 1.386 1_556 S
C276 C278 1.391 . S
C277 C276 1.386 1_554 S
C277 C281 1.393 . S
C278 H270 0.950 . S
C278 C276 1.391 . S
C278 C279 1.400 . S
C279 C278 1.400 . S
C279 C280 1.398 1_565 S
C279 C285 1.491 . S
C280 H271 0.950 . S
C280 C279 1.398 1_545 S
C280 C281 1.391 1_546 S
C281 H269 0.950 1_565 S
C281 C277 1.393 . S
C281 C280 1.391 1_564 S
C282 H272 0.950 . S
C282 C283 1.386 1_545 S
C282 C284 1.391 . S
C283 C282 1.386 1_565 S
C283 C287 1.393 . S
C284 H273 0.950 . S
C284 C282 1.391 . S
C284 C285 1.400 1_545 S
C285 C279 1.491 . S
C285 C284 1.400 1_565 S
C285 C286 1.398 . S
C286 H274 0.950 . S
C286 C285 1.398 . S
C286 C287 1.391 . S
C287 H275 0.950 . S
C287 C283 1.393 . S
C287 C286 1.391 . S
H288 C296 0.950 . S
H289 C301 0.950 . S
H290 C298 0.950 . S
H291 C300 0.950 . S
H292 C302 0.950 . S
H293 C304 0.950 . S
H294 C306 0.950 . S
H295 C307 0.950 . S
C296 H288 0.950 . S
C296 C297 1.386 . S
C296 C298 1.391 . S
C297 C296 1.386 . S
C297 C301 1.393 1_554 S
C298 H290 0.950 . S
C298 C296 1.391 . S
C298 C299 1.400 1_554 S
C299 C298 1.400 1_556 S
C299 C300 1.398 . S
C299 C305 1.491 . S
C300 H291 0.950 . S
C300 C299 1.398 . S
C300 C301 1.391 . S
C301 H289 0.950 . S
C301 C297 1.393 1_556 S
C301 C300 1.391 . S
C302 H292 0.950 . S
C302 C303 1.386 . S
C302 C304 1.391 . S
C303 C302 1.386 . S
C303 C307 1.393 . S
C304 H293 0.950 . S
C304 C302 1.391 . S
C304 C305 1.400 . S
C305 C299 1.491 . S
C305 C304 1.400 . S
C305 C306 1.398 . S
C306 H294 0.950 . S
C306 C305 1.398 . S
C306 C307 1.391 . S
C307 H295 0.950 . S
C307 C303 1.393 . S
C307 C306 1.391 . S
H308 C316 0.950 . S
H309 C321 0.950 . S
H310 C318 0.950 . S
H311 C320 0.950 . S
H312 C322 0.950 . S
H313 C324 0.950 . S
H314 C326 0.950 . S
H315 C327 0.950 . S
C316 H308 0.950 . S
C316 C317 1.386 1_556 S
C316 C318 1.391 . S
C317 C316 1.386 1_554 S
C317 C321 1.393 . S
C318 H310 0.950 . S
C318 C316 1.391 . S
C318 C319 1.400 . S
C319 C318 1.400 . S
C319 C320 1.398 . S
C319 C325 1.491 . S
C320 H311 0.950 . S
C320 C319 1.398 . S
C320 C321 1.391 1_556 S
C321 H309 0.950 . S
C321 C317 1.393 . S
C321 C320 1.391 1_554 S
C322 H312 0.950 . S
C322 C323 1.386 . S
C322 C324 1.391 . S
C323 C322 1.386 . S
C323 C327 1.393 . S
C324 H313 0.950 . S
C324 C322 1.391 . S
C324 C325 1.400 . S
C325 C319 1.491 . S
C325 C324 1.400 . S
C325 C326 1.398 . S
C326 H314 0.950 . S
C326 C325 1.398 . S
C326 C327 1.391 . S
C327 H315 0.950 . S
C327 C323 1.393 . S
C327 C326 1.391 . S
H328 C336 0.950 . S
H329 C341 0.950 . S
H330 C338 0.950 . S
H331 C340 0.950 . S
H332 C342 0.950 . S
H333 C344 0.950 . S
H334 C346 0.939 1_554 S
H335 C347 0.950 . S
C336 H328 0.950 . S
C336 C337 1.386 . S
C336 C338 1.391 . S
C337 C336 1.386 . S
C337 C341 1.393 1_554 S
C338 H330 0.950 . S
C338 C336 1.391 . S
C338 C339 1.400 1_554 S
C339 C338 1.400 1_556 S
C339 C340 1.398 . S
C339 C345 1.491 . S
C340 H331 0.950 . S
C340 C339 1.398 . S
C340 C341 1.391 . S
C341 H329 0.950 . S
C341 C337 1.393 1_556 S
C341 C340 1.391 . S
C342 H332 0.950 . S
C342 C343 1.396 . S
C342 C344 1.391 . S
C343 C342 1.396 . S
C343 C347 1.390 1_655 S
C344 H333 0.950 . S
C344 C342 1.391 . S
C344 C345 1.400 . S
C345 C339 1.491 . S
C345 C344 1.400 . S
C345 C346 1.398 . S
C346 H334 0.939 1_556 S
C346 C345 1.398 . S
C346 C347 1.391 1_655 S
C347 H335 0.950 . S
C347 C343 1.390 1_455 S
C347 C346 1.391 1_455 S
H348 C356 0.950 . S
H349 C361 0.950 . S
H350 C358 0.950 . S
H351 C360 0.950 . S
H352 C362 0.950 . S
H353 C364 0.950 . S
H354 C366 0.950 . S
H355 C367 0.950 . S
C356 H348 0.950 . S
C356 C357 1.386 . S
C356 C358 1.391 . S
C357 C356 1.386 . S
C357 C361 1.393 . S
C358 H350 0.950 . S
C358 C356 1.391 . S
C358 C359 1.400 . S
C359 C358 1.400 . S
C359 C360 1.398 . S
C359 C365 1.491 . S
C360 H351 0.950 . S
C360 C359 1.398 . S
C360 C361 1.391 . S
C361 H349 0.950 . S
C361 C357 1.393 . S
C361 C360 1.391 . S
C362 H352 0.950 . S
C362 C363 1.386 1_655 S
C362 C364 1.391 1_655 S
C363 C362 1.386 1_455 S
C363 C367 1.393 . S
C364 H353 0.950 . S
C364 C362 1.391 1_455 S
C364 C365 1.400 . S
C365 C359 1.491 . S
C365 C364 1.400 . S
C365 C366 1.398 . S
C366 H354 0.950 . S
C366 C365 1.398 . S
C366 C367 1.391 . S
C367 H355 0.950 . S
C367 C363 1.393 . S
C367 C366 1.391 . S
H368 C376 0.950 . S
H369 C381 0.950 . S
H370 C378 0.950 . S
H371 C380 0.950 1_565 S
H372 C382 0.950 . S
H373 C384 0.950 . S
H374 C386 0.950 . S
H375 C387 0.950 . S
C376 H368 0.950 . S
C376 C377 1.386 . S
C376 C378 1.391 . S
C377 C376 1.386 . S
C377 C381 1.393 . S
C378 H370 0.950 . S
C378 C376 1.391 . S
C378 C379 1.400 . S
C379 C378 1.400 . S
C379 C380 1.398 . S
C379 C385 1.491 . S
C380 H371 0.950 1_545 S
C380 C379 1.398 . S
C380 C381 1.391 . S
C381 H369 0.950 . S
C381 C377 1.393 . S
C381 C380 1.391 . S
C382 H372 0.950 . S
C382 C383 1.386 1_565 S
C382 C384 1.391 . S
C383 C382 1.386 1_545 S
C383 C387 1.393 . S
C384 H373 0.950 . S
C384 C382 1.391 . S
C384 C385 1.400 1_565 S
C385 C379 1.491 . S
C385 C384 1.400 1_545 S
C385 C386 1.398 . S
C386 H374 0.950 . S
C386 C385 1.398 . S
C386 C387 1.391 . S
C387 H375 0.950 . S
C387 C383 1.393 . S
C387 C386 1.391 . S
H388 C396 0.950 . S
H389 C401 0.950 . S
H390 C398 0.950 . S
H391 C400 0.950 . S
H392 C402 0.950 . S
H393 C404 0.950 . S
H394 C406 0.950 . S
H395 C407 0.950 . S
C396 H388 0.950 . S
C396 C397 1.386 . S
C396 C398 1.391 . S
C397 C396 1.386 . S
C397 C401 1.393 . S
C398 H390 0.950 . S
C398 C396 1.391 . S
C398 C399 1.400 . S
C399 C398 1.400 . S
C399 C400 1.398 . S
C399 C405 1.491 . S
C400 H391 0.950 . S
C400 C399 1.398 . S
C400 C401 1.391 . S
C401 H389 0.950 . S
C401 C397 1.393 . S
C401 C400 1.391 . S
C402 H392 0.950 . S
C402 C403 1.386 . S
C402 C404 1.391 . S
C403 C402 1.386 . S
C403 C407 1.393 . S
C404 H393 0.950 . S
C404 C402 1.391 . S
C404 C405 1.400 . S
C405 C399 1.491 . S
C405 C404 1.400 . S
C405 C406 1.398 . S
C406 H394 0.950 . S
C406 C405 1.398 . S
C406 C407 1.391 . S
C407 H395 0.950 . S
C407 C403 1.393 . S
C407 C406 1.391 . S
H408 C416 0.950 . S
H409 C421 0.950 . S
H410 C418 0.950 . S
H411 C420 0.950 . S
H412 C422 0.950 . S
H413 C424 0.950 . S
H414 C426 0.950 . S
H415 C427 0.950 . S
C416 H408 0.950 . S
C416 C417 1.386 . S
C416 C418 1.391 . S
C417 C416 1.386 . S
C417 C421 1.393 . S
C418 H410 0.950 . S
C418 C416 1.391 . S
C418 C419 1.400 . S
C419 C418 1.400 . S
C419 C420 1.398 . S
C419 C425 1.491 . S
C420 H411 0.950 . S
C420 C419 1.398 . S
C420 C421 1.391 . S
C421 H409 0.950 . S
C421 C417 1.393 . S
C421 C420 1.391 . S
C422 H412 0.950 . S
C422 C423 1.386 . S
C422 C424 1.391 . S
C423 C422 1.386 . S
C423 C427 1.393 . S
C424 H413 0.950 . S
C424 C422 1.391 . S
C424 C425 1.400 . S
C425 C419 1.491 . S
C425 C424 1.400 . S
C425 C426 1.398 . S
C426 H414 0.950 . S
C426 C425 1.398 . S
C426 C427 1.391 . S
C427 H415 0.950 . S
C427 C423 1.393 . S
C427 C426 1.391 . S
H428 C436 0.950 1_455 S
H429 C441 0.950 . S
H430 C438 0.950 . S
H431 C440 0.950 1_554 S
H432 C442 0.950 . S
H433 C444 0.950 . S
H434 C446 0.950 . S
H435 C447 0.950 . S
C436 H428 0.950 1_655 S
C436 C437 1.386 1_556 S
C436 C438 1.391 1_655 S
C437 C436 1.386 1_554 S
C437 C441 1.393 . S
C438 H430 0.950 . S
C438 C436 1.391 1_455 S
C438 C439 1.400 1_455 S
C439 C438 1.400 1_655 S
C439 C440 1.398 . S
C439 C445 1.491 . S
C440 H431 0.950 1_556 S
C440 C439 1.398 . S
C440 C441 1.391 1_556 S
C441 H429 0.950 . S
C441 C437 1.393 . S
C441 C440 1.391 1_554 S
C442 H432 0.950 . S
C442 C443 1.386 1_655 S
C442 C444 1.391 . S
C443 C442 1.386 1_455 S
C443 C447 1.393 . S
C444 H433 0.950 . S
C444 C442 1.391 . S
C444 C445 1.400 . S
C445 C439 1.491 . S
C445 C444 1.400 . S
C445 C446 1.398 1_655 S
C446 H434 0.950 . S
C446 C445 1.398 1_455 S
C446 C447 1.391 . S
C447 H435 0.950 . S
C447 C443 1.393 . S
C447 C446 1.391 . S
H448 C456 0.950 1_545 S
H449 C461 0.950 . S
H450 C458 0.950 . S
H451 C460 0.950 . S
H452 C462 0.950 . S
H453 C464 0.950 . S
H454 C466 0.950 . S
H455 C467 0.950 . S
C456 H448 0.950 1_565 S
C456 C457 1.386 . S
C456 C458 1.391 1_565 S
C457 C456 1.386 . S
C457 C461 1.393 1_554 S
C458 H450 0.950 . S
C458 C456 1.391 1_545 S
C458 C459 1.400 1_544 S
C459 C458 1.400 1_566 S
C459 C460 1.398 . S
C459 C465 1.491 . S
C460 H451 0.950 . S
C460 C459 1.398 . S
C460 C461 1.391 . S
C461 H449 0.950 . S
C461 C457 1.393 1_556 S
C461 C460 1.391 . S
C462 H452 0.950 . S
C462 C463 1.386 1_565 S
C462 C464 1.391 . S
C463 C462 1.386 1_545 S
C463 C467 1.393 . S
C464 H453 0.950 . S
C464 C462 1.391 . S
C464 C465 1.400 . S
C465 C459 1.491 . S
C465 C464 1.400 . S
C465 C466 1.398 1_565 S
C466 H454 0.950 . S
C466 C465 1.398 1_545 S
C466 C467 1.391 . S
C467 H455 0.950 . S
C467 C463 1.393 . S
C467 C466 1.391 . S
H468 C476 0.950 . S
H469 C481 0.950 . S
H470 C478 0.950 . S
H471 C480 0.950 . S
H472 C482 0.950 . S
H473 C484 0.950 1_554 S
H474 C486 0.950 . S
H475 C487 0.950 . S
C476 H468 0.950 . S
C476 C477 1.386 1_556 S
C476 C478 1.391 . S
C477 C476 1.386 1_554 S
C477 C481 1.393 . S
C478 H470 0.950 . S
C478 C476 1.391 . S
C478 C479 1.400 . S
C479 C478 1.400 . S
C479 C480 1.398 1_556 S
C479 C485 1.491 . S
C480 H471 0.950 . S
C480 C479 1.398 1_554 S
C480 C481 1.391 . S
C481 H469 0.950 . S
C481 C477 1.393 . S
C481 C480 1.391 . S
C482 H472 0.950 . S
C482 C483 1.386 . S
C482 C484 1.391 . S
C483 C482 1.386 . S
C483 C487 1.393 . S
C484 H473 0.950 1_556 S
C484 C482 1.391 . S
C484 C485 1.400 . S
C485 C479 1.491 . S
C485 C484 1.400 . S
C485 C486 1.398 . S
C486 H474 0.950 . S
C486 C485 1.398 . S
C486 C487 1.391 . S
C487 H475 0.950 . S
C487 C483 1.393 . S
C487 C486 1.391 . S
H488 C496 0.950 . S
H489 C501 0.950 . S
H490 C498 0.950 . S
H491 C500 0.950 . S
H492 C502 0.950 . S
H493 C504 0.950 . S
H494 C506 0.950 . S
H495 C507 0.950 . S
C496 H488 0.950 . S
C496 C497 1.386 . S
C496 C498 1.391 1_554 S
C497 C496 1.386 . S
C497 C501 1.393 . S
C498 H490 0.950 . S
C498 C496 1.391 1_556 S
C498 C499 1.400 . S
C499 C498 1.400 . S
C499 C500 1.398 . S
C499 C505 1.491 . S
C500 H491 0.950 . S
C500 C499 1.398 . S
C500 C501 1.391 1_556 S
C501 H489 0.950 . S
C501 C497 1.393 . S
C501 C500 1.391 1_554 S
C502 H492 0.950 . S
C502 C503 1.386 . S
C502 C504 1.391 . S
C503 C502 1.386 . S
C503 C507 1.393 . S
C504 H493 0.950 . S
C504 C502 1.391 . S
C504 C505 1.400 . S
C505 C499 1.491 . S
C505 C504 1.400 . S
C505 C506 1.398 . S
C506 H494 0.950 . S
C506 C505 1.398 . S
C506 C507 1.391 . S
C507 H495 0.950 . S
C507 C503 1.393 . S
C507 C506 1.391 . S
H508 C516 0.950 . S
H509 C521 0.950 . S
H510 C518 0.950 . S
H511 C520 0.950 . S
H512 C522 0.950 . S
H513 C524 0.950 . S
H514 C526 0.950 . S
H515 C527 0.950 1_655 S
C516 H508 0.950 . S
C516 C517 1.386 . S
C516 C518 1.391 . S
C517 C516 1.386 . S
C517 C521 1.393 . S
C518 H510 0.950 . S
C518 C516 1.391 . S
C518 C519 1.400 . S
C519 C518 1.400 . S
C519 C520 1.398 . S
C519 C525 1.491 . S
C520 H511 0.950 . S
C520 C519 1.398 . S
C520 C521 1.391 . S
C521 H509 0.950 . S
C521 C517 1.393 . S
C521 C520 1.391 . S
C522 H512 0.950 . S
C522 C523 1.386 . S
C522 C524 1.391 . S
C523 C522 1.386 . S
C523 C527 1.393 . S
C524 H513 0.950 . S
C524 C522 1.391 . S
C524 C525 1.400 1_556 S
C525 C519 1.491 . S
C525 C524 1.400 1_554 S
C525 C526 1.398 . S
C526 H514 0.950 . S
C526 C525 1.398 . S
C526 C527 1.391 1_554 S
C527 H515 0.950 1_455 S
C527 C523 1.393 . S
C527 C526 1.391 1_556 S
H528 C536 0.950 . S
H529 C541 0.950 . S
H530 C538 0.950 . S
H531 C540 0.950 1_556 S
H532 C542 0.950 . S
H533 C544 0.950 . S
H534 C546 0.950 . S
H535 C547 0.950 1_554 S
C536 H528 0.950 . S
C536 C537 1.386 . S
C536 C538 1.391 . S
C537 C536 1.386 . S
C537 C541 1.393 . S
C538 H530 0.950 . S
C538 C536 1.391 . S
C538 C539 1.400 . S
C539 C538 1.400 . S
C539 C540 1.398 . S
C539 C545 1.491 . S
C540 H531 0.950 1_554 S
C540 C539 1.398 . S
C540 C541 1.391 . S
C541 H529 0.950 . S
C541 C537 1.393 . S
C541 C540 1.391 . S
C542 H532 0.950 . S
C542 C543 1.386 . S
C542 C544 1.391 . S
C543 C542 1.386 . S
C543 C547 1.393 . S
C544 H533 0.950 . S
C544 C542 1.391 . S
C544 C545 1.400 1_556 S
C545 C539 1.491 . S
C545 C544 1.400 1_554 S
C545 C546 1.398 . S
C546 H534 0.950 . S
C546 C545 1.398 . S
C546 C547 1.391 1_554 S
C547 H535 0.950 1_556 S
C547 C543 1.393 . S
C547 C546 1.391 1_556 S
H548 C556 0.950 . S
H549 C561 0.950 . S
H550 C558 0.950 . S
H551 C560 0.950 . S
H552 C562 0.950 . S
H553 C564 0.950 1_554 S
H554 C566 0.950 1_554 S
H555 C567 0.950 . S
C556 H548 0.950 . S
C556 C557 1.386 . S
C556 C558 1.391 . S
C557 C556 1.386 . S
C557 C561 1.393 . S
C558 H550 0.950 . S
C558 C556 1.391 . S
C558 C559 1.400 . S
C559 C558 1.400 . S
C559 C560 1.398 . S
C559 C565 1.491 . S
C560 H551 0.950 . S
C560 C559 1.398 . S
C560 C561 1.391 . S
C561 H549 0.950 . S
C561 C557 1.393 . S
C561 C560 1.391 . S
C562 H552 0.950 . S
C562 C563 1.386 . S
C562 C564 1.391 . S
C563 C562 1.386 . S
C563 C567 1.393 . S
C564 H553 0.950 1_556 S
C564 C562 1.391 . S
C564 C565 1.400 1_556 S
C565 C559 1.491 . S
C565 C564 1.400 1_554 S
C565 C566 1.398 1_554 S
C566 H554 0.950 1_556 S
C566 C565 1.398 1_556 S
C566 C567 1.391 . S
C567 H555 0.950 . S
C567 C563 1.393 . S
C567 C566 1.391 . S
H568 C576 0.950 . S
H569 C581 0.950 . S
H570 C578 0.950 . S
H571 C580 0.950 . S
H572 C582 0.950 . S
H573 C584 0.950 . S
H574 C586 0.950 . S
H575 C587 0.950 . S
C576 H568 0.950 . S
C576 C577 1.386 . S
C576 C578 1.391 . S
C577 C576 1.386 . S
C577 C581 1.393 . S
C578 H570 0.950 . S
C578 C576 1.391 . S
C578 C579 1.400 . S
C579 C578 1.400 . S
C579 C580 1.398 . S
C579 C585 1.491 . S
C580 H571 0.950 . S
C580 C579 1.398 . S
C580 C581 1.391 . S
C581 H569 0.950 . S
C581 C577 1.393 . S
C581 C580 1.391 . S
C582 H572 0.950 . S
C582 C583 1.386 . S
C582 C584 1.391 . S
C583 C582 1.386 . S
C583 C587 1.393 . S
C584 H573 0.950 . S
C584 C582 1.391 . S
C584 C585 1.400 1_556 S
C585 C579 1.491 . S
C585 C584 1.400 1_554 S
C585 C586 1.398 . S
C586 H574 0.950 . S
C586 C585 1.398 . S
C586 C587 1.391 1_554 S
C587 H575 0.950 . S
C587 C583 1.393 . S
C587 C586 1.391 1_556 S
H588 C596 0.950 . S
H589 C601 0.950 1_455 S
H590 C598 0.950 . S
H591 C600 0.928 1_455 S
H592 C602 0.950 . S
H593 C604 0.950 . S
H594 C606 0.950 . S
H595 C607 0.950 . S
C596 H588 0.950 . S
C596 C597 1.386 . S
C596 C598 1.391 . S
C597 C596 1.386 . S
C597 C601 1.393 . S
C598 H590 0.950 . S
C598 C596 1.391 . S
C598 C599 1.400 . S
C599 C598 1.400 . S
C599 C600 1.418 . S
C599 C605 1.491 . S
C600 H591 0.928 1_655 S
C600 C599 1.418 . S
C600 C601 1.393 . S
C601 H589 0.950 1_655 S
C601 C597 1.393 . S
C601 C600 1.393 . S
C602 H592 0.950 . S
C602 C603 1.386 1_455 S
C602 C604 1.391 . S
C603 C602 1.386 1_655 S
C603 C607 1.393 . S
C604 H593 0.950 . S
C604 C602 1.391 . S
C604 C605 1.400 1_455 S
C605 C599 1.491 . S
C605 C604 1.400 1_655 S
C605 C606 1.398 . S
C606 H594 0.950 . S
C606 C605 1.398 . S
C606 C607 1.391 . S
C607 H595 0.950 . S
C607 C603 1.393 . S
C607 C606 1.391 . S
H608 C616 0.950 . S
H609 C621 0.950 1_545 S
H610 C618 0.950 . S
H611 C620 0.950 1_545 S
H612 C622 0.950 . S
H613 C624 0.950 . S
H614 C626 0.950 . S
H615 C627 0.950 . S
C616 H608 0.950 . S
C616 C617 1.386 . S
C616 C618 1.391 . S
C617 C616 1.386 . S
C617 C621 1.393 . S
C618 H610 0.950 . S
C618 C616 1.391 . S
C618 C619 1.400 . S
C619 C618 1.400 . S
C619 C620 1.398 . S
C619 C625 1.491 . S
C620 H611 0.950 1_565 S
C620 C619 1.398 . S
C620 C621 1.391 . S
C621 H609 0.950 1_565 S
C621 C617 1.393 . S
C621 C620 1.391 . S
C622 H612 0.950 . S
C622 C623 1.386 1_545 S
C622 C624 1.391 . S
C623 C622 1.386 1_565 S
C623 C627 1.393 . S
C624 H613 0.950 . S
C624 C622 1.391 . S
C624 C625 1.400 1_545 S
C625 C619 1.491 . S
C625 C624 1.400 1_565 S
C625 C626 1.398 . S
C626 H614 0.950 . S
C626 C625 1.398 . S
C626 C627 1.391 . S
C627 H615 0.950 . S
C627 C623 1.393 . S
C627 C626 1.391 . S
H628 C636 0.950 . S
H629 C641 0.950 . S
H630 C638 0.950 . S
H631 C640 0.950 . S
H632 C642 0.950 . S
H633 C644 0.950 . S
H634 C646 0.950 . S
H635 C647 0.950 . S
C636 H628 0.950 . S
C636 C637 1.386 . S
C636 C638 1.391 . S
C637 C636 1.386 . S
C637 C641 1.393 . S
C638 H630 0.950 . S
C638 C636 1.391 . S
C638 C639 1.400 . S
C639 C638 1.400 . S
C639 C640 1.398 . S
C639 C645 1.491 . S
C640 H631 0.950 . S
C640 C639 1.398 . S
C640 C641 1.391 . S
C641 H629 0.950 . S
C641 C637 1.393 . S
C641 C640 1.391 . S
C642 H632 0.950 . S
C642 C643 1.386 . S
C642 C644 1.391 . S
C643 C642 1.386 . S
C643 C647 1.393 . S
C644 H633 0.950 . S
C644 C642 1.391 . S
C644 C645 1.400 . S
C645 C639 1.491 . S
C645 C644 1.400 . S
C645 C646 1.398 . S
C646 H634 0.950 . S
C646 C645 1.398 . S
C646 C647 1.391 . S
C647 H635 0.950 . S
C647 C643 1.393 . S
C647 C646 1.391 . S
H648 C656 0.950 . S
H649 C661 0.950 . S
H650 C658 0.950 . S
H651 C660 0.950 . S
H652 C662 0.950 . S
H653 C664 0.950 . S
H654 C666 0.950 . S
H655 C667 0.950 . S
C656 H648 0.950 . S
C656 C657 1.386 . S
C656 C658 1.391 . S
C657 C656 1.386 . S
C657 C661 1.393 . S
C658 H650 0.950 . S
C658 C656 1.391 . S
C658 C659 1.400 . S
C659 C658 1.400 . S
C659 C660 1.398 . S
C659 C665 1.491 . S
C660 H651 0.950 . S
C660 C659 1.398 . S
C660 C661 1.391 . S
C661 H649 0.950 . S
C661 C657 1.393 . S
C661 C660 1.391 . S
C662 H652 0.950 . S
C662 C663 1.386 . S
C662 C664 1.391 . S
C663 C662 1.386 . S
C663 C667 1.393 . S
C664 H653 0.950 . S
C664 C662 1.391 . S
C664 C665 1.400 . S
C665 C659 1.491 . S
C665 C664 1.400 . S
C665 C666 1.398 . S
C666 H654 0.950 . S
C666 C665 1.398 . S
C666 C667 1.391 . S
C667 H655 0.950 . S
C667 C663 1.393 . S
C667 C666 1.391 . S
C197 N80 1.597 . S
C203 C119 1.384 1_545 S
C223 C143 1.437 . S
C217 N93 1.585 . S
C243 C164 1.409 . S
C237 N54 1.598 . S
C263 C182 1.421 1_455 S
C257 N67 1.592 . S
C283 C122 1.349 1_565 S
C277 N28 1.513 . S
C297 N41 1.524 . S
C303 C140 1.326 . S
C317 N2 1.525 . S
C323 C161 1.355 . S
C337 N15 1.523 . S
C343 C185 1.301 1_655 S
C363 C120 0.642 1_455 S
C357 N70 0.608 . S
C383 C138 0.659 1_545 S
C377 N83 0.631 . S
C403 C159 0.667 . S
C397 N96 0.618 . S
C417 N57 0.613 . S
C423 C183 0.619 . S
C437 N18 0.734 . S
C443 C118 0.734 . S
C463 C142 0.748 . S
C457 N31 0.721 . S
C483 C163 0.717 . S
C477 N44 0.738 . S
C497 N5 0.724 . S
C503 C181 0.712 . S
C517 N66 1.627 . S
C523 C121 1.544 . S
C537 N79 1.623 . S
C543 C139 1.549 . S
C563 C160 1.534 . S
C557 N92 1.631 . S
C583 C184 1.541 . S
C577 N53 1.629 . S
C597 N14 1.500 . S
C603 C117 1.419 . S
C623 C141 1.407 . S
C617 N27 1.501 . S
C643 C162 1.385 . S
C637 N40 1.490 . S
C657 N1 1.500 . S
C663 C180 1.406 . S
