# Generated by pormake.
# Topology apo, (3,6)-cn, num edge types: 1
# Building blocks:
#     Node 0, Type 0, BuildingBlock: MIDCAF_clean_linker_0, # of connection points: 3
#     Node 1, Type 0, BuildingBlock: MIDCAF_clean_linker_0, # of connection points: 3
#     Node 2, Type 0, BuildingBlock: MIDCAF_clean_linker_0, # of connection points: 3
#     Node 3, Type 0, BuildingBlock: MIDCAF_clean_linker_0, # of connection points: 3
#     Node 4, Type 0, BuildingBlock: MIDCAF_clean_linker_0, # of connection points: 3
#     Node 5, Type 0, BuildingBlock: MIDCAF_clean_linker_0, # of connection points: 3
#     Node 6, Type 0, BuildingBlock: MIDCAF_clean_linker_0, # of connection points: 3
#     Node 7, Type 0, BuildingBlock: MIDCAF_clean_linker_0, # of connection points: 3
#     Node 8, Type 1, BuildingBlock: KUMJIN_clean_sbu_1, # of connection points: 6
#     Node 9, Type 1, BuildingBlock: KUMJIN_clean_sbu_1, # of connection points: 6
#     Node 10, Type 1, BuildingBlock: KUMJIN_clean_sbu_1, # of connection points: 6
#     Node 11, Type 1, BuildingBlock: KUMJIN_clean_sbu_1, # of connection points: 6
#     Edge 12, Type (0, 1), BuildingBlock: KIFKEQ_clean_linker_1, # of connection points: 2
#     Edge 13, Type (0, 1), BuildingBlock: KIFKEQ_clean_linker_1, # of connection points: 2
#     Edge 14, Type (0, 1), BuildingBlock: KIFKEQ_clean_linker_1, # of connection points: 2
#     Edge 15, Type (0, 1), BuildingBlock: KIFKEQ_clean_linker_1, # of connection points: 2
#     Edge 16, Type (0, 1), BuildingBlock: KIFKEQ_clean_linker_1, # of connection points: 2
#     Edge 17, Type (0, 1), BuildingBlock: KIFKEQ_clean_linker_1, # of connection points: 2
#     Edge 18, Type (0, 1), BuildingBlock: KIFKEQ_clean_linker_1, # of connection points: 2
#     Edge 19, Type (0, 1), BuildingBlock: KIFKEQ_clean_linker_1, # of connection points: 2
#     Edge 20, Type (0, 1), BuildingBlock: KIFKEQ_clean_linker_1, # of connection points: 2
#     Edge 21, Type (0, 1), BuildingBlock: KIFKEQ_clean_linker_1, # of connection points: 2
#     Edge 22, Type (0, 1), BuildingBlock: KIFKEQ_clean_linker_1, # of connection points: 2
#     Edge 23, Type (0, 1), BuildingBlock: KIFKEQ_clean_linker_1, # of connection points: 2
#     Edge 24, Type (0, 1), BuildingBlock: KIFKEQ_clean_linker_1, # of connection points: 2
#     Edge 25, Type (0, 1), BuildingBlock: KIFKEQ_clean_linker_1, # of connection points: 2
#     Edge 26, Type (0, 1), BuildingBlock: KIFKEQ_clean_linker_1, # of connection points: 2
#     Edge 27, Type (0, 1), BuildingBlock: KIFKEQ_clean_linker_1, # of connection points: 2
#     Edge 28, Type (0, 1), BuildingBlock: KIFKEQ_clean_linker_1, # of connection points: 2
#     Edge 29, Type (0, 1), BuildingBlock: KIFKEQ_clean_linker_1, # of connection points: 2
#     Edge 30, Type (0, 1), BuildingBlock: KIFKEQ_clean_linker_1, # of connection points: 2
#     Edge 31, Type (0, 1), BuildingBlock: KIFKEQ_clean_linker_1, # of connection points: 2
#     Edge 32, Type (0, 1), BuildingBlock: KIFKEQ_clean_linker_1, # of connection points: 2
#     Edge 33, Type (0, 1), BuildingBlock: KIFKEQ_clean_linker_1, # of connection points: 2
#     Edge 34, Type (0, 1), BuildingBlock: KIFKEQ_clean_linker_1, # of connection points: 2
#     Edge 35, Type (0, 1), BuildingBlock: KIFKEQ_clean_linker_1, # of connection points: 2
# Relax obj value: 0.009
# Max RMSD: 0.093
# Mean RMSD: 0.074
data_MOF--net-apo--node1-KUMJIN_clean_sbu_1--node2-MIDCAF_clean_linker_0--edge1-KIFKEQ_clean_linker_1
_symmetry_space_group_name_H-M    P1
_symmetry_Int_Tables_number       1
_symmetry_cell_setting            triclinic
loop_
_symmetry_equiv_pos_as_xyz
'x, y, z'
_cell_length_a     29.438512
_cell_length_b     52.768458
_cell_length_c     64.739382
_cell_angle_alpha  89.989013
_cell_angle_beta   90.005128
_cell_angle_gamma 89.971725
loop_
_atom_site_label
_atom_site_type_symbol
_atom_site_fract_x
_atom_site_fract_y
_atom_site_fract_z
_atom_type_partial_charge
C0 C 0.34577 0.39418 0.48493 0.0
C1 C 0.32664 0.37548 0.4977 0.0
C2 C 0.29768 0.35729 0.48881 0.0
C3 C 0.28747 0.35813 0.4677 0.0
H4 H 0.21226 0.32212 0.41841 0.0
H5 H 0.17483 0.288 0.39906 0.0
H6 H 0.22759 0.3187 0.3421 0.0
H7 H 0.26457 0.35252 0.36111 0.0
H8 H 0.28359 0.41108 0.36035 0.0
H9 H 0.30809 0.44764 0.34048 0.0
H10 H 0.36522 0.48097 0.39561 0.0
H11 H 0.34162 0.44409 0.41553 0.0
H12 H 0.35066 0.40997 0.45472 0.0
H13 H 0.36902 0.40814 0.49113 0.0
H14 H 0.28204 0.34276 0.49824 0.0
H15 H 0.26461 0.34406 0.46137 0.0
N16 N 0.27263 0.35959 0.42304 0.0
N17 N 0.27589 0.38225 0.39189 0.0
N18 N 0.30653 0.39986 0.42192 0.0
C19 C 0.26347 0.36116 0.40248 0.0
C20 C 0.2972 0.40173 0.40146 0.0
C21 C 0.29444 0.37891 0.43283 0.0
C22 C 0.24131 0.34006 0.3913 0.0
C23 C 0.21596 0.32148 0.40177 0.0
C24 C 0.1944 0.30206 0.39073 0.0
C25 C 0.19858 0.3007 0.36912 0.0
C26 C 0.22425 0.31913 0.35876 0.0
C27 C 0.24516 0.33862 0.36969 0.0
C28 C 0.31079 0.42451 0.38957 0.0
C29 C 0.30127 0.42619 0.36832 0.0
C30 C 0.31502 0.44728 0.35691 0.0
C31 C 0.33861 0.46723 0.36645 0.0
C32 C 0.34761 0.46576 0.38775 0.0
C33 C 0.33386 0.44464 0.39918 0.0
C34 C 0.30582 0.37726 0.45509 0.0
C35 C 0.33534 0.39514 0.46396 0.0
C36 C 0.17336 0.10407 0.98571 0.0
C37 C 0.18549 0.12579 0.99697 0.0
C38 C 0.20856 0.14549 0.98678 0.0
C39 C 0.21925 0.14351 0.96581 0.0
H40 H 0.29264 0.17862 0.91746 0.0
H41 H 0.32959 0.21278 0.89812 0.0
H42 H 0.29243 0.17644 0.84082 0.0
H43 H 0.25564 0.14257 0.85987 0.0
H44 H 0.22844 0.0862 0.86017 0.0
H45 H 0.20298 0.04965 0.84061 0.0
H46 H 0.14529 0.01732 0.89602 0.0
H47 H 0.16989 0.05426 0.91565 0.0
H48 H 0.17402 0.08503 0.95664 0.0
H49 H 0.15506 0.08869 0.99302 0.0
H50 H 0.21896 0.16234 0.99508 0.0
H51 H 0.2371 0.15904 0.95849 0.0
N52 N 0.23954 0.13877 0.92213 0.0
N53 N 0.2362 0.11557 0.89131 0.0
N54 N 0.20593 0.09842 0.92163 0.0
C55 C 0.24866 0.13687 0.9016 0.0
C56 C 0.21498 0.09624 0.90116 0.0
C57 C 0.21806 0.11958 0.93225 0.0
C58 C 0.27114 0.15781 0.89024 0.0
C59 C 0.2923 0.17795 0.90074 0.0
C60 C 0.31365 0.19744 0.88969 0.0
C61 C 0.3137 0.1973 0.86797 0.0
C62 C 0.29247 0.17723 0.85754 0.0
C63 C 0.27162 0.1577 0.86852 0.0
C64 C 0.20105 0.07332 0.88951 0.0
C65 C 0.21047 0.07132 0.86828 0.0
C66 C 0.19616 0.05021 0.85704 0.0
C67 C 0.17212 0.03054 0.86674 0.0
C68 C 0.16328 0.0323 0.88804 0.0
C69 C 0.17759 0.05345 0.89931 0.0
C70 C 0.20716 0.12175 0.95455 0.0
C71 C 0.18408 0.10206 0.96478 0.0
C72 C 0.8461 0.11389 0.52293 0.0
C73 C 0.82011 0.13056 0.51083 0.0
C74 C 0.78554 0.14478 0.52031 0.0
C75 C 0.77712 0.1424 0.54147 0.0
H76 H 0.72254 0.182 0.5923 0.0
H77 H 0.68469 0.21507 0.61239 0.0
H78 H 0.70022 0.17001 0.66763 0.0
H79 H 0.73826 0.13728 0.64785 0.0
H80 H 0.75984 0.07574 0.63994 0.0
H81 H 0.78796 0.03932 0.65946 0.0
H82 H 0.90315 0.03374 0.61851 0.0
H83 H 0.87453 0.06989 0.59855 0.0
H84 H 0.85777 0.09809 0.5529 0.0
H85 H 0.87278 0.10259 0.516 0.0
H86 H 0.76526 0.15795 0.51137 0.0
H87 H 0.75014 0.15359 0.54827 0.0
N88 N 0.76823 0.14013 0.58626 0.0
N89 N 0.77397 0.11612 0.61659 0.0
N90 N 0.80843 0.10163 0.58619 0.0
C91 C 0.75884 0.13717 0.60669 0.0
C92 C 0.79871 0.09831 0.60651 0.0
C93 C 0.79296 0.12239 0.5759 0.0
C94 C 0.73377 0.15695 0.61841 0.0
C95 C 0.71777 0.1791 0.60871 0.0
C96 C 0.6959 0.19803 0.62021 0.0
C97 C 0.6898 0.19527 0.64164 0.0
C98 C 0.70509 0.17296 0.65122 0.0
C99 C 0.72671 0.15407 0.63978 0.0
C100 C 0.81506 0.07569 0.61775 0.0
C101 C 0.79104 0.06667 0.63501 0.0
C102 C 0.80693 0.04579 0.64612 0.0
C103 C 0.84765 0.03385 0.64045 0.0
C104 C 0.87169 0.04274 0.62317 0.0
C105 C 0.85524 0.0633 0.61174 0.0
C106 C 0.80271 0.12548 0.55357 0.0
C107 C 0.83729 0.11124 0.54405 0.0
C108 C 0.677 0.39176 0.01966 0.0
C109 C 0.68018 0.36759 0.01059 0.0
C110 C 0.69152 0.34684 0.02326 0.0
C111 C 0.70038 0.35019 0.04426 0.0
H112 H 0.77659 0.31789 0.09291 0.0
H113 H 0.81466 0.28521 0.11342 0.0
H114 H 0.78772 0.32799 0.16894 0.0
H115 H 0.74951 0.36026 0.14875 0.0
H116 H 0.71394 0.41319 0.1469 0.0
H117 H 0.68806 0.44993 0.16586 0.0
H118 H 0.63115 0.48132 0.10991 0.0
H119 H 0.65631 0.44393 0.09075 0.0
H120 H 0.68287 0.41396 0.04722 0.0
H121 H 0.66892 0.40824 0.01041 0.0
H122 H 0.69322 0.32783 0.01702 0.0
H123 H 0.70907 0.33373 0.05344 0.0
N124 N 0.72831 0.35909 0.0865 0.0
N125 N 0.72337 0.38353 0.11655 0.0
N126 N 0.69392 0.39933 0.08552 0.0
C127 C 0.73673 0.36191 0.10701 0.0
C128 C 0.70202 0.40232 0.10605 0.0
C129 C 0.70693 0.37773 0.07564 0.0
C130 C 0.75985 0.34176 0.11912 0.0
C131 C 0.77869 0.32028 0.10949 0.0
C132 C 0.80073 0.30162 0.12123 0.0
C133 C 0.80404 0.30395 0.14283 0.0
C134 C 0.78519 0.3254 0.15238 0.0
C135 C 0.76348 0.34404 0.14072 0.0
C136 C 0.68721 0.42547 0.11723 0.0
C137 C 0.69605 0.42786 0.13849 0.0
C138 C 0.68146 0.44911 0.14942 0.0
C139 C 0.65774 0.46869 0.13942 0.0
C140 C 0.64903 0.46647 0.11812 0.0
C141 C 0.66366 0.44509 0.10712 0.0
C142 C 0.69745 0.37434 0.0533 0.0
C143 C 0.6853 0.39507 0.04079 0.0
C144 C 0.67147 0.60386 0.5226 0.0
C145 C 0.68326 0.62534 0.51093 0.0
C146 C 0.7066 0.64523 0.52073 0.0
C147 C 0.71762 0.64372 0.54174 0.0
H148 H 0.79149 0.68015 0.59018 0.0
H149 H 0.82821 0.71447 0.60952 0.0
H150 H 0.79058 0.67832 0.66683 0.0
H151 H 0.7541 0.64441 0.64786 0.0
H152 H 0.72308 0.59035 0.64873 0.0
H153 H 0.6973 0.55474 0.66927 0.0
H154 H 0.6428 0.51917 0.61456 0.0
H155 H 0.66924 0.55486 0.59369 0.0
H156 H 0.67261 0.58545 0.55192 0.0
H157 H 0.65429 0.58794 0.51549 0.0
H158 H 0.7159 0.66214 0.51225 0.0
H159 H 0.73542 0.65944 0.5488 0.0
N160 N 0.73827 0.63989 0.5856 0.0
N161 N 0.73421 0.61747 0.61679 0.0
N162 N 0.70382 0.59971 0.58675 0.0
C163 C 0.7472 0.63843 0.60619 0.0
C164 C 0.71268 0.59801 0.60728 0.0
C165 C 0.71648 0.62055 0.57577 0.0
C166 C 0.76974 0.65948 0.61742 0.0
C167 C 0.79101 0.67958 0.6069 0.0
C168 C 0.81223 0.69915 0.61795 0.0
C169 C 0.81198 0.69913 0.63968 0.0
C170 C 0.79079 0.67905 0.65011 0.0
C171 C 0.7701 0.65948 0.63916 0.0
C172 C 0.69806 0.57564 0.6195 0.0
C173 C 0.70577 0.57497 0.64094 0.0
C174 C 0.69078 0.55457 0.6528 0.0
C175 C 0.66768 0.53423 0.64358 0.0
C176 C 0.66077 0.53451 0.62209 0.0
C177 C 0.6757 0.55504 0.61016 0.0
C178 C 0.70556 0.62225 0.55341 0.0
C179 C 0.68239 0.60234 0.54353 0.0
C180 C 0.84273 0.89734 0.02579 0.0
C181 C 0.82644 0.87789 0.01295 0.0
C182 C 0.79977 0.85858 0.02174 0.0
C183 C 0.78894 0.85904 0.0428 0.0
H184 H 0.76173 0.81113 0.09955 0.0
H185 H 0.72361 0.77712 0.11888 0.0
H186 H 0.6565 0.83301 0.15678 0.0
H187 H 0.6951 0.8668 0.13797 0.0
H188 H 0.80332 0.90406 0.15105 0.0
H189 H 0.82802 0.94 0.17201 0.0
H190 H 0.83498 0.98679 0.11753 0.0
H191 H 0.81116 0.95063 0.0962 0.0
H192 H 0.84475 0.91333 0.05603 0.0
H193 H 0.8641 0.91225 0.01965 0.0
H194 H 0.7863 0.84344 0.01227 0.0
H195 H 0.7678 0.84406 0.04899 0.0
N196 N 0.76885 0.86069 0.08687 0.0
N197 N 0.76841 0.88304 0.1182 0.0
N198 N 0.80295 0.90087 0.08908 0.0
C199 C 0.75683 0.86221 0.10712 0.0
C200 C 0.79157 0.9024 0.10935 0.0
C201 C 0.79181 0.88009 0.07771 0.0
C202 C 0.73148 0.84156 0.11734 0.0
C203 C 0.73852 0.81608 0.1119 0.0
C204 C 0.71699 0.79668 0.12298 0.0
C205 C 0.68722 0.80255 0.13927 0.0
C206 C 0.67912 0.82803 0.14422 0.0
C207 C 0.70137 0.84732 0.13351 0.0
C208 C 0.80527 0.92451 0.12195 0.0
C209 C 0.8098 0.92201 0.14349 0.0
C210 C 0.82395 0.94249 0.1555 0.0
C211 C 0.83298 0.96598 0.14629 0.0
C212 C 0.82785 0.96877 0.12487 0.0
C213 C 0.81449 0.94811 0.11274 0.0
C214 C 0.80444 0.87886 0.05552 0.0
C215 C 0.83177 0.89788 0.04675 0.0
C216 C 0.16423 0.89201 0.48793 0.0
C217 C 0.18754 0.87423 0.5001 0.0
C218 C 0.22096 0.85897 0.49084 0.0
C219 C 0.23047 0.86123 0.46976 0.0
H220 H 0.28218 0.81958 0.41949 0.0
H221 H 0.32316 0.78682 0.40035 0.0
H222 H 0.31206 0.83159 0.34471 0.0
H223 H 0.27222 0.86431 0.36367 0.0
H224 H 0.20756 0.90978 0.36193 0.0
H225 H 0.18 0.94569 0.34227 0.0
H226 H 0.14587 0.98449 0.39899 0.0
H227 H 0.17216 0.94798 0.41878 0.0
H228 H 0.15529 0.90833 0.45799 0.0
H229 H 0.13853 0.90414 0.4947 0.0
H230 H 0.23917 0.84493 0.49981 0.0
H231 H 0.2562 0.84905 0.46308 0.0
N232 N 0.2404 0.86285 0.42508 0.0
N233 N 0.23273 0.88525 0.39403 0.0
N234 N 0.20117 0.90165 0.42439 0.0
C235 C 0.24853 0.86474 0.40446 0.0
C236 C 0.20914 0.90379 0.40381 0.0
C237 C 0.21667 0.88125 0.43514 0.0
C238 C 0.27386 0.84468 0.39319 0.0
C239 C 0.28864 0.82247 0.40319 0.0
C240 C 0.31192 0.80362 0.3922 0.0
C241 C 0.3211 0.80662 0.37101 0.0
C242 C 0.30631 0.82882 0.36108 0.0
C243 C 0.28309 0.84756 0.37199 0.0
C244 C 0.19222 0.92594 0.39198 0.0
C245 C 0.19425 0.92593 0.37029 0.0
C246 C 0.17868 0.94668 0.35897 0.0
C247 C 0.16101 0.96816 0.36901 0.0
C248 C 0.15881 0.96818 0.39072 0.0
C249 C 0.17411 0.94727 0.40209 0.0
C250 C 0.20709 0.87899 0.45754 0.0
C251 C 0.17405 0.89447 0.46691 0.0
C252 C 0.33594 0.60982 0.9885 0.0
C253 C 0.31911 0.63068 0.99962 0.0
C254 C 0.29097 0.6482 0.9894 0.0
C255 C 0.28058 0.64521 0.96849 0.0
H256 H 0.22076 0.68286 0.91898 0.0
H257 H 0.17993 0.71541 0.89953 0.0
H258 H 0.19375 0.6707 0.84399 0.0
H259 H 0.23327 0.63817 0.86325 0.0
H260 H 0.2883 0.59064 0.86227 0.0
H261 H 0.31712 0.55515 0.84246 0.0
H262 H 0.36885 0.52087 0.89828 0.0
H263 H 0.3394 0.55648 0.91842 0.0
H264 H 0.3394 0.59059 0.95948 0.0
H265 H 0.3581 0.59611 0.99582 0.0
H266 H 0.27668 0.66424 0.99757 0.0
H267 H 0.25902 0.6592 0.96116 0.0
N268 N 0.26411 0.64006 0.92472 0.0
N269 N 0.27089 0.61712 0.89395 0.0
N270 N 0.30295 0.60113 0.92435 0.0
C271 C 0.2555 0.63784 0.90418 0.0
C272 C 0.29454 0.59868 0.90382 0.0
C273 C 0.2878 0.62176 0.93494 0.0
C274 C 0.23031 0.65779 0.89274 0.0
C275 C 0.2149 0.67994 0.90263 0.0
C276 C 0.19171 0.69867 0.89147 0.0
C277 C 0.18334 0.69562 0.87021 0.0
C278 C 0.19881 0.6735 0.8604 0.0
C279 C 0.22186 0.65486 0.87149 0.0
C280 C 0.31162 0.57656 0.892 0.0
C281 C 0.30569 0.5756 0.87045 0.0
C282 C 0.32247 0.55528 0.85901 0.0
C283 C 0.34558 0.53531 0.86877 0.0
C284 C 0.35096 0.53594 0.89035 0.0
C285 C 0.33428 0.55641 0.90186 0.0
C286 C 0.29787 0.62453 0.95728 0.0
C287 C 0.3254 0.60675 0.96759 0.0
Eu288 Eu 0.05244 0.13673 0.23537 0.0
C289 C 0.85481 0.11156 0.25765 0.0
N290 N 0.87292 0.13523 0.25666 0.0
C291 C 0.81031 0.14964 0.23622 0.0
C292 C 0.81394 0.10587 0.24732 0.0
C293 C 0.85115 0.15435 0.24654 0.0
C294 C 0.79175 0.12526 0.2365 0.0
C295 C 0.86027 0.06803 0.26954 0.0
C296 C 0.87812 0.0928 0.26852 0.0
C297 C 0.81979 0.06223 0.25906 0.0
C298 C 0.79671 0.08108 0.24799 0.0
Eu299 Eu 0.94194 0.14126 0.27413 0.0
N300 N 0.91776 0.0988 0.27826 0.0
C301 C 0.88323 0.04989 0.28135 0.0
C302 C 0.93818 0.0817 0.29105 0.0
C303 C 0.92191 0.05689 0.29243 0.0
H304 H 0.86542 0.1732 0.24644 0.0
H305 H 0.93876 0.04329 0.30234 0.0
H306 H 0.1223 0.09358 0.2569 0.0
H307 H 0.08774 0.23354 0.2107 0.0
H308 H 0.966 0.08723 0.30079 0.0
H309 H 0.87058 0.03066 0.28255 0.0
H310 H 0.04169 0.19491 0.21516 0.0
H311 H 0.79321 0.16478 0.22804 0.0
H312 H 0.8058 0.04326 0.25958 0.0
H313 H 0.76545 0.07631 0.24006 0.0
H314 H 0.19989 0.09141 0.27107 0.0
H315 H 0.76023 0.12164 0.22838 0.0
H316 H 0.16679 0.23475 0.22365 0.0
N317 N 0.1261 0.13273 0.24964 0.0
C318 C 0.15343 0.15344 0.24804 0.0
C319 C 0.18705 0.10908 0.26489 0.0
C320 C 0.19866 0.15282 0.25521 0.0
C321 C 0.14267 0.11049 0.25728 0.0
C322 C 0.21507 0.13039 0.26401 0.0
N323 N 0.093 0.17503 0.23158 0.0
C324 C 0.0756 0.19546 0.22138 0.0
C325 C 0.16465 0.19649 0.23574 0.0
C326 C 0.13679 0.17499 0.2383 0.0
C327 C 0.14653 0.21783 0.22585 0.0
C328 C 0.10185 0.21727 0.2186 0.0
H329 H 0.24963 0.12914 0.26969 0.0
H330 H 0.26115 0.17418 0.25839 0.0
H331 H 0.23127 0.21246 0.24146 0.0
O332 O 0.04978 0.1389 0.20149 0.0
O333 O 0.05942 0.16692 0.26028 0.0
O334 O -9e-05 0.16577 0.28403 0.0
O335 O 0.09447 0.1121 0.21635 0.0
O336 O 0.9899 0.15825 0.22454 0.0
O337 O 0.955 0.17541 0.25356 0.0
O338 O 0.9186 0.13725 0.30616 0.0
O339 O 0.93631 0.12548 0.2415 0.0
O340 O 0.00313 0.10423 0.23914 0.0
O341 O 0.89687 0.1698 0.28766 0.0
O342 O 0.0069 0.12376 0.2869 0.0
O343 O 0.04114 0.10527 0.2586 0.0
C344 C 0.03916 0.17422 0.2774 0.0
C345 C 0.12067 0.13057 0.18543 0.0
C346 C 0.1512 0.13823 0.15093 0.0
C347 C 0.1929 0.14528 0.15983 0.0
C348 C 0.16298 0.13728 0.19387 0.0
C349 C 0.19864 0.14479 0.18116 0.0
C350 C 0.115 0.1309 0.16387 0.0
C351 C 0.96453 0.17563 0.23363 0.0
C352 C 0.08291 0.12277 0.19902 0.0
C353 C 0.22637 0.17431 0.25292 0.0
C354 C 0.20941 0.19608 0.24321 0.0
C355 C 0.95994 0.1062 0.23478 0.0
C356 C 0.8699 0.16825 0.32332 0.0
C357 C 0.85332 0.16881 0.36031 0.0
C358 C 0.82691 0.19066 0.35747 0.0
C359 C 0.84288 0.18999 0.32085 0.0
C360 C 0.87458 0.15745 0.34318 0.0
C361 C 0.82148 0.20104 0.33783 0.0
C362 C 0.03571 0.10756 0.27868 0.0
C363 C 0.896 0.15845 0.30553 0.0
H364 H 0.22152 0.1506 0.15026 0.0
H365 H 0.16891 0.13636 0.21027 0.0
H366 H 0.23106 0.1499 0.18786 0.0
H367 H 0.08261 0.12552 0.15722 0.0
H368 H 0.81028 0.19962 0.3705 0.0
H369 H 0.83886 0.19875 0.30583 0.0
H370 H 0.89564 0.14082 0.34544 0.0
H371 H 0.80098 0.21789 0.33579 0.0
Eu372 Eu 0.44677 0.36306 0.73707 0.0
C373 C 0.65012 0.3852 0.75579 0.0
N374 N 0.62925 0.36222 0.75511 0.0
C375 C 0.69031 0.34521 0.73497 0.0
C376 C 0.69177 0.38917 0.74554 0.0
C377 C 0.64886 0.34222 0.74521 0.0
C378 C 0.71178 0.36881 0.73505 0.0
C379 C 0.64935 0.42919 0.76673 0.0
C380 C 0.62877 0.40504 0.76614 0.0
C381 C 0.69066 0.43324 0.75639 0.0
C382 C 0.71181 0.4133 0.74584 0.0
Eu383 Eu 0.55948 0.35882 0.77274 0.0
N384 N 0.58826 0.40071 0.77573 0.0
C385 C 0.62818 0.44848 0.77798 0.0
C386 C 0.56961 0.41894 0.78804 0.0
C387 C 0.58856 0.4432 0.78897 0.0
H388 H 0.63279 0.32386 0.74546 0.0
H389 H 0.57304 0.45767 0.79849 0.0
H390 H 0.37183 0.39686 0.76428 0.0
H391 H 0.4357 0.26497 0.70916 0.0
H392 H 0.54116 0.41482 0.79782 0.0
H393 H 0.64292 0.46727 0.77883 0.0
H394 H 0.46691 0.3079 0.71093 0.0
H395 H 0.70571 0.32931 0.72706 0.0
H396 H 0.70674 0.45171 0.7566 0.0
H397 H 0.74369 0.41674 0.73796 0.0
H398 H 0.29763 0.39072 0.78146 0.0
H399 H 0.74377 0.37111 0.72699 0.0
H400 H 0.36515 0.25448 0.72799 0.0
N401 N 0.37614 0.35884 0.75379 0.0
C402 C 0.35572 0.3358 0.75251 0.0
C403 C 0.31368 0.3751 0.77345 0.0
C404 C 0.31342 0.33143 0.7621 0.0
C405 C 0.35577 0.37849 0.76386 0.0
C406 C 0.29245 0.35145 0.77263 0.0
N407 N 0.41893 0.32108 0.73307 0.0
C408 C 0.43824 0.30334 0.72048 0.0
C409 C 0.35773 0.29213 0.74083 0.0
C410 C 0.37802 0.31631 0.74216 0.0
C411 C 0.37965 0.27327 0.7294 0.0
C412 C 0.41966 0.27905 0.71888 0.0
H413 H 0.25995 0.34884 0.78019 0.0
H414 H 0.26139 0.30349 0.76851 0.0
H415 H 0.29997 0.26915 0.74978 0.0
O416 O 0.43653 0.36339 0.70315 0.0
O417 O 0.43978 0.34528 0.76887 0.0
O418 O 0.50904 0.32638 0.77377 0.0
O419 O 0.39555 0.38739 0.72339 0.0
O420 O 0.50952 0.34342 0.72382 0.0
O421 O 0.54448 0.32526 0.75212 0.0
O422 O 0.57228 0.35971 0.80655 0.0
O423 O 0.56512 0.37719 0.74092 0.0
O424 O 0.49565 0.39601 0.73748 0.0
O425 O 0.61074 0.33451 0.78627 0.0
O426 O 0.49749 0.37871 0.78643 0.0
O427 O 0.46009 0.39624 0.75839 0.0
C428 C 0.46552 0.32823 0.77783 0.0
C429 C 0.37873 0.3907 0.68695 0.0
C430 C 0.36159 0.39283 0.65017 0.0
C431 C 0.3302 0.41225 0.65403 0.0
C432 C 0.34692 0.41014 0.69046 0.0
C433 C 0.32287 0.42079 0.67409 0.0
C434 C 0.38591 0.38195 0.66664 0.0
C435 C 0.53693 0.32643 0.73212 0.0
C436 C 0.40411 0.38013 0.70464 0.0
C437 C 0.29374 0.30724 0.76114 0.0
C438 C 0.31583 0.28765 0.75055 0.0
C439 C 0.53897 0.39485 0.73307 0.0
C440 C 0.63095 0.3325 0.82242 0.0
C441 C 0.64912 0.32962 0.85922 0.0
C442 C 0.68277 0.31158 0.85455 0.0
C443 C 0.66474 0.31433 0.81832 0.0
C444 C 0.62343 0.34033 0.843 0.0
C445 C 0.69045 0.30405 0.83427 0.0
C446 C 0.46888 0.39524 0.77833 0.0
C447 C 0.6041 0.34263 0.80496 0.0
H448 H 0.31134 0.42081 0.64145 0.0
H449 H 0.34067 0.41726 0.70589 0.0
H450 H 0.29857 0.43579 0.67695 0.0
H451 H 0.41032 0.36702 0.66361 0.0
H452 H 0.70358 0.30339 0.86664 0.0
H453 H 0.67144 0.30798 0.8027 0.0
H454 H 0.5974 0.35424 0.84641 0.0
H455 H 0.71645 0.29014 0.8309 0.0
Eu456 Eu 0.05573 0.85634 0.73625 0.0
C457 C 0.85244 0.83763 0.75817 0.0
N458 N 0.87408 0.86032 0.75664 0.0
C459 C 0.8122 0.87743 0.73707 0.0
C460 C 0.80974 0.83389 0.74878 0.0
C461 C 0.85465 0.8802 0.74647 0.0
C462 C 0.78967 0.85417 0.73819 0.0
C463 C 0.85273 0.79391 0.7698 0.0
C464 C 0.8741 0.81779 0.7684 0.0
C465 C 0.81028 0.79011 0.76038 0.0
C466 C 0.78887 0.81003 0.74991 0.0
Eu467 Eu 0.94508 0.86347 0.77314 0.0
N468 N 0.91567 0.82186 0.77711 0.0
C469 C 0.87429 0.77463 0.78093 0.0
C470 C 0.93489 0.80369 0.78932 0.0
C471 C 0.91517 0.77969 0.791 0.0
H472 H 0.87181 0.89827 0.74577 0.0
H473 H 0.93108 0.76525 0.80043 0.0
H474 H 0.1282 0.81791 0.76074 0.0
H475 H 0.0777 0.95502 0.71147 0.0
H476 H 0.9644 0.80769 0.79848 0.0
H477 H 0.85897 0.75605 0.78238 0.0
H478 H 0.04033 0.91357 0.71279 0.0
H479 H 0.79688 0.89321 0.72898 0.0
H480 H 0.79357 0.77185 0.76123 0.0
H481 H 0.75616 0.80677 0.74271 0.0
H482 H 0.20405 0.82008 0.77703 0.0
H483 H 0.75691 0.85203 0.73077 0.0
H484 H 0.15181 0.96127 0.72869 0.0
N485 N 0.12833 0.85649 0.75154 0.0
C486 C 0.15189 0.8786 0.75054 0.0
C487 C 0.18968 0.8367 0.76973 0.0
C488 C 0.19533 0.8807 0.75957 0.0
C489 C 0.14661 0.83557 0.7607 0.0
C490 C 0.2141 0.85939 0.76925 0.0
N491 N 0.08948 0.89695 0.73271 0.0
C492 C 0.07105 0.91624 0.72144 0.0
C493 C 0.15525 0.92273 0.74007 0.0
C494 C 0.13179 0.89944 0.74103 0.0
C495 C 0.13488 0.94309 0.72978 0.0
C496 C 0.09292 0.93969 0.72017 0.0
H497 H 0.24738 0.86024 0.77636 0.0
H498 H 0.25169 0.90597 0.7658 0.0
H499 H 0.21675 0.9427 0.74865 0.0
O500 O 0.06177 0.85681 0.7021 0.0
O501 O 0.06556 0.87649 0.76708 0.0
O502 O 0.99627 0.89534 0.77214 0.0
O503 O 0.10164 0.83038 0.72084 0.0
O504 O 0.99424 0.87762 0.72342 0.0
O505 O 0.95991 0.89638 0.75177 0.0
O506 O 0.93433 0.86366 0.80706 0.0
O507 O 0.93601 0.8453 0.74153 0.0
O508 O 0.00373 0.82492 0.738 0.0
O509 O 0.89581 0.88894 0.78688 0.0
O510 O 0.00771 0.84386 0.7865 0.0
O511 O 0.04057 0.82422 0.75835 0.0
C512 C 0.03994 0.89377 0.77586 0.0
C513 C 0.11218 0.82686 0.684 0.0
C514 C 0.13003 0.82704 0.64721 0.0
C515 C 0.1479 0.80248 0.64908 0.0
C516 C 0.13069 0.80236 0.68553 0.0
C517 C 0.14842 0.79031 0.66816 0.0
C518 C 0.11227 0.83932 0.66475 0.0
C519 C 0.9677 0.89498 0.73178 0.0
C520 C 0.09145 0.83845 0.70246 0.0
C521 C 0.21838 0.90397 0.75887 0.0
C522 C 0.1984 0.92491 0.74916 0.0
C523 C 0.96109 0.82778 0.73284 0.0
C524 C 0.87831 0.89215 0.82328 0.0
C525 C 0.86204 0.8953 0.86014 0.0
C526 C 0.83079 0.91474 0.85605 0.0
C527 C 0.84658 0.91159 0.81959 0.0
C528 C 0.88576 0.88385 0.84372 0.0
C529 C 0.82301 0.92273 0.83588 0.0
C530 C 0.03491 0.82663 0.77842 0.0
C531 C 0.90329 0.8812 0.8056 0.0
H532 H 0.16181 0.7928 0.63575 0.0
H533 H 0.13086 0.7923 0.70012 0.0
H534 H 0.16237 0.77139 0.66948 0.0
H535 H 0.09811 0.85821 0.66332 0.0
H536 H 0.8123 0.92371 0.86855 0.0
H537 H 0.83999 0.91833 0.80407 0.0
H538 H 0.91009 0.86892 0.84689 0.0
H539 H 0.79877 0.93771 0.83286 0.0
Eu540 Eu 0.44549 0.64526 0.23788 0.0
C541 C 0.6455 0.66884 0.25752 0.0
N542 N 0.62726 0.64525 0.25606 0.0
C543 C 0.68904 0.63172 0.23466 0.0
C544 C 0.68604 0.67494 0.24705 0.0
C545 C 0.64854 0.62661 0.24513 0.0
C546 C 0.70776 0.65602 0.23552 0.0
C547 C 0.64084 0.71174 0.27077 0.0
C548 C 0.62263 0.6871 0.269 0.0
C549 C 0.68086 0.71801 0.26011 0.0
C550 C 0.70337 0.69968 0.24827 0.0
Eu551 Eu 0.55799 0.63839 0.27344 0.0
N552 N 0.58348 0.68059 0.27893 0.0
C553 C 0.61893 0.72918 0.28363 0.0
C554 C 0.56482 0.69679 0.29301 0.0
C555 C 0.58133 0.72149 0.29514 0.0
H556 H 0.63409 0.60783 0.24447 0.0
H557 H 0.56561 0.7344 0.30598 0.0
H558 H 0.37621 0.68601 0.26193 0.0
H559 H 0.41854 0.54545 0.2176 0.0
H560 H 0.53826 0.69064 0.30324 0.0
H561 H 0.63187 0.74827 0.28543 0.0
H562 H 0.45873 0.58608 0.21765 0.0
H563 H 0.70571 0.61694 0.22588 0.0
H564 H 0.69505 0.73691 0.26117 0.0
H565 H 0.73433 0.70477 0.24024 0.0
H566 H 0.30094 0.68588 0.2788 0.0
H567 H 0.73898 0.65997 0.22727 0.0
H568 H 0.34368 0.5417 0.23461 0.0
N569 N 0.37368 0.64707 0.25388 0.0
C570 C 0.34875 0.62539 0.2536 0.0
C571 C 0.3141 0.66871 0.2719 0.0
C572 C 0.30548 0.62448 0.26293 0.0
C573 C 0.35691 0.66867 0.26257 0.0
C574 C 0.28832 0.64649 0.27215 0.0
N575 N 0.40961 0.60506 0.2361 0.0
C576 C 0.4273 0.58468 0.22593 0.0
C577 C 0.34245 0.5809 0.24446 0.0
C578 C 0.36723 0.60379 0.24453 0.0
C579 C 0.36163 0.55962 0.23499 0.0
C580 C 0.404 0.56161 0.22549 0.0
H581 H 0.25521 0.64656 0.27946 0.0
H582 H 0.24772 0.6006 0.27009 0.0
H583 H 0.28 0.5625 0.2539 0.0
O584 O 0.43833 0.64381 0.2038 0.0
O585 O 0.43797 0.62424 0.26844 0.0
O586 O 0.50803 0.60595 0.27264 0.0
O587 O 0.39837 0.6704 0.22232 0.0
O588 O 0.50534 0.62348 0.22411 0.0
O589 O 0.54501 0.60569 0.25154 0.0
O590 O 0.57017 0.63636 0.30718 0.0
O591 O 0.56429 0.65573 0.24143 0.0
O592 O 0.49719 0.67703 0.23873 0.0
O593 O 0.60986 0.6133 0.28577 0.0
O594 O 0.49492 0.6571 0.28735 0.0
O595 O 0.46253 0.67745 0.25954 0.0
C596 C 0.46445 0.60693 0.27663 0.0
C597 C 0.38576 0.67242 0.1855 0.0
C598 C 0.36932 0.67194 0.14859 0.0
C599 C 0.34527 0.69474 0.15072 0.0
C600 C 0.36115 0.69518 0.18727 0.0
C601 C 0.34108 0.70621 0.16998 0.0
C602 C 0.38953 0.66067 0.16602 0.0
C603 C 0.53417 0.60674 0.23178 0.0
C604 C 0.40794 0.66182 0.20403 0.0
C605 C 0.28096 0.60167 0.26295 0.0
C606 C 0.29938 0.57996 0.25376 0.0
C607 C 0.54 0.67424 0.23376 0.0
C608 C 0.62816 0.60803 0.32197 0.0
C609 C 0.64605 0.60366 0.35864 0.0
C610 C 0.67533 0.58347 0.35391 0.0
C611 C 0.65797 0.58788 0.31767 0.0
C612 C 0.62264 0.61612 0.34259 0.0
C613 C 0.68139 0.57576 0.33354 0.0
C614 C 0.46847 0.67487 0.27955 0.0
C615 C 0.60216 0.61954 0.30484 0.0
H616 H 0.32953 0.70362 0.13742 0.0
H617 H 0.35775 0.70467 0.20202 0.0
H618 H 0.32238 0.72378 0.17151 0.0
H619 H 0.40835 0.64312 0.16436 0.0
H620 H 0.69379 0.57374 0.36603 0.0
H621 H 0.6629 0.58122 0.302 0.0
H622 H 0.59971 0.63157 0.34621 0.0
H623 H 0.70411 0.56021 0.33005 0.0
H624 H 0.08686 0.99854 0.37635 0.0
H625 H 0.19844 0.98796 0.33378 0.0
H626 H 0.05858 0.03339 0.35513 0.0
H627 H 0.16938 0.02229 0.31241 0.0
H628 H 0.06824 0.06091 0.26782 0.0
H629 H 0.10045 0.0286 0.29032 0.0
H630 H 0.0799 0.0773 0.34309 0.0
H631 H 0.0483 0.11001 0.32047 0.0
C632 C 0.10568 0.00378 0.36263 0.0
C633 C 0.14477 0.99024 0.35672 0.0
C634 C 0.08938 0.02372 0.35046 0.0
C635 C 0.11161 0.03042 0.33205 0.0
C636 C 0.15113 0.01727 0.32635 0.0
C637 C 0.16765 0.99752 0.33858 0.0
C638 C 0.07133 0.06497 0.28416 0.0
C639 C 0.05639 0.08821 0.29232 0.0
C640 C 0.08968 0.04641 0.29705 0.0
C641 C 0.09292 0.05049 0.31844 0.0
C642 C 0.07762 0.07361 0.32666 0.0
C643 C 0.0597 0.09234 0.31372 0.0
H644 H 0.39177 0.53866 0.8324 0.0
H645 H 0.342 0.48433 0.87686 0.0
H646 H 0.42036 0.50432 0.811 0.0
H647 H 0.37018 0.44975 0.85526 0.0
H648 H 0.46817 0.39645 0.82061 0.0
H649 H 0.43887 0.42992 0.8429 0.0
H650 H 0.39288 0.47117 0.78913 0.0
H651 H 0.42366 0.43828 0.76688 0.0
C652 C 0.38663 0.51932 0.83752 0.0
C653 C 0.36436 0.5142 0.85625 0.0
C654 C 0.40291 0.49961 0.82522 0.0
C655 C 0.3972 0.47423 0.83129 0.0
C656 C 0.37554 0.46909 0.85021 0.0
C657 C 0.35938 0.48888 0.86259 0.0
C658 C 0.45179 0.41267 0.81356 0.0
C659 C 0.44858 0.41476 0.79195 0.0
C660 C 0.4347 0.43178 0.82635 0.0
C661 C 0.41378 0.45334 0.81782 0.0
C662 C 0.40958 0.45507 0.79622 0.0
C663 C 0.42687 0.43607 0.78345 0.0
H664 H 0.62413 0.53817 0.68059 0.0
H665 H 0.67064 0.48305 0.63602 0.0
H666 H 0.59538 0.50422 0.7024 0.0
H667 H 0.64053 0.44892 0.65769 0.0
H668 H 0.62106 0.39442 0.71306 0.0
H669 H 0.65376 0.42798 0.69167 0.0
H670 H 0.53351 0.47345 0.70125 0.0
H671 H 0.50164 0.44043 0.72307 0.0
C672 C 0.62837 0.51877 0.67548 0.0
C673 C 0.64979 0.5133 0.6566 0.0
C674 C 0.61148 0.49932 0.68789 0.0
C675 C 0.61556 0.47388 0.68175 0.0
C676 C 0.63722 0.46833 0.66292 0.0
C677 C 0.654 0.48786 0.65042 0.0
C678 C 0.60194 0.41173 0.7108 0.0
C679 C 0.55901 0.41488 0.71995 0.0
C680 C 0.62041 0.43081 0.69836 0.0
C681 C 0.59626 0.4534 0.69481 0.0
C682 C 0.55326 0.45643 0.7039 0.0
C683 C 0.53484 0.4374 0.71629 0.0
H684 H 0.91666 0.97091 0.16278 0.0
H685 H 0.78669 0.00806 0.15855 0.0
H686 H 0.94512 0.00503 0.18448 0.0
H687 H 0.81361 0.04169 0.18151 0.0
H688 H 0.89106 0.11054 0.20688 0.0
H689 H 0.85884 0.07705 0.18541 0.0
H690 H 0.94327 0.02203 0.21689 0.0
H691 H 0.97746 0.05588 0.23704 0.0
C692 C 0.89418 0.98644 0.16672 0.0
C693 C 0.84975 0.98709 0.15906 0.0
C694 C 0.91015 0.00589 0.17938 0.0
C695 C 0.88163 0.02619 0.18512 0.0
C696 C 0.83691 0.02669 0.17731 0.0
C697 C 0.82127 0.00741 0.16425 0.0
C698 C 0.9026 0.09122 0.20907 0.0
C699 C 0.93739 0.08577 0.22318 0.0
C700 C 0.88392 0.07193 0.1969 0.0
C701 C 0.89893 0.04667 0.199 0.0
C702 C 0.93199 0.04125 0.21412 0.0
C703 C 0.95144 0.06061 0.22583 0.0
H704 H 0.93059 0.03043 0.65873 0.0
H705 H 0.80458 0.98988 0.65059 0.0
H706 H 0.95889 0.9963 0.68106 0.0
H707 H 0.83344 0.9554 0.67248 0.0
H708 H 0.94073 0.89022 0.69173 0.0
H709 H 0.91073 0.92357 0.66906 0.0
H710 H 0.92328 0.9778 0.71859 0.0
H711 H 0.95195 0.94439 0.74146 0.0
C712 C 0.90926 0.01407 0.66155 0.0
C713 C 0.86552 0.01265 0.65298 0.0
C714 C 0.92529 0.9947 0.67436 0.0
C715 C 0.89822 0.97338 0.67839 0.0
C716 C 0.85487 0.97168 0.66948 0.0
C717 C 0.83841 0.99133 0.65706 0.0
C718 C 0.93683 0.90925 0.69775 0.0
C719 C 0.94851 0.9148 0.71829 0.0
C720 C 0.91962 0.92822 0.68485 0.0
C721 C 0.91499 0.95312 0.69216 0.0
C722 C 0.92678 0.9587 0.71266 0.0
C723 C 0.94288 0.93961 0.72571 0.0
H724 H 0.57595 0.49334 0.13627 0.0
H725 H 0.70264 0.4943 0.16997 0.0
H726 H 0.54733 0.52764 0.15795 0.0
H727 H 0.67391 0.5284 0.19169 0.0
H728 H 0.58578 0.56533 0.24184 0.0
H729 H 0.61661 0.53335 0.21866 0.0
H730 H 0.5581 0.57255 0.16646 0.0
H731 H 0.52685 0.60451 0.18964 0.0
C732 C 0.59795 0.5011 0.14809 0.0
C733 C 0.64146 0.49091 0.15147 0.0
C734 C 0.58151 0.52074 0.16054 0.0
C735 C 0.6082 0.5306 0.17667 0.0
C736 C 0.65216 0.52089 0.17967 0.0
C737 C 0.66861 0.50134 0.1672 0.0
C738 C 0.57962 0.56725 0.22542 0.0
C739 C 0.55378 0.58753 0.21763 0.0
C740 C 0.5975 0.54895 0.21211 0.0
C741 C 0.58988 0.55042 0.1907 0.0
C742 C 0.56417 0.57072 0.1829 0.0
C743 C 0.54643 0.5891 0.1962 0.0
H744 H 0.29408 0.49248 0.33544 0.0
H745 H 0.42059 0.49123 0.36928 0.0
H746 H 0.32341 0.52648 0.31362 0.0
H747 H 0.44908 0.52584 0.3481 0.0
H748 H 0.50589 0.56418 0.29092 0.0
H749 H 0.47395 0.5313 0.31275 0.0
H750 H 0.34583 0.57125 0.31419 0.0
H751 H 0.37787 0.60432 0.29226 0.0
C752 C 0.32806 0.49953 0.33828 0.0
C753 C 0.35509 0.48905 0.35404 0.0
C754 C 0.34466 0.51919 0.32592 0.0
C755 C 0.38867 0.52875 0.32904 0.0
C756 C 0.41527 0.51864 0.34509 0.0
C757 C 0.39871 0.49901 0.35742 0.0
C758 C 0.47089 0.56603 0.29586 0.0
C759 C 0.44437 0.58686 0.28971 0.0
C760 C 0.45265 0.5472 0.30849 0.0
C761 C 0.40744 0.54872 0.31532 0.0
C762 C 0.38067 0.56941 0.30902 0.0
C763 C 0.39903 0.58835 0.29643 0.0
H764 H 0.21559 0.00476 0.83571 0.0
H765 H 0.08948 0.00723 0.86982 0.0
H766 H 0.18479 0.97131 0.81379 0.0
H767 H 0.05952 0.97311 0.84852 0.0
H768 H 0.00055 0.9367 0.79089 0.0
H769 H 0.03407 0.96859 0.81319 0.0
H770 H 0.16041 0.92689 0.81378 0.0
H771 H 0.12674 0.89479 0.79137 0.0
C772 C 0.1814 0.99807 0.8386 0.0
C773 C 0.15489 0.00879 0.85444 0.0
C774 C 0.16396 0.97871 0.82618 0.0
C775 C 0.1196 0.96967 0.82931 0.0
C776 C 0.09357 0.97992 0.8455 0.0
C777 C 0.11098 0.99927 0.85789 0.0
C778 C 0.03549 0.93425 0.79575 0.0
C779 C 0.06105 0.91323 0.78922 0.0
C780 C 0.05463 0.9525 0.80865 0.0
C781 C 0.09982 0.95021 0.81539 0.0
C782 C 0.12562 0.92932 0.80871 0.0
C783 C 0.10635 0.91095 0.79583 0.0
H784 H 0.19137 0.08868 0.02639 0.0
H785 H 0.1547 0.16733 0.01806 0.0
H786 H 0.17575 0.09225 0.0632 0.0
H787 H 0.13906 0.1709 0.05491 0.0
H788 H 0.17889 0.17442 0.12378 0.0
H789 H 0.18255 0.17136 0.08635 0.0
H790 H 0.11651 0.09829 0.08896 0.0
H791 H 0.11441 0.10102 0.12667 0.0
C792 C 0.17934 0.10664 0.03236 0.0
C793 C 0.17449 0.12776 0.01929 0.0
C794 C 0.17026 0.10867 0.05347 0.0
C795 C 0.15615 0.13186 0.062 0.0
C796 C 0.15048 0.15285 0.04887 0.0
C797 C 0.15957 0.15083 0.02776 0.0
C798 C 0.16488 0.15778 0.11634 0.0
C799 C 0.1468 0.13785 0.12814 0.0
C800 C 0.16658 0.15612 0.09487 0.0
C801 C 0.15006 0.13451 0.08466 0.0
C802 C 0.13008 0.11503 0.0964 0.0
C803 C 0.12837 0.11671 0.11795 0.0
H804 H 0.33297 0.41654 0.52312 0.0
H805 H 0.341 0.33475 0.52346 0.0
H806 H 0.34927 0.41735 0.55981 0.0
H807 H 0.35689 0.33559 0.56055 0.0
H808 H 0.32255 0.35287 0.63064 0.0
H809 H 0.31838 0.34633 0.59321 0.0
H810 H 0.41033 0.40919 0.58404 0.0
H811 H 0.4133 0.41591 0.62137 0.0
C812 C 0.33885 0.39871 0.53096 0.0
C813 C 0.3361 0.37559 0.52025 0.0
C814 C 0.34827 0.39918 0.55204 0.0
C815 C 0.35503 0.37654 0.56306 0.0
C816 C 0.35178 0.35335 0.55248 0.0
C817 C 0.34251 0.35287 0.53127 0.0
C818 C 0.3429 0.36467 0.62054 0.0
C819 C 0.36848 0.38474 0.62866 0.0
C820 C 0.34051 0.36101 0.59916 0.0
C821 C 0.36353 0.37748 0.58565 0.0
C822 C 0.39156 0.39648 0.59402 0.0
C823 C 0.39377 0.40016 0.61534 0.0
H824 H 0.6186 0.39191 0.98521 0.0
H825 H 0.72451 0.33507 0.98454 0.0
H826 H 0.60503 0.38445 0.9484 0.0
H827 H 0.70966 0.32715 0.94825 0.0
H828 H 0.63996 0.29788 0.8919 0.0
H829 H 0.64389 0.30856 0.92842 0.0
H830 H 0.64668 0.38815 0.91305 0.0
H831 H 0.64309 0.37736 0.87614 0.0
C832 C 0.63917 0.37797 0.97728 0.0
C833 C 0.67231 0.36387 0.98802 0.0
C834 C 0.63121 0.37366 0.95621 0.0
C835 C 0.65578 0.35496 0.94557 0.0
C836 C 0.68945 0.3413 0.95617 0.0
C837 C 0.69779 0.34578 0.97705 0.0
C838 C 0.64087 0.31769 0.8963 0.0
C839 C 0.64205 0.33677 0.88117 0.0
C840 C 0.64324 0.32378 0.9172 0.0
C841 C 0.64657 0.34915 0.92354 0.0
C842 C 0.64427 0.36843 0.90855 0.0
C843 C 0.64207 0.36228 0.88748 0.0
H844 H 0.75803 0.13026 0.47957 0.0
H845 H 0.9019 0.13661 0.49142 0.0
H846 H 0.77185 0.13599 0.44266 0.0
H847 H 0.9158 0.14225 0.4544 0.0
H848 H 0.90069 0.18913 0.39216 0.0
H849 H 0.89658 0.17691 0.42861 0.0
H850 H 0.80991 0.11394 0.41245 0.0
H851 H 0.81455 0.12618 0.37591 0.0
C852 C 0.79261 0.13281 0.47424 0.0
C853 C 0.82886 0.1331 0.48835 0.0
C854 C 0.80058 0.13582 0.45311 0.0
C855 C 0.84494 0.13945 0.44564 0.0
C856 C 0.88128 0.13952 0.45973 0.0
C857 C 0.87335 0.13618 0.48087 0.0
C858 C 0.88185 0.17229 0.39642 0.0
C859 C 0.85814 0.15845 0.38138 0.0
C860 C 0.87946 0.16529 0.41723 0.0
C861 C 0.85265 0.14458 0.42337 0.0
C862 C 0.83052 0.13011 0.40815 0.0
C863 C 0.83347 0.13691 0.38729 0.0
H864 H 0.82735 0.91896 0.98733 0.0
H865 H 0.84704 0.83781 0.98737 0.0
H866 H 0.84354 0.92025 0.95063 0.0
H867 H 0.86315 0.8391 0.95033 0.0
H868 H 0.82988 0.85344 0.87986 0.0
H869 H 0.82536 0.84726 0.91734 0.0
H870 H 0.9048 0.91522 0.9265 0.0
H871 H 0.90784 0.92158 0.88917 0.0
C872 C 0.83579 0.9014 0.97957 0.0
C873 C 0.83628 0.87831 0.9904 0.0
C874 C 0.84517 0.90214 0.95847 0.0
C875 C 0.85529 0.87981 0.94755 0.0
C876 C 0.85535 0.85663 0.95827 0.0
C877 C 0.84601 0.85589 0.97948 0.0
C878 C 0.84746 0.86652 0.88998 0.0
C879 C 0.8694 0.88788 0.88182 0.0
C880 C 0.84483 0.86307 0.91141 0.0
C881 C 0.86409 0.88099 0.92493 0.0
C882 C 0.88875 0.90137 0.91655 0.0
C883 C 0.89107 0.90487 0.89521 0.0
H884 H 0.60506 0.60961 0.49196 0.0
H885 H 0.7354 0.64384 0.47918 0.0
H886 H 0.58898 0.60795 0.45509 0.0
H887 H 0.71899 0.64241 0.44227 0.0
H888 H 0.66549 0.64922 0.37667 0.0
H889 H 0.66943 0.65817 0.41388 0.0
H890 H 0.62009 0.58268 0.42676 0.0
H891 H 0.61605 0.57403 0.38984 0.0
C892 C 0.63027 0.61684 0.4813 0.0
C893 C 0.67179 0.62657 0.48856 0.0
C894 C 0.62094 0.61598 0.46017 0.0
C895 C 0.65278 0.62493 0.44574 0.0
C896 C 0.69349 0.63565 0.453 0.0
C897 C 0.70292 0.63643 0.47417 0.0
C898 C 0.65443 0.6349 0.38754 0.0
C899 C 0.64043 0.61098 0.38053 0.0
C900 C 0.65711 0.63987 0.40878 0.0
C901 C 0.64528 0.62109 0.42326 0.0
C902 C 0.62899 0.59766 0.41606 0.0
C903 C 0.62678 0.59265 0.39494 0.0
H904 H 0.32712 0.59479 0.0302 0.0
H905 H 0.33924 0.67525 0.01904 0.0
H906 H 0.34723 0.60144 0.06637 0.0
H907 H 0.35658 0.68204 0.05522 0.0
H908 H 0.41999 0.68882 0.11667 0.0
H909 H 0.41358 0.6763 0.08049 0.0
H910 H 0.31593 0.61875 0.09752 0.0
H911 H 0.32417 0.63082 0.13384 0.0
C912 C 0.33421 0.61388 0.03543 0.0
C913 C 0.33143 0.6345 0.02169 0.0
C914 C 0.34527 0.61772 0.05622 0.0
C915 C 0.35376 0.64226 0.06375 0.0
C916 C 0.35115 0.66281 0.04995 0.0
C917 C 0.34039 0.65897 0.02921 0.0
C918 C 0.3983 0.67298 0.11263 0.0
C919 C 0.37279 0.66061 0.12786 0.0
C920 C 0.39408 0.66601 0.09193 0.0
C921 C 0.36356 0.64682 0.08601 0.0
C922 C 0.33998 0.63347 0.1015 0.0
C923 C 0.34465 0.64031 0.12229 0.0
H924 H 0.2464 0.8703 0.53258 0.0
H925 H 0.10343 0.87114 0.51765 0.0
H926 H 0.2279 0.86291 0.5689 0.0
H927 H 0.08492 0.86402 0.554 0.0
H928 H 0.08494 0.81184 0.61301 0.0
H929 H 0.09617 0.82674 0.57763 0.0
H930 H 0.18971 0.88365 0.59975 0.0
H931 H 0.178 0.86868 0.63529 0.0
C932 C 0.21104 0.86905 0.5371 0.0
C933 C 0.17636 0.87119 0.52229 0.0
C934 C 0.20044 0.86511 0.5579 0.0
C935 C 0.15496 0.86297 0.56426 0.0
C936 C 0.12027 0.86553 0.5495 0.0
C937 C 0.13085 0.86973 0.52874 0.0
C938 C 0.10697 0.82795 0.61029 0.0
C939 C 0.13047 0.83925 0.62672 0.0
C940 C 0.1134 0.83649 0.5901 0.0
C941 C 0.14399 0.85627 0.58594 0.0
C942 C 0.16618 0.86825 0.60253 0.0
C943 C 0.1592 0.85991 0.62281 0.0
H944 H 0.11034 0.28508 0.37178 0.0
H945 H 0.23569 0.27105 0.33916 0.0
H946 H 0.07144 0.25462 0.34959 0.0
H947 H 0.19742 0.24007 0.31734 0.0
H948 H 0.10434 0.20918 0.26704 0.0
H949 H 0.14358 0.23858 0.28982 0.0
H950 H 0.06439 0.21098 0.34136 0.0
H951 H 0.02546 0.18169 0.31853 0.0
C952 C 0.12968 0.27511 0.36009 0.0
C953 C 0.1759 0.28048 0.35709 0.0
C954 C 0.10748 0.25765 0.34737 0.0
C955 C 0.13121 0.24501 0.33153 0.0
C956 C 0.17783 0.24987 0.32903 0.0
C957 C 0.19986 0.26748 0.34161 0.0
C958 C 0.09601 0.20905 0.28324 0.0
C959 C 0.06248 0.19271 0.29094 0.0
C960 C 0.11832 0.226 0.29636 0.0
C961 C 0.10741 0.22706 0.31752 0.0
C962 C 0.07338 0.21092 0.32514 0.0
C963 C 0.05114 0.19403 0.31202 0.0
H964 H 0.3976 0.21836 0.87414 0.0
H965 H 0.27956 0.22257 0.83469 0.0
H966 H 0.43505 0.25086 0.85317 0.0
H967 H 0.31706 0.2547 0.81364 0.0
H968 H 0.38064 0.33051 0.79474 0.0
H969 H 0.3438 0.2995 0.81692 0.0
H970 H 0.46602 0.25422 0.81691 0.0
H971 H 0.50258 0.28493 0.79406 0.0
C972 C 0.37957 0.22638 0.8611 0.0
C973 C 0.33573 0.2179 0.85601 0.0
C974 C 0.40113 0.24477 0.849 0.0
C975 C 0.37901 0.25524 0.83174 0.0
C976 C 0.33483 0.24711 0.82692 0.0
C977 C 0.31351 0.22858 0.83888 0.0
C978 C 0.39944 0.31374 0.79911 0.0
C979 C 0.44416 0.30991 0.79217 0.0
C980 C 0.37841 0.29606 0.81197 0.0
C981 C 0.40195 0.27437 0.81857 0.0
C982 C 0.44714 0.27085 0.81216 0.0
C983 C 0.468 0.2884 0.79902 0.0
H984 H 0.71666 0.21299 0.67932 0.0
H985 H 0.61423 0.22357 0.63235 0.0
H986 H 0.68015 0.245 0.70068 0.0
H987 H 0.5772 0.25552 0.65386 0.0
H988 H 0.54764 0.3285 0.69016 0.0
H989 H 0.58517 0.29765 0.66786 0.0
H990 H 0.61304 0.25056 0.721 0.0
H991 H 0.57642 0.28159 0.74326 0.0
C992 C 0.68609 0.22204 0.67362 0.0
C993 C 0.66816 0.21558 0.65419 0.0
C994 C 0.66508 0.24038 0.68589 0.0
C995 C 0.62545 0.25272 0.6791 0.0
C996 C 0.60793 0.2466 0.65949 0.0
C997 C 0.62911 0.22827 0.64716 0.0
C998 C 0.56176 0.31154 0.69705 0.0
C999 C 0.55921 0.30756 0.71849 0.0
C1000 C 0.5831 0.29378 0.68426 0.0
C1001 C 0.60232 0.27162 0.69261 0.0
C1002 C 0.59939 0.26761 0.71405 0.0
C1003 C 0.57816 0.28536 0.72683 0.0
H1004 H 0.77602 0.28405 0.17965 0.0
H1005 H 0.88429 0.27945 0.13482 0.0
H1006 H 0.81504 0.2533 0.20135 0.0
H1007 H 0.92387 0.2489 0.15668 0.0
H1008 H 0.9602 0.17631 0.19144 0.0
H1009 H 0.92119 0.20655 0.16938 0.0
H1010 H 0.87971 0.24903 0.22324 0.0
H1011 H 0.91774 0.21828 0.24541 0.0
C1012 C 0.80837 0.27657 0.17449 0.0
C1013 C 0.82714 0.28429 0.15553 0.0
C1014 C 0.83086 0.25899 0.18698 0.0
C1015 C 0.87286 0.2487 0.1809 0.0
C1016 C 0.89135 0.25617 0.16178 0.0
C1017 C 0.86868 0.27369 0.14922 0.0
C1018 C 0.94289 0.19213 0.19863 0.0
C1019 C 0.94205 0.19478 0.22026 0.0
C1020 C 0.92065 0.20959 0.18592 0.0
C1021 C 0.89715 0.23028 0.19447 0.0
C1022 C 0.89677 0.2331 0.2161 0.0
C1023 C 0.91886 0.21555 0.22884 0.0
H1024 H 0.77669 0.72426 0.67274 0.0
H1025 H 0.89583 0.72058 0.63395 0.0
H1026 H 0.81352 0.75606 0.69429 0.0
H1027 H 0.93262 0.75286 0.65542 0.0
H1028 H 0.9988 0.78543 0.71537 0.0
H1029 H 0.96293 0.75566 0.69154 0.0
H1030 H 0.84026 0.80056 0.69243 0.0
H1031 H 0.8763 0.83056 0.71579 0.0
C1032 C 0.81072 0.73037 0.66877 0.0
C1033 C 0.83347 0.71986 0.65171 0.0
C1034 C 0.83167 0.74872 0.68102 0.0
C1035 C 0.876 0.75693 0.67657 0.0
C1036 C 0.89858 0.74672 0.65932 0.0
C1037 C 0.8774 0.72846 0.64693 0.0
C1038 C 0.96423 0.789 0.71043 0.0
C1039 C 0.94004 0.81009 0.71788 0.0
C1040 C 0.94378 0.77201 0.69669 0.0
C1041 C 0.89866 0.77567 0.69023 0.0
C1042 C 0.87482 0.797 0.6974 0.0
C1043 C 0.89541 0.81412 0.71091 0.0
H1044 H 0.59722 0.7964 0.14732 0.0
H1045 H 0.72871 0.76363 0.15947 0.0
H1046 H 0.56165 0.76473 0.16939 0.0
H1047 H 0.69395 0.73277 0.18263 0.0
H1048 H 0.61476 0.66691 0.20971 0.0
H1049 H 0.64994 0.69678 0.186 0.0
H1050 H 0.55085 0.75351 0.20344 0.0
H1051 H 0.51455 0.72305 0.22629 0.0
C1052 C 0.61845 0.78238 0.15483 0.0
C1053 C 0.66558 0.78233 0.15168 0.0
C1054 C 0.59822 0.76435 0.16768 0.0
C1055 C 0.6248 0.74618 0.17809 0.0
C1056 C 0.6721 0.74609 0.17469 0.0
C1057 C 0.69218 0.76382 0.16147 0.0
C1058 C 0.60058 0.68579 0.20843 0.0
C1059 C 0.56181 0.69263 0.21975 0.0
C1060 C 0.62091 0.70304 0.1949 0.0
C1061 C 0.6033 0.7277 0.19259 0.0
C1062 C 0.56484 0.73456 0.20429 0.0
C1063 C 0.5441 0.71716 0.21755 0.0
H1064 H 0.31073 0.75497 0.37323 0.0
H1065 H 0.38682 0.81329 0.34169 0.0
H1066 H 0.34728 0.72277 0.3518 0.0
H1067 H 0.4232 0.78122 0.32034 0.0
H1068 H 0.43641 0.72186 0.2697 0.0
H1069 H 0.40189 0.75296 0.29258 0.0
H1070 H 0.41986 0.70208 0.34424 0.0
H1071 H 0.45339 0.67056 0.32113 0.0
C1072 C 0.33568 0.7609 0.36193 0.0
C1073 C 0.34552 0.78674 0.35906 0.0
C1074 C 0.35661 0.74244 0.34964 0.0
C1075 C 0.38783 0.74943 0.3342 0.0
C1076 C 0.39857 0.77521 0.33176 0.0
C1077 C 0.37772 0.79361 0.34403 0.0
C1078 C 0.43277 0.71722 0.28592 0.0
C1079 C 0.44747 0.6937 0.29359 0.0
C1080 C 0.41337 0.73516 0.29909 0.0
C1081 C 0.40831 0.73009 0.32029 0.0
C1082 C 0.42289 0.70651 0.32797 0.0
C1083 C 0.44236 0.68852 0.31476 0.0
H1084 H 0.19235 0.74733 0.8727 0.0
H1085 H 0.11931 0.68861 0.84016 0.0
H1086 H 0.15595 0.77937 0.85104 0.0
H1087 H 0.0833 0.72053 0.81852 0.0
H1088 H 0.07075 0.78053 0.7682 0.0
H1089 H 0.10579 0.74956 0.79109 0.0
H1090 H 0.08212 0.799 0.84317 0.0
H1091 H 0.04793 0.83034 0.82014 0.0
C1092 C 0.16813 0.74127 0.86112 0.0
C1093 C 0.15907 0.71537 0.85806 0.0
C1094 C 0.14732 0.75963 0.84869 0.0
C1095 C 0.11708 0.75248 0.83291 0.0
C1096 C 0.10717 0.72664 0.83023 0.0
C1097 C 0.12783 0.70834 0.84266 0.0
C1098 C 0.07325 0.78489 0.78451 0.0
C1099 C 0.05666 0.80793 0.79234 0.0
C1100 C 0.09298 0.76703 0.79767 0.0
C1101 C 0.09654 0.77174 0.81898 0.0
C1102 C 0.08023 0.79487 0.82681 0.0
C1103 C 0.06038 0.81275 0.81363 0.0
loop_
_geom_bond_atom_site_label_1
_geom_bond_atom_site_label_2
_geom_bond_distance
_geom_bond_site_symmetry_2
_ccdc_geom_bond_type
C0 C1 1.384 . S
C0 H13 0.947 . S
C0 C35 1.382 . S
C1 C0 1.384 . S
C1 C2 1.378 . S
C2 C1 1.378 . S
C2 C3 1.378 . S
C2 H14 0.952 . S
C3 C2 1.378 . S
C3 H15 0.950 . S
C3 C34 1.383 . S
H4 C23 0.947 . S
H5 C24 0.946 . S
H6 C26 0.953 . S
H7 C27 0.945 . S
H8 C29 0.952 . S
H9 C30 0.949 . S
H10 C32 0.950 . S
H11 C33 0.948 . S
H12 C35 0.951 . S
H13 C0 0.947 . S
H14 C2 0.952 . S
H15 C3 0.950 . S
N16 C19 1.382 . S
N16 C21 1.363 . S
N17 C19 1.371 . S
N17 C20 1.372 . S
N18 C20 1.361 . S
N18 C21 1.377 . S
C19 N16 1.382 . S
C19 N17 1.371 . S
C19 C22 1.480 . S
C20 N17 1.372 . S
C20 N18 1.361 . S
C20 C28 1.457 . S
C21 N16 1.363 . S
C21 N18 1.377 . S
C21 C34 1.479 . S
C22 C19 1.480 . S
C22 C23 1.383 . S
C22 C27 1.385 . S
C23 H4 0.947 . S
C23 C22 1.383 . S
C23 C24 1.388 . S
C24 H5 0.946 . S
C24 C23 1.388 . S
C24 C25 1.384 . S
C25 C24 1.384 . S
C25 C26 1.377 . S
C26 H6 0.953 . S
C26 C25 1.377 . S
C26 C27 1.369 . S
C27 H7 0.945 . S
C27 C22 1.385 . S
C27 C26 1.369 . S
C28 C20 1.457 . S
C28 C29 1.372 . S
C28 C33 1.364 . S
C29 H8 0.952 . S
C29 C28 1.372 . S
C29 C30 1.389 . S
C30 H9 0.949 . S
C30 C29 1.389 . S
C30 C31 1.387 . S
C31 C30 1.387 . S
C31 C32 1.372 . S
C32 H10 0.950 . S
C32 C31 1.372 . S
C32 C33 1.379 . S
C33 H11 0.948 . S
C33 C28 1.364 . S
C33 C32 1.379 . S
C34 C3 1.383 . S
C34 C21 1.479 . S
C34 C35 1.398 . S
C35 C0 1.382 . S
C35 H12 0.951 . S
C35 C34 1.398 . S
C36 C37 1.384 . S
C36 H49 0.947 . S
C36 C71 1.382 . S
C37 C36 1.384 . S
C37 C38 1.378 . S
C38 C37 1.378 . S
C38 C39 1.378 . S
C38 H50 0.952 . S
C39 C38 1.378 . S
C39 H51 0.950 . S
C39 C70 1.383 . S
H40 C59 0.947 . S
H41 C60 0.946 . S
H42 C62 0.953 . S
H43 C63 0.945 . S
H44 C65 0.952 . S
H45 C66 0.949 . S
H46 C68 0.950 . S
H47 C69 0.948 . S
H48 C71 0.951 . S
H49 C36 0.947 . S
H50 C38 0.952 . S
H51 C39 0.950 . S
N52 C55 1.382 . S
N52 C57 1.363 . S
N53 C55 1.371 . S
N53 C56 1.372 . S
N54 C56 1.361 . S
N54 C57 1.377 . S
C55 N52 1.382 . S
C55 N53 1.371 . S
C55 C58 1.480 . S
C56 N53 1.372 . S
C56 N54 1.361 . S
C56 C64 1.457 . S
C57 N52 1.363 . S
C57 N54 1.377 . S
C57 C70 1.479 . S
C58 C55 1.480 . S
C58 C59 1.383 . S
C58 C63 1.385 . S
C59 H40 0.947 . S
C59 C58 1.383 . S
C59 C60 1.388 . S
C60 H41 0.946 . S
C60 C59 1.388 . S
C60 C61 1.384 . S
C61 C60 1.384 . S
C61 C62 1.377 . S
C62 H42 0.953 . S
C62 C61 1.377 . S
C62 C63 1.369 . S
C63 H43 0.945 . S
C63 C58 1.385 . S
C63 C62 1.369 . S
C64 C56 1.457 . S
C64 C65 1.372 . S
C64 C69 1.364 . S
C65 H44 0.952 . S
C65 C64 1.372 . S
C65 C66 1.389 . S
C66 H45 0.949 . S
C66 C65 1.389 . S
C66 C67 1.387 . S
C67 C66 1.387 . S
C67 C68 1.372 . S
C68 H46 0.950 . S
C68 C67 1.372 . S
C68 C69 1.379 . S
C69 H47 0.948 . S
C69 C64 1.364 . S
C69 C68 1.379 . S
C70 C39 1.383 . S
C70 C57 1.479 . S
C70 C71 1.398 . S
C71 C36 1.382 . S
C71 H48 0.951 . S
C71 C70 1.398 . S
C72 C73 1.384 . S
C72 H85 0.947 . S
C72 C107 1.382 . S
C73 C72 1.384 . S
C73 C74 1.378 . S
C74 C73 1.378 . S
C74 C75 1.378 . S
C74 H86 0.952 . S
C75 C74 1.378 . S
C75 H87 0.950 . S
C75 C106 1.383 . S
H76 C95 0.947 . S
H77 C96 0.946 . S
H78 C98 0.953 . S
H79 C99 0.945 . S
H80 C101 0.952 . S
H81 C102 0.949 . S
H82 C104 0.950 . S
H83 C105 0.948 . S
H84 C107 0.951 . S
H85 C72 0.947 . S
H86 C74 0.952 . S
H87 C75 0.950 . S
N88 C91 1.382 . S
N88 C93 1.363 . S
N89 C91 1.371 . S
N89 C92 1.372 . S
N90 C92 1.361 . S
N90 C93 1.377 . S
C91 N88 1.382 . S
C91 N89 1.371 . S
C91 C94 1.480 . S
C92 N89 1.372 . S
C92 N90 1.361 . S
C92 C100 1.457 . S
C93 N88 1.363 . S
C93 N90 1.377 . S
C93 C106 1.479 . S
C94 C91 1.480 . S
C94 C95 1.383 . S
C94 C99 1.385 . S
C95 H76 0.947 . S
C95 C94 1.383 . S
C95 C96 1.388 . S
C96 H77 0.946 . S
C96 C95 1.388 . S
C96 C97 1.384 . S
C97 C96 1.384 . S
C97 C98 1.377 . S
C98 H78 0.953 . S
C98 C97 1.377 . S
C98 C99 1.369 . S
C99 H79 0.945 . S
C99 C94 1.385 . S
C99 C98 1.369 . S
C100 C92 1.457 . S
C100 C101 1.372 . S
C100 C105 1.364 . S
C101 H80 0.952 . S
C101 C100 1.372 . S
C101 C102 1.389 . S
C102 H81 0.949 . S
C102 C101 1.389 . S
C102 C103 1.387 . S
C103 C102 1.387 . S
C103 C104 1.372 . S
C104 H82 0.950 . S
C104 C103 1.372 . S
C104 C105 1.379 . S
C105 H83 0.948 . S
C105 C100 1.364 . S
C105 C104 1.379 . S
C106 C75 1.383 . S
C106 C93 1.479 . S
C106 C107 1.398 . S
C107 C72 1.382 . S
C107 H84 0.951 . S
C107 C106 1.398 . S
C108 C109 1.384 . S
C108 H121 0.947 . S
C108 C143 1.382 . S
C109 C108 1.384 . S
C109 C110 1.378 . S
C110 C109 1.378 . S
C110 C111 1.378 . S
C110 H122 0.952 . S
C111 C110 1.378 . S
C111 H123 0.950 . S
C111 C142 1.383 . S
H112 C131 0.947 . S
H113 C132 0.946 . S
H114 C134 0.953 . S
H115 C135 0.945 . S
H116 C137 0.952 . S
H117 C138 0.949 . S
H118 C140 0.950 . S
H119 C141 0.948 . S
H120 C143 0.951 . S
H121 C108 0.947 . S
H122 C110 0.952 . S
H123 C111 0.950 . S
N124 C127 1.382 . S
N124 C129 1.363 . S
N125 C127 1.371 . S
N125 C128 1.372 . S
N126 C128 1.361 . S
N126 C129 1.377 . S
C127 N124 1.382 . S
C127 N125 1.371 . S
C127 C130 1.480 . S
C128 N125 1.372 . S
C128 N126 1.361 . S
C128 C136 1.457 . S
C129 N124 1.363 . S
C129 N126 1.377 . S
C129 C142 1.479 . S
C130 C127 1.480 . S
C130 C131 1.383 . S
C130 C135 1.385 . S
C131 H112 0.947 . S
C131 C130 1.383 . S
C131 C132 1.388 . S
C132 H113 0.946 . S
C132 C131 1.388 . S
C132 C133 1.384 . S
C133 C132 1.384 . S
C133 C134 1.377 . S
C134 H114 0.953 . S
C134 C133 1.377 . S
C134 C135 1.369 . S
C135 H115 0.945 . S
C135 C130 1.385 . S
C135 C134 1.369 . S
C136 C128 1.457 . S
C136 C137 1.372 . S
C136 C141 1.364 . S
C137 H116 0.952 . S
C137 C136 1.372 . S
C137 C138 1.389 . S
C138 H117 0.949 . S
C138 C137 1.389 . S
C138 C139 1.387 . S
C139 C138 1.387 . S
C139 C140 1.372 . S
C140 H118 0.950 . S
C140 C139 1.372 . S
C140 C141 1.379 . S
C141 H119 0.948 . S
C141 C136 1.364 . S
C141 C140 1.379 . S
C142 C111 1.383 . S
C142 C129 1.479 . S
C142 C143 1.398 . S
C143 C108 1.382 . S
C143 H120 0.951 . S
C143 C142 1.398 . S
C144 C145 1.384 . S
C144 H157 0.947 . S
C144 C179 1.382 . S
C145 C144 1.384 . S
C145 C146 1.378 . S
C146 C145 1.378 . S
C146 C147 1.378 . S
C146 H158 0.952 . S
C147 C146 1.378 . S
C147 H159 0.950 . S
C147 C178 1.383 . S
H148 C167 0.947 . S
H149 C168 0.946 . S
H150 C170 0.953 . S
H151 C171 0.945 . S
H152 C173 0.952 . S
H153 C174 0.949 . S
H154 C176 0.950 . S
H155 C177 0.948 . S
H156 C179 0.951 . S
H157 C144 0.947 . S
H158 C146 0.952 . S
H159 C147 0.950 . S
N160 C163 1.382 . S
N160 C165 1.363 . S
N161 C163 1.371 . S
N161 C164 1.372 . S
N162 C164 1.361 . S
N162 C165 1.377 . S
C163 N160 1.382 . S
C163 N161 1.371 . S
C163 C166 1.480 . S
C164 N161 1.372 . S
C164 N162 1.361 . S
C164 C172 1.457 . S
C165 N160 1.363 . S
C165 N162 1.377 . S
C165 C178 1.479 . S
C166 C163 1.480 . S
C166 C167 1.383 . S
C166 C171 1.385 . S
C167 H148 0.947 . S
C167 C166 1.383 . S
C167 C168 1.388 . S
C168 H149 0.946 . S
C168 C167 1.388 . S
C168 C169 1.384 . S
C169 C168 1.384 . S
C169 C170 1.377 . S
C170 H150 0.953 . S
C170 C169 1.377 . S
C170 C171 1.369 . S
C171 H151 0.945 . S
C171 C166 1.385 . S
C171 C170 1.369 . S
C172 C164 1.457 . S
C172 C173 1.372 . S
C172 C177 1.364 . S
C173 H152 0.952 . S
C173 C172 1.372 . S
C173 C174 1.389 . S
C174 H153 0.949 . S
C174 C173 1.389 . S
C174 C175 1.387 . S
C175 C174 1.387 . S
C175 C176 1.372 . S
C176 H154 0.950 . S
C176 C175 1.372 . S
C176 C177 1.379 . S
C177 H155 0.948 . S
C177 C172 1.364 . S
C177 C176 1.379 . S
C178 C147 1.383 . S
C178 C165 1.479 . S
C178 C179 1.398 . S
C179 C144 1.382 . S
C179 H156 0.951 . S
C179 C178 1.398 . S
C180 C181 1.384 . S
C180 H193 0.947 . S
C180 C215 1.382 . S
C181 C180 1.384 . S
C181 C182 1.378 . S
C182 C181 1.378 . S
C182 C183 1.378 . S
C182 H194 0.952 . S
C183 C182 1.378 . S
C183 H195 0.950 . S
C183 C214 1.383 . S
H184 C203 0.947 . S
H185 C204 0.946 . S
H186 C206 0.953 . S
H187 C207 0.945 . S
H188 C209 0.952 . S
H189 C210 0.949 . S
H190 C212 0.950 . S
H191 C213 0.948 . S
H192 C215 0.951 . S
H193 C180 0.947 . S
H194 C182 0.952 . S
H195 C183 0.950 . S
N196 C199 1.382 . S
N196 C201 1.363 . S
N197 C199 1.371 . S
N197 C200 1.372 . S
N198 C200 1.361 . S
N198 C201 1.377 . S
C199 N196 1.382 . S
C199 N197 1.371 . S
C199 C202 1.480 . S
C200 N197 1.372 . S
C200 N198 1.361 . S
C200 C208 1.457 . S
C201 N196 1.363 . S
C201 N198 1.377 . S
C201 C214 1.479 . S
C202 C199 1.480 . S
C202 C203 1.383 . S
C202 C207 1.385 . S
C203 H184 0.947 . S
C203 C202 1.383 . S
C203 C204 1.388 . S
C204 H185 0.946 . S
C204 C203 1.388 . S
C204 C205 1.384 . S
C205 C204 1.384 . S
C205 C206 1.377 . S
C206 H186 0.953 . S
C206 C205 1.377 . S
C206 C207 1.369 . S
C207 H187 0.945 . S
C207 C202 1.385 . S
C207 C206 1.369 . S
C208 C200 1.457 . S
C208 C209 1.372 . S
C208 C213 1.364 . S
C209 H188 0.952 . S
C209 C208 1.372 . S
C209 C210 1.389 . S
C210 H189 0.949 . S
C210 C209 1.389 . S
C210 C211 1.387 . S
C211 C210 1.387 . S
C211 C212 1.372 . S
C212 H190 0.950 . S
C212 C211 1.372 . S
C212 C213 1.379 . S
C213 H191 0.948 . S
C213 C208 1.364 . S
C213 C212 1.379 . S
C214 C183 1.383 . S
C214 C201 1.479 . S
C214 C215 1.398 . S
C215 C180 1.382 . S
C215 H192 0.951 . S
C215 C214 1.398 . S
C216 C217 1.384 . S
C216 H229 0.947 . S
C216 C251 1.382 . S
C217 C216 1.384 . S
C217 C218 1.378 . S
C218 C217 1.378 . S
C218 C219 1.378 . S
C218 H230 0.952 . S
C219 C218 1.378 . S
C219 H231 0.950 . S
C219 C250 1.383 . S
H220 C239 0.947 . S
H221 C240 0.946 . S
H222 C242 0.953 . S
H223 C243 0.945 . S
H224 C245 0.952 . S
H225 C246 0.949 . S
H226 C248 0.950 . S
H227 C249 0.948 . S
H228 C251 0.951 . S
H229 C216 0.947 . S
H230 C218 0.952 . S
H231 C219 0.950 . S
N232 C235 1.382 . S
N232 C237 1.363 . S
N233 C235 1.371 . S
N233 C236 1.372 . S
N234 C236 1.361 . S
N234 C237 1.377 . S
C235 N232 1.382 . S
C235 N233 1.371 . S
C235 C238 1.480 . S
C236 N233 1.372 . S
C236 N234 1.361 . S
C236 C244 1.457 . S
C237 N232 1.363 . S
C237 N234 1.377 . S
C237 C250 1.479 . S
C238 C235 1.480 . S
C238 C239 1.383 . S
C238 C243 1.385 . S
C239 H220 0.947 . S
C239 C238 1.383 . S
C239 C240 1.388 . S
C240 H221 0.946 . S
C240 C239 1.388 . S
C240 C241 1.384 . S
C241 C240 1.384 . S
C241 C242 1.377 . S
C242 H222 0.953 . S
C242 C241 1.377 . S
C242 C243 1.369 . S
C243 H223 0.945 . S
C243 C238 1.385 . S
C243 C242 1.369 . S
C244 C236 1.457 . S
C244 C245 1.372 . S
C244 C249 1.364 . S
C245 H224 0.952 . S
C245 C244 1.372 . S
C245 C246 1.389 . S
C246 H225 0.949 . S
C246 C245 1.389 . S
C246 C247 1.387 . S
C247 C246 1.387 . S
C247 C248 1.372 . S
C248 H226 0.950 . S
C248 C247 1.372 . S
C248 C249 1.379 . S
C249 H227 0.948 . S
C249 C244 1.364 . S
C249 C248 1.379 . S
C250 C219 1.383 . S
C250 C237 1.479 . S
C250 C251 1.398 . S
C251 C216 1.382 . S
C251 H228 0.951 . S
C251 C250 1.398 . S
C252 C253 1.384 . S
C252 H265 0.947 . S
C252 C287 1.382 . S
C253 C252 1.384 . S
C253 C254 1.378 . S
C254 C253 1.378 . S
C254 C255 1.378 . S
C254 H266 0.952 . S
C255 C254 1.378 . S
C255 H267 0.950 . S
C255 C286 1.383 . S
H256 C275 0.947 . S
H257 C276 0.946 . S
H258 C278 0.953 . S
H259 C279 0.945 . S
H260 C281 0.952 . S
H261 C282 0.949 . S
H262 C284 0.950 . S
H263 C285 0.948 . S
H264 C287 0.951 . S
H265 C252 0.947 . S
H266 C254 0.952 . S
H267 C255 0.950 . S
N268 C271 1.382 . S
N268 C273 1.363 . S
N269 C271 1.371 . S
N269 C272 1.372 . S
N270 C272 1.361 . S
N270 C273 1.377 . S
C271 N268 1.382 . S
C271 N269 1.371 . S
C271 C274 1.480 . S
C272 N269 1.372 . S
C272 N270 1.361 . S
C272 C280 1.457 . S
C273 N268 1.363 . S
C273 N270 1.377 . S
C273 C286 1.479 . S
C274 C271 1.480 . S
C274 C275 1.383 . S
C274 C279 1.385 . S
C275 H256 0.947 . S
C275 C274 1.383 . S
C275 C276 1.388 . S
C276 H257 0.946 . S
C276 C275 1.388 . S
C276 C277 1.384 . S
C277 C276 1.384 . S
C277 C278 1.377 . S
C278 H258 0.953 . S
C278 C277 1.377 . S
C278 C279 1.369 . S
C279 H259 0.945 . S
C279 C274 1.385 . S
C279 C278 1.369 . S
C280 C272 1.457 . S
C280 C281 1.372 . S
C280 C285 1.364 . S
C281 H260 0.952 . S
C281 C280 1.372 . S
C281 C282 1.389 . S
C282 H261 0.949 . S
C282 C281 1.389 . S
C282 C283 1.387 . S
C283 C282 1.387 . S
C283 C284 1.372 . S
C284 H262 0.950 . S
C284 C283 1.372 . S
C284 C285 1.379 . S
C285 H263 0.948 . S
C285 C280 1.364 . S
C285 C284 1.379 . S
C286 C255 1.383 . S
C286 C273 1.479 . S
C286 C287 1.398 . S
C287 C252 1.382 . S
C287 H264 0.951 . S
C287 C286 1.398 . S
Eu288 N317 2.600 . S
Eu288 N323 2.562 . S
Eu288 O332 2.462 . S
Eu288 O333 2.373 . S
Eu288 O335 2.432 . S
Eu288 O336 2.291 . S
Eu288 O340 2.335 . S
Eu288 O343 2.372 . S
Eu288 C352 2.787 . S
C289 N290 1.365 . S
C289 C292 1.405 . S
C289 C296 1.448 . S
N290 C289 1.365 . S
N290 C293 1.319 . S
N290 Eu299 2.600 . S
C291 C293 1.397 . S
C291 C294 1.367 . S
C291 H311 0.931 . S
C292 C289 1.405 . S
C292 C294 1.403 . S
C292 C298 1.439 . S
C293 N290 1.319 . S
C293 C291 1.397 . S
C293 H304 0.930 . S
C294 C291 1.367 . S
C294 C292 1.403 . S
C294 H315 0.929 . S
C295 C296 1.430 . S
C295 C297 1.387 . S
C295 C301 1.404 . S
C296 C289 1.448 . S
C296 C295 1.430 . S
C296 N300 1.351 . S
C297 C295 1.387 . S
C297 C298 1.374 . S
C297 H312 0.931 . S
C298 C292 1.439 . S
C298 C297 1.374 . S
C298 H313 0.931 . S
Eu299 N290 2.600 . S
Eu299 N300 2.562 . S
Eu299 O334 2.332 1_655 S
Eu299 O337 2.372 . S
Eu299 O338 2.462 . S
Eu299 O339 2.373 . S
Eu299 O341 2.432 . S
Eu299 O342 2.291 1_655 S
Eu299 C363 2.787 . S
N300 C296 1.351 . S
N300 Eu299 2.562 . S
N300 C302 1.325 . S
C301 C295 1.404 . S
C301 C303 1.366 . S
C301 H309 0.930 . S
C302 N300 1.325 . S
C302 C303 1.416 . S
C302 H308 0.929 . S
C303 C301 1.366 . S
C303 C302 1.416 . S
C303 H305 0.930 . S
H304 C293 0.930 . S
H305 C303 0.930 . S
H306 C321 0.930 . S
H307 C328 0.930 . S
H308 C302 0.929 . S
H309 C301 0.930 . S
H310 C324 0.929 . S
H311 C291 0.931 . S
H312 C297 0.931 . S
H313 C298 0.931 . S
H314 C319 0.931 . S
H315 C294 0.929 . S
H316 C327 0.930 . S
N317 Eu288 2.600 . S
N317 C318 1.365 . S
N317 C321 1.319 . S
C318 N317 1.365 . S
C318 C320 1.405 . S
C318 C326 1.448 . S
C319 H314 0.931 . S
C319 C321 1.397 . S
C319 C322 1.367 . S
C320 C318 1.405 . S
C320 C322 1.403 . S
C320 C353 1.439 . S
C321 H306 0.930 . S
C321 N317 1.319 . S
C321 C319 1.397 . S
C322 C319 1.367 . S
C322 C320 1.403 . S
C322 H329 0.929 . S
N323 Eu288 2.562 . S
N323 C324 1.325 . S
N323 C326 1.351 . S
C324 H310 0.929 . S
C324 N323 1.325 . S
C324 C328 1.416 . S
C325 C326 1.430 . S
C325 C327 1.404 . S
C325 C354 1.387 . S
C326 C318 1.448 . S
C326 N323 1.351 . S
C326 C325 1.430 . S
C327 H316 0.930 . S
C327 C325 1.404 . S
C327 C328 1.366 . S
C328 H307 0.930 . S
C328 C324 1.416 . S
C328 C327 1.366 . S
H329 C322 0.929 . S
H330 C353 0.931 . S
H331 C354 0.931 . S
O332 Eu288 2.462 . S
O332 C352 1.252 . S
O333 Eu288 2.373 . S
O333 C344 1.249 . S
O334 Eu299 2.332 1_455 S
O334 C344 1.268 . S
O335 Eu288 2.432 . S
O335 C352 1.268 . S
O336 Eu288 2.291 . S
O336 C351 1.255 1_455 S
O337 Eu299 2.372 . S
O337 C351 1.257 . S
O338 Eu299 2.462 . S
O338 C363 1.252 . S
O339 Eu299 2.373 . S
O339 C355 1.249 . S
O340 Eu288 2.335 . S
O340 C355 1.264 1_455 S
O341 Eu299 2.432 . S
O341 C363 1.268 . S
O342 Eu299 2.291 1_455 S
O342 C362 1.255 . S
O343 Eu288 2.372 . S
O343 C362 1.257 . S
C344 O333 1.249 . S
C344 O334 1.268 . S
C345 C348 1.382 . S
C345 C350 1.390 . S
C345 C352 1.506 . S
C346 C347 1.398 . S
C346 C350 1.392 . S
C347 C346 1.398 . S
C347 C349 1.372 . S
C347 H364 0.931 . S
C348 C345 1.382 . S
C348 C349 1.390 . S
C348 H365 0.931 . S
C349 C347 1.372 . S
C349 C348 1.390 . S
C349 H366 0.929 . S
C350 C345 1.390 . S
C350 C346 1.392 . S
C350 H367 0.930 . S
C351 O336 1.255 1_655 S
C351 O337 1.257 . S
C352 Eu288 2.787 . S
C352 O332 1.252 . S
C352 O335 1.268 . S
C352 C345 1.506 . S
C353 C320 1.439 . S
C353 H330 0.931 . S
C353 C354 1.374 . S
C354 C325 1.387 . S
C354 H331 0.931 . S
C354 C353 1.374 . S
C355 O339 1.249 . S
C355 O340 1.264 1_655 S
C356 C359 1.382 . S
C356 C360 1.390 . S
C356 C363 1.506 . S
C357 C358 1.398 . S
C357 C360 1.392 . S
C358 C357 1.398 . S
C358 C361 1.372 . S
C358 H368 0.931 . S
C359 C356 1.382 . S
C359 C361 1.390 . S
C359 H369 0.931 . S
C360 C356 1.390 . S
C360 C357 1.392 . S
C360 H370 0.930 . S
C361 C358 1.372 . S
C361 C359 1.390 . S
C361 H371 0.929 . S
C362 O342 1.255 . S
C362 O343 1.257 . S
C363 Eu299 2.787 . S
C363 O338 1.252 . S
C363 O341 1.268 . S
C363 C356 1.506 . S
H364 C347 0.931 . S
H365 C348 0.931 . S
H366 C349 0.929 . S
H367 C350 0.930 . S
H368 C358 0.931 . S
H369 C359 0.931 . S
H370 C360 0.930 . S
H371 C361 0.929 . S
Eu372 N401 2.600 . S
Eu372 N407 2.562 . S
Eu372 O416 2.462 . S
Eu372 O417 2.373 . S
Eu372 O419 2.432 . S
Eu372 O420 2.291 . S
Eu372 O424 2.335 . S
Eu372 O427 2.372 . S
Eu372 C436 2.787 . S
C373 N374 1.365 . S
C373 C376 1.405 . S
C373 C380 1.448 . S
N374 C373 1.365 . S
N374 C377 1.319 . S
N374 Eu383 2.600 . S
C375 C377 1.397 . S
C375 C378 1.367 . S
C375 H395 0.931 . S
C376 C373 1.405 . S
C376 C378 1.403 . S
C376 C382 1.439 . S
C377 N374 1.319 . S
C377 C375 1.397 . S
C377 H388 0.930 . S
C378 C375 1.367 . S
C378 C376 1.403 . S
C378 H399 0.929 . S
C379 C380 1.430 . S
C379 C381 1.387 . S
C379 C385 1.404 . S
C380 C373 1.448 . S
C380 C379 1.430 . S
C380 N384 1.351 . S
C381 C379 1.387 . S
C381 C382 1.374 . S
C381 H396 0.931 . S
C382 C376 1.439 . S
C382 C381 1.374 . S
C382 H397 0.931 . S
Eu383 N374 2.600 . S
Eu383 N384 2.562 . S
Eu383 O418 2.335 . S
Eu383 O421 2.372 . S
Eu383 O422 2.462 . S
Eu383 O423 2.373 . S
Eu383 O425 2.432 . S
Eu383 O426 2.291 . S
Eu383 C447 2.787 . S
N384 C380 1.351 . S
N384 Eu383 2.562 . S
N384 C386 1.325 . S
C385 C379 1.404 . S
C385 C387 1.366 . S
C385 H393 0.930 . S
C386 N384 1.325 . S
C386 C387 1.416 . S
C386 H392 0.929 . S
C387 C385 1.366 . S
C387 C386 1.416 . S
C387 H389 0.930 . S
H388 C377 0.930 . S
H389 C387 0.930 . S
H390 C405 0.930 . S
H391 C412 0.930 . S
H392 C386 0.929 . S
H393 C385 0.930 . S
H394 C408 0.929 . S
H395 C375 0.931 . S
H396 C381 0.931 . S
H397 C382 0.931 . S
H398 C403 0.931 . S
H399 C378 0.929 . S
H400 C411 0.930 . S
N401 Eu372 2.600 . S
N401 C402 1.365 . S
N401 C405 1.319 . S
C402 N401 1.365 . S
C402 C404 1.405 . S
C402 C410 1.448 . S
C403 H398 0.931 . S
C403 C405 1.397 . S
C403 C406 1.367 . S
C404 C402 1.405 . S
C404 C406 1.403 . S
C404 C437 1.439 . S
C405 H390 0.930 . S
C405 N401 1.319 . S
C405 C403 1.397 . S
C406 C403 1.367 . S
C406 C404 1.403 . S
C406 H413 0.929 . S
N407 Eu372 2.562 . S
N407 C408 1.325 . S
N407 C410 1.351 . S
C408 H394 0.929 . S
C408 N407 1.325 . S
C408 C412 1.416 . S
C409 C410 1.430 . S
C409 C411 1.404 . S
C409 C438 1.387 . S
C410 C402 1.448 . S
C410 N407 1.351 . S
C410 C409 1.430 . S
C411 H400 0.930 . S
C411 C409 1.404 . S
C411 C412 1.366 . S
C412 H391 0.930 . S
C412 C408 1.416 . S
C412 C411 1.366 . S
H413 C406 0.929 . S
H414 C437 0.931 . S
H415 C438 0.931 . S
O416 Eu372 2.462 . S
O416 C436 1.252 . S
O417 Eu372 2.373 . S
O417 C428 1.249 . S
O418 Eu383 2.335 . S
O418 C428 1.264 . S
O419 Eu372 2.432 . S
O419 C436 1.268 . S
O420 Eu372 2.291 . S
O420 C435 1.255 . S
O421 Eu383 2.372 . S
O421 C435 1.257 . S
O422 Eu383 2.462 . S
O422 C447 1.252 . S
O423 Eu383 2.373 . S
O423 C439 1.249 . S
O424 Eu372 2.335 . S
O424 C439 1.264 . S
O425 Eu383 2.432 . S
O425 C447 1.268 . S
O426 Eu383 2.291 . S
O426 C446 1.255 . S
O427 Eu372 2.372 . S
O427 C446 1.257 . S
C428 O417 1.249 . S
C428 O418 1.264 . S
C429 C432 1.382 . S
C429 C434 1.390 . S
C429 C436 1.506 . S
C430 C431 1.398 . S
C430 C434 1.392 . S
C431 C430 1.398 . S
C431 C433 1.372 . S
C431 H448 0.931 . S
C432 C429 1.382 . S
C432 C433 1.390 . S
C432 H449 0.931 . S
C433 C431 1.372 . S
C433 C432 1.390 . S
C433 H450 0.929 . S
C434 C429 1.390 . S
C434 C430 1.392 . S
C434 H451 0.930 . S
C435 O420 1.255 . S
C435 O421 1.257 . S
C436 Eu372 2.787 . S
C436 O416 1.252 . S
C436 O419 1.268 . S
C436 C429 1.506 . S
C437 C404 1.439 . S
C437 H414 0.931 . S
C437 C438 1.374 . S
C438 C409 1.387 . S
C438 H415 0.931 . S
C438 C437 1.374 . S
C439 O423 1.249 . S
C439 O424 1.264 . S
C440 C443 1.382 . S
C440 C444 1.390 . S
C440 C447 1.506 . S
C441 C442 1.398 . S
C441 C444 1.392 . S
C442 C441 1.398 . S
C442 C445 1.372 . S
C442 H452 0.931 . S
C443 C440 1.382 . S
C443 C445 1.390 . S
C443 H453 0.931 . S
C444 C440 1.390 . S
C444 C441 1.392 . S
C444 H454 0.930 . S
C445 C442 1.372 . S
C445 C443 1.390 . S
C445 H455 0.929 . S
C446 O426 1.255 . S
C446 O427 1.257 . S
C447 Eu383 2.787 . S
C447 O422 1.252 . S
C447 O425 1.268 . S
C447 C440 1.506 . S
H448 C431 0.931 . S
H449 C432 0.931 . S
H450 C433 0.929 . S
H451 C434 0.930 . S
H452 C442 0.931 . S
H453 C443 0.931 . S
H454 C444 0.930 . S
H455 C445 0.929 . S
Eu456 N485 2.600 . S
Eu456 N491 2.562 . S
Eu456 O500 2.462 . S
Eu456 O501 2.373 . S
Eu456 O503 2.432 . S
Eu456 O504 2.291 . S
Eu456 O508 2.335 . S
Eu456 O511 2.372 . S
Eu456 C520 2.787 . S
C457 N458 1.365 . S
C457 C460 1.405 . S
C457 C464 1.448 . S
N458 C457 1.365 . S
N458 C461 1.319 . S
N458 Eu467 2.600 . S
C459 C461 1.397 . S
C459 C462 1.367 . S
C459 H479 0.931 . S
C460 C457 1.405 . S
C460 C462 1.403 . S
C460 C466 1.439 . S
C461 N458 1.319 . S
C461 C459 1.397 . S
C461 H472 0.930 . S
C462 C459 1.367 . S
C462 C460 1.403 . S
C462 H483 0.929 . S
C463 C464 1.430 . S
C463 C465 1.387 . S
C463 C469 1.404 . S
C464 C457 1.448 . S
C464 C463 1.430 . S
C464 N468 1.351 . S
C465 C463 1.387 . S
C465 C466 1.374 . S
C465 H480 0.931 . S
C466 C460 1.439 . S
C466 C465 1.374 . S
C466 H481 0.931 . S
Eu467 N458 2.600 . S
Eu467 N468 2.562 . S
Eu467 O502 2.335 1_655 S
Eu467 O505 2.372 . S
Eu467 O506 2.462 . S
Eu467 O507 2.373 . S
Eu467 O509 2.432 . S
Eu467 O510 2.291 1_655 S
Eu467 C531 2.787 . S
N468 C464 1.351 . S
N468 Eu467 2.562 . S
N468 C470 1.325 . S
C469 C463 1.404 . S
C469 C471 1.366 . S
C469 H477 0.930 . S
C470 N468 1.325 . S
C470 C471 1.416 . S
C470 H476 0.929 . S
C471 C469 1.366 . S
C471 C470 1.416 . S
C471 H473 0.930 . S
H472 C461 0.930 . S
H473 C471 0.930 . S
H474 C489 0.930 . S
H475 C496 0.930 . S
H476 C470 0.929 . S
H477 C469 0.930 . S
H478 C492 0.929 . S
H479 C459 0.931 . S
H480 C465 0.931 . S
H481 C466 0.931 . S
H482 C487 0.931 . S
H483 C462 0.929 . S
H484 C495 0.930 . S
N485 Eu456 2.600 . S
N485 C486 1.365 . S
N485 C489 1.319 . S
C486 N485 1.365 . S
C486 C488 1.405 . S
C486 C494 1.448 . S
C487 H482 0.931 . S
C487 C489 1.397 . S
C487 C490 1.367 . S
C488 C486 1.405 . S
C488 C490 1.403 . S
C488 C521 1.439 . S
C489 H474 0.930 . S
C489 N485 1.319 . S
C489 C487 1.397 . S
C490 C487 1.367 . S
C490 C488 1.403 . S
C490 H497 0.929 . S
N491 Eu456 2.562 . S
N491 C492 1.325 . S
N491 C494 1.351 . S
C492 H478 0.929 . S
C492 N491 1.325 . S
C492 C496 1.416 . S
C493 C494 1.430 . S
C493 C495 1.404 . S
C493 C522 1.387 . S
C494 C486 1.448 . S
C494 N491 1.351 . S
C494 C493 1.430 . S
C495 H484 0.930 . S
C495 C493 1.404 . S
C495 C496 1.366 . S
C496 H475 0.930 . S
C496 C492 1.416 . S
C496 C495 1.366 . S
H497 C490 0.929 . S
H498 C521 0.931 . S
H499 C522 0.931 . S
O500 Eu456 2.462 . S
O500 C520 1.252 . S
O501 Eu456 2.373 . S
O501 C512 1.249 . S
O502 Eu467 2.335 1_455 S
O502 C512 1.264 . S
O503 Eu456 2.432 . S
O503 C520 1.268 . S
O504 Eu456 2.291 . S
O504 C519 1.255 1_455 S
O505 Eu467 2.372 . S
O505 C519 1.257 . S
O506 Eu467 2.462 . S
O506 C531 1.252 . S
O507 Eu467 2.373 . S
O507 C523 1.249 . S
O508 Eu456 2.335 . S
O508 C523 1.264 1_455 S
O509 Eu467 2.432 . S
O509 C531 1.268 . S
O510 Eu467 2.291 1_455 S
O510 C530 1.255 . S
O511 Eu456 2.372 . S
O511 C530 1.257 . S
C512 O501 1.249 . S
C512 O502 1.264 . S
C513 C516 1.382 . S
C513 C518 1.390 . S
C513 C520 1.506 . S
C514 C515 1.398 . S
C514 C518 1.392 . S
C515 C514 1.398 . S
C515 C517 1.372 . S
C515 H532 0.931 . S
C516 C513 1.382 . S
C516 C517 1.390 . S
C516 H533 0.931 . S
C517 C515 1.372 . S
C517 C516 1.390 . S
C517 H534 0.929 . S
C518 C513 1.390 . S
C518 C514 1.392 . S
C518 H535 0.930 . S
C519 O504 1.255 1_655 S
C519 O505 1.257 . S
C520 Eu456 2.787 . S
C520 O500 1.252 . S
C520 O503 1.268 . S
C520 C513 1.506 . S
C521 C488 1.439 . S
C521 H498 0.931 . S
C521 C522 1.374 . S
C522 C493 1.387 . S
C522 H499 0.931 . S
C522 C521 1.374 . S
C523 O507 1.249 . S
C523 O508 1.264 1_655 S
C524 C527 1.382 . S
C524 C528 1.390 . S
C524 C531 1.506 . S
C525 C526 1.398 . S
C525 C528 1.392 . S
C526 C525 1.398 . S
C526 C529 1.372 . S
C526 H536 0.931 . S
C527 C524 1.382 . S
C527 C529 1.390 . S
C527 H537 0.931 . S
C528 C524 1.390 . S
C528 C525 1.392 . S
C528 H538 0.930 . S
C529 C526 1.372 . S
C529 C527 1.390 . S
C529 H539 0.929 . S
C530 O510 1.255 . S
C530 O511 1.257 . S
C531 Eu467 2.787 . S
C531 O506 1.252 . S
C531 O509 1.268 . S
C531 C524 1.506 . S
H532 C515 0.931 . S
H533 C516 0.931 . S
H534 C517 0.929 . S
H535 C518 0.930 . S
H536 C526 0.931 . S
H537 C527 0.931 . S
H538 C528 0.930 . S
H539 C529 0.929 . S
Eu540 N569 2.600 . S
Eu540 N575 2.562 . S
Eu540 O584 2.462 . S
Eu540 O585 2.373 . S
Eu540 O587 2.432 . S
Eu540 O588 2.291 . S
Eu540 O592 2.335 . S
Eu540 O595 2.372 . S
Eu540 C604 2.787 . S
C541 N542 1.365 . S
C541 C544 1.405 . S
C541 C548 1.448 . S
N542 C541 1.365 . S
N542 C545 1.319 . S
N542 Eu551 2.600 . S
C543 C545 1.397 . S
C543 C546 1.367 . S
C543 H563 0.931 . S
C544 C541 1.405 . S
C544 C546 1.403 . S
C544 C550 1.439 . S
C545 N542 1.319 . S
C545 C543 1.397 . S
C545 H556 0.930 . S
C546 C543 1.367 . S
C546 C544 1.403 . S
C546 H567 0.929 . S
C547 C548 1.430 . S
C547 C549 1.387 . S
C547 C553 1.404 . S
C548 C541 1.448 . S
C548 C547 1.430 . S
C548 N552 1.351 . S
C549 C547 1.387 . S
C549 C550 1.374 . S
C549 H564 0.931 . S
C550 C544 1.439 . S
C550 C549 1.374 . S
C550 H565 0.931 . S
Eu551 N542 2.600 . S
Eu551 N552 2.562 . S
Eu551 O586 2.335 . S
Eu551 O589 2.372 . S
Eu551 O590 2.462 . S
Eu551 O591 2.373 . S
Eu551 O593 2.432 . S
Eu551 O594 2.291 . S
Eu551 C615 2.787 . S
N552 C548 1.351 . S
N552 Eu551 2.562 . S
N552 C554 1.325 . S
C553 C547 1.404 . S
C553 C555 1.366 . S
C553 H561 0.930 . S
C554 N552 1.325 . S
C554 C555 1.416 . S
C554 H560 0.929 . S
C555 C553 1.366 . S
C555 C554 1.416 . S
C555 H557 0.930 . S
H556 C545 0.930 . S
H557 C555 0.930 . S
H558 C573 0.930 . S
H559 C580 0.930 . S
H560 C554 0.929 . S
H561 C553 0.930 . S
H562 C576 0.929 . S
H563 C543 0.931 . S
H564 C549 0.931 . S
H565 C550 0.931 . S
H566 C571 0.931 . S
H567 C546 0.929 . S
H568 C579 0.930 . S
N569 Eu540 2.600 . S
N569 C570 1.365 . S
N569 C573 1.319 . S
C570 N569 1.365 . S
C570 C572 1.405 . S
C570 C578 1.448 . S
C571 H566 0.931 . S
C571 C573 1.397 . S
C571 C574 1.367 . S
C572 C570 1.405 . S
C572 C574 1.403 . S
C572 C605 1.439 . S
C573 H558 0.930 . S
C573 N569 1.319 . S
C573 C571 1.397 . S
C574 C571 1.367 . S
C574 C572 1.403 . S
C574 H581 0.929 . S
N575 Eu540 2.562 . S
N575 C576 1.325 . S
N575 C578 1.351 . S
C576 H562 0.929 . S
C576 N575 1.325 . S
C576 C580 1.416 . S
C577 C578 1.430 . S
C577 C579 1.404 . S
C577 C606 1.387 . S
C578 C570 1.448 . S
C578 N575 1.351 . S
C578 C577 1.430 . S
C579 H568 0.930 . S
C579 C577 1.404 . S
C579 C580 1.366 . S
C580 H559 0.930 . S
C580 C576 1.416 . S
C580 C579 1.366 . S
H581 C574 0.929 . S
H582 C605 0.931 . S
H583 C606 0.931 . S
O584 Eu540 2.462 . S
O584 C604 1.252 . S
O585 Eu540 2.373 . S
O585 C596 1.249 . S
O586 Eu551 2.335 . S
O586 C596 1.264 . S
O587 Eu540 2.432 . S
O587 C604 1.268 . S
O588 Eu540 2.291 . S
O588 C603 1.255 . S
O589 Eu551 2.372 . S
O589 C603 1.257 . S
O590 Eu551 2.462 . S
O590 C615 1.252 . S
O591 Eu551 2.373 . S
O591 C607 1.249 . S
O592 Eu540 2.335 . S
O592 C607 1.264 . S
O593 Eu551 2.432 . S
O593 C615 1.268 . S
O594 Eu551 2.291 . S
O594 C614 1.255 . S
O595 Eu540 2.372 . S
O595 C614 1.257 . S
C596 O585 1.249 . S
C596 O586 1.264 . S
C597 C600 1.382 . S
C597 C602 1.390 . S
C597 C604 1.506 . S
C598 C599 1.398 . S
C598 C602 1.392 . S
C599 C598 1.398 . S
C599 C601 1.372 . S
C599 H616 0.931 . S
C600 C597 1.382 . S
C600 C601 1.390 . S
C600 H617 0.931 . S
C601 C599 1.372 . S
C601 C600 1.390 . S
C601 H618 0.929 . S
C602 C597 1.390 . S
C602 C598 1.392 . S
C602 H619 0.930 . S
C603 O588 1.255 . S
C603 O589 1.257 . S
C604 Eu540 2.787 . S
C604 O584 1.252 . S
C604 O587 1.268 . S
C604 C597 1.506 . S
C605 C572 1.439 . S
C605 H582 0.931 . S
C605 C606 1.374 . S
C606 C577 1.387 . S
C606 H583 0.931 . S
C606 C605 1.374 . S
C607 O591 1.249 . S
C607 O592 1.264 . S
C608 C611 1.382 . S
C608 C612 1.390 . S
C608 C615 1.506 . S
C609 C610 1.398 . S
C609 C612 1.392 . S
C610 C609 1.398 . S
C610 C613 1.372 . S
C610 H620 0.931 . S
C611 C608 1.382 . S
C611 C613 1.390 . S
C611 H621 0.931 . S
C612 C608 1.390 . S
C612 C609 1.392 . S
C612 H622 0.930 . S
C613 C610 1.372 . S
C613 C611 1.390 . S
C613 H623 0.929 . S
C614 O594 1.255 . S
C614 O595 1.257 . S
C615 Eu551 2.787 . S
C615 O590 1.252 . S
C615 O593 1.268 . S
C615 C608 1.506 . S
H616 C599 0.931 . S
H617 C600 0.931 . S
H618 C601 0.929 . S
H619 C602 0.930 . S
H620 C610 0.931 . S
H621 C611 0.931 . S
H622 C612 0.930 . S
H623 C613 0.929 . S
H624 C632 0.950 1_565 S
H625 C637 0.950 . S
H626 C634 0.950 . S
H627 C636 0.950 . S
H628 C638 0.950 . S
H629 C640 0.950 . S
H630 C642 0.950 . S
H631 C643 0.950 . S
C632 H624 0.950 1_545 S
C632 C633 1.386 1_545 S
C632 C634 1.391 . S
C633 C632 1.386 1_565 S
C633 C637 1.393 . S
C634 H626 0.950 . S
C634 C632 1.391 . S
C634 C635 1.400 . S
C635 C634 1.400 . S
C635 C636 1.398 . S
C635 C641 1.491 . S
C636 H627 0.950 . S
C636 C635 1.398 . S
C636 C637 1.391 1_545 S
C637 H625 0.950 . S
C637 C633 1.393 . S
C637 C636 1.391 1_565 S
C638 H628 0.950 . S
C638 C639 1.386 . S
C638 C640 1.391 . S
C639 C638 1.386 . S
C639 C643 1.393 . S
C640 H629 0.950 . S
C640 C638 1.391 . S
C640 C641 1.400 . S
C641 C635 1.491 . S
C641 C640 1.400 . S
C641 C642 1.398 . S
C642 H630 0.950 . S
C642 C641 1.398 . S
C642 C643 1.391 . S
C643 H631 0.950 . S
C643 C639 1.393 . S
C643 C642 1.391 . S
H644 C652 0.950 . S
H645 C657 0.950 . S
H646 C654 0.950 . S
H647 C656 0.950 . S
H648 C658 0.950 . S
H649 C660 0.950 . S
H650 C662 0.950 . S
H651 C663 0.950 . S
C652 H644 0.950 . S
C652 C653 1.386 . S
C652 C654 1.391 . S
C653 C652 1.386 . S
C653 C657 1.393 . S
C654 H646 0.950 . S
C654 C652 1.391 . S
C654 C655 1.400 . S
C655 C654 1.400 . S
C655 C656 1.398 . S
C655 C661 1.491 . S
C656 H647 0.950 . S
C656 C655 1.398 . S
C656 C657 1.391 . S
C657 H645 0.950 . S
C657 C653 1.393 . S
C657 C656 1.391 . S
C658 H648 0.950 . S
C658 C659 1.386 . S
C658 C660 1.391 . S
C659 C658 1.386 . S
C659 C663 1.393 . S
C660 H649 0.950 . S
C660 C658 1.391 . S
C660 C661 1.400 . S
C661 C655 1.491 . S
C661 C660 1.400 . S
C661 C662 1.398 . S
C662 H650 0.950 . S
C662 C661 1.398 . S
C662 C663 1.391 . S
C663 H651 0.950 . S
C663 C659 1.393 . S
C663 C662 1.391 . S
H664 C672 0.950 . S
H665 C677 0.950 . S
H666 C674 0.950 . S
H667 C676 0.950 . S
H668 C678 0.950 . S
H669 C680 0.950 . S
H670 C682 0.950 . S
H671 C683 0.950 . S
C672 H664 0.950 . S
C672 C673 1.386 . S
C672 C674 1.391 . S
C673 C672 1.386 . S
C673 C677 1.393 . S
C674 H666 0.950 . S
C674 C672 1.391 . S
C674 C675 1.400 . S
C675 C674 1.400 . S
C675 C676 1.398 . S
C675 C681 1.491 . S
C676 H667 0.950 . S
C676 C675 1.398 . S
C676 C677 1.391 . S
C677 H665 0.950 . S
C677 C673 1.393 . S
C677 C676 1.391 . S
C678 H668 0.950 . S
C678 C679 1.386 . S
C678 C680 1.391 . S
C679 C678 1.386 . S
C679 C683 1.393 . S
C680 H669 0.950 . S
C680 C678 1.391 . S
C680 C681 1.400 . S
C681 C675 1.491 . S
C681 C680 1.400 . S
C681 C682 1.398 . S
C682 H670 0.950 . S
C682 C681 1.398 . S
C682 C683 1.391 . S
C683 H671 0.950 . S
C683 C679 1.393 . S
C683 C682 1.391 . S
H684 C692 0.950 . S
H685 C697 0.950 . S
H686 C694 0.950 1_565 S
H687 C696 0.950 . S
H688 C698 0.950 . S
H689 C700 0.950 . S
H690 C702 0.950 . S
H691 C703 0.950 . S
C692 H684 0.950 . S
C692 C693 1.386 . S
C692 C694 1.391 1_565 S
C693 C692 1.386 . S
C693 C697 1.393 1_565 S
C694 H686 0.950 1_545 S
C694 C692 1.391 1_545 S
C694 C695 1.400 . S
C695 C694 1.400 . S
C695 C696 1.398 . S
C695 C701 1.491 . S
C696 H687 0.950 . S
C696 C695 1.398 . S
C696 C697 1.391 . S
C697 H685 0.950 . S
C697 C693 1.393 1_545 S
C697 C696 1.391 . S
C698 H688 0.950 . S
C698 C699 1.386 . S
C698 C700 1.391 . S
C699 C698 1.386 . S
C699 C703 1.393 . S
C700 H689 0.950 . S
C700 C698 1.391 . S
C700 C701 1.400 . S
C701 C695 1.491 . S
C701 C700 1.400 . S
C701 C702 1.398 . S
C702 H690 0.950 . S
C702 C701 1.398 . S
C702 C703 1.391 . S
C703 H691 0.950 . S
C703 C699 1.393 . S
C703 C702 1.391 . S
H704 C712 0.950 . S
H705 C717 0.950 . S
H706 C714 0.950 . S
H707 C716 0.950 . S
H708 C718 0.950 . S
H709 C720 0.950 . S
H710 C722 0.950 . S
H711 C723 0.950 1_455 S
C712 H704 0.950 . S
C712 C713 1.386 . S
C712 C714 1.391 1_545 S
C713 C712 1.386 . S
C713 C717 1.393 1_545 S
C714 H706 0.950 . S
C714 C712 1.391 1_565 S
C714 C715 1.400 . S
C715 C714 1.400 . S
C715 C716 1.398 . S
C715 C721 1.491 . S
C716 H707 0.950 . S
C716 C715 1.398 . S
C716 C717 1.391 . S
C717 H705 0.950 . S
C717 C713 1.393 1_565 S
C717 C716 1.391 . S
C718 H708 0.950 . S
C718 C719 1.386 . S
C718 C720 1.391 . S
C719 C718 1.386 . S
C719 C723 1.393 . S
C720 H709 0.950 . S
C720 C718 1.391 . S
C720 C721 1.400 . S
C721 C715 1.491 . S
C721 C720 1.400 . S
C721 C722 1.398 . S
C722 H710 0.950 . S
C722 C721 1.398 . S
C722 C723 1.391 . S
C723 H711 0.950 1_655 S
C723 C719 1.393 . S
C723 C722 1.391 . S
H724 C732 0.950 . S
H725 C737 0.950 . S
H726 C734 0.950 . S
H727 C736 0.950 . S
H728 C738 0.950 . S
H729 C740 0.950 . S
H730 C742 0.950 . S
H731 C743 0.950 . S
C732 H724 0.950 . S
C732 C733 1.386 . S
C732 C734 1.391 . S
C733 C732 1.386 . S
C733 C737 1.393 . S
C734 H726 0.950 . S
C734 C732 1.391 . S
C734 C735 1.400 . S
C735 C734 1.400 . S
C735 C736 1.398 . S
C735 C741 1.491 . S
C736 H727 0.950 . S
C736 C735 1.398 . S
C736 C737 1.391 . S
C737 H725 0.950 . S
C737 C733 1.393 . S
C737 C736 1.391 . S
C738 H728 0.950 . S
C738 C739 1.386 . S
C738 C740 1.391 . S
C739 C738 1.386 . S
C739 C743 1.393 . S
C740 H729 0.950 . S
C740 C738 1.391 . S
C740 C741 1.400 . S
C741 C735 1.491 . S
C741 C740 1.400 . S
C741 C742 1.398 . S
C742 H730 0.950 . S
C742 C741 1.398 . S
C742 C743 1.391 . S
C743 H731 0.950 . S
C743 C739 1.393 . S
C743 C742 1.391 . S
H744 C752 0.950 . S
H745 C757 0.950 . S
H746 C754 0.950 . S
H747 C756 0.950 . S
H748 C758 0.950 . S
H749 C760 0.950 . S
H750 C762 0.950 . S
H751 C763 0.950 . S
C752 H744 0.950 . S
C752 C753 1.386 . S
C752 C754 1.391 . S
C753 C752 1.386 . S
C753 C757 1.393 . S
C754 H746 0.950 . S
C754 C752 1.391 . S
C754 C755 1.400 . S
C755 C754 1.400 . S
C755 C756 1.398 . S
C755 C761 1.491 . S
C756 H747 0.950 . S
C756 C755 1.398 . S
C756 C757 1.391 . S
C757 H745 0.950 . S
C757 C753 1.393 . S
C757 C756 1.391 . S
C758 H748 0.950 . S
C758 C759 1.386 . S
C758 C760 1.391 . S
C759 C758 1.386 . S
C759 C763 1.393 . S
C760 H749 0.950 . S
C760 C758 1.391 . S
C760 C761 1.400 . S
C761 C755 1.491 . S
C761 C760 1.400 . S
C761 C762 1.398 . S
C762 H750 0.950 . S
C762 C761 1.398 . S
C762 C763 1.391 . S
C763 H751 0.950 . S
C763 C759 1.393 . S
C763 C762 1.391 . S
H764 C772 0.950 . S
H765 C777 0.950 . S
H766 C774 0.950 . S
H767 C776 0.950 . S
H768 C778 0.950 . S
H769 C780 0.950 . S
H770 C782 0.950 . S
H771 C783 0.950 . S
C772 H764 0.950 . S
C772 C773 1.386 1_565 S
C772 C774 1.391 . S
C773 C772 1.386 1_545 S
C773 C777 1.393 . S
C774 H766 0.950 . S
C774 C772 1.391 . S
C774 C775 1.400 . S
C775 C774 1.400 . S
C775 C776 1.398 . S
C775 C781 1.491 . S
C776 H767 0.950 . S
C776 C775 1.398 . S
C776 C777 1.391 1_565 S
C777 H765 0.950 . S
C777 C773 1.393 . S
C777 C776 1.391 1_545 S
C778 H768 0.950 . S
C778 C779 1.386 . S
C778 C780 1.391 . S
C779 C778 1.386 . S
C779 C783 1.393 . S
C780 H769 0.950 . S
C780 C778 1.391 . S
C780 C781 1.400 . S
C781 C775 1.491 . S
C781 C780 1.400 . S
C781 C782 1.398 . S
C782 H770 0.950 . S
C782 C781 1.398 . S
C782 C783 1.391 . S
C783 H771 0.950 . S
C783 C779 1.393 . S
C783 C782 1.391 . S
H784 C792 0.950 . S
H785 C797 0.950 . S
H786 C794 0.950 . S
H787 C796 0.950 . S
H788 C798 0.950 . S
H789 C800 0.950 . S
H790 C802 0.950 . S
H791 C803 0.950 . S
C792 H784 0.950 . S
C792 C793 1.386 . S
C792 C794 1.391 . S
C793 C792 1.386 . S
C793 C797 1.393 . S
C794 H786 0.950 . S
C794 C792 1.391 . S
C794 C795 1.400 . S
C795 C794 1.400 . S
C795 C796 1.398 . S
C795 C801 1.491 . S
C796 H787 0.950 . S
C796 C795 1.398 . S
C796 C797 1.391 . S
C797 H785 0.950 . S
C797 C793 1.393 . S
C797 C796 1.391 . S
C798 H788 0.950 . S
C798 C799 1.386 . S
C798 C800 1.391 . S
C799 C798 1.386 . S
C799 C803 1.393 . S
C800 H789 0.950 . S
C800 C798 1.391 . S
C800 C801 1.400 . S
C801 C795 1.491 . S
C801 C800 1.400 . S
C801 C802 1.398 . S
C802 H790 0.950 . S
C802 C801 1.398 . S
C802 C803 1.391 . S
C803 H791 0.950 . S
C803 C799 1.393 . S
C803 C802 1.391 . S
H804 C812 0.950 . S
H805 C817 0.950 . S
H806 C814 0.950 . S
H807 C816 0.950 . S
H808 C818 0.950 . S
H809 C820 0.950 . S
H810 C822 0.950 . S
H811 C823 0.950 . S
C812 H804 0.950 . S
C812 C813 1.386 . S
C812 C814 1.391 . S
C813 C812 1.386 . S
C813 C817 1.393 . S
C814 H806 0.950 . S
C814 C812 1.391 . S
C814 C815 1.400 . S
C815 C814 1.400 . S
C815 C816 1.398 . S
C815 C821 1.491 . S
C816 H807 0.950 . S
C816 C815 1.398 . S
C816 C817 1.391 . S
C817 H805 0.950 . S
C817 C813 1.393 . S
C817 C816 1.391 . S
C818 H808 0.950 . S
C818 C819 1.386 . S
C818 C820 1.391 . S
C819 C818 1.386 . S
C819 C823 1.393 . S
C820 H809 0.950 . S
C820 C818 1.391 . S
C820 C821 1.400 . S
C821 C815 1.491 . S
C821 C820 1.400 . S
C821 C822 1.398 . S
C822 H810 0.950 . S
C822 C821 1.398 . S
C822 C823 1.391 . S
C823 H811 0.950 . S
C823 C819 1.393 . S
C823 C822 1.391 . S
H824 C832 0.950 . S
H825 C837 0.950 . S
H826 C834 0.950 . S
H827 C836 0.950 . S
H828 C838 0.950 . S
H829 C840 0.950 . S
H830 C842 0.950 . S
H831 C843 0.950 . S
C832 H824 0.950 . S
C832 C833 1.386 . S
C832 C834 1.391 . S
C833 C832 1.386 . S
C833 C837 1.393 . S
C834 H826 0.950 . S
C834 C832 1.391 . S
C834 C835 1.400 . S
C835 C834 1.400 . S
C835 C836 1.398 . S
C835 C841 1.491 . S
C836 H827 0.950 . S
C836 C835 1.398 . S
C836 C837 1.391 . S
C837 H825 0.950 . S
C837 C833 1.393 . S
C837 C836 1.391 . S
C838 H828 0.950 . S
C838 C839 1.386 . S
C838 C840 1.391 . S
C839 C838 1.386 . S
C839 C843 1.393 . S
C840 H829 0.950 . S
C840 C838 1.391 . S
C840 C841 1.400 . S
C841 C835 1.491 . S
C841 C840 1.400 . S
C841 C842 1.398 . S
C842 H830 0.950 . S
C842 C841 1.398 . S
C842 C843 1.391 . S
C843 H831 0.950 . S
C843 C839 1.393 . S
C843 C842 1.391 . S
H844 C852 0.950 . S
H845 C857 0.950 . S
H846 C854 0.950 . S
H847 C856 0.950 . S
H848 C858 0.950 . S
H849 C860 0.950 . S
H850 C862 0.950 . S
H851 C863 0.950 . S
C852 H844 0.950 . S
C852 C853 1.386 . S
C852 C854 1.391 . S
C853 C852 1.386 . S
C853 C857 1.393 . S
C854 H846 0.950 . S
C854 C852 1.391 . S
C854 C855 1.400 . S
C855 C854 1.400 . S
C855 C856 1.398 . S
C855 C861 1.491 . S
C856 H847 0.950 . S
C856 C855 1.398 . S
C856 C857 1.391 . S
C857 H845 0.950 . S
C857 C853 1.393 . S
C857 C856 1.391 . S
C858 H848 0.950 . S
C858 C859 1.386 . S
C858 C860 1.391 . S
C859 C858 1.386 . S
C859 C863 1.393 . S
C860 H849 0.950 . S
C860 C858 1.391 . S
C860 C861 1.400 . S
C861 C855 1.491 . S
C861 C860 1.400 . S
C861 C862 1.398 . S
C862 H850 0.950 . S
C862 C861 1.398 . S
C862 C863 1.391 . S
C863 H851 0.950 . S
C863 C859 1.393 . S
C863 C862 1.391 . S
H864 C872 0.950 . S
H865 C877 0.950 . S
H866 C874 0.950 . S
H867 C876 0.950 . S
H868 C878 0.950 . S
H869 C880 0.950 . S
H870 C882 0.950 . S
H871 C883 0.950 . S
C872 H864 0.950 . S
C872 C873 1.386 . S
C872 C874 1.391 . S
C873 C872 1.386 . S
C873 C877 1.393 . S
C874 H866 0.950 . S
C874 C872 1.391 . S
C874 C875 1.400 . S
C875 C874 1.400 . S
C875 C876 1.398 . S
C875 C881 1.491 . S
C876 H867 0.950 . S
C876 C875 1.398 . S
C876 C877 1.391 . S
C877 H865 0.950 . S
C877 C873 1.393 . S
C877 C876 1.391 . S
C878 H868 0.950 . S
C878 C879 1.386 . S
C878 C880 1.391 . S
C879 C878 1.386 . S
C879 C883 1.393 . S
C880 H869 0.950 . S
C880 C878 1.391 . S
C880 C881 1.400 . S
C881 C875 1.491 . S
C881 C880 1.400 . S
C881 C882 1.398 . S
C882 H870 0.950 . S
C882 C881 1.398 . S
C882 C883 1.391 . S
C883 H871 0.950 . S
C883 C879 1.393 . S
C883 C882 1.391 . S
H884 C892 0.950 . S
H885 C897 0.950 . S
H886 C894 0.950 . S
H887 C896 0.950 . S
H888 C898 0.950 . S
H889 C900 0.950 . S
H890 C902 0.950 . S
H891 C903 0.950 . S
C892 H884 0.950 . S
C892 C893 1.386 . S
C892 C894 1.391 . S
C893 C892 1.386 . S
C893 C897 1.393 . S
C894 H886 0.950 . S
C894 C892 1.391 . S
C894 C895 1.400 . S
C895 C894 1.400 . S
C895 C896 1.398 . S
C895 C901 1.491 . S
C896 H887 0.950 . S
C896 C895 1.398 . S
C896 C897 1.391 . S
C897 H885 0.950 . S
C897 C893 1.393 . S
C897 C896 1.391 . S
C898 H888 0.950 . S
C898 C899 1.386 . S
C898 C900 1.391 . S
C899 C898 1.386 . S
C899 C903 1.393 . S
C900 H889 0.950 . S
C900 C898 1.391 . S
C900 C901 1.400 . S
C901 C895 1.491 . S
C901 C900 1.400 . S
C901 C902 1.398 . S
C902 H890 0.950 . S
C902 C901 1.398 . S
C902 C903 1.391 . S
C903 H891 0.950 . S
C903 C899 1.393 . S
C903 C902 1.391 . S
H904 C912 0.950 . S
H905 C917 0.950 . S
H906 C914 0.950 . S
H907 C916 0.950 . S
H908 C918 0.950 . S
H909 C920 0.950 . S
H910 C922 0.950 . S
H911 C923 0.950 . S
C912 H904 0.950 . S
C912 C913 1.386 . S
C912 C914 1.391 . S
C913 C912 1.386 . S
C913 C917 1.393 . S
C914 H906 0.950 . S
C914 C912 1.391 . S
C914 C915 1.400 . S
C915 C914 1.400 . S
C915 C916 1.398 . S
C915 C921 1.491 . S
C916 H907 0.950 . S
C916 C915 1.398 . S
C916 C917 1.391 . S
C917 H905 0.950 . S
C917 C913 1.393 . S
C917 C916 1.391 . S
C918 H908 0.950 . S
C918 C919 1.386 . S
C918 C920 1.391 . S
C919 C918 1.386 . S
C919 C923 1.393 . S
C920 H909 0.950 . S
C920 C918 1.391 . S
C920 C921 1.400 . S
C921 C915 1.491 . S
C921 C920 1.400 . S
C921 C922 1.398 . S
C922 H910 0.950 . S
C922 C921 1.398 . S
C922 C923 1.391 . S
C923 H911 0.950 . S
C923 C919 1.393 . S
C923 C922 1.391 . S
H924 C932 0.950 . S
H925 C937 0.950 . S
H926 C934 0.950 . S
H927 C936 0.950 . S
H928 C938 0.950 . S
H929 C940 0.950 . S
H930 C942 0.950 . S
H931 C943 0.950 . S
C932 H924 0.950 . S
C932 C933 1.386 . S
C932 C934 1.391 . S
C933 C932 1.386 . S
C933 C937 1.393 . S
C934 H926 0.950 . S
C934 C932 1.391 . S
C934 C935 1.400 . S
C935 C934 1.400 . S
C935 C936 1.398 . S
C935 C941 1.491 . S
C936 H927 0.950 . S
C936 C935 1.398 . S
C936 C937 1.391 . S
C937 H925 0.950 . S
C937 C933 1.393 . S
C937 C936 1.391 . S
C938 H928 0.950 . S
C938 C939 1.386 . S
C938 C940 1.391 . S
C939 C938 1.386 . S
C939 C943 1.393 . S
C940 H929 0.950 . S
C940 C938 1.391 . S
C940 C941 1.400 . S
C941 C935 1.491 . S
C941 C940 1.400 . S
C941 C942 1.398 . S
C942 H930 0.950 . S
C942 C941 1.398 . S
C942 C943 1.391 . S
C943 H931 0.950 . S
C943 C939 1.393 . S
C943 C942 1.391 . S
H944 C952 0.950 . S
H945 C957 0.950 . S
H946 C954 0.950 . S
H947 C956 0.950 . S
H948 C958 0.950 . S
H949 C960 0.950 . S
H950 C962 0.950 . S
H951 C963 0.950 . S
C952 H944 0.950 . S
C952 C953 1.386 . S
C952 C954 1.391 . S
C953 C952 1.386 . S
C953 C957 1.393 . S
C954 H946 0.950 . S
C954 C952 1.391 . S
C954 C955 1.400 . S
C955 C954 1.400 . S
C955 C956 1.398 . S
C955 C961 1.491 . S
C956 H947 0.950 . S
C956 C955 1.398 . S
C956 C957 1.391 . S
C957 H945 0.950 . S
C957 C953 1.393 . S
C957 C956 1.391 . S
C958 H948 0.950 . S
C958 C959 1.386 . S
C958 C960 1.391 . S
C959 C958 1.386 . S
C959 C963 1.393 . S
C960 H949 0.950 . S
C960 C958 1.391 . S
C960 C961 1.400 . S
C961 C955 1.491 . S
C961 C960 1.400 . S
C961 C962 1.398 . S
C962 H950 0.950 . S
C962 C961 1.398 . S
C962 C963 1.391 . S
C963 H951 0.950 . S
C963 C959 1.393 . S
C963 C962 1.391 . S
H964 C972 0.950 . S
H965 C977 0.950 . S
H966 C974 0.950 . S
H967 C976 0.950 . S
H968 C978 0.950 . S
H969 C980 0.950 . S
H970 C982 0.950 . S
H971 C983 0.950 . S
C972 H964 0.950 . S
C972 C973 1.386 . S
C972 C974 1.391 . S
C973 C972 1.386 . S
C973 C977 1.393 . S
C974 H966 0.950 . S
C974 C972 1.391 . S
C974 C975 1.400 . S
C975 C974 1.400 . S
C975 C976 1.398 . S
C975 C981 1.491 . S
C976 H967 0.950 . S
C976 C975 1.398 . S
C976 C977 1.391 . S
C977 H965 0.950 . S
C977 C973 1.393 . S
C977 C976 1.391 . S
C978 H968 0.950 . S
C978 C979 1.386 . S
C978 C980 1.391 . S
C979 C978 1.386 . S
C979 C983 1.393 . S
C980 H969 0.950 . S
C980 C978 1.391 . S
C980 C981 1.400 . S
C981 C975 1.491 . S
C981 C980 1.400 . S
C981 C982 1.398 . S
C982 H970 0.950 . S
C982 C981 1.398 . S
C982 C983 1.391 . S
C983 H971 0.950 . S
C983 C979 1.393 . S
C983 C982 1.391 . S
H984 C992 0.950 . S
H985 C997 0.950 . S
H986 C994 0.950 . S
H987 C996 0.950 . S
H988 C998 0.950 . S
H989 C1000 0.950 . S
H990 C1002 0.950 . S
H991 C1003 0.950 . S
C992 H984 0.950 . S
C992 C993 1.386 . S
C992 C994 1.391 . S
C993 C992 1.386 . S
C993 C997 1.393 . S
C994 H986 0.950 . S
C994 C992 1.391 . S
C994 C995 1.400 . S
C995 C994 1.400 . S
C995 C996 1.398 . S
C995 C1001 1.491 . S
C996 H987 0.950 . S
C996 C995 1.398 . S
C996 C997 1.391 . S
C997 H985 0.950 . S
C997 C993 1.393 . S
C997 C996 1.391 . S
C998 H988 0.950 . S
C998 C999 1.386 . S
C998 C1000 1.391 . S
C999 C998 1.386 . S
C999 C1003 1.393 . S
C1000 H989 0.950 . S
C1000 C998 1.391 . S
C1000 C1001 1.400 . S
C1001 C995 1.491 . S
C1001 C1000 1.400 . S
C1001 C1002 1.398 . S
C1002 H990 0.950 . S
C1002 C1001 1.398 . S
C1002 C1003 1.391 . S
C1003 H991 0.950 . S
C1003 C999 1.393 . S
C1003 C1002 1.391 . S
H1004 C1012 0.950 . S
H1005 C1017 0.950 . S
H1006 C1014 0.950 . S
H1007 C1016 0.950 . S
H1008 C1018 0.950 . S
H1009 C1020 0.950 . S
H1010 C1022 0.950 . S
H1011 C1023 0.950 . S
C1012 H1004 0.950 . S
C1012 C1013 1.386 . S
C1012 C1014 1.391 . S
C1013 C1012 1.386 . S
C1013 C1017 1.393 . S
C1014 H1006 0.950 . S
C1014 C1012 1.391 . S
C1014 C1015 1.400 . S
C1015 C1014 1.400 . S
C1015 C1016 1.398 . S
C1015 C1021 1.491 . S
C1016 H1007 0.950 . S
C1016 C1015 1.398 . S
C1016 C1017 1.391 . S
C1017 H1005 0.950 . S
C1017 C1013 1.393 . S
C1017 C1016 1.391 . S
C1018 H1008 0.950 . S
C1018 C1019 1.386 . S
C1018 C1020 1.391 . S
C1019 C1018 1.386 . S
C1019 C1023 1.393 . S
C1020 H1009 0.950 . S
C1020 C1018 1.391 . S
C1020 C1021 1.400 . S
C1021 C1015 1.491 . S
C1021 C1020 1.400 . S
C1021 C1022 1.398 . S
C1022 H1010 0.950 . S
C1022 C1021 1.398 . S
C1022 C1023 1.391 . S
C1023 H1011 0.950 . S
C1023 C1019 1.393 . S
C1023 C1022 1.391 . S
H1024 C1032 0.950 . S
H1025 C1037 0.950 . S
H1026 C1034 0.950 . S
H1027 C1036 0.950 . S
H1028 C1038 0.950 1_455 S
H1029 C1040 0.950 . S
H1030 C1042 0.950 . S
H1031 C1043 0.950 . S
C1032 H1024 0.950 . S
C1032 C1033 1.386 . S
C1032 C1034 1.391 . S
C1033 C1032 1.386 . S
C1033 C1037 1.393 . S
C1034 H1026 0.950 . S
C1034 C1032 1.391 . S
C1034 C1035 1.400 . S
C1035 C1034 1.400 . S
C1035 C1036 1.398 . S
C1035 C1041 1.491 . S
C1036 H1027 0.950 . S
C1036 C1035 1.398 . S
C1036 C1037 1.391 . S
C1037 H1025 0.950 . S
C1037 C1033 1.393 . S
C1037 C1036 1.391 . S
C1038 H1028 0.950 1_655 S
C1038 C1039 1.386 . S
C1038 C1040 1.391 . S
C1039 C1038 1.386 . S
C1039 C1043 1.393 . S
C1040 H1029 0.950 . S
C1040 C1038 1.391 . S
C1040 C1041 1.400 . S
C1041 C1035 1.491 . S
C1041 C1040 1.400 . S
C1041 C1042 1.398 . S
C1042 H1030 0.950 . S
C1042 C1041 1.398 . S
C1042 C1043 1.391 . S
C1043 H1031 0.950 . S
C1043 C1039 1.393 . S
C1043 C1042 1.391 . S
H1044 C1052 0.950 . S
H1045 C1057 0.950 . S
H1046 C1054 0.950 . S
H1047 C1056 0.950 . S
H1048 C1058 0.950 . S
H1049 C1060 0.950 . S
H1050 C1062 0.950 . S
H1051 C1063 0.950 . S
C1052 H1044 0.950 . S
C1052 C1053 1.386 . S
C1052 C1054 1.391 . S
C1053 C1052 1.386 . S
C1053 C1057 1.393 . S
C1054 H1046 0.950 . S
C1054 C1052 1.391 . S
C1054 C1055 1.400 . S
C1055 C1054 1.400 . S
C1055 C1056 1.398 . S
C1055 C1061 1.491 . S
C1056 H1047 0.950 . S
C1056 C1055 1.398 . S
C1056 C1057 1.391 . S
C1057 H1045 0.950 . S
C1057 C1053 1.393 . S
C1057 C1056 1.391 . S
C1058 H1048 0.950 . S
C1058 C1059 1.386 . S
C1058 C1060 1.391 . S
C1059 C1058 1.386 . S
C1059 C1063 1.393 . S
C1060 H1049 0.950 . S
C1060 C1058 1.391 . S
C1060 C1061 1.400 . S
C1061 C1055 1.491 . S
C1061 C1060 1.400 . S
C1061 C1062 1.398 . S
C1062 H1050 0.950 . S
C1062 C1061 1.398 . S
C1062 C1063 1.391 . S
C1063 H1051 0.950 . S
C1063 C1059 1.393 . S
C1063 C1062 1.391 . S
H1064 C1072 0.950 . S
H1065 C1077 0.950 . S
H1066 C1074 0.950 . S
H1067 C1076 0.950 . S
H1068 C1078 0.950 . S
H1069 C1080 0.950 . S
H1070 C1082 0.950 . S
H1071 C1083 0.950 . S
C1072 H1064 0.950 . S
C1072 C1073 1.386 . S
C1072 C1074 1.391 . S
C1073 C1072 1.386 . S
C1073 C1077 1.393 . S
C1074 H1066 0.950 . S
C1074 C1072 1.391 . S
C1074 C1075 1.400 . S
C1075 C1074 1.400 . S
C1075 C1076 1.398 . S
C1075 C1081 1.491 . S
C1076 H1067 0.950 . S
C1076 C1075 1.398 . S
C1076 C1077 1.391 . S
C1077 H1065 0.950 . S
C1077 C1073 1.393 . S
C1077 C1076 1.391 . S
C1078 H1068 0.950 . S
C1078 C1079 1.386 . S
C1078 C1080 1.391 . S
C1079 C1078 1.386 . S
C1079 C1083 1.393 . S
C1080 H1069 0.950 . S
C1080 C1078 1.391 . S
C1080 C1081 1.400 . S
C1081 C1075 1.491 . S
C1081 C1080 1.400 . S
C1081 C1082 1.398 . S
C1082 H1070 0.950 . S
C1082 C1081 1.398 . S
C1082 C1083 1.391 . S
C1083 H1071 0.950 . S
C1083 C1079 1.393 . S
C1083 C1082 1.391 . S
H1084 C1092 0.950 . S
H1085 C1097 0.950 . S
H1086 C1094 0.950 . S
H1087 C1096 0.950 . S
H1088 C1098 0.950 . S
H1089 C1100 0.950 . S
H1090 C1102 0.950 . S
H1091 C1103 0.950 . S
C1092 H1084 0.950 . S
C1092 C1093 1.386 . S
C1092 C1094 1.391 . S
C1093 C1092 1.386 . S
C1093 C1097 1.393 . S
C1094 H1086 0.950 . S
C1094 C1092 1.391 . S
C1094 C1095 1.400 . S
C1095 C1094 1.400 . S
C1095 C1096 1.398 . S
C1095 C1101 1.491 . S
C1096 H1087 0.950 . S
C1096 C1095 1.398 . S
C1096 C1097 1.391 . S
C1097 H1085 0.950 . S
C1097 C1093 1.393 . S
C1097 C1096 1.391 . S
C1098 H1088 0.950 . S
C1098 C1099 1.386 . S
C1098 C1100 1.391 . S
C1099 C1098 1.386 . S
C1099 C1103 1.393 . S
C1100 H1089 0.950 . S
C1100 C1098 1.391 . S
C1100 C1101 1.400 . S
C1101 C1095 1.491 . S
C1101 C1100 1.400 . S
C1101 C1102 1.398 . S
C1102 H1090 0.950 . S
C1102 C1101 1.398 . S
C1102 C1103 1.391 . S
C1103 H1091 0.950 . S
C1103 C1099 1.393 . S
C1103 C1102 1.391 . S
C633 C247 1.479 . S
C639 C362 1.457 . S
C659 C446 1.458 . S
C653 C283 1.479 . S
C679 C439 1.470 . S
C673 C175 1.473 . S
C693 C211 1.472 . S
C699 C355 1.466 . S
C719 C519 1.468 . S
C713 C103 1.464 . S
C739 C603 1.466 . S
C733 C139 1.460 . S
C753 C31 1.460 . S
C759 C596 1.471 . S
C773 C67 1.460 . S
C779 C512 1.471 . S
C799 C346 1.340 . S
C793 C37 1.510 1_554 S
C819 C430 1.358 . S
C813 C1 1.515 . S
C839 C441 1.412 . S
C833 C109 1.534 1_556 S
C859 C357 1.419 . S
C853 C73 1.527 . S
C879 C525 1.326 . S
C873 C181 1.521 1_556 S
C893 C145 1.521 . S
C899 C609 1.320 . S
C919 C598 1.383 . S
C913 C253 1.539 1_554 S
C933 C217 1.540 . S
C939 C514 1.382 . S
C959 C344 1.575 . S
C953 C25 1.557 . S
C979 C428 1.574 . S
C973 C61 1.554 . S
C993 C97 1.545 . S
C999 C435 1.554 . S
C1019 C351 1.552 . S
C1013 C133 1.548 . S
C1039 C523 1.573 . S
C1033 C169 1.567 . S
C1053 C205 1.575 . S
C1059 C607 1.578 . S
C1073 C241 1.561 . S
C1079 C614 1.561 . S
C1093 C277 1.560 . S
C1099 C530 1.563 . S
