# Generated by pormake.
# Topology ptr, (4,4)-cn, num edge types: 1
# Building blocks:
#     Node 0, Type 0, BuildingBlock: CEKHIL_clean_sbu_0, # of connection points: 4
#     Node 1, Type 0, BuildingBlock: CEKHIL_clean_sbu_0, # of connection points: 4
#     Node 2, Type 0, BuildingBlock: CEKHIL_clean_sbu_0, # of connection points: 4
#     Node 3, Type 0, BuildingBlock: CEKHIL_clean_sbu_0, # of connection points: 4
#     Node 4, Type 0, BuildingBlock: CEKHIL_clean_sbu_0, # of connection points: 4
#     Node 5, Type 0, BuildingBlock: CEKHIL_clean_sbu_0, # of connection points: 4
#     Node 6, Type 0, BuildingBlock: CEKHIL_clean_sbu_0, # of connection points: 4
#     Node 7, Type 0, BuildingBlock: CEKHIL_clean_sbu_0, # of connection points: 4
#     Node 8, Type 0, BuildingBlock: CEKHIL_clean_sbu_0, # of connection points: 4
#     Node 9, Type 0, BuildingBlock: CEKHIL_clean_sbu_0, # of connection points: 4
#     Node 10, Type 0, BuildingBlock: CEKHIL_clean_sbu_0, # of connection points: 4
#     Node 11, Type 0, BuildingBlock: CEKHIL_clean_sbu_0, # of connection points: 4
#     Node 12, Type 0, BuildingBlock: CEKHIL_clean_sbu_0, # of connection points: 4
#     Node 13, Type 0, BuildingBlock: CEKHIL_clean_sbu_0, # of connection points: 4
#     Node 14, Type 0, BuildingBlock: CEKHIL_clean_sbu_0, # of connection points: 4
#     Node 15, Type 0, BuildingBlock: CEKHIL_clean_sbu_0, # of connection points: 4
#     Node 16, Type 0, BuildingBlock: CEKHIL_clean_sbu_0, # of connection points: 4
#     Node 17, Type 0, BuildingBlock: CEKHIL_clean_sbu_0, # of connection points: 4
#     Node 18, Type 1, BuildingBlock: AZAVOO_clean_linker_0, # of connection points: 4
#     Node 19, Type 1, BuildingBlock: AZAVOO_clean_linker_0, # of connection points: 4
#     Node 20, Type 1, BuildingBlock: AZAVOO_clean_linker_0, # of connection points: 4
#     Node 21, Type 1, BuildingBlock: AZAVOO_clean_linker_0, # of connection points: 4
#     Node 22, Type 1, BuildingBlock: AZAVOO_clean_linker_0, # of connection points: 4
#     Node 23, Type 1, BuildingBlock: AZAVOO_clean_linker_0, # of connection points: 4
#     Node 24, Type 1, BuildingBlock: AZAVOO_clean_linker_0, # of connection points: 4
#     Node 25, Type 1, BuildingBlock: AZAVOO_clean_linker_0, # of connection points: 4
#     Node 26, Type 1, BuildingBlock: AZAVOO_clean_linker_0, # of connection points: 4
#     Node 27, Type 1, BuildingBlock: AZAVOO_clean_linker_0, # of connection points: 4
#     Node 28, Type 1, BuildingBlock: AZAVOO_clean_linker_0, # of connection points: 4
#     Node 29, Type 1, BuildingBlock: AZAVOO_clean_linker_0, # of connection points: 4
#     Node 30, Type 1, BuildingBlock: AZAVOO_clean_linker_0, # of connection points: 4
#     Node 31, Type 1, BuildingBlock: AZAVOO_clean_linker_0, # of connection points: 4
#     Node 32, Type 1, BuildingBlock: AZAVOO_clean_linker_0, # of connection points: 4
#     Node 33, Type 1, BuildingBlock: AZAVOO_clean_linker_0, # of connection points: 4
#     Node 34, Type 1, BuildingBlock: AZAVOO_clean_linker_0, # of connection points: 4
#     Node 35, Type 1, BuildingBlock: AZAVOO_clean_linker_0, # of connection points: 4
#     Edge 36, Type (0, 1), BuildingBlock: OJICUG_clean_linker_0, # of connection points: 2
#     Edge 37, Type (0, 1), BuildingBlock: OJICUG_clean_linker_0, # of connection points: 2
#     Edge 38, Type (0, 1), BuildingBlock: OJICUG_clean_linker_0, # of connection points: 2
#     Edge 39, Type (0, 1), BuildingBlock: OJICUG_clean_linker_0, # of connection points: 2
#     Edge 40, Type (0, 1), BuildingBlock: OJICUG_clean_linker_0, # of connection points: 2
#     Edge 41, Type (0, 1), BuildingBlock: OJICUG_clean_linker_0, # of connection points: 2
#     Edge 42, Type (0, 1), BuildingBlock: OJICUG_clean_linker_0, # of connection points: 2
#     Edge 43, Type (0, 1), BuildingBlock: OJICUG_clean_linker_0, # of connection points: 2
#     Edge 44, Type (0, 1), BuildingBlock: OJICUG_clean_linker_0, # of connection points: 2
#     Edge 45, Type (0, 1), BuildingBlock: OJICUG_clean_linker_0, # of connection points: 2
#     Edge 46, Type (0, 1), BuildingBlock: OJICUG_clean_linker_0, # of connection points: 2
#     Edge 47, Type (0, 1), BuildingBlock: OJICUG_clean_linker_0, # of connection points: 2
#     Edge 48, Type (0, 1), BuildingBlock: OJICUG_clean_linker_0, # of connection points: 2
#     Edge 49, Type (0, 1), BuildingBlock: OJICUG_clean_linker_0, # of connection points: 2
#     Edge 50, Type (0, 1), BuildingBlock: OJICUG_clean_linker_0, # of connection points: 2
#     Edge 51, Type (0, 1), BuildingBlock: OJICUG_clean_linker_0, # of connection points: 2
#     Edge 52, Type (0, 1), BuildingBlock: OJICUG_clean_linker_0, # of connection points: 2
#     Edge 53, Type (0, 1), BuildingBlock: OJICUG_clean_linker_0, # of connection points: 2
#     Edge 54, Type (0, 1), BuildingBlock: OJICUG_clean_linker_0, # of connection points: 2
#     Edge 55, Type (0, 1), BuildingBlock: OJICUG_clean_linker_0, # of connection points: 2
#     Edge 56, Type (0, 1), BuildingBlock: OJICUG_clean_linker_0, # of connection points: 2
#     Edge 57, Type (0, 1), BuildingBlock: OJICUG_clean_linker_0, # of connection points: 2
#     Edge 58, Type (0, 1), BuildingBlock: OJICUG_clean_linker_0, # of connection points: 2
#     Edge 59, Type (0, 1), BuildingBlock: OJICUG_clean_linker_0, # of connection points: 2
#     Edge 60, Type (0, 1), BuildingBlock: OJICUG_clean_linker_0, # of connection points: 2
#     Edge 61, Type (0, 1), BuildingBlock: OJICUG_clean_linker_0, # of connection points: 2
#     Edge 62, Type (0, 1), BuildingBlock: OJICUG_clean_linker_0, # of connection points: 2
#     Edge 63, Type (0, 1), BuildingBlock: OJICUG_clean_linker_0, # of connection points: 2
#     Edge 64, Type (0, 1), BuildingBlock: OJICUG_clean_linker_0, # of connection points: 2
#     Edge 65, Type (0, 1), BuildingBlock: OJICUG_clean_linker_0, # of connection points: 2
#     Edge 66, Type (0, 1), BuildingBlock: OJICUG_clean_linker_0, # of connection points: 2
#     Edge 67, Type (0, 1), BuildingBlock: OJICUG_clean_linker_0, # of connection points: 2
#     Edge 68, Type (0, 1), BuildingBlock: OJICUG_clean_linker_0, # of connection points: 2
#     Edge 69, Type (0, 1), BuildingBlock: OJICUG_clean_linker_0, # of connection points: 2
#     Edge 70, Type (0, 1), BuildingBlock: OJICUG_clean_linker_0, # of connection points: 2
#     Edge 71, Type (0, 1), BuildingBlock: OJICUG_clean_linker_0, # of connection points: 2
#     Edge 72, Type (0, 1), BuildingBlock: OJICUG_clean_linker_0, # of connection points: 2
#     Edge 73, Type (0, 1), BuildingBlock: OJICUG_clean_linker_0, # of connection points: 2
#     Edge 74, Type (0, 1), BuildingBlock: OJICUG_clean_linker_0, # of connection points: 2
#     Edge 75, Type (0, 1), BuildingBlock: OJICUG_clean_linker_0, # of connection points: 2
#     Edge 76, Type (0, 1), BuildingBlock: OJICUG_clean_linker_0, # of connection points: 2
#     Edge 77, Type (0, 1), BuildingBlock: OJICUG_clean_linker_0, # of connection points: 2
#     Edge 78, Type (0, 1), BuildingBlock: OJICUG_clean_linker_0, # of connection points: 2
#     Edge 79, Type (0, 1), BuildingBlock: OJICUG_clean_linker_0, # of connection points: 2
#     Edge 80, Type (0, 1), BuildingBlock: OJICUG_clean_linker_0, # of connection points: 2
#     Edge 81, Type (0, 1), BuildingBlock: OJICUG_clean_linker_0, # of connection points: 2
#     Edge 82, Type (0, 1), BuildingBlock: OJICUG_clean_linker_0, # of connection points: 2
#     Edge 83, Type (0, 1), BuildingBlock: OJICUG_clean_linker_0, # of connection points: 2
#     Edge 84, Type (0, 1), BuildingBlock: OJICUG_clean_linker_0, # of connection points: 2
#     Edge 85, Type (0, 1), BuildingBlock: OJICUG_clean_linker_0, # of connection points: 2
#     Edge 86, Type (0, 1), BuildingBlock: OJICUG_clean_linker_0, # of connection points: 2
#     Edge 87, Type (0, 1), BuildingBlock: OJICUG_clean_linker_0, # of connection points: 2
#     Edge 88, Type (0, 1), BuildingBlock: OJICUG_clean_linker_0, # of connection points: 2
#     Edge 89, Type (0, 1), BuildingBlock: OJICUG_clean_linker_0, # of connection points: 2
#     Edge 90, Type (0, 1), BuildingBlock: OJICUG_clean_linker_0, # of connection points: 2
#     Edge 91, Type (0, 1), BuildingBlock: OJICUG_clean_linker_0, # of connection points: 2
#     Edge 92, Type (0, 1), BuildingBlock: OJICUG_clean_linker_0, # of connection points: 2
#     Edge 93, Type (0, 1), BuildingBlock: OJICUG_clean_linker_0, # of connection points: 2
#     Edge 94, Type (0, 1), BuildingBlock: OJICUG_clean_linker_0, # of connection points: 2
#     Edge 95, Type (0, 1), BuildingBlock: OJICUG_clean_linker_0, # of connection points: 2
#     Edge 96, Type (0, 1), BuildingBlock: OJICUG_clean_linker_0, # of connection points: 2
#     Edge 97, Type (0, 1), BuildingBlock: OJICUG_clean_linker_0, # of connection points: 2
#     Edge 98, Type (0, 1), BuildingBlock: OJICUG_clean_linker_0, # of connection points: 2
#     Edge 99, Type (0, 1), BuildingBlock: OJICUG_clean_linker_0, # of connection points: 2
#     Edge 100, Type (0, 1), BuildingBlock: OJICUG_clean_linker_0, # of connection points: 2
#     Edge 101, Type (0, 1), BuildingBlock: OJICUG_clean_linker_0, # of connection points: 2
#     Edge 102, Type (0, 1), BuildingBlock: OJICUG_clean_linker_0, # of connection points: 2
#     Edge 103, Type (0, 1), BuildingBlock: OJICUG_clean_linker_0, # of connection points: 2
#     Edge 104, Type (0, 1), BuildingBlock: OJICUG_clean_linker_0, # of connection points: 2
#     Edge 105, Type (0, 1), BuildingBlock: OJICUG_clean_linker_0, # of connection points: 2
#     Edge 106, Type (0, 1), BuildingBlock: OJICUG_clean_linker_0, # of connection points: 2
#     Edge 107, Type (0, 1), BuildingBlock: OJICUG_clean_linker_0, # of connection points: 2
# Relax obj value: 0.055
# Max RMSD: 0.174
# Mean RMSD: 0.116
data_MOF--net-ptr--node1-CEKHIL_clean_sbu_0--node2-AZAVOO_clean_linker_0--edge1-OJICUG_clean_linker_0
_symmetry_space_group_name_H-M    P1
_symmetry_Int_Tables_number       1
_symmetry_cell_setting            triclinic
loop_
_symmetry_equiv_pos_as_xyz
'x, y, z'
_cell_length_a     64.010825
_cell_length_b     61.866888
_cell_length_c     53.545941
_cell_angle_alpha  94.091547
_cell_angle_beta   92.061089
_cell_angle_gamma 121.23281
loop_
_atom_site_label
_atom_site_type_symbol
_atom_site_fract_x
_atom_site_fract_y
_atom_site_fract_z
_atom_type_partial_charge
Co0 Co 0.00666 0.35196 0.02195 0.0
O1 O 0.01427 0.33553 0.04665 0.0
O2 O 0.04157 0.37154 0.03227 0.0
C3 C 0.98235 0.31645 0.99598 0.0
O4 O 0.00498 0.37353 0.9955 0.0
Co5 Co 0.95228 0.33705 0.01135 0.0
O6 O 0.96526 0.35518 0.98137 0.0
C7 C 0.98169 0.37176 0.05615 0.0
C8 C 0.03687 0.35392 0.04697 0.0
C9 C 0.98793 0.37133 0.97994 0.0
O10 O 1.00078 0.37194 0.04912 0.0
O11 O 0.96034 0.35795 0.04452 0.0
O12 O 0.00601 0.32824 0.99517 0.0
O13 O 0.9747 0.32509 0.01372 0.0
Co14 Co 0.64285 0.63059 0.06943 0.0
O15 O 0.66657 0.65023 0.04694 0.0
O16 O 0.65795 0.61235 0.05648 0.0
C17 C 0.65484 0.66283 0.09943 0.0
O18 O 0.61996 0.60552 0.09277 0.0
Co19 Co 0.60378 0.64437 0.0829 0.0
O20 O 0.59745 0.62077 0.1087 0.0
C21 C 0.60031 0.61935 0.03283 0.0
C22 C 0.67088 0.63195 0.04423 0.0
C23 C 0.60466 0.60502 0.10808 0.0
O24 O 0.61656 0.61448 0.04062 0.0
O25 O 0.59441 0.63314 0.04606 0.0
O26 O 0.66665 0.65095 0.09821 0.0
O27 O 0.63815 0.65646 0.08147 0.0
Co28 Co 0.37313 0.99581 0.02025 0.0
O29 O 0.35517 0.00434 0.99801 0.0
O30 O 0.39029 0.03256 0.01964 0.0
C31 C 0.34057 0.96932 0.04046 0.0
O32 O 0.39584 0.99303 0.04596 0.0
Co33 Co 0.36052 0.94049 0.01474 0.0
O34 O 0.38287 0.9515 0.04571 0.0
C35 C 0.38938 0.97386 0.97748 0.0
C36 C 0.37196 0.02793 0.00409 0.0
C37 C 0.39682 0.97465 0.0547 0.0
O38 O 0.39115 0.99262 0.99144 0.0
O39 O 0.37601 0.95077 0.98225 0.0
O40 O 0.35277 0.99364 0.04686 0.0
O41 O 0.34685 0.96187 0.02039 0.0
Co42 Co 0.99462 0.64141 0.05027 0.0
O43 O 0.98792 0.65927 0.02645 0.0
O44 O 0.95979 0.62303 0.03982 0.0
C45 C 0.01974 0.67588 0.07727 0.0
O46 O 0.99522 0.61836 0.07541 0.0
Co47 Co 0.04876 0.65461 0.05931 0.0
O48 O 0.03458 0.62956 0.08421 0.0
C49 C 0.01883 0.62297 0.0136 0.0
C50 C 0.96512 0.64123 0.02569 0.0
C51 C 0.01175 0.61593 0.08705 0.0
O52 O 0.99972 0.62146 0.02237 0.0
O53 O 0.04056 0.63745 0.02417 0.0
O54 O 0.99612 0.66486 0.07802 0.0
O55 O 0.02688 0.66731 0.059 0.0
Co56 Co 0.36152 0.37128 -0.00064 0.0
O57 O 0.33705 0.35095 0.02089 0.0
O58 O 0.34661 0.38955 0.013 0.0
C59 C 0.34964 0.34005 0.96829 0.0
O60 O 0.38547 0.39715 0.97711 0.0
Co61 Co 0.40027 0.35719 0.98605 0.0
O62 O 0.40707 0.3811 0.96055 0.0
C63 C 0.40413 0.38219 0.03618 0.0
C64 C 0.33321 0.36949 0.02451 0.0
C65 C 0.40067 0.3975 0.96171 0.0
O66 O 0.38694 0.38585 0.02888 0.0
O67 O 0.41118 0.36975 0.02246 0.0
O68 O 0.33832 0.35241 0.9699 0.0
O69 O 0.36579 0.34527 0.98651 0.0
Co70 Co 0.63358 0.0085 0.05554 0.0
O71 O 0.65242 0.00106 0.07774 0.0
O72 O 0.61725 0.97189 0.05688 0.0
C73 C 0.66553 0.035 0.03474 0.0
O74 O 0.61021 0.01017 0.02968 0.0
Co75 Co 0.64439 0.06294 0.05998 0.0
O76 O 0.62582 0.05174 0.02656 0.0
C77 C 0.6152 0.02967 0.09714 0.0
C78 C 0.6361 0.97727 0.07206 0.0
C79 C 0.61113 0.02844 0.01854 0.0
O80 O 0.61558 0.01148 0.08443 0.0
O81 O 0.62688 0.05255 0.09141 0.0
O82 O 0.65365 0.01063 0.0288 0.0
O83 O 0.65938 0.04269 0.0548 0.0
Co84 Co 0.6687 0.6845 0.35286 0.0
O85 O 0.67648 0.66784 0.3772 0.0
O86 O 0.70335 0.70481 0.36414 0.0
C87 C 0.6456 0.64944 0.32575 0.0
O88 O 0.66707 0.70668 0.32725 0.0
Co89 Co 0.61382 0.66785 0.34143 0.0
O90 O 0.62734 0.69151 0.31524 0.0
C91 C 0.64121 0.69989 0.38804 0.0
C92 C 0.69887 0.68687 0.37832 0.0
C93 C 0.65017 0.70706 0.31378 0.0
O94 O 0.66128 0.70302 0.38019 0.0
O95 O 0.62004 0.68452 0.37658 0.0
O96 O 0.66935 0.66191 0.32555 0.0
O97 O 0.63722 0.65718 0.34347 0.0
Co98 Co 0.30519 0.96035 0.40279 0.0
O99 O 0.3316 0.97841 0.3822 0.0
O100 O 0.32077 0.94107 0.39532 0.0
C101 C 0.31487 0.99455 0.42953 0.0
O102 O 0.27962 0.93697 0.42549 0.0
Co103 Co 0.26542 0.97501 0.4074 0.0
O104 O 0.25432 0.95131 0.4336 0.0
C105 C 0.26718 0.94851 0.36045 0.0
C106 C 0.33533 0.95977 0.38278 0.0
C107 C 0.26186 0.93619 0.43691 0.0
O108 O 0.28164 0.94294 0.37173 0.0
O109 O 0.26083 0.96329 0.37079 0.0
O110 O 0.32626 0.98247 0.4327 0.0
O111 O 0.2999 0.98675 0.40972 0.0
Co112 Co 0.04462 0.33264 0.35743 0.0
O113 O 0.02853 0.34261 0.33436 0.0
O114 O 0.06329 0.36945 0.3573 0.0
C115 C 0.01044 0.30655 0.37573 0.0
O116 O 0.06567 0.32855 0.38412 0.0
Co117 Co 0.03012 0.27657 0.35305 0.0
O118 O 0.04893 0.28664 0.38636 0.0
C119 C 0.06001 0.30926 0.31558 0.0
C120 C 0.04593 0.36588 0.34092 0.0
C121 C 0.06407 0.30975 0.39478 0.0
O122 O 0.06299 0.32863 0.3295 0.0
O123 O 0.04576 0.28637 0.32052 0.0
O124 O 0.02312 0.33076 0.38289 0.0
O125 O 0.01764 0.29916 0.35643 0.0
Co126 Co 0.65648 0.97255 0.38603 0.0
O127 O 0.65157 0.98853 0.35891 0.0
O128 O 0.62258 0.95265 0.37189 0.0
C129 C 0.67752 0.00827 0.41245 0.0
O130 O 0.65514 0.95106 0.41398 0.0
Co131 Co 0.70975 0.98864 0.40472 0.0
O132 O 0.6933 0.96868 0.43272 0.0
C133 C 0.68597 0.95407 0.35815 0.0
C134 C 0.62885 0.97012 0.3566 0.0
C135 C 0.67034 0.95245 0.43145 0.0
O136 O 0.66573 0.95298 0.362 0.0
O137 O 0.70597 0.96851 0.37203 0.0
O138 O 0.65372 0.99594 0.41038 0.0
O139 O 0.68758 7e-05 0.39718 0.0
Co140 Co 0.0338 0.70927 0.34322 0.0
O141 O 0.00901 0.69041 0.36511 0.0
O142 O 0.01671 0.72678 0.35202 0.0
C143 C 0.02458 0.67563 0.31593 0.0
O144 O 0.05767 0.73309 0.31947 0.0
Co145 Co 0.07492 0.69675 0.33665 0.0
O146 O 0.08122 0.71739 0.30812 0.0
C147 C 0.07428 0.72373 0.38376 0.0
C148 C 0.00364 0.70791 0.3651 0.0
C149 C 0.07359 0.73258 0.30569 0.0
O150 O 0.05849 0.72794 0.37325 0.0
O151 O 0.08118 0.70957 0.37311 0.0
O152 O 0.01196 0.68656 0.31403 0.0
O153 O 0.04026 0.68383 0.33522 0.0
Co154 Co 0.30033 0.33933 0.3852 0.0
O155 O 0.31912 0.33197 0.40754 0.0
O156 O 0.28305 0.30291 0.38822 0.0
C157 C 0.33173 0.36383 0.3627 0.0
O158 O 0.27679 0.34106 0.35966 0.0
Co159 Co 0.31359 0.39473 0.38803 0.0
O160 O 0.29299 0.38261 0.3557 0.0
C161 C 0.28582 0.36399 0.4273 0.0
C162 C 0.30207 0.30827 0.40312 0.0
C163 C 0.27764 0.35924 0.34842 0.0
O164 O 0.28385 0.34463 0.41435 0.0
O165 O 0.29878 0.38663 0.42117 0.0
O166 O 0.31914 0.33931 0.35788 0.0
O167 O 0.3267 0.37277 0.38273 0.0
Co168 Co 0.3464 0.02593 0.68953 0.0
O169 O 0.35284 0.00821 0.71368 0.0
O170 O 0.38066 0.04569 0.70226 0.0
C171 C 0.3243 0.99201 0.66111 0.0
O172 O 0.34603 0.04913 0.6645 0.0
Co173 Co 0.29168 0.00962 0.67662 0.0
O174 O 0.30656 0.036 0.65311 0.0
C175 C 0.3179 0.04065 0.72402 0.0
C176 C 0.37534 0.02711 0.71584 0.0
C177 C 0.32955 0.05092 0.6519 0.0
O178 O 0.33814 0.04378 0.71674 0.0
O179 O 0.29696 0.02551 0.71199 0.0
O180 O 0.34809 0.00419 0.66208 0.0
O181 O 0.31515 0.99904 0.6786 0.0
Co182 Co 0.97025 0.28551 0.72962 0.0
O183 O 0.99759 0.30721 0.71145 0.0
O184 O 0.98794 0.26884 0.72055 0.0
C185 C 0.97647 0.31595 0.75974 0.0
O186 O 0.94417 0.25853 0.74928 0.0
Co187 Co 0.92773 0.29602 0.73464 0.0
O188 O 0.91499 0.26786 0.7562 0.0
C189 C 0.93356 0.27524 0.68625 0.0
C190 C 0.00256 0.28936 0.71028 0.0
C191 C 0.92434 0.25422 0.75885 0.0
O192 O 0.94851 0.27011 0.69716 0.0
O193 O 0.92554 0.28812 0.69745 0.0
O194 O 0.98911 0.30501 0.76141 0.0
O195 O 0.96261 0.30983 0.73925 0.0
Co196 Co 0.70691 0.66638 0.68818 0.0
O197 O 0.68745 0.67314 0.66591 0.0
O198 O 0.72335 0.70264 0.68535 0.0
C199 C 0.67572 0.64113 0.71065 0.0
O200 O 0.73138 0.66623 0.71371 0.0
Co201 Co 0.69639 0.61209 0.68732 0.0
O202 O 0.72063 0.62571 0.71689 0.0
C203 C 0.72297 0.64238 0.64708 0.0
C204 C 0.7042 0.69698 0.67056 0.0
C205 C 0.73404 0.64942 0.72381 0.0
O206 O 0.72349 0.66157 0.65876 0.0
O207 O 0.71174 0.62021 0.65457 0.0
O208 O 0.68785 0.66565 0.71553 0.0
O209 O 0.68133 0.63244 0.69087 0.0
Co210 Co 0.33324 0.31366 0.72405 0.0
O211 O 0.32863 0.33044 0.69742 0.0
O212 O 0.2989 0.29579 0.71152 0.0
C213 C 0.3574 0.34947 0.74989 0.0
O214 O 0.33128 0.29157 0.75174 0.0
Co215 Co 0.38569 0.32565 0.74092 0.0
O216 O 0.36938 0.30778 0.77008 0.0
C217 C 0.35926 0.29233 0.69412 0.0
C218 C 0.3055 0.31317 0.69609 0.0
C219 C 0.34626 0.2925 0.76918 0.0
O220 O 0.33974 0.29242 0.699 0.0
O221 O 0.37972 0.30567 0.70755 0.0
O222 O 0.3337 0.3387 0.74911 0.0
O223 O 0.36539 0.33944 0.73397 0.0
Co224 Co 0.69866 0.03925 0.66864 0.0
O225 O 0.67301 0.01886 0.6891 0.0
O226 O 0.68219 0.05684 0.67938 0.0
C227 C 0.68958 0.0076 0.63875 0.0
O228 O 0.72355 0.06496 0.64701 0.0
Co229 Co 0.7394 0.02648 0.66091 0.0
O230 O 0.7512 0.0538 0.63838 0.0
C231 C 0.73705 0.04916 0.70983 0.0
C232 C 0.66851 0.03702 0.69108 0.0
C233 C 0.74246 0.06805 0.6362 0.0
O234 O 0.72247 0.0551 0.69956 0.0
O235 O 0.7437 0.03522 0.6982 0.0
O236 O 0.67747 0.01916 0.63818 0.0
O237 O 0.70471 0.01393 0.65826 0.0
Co238 Co 0.95871 0.6602 0.71403 0.0
O239 O 0.97443 0.64992 0.73717 0.0
O240 O 0.93952 0.62339 0.71433 0.0
C241 C 0.99296 0.68568 0.69545 0.0
O242 O 0.93806 0.6649 0.68732 0.0
Co243 Co 0.97476 0.7169 0.71868 0.0
O244 O 0.95585 0.70702 0.68545 0.0
C245 C 0.94412 0.68447 0.75593 0.0
C246 C 0.95678 0.62675 0.7307 0.0
C247 C 0.94026 0.68408 0.67687 0.0
O248 O 0.94065 0.66488 0.74198 0.0
O249 O 0.95891 0.70728 0.75109 0.0
O250 O 0.98 0.66144 0.68851 0.0
O251 O 0.98606 0.69336 0.71479 0.0
H252 H 0.1782 0.37831 -0.00038 0.0
H253 H 0.30346 0.31368 0.20511 0.0
H254 H 0.17003 0.38707 0.13306 0.0
H255 H 0.13892 0.39015 0.10925 0.0
H256 H 0.08454 0.31367 0.1239 0.0
H257 H 0.11665 0.30999 0.14535 0.0
H258 H 0.20957 0.38788 0.10588 0.0
H259 H 0.20229 0.39114 0.06152 0.0
H260 H 0.13982 0.31412 0.05405 0.0
H261 H 0.14752 0.311 0.09834 0.0
H262 H 0.25005 0.38835 0.14032 0.0
H263 H 0.28126 0.39495 0.11143 0.0
H264 H 0.23135 0.32057 0.07222 0.0
H265 H 0.20052 0.314 0.10145 0.0
H266 H 0.24665 0.3783 0.19781 0.0
H267 H 0.28111 0.3755 0.21476 0.0
H268 H 0.25232 0.30343 0.16976 0.0
H269 H 0.21783 0.30632 0.15322 0.0
H270 H 0.19748 0.37267 0.22289 0.0
H271 H 0.21352 0.37433 0.26541 0.0
H272 H 0.2112 0.30418 0.24499 0.0
H273 H 0.19336 0.30173 0.20292 0.0
H274 H 0.15423 0.37199 0.19297 0.0
H275 H 0.12542 0.36427 0.22496 0.0
H276 H 0.1135 0.28907 0.22853 0.0
H277 H 0.14113 0.2965 0.19569 0.0
O278 O 0.18081 0.37659 0.0171 0.0
O279 O 0.14877 0.33699 0.01432 0.0
O280 O 0.30528 0.35344 0.22004 0.0
O281 O 0.29069 0.31589 0.19792 0.0
C282 C 0.16614 0.34478 0.14937 0.0
C283 C 0.18343 0.34712 0.13228 0.0
C284 C 0.20436 0.3467 0.1406 0.0
C285 C 0.20771 0.34305 0.16577 0.0
C286 C 0.18991 0.33943 0.18268 0.0
C287 C 0.16892 0.34 0.1744 0.0
C288 C 0.14576 0.34816 0.14059 0.0
C289 C 0.15132 0.37104 0.13127 0.0
C290 C 0.13331 0.37282 0.11776 0.0
C291 C 0.10901 0.352 0.114 0.0
C292 C 0.10313 0.32984 0.12543 0.0
C293 C 0.12138 0.32781 0.13826 0.0
C294 C 0.17915 0.34917 0.10528 0.0
C295 C 0.19445 0.37168 0.09458 0.0
C296 C 0.19018 0.37352 0.06926 0.0
C297 C 0.17047 0.35288 0.05423 0.0
C298 C 0.15516 0.33036 0.06508 0.0
C299 C 0.1595 0.32853 0.09037 0.0
C300 C 0.22313 0.35065 0.12301 0.0
C301 C 0.24595 0.37351 0.12549 0.0
C302 C 0.26362 0.37733 0.10887 0.0
C303 C 0.25875 0.35828 0.08958 0.0
C304 C 0.23573 0.33549 0.08706 0.0
C305 C 0.21808 0.33171 0.10365 0.0
C306 C 0.22974 0.34248 0.17436 0.0
C307 C 0.24794 0.36203 0.19152 0.0
C308 C 0.26757 0.36035 0.20119 0.0
C309 C 0.26938 0.33915 0.19372 0.0
C310 C 0.25143 0.31996 0.17598 0.0
C311 C 0.23179 0.32162 0.16639 0.0
C312 C 0.19464 0.33733 0.20962 0.0
C313 C 0.19961 0.35719 0.22782 0.0
C314 C 0.20913 0.35828 0.25205 0.0
C315 C 0.2144 0.3398 0.25845 0.0
C316 C 0.20746 0.31877 0.24078 0.0
C317 C 0.19742 0.31744 0.21664 0.0
C318 C 0.14978 0.33481 0.19198 0.0
C319 C 0.14494 0.35367 0.2003 0.0
C320 C 0.12871 0.34931 0.21883 0.0
C321 C 0.11721 0.32609 0.22955 0.0
C322 C 0.12166 0.30703 0.22055 0.0
C323 C 0.13763 0.3113 0.20188 0.0
C324 C 0.16595 0.35491 0.02735 0.0
C325 C 0.28961 0.33674 0.20468 0.0
H326 H 0.65822 0.80091 0.009 0.0
H327 H 0.6999 0.00273 0.21291 0.0
H328 H 0.64468 0.78781 0.13967 0.0
H329 H 0.63998 0.74668 0.12882 0.0
H330 H 0.7116 0.77402 0.16633 0.0
H331 H 0.71675 0.81601 0.17581 0.0
H332 H 0.64209 0.82393 0.11179 0.0
H333 H 0.6417 0.81213 0.06713 0.0
H334 H 0.71784 0.83452 0.07844 0.0
H335 H 0.71806 0.84653 0.12303 0.0
H336 H 0.63342 0.85734 0.14774 0.0
H337 H 0.62144 0.8818 0.12342 0.0
H338 H 0.6943 0.92307 0.0983 0.0
H339 H 0.7062 0.89859 0.12296 0.0
H340 H 0.64589 0.87642 0.20373 0.0
H341 H 0.64538 0.9148 0.21709 0.0
H342 H 0.71626 0.96071 0.18872 0.0
H343 H 0.71669 0.92219 0.17583 0.0
H344 H 0.65 0.83947 0.23259 0.0
H345 H 0.65064 0.85969 0.27387 0.0
H346 H 0.72476 0.92078 0.26654 0.0
H347 H 0.72414 0.90005 0.22574 0.0
H348 H 0.6434 0.79123 0.19578 0.0
H349 H 0.63709 0.76029 0.22472 0.0
H350 H 0.71028 0.8113 0.2603 0.0
H351 H 0.71692 0.84187 0.22993 0.0
O352 O 0.65881 0.80579 0.02671 0.0
O353 O 0.69794 0.81751 0.03355 0.0
O354 O 0.66334 0.96281 0.22239 0.0
O355 O 0.69964 0.98725 0.20785 0.0
C356 C 0.68288 0.82934 0.16602 0.0
C357 C 0.68059 0.84358 0.14774 0.0
C358 C 0.67859 0.86464 0.15546 0.0
C359 C 0.68189 0.87331 0.18119 0.0
C360 C 0.68481 0.85946 0.19943 0.0
C361 C 0.68396 0.8367 0.19192 0.0
C362 C 0.6812 0.805 0.15813 0.0
C363 C 0.6596 0.78514 0.14506 0.0
C364 C 0.65674 0.76144 0.13941 0.0
C365 C 0.67523 0.7569 0.14718 0.0
C366 C 0.69705 0.77693 0.16008 0.0
C367 C 0.70002 0.80087 0.16548 0.0
C368 C 0.68018 0.83636 0.12059 0.0
C369 C 0.65873 0.82652 0.10454 0.0
C370 C 0.65853 0.81967 0.07906 0.0
C371 C 0.67976 0.82244 0.06919 0.0
C372 C 0.70119 0.83218 0.08541 0.0
C373 C 0.70136 0.83906 0.11088 0.0
C374 C 0.67069 0.87639 0.13717 0.0
C375 C 0.64659 0.87127 0.13648 0.0
C376 C 0.63974 0.88512 0.1225 0.0
C377 C 0.65698 0.90443 0.10914 0.0
C378 C 0.68072 0.90842 0.10865 0.0
C379 C 0.68753 0.89446 0.12258 0.0
C380 C 0.68142 0.89658 0.18902 0.0
C381 C 0.66135 0.89481 0.20058 0.0
C382 C 0.66107 0.91674 0.2081 0.0
C383 C 0.68082 0.94084 0.20401 0.0
C384 C 0.70079 0.94248 0.19219 0.0
C385 C 0.70108 0.92052 0.18478 0.0
C386 C 0.68705 0.86832 0.22631 0.0
C387 C 0.66663 0.85674 0.24036 0.0
C388 C 0.66693 0.86849 0.26372 0.0
C389 C 0.68763 0.89199 0.27328 0.0
C390 C 0.70862 0.9026 0.25982 0.0
C391 C 0.70832 0.89081 0.23652 0.0
C392 C 0.68063 0.81876 0.21065 0.0
C393 C 0.65817 0.7957 0.20969 0.0
C394 C 0.65453 0.77811 0.22646 0.0
C395 C 0.67308 0.78337 0.24509 0.0
C396 C 0.69568 0.80656 0.24607 0.0
C397 C 0.69943 0.82414 0.22894 0.0
C398 C 0.67948 0.81513 0.04211 0.0
C399 C 0.68064 0.96422 0.212 0.0
H400 H 0.12092 0.81271 0.99885 0.0
H401 H 0.33486 0.99806 0.17326 0.0
H402 H 0.11522 0.83107 0.13195 0.0
H403 H 0.0787 0.78913 0.11894 0.0
H404 H 0.1138 0.7536 0.15338 0.0
H405 H 0.15041 0.79537 0.1654 0.0
H406 H 0.15811 0.87149 0.09758 0.0
H407 H 0.14175 0.8527 0.05433 0.0
H408 H 0.14904 0.78884 0.06844 0.0
H409 H 0.16566 0.80801 0.11154 0.0
H410 H 0.2109 0.91923 0.11856 0.0
H411 H 0.24463 0.94027 0.09174 0.0
H412 H 0.25161 0.8743 0.08625 0.0
H413 H 0.21781 0.85339 0.11305 0.0
H414 H 0.21383 0.93239 0.18058 0.0
H415 H 0.25314 0.97277 0.18699 0.0
H416 H 0.29029 0.93396 0.16354 0.0
H417 H 0.25092 0.89362 0.15774 0.0
H418 H 0.1757 0.89386 0.22014 0.0
H419 H 0.19374 0.91061 0.26331 0.0
H420 H 0.25095 0.895 0.24875 0.0
H421 H 0.23198 0.87706 0.20608 0.0
H422 H 0.12429 0.84337 0.19366 0.0
H423 H 0.09966 0.81558 0.22502 0.0
H424 H 0.15771 0.80178 0.24351 0.0
H425 H 0.18176 0.82884 0.21194 0.0
O426 O 0.1275 0.81984 0.01599 0.0
O427 O 0.13145 0.78735 0.02426 0.0
O428 O 0.29978 0.00065 0.18713 0.0
O429 O 0.31922 0.98218 0.17176 0.0
C430 C 0.15877 0.84103 0.15429 0.0
C431 C 0.17262 0.8525 0.13396 0.0
C432 C 0.19606 0.8747 0.13864 0.0
C433 C 0.20537 0.88593 0.16356 0.0
C434 C 0.19171 0.8742 0.18385 0.0
C435 C 0.16834 0.85179 0.17926 0.0
C436 C 0.13544 0.81618 0.14946 0.0
C437 C 0.11479 0.8142 0.13699 0.0
C438 C 0.09392 0.7903 0.12981 0.0
C439 C 0.09351 0.76814 0.13505 0.0
C440 C 0.11372 0.77036 0.14889 0.0
C441 C 0.13457 0.79417 0.15588 0.0
C442 C 0.16289 0.84102 0.1077 0.0
C443 C 0.1562 0.85347 0.09125 0.0
C444 C 0.14683 0.84267 0.06658 0.0
C445 C 0.14402 0.81923 0.05794 0.0
C446 C 0.1509 0.80688 0.0745 0.0
C447 C 0.16033 0.81775 0.09914 0.0
C448 C 0.2121 0.88492 0.11788 0.0
C449 C 0.21927 0.90909 0.11099 0.0
C450 C 0.23863 0.9211 0.09586 0.0
C451 C 0.251 0.90905 0.08732 0.0
C452 C 0.24239 0.88399 0.09253 0.0
C453 C 0.22307 0.87203 0.10776 0.0
C454 C 0.2295 0.91014 0.16846 0.0
C455 C 0.2305 0.93263 0.17702 0.0
C456 C 0.25297 0.95567 0.18061 0.0
C457 C 0.27484 0.95661 0.1756 0.0
C458 C 0.27379 0.93393 0.16742 0.0
C459 C 0.25132 0.91087 0.16403 0.0
C460 C 0.20268 0.88451 0.20998 0.0
C461 C 0.19204 0.89396 0.22638 0.0
C462 C 0.20249 0.90367 0.25094 0.0
C463 C 0.22392 0.90432 0.25941 0.0
C464 C 0.23435 0.89456 0.24292 0.0
C465 C 0.22372 0.88461 0.21846 0.0
C466 C 0.1548 0.83809 0.20052 0.0
C467 C 0.13177 0.83461 0.20479 0.0
C468 C 0.11779 0.81886 0.22272 0.0
C469 C 0.12667 0.80631 0.23645 0.0
C470 C 0.15025 0.81091 0.23293 0.0
C471 C 0.16412 0.82656 0.21509 0.0
C472 C 0.13396 0.80777 0.03175 0.0
C473 C 0.29864 0.98116 0.17861 0.0
H474 H 0.30607 0.2005 0.0603 0.0
H475 H 0.34512 0.01971 0.88699 0.0
H476 H 0.28475 0.18277 0.9059 0.0
H477 H 0.28911 0.22465 0.91135 0.0
H478 H 0.36656 0.25881 0.93295 0.0
H479 H 0.36218 0.21742 0.9257 0.0
H480 H 0.28594 0.15206 0.95722 0.0
H481 H 0.28692 0.16879 0.00037 0.0
H482 H 0.36617 0.20893 0.0063 0.0
H483 H 0.36488 0.19213 0.9631 0.0
H484 H 0.29599 0.09641 0.94784 0.0
H485 H 0.30865 0.07173 0.97086 0.0
H486 H 0.3844 0.13223 0.97182 0.0
H487 H 0.37156 0.15681 0.94888 0.0
H488 H 0.28495 0.08128 0.88622 0.0
H489 H 0.28465 0.04156 0.87944 0.0
H490 H 0.36304 0.08299 0.89846 0.0
H491 H 0.36312 0.12259 0.90464 0.0
H492 H 0.2835 0.11667 0.84408 0.0
H493 H 0.28304 0.09453 0.80409 0.0
H494 H 0.35934 0.11954 0.82147 0.0
H495 H 0.35988 0.14281 0.86031 0.0
H496 H 0.28187 0.16194 0.85961 0.0
H497 H 0.28508 0.19321 0.83164 0.0
H498 H 0.36391 0.22874 0.83806 0.0
H499 H 0.36051 0.19793 0.86623 0.0
O500 O 0.3061 0.19408 0.04329 0.0
O501 O 0.34682 0.21445 0.04533 0.0
O502 O 0.30465 0.0149 0.87843 0.0
O503 O 0.34477 0.03518 0.88913 0.0
C504 C 0.32126 0.17242 0.91073 0.0
C505 C 0.32443 0.16067 0.93098 0.0
C506 C 0.32636 0.13915 0.92617 0.0
C507 C 0.32379 0.12857 0.90117 0.0
C508 C 0.32104 0.1406 0.88094 0.0
C509 C 0.31987 0.1626 0.88567 0.0
C510 C 0.32314 0.19719 0.91564 0.0
C511 C 0.30262 0.19944 0.91166 0.0
C512 C 0.30517 0.22334 0.91481 0.0
C513 C 0.32824 0.24522 0.92235 0.0
C514 C 0.34864 0.24261 0.92643 0.0
C515 C 0.34613 0.21888 0.92284 0.0
C516 C 0.32531 0.17071 0.9572 0.0
C517 C 0.30347 0.16441 0.96793 0.0
C518 C 0.30409 0.17401 0.99256 0.0
C519 C 0.32662 0.19015 0.00682 0.0
C520 C 0.34851 0.19648 0.99588 0.0
C521 C 0.34783 0.18684 0.97126 0.0
C522 C 0.33284 0.12838 0.94677 0.0
C523 C 0.31519 0.10477 0.95399 0.0
C524 C 0.3225 0.09063 0.96686 0.0
C525 C 0.34756 0.09991 0.97265 0.0
C526 C 0.365 0.12467 0.96767 0.0
C527 C 0.35766 0.13879 0.95473 0.0
C528 C 0.324 0.10473 0.89616 0.0
C529 C 0.30204 0.08172 0.88877 0.0
C530 C 0.30192 0.05908 0.88498 0.0
C531 C 0.32382 0.05908 0.88856 0.0
C532 C 0.34585 0.08228 0.89564 0.0
C533 C 0.34594 0.10492 0.89927 0.0
C534 C 0.32167 0.13113 0.85503 0.0
C535 C 0.30023 0.1179 0.83877 0.0
C536 C 0.29995 0.10497 0.81616 0.0
C537 C 0.32105 0.10485 0.80971 0.0
C538 C 0.34281 0.11935 0.82558 0.0
C539 C 0.34316 0.13257 0.84789 0.0
C540 C 0.32098 0.17775 0.86492 0.0
C541 C 0.29975 0.1762 0.85449 0.0
C542 C 0.30162 0.19409 0.83862 0.0
C543 C 0.32478 0.21377 0.83306 0.0
C544 C 0.34584 0.21423 0.84247 0.0
C545 C 0.34395 0.19643 0.85827 0.0
C546 C 0.32723 0.20034 0.03296 0.0
C547 C 0.32373 0.03502 0.88502 0.0
H548 H 0.88691 0.22638 0.05951 0.0
H549 H 0.68283 0.98007 0.88848 0.0
H550 H 0.85458 0.19981 0.90328 0.0
H551 H 0.89146 0.24116 0.91602 0.0
H552 H 0.9253 0.20415 0.94983 0.0
H553 H 0.88849 0.16261 0.93621 0.0
H554 H 0.84062 0.19005 0.95687 0.0
H555 H 0.85956 0.21149 0.99881 0.0
H556 H 0.86548 0.14748 0.01588 0.0
H557 H 0.84684 0.12642 0.97371 0.0
H558 H 0.78851 0.14656 0.9585 0.0
H559 H 0.75538 0.12801 0.98649 0.0
H560 H 0.75924 0.06021 0.98308 0.0
H561 H 0.79236 0.07889 0.95519 0.0
H562 H 0.75346 0.10582 0.91562 0.0
H563 H 0.71292 0.06694 0.91212 0.0
H564 H 0.74531 0.02303 0.88947 0.0
H565 H 0.78585 0.06201 0.89364 0.0
H566 H 0.77024 0.11709 0.86522 0.0
H567 H 0.75122 0.09875 0.82268 0.0
H568 H 0.80739 0.08126 0.80919 0.0
H569 H 0.82526 0.09816 0.85234 0.0
H570 H 0.82178 0.16738 0.86036 0.0
H571 H 0.84361 0.19111 0.82615 0.0
H572 H 0.89674 0.16861 0.83723 0.0
H573 H 0.8751 0.14576 0.87249 0.0
O574 O 0.87942 0.21754 0.04303 0.0
O575 O 0.88173 0.18401 0.051 0.0
O576 O 0.6836 0.01871 0.90542 0.0
O577 O 0.69864 0.99575 0.88985 0.0
C578 C 0.84497 0.15401 0.91538 0.0
C579 C 0.83173 0.1441 0.9365 0.0
C580 C 0.80785 0.12245 0.9331 0.0
C581 C 0.79746 0.11011 0.90869 0.0
C582 C 0.81061 0.12021 0.88763 0.0
C583 C 0.83427 0.14232 0.89095 0.0
C584 C 0.8689 0.17829 0.9189 0.0
C585 C 0.87029 0.20056 0.91257 0.0
C586 C 0.89127 0.22414 0.92 0.0
C587 C 0.91106 0.22579 0.93412 0.0
C588 C 0.91037 0.20337 0.93878 0.0
C589 C 0.88936 0.1797 0.9312 0.0
C590 C 0.84257 0.1568 0.96221 0.0
C591 C 0.84613 0.18076 0.96966 0.0
C592 C 0.85689 0.19292 0.99365 0.0
C593 C 0.86409 0.18122 0.01069 0.0
C594 C 0.86019 0.15704 0.00321 0.0
C595 C 0.84952 0.14495 0.97917 0.0
C596 C 0.79261 0.11392 0.95467 0.0
C597 C 0.78277 0.12807 0.96454 0.0
C598 C 0.76385 0.11747 0.98045 0.0
C599 C 0.75452 0.09255 0.98652 0.0
C600 C 0.76589 0.07933 0.97832 0.0
C601 C 0.78486 0.08998 0.96256 0.0
C602 C 0.77263 0.08669 0.90516 0.0
C603 C 0.75178 0.08777 0.91002 0.0
C604 C 0.72864 0.06555 0.90795 0.0
C605 C 0.7259 0.04186 0.90063 0.0
C606 C 0.74678 0.04094 0.8952 0.0
C607 C 0.76995 0.06317 0.89751 0.0
C608 C 0.79895 0.10868 0.86191 0.0
C609 C 0.77815 0.10888 0.85317 0.0
C610 C 0.76753 0.09872 0.82874 0.0
C611 C 0.77778 0.08856 0.81246 0.0
C612 C 0.79874 0.08852 0.82133 0.0
C613 C 0.80912 0.09835 0.84589 0.0
C614 C 0.84682 0.15482 0.86881 0.0
C615 C 0.83798 0.16735 0.8552 0.0
C616 C 0.85046 0.18077 0.83548 0.0
C617 C 0.87194 0.18169 0.82865 0.0
C618 C 0.88046 0.16858 0.84208 0.0
C619 C 0.86806 0.15537 0.8621 0.0
C620 C 0.8756 0.19424 0.03613 0.0
C621 C 0.70141 0.01815 0.89878 0.0
H622 H 0.86526 0.66452 0.07559 0.0
H623 H 0.67908 0.64075 0.85562 0.0
H624 H 0.8889 0.68826 0.92605 0.0
H625 H 0.92031 0.68363 0.94778 0.0
H626 H 0.86452 0.60758 0.96213 0.0
H627 H 0.83411 0.61162 0.93815 0.0
H628 H 0.85915 0.68898 0.97314 0.0
H629 H 0.86768 0.68592 0.01721 0.0
H630 H 0.80447 0.6094 0.01085 0.0
H631 H 0.79635 0.61259 0.96667 0.0
H632 H 0.80538 0.68706 0.9705 0.0
H633 H 0.77405 0.68081 -0.00095 0.0
H634 H 0.72498 0.60569 0.96089 0.0
H635 H 0.75658 0.61201 0.93268 0.0
H636 H 0.7897 0.69589 0.91813 0.0
H637 H 0.75342 0.69732 0.90502 0.0
H638 H 0.72162 0.62291 0.86386 0.0
H639 H 0.75788 0.62165 0.8773 0.0
H640 H 0.82006 0.70227 0.86986 0.0
H641 H 0.80596 0.70417 0.82741 0.0
H642 H 0.78396 0.6256 0.80827 0.0
H643 H 0.79927 0.62456 0.85011 0.0
H644 H 0.86541 0.70218 0.87577 0.0
H645 H 0.89238 0.70799 0.84263 0.0
H646 H 0.87606 0.63108 0.8456 0.0
H647 H 0.84789 0.62505 0.87789 0.0
O648 O 0.8615 0.66533 0.05814 0.0
O649 O 0.82868 0.62615 0.05398 0.0
O650 O 0.71104 0.67933 0.88192 0.0
O651 O 0.69373 0.64085 0.86095 0.0
C652 C 0.83921 0.65455 0.92232 0.0
C653 C 0.82247 0.65299 0.9398 0.0
C654 C 0.80178 0.65397 0.93185 0.0
C655 C 0.79832 0.6578 0.90679 0.0
C656 C 0.8156 0.6607 0.88959 0.0
C657 C 0.83619 0.65922 0.89732 0.0
C658 C 0.85916 0.65038 0.9307 0.0
C659 C 0.88372 0.67031 0.93311 0.0
C660 C 0.90157 0.66774 0.94609 0.0
C661 C 0.89507 0.64544 0.95756 0.0
C662 C 0.87059 0.625 0.9536 0.0
C663 C 0.853 0.62732 0.93996 0.0
C664 C 0.82708 0.65107 0.96675 0.0
C665 C 0.84716 0.67158 0.98132 0.0
C666 C 0.85199 0.66978 0.00648 0.0
C667 C 0.83674 0.64742 0.01757 0.0
C668 C 0.81655 0.62691 0.00291 0.0
C669 C 0.81179 0.62872 0.97771 0.0
C670 C 0.78313 0.65003 0.94953 0.0
C671 C 0.7879 0.66924 0.96845 0.0
C672 C 0.76999 0.66565 0.98462 0.0
C673 C 0.74705 0.64277 0.98212 0.0
C674 C 0.74255 0.62339 0.96341 0.0
C675 C 0.76045 0.62704 0.9472 0.0
C676 C 0.77641 0.65871 0.89857 0.0
C677 C 0.77486 0.67994 0.90628 0.0
C678 C 0.75414 0.6807 0.89876 0.0
C679 C 0.73461 0.66022 0.88337 0.0
C680 C 0.73631 0.639 0.87568 0.0
C681 C 0.75702 0.63825 0.88326 0.0
C682 C 0.81076 0.6633 0.86297 0.0
C683 C 0.81277 0.68575 0.85617 0.0
C684 C 0.80442 0.68666 0.83198 0.0
C685 C 0.79359 0.665 0.81426 0.0
C686 C 0.79257 0.64288 0.82104 0.0
C687 C 0.80124 0.64213 0.84506 0.0
C688 C 0.85458 0.66316 0.87918 0.0
C689 C 0.86773 0.68661 0.86932 0.0
C690 C 0.88335 0.68995 0.85049 0.0
C691 C 0.88646 0.67 0.84131 0.0
C692 C 0.87383 0.64674 0.85188 0.0
C693 C 0.85794 0.64333 0.87056 0.0
C694 C 0.84197 0.64556 0.0443 0.0
C695 C 0.71248 0.66082 0.87542 0.0
H696 H 0.84214 0.71954 0.33309 0.0
H697 H 0.97237 0.65556 0.53078 0.0
H698 H 0.83254 0.72366 0.46611 0.0
H699 H 0.80086 0.72579 0.44224 0.0
H700 H 0.74822 0.64814 0.4552 0.0
H701 H 0.78095 0.64549 0.47652 0.0
H702 H 0.87334 0.72645 0.4389 0.0
H703 H 0.86606 0.73088 0.3949 0.0
H704 H 0.80446 0.65335 0.38552 0.0
H705 H 0.81215 0.64908 0.42944 0.0
H706 H 0.91409 0.72688 0.47234 0.0
H707 H 0.94627 0.7338 0.44464 0.0
H708 H 0.89762 0.6595 0.40472 0.0
H709 H 0.86572 0.65266 0.43266 0.0
H710 H 0.91039 0.71523 0.52965 0.0
H711 H 0.94593 0.71364 0.54526 0.0
H712 H 0.91875 0.64278 0.49857 0.0
H713 H 0.88312 0.64441 0.48343 0.0
H714 H 0.86395 0.70812 0.55576 0.0
H715 H 0.88043 0.70726 0.59718 0.0
H716 H 0.87286 0.6353 0.57243 0.0
H717 H 0.85489 0.63562 0.53139 0.0
H718 H 0.82618 0.7105 0.53401 0.0
H719 H 0.79833 0.70189 0.56706 0.0
H720 H 0.76855 0.62121 0.5499 0.0
H721 H 0.79771 0.63036 0.5182 0.0
O722 O 0.84477 0.71735 0.3504 0.0
O723 O 0.81317 0.67745 0.34663 0.0
O724 O 0.97176 0.69322 0.54858 0.0
O725 O 0.95878 0.65697 0.5246 0.0
C726 C 0.83005 0.68155 0.48129 0.0
C727 C 0.84756 0.68472 0.46411 0.0
C728 C 0.8687 0.68456 0.47217 0.0
C729 C 0.87194 0.68017 0.4971 0.0
C730 C 0.85393 0.67568 0.51401 0.0
C731 C 0.83296 0.67638 0.5061 0.0
C732 C 0.80921 0.68434 0.47286 0.0
C733 C 0.81406 0.70718 0.464 0.0
C734 C 0.79573 0.70839 0.45042 0.0
C735 C 0.77177 0.68698 0.44612 0.0
C736 C 0.76654 0.6648 0.45714 0.0
C737 C 0.78514 0.66337 0.46998 0.0
C738 C 0.84333 0.68742 0.43732 0.0
C739 C 0.85841 0.7104 0.42725 0.0
C740 C 0.85414 0.7129 0.40214 0.0
C741 C 0.83468 0.69246 0.38668 0.0
C742 C 0.81961 0.66946 0.39689 0.0
C743 C 0.82394 0.66697 0.42196 0.0
C744 C 0.88767 0.68921 0.45456 0.0
C745 C 0.9104 0.71219 0.4575 0.0
C746 C 0.92865 0.71619 0.44157 0.0
C747 C 0.92448 0.69717 0.42256 0.0
C748 C 0.90144 0.6744 0.41935 0.0
C749 C 0.88319 0.67048 0.4352 0.0
C750 C 0.8942 0.67992 0.50546 0.0
C751 C 0.9122 0.69942 0.52279 0.0
C752 C 0.93247 0.69846 0.53166 0.0
C753 C 0.93515 0.67803 0.5232 0.0
C754 C 0.91724 0.65875 0.50549 0.0
C755 C 0.89693 0.65969 0.49673 0.0
C756 C 0.85826 0.67199 0.54048 0.0
C757 C 0.86486 0.69165 0.55957 0.0
C758 C 0.8747 0.69132 0.58313 0.0
C759 C 0.8786 0.67153 0.58795 0.0
C760 C 0.87013 0.65083 0.56942 0.0
C761 C 0.85991 0.651 0.54592 0.0
C762 C 0.81397 0.67106 0.52382 0.0
C763 C 0.81346 0.69099 0.53734 0.0
C764 C 0.79737 0.68595 0.55615 0.0
C765 C 0.78115 0.66079 0.56147 0.0
C766 C 0.78111 0.64085 0.54694 0.0
C767 C 0.79756 0.64598 0.52855 0.0
C768 C 0.83015 0.6952 0.36004 0.0
C769 C 0.95638 0.67665 0.53292 0.0
H770 H 0.30683 0.11066 0.35057 0.0
H771 H 0.37097 0.34022 0.53702 0.0
H772 H 0.30693 0.11899 0.50208 0.0
H773 H 0.29877 0.07622 0.49137 0.0
H774 H 0.37472 0.10758 0.47684 0.0
H775 H 0.383 0.15052 0.48927 0.0
H776 H 0.30335 0.14458 0.45439 0.0
H777 H 0.29729 0.12646 0.41064 0.0
H778 H 0.37593 0.16458 0.40784 0.0
H779 H 0.38165 0.18262 0.45154 0.0
H780 H 0.29984 0.18583 0.47545 0.0
H781 H 0.2871 0.20977 0.45116 0.0
H782 H 0.36196 0.25857 0.43374 0.0
H783 H 0.37453 0.2346 0.45827 0.0
H784 H 0.31339 0.21367 0.53004 0.0
H785 H 0.31321 0.25283 0.53997 0.0
H786 H 0.38755 0.29672 0.51893 0.0
H787 H 0.38752 0.2574 0.5093 0.0
H788 H 0.31754 0.18076 0.56424 0.0
H789 H 0.3188 0.20166 0.60525 0.0
H790 H 0.3951 0.25825 0.59984 0.0
H791 H 0.39381 0.23655 0.55926 0.0
H792 H 0.31241 0.13834 0.54702 0.0
H793 H 0.30946 0.11053 0.57829 0.0
H794 H 0.38846 0.14691 0.5853 0.0
H795 H 0.39103 0.17417 0.55273 0.0
O796 O 0.30961 0.11799 0.36784 0.0
O797 O 0.35015 0.13771 0.36751 0.0
O798 O 0.33237 0.30103 0.54395 0.0
O799 O 0.37053 0.32445 0.53322 0.0
C800 C 0.34958 0.16334 0.50204 0.0
C801 C 0.34661 0.17582 0.4824 0.0
C802 C 0.34619 0.19814 0.48809 0.0
C803 C 0.35061 0.20905 0.51319 0.0
C804 C 0.35374 0.19665 0.5328 0.0
C805 C 0.35274 0.17352 0.52728 0.0
C806 C 0.3455 0.13768 0.49639 0.0
C807 C 0.3219 0.11656 0.49709 0.0
C808 C 0.31728 0.09219 0.49085 0.0
C809 C 0.33605 0.08853 0.48299 0.0
C810 C 0.35996 0.10977 0.48308 0.0
C811 C 0.36466 0.13426 0.48984 0.0
C812 C 0.34291 0.16493 0.45596 0.0
C813 C 0.3192 0.14901 0.44422 0.0
C814 C 0.31582 0.13869 0.41927 0.0
C815 C 0.33613 0.14409 0.40572 0.0
C816 C 0.35989 0.16005 0.4177 0.0
C817 C 0.36322 0.17039 0.44263 0.0
C818 C 0.33808 0.20858 0.46856 0.0
C819 C 0.3133 0.20117 0.46565 0.0
C820 C 0.30605 0.21481 0.45179 0.0
C821 C 0.32359 0.23617 0.44084 0.0
C822 C 0.34813 0.24233 0.44226 0.0
C823 C 0.35533 0.22862 0.45606 0.0
C824 C 0.35049 0.2328 0.51906 0.0
C825 C 0.32962 0.23179 0.52768 0.0
C826 C 0.32957 0.25416 0.53328 0.0
C827 C 0.35039 0.27792 0.53026 0.0
C828 C 0.37123 0.27877 0.52149 0.0
C829 C 0.37127 0.25637 0.51596 0.0
C830 C 0.3557 0.20695 0.55909 0.0
C831 C 0.33471 0.19717 0.57235 0.0
C832 C 0.33537 0.20936 0.59554 0.0
C833 C 0.35699 0.2317 0.60568 0.0
C834 C 0.37825 0.2409 0.59269 0.0
C835 C 0.37758 0.22859 0.56954 0.0
C836 C 0.3519 0.15831 0.54779 0.0
C837 C 0.3291 0.14043 0.55542 0.0
C838 C 0.3275 0.12466 0.57345 0.0
C839 C 0.34877 0.12667 0.58462 0.0
C840 C 0.37174 0.14478 0.57699 0.0
C841 C 0.37327 0.1605 0.55862 0.0
C842 C 0.3325 0.13312 0.37922 0.0
C843 C 0.35045 0.30176 0.53624 0.0
H844 H 0.78359 0.15232 0.32501 0.0
H845 H 0.00254 0.32309 0.50455 0.0
H846 H 0.779 0.16725 0.46764 0.0
H847 H 0.73937 0.12757 0.45728 0.0
H848 H 0.77471 0.08488 0.468 0.0
H849 H 0.81366 0.12446 0.47935 0.0
H850 H 0.82106 0.20506 0.4263 0.0
H851 H 0.80428 0.18878 0.38263 0.0
H852 H 0.81398 0.12526 0.38985 0.0
H853 H 0.83093 0.1419 0.43339 0.0
H854 H 0.87564 0.25162 0.4469 0.0
H855 H 0.91056 0.27476 0.42202 0.0
H856 H 0.91809 0.20919 0.41304 0.0
H857 H 0.88295 0.18614 0.43762 0.0
H858 H 0.88109 0.26273 0.50856 0.0
H859 H 0.92144 0.30182 0.51635 0.0
H860 H 0.95551 0.26037 0.49089 0.0
H861 H 0.91511 0.22136 0.48366 0.0
H862 H 0.84197 0.22357 0.54673 0.0
H863 H 0.86083 0.24006 0.58963 0.0
H864 H 0.91578 0.22136 0.57381 0.0
H865 H 0.89583 0.20353 0.53142 0.0
H866 H 0.79384 0.17984 0.52522 0.0
H867 H 0.77166 0.15544 0.55954 0.0
H868 H 0.81937 0.12537 0.56311 0.0
H869 H 0.84177 0.1505 0.52977 0.0
O870 O 0.79029 0.15843 0.34229 0.0
O871 O 0.79556 0.1261 0.34702 0.0
O872 O 0.96822 0.32782 0.51704 0.0
O873 O 0.98641 0.30781 0.50214 0.0
C874 C 0.82317 0.17233 0.47941 0.0
C875 C 0.83711 0.18452 0.45942 0.0
C876 C 0.86089 0.2061 0.46464 0.0
C877 C 0.87052 0.21588 0.48981 0.0
C878 C 0.85672 0.20339 0.50971 0.0
C879 C 0.83305 0.18159 0.50452 0.0
C880 C 0.79905 0.14856 0.47405 0.0
C881 C 0.77795 0.14923 0.46799 0.0
C882 C 0.75541 0.12657 0.46203 0.0
C883 C 0.75377 0.10295 0.4618 0.0
C884 C 0.77505 0.10258 0.46849 0.0
C885 C 0.79742 0.12518 0.4747 0.0
C886 C 0.82698 0.17453 0.433 0.0
C887 C 0.81952 0.18764 0.41838 0.0
C888 C 0.80995 0.17828 0.39347 0.0
C889 C 0.80772 0.15567 0.38276 0.0
C890 C 0.81537 0.14267 0.39752 0.0
C891 C 0.82497 0.15208 0.42241 0.0
C892 C 0.87692 0.21731 0.44413 0.0
C893 C 0.88433 0.24201 0.4388 0.0
C894 C 0.90444 0.25526 0.42488 0.0
C895 C 0.91739 0.24395 0.41607 0.0
C896 C 0.90849 0.21839 0.41953 0.0
C897 C 0.88836 0.20516 0.43347 0.0
C898 C 0.89518 0.23929 0.49535 0.0
C899 C 0.89731 0.26213 0.50483 0.0
C900 C 0.92037 0.28442 0.5092 0.0
C901 C 0.9417 0.28424 0.50411 0.0
C902 C 0.93947 0.26121 0.4949 0.0
C903 C 0.91642 0.23891 0.4907 0.0
C904 C 0.86764 0.21254 0.53599 0.0
C905 C 0.85789 0.22278 0.55269 0.0
C906 C 0.86888 0.23244 0.57708 0.0
C907 C 0.89003 0.23233 0.58509 0.0
C908 C 0.89944 0.22157 0.56836 0.0
C909 C 0.88822 0.21161 0.54408 0.0
C910 C 0.8195 0.16705 0.52526 0.0
C911 C 0.79949 0.16807 0.53365 0.0
C912 C 0.78679 0.15402 0.55313 0.0
C913 C 0.79385 0.13861 0.56434 0.0
C914 C 0.81379 0.13752 0.55549 0.0
C915 C 0.82654 0.15171 0.53628 0.0
C916 C 0.79751 0.14576 0.35631 0.0
C917 C 0.96619 0.30797 0.50822 0.0
H918 H 0.01248 0.55128 0.39729 0.0
H919 H 0.03572 0.36755 0.21592 0.0
H920 H 0.97159 0.523 0.2638 0.0
H921 H 0.9748 0.56379 0.27508 0.0
H922 H 0.0432 0.60236 0.24045 0.0
H923 H 0.04028 0.56172 0.23012 0.0
H924 H 0.9804 0.4881 0.3008 0.0
H925 H 0.98743 0.50889 0.3435 0.0
H926 H 0.05699 0.57125 0.3252 0.0
H927 H 0.04985 0.55007 0.28267 0.0
H928 H 0.98018 0.44356 0.28353 0.0
H929 H 0.99084 0.41792 0.30748 0.0
H930 H 0.06775 0.47199 0.30236 0.0
H931 H 0.05687 0.49779 0.27859 0.0
H932 H 0.96927 0.42191 0.22886 0.0
H933 H 0.97129 0.38342 0.22283 0.0
H934 H 0.05023 0.42997 0.22344 0.0
H935 H 0.04787 0.46824 0.22931 0.0
H936 H 0.9598 0.44562 0.1877 0.0
H937 H 0.9546 0.41963 0.1487 0.0
H938 H 0.033 0.46367 0.14321 0.0
H939 H 0.03795 0.48859 0.1829 0.0
H940 H 0.96272 0.50716 0.20109 0.0
H941 H 0.9609 0.53111 0.16721 0.0
H942 H 0.03534 0.55396 0.153 0.0
H943 H 0.03662 0.52969 0.18613 0.0
O944 O 0.01012 0.54334 0.38034 0.0
O945 O 0.04563 0.57502 0.36993 0.0
O946 O 0.99372 0.35935 0.21771 0.0
O947 O 0.03436 0.38242 0.21809 0.0
C948 C 0.00543 0.51547 0.24214 0.0
C949 C 0.01011 0.50503 0.26277 0.0
C950 C 0.01124 0.48295 0.25854 0.0
C951 C 0.00717 0.47101 0.23392 0.0
C952 C 0.00262 0.48149 0.21344 0.0
C953 C 0.00193 0.50384 0.21742 0.0
C954 C 0.00578 0.53954 0.24633 0.0
C955 C 0.98704 0.54026 0.25837 0.0
C956 C 0.98877 0.56348 0.2645 0.0
C957 C 0.00928 0.5862 0.25865 0.0
C958 C 0.02729 0.58514 0.2453 0.0
C959 C 0.02562 0.562 0.23934 0.0
C960 C 0.0146 0.51761 0.28869 0.0
C961 C 0.99719 0.50619 0.30611 0.0
C962 C 0.00123 0.51814 0.33046 0.0
C963 C 0.02276 0.54176 0.33776 0.0
C964 C 0.04021 0.55309 0.32019 0.0
C965 C 0.03617 0.54107 0.29589 0.0
C966 C 0.01775 0.47244 0.27936 0.0
C967 C 0.99933 0.45041 0.28851 0.0
C968 C 0.00546 0.4357 0.30193 0.0
C969 C 0.03011 0.44278 0.3063 0.0
C970 C 0.04864 0.46616 0.29927 0.0
C971 C 0.04246 0.48092 0.2858 0.0
C972 C 0.00842 0.44775 0.22951 0.0
C973 C 0.98694 0.42369 0.22755 0.0
C974 C 0.98817 0.40178 0.22417 0.0
C975 C 0.01094 0.40362 0.2227 0.0
C976 C 0.03241 0.42786 0.22451 0.0
C977 C 0.03114 0.44974 0.22785 0.0
C978 C 0.99919 0.46903 0.18784 0.0
C979 C 0.97573 0.44988 0.17773 0.0
C980 C 0.97284 0.43511 0.15545 0.0
C981 C 0.99342 0.43946 0.14288 0.0
C982 C 0.01682 0.4595 0.15264 0.0
C983 C 0.01969 0.47401 0.17507 0.0
C984 C 0.99965 0.51632 0.1957 0.0
C985 C 0.9784 0.51701 0.19026 0.0
C986 C 0.97749 0.53087 0.17109 0.0
C987 C 0.99788 0.54429 0.15716 0.0
C988 C 0.01903 0.54333 0.16277 0.0
C989 C 0.01985 0.52945 0.18174 0.0
C990 C 0.02695 0.55445 0.36361 0.0
C991 C 0.01238 0.38042 0.21934 0.0
H992 H 0.53911 0.545 0.39196 0.0
H993 H 0.3495 0.31312 0.19321 0.0
H994 H 0.52017 0.52776 0.23365 0.0
H995 H 0.55565 0.5699 0.24694 0.0
H996 H 0.59137 0.5358 0.283 0.0
H997 H 0.55602 0.49339 0.26851 0.0
H998 H 0.50358 0.51503 0.28568 0.0
H999 H 0.51803 0.53382 0.3292 0.0
H1000 H 0.52454 0.46993 0.3453 0.0
H1001 H 0.51037 0.45152 0.30158 0.0
H1002 H 0.45317 0.47227 0.28201 0.0
H1003 H 0.41949 0.45376 0.30931 0.0
H1004 H 0.42182 0.38504 0.30513 0.0
H1005 H 0.4555 0.40371 0.27787 0.0
H1006 H 0.42255 0.43629 0.23334 0.0
H1007 H 0.38135 0.39947 0.22154 0.0
H1008 H 0.41234 0.35274 0.20607 0.0
H1009 H 0.45344 0.38971 0.21811 0.0
H1010 H 0.44904 0.45783 0.18793 0.0
H1011 H 0.43149 0.44248 0.14466 0.0
H1012 H 0.47104 0.40327 0.13742 0.0
H1013 H 0.48975 0.42031 0.18046 0.0
H1014 H 0.49257 0.49738 0.18831 0.0
H1015 H 0.51863 0.52767 0.16011 0.0
H1016 H 0.57523 0.51144 0.1773 0.0
H1017 H 0.54848 0.48024 0.20528 0.0
O1018 O 0.53348 0.53725 0.37482 0.0
O1019 O 0.53632 0.5039 0.38218 0.0
O1020 O 0.35088 0.35325 0.20471 0.0
O1021 O 0.36557 0.32787 0.19835 0.0
C1022 C 0.5127 0.48239 0.24436 0.0
C1023 C 0.49771 0.47079 0.26394 0.0
C1024 C 0.4741 0.449 0.25822 0.0
C1025 C 0.46593 0.43811 0.23307 0.0
C1026 C 0.48091 0.44966 0.21356 0.0
C1027 C 0.50425 0.47187 0.21912 0.0
C1028 C 0.53559 0.50755 0.25004 0.0
C1029 C 0.53598 0.52933 0.24368 0.0
C1030 C 0.55616 0.55338 0.25146 0.0
C1031 C 0.57615 0.5561 0.26618 0.0
C1032 C 0.57631 0.53424 0.27146 0.0
C1033 C 0.55611 0.51006 0.26341 0.0
C1034 C 0.50621 0.48208 0.29044 0.0
C1035 C 0.50832 0.50523 0.29859 0.0
C1036 C 0.51649 0.51587 0.32348 0.0
C1037 C 0.5225 0.50341 0.34072 0.0
C1038 C 0.52011 0.48005 0.3325 0.0
C1039 C 0.51201 0.46948 0.30757 0.0
C1040 C 0.45672 0.43929 0.27797 0.0
C1041 C 0.44682 0.45347 0.28756 0.0
C1042 C 0.42759 0.44289 0.3031 0.0
C1043 C 0.41787 0.41788 0.30907 0.0
C1044 C 0.42873 0.40424 0.30049 0.0
C1045 C 0.44802 0.41488 0.28508 0.0
C1046 C 0.44089 0.41556 0.22675 0.0
C1047 C 0.42035 0.41802 0.22763 0.0
C1048 C 0.39687 0.397 0.22077 0.0
C1049 C 0.39357 0.37316 0.21283 0.0
C1050 C 0.41424 0.3708 0.21211 0.0
C1051 C 0.43772 0.39185 0.21898 0.0
C1052 C 0.47073 0.44027 0.18714 0.0
C1053 C 0.45404 0.4461 0.17685 0.0
C1054 C 0.44384 0.43705 0.15219 0.0
C1055 C 0.44965 0.42141 0.13748 0.0
C1056 C 0.46642 0.41557 0.14799 0.0
C1057 C 0.47702 0.42511 0.1726 0.0
C1058 C 0.51845 0.48631 0.19858 0.0
C1059 C 0.51013 0.49947 0.18524 0.0
C1060 C 0.5252 0.51707 0.16945 0.0
C1061 C 0.54901 0.52207 0.16684 0.0
C1062 C 0.5569 0.50783 0.17898 0.0
C1063 C 0.54169 0.49007 0.19488 0.0
C1064 C 0.53119 0.51477 0.36716 0.0
C1065 C 0.3687 0.35089 0.20511 0.0
H1066 H 0.51658 0.98881 0.41207 0.0
H1067 H 0.327 0.94185 0.20131 0.0
H1068 H 0.54094 0.01784 0.28299 0.0
H1069 H 0.5734 0.01465 0.30468 0.0
H1070 H 0.54062 0.93738 0.27061 0.0
H1071 H 0.50823 0.94084 0.24879 0.0
H1072 H 0.4955 0.01112 0.31317 0.0
H1073 H 0.50547 0.00875 0.35707 0.0
H1074 H 0.49201 0.93333 0.33708 0.0
H1075 H 0.48174 0.93584 0.29333 0.0
H1076 H 0.44712 0.00773 0.28038 0.0
H1077 H 0.4173 0.00297 0.30977 0.0
H1078 H 0.4056 0.92965 0.32407 0.0
H1079 H 0.43416 0.93385 0.29289 0.0
H1080 H 0.4486 0.01317 0.22518 0.0
H1081 H 0.40984 0.00921 0.21122 0.0
H1082 H 0.37109 0.92964 0.22325 0.0
H1083 H 0.41004 0.93382 0.23694 0.0
H1084 H 0.49093 0.02235 0.19684 0.0
H1085 H 0.47684 0.02401 0.15403 0.0
H1086 H 0.42703 0.94254 0.14707 0.0
H1087 H 0.4414 0.94113 0.18935 0.0
H1088 H 0.53969 0.02662 0.23152 0.0
H1089 H 0.57033 0.03831 0.20087 0.0
H1090 H 0.52419 0.96479 0.15837 0.0
H1091 H 0.49415 0.95302 0.18964 0.0
O1092 O 0.51237 0.98927 0.39465 0.0
O1093 O 0.5054 0.95064 0.38335 0.0
O1094 O 0.36333 0.98513 0.20202 0.0
O1095 O 0.34257 0.94386 0.20668 0.0
C1096 C 0.50001 0.97959 0.25588 0.0
C1097 C 0.48262 0.97555 0.27341 0.0
C1098 C 0.46056 0.97411 0.26573 0.0
C1099 C 0.45572 0.97622 0.24034 0.0
C1100 C 0.47322 0.98055 0.22286 0.0
C1101 C 0.49562 0.9827 0.23071 0.0
C1102 C 0.52239 0.97965 0.2642 0.0
C1103 C 0.54123 0.00053 0.2796 0.0
C1104 C 0.55966 0.99861 0.29204 0.0
C1105 C 0.5594 0.97567 0.28948 0.0
C1106 C 0.54111 0.95517 0.2731 0.0
C1107 C 0.52283 0.95723 0.2604 0.0
C1108 C 0.48798 0.97369 0.30012 0.0
C1109 C 0.49459 0.99407 0.31837 0.0
C1110 C 0.50034 0.99267 0.3434 0.0
C1111 C 0.4996 0.97087 0.35058 0.0
C1112 C 0.4928 0.95041 0.33219 0.0
C1113 C 0.48698 0.95181 0.3072 0.0
C1114 C 0.44282 0.97115 0.28441 0.0
C1115 C 0.43795 0.99054 0.28969 0.0
C1116 C 0.42111 0.98789 0.30686 0.0
C1117 C 0.40912 0.96601 0.31969 0.0
C1118 C 0.41421 0.94664 0.31445 0.0
C1119 C 0.43076 0.94912 0.29683 0.0
C1120 C 0.43211 0.97377 0.23197 0.0
C1121 C 0.43173 0.99488 0.22465 0.0
C1122 C 0.40956 0.99258 0.21677 0.0
C1123 C 0.38735 0.96909 0.21612 0.0
C1124 C 0.38784 0.94798 0.22351 0.0
C1125 C 0.41004 0.95032 0.23138 0.0
C1126 C 0.46723 0.98159 0.19609 0.0
C1127 C 0.47732 0.00487 0.18578 0.0
C1128 C 0.46911 0.0058 0.16148 0.0
C1129 C 0.45086 0.9834 0.14711 0.0
C1130 C 0.4414 0.96009 0.15739 0.0
C1131 C 0.44951 0.95922 0.18159 0.0
C1132 C 0.5147 0.98898 0.21281 0.0
C1133 C 0.5364 0.01294 0.21575 0.0
C1134 C 0.55375 0.01967 0.19808 0.0
C1135 C 0.54971 0.00255 0.17706 0.0
C1136 C 0.52808 0.97835 0.17446 0.0
C1137 C 0.51079 0.97162 0.1922 0.0
C1138 C 0.50593 0.96954 0.37714 0.0
C1139 C 0.36376 0.96661 0.20783 0.0
H1140 H 0.51485 0.05481 0.66981 0.0
H1141 H 0.65086 0.99621 0.86084 0.0
H1142 H 0.50697 0.05864 0.8029 0.0
H1143 H 0.47581 0.06219 0.77979 0.0
H1144 H 0.42164 0.98491 0.79238 0.0
H1145 H 0.45383 0.98086 0.81312 0.0
H1146 H 0.54667 0.06011 0.77502 0.0
H1147 H 0.53928 0.06511 0.73126 0.0
H1148 H 0.47638 0.98833 0.72182 0.0
H1149 H 0.48419 0.98346 0.76551 0.0
H1150 H 0.58728 0.05886 0.80651 0.0
H1151 H 0.61755 0.0644 0.77679 0.0
H1152 H 0.56567 0.99026 0.73825 0.0
H1153 H 0.53581 0.98471 0.76836 0.0
H1154 H 0.58375 0.05033 0.86454 0.0
H1155 H 0.62099 0.05096 0.87815 0.0
H1156 H 0.59418 0.9794 0.83289 0.0
H1157 H 0.55691 0.97886 0.81969 0.0
H1158 H 0.53392 0.04276 0.89085 0.0
H1159 H 0.54917 0.04387 0.93355 0.0
H1160 H 0.54961 0.97539 0.91219 0.0
H1161 H 0.53258 0.97344 0.86984 0.0
H1162 H 0.49043 0.04191 0.86093 0.0
H1163 H 0.4599 0.03272 0.89121 0.0
H1164 H 0.44991 0.95837 0.89525 0.0
H1165 H 0.47923 0.96719 0.86389 0.0
O1166 O 0.51753 0.05236 0.68702 0.0
O1167 O 0.48529 0.01283 0.68319 0.0
O1168 O 0.64923 0.03317 0.87891 0.0
O1169 O 0.63623 0.99636 0.85597 0.0
C1170 C 0.50323 0.01587 0.81753 0.0
C1171 C 0.52032 0.01843 0.8001 0.0
C1172 C 0.54125 0.0178 0.80788 0.0
C1173 C 0.54502 0.01417 0.83298 0.0
C1174 C 0.52742 0.0104 0.85023 0.0
C1175 C 0.50623 0.01083 0.84238 0.0
C1176 C 0.48281 0.01936 0.80929 0.0
C1177 C 0.48829 0.04254 0.80083 0.0
C1178 C 0.47026 0.04458 0.78773 0.0
C1179 C 0.44602 0.02368 0.78357 0.0
C1180 C 0.44019 0.00117 0.79425 0.0
C1181 C 0.45848 0.99891 0.80664 0.0
C1182 C 0.51603 0.02139 0.77339 0.0
C1183 C 0.53143 0.04433 0.7634 0.0
C1184 C 0.5271 0.04716 0.73843 0.0
C1185 C 0.50723 0.02712 0.72303 0.0
C1186 C 0.49185 0.00414 0.73315 0.0
C1187 C 0.49625 0.00131 0.75809 0.0
C1188 C 0.55946 0.0213 0.78967 0.0
C1189 C 0.58254 0.04384 0.79165 0.0
C1190 C 0.59967 0.04707 0.77453 0.0
C1191 C 0.594 0.02776 0.75519 0.0
C1192 C 0.57069 0.00536 0.75311 0.0
C1193 C 0.55359 0.00217 0.7702 0.0
C1194 C 0.56765 0.01455 0.84116 0.0
C1195 C 0.58594 0.03478 0.85766 0.0
C1196 C 0.6072 0.03511 0.86537 0.0
C1197 C 0.61058 0.01523 0.85658 0.0
C1198 C 0.59218 0.99501 0.84 0.0
C1199 C 0.57091 0.99467 0.83238 0.0
C1200 C 0.53247 0.00825 0.87706 0.0
C1201 C 0.53655 0.02754 0.89556 0.0
C1202 C 0.5456 0.02831 0.91991 0.0
C1203 C 0.5513 0.01011 0.92617 0.0
C1204 C 0.54548 0.98973 0.90808 0.0
C1205 C 0.53594 0.98871 0.88379 0.0
C1206 C 0.48704 0.0052 0.8601 0.0
C1207 C 0.48129 0.02348 0.86804 0.0
C1208 C 0.46403 0.01827 0.88561 0.0
C1209 C 0.4524 0.99479 0.89585 0.0
C1210 C 0.45808 0.97648 0.88756 0.0
C1211 C 0.47507 0.98158 0.86978 0.0
C1212 C 0.50261 0.03024 0.69655 0.0
C1213 C 0.63319 0.01555 0.86456 0.0
H1214 H 0.95193 0.40661 0.68521 0.0
H1215 H 0.02173 0.65604 0.86042 0.0
H1216 H 0.96137 0.43197 0.84276 0.0
H1217 H 0.95744 0.39065 0.83378 0.0
H1218 H 0.02572 0.42673 0.7987 0.0
H1219 H 0.0299 0.46816 0.80855 0.0
H1220 H 0.95295 0.44327 0.78928 0.0
H1221 H 0.94582 0.42187 0.74687 0.0
H1222 H 0.01595 0.48345 0.72878 0.0
H1223 H 0.02296 0.5045 0.77136 0.0
H1224 H 0.94778 0.49398 0.78944 0.0
H1225 H 0.93659 0.51951 0.76563 0.0
H1226 H 0.01325 0.57753 0.76663 0.0
H1227 H 0.0242 0.55213 0.7906 0.0
H1228 H 0.95802 0.52991 0.83378 0.0
H1229 H 0.95908 0.57008 0.83909 0.0
H1230 H 0.03763 0.61036 0.85666 0.0
H1231 H 0.03635 0.57007 0.85078 0.0
H1232 H 0.96412 0.51403 0.88108 0.0
H1233 H 0.9684 0.54027 0.91925 0.0
H1234 H 0.04416 0.56147 0.93213 0.0
H1235 H 0.03995 0.53632 0.89275 0.0
H1236 H 0.96758 0.46686 0.88867 0.0
H1237 H 0.96764 0.4398 0.91972 0.0
H1238 H 0.03878 0.4559 0.89993 0.0
H1239 H 0.03871 0.48332 0.86887 0.0
O1240 O 0.95513 0.41539 0.70189 0.0
O1241 O 0.99125 0.44762 0.69348 0.0
O1242 O 0.9805 0.61835 0.84822 0.0
O1243 O 0.02079 0.63988 0.85816 0.0
C1244 C 0.99711 0.47755 0.83005 0.0
C1245 C 0.99296 0.48812 0.80921 0.0
C1246 C 0.99264 0.5107 0.81308 0.0
C1247 C 0.99663 0.52281 0.83765 0.0
C1248 C 1.00012 0.51188 0.85845 0.0
C1249 C 1.00074 0.48945 0.85471 0.0
C1250 C 0.99585 0.45295 0.82616 0.0
C1251 C 0.97573 0.43099 0.83362 0.0
C1252 C 0.97349 0.40745 0.82845 0.0
C1253 C 0.99124 0.40549 0.81549 0.0
C1254 C 0.01194 0.42772 0.80902 0.0
C1255 C 0.01422 0.45131 0.81432 0.0
C1256 C 0.9885 0.47535 0.78338 0.0
C1257 C 0.96677 0.45204 0.77614 0.0
C1258 C 0.96274 0.4399 0.7519 0.0
C1259 C 0.98033 0.45094 0.73443 0.0
C1260 C 0.00203 0.47442 0.74176 0.0
C1261 C 0.00607 0.4865 0.76604 0.0
C1262 C 0.98678 0.52138 0.7919 0.0
C1263 C 0.96217 0.51171 0.78354 0.0
C1264 C 0.9558 0.52633 0.77006 0.0
C1265 C 0.97403 0.5507 0.76485 0.0
C1266 C 0.99882 0.55898 0.77085 0.0
C1267 C 0.00514 0.54442 0.78428 0.0
C1268 C 0.99714 0.54714 0.84164 0.0
C1269 C 0.97545 0.54745 0.8386 0.0
C1270 C 0.9761 0.57041 0.84174 0.0
C1271 C 0.99847 0.59346 0.84824 0.0
C1272 C 0.02012 0.59298 0.8516 0.0
C1273 C 0.01944 0.57001 0.84831 0.0
C1274 C 0.0018 0.52359 0.88408 0.0
C1275 C 0.98155 0.52413 0.89234 0.0
C1276 C 0.98403 0.53904 0.91428 0.0
C1277 C 0.00673 0.55328 0.92869 0.0
C1278 C 0.02658 0.55127 0.92116 0.0
C1279 C 0.02416 0.53663 0.89891 0.0
C1280 C 0.00311 0.47704 0.87651 0.0
C1281 C 0.98348 0.46514 0.89149 0.0
C1282 C 0.98345 0.4495 0.90901 0.0
C1283 C 0.00308 0.44551 0.91194 0.0
C1284 C 0.02346 0.4587 0.89806 0.0
C1285 C 0.02343 0.4743 0.88036 0.0
C1286 C 0.97599 0.43798 0.70869 0.0
C1287 C 0.99927 0.61791 0.85152 0.0
H1288 H 0.45968 0.48511 0.6691 0.0
H1289 H 0.6672 0.67873 0.85069 0.0
H1290 H 0.44926 0.50714 0.8005 0.0
H1291 H 0.41366 0.46455 0.78745 0.0
H1292 H 0.44933 0.43153 0.82573 0.0
H1293 H 0.4851 0.47387 0.83756 0.0
H1294 H 0.49305 0.54714 0.76631 0.0
H1295 H 0.47825 0.52683 0.72322 0.0
H1296 H 0.48713 0.46506 0.74209 0.0
H1297 H 0.50219 0.48574 0.78499 0.0
H1298 H 0.54644 0.59666 0.78816 0.0
H1299 H 0.58073 0.61622 0.76172 0.0
H1300 H 0.58692 0.54988 0.76094 0.0
H1301 H 0.55268 0.5305 0.78742 0.0
H1302 H 0.54525 0.61058 0.85037 0.0
H1303 H 0.5839 0.65156 0.85784 0.0
H1304 H 0.62364 0.61457 0.83819 0.0
H1305 H 0.58491 0.57365 0.83123 0.0
H1306 H 0.5073 0.57104 0.89188 0.0
H1307 H 0.52424 0.58577 0.93568 0.0
H1308 H 0.58296 0.57282 0.91998 0.0
H1309 H 0.56495 0.55658 0.87698 0.0
H1310 H 0.45633 0.52014 0.86278 0.0
H1311 H 0.43037 0.48971 0.89167 0.0
H1312 H 0.48933 0.47802 0.9124 0.0
H1313 H 0.51485 0.50784 0.88339 0.0
O1314 O 0.46571 0.49289 0.68619 0.0
O1315 O 0.47052 0.46155 0.69688 0.0
O1316 O 0.63051 0.68055 0.85968 0.0
O1317 O 0.65168 0.66272 0.8482 0.0
C1318 C 0.49262 0.51884 0.82497 0.0
C1319 C 0.50712 0.53009 0.80497 0.0
C1320 C 0.53025 0.55267 0.80996 0.0
C1321 C 0.53854 0.56456 0.83483 0.0
C1322 C 0.52439 0.55291 0.85491 0.0
C1323 C 0.50133 0.53011 0.84998 0.0
C1324 C 0.46974 0.49355 0.81991 0.0
C1325 C 0.44915 0.49068 0.80633 0.0
C1326 C 0.42879 0.4664 0.79912 0.0
C1327 C 0.4288 0.44473 0.80546 0.0
C1328 C 0.44892 0.44786 0.82033 0.0
C1329 C 0.46928 0.47203 0.82727 0.0
C1330 C 0.49848 0.5178 0.77878 0.0
C1331 C 0.49183 0.52925 0.76105 0.0
C1332 C 0.48335 0.51759 0.73648 0.0
C1333 C 0.48142 0.49427 0.72923 0.0
C1334 C 0.48832 0.48297 0.74706 0.0
C1335 C 0.49685 0.49469 0.77159 0.0
C1336 C 0.5472 0.56227 0.78981 0.0
C1337 C 0.55483 0.58614 0.78177 0.0
C1338 C 0.57449 0.5973 0.76685 0.0
C1339 C 0.58671 0.58469 0.75963 0.0
C1340 C 0.57782 0.55998 0.76616 0.0
C1341 C 0.55824 0.54889 0.78121 0.0
C1342 C 0.56225 0.5892 0.84 0.0
C1343 C 0.56234 0.61136 0.8478 0.0
C1344 C 0.58443 0.63474 0.852 0.0
C1345 C 0.60686 0.63636 0.84847 0.0
C1346 C 0.6067 0.61402 0.84096 0.0
C1347 C 0.5846 0.59063 0.8369 0.0
C1348 C 0.53504 0.56301 0.8812 0.0
C1349 C 0.52378 0.57136 0.89802 0.0
C1350 C 0.5336 0.57992 0.92297 0.0
C1351 C 0.55501 0.58049 0.93141 0.0
C1352 C 0.56626 0.57225 0.91433 0.0
C1353 C 0.55623 0.56336 0.8896 0.0
C1354 C 0.48747 0.51617 0.87097 0.0
C1355 C 0.4638 0.51147 0.87408 0.0
C1356 C 0.44904 0.49418 0.89056 0.0
C1357 C 0.4578 0.48137 0.90396 0.0
C1358 C 0.48208 0.48748 0.90206 0.0
C1359 C 0.49675 0.50469 0.88569 0.0
C1360 C 0.47225 0.48185 0.70317 0.0
C1361 C 0.63033 0.66123 0.85251 0.0
H1362 H 0.66316 0.88068 0.72691 0.0
H1363 H 0.66868 0.68046 0.56083 0.0
H1364 H 0.62281 0.85225 0.59429 0.0
H1365 H 0.6309 0.89549 0.60301 0.0
H1366 H 0.69775 0.92465 0.56566 0.0
H1367 H 0.69013 0.88168 0.55817 0.0
H1368 H 0.62742 0.8141 0.63241 0.0
H1369 H 0.63591 0.83667 0.67447 0.0
H1370 H 0.70658 0.89538 0.65422 0.0
H1371 H 0.69797 0.87246 0.61234 0.0
H1372 H 0.62647 0.7641 0.61483 0.0
H1373 H 0.63964 0.74022 0.63847 0.0
H1374 H 0.7153 0.79976 0.63578 0.0
H1375 H 0.70189 0.82373 0.61254 0.0
H1376 H 0.61157 0.7449 0.55477 0.0
H1377 H 0.60982 0.70429 0.55116 0.0
H1378 H 0.68859 0.74446 0.56673 0.0
H1379 H 0.69011 0.78487 0.56976 0.0
H1380 H 0.60967 0.77772 0.50922 0.0
H1381 H 0.60808 0.75443 0.46948 0.0
H1382 H 0.6841 0.77789 0.48591 0.0
H1383 H 0.68576 0.80218 0.52446 0.0
H1384 H 0.61083 0.83257 0.53413 0.0
H1385 H 0.6123 0.86188 0.50454 0.0
H1386 H 0.68286 0.8764 0.48459 0.0
H1387 H 0.68135 0.84728 0.51402 0.0
O1388 O 0.66023 0.87202 0.71021 0.0
O1389 O 0.6963 0.90177 0.69882 0.0
O1390 O 0.62858 0.67652 0.55234 0.0
O1391 O 0.66888 0.69624 0.56161 0.0
C1392 C 0.65261 0.83834 0.57264 0.0
C1393 C 0.6566 0.82807 0.5938 0.0
C1394 C 0.65618 0.80507 0.59052 0.0
C1395 C 0.65164 0.79224 0.5662 0.0
C1396 C 0.64832 0.80286 0.54506 0.0
C1397 C 0.6482 0.8256 0.54824 0.0
C1398 C 0.65593 0.86393 0.57572 0.0
C1399 C 0.63902 0.868 0.58778 0.0
C1400 C 0.64353 0.89262 0.59244 0.0
C1401 C 0.66499 0.91342 0.58502 0.0
C1402 C 0.68118 0.90901 0.57175 0.0
C1403 C 0.67681 0.8845 0.56737 0.0
C1404 C 0.662 0.84175 0.61933 0.0
C1405 C 0.64474 0.83181 0.63714 0.0
C1406 C 0.64962 0.84476 0.66112 0.0
C1407 C 0.6719 0.86787 0.66769 0.0
C1408 C 0.68922 0.87767 0.64977 0.0
C1409 C 0.68433 0.86466 0.62582 0.0
C1410 C 0.66324 0.79546 0.61181 0.0
C1411 C 0.64581 0.77247 0.62033 0.0
C1412 C 0.6534 0.75875 0.63352 0.0
C1413 C 0.67853 0.76784 0.6383 0.0
C1414 C 0.69584 0.79226 0.6323 0.0
C1415 C 0.68821 0.80603 0.61914 0.0
C1416 C 0.65091 0.76777 0.56279 0.0
C1417 C 0.62842 0.74486 0.55722 0.0
C1418 C 0.62748 0.72172 0.55524 0.0
C1419 C 0.64907 0.72113 0.55882 0.0
C1420 C 0.67162 0.74421 0.56398 0.0
C1421 C 0.67254 0.76732 0.5658 0.0
C1422 C 0.64775 0.79138 0.51969 0.0
C1423 C 0.62604 0.77819 0.50383 0.0
C1424 C 0.62514 0.76468 0.48134 0.0
C1425 C 0.6459 0.76401 0.4746 0.0
C1426 C 0.66785 0.77817 0.49023 0.0
C1427 C 0.6688 0.79191 0.5124 0.0
C1428 C 0.64598 0.83777 0.52618 0.0
C1429 C 0.62619 0.84144 0.52271 0.0
C1430 C 0.62705 0.85817 0.50591 0.0
C1431 C 0.64782 0.87154 0.49262 0.0
C1432 C 0.66674 0.86642 0.49482 0.0
C1433 C 0.66579 0.8496 0.51139 0.0
C1434 C 0.67697 0.88164 0.69314 0.0
C1435 C 0.64812 0.69658 0.55734 0.0
H1436 H 0.19758 0.85465 0.75014 0.0
H1437 H 0.02118 0.65721 0.5306 0.0
H1438 H 0.18539 0.86827 0.61701 0.0
H1439 H 0.22272 0.90914 0.62853 0.0
H1440 H 0.26529 0.87962 0.59664 0.0
H1441 H 0.22752 0.83794 0.58657 0.0
H1442 H 0.15409 0.83743 0.64729 0.0
H1443 H 0.16849 0.84814 0.69191 0.0
H1444 H 0.21075 0.81232 0.68111 0.0
H1445 H 0.19596 0.8015 0.63653 0.0
H1446 H 0.11312 0.80614 0.62567 0.0
H1447 H 0.07821 0.78175 0.65004 0.0
H1448 H 0.09339 0.72123 0.6471 0.0
H1449 H 0.12832 0.74586 0.62253 0.0
H1450 H 0.08957 0.77889 0.57788 0.0
H1451 H 0.04924 0.74146 0.56413 0.0
H1452 H 0.08347 0.69834 0.54595 0.0
H1453 H 0.12366 0.73587 0.56005 0.0
H1454 H 0.11583 0.80285 0.53515 0.0
H1455 H 0.09746 0.78607 0.49209 0.0
H1456 H 0.14643 0.7581 0.4817 0.0
H1457 H 0.1632 0.77324 0.52531 0.0
H1458 H 0.17506 0.86147 0.55728 0.0
H1459 H 0.19778 0.88953 0.52581 0.0
H1460 H 0.22533 0.84095 0.50352 0.0
H1461 H 0.20338 0.81363 0.53618 0.0
O1462 O 0.19207 0.85019 0.73244 0.0
O1463 O 0.21357 0.83165 0.72586 0.0
O1464 O 0.02027 0.69523 0.54623 0.0
O1465 O 0.03689 0.67222 0.53636 0.0
C1466 C 0.18061 0.82577 0.59351 0.0
C1467 C 0.16498 0.81169 0.61174 0.0
C1468 C 0.14132 0.7907 0.60408 0.0
C1469 C 0.13393 0.78273 0.57829 0.0
C1470 C 0.14965 0.79659 0.56013 0.0
C1471 C 0.17283 0.81836 0.56767 0.0
C1472 C 0.2038 0.85007 0.60138 0.0
C1473 C 0.2028 0.87047 0.61295 0.0
C1474 C 0.22417 0.894 0.619 0.0
C1475 C 0.24703 0.89785 0.61309 0.0
C1476 C 0.24801 0.87728 0.60151 0.0
C1477 C 0.22651 0.85352 0.59574 0.0
C1478 C 0.17375 0.81841 0.63878 0.0
C1479 C 0.16624 0.83168 0.65465 0.0
C1480 C 0.17461 0.8379 0.68011 0.0
C1481 C 0.19071 0.83101 0.69011 0.0
C1482 C 0.19832 0.81785 0.67404 0.0
C1483 C 0.18991 0.81165 0.64859 0.0
C1484 C 0.12341 0.77789 0.6227 0.0
C1485 C 0.10939 0.78798 0.63103 0.0
C1486 C 0.08939 0.77398 0.64485 0.0
C1487 C 0.08296 0.74952 0.65036 0.0
C1488 C 0.09774 0.73992 0.64287 0.0
C1489 C 0.11781 0.75401 0.6291 0.0
C1490 C 0.10944 0.75996 0.57016 0.0
C1491 C 0.08827 0.76127 0.57113 0.0
C1492 C 0.06529 0.7399 0.56317 0.0
C1493 C 0.06314 0.71688 0.55396 0.0
C1494 C 0.08447 0.71573 0.55297 0.0
C1495 C 0.10743 0.73711 0.561 0.0
C1496 C 0.14082 0.78924 0.53321 0.0
C1497 C 0.1226 0.7932 0.52342 0.0
C1498 C 0.11228 0.78376 0.49877 0.0
C1499 C 0.12031 0.77053 0.48342 0.0
C1500 C 0.13938 0.76766 0.49312 0.0
C1501 C 0.14931 0.77664 0.5179 0.0
C1502 C 0.18731 0.83537 0.54873 0.0
C1503 C 0.1861 0.85697 0.54567 0.0
C1504 C 0.19896 0.87286 0.52752 0.0
C1505 C 0.21307 0.86727 0.51177 0.0
C1506 C 0.21471 0.84585 0.51533 0.0
C1507 C 0.20198 0.83007 0.53376 0.0
C1508 C 0.19953 0.83759 0.71718 0.0
C1509 C 0.03878 0.69419 0.54532 0.0
H1510 H 0.19632 0.33625 0.74887 0.0
H1511 H 0.00761 0.28246 0.52612 0.0
H1512 H 0.22261 0.36435 0.61478 0.0
H1513 H 0.25426 0.36088 0.638 0.0
H1514 H 0.21413 0.27998 0.61561 0.0
H1515 H 0.1825 0.28367 0.59275 0.0
H1516 H 0.17879 0.35913 0.64889 0.0
H1517 H 0.18825 0.35691 0.693 0.0
H1518 H 0.16446 0.27768 0.67572 0.0
H1519 H 0.15488 0.28016 0.63172 0.0
H1520 H 0.12666 0.35373 0.62158 0.0
H1521 H 0.09392 0.34523 0.64835 0.0
H1522 H 0.07931 0.26904 0.65287 0.0
H1523 H 0.11061 0.27718 0.62389 0.0
H1524 H 0.12293 0.35971 0.57571 0.0
H1525 H 0.0835 0.35354 0.56046 0.0
H1526 H 0.05477 0.27313 0.54335 0.0
H1527 H 0.09431 0.27962 0.55876 0.0
H1528 H 0.15084 0.36632 0.53935 0.0
H1529 H 0.13177 0.36343 0.49784 0.0
H1530 H 0.12429 0.29049 0.47879 0.0
H1531 H 0.14199 0.29295 0.52084 0.0
H1532 H 0.20132 0.3733 0.54662 0.0
H1533 H 0.22932 0.38211 0.5138 0.0
H1534 H 0.22017 0.308 0.51691 0.0
H1535 H 0.1908 0.29878 0.54839 0.0
O1536 O 0.19228 0.33665 0.73139 0.0
O1537 O 0.1799 0.296 0.72151 0.0
O1538 O 0.03895 0.32687 0.54175 0.0
O1539 O 0.02339 0.28545 0.53228 0.0
C1540 C 0.17871 0.32528 0.59305 0.0
C1541 C 0.16126 0.32166 0.61038 0.0
C1542 C 0.13958 0.32082 0.60253 0.0
C1543 C 0.13536 0.32381 0.57732 0.0
C1544 C 0.15315 0.32842 0.56011 0.0
C1545 C 0.17503 0.3294 0.568 0.0
C1546 C 0.20048 0.32434 0.60175 0.0
C1547 C 0.22111 0.34605 0.61424 0.0
C1548 C 0.23908 0.34397 0.62759 0.0
C1549 C 0.23661 0.32009 0.62883 0.0
C1550 C 0.21643 0.29858 0.6153 0.0
C1551 C 0.19855 0.30071 0.6019 0.0
C1552 C 0.16627 0.31985 0.63718 0.0
C1553 C 0.17556 0.34131 0.65473 0.0
C1554 C 0.18098 0.33998 0.67988 0.0
C1555 C 0.17717 0.31713 0.68788 0.0
C1556 C 0.16766 0.29559 0.67018 0.0
C1557 C 0.1622 0.29694 0.64506 0.0
C1558 C 0.12083 0.31601 0.62053 0.0
C1559 C 0.11617 0.33512 0.62814 0.0
C1560 C 0.09763 0.33028 0.64388 0.0
C1561 C 0.08378 0.30638 0.65307 0.0
C1562 C 0.08911 0.28749 0.64591 0.0
C1563 C 0.10726 0.29219 0.62959 0.0
C1564 C 0.11137 0.32008 0.56841 0.0
C1565 C 0.10805 0.34078 0.56876 0.0
C1566 C 0.08553 0.3372 0.56 0.0
C1567 C 0.06596 0.31282 0.5507 0.0
C1568 C 0.06943 0.29214 0.5504 0.0
C1569 C 0.09196 0.29576 0.55921 0.0
C1570 C 0.14735 0.32962 0.53327 0.0
C1571 C 0.14536 0.34989 0.52604 0.0
C1572 C 0.13459 0.34826 0.50222 0.0
C1573 C 0.12595 0.32646 0.48508 0.0
C1574 C 0.13004 0.30723 0.49173 0.0
C1575 C 0.14047 0.30873 0.51565 0.0
C1576 C 0.1941 0.33546 0.55009 0.0
C1577 C 0.2055 0.35904 0.54029 0.0
C1578 C 0.2217 0.36411 0.52163 0.0
C1579 C 0.2271 0.34579 0.51253 0.0
C1580 C 0.2162 0.32246 0.52306 0.0
C1581 C 0.19969 0.31726 0.54144 0.0
C1582 C 0.18316 0.31585 0.71457 0.0
C1583 C 0.042 0.30891 0.54133 0.0
C1584 C 0.96727 0.39602 0.08194 0.0
C1585 C 0.98465 0.38893 0.07838 0.0
H1586 H 0.95681 0.41816 0.10456 0.0
C1587 C 0.00506 0.39878 0.09598 0.0
H1588 H 0.95149 0.38898 0.06852 0.0
C1589 C 0.00791 0.41519 0.11687 0.0
C1590 C 0.99059 0.42241 0.12039 0.0
H1591 H 0.01868 0.39354 0.09382 0.0
H1592 H 0.02349 0.42186 0.13046 0.0
C1593 C 0.97029 0.4127 0.10263 0.0
C1594 C 0.58151 0.58745 0.14523 0.0
C1595 C 0.59352 0.58463 0.12493 0.0
H1596 H 0.55842 0.56995 0.17445 0.0
C1597 C 0.59289 0.56163 0.12001 0.0
H1598 H 0.58201 0.60505 0.14989 0.0
C1599 C 0.57919 0.54133 0.13425 0.0
C1600 C 0.56597 0.54385 0.15345 0.0
H1601 H 0.60204 0.55894 0.10455 0.0
H1602 H 0.57804 0.5234 0.12955 0.0
C1603 C 0.56793 0.56733 0.15929 0.0
C1604 C 0.42169 0.96254 0.08035 0.0
C1605 C 0.41414 0.97983 0.07662 0.0
H1606 H 0.43985 0.95065 0.10507 0.0
C1607 C 0.4214 0.00028 0.0951 0.0
H1608 H 0.41677 0.94681 0.06628 0.0
C1609 C 0.43448 0.0023 0.11764 0.0
C1610 C 0.44064 0.984 0.12194 0.0
H1611 H 0.41581 0.01387 0.09276 0.0
H1612 H 0.43858 0.01737 0.1322 0.0
C1613 C 0.43486 0.96468 0.10263 0.0
C1614 C 0.42426 0.00417 0.95392 0.0
C1615 C 0.40444 0.97942 0.9557 0.0
H1616 H 0.45515 0.0283 0.93424 0.0
C1617 C 0.39978 0.96 0.93696 0.0
H1618 H 0.42848 0.01959 0.96809 0.0
C1619 C 0.41485 0.96511 0.91718 0.0
C1620 C 0.43518 0.98971 0.91581 0.0
H1621 H 0.38452 0.94077 0.93759 0.0
H1622 H 0.41058 0.94969 0.903 0.0
C1623 C 0.43951 0.00922 0.93434 0.0
C1624 C 0.97595 0.38385 0.94126 0.0
C1625 C 0.99395 0.38932 0.96065 0.0
H1626 H 0.96492 0.39723 0.9108 0.0
C1627 C 0.01624 0.41286 0.9625 0.0
H1628 H 0.95872 0.36577 0.93892 0.0
C1629 C 0.01977 0.43105 0.94615 0.0
C1630 C 0.001 0.42595 0.92788 0.0
H1631 H 0.03048 0.41765 0.9772 0.0
H1632 H 0.03669 0.44942 0.94847 0.0
C1633 C 0.97941 0.40192 0.92517 0.0
C1634 C 0.58802 0.5881 0.99474 0.0
C1635 C 0.58801 0.60881 0.00727 0.0
H1636 H 0.57685 0.56232 0.96141 0.0
C1637 C 0.57648 0.6197 0.99499 0.0
H1638 H 0.59654 0.57913 0.0038 0.0
C1639 C 0.56563 0.61042 0.97049 0.0
C1640 C 0.56577 0.58981 0.95781 0.0
H1641 H 0.57632 0.63582 0.00409 0.0
H1642 H 0.55764 0.61982 0.96131 0.0
C1643 C 0.57684 0.57857 0.97037 0.0
C1644 C 0.03472 0.61179 0.97605 0.0
C1645 C 0.01542 0.60573 0.99131 0.0
H1646 H 0.04692 0.60034 0.94398 0.0
C1647 C 0.99331 0.5823 0.98602 0.0
H1648 H 0.05195 0.62978 0.97967 0.0
C1649 C 0.99066 0.56506 0.96606 0.0
C1650 C 0.00991 0.5711 0.95064 0.0
H1651 H 0.97825 0.57696 0.99774 0.0
H1652 H 0.9736 0.54688 0.96294 0.0
C1653 C 0.03191 0.59476 0.95579 0.0
C1654 C 0.41267 0.44104 0.94971 0.0
C1655 C 0.41276 0.41837 0.94543 0.0
H1656 H 0.42708 0.47912 0.93984 0.0
C1657 C 0.42621 0.41623 0.92623 0.0
H1658 H 0.40244 0.44325 0.9643 0.0
C1659 C 0.44025 0.43657 0.91258 0.0
C1660 C 0.4412 0.45962 0.91763 0.0
H1661 H 0.42641 0.39895 0.92202 0.0
H1662 H 0.45069 0.43437 0.8982 0.0
C1663 C 0.42677 0.46154 0.9358 0.0
C1664 C 0.57626 0.9981 0.98615 0.0
C1665 C 0.59503 0.02293 0.9953 0.0
H1666 H 0.54727 0.97445 0.95734 0.0
C1667 C 0.59886 0.04314 0.98171 0.0
H1668 H 0.57283 0.9821 0.99613 0.0
C1669 C 0.58451 0.03879 0.95962 0.0
C1670 C 0.56564 0.0141 0.95041 0.0
H1671 H 0.61328 0.06253 0.98786 0.0
H1672 H 0.58869 0.0549 0.94944 0.0
C1673 C 0.56168 0.99373 0.9639 0.0
C1674 C 0.58863 0.999 0.12684 0.0
C1675 C 0.59972 0.02341 0.11867 0.0
H1676 H 0.56467 0.97348 0.15185 0.0
C1677 C 0.59503 0.04127 0.13063 0.0
H1678 H 0.59195 0.98478 0.11826 0.0
C1679 C 0.57914 0.03465 0.14981 0.0
C1680 C 0.56763 0.01005 0.15757 0.0
H1681 H 0.60317 0.06021 0.1248 0.0
H1682 H 0.57535 0.04863 0.15806 0.0
C1683 C 0.57284 0.99243 0.14605 0.0
C1684 C 0.99049 0.59249 0.1235 0.0
C1685 C 0.00443 0.59516 0.10303 0.0
H1686 H 0.9778 0.5745 0.15718 0.0
C1687 C 0.01371 0.57917 0.09901 0.0
H1688 H 0.98326 0.60475 0.12694 0.0
C1689 C 0.01019 0.56161 0.11578 0.0
C1690 C 0.99784 0.56004 0.13739 0.0
H1691 H 0.02425 0.58071 0.08312 0.0
H1692 H 0.01785 0.54977 0.11217 0.0
C1693 C 0.98735 0.57513 0.1407 0.0
C1694 C 0.4029 0.39559 0.08083 0.0
C1695 C 0.41594 0.39239 0.06189 0.0
H1696 H 0.40281 0.40607 0.1196 0.0
C1697 C 0.44006 0.3985 0.06789 0.0
H1698 H 0.38413 0.39064 0.07681 0.0
C1699 C 0.45108 0.40802 0.09234 0.0
C1700 C 0.43802 0.41115 0.11142 0.0
H1701 H 0.45056 0.3963 0.05358 0.0
H1702 H 0.46994 0.41324 0.09616 0.0
C1703 C 0.4137 0.40458 0.10535 0.0
C1704 C 0.66396 0.73973 0.41736 0.0
C1705 C 0.64265 0.7159 0.41054 0.0
H1706 H 0.68132 0.7741 0.44211 0.0
C1707 C 0.62229 0.7081 0.42464 0.0
H1708 H 0.67979 0.74641 0.40657 0.0
C1709 C 0.62329 0.72376 0.44532 0.0
C1710 C 0.64453 0.74775 0.45207 0.0
H1711 H 0.60564 0.68976 0.41984 0.0
H1712 H 0.60753 0.71684 0.45623 0.0
C1713 C 0.66481 0.75559 0.43775 0.0
C1714 C 0.2253 0.91005 0.46008 0.0
C1715 C 0.24918 0.91699 0.45469 0.0
H1716 H 0.19505 0.88847 0.4815 0.0
C1717 C 0.26079 0.90629 0.4672 0.0
H1718 H 0.21563 0.91758 0.45047 0.0
C1719 C 0.24903 0.88979 0.48551 0.0
C1720 C 0.22538 0.88354 0.49143 0.0
H1721 H 0.27921 0.91132 0.46346 0.0
H1722 H 0.25873 0.88255 0.49553 0.0
C1723 C 0.21352 0.89345 0.47804 0.0
C1724 C 0.10064 0.33894 0.42572 0.0
C1725 C 0.0803 0.31462 0.41772 0.0
H1726 H 0.13144 0.36177 0.45287 0.0
C1727 C 0.0754 0.29446 0.43192 0.0
H1728 H 0.10499 0.35488 0.4152 0.0
C1729 C 0.09032 0.29841 0.45347 0.0
C1730 C 0.1108 0.32261 0.46146 0.0
H1731 H 0.05976 0.2755 0.42659 0.0
H1732 H 0.0854 0.28247 0.46418 0.0
C1733 C 0.11577 0.34289 0.44734 0.0
C1734 C 0.09421 0.338 0.29039 0.0
C1735 C 0.07402 0.31374 0.2931 0.0
H1736 H 0.1239 0.3608 0.26868 0.0
C1737 C 0.06749 0.29382 0.2742 0.0
H1738 H 0.09981 0.35378 0.30463 0.0
C1739 C 0.08103 0.29798 0.25326 0.0
C1740 C 0.10164 0.32209 0.25084 0.0
H1741 H 0.05185 0.27497 0.27553 0.0
H1742 H 0.07532 0.28223 0.23898 0.0
C1743 C 0.10793 0.34209 0.26962 0.0
C1744 C 0.63934 0.73291 0.28886 0.0
C1745 C 0.65693 0.72715 0.29671 0.0
H1746 H 0.6309 0.75557 0.26751 0.0
C1747 C 0.68055 0.74091 0.28833 0.0
H1748 H 0.62112 0.72313 0.29533 0.0
C1749 C 0.6861 0.7595 0.27182 0.0
C1750 C 0.6682 0.76478 0.26362 0.0
H1751 H 0.69454 0.73699 0.29413 0.0
H1752 H 0.70419 0.76929 0.26506 0.0
C1753 C 0.64494 0.75154 0.27277 0.0
C1754 C 0.24696 0.94834 0.31978 0.0
C1755 C 0.25702 0.93739 0.33438 0.0
H1756 H 0.22928 0.94692 0.28465 0.0
C1757 C 0.25671 0.91574 0.32395 0.0
H1758 H 0.24722 0.96527 0.32709 0.0
C1759 C 0.24599 0.90492 0.29958 0.0
C1760 C 0.23561 0.91573 0.28515 0.0
H1761 H 0.26427 0.90686 0.33477 0.0
H1762 H 0.24542 0.88784 0.29223 0.0
C1763 C 0.23651 0.93773 0.29545 0.0
C1764 C 0.66551 0.92344 0.31941 0.0
C1765 C 0.68612 0.93755 0.33686 0.0
H1766 H 0.64995 0.89819 0.28558 0.0
C1767 C 0.70686 0.93563 0.33383 0.0
H1768 H 0.64924 0.92449 0.32113 0.0
C1769 C 0.70712 0.92027 0.31361 0.0
C1770 C 0.68669 0.90654 0.29594 0.0
H1771 H 0.72297 0.94603 0.34705 0.0
H1772 H 0.72338 0.91923 0.31174 0.0
C1773 C 0.66582 0.90816 0.29915 0.0
C1774 C 0.08466 0.77352 0.28759 0.0
C1775 C 0.08464 0.75072 0.28661 0.0
H1776 H 0.09827 0.80935 0.27247 0.0
C1777 C 0.09686 0.74578 0.26783 0.0
H1778 H 0.07536 0.77783 0.3018 0.0
C1779 C 0.10982 0.7636 0.25129 0.0
C1780 C 0.11099 0.78694 0.25302 0.0
H1781 H 0.09684 0.72821 0.26613 0.0
H1782 H 0.11923 0.75922 0.23727 0.0
C1783 C 0.09776 0.79153 0.27087 0.0
C1784 C 0.2412 0.3287 0.31771 0.0
C1785 C 0.26066 0.35351 0.32587 0.0
H1786 H 0.21088 0.30482 0.29028 0.0
C1787 C 0.26429 0.37344 0.31192 0.0
H1788 H 0.23789 0.31291 0.328 0.0
C1789 C 0.2491 0.36882 0.29043 0.0
C1790 C 0.22956 0.34415 0.2822 0.0
H1791 H 0.2792 0.39278 0.31731 0.0
H1792 H 0.25317 0.38468 0.2799 0.0
C1793 C 0.22578 0.32407 0.29608 0.0
C1794 C 0.27692 0.3795 0.46798 0.0
C1795 C 0.27158 0.35948 0.44967 0.0
H1796 H 0.26777 0.39084 0.50255 0.0
C1797 C 0.25203 0.33491 0.4526 0.0
H1798 H 0.29197 0.39862 0.4664 0.0
C1799 C 0.23785 0.33051 0.47301 0.0
C1800 C 0.24301 0.35049 0.49133 0.0
H1801 H 0.24724 0.31905 0.43876 0.0
H1802 H 0.22241 0.31148 0.47399 0.0
C1803 C 0.26292 0.37503 0.48865 0.0
C1804 C 0.63972 0.90936 0.44439 0.0
C1805 C 0.66193 0.9329 0.44936 0.0
H1806 H 0.61773 0.87114 0.45434 0.0
C1807 C 0.67786 0.93659 0.47022 0.0
H1808 H 0.62706 0.9059 0.42848 0.0
C1809 C 0.67267 0.91679 0.48461 0.0
C1810 C 0.65134 0.89283 0.47868 0.0
H1811 H 0.69493 0.95456 0.4749 0.0
H1812 H 0.6857 0.92001 0.50007 0.0
C1813 C 0.63442 0.88945 0.45905 0.0
C1814 C 0.08802 0.75893 0.41847 0.0
C1815 C 0.0852 0.73563 0.4094 0.0
H1816 H 0.10216 0.7888 0.44866 0.0
C1817 C 0.09349 0.72375 0.42489 0.0
H1818 H 0.08187 0.76852 0.40682 0.0
C1819 C 0.10456 0.73498 0.44891 0.0
C1820 C 0.10809 0.75865 0.45789 0.0
H1821 H 0.0912 0.70556 0.41854 0.0
H1822 H 0.11014 0.72489 0.4605 0.0
C1823 C 0.09957 0.77046 0.44244 0.0
C1824 C 0.34009 0.08056 0.75327 0.0
C1825 C 0.31894 0.05661 0.74637 0.0
H1826 H 0.35697 0.11506 0.7778 0.0
C1827 C 0.29838 0.04872 0.76015 0.0
H1828 H 0.35608 0.0873 0.74271 0.0
C1829 C 0.29903 0.06441 0.7806 0.0
C1830 C 0.32009 0.08855 0.7874 0.0
H1831 H 0.28185 0.0303 0.75527 0.0
H1832 H 0.28311 0.0574 0.79128 0.0
C1833 C 0.34058 0.09646 0.7734 0.0
C1834 C 0.92444 0.22898 0.79327 0.0
C1835 C 0.91159 0.2328 0.77406 0.0
H1836 H 0.92203 0.21029 0.82613 0.0
C1837 C 0.88592 0.21773 0.77117 0.0
H1838 H 0.94427 0.24055 0.79591 0.0
C1839 C 0.87318 0.19995 0.78793 0.0
C1840 C 0.88579 0.19738 0.80847 0.0
H1841 H 0.87564 0.22016 0.75627 0.0
H1842 H 0.85336 0.18879 0.78519 0.0
C1843 C 0.91164 0.21157 0.8105 0.0
C1844 C 0.75494 0.67421 0.76532 0.0
C1845 C 0.75268 0.65729 0.74503 0.0
H1846 H 0.76902 0.68941 0.8034 0.0
C1847 C 0.76618 0.64532 0.74653 0.0
H1848 H 0.74449 0.68346 0.76466 0.0
C1849 C 0.78079 0.64922 0.76837 0.0
C1850 C 0.78166 0.66458 0.78957 0.0
H1851 H 0.76488 0.63234 0.73099 0.0
H1852 H 0.79076 0.63948 0.76887 0.0
C1853 C 0.7691 0.67764 0.78749 0.0
C1854 C 0.74192 0.66662 0.61033 0.0
C1855 C 0.73676 0.6464 0.6245 0.0
H1856 H 0.75895 0.68642 0.57885 0.0
C1857 C 0.74561 0.63052 0.61739 0.0
H1858 H 0.73516 0.67907 0.61521 0.0
C1859 C 0.75984 0.63512 0.59697 0.0
C1860 C 0.76518 0.65543 0.58274 0.0
H1861 H 0.74219 0.61494 0.62809 0.0
H1862 H 0.76716 0.62306 0.59283 0.0
C1863 C 0.75574 0.67093 0.58955 0.0
C1864 C 0.32351 0.08429 0.63679 0.0
C1865 C 0.33696 0.07221 0.63655 0.0
H1866 H 0.31753 0.11173 0.62164 0.0
C1867 C 0.3562 0.0799 0.62089 0.0
H1868 H 0.30892 0.07909 0.64912 0.0
C1869 C 0.3608 0.09833 0.60448 0.0
C1870 C 0.34644 0.10954 0.60389 0.0
H1871 H 0.36687 0.07087 0.62049 0.0
H1872 H 0.37484 0.10297 0.59158 0.0
C1873 C 0.32838 0.10291 0.62092 0.0
C1874 C 0.9236 0.2434 0.64911 0.0
C1875 C 0.92419 0.26512 0.65983 0.0
H1876 H 0.91168 0.2155 0.61731 0.0
C1877 C 0.9145 0.27653 0.64546 0.0
H1878 H 0.93083 0.23414 0.6598 0.0
C1879 C 0.9039 0.26615 0.62111 0.0
C1880 C 0.90241 0.24387 0.61061 0.0
H1881 H 0.915 0.29351 0.65307 0.0
H1882 H 0.89684 0.27562 0.61051 0.0
C1883 C 0.91266 0.23277 0.62476 0.0
C1884 C 0.33776 0.26424 0.65411 0.0
C1885 C 0.35819 0.27604 0.67192 0.0
H1886 H 0.32155 0.24129 0.61904 0.0
C1887 C 0.37785 0.2724 0.6682 0.0
H1888 H 0.32236 0.26672 0.65635 0.0
C1889 C 0.37725 0.25759 0.64697 0.0
C1890 C 0.35704 0.24617 0.62895 0.0
H1891 H 0.39379 0.28101 0.68166 0.0
H1892 H 0.39264 0.25509 0.64468 0.0
C1893 C 0.33723 0.24952 0.63281 0.0
C1894 C 0.78087 0.10244 0.62157 0.0
C1895 C 0.75518 0.08898 0.62038 0.0
H1896 H 0.81321 0.12947 0.60567 0.0
C1897 C 0.74218 0.09388 0.60228 0.0
H1898 H 0.79132 0.09921 0.63559 0.0
C1899 C 0.75472 0.11076 0.58451 0.0
C1900 C 0.78046 0.12323 0.58486 0.0
H1901 H 0.72232 0.08357 0.60096 0.0
H1902 H 0.74415 0.11303 0.56982 0.0
C1903 C 0.79337 0.11958 0.60425 0.0
C1904 C 0.9036 0.65603 0.64546 0.0
C1905 C 0.9242 0.68001 0.65404 0.0
H1906 H 0.87265 0.63448 0.6181 0.0
C1907 C 0.9295 0.70077 0.64062 0.0
H1908 H 0.89898 0.63963 0.65533 0.0
C1909 C 0.91462 0.69783 0.61945 0.0
C1910 C 0.8938 0.67406 0.611 0.0
H1911 H 0.94535 0.7195 0.64634 0.0
H1912 H 0.91978 0.71425 0.60942 0.0
C1913 C 0.88853 0.65308 0.62413 0.0
C1914 C 0.93716 0.70043 0.79729 0.0
C1915 C 0.92999 0.68044 0.77829 0.0
H1916 H 0.92971 0.71264 0.83241 0.0
C1917 C 0.90899 0.65665 0.7807 0.0
H1918 H 0.95341 0.71891 0.7962 0.0
C1919 C 0.89512 0.65315 0.80129 0.0
C1920 C 0.90205 0.67326 0.82015 0.0
H1921 H 0.90289 0.64084 0.76636 0.0
H1922 H 0.87856 0.63484 0.802 0.0
C1923 C 0.92347 0.69685 0.81804 0.0
C1924 C 0.31722 0.24852 0.78087 0.0
C1925 C 0.3373 0.27335 0.78747 0.0
H1926 H 0.29764 0.20993 0.78997 0.0
C1927 C 0.35119 0.27883 0.81049 0.0
H1928 H 0.30626 0.24371 0.76318 0.0
C1929 C 0.34625 0.25966 0.82574 0.0
C1930 C 0.32745 0.23441 0.81828 0.0
H1931 H 0.36657 0.29785 0.81628 0.0
H1932 H 0.35771 0.2645 0.84309 0.0
C1933 C 0.31235 0.22917 0.79615 0.0
C1934 C 0.74711 0.08031 0.74755 0.0
C1935 C 0.74691 0.05903 0.73619 0.0
H1936 H 0.75767 0.10681 0.78025 0.0
C1937 C 0.75646 0.04725 0.75019 0.0
H1938 H 0.73998 0.08986 0.73717 0.0
C1939 C 0.76614 0.05662 0.775 0.0
C1940 C 0.76681 0.07821 0.78628 0.0
H1941 H 0.75629 0.0306 0.74207 0.0
H1942 H 0.77293 0.04679 0.78537 0.0
C1943 C 0.75713 0.08992 0.77229 0.0
C1944 C 0.07497 0.37661 0.07655 0.0
C1945 C 0.05598 0.35409 0.06331 0.0
H1946 H 0.10565 0.3936 0.10407 0.0
C1947 C 0.05433 0.33104 0.06682 0.0
H1948 H 0.07633 0.39458 0.07441 0.0
C1949 C 0.07152 0.33044 0.08306 0.0
C1950 C 0.0904 0.35283 0.09696 0.0
H1951 H 0.03987 0.3134 0.05667 0.0
H1952 H 0.07006 0.31234 0.08433 0.0
C1953 C 0.09179 0.37596 0.0935 0.0
C1954 C 0.6858 0.70545 0.12041 0.0
C1955 C 0.66171 0.68449 0.11785 0.0
H1956 H 0.70905 0.74539 0.13141 0.0
C1957 C 0.6432 0.68643 0.12891 0.0
H1958 H 0.70026 0.70428 0.11172 0.0
C1959 C 0.64824 0.70961 0.14066 0.0
C1960 C 0.6717 0.73146 0.14071 0.0
H1961 H 0.62451 0.67038 0.12722 0.0
H1962 H 0.63335 0.71075 0.1483 0.0
C1963 C 0.69078 0.72894 0.13164 0.0
C1964 C 0.3014 0.92754 0.04292 0.0
C1965 C 0.31858 0.95254 0.05317 0.0
H1966 H 0.26613 0.89408 0.04556 0.0
C1967 C 0.31377 0.96251 0.0751 0.0
H1968 H 0.30464 0.91942 0.02601 0.0
C1969 C 0.29191 0.94824 0.08606 0.0
C1970 C 0.27426 0.9236 0.07541 0.0
H1971 H 0.32675 0.98162 0.08364 0.0
H1972 H 0.28881 0.95654 0.10298 0.0
C1973 C 0.27938 0.91313 0.05402 0.0
C1974 C 0.38038 0.07264 0.00714 0.0
C1975 C 0.36858 0.04789 0.99476 0.0
H1976 H 0.38268 0.1087 0.01007 0.0
C1977 C 0.35105 0.04109 0.97447 0.0
H1978 H 0.39388 0.07832 0.02289 0.0
C1979 C 0.34458 0.05816 0.96737 0.0
C1980 C 0.3554 0.0825 0.9804 0.0
H1981 H 0.34185 0.02227 0.96432 0.0
H1982 H 0.33096 0.05222 0.95165 0.0
C1983 C 0.37385 0.0899 -6e-05 0.0
C1984 C 0.9725 0.28042 0.96358 0.0
C1985 C 0.965 0.29468 0.97799 0.0
H1986 H 0.96108 0.24699 0.93817 0.0
C1987 C 0.94017 0.28713 0.97631 0.0
H1988 H 0.99158 0.28586 0.96463 0.0
C1989 C 0.92298 0.26533 0.96115 0.0
C1990 C 0.93019 0.25044 0.94745 0.0
H1991 H 0.93382 0.29773 0.98716 0.0
H1992 H 0.90383 0.25953 0.96103 0.0
C1993 C 0.95513 0.25824 0.94856 0.0
C1994 C 0.70456 0.65674 0.0173 0.0
C1995 C 0.69008 0.63411 0.02828 0.0
H1996 H 0.7337 0.67707 0.99409 0.0
C1997 C 0.69444 0.61417 0.02405 0.0
H1998 H 0.70167 0.67247 0.02015 0.0
C1999 C 0.71297 0.61688 0.00904 0.0
C2000 C 0.72752 0.63964 0.99823 0.0
H2001 H 0.68359 0.59654 0.03231 0.0
H2002 H 0.71611 0.60132 0.00613 0.0
C2003 C 0.72307 0.65948 0.0025 0.0
C2004 C 0.94888 0.6651 0.00552 0.0
C2005 C 0.94654 0.64175 0.00912 0.0
H2006 H 0.93416 0.68455 0.98761 0.0
C2007 C 0.92742 0.61949 0.99564 0.0
H2008 H 0.96348 0.68255 0.01582 0.0
C2009 C 0.91114 0.62067 0.9784 0.0
C2010 C 0.91319 0.64409 0.97486 0.0
H2011 H 0.92553 0.6013 0.99782 0.0
H2012 H 0.89717 0.6032 0.96768 0.0
C2013 C 0.93221 0.66624 0.98896 0.0
C2014 C 0.35862 0.31624 0.93598 0.0
C2015 C 0.34149 0.31789 0.95016 0.0
H2016 H 0.36715 0.29192 0.91436 0.0
C2017 C 0.31821 0.2963 0.95122 0.0
H2018 H 0.37668 0.33281 0.93498 0.0
C2019 C 0.31306 0.27264 0.94044 0.0
C2020 C 0.33105 0.27047 0.92811 0.0
H2021 H 0.3049 0.29728 0.96242 0.0
H2022 H 0.29581 0.25594 0.94364 0.0
C2023 C 0.35324 0.29277 0.92455 0.0
C2024 C 0.69095 0.04139 -0.00096 0.0
C2025 C 0.68717 0.05157 0.02151 0.0
H2026 H 0.71509 0.04645 0.97052 0.0
C2027 C 0.70519 0.07625 0.03184 0.0
H2028 H 0.67728 0.02256 0.9904 0.0
C2029 C 0.72712 0.09 0.02036 0.0
C2030 C 0.73126 0.07911 0.99858 0.0
H2031 H 0.70272 0.08452 0.04915 0.0
H2032 H 0.74111 0.10875 0.02889 0.0
C2033 C 0.71271 0.05496 0.98774 0.0
C2034 C 0.62348 0.93171 0.07602 0.0
C2035 C 0.64039 0.9579 0.08147 0.0
H2036 H 0.61553 0.89395 0.08041 0.0
C2037 C 0.66264 0.96606 0.0956 0.0
H2038 H 0.60624 0.9249 0.06511 0.0
C2039 C 0.66802 0.9486 0.10398 0.0
C2040 C 0.65127 0.92245 0.0986 0.0
H2041 H 0.67614 0.98608 0.1002 0.0
H2042 H 0.68517 0.95564 0.11517 0.0
C2043 C 0.62882 0.91407 0.08469 0.0
C2044 C 0.06218 0.70437 0.09663 0.0
C2045 C 0.03758 0.69768 0.09495 0.0
H2046 H 0.09899 0.73182 0.11062 0.0
C2047 C 0.03094 0.7132 0.10846 0.0
H2048 H 0.06781 0.69272 0.08649 0.0
C2049 C 0.04897 0.73586 0.12236 0.0
C2050 C 0.07374 0.74297 0.12319 0.0
H2051 H 0.01207 0.70844 0.10739 0.0
H2052 H 0.04366 0.74806 0.13197 0.0
C2053 C 0.08004 0.7267 0.11064 0.0
C2054 C 0.29978 0.34431 0.05154 0.0
C2055 C 0.31432 0.36723 0.04103 0.0
H2056 H 0.27116 0.3237 0.07518 0.0
C2057 C 0.31053 0.38742 0.04658 0.0
H2058 H 0.30225 0.32838 0.04773 0.0
C2059 C 0.2925 0.38465 0.06241 0.0
C2060 C 0.2779 0.3616 0.07276 0.0
H2061 H 0.32147 0.40529 0.03875 0.0
H2062 H 0.28978 0.4004 0.06631 0.0
C2063 C 0.28181 0.34153 0.06717 0.0
C2064 C 0.73644 0.71017 0.4086 0.0
C2065 C 0.71804 0.6875 0.39501 0.0
H2066 H 0.76682 0.72771 0.43649 0.0
C2067 C 0.71719 0.6648 0.39833 0.0
H2068 H 0.73722 0.72786 0.40659 0.0
C2069 C 0.7346 0.66471 0.41471 0.0
C2070 C 0.7529 0.68724 0.42894 0.0
H2071 H 0.70321 0.64707 0.3879 0.0
H2072 H 0.73379 0.6469 0.41578 0.0
C2073 C 0.75346 0.70999 0.42568 0.0
C2074 C 0.30327 0.02567 0.44292 0.0
C2075 C 0.31928 0.01678 0.44611 0.0
H2076 H 0.29627 0.05525 0.45157 0.0
C2077 C 0.34022 0.03069 0.46314 0.0
H2078 H 0.28698 0.01542 0.42994 0.0
C2079 C 0.34555 0.05381 0.47589 0.0
C2080 C 0.32987 0.06309 0.47185 0.0
H2081 H 0.35289 0.02424 0.46584 0.0
H2082 H 0.36207 0.06461 0.48851 0.0
C2083 C 0.30852 0.04851 0.45553 0.0
C2084 C 0.98093 0.29893 0.40791 0.0
C2085 C 0.98734 0.28963 0.38674 0.0
H2086 H 0.954 0.29172 0.43383 0.0
C2087 C 0.97081 0.26486 0.37543 0.0
H2088 H 0.99335 0.31788 0.41715 0.0
C2089 C 0.94799 0.24991 0.38483 0.0
C2090 C 0.94136 0.25952 0.40565 0.0
H2091 H 0.97527 0.25725 0.35903 0.0
H2092 H 0.93538 0.23105 0.37553 0.0
C2093 C 0.95824 0.28405 0.41729 0.0
C2094 C 0.05847 0.41195 0.34225 0.0
C2095 C 0.04449 0.38675 0.33094 0.0
H2096 H 0.06474 0.44975 0.34342 0.0
C2097 C 0.02709 0.38078 0.31077 0.0
H2098 H 0.072 0.41705 0.35783 0.0
C2099 C 0.02287 0.39918 0.30278 0.0
C2100 C 0.03592 0.42407 0.31474 0.0
H2101 H 0.01624 0.36165 0.30138 0.0
H2102 H 0.00921 0.39384 0.28725 0.0
C2103 C 0.05425 0.43056 0.33412 0.0
C2104 C 0.60396 0.61922 0.30532 0.0
C2105 C 0.6289 0.62723 0.30785 0.0
H2106 H 0.56793 0.59055 0.29026 0.0
C2107 C 0.63694 0.61266 0.29493 0.0
H2108 H 0.59722 0.63006 0.315 0.0
C2109 C 0.61996 0.58971 0.28067 0.0
C2110 C 0.59487 0.58137 0.27886 0.0
H2111 H 0.6561 0.61843 0.29669 0.0
H2112 H 0.62634 0.57829 0.27145 0.0
C2113 C 0.58717 0.59662 0.29096 0.0
C2114 C 0.37675 0.98368 0.36758 0.0
C2115 C 0.35521 0.96027 0.36929 0.0
H2116 H 0.41112 0.00367 0.35183 0.0
C2117 C 0.35221 0.93821 0.3563 0.0
H2118 H 0.37962 0.00094 0.37771 0.0
C2119 C 0.36994 0.93984 0.34061 0.0
C2120 C 0.3912 0.96352 0.33808 0.0
H2121 H 0.33562 0.91996 0.35724 0.0
H2122 H 0.36646 0.9227 0.32972 0.0
C2123 C 0.39468 0.98525 0.35249 0.0
C2124 C 0.61892 0.99084 0.32377 0.0
C2125 C 0.61113 0.97014 0.33807 0.0
H2126 H 0.60874 0.00866 0.2971 0.0
C2127 C 0.58638 0.95042 0.3351 0.0
H2128 H 0.63788 0.00633 0.32551 0.0
C2129 C 0.56967 0.95175 0.31861 0.0
C2130 C 0.5774 0.97292 0.30499 0.0
H2131 H 0.57985 0.93424 0.34583 0.0
H2132 H 0.55054 0.93668 0.31719 0.0
C2133 C 0.60224 0.99225 0.30752 0.0
C2134 C 0.0404 0.65008 0.2965 0.0
C2135 C 0.02132 0.65488 0.29789 0.0
H2136 H 0.05149 0.62469 0.28289 0.0
C2137 C 0.99877 0.63831 0.28397 0.0
H2138 H 0.05802 0.66259 0.30693 0.0
C2139 C 0.99493 0.61628 0.27014 0.0
C2140 C 0.01378 0.61094 0.26977 0.0
H2141 H 0.98378 0.64164 0.28483 0.0
H2142 H 0.9771 0.60308 0.26036 0.0
C2143 C 0.03672 0.62843 0.28252 0.0
C2144 C 0.35538 0.36776 0.32589 0.0
C2145 C 0.35268 0.37927 0.3481 0.0
H2146 H 0.37793 0.371 0.29623 0.0
C2147 C 0.37101 0.40436 0.35681 0.0
H2148 H 0.34144 0.34854 0.31849 0.0
C2149 C 0.39219 0.41728 0.34399 0.0
C2150 C 0.39527 0.40518 0.3224 0.0
H2151 H 0.36938 0.41366 0.3739 0.0
H2152 H 0.40644 0.43637 0.35136 0.0
C2153 C 0.37639 0.38053 0.31322 0.0
C2154 C 0.29027 0.2628 0.40611 0.0
C2155 C 0.30575 0.28893 0.41363 0.0
H2156 H 0.2839 0.22532 0.40869 0.0
C2157 C 0.32648 0.29718 0.43043 0.0
H2158 H 0.27421 0.25592 0.39314 0.0
C2159 C 0.3321 0.27996 0.43897 0.0
C2160 C 0.31712 0.25394 0.43104 0.0
H2161 H 0.33872 0.31714 0.43684 0.0
H2162 H 0.34816 0.28705 0.45202 0.0
C2163 C 0.29587 0.24537 0.41488 0.0
C2164 C 0.69715 0.05481 0.41988 0.0
C2165 C 0.69254 0.03206 0.42859 0.0
H2166 H 0.72041 0.09521 0.42337 0.0
C2167 C 0.70586 0.03271 0.45022 0.0
H2168 H 0.68721 0.05453 0.40291 0.0
C2169 C 0.72459 0.05597 0.46231 0.0
C2170 C 0.7307 0.07887 0.45248 0.0
H2171 H 0.70255 0.01522 0.45707 0.0
H2172 H 0.73504 0.05591 0.47864 0.0
C2173 C 0.71613 0.07807 0.43168 0.0
C2174 C 0.97901 0.72574 0.3828 0.0
C2175 C 0.9833 0.70569 0.37927 0.0
H2176 H 0.95689 0.73881 0.39938 0.0
C2177 C 0.96796 0.68295 0.38973 0.0
H2178 H 0.99054 0.74348 0.37497 0.0
C2179 C 0.94881 0.68025 0.40345 0.0
C2180 C 0.94453 0.70026 0.40722 0.0
H2181 H 0.97073 0.6671 0.38739 0.0
H2182 H 0.93761 0.66258 0.41154 0.0
C2183 C 0.95985 0.7231 0.39682 0.0
C2184 C 0.39214 0.00366 0.73571 0.0
C2185 C 0.39376 0.02681 0.73282 0.0
H2186 H 0.40769 0.98461 0.75284 0.0
C2187 C 0.41229 0.04902 0.74691 0.0
H2188 H 0.37805 0.98627 0.72488 0.0
C2189 C 0.42877 0.04797 0.764 0.0
C2190 C 0.42751 0.02479 0.76672 0.0
H2191 H 0.41363 0.06703 0.74522 0.0
H2192 H 0.44232 0.06537 0.77515 0.0
C2193 C 0.40901 0.00271 0.75211 0.0
C2194 C 0.95982 0.34041 0.77984 0.0
C2195 C 0.9791 0.33592 0.77845 0.0
H2196 H 0.94859 0.3659 0.79278 0.0
C2197 C 0.00164 0.35277 0.79227 0.0
H2198 H 0.94222 0.3276 0.76946 0.0
C2199 C 0.0054 0.37497 0.80563 0.0
C2200 C 0.98651 0.38026 0.80561 0.0
H2201 H 0.01679 0.34968 0.79137 0.0
H2202 H 0.0233 0.38845 0.81511 0.0
C2203 C 0.96344 0.36229 0.79336 0.0
C2204 C 0.64955 0.63659 0.74541 0.0
C2205 C 0.65401 0.62532 0.7242 0.0
H2206 H 0.62493 0.63256 0.77311 0.0
C2207 C 0.63661 0.59996 0.71524 0.0
H2208 H 0.66269 0.65603 0.75295 0.0
C2209 C 0.61472 0.58647 0.72682 0.0
C2210 C 0.60993 0.59824 0.7474 0.0
H2211 H 0.63956 0.59082 0.6989 0.0
H2212 H 0.6013 0.56713 0.71929 0.0
C2213 C 0.62779 0.62325 0.75684 0.0
C2214 C 0.71284 0.74164 0.67183 0.0
C2215 C 0.70003 0.7163 0.66089 0.0
H2216 H 0.71579 0.77796 0.67359 0.0
C2217 C 0.68112 0.70858 0.64189 0.0
H2218 H 0.72744 0.74804 0.6866 0.0
C2219 C 0.67445 0.72546 0.63461 0.0
C2220 C 0.68642 0.7505 0.64623 0.0
H2221 H 0.67109 0.68926 0.63286 0.0
H2222 H 0.65982 0.71884 0.61983 0.0
C2223 C 0.70609 0.75867 0.66452 0.0
C2224 C 0.31046 0.94854 0.64183 0.0
C2225 C 0.30827 0.96998 0.64307 0.0
H2226 H 0.29234 0.9084 0.6317 0.0
C2227 C 0.28779 0.96845 0.63088 0.0
H2228 H 0.3261 0.94939 0.65144 0.0
C2229 C 0.2688 0.94531 0.61909 0.0
C2230 C 0.26958 0.92308 0.62012 0.0
H2231 H 0.28589 0.98489 0.63158 0.0
H2232 H 0.25287 0.94459 0.61042 0.0
C2233 C 0.29112 0.92512 0.63056 0.0
C2234 C 0.02279 0.2725 0.68269 0.0
C2235 C 0.02393 0.29269 0.69762 0.0
H2236 H 0.04023 0.26104 0.6561 0.0
C2237 C 0.04526 0.31686 0.69917 0.0
H2238 H 0.00639 0.25371 0.68109 0.0
C2239 C 0.06501 0.32098 0.68564 0.0
C2240 C 0.0636 0.30119 0.66948 0.0
H2241 H 0.04666 0.33268 0.71084 0.0
H2242 H 0.08128 0.33983 0.68772 0.0
C2243 C 0.0423 0.27676 0.66849 0.0
C2244 C 0.26258 0.29583 0.67697 0.0
C2245 C 0.28778 0.31399 0.67818 0.0
H2246 H 0.22662 0.2836 0.66056 0.0
C2247 C 0.29608 0.33366 0.66244 0.0
H2248 H 0.2556 0.2805 0.68888 0.0
C2249 C 0.27956 0.3354 0.6462 0.0
C2250 C 0.25431 0.31748 0.6452 0.0
H2251 H 0.3154 0.34794 0.66281 0.0
H2252 H 0.28657 0.35082 0.63439 0.0
C2253 C 0.24601 0.29754 0.66063 0.0
C2254 C 0.70216 0.97946 0.61844 0.0
C2255 C 0.6845 0.98628 0.62045 0.0
H2256 H 0.70976 0.95107 0.6056 0.0
C2257 C 0.66114 0.97056 0.60771 0.0
H2258 H 0.72034 0.99136 0.62799 0.0
C2259 C 0.65497 0.94725 0.59484 0.0
C2260 C 0.67222 0.93967 0.59431 0.0
H2261 H 0.64722 0.97546 0.60907 0.0
H2262 H 0.63649 0.93474 0.58619 0.0
C2263 C 0.69612 0.95643 0.60544 0.0
C2264 C 0.03089 0.72821 0.69284 0.0
C2265 C 0.0155 0.70252 0.68354 0.0
H2266 H 0.0646 0.76321 0.6899 0.0
C2267 C 0.02238 0.69253 0.66329 0.0
H2268 H 0.02607 0.73639 0.70849 0.0
C2269 C 0.04433 0.70777 0.65273 0.0
C2270 C 0.05994 0.73339 0.66217 0.0
H2271 H 0.01086 0.67281 0.65564 0.0
H2272 H 0.04894 0.69955 0.63693 0.0
C2273 C 0.05292 0.74353 0.68222 0.0
C2274 C 0.97426 0.61146 0.76191 0.0
C2275 C 0.95799 0.60576 0.74073 0.0
H2276 H 0.99176 0.59848 0.78607 0.0
C2277 C 0.94541 0.58098 0.72831 0.0
H2278 H 0.98398 0.63026 0.77215 0.0
C2279 C 0.95009 0.56263 0.73629 0.0
C2280 C 0.96748 0.56897 0.75665 0.0
H2281 H 0.9328 0.57612 0.71191 0.0
H2282 H 0.94082 0.54384 0.72607 0.0
C2283 C 0.97891 0.59332 0.76978 0.0
C2284 C 0.36723 0.3881 0.77849 0.0
C2285 C 0.37459 0.37234 0.76686 0.0
H2286 H 0.37877 0.4237 0.80005 0.0
C2287 C 0.39934 0.37964 0.76978 0.0
H2288 H 0.34823 0.3829 0.77646 0.0
C2289 C 0.41661 0.40268 0.78318 0.0
C2290 C 0.40959 0.41908 0.79394 0.0
H2291 H 0.40559 0.36789 0.76108 0.0
H2292 H 0.43569 0.40814 0.7841 0.0
C2293 C 0.38467 0.41144 0.79182 0.0
C2294 C 0.63368 0.012 0.71672 0.0
C2295 C 0.64899 0.03493 0.70656 0.0
H2296 H 0.60464 0.99191 0.74009 0.0
C2297 C 0.64582 0.05554 0.71205 0.0
H2298 H 0.63564 0.99573 0.71291 0.0
C2299 C 0.62786 0.05329 0.72773 0.0
C2300 C 0.61268 0.03033 0.738 0.0
H2301 H 0.65737 0.07345 0.70451 0.0
H2302 H 0.62577 0.06945 0.73174 0.0
C2303 C 0.61576 0.00972 0.7322 0.0
loop_
_geom_bond_atom_site_label_1
_geom_bond_atom_site_label_2
_geom_bond_distance
_geom_bond_site_symmetry_2
_ccdc_geom_bond_type
Co0 O1 2.216 . S
Co0 O2 2.091 . S
Co0 O4 2.004 1_554 S
Co0 O10 2.021 . S
Co0 O12 2.137 1_455 S
Co0 O13 2.244 1_455 S
O1 Co0 2.216 . S
O1 C8 1.247 . S
O2 Co0 2.091 . S
O2 C8 1.261 . S
C3 O12 1.247 . S
C3 O13 1.272 . S
O4 Co0 2.004 1_556 S
O4 C9 1.259 . S
Co5 O6 2.061 1_554 S
Co5 O11 2.052 . S
Co5 O13 2.135 . S
O6 Co5 2.061 1_556 S
O6 C9 1.235 1_655 S
C7 O10 1.238 1_655 S
C7 O11 1.241 . S
C8 O1 1.247 . S
C8 O2 1.261 . S
C9 O4 1.259 . S
C9 O6 1.235 1_455 S
O10 Co0 2.021 . S
O10 C7 1.238 1_455 S
O11 Co5 2.052 . S
O11 C7 1.241 . S
O12 Co0 2.137 1_655 S
O12 C3 1.247 . S
O13 Co0 2.244 1_655 S
O13 C3 1.272 . S
O13 Co5 2.135 . S
Co14 O15 2.216 . S
Co14 O16 2.091 . S
Co14 O18 2.004 . S
Co14 O24 2.021 . S
Co14 O26 2.137 . S
Co14 O27 2.244 . S
O15 Co14 2.216 . S
O15 C22 1.247 . S
O16 Co14 2.091 . S
O16 C22 1.261 . S
C17 O26 1.247 . S
C17 O27 1.272 . S
O18 Co14 2.004 . S
O18 C23 1.259 . S
Co19 O20 2.061 . S
Co19 O25 2.052 . S
Co19 O27 2.135 . S
O20 Co19 2.061 . S
O20 C23 1.235 . S
C21 O24 1.238 . S
C21 O25 1.241 . S
C22 O15 1.247 . S
C22 O16 1.261 . S
C23 O18 1.259 . S
C23 O20 1.235 . S
O24 Co14 2.021 . S
O24 C21 1.238 . S
O25 Co19 2.052 . S
O25 C21 1.241 . S
O26 Co14 2.137 . S
O26 C17 1.247 . S
O27 Co14 2.244 . S
O27 C17 1.272 . S
O27 Co19 2.135 . S
Co28 O29 2.229 . S
Co28 O30 2.091 . S
Co28 O32 2.004 . S
Co28 O38 2.021 . S
Co28 O40 2.137 1_545 S
Co28 O41 2.244 1_545 S
O29 Co28 2.229 . S
O29 C36 1.250 . S
O30 Co28 2.091 . S
O30 C36 1.261 . S
C31 O40 1.247 . S
C31 O41 1.272 . S
O32 Co28 2.004 . S
O32 C37 1.259 . S
Co33 O34 2.061 . S
Co33 O39 2.052 . S
Co33 O41 2.135 . S
O34 Co33 2.061 . S
O34 C37 1.235 1_565 S
C35 O38 1.238 1_566 S
C35 O39 1.241 1_556 S
C36 O29 1.250 . S
C36 O30 1.261 . S
C37 O32 1.259 . S
C37 O34 1.235 1_545 S
O38 Co28 2.021 . S
O38 C35 1.238 1_544 S
O39 Co33 2.052 . S
O39 C35 1.241 1_554 S
O40 Co28 2.137 1_565 S
O40 C31 1.247 . S
O41 Co28 2.244 1_565 S
O41 C31 1.272 . S
O41 Co33 2.135 . S
Co42 O43 2.216 . S
Co42 O44 2.091 . S
Co42 O46 2.004 . S
Co42 O52 2.021 . S
Co42 O54 2.137 1_655 S
Co42 O55 2.244 1_655 S
O43 Co42 2.216 . S
O43 C50 1.247 . S
O44 Co42 2.091 . S
O44 C50 1.261 . S
C45 O54 1.247 . S
C45 O55 1.272 . S
O46 Co42 2.004 . S
O46 C51 1.259 . S
Co47 O48 2.061 . S
Co47 O53 2.052 . S
Co47 O55 2.135 . S
O48 Co47 2.061 . S
O48 C51 1.235 1_455 S
C49 O52 1.238 1_455 S
C49 O53 1.241 . S
C50 O43 1.247 . S
C50 O44 1.261 . S
C51 O46 1.259 . S
C51 O48 1.235 1_655 S
O52 Co42 2.021 . S
O52 C49 1.238 1_655 S
O53 Co47 2.052 . S
O53 C49 1.241 . S
O54 Co42 2.137 1_455 S
O54 C45 1.247 . S
O55 Co42 2.244 1_455 S
O55 C45 1.272 . S
O55 Co47 2.135 . S
Co56 O57 2.216 . S
Co56 O58 2.091 . S
Co56 O60 2.004 1_554 S
Co56 O66 2.021 . S
Co56 O68 2.137 1_554 S
Co56 O69 2.244 1_554 S
O57 Co56 2.216 . S
O57 C64 1.247 . S
O58 Co56 2.091 . S
O58 C64 1.261 . S
C59 O68 1.247 . S
C59 O69 1.272 . S
O60 Co56 2.004 1_556 S
O60 C65 1.259 . S
Co61 O62 2.061 . S
Co61 O67 2.052 1_556 S
Co61 O69 2.135 . S
O62 Co61 2.061 . S
O62 C65 1.235 . S
C63 O66 1.238 . S
C63 O67 1.241 . S
C64 O57 1.247 . S
C64 O58 1.261 . S
C65 O60 1.259 . S
C65 O62 1.235 . S
O66 Co56 2.021 . S
O66 C63 1.238 . S
O67 Co61 2.052 1_554 S
O67 C63 1.241 . S
O68 Co56 2.137 1_556 S
O68 C59 1.247 . S
O69 Co56 2.244 1_556 S
O69 C59 1.272 . S
O69 Co61 2.135 . S
Co70 O71 2.216 . S
Co70 O72 2.091 . S
Co70 O74 2.004 . S
Co70 O80 2.021 . S
Co70 O82 2.137 1_565 S
Co70 O83 2.244 1_565 S
O71 Co70 2.216 . S
O71 C78 1.247 . S
O72 Co70 2.091 . S
O72 C78 1.261 . S
C73 O82 1.247 . S
C73 O83 1.272 . S
O74 Co70 2.004 . S
O74 C79 1.259 . S
Co75 O76 2.061 . S
Co75 O81 2.052 . S
Co75 O83 2.135 . S
O76 Co75 2.061 . S
O76 C79 1.235 1_545 S
C77 O80 1.238 1_545 S
C77 O81 1.241 . S
C78 O71 1.247 . S
C78 O72 1.261 . S
C79 O74 1.259 . S
C79 O76 1.235 1_565 S
O80 Co70 2.021 . S
O80 C77 1.238 1_565 S
O81 Co75 2.052 . S
O81 C77 1.241 . S
O82 Co70 2.137 1_545 S
O82 C73 1.247 . S
O83 Co70 2.244 1_545 S
O83 C73 1.272 . S
O83 Co75 2.135 . S
Co84 O85 2.216 . S
Co84 O86 2.091 . S
Co84 O88 2.004 . S
Co84 O94 2.021 . S
Co84 O96 2.137 . S
Co84 O97 2.244 . S
O85 Co84 2.216 . S
O85 C92 1.247 . S
O86 Co84 2.091 . S
O86 C92 1.261 . S
C87 O96 1.247 . S
C87 O97 1.272 . S
O88 Co84 2.004 . S
O88 C93 1.259 . S
Co89 O90 2.061 . S
Co89 O95 2.052 . S
Co89 O97 2.135 . S
O90 Co89 2.061 . S
O90 C93 1.235 . S
C91 O94 1.238 . S
C91 O95 1.241 . S
C92 O85 1.247 . S
C92 O86 1.261 . S
C93 O88 1.259 . S
C93 O90 1.235 . S
O94 Co84 2.021 . S
O94 C91 1.238 . S
O95 Co89 2.052 . S
O95 C91 1.241 . S
O96 Co84 2.137 . S
O96 C87 1.247 . S
O97 Co84 2.244 . S
O97 C87 1.272 . S
O97 Co89 2.135 . S
Co98 O99 2.216 . S
Co98 O100 2.091 . S
Co98 O102 2.004 . S
Co98 O108 2.021 . S
Co98 O110 2.137 . S
Co98 O111 2.244 . S
O99 Co98 2.216 . S
O99 C106 1.247 . S
O100 Co98 2.091 . S
O100 C106 1.261 . S
C101 O110 1.247 . S
C101 O111 1.272 . S
O102 Co98 2.004 . S
O102 C107 1.259 . S
Co103 O104 2.061 . S
Co103 O109 2.052 . S
Co103 O111 2.135 . S
O104 Co103 2.061 . S
O104 C107 1.235 . S
C105 O108 1.238 . S
C105 O109 1.241 . S
C106 O99 1.247 . S
C106 O100 1.261 . S
C107 O102 1.259 . S
C107 O104 1.235 . S
O108 Co98 2.021 . S
O108 C105 1.238 . S
O109 Co103 2.052 . S
O109 C105 1.241 . S
O110 Co98 2.137 . S
O110 C101 1.247 . S
O111 Co98 2.244 . S
O111 C101 1.272 . S
O111 Co103 2.135 . S
Co112 O113 2.216 . S
Co112 O114 2.091 . S
Co112 O116 2.004 . S
Co112 O122 2.021 . S
Co112 O124 2.137 . S
Co112 O125 2.244 . S
O113 Co112 2.216 . S
O113 C120 1.247 . S
O114 Co112 2.091 . S
O114 C120 1.261 . S
C115 O124 1.247 . S
C115 O125 1.272 . S
O116 Co112 2.004 . S
O116 C121 1.259 . S
Co117 O118 2.061 . S
Co117 O123 2.052 . S
Co117 O125 2.135 . S
O118 Co117 2.061 . S
O118 C121 1.235 . S
C119 O122 1.238 . S
C119 O123 1.241 . S
C120 O113 1.247 . S
C120 O114 1.261 . S
C121 O116 1.259 . S
C121 O118 1.235 . S
O122 Co112 2.021 . S
O122 C119 1.238 . S
O123 Co117 2.052 . S
O123 C119 1.241 . S
O124 Co112 2.137 . S
O124 C115 1.247 . S
O125 Co112 2.244 . S
O125 C115 1.272 . S
O125 Co117 2.135 . S
Co126 O127 2.216 . S
Co126 O128 2.091 . S
Co126 O130 2.004 . S
Co126 O136 2.021 . S
Co126 O138 2.137 . S
Co126 O139 2.244 . S
O127 Co126 2.216 . S
O127 C134 1.247 . S
O128 Co126 2.091 . S
O128 C134 1.261 . S
C129 O138 1.247 1_545 S
C129 O139 1.272 1_545 S
O130 Co126 2.004 . S
O130 C135 1.259 . S
Co131 O132 2.061 . S
Co131 O137 2.052 . S
Co131 O139 2.135 . S
O132 Co131 2.061 . S
O132 C135 1.235 . S
C133 O136 1.238 . S
C133 O137 1.241 . S
C134 O127 1.247 . S
C134 O128 1.261 . S
C135 O130 1.259 . S
C135 O132 1.235 . S
O136 Co126 2.021 . S
O136 C133 1.238 . S
O137 Co131 2.052 . S
O137 C133 1.241 . S
O138 Co126 2.137 . S
O138 C129 1.247 1_565 S
O139 Co126 2.244 . S
O139 C129 1.272 1_565 S
O139 Co131 2.135 . S
Co140 O141 2.216 . S
Co140 O142 2.092 . S
Co140 O144 2.004 . S
Co140 O150 2.021 . S
Co140 O152 2.137 . S
Co140 O153 2.244 . S
O141 Co140 2.216 . S
O141 C148 1.247 1_455 S
O142 Co140 2.092 . S
O142 C148 1.261 1_455 S
C143 O152 1.247 . S
C143 O153 1.272 . S
O144 Co140 2.004 . S
O144 C149 1.259 . S
Co145 O146 2.061 . S
Co145 O151 2.052 . S
Co145 O153 2.135 . S
O146 Co145 2.061 . S
O146 C149 1.235 . S
C147 O150 1.238 . S
C147 O151 1.241 . S
C148 O141 1.247 1_655 S
C148 O142 1.261 1_655 S
C149 O144 1.259 . S
C149 O146 1.235 . S
O150 Co140 2.021 . S
O150 C147 1.238 . S
O151 Co145 2.052 . S
O151 C147 1.241 . S
O152 Co140 2.137 . S
O152 C143 1.247 . S
O153 Co140 2.244 . S
O153 C143 1.272 . S
O153 Co145 2.135 . S
Co154 O155 2.216 . S
Co154 O156 2.091 . S
Co154 O158 2.004 . S
Co154 O164 2.021 . S
Co154 O166 2.137 . S
Co154 O167 2.244 . S
O155 Co154 2.216 . S
O155 C162 1.247 . S
O156 Co154 2.091 . S
O156 C162 1.261 . S
C157 O166 1.247 . S
C157 O167 1.272 . S
O158 Co154 2.004 . S
O158 C163 1.259 . S
Co159 O160 2.061 . S
Co159 O165 2.052 . S
Co159 O167 2.135 . S
O160 Co159 2.061 . S
O160 C163 1.235 . S
C161 O164 1.238 . S
C161 O165 1.241 . S
C162 O155 1.247 . S
C162 O156 1.261 . S
C163 O158 1.259 . S
C163 O160 1.235 . S
O164 Co154 2.021 . S
O164 C161 1.238 . S
O165 Co159 2.052 . S
O165 C161 1.241 . S
O166 Co154 2.137 . S
O166 C157 1.247 . S
O167 Co154 2.244 . S
O167 C157 1.272 . S
O167 Co159 2.135 . S
Co168 O169 2.216 . S
Co168 O170 2.091 . S
Co168 O172 2.004 . S
Co168 O178 2.021 . S
Co168 O180 2.137 . S
Co168 O181 2.244 . S
O169 Co168 2.216 . S
O169 C176 1.247 . S
O170 Co168 2.091 . S
O170 C176 1.261 . S
C171 O180 1.247 1_565 S
C171 O181 1.272 1_565 S
O172 Co168 2.004 . S
O172 C177 1.259 . S
Co173 O174 2.061 . S
Co173 O179 2.052 . S
Co173 O181 2.135 . S
O174 Co173 2.061 . S
O174 C177 1.235 . S
C175 O178 1.238 . S
C175 O179 1.241 . S
C176 O169 1.247 . S
C176 O170 1.261 . S
C177 O172 1.259 . S
C177 O174 1.235 . S
O178 Co168 2.021 . S
O178 C175 1.238 . S
O179 Co173 2.052 . S
O179 C175 1.241 . S
O180 Co168 2.137 . S
O180 C171 1.247 1_545 S
O181 Co168 2.244 . S
O181 C171 1.272 1_545 S
O181 Co173 2.135 . S
Co182 O183 2.216 . S
Co182 O184 2.091 1_655 S
Co182 O186 2.004 . S
Co182 O192 2.021 . S
Co182 O194 2.137 . S
Co182 O195 2.244 . S
O183 Co182 2.216 . S
O183 C190 1.247 1_655 S
O184 Co182 2.091 1_455 S
O184 C190 1.261 . S
C185 O194 1.247 . S
C185 O195 1.272 . S
O186 Co182 2.004 . S
O186 C191 1.259 . S
Co187 O188 2.061 . S
Co187 O193 2.052 . S
Co187 O195 2.135 . S
O188 Co187 2.061 . S
O188 C191 1.235 . S
C189 O192 1.238 . S
C189 O193 1.241 . S
C190 O183 1.247 1_455 S
C190 O184 1.261 . S
C191 O186 1.259 . S
C191 O188 1.235 . S
O192 Co182 2.021 . S
O192 C189 1.238 . S
O193 Co187 2.052 . S
O193 C189 1.241 . S
O194 Co182 2.137 . S
O194 C185 1.247 . S
O195 Co182 2.244 . S
O195 C185 1.272 . S
O195 Co187 2.135 . S
Co196 O197 2.216 . S
Co196 O198 2.091 . S
Co196 O200 2.004 . S
Co196 O206 2.021 . S
Co196 O208 2.137 . S
Co196 O209 2.244 . S
O197 Co196 2.216 . S
O197 C204 1.247 . S
O198 Co196 2.091 . S
O198 C204 1.261 . S
C199 O208 1.247 . S
C199 O209 1.272 . S
O200 Co196 2.004 . S
O200 C205 1.259 . S
Co201 O202 2.061 . S
Co201 O207 2.052 . S
Co201 O209 2.135 . S
O202 Co201 2.061 . S
O202 C205 1.235 . S
C203 O206 1.238 . S
C203 O207 1.241 . S
C204 O197 1.247 . S
C204 O198 1.261 . S
C205 O200 1.259 . S
C205 O202 1.235 . S
O206 Co196 2.021 . S
O206 C203 1.238 . S
O207 Co201 2.052 . S
O207 C203 1.241 . S
O208 Co196 2.137 . S
O208 C199 1.247 . S
O209 Co196 2.244 . S
O209 C199 1.272 . S
O209 Co201 2.135 . S
Co210 O211 2.216 . S
Co210 O212 2.091 . S
Co210 O214 2.004 . S
Co210 O220 2.021 . S
Co210 O222 2.137 . S
Co210 O223 2.244 . S
O211 Co210 2.216 . S
O211 C218 1.247 . S
O212 Co210 2.091 . S
O212 C218 1.261 . S
C213 O222 1.247 . S
C213 O223 1.272 . S
O214 Co210 2.004 . S
O214 C219 1.259 . S
Co215 O216 2.061 . S
Co215 O221 2.052 . S
Co215 O223 2.135 . S
O216 Co215 2.061 . S
O216 C219 1.235 . S
C217 O220 1.238 . S
C217 O221 1.241 . S
C218 O211 1.247 . S
C218 O212 1.261 . S
C219 O214 1.259 . S
C219 O216 1.235 . S
O220 Co210 2.021 . S
O220 C217 1.238 . S
O221 Co215 2.052 . S
O221 C217 1.241 . S
O222 Co210 2.137 . S
O222 C213 1.247 . S
O223 Co210 2.244 . S
O223 C213 1.272 . S
O223 Co215 2.135 . S
Co224 O225 2.216 . S
Co224 O226 2.091 . S
Co224 O228 2.004 . S
Co224 O234 2.021 . S
Co224 O236 2.137 . S
Co224 O237 2.244 . S
O225 Co224 2.216 . S
O225 C232 1.247 . S
O226 Co224 2.091 . S
O226 C232 1.261 . S
C227 O236 1.247 . S
C227 O237 1.272 . S
O228 Co224 2.004 . S
O228 C233 1.259 . S
Co229 O230 2.061 . S
Co229 O235 2.052 . S
Co229 O237 2.135 . S
O230 Co229 2.061 . S
O230 C233 1.235 . S
C231 O234 1.238 . S
C231 O235 1.241 . S
C232 O225 1.247 . S
C232 O226 1.261 . S
C233 O228 1.259 . S
C233 O230 1.235 . S
O234 Co224 2.021 . S
O234 C231 1.238 . S
O235 Co229 2.052 . S
O235 C231 1.241 . S
O236 Co224 2.137 . S
O236 C227 1.247 . S
O237 Co224 2.244 . S
O237 C227 1.272 . S
O237 Co229 2.135 . S
Co238 O239 2.216 . S
Co238 O240 2.091 . S
Co238 O242 2.004 . S
Co238 O248 2.021 . S
Co238 O250 2.137 . S
Co238 O251 2.244 . S
O239 Co238 2.216 . S
O239 C246 1.247 . S
O240 Co238 2.091 . S
O240 C246 1.261 . S
C241 O250 1.247 . S
C241 O251 1.272 . S
O242 Co238 2.004 . S
O242 C247 1.259 . S
Co243 O244 2.061 . S
Co243 O249 2.052 . S
Co243 O251 2.135 . S
O244 Co243 2.061 . S
O244 C247 1.235 . S
C245 O248 1.238 . S
C245 O249 1.241 . S
C246 O239 1.247 . S
C246 O240 1.261 . S
C247 O242 1.259 . S
C247 O244 1.235 . S
O248 Co238 2.021 . S
O248 C245 1.238 . S
O249 Co243 2.052 . S
O249 C245 1.241 . S
O250 Co238 2.137 . S
O250 C241 1.247 . S
O251 Co238 2.244 . S
O251 C241 1.272 . S
O251 Co243 2.135 . S
H252 O278 0.856 1_556 S
H253 O281 0.854 . S
H254 C289 0.930 . S
H255 C290 0.930 . S
H256 C292 0.930 . S
H257 C293 0.930 . S
H258 C295 0.931 . S
H259 C296 0.930 . S
H260 C298 0.930 . S
H261 C299 0.929 . S
H262 C301 0.930 . S
H263 C302 0.931 . S
H264 C304 0.930 . S
H265 C305 0.929 . S
H266 C307 0.931 . S
H267 C308 0.930 . S
H268 C310 0.930 . S
H269 C311 0.932 . S
H270 C313 0.930 . S
H271 C314 0.929 . S
H272 C316 0.931 . S
H273 C317 0.930 . S
H274 C319 0.929 . S
H275 C320 0.931 . S
H276 C322 0.930 . S
H277 C323 0.929 . S
O278 H252 0.856 1_554 S
O278 C324 1.300 . S
O279 C324 1.209 . S
O280 C325 1.199 . S
O281 H253 0.854 . S
O281 C325 1.297 . S
C282 C283 1.404 . S
C282 C287 1.397 . S
C282 C288 1.492 . S
C283 C282 1.404 . S
C283 C284 1.396 . S
C283 C294 1.492 . S
C284 C283 1.396 . S
C284 C285 1.397 . S
C284 C300 1.509 . S
C285 C284 1.397 . S
C285 C286 1.412 . S
C285 C306 1.485 . S
C286 C285 1.412 . S
C286 C287 1.388 . S
C286 C312 1.490 . S
C287 C282 1.397 . S
C287 C286 1.388 . S
C287 C318 1.519 . S
C288 C282 1.492 . S
C288 C289 1.363 . S
C288 C293 1.390 . S
C289 H254 0.930 . S
C289 C288 1.363 . S
C289 C290 1.372 . S
C290 H255 0.930 . S
C290 C289 1.372 . S
C290 C291 1.383 . S
C291 C290 1.383 . S
C291 C292 1.395 . S
C292 H256 0.930 . S
C292 C291 1.395 . S
C292 C293 1.362 . S
C293 H257 0.930 . S
C293 C288 1.390 . S
C293 C292 1.362 . S
C294 C283 1.492 . S
C294 C295 1.377 . S
C294 C299 1.397 . S
C295 H258 0.931 . S
C295 C294 1.377 . S
C295 C296 1.376 . S
C296 H259 0.930 . S
C296 C295 1.376 . S
C296 C297 1.376 . S
C297 C296 1.376 . S
C297 C298 1.378 . S
C297 C324 1.486 . S
C298 H260 0.930 . S
C298 C297 1.378 . S
C298 C299 1.376 . S
C299 H261 0.929 . S
C299 C294 1.397 . S
C299 C298 1.376 . S
C300 C284 1.509 . S
C300 C301 1.391 . S
C300 C305 1.386 . S
C301 H262 0.930 . S
C301 C300 1.391 . S
C301 C302 1.375 . S
C302 H263 0.931 . S
C302 C301 1.375 . S
C302 C303 1.375 . S
C303 C302 1.375 . S
C303 C304 1.361 . S
C304 H264 0.930 . S
C304 C303 1.361 . S
C304 C305 1.399 . S
C305 H265 0.929 . S
C305 C300 1.386 . S
C305 C304 1.399 . S
C306 C285 1.485 . S
C306 C307 1.394 . S
C306 C311 1.360 . S
C307 H266 0.931 . S
C307 C306 1.394 . S
C307 C308 1.372 . S
C308 H267 0.930 . S
C308 C307 1.372 . S
C308 C309 1.397 . S
C309 C308 1.397 . S
C309 C310 1.390 . S
C309 C325 1.476 . S
C310 H268 0.930 . S
C310 C309 1.390 . S
C310 C311 1.366 . S
C311 H269 0.932 . S
C311 C306 1.360 . S
C311 C310 1.366 . S
C312 C286 1.490 . S
C312 C313 1.380 . S
C312 C317 1.386 . S
C313 H270 0.930 . S
C313 C312 1.380 . S
C313 C314 1.381 . S
C314 H271 0.929 . S
C314 C313 1.381 . S
C314 C315 1.371 . S
C315 C314 1.371 . S
C315 C316 1.380 . S
C316 H272 0.931 . S
C316 C315 1.380 . S
C316 C317 1.387 . S
C317 H273 0.930 . S
C317 C312 1.386 . S
C317 C316 1.387 . S
C318 C287 1.519 . S
C318 C319 1.377 . S
C318 C323 1.361 . S
C319 H274 0.929 . S
C319 C318 1.377 . S
C319 C320 1.386 . S
C320 H275 0.931 . S
C320 C319 1.386 . S
C320 C321 1.363 . S
C321 C320 1.363 . S
C321 C322 1.385 . S
C322 H276 0.930 . S
C322 C321 1.385 . S
C322 C323 1.396 . S
C323 H277 0.929 . S
C323 C318 1.361 . S
C323 C322 1.396 . S
C324 O278 1.300 . S
C324 O279 1.209 . S
C324 C297 1.486 . S
C325 O280 1.199 . S
C325 O281 1.297 . S
C325 C309 1.476 . S
H326 O352 0.856 . S
H327 O355 0.854 . S
H328 C363 0.930 . S
H329 C364 0.930 . S
H330 C366 0.930 . S
H331 C367 0.930 . S
H332 C369 0.931 . S
H333 C370 0.930 . S
H334 C372 0.930 . S
H335 C373 0.929 . S
H336 C375 0.930 . S
H337 C376 0.931 . S
H338 C378 0.930 . S
H339 C379 0.929 . S
H340 C381 0.931 . S
H341 C382 0.930 . S
H342 C384 0.930 . S
H343 C385 0.932 . S
H344 C387 0.930 . S
H345 C388 0.929 . S
H346 C390 0.931 . S
H347 C391 0.930 . S
H348 C393 0.929 . S
H349 C394 0.931 . S
H350 C396 0.930 . S
H351 C397 0.929 . S
O352 H326 0.856 . S
O352 C398 1.300 . S
O353 C398 1.209 . S
O354 C399 1.199 . S
O355 H327 0.854 . S
O355 C399 1.297 1_545 S
C356 C357 1.404 . S
C356 C361 1.397 . S
C356 C362 1.492 . S
C357 C356 1.404 . S
C357 C358 1.396 . S
C357 C368 1.492 . S
C358 C357 1.396 . S
C358 C359 1.397 . S
C358 C374 1.509 . S
C359 C358 1.397 . S
C359 C360 1.412 . S
C359 C380 1.485 . S
C360 C359 1.412 . S
C360 C361 1.388 . S
C360 C386 1.490 . S
C361 C356 1.397 . S
C361 C360 1.388 . S
C361 C392 1.519 . S
C362 C356 1.492 . S
C362 C363 1.363 . S
C362 C367 1.390 . S
C363 H328 0.930 . S
C363 C362 1.363 . S
C363 C364 1.372 . S
C364 H329 0.930 . S
C364 C363 1.372 . S
C364 C365 1.383 . S
C365 C364 1.383 . S
C365 C366 1.395 . S
C366 H330 0.930 . S
C366 C365 1.395 . S
C366 C367 1.362 . S
C367 H331 0.930 . S
C367 C362 1.390 . S
C367 C366 1.362 . S
C368 C357 1.492 . S
C368 C369 1.377 . S
C368 C373 1.397 . S
C369 H332 0.931 . S
C369 C368 1.377 . S
C369 C370 1.376 . S
C370 H333 0.930 . S
C370 C369 1.376 . S
C370 C371 1.376 . S
C371 C370 1.376 . S
C371 C372 1.378 . S
C371 C398 1.486 . S
C372 H334 0.930 . S
C372 C371 1.378 . S
C372 C373 1.376 . S
C373 H335 0.929 . S
C373 C368 1.397 . S
C373 C372 1.376 . S
C374 C358 1.509 . S
C374 C375 1.391 . S
C374 C379 1.386 . S
C375 H336 0.930 . S
C375 C374 1.391 . S
C375 C376 1.375 . S
C376 H337 0.931 . S
C376 C375 1.375 . S
C376 C377 1.375 . S
C377 C376 1.375 . S
C377 C378 1.361 . S
C378 H338 0.930 . S
C378 C377 1.361 . S
C378 C379 1.399 . S
C379 H339 0.929 . S
C379 C374 1.386 . S
C379 C378 1.399 . S
C380 C359 1.485 . S
C380 C381 1.394 . S
C380 C385 1.360 . S
C381 H340 0.931 . S
C381 C380 1.394 . S
C381 C382 1.372 . S
C382 H341 0.930 . S
C382 C381 1.372 . S
C382 C383 1.397 . S
C383 C382 1.397 . S
C383 C384 1.390 . S
C383 C399 1.476 . S
C384 H342 0.930 . S
C384 C383 1.390 . S
C384 C385 1.366 . S
C385 H343 0.932 . S
C385 C380 1.360 . S
C385 C384 1.366 . S
C386 C360 1.490 . S
C386 C387 1.380 . S
C386 C391 1.386 . S
C387 H344 0.930 . S
C387 C386 1.380 . S
C387 C388 1.381 . S
C388 H345 0.929 . S
C388 C387 1.381 . S
C388 C389 1.371 . S
C389 C388 1.371 . S
C389 C390 1.380 . S
C390 H346 0.931 . S
C390 C389 1.380 . S
C390 C391 1.387 . S
C391 H347 0.930 . S
C391 C386 1.386 . S
C391 C390 1.387 . S
C392 C361 1.519 . S
C392 C393 1.377 . S
C392 C397 1.361 . S
C393 H348 0.929 . S
C393 C392 1.377 . S
C393 C394 1.386 . S
C394 H349 0.931 . S
C394 C393 1.386 . S
C394 C395 1.363 . S
C395 C394 1.363 . S
C395 C396 1.385 . S
C396 H350 0.930 . S
C396 C395 1.385 . S
C396 C397 1.396 . S
C397 H351 0.929 . S
C397 C392 1.361 . S
C397 C396 1.396 . S
C398 O352 1.300 . S
C398 O353 1.209 . S
C398 C371 1.486 . S
C399 O354 1.199 . S
C399 O355 1.297 1_565 S
C399 C383 1.476 . S
H400 O426 0.856 . S
H401 O429 0.854 1_545 S
H402 C437 0.930 . S
H403 C438 0.930 . S
H404 C440 0.930 . S
H405 C441 0.930 . S
H406 C443 0.931 . S
H407 C444 0.930 . S
H408 C446 0.930 . S
H409 C447 0.929 . S
H410 C449 0.930 . S
H411 C450 0.931 . S
H412 C452 0.930 . S
H413 C453 0.929 . S
H414 C455 0.931 . S
H415 C456 0.930 . S
H416 C458 0.930 . S
H417 C459 0.932 . S
H418 C461 0.930 . S
H419 C462 0.929 . S
H420 C464 0.931 . S
H421 C465 0.930 . S
H422 C467 0.929 . S
H423 C468 0.931 . S
H424 C470 0.930 . S
H425 C471 0.929 . S
O426 H400 0.856 . S
O426 C472 1.300 . S
O427 C472 1.209 . S
O428 C473 1.199 1_545 S
O429 H401 0.854 1_565 S
O429 C473 1.297 . S
C430 C431 1.404 . S
C430 C435 1.397 . S
C430 C436 1.492 . S
C431 C430 1.404 . S
C431 C432 1.396 . S
C431 C442 1.492 . S
C432 C431 1.396 . S
C432 C433 1.397 . S
C432 C448 1.509 . S
C433 C432 1.397 . S
C433 C434 1.412 . S
C433 C454 1.485 . S
C434 C433 1.412 . S
C434 C435 1.388 . S
C434 C460 1.490 . S
C435 C430 1.397 . S
C435 C434 1.388 . S
C435 C466 1.519 . S
C436 C430 1.492 . S
C436 C437 1.363 . S
C436 C441 1.390 . S
C437 H402 0.930 . S
C437 C436 1.363 . S
C437 C438 1.372 . S
C438 H403 0.930 . S
C438 C437 1.372 . S
C438 C439 1.383 . S
C439 C438 1.383 . S
C439 C440 1.395 . S
C440 H404 0.930 . S
C440 C439 1.395 . S
C440 C441 1.362 . S
C441 H405 0.930 . S
C441 C436 1.390 . S
C441 C440 1.362 . S
C442 C431 1.492 . S
C442 C443 1.377 . S
C442 C447 1.397 . S
C443 H406 0.931 . S
C443 C442 1.377 . S
C443 C444 1.376 . S
C444 H407 0.930 . S
C444 C443 1.376 . S
C444 C445 1.376 . S
C445 C444 1.376 . S
C445 C446 1.378 . S
C445 C472 1.486 . S
C446 H408 0.930 . S
C446 C445 1.378 . S
C446 C447 1.376 . S
C447 H409 0.929 . S
C447 C442 1.397 . S
C447 C446 1.376 . S
C448 C432 1.509 . S
C448 C449 1.391 . S
C448 C453 1.386 . S
C449 H410 0.930 . S
C449 C448 1.391 . S
C449 C450 1.375 . S
C450 H411 0.931 . S
C450 C449 1.375 . S
C450 C451 1.375 . S
C451 C450 1.375 . S
C451 C452 1.361 . S
C452 H412 0.930 . S
C452 C451 1.361 . S
C452 C453 1.399 . S
C453 H413 0.929 . S
C453 C448 1.386 . S
C453 C452 1.399 . S
C454 C433 1.485 . S
C454 C455 1.394 . S
C454 C459 1.360 . S
C455 H414 0.931 . S
C455 C454 1.394 . S
C455 C456 1.372 . S
C456 H415 0.930 . S
C456 C455 1.372 . S
C456 C457 1.397 . S
C457 C456 1.397 . S
C457 C458 1.390 . S
C457 C473 1.476 . S
C458 H416 0.930 . S
C458 C457 1.390 . S
C458 C459 1.366 . S
C459 H417 0.932 . S
C459 C454 1.360 . S
C459 C458 1.366 . S
C460 C434 1.490 . S
C460 C461 1.380 . S
C460 C465 1.386 . S
C461 H418 0.930 . S
C461 C460 1.380 . S
C461 C462 1.381 . S
C462 H419 0.929 . S
C462 C461 1.381 . S
C462 C463 1.371 . S
C463 C462 1.371 . S
C463 C464 1.380 . S
C464 H420 0.931 . S
C464 C463 1.380 . S
C464 C465 1.387 . S
C465 H421 0.930 . S
C465 C460 1.386 . S
C465 C464 1.387 . S
C466 C435 1.519 . S
C466 C467 1.377 . S
C466 C471 1.361 . S
C467 H422 0.929 . S
C467 C466 1.377 . S
C467 C468 1.386 . S
C468 H423 0.931 . S
C468 C467 1.386 . S
C468 C469 1.363 . S
C469 C468 1.363 . S
C469 C470 1.385 . S
C470 H424 0.930 . S
C470 C469 1.385 . S
C470 C471 1.396 . S
C471 H425 0.929 . S
C471 C466 1.361 . S
C471 C470 1.396 . S
C472 O426 1.300 . S
C472 O427 1.209 . S
C472 C445 1.486 . S
C473 O428 1.199 1_565 S
C473 O429 1.297 . S
C473 C457 1.476 . S
H474 O500 0.856 . S
H475 O503 0.854 . S
H476 C511 0.930 . S
H477 C512 0.930 . S
H478 C514 0.930 . S
H479 C515 0.930 . S
H480 C517 0.931 . S
H481 C518 0.930 1_554 S
H482 C520 0.930 . S
H483 C521 0.929 . S
H484 C523 0.930 . S
H485 C524 0.931 . S
H486 C526 0.930 . S
H487 C527 0.929 . S
H488 C529 0.931 . S
H489 C530 0.930 . S
H490 C532 0.930 . S
H491 C533 0.932 . S
H492 C535 0.930 . S
H493 C536 0.929 . S
H494 C538 0.931 . S
H495 C539 0.930 . S
H496 C541 0.929 . S
H497 C542 0.931 . S
H498 C544 0.930 . S
H499 C545 0.929 . S
O500 H474 0.856 . S
O500 C546 1.300 . S
O501 C546 1.209 . S
O502 C547 1.199 . S
O503 H475 0.854 . S
O503 C547 1.297 . S
C504 C505 1.404 . S
C504 C509 1.397 . S
C504 C510 1.492 . S
C505 C504 1.404 . S
C505 C506 1.396 . S
C505 C516 1.492 . S
C506 C505 1.396 . S
C506 C507 1.397 . S
C506 C522 1.509 . S
C507 C506 1.397 . S
C507 C508 1.412 . S
C507 C528 1.485 . S
C508 C507 1.412 . S
C508 C509 1.388 . S
C508 C534 1.490 . S
C509 C504 1.397 . S
C509 C508 1.388 . S
C509 C540 1.519 . S
C510 C504 1.492 . S
C510 C511 1.363 . S
C510 C515 1.390 . S
C511 H476 0.930 . S
C511 C510 1.363 . S
C511 C512 1.372 . S
C512 H477 0.930 . S
C512 C511 1.372 . S
C512 C513 1.383 . S
C513 C512 1.383 . S
C513 C514 1.395 . S
C514 H478 0.930 . S
C514 C513 1.395 . S
C514 C515 1.362 . S
C515 H479 0.930 . S
C515 C510 1.390 . S
C515 C514 1.362 . S
C516 C505 1.492 . S
C516 C517 1.377 . S
C516 C521 1.397 . S
C517 H480 0.931 . S
C517 C516 1.377 . S
C517 C518 1.376 . S
C518 H481 0.930 1_556 S
C518 C517 1.376 . S
C518 C519 1.376 1_556 S
C519 C518 1.376 1_554 S
C519 C520 1.378 1_554 S
C519 C546 1.486 . S
C520 H482 0.930 . S
C520 C519 1.378 1_556 S
C520 C521 1.376 . S
C521 H483 0.929 . S
C521 C516 1.397 . S
C521 C520 1.376 . S
C522 C506 1.509 . S
C522 C523 1.391 . S
C522 C527 1.386 . S
C523 H484 0.930 . S
C523 C522 1.391 . S
C523 C524 1.375 . S
C524 H485 0.931 . S
C524 C523 1.375 . S
C524 C525 1.375 . S
C525 C524 1.375 . S
C525 C526 1.361 . S
C526 H486 0.930 . S
C526 C525 1.361 . S
C526 C527 1.399 . S
C527 H487 0.929 . S
C527 C522 1.386 . S
C527 C526 1.399 . S
C528 C507 1.485 . S
C528 C529 1.394 . S
C528 C533 1.360 . S
C529 H488 0.931 . S
C529 C528 1.394 . S
C529 C530 1.372 . S
C530 H489 0.930 . S
C530 C529 1.372 . S
C530 C531 1.397 . S
C531 C530 1.397 . S
C531 C532 1.390 . S
C531 C547 1.476 . S
C532 H490 0.930 . S
C532 C531 1.390 . S
C532 C533 1.366 . S
C533 H491 0.932 . S
C533 C528 1.360 . S
C533 C532 1.366 . S
C534 C508 1.490 . S
C534 C535 1.380 . S
C534 C539 1.386 . S
C535 H492 0.930 . S
C535 C534 1.380 . S
C535 C536 1.381 . S
C536 H493 0.929 . S
C536 C535 1.381 . S
C536 C537 1.371 . S
C537 C536 1.371 . S
C537 C538 1.380 . S
C538 H494 0.931 . S
C538 C537 1.380 . S
C538 C539 1.387 . S
C539 H495 0.930 . S
C539 C534 1.386 . S
C539 C538 1.387 . S
C540 C509 1.519 . S
C540 C541 1.377 . S
C540 C545 1.361 . S
C541 H496 0.929 . S
C541 C540 1.377 . S
C541 C542 1.386 . S
C542 H497 0.931 . S
C542 C541 1.386 . S
C542 C543 1.363 . S
C543 C542 1.363 . S
C543 C544 1.385 . S
C544 H498 0.930 . S
C544 C543 1.385 . S
C544 C545 1.396 . S
C545 H499 0.929 . S
C545 C540 1.361 . S
C545 C544 1.396 . S
C546 O500 1.300 . S
C546 O501 1.209 . S
C546 C519 1.486 . S
C547 O502 1.199 . S
C547 O503 1.297 . S
C547 C531 1.476 . S
H548 O574 0.856 . S
H549 O577 0.854 . S
H550 C585 0.930 . S
H551 C586 0.930 . S
H552 C588 0.930 . S
H553 C589 0.930 . S
H554 C591 0.931 . S
H555 C592 0.930 . S
H556 C594 0.926 1_554 S
H557 C595 0.929 . S
H558 C597 0.930 . S
H559 C598 0.931 . S
H560 C600 0.930 . S
H561 C601 0.929 . S
H562 C603 0.931 . S
H563 C604 0.930 . S
H564 C606 0.930 . S
H565 C607 0.932 . S
H566 C609 0.930 . S
H567 C610 0.929 . S
H568 C612 0.931 . S
H569 C613 0.930 . S
H570 C615 0.929 . S
H571 C616 0.931 . S
H572 C618 0.930 . S
H573 C619 0.929 . S
O574 H548 0.856 . S
O574 C620 1.300 . S
O575 C620 1.209 . S
O576 C621 1.199 . S
O577 H549 0.854 . S
O577 C621 1.297 1_565 S
C578 C579 1.404 . S
C578 C583 1.397 . S
C578 C584 1.492 . S
C579 C578 1.404 . S
C579 C580 1.396 . S
C579 C590 1.492 . S
C580 C579 1.396 . S
C580 C581 1.397 . S
C580 C596 1.509 . S
C581 C580 1.397 . S
C581 C582 1.412 . S
C581 C602 1.485 . S
C582 C581 1.412 . S
C582 C583 1.388 . S
C582 C608 1.490 . S
C583 C578 1.397 . S
C583 C582 1.388 . S
C583 C614 1.519 . S
C584 C578 1.492 . S
C584 C585 1.363 . S
C584 C589 1.390 . S
C585 H550 0.930 . S
C585 C584 1.363 . S
C585 C586 1.372 . S
C586 H551 0.930 . S
C586 C585 1.372 . S
C586 C587 1.383 . S
C587 C586 1.383 . S
C587 C588 1.395 . S
C588 H552 0.930 . S
C588 C587 1.395 . S
C588 C589 1.362 . S
C589 H553 0.930 . S
C589 C584 1.390 . S
C589 C588 1.362 . S
C590 C579 1.492 . S
C590 C591 1.377 . S
C590 C595 1.397 . S
C591 H554 0.931 . S
C591 C590 1.377 . S
C591 C592 1.376 1_556 S
C592 H555 0.930 . S
C592 C591 1.376 1_554 S
C592 C593 1.376 . S
C593 C592 1.376 . S
C593 C594 1.373 1_554 S
C593 C620 1.486 . S
C594 H556 0.926 1_556 S
C594 C593 1.373 1_556 S
C594 C595 1.385 . S
C595 H557 0.929 . S
C595 C590 1.397 . S
C595 C594 1.385 . S
C596 C580 1.509 . S
C596 C597 1.391 . S
C596 C601 1.386 . S
C597 H558 0.930 . S
C597 C596 1.391 . S
C597 C598 1.375 . S
C598 H559 0.931 . S
C598 C597 1.375 . S
C598 C599 1.375 . S
C599 C598 1.375 . S
C599 C600 1.361 . S
C600 H560 0.930 . S
C600 C599 1.361 . S
C600 C601 1.399 . S
C601 H561 0.929 . S
C601 C596 1.386 . S
C601 C600 1.399 . S
C602 C581 1.485 . S
C602 C603 1.394 . S
C602 C607 1.360 . S
C603 H562 0.931 . S
C603 C602 1.394 . S
C603 C604 1.372 . S
C604 H563 0.930 . S
C604 C603 1.372 . S
C604 C605 1.397 . S
C605 C604 1.397 . S
C605 C606 1.390 . S
C605 C621 1.476 . S
C606 H564 0.930 . S
C606 C605 1.390 . S
C606 C607 1.366 . S
C607 H565 0.932 . S
C607 C602 1.360 . S
C607 C606 1.366 . S
C608 C582 1.490 . S
C608 C609 1.380 . S
C608 C613 1.386 . S
C609 H566 0.930 . S
C609 C608 1.380 . S
C609 C610 1.381 . S
C610 H567 0.929 . S
C610 C609 1.381 . S
C610 C611 1.371 . S
C611 C610 1.371 . S
C611 C612 1.380 . S
C612 H568 0.931 . S
C612 C611 1.380 . S
C612 C613 1.387 . S
C613 H569 0.930 . S
C613 C608 1.386 . S
C613 C612 1.387 . S
C614 C583 1.519 . S
C614 C615 1.377 . S
C614 C619 1.361 . S
C615 H570 0.929 . S
C615 C614 1.377 . S
C615 C616 1.386 . S
C616 H571 0.931 . S
C616 C615 1.386 . S
C616 C617 1.363 . S
C617 C616 1.363 . S
C617 C618 1.385 . S
C618 H572 0.930 . S
C618 C617 1.385 . S
C618 C619 1.396 . S
C619 H573 0.929 . S
C619 C614 1.361 . S
C619 C618 1.396 . S
C620 O574 1.300 . S
C620 O575 1.209 . S
C620 C593 1.486 . S
C621 O576 1.199 . S
C621 O577 1.297 1_545 S
C621 C605 1.476 . S
H622 O648 0.856 . S
H623 O651 0.854 . S
H624 C659 0.930 . S
H625 C660 0.930 . S
H626 C662 0.930 . S
H627 C663 0.930 . S
H628 C665 0.931 . S
H629 C666 0.930 . S
H630 C668 0.930 . S
H631 C669 0.929 . S
H632 C671 0.930 . S
H633 C672 0.931 . S
H634 C674 0.930 . S
H635 C675 0.929 . S
H636 C677 0.931 . S
H637 C678 0.930 . S
H638 C680 0.930 . S
H639 C681 0.932 . S
H640 C683 0.930 . S
H641 C684 0.929 . S
H642 C686 0.931 . S
H643 C687 0.930 . S
H644 C689 0.929 . S
H645 C690 0.931 . S
H646 C692 0.930 . S
H647 C693 0.929 . S
O648 H622 0.856 . S
O648 C694 1.300 . S
O649 C694 1.209 . S
O650 C695 1.199 . S
O651 H623 0.854 . S
O651 C695 1.297 . S
C652 C653 1.404 . S
C652 C657 1.397 . S
C652 C658 1.492 . S
C653 C652 1.404 . S
C653 C654 1.396 . S
C653 C664 1.492 . S
C654 C653 1.396 . S
C654 C655 1.397 . S
C654 C670 1.509 . S
C655 C654 1.397 . S
C655 C656 1.412 . S
C655 C676 1.485 . S
C656 C655 1.412 . S
C656 C657 1.388 . S
C656 C682 1.490 . S
C657 C652 1.397 . S
C657 C656 1.388 . S
C657 C688 1.519 . S
C658 C652 1.492 . S
C658 C659 1.363 . S
C658 C663 1.390 . S
C659 H624 0.930 . S
C659 C658 1.363 . S
C659 C660 1.372 . S
C660 H625 0.930 . S
C660 C659 1.372 . S
C660 C661 1.383 . S
C661 C660 1.383 . S
C661 C662 1.395 . S
C662 H626 0.930 . S
C662 C661 1.395 . S
C662 C663 1.362 . S
C663 H627 0.930 . S
C663 C658 1.390 . S
C663 C662 1.362 . S
C664 C653 1.492 . S
C664 C665 1.377 . S
C664 C669 1.397 . S
C665 H628 0.931 . S
C665 C664 1.377 . S
C665 C666 1.376 1_556 S
C666 H629 0.930 . S
C666 C665 1.376 1_554 S
C666 C667 1.376 . S
C667 C666 1.376 . S
C667 C668 1.378 . S
C667 C694 1.486 . S
C668 H630 0.930 . S
C668 C667 1.378 . S
C668 C669 1.376 1_554 S
C669 H631 0.929 . S
C669 C664 1.397 . S
C669 C668 1.376 1_556 S
C670 C654 1.509 . S
C670 C671 1.391 . S
C670 C675 1.386 . S
C671 H632 0.930 . S
C671 C670 1.391 . S
C671 C672 1.375 . S
C672 H633 0.931 . S
C672 C671 1.375 . S
C672 C673 1.375 . S
C673 C672 1.375 . S
C673 C674 1.361 . S
C674 H634 0.930 . S
C674 C673 1.361 . S
C674 C675 1.399 . S
C675 H635 0.929 . S
C675 C670 1.386 . S
C675 C674 1.399 . S
C676 C655 1.485 . S
C676 C677 1.394 . S
C676 C681 1.360 . S
C677 H636 0.931 . S
C677 C676 1.394 . S
C677 C678 1.372 . S
C678 H637 0.930 . S
C678 C677 1.372 . S
C678 C679 1.397 . S
C679 C678 1.397 . S
C679 C680 1.390 . S
C679 C695 1.476 . S
C680 H638 0.930 . S
C680 C679 1.390 . S
C680 C681 1.366 . S
C681 H639 0.932 . S
C681 C676 1.360 . S
C681 C680 1.366 . S
C682 C656 1.490 . S
C682 C683 1.380 . S
C682 C687 1.386 . S
C683 H640 0.930 . S
C683 C682 1.380 . S
C683 C684 1.381 . S
C684 H641 0.929 . S
C684 C683 1.381 . S
C684 C685 1.371 . S
C685 C684 1.371 . S
C685 C686 1.380 . S
C686 H642 0.931 . S
C686 C685 1.380 . S
C686 C687 1.387 . S
C687 H643 0.930 . S
C687 C682 1.386 . S
C687 C686 1.387 . S
C688 C657 1.519 . S
C688 C689 1.377 . S
C688 C693 1.361 . S
C689 H644 0.929 . S
C689 C688 1.377 . S
C689 C690 1.386 . S
C690 H645 0.931 . S
C690 C689 1.386 . S
C690 C691 1.363 . S
C691 C690 1.363 . S
C691 C692 1.385 . S
C692 H646 0.930 . S
C692 C691 1.385 . S
C692 C693 1.396 . S
C693 H647 0.929 . S
C693 C688 1.361 . S
C693 C692 1.396 . S
C694 O648 1.300 . S
C694 O649 1.209 . S
C694 C667 1.486 . S
C695 O650 1.199 . S
C695 O651 1.297 . S
C695 C679 1.476 . S
H696 O722 0.856 . S
H697 O725 0.854 . S
H698 C733 0.930 . S
H699 C734 0.930 . S
H700 C736 0.930 . S
H701 C737 0.930 . S
H702 C739 0.931 . S
H703 C740 0.930 . S
H704 C742 0.930 . S
H705 C743 0.929 . S
H706 C745 0.930 . S
H707 C746 0.931 . S
H708 C748 0.930 . S
H709 C749 0.929 . S
H710 C751 0.931 . S
H711 C752 0.930 . S
H712 C754 0.930 . S
H713 C755 0.932 . S
H714 C757 0.930 . S
H715 C758 0.929 . S
H716 C760 0.931 . S
H717 C761 0.930 . S
H718 C763 0.929 . S
H719 C764 0.931 . S
H720 C766 0.930 . S
H721 C767 0.929 . S
O722 H696 0.856 . S
O722 C768 1.300 . S
O723 C768 1.209 . S
O724 C769 1.199 . S
O725 H697 0.854 . S
O725 C769 1.297 . S
C726 C727 1.404 . S
C726 C731 1.397 . S
C726 C732 1.492 . S
C727 C726 1.404 . S
C727 C728 1.396 . S
C727 C738 1.492 . S
C728 C727 1.396 . S
C728 C729 1.397 . S
C728 C744 1.509 . S
C729 C728 1.397 . S
C729 C730 1.412 . S
C729 C750 1.485 . S
C730 C729 1.412 . S
C730 C731 1.388 . S
C730 C756 1.490 . S
C731 C726 1.397 . S
C731 C730 1.388 . S
C731 C762 1.519 . S
C732 C726 1.492 . S
C732 C733 1.363 . S
C732 C737 1.390 . S
C733 H698 0.930 . S
C733 C732 1.363 . S
C733 C734 1.372 . S
C734 H699 0.930 . S
C734 C733 1.372 . S
C734 C735 1.383 . S
C735 C734 1.383 . S
C735 C736 1.395 . S
C736 H700 0.930 . S
C736 C735 1.395 . S
C736 C737 1.362 . S
C737 H701 0.930 . S
C737 C732 1.390 . S
C737 C736 1.362 . S
C738 C727 1.492 . S
C738 C739 1.377 . S
C738 C743 1.397 . S
C739 H702 0.931 . S
C739 C738 1.377 . S
C739 C740 1.376 . S
C740 H703 0.930 . S
C740 C739 1.376 . S
C740 C741 1.376 . S
C741 C740 1.376 . S
C741 C742 1.378 . S
C741 C768 1.486 . S
C742 H704 0.930 . S
C742 C741 1.378 . S
C742 C743 1.376 . S
C743 H705 0.929 . S
C743 C738 1.397 . S
C743 C742 1.376 . S
C744 C728 1.509 . S
C744 C745 1.391 . S
C744 C749 1.386 . S
C745 H706 0.930 . S
C745 C744 1.391 . S
C745 C746 1.375 . S
C746 H707 0.931 . S
C746 C745 1.375 . S
C746 C747 1.375 . S
C747 C746 1.375 . S
C747 C748 1.361 . S
C748 H708 0.930 . S
C748 C747 1.361 . S
C748 C749 1.399 . S
C749 H709 0.929 . S
C749 C744 1.386 . S
C749 C748 1.399 . S
C750 C729 1.485 . S
C750 C751 1.394 . S
C750 C755 1.360 . S
C751 H710 0.931 . S
C751 C750 1.394 . S
C751 C752 1.372 . S
C752 H711 0.930 . S
C752 C751 1.372 . S
C752 C753 1.397 . S
C753 C752 1.397 . S
C753 C754 1.390 . S
C753 C769 1.476 . S
C754 H712 0.930 . S
C754 C753 1.390 . S
C754 C755 1.366 . S
C755 H713 0.932 . S
C755 C750 1.360 . S
C755 C754 1.366 . S
C756 C730 1.490 . S
C756 C757 1.380 . S
C756 C761 1.386 . S
C757 H714 0.930 . S
C757 C756 1.380 . S
C757 C758 1.381 . S
C758 H715 0.929 . S
C758 C757 1.381 . S
C758 C759 1.371 . S
C759 C758 1.371 . S
C759 C760 1.380 . S
C760 H716 0.931 . S
C760 C759 1.380 . S
C760 C761 1.387 . S
C761 H717 0.930 . S
C761 C756 1.386 . S
C761 C760 1.387 . S
C762 C731 1.519 . S
C762 C763 1.377 . S
C762 C767 1.361 . S
C763 H718 0.929 . S
C763 C762 1.377 . S
C763 C764 1.386 . S
C764 H719 0.931 . S
C764 C763 1.386 . S
C764 C765 1.363 . S
C765 C764 1.363 . S
C765 C766 1.385 . S
C766 H720 0.930 . S
C766 C765 1.385 . S
C766 C767 1.396 . S
C767 H721 0.929 . S
C767 C762 1.361 . S
C767 C766 1.396 . S
C768 O722 1.300 . S
C768 O723 1.209 . S
C768 C741 1.486 . S
C769 O724 1.199 . S
C769 O725 1.297 . S
C769 C753 1.476 . S
H770 O796 0.856 . S
H771 O799 0.854 . S
H772 C807 0.930 . S
H773 C808 0.930 . S
H774 C810 0.930 . S
H775 C811 0.930 . S
H776 C813 0.931 . S
H777 C814 0.930 . S
H778 C816 0.930 . S
H779 C817 0.929 . S
H780 C819 0.930 . S
H781 C820 0.931 . S
H782 C822 0.930 . S
H783 C823 0.929 . S
H784 C825 0.931 . S
H785 C826 0.930 . S
H786 C828 0.930 . S
H787 C829 0.932 . S
H788 C831 0.930 . S
H789 C832 0.929 . S
H790 C834 0.931 . S
H791 C835 0.930 . S
H792 C837 0.929 . S
H793 C838 0.931 . S
H794 C840 0.930 . S
H795 C841 0.929 . S
O796 H770 0.856 . S
O796 C842 1.300 . S
O797 C842 1.209 . S
O798 C843 1.199 . S
O799 H771 0.854 . S
O799 C843 1.297 . S
C800 C801 1.404 . S
C800 C805 1.397 . S
C800 C806 1.492 . S
C801 C800 1.404 . S
C801 C802 1.396 . S
C801 C812 1.492 . S
C802 C801 1.396 . S
C802 C803 1.397 . S
C802 C818 1.509 . S
C803 C802 1.397 . S
C803 C804 1.412 . S
C803 C824 1.485 . S
C804 C803 1.412 . S
C804 C805 1.388 . S
C804 C830 1.490 . S
C805 C800 1.397 . S
C805 C804 1.388 . S
C805 C836 1.519 . S
C806 C800 1.492 . S
C806 C807 1.363 . S
C806 C811 1.390 . S
C807 H772 0.930 . S
C807 C806 1.363 . S
C807 C808 1.372 . S
C808 H773 0.930 . S
C808 C807 1.372 . S
C808 C809 1.383 . S
C809 C808 1.383 . S
C809 C810 1.395 . S
C810 H774 0.930 . S
C810 C809 1.395 . S
C810 C811 1.362 . S
C811 H775 0.930 . S
C811 C806 1.390 . S
C811 C810 1.362 . S
C812 C801 1.492 . S
C812 C813 1.377 . S
C812 C817 1.397 . S
C813 H776 0.931 . S
C813 C812 1.377 . S
C813 C814 1.376 . S
C814 H777 0.930 . S
C814 C813 1.376 . S
C814 C815 1.376 . S
C815 C814 1.376 . S
C815 C816 1.378 . S
C815 C842 1.486 . S
C816 H778 0.930 . S
C816 C815 1.378 . S
C816 C817 1.376 . S
C817 H779 0.929 . S
C817 C812 1.397 . S
C817 C816 1.376 . S
C818 C802 1.509 . S
C818 C819 1.391 . S
C818 C823 1.386 . S
C819 H780 0.930 . S
C819 C818 1.391 . S
C819 C820 1.375 . S
C820 H781 0.931 . S
C820 C819 1.375 . S
C820 C821 1.375 . S
C821 C820 1.375 . S
C821 C822 1.361 . S
C822 H782 0.930 . S
C822 C821 1.361 . S
C822 C823 1.399 . S
C823 H783 0.929 . S
C823 C818 1.386 . S
C823 C822 1.399 . S
C824 C803 1.485 . S
C824 C825 1.394 . S
C824 C829 1.360 . S
C825 H784 0.931 . S
C825 C824 1.394 . S
C825 C826 1.372 . S
C826 H785 0.930 . S
C826 C825 1.372 . S
C826 C827 1.397 . S
C827 C826 1.397 . S
C827 C828 1.390 . S
C827 C843 1.476 . S
C828 H786 0.930 . S
C828 C827 1.390 . S
C828 C829 1.366 . S
C829 H787 0.932 . S
C829 C824 1.360 . S
C829 C828 1.366 . S
C830 C804 1.490 . S
C830 C831 1.380 . S
C830 C835 1.386 . S
C831 H788 0.930 . S
C831 C830 1.380 . S
C831 C832 1.381 . S
C832 H789 0.929 . S
C832 C831 1.381 . S
C832 C833 1.371 . S
C833 C832 1.371 . S
C833 C834 1.380 . S
C834 H790 0.931 . S
C834 C833 1.380 . S
C834 C835 1.387 . S
C835 H791 0.930 . S
C835 C830 1.386 . S
C835 C834 1.387 . S
C836 C805 1.519 . S
C836 C837 1.377 . S
C836 C841 1.361 . S
C837 H792 0.929 . S
C837 C836 1.377 . S
C837 C838 1.386 . S
C838 H793 0.931 . S
C838 C837 1.386 . S
C838 C839 1.363 . S
C839 C838 1.363 . S
C839 C840 1.385 . S
C840 H794 0.930 . S
C840 C839 1.385 . S
C840 C841 1.396 . S
C841 H795 0.929 . S
C841 C836 1.361 . S
C841 C840 1.396 . S
C842 O796 1.300 . S
C842 O797 1.209 . S
C842 C815 1.486 . S
C843 O798 1.199 . S
C843 O799 1.297 . S
C843 C827 1.476 . S
H844 O870 0.856 . S
H845 O873 0.854 . S
H846 C881 0.930 . S
H847 C882 0.930 . S
H848 C884 0.930 . S
H849 C885 0.930 . S
H850 C887 0.931 . S
H851 C888 0.930 . S
H852 C890 0.930 . S
H853 C891 0.929 . S
H854 C893 0.930 . S
H855 C894 0.931 . S
H856 C896 0.930 . S
H857 C897 0.929 . S
H858 C899 0.931 . S
H859 C900 0.930 . S
H860 C902 0.930 . S
H861 C903 0.932 . S
H862 C905 0.930 . S
H863 C906 0.929 . S
H864 C908 0.931 . S
H865 C909 0.930 . S
H866 C911 0.929 . S
H867 C912 0.931 . S
H868 C914 0.930 . S
H869 C915 0.929 . S
O870 H844 0.856 . S
O870 C916 1.300 . S
O871 C916 1.209 . S
O872 C917 1.199 . S
O873 H845 0.854 . S
O873 C917 1.297 . S
C874 C875 1.404 . S
C874 C879 1.397 . S
C874 C880 1.492 . S
C875 C874 1.404 . S
C875 C876 1.396 . S
C875 C886 1.492 . S
C876 C875 1.396 . S
C876 C877 1.397 . S
C876 C892 1.509 . S
C877 C876 1.397 . S
C877 C878 1.412 . S
C877 C898 1.485 . S
C878 C877 1.412 . S
C878 C879 1.388 . S
C878 C904 1.490 . S
C879 C874 1.397 . S
C879 C878 1.388 . S
C879 C910 1.519 . S
C880 C874 1.492 . S
C880 C881 1.363 . S
C880 C885 1.390 . S
C881 H846 0.930 . S
C881 C880 1.363 . S
C881 C882 1.372 . S
C882 H847 0.930 . S
C882 C881 1.372 . S
C882 C883 1.383 . S
C883 C882 1.383 . S
C883 C884 1.395 . S
C884 H848 0.930 . S
C884 C883 1.395 . S
C884 C885 1.362 . S
C885 H849 0.930 . S
C885 C880 1.390 . S
C885 C884 1.362 . S
C886 C875 1.492 . S
C886 C887 1.377 . S
C886 C891 1.397 . S
C887 H850 0.931 . S
C887 C886 1.377 . S
C887 C888 1.376 . S
C888 H851 0.930 . S
C888 C887 1.376 . S
C888 C889 1.376 . S
C889 C888 1.376 . S
C889 C890 1.378 . S
C889 C916 1.486 . S
C890 H852 0.930 . S
C890 C889 1.378 . S
C890 C891 1.376 . S
C891 H853 0.929 . S
C891 C886 1.397 . S
C891 C890 1.376 . S
C892 C876 1.509 . S
C892 C893 1.391 . S
C892 C897 1.386 . S
C893 H854 0.930 . S
C893 C892 1.391 . S
C893 C894 1.375 . S
C894 H855 0.931 . S
C894 C893 1.375 . S
C894 C895 1.375 . S
C895 C894 1.375 . S
C895 C896 1.361 . S
C896 H856 0.930 . S
C896 C895 1.361 . S
C896 C897 1.399 . S
C897 H857 0.929 . S
C897 C892 1.386 . S
C897 C896 1.399 . S
C898 C877 1.485 . S
C898 C899 1.394 . S
C898 C903 1.360 . S
C899 H858 0.931 . S
C899 C898 1.394 . S
C899 C900 1.372 . S
C900 H859 0.930 . S
C900 C899 1.372 . S
C900 C901 1.397 . S
C901 C900 1.397 . S
C901 C902 1.390 . S
C901 C917 1.476 . S
C902 H860 0.930 . S
C902 C901 1.390 . S
C902 C903 1.366 . S
C903 H861 0.932 . S
C903 C898 1.360 . S
C903 C902 1.366 . S
C904 C878 1.490 . S
C904 C905 1.380 . S
C904 C909 1.386 . S
C905 H862 0.930 . S
C905 C904 1.380 . S
C905 C906 1.381 . S
C906 H863 0.929 . S
C906 C905 1.381 . S
C906 C907 1.371 . S
C907 C906 1.371 . S
C907 C908 1.380 . S
C908 H864 0.931 . S
C908 C907 1.380 . S
C908 C909 1.387 . S
C909 H865 0.930 . S
C909 C904 1.386 . S
C909 C908 1.387 . S
C910 C879 1.519 . S
C910 C911 1.377 . S
C910 C915 1.361 . S
C911 H866 0.929 . S
C911 C910 1.377 . S
C911 C912 1.386 . S
C912 H867 0.931 . S
C912 C911 1.386 . S
C912 C913 1.363 . S
C913 C912 1.363 . S
C913 C914 1.385 . S
C914 H868 0.930 . S
C914 C913 1.385 . S
C914 C915 1.396 . S
C915 H869 0.929 . S
C915 C910 1.361 . S
C915 C914 1.396 . S
C916 O870 1.300 . S
C916 O871 1.209 . S
C916 C889 1.486 . S
C917 O872 1.199 . S
C917 O873 1.297 . S
C917 C901 1.476 . S
H918 O944 0.856 . S
H919 O947 0.854 . S
H920 C955 0.930 . S
H921 C956 0.930 . S
H922 C958 0.930 . S
H923 C959 0.930 . S
H924 C961 0.931 . S
H925 C962 0.930 1_655 S
H926 C964 0.930 . S
H927 C965 0.929 . S
H928 C967 0.930 . S
H929 C968 0.931 1_655 S
H930 C970 0.930 . S
H931 C971 0.929 . S
H932 C973 0.931 . S
H933 C974 0.930 . S
H934 C976 0.930 . S
H935 C977 0.932 . S
H936 C979 0.930 . S
H937 C980 0.929 . S
H938 C982 0.931 . S
H939 C983 0.930 . S
H940 C985 0.929 . S
H941 C986 0.931 . S
H942 C988 0.930 . S
H943 C989 0.929 . S
O944 H918 0.856 . S
O944 C990 1.300 . S
O945 C990 1.209 . S
O946 C991 1.199 1_655 S
O947 H919 0.854 . S
O947 C991 1.297 . S
C948 C949 1.404 . S
C948 C953 1.397 . S
C948 C954 1.492 . S
C949 C948 1.404 . S
C949 C950 1.396 . S
C949 C960 1.492 . S
C950 C949 1.396 . S
C950 C951 1.397 . S
C950 C966 1.509 . S
C951 C950 1.397 . S
C951 C952 1.426 . S
C951 C972 1.485 . S
C952 C951 1.426 . S
C952 C953 1.375 . S
C952 C978 1.490 1_455 S
C953 C948 1.397 . S
C953 C952 1.375 . S
C953 C984 1.498 1_455 S
C954 C948 1.492 . S
C954 C955 1.363 1_455 S
C954 C959 1.390 . S
C955 H920 0.930 . S
C955 C954 1.363 1_655 S
C955 C956 1.372 . S
C956 H921 0.930 . S
C956 C955 1.372 . S
C956 C957 1.383 . S
C957 C956 1.383 . S
C957 C958 1.395 1_655 S
C958 H922 0.930 . S
C958 C957 1.395 1_455 S
C958 C959 1.362 . S
C959 H923 0.930 . S
C959 C954 1.390 . S
C959 C958 1.362 . S
C960 C949 1.492 . S
C960 C961 1.377 1_455 S
C960 C965 1.397 . S
C961 H924 0.931 . S
C961 C960 1.377 1_655 S
C961 C962 1.376 1_655 S
C962 H925 0.930 1_455 S
C962 C961 1.376 1_455 S
C962 C963 1.376 . S
C963 C962 1.376 . S
C963 C964 1.378 . S
C963 C990 1.486 . S
C964 H926 0.930 . S
C964 C963 1.378 . S
C964 C965 1.376 . S
C965 H927 0.929 . S
C965 C960 1.397 . S
C965 C964 1.376 . S
C966 C950 1.509 . S
C966 C967 1.391 1_455 S
C966 C971 1.386 . S
C967 H928 0.930 . S
C967 C966 1.391 1_655 S
C967 C968 1.375 1_655 S
C968 H929 0.931 1_455 S
C968 C967 1.375 1_455 S
C968 C969 1.375 . S
C969 C968 1.375 . S
C969 C970 1.361 . S
C970 H930 0.930 . S
C970 C969 1.361 . S
C970 C971 1.399 . S
C971 H931 0.929 . S
C971 C966 1.386 . S
C971 C970 1.399 . S
C972 C951 1.485 . S
C972 C973 1.394 1_455 S
C972 C977 1.360 . S
C973 H932 0.931 . S
C973 C972 1.394 1_655 S
C973 C974 1.372 . S
C974 H933 0.930 . S
C974 C973 1.372 . S
C974 C975 1.397 1_655 S
C975 C974 1.397 1_455 S
C975 C976 1.390 . S
C975 C991 1.476 . S
C976 H934 0.930 . S
C976 C975 1.390 . S
C976 C977 1.366 . S
C977 H935 0.932 . S
C977 C972 1.360 . S
C977 C976 1.366 . S
C978 C952 1.490 1_655 S
C978 C979 1.380 . S
C978 C983 1.386 1_655 S
C979 H936 0.930 . S
C979 C978 1.380 . S
C979 C980 1.381 . S
C980 H937 0.929 . S
C980 C979 1.381 . S
C980 C981 1.371 . S
C981 C980 1.371 . S
C981 C982 1.380 1_655 S
C982 H938 0.931 . S
C982 C981 1.380 1_455 S
C982 C983 1.387 . S
C983 H939 0.930 . S
C983 C978 1.386 1_455 S
C983 C982 1.387 . S
C984 C953 1.498 1_655 S
C984 C985 1.431 . S
C984 C989 1.327 1_655 S
C985 H940 0.929 . S
C985 C984 1.431 . S
C985 C986 1.386 . S
C986 H941 0.931 . S
C986 C985 1.386 . S
C986 C987 1.363 . S
C987 C986 1.363 . S
C987 C988 1.385 1_655 S
C988 H942 0.930 . S
C988 C987 1.385 1_455 S
C988 C989 1.396 . S
C989 H943 0.929 . S
C989 C984 1.327 1_455 S
C989 C988 1.396 . S
C990 O944 1.300 . S
C990 O945 1.209 . S
C990 C963 1.486 . S
C991 O946 1.199 1_455 S
C991 O947 1.297 . S
C991 C975 1.476 . S
H992 O1018 0.856 . S
H993 O1021 0.854 . S
H994 C1029 0.930 . S
H995 C1030 0.930 . S
H996 C1032 0.930 . S
H997 C1033 0.930 . S
H998 C1035 0.931 . S
H999 C1036 0.930 . S
H1000 C1038 0.930 . S
H1001 C1039 0.929 . S
H1002 C1041 0.930 . S
H1003 C1042 0.931 . S
H1004 C1044 0.930 . S
H1005 C1045 0.929 . S
H1006 C1047 0.931 . S
H1007 C1048 0.930 . S
H1008 C1050 0.930 . S
H1009 C1051 0.932 . S
H1010 C1053 0.930 . S
H1011 C1054 0.929 . S
H1012 C1056 0.931 . S
H1013 C1057 0.930 . S
H1014 C1059 0.929 . S
H1015 C1060 0.931 . S
H1016 C1062 0.930 . S
H1017 C1063 0.929 . S
O1018 H992 0.856 . S
O1018 C1064 1.300 . S
O1019 C1064 1.209 . S
O1020 C1065 1.199 . S
O1021 H993 0.854 . S
O1021 C1065 1.297 . S
C1022 C1023 1.404 . S
C1022 C1027 1.397 . S
C1022 C1028 1.492 . S
C1023 C1022 1.404 . S
C1023 C1024 1.396 . S
C1023 C1034 1.492 . S
C1024 C1023 1.396 . S
C1024 C1025 1.397 . S
C1024 C1040 1.509 . S
C1025 C1024 1.397 . S
C1025 C1026 1.412 . S
C1025 C1046 1.485 . S
C1026 C1025 1.412 . S
C1026 C1027 1.388 . S
C1026 C1052 1.490 . S
C1027 C1022 1.397 . S
C1027 C1026 1.388 . S
C1027 C1058 1.519 . S
C1028 C1022 1.492 . S
C1028 C1029 1.363 . S
C1028 C1033 1.390 . S
C1029 H994 0.930 . S
C1029 C1028 1.363 . S
C1029 C1030 1.372 . S
C1030 H995 0.930 . S
C1030 C1029 1.372 . S
C1030 C1031 1.383 . S
C1031 C1030 1.383 . S
C1031 C1032 1.395 . S
C1032 H996 0.930 . S
C1032 C1031 1.395 . S
C1032 C1033 1.362 . S
C1033 H997 0.930 . S
C1033 C1028 1.390 . S
C1033 C1032 1.362 . S
C1034 C1023 1.492 . S
C1034 C1035 1.377 . S
C1034 C1039 1.397 . S
C1035 H998 0.931 . S
C1035 C1034 1.377 . S
C1035 C1036 1.376 . S
C1036 H999 0.930 . S
C1036 C1035 1.376 . S
C1036 C1037 1.376 . S
C1037 C1036 1.376 . S
C1037 C1038 1.378 . S
C1037 C1064 1.486 . S
C1038 H1000 0.930 . S
C1038 C1037 1.378 . S
C1038 C1039 1.376 . S
C1039 H1001 0.929 . S
C1039 C1034 1.397 . S
C1039 C1038 1.376 . S
C1040 C1024 1.509 . S
C1040 C1041 1.391 . S
C1040 C1045 1.386 . S
C1041 H1002 0.930 . S
C1041 C1040 1.391 . S
C1041 C1042 1.375 . S
C1042 H1003 0.931 . S
C1042 C1041 1.375 . S
C1042 C1043 1.375 . S
C1043 C1042 1.375 . S
C1043 C1044 1.361 . S
C1044 H1004 0.930 . S
C1044 C1043 1.361 . S
C1044 C1045 1.399 . S
C1045 H1005 0.929 . S
C1045 C1040 1.386 . S
C1045 C1044 1.399 . S
C1046 C1025 1.485 . S
C1046 C1047 1.394 . S
C1046 C1051 1.360 . S
C1047 H1006 0.931 . S
C1047 C1046 1.394 . S
C1047 C1048 1.372 . S
C1048 H1007 0.930 . S
C1048 C1047 1.372 . S
C1048 C1049 1.397 . S
C1049 C1048 1.397 . S
C1049 C1050 1.390 . S
C1049 C1065 1.476 . S
C1050 H1008 0.930 . S
C1050 C1049 1.390 . S
C1050 C1051 1.366 . S
C1051 H1009 0.932 . S
C1051 C1046 1.360 . S
C1051 C1050 1.366 . S
C1052 C1026 1.490 . S
C1052 C1053 1.380 . S
C1052 C1057 1.386 . S
C1053 H1010 0.930 . S
C1053 C1052 1.380 . S
C1053 C1054 1.381 . S
C1054 H1011 0.929 . S
C1054 C1053 1.381 . S
C1054 C1055 1.371 . S
C1055 C1054 1.371 . S
C1055 C1056 1.380 . S
C1056 H1012 0.931 . S
C1056 C1055 1.380 . S
C1056 C1057 1.387 . S
C1057 H1013 0.930 . S
C1057 C1052 1.386 . S
C1057 C1056 1.387 . S
C1058 C1027 1.519 . S
C1058 C1059 1.377 . S
C1058 C1063 1.361 . S
C1059 H1014 0.929 . S
C1059 C1058 1.377 . S
C1059 C1060 1.386 . S
C1060 H1015 0.931 . S
C1060 C1059 1.386 . S
C1060 C1061 1.363 . S
C1061 C1060 1.363 . S
C1061 C1062 1.385 . S
C1062 H1016 0.930 . S
C1062 C1061 1.385 . S
C1062 C1063 1.396 . S
C1063 H1017 0.929 . S
C1063 C1058 1.361 . S
C1063 C1062 1.396 . S
C1064 O1018 1.300 . S
C1064 O1019 1.209 . S
C1064 C1037 1.486 . S
C1065 O1020 1.199 . S
C1065 O1021 1.297 . S
C1065 C1049 1.476 . S
H1066 O1092 0.856 . S
H1067 O1095 0.854 . S
H1068 C1103 0.930 . S
H1069 C1104 0.930 . S
H1070 C1106 0.930 . S
H1071 C1107 0.930 . S
H1072 C1109 0.931 . S
H1073 C1110 0.938 . S
H1074 C1112 0.930 . S
H1075 C1113 0.929 . S
H1076 C1115 0.930 . S
H1077 C1116 0.931 . S
H1078 C1118 0.930 . S
H1079 C1119 0.929 . S
H1080 C1121 0.931 . S
H1081 C1122 0.930 . S
H1082 C1124 0.930 . S
H1083 C1125 0.932 . S
H1084 C1127 0.930 . S
H1085 C1128 0.929 . S
H1086 C1130 0.931 . S
H1087 C1131 0.930 . S
H1088 C1133 0.929 . S
H1089 C1134 0.931 . S
H1090 C1136 0.930 . S
H1091 C1137 0.929 . S
O1092 H1066 0.856 . S
O1092 C1138 1.300 . S
O1093 C1138 1.209 . S
O1094 C1139 1.199 1_545 S
O1095 H1067 0.854 . S
O1095 C1139 1.297 . S
C1096 C1097 1.404 . S
C1096 C1101 1.415 . S
C1096 C1102 1.492 . S
C1097 C1096 1.404 . S
C1097 C1098 1.396 . S
C1097 C1108 1.492 . S
C1098 C1097 1.396 . S
C1098 C1099 1.397 . S
C1098 C1114 1.509 . S
C1099 C1098 1.397 . S
C1099 C1100 1.412 . S
C1099 C1120 1.485 . S
C1100 C1099 1.412 . S
C1100 C1101 1.363 . S
C1100 C1126 1.489 1_565 S
C1101 C1096 1.415 . S
C1101 C1100 1.363 . S
C1101 C1132 1.534 1_565 S
C1102 C1096 1.492 . S
C1102 C1103 1.363 1_565 S
C1102 C1107 1.390 . S
C1103 H1068 0.930 . S
C1103 C1102 1.363 1_545 S
C1103 C1104 1.372 . S
C1104 H1069 0.930 . S
C1104 C1103 1.372 . S
C1104 C1105 1.383 . S
C1105 C1104 1.383 . S
C1105 C1106 1.395 1_545 S
C1106 H1070 0.930 . S
C1106 C1105 1.395 1_565 S
C1106 C1107 1.362 . S
C1107 H1071 0.930 . S
C1107 C1102 1.390 . S
C1107 C1106 1.362 . S
C1108 C1097 1.492 . S
C1108 C1109 1.377 1_565 S
C1108 C1113 1.397 . S
C1109 H1072 0.931 . S
C1109 C1108 1.377 1_545 S
C1109 C1110 1.380 . S
C1110 H1073 0.938 . S
C1110 C1109 1.380 . S
C1110 C1111 1.363 1_545 S
C1111 C1110 1.363 1_565 S
C1111 C1112 1.378 . S
C1111 C1138 1.486 . S
C1112 H1074 0.930 . S
C1112 C1111 1.378 . S
C1112 C1113 1.376 . S
C1113 H1075 0.929 . S
C1113 C1108 1.397 . S
C1113 C1112 1.376 . S
C1114 C1098 1.509 . S
C1114 C1115 1.391 1_565 S
C1114 C1119 1.386 . S
C1115 H1076 0.930 . S
C1115 C1114 1.391 1_545 S
C1115 C1116 1.375 . S
C1116 H1077 0.931 . S
C1116 C1115 1.375 . S
C1116 C1117 1.375 1_545 S
C1117 C1116 1.375 1_565 S
C1117 C1118 1.361 . S
C1118 H1078 0.930 . S
C1118 C1117 1.361 . S
C1118 C1119 1.399 . S
C1119 H1079 0.929 . S
C1119 C1114 1.386 . S
C1119 C1118 1.399 . S
C1120 C1099 1.485 . S
C1120 C1121 1.394 1_565 S
C1120 C1125 1.360 . S
C1121 H1080 0.931 . S
C1121 C1120 1.394 1_545 S
C1121 C1122 1.372 . S
C1122 H1081 0.930 . S
C1122 C1121 1.372 . S
C1122 C1123 1.397 1_545 S
C1123 C1122 1.397 1_565 S
C1123 C1124 1.390 . S
C1123 C1139 1.476 . S
C1124 H1082 0.930 . S
C1124 C1123 1.390 . S
C1124 C1125 1.366 . S
C1125 H1083 0.932 . S
C1125 C1120 1.360 . S
C1125 C1124 1.366 . S
C1126 C1100 1.489 1_545 S
C1126 C1127 1.380 . S
C1126 C1131 1.386 1_545 S
C1127 H1084 0.930 . S
C1127 C1126 1.380 . S
C1127 C1128 1.381 . S
C1128 H1085 0.929 . S
C1128 C1127 1.381 . S
C1128 C1129 1.371 . S
C1129 C1128 1.371 . S
C1129 C1130 1.380 1_545 S
C1130 H1086 0.931 . S
C1130 C1129 1.380 1_565 S
C1130 C1131 1.387 . S
C1131 H1087 0.930 . S
C1131 C1126 1.386 1_565 S
C1131 C1130 1.387 . S
C1132 C1101 1.534 1_545 S
C1132 C1133 1.378 . S
C1132 C1137 1.359 1_545 S
C1133 H1088 0.929 . S
C1133 C1132 1.378 . S
C1133 C1134 1.386 . S
C1134 H1089 0.931 . S
C1134 C1133 1.386 . S
C1134 C1135 1.363 1_545 S
C1135 C1134 1.363 1_565 S
C1135 C1136 1.385 . S
C1136 H1090 0.930 . S
C1136 C1135 1.385 . S
C1136 C1137 1.396 . S
C1137 H1091 0.929 . S
C1137 C1132 1.359 1_565 S
C1137 C1136 1.396 . S
C1138 O1092 1.300 . S
C1138 O1093 1.209 . S
C1138 C1111 1.486 . S
C1139 O1094 1.199 1_565 S
C1139 O1095 1.297 . S
C1139 C1123 1.476 . S
H1140 O1166 0.856 . S
H1141 O1169 0.854 . S
H1142 C1177 0.930 . S
H1143 C1178 0.930 . S
H1144 C1180 0.930 . S
H1145 C1181 0.930 . S
H1146 C1183 0.931 . S
H1147 C1184 0.930 . S
H1148 C1186 0.930 . S
H1149 C1187 0.929 . S
H1150 C1189 0.930 . S
H1151 C1190 0.931 . S
H1152 C1192 0.930 . S
H1153 C1193 0.929 . S
H1154 C1195 0.931 . S
H1155 C1196 0.930 . S
H1156 C1198 0.930 . S
H1157 C1199 0.932 . S
H1158 C1201 0.930 . S
H1159 C1202 0.929 . S
H1160 C1204 0.931 . S
H1161 C1205 0.930 . S
H1162 C1207 0.929 . S
H1163 C1208 0.931 . S
H1164 C1210 0.930 . S
H1165 C1211 0.929 . S
O1166 H1140 0.856 . S
O1166 C1212 1.300 . S
O1167 C1212 1.209 1_565 S
O1168 C1213 1.199 1_545 S
O1169 H1141 0.854 . S
O1169 C1213 1.297 . S
C1170 C1171 1.404 . S
C1170 C1175 1.396 1_545 S
C1170 C1176 1.492 . S
C1171 C1170 1.404 . S
C1171 C1172 1.396 . S
C1171 C1182 1.492 . S
C1172 C1171 1.396 . S
C1172 C1173 1.390 1_545 S
C1172 C1188 1.509 . S
C1173 C1172 1.390 1_565 S
C1173 C1174 1.418 . S
C1173 C1194 1.501 . S
C1174 C1173 1.418 . S
C1174 C1175 1.364 . S
C1174 C1200 1.502 . S
C1175 C1170 1.396 1_565 S
C1175 C1174 1.364 . S
C1175 C1206 1.518 . S
C1176 C1170 1.492 . S
C1176 C1177 1.363 . S
C1176 C1181 1.390 1_545 S
C1177 H1142 0.930 . S
C1177 C1176 1.363 . S
C1177 C1178 1.372 . S
C1178 H1143 0.930 . S
C1178 C1177 1.372 . S
C1178 C1179 1.383 . S
C1179 C1178 1.383 . S
C1179 C1180 1.395 1_545 S
C1180 H1144 0.930 . S
C1180 C1179 1.395 1_565 S
C1180 C1181 1.362 . S
C1181 H1145 0.930 . S
C1181 C1176 1.390 1_565 S
C1181 C1180 1.362 . S
C1182 C1171 1.492 . S
C1182 C1183 1.377 . S
C1182 C1187 1.397 1_545 S
C1183 H1146 0.931 . S
C1183 C1182 1.377 . S
C1183 C1184 1.376 . S
C1184 H1147 0.930 . S
C1184 C1183 1.376 . S
C1184 C1185 1.376 . S
C1185 C1184 1.376 . S
C1185 C1186 1.378 1_545 S
C1185 C1212 1.486 . S
C1186 H1148 0.930 . S
C1186 C1185 1.378 1_565 S
C1186 C1187 1.376 . S
C1187 H1149 0.929 . S
C1187 C1182 1.397 1_565 S
C1187 C1186 1.376 . S
C1188 C1172 1.509 . S
C1188 C1189 1.391 . S
C1188 C1193 1.386 1_545 S
C1189 H1150 0.930 . S
C1189 C1188 1.391 . S
C1189 C1190 1.375 . S
C1190 H1151 0.931 . S
C1190 C1189 1.375 . S
C1190 C1191 1.406 . S
C1191 C1190 1.406 . S
C1191 C1192 1.345 1_545 S
C1192 H1152 0.930 . S
C1192 C1191 1.345 1_565 S
C1192 C1193 1.399 . S
C1193 H1153 0.929 . S
C1193 C1188 1.386 1_565 S
C1193 C1192 1.399 . S
C1194 C1173 1.501 . S
C1194 C1195 1.394 1_565 S
C1194 C1199 1.360 . S
C1195 H1154 0.931 . S
C1195 C1194 1.394 1_545 S
C1195 C1196 1.372 . S
C1196 H1155 0.930 . S
C1196 C1195 1.372 . S
C1196 C1197 1.397 1_545 S
C1197 C1196 1.397 1_565 S
C1197 C1198 1.390 . S
C1197 C1213 1.476 . S
C1198 H1156 0.930 . S
C1198 C1197 1.390 . S
C1198 C1199 1.366 . S
C1199 H1157 0.932 . S
C1199 C1194 1.360 . S
C1199 C1198 1.366 . S
C1200 C1174 1.502 . S
C1200 C1201 1.380 1_565 S
C1200 C1205 1.386 . S
C1201 H1158 0.930 . S
C1201 C1200 1.380 1_545 S
C1201 C1202 1.381 . S
C1202 H1159 0.929 . S
C1202 C1201 1.381 . S
C1202 C1203 1.371 1_545 S
C1203 C1202 1.371 1_565 S
C1203 C1204 1.379 . S
C1204 H1160 0.931 . S
C1204 C1203 1.379 . S
C1204 C1205 1.387 . S
C1205 H1161 0.930 . S
C1205 C1200 1.386 . S
C1205 C1204 1.387 . S
C1206 C1175 1.518 . S
C1206 C1207 1.377 1_565 S
C1206 C1211 1.361 . S
C1207 H1162 0.929 . S
C1207 C1206 1.377 1_545 S
C1207 C1208 1.386 . S
C1208 H1163 0.931 . S
C1208 C1207 1.386 . S
C1208 C1209 1.363 1_545 S
C1209 C1208 1.363 1_565 S
C1209 C1210 1.385 . S
C1210 H1164 0.930 . S
C1210 C1209 1.385 . S
C1210 C1211 1.396 . S
C1211 H1165 0.929 . S
C1211 C1206 1.361 . S
C1211 C1210 1.396 . S
C1212 O1166 1.300 . S
C1212 O1167 1.209 1_545 S
C1212 C1185 1.486 . S
C1213 O1168 1.199 1_565 S
C1213 O1169 1.297 . S
C1213 C1197 1.476 . S
H1214 O1240 0.856 . S
H1215 O1243 0.854 . S
H1216 C1251 0.930 . S
H1217 C1252 0.930 . S
H1218 C1254 0.930 . S
H1219 C1255 0.930 . S
H1220 C1257 0.931 . S
H1221 C1258 0.930 . S
H1222 C1260 0.930 . S
H1223 C1261 0.929 . S
H1224 C1263 0.930 . S
H1225 C1264 0.931 . S
H1226 C1266 0.930 . S
H1227 C1267 0.929 . S
H1228 C1269 0.931 . S
H1229 C1270 0.930 . S
H1230 C1272 0.930 . S
H1231 C1273 0.932 . S
H1232 C1275 0.930 . S
H1233 C1276 0.929 . S
H1234 C1278 0.931 . S
H1235 C1279 0.930 . S
H1236 C1281 0.929 . S
H1237 C1282 0.931 . S
H1238 C1284 0.930 . S
H1239 C1285 0.929 . S
O1240 H1214 0.856 . S
O1240 C1286 1.300 . S
O1241 C1286 1.209 1_455 S
O1242 C1287 1.199 1_655 S
O1243 H1215 0.854 . S
O1243 C1287 1.297 . S
C1244 C1245 1.404 . S
C1244 C1249 1.398 . S
C1244 C1250 1.492 . S
C1245 C1244 1.404 . S
C1245 C1246 1.396 . S
C1245 C1256 1.492 . S
C1246 C1245 1.396 . S
C1246 C1247 1.395 . S
C1246 C1262 1.509 . S
C1247 C1246 1.395 . S
C1247 C1248 1.388 1_655 S
C1247 C1268 1.526 1_655 S
C1248 C1247 1.388 1_455 S
C1248 C1249 1.405 1_455 S
C1248 C1274 1.485 . S
C1249 C1244 1.398 . S
C1249 C1248 1.405 1_655 S
C1249 C1280 1.521 1_655 S
C1250 C1244 1.492 . S
C1250 C1251 1.363 . S
C1250 C1255 1.390 1_655 S
C1251 H1216 0.930 . S
C1251 C1250 1.363 . S
C1251 C1252 1.372 . S
C1252 H1217 0.930 . S
C1252 C1251 1.372 . S
C1252 C1253 1.383 . S
C1253 C1252 1.383 . S
C1253 C1254 1.395 1_655 S
C1254 H1218 0.930 . S
C1254 C1253 1.395 1_455 S
C1254 C1255 1.362 . S
C1255 H1219 0.930 . S
C1255 C1250 1.390 1_455 S
C1255 C1254 1.362 . S
C1256 C1245 1.492 . S
C1256 C1257 1.377 . S
C1256 C1261 1.397 1_655 S
C1257 H1220 0.931 . S
C1257 C1256 1.377 . S
C1257 C1258 1.376 . S
C1258 H1221 0.930 . S
C1258 C1257 1.376 . S
C1258 C1259 1.376 . S
C1259 C1258 1.376 . S
C1259 C1260 1.378 1_655 S
C1259 C1286 1.486 . S
C1260 H1222 0.930 . S
C1260 C1259 1.378 1_455 S
C1260 C1261 1.376 . S
C1261 H1223 0.929 . S
C1261 C1256 1.397 1_455 S
C1261 C1260 1.376 . S
C1262 C1246 1.509 . S
C1262 C1263 1.391 . S
C1262 C1267 1.386 1_655 S
C1263 H1224 0.930 . S
C1263 C1262 1.391 . S
C1263 C1264 1.375 . S
C1264 H1225 0.931 . S
C1264 C1263 1.375 . S
C1264 C1265 1.375 . S
C1265 C1264 1.375 . S
C1265 C1266 1.361 1_655 S
C1266 H1226 0.930 . S
C1266 C1265 1.361 1_455 S
C1266 C1267 1.399 . S
C1267 H1227 0.929 . S
C1267 C1262 1.386 1_455 S
C1267 C1266 1.399 . S
C1268 C1247 1.526 1_455 S
C1268 C1269 1.348 1_455 S
C1268 C1273 1.380 . S
C1269 H1228 0.931 . S
C1269 C1268 1.348 1_655 S
C1269 C1270 1.372 . S
C1270 H1229 0.930 . S
C1270 C1269 1.372 . S
C1270 C1271 1.397 1_655 S
C1271 C1270 1.397 1_455 S
C1271 C1272 1.390 . S
C1271 C1287 1.476 . S
C1272 H1230 0.930 . S
C1272 C1271 1.390 . S
C1272 C1273 1.366 . S
C1273 H1231 0.932 . S
C1273 C1268 1.380 . S
C1273 C1272 1.366 . S
C1274 C1248 1.485 . S
C1274 C1275 1.380 1_455 S
C1274 C1279 1.386 . S
C1275 H1232 0.930 . S
C1275 C1274 1.380 1_655 S
C1275 C1276 1.381 . S
C1276 H1233 0.929 . S
C1276 C1275 1.381 . S
C1276 C1277 1.371 1_655 S
C1277 C1276 1.371 1_455 S
C1277 C1278 1.380 . S
C1278 H1234 0.931 . S
C1278 C1277 1.380 . S
C1278 C1279 1.387 . S
C1279 H1235 0.930 . S
C1279 C1274 1.386 . S
C1279 C1278 1.387 . S
C1280 C1249 1.521 1_455 S
C1280 C1281 1.377 1_455 S
C1280 C1285 1.361 . S
C1281 H1236 0.929 . S
C1281 C1280 1.377 1_655 S
C1281 C1282 1.386 . S
C1282 H1237 0.931 . S
C1282 C1281 1.386 . S
C1282 C1283 1.363 1_655 S
C1283 C1282 1.363 1_455 S
C1283 C1284 1.385 . S
C1284 H1238 0.930 . S
C1284 C1283 1.385 . S
C1284 C1285 1.396 . S
C1285 H1239 0.929 . S
C1285 C1280 1.361 . S
C1285 C1284 1.396 . S
C1286 O1240 1.300 . S
C1286 O1241 1.209 1_655 S
C1286 C1259 1.486 . S
C1287 O1242 1.199 1_455 S
C1287 O1243 1.297 . S
C1287 C1271 1.476 . S
H1288 O1314 0.856 . S
H1289 O1317 0.854 . S
H1290 C1325 0.930 . S
H1291 C1326 0.930 . S
H1292 C1328 0.930 . S
H1293 C1329 0.930 . S
H1294 C1331 0.931 . S
H1295 C1332 0.930 . S
H1296 C1334 0.930 . S
H1297 C1335 0.929 . S
H1298 C1337 0.930 . S
H1299 C1338 0.931 . S
H1300 C1340 0.930 . S
H1301 C1341 0.929 . S
H1302 C1343 0.931 . S
H1303 C1344 0.930 . S
H1304 C1346 0.930 . S
H1305 C1347 0.932 . S
H1306 C1349 0.930 . S
H1307 C1350 0.929 . S
H1308 C1352 0.931 . S
H1309 C1353 0.930 . S
H1310 C1355 0.929 . S
H1311 C1356 0.931 . S
H1312 C1358 0.930 . S
H1313 C1359 0.929 . S
O1314 H1288 0.856 . S
O1314 C1360 1.300 . S
O1315 C1360 1.209 . S
O1316 C1361 1.199 . S
O1317 H1289 0.854 . S
O1317 C1361 1.297 . S
C1318 C1319 1.404 . S
C1318 C1323 1.397 . S
C1318 C1324 1.492 . S
C1319 C1318 1.404 . S
C1319 C1320 1.396 . S
C1319 C1330 1.492 . S
C1320 C1319 1.396 . S
C1320 C1321 1.397 . S
C1320 C1336 1.509 . S
C1321 C1320 1.397 . S
C1321 C1322 1.412 . S
C1321 C1342 1.485 . S
C1322 C1321 1.412 . S
C1322 C1323 1.388 . S
C1322 C1348 1.490 . S
C1323 C1318 1.397 . S
C1323 C1322 1.388 . S
C1323 C1354 1.519 . S
C1324 C1318 1.492 . S
C1324 C1325 1.363 . S
C1324 C1329 1.390 . S
C1325 H1290 0.930 . S
C1325 C1324 1.363 . S
C1325 C1326 1.372 . S
C1326 H1291 0.930 . S
C1326 C1325 1.372 . S
C1326 C1327 1.383 . S
C1327 C1326 1.383 . S
C1327 C1328 1.395 . S
C1328 H1292 0.930 . S
C1328 C1327 1.395 . S
C1328 C1329 1.362 . S
C1329 H1293 0.930 . S
C1329 C1324 1.390 . S
C1329 C1328 1.362 . S
C1330 C1319 1.492 . S
C1330 C1331 1.377 . S
C1330 C1335 1.397 . S
C1331 H1294 0.931 . S
C1331 C1330 1.377 . S
C1331 C1332 1.376 . S
C1332 H1295 0.930 . S
C1332 C1331 1.376 . S
C1332 C1333 1.376 . S
C1333 C1332 1.376 . S
C1333 C1334 1.378 . S
C1333 C1360 1.486 . S
C1334 H1296 0.930 . S
C1334 C1333 1.378 . S
C1334 C1335 1.376 . S
C1335 H1297 0.929 . S
C1335 C1330 1.397 . S
C1335 C1334 1.376 . S
C1336 C1320 1.509 . S
C1336 C1337 1.391 . S
C1336 C1341 1.386 . S
C1337 H1298 0.930 . S
C1337 C1336 1.391 . S
C1337 C1338 1.375 . S
C1338 H1299 0.931 . S
C1338 C1337 1.375 . S
C1338 C1339 1.375 . S
C1339 C1338 1.375 . S
C1339 C1340 1.361 . S
C1340 H1300 0.930 . S
C1340 C1339 1.361 . S
C1340 C1341 1.399 . S
C1341 H1301 0.929 . S
C1341 C1336 1.386 . S
C1341 C1340 1.399 . S
C1342 C1321 1.485 . S
C1342 C1343 1.394 . S
C1342 C1347 1.360 . S
C1343 H1302 0.931 . S
C1343 C1342 1.394 . S
C1343 C1344 1.372 . S
C1344 H1303 0.930 . S
C1344 C1343 1.372 . S
C1344 C1345 1.397 . S
C1345 C1344 1.397 . S
C1345 C1346 1.390 . S
C1345 C1361 1.476 . S
C1346 H1304 0.930 . S
C1346 C1345 1.390 . S
C1346 C1347 1.366 . S
C1347 H1305 0.932 . S
C1347 C1342 1.360 . S
C1347 C1346 1.366 . S
C1348 C1322 1.490 . S
C1348 C1349 1.380 . S
C1348 C1353 1.386 . S
C1349 H1306 0.930 . S
C1349 C1348 1.380 . S
C1349 C1350 1.381 . S
C1350 H1307 0.929 . S
C1350 C1349 1.381 . S
C1350 C1351 1.371 . S
C1351 C1350 1.371 . S
C1351 C1352 1.380 . S
C1352 H1308 0.931 . S
C1352 C1351 1.380 . S
C1352 C1353 1.387 . S
C1353 H1309 0.930 . S
C1353 C1348 1.386 . S
C1353 C1352 1.387 . S
C1354 C1323 1.519 . S
C1354 C1355 1.377 . S
C1354 C1359 1.361 . S
C1355 H1310 0.929 . S
C1355 C1354 1.377 . S
C1355 C1356 1.386 . S
C1356 H1311 0.931 . S
C1356 C1355 1.386 . S
C1356 C1357 1.363 . S
C1357 C1356 1.363 . S
C1357 C1358 1.385 . S
C1358 H1312 0.930 . S
C1358 C1357 1.385 . S
C1358 C1359 1.396 . S
C1359 H1313 0.929 . S
C1359 C1354 1.361 . S
C1359 C1358 1.396 . S
C1360 O1314 1.300 . S
C1360 O1315 1.209 . S
C1360 C1333 1.486 . S
C1361 O1316 1.199 . S
C1361 O1317 1.297 . S
C1361 C1345 1.476 . S
H1362 O1388 0.856 . S
H1363 O1391 0.854 . S
H1364 C1399 0.930 . S
H1365 C1400 0.930 . S
H1366 C1402 0.930 . S
H1367 C1403 0.930 . S
H1368 C1405 0.931 . S
H1369 C1406 0.930 . S
H1370 C1408 0.930 . S
H1371 C1409 0.929 . S
H1372 C1411 0.930 . S
H1373 C1412 0.931 . S
H1374 C1414 0.930 . S
H1375 C1415 0.929 . S
H1376 C1417 0.931 . S
H1377 C1418 0.930 . S
H1378 C1420 0.930 . S
H1379 C1421 0.932 . S
H1380 C1423 0.930 . S
H1381 C1424 0.929 . S
H1382 C1426 0.931 . S
H1383 C1427 0.930 . S
H1384 C1429 0.929 . S
H1385 C1430 0.931 . S
H1386 C1432 0.930 . S
H1387 C1433 0.929 . S
O1388 H1362 0.856 . S
O1388 C1434 1.300 . S
O1389 C1434 1.209 . S
O1390 C1435 1.199 . S
O1391 H1363 0.854 . S
O1391 C1435 1.297 . S
C1392 C1393 1.404 . S
C1392 C1397 1.397 . S
C1392 C1398 1.492 . S
C1393 C1392 1.404 . S
C1393 C1394 1.396 . S
C1393 C1404 1.492 . S
C1394 C1393 1.396 . S
C1394 C1395 1.397 . S
C1394 C1410 1.509 . S
C1395 C1394 1.397 . S
C1395 C1396 1.412 . S
C1395 C1416 1.485 . S
C1396 C1395 1.412 . S
C1396 C1397 1.388 . S
C1396 C1422 1.490 . S
C1397 C1392 1.397 . S
C1397 C1396 1.388 . S
C1397 C1428 1.519 . S
C1398 C1392 1.492 . S
C1398 C1399 1.363 . S
C1398 C1403 1.390 . S
C1399 H1364 0.930 . S
C1399 C1398 1.363 . S
C1399 C1400 1.372 . S
C1400 H1365 0.930 . S
C1400 C1399 1.372 . S
C1400 C1401 1.383 . S
C1401 C1400 1.383 . S
C1401 C1402 1.395 . S
C1402 H1366 0.930 . S
C1402 C1401 1.395 . S
C1402 C1403 1.362 . S
C1403 H1367 0.930 . S
C1403 C1398 1.390 . S
C1403 C1402 1.362 . S
C1404 C1393 1.492 . S
C1404 C1405 1.377 . S
C1404 C1409 1.397 . S
C1405 H1368 0.931 . S
C1405 C1404 1.377 . S
C1405 C1406 1.376 . S
C1406 H1369 0.930 . S
C1406 C1405 1.376 . S
C1406 C1407 1.376 . S
C1407 C1406 1.376 . S
C1407 C1408 1.378 . S
C1407 C1434 1.486 . S
C1408 H1370 0.930 . S
C1408 C1407 1.378 . S
C1408 C1409 1.376 . S
C1409 H1371 0.929 . S
C1409 C1404 1.397 . S
C1409 C1408 1.376 . S
C1410 C1394 1.509 . S
C1410 C1411 1.391 . S
C1410 C1415 1.386 . S
C1411 H1372 0.930 . S
C1411 C1410 1.391 . S
C1411 C1412 1.375 . S
C1412 H1373 0.931 . S
C1412 C1411 1.375 . S
C1412 C1413 1.375 . S
C1413 C1412 1.375 . S
C1413 C1414 1.361 . S
C1414 H1374 0.930 . S
C1414 C1413 1.361 . S
C1414 C1415 1.399 . S
C1415 H1375 0.929 . S
C1415 C1410 1.386 . S
C1415 C1414 1.399 . S
C1416 C1395 1.485 . S
C1416 C1417 1.394 . S
C1416 C1421 1.360 . S
C1417 H1376 0.931 . S
C1417 C1416 1.394 . S
C1417 C1418 1.372 . S
C1418 H1377 0.930 . S
C1418 C1417 1.372 . S
C1418 C1419 1.397 . S
C1419 C1418 1.397 . S
C1419 C1420 1.390 . S
C1419 C1435 1.476 . S
C1420 H1378 0.930 . S
C1420 C1419 1.390 . S
C1420 C1421 1.366 . S
C1421 H1379 0.932 . S
C1421 C1416 1.360 . S
C1421 C1420 1.366 . S
C1422 C1396 1.490 . S
C1422 C1423 1.380 . S
C1422 C1427 1.386 . S
C1423 H1380 0.930 . S
C1423 C1422 1.380 . S
C1423 C1424 1.381 . S
C1424 H1381 0.929 . S
C1424 C1423 1.381 . S
C1424 C1425 1.371 . S
C1425 C1424 1.371 . S
C1425 C1426 1.380 . S
C1426 H1382 0.931 . S
C1426 C1425 1.380 . S
C1426 C1427 1.387 . S
C1427 H1383 0.930 . S
C1427 C1422 1.386 . S
C1427 C1426 1.387 . S
C1428 C1397 1.519 . S
C1428 C1429 1.377 . S
C1428 C1433 1.361 . S
C1429 H1384 0.929 . S
C1429 C1428 1.377 . S
C1429 C1430 1.386 . S
C1430 H1385 0.931 . S
C1430 C1429 1.386 . S
C1430 C1431 1.363 . S
C1431 C1430 1.363 . S
C1431 C1432 1.385 . S
C1432 H1386 0.930 . S
C1432 C1431 1.385 . S
C1432 C1433 1.396 . S
C1433 H1387 0.929 . S
C1433 C1428 1.361 . S
C1433 C1432 1.396 . S
C1434 O1388 1.300 . S
C1434 O1389 1.209 . S
C1434 C1407 1.486 . S
C1435 O1390 1.199 . S
C1435 O1391 1.297 . S
C1435 C1419 1.476 . S
H1436 O1462 0.856 . S
H1437 O1465 0.854 . S
H1438 C1473 0.930 . S
H1439 C1474 0.930 . S
H1440 C1476 0.930 . S
H1441 C1477 0.930 . S
H1442 C1479 0.931 . S
H1443 C1480 0.930 . S
H1444 C1482 0.930 . S
H1445 C1483 0.929 . S
H1446 C1485 0.930 . S
H1447 C1486 0.931 . S
H1448 C1488 0.930 . S
H1449 C1489 0.929 . S
H1450 C1491 0.931 . S
H1451 C1492 0.930 . S
H1452 C1494 0.930 . S
H1453 C1495 0.932 . S
H1454 C1497 0.930 . S
H1455 C1498 0.929 . S
H1456 C1500 0.931 . S
H1457 C1501 0.930 . S
H1458 C1503 0.929 . S
H1459 C1504 0.931 . S
H1460 C1506 0.930 . S
H1461 C1507 0.929 . S
O1462 H1436 0.856 . S
O1462 C1508 1.300 . S
O1463 C1508 1.209 . S
O1464 C1509 1.199 . S
O1465 H1437 0.854 . S
O1465 C1509 1.297 . S
C1466 C1467 1.404 . S
C1466 C1471 1.397 . S
C1466 C1472 1.492 . S
C1467 C1466 1.404 . S
C1467 C1468 1.396 . S
C1467 C1478 1.492 . S
C1468 C1467 1.396 . S
C1468 C1469 1.397 . S
C1468 C1484 1.509 . S
C1469 C1468 1.397 . S
C1469 C1470 1.412 . S
C1469 C1490 1.485 . S
C1470 C1469 1.412 . S
C1470 C1471 1.388 . S
C1470 C1496 1.490 . S
C1471 C1466 1.397 . S
C1471 C1470 1.388 . S
C1471 C1502 1.519 . S
C1472 C1466 1.492 . S
C1472 C1473 1.363 . S
C1472 C1477 1.390 . S
C1473 H1438 0.930 . S
C1473 C1472 1.363 . S
C1473 C1474 1.372 . S
C1474 H1439 0.930 . S
C1474 C1473 1.372 . S
C1474 C1475 1.383 . S
C1475 C1474 1.383 . S
C1475 C1476 1.395 . S
C1476 H1440 0.930 . S
C1476 C1475 1.395 . S
C1476 C1477 1.362 . S
C1477 H1441 0.930 . S
C1477 C1472 1.390 . S
C1477 C1476 1.362 . S
C1478 C1467 1.492 . S
C1478 C1479 1.377 . S
C1478 C1483 1.397 . S
C1479 H1442 0.931 . S
C1479 C1478 1.377 . S
C1479 C1480 1.376 . S
C1480 H1443 0.930 . S
C1480 C1479 1.376 . S
C1480 C1481 1.376 . S
C1481 C1480 1.376 . S
C1481 C1482 1.378 . S
C1481 C1508 1.486 . S
C1482 H1444 0.930 . S
C1482 C1481 1.378 . S
C1482 C1483 1.376 . S
C1483 H1445 0.929 . S
C1483 C1478 1.397 . S
C1483 C1482 1.376 . S
C1484 C1468 1.509 . S
C1484 C1485 1.391 . S
C1484 C1489 1.386 . S
C1485 H1446 0.930 . S
C1485 C1484 1.391 . S
C1485 C1486 1.375 . S
C1486 H1447 0.931 . S
C1486 C1485 1.375 . S
C1486 C1487 1.375 . S
C1487 C1486 1.375 . S
C1487 C1488 1.361 . S
C1488 H1448 0.930 . S
C1488 C1487 1.361 . S
C1488 C1489 1.399 . S
C1489 H1449 0.929 . S
C1489 C1484 1.386 . S
C1489 C1488 1.399 . S
C1490 C1469 1.485 . S
C1490 C1491 1.394 . S
C1490 C1495 1.360 . S
C1491 H1450 0.931 . S
C1491 C1490 1.394 . S
C1491 C1492 1.372 . S
C1492 H1451 0.930 . S
C1492 C1491 1.372 . S
C1492 C1493 1.397 . S
C1493 C1492 1.397 . S
C1493 C1494 1.390 . S
C1493 C1509 1.476 . S
C1494 H1452 0.930 . S
C1494 C1493 1.390 . S
C1494 C1495 1.366 . S
C1495 H1453 0.932 . S
C1495 C1490 1.360 . S
C1495 C1494 1.366 . S
C1496 C1470 1.490 . S
C1496 C1497 1.380 . S
C1496 C1501 1.386 . S
C1497 H1454 0.930 . S
C1497 C1496 1.380 . S
C1497 C1498 1.381 . S
C1498 H1455 0.929 . S
C1498 C1497 1.381 . S
C1498 C1499 1.371 . S
C1499 C1498 1.371 . S
C1499 C1500 1.380 . S
C1500 H1456 0.931 . S
C1500 C1499 1.380 . S
C1500 C1501 1.387 . S
C1501 H1457 0.930 . S
C1501 C1496 1.386 . S
C1501 C1500 1.387 . S
C1502 C1471 1.519 . S
C1502 C1503 1.377 . S
C1502 C1507 1.361 . S
C1503 H1458 0.929 . S
C1503 C1502 1.377 . S
C1503 C1504 1.386 . S
C1504 H1459 0.931 . S
C1504 C1503 1.386 . S
C1504 C1505 1.363 . S
C1505 C1504 1.363 . S
C1505 C1506 1.385 . S
C1506 H1460 0.930 . S
C1506 C1505 1.385 . S
C1506 C1507 1.396 . S
C1507 H1461 0.929 . S
C1507 C1502 1.361 . S
C1507 C1506 1.396 . S
C1508 O1462 1.300 . S
C1508 O1463 1.209 . S
C1508 C1481 1.486 . S
C1509 O1464 1.199 . S
C1509 O1465 1.297 . S
C1509 C1493 1.476 . S
H1510 O1536 0.856 . S
H1511 O1539 0.854 . S
H1512 C1547 0.930 . S
H1513 C1548 0.930 . S
H1514 C1550 0.930 . S
H1515 C1551 0.930 . S
H1516 C1553 0.931 . S
H1517 C1554 0.930 . S
H1518 C1556 0.930 . S
H1519 C1557 0.929 . S
H1520 C1559 0.930 . S
H1521 C1560 0.931 . S
H1522 C1562 0.930 . S
H1523 C1563 0.929 . S
H1524 C1565 0.931 . S
H1525 C1566 0.930 . S
H1526 C1568 0.930 . S
H1527 C1569 0.932 . S
H1528 C1571 0.930 . S
H1529 C1572 0.929 . S
H1530 C1574 0.931 . S
H1531 C1575 0.930 . S
H1532 C1577 0.929 . S
H1533 C1578 0.931 . S
H1534 C1580 0.930 . S
H1535 C1581 0.929 . S
O1536 H1510 0.856 . S
O1536 C1582 1.300 . S
O1537 C1582 1.209 . S
O1538 C1583 1.199 . S
O1539 H1511 0.854 . S
O1539 C1583 1.297 . S
C1540 C1541 1.404 . S
C1540 C1545 1.397 . S
C1540 C1546 1.492 . S
C1541 C1540 1.404 . S
C1541 C1542 1.396 . S
C1541 C1552 1.492 . S
C1542 C1541 1.396 . S
C1542 C1543 1.397 . S
C1542 C1558 1.509 . S
C1543 C1542 1.397 . S
C1543 C1544 1.412 . S
C1543 C1564 1.485 . S
C1544 C1543 1.412 . S
C1544 C1545 1.388 . S
C1544 C1570 1.490 . S
C1545 C1540 1.397 . S
C1545 C1544 1.388 . S
C1545 C1576 1.519 . S
C1546 C1540 1.492 . S
C1546 C1547 1.363 . S
C1546 C1551 1.390 . S
C1547 H1512 0.930 . S
C1547 C1546 1.363 . S
C1547 C1548 1.372 . S
C1548 H1513 0.930 . S
C1548 C1547 1.372 . S
C1548 C1549 1.383 . S
C1549 C1548 1.383 . S
C1549 C1550 1.395 . S
C1550 H1514 0.930 . S
C1550 C1549 1.395 . S
C1550 C1551 1.362 . S
C1551 H1515 0.930 . S
C1551 C1546 1.390 . S
C1551 C1550 1.362 . S
C1552 C1541 1.492 . S
C1552 C1553 1.377 . S
C1552 C1557 1.397 . S
C1553 H1516 0.931 . S
C1553 C1552 1.377 . S
C1553 C1554 1.376 . S
C1554 H1517 0.930 . S
C1554 C1553 1.376 . S
C1554 C1555 1.376 . S
C1555 C1554 1.376 . S
C1555 C1556 1.378 . S
C1555 C1582 1.486 . S
C1556 H1518 0.930 . S
C1556 C1555 1.378 . S
C1556 C1557 1.376 . S
C1557 H1519 0.929 . S
C1557 C1552 1.397 . S
C1557 C1556 1.376 . S
C1558 C1542 1.509 . S
C1558 C1559 1.391 . S
C1558 C1563 1.386 . S
C1559 H1520 0.930 . S
C1559 C1558 1.391 . S
C1559 C1560 1.375 . S
C1560 H1521 0.931 . S
C1560 C1559 1.375 . S
C1560 C1561 1.375 . S
C1561 C1560 1.375 . S
C1561 C1562 1.361 . S
C1562 H1522 0.930 . S
C1562 C1561 1.361 . S
C1562 C1563 1.399 . S
C1563 H1523 0.929 . S
C1563 C1558 1.386 . S
C1563 C1562 1.399 . S
C1564 C1543 1.485 . S
C1564 C1565 1.394 . S
C1564 C1569 1.360 . S
C1565 H1524 0.931 . S
C1565 C1564 1.394 . S
C1565 C1566 1.372 . S
C1566 H1525 0.930 . S
C1566 C1565 1.372 . S
C1566 C1567 1.397 . S
C1567 C1566 1.397 . S
C1567 C1568 1.390 . S
C1567 C1583 1.476 . S
C1568 H1526 0.930 . S
C1568 C1567 1.390 . S
C1568 C1569 1.366 . S
C1569 H1527 0.932 . S
C1569 C1564 1.360 . S
C1569 C1568 1.366 . S
C1570 C1544 1.490 . S
C1570 C1571 1.380 . S
C1570 C1575 1.386 . S
C1571 H1528 0.930 . S
C1571 C1570 1.380 . S
C1571 C1572 1.381 . S
C1572 H1529 0.929 . S
C1572 C1571 1.381 . S
C1572 C1573 1.371 . S
C1573 C1572 1.371 . S
C1573 C1574 1.380 . S
C1574 H1530 0.931 . S
C1574 C1573 1.380 . S
C1574 C1575 1.387 . S
C1575 H1531 0.930 . S
C1575 C1570 1.386 . S
C1575 C1574 1.387 . S
C1576 C1545 1.519 . S
C1576 C1577 1.377 . S
C1576 C1581 1.361 . S
C1577 H1532 0.929 . S
C1577 C1576 1.377 . S
C1577 C1578 1.386 . S
C1578 H1533 0.931 . S
C1578 C1577 1.386 . S
C1578 C1579 1.363 . S
C1579 C1578 1.363 . S
C1579 C1580 1.385 . S
C1580 H1534 0.930 . S
C1580 C1579 1.385 . S
C1580 C1581 1.396 . S
C1581 H1535 0.929 . S
C1581 C1576 1.361 . S
C1581 C1580 1.396 . S
C1582 O1536 1.300 . S
C1582 O1537 1.209 . S
C1582 C1555 1.486 . S
C1583 O1538 1.199 . S
C1583 O1539 1.297 . S
C1583 C1567 1.476 . S
C1584 C1585 1.387 . S
C1584 H1588 0.950 . S
C1584 C1593 1.390 . S
C1585 C1584 1.387 . S
C1585 C1587 1.387 . S
H1586 C1593 0.950 . S
C1587 C1585 1.387 . S
C1587 C1589 1.390 . S
C1587 H1591 0.950 1_655 S
H1588 C1584 0.950 . S
C1589 C1587 1.390 . S
C1589 C1590 1.387 . S
C1589 H1592 0.950 . S
C1590 C1589 1.387 . S
C1590 C1593 1.387 . S
H1591 C1587 0.950 1_455 S
H1592 C1589 0.950 . S
C1593 C1584 1.390 . S
C1593 H1586 0.950 . S
C1593 C1590 1.387 . S
C1594 C1595 1.387 . S
C1594 H1598 0.950 . S
C1594 C1603 1.390 . S
C1595 C1594 1.387 . S
C1595 C1597 1.387 . S
H1596 C1603 0.950 . S
C1597 C1595 1.387 . S
C1597 C1599 1.390 . S
C1597 H1601 0.950 . S
H1598 C1594 0.950 . S
C1599 C1597 1.390 . S
C1599 C1600 1.387 . S
C1599 H1602 0.950 . S
C1600 C1599 1.387 . S
C1600 C1603 1.387 . S
H1601 C1597 0.950 . S
H1602 C1599 0.950 . S
C1603 C1594 1.390 . S
C1603 H1596 0.950 . S
C1603 C1600 1.387 . S
C1604 C1605 1.387 1_565 S
C1604 H1608 0.950 . S
C1604 C1613 1.390 . S
C1605 C1604 1.387 1_545 S
C1605 C1607 1.387 . S
H1606 C1613 0.950 . S
C1607 C1605 1.387 . S
C1607 C1609 1.390 . S
C1607 H1611 0.950 . S
H1608 C1604 0.950 . S
C1609 C1607 1.390 . S
C1609 C1610 1.387 . S
C1609 H1612 0.950 . S
C1610 C1609 1.387 . S
C1610 C1613 1.387 1_545 S
H1611 C1607 0.950 . S
H1612 C1609 0.950 . S
C1613 C1604 1.390 . S
C1613 H1606 0.950 . S
C1613 C1610 1.387 1_565 S
C1614 C1615 1.387 1_545 S
C1614 H1618 0.950 . S
C1614 C1623 1.390 . S
C1615 C1614 1.387 1_565 S
C1615 C1617 1.387 . S
H1616 C1623 0.950 . S
C1617 C1615 1.387 . S
C1617 C1619 1.390 . S
C1617 H1621 0.950 . S
H1618 C1614 0.950 . S
C1619 C1617 1.390 . S
C1619 C1620 1.387 . S
C1619 H1622 0.950 . S
C1620 C1619 1.387 . S
C1620 C1623 1.387 1_565 S
H1621 C1617 0.950 . S
H1622 C1619 0.950 . S
C1623 C1614 1.390 . S
C1623 H1616 0.950 . S
C1623 C1620 1.387 1_545 S
C1624 C1625 1.387 . S
C1624 H1628 0.950 . S
C1624 C1633 1.390 . S
C1625 C1624 1.387 . S
C1625 C1627 1.387 . S
H1626 C1633 0.950 . S
C1627 C1625 1.387 . S
C1627 C1629 1.390 . S
C1627 H1631 0.950 . S
H1628 C1624 0.950 . S
C1629 C1627 1.390 . S
C1629 C1630 1.387 . S
C1629 H1632 0.950 . S
C1630 C1629 1.387 . S
C1630 C1633 1.387 . S
H1631 C1627 0.950 . S
H1632 C1629 0.950 . S
C1633 C1624 1.390 . S
C1633 H1626 0.950 . S
C1633 C1630 1.387 . S
C1634 C1635 1.389 . S
C1634 H1638 0.969 . S
C1634 C1643 1.370 1_554 S
C1635 C1634 1.389 . S
C1635 C1637 1.387 1_554 S
H1636 C1643 0.950 . S
C1637 C1635 1.387 1_556 S
C1637 C1639 1.390 . S
C1637 H1641 0.950 . S
H1638 C1634 0.969 . S
C1639 C1637 1.390 . S
C1639 C1640 1.387 . S
C1639 H1642 0.950 . S
C1640 C1639 1.387 . S
C1640 C1643 1.387 . S
H1641 C1637 0.950 . S
H1642 C1639 0.950 . S
C1643 C1634 1.370 1_556 S
C1643 H1636 0.950 . S
C1643 C1640 1.387 . S
C1644 C1645 1.387 . S
C1644 H1648 0.950 . S
C1644 C1653 1.390 . S
C1645 C1644 1.387 . S
C1645 C1647 1.387 1_455 S
H1646 C1653 0.950 . S
C1647 C1645 1.387 1_655 S
C1647 C1649 1.390 . S
C1647 H1651 0.950 1_556 S
H1648 C1644 0.950 . S
C1649 C1647 1.390 . S
C1649 C1650 1.387 1_655 S
C1649 H1652 0.950 . S
C1650 C1649 1.387 1_455 S
C1650 C1653 1.387 . S
H1651 C1647 0.950 1_554 S
H1652 C1649 0.950 . S
C1653 C1644 1.390 . S
C1653 H1646 0.950 . S
C1653 C1650 1.387 . S
C1654 C1655 1.387 . S
C1654 H1658 0.950 . S
C1654 C1663 1.390 . S
C1655 C1654 1.387 . S
C1655 C1657 1.387 . S
H1656 C1663 0.950 . S
C1657 C1655 1.387 . S
C1657 C1659 1.390 . S
C1657 H1661 0.950 . S
H1658 C1654 0.950 . S
C1659 C1657 1.390 . S
C1659 C1660 1.387 . S
C1659 H1662 0.950 . S
C1660 C1659 1.387 . S
C1660 C1663 1.387 . S
H1661 C1657 0.950 . S
H1662 C1659 0.950 . S
C1663 C1654 1.390 . S
C1663 H1656 0.950 . S
C1663 C1660 1.387 . S
C1664 C1665 1.387 . S
C1664 H1668 0.950 . S
C1664 C1673 1.390 . S
C1665 C1664 1.387 . S
C1665 C1667 1.387 1_565 S
H1666 C1673 0.950 . S
C1667 C1665 1.387 1_545 S
C1667 C1669 1.390 . S
C1667 H1671 0.950 . S
H1668 C1664 0.950 . S
C1669 C1667 1.390 . S
C1669 C1670 1.373 1_545 S
C1669 H1672 0.950 . S
C1670 C1669 1.373 1_565 S
C1670 C1673 1.422 . S
H1671 C1667 0.950 . S
H1672 C1669 0.950 . S
C1673 C1664 1.390 . S
C1673 H1666 0.950 . S
C1673 C1670 1.422 . S
C1674 C1675 1.387 1_565 S
C1674 H1678 0.950 . S
C1674 C1683 1.390 . S
C1675 C1674 1.387 1_545 S
C1675 C1677 1.387 . S
H1676 C1683 0.950 . S
C1677 C1675 1.387 . S
C1677 C1679 1.390 . S
C1677 H1681 0.950 . S
H1678 C1674 0.950 . S
C1679 C1677 1.390 . S
C1679 C1680 1.387 . S
C1679 H1682 0.950 . S
C1680 C1679 1.387 . S
C1680 C1683 1.387 1_545 S
H1681 C1677 0.950 . S
H1682 C1679 0.950 . S
C1683 C1674 1.390 . S
C1683 H1676 0.950 . S
C1683 C1680 1.387 1_565 S
C1684 C1685 1.387 . S
C1684 H1688 0.950 . S
C1684 C1693 1.390 . S
C1685 C1684 1.387 . S
C1685 C1687 1.387 . S
H1686 C1693 0.950 . S
C1687 C1685 1.387 . S
C1687 C1689 1.390 . S
C1687 H1691 0.950 . S
H1688 C1684 0.950 . S
C1689 C1687 1.390 . S
C1689 C1690 1.387 . S
C1689 H1692 0.929 1_655 S
C1690 C1689 1.387 . S
C1690 C1693 1.387 . S
H1691 C1687 0.950 . S
H1692 C1689 0.929 1_455 S
C1693 C1684 1.390 . S
C1693 H1686 0.950 . S
C1693 C1690 1.387 . S
C1694 C1695 1.387 . S
C1694 H1698 0.950 . S
C1694 C1703 1.390 . S
C1695 C1694 1.387 . S
C1695 C1697 1.387 . S
H1696 C1703 0.950 . S
C1697 C1695 1.387 . S
C1697 C1699 1.390 . S
C1697 H1701 0.950 . S
H1698 C1694 0.950 . S
C1699 C1697 1.390 . S
C1699 C1700 1.387 . S
C1699 H1702 0.950 . S
C1700 C1699 1.387 . S
C1700 C1703 1.387 . S
H1701 C1697 0.950 . S
H1702 C1699 0.950 . S
C1703 C1694 1.390 . S
C1703 H1696 0.950 . S
C1703 C1700 1.387 . S
C1704 C1705 1.387 . S
C1704 H1708 0.950 . S
C1704 C1713 1.390 . S
C1705 C1704 1.387 . S
C1705 C1707 1.387 . S
H1706 C1713 0.950 . S
C1707 C1705 1.387 . S
C1707 C1709 1.390 . S
C1707 H1711 0.950 . S
H1708 C1704 0.950 . S
C1709 C1707 1.390 . S
C1709 C1710 1.387 . S
C1709 H1712 0.950 . S
C1710 C1709 1.387 . S
C1710 C1713 1.387 . S
H1711 C1707 0.950 . S
H1712 C1709 0.950 . S
C1713 C1704 1.390 . S
C1713 H1706 0.950 . S
C1713 C1710 1.387 . S
C1714 C1715 1.387 . S
C1714 H1718 0.950 . S
C1714 C1723 1.390 . S
C1715 C1714 1.387 . S
C1715 C1717 1.387 . S
H1716 C1723 0.950 . S
C1717 C1715 1.387 . S
C1717 C1719 1.390 . S
C1717 H1721 0.950 . S
H1718 C1714 0.950 . S
C1719 C1717 1.390 . S
C1719 C1720 1.387 . S
C1719 H1722 0.950 . S
C1720 C1719 1.387 . S
C1720 C1723 1.387 . S
H1721 C1717 0.950 . S
H1722 C1719 0.950 . S
C1723 C1714 1.390 . S
C1723 H1716 0.950 . S
C1723 C1720 1.387 . S
C1724 C1725 1.387 . S
C1724 H1728 0.950 . S
C1724 C1733 1.390 . S
C1725 C1724 1.387 . S
C1725 C1727 1.387 . S
H1726 C1733 0.950 . S
C1727 C1725 1.387 . S
C1727 C1729 1.390 . S
C1727 H1731 0.950 . S
H1728 C1724 0.950 . S
C1729 C1727 1.390 . S
C1729 C1730 1.387 . S
C1729 H1732 0.950 . S
C1730 C1729 1.387 . S
C1730 C1733 1.387 . S
H1731 C1727 0.950 . S
H1732 C1729 0.950 . S
C1733 C1724 1.390 . S
C1733 H1726 0.950 . S
C1733 C1730 1.387 . S
C1734 C1735 1.387 . S
C1734 H1738 0.950 . S
C1734 C1743 1.390 . S
C1735 C1734 1.387 . S
C1735 C1737 1.387 . S
H1736 C1743 0.950 . S
C1737 C1735 1.387 . S
C1737 C1739 1.390 . S
C1737 H1741 0.950 . S
H1738 C1734 0.950 . S
C1739 C1737 1.390 . S
C1739 C1740 1.387 . S
C1739 H1742 0.950 . S
C1740 C1739 1.387 . S
C1740 C1743 1.387 . S
H1741 C1737 0.950 . S
H1742 C1739 0.950 . S
C1743 C1734 1.390 . S
C1743 H1736 0.950 . S
C1743 C1740 1.387 . S
C1744 C1745 1.387 . S
C1744 H1748 0.950 . S
C1744 C1753 1.390 . S
C1745 C1744 1.387 . S
C1745 C1747 1.387 . S
H1746 C1753 0.950 . S
C1747 C1745 1.387 . S
C1747 C1749 1.390 . S
C1747 H1751 0.950 . S
H1748 C1744 0.950 . S
C1749 C1747 1.390 . S
C1749 C1750 1.387 . S
C1749 H1752 0.950 . S
C1750 C1749 1.387 . S
C1750 C1753 1.387 . S
H1751 C1747 0.950 . S
H1752 C1749 0.950 . S
C1753 C1744 1.390 . S
C1753 H1746 0.950 . S
C1753 C1750 1.387 . S
C1754 C1755 1.387 . S
C1754 H1758 0.950 . S
C1754 C1763 1.390 . S
C1755 C1754 1.387 . S
C1755 C1757 1.387 . S
H1756 C1763 0.950 . S
C1757 C1755 1.387 . S
C1757 C1759 1.390 . S
C1757 H1761 0.950 . S
H1758 C1754 0.950 . S
C1759 C1757 1.390 . S
C1759 C1760 1.387 . S
C1759 H1762 0.950 . S
C1760 C1759 1.387 . S
C1760 C1763 1.387 . S
H1761 C1757 0.950 . S
H1762 C1759 0.950 . S
C1763 C1754 1.390 . S
C1763 H1756 0.950 . S
C1763 C1760 1.387 . S
C1764 C1765 1.387 . S
C1764 H1768 0.950 . S
C1764 C1773 1.390 . S
C1765 C1764 1.387 . S
C1765 C1767 1.387 . S
H1766 C1773 0.950 . S
C1767 C1765 1.387 . S
C1767 C1769 1.390 . S
C1767 H1771 0.950 . S
H1768 C1764 0.950 . S
C1769 C1767 1.390 . S
C1769 C1770 1.387 . S
C1769 H1772 0.950 . S
C1770 C1769 1.387 . S
C1770 C1773 1.387 . S
H1771 C1767 0.950 . S
H1772 C1769 0.950 . S
C1773 C1764 1.390 . S
C1773 H1766 0.950 . S
C1773 C1770 1.387 . S
C1774 C1775 1.387 . S
C1774 H1778 0.950 . S
C1774 C1783 1.390 . S
C1775 C1774 1.387 . S
C1775 C1777 1.387 . S
H1776 C1783 0.950 . S
C1777 C1775 1.387 . S
C1777 C1779 1.390 . S
C1777 H1781 0.950 . S
H1778 C1774 0.950 . S
C1779 C1777 1.390 . S
C1779 C1780 1.387 . S
C1779 H1782 0.950 . S
C1780 C1779 1.387 . S
C1780 C1783 1.387 . S
H1781 C1777 0.950 . S
H1782 C1779 0.950 . S
C1783 C1774 1.390 . S
C1783 H1776 0.950 . S
C1783 C1780 1.387 . S
C1784 C1785 1.387 . S
C1784 H1788 0.950 . S
C1784 C1793 1.390 . S
C1785 C1784 1.387 . S
C1785 C1787 1.387 . S
H1786 C1793 0.950 . S
C1787 C1785 1.387 . S
C1787 C1789 1.390 . S
C1787 H1791 0.950 . S
H1788 C1784 0.950 . S
C1789 C1787 1.390 . S
C1789 C1790 1.387 . S
C1789 H1792 0.950 . S
C1790 C1789 1.387 . S
C1790 C1793 1.387 . S
H1791 C1787 0.950 . S
H1792 C1789 0.950 . S
C1793 C1784 1.390 . S
C1793 H1786 0.950 . S
C1793 C1790 1.387 . S
C1794 C1795 1.387 . S
C1794 H1798 0.950 . S
C1794 C1803 1.390 . S
C1795 C1794 1.387 . S
C1795 C1797 1.387 . S
H1796 C1803 0.950 . S
C1797 C1795 1.387 . S
C1797 C1799 1.390 . S
C1797 H1801 0.950 . S
H1798 C1794 0.950 . S
C1799 C1797 1.390 . S
C1799 C1800 1.387 . S
C1799 H1802 0.950 . S
C1800 C1799 1.387 . S
C1800 C1803 1.387 . S
H1801 C1797 0.950 . S
H1802 C1799 0.950 . S
C1803 C1794 1.390 . S
C1803 H1796 0.950 . S
C1803 C1800 1.387 . S
C1804 C1805 1.387 . S
C1804 H1808 0.950 . S
C1804 C1813 1.390 . S
C1805 C1804 1.387 . S
C1805 C1807 1.387 . S
H1806 C1813 0.950 . S
C1807 C1805 1.387 . S
C1807 C1809 1.390 . S
C1807 H1811 0.950 . S
H1808 C1804 0.950 . S
C1809 C1807 1.390 . S
C1809 C1810 1.387 . S
C1809 H1812 0.950 . S
C1810 C1809 1.387 . S
C1810 C1813 1.387 . S
H1811 C1807 0.950 . S
H1812 C1809 0.950 . S
C1813 C1804 1.390 . S
C1813 H1806 0.950 . S
C1813 C1810 1.387 . S
C1814 C1815 1.387 . S
C1814 H1818 0.950 . S
C1814 C1823 1.390 . S
C1815 C1814 1.387 . S
C1815 C1817 1.387 . S
H1816 C1823 0.950 . S
C1817 C1815 1.387 . S
C1817 C1819 1.390 . S
C1817 H1821 0.950 . S
H1818 C1814 0.950 . S
C1819 C1817 1.390 . S
C1819 C1820 1.387 . S
C1819 H1822 0.950 . S
C1820 C1819 1.387 . S
C1820 C1823 1.387 . S
H1821 C1817 0.950 . S
H1822 C1819 0.950 . S
C1823 C1814 1.390 . S
C1823 H1816 0.950 . S
C1823 C1820 1.387 . S
C1824 C1825 1.387 . S
C1824 H1828 0.950 . S
C1824 C1833 1.390 . S
C1825 C1824 1.387 . S
C1825 C1827 1.387 . S
H1826 C1833 0.950 . S
C1827 C1825 1.387 . S
C1827 C1829 1.390 . S
C1827 H1831 0.950 . S
H1828 C1824 0.950 . S
C1829 C1827 1.390 . S
C1829 C1830 1.387 . S
C1829 H1832 0.950 . S
C1830 C1829 1.387 . S
C1830 C1833 1.387 . S
H1831 C1827 0.950 . S
H1832 C1829 0.950 . S
C1833 C1824 1.390 . S
C1833 H1826 0.950 . S
C1833 C1830 1.387 . S
C1834 C1835 1.387 . S
C1834 H1838 0.950 . S
C1834 C1843 1.390 . S
C1835 C1834 1.387 . S
C1835 C1837 1.387 . S
H1836 C1843 0.950 . S
C1837 C1835 1.387 . S
C1837 C1839 1.390 . S
C1837 H1841 0.950 . S
H1838 C1834 0.950 . S
C1839 C1837 1.390 . S
C1839 C1840 1.387 . S
C1839 H1842 0.950 . S
C1840 C1839 1.387 . S
C1840 C1843 1.387 . S
H1841 C1837 0.950 . S
H1842 C1839 0.950 . S
C1843 C1834 1.390 . S
C1843 H1836 0.950 . S
C1843 C1840 1.387 . S
C1844 C1845 1.387 . S
C1844 H1848 0.950 . S
C1844 C1853 1.390 . S
C1845 C1844 1.387 . S
C1845 C1847 1.387 . S
H1846 C1853 0.950 . S
C1847 C1845 1.387 . S
C1847 C1849 1.390 . S
C1847 H1851 0.950 . S
H1848 C1844 0.950 . S
C1849 C1847 1.390 . S
C1849 C1850 1.387 . S
C1849 H1852 0.950 . S
C1850 C1849 1.387 . S
C1850 C1853 1.387 . S
H1851 C1847 0.950 . S
H1852 C1849 0.950 . S
C1853 C1844 1.390 . S
C1853 H1846 0.950 . S
C1853 C1850 1.387 . S
C1854 C1855 1.387 . S
C1854 H1858 0.950 . S
C1854 C1863 1.390 . S
C1855 C1854 1.387 . S
C1855 C1857 1.387 . S
H1856 C1863 0.950 . S
C1857 C1855 1.387 . S
C1857 C1859 1.390 . S
C1857 H1861 0.950 . S
H1858 C1854 0.950 . S
C1859 C1857 1.390 . S
C1859 C1860 1.387 . S
C1859 H1862 0.950 . S
C1860 C1859 1.387 . S
C1860 C1863 1.387 . S
H1861 C1857 0.950 . S
H1862 C1859 0.950 . S
C1863 C1854 1.390 . S
C1863 H1856 0.950 . S
C1863 C1860 1.387 . S
C1864 C1865 1.387 . S
C1864 H1868 0.950 . S
C1864 C1873 1.390 . S
C1865 C1864 1.387 . S
C1865 C1867 1.387 . S
H1866 C1873 0.950 . S
C1867 C1865 1.387 . S
C1867 C1869 1.390 . S
C1867 H1871 0.950 . S
H1868 C1864 0.950 . S
C1869 C1867 1.390 . S
C1869 C1870 1.387 . S
C1869 H1872 0.950 . S
C1870 C1869 1.387 . S
C1870 C1873 1.387 . S
H1871 C1867 0.950 . S
H1872 C1869 0.950 . S
C1873 C1864 1.390 . S
C1873 H1866 0.950 . S
C1873 C1870 1.387 . S
C1874 C1875 1.387 . S
C1874 H1878 0.950 . S
C1874 C1883 1.390 . S
C1875 C1874 1.387 . S
C1875 C1877 1.387 . S
H1876 C1883 0.950 . S
C1877 C1875 1.387 . S
C1877 C1879 1.390 . S
C1877 H1881 0.950 . S
H1878 C1874 0.950 . S
C1879 C1877 1.390 . S
C1879 C1880 1.387 . S
C1879 H1882 0.950 . S
C1880 C1879 1.387 . S
C1880 C1883 1.387 . S
H1881 C1877 0.950 . S
H1882 C1879 0.950 . S
C1883 C1874 1.390 . S
C1883 H1876 0.950 . S
C1883 C1880 1.387 . S
C1884 C1885 1.387 . S
C1884 H1888 0.950 . S
C1884 C1893 1.390 . S
C1885 C1884 1.387 . S
C1885 C1887 1.387 . S
H1886 C1893 0.950 . S
C1887 C1885 1.387 . S
C1887 C1889 1.390 . S
C1887 H1891 0.950 . S
H1888 C1884 0.950 . S
C1889 C1887 1.390 . S
C1889 C1890 1.387 . S
C1889 H1892 0.950 . S
C1890 C1889 1.387 . S
C1890 C1893 1.387 . S
H1891 C1887 0.950 . S
H1892 C1889 0.950 . S
C1893 C1884 1.390 . S
C1893 H1886 0.950 . S
C1893 C1890 1.387 . S
C1894 C1895 1.387 . S
C1894 H1898 0.950 . S
C1894 C1903 1.390 . S
C1895 C1894 1.387 . S
C1895 C1897 1.387 . S
H1896 C1903 0.950 . S
C1897 C1895 1.387 . S
C1897 C1899 1.390 . S
C1897 H1901 0.950 . S
H1898 C1894 0.950 . S
C1899 C1897 1.390 . S
C1899 C1900 1.387 . S
C1899 H1902 0.950 . S
C1900 C1899 1.387 . S
C1900 C1903 1.387 . S
H1901 C1897 0.950 . S
H1902 C1899 0.950 . S
C1903 C1894 1.390 . S
C1903 H1896 0.950 . S
C1903 C1900 1.387 . S
C1904 C1905 1.387 . S
C1904 H1908 0.950 . S
C1904 C1913 1.390 . S
C1905 C1904 1.387 . S
C1905 C1907 1.387 . S
H1906 C1913 0.950 . S
C1907 C1905 1.387 . S
C1907 C1909 1.390 . S
C1907 H1911 0.950 . S
H1908 C1904 0.950 . S
C1909 C1907 1.390 . S
C1909 C1910 1.387 . S
C1909 H1912 0.950 . S
C1910 C1909 1.387 . S
C1910 C1913 1.387 . S
H1911 C1907 0.950 . S
H1912 C1909 0.950 . S
C1913 C1904 1.390 . S
C1913 H1906 0.950 . S
C1913 C1910 1.387 . S
C1914 C1915 1.387 . S
C1914 H1918 0.950 . S
C1914 C1923 1.390 . S
C1915 C1914 1.387 . S
C1915 C1917 1.387 . S
H1916 C1923 0.950 . S
C1917 C1915 1.387 . S
C1917 C1919 1.390 . S
C1917 H1921 0.950 . S
H1918 C1914 0.950 . S
C1919 C1917 1.390 . S
C1919 C1920 1.387 . S
C1919 H1922 0.950 . S
C1920 C1919 1.387 . S
C1920 C1923 1.387 . S
H1921 C1917 0.950 . S
H1922 C1919 0.950 . S
C1923 C1914 1.390 . S
C1923 H1916 0.950 . S
C1923 C1920 1.387 . S
C1924 C1925 1.387 . S
C1924 H1928 0.950 . S
C1924 C1933 1.390 . S
C1925 C1924 1.387 . S
C1925 C1927 1.387 . S
H1926 C1933 0.950 . S
C1927 C1925 1.387 . S
C1927 C1929 1.390 . S
C1927 H1931 0.950 . S
H1928 C1924 0.950 . S
C1929 C1927 1.390 . S
C1929 C1930 1.387 . S
C1929 H1932 0.950 . S
C1930 C1929 1.387 . S
C1930 C1933 1.387 . S
H1931 C1927 0.950 . S
H1932 C1929 0.950 . S
C1933 C1924 1.390 . S
C1933 H1926 0.950 . S
C1933 C1930 1.387 . S
C1934 C1935 1.387 . S
C1934 H1938 0.950 . S
C1934 C1943 1.390 . S
C1935 C1934 1.387 . S
C1935 C1937 1.387 . S
H1936 C1943 0.950 . S
C1937 C1935 1.387 . S
C1937 C1939 1.390 . S
C1937 H1941 0.950 . S
H1938 C1934 0.950 . S
C1939 C1937 1.390 . S
C1939 C1940 1.387 . S
C1939 H1942 0.950 . S
C1940 C1939 1.387 . S
C1940 C1943 1.387 . S
H1941 C1937 0.950 . S
H1942 C1939 0.950 . S
C1943 C1934 1.390 . S
C1943 H1936 0.950 . S
C1943 C1940 1.387 . S
C1944 C1945 1.387 . S
C1944 H1948 0.950 . S
C1944 C1953 1.390 . S
C1945 C1944 1.387 . S
C1945 C1947 1.387 . S
H1946 C1953 0.950 . S
C1947 C1945 1.387 . S
C1947 C1949 1.390 . S
C1947 H1951 0.950 . S
H1948 C1944 0.950 . S
C1949 C1947 1.390 . S
C1949 C1950 1.387 . S
C1949 H1952 0.950 . S
C1950 C1949 1.387 . S
C1950 C1953 1.387 . S
H1951 C1947 0.950 . S
H1952 C1949 0.950 . S
C1953 C1944 1.390 . S
C1953 H1946 0.950 . S
C1953 C1950 1.387 . S
C1954 C1955 1.387 . S
C1954 H1958 0.950 . S
C1954 C1963 1.390 . S
C1955 C1954 1.387 . S
C1955 C1957 1.387 . S
H1956 C1963 0.950 . S
C1957 C1955 1.387 . S
C1957 C1959 1.390 . S
C1957 H1961 0.950 . S
H1958 C1954 0.950 . S
C1959 C1957 1.390 . S
C1959 C1960 1.387 . S
C1959 H1962 0.950 . S
C1960 C1959 1.387 . S
C1960 C1963 1.387 . S
H1961 C1957 0.950 . S
H1962 C1959 0.950 . S
C1963 C1954 1.390 . S
C1963 H1956 0.950 . S
C1963 C1960 1.387 . S
C1964 C1965 1.387 . S
C1964 H1968 0.950 . S
C1964 C1973 1.390 . S
C1965 C1964 1.387 . S
C1965 C1967 1.387 . S
H1966 C1973 0.950 . S
C1967 C1965 1.387 . S
C1967 C1969 1.390 . S
C1967 H1971 0.950 . S
H1968 C1964 0.950 . S
C1969 C1967 1.390 . S
C1969 C1970 1.387 . S
C1969 H1972 0.950 . S
C1970 C1969 1.387 . S
C1970 C1973 1.387 . S
H1971 C1967 0.950 . S
H1972 C1969 0.950 . S
C1973 C1964 1.390 . S
C1973 H1966 0.950 . S
C1973 C1970 1.387 . S
C1974 C1975 1.387 1_554 S
C1974 H1978 0.950 . S
C1974 C1983 1.390 . S
C1975 C1974 1.387 1_556 S
C1975 C1977 1.387 . S
H1976 C1983 0.950 . S
C1977 C1975 1.387 . S
C1977 C1979 1.390 . S
C1977 H1981 0.950 . S
H1978 C1974 0.950 . S
C1979 C1977 1.390 . S
C1979 C1980 1.387 . S
C1979 H1982 0.950 . S
C1980 C1979 1.387 . S
C1980 C1983 1.387 1_556 S
H1981 C1977 0.950 . S
H1982 C1979 0.950 . S
C1983 C1974 1.390 . S
C1983 H1976 0.950 . S
C1983 C1980 1.387 1_554 S
C1984 C1985 1.387 . S
C1984 H1988 0.950 . S
C1984 C1993 1.390 . S
C1985 C1984 1.387 . S
C1985 C1987 1.387 . S
H1986 C1993 0.950 . S
C1987 C1985 1.387 . S
C1987 C1989 1.390 . S
C1987 H1991 0.950 . S
H1988 C1984 0.950 . S
C1989 C1987 1.390 . S
C1989 C1990 1.387 . S
C1989 H1992 0.950 . S
C1990 C1989 1.387 . S
C1990 C1993 1.387 . S
H1991 C1987 0.950 . S
H1992 C1989 0.950 . S
C1993 C1984 1.390 . S
C1993 H1986 0.950 . S
C1993 C1990 1.387 . S
C1994 C1995 1.387 . S
C1994 H1998 0.950 1_554 S
C1994 C2003 1.390 1_554 S
C1995 C1994 1.387 . S
C1995 C1997 1.387 . S
H1996 C2003 0.950 . S
C1997 C1995 1.387 . S
C1997 C1999 1.390 . S
C1997 H2001 0.950 . S
H1998 C1994 0.950 1_556 S
C1999 C1997 1.390 . S
C1999 C2000 1.387 . S
C1999 H2002 0.950 . S
C2000 C1999 1.387 . S
C2000 C2003 1.387 1_554 S
H2001 C1997 0.950 . S
H2002 C1999 0.950 . S
C2003 C1994 1.390 1_556 S
C2003 H1996 0.950 . S
C2003 C2000 1.387 1_556 S
C2004 C2005 1.397 . S
C2004 H2008 0.950 . S
C2004 C2013 1.390 1_554 S
C2005 C2004 1.397 . S
C2005 C2007 1.356 1_554 S
H2006 C2013 0.950 1_554 S
C2007 C2005 1.356 1_556 S
C2007 C2009 1.390 . S
C2007 H2011 0.950 . S
H2008 C2004 0.950 . S
C2009 C2007 1.390 . S
C2009 C2010 1.387 . S
C2009 H2012 0.950 . S
C2010 C2009 1.387 . S
C2010 C2013 1.387 . S
H2011 C2007 0.950 . S
H2012 C2009 0.950 . S
C2013 C2004 1.390 1_556 S
C2013 H2006 0.950 1_556 S
C2013 C2010 1.387 . S
C2014 C2015 1.387 . S
C2014 H2018 0.950 . S
C2014 C2023 1.390 . S
C2015 C2014 1.387 . S
C2015 C2017 1.387 . S
H2016 C2023 0.950 . S
C2017 C2015 1.387 . S
C2017 C2019 1.390 . S
C2017 H2021 0.950 . S
H2018 C2014 0.950 . S
C2019 C2017 1.390 . S
C2019 C2020 1.387 . S
C2019 H2022 0.950 . S
C2020 C2019 1.387 . S
C2020 C2023 1.387 . S
H2021 C2017 0.950 . S
H2022 C2019 0.950 . S
C2023 C2014 1.390 . S
C2023 H2016 0.950 . S
C2023 C2020 1.387 . S
C2024 C2025 1.387 1_556 S
C2024 H2028 0.950 . S
C2024 C2033 1.390 . S
C2025 C2024 1.387 1_554 S
C2025 C2027 1.387 . S
H2026 C2033 0.950 . S
C2027 C2025 1.387 . S
C2027 C2029 1.390 . S
C2027 H2031 0.950 . S
H2028 C2024 0.950 . S
C2029 C2027 1.390 . S
C2029 C2030 1.387 1_554 S
C2029 H2032 0.950 . S
C2030 C2029 1.387 1_556 S
C2030 C2033 1.387 . S
H2031 C2027 0.950 . S
H2032 C2029 0.950 . S
C2033 C2024 1.390 . S
C2033 H2026 0.950 . S
C2033 C2030 1.387 . S
C2034 C2035 1.387 . S
C2034 H2038 0.950 . S
C2034 C2043 1.390 . S
C2035 C2034 1.387 . S
C2035 C2037 1.387 . S
H2036 C2043 0.950 . S
C2037 C2035 1.387 . S
C2037 C2039 1.390 . S
C2037 H2041 0.950 . S
H2038 C2034 0.950 . S
C2039 C2037 1.390 . S
C2039 C2040 1.387 . S
C2039 H2042 0.950 . S
C2040 C2039 1.387 . S
C2040 C2043 1.387 . S
H2041 C2037 0.950 . S
H2042 C2039 0.950 . S
C2043 C2034 1.390 . S
C2043 H2036 0.950 . S
C2043 C2040 1.387 . S
C2044 C2045 1.387 . S
C2044 H2048 0.950 . S
C2044 C2053 1.390 . S
C2045 C2044 1.387 . S
C2045 C2047 1.387 . S
H2046 C2053 0.950 . S
C2047 C2045 1.387 . S
C2047 C2049 1.390 . S
C2047 H2051 0.950 . S
H2048 C2044 0.950 . S
C2049 C2047 1.390 . S
C2049 C2050 1.387 . S
C2049 H2052 0.950 . S
C2050 C2049 1.387 . S
C2050 C2053 1.387 . S
H2051 C2047 0.950 . S
H2052 C2049 0.950 . S
C2053 C2044 1.390 . S
C2053 H2046 0.950 . S
C2053 C2050 1.387 . S
C2054 C2055 1.387 . S
C2054 H2058 0.950 . S
C2054 C2063 1.390 . S
C2055 C2054 1.387 . S
C2055 C2057 1.387 . S
H2056 C2063 0.950 . S
C2057 C2055 1.387 . S
C2057 C2059 1.390 . S
C2057 H2061 0.950 . S
H2058 C2054 0.950 . S
C2059 C2057 1.390 . S
C2059 C2060 1.387 . S
C2059 H2062 0.950 . S
C2060 C2059 1.387 . S
C2060 C2063 1.387 . S
H2061 C2057 0.950 . S
H2062 C2059 0.950 . S
C2063 C2054 1.390 . S
C2063 H2056 0.950 . S
C2063 C2060 1.387 . S
C2064 C2065 1.387 . S
C2064 H2068 0.950 . S
C2064 C2073 1.390 . S
C2065 C2064 1.387 . S
C2065 C2067 1.387 . S
H2066 C2073 0.950 . S
C2067 C2065 1.387 . S
C2067 C2069 1.390 . S
C2067 H2071 0.950 . S
H2068 C2064 0.950 . S
C2069 C2067 1.390 . S
C2069 C2070 1.387 . S
C2069 H2072 0.950 . S
C2070 C2069 1.387 . S
C2070 C2073 1.387 . S
H2071 C2067 0.950 . S
H2072 C2069 0.950 . S
C2073 C2064 1.390 . S
C2073 H2066 0.950 . S
C2073 C2070 1.387 . S
C2074 C2075 1.387 . S
C2074 H2078 0.950 . S
C2074 C2083 1.390 . S
C2075 C2074 1.387 . S
C2075 C2077 1.387 . S
H2076 C2083 0.950 . S
C2077 C2075 1.387 . S
C2077 C2079 1.390 . S
C2077 H2081 0.950 . S
H2078 C2074 0.950 . S
C2079 C2077 1.390 . S
C2079 C2080 1.387 . S
C2079 H2082 0.950 . S
C2080 C2079 1.387 . S
C2080 C2083 1.387 . S
H2081 C2077 0.950 . S
H2082 C2079 0.950 . S
C2083 C2074 1.390 . S
C2083 H2076 0.950 . S
C2083 C2080 1.387 . S
C2084 C2085 1.387 . S
C2084 H2088 0.950 . S
C2084 C2093 1.390 . S
C2085 C2084 1.387 . S
C2085 C2087 1.387 . S
H2086 C2093 0.950 . S
C2087 C2085 1.387 . S
C2087 C2089 1.390 . S
C2087 H2091 0.950 . S
H2088 C2084 0.950 . S
C2089 C2087 1.390 . S
C2089 C2090 1.387 . S
C2089 H2092 0.950 . S
C2090 C2089 1.387 . S
C2090 C2093 1.387 . S
H2091 C2087 0.950 . S
H2092 C2089 0.950 . S
C2093 C2084 1.390 . S
C2093 H2086 0.950 . S
C2093 C2090 1.387 . S
C2094 C2095 1.387 . S
C2094 H2098 0.950 . S
C2094 C2103 1.390 . S
C2095 C2094 1.387 . S
C2095 C2097 1.387 . S
H2096 C2103 0.950 . S
C2097 C2095 1.387 . S
C2097 C2099 1.390 . S
C2097 H2101 0.950 . S
H2098 C2094 0.950 . S
C2099 C2097 1.390 . S
C2099 C2100 1.387 . S
C2099 H2102 0.950 . S
C2100 C2099 1.387 . S
C2100 C2103 1.387 . S
H2101 C2097 0.950 . S
H2102 C2099 0.950 . S
C2103 C2094 1.390 . S
C2103 H2096 0.950 . S
C2103 C2100 1.387 . S
C2104 C2105 1.387 . S
C2104 H2108 0.950 . S
C2104 C2113 1.390 . S
C2105 C2104 1.387 . S
C2105 C2107 1.387 . S
H2106 C2113 0.950 . S
C2107 C2105 1.387 . S
C2107 C2109 1.390 . S
C2107 H2111 0.950 . S
H2108 C2104 0.950 . S
C2109 C2107 1.390 . S
C2109 C2110 1.387 . S
C2109 H2112 0.950 . S
C2110 C2109 1.387 . S
C2110 C2113 1.387 . S
H2111 C2107 0.950 . S
H2112 C2109 0.950 . S
C2113 C2104 1.390 . S
C2113 H2106 0.950 . S
C2113 C2110 1.387 . S
C2114 C2115 1.387 . S
C2114 H2118 0.950 1_565 S
C2114 C2123 1.390 . S
C2115 C2114 1.387 . S
C2115 C2117 1.387 . S
H2116 C2123 0.950 1_545 S
C2117 C2115 1.387 . S
C2117 C2119 1.390 . S
C2117 H2121 0.950 . S
H2118 C2114 0.950 1_545 S
C2119 C2117 1.390 . S
C2119 C2120 1.387 . S
C2119 H2122 0.950 . S
C2120 C2119 1.387 . S
C2120 C2123 1.387 . S
H2121 C2117 0.950 . S
H2122 C2119 0.950 . S
C2123 C2114 1.390 . S
C2123 H2116 0.950 1_565 S
C2123 C2120 1.387 . S
C2124 C2125 1.387 1_545 S
C2124 H2128 0.950 . S
C2124 C2133 1.390 . S
C2125 C2124 1.387 1_565 S
C2125 C2127 1.387 . S
H2126 C2133 0.950 . S
C2127 C2125 1.387 . S
C2127 C2129 1.390 . S
C2127 H2131 0.950 . S
H2128 C2124 0.950 . S
C2129 C2127 1.390 . S
C2129 C2130 1.387 . S
C2129 H2132 0.950 . S
C2130 C2129 1.387 . S
C2130 C2133 1.387 1_565 S
H2131 C2127 0.950 . S
H2132 C2129 0.950 . S
C2133 C2124 1.390 . S
C2133 H2126 0.950 . S
C2133 C2130 1.387 1_545 S
C2134 C2135 1.387 . S
C2134 H2138 0.950 . S
C2134 C2143 1.390 . S
C2135 C2134 1.387 . S
C2135 C2137 1.387 1_455 S
H2136 C2143 0.950 . S
C2137 C2135 1.387 1_655 S
C2137 C2139 1.390 . S
C2137 H2141 0.950 . S
H2138 C2134 0.950 . S
C2139 C2137 1.390 . S
C2139 C2140 1.387 1_655 S
C2139 H2142 0.950 . S
C2140 C2139 1.387 1_455 S
C2140 C2143 1.387 . S
H2141 C2137 0.950 . S
H2142 C2139 0.950 . S
C2143 C2134 1.390 . S
C2143 H2136 0.950 . S
C2143 C2140 1.387 . S
C2144 C2145 1.387 . S
C2144 H2148 0.950 . S
C2144 C2153 1.390 . S
C2145 C2144 1.387 . S
C2145 C2147 1.387 . S
H2146 C2153 0.950 . S
C2147 C2145 1.387 . S
C2147 C2149 1.390 . S
C2147 H2151 0.950 . S
H2148 C2144 0.950 . S
C2149 C2147 1.390 . S
C2149 C2150 1.387 . S
C2149 H2152 0.950 . S
C2150 C2149 1.387 . S
C2150 C2153 1.387 . S
H2151 C2147 0.950 . S
H2152 C2149 0.950 . S
C2153 C2144 1.390 . S
C2153 H2146 0.950 . S
C2153 C2150 1.387 . S
C2154 C2155 1.387 . S
C2154 H2158 0.950 . S
C2154 C2163 1.390 . S
C2155 C2154 1.387 . S
C2155 C2157 1.387 . S
H2156 C2163 0.950 . S
C2157 C2155 1.387 . S
C2157 C2159 1.390 . S
C2157 H2161 0.950 . S
H2158 C2154 0.950 . S
C2159 C2157 1.390 . S
C2159 C2160 1.387 . S
C2159 H2162 0.950 . S
C2160 C2159 1.387 . S
C2160 C2163 1.387 . S
H2161 C2157 0.950 . S
H2162 C2159 0.950 . S
C2163 C2154 1.390 . S
C2163 H2156 0.950 . S
C2163 C2160 1.387 . S
C2164 C2165 1.387 . S
C2164 H2168 0.950 . S
C2164 C2173 1.390 . S
C2165 C2164 1.387 . S
C2165 C2167 1.387 . S
H2166 C2173 0.950 . S
C2167 C2165 1.387 . S
C2167 C2169 1.390 . S
C2167 H2171 0.950 . S
H2168 C2164 0.950 . S
C2169 C2167 1.390 . S
C2169 C2170 1.387 . S
C2169 H2172 0.950 . S
C2170 C2169 1.387 . S
C2170 C2173 1.387 . S
H2171 C2167 0.950 . S
H2172 C2169 0.950 . S
C2173 C2164 1.390 . S
C2173 H2166 0.950 . S
C2173 C2170 1.387 . S
C2174 C2175 1.387 . S
C2174 H2178 0.950 . S
C2174 C2183 1.390 . S
C2175 C2174 1.387 . S
C2175 C2177 1.387 . S
H2176 C2183 0.950 . S
C2177 C2175 1.387 . S
C2177 C2179 1.390 . S
C2177 H2181 0.950 . S
H2178 C2174 0.950 . S
C2179 C2177 1.390 . S
C2179 C2180 1.387 . S
C2179 H2182 0.950 . S
C2180 C2179 1.387 . S
C2180 C2183 1.387 . S
H2181 C2177 0.950 . S
H2182 C2179 0.950 . S
C2183 C2174 1.390 . S
C2183 H2176 0.950 . S
C2183 C2180 1.387 . S
C2184 C2185 1.387 1_565 S
C2184 H2188 0.950 . S
C2184 C2193 1.390 . S
C2185 C2184 1.387 1_545 S
C2185 C2187 1.387 . S
H2186 C2193 0.950 . S
C2187 C2185 1.387 . S
C2187 C2189 1.390 . S
C2187 H2191 0.950 . S
H2188 C2184 0.950 . S
C2189 C2187 1.390 . S
C2189 C2190 1.387 . S
C2189 H2192 0.950 . S
C2190 C2189 1.387 . S
C2190 C2193 1.387 1_545 S
H2191 C2187 0.950 . S
H2192 C2189 0.950 . S
C2193 C2184 1.390 . S
C2193 H2186 0.950 . S
C2193 C2190 1.387 1_565 S
C2194 C2195 1.387 . S
C2194 H2198 0.950 . S
C2194 C2203 1.390 . S
C2195 C2194 1.387 . S
C2195 C2197 1.387 . S
H2196 C2203 0.950 . S
C2197 C2195 1.387 . S
C2197 C2199 1.390 . S
C2197 H2201 0.950 1_655 S
H2198 C2194 0.950 . S
C2199 C2197 1.390 . S
C2199 C2200 1.387 . S
C2199 H2202 0.950 1_655 S
C2200 C2199 1.387 . S
C2200 C2203 1.387 . S
H2201 C2197 0.950 1_455 S
H2202 C2199 0.950 1_455 S
C2203 C2194 1.390 . S
C2203 H2196 0.950 . S
C2203 C2200 1.387 . S
C2204 C2205 1.387 . S
C2204 H2208 0.950 . S
C2204 C2213 1.390 . S
C2205 C2204 1.387 . S
C2205 C2207 1.387 . S
H2206 C2213 0.950 . S
C2207 C2205 1.387 . S
C2207 C2209 1.390 . S
C2207 H2211 0.950 . S
H2208 C2204 0.950 . S
C2209 C2207 1.390 . S
C2209 C2210 1.387 . S
C2209 H2212 0.950 . S
C2210 C2209 1.387 . S
C2210 C2213 1.387 . S
H2211 C2207 0.950 . S
H2212 C2209 0.950 . S
C2213 C2204 1.390 . S
C2213 H2206 0.950 . S
C2213 C2210 1.387 . S
C2214 C2215 1.387 . S
C2214 H2218 0.950 . S
C2214 C2223 1.390 . S
C2215 C2214 1.387 . S
C2215 C2217 1.387 . S
H2216 C2223 0.950 . S
C2217 C2215 1.387 . S
C2217 C2219 1.390 . S
C2217 H2221 0.950 . S
H2218 C2214 0.950 . S
C2219 C2217 1.390 . S
C2219 C2220 1.387 . S
C2219 H2222 0.950 . S
C2220 C2219 1.387 . S
C2220 C2223 1.387 . S
H2221 C2217 0.950 . S
H2222 C2219 0.950 . S
C2223 C2214 1.390 . S
C2223 H2216 0.950 . S
C2223 C2220 1.387 . S
C2224 C2225 1.387 . S
C2224 H2228 0.950 . S
C2224 C2233 1.390 . S
C2225 C2224 1.387 . S
C2225 C2227 1.387 . S
H2226 C2233 0.950 . S
C2227 C2225 1.387 . S
C2227 C2229 1.390 . S
C2227 H2231 0.950 . S
H2228 C2224 0.950 . S
C2229 C2227 1.390 . S
C2229 C2230 1.387 . S
C2229 H2232 0.950 . S
C2230 C2229 1.387 . S
C2230 C2233 1.387 . S
H2231 C2227 0.950 . S
H2232 C2229 0.950 . S
C2233 C2224 1.390 . S
C2233 H2226 0.950 . S
C2233 C2230 1.387 . S
C2234 C2235 1.387 . S
C2234 H2238 0.950 . S
C2234 C2243 1.390 . S
C2235 C2234 1.387 . S
C2235 C2237 1.387 . S
H2236 C2243 0.950 . S
C2237 C2235 1.387 . S
C2237 C2239 1.390 . S
C2237 H2241 0.950 . S
H2238 C2234 0.950 . S
C2239 C2237 1.390 . S
C2239 C2240 1.387 . S
C2239 H2242 0.950 . S
C2240 C2239 1.387 . S
C2240 C2243 1.387 . S
H2241 C2237 0.950 . S
H2242 C2239 0.950 . S
C2243 C2234 1.390 . S
C2243 H2236 0.950 . S
C2243 C2240 1.387 . S
C2244 C2245 1.387 . S
C2244 H2248 0.950 . S
C2244 C2253 1.390 . S
C2245 C2244 1.387 . S
C2245 C2247 1.387 . S
H2246 C2253 0.950 . S
C2247 C2245 1.387 . S
C2247 C2249 1.390 . S
C2247 H2251 0.950 . S
H2248 C2244 0.950 . S
C2249 C2247 1.390 . S
C2249 C2250 1.387 . S
C2249 H2252 0.950 . S
C2250 C2249 1.387 . S
C2250 C2253 1.387 . S
H2251 C2247 0.950 . S
H2252 C2249 0.950 . S
C2253 C2244 1.390 . S
C2253 H2246 0.950 . S
C2253 C2250 1.387 . S
C2254 C2255 1.387 . S
C2254 H2258 0.950 . S
C2254 C2263 1.390 . S
C2255 C2254 1.387 . S
C2255 C2257 1.387 . S
H2256 C2263 0.950 . S
C2257 C2255 1.387 . S
C2257 C2259 1.390 . S
C2257 H2261 0.950 . S
H2258 C2254 0.950 . S
C2259 C2257 1.390 . S
C2259 C2260 1.387 . S
C2259 H2262 0.950 . S
C2260 C2259 1.387 . S
C2260 C2263 1.387 . S
H2261 C2257 0.950 . S
H2262 C2259 0.950 . S
C2263 C2254 1.390 . S
C2263 H2256 0.950 . S
C2263 C2260 1.387 . S
C2264 C2265 1.387 . S
C2264 H2268 0.950 . S
C2264 C2273 1.390 . S
C2265 C2264 1.387 . S
C2265 C2267 1.387 . S
H2266 C2273 0.950 . S
C2267 C2265 1.387 . S
C2267 C2269 1.390 . S
C2267 H2271 0.950 . S
H2268 C2264 0.950 . S
C2269 C2267 1.390 . S
C2269 C2270 1.387 . S
C2269 H2272 0.950 . S
C2270 C2269 1.387 . S
C2270 C2273 1.387 . S
H2271 C2267 0.950 . S
H2272 C2269 0.950 . S
C2273 C2264 1.390 . S
C2273 H2266 0.950 . S
C2273 C2270 1.387 . S
C2274 C2275 1.387 . S
C2274 H2278 0.950 . S
C2274 C2283 1.390 . S
C2275 C2274 1.387 . S
C2275 C2277 1.387 . S
H2276 C2283 0.950 1_455 S
C2277 C2275 1.387 . S
C2277 C2279 1.390 . S
C2277 H2281 0.950 . S
H2278 C2274 0.950 . S
C2279 C2277 1.390 . S
C2279 C2280 1.387 . S
C2279 H2282 0.950 . S
C2280 C2279 1.387 . S
C2280 C2283 1.387 . S
H2281 C2277 0.950 . S
H2282 C2279 0.950 . S
C2283 C2274 1.390 . S
C2283 H2276 0.950 1_655 S
C2283 C2280 1.387 . S
C2284 C2285 1.387 . S
C2284 H2288 0.950 . S
C2284 C2293 1.390 . S
C2285 C2284 1.387 . S
C2285 C2287 1.387 . S
H2286 C2293 0.950 . S
C2287 C2285 1.387 . S
C2287 C2289 1.390 . S
C2287 H2291 0.950 . S
H2288 C2284 0.950 . S
C2289 C2287 1.390 . S
C2289 C2290 1.387 . S
C2289 H2292 0.950 . S
C2290 C2289 1.387 . S
C2290 C2293 1.387 . S
H2291 C2287 0.950 . S
H2292 C2289 0.950 . S
C2293 C2284 1.390 . S
C2293 H2286 0.950 . S
C2293 C2290 1.387 . S
C2294 C2295 1.387 . S
C2294 H2298 0.950 . S
C2294 C2303 1.390 . S
C2295 C2294 1.387 . S
C2295 C2297 1.387 . S
H2296 C2303 0.950 . S
C2297 C2295 1.387 . S
C2297 C2299 1.390 . S
C2297 H2301 0.950 . S
H2298 C2294 0.950 . S
C2299 C2297 1.390 . S
C2299 C2300 1.387 . S
C2299 H2302 0.950 . S
C2300 C2299 1.387 . S
C2300 C2303 1.387 . S
H2301 C2297 0.950 . S
H2302 C2299 0.950 . S
C2303 C2294 1.390 . S
C2303 H2296 0.950 . S
C2303 C2300 1.387 . S
C1585 C7 1.313 . S
C1590 C981 1.265 . S
C1595 C23 1.697 . S
C1600 C1061 1.611 . S
C1610 C1129 1.374 . S
C1605 C37 1.421 . S
C1615 C35 1.736 . S
C1620 C1209 1.698 . S
C1625 C9 1.556 . S
C1630 C1283 1.540 . S
C1635 C21 1.712 . S
C1640 C1351 1.648 . S
C1645 C49 1.236 1_556 S
C1650 C1277 1.200 . S
C1660 C1357 1.494 . S
C1655 C65 1.487 . S
C1670 C1203 1.343 . S
C1665 C79 1.346 1_556 S
C1675 C77 1.704 . S
C1680 C1135 1.674 1_545 S
C1690 C987 1.503 . S
C1685 C51 1.466 . S
C1695 C63 1.503 . S
C1700 C1055 1.504 . S
C1705 C91 1.598 . S
C1710 C1425 1.513 . S
C1715 C107 1.758 . S
C1720 C1505 1.651 . S
C1730 C1573 1.579 . S
C1725 C121 1.741 . S
C1735 C119 1.972 . S
C1740 C321 1.888 . S
C1745 C93 1.866 . S
C1750 C395 1.748 . S
C1755 C105 1.749 . S
C1760 C463 1.680 . S
C1765 C133 1.263 . S
C1770 C389 1.252 . S
C1775 C149 1.530 . S
C1780 C469 1.529 . S
C1790 C315 1.446 . S
C1785 C163 1.471 . S
C1800 C1579 1.852 . S
C1795 C161 1.875 . S
C1810 C1431 1.597 . S
C1805 C135 1.618 . S
C1820 C1499 1.549 . S
C1815 C147 1.534 . S
C1825 C175 1.512 . S
C1830 C537 1.425 . S
C1835 C191 1.756 . S
C1840 C617 1.653 . S
C1845 C205 1.751 . S
C1850 C685 1.596 . S
C1855 C203 2.048 . S
C1860 C765 1.963 . S
C1870 C839 1.743 . S
C1865 C177 1.868 . S
C1880 C907 1.711 . S
C1875 C189 1.772 . S
C1890 C833 1.350 . S
C1885 C217 1.354 . S
C1900 C913 1.523 . S
C1895 C233 1.530 . S
C1905 C247 1.443 . S
C1910 C759 1.413 . S
C1920 C691 1.770 . S
C1915 C245 1.795 . S
C1925 C219 1.628 . S
C1930 C543 1.615 . S
C1940 C611 1.527 . S
C1935 C231 1.520 . S
C1950 C291 1.916 . S
C1945 C8 1.979 . S
C1955 C17 1.499 . S
C1960 C365 1.490 . S
C1970 C451 1.590 . S
C1965 C31 1.582 . S
C1980 C525 1.391 . S
C1975 C36 1.429 1_556 S
C1990 C587 1.637 . S
C1985 C3 1.646 1_556 S
C2000 C673 1.559 1_554 S
C1995 C22 1.579 . S
C2005 C50 2.198 . S
C2010 C661 2.037 . S
C2015 C59 1.744 . S
C2020 C513 1.647 . S
C2025 C73 1.843 . S
C2030 C599 1.805 . S
C2035 C78 1.751 . S
C2040 C377 1.648 . S
C2050 C439 1.791 . S
C2045 C45 1.889 . S
C2055 C64 1.858 . S
C2060 C303 1.772 . S
C2070 C735 1.864 . S
C2065 C92 1.923 . S
C2075 C101 1.620 1_545 S
C2080 C809 1.605 . S
C2085 C115 1.639 1_655 S
C2090 C895 1.623 . S
C2100 C969 1.229 . S
C2095 C120 1.253 . S
C2105 C87 1.584 . S
C2110 C1031 1.573 . S
C2115 C106 1.447 . S
C2120 C1117 1.440 . S
C2125 C134 1.858 . S
C2130 C1105 1.766 1_565 S
C2135 C143 1.464 . S
C2140 C957 1.420 1_455 S
C2150 C1043 1.741 . S
C2145 C157 1.790 . S
C2155 C162 1.746 . S
C2160 C821 1.635 . S
C2165 C129 1.902 . S
C2170 C883 1.802 . S
C2180 C747 1.830 . S
C2175 C148 1.922 . S
C2190 C1179 1.741 . S
C2185 C176 1.801 . S
C2195 C185 1.358 . S
C2200 C1253 1.345 . S
C2205 C199 1.550 . S
C2210 C1339 1.547 . S
C2220 C1413 1.391 . S
C2215 C204 1.432 . S
C2230 C1475 1.660 . S
C2225 C171 1.675 . S
C2235 C190 1.654 . S
C2240 C1561 1.629 . S
C2245 C218 2.121 . S
C2250 C1549 1.980 . S
C2255 C227 1.855 1_565 S
C2260 C1401 1.752 . S
C2270 C1487 1.813 . S
C2265 C241 1.877 1_455 S
C2280 C1265 1.327 . S
C2275 C246 1.381 . S
C2290 C1327 1.719 . S
C2285 C213 1.812 . S
C2295 C232 1.552 . S
C2300 C1191 1.511 . S
