# Generated by pormake.
# Topology tsx, (6,3)-cn, num edge types: 1
# Building blocks:
#     Node 0, Type 0, BuildingBlock: CIFDUS_clean_sbu_1, # of connection points: 6
#     Node 1, Type 0, BuildingBlock: CIFDUS_clean_sbu_1, # of connection points: 6
#     Node 2, Type 1, BuildingBlock: ESEHIV_clean_linker_0, # of connection points: 3
#     Node 3, Type 1, BuildingBlock: ESEHIV_clean_linker_0, # of connection points: 3
#     Node 4, Type 1, BuildingBlock: ESEHIV_clean_linker_0, # of connection points: 3
#     Node 5, Type 1, BuildingBlock: ESEHIV_clean_linker_0, # of connection points: 3
#     Edge 6, Type (0, 1), BuildingBlock: MIFKUJ_clean_linker_0, # of connection points: 2
#     Edge 7, Type (0, 1), BuildingBlock: MIFKUJ_clean_linker_0, # of connection points: 2
#     Edge 8, Type (0, 1), BuildingBlock: MIFKUJ_clean_linker_0, # of connection points: 2
#     Edge 9, Type (0, 1), BuildingBlock: MIFKUJ_clean_linker_0, # of connection points: 2
#     Edge 10, Type (0, 1), BuildingBlock: MIFKUJ_clean_linker_0, # of connection points: 2
#     Edge 11, Type (0, 1), BuildingBlock: MIFKUJ_clean_linker_0, # of connection points: 2
#     Edge 12, Type (0, 1), BuildingBlock: MIFKUJ_clean_linker_0, # of connection points: 2
#     Edge 13, Type (0, 1), BuildingBlock: MIFKUJ_clean_linker_0, # of connection points: 2
#     Edge 14, Type (0, 1), BuildingBlock: MIFKUJ_clean_linker_0, # of connection points: 2
#     Edge 15, Type (0, 1), BuildingBlock: MIFKUJ_clean_linker_0, # of connection points: 2
#     Edge 16, Type (0, 1), BuildingBlock: MIFKUJ_clean_linker_0, # of connection points: 2
#     Edge 17, Type (0, 1), BuildingBlock: MIFKUJ_clean_linker_0, # of connection points: 2
# Relax obj value: 0.128
# Max RMSD: 0.156
# Mean RMSD: 0.118
data_MOF--net-tsx--node1-CIFDUS_clean_sbu_1--node2-ESEHIV_clean_linker_0--edge1-MIFKUJ_clean_linker_0
_symmetry_space_group_name_H-M    P1
_symmetry_Int_Tables_number       1
_symmetry_cell_setting            triclinic
loop_
_symmetry_equiv_pos_as_xyz
'x, y, z'
_cell_length_a     22.460024
_cell_length_b     27.055677
_cell_length_c     45.473052
_cell_angle_alpha  96.806287
_cell_angle_beta   91.0474
_cell_angle_gamma 90.821667
loop_
_atom_site_label
_atom_site_type_symbol
_atom_site_fract_x
_atom_site_fract_y
_atom_site_fract_z
_atom_type_partial_charge
O0 O 0.99775 0.11996 0.01784 0.0
Mn1 Mn 0.04213 0.05083 0.01051 0.0
O2 O 0.90155 0.10351 0.00487 0.0
Mn3 Mn 0.91518 0.04366 0.98244 0.0
O4 O 0.08439 0.98118 0.00279 0.0
O5 O 0.12052 0.08904 0.01749 0.0
Mn6 Mn 0.16834 0.05236 0.03708 0.0
O7 O 0.03714 0.04354 0.05561 0.0
O8 O 0.1816 0.99419 0.01295 0.0
O9 O 0.04706 0.05724 0.9651 0.0
O10 O 0.95309 0.04725 0.94693 0.0
O11 O 0.21182 0.10863 0.03259 0.0
O12 O 0.13211 0.044 0.07257 0.0
C13 C 0.92532 0.97741 0.00337 0.0
C14 C 0.94272 0.13289 0.01634 0.0
C15 C 0.13851 0.96614 0.00261 0.0
C16 C 0.16417 0.12131 0.0191 0.0
C17 C 0.0761 0.04048 0.07635 0.0
C18 C 0.00884 0.05367 0.94345 0.0
O19 O 0.96482 0.01261 0.00385 0.0
O20 O 0.87656 0.98556 0.98928 0.0
O21 O 0.50632 0.61827 0.51768 0.0
Mn22 Mn 0.55512 0.55229 0.5142 0.0
O23 O 0.42272 0.60121 0.48965 0.0
Mn24 Mn 0.44232 0.53777 0.4731 0.0
O25 O 0.60325 0.48563 0.5099 0.0
O26 O 0.62828 0.59333 0.52783 0.0
Mn27 Mn 0.67005 0.56157 0.55271 0.0
O28 O 0.53491 0.54306 0.55816 0.0
O29 O 0.69288 0.50284 0.5316 0.0
O30 O 0.57583 0.56045 0.47 0.0
O31 O 0.49455 0.53477 0.44207 0.0
O32 O 0.71095 0.62033 0.55029 0.0
O33 O 0.62148 0.55336 0.58428 0.0
C34 C 0.43998 0.4789 0.50088 0.0
C35 C 0.45555 0.63045 0.50734 0.0
C36 C 0.65664 0.47316 0.51629 0.0
C37 C 0.66816 0.62855 0.53215 0.0
C38 C 0.56558 0.5444 0.58243 0.0
C39 C 0.54894 0.54888 0.4448 0.0
O40 O 0.48167 0.51213 0.50123 0.0
O41 O 0.39817 0.48301 0.48143 0.0
H42 H 0.92335 0.04092 0.38959 0.0
H43 H 0.08599 0.95933 0.38759 0.0
H44 H 1.00367 0.00688 0.47094 0.0
C45 C 0.95845 0.02341 0.40108 0.0
C46 C 0.95763 0.02612 0.43205 0.0
C47 C 1.00506 1.00046 0.38481 0.0
C48 C 0.05027 0.97773 0.40001 0.0
C49 C 0.05005 0.97912 0.43113 0.0
C50 C 1.00364 1.00398 0.44697 0.0
H51 H 1.00118 1.00034 0.62631 0.0
H52 H 0.1437 0.10905 0.63226 0.0
H53 H 0.05681 0.06344 0.54831 0.0
C54 C 0.02941 0.0258 0.61595 0.0
C55 C 0.0224 0.02898 0.58537 0.0
C56 C 0.07315 0.05426 0.63317 0.0
C57 C 0.11072 0.08577 0.61928 0.0
C58 C 0.10547 0.0887 0.5888 0.0
C59 C 0.06148 0.06023 0.57177 0.0
H60 H 0.42517 0.54599 0.8935 0.0
H61 H 0.59091 0.4687 0.89451 0.0
H62 H 0.4991 0.51022 0.97599 0.0
C63 C 0.46008 0.52922 0.90554 0.0
C64 C 0.45646 0.53088 0.9364 0.0
C65 C 0.5086 0.50769 0.89012 0.0
C66 C 0.5533 0.48576 0.9061 0.0
C67 C 0.5499 0.48581 0.93705 0.0
C68 C 0.50149 0.50894 0.95213 0.0
H69 H 0.48067 0.50514 0.1273 0.0
H70 H 0.63586 0.59995 0.13353 0.0
H71 H 0.54628 0.5628 0.04922 0.0
C72 C 0.51196 0.52792 0.11676 0.0
C73 C 0.50668 0.53124 0.08607 0.0
C74 C 0.55876 0.55217 0.1339 0.0
C75 C 0.6008 0.57993 0.12015 0.0
C76 C 0.59708 0.58379 0.08966 0.0
C77 C 0.54959 0.55963 0.07272 0.0
H78 H 0.1188 0.20508 0.04798 0.0
H79 H 0.16142 0.28806 0.04546 0.0
H80 H 0.25564 0.23222 0.96689 0.0
H81 H 0.21398 0.14902 0.96999 0.0
H82 H 0.33093 0.26717 0.00873 0.0
H83 H 0.15543 0.32969 0.96804 0.0
H84 H 0.0479 0.34502 0.96368 0.0
H85 H 0.05293 0.43115 0.04934 0.0
H86 H 0.15979 0.41531 0.05457 0.0
H87 H 0.51138 0.48162 0.02957 0.0
H88 H 0.43608 0.42541 0.0039 0.0
H89 H 0.31749 0.45784 0.07695 0.0
H90 H 0.39063 0.51678 0.10172 0.0
H91 H 0.25334 0.43839 0.02776 0.0
H92 H 0.41876 0.35781 0.07262 0.0
H93 H 0.5249 0.33893 0.07967 0.0
H94 H 0.53615 0.28484 0.98734 0.0
H95 H 0.43046 0.3039 0.97968 0.0
C96 C 0.14559 0.2113 0.02914 0.0
C97 C 0.16245 0.17087 0.00894 0.0
C98 C 0.17051 0.25878 0.02782 0.0
C99 C 0.21242 0.26658 0.00612 0.0
C100 C 0.22373 0.22727 0.98393 0.0
C101 C 0.19914 0.17982 0.98541 0.0
C102 C 0.2521 0.31182 0.00988 0.0
C103 C 0.31379 0.30467 0.01204 0.0
C104 C 0.23014 0.36084 0.01504 0.0
C105 C 0.16574 0.37104 0.01177 0.0
C106 C 0.13348 0.35157 0.98606 0.0
C107 C 0.07254 0.36033 0.98343 0.0
C108 C 0.04341 0.38892 0.00623 0.0
C109 C 0.07524 0.40889 0.03169 0.0
C110 C 0.13608 0.40006 0.03449 0.0
C111 C 0.46865 0.47807 0.03982 0.0
C112 C 0.45793 0.50291 0.06819 0.0
C113 C 0.42572 0.4454 0.0252 0.0
C114 C 0.37172 0.43591 0.03889 0.0
C115 C 0.35901 0.46379 0.06602 0.0
C116 C 0.40141 0.49704 0.08041 0.0
C117 C 0.33166 0.3933 0.02698 0.0
C118 C 0.27019 0.4009 0.02358 0.0
C119 C 0.35351 0.34437 0.02087 0.0
C120 C 0.41697 0.33265 0.02554 0.0
C121 C 0.44405 0.34207 0.05381 0.0
C122 C 0.50412 0.33131 0.05792 0.0
C123 C 0.53732 0.31064 0.03396 0.0
C124 C 0.51049 0.30071 0.00587 0.0
C125 C 0.45053 0.31152 0.00163 0.0
H126 H 0.58385 0.30236 0.03713 0.0
H127 H 0.99628 0.39567 0.0041 0.0
H128 H 0.23774 0.93146 0.97491 0.0
H129 H 0.27028 0.84539 0.96612 0.0
H130 H 0.10602 0.79532 0.00132 0.0
H131 H 0.07246 0.88217 0.00978 0.0
H132 H 0.21779 0.75687 0.02603 0.0
H133 H 0.11701 0.76638 0.9334 0.0
H134 H 0.09004 0.80483 0.88857 0.0
H135 H 0.27233 0.79959 0.8617 0.0
H136 H 0.3006 0.76182 0.9066 0.0
H137 H 0.33755 0.52317 0.92309 0.0
H138 H 0.26202 0.58484 0.93811 0.0
H139 H 0.38995 0.66678 0.99766 0.0
H140 H 0.46559 0.60495 0.98271 0.0
H141 H 0.27263 0.67823 0.92626 0.0
H142 H 0.31784 0.73856 0.05184 0.0
H143 H 0.3482 0.69888 0.09575 0.0
H144 H 0.27314 0.55935 0.05611 0.0
H145 H 0.24124 0.59837 0.01224 0.0
C146 C 0.20799 0.90209 0.98028 0.0
C147 C 0.15244 0.91349 0.99287 0.0
C148 C 0.22675 0.85294 0.97536 0.0
C149 C 0.19078 0.81401 0.98324 0.0
C150 C 0.13453 0.82492 0.99521 0.0
C151 C 0.11514 0.87436 0.99968 0.0
C152 C 0.2136 0.76243 0.97916 0.0
C153 C 0.22909 0.73918 0.00423 0.0
C154 C 0.2278 0.73923 0.95071 0.0
C155 C 0.21094 0.76146 0.92346 0.0
C156 C 0.15142 0.77372 0.91803 0.0
C157 C 0.13589 0.79535 0.89259 0.0
C158 C 0.17945 0.8047 0.87231 0.0
C159 C 0.23863 0.79232 0.87741 0.0
C160 C 0.25441 0.77072 0.90284 0.0
C161 C 0.349 0.5536 0.94003 0.0
C162 C 0.40758 0.55959 0.95152 0.0
C163 C 0.30589 0.5889 0.94851 0.0
C164 C 0.32032 0.63072 0.96881 0.0
C165 C 0.3775 0.63463 0.98214 0.0
C166 C 0.42072 0.59918 0.97367 0.0
C167 C 0.27849 0.67304 0.97316 0.0
C168 C 0.26 0.69493 0.94808 0.0
C169 C 0.26128 0.69456 0.00158 0.0
C170 C 0.27743 0.67144 0.02863 0.0
C171 C 0.3072 0.69956 0.05261 0.0
C172 C 0.32481 0.67713 0.07748 0.0
C173 C 0.31274 0.6266 0.07868 0.0
C174 C 0.28258 0.59847 0.05513 0.0
C175 C 0.26471 0.62074 0.03026 0.0
H176 H 0.32672 0.60926 0.09788 0.0
H177 H 0.16734 0.82148 0.85264 0.0
H178 H 0.92992 0.88779 0.97146 0.0
H179 H 0.89454 0.81055 0.98832 0.0
H180 H 0.89648 0.88191 0.07837 0.0
H181 H 0.93108 0.95991 0.0612 0.0
H182 H 0.90906 0.74189 0.02511 0.0
H183 H 0.76251 0.86051 0.10731 0.0
H184 H 0.72811 0.94708 0.11711 0.0
H185 H 0.74239 0.96438 0.02482 0.0
H186 H 0.77599 0.87776 0.01446 0.0
H187 H 0.71761 0.58538 0.09916 0.0
H188 H 0.7903 0.64512 0.08436 0.0
H189 H 0.65298 0.71145 0.03507 0.0
H190 H 0.57939 0.65265 0.05076 0.0
H191 H 0.71206 0.78101 0.06895 0.0
H192 H 0.76599 0.64231 1.00075 0.0
H193 H 0.79533 0.55618 0.98412 0.0
H194 H 0.95564 0.57748 0.0373 0.0
H195 H 0.92681 0.66355 0.05464 0.0
C196 C 0.92589 0.88616 0.99504 0.0
C197 C 0.9331 0.92956 0.01506 0.0
C198 C 0.90537 0.84199 0.00468 0.0
C199 C 0.89115 0.84074 0.0345 0.0
C200 C 0.90619 0.88227 0.05515 0.0
C201 C 0.9267 0.92668 0.04543 0.0
C202 C 0.8508 0.80037 0.04242 0.0
C203 C 0.86635 0.75035 0.0351 0.0
C204 C 0.79395 0.81126 0.05434 0.0
C205 C 0.77238 0.86294 0.06022 0.0
C206 C 0.75804 0.88278 0.08913 0.0
C207 C 0.73871 0.93183 0.09477 0.0
C208 C 0.73326 0.96127 0.07162 0.0
C209 C 0.74678 0.94161 0.04275 0.0
C210 C 0.76594 0.89255 0.03698 0.0
C211 C 0.70293 0.61245 0.08496 0.0
C212 C 0.64253 0.61461 0.0764 0.0
C213 C 0.74472 0.64637 0.07632 0.0
C214 C 0.72728 0.68291 0.05859 0.0
C215 C 0.6675 0.68373 0.04887 0.0
C216 C 0.62554 0.6498 0.05759 0.0
C217 C 0.7704 0.72228 0.05197 0.0
C218 C 0.75515 0.77226 0.05944 0.0
C219 C 0.82666 0.71117 0.0394 0.0
C220 C 0.84397 0.65929 0.0292 0.0
C221 C 0.80723 0.6285 0.00913 0.0
C222 C 0.82381 0.57972 0.99953 0.0
C223 C 0.8773 0.56141 0.00965 0.0
C224 C 0.91422 0.59176 0.02948 0.0
C225 C 0.8978 0.64056 0.03918 0.0
H226 H 0.89029 0.52382 0.00199 0.0
H227 H 0.71844 0.99926 0.07605 0.0
H228 H 0.99035 0.21907 0.99955 0.0
H229 H 0.93378 0.2957 0.99656 0.0
H230 H 0.79335 0.23806 0.04681 0.0
H231 H 0.84945 0.16233 0.05003 0.0
H232 H 0.77138 0.25019 0.98256 0.0
H233 H 0.84436 0.33045 0.07547 0.0
H234 H 0.91487 0.37024 0.11341 0.0
H235 H 0.95638 0.48311 0.05777 0.0
H236 H 0.88858 0.44236 0.0188 0.0
H237 H 0.53462 0.4178 0.97628 0.0
H238 H 0.61175 0.36997 0.9986 0.0
H239 H 0.74778 0.44945 0.95684 0.0
H240 H 0.67086 0.49724 0.93422 0.0
H241 H 0.77596 0.43086 0.01764 0.0
H242 H 0.70809 0.3468 0.92383 0.0
H243 H 0.63391 0.30939 0.88687 0.0
H244 H 0.58102 0.20476 0.94583 0.0
H245 H 0.65375 0.24249 0.98352 0.0
C246 C 0.94905 0.22411 0.0114 0.0
C247 C 0.92417 0.18476 0.02499 0.0
C248 C 0.91653 0.26776 0.00951 0.0
C249 C 0.85911 0.27238 0.02129 0.0
C250 C 0.83755 0.23539 0.03766 0.0
C251 C 0.86983 0.19217 0.0396 0.0
C252 C 0.81637 0.30862 0.0112 0.0
C253 C 0.7722 0.28965 0.99049 0.0
C254 C 0.81823 0.36027 0.02109 0.0
C255 C 0.86206 0.3827 0.04385 0.0
C256 C 0.86972 0.36287 0.07089 0.0
C257 C 0.90913 0.38574 0.09268 0.0
C258 C 0.94039 0.42901 0.08795 0.0
C259 C 0.93237 0.44946 0.06139 0.0
C260 C 0.89373 0.42631 0.03938 0.0
C261 C 0.58098 0.42569 0.97228 0.0
C262 C 0.59672 0.46094 0.9533 0.0
C263 C 0.62493 0.39824 0.98496 0.0
C264 C 0.68538 0.40582 0.97916 0.0
C265 C 0.70142 0.44295 0.96157 0.0
C266 C 0.65745 0.46993 0.94852 0.0
C267 C 0.73116 0.3721 0.98932 0.0
C268 C 0.77569 0.3914 0.00977 0.0
C269 C 0.72989 0.32056 0.97932 0.0
C270 C 0.6858 0.29802 0.95671 0.0
C271 C 0.68007 0.3163 0.92911 0.0
C272 C 0.63834 0.29496 0.90799 0.0
C273 C 0.60261 0.25485 0.91404 0.0
C274 C 0.60867 0.23589 0.94119 0.0
C275 C 0.65008 0.2573 0.96246 0.0
H276 H 0.57037 0.23834 0.89765 0.0
H277 H 0.97062 0.44682 0.10491 0.0
H278 H 0.71169 0.64857 0.47958 0.0
H279 H 0.7559 0.72934 0.47208 0.0
H280 H 0.67449 0.79616 0.552 0.0
H281 H 0.62948 0.71582 0.55902 0.0
H282 H 0.695 0.86605 0.51443 0.0
H283 H 0.80599 0.73619 0.55607 0.0
H284 H 0.84661 0.65168 0.55442 0.0
H285 H 0.94248 0.67343 0.47602 0.0
H286 H 0.90202 0.75809 0.47713 0.0
H287 H 0.90737 0.01542 0.60176 0.0
H288 H 0.8324 0.95771 0.57747 0.0
H289 H 0.95137 0.91807 0.50551 0.0
H290 H 0.02795 0.97501 0.53035 0.0
H291 H 0.91154 0.83797 0.52609 0.0
H292 H 0.821 0.98174 0.49697 0.0
H293 H 0.78037 0.06628 0.50252 0.0
H294 H 0.64459 0.02066 0.55917 0.0
H295 H 0.68551 0.93621 0.55502 0.0
C296 C 0.70008 0.68123 0.49439 0.0
C297 C 0.66687 0.67622 0.51974 0.0
C298 C 0.72605 0.7273 0.49035 0.0
C299 C 0.72 0.76857 0.51197 0.0
C300 C 0.68014 0.76494 0.53509 0.0
C301 C 0.65395 0.719 0.53899 0.0
C302 C 0.76333 0.8112 0.51424 0.0
C303 C 0.7424 0.86016 0.51689 0.0
C304 C 0.8254 0.80351 0.51692 0.0
C305 C 0.85049 0.75309 0.51648 0.0
C306 C 0.83557 0.72283 0.53843 0.0
C307 C 0.85858 0.67497 0.5376 0.0
C308 C 0.897 0.65718 0.51508 0.0
C309 C 0.91265 0.68729 0.49341 0.0
C310 C 0.88976 0.7352 0.49414 0.0
C311 C 0.91758 0.99474 0.58062 0.0
C312 C 0.97408 0.99928 0.5682 0.0
C313 C 0.87423 0.96217 0.56653 0.0
C314 C 0.88597 0.93365 0.53947 0.0
C315 C 0.94133 0.93983 0.5263 0.0
C316 C 0.98489 0.97249 0.54044 0.0
C317 C 0.84338 0.89337 0.52703 0.0
C318 C 0.86448 0.84452 0.52271 0.0
C319 C 0.78155 0.90147 0.52319 0.0
C320 C 0.75672 0.95245 0.52581 0.0
C321 C 0.78286 0.98972 0.51089 0.0
C322 C 0.75971 0.0377 0.51375 0.0
C323 C 0.7099 0.04883 0.53108 0.0
C324 C 0.68319 0.01201 0.54573 0.0
C325 C 0.70642 0.96405 0.54317 0.0
H326 H 0.69201 0.086 0.53316 0.0
H327 H 0.91474 0.62009 0.51445 0.0
H328 H 0.60079 0.39717 0.47918 0.0
H329 H 0.63763 0.31243 0.46559 0.0
H330 H 0.79584 0.34932 0.51936 0.0
H331 H 0.76014 0.43267 0.53291 0.0
H332 H 0.82179 0.30635 0.46466 0.0
H333 H 0.68037 0.2812 0.54165 0.0
H334 H 0.58015 0.28101 0.5629 0.0
H335 H 0.51843 0.17632 0.48997 0.0
H336 H 0.61768 0.17708 0.46782 0.0
H337 H 0.97499 0.09472 0.48069 0.0
H338 H 0.90804 0.1619 0.4978 0.0
H339 H 0.77185 0.098 0.43617 0.0
H340 H 0.83783 0.02941 0.4197 0.0
H341 H 0.72509 0.15046 0.48884 0.0
H342 H 0.86045 0.17464 0.41141 0.0
H343 H 0.95873 0.1724 0.38807 0.0
H344 H 0.02825 0.27781 0.45885 0.0
H345 H 0.93059 0.27987 0.48294 0.0
C346 C 0.6432 0.387 0.4882 0.0
C347 C 0.67736 0.42188 0.50714 0.0
C348 C 0.66413 0.33862 0.48045 0.0
C349 C 0.71943 0.32459 0.49157 0.0
C350 C 0.75319 0.35934 0.51044 0.0
C351 C 0.73254 0.40721 0.51813 0.0
C352 C 0.74448 0.27461 0.48319 0.0
C353 C 0.80063 0.27238 0.47012 0.0
C354 C 0.71601 0.23002 0.48939 0.0
C355 C 0.65632 0.22976 0.50284 0.0
C356 C 0.64524 0.25865 0.52994 0.0
C357 C 0.58856 0.25842 0.54216 0.0
C358 C 0.54282 0.22888 0.52773 0.0
C359 C 0.5537 0.19946 0.50106 0.0
C360 C 0.61015 0.19983 0.48864 0.0
C361 C 0.92997 0.09365 0.47167 0.0
C362 C 0.91221 0.05745 0.44831 0.0
C363 C 0.89185 0.1323 0.48134 0.0
C364 C 0.83567 0.13553 0.46765 0.0
C365 C 0.81527 0.09644 0.44676 0.0
C366 C 0.8532 0.05752 0.43726 0.0
C367 C 0.80315 0.18301 0.47157 0.0
C368 C 0.74578 0.18457 0.48335 0.0
C369 C 0.82994 0.22722 0.46391 0.0
C370 C 0.88834 0.22709 0.4491 0.0
C371 C 0.89679 0.19711 0.42209 0.0
C372 C 0.95238 0.19587 0.40872 0.0
C373 C 0.99973 0.2249 0.42199 0.0
C374 C 0.99153 0.25532 0.44861 0.0
C375 C 0.93606 0.25655 0.46213 0.0
H376 H 0.04276 0.22389 0.41161 0.0
H377 H 0.499 0.22868 0.53726 0.0
H378 H 0.50477 0.39488 0.50349 0.0
H379 H 0.46881 0.3204 0.52428 0.0
H380 H 0.32142 0.40398 0.56287 0.0
H381 H 0.35807 0.47789 0.54272 0.0
H382 H 0.3494 0.33516 0.59617 0.0
H383 H 0.31934 0.34208 0.48991 0.0
H384 H 0.35589 0.34522 0.4393 0.0
H385 H 0.44793 0.20811 0.44355 0.0
H386 H 0.41204 0.20441 0.49427 0.0
H387 H 0.09259 0.18804 0.59049 0.0
H388 H 0.16785 0.2489 0.57893 0.0
H389 H 0.2856 0.12942 0.54907 0.0
H390 H 0.20945 0.06837 0.56028 0.0
H391 H 0.29211 0.20459 0.51416 0.0
H392 H 0.3049 0.19019 0.61733 0.0
H393 H 0.26894 0.18803 0.66807 0.0
H394 H 0.21064 0.33888 0.67044 0.0
H395 H 0.24509 0.34161 0.61948 0.0
C396 C 0.46664 0.39773 0.51776 0.0
C397 C 0.43429 0.44191 0.52179 0.0
C398 C 0.44554 0.35505 0.52928 0.0
C399 C 0.3914 0.35617 0.54446 0.0
C400 C 0.36301 0.40192 0.55112 0.0
C401 C 0.38411 0.4443 0.53973 0.0
C402 C 0.35919 0.30977 0.54996 0.0
C403 C 0.33713 0.30646 0.57832 0.0
C404 C 0.34395 0.27171 0.52672 0.0
C405 C 0.36396 0.27339 0.496 0.0
C406 C 0.34759 0.31274 0.48007 0.0
C407 C 0.36811 0.3146 0.45137 0.0
C408 C 0.40443 0.277 0.43827 0.0
C409 C 0.41997 0.2373 0.45376 0.0
C410 C 0.39957 0.2353 0.48247 0.0
C411 C 0.13394 0.17492 0.58068 0.0
C412 C 0.14527 0.12382 0.57587 0.0
C413 C 0.17717 0.20958 0.57444 0.0
C414 C 0.23291 0.19374 0.56375 0.0
C415 C 0.24308 0.14247 0.55745 0.0
C416 C 0.19959 0.10769 0.56364 0.0
C417 C 0.28079 0.23101 0.56024 0.0
C418 C 0.30561 0.23251 0.53227 0.0
C419 C 0.29848 0.26752 0.58385 0.0
C420 C 0.27721 0.26595 0.61446 0.0
C421 C 0.28391 0.22275 0.62856 0.0
C422 C 0.26384 0.22144 0.65738 0.0
C423 C 0.23744 0.26327 0.67245 0.0
C424 C 0.23101 0.30648 0.65872 0.0
C425 C 0.25075 0.30791 0.62985 0.0
H426 H 0.22204 0.26221 0.69479 0.0
H427 H 0.42036 0.27854 0.41607 0.0
H428 H 0.48666 0.71212 0.4819 0.0
H429 H 0.42512 0.78565 0.48006 0.0
H430 H 0.30945 0.7344 0.54534 0.0
H431 H 0.37001 0.66001 0.54624 0.0
H432 H 0.24869 0.74604 0.49805 0.0
H433 H 0.39146 0.84809 0.55719 0.0
H434 H 0.4913 0.88239 0.57194 0.0
H435 H 0.50498 0.94286 0.48915 0.0
H436 H 0.40557 0.90827 0.47367 0.0
H437 H 0.03984 0.92874 0.47962 0.0
H438 H 0.11661 0.88501 0.50419 0.0
H439 H 0.24528 0.92578 0.44165 0.0
H440 H 0.16972 0.97363 0.41869 0.0
H441 H 0.29871 0.92413 0.49375 0.0
H442 H 0.16713 0.81109 0.43178 0.0
H443 H 0.06899 0.77535 0.41485 0.0
H444 H 0.03756 0.73411 0.50165 0.0
H445 H 0.13534 0.77001 0.51913 0.0
C446 C 0.44973 0.71795 0.49686 0.0
C447 C 0.43335 0.68108 0.51454 0.0
C448 C 0.4144 0.75992 0.49578 0.0
C449 C 0.36244 0.76575 0.51258 0.0
C450 C 0.3492 0.7308 0.53216 0.0
C451 C 0.38409 0.68859 0.53294 0.0
C452 C 0.31723 0.80296 0.50609 0.0
C453 C 0.25947 0.78523 0.4979 0.0
C454 C 0.33152 0.85382 0.50479 0.0
C455 C 0.3911 0.87524 0.51418 0.0
C456 C 0.41588 0.86841 0.54203 0.0
C457 C 0.47241 0.88795 0.55054 0.0
C458 C 0.50453 0.9147 0.53147 0.0
C459 C 0.48007 0.92211 0.5039 0.0
C460 C 0.42358 0.9026 0.49526 0.0
C461 C 0.08476 0.92984 0.47164 0.0
C462 C 0.09808 0.95452 0.44698 0.0
C463 C 0.12863 0.90413 0.48548 0.0
C464 C 0.18656 0.90095 0.47435 0.0
C465 C 0.20085 0.92731 0.45055 0.0
C466 C 0.1572 0.95402 0.43711 0.0
C467 C 0.23064 0.86694 0.48582 0.0
C468 C 0.28801 0.88511 0.4946 0.0
C469 C 0.21644 0.8162 0.48747 0.0
C470 C 0.15825 0.79358 0.47681 0.0
C471 C 0.13918 0.79451 0.44726 0.0
C472 C 0.08364 0.77424 0.43757 0.0
C473 C 0.047 0.75257 0.45717 0.0
C474 C 0.06594 0.75093 0.48648 0.0
C475 C 0.12145 0.77116 0.49629 0.0
H476 H 1.00401 0.73697 0.4496 0.0
H477 H 0.54832 0.92975 0.53809 0.0
H478 H 0.98191 0.08094 0.10769 0.0
H479 H 0.95832 0.07118 0.15944 0.0
H480 H 0.10171 0.96756 0.16255 0.0
H481 H 0.12678 0.97855 0.11157 0.0
H482 H 0.97791 0.94448 0.18987 0.0
H483 H 0.14384 0.06572 0.18876 0.0
H484 H 0.1877 0.14228 0.1731 0.0
H485 H 0.04227 0.22706 0.21142 0.0
H486 H 0.99712 0.15073 0.22691 0.0
H487 H 0.04267 0.92844 0.34132 0.0
H488 H 0.04607 0.9331 0.28807 0.0
H489 H 0.97158 0.08009 0.30094 0.0
H490 H 0.97324 0.0776 0.3541 0.0
H491 H 0.05085 0.0826 0.2639 0.0
H492 H 0.88945 0.96917 0.27148 0.0
H493 H 0.8366 0.89547 0.28583 0.0
H494 H 0.95725 0.79952 0.23499 0.0
H495 H 0.01138 0.87268 0.22066 0.0
C496 C 0.00772 0.05565 0.11938 0.0
C497 C 0.05648 0.03088 0.10591 0.0
C498 C 0.99424 0.05007 0.14879 0.0
C499 C 0.02837 0.01862 0.16463 0.0
C500 C 0.07484 0.9918 0.15059 0.0
C501 C 0.08929 0.99837 0.12161 0.0
C502 C 0.0198 0.01697 0.19662 0.0
C503 C 0.99388 0.97443 0.20622 0.0
C504 C 0.03934 0.05669 0.21766 0.0
C505 C 0.06678 0.10252 0.20863 0.0
C506 C 0.12095 0.10061 0.19358 0.0
C507 C 0.1461 0.14396 0.18479 0.0
C508 C 0.11768 0.18948 0.19117 0.0
C509 C 0.06416 0.19176 0.20644 0.0
C510 C 0.03879 0.14848 0.21523 0.0
C511 C 0.02774 0.96202 0.33288 0.0
C512 C 0.00706 1.00238 0.35217 0.0
C513 C 0.02872 0.96432 0.30229 0.0
C514 C 0.00776 0.00652 0.29025 0.0
C515 C 0.9876 0.04692 0.30951 0.0
C516 C 0.98782 0.04511 0.34003 0.0
C517 C 0.00885 0.00966 0.25777 0.0
C518 C 0.03382 0.05256 0.2479 0.0
C519 C 0.98703 0.9706 0.23654 0.0
C520 C 0.95482 0.92645 0.24523 0.0
C521 C 0.90503 0.93236 0.26356 0.0
C522 C 0.87478 0.89068 0.27165 0.0
C523 C 0.89364 0.84284 0.26138 0.0
C524 C 0.94274 0.8366 0.24295 0.0
C525 C 0.97319 0.87816 0.23482 0.0
H526 H 0.87012 0.81061 0.26765 0.0
H527 H 0.13722 0.22301 0.18436 0.0
H528 H 0.12328 0.06567 0.92338 0.0
H529 H 0.15381 0.06334 0.8715 0.0
H530 H 0.97037 0.04229 0.84248 0.0
H531 H 0.93967 0.04452 0.89332 0.0
H532 H 0.04405 0.97521 0.81211 0.0
H533 H 0.0373 0.15359 0.84434 0.0
H534 H 0.06916 0.23003 0.87607 0.0
H535 H 0.24935 0.20848 0.84791 0.0
H536 H 0.21862 0.13147 0.81629 0.0
H537 H 0.98345 0.04676 0.67251 0.0
H538 H 0.99223 0.04309 0.72572 0.0
H539 H 0.18332 0.05581 0.72149 0.0
H540 H 0.17533 0.05767 0.66784 0.0
H541 H 0.13169 0.11941 0.76923 0.0
H542 H 0.13343 0.94835 0.73014 0.0
H543 H 0.10002 0.87266 0.69821 0.0
H544 H 0.9294 0.87987 0.73945 0.0
H545 H 0.96146 0.95609 0.77133 0.0
C546 C 0.08954 0.06077 0.90591 0.0
C547 C 0.02903 0.0551 0.91264 0.0
C548 C 0.10705 0.05945 0.87633 0.0
C549 C 0.06429 0.05232 0.85318 0.0
C550 C 1.00414 0.04735 0.85996 0.0
C551 C 0.98669 0.04887 0.88922 0.0
C552 C 0.08062 0.04955 0.8216 0.0
C553 C 0.06338 0.00669 0.80273 0.0
C554 C 0.10755 0.09 0.80953 0.0
C555 C 0.12583 0.13647 0.82829 0.0
C556 C 0.0838 0.16494 0.84512 0.0
C557 C 0.10163 0.20839 0.86304 0.0
C558 C 0.16129 0.224 0.8641 0.0
C559 C 0.20319 0.19628 0.84713 0.0
C560 C 0.18559 0.15273 0.8292 0.0
C561 C 0.0275 0.04797 0.68268 0.0
C562 C 0.07867 0.0521 0.66571 0.0
C563 C 0.03239 0.04626 0.71318 0.0
C564 C 0.08845 0.0489 0.72746 0.0
C565 C 0.13967 0.05385 0.71084 0.0
C566 C 0.13489 0.05505 0.6802 0.0
C567 C 0.09264 0.0459 0.75975 0.0
C568 C 0.11382 0.08747 0.77868 0.0
C569 C 0.06923 1.00425 0.77198 0.0
C570 C 0.04979 0.95814 0.75302 0.0
C571 C 0.08864 0.93401 0.73226 0.0
C572 C 0.06996 0.89097 0.71419 0.0
C573 C 0.01259 0.8715 0.71677 0.0
C574 C 0.97383 0.89499 0.73747 0.0
C575 C 0.99226 0.93808 0.75558 0.0
H576 H 0.99821 0.83818 0.70275 0.0
H577 H 0.17501 0.25764 0.878 0.0
H578 H 0.58615 0.46368 0.61003 0.0
H579 H 0.56136 0.4523 0.66097 0.0
H580 H 0.46125 0.58798 0.66807 0.0
H581 H 0.48593 0.59912 0.61671 0.0
H582 H 0.55116 0.58834 0.71007 0.0
H583 H 0.39143 0.47613 0.67233 0.0
H584 H 0.34528 0.40358 0.64192 0.0
H585 H 0.46289 0.30591 0.6819 0.0
H586 H 0.51026 0.37782 0.71228 0.0
H587 H 0.47733 0.58417 0.85884 0.0
H588 H 0.47521 0.58537 0.80556 0.0
H589 H 0.54981 0.43844 0.79363 0.0
H590 H 0.54777 0.43538 0.84724 0.0
H591 H 0.46765 0.44323 0.75348 0.0
H592 H 0.63374 0.54754 0.78667 0.0
H593 H 0.68887 0.6156 0.81684 0.0
H594 H 0.5734 0.72275 0.78414 0.0
H595 H 0.51704 0.65524 0.75406 0.0
C596 C 0.55697 0.49001 0.62217 0.0
C597 C 0.53737 0.53199 0.60958 0.0
C598 C 0.5428 0.48349 0.65124 0.0
C599 C 0.50928 0.51918 0.66834 0.0
C600 C 0.48689 0.55984 0.65519 0.0
C601 C 0.50057 0.56606 0.62588 0.0
C602 C 0.50532 0.51763 0.7008 0.0
C603 C 0.53165 0.55711 0.71962 0.0
C604 C 0.48274 0.47567 0.71312 0.0
C605 C 0.4547 0.43249 0.69446 0.0
C606 C 0.40786 0.43924 0.67444 0.0
C607 C 0.38137 0.39819 0.65725 0.0
C608 C 0.40124 0.35019 0.65997 0.0
C609 C 0.44758 0.34312 0.67984 0.0
C610 C 0.47419 0.384 0.69707 0.0
C611 C 0.49259 0.55168 0.84499 0.0
C612 C 0.51219 0.50942 0.8575 0.0
C613 C 0.49218 0.55277 0.8144 0.0
C614 C 0.51314 0.51232 0.79543 0.0
C615 C 0.53346 0.4702 0.80777 0.0
C616 C 0.53297 0.46873 0.83848 0.0
C617 C 0.51319 0.51414 0.76279 0.0
C618 C 0.48659 0.4747 0.74397 0.0
C619 C 0.53702 0.55552 0.75028 0.0
C620 C 0.5708 0.59627 0.76834 0.0
C621 C 0.61981 0.58558 0.78609 0.0
C622 C 0.65133 0.62407 0.80314 0.0
C623 C 0.63454 0.67345 0.80247 0.0
C624 C 0.58629 0.68447 0.78467 0.0
C625 C 0.55458 0.64611 0.76759 0.0
H626 H 0.65901 0.7032 0.81569 0.0
H627 H 0.38077 0.31839 0.64675 0.0
H628 H 0.56535 0.63212 0.41811 0.0
H629 H 0.58198 0.63367 0.36504 0.0
H630 H 0.61373 0.47572 0.35536 0.0
H631 H 0.59555 0.47412 0.40821 0.0
H632 H 0.66153 0.60867 0.3215 0.0
H633 H 0.53165 0.42208 0.2968 0.0
H634 H 0.46042 0.37098 0.32142 0.0
H635 H 0.39806 0.50217 0.3735 0.0
H636 H 0.46817 0.55406 0.34886 0.0
H637 H 0.65888 0.5355 0.16618 0.0
H638 H 0.66893 0.536 0.21984 0.0
H639 H 0.481 0.56366 0.22866 0.0
H640 H 0.47063 0.5626 0.17488 0.0
H641 H 0.51243 0.49821 0.26337 0.0
H642 H 0.58819 0.6573 0.24467 0.0
H643 H 0.65168 0.71612 0.22135 0.0
H644 H 0.80801 0.65367 0.2571 0.0
H645 H 0.74546 0.59394 0.28028 0.0
C646 C 0.57859 0.59829 0.40482 0.0
C647 C 0.57992 0.55311 0.41708 0.0
C648 C 0.58776 0.59909 0.3745 0.0
C649 C 0.59792 0.55462 0.35612 0.0
C650 C 0.60515 0.51034 0.36904 0.0
C651 C 0.59544 0.5095 0.39925 0.0
C652 C 0.59245 0.55326 0.3234 0.0
C653 C 0.62933 0.58425 0.30872 0.0
C654 C 0.54909 0.52255 0.30682 0.0
C655 C 0.50563 0.49182 0.32121 0.0
C656 C 0.50252 0.44 0.3134 0.0
C657 C 0.46236 0.41091 0.32737 0.0
C658 C 0.42488 0.43329 0.34909 0.0
C659 C 0.42723 0.48485 0.35675 0.0
C660 C 0.46717 0.51411 0.34279 0.0
C661 C 0.61971 0.54173 0.17958 0.0
C662 C 0.56399 0.5493 0.16632 0.0
C663 C 0.62555 0.54214 0.21026 0.0
C664 C 0.57595 0.55073 0.22841 0.0
C665 C 0.51997 0.55705 0.21515 0.0
C666 C 0.51402 0.55628 0.18441 0.0
C667 C 0.58229 0.55298 0.2612 0.0
C668 C 0.54524 0.52225 0.27598 0.0
C669 C 0.62441 0.58494 0.27788 0.0
C670 C 0.66215 0.6208 0.26396 0.0
C671 C 0.63613 0.65583 0.24736 0.0
C672 C 0.67195 0.68938 0.2342 0.0
C673 C 0.73385 0.68855 0.23768 0.0
C674 C 0.76006 0.65422 0.25438 0.0
C675 C 0.72444 0.62052 0.26755 0.0
H676 H 0.7615 0.71458 0.2275 0.0
H677 H 0.39395 0.41069 0.35993 0.0
loop_
_geom_bond_atom_site_label_1
_geom_bond_atom_site_label_2
_geom_bond_distance
_geom_bond_site_symmetry_2
_ccdc_geom_bond_type
O0 Mn1 2.163 . S
O0 C14 1.244 1_455 S
Mn1 O0 2.163 . S
Mn1 O4 2.160 1_544 S
Mn1 O5 2.221 . S
Mn1 O7 2.163 . S
Mn1 O9 2.160 1_554 S
Mn1 O19 2.221 1_444 S
O2 Mn3 2.087 . S
O2 C14 1.256 1_556 S
Mn3 O2 2.087 . S
Mn3 O10 2.089 . S
Mn3 O19 2.290 1_545 S
Mn3 O20 2.251 1_546 S
O4 Mn1 2.160 1_566 S
O4 C15 1.239 1_556 S
O5 Mn1 2.221 . S
O5 Mn6 2.290 . S
O5 C16 1.278 . S
Mn6 O5 2.290 . S
Mn6 O8 2.089 1_545 S
Mn6 O11 2.251 . S
Mn6 O12 2.087 . S
O7 Mn1 2.163 . S
O7 C17 1.244 . S
O8 Mn6 2.089 1_565 S
O8 C15 1.256 . S
O9 Mn1 2.160 1_556 S
O9 C18 1.239 . S
O10 Mn3 2.089 . S
O10 C18 1.256 1_655 S
O11 Mn6 2.251 . S
O11 C16 1.241 . S
O12 Mn6 2.087 . S
O12 C17 1.256 . S
C13 O19 1.278 1_554 S
C13 O20 1.241 . S
C14 O0 1.244 1_655 S
C14 O2 1.256 1_554 S
C15 O4 1.239 1_554 S
C15 O8 1.256 . S
C16 O5 1.278 . S
C16 O11 1.241 . S
C17 O7 1.244 . S
C17 O12 1.256 . S
C18 O9 1.239 . S
C18 O10 1.256 1_455 S
O19 Mn1 2.221 1_666 S
O19 Mn3 2.290 1_565 S
O19 C13 1.278 1_556 S
O20 Mn3 2.251 1_564 S
O20 C13 1.241 . S
O21 Mn22 2.163 . S
O21 C35 1.244 . S
Mn22 O21 2.163 . S
Mn22 O25 2.160 . S
Mn22 O26 2.221 . S
Mn22 O28 2.163 . S
Mn22 O30 2.160 . S
Mn22 O40 2.221 . S
O23 Mn24 2.087 . S
O23 C35 1.256 . S
Mn24 O23 2.087 . S
Mn24 O31 2.089 . S
Mn24 O40 2.290 . S
Mn24 O41 2.251 . S
O25 Mn22 2.160 . S
O25 C36 1.239 . S
O26 Mn22 2.221 . S
O26 Mn27 2.290 . S
O26 C37 1.278 . S
Mn27 O26 2.290 . S
Mn27 O29 2.089 . S
Mn27 O32 2.251 . S
Mn27 O33 2.087 . S
O28 Mn22 2.163 . S
O28 C38 1.244 . S
O29 Mn27 2.089 . S
O29 C36 1.256 . S
O30 Mn22 2.160 . S
O30 C39 1.239 . S
O31 Mn24 2.089 . S
O31 C39 1.256 . S
O32 Mn27 2.251 . S
O32 C37 1.241 . S
O33 Mn27 2.087 . S
O33 C38 1.256 . S
C34 O40 1.278 . S
C34 O41 1.241 . S
C35 O21 1.244 . S
C35 O23 1.256 . S
C36 O25 1.239 . S
C36 O29 1.256 . S
C37 O26 1.278 . S
C37 O32 1.241 . S
C38 O28 1.244 . S
C38 O33 1.256 . S
C39 O30 1.239 . S
C39 O31 1.256 . S
O40 Mn22 2.221 . S
O40 Mn24 2.290 . S
O40 C34 1.278 . S
O41 Mn24 2.251 . S
O41 C34 1.241 . S
H42 C45 0.931 1_655 S
H43 C48 0.928 . S
H44 C50 0.930 . S
C45 H42 0.931 1_455 S
C45 C46 1.413 . S
C45 C47 1.354 1_545 S
C46 C45 1.413 . S
C46 C50 1.429 . S
C47 C45 1.354 1_565 S
C47 C48 1.378 . S
C48 H43 0.928 . S
C48 C47 1.378 . S
C48 C49 1.404 . S
C49 C48 1.404 . S
C49 C50 1.391 1_565 S
C50 H44 0.930 . S
C50 C46 1.429 . S
C50 C49 1.391 1_545 S
H51 C54 0.931 . S
H52 C57 0.928 . S
H53 C59 0.930 . S
C54 H51 0.931 . S
C54 C55 1.413 . S
C54 C56 1.360 1_655 S
C55 C54 1.413 . S
C55 C59 1.437 . S
C56 C54 1.360 1_455 S
C56 C57 1.372 . S
C57 H52 0.928 . S
C57 C56 1.372 . S
C57 C58 1.404 . S
C58 C57 1.404 . S
C58 C59 1.382 1_455 S
C59 H53 0.930 . S
C59 C55 1.437 . S
C59 C58 1.382 1_655 S
H60 C63 0.931 . S
H61 C66 0.928 . S
H62 C68 0.930 . S
C63 H60 0.931 . S
C63 C64 1.413 . S
C63 C65 1.360 . S
C64 C63 1.413 . S
C64 C68 1.429 . S
C65 C63 1.360 . S
C65 C66 1.372 . S
C66 H61 0.928 . S
C66 C65 1.372 . S
C66 C67 1.404 . S
C67 C66 1.404 . S
C67 C68 1.391 . S
C68 H62 0.930 . S
C68 C64 1.429 . S
C68 C67 1.391 . S
H69 C72 0.931 . S
H70 C75 0.928 . S
H71 C77 0.930 . S
C72 H69 0.931 . S
C72 C73 1.413 . S
C72 C74 1.360 . S
C73 C72 1.413 . S
C73 C77 1.429 . S
C74 C72 1.360 . S
C74 C75 1.372 . S
C75 H70 0.928 . S
C75 C74 1.372 . S
C75 C76 1.404 . S
C76 C75 1.404 . S
C76 C77 1.391 . S
C77 H71 0.930 . S
C77 C73 1.429 . S
C77 C76 1.391 . S
H78 C96 0.951 . S
H79 C98 0.951 . S
H80 C100 0.950 1_556 S
H81 C101 0.950 . S
H82 C103 0.950 . S
H83 C106 0.951 1_556 S
H84 C107 0.950 1_556 S
H85 C109 0.950 . S
H86 C110 0.950 . S
H87 C111 0.951 . S
H88 C113 0.951 . S
H89 C115 0.950 . S
H90 C116 0.950 . S
H91 C118 0.950 . S
H92 C121 0.950 . S
H93 C122 0.950 . S
H94 C124 0.950 . S
H95 C125 0.950 . S
C96 H78 0.951 . S
C96 C97 1.366 . S
C96 C98 1.388 . S
C97 C96 1.366 . S
C97 C101 1.385 1_554 S
C98 H79 0.951 . S
C98 C96 1.388 . S
C98 C99 1.366 . S
C99 C98 1.366 . S
C99 C100 1.414 . S
C99 C102 1.499 . S
C100 H80 0.950 1_554 S
C100 C99 1.414 . S
C100 C101 1.374 1_554 S
C101 H81 0.950 . S
C101 C97 1.385 1_556 S
C101 C100 1.374 1_556 S
C102 C99 1.499 . S
C102 C103 1.373 . S
C102 C104 1.389 . S
C103 H82 0.950 . S
C103 C102 1.373 . S
C103 C119 1.377 . S
C104 C102 1.389 . S
C104 C105 1.524 . S
C104 C118 1.377 . S
C105 C104 1.524 . S
C105 C106 1.397 . S
C105 C110 1.363 . S
C106 H83 0.951 1_554 S
C106 C105 1.397 . S
C106 C107 1.334 . S
C107 H84 0.950 1_554 S
C107 C106 1.334 . S
C107 C108 1.287 . S
C108 C107 1.287 . S
C108 C109 1.524 . S
C108 H127 0.913 . S
C109 H85 0.950 . S
C109 C108 1.524 . S
C109 C110 1.415 . S
C110 H86 0.950 . S
C110 C105 1.363 . S
C110 C109 1.415 . S
C111 H87 0.951 . S
C111 C112 1.366 . S
C111 C113 1.388 . S
C112 C111 1.366 . S
C112 C116 1.385 . S
C113 H88 0.951 . S
C113 C111 1.388 . S
C113 C114 1.366 . S
C114 C113 1.366 . S
C114 C115 1.414 . S
C114 C117 1.499 . S
C115 H89 0.950 . S
C115 C114 1.414 . S
C115 C116 1.374 . S
C116 H90 0.950 . S
C116 C112 1.385 . S
C116 C115 1.374 . S
C117 C114 1.499 . S
C117 C118 1.373 . S
C117 C119 1.389 . S
C118 H91 0.950 . S
C118 C104 1.377 . S
C118 C117 1.373 . S
C119 C103 1.377 . S
C119 C117 1.389 . S
C119 C120 1.524 . S
C120 C119 1.524 . S
C120 C121 1.397 . S
C120 C125 1.363 . S
C121 H92 0.950 . S
C121 C120 1.397 . S
C121 C122 1.334 . S
C122 H93 0.950 . S
C122 C121 1.334 . S
C122 C123 1.287 . S
C123 C122 1.287 . S
C123 C124 1.524 . S
C123 H126 0.999 . S
C124 H94 0.950 . S
C124 C123 1.524 . S
C124 C125 1.415 . S
C125 H95 0.950 . S
C125 C120 1.363 . S
C125 C124 1.415 . S
H126 C123 0.999 . S
H127 C108 0.913 . S
H128 C146 0.954 1_554 S
H129 C148 0.951 . S
H130 C150 0.950 . S
H131 C151 0.950 . S
H132 C153 0.931 1_554 S
H133 C156 0.950 . S
H134 C157 0.950 . S
H135 C159 0.950 . S
H136 C160 0.950 . S
H137 C161 0.951 . S
H138 C163 0.951 . S
H139 C165 0.950 . S
H140 C166 0.950 . S
H141 C168 0.950 . S
H142 C171 0.950 . S
H143 C172 0.950 . S
H144 C174 0.950 . S
H145 C175 0.950 . S
C146 H128 0.954 1_556 S
C146 C147 1.358 1_556 S
C146 C148 1.394 . S
C147 C146 1.358 1_554 S
C147 C151 1.385 . S
C148 H129 0.951 . S
C148 C146 1.394 . S
C148 C149 1.366 . S
C149 C148 1.366 . S
C149 C150 1.414 . S
C149 C152 1.499 . S
C150 H130 0.950 . S
C150 C149 1.414 . S
C150 C151 1.374 1_556 S
C151 H131 0.950 . S
C151 C147 1.385 . S
C151 C150 1.374 1_554 S
C152 C149 1.499 . S
C152 C153 1.390 . S
C152 C154 1.389 . S
C153 H132 0.931 1_556 S
C153 C152 1.390 . S
C153 C169 1.379 . S
C154 C152 1.389 . S
C154 C155 1.524 . S
C154 C168 1.377 . S
C155 C154 1.524 . S
C155 C156 1.397 . S
C155 C160 1.363 . S
C156 H133 0.950 . S
C156 C155 1.397 . S
C156 C157 1.334 . S
C157 H134 0.950 . S
C157 C156 1.334 . S
C157 C158 1.287 . S
C158 C157 1.287 . S
C158 C159 1.524 . S
C158 H177 0.913 . S
C159 H135 0.950 . S
C159 C158 1.524 . S
C159 C160 1.415 . S
C160 H136 0.950 . S
C160 C155 1.363 . S
C160 C159 1.415 . S
C161 H137 0.951 . S
C161 C162 1.366 . S
C161 C163 1.388 . S
C162 C161 1.366 . S
C162 C166 1.385 . S
C163 H138 0.951 . S
C163 C161 1.388 . S
C163 C164 1.366 . S
C164 C163 1.366 . S
C164 C165 1.414 . S
C164 C167 1.499 . S
C165 H139 0.950 . S
C165 C164 1.414 . S
C165 C166 1.374 . S
C166 H140 0.950 . S
C166 C162 1.385 . S
C166 C165 1.374 . S
C167 C164 1.499 . S
C167 C168 1.373 . S
C167 C169 1.389 . S
C168 H141 0.950 . S
C168 C154 1.377 . S
C168 C167 1.373 . S
C169 C153 1.379 . S
C169 C167 1.389 . S
C169 C170 1.524 1_556 S
C170 C169 1.524 1_554 S
C170 C171 1.397 . S
C170 C175 1.363 . S
C171 H142 0.950 . S
C171 C170 1.397 . S
C171 C172 1.334 . S
C172 H143 0.950 . S
C172 C171 1.334 . S
C172 C173 1.287 . S
C173 C172 1.287 . S
C173 C174 1.524 . S
C173 H176 0.999 . S
C174 H144 0.950 . S
C174 C173 1.524 . S
C174 C175 1.415 . S
C175 H145 0.950 . S
C175 C170 1.363 . S
C175 C174 1.415 . S
H176 C173 0.999 . S
H177 C158 0.913 . S
H178 C196 0.966 . S
H179 C198 0.951 1_556 S
H180 C200 0.950 . S
H181 C201 0.950 . S
H182 C203 0.950 . S
H183 C206 0.950 . S
H184 C207 0.950 . S
H185 C209 0.950 . S
H186 C210 0.950 1_556 S
H187 C211 0.951 . S
H188 C213 0.951 . S
H189 C215 0.950 . S
H190 C216 0.950 . S
H191 C218 0.950 . S
H192 C221 0.950 . S
H193 C222 0.950 . S
H194 C224 0.950 . S
H195 C225 0.950 . S
C196 H178 0.966 . S
C196 C197 1.356 1_556 S
C196 C198 1.383 1_556 S
C197 C196 1.356 1_554 S
C197 C201 1.385 . S
C198 H179 0.951 1_554 S
C198 C196 1.383 1_554 S
C198 C199 1.366 . S
C199 C198 1.366 . S
C199 C200 1.414 . S
C199 C202 1.499 . S
C200 H180 0.950 . S
C200 C199 1.414 . S
C200 C201 1.374 . S
C201 H181 0.950 . S
C201 C197 1.385 . S
C201 C200 1.374 . S
C202 C199 1.499 . S
C202 C203 1.373 . S
C202 C204 1.389 . S
C203 H182 0.950 . S
C203 C202 1.373 . S
C203 C219 1.377 . S
C204 C202 1.389 . S
C204 C205 1.524 . S
C204 C218 1.377 . S
C205 C204 1.524 . S
C205 C206 1.397 . S
C205 C210 1.363 . S
C206 H183 0.950 . S
C206 C205 1.397 . S
C206 C207 1.334 . S
C207 H184 0.950 . S
C207 C206 1.334 . S
C207 C208 1.287 . S
C208 C207 1.287 . S
C208 C209 1.524 1_554 S
C208 H227 0.913 . S
C209 H185 0.950 . S
C209 C208 1.524 1_556 S
C209 C210 1.415 1_556 S
C210 H186 0.950 1_554 S
C210 C205 1.363 . S
C210 C209 1.415 1_554 S
C211 H187 0.951 . S
C211 C212 1.366 . S
C211 C213 1.388 . S
C212 C211 1.366 . S
C212 C216 1.385 . S
C213 H188 0.951 . S
C213 C211 1.388 . S
C213 C214 1.366 . S
C214 C213 1.366 . S
C214 C215 1.414 . S
C214 C217 1.499 . S
C215 H189 0.950 . S
C215 C214 1.414 . S
C215 C216 1.374 . S
C216 H190 0.950 . S
C216 C212 1.385 . S
C216 C215 1.374 . S
C217 C214 1.499 . S
C217 C218 1.373 . S
C217 C219 1.389 . S
C218 H191 0.950 . S
C218 C204 1.377 . S
C218 C217 1.373 . S
C219 C203 1.377 . S
C219 C217 1.389 . S
C219 C220 1.524 . S
C220 C219 1.524 . S
C220 C221 1.397 . S
C220 C225 1.363 . S
C221 H192 0.950 . S
C221 C220 1.397 . S
C221 C222 1.334 . S
C222 H193 0.950 . S
C222 C221 1.334 . S
C222 C223 1.287 . S
C223 C222 1.287 . S
C223 C224 1.524 . S
C223 H226 0.999 . S
C224 H194 0.950 . S
C224 C223 1.524 . S
C224 C225 1.415 . S
C225 H195 0.950 . S
C225 C220 1.363 . S
C225 C224 1.415 . S
H226 C223 0.999 . S
H227 C208 0.913 . S
H228 C246 0.951 . S
H229 C248 0.951 . S
H230 C250 0.950 . S
H231 C251 0.950 . S
H232 C253 0.950 . S
H233 C256 0.950 . S
H234 C257 0.950 . S
H235 C259 0.951 1_455 S
H236 C260 0.950 . S
H237 C261 0.951 . S
H238 C263 0.951 . S
H239 C265 0.950 . S
H240 C266 0.950 . S
H241 C268 0.950 . S
H242 C271 0.950 . S
H243 C272 0.950 . S
H244 C274 0.950 . S
H245 C275 0.950 . S
C246 H228 0.951 . S
C246 C247 1.366 1_556 S
C246 C248 1.388 . S
C247 C246 1.366 1_554 S
C247 C251 1.385 . S
C248 H229 0.951 . S
C248 C246 1.388 . S
C248 C249 1.366 . S
C249 C248 1.366 . S
C249 C250 1.414 1_556 S
C249 C252 1.499 . S
C250 H230 0.950 . S
C250 C249 1.414 1_554 S
C250 C251 1.374 . S
C251 H231 0.950 . S
C251 C247 1.385 . S
C251 C250 1.374 . S
C252 C249 1.499 . S
C252 C253 1.373 . S
C252 C254 1.389 . S
C253 H232 0.950 . S
C253 C252 1.373 . S
C253 C269 1.377 . S
C254 C252 1.389 . S
C254 C255 1.524 . S
C254 C268 1.377 . S
C255 C254 1.524 . S
C255 C256 1.397 1_556 S
C255 C260 1.363 . S
C256 H233 0.950 . S
C256 C255 1.397 1_554 S
C256 C257 1.334 . S
C257 H234 0.950 . S
C257 C256 1.334 . S
C257 C258 1.287 . S
C258 C257 1.287 . S
C258 C259 1.524 1_554 S
C258 H277 0.913 1_655 S
C259 H235 0.951 1_655 S
C259 C258 1.524 1_556 S
C259 C260 1.415 . S
C260 H236 0.950 . S
C260 C255 1.363 . S
C260 C259 1.415 . S
C261 H237 0.951 . S
C261 C262 1.366 . S
C261 C263 1.388 . S
C262 C261 1.366 . S
C262 C266 1.385 . S
C263 H238 0.951 . S
C263 C261 1.388 . S
C263 C264 1.366 . S
C264 C263 1.366 . S
C264 C265 1.414 . S
C264 C267 1.499 . S
C265 H239 0.950 . S
C265 C264 1.414 . S
C265 C266 1.374 . S
C266 H240 0.950 . S
C266 C262 1.385 . S
C266 C265 1.374 . S
C267 C264 1.499 . S
C267 C268 1.373 . S
C267 C269 1.389 . S
C268 H241 0.950 . S
C268 C254 1.377 . S
C268 C267 1.373 . S
C269 C253 1.377 . S
C269 C267 1.389 . S
C269 C270 1.524 . S
C270 C269 1.524 . S
C270 C271 1.397 . S
C270 C275 1.363 . S
C271 H242 0.950 . S
C271 C270 1.397 . S
C271 C272 1.334 . S
C272 H243 0.950 . S
C272 C271 1.334 . S
C272 C273 1.287 . S
C273 C272 1.287 . S
C273 C274 1.524 . S
C273 H276 0.999 . S
C274 H244 0.950 . S
C274 C273 1.524 . S
C274 C275 1.415 . S
C275 H245 0.950 . S
C275 C270 1.363 . S
C275 C274 1.415 . S
H276 C273 0.999 . S
H277 C258 0.913 1_455 S
H278 C296 0.951 . S
H279 C298 0.951 . S
H280 C300 0.950 . S
H281 C301 0.950 . S
H282 C303 0.950 . S
H283 C306 0.950 . S
H284 C307 0.950 . S
H285 C309 0.950 . S
H286 C310 0.950 . S
H287 C311 0.951 . S
H288 C313 0.951 . S
H289 C315 0.950 . S
H290 C316 0.950 . S
H291 C318 0.950 . S
H292 C321 0.950 . S
H293 C322 0.950 1_545 S
H294 C324 0.950 . S
H295 C325 0.950 . S
C296 H278 0.951 . S
C296 C297 1.366 . S
C296 C298 1.388 . S
C297 C296 1.366 . S
C297 C301 1.385 . S
C298 H279 0.951 . S
C298 C296 1.388 . S
C298 C299 1.366 . S
C299 C298 1.366 . S
C299 C300 1.414 . S
C299 C302 1.499 . S
C300 H280 0.950 . S
C300 C299 1.414 . S
C300 C301 1.374 . S
C301 H281 0.950 . S
C301 C297 1.385 . S
C301 C300 1.374 . S
C302 C299 1.499 . S
C302 C303 1.373 . S
C302 C304 1.389 . S
C303 H282 0.950 . S
C303 C302 1.373 . S
C303 C319 1.377 . S
C304 C302 1.389 . S
C304 C305 1.524 . S
C304 C318 1.377 . S
C305 C304 1.524 . S
C305 C306 1.397 . S
C305 C310 1.363 . S
C306 H283 0.950 . S
C306 C305 1.397 . S
C306 C307 1.334 . S
C307 H284 0.950 . S
C307 C306 1.334 . S
C307 C308 1.287 . S
C308 C307 1.287 . S
C308 C309 1.524 . S
C308 H327 0.913 . S
C309 H285 0.950 . S
C309 C308 1.524 . S
C309 C310 1.415 . S
C310 H286 0.950 . S
C310 C305 1.363 . S
C310 C309 1.415 . S
C311 H287 0.951 . S
C311 C312 1.366 . S
C311 C313 1.388 1_545 S
C312 C311 1.366 . S
C312 C316 1.385 1_545 S
C313 H288 0.951 . S
C313 C311 1.388 1_565 S
C313 C314 1.366 . S
C314 C313 1.366 . S
C314 C315 1.414 . S
C314 C317 1.499 . S
C315 H289 0.950 . S
C315 C314 1.414 . S
C315 C316 1.374 . S
C316 H290 0.950 . S
C316 C312 1.385 1_565 S
C316 C315 1.374 . S
C317 C314 1.499 . S
C317 C318 1.373 . S
C317 C319 1.389 . S
C318 H291 0.950 . S
C318 C304 1.377 . S
C318 C317 1.373 . S
C319 C303 1.377 . S
C319 C317 1.389 . S
C319 C320 1.524 . S
C320 C319 1.524 . S
C320 C321 1.397 . S
C320 C325 1.363 . S
C321 H292 0.950 . S
C321 C320 1.397 . S
C321 C322 1.334 . S
C322 H293 0.950 1_565 S
C322 C321 1.334 . S
C322 C323 1.287 . S
C323 C322 1.287 . S
C323 C324 1.524 . S
C323 H326 0.999 1_565 S
C324 H294 0.950 . S
C324 C323 1.524 . S
C324 C325 1.415 . S
C325 H295 0.950 . S
C325 C320 1.363 . S
C325 C324 1.415 . S
H326 C323 0.999 1_545 S
H327 C308 0.913 . S
H328 C346 0.951 . S
H329 C348 0.951 . S
H330 C350 0.950 . S
H331 C351 0.950 . S
H332 C353 0.950 . S
H333 C356 0.950 . S
H334 C357 0.950 . S
H335 C359 0.950 . S
H336 C360 0.950 . S
H337 C361 0.951 1_455 S
H338 C363 0.951 . S
H339 C365 0.950 . S
H340 C366 0.950 . S
H341 C368 0.950 . S
H342 C371 0.950 . S
H343 C372 0.950 . S
H344 C374 0.950 . S
H345 C375 0.950 . S
C346 H328 0.951 . S
C346 C347 1.366 . S
C346 C348 1.388 . S
C347 C346 1.366 . S
C347 C351 1.385 . S
C348 H329 0.951 . S
C348 C346 1.388 . S
C348 C349 1.366 . S
C349 C348 1.366 . S
C349 C350 1.414 . S
C349 C352 1.499 . S
C350 H330 0.950 . S
C350 C349 1.414 . S
C350 C351 1.374 . S
C351 H331 0.950 . S
C351 C347 1.385 . S
C351 C350 1.374 . S
C352 C349 1.499 . S
C352 C353 1.373 . S
C352 C354 1.389 . S
C353 H332 0.950 . S
C353 C352 1.373 . S
C353 C369 1.377 . S
C354 C352 1.389 . S
C354 C355 1.524 . S
C354 C368 1.377 . S
C355 C354 1.524 . S
C355 C356 1.397 . S
C355 C360 1.363 . S
C356 H333 0.950 . S
C356 C355 1.397 . S
C356 C357 1.334 . S
C357 H334 0.950 . S
C357 C356 1.334 . S
C357 C358 1.287 . S
C358 C357 1.287 . S
C358 C359 1.524 . S
C358 H377 0.913 . S
C359 H335 0.950 . S
C359 C358 1.524 . S
C359 C360 1.415 . S
C360 H336 0.950 . S
C360 C355 1.363 . S
C360 C359 1.415 . S
C361 H337 0.951 1_655 S
C361 C362 1.366 . S
C361 C363 1.388 . S
C362 C361 1.366 . S
C362 C366 1.385 . S
C363 H338 0.951 . S
C363 C361 1.388 . S
C363 C364 1.366 . S
C364 C363 1.366 . S
C364 C365 1.414 . S
C364 C367 1.499 . S
C365 H339 0.950 . S
C365 C364 1.414 . S
C365 C366 1.374 . S
C366 H340 0.950 . S
C366 C362 1.385 . S
C366 C365 1.374 . S
C367 C364 1.499 . S
C367 C368 1.373 . S
C367 C369 1.389 . S
C368 H341 0.950 . S
C368 C354 1.377 . S
C368 C367 1.373 . S
C369 C353 1.377 . S
C369 C367 1.389 . S
C369 C370 1.524 . S
C370 C369 1.524 . S
C370 C371 1.397 . S
C370 C375 1.363 . S
C371 H342 0.950 . S
C371 C370 1.397 . S
C371 C372 1.334 . S
C372 H343 0.950 . S
C372 C371 1.334 . S
C372 C373 1.287 . S
C373 C372 1.287 . S
C373 C374 1.524 . S
C373 H376 0.999 . S
C374 H344 0.950 . S
C374 C373 1.524 . S
C374 C375 1.415 . S
C375 H345 0.950 . S
C375 C370 1.363 . S
C375 C374 1.415 . S
H376 C373 0.999 . S
H377 C358 0.913 . S
H378 C396 0.951 . S
H379 C398 0.951 . S
H380 C400 0.950 . S
H381 C401 0.950 . S
H382 C403 0.950 . S
H383 C406 0.950 . S
H384 C407 0.950 . S
H385 C409 0.950 . S
H386 C410 0.950 . S
H387 C411 0.951 . S
H388 C413 0.951 . S
H389 C415 0.950 . S
H390 C416 0.950 . S
H391 C418 0.950 . S
H392 C421 0.950 . S
H393 C422 0.950 . S
H394 C424 0.950 . S
H395 C425 0.950 . S
C396 H378 0.951 . S
C396 C397 1.366 . S
C396 C398 1.388 . S
C397 C396 1.366 . S
C397 C401 1.385 . S
C398 H379 0.951 . S
C398 C396 1.388 . S
C398 C399 1.366 . S
C399 C398 1.366 . S
C399 C400 1.414 . S
C399 C402 1.499 . S
C400 H380 0.950 . S
C400 C399 1.414 . S
C400 C401 1.374 . S
C401 H381 0.950 . S
C401 C397 1.385 . S
C401 C400 1.374 . S
C402 C399 1.499 . S
C402 C403 1.373 . S
C402 C404 1.389 . S
C403 H382 0.950 . S
C403 C402 1.373 . S
C403 C419 1.377 . S
C404 C402 1.389 . S
C404 C405 1.524 . S
C404 C418 1.377 . S
C405 C404 1.524 . S
C405 C406 1.397 . S
C405 C410 1.363 . S
C406 H383 0.950 . S
C406 C405 1.397 . S
C406 C407 1.334 . S
C407 H384 0.950 . S
C407 C406 1.334 . S
C407 C408 1.287 . S
C408 C407 1.287 . S
C408 C409 1.524 . S
C408 H427 0.913 . S
C409 H385 0.950 . S
C409 C408 1.524 . S
C409 C410 1.415 . S
C410 H386 0.950 . S
C410 C405 1.363 . S
C410 C409 1.415 . S
C411 H387 0.951 . S
C411 C412 1.366 . S
C411 C413 1.388 . S
C412 C411 1.366 . S
C412 C416 1.385 . S
C413 H388 0.951 . S
C413 C411 1.388 . S
C413 C414 1.366 . S
C414 C413 1.366 . S
C414 C415 1.414 . S
C414 C417 1.499 . S
C415 H389 0.950 . S
C415 C414 1.414 . S
C415 C416 1.374 . S
C416 H390 0.950 . S
C416 C412 1.385 . S
C416 C415 1.374 . S
C417 C414 1.499 . S
C417 C418 1.373 . S
C417 C419 1.389 . S
C418 H391 0.950 . S
C418 C404 1.377 . S
C418 C417 1.373 . S
C419 C403 1.377 . S
C419 C417 1.389 . S
C419 C420 1.524 . S
C420 C419 1.524 . S
C420 C421 1.397 . S
C420 C425 1.363 . S
C421 H392 0.950 . S
C421 C420 1.397 . S
C421 C422 1.334 . S
C422 H393 0.950 . S
C422 C421 1.334 . S
C422 C423 1.287 . S
C423 C422 1.287 . S
C423 C424 1.524 . S
C423 H426 0.999 . S
C424 H394 0.950 . S
C424 C423 1.524 . S
C424 C425 1.415 . S
C425 H395 0.950 . S
C425 C420 1.363 . S
C425 C424 1.415 . S
H426 C423 0.999 . S
H427 C408 0.913 . S
H428 C446 0.951 . S
H429 C448 0.951 . S
H430 C450 0.950 . S
H431 C451 0.950 . S
H432 C453 0.950 . S
H433 C456 0.950 . S
H434 C457 0.950 . S
H435 C459 0.950 . S
H436 C460 0.950 . S
H437 C461 0.951 . S
H438 C463 0.951 . S
H439 C465 0.950 . S
H440 C466 0.950 . S
H441 C468 0.950 . S
H442 C471 0.950 . S
H443 C472 0.950 . S
H444 C474 0.950 . S
H445 C475 0.950 . S
C446 H428 0.951 . S
C446 C447 1.366 . S
C446 C448 1.388 . S
C447 C446 1.366 . S
C447 C451 1.385 . S
C448 H429 0.951 . S
C448 C446 1.388 . S
C448 C449 1.366 . S
C449 C448 1.366 . S
C449 C450 1.414 . S
C449 C452 1.499 . S
C450 H430 0.950 . S
C450 C449 1.414 . S
C450 C451 1.374 . S
C451 H431 0.950 . S
C451 C447 1.385 . S
C451 C450 1.374 . S
C452 C449 1.499 . S
C452 C453 1.373 . S
C452 C454 1.389 . S
C453 H432 0.950 . S
C453 C452 1.373 . S
C453 C469 1.377 . S
C454 C452 1.389 . S
C454 C455 1.524 . S
C454 C468 1.377 . S
C455 C454 1.524 . S
C455 C456 1.397 . S
C455 C460 1.363 . S
C456 H433 0.950 . S
C456 C455 1.397 . S
C456 C457 1.334 . S
C457 H434 0.950 . S
C457 C456 1.334 . S
C457 C458 1.287 . S
C458 C457 1.287 . S
C458 C459 1.524 . S
C458 H477 0.913 . S
C459 H435 0.950 . S
C459 C458 1.524 . S
C459 C460 1.415 . S
C460 H436 0.950 . S
C460 C455 1.363 . S
C460 C459 1.415 . S
C461 H437 0.951 . S
C461 C462 1.366 . S
C461 C463 1.388 . S
C462 C461 1.366 . S
C462 C466 1.385 . S
C463 H438 0.951 . S
C463 C461 1.388 . S
C463 C464 1.366 . S
C464 C463 1.366 . S
C464 C465 1.414 . S
C464 C467 1.499 . S
C465 H439 0.950 . S
C465 C464 1.414 . S
C465 C466 1.374 . S
C466 H440 0.950 . S
C466 C462 1.385 . S
C466 C465 1.374 . S
C467 C464 1.499 . S
C467 C468 1.373 . S
C467 C469 1.389 . S
C468 H441 0.950 . S
C468 C454 1.377 . S
C468 C467 1.373 . S
C469 C453 1.377 . S
C469 C467 1.389 . S
C469 C470 1.524 . S
C470 C469 1.524 . S
C470 C471 1.397 . S
C470 C475 1.363 . S
C471 H442 0.950 . S
C471 C470 1.397 . S
C471 C472 1.334 . S
C472 H443 0.950 . S
C472 C471 1.334 . S
C472 C473 1.287 . S
C473 C472 1.287 . S
C473 C474 1.524 . S
C473 H476 1.012 . S
C474 H444 0.950 . S
C474 C473 1.524 . S
C474 C475 1.415 . S
C475 H445 0.950 . S
C475 C470 1.363 . S
C475 C474 1.415 . S
H476 C473 1.012 . S
H477 C458 0.913 . S
H478 C496 0.951 . S
H479 C498 0.951 . S
H480 C500 0.950 . S
H481 C501 0.950 . S
H482 C503 0.950 . S
H483 C506 0.950 . S
H484 C507 0.950 . S
H485 C509 0.950 . S
H486 C510 0.950 . S
H487 C511 0.951 . S
H488 C513 0.951 . S
H489 C515 0.950 . S
H490 C516 0.950 . S
H491 C518 0.950 . S
H492 C521 0.950 . S
H493 C522 0.950 . S
H494 C524 0.950 . S
H495 C525 0.950 1_455 S
C496 H478 0.951 . S
C496 C497 1.366 . S
C496 C498 1.388 . S
C497 C496 1.366 . S
C497 C501 1.385 1_545 S
C498 H479 0.951 . S
C498 C496 1.388 . S
C498 C499 1.366 . S
C499 C498 1.366 . S
C499 C500 1.414 1_545 S
C499 C502 1.499 . S
C500 H480 0.950 . S
C500 C499 1.414 1_565 S
C500 C501 1.374 . S
C501 H481 0.950 . S
C501 C497 1.385 1_565 S
C501 C500 1.374 . S
C502 C499 1.499 . S
C502 C503 1.373 1_545 S
C502 C504 1.389 . S
C503 H482 0.950 . S
C503 C502 1.373 1_565 S
C503 C519 1.377 . S
C504 C502 1.389 . S
C504 C505 1.524 . S
C504 C518 1.377 . S
C505 C504 1.524 . S
C505 C506 1.397 . S
C505 C510 1.363 . S
C506 H483 0.950 . S
C506 C505 1.397 . S
C506 C507 1.334 . S
C507 H484 0.950 . S
C507 C506 1.334 . S
C507 C508 1.287 . S
C508 C507 1.287 . S
C508 C509 1.524 . S
C508 H527 0.913 . S
C509 H485 0.950 . S
C509 C508 1.524 . S
C509 C510 1.415 . S
C510 H486 0.950 . S
C510 C505 1.363 . S
C510 C509 1.415 . S
C511 H487 0.951 . S
C511 C512 1.358 1_565 S
C511 C513 1.388 . S
C512 C511 1.358 1_545 S
C512 C516 1.394 . S
C513 H488 0.951 . S
C513 C511 1.388 . S
C513 C514 1.366 1_565 S
C514 C513 1.366 1_545 S
C514 C515 1.414 . S
C514 C517 1.499 . S
C515 H489 0.950 . S
C515 C514 1.414 . S
C515 C516 1.374 . S
C516 H490 0.950 . S
C516 C512 1.394 . S
C516 C515 1.374 . S
C517 C514 1.499 . S
C517 C518 1.373 . S
C517 C519 1.389 1_545 S
C518 H491 0.950 . S
C518 C504 1.377 . S
C518 C517 1.373 . S
C519 C503 1.377 . S
C519 C517 1.389 1_565 S
C519 C520 1.524 1_455 S
C520 C519 1.524 1_655 S
C520 C521 1.397 . S
C520 C525 1.363 . S
C521 H492 0.950 . S
C521 C520 1.397 . S
C521 C522 1.334 . S
C522 H493 0.950 . S
C522 C521 1.334 . S
C522 C523 1.287 . S
C523 C522 1.287 . S
C523 C524 1.524 . S
C523 H526 0.999 . S
C524 H494 0.950 . S
C524 C523 1.524 . S
C524 C525 1.415 . S
C525 H495 0.950 1_655 S
C525 C520 1.363 . S
C525 C524 1.415 . S
H526 C523 0.999 . S
H527 C508 0.913 . S
H528 C546 0.951 . S
H529 C548 0.951 . S
H530 C550 0.950 . S
H531 C551 0.950 . S
H532 C553 0.950 1_565 S
H533 C556 0.950 . S
H534 C557 0.950 . S
H535 C559 0.950 . S
H536 C560 0.950 . S
H537 C561 0.951 . S
H538 C563 0.951 . S
H539 C565 0.950 . S
H540 C566 0.950 . S
H541 C568 0.950 . S
H542 C571 0.950 . S
H543 C572 0.950 . S
H544 C574 0.950 . S
H545 C575 0.950 . S
C546 H528 0.951 . S
C546 C547 1.366 . S
C546 C548 1.388 . S
C547 C546 1.366 . S
C547 C551 1.385 1_455 S
C548 H529 0.951 . S
C548 C546 1.388 . S
C548 C549 1.366 . S
C549 C548 1.366 . S
C549 C550 1.414 1_455 S
C549 C552 1.499 . S
C550 H530 0.950 . S
C550 C549 1.414 1_655 S
C550 C551 1.374 . S
C551 H531 0.950 . S
C551 C547 1.385 1_655 S
C551 C550 1.374 . S
C552 C549 1.499 . S
C552 C553 1.373 . S
C552 C554 1.389 . S
C553 H532 0.950 1_545 S
C553 C552 1.373 . S
C553 C569 1.377 . S
C554 C552 1.389 . S
C554 C555 1.524 . S
C554 C568 1.377 . S
C555 C554 1.524 . S
C555 C556 1.397 1_455 S
C555 C560 1.363 . S
C556 H533 0.950 . S
C556 C555 1.397 1_655 S
C556 C557 1.334 . S
C557 H534 0.950 . S
C557 C556 1.334 . S
C557 C558 1.287 1_655 S
C558 C557 1.287 1_455 S
C558 C559 1.524 . S
C558 H577 0.913 . S
C559 H535 0.950 . S
C559 C558 1.524 . S
C559 C560 1.415 . S
C560 H536 0.950 . S
C560 C555 1.363 . S
C560 C559 1.415 . S
C561 H537 0.951 . S
C561 C562 1.366 1_655 S
C561 C563 1.388 . S
C562 C561 1.366 1_455 S
C562 C566 1.385 . S
C563 H538 0.951 . S
C563 C561 1.388 . S
C563 C564 1.366 1_655 S
C564 C563 1.366 1_455 S
C564 C565 1.414 . S
C564 C567 1.499 . S
C565 H539 0.950 . S
C565 C564 1.414 . S
C565 C566 1.374 . S
C566 H540 0.950 . S
C566 C562 1.385 . S
C566 C565 1.374 . S
C567 C564 1.499 . S
C567 C568 1.373 . S
C567 C569 1.389 . S
C568 H541 0.950 . S
C568 C554 1.377 . S
C568 C567 1.373 . S
C569 C553 1.377 . S
C569 C567 1.389 . S
C569 C570 1.524 1_545 S
C570 C569 1.524 1_565 S
C570 C571 1.397 . S
C570 C575 1.363 1_455 S
C571 H542 0.950 . S
C571 C570 1.397 . S
C571 C572 1.334 . S
C572 H543 0.950 . S
C572 C571 1.334 . S
C572 C573 1.287 . S
C573 C572 1.287 . S
C573 C574 1.524 1_455 S
C573 H576 0.999 . S
C574 H544 0.950 . S
C574 C573 1.524 1_655 S
C574 C575 1.415 . S
C575 H545 0.950 . S
C575 C570 1.363 1_655 S
C575 C574 1.415 . S
H576 C573 0.999 . S
H577 C558 0.913 . S
H578 C596 0.951 . S
H579 C598 0.951 . S
H580 C600 0.950 . S
H581 C601 0.950 . S
H582 C603 0.950 . S
H583 C606 0.950 . S
H584 C607 0.950 . S
H585 C609 0.950 . S
H586 C610 0.950 . S
H587 C611 0.951 . S
H588 C613 0.951 . S
H589 C615 0.950 . S
H590 C616 0.950 . S
H591 C618 0.950 . S
H592 C621 0.950 . S
H593 C622 0.950 . S
H594 C624 0.950 . S
H595 C625 0.950 . S
C596 H578 0.951 . S
C596 C597 1.366 . S
C596 C598 1.388 . S
C597 C596 1.366 . S
C597 C601 1.385 . S
C598 H579 0.951 . S
C598 C596 1.388 . S
C598 C599 1.366 . S
C599 C598 1.366 . S
C599 C600 1.414 . S
C599 C602 1.499 . S
C600 H580 0.950 . S
C600 C599 1.414 . S
C600 C601 1.374 . S
C601 H581 0.950 . S
C601 C597 1.385 . S
C601 C600 1.374 . S
C602 C599 1.499 . S
C602 C603 1.373 . S
C602 C604 1.389 . S
C603 H582 0.950 . S
C603 C602 1.373 . S
C603 C619 1.377 . S
C604 C602 1.389 . S
C604 C605 1.524 . S
C604 C618 1.377 . S
C605 C604 1.524 . S
C605 C606 1.397 . S
C605 C610 1.363 . S
C606 H583 0.950 . S
C606 C605 1.397 . S
C606 C607 1.334 . S
C607 H584 0.950 . S
C607 C606 1.334 . S
C607 C608 1.287 . S
C608 C607 1.287 . S
C608 C609 1.524 . S
C608 H627 0.913 . S
C609 H585 0.950 . S
C609 C608 1.524 . S
C609 C610 1.415 . S
C610 H586 0.950 . S
C610 C605 1.363 . S
C610 C609 1.415 . S
C611 H587 0.951 . S
C611 C612 1.366 . S
C611 C613 1.388 . S
C612 C611 1.366 . S
C612 C616 1.385 . S
C613 H588 0.951 . S
C613 C611 1.388 . S
C613 C614 1.366 . S
C614 C613 1.366 . S
C614 C615 1.414 . S
C614 C617 1.499 . S
C615 H589 0.950 . S
C615 C614 1.414 . S
C615 C616 1.374 . S
C616 H590 0.950 . S
C616 C612 1.385 . S
C616 C615 1.374 . S
C617 C614 1.499 . S
C617 C618 1.373 . S
C617 C619 1.389 . S
C618 H591 0.950 . S
C618 C604 1.377 . S
C618 C617 1.373 . S
C619 C603 1.377 . S
C619 C617 1.389 . S
C619 C620 1.524 . S
C620 C619 1.524 . S
C620 C621 1.397 . S
C620 C625 1.363 . S
C621 H592 0.950 . S
C621 C620 1.397 . S
C621 C622 1.334 . S
C622 H593 0.950 . S
C622 C621 1.334 . S
C622 C623 1.287 . S
C623 C622 1.287 . S
C623 C624 1.524 . S
C623 H626 0.999 . S
C624 H594 0.950 . S
C624 C623 1.524 . S
C624 C625 1.415 . S
C625 H595 0.950 . S
C625 C620 1.363 . S
C625 C624 1.415 . S
H626 C623 0.999 . S
H627 C608 0.913 . S
H628 C646 0.951 . S
H629 C648 0.951 . S
H630 C650 0.950 . S
H631 C651 0.950 . S
H632 C653 0.950 . S
H633 C656 0.950 . S
H634 C657 0.950 . S
H635 C659 0.950 . S
H636 C660 0.950 . S
H637 C661 0.951 . S
H638 C663 0.951 . S
H639 C665 0.950 . S
H640 C666 0.950 . S
H641 C668 0.950 . S
H642 C671 0.950 . S
H643 C672 0.950 . S
H644 C674 0.950 . S
H645 C675 0.950 . S
C646 H628 0.951 . S
C646 C647 1.366 . S
C646 C648 1.388 . S
C647 C646 1.366 . S
C647 C651 1.385 . S
C648 H629 0.951 . S
C648 C646 1.388 . S
C648 C649 1.366 . S
C649 C648 1.366 . S
C649 C650 1.414 . S
C649 C652 1.499 . S
C650 H630 0.950 . S
C650 C649 1.414 . S
C650 C651 1.374 . S
C651 H631 0.950 . S
C651 C647 1.385 . S
C651 C650 1.374 . S
C652 C649 1.499 . S
C652 C653 1.373 . S
C652 C654 1.389 . S
C653 H632 0.950 . S
C653 C652 1.373 . S
C653 C669 1.377 . S
C654 C652 1.389 . S
C654 C655 1.524 . S
C654 C668 1.377 . S
C655 C654 1.524 . S
C655 C656 1.397 . S
C655 C660 1.363 . S
C656 H633 0.950 . S
C656 C655 1.397 . S
C656 C657 1.334 . S
C657 H634 0.950 . S
C657 C656 1.334 . S
C657 C658 1.287 . S
C658 C657 1.287 . S
C658 C659 1.524 . S
C658 H677 0.913 . S
C659 H635 0.950 . S
C659 C658 1.524 . S
C659 C660 1.415 . S
C660 H636 0.950 . S
C660 C655 1.363 . S
C660 C659 1.415 . S
C661 H637 0.951 . S
C661 C662 1.366 . S
C661 C663 1.388 . S
C662 C661 1.366 . S
C662 C666 1.385 . S
C663 H638 0.951 . S
C663 C661 1.388 . S
C663 C664 1.366 . S
C664 C663 1.366 . S
C664 C665 1.414 . S
C664 C667 1.499 . S
C665 H639 0.950 . S
C665 C664 1.414 . S
C665 C666 1.374 . S
C666 H640 0.950 . S
C666 C662 1.385 . S
C666 C665 1.374 . S
C667 C664 1.499 . S
C667 C668 1.373 . S
C667 C669 1.389 . S
C668 H641 0.950 . S
C668 C654 1.377 . S
C668 C667 1.373 . S
C669 C653 1.377 . S
C669 C667 1.389 . S
C669 C670 1.524 . S
C670 C669 1.524 . S
C670 C671 1.397 . S
C670 C675 1.363 . S
C671 H642 0.950 . S
C671 C670 1.397 . S
C671 C672 1.334 . S
C672 H643 0.950 . S
C672 C671 1.334 . S
C672 C673 1.287 . S
C673 C672 1.287 . S
C673 C674 1.524 . S
C673 H676 0.999 . S
C674 H644 0.950 . S
C674 C673 1.524 . S
C674 C675 1.415 . S
C675 H645 0.950 . S
C675 C670 1.363 . S
C675 C674 1.415 . S
H676 C673 0.999 . S
H677 C658 0.913 . S
C112 C73 1.310 . S
C97 C16 1.123 . S
C147 C15 1.379 . S
C162 C64 1.383 . S
C197 C13 1.235 . S
C212 C76 1.377 . S
C247 C14 1.239 . S
C262 C67 1.291 . S
C297 C37 1.126 . S
C312 C55 1.310 . S
C347 C36 1.380 . S
C362 C46 1.384 1_655 S
C412 C58 1.377 . S
C397 C34 1.233 . S
C462 C49 1.291 . S
C447 C35 1.239 . S
C497 C17 1.507 . S
C512 C47 1.551 1_545 S
C547 C18 1.360 . S
C562 C56 1.410 . S
C612 C65 1.553 . S
C597 C38 1.506 . S
C647 C39 1.361 . S
C662 C74 1.410 . S
