# Generated by pormake.
# Topology rtl, (3,6)-cn, num edge types: 1
# Building blocks:
#     Node 0, Type 0, BuildingBlock: INOVEN_clean_linker_0, # of connection points: 3
#     Node 1, Type 0, BuildingBlock: INOVEN_clean_linker_0, # of connection points: 3
#     Node 2, Type 0, BuildingBlock: INOVEN_clean_linker_0, # of connection points: 3
#     Node 3, Type 0, BuildingBlock: INOVEN_clean_linker_0, # of connection points: 3
#     Node 4, Type 1, BuildingBlock: CIFDUS_clean_sbu_1, # of connection points: 6
#     Node 5, Type 1, BuildingBlock: CIFDUS_clean_sbu_1, # of connection points: 6
#     Edge 6, Type (0, 1), BuildingBlock: EZIPEK_clean_linker_0, # of connection points: 2
#     Edge 7, Type (0, 1), BuildingBlock: EZIPEK_clean_linker_0, # of connection points: 2
#     Edge 8, Type (0, 1), BuildingBlock: EZIPEK_clean_linker_0, # of connection points: 2
#     Edge 9, Type (0, 1), BuildingBlock: EZIPEK_clean_linker_0, # of connection points: 2
#     Edge 10, Type (0, 1), BuildingBlock: EZIPEK_clean_linker_0, # of connection points: 2
#     Edge 11, Type (0, 1), BuildingBlock: EZIPEK_clean_linker_0, # of connection points: 2
#     Edge 12, Type (0, 1), BuildingBlock: EZIPEK_clean_linker_0, # of connection points: 2
#     Edge 13, Type (0, 1), BuildingBlock: EZIPEK_clean_linker_0, # of connection points: 2
#     Edge 14, Type (0, 1), BuildingBlock: EZIPEK_clean_linker_0, # of connection points: 2
#     Edge 15, Type (0, 1), BuildingBlock: EZIPEK_clean_linker_0, # of connection points: 2
#     Edge 16, Type (0, 1), BuildingBlock: EZIPEK_clean_linker_0, # of connection points: 2
#     Edge 17, Type (0, 1), BuildingBlock: EZIPEK_clean_linker_0, # of connection points: 2
# Relax obj value: 0.016
# Max RMSD: 0.108
# Mean RMSD: 0.079
data_MOF--net-rtl--node1-CIFDUS_clean_sbu_1--node2-INOVEN_clean_linker_0--edge1-EZIPEK_clean_linker_0
_symmetry_space_group_name_H-M    P1
_symmetry_Int_Tables_number       1
_symmetry_cell_setting            triclinic
loop_
_symmetry_equiv_pos_as_xyz
'x, y, z'
_cell_length_a     26.111279
_cell_length_b     26.06459
_cell_length_c     15.69327
_cell_angle_alpha  90.733899
_cell_angle_beta   100.78004
_cell_angle_gamma 90.310642
loop_
_atom_site_label
_atom_site_type_symbol
_atom_site_fract_x
_atom_site_fract_y
_atom_site_fract_z
_atom_type_partial_charge
H0 H 0.2301 0.82843 0.97587 0.0
H1 H 0.11981 0.90727 0.10032 0.0
H2 H 0.24305 0.82448 0.2524 0.0
N3 N 0.28092 0.78486 0.11516 0.0
N4 N 0.29805 0.75882 0.18061 0.0
C5 C 0.21766 0.84318 0.03326 0.0
C6 C 0.17833 0.88111 0.02726 0.0
C7 C 0.24079 0.82196 0.1135 0.0
C8 C 0.22403 0.83818 0.18959 0.0
C9 C 0.18107 0.87078 0.18376 0.0
C10 C 0.15643 0.88806 0.10238 0.0
H11 H 0.69923 0.75013 0.75509 0.0
H12 H 0.62043 0.63362 0.58165 0.0
H13 H 0.72734 0.73628 0.49313 0.0
N14 N 0.75673 0.78729 0.64761 0.0
N15 N 0.78656 0.79805 0.59684 0.0
C16 C 0.6919 0.73106 0.69219 0.0
C17 C 0.65694 0.68926 0.67675 0.0
C18 C 0.71869 0.74742 0.62742 0.0
C19 C 0.7076 0.72376 0.54418 0.0
C20 C 0.67067 0.6838 0.52676 0.0
C21 C 0.64731 0.66591 0.59419 0.0
H22 H 0.80045 0.21808 0.84501 0.0
H23 H 0.88494 0.11522 0.03207 0.0
H24 H 0.78683 0.23032 0.11408 0.0
N25 N 0.74883 0.26577 0.95101 0.0
N26 N 0.72235 0.28347 1.00282 0.0
C27 C 0.80982 0.20396 0.9107 0.0
C28 C 0.84533 0.16357 0.93031 0.0
C29 C 0.78661 0.22676 0.97543 0.0
C30 C 0.80212 0.21122 0.06258 0.0
C31 C 0.83831 0.17131 0.08328 0.0
C32 C 0.85736 0.14621 1.01619 0.0
H33 H 0.31201 0.31263 0.34639 0.0
H34 H 0.40894 0.41231 0.52966 0.0
H35 H 0.29579 0.31451 0.61499 0.0
N36 N 0.26157 0.26858 0.45602 0.0
N37 N 0.23687 0.2511 0.51005 0.0
C38 C 0.32422 0.32686 0.41232 0.0
C39 C 0.36348 0.36447 0.43058 0.0
C40 C 0.30046 0.30748 0.47834 0.0
C41 C 0.3153 0.3274 0.56389 0.0
C42 C 0.35461 0.36534 0.58272 0.0
C43 C 0.37914 0.38262 0.51591 0.0
O44 O 0.97138 0.06895 0.44574 0.0
Mn45 Mn 0.01169 0.02229 0.54589 0.0
O46 O 0.92192 0.01588 0.34957 0.0
Mn47 Mn 0.94799 0.95637 0.40238 0.0
O48 O 0.05038 0.97581 0.64664 0.0
O49 O 0.06813 0.0787 0.57104 0.0
Mn50 Mn 0.07649 0.08941 0.68358 0.0
O51 O 0.96638 0.05389 0.63302 0.0
O52 O 0.09981 0.03009 0.74038 0.0
O53 O 0.05851 0.98918 0.46427 0.0
O54 O 0.00933 0.93279 0.37532 0.0
O55 O 0.12296 0.13314 0.65231 0.0
O56 O 0.01576 0.11636 0.70576 0.0
C57 C 0.92091 0.92997 0.51215 0.0
C58 C 0.93724 0.06067 0.37593 0.0
C59 C 0.0837 0.98509 0.71663 0.0
C60 C 0.10402 0.11446 0.57591 0.0
C61 C 0.97316 0.09153 0.68831 0.0
C62 C 0.05309 0.9536 0.40566 0.0
O63 O 0.95639 0.96579 0.51655 0.0
O64 O 0.90306 0.91086 0.4357 0.0
O65 O 0.54915 0.56805 0.16528 0.0
Mn66 Mn 0.50849 0.52684 0.0537 0.0
O67 O 0.62049 0.52395 0.21043 0.0
Mn68 Mn 0.58305 0.4667 0.16973 0.0
O69 O 0.46743 0.48655 0.94174 0.0
O70 O 0.45338 0.58499 0.05379 0.0
Mn71 Mn 0.43249 0.58985 0.9404 0.0
O72 O 0.54936 0.56823 0.97343 0.0
O73 O 0.39657 0.53188 0.89667 0.0
O74 O 0.46715 0.48495 0.13158 0.0
O75 O 0.52977 0.44613 0.22472 0.0
O76 O 0.39406 0.63787 0.97833 0.0
O77 O 0.48663 0.61242 0.88937 0.0
C78 C 0.59869 0.43103 0.06267 0.0
C79 C 0.59423 0.56384 0.21433 0.0
C80 C 0.4228 0.49195 0.89157 0.0
C81 C 0.41847 0.62165 0.05257 0.0
C82 C 0.53413 0.59935 0.91105 0.0
C83 C 0.48215 0.4565 0.19748 0.0
O84 O 0.56342 0.46788 0.0548 0.0
O85 O 0.6217 0.41707 0.13927 0.0
C86 C 0.21417 0.15951 0.49416 0.0
C87 C 0.19875 0.21154 0.48728 0.0
C88 C 0.10755 0.18584 0.47853 0.0
C89 C 0.12458 0.13586 0.50256 0.0
N90 N 0.18755 0.07003 0.50254 0.0
N91 N 0.13168 0.27446 0.45526 0.0
C92 C 0.17576 0.12094 0.49754 0.0
C93 C 0.1453 0.22457 0.47169 0.0
N94 N 0.26584 0.14792 0.5041 0.0
N95 N 0.0557 0.1963 0.46989 0.0
H96 H 0.15941 0.30275 0.45034 0.0
H97 H 0.09362 0.28785 0.44477 0.0
H98 H 0.02879 0.16747 0.47648 0.0
H99 H 0.03917 0.23193 0.45413 0.0
H100 H 0.2808 0.11131 0.51664 0.0
H101 H 0.29425 0.17589 0.50164 0.0
H102 H 0.22346 0.05503 0.49593 0.0
H103 H 0.15905 0.0425 0.50755 0.0
C104 C 0.38754 0.73734 0.16342 0.0
C105 C 0.33793 0.72187 0.17828 0.0
C106 C 0.35915 0.63175 0.15687 0.0
C107 C 0.40536 0.64782 0.12969 0.0
N108 N 0.47156 0.71157 0.1307 0.0
N109 N 0.28255 0.65574 0.21603 0.0
C110 C 0.42258 0.69936 0.14287 0.0
C111 C 0.32625 0.66924 0.1854 0.0
N112 N 0.39997 0.78836 0.16665 0.0
N113 N 0.34482 0.58124 0.14742 0.0
H114 H 0.25787 0.6832 0.23524 0.0
H115 H 0.27276 0.61812 0.22804 0.0
H116 H 0.36909 0.55373 0.12718 0.0
H117 H 0.30924 0.56683 0.15746 0.0
H118 H 0.43363 0.80341 0.14989 0.0
H119 H 0.37559 0.81604 0.18603 0.0
H120 H 0.4885 0.74783 0.1417 0.0
H121 H 0.49646 0.68344 0.11421 0.0
C122 C 0.87787 0.82457 0.62988 0.0
C123 C 0.82452 0.83807 0.61463 0.0
C124 C 0.84787 0.92691 0.58916 0.0
C125 C 0.89879 0.91051 0.5854 0.0
N126 N 0.96743 0.85054 0.62555 0.0
N127 N 0.75782 0.9022 0.58816 0.0
C128 C 0.91566 0.86163 0.61588 0.0
C129 C 0.80937 0.88982 0.59971 0.0
N130 N 0.89125 0.77542 0.653 0.0
N131 N 0.83644 0.9776 0.57711 0.0
H132 H 0.72905 0.8755 0.59509 0.0
H133 H 0.74317 0.93818 0.56932 0.0
H134 H 0.86499 0.00395 0.5674 0.0
H135 H 0.80093 0.99388 0.58287 0.0
H136 H 0.92906 0.76142 0.66285 0.0
H137 H 0.86353 0.74845 0.66389 0.0
H138 H 0.98379 0.81554 0.64623 0.0
H139 H 0.99452 0.87838 0.61532 0.0
C140 C 0.69994 0.37417 0.97148 0.0
C141 C 0.68438 0.32239 0.97874 0.0
C142 C 0.59524 0.35002 0.98245 0.0
C143 C 0.61314 0.40143 0.99008 0.0
N144 N 0.67372 0.46401 0.95937 0.0
N145 N 0.61645 0.25948 0.97068 0.0
C146 C 0.6624 0.41376 0.97116 0.0
C147 C 0.63127 0.30991 0.97589 0.0
N148 N 0.75112 0.38549 0.97233 0.0
N149 N 0.54495 0.34024 0.99023 0.0
H150 H 0.64293 0.2301 0.9664 0.0
H151 H 0.57826 0.24669 0.96651 0.0
H152 H 0.51939 0.37022 0.99587 0.0
H153 H 0.52871 0.30381 0.99134 0.0
H154 H 0.76613 0.42267 0.97533 0.0
H155 H 0.77933 0.35722 0.97368 0.0
H156 H 0.70793 0.47662 0.94112 0.0
H157 H 0.64601 0.49257 0.96159 0.0
C158 C 0.13366 0.85802 0.30876 0.0
C159 C 0.16167 0.89044 0.2616 0.0
C160 C 0.12757 0.96658 0.32543 0.0
C161 C 0.09866 0.93408 0.3711 0.0
N162 N 0.08834 0.85052 0.42963 0.0
N163 N 0.19889 0.97387 0.24685 0.0
C164 C 0.10674 0.88025 0.37072 0.0
C165 C 0.16339 0.94424 0.27799 0.0
N166 N 0.12972 0.80661 0.29053 0.0
N167 N 0.11821 0.01812 0.32172 0.0
H168 H 0.22576 0.95826 0.21235 0.0
H169 H 0.20514 0.01263 0.26265 0.0
H170 H 0.09222 0.03616 0.35502 0.0
H171 H 0.13368 0.0426 0.2809 0.0
H172 H 0.10466 0.78224 0.31563 0.0
H173 H 0.14875 0.78876 0.2456 0.0
H174 H 0.09673 0.81165 0.43752 0.0
H175 H 0.06934 0.86614 0.47677 0.0
C176 C 0.65324 0.65388 0.8275 0.0
C177 C 0.62774 0.66986 0.74366 0.0
C178 C 0.54937 0.62564 0.76592 0.0
C179 C 0.57039 0.61871 0.85499 0.0
N180 N 0.64245 0.63533 0.97413 0.0
N181 N 0.54499 0.68431 0.64828 0.0
C182 C 0.6225 0.63539 0.88735 0.0
C183 C 0.57359 0.66038 0.7181 0.0
N184 N 0.70635 0.65364 0.84892 0.0
N185 N 0.50808 0.59675 0.72518 0.0
H186 H 0.56071 0.71278 0.61445 0.0
H187 H 0.50462 0.67974 0.6311 0.0
H188 H 0.49429 0.56553 0.75538 0.0
H189 H 0.49351 0.59905 0.65873 0.0
H190 H 0.72628 0.63796 0.90637 0.0
H191 H 0.73037 0.66389 0.80578 0.0
H192 H 0.67862 0.65157 1.00045 0.0
H193 H 0.62117 0.62365 0.02038 0.0
C194 C 0.83108 0.12698 0.22363 0.0
C195 C 0.86045 0.1569 0.17488 0.0
C196 C 0.94131 0.13508 0.2752 0.0
C197 C 0.91215 0.10356 0.32194 0.0
N198 N 0.82907 0.08351 0.35901 0.0
N199 N 0.93954 0.20411 0.1723 0.0
C200 C 0.8568 0.1046 0.30235 0.0
C201 C 0.91434 0.16597 0.20719 0.0
N202 N 0.77951 0.11724 0.19229 0.0
N203 N 0.9945 0.13287 0.29112 0.0
H204 H 0.91999 0.22814 0.12442 0.0
H205 H 0.97782 0.21535 0.19717 0.0
H206 H 0.01566 0.11078 0.3402 0.0
H207 H 0.01747 0.15042 0.25213 0.0
H208 H 0.75761 0.09076 0.21977 0.0
H209 H 0.75928 0.13338 0.13549 0.0
H210 H 0.78877 0.08657 0.3524 0.0
H211 H 0.84727 0.06747 0.41748 0.0
C212 C 0.39359 0.37145 0.74465 0.0
C213 C 0.3657 0.39373 0.66768 0.0
C214 C 0.38086 0.47875 0.73432 0.0
C215 C 0.40441 0.4569 0.81516 0.0
N216 N 0.42083 0.38038 0.90084 0.0
N217 N 0.31787 0.46634 0.60209 0.0
C218 C 0.40734 0.40251 0.82156 0.0
C219 C 0.35426 0.44659 0.66719 0.0
N220 N 0.40818 0.32129 0.74393 0.0
N221 N 0.38644 0.52975 0.7184 0.0
H222 H 0.29629 0.44341 0.55306 0.0
H223 H 0.30504 0.50414 0.60284 0.0
H224 H 0.40899 0.55521 0.76153 0.0
H225 H 0.37398 0.54553 0.65736 0.0
H226 H 0.43323 0.30458 0.79548 0.0
H227 H 0.39812 0.29752 0.6893 0.0
H228 H 0.41919 0.3409 0.90982 0.0
H229 H 0.42859 0.40171 0.95853 0.0
C230 C 0.66325 0.6031 0.439 0.0
C231 C 0.65737 0.65692 0.44052 0.0
C232 C 0.61315 0.6522 0.28724 0.0
C233 C 0.6118 0.59784 0.2919 0.0
N234 N 0.62017 0.52427 0.38653 0.0
N235 N 0.61881 0.73266 0.36822 0.0
C236 C 0.63253 0.574 0.37191 0.0
C237 C 0.63027 0.68174 0.36503 0.0
N238 N 0.6977 0.57954 0.5025 0.0
N239 N 0.5997 0.67558 0.20906 0.0
H240 H 0.6301 0.75538 0.42375 0.0
H241 H 0.59454 0.75119 0.31782 0.0
H242 H 0.58781 0.65505 0.15125 0.0
H243 H 0.60457 0.71482 0.20101 0.0
H244 H 0.70582 0.54045 0.5002 0.0
H245 H 0.72205 0.60007 0.55176 0.0
H246 H 0.63151 0.50694 0.44658 0.0
H247 H 0.5929 0.50287 0.34316 0.0
C248 C 0.85057 0.12369 0.78184 0.0
C249 C 0.87538 0.14324 0.86473 0.0
C250 C 0.95828 0.11193 0.83667 0.0
C251 C 0.93615 0.10208 0.74818 0.0
N252 N 0.86048 0.10585 0.63346 0.0
N253 N 0.95679 0.1705 0.95509 0.0
C254 C 0.88186 0.10964 0.71954 0.0
C255 C 0.93042 0.14157 0.88762 0.0
N256 N 0.79778 0.11702 0.76335 0.0
N257 N 0.00595 0.0929 0.87277 0.0
H258 H 0.93839 0.19741 0.98846 0.0
H259 H 0.99741 0.17258 0.96965 0.0
H260 H 0.02696 0.0686 0.83901 0.0
H261 H 0.02134 0.0965 0.93892 0.0
H262 H 0.77854 0.09888 0.70668 0.0
H263 H 0.77403 0.12486 0.80837 0.0
H264 H 0.82196 0.11561 0.60873 0.0
H265 H 0.88243 0.09714 0.5862 0.0
C266 C 0.41949 0.35625 0.31638 0.0
C267 C 0.38746 0.38677 0.3602 0.0
C268 C 0.4137 0.46387 0.29058 0.0
C269 C 0.44369 0.43294 0.24379 0.0
N270 N 0.46386 0.34884 0.19433 0.0
N271 N 0.3429 0.46687 0.37052 0.0
C272 C 0.44277 0.37876 0.25087 0.0
C273 C 0.38093 0.43977 0.34122 0.0
N274 N 0.43021 0.30668 0.34052 0.0
N275 N 0.41881 0.51609 0.29118 0.0
H276 H 0.31728 0.44999 0.40574 0.0
H277 H 0.33333 0.50441 0.35216 0.0
H278 H 0.44287 0.53527 0.25579 0.0
H279 H 0.40227 0.54015 0.33197 0.0
H280 H 0.4579 0.28462 0.31721 0.0
H281 H 0.41497 0.2889 0.38954 0.0
H282 H 0.46009 0.30901 0.19115 0.0
H283 H 0.48044 0.36423 0.1446 0.0
C284 C 0.11289 0.94264 0.9385 0.0
C285 C 0.1567 0.90985 0.9432 0.0
C286 C 0.14848 0.92056 0.78453 0.0
C287 C 0.09987 0.94479 0.78173 0.0
N288 N 0.02981 0.96634 0.85494 0.0
N289 N 0.2314 0.90001 0.87411 0.0
C290 C 0.07956 0.94983 0.85823 0.0
C291 C 0.17893 0.90638 0.86654 0.0
N292 N 0.11015 0.97684 1.00396 0.0
N293 N 0.16577 0.91218 0.70874 0.0
H294 H 0.25656 0.90305 0.93401 0.0
H295 H 0.25075 0.90055 0.82184 0.0
H296 H 0.14386 0.92287 0.649 0.0
H297 H 0.19867 0.8906 0.70445 0.0
H298 H 0.08089 0.00435 0.99964 0.0
H299 H 0.14142 0.98268 0.05544 0.0
H300 H 0.01337 0.96937 0.91054 0.0
H301 H 0.00456 0.97258 0.79606 0.0
loop_
_geom_bond_atom_site_label_1
_geom_bond_atom_site_label_2
_geom_bond_distance
_geom_bond_site_symmetry_2
_ccdc_geom_bond_type
H0 C5 0.929 . S
H1 C10 0.931 . S
H2 C8 0.930 . S
N3 N4 1.234 . S
N3 C7 1.453 . S
N4 N3 1.234 . S
C5 H0 0.929 . S
C5 C6 1.373 . S
C5 C7 1.368 1_556 S
C6 C5 1.373 . S
C6 C10 1.397 1_556 S
C7 N3 1.453 . S
C7 C5 1.368 1_554 S
C7 C8 1.373 . S
C8 H2 0.930 . S
C8 C7 1.373 . S
C8 C9 1.371 . S
C9 C8 1.371 . S
C9 C10 1.383 . S
C10 H1 0.931 . S
C10 C6 1.397 1_554 S
C10 C9 1.383 . S
H11 C16 0.929 . S
H12 C21 0.931 . S
H13 C19 0.930 . S
N14 N15 1.234 . S
N14 C18 1.453 . S
N15 N14 1.234 . S
C16 H11 0.929 . S
C16 C17 1.373 . S
C16 C18 1.368 . S
C17 C16 1.373 . S
C17 C21 1.397 . S
C18 N14 1.453 . S
C18 C16 1.368 . S
C18 C19 1.373 . S
C19 H13 0.930 . S
C19 C18 1.373 . S
C19 C20 1.371 . S
C20 C19 1.371 . S
C20 C21 1.383 . S
C21 H12 0.931 . S
C21 C17 1.397 . S
C21 C20 1.383 . S
H22 C27 0.929 . S
H23 C32 0.932 . S
H24 C30 0.930 . S
N25 N26 1.234 1_556 S
N25 C29 1.453 . S
N26 N25 1.234 1_554 S
C27 H22 0.929 . S
C27 C28 1.373 . S
C27 C29 1.368 . S
C28 C27 1.373 . S
C28 C32 1.385 1_556 S
C29 N25 1.453 . S
C29 C27 1.368 . S
C29 C30 1.373 1_556 S
C30 H24 0.930 . S
C30 C29 1.373 1_554 S
C30 C31 1.371 . S
C31 C30 1.371 . S
C31 C32 1.395 . S
C32 H23 0.932 . S
C32 C28 1.385 1_554 S
C32 C31 1.395 . S
H33 C38 0.929 . S
H34 C43 0.931 . S
H35 C41 0.930 . S
N36 N37 1.234 . S
N36 C40 1.453 . S
N37 N36 1.234 . S
C38 H33 0.929 . S
C38 C39 1.373 . S
C38 C40 1.368 . S
C39 C38 1.373 . S
C39 C43 1.397 . S
C40 N36 1.453 . S
C40 C38 1.368 . S
C40 C41 1.373 . S
C41 H35 0.930 . S
C41 C40 1.373 . S
C41 C42 1.371 . S
C42 C41 1.371 . S
C42 C43 1.383 . S
C43 H34 0.931 . S
C43 C39 1.397 . S
C43 C42 1.383 . S
O44 Mn45 2.163 1_655 S
O44 C58 1.244 . S
Mn45 O44 2.163 1_455 S
Mn45 O48 2.160 1_545 S
Mn45 O49 2.221 . S
Mn45 O51 2.163 1_455 S
Mn45 O53 2.160 1_545 S
Mn45 O63 2.221 1_445 S
O46 Mn47 2.087 1_545 S
O46 C58 1.256 . S
Mn47 O46 2.087 1_565 S
Mn47 O54 2.089 1_655 S
Mn47 O63 2.290 . S
Mn47 O64 2.251 . S
O48 Mn45 2.160 1_565 S
O48 C59 1.239 . S
O49 Mn45 2.221 . S
O49 Mn50 2.290 . S
O49 C60 1.278 . S
Mn50 O49 2.290 . S
Mn50 O52 2.089 . S
Mn50 O55 2.251 . S
Mn50 O56 2.087 . S
O51 Mn45 2.163 1_655 S
O51 C61 1.244 . S
O52 Mn50 2.089 . S
O52 C59 1.256 1_545 S
O53 Mn45 2.160 1_565 S
O53 C62 1.239 . S
O54 Mn47 2.089 1_455 S
O54 C62 1.256 . S
O55 Mn50 2.251 . S
O55 C60 1.241 . S
O56 Mn50 2.087 . S
O56 C61 1.256 1_455 S
C57 O63 1.278 . S
C57 O64 1.241 . S
C58 O44 1.244 . S
C58 O46 1.256 . S
C59 O48 1.239 . S
C59 O52 1.256 1_565 S
C60 O49 1.278 . S
C60 O55 1.241 . S
C61 O51 1.244 . S
C61 O56 1.256 1_655 S
C62 O53 1.239 . S
C62 O54 1.256 . S
O63 Mn45 2.221 1_665 S
O63 Mn47 2.290 . S
O63 C57 1.278 . S
O64 Mn47 2.251 . S
O64 C57 1.241 . S
O65 Mn66 2.163 . S
O65 C79 1.244 . S
Mn66 O65 2.163 . S
Mn66 O69 2.160 1_554 S
Mn66 O70 2.221 . S
Mn66 O72 2.163 1_554 S
Mn66 O74 2.160 . S
Mn66 O84 2.221 . S
O67 Mn68 2.087 . S
O67 C79 1.256 . S
Mn68 O67 2.087 . S
Mn68 O75 2.089 . S
Mn68 O84 2.290 . S
Mn68 O85 2.251 . S
O69 Mn66 2.160 1_556 S
O69 C80 1.239 . S
O70 Mn66 2.221 . S
O70 Mn71 2.290 1_554 S
O70 C81 1.278 . S
Mn71 O70 2.290 1_556 S
Mn71 O73 2.089 . S
Mn71 O76 2.251 . S
Mn71 O77 2.087 . S
O72 Mn66 2.163 1_556 S
O72 C82 1.244 . S
O73 Mn71 2.089 . S
O73 C80 1.256 . S
O74 Mn66 2.160 . S
O74 C83 1.239 . S
O75 Mn68 2.089 . S
O75 C83 1.256 . S
O76 Mn71 2.251 . S
O76 C81 1.241 1_556 S
O77 Mn71 2.087 . S
O77 C82 1.256 . S
C78 O84 1.278 . S
C78 O85 1.241 . S
C79 O65 1.244 . S
C79 O67 1.256 . S
C80 O69 1.239 . S
C80 O73 1.256 . S
C81 O70 1.278 . S
C81 O76 1.241 1_554 S
C82 O72 1.244 . S
C82 O77 1.256 . S
C83 O74 1.239 . S
C83 O75 1.256 . S
O84 Mn66 2.221 . S
O84 Mn68 2.290 . S
O84 C78 1.278 . S
O85 Mn68 2.251 . S
O85 C78 1.241 . S
C86 C87 1.363 . S
C86 C92 1.379 . S
C86 N94 1.356 . S
C87 C86 1.363 . S
C87 C93 1.363 . S
C88 C89 1.363 . S
C88 C93 1.379 . S
C88 N95 1.356 . S
C89 C88 1.363 . S
C89 C92 1.363 . S
N90 C92 1.356 . S
N90 H102 0.984 . S
N90 H103 0.985 . S
N91 C93 1.356 . S
N91 H96 0.984 . S
N91 H97 0.985 . S
C92 C86 1.379 . S
C92 C89 1.363 . S
C92 N90 1.356 . S
C93 C87 1.363 . S
C93 C88 1.379 . S
C93 N91 1.356 . S
N94 C86 1.356 . S
N94 H100 0.984 . S
N94 H101 0.984 . S
N95 C88 1.356 . S
N95 H98 0.984 . S
N95 H99 0.985 . S
H96 N91 0.984 . S
H97 N91 0.985 . S
H98 N95 0.984 . S
H99 N95 0.985 . S
H100 N94 0.984 . S
H101 N94 0.984 . S
H102 N90 0.984 . S
H103 N90 0.985 . S
C104 C105 1.363 . S
C104 C110 1.379 . S
C104 N112 1.356 . S
C105 C104 1.363 . S
C105 C111 1.363 . S
C106 C107 1.363 . S
C106 C111 1.379 . S
C106 N113 1.356 . S
C107 C106 1.363 . S
C107 C110 1.363 . S
N108 C110 1.356 . S
N108 H120 0.984 . S
N108 H121 0.985 . S
N109 C111 1.356 . S
N109 H114 0.984 . S
N109 H115 0.985 . S
C110 C104 1.379 . S
C110 C107 1.363 . S
C110 N108 1.356 . S
C111 C105 1.363 . S
C111 C106 1.379 . S
C111 N109 1.356 . S
N112 C104 1.356 . S
N112 H118 0.984 . S
N112 H119 0.984 . S
N113 C106 1.356 . S
N113 H116 0.984 . S
N113 H117 0.985 . S
H114 N109 0.984 . S
H115 N109 0.985 . S
H116 N113 0.984 . S
H117 N113 0.985 . S
H118 N112 0.984 . S
H119 N112 0.984 . S
H120 N108 0.984 . S
H121 N108 0.985 . S
C122 C123 1.363 . S
C122 C128 1.379 . S
C122 N130 1.356 . S
C123 C122 1.363 . S
C123 C129 1.363 . S
C124 C125 1.363 . S
C124 C129 1.379 . S
C124 N131 1.356 . S
C125 C124 1.363 . S
C125 C128 1.363 . S
N126 C128 1.356 . S
N126 H138 0.984 . S
N126 H139 0.985 . S
N127 C129 1.356 . S
N127 H132 0.984 . S
N127 H133 0.985 . S
C128 C122 1.379 . S
C128 C125 1.363 . S
C128 N126 1.356 . S
C129 C123 1.363 . S
C129 C124 1.379 . S
C129 N127 1.356 . S
N130 C122 1.356 . S
N130 H136 0.984 . S
N130 H137 0.984 . S
N131 C124 1.356 . S
N131 H134 0.984 . S
N131 H135 0.985 . S
H132 N127 0.984 . S
H133 N127 0.985 . S
H134 N131 0.984 . S
H135 N131 0.985 . S
H136 N130 0.984 . S
H137 N130 0.984 . S
H138 N126 0.984 . S
H139 N126 0.985 . S
C140 C141 1.363 1_556 S
C140 C146 1.379 . S
C140 N148 1.356 . S
C141 C140 1.363 1_554 S
C141 C147 1.363 . S
C142 C143 1.363 . S
C142 C147 1.379 . S
C142 N149 1.356 . S
C143 C142 1.363 . S
C143 C146 1.363 1_554 S
N144 C146 1.356 . S
N144 H156 0.984 . S
N144 H157 0.985 . S
N145 C147 1.356 . S
N145 H150 0.984 . S
N145 H151 0.985 . S
C146 C140 1.379 . S
C146 C143 1.363 1_556 S
C146 N144 1.356 . S
C147 C141 1.363 . S
C147 C142 1.379 . S
C147 N145 1.356 . S
N148 C140 1.356 . S
N148 H154 0.984 . S
N148 H155 0.984 . S
N149 C142 1.356 . S
N149 H152 0.984 . S
N149 H153 0.985 . S
H150 N145 0.984 . S
H151 N145 0.985 . S
H152 N149 0.984 . S
H153 N149 0.985 . S
H154 N148 0.984 . S
H155 N148 0.984 . S
H156 N144 0.984 . S
H157 N144 0.985 . S
C158 C159 1.363 . S
C158 C164 1.379 . S
C158 N166 1.356 . S
C159 C158 1.363 . S
C159 C165 1.363 . S
C160 C161 1.363 . S
C160 C165 1.379 . S
C160 N167 1.356 1_565 S
C161 C160 1.363 . S
C161 C164 1.363 . S
N162 C164 1.356 . S
N162 H174 0.984 . S
N162 H175 0.985 . S
N163 C165 1.356 . S
N163 H168 0.984 . S
N163 H169 0.985 . S
C164 C158 1.379 . S
C164 C161 1.363 . S
C164 N162 1.356 . S
C165 C159 1.363 . S
C165 C160 1.379 . S
C165 N163 1.356 . S
N166 C158 1.356 . S
N166 H172 0.984 . S
N166 H173 0.984 . S
N167 C160 1.356 1_545 S
N167 H170 0.984 . S
N167 H171 0.985 . S
H168 N163 0.984 . S
H169 N163 0.985 . S
H170 N167 0.984 . S
H171 N167 0.985 . S
H172 N166 0.984 . S
H173 N166 0.984 . S
H174 N162 0.984 . S
H175 N162 0.985 . S
C176 C177 1.363 . S
C176 C182 1.379 . S
C176 N184 1.356 . S
C177 C176 1.363 . S
C177 C183 1.363 . S
C178 C179 1.363 . S
C178 C183 1.379 . S
C178 N185 1.356 . S
C179 C178 1.363 . S
C179 C182 1.363 . S
N180 C182 1.356 . S
N180 H192 0.984 . S
N180 H193 0.985 . S
N181 C183 1.356 . S
N181 H186 0.984 . S
N181 H187 0.985 . S
C182 C176 1.379 . S
C182 C179 1.363 . S
C182 N180 1.356 . S
C183 C177 1.363 . S
C183 C178 1.379 . S
C183 N181 1.356 . S
N184 C176 1.356 . S
N184 H190 0.984 . S
N184 H191 0.984 . S
N185 C178 1.356 . S
N185 H188 0.984 . S
N185 H189 0.985 . S
H186 N181 0.984 . S
H187 N181 0.985 . S
H188 N185 0.984 . S
H189 N185 0.985 . S
H190 N184 0.984 . S
H191 N184 0.984 . S
H192 N180 0.984 . S
H193 N180 0.985 . S
C194 C195 1.363 . S
C194 C200 1.379 . S
C194 N202 1.356 . S
C195 C194 1.363 . S
C195 C201 1.363 . S
C196 C197 1.363 . S
C196 C201 1.379 . S
C196 N203 1.356 1_655 S
C197 C196 1.363 . S
C197 C200 1.363 . S
N198 C200 1.356 . S
N198 H210 0.984 . S
N198 H211 0.985 . S
N199 C201 1.356 . S
N199 H204 0.984 . S
N199 H205 0.985 . S
C200 C194 1.379 . S
C200 C197 1.363 . S
C200 N198 1.356 . S
C201 C195 1.363 . S
C201 C196 1.379 . S
C201 N199 1.356 . S
N202 C194 1.356 . S
N202 H208 0.984 . S
N202 H209 0.984 . S
N203 C196 1.356 1_455 S
N203 H206 0.984 . S
N203 H207 0.985 . S
H204 N199 0.984 . S
H205 N199 0.985 . S
H206 N203 0.984 . S
H207 N203 0.985 . S
H208 N202 0.984 . S
H209 N202 0.984 . S
H210 N198 0.984 . S
H211 N198 0.985 . S
C212 C213 1.363 . S
C212 C218 1.379 . S
C212 N220 1.356 . S
C213 C212 1.363 . S
C213 C219 1.363 . S
C214 C215 1.363 . S
C214 C219 1.379 . S
C214 N221 1.356 . S
C215 C214 1.363 . S
C215 C218 1.363 . S
N216 C218 1.356 . S
N216 H228 0.984 . S
N216 H229 0.985 . S
N217 C219 1.356 . S
N217 H222 0.984 . S
N217 H223 0.985 . S
C218 C212 1.379 . S
C218 C215 1.363 . S
C218 N216 1.356 . S
C219 C213 1.363 . S
C219 C214 1.379 . S
C219 N217 1.356 . S
N220 C212 1.356 . S
N220 H226 0.984 . S
N220 H227 0.984 . S
N221 C214 1.356 . S
N221 H224 0.984 . S
N221 H225 0.985 . S
H222 N217 0.984 . S
H223 N217 0.985 . S
H224 N221 0.984 . S
H225 N221 0.985 . S
H226 N220 0.984 . S
H227 N220 0.984 . S
H228 N216 0.984 . S
H229 N216 0.985 . S
C230 C231 1.363 . S
C230 C236 1.379 . S
C230 N238 1.356 . S
C231 C230 1.363 . S
C231 C237 1.363 . S
C232 C233 1.363 . S
C232 C237 1.379 . S
C232 N239 1.356 . S
C233 C232 1.363 . S
C233 C236 1.363 . S
N234 C236 1.356 . S
N234 H246 0.984 . S
N234 H247 0.985 . S
N235 C237 1.356 . S
N235 H240 0.984 . S
N235 H241 0.985 . S
C236 C230 1.379 . S
C236 C233 1.363 . S
C236 N234 1.356 . S
C237 C231 1.363 . S
C237 C232 1.379 . S
C237 N235 1.356 . S
N238 C230 1.356 . S
N238 H244 0.984 . S
N238 H245 0.984 . S
N239 C232 1.356 . S
N239 H242 0.984 . S
N239 H243 0.985 . S
H240 N235 0.984 . S
H241 N235 0.985 . S
H242 N239 0.984 . S
H243 N239 0.985 . S
H244 N238 0.984 . S
H245 N238 0.984 . S
H246 N234 0.984 . S
H247 N234 0.985 . S
C248 C249 1.363 . S
C248 C254 1.379 . S
C248 N256 1.356 . S
C249 C248 1.363 . S
C249 C255 1.363 . S
C250 C251 1.363 . S
C250 C255 1.379 . S
C250 N257 1.356 . S
C251 C250 1.363 . S
C251 C254 1.363 . S
N252 C254 1.356 . S
N252 H264 0.984 . S
N252 H265 0.985 . S
N253 C255 1.356 . S
N253 H258 0.984 . S
N253 H259 0.985 . S
C254 C248 1.379 . S
C254 C251 1.363 . S
C254 N252 1.356 . S
C255 C249 1.363 . S
C255 C250 1.379 . S
C255 N253 1.356 . S
N256 C248 1.356 . S
N256 H262 0.984 . S
N256 H263 0.984 . S
N257 C250 1.356 . S
N257 H260 0.984 . S
N257 H261 0.985 1_655 S
H258 N253 0.984 . S
H259 N253 0.985 . S
H260 N257 0.984 . S
H261 N257 0.985 1_455 S
H262 N256 0.984 . S
H263 N256 0.984 . S
H264 N252 0.984 . S
H265 N252 0.985 . S
C266 C267 1.363 . S
C266 C272 1.379 . S
C266 N274 1.356 . S
C267 C266 1.363 . S
C267 C273 1.363 . S
C268 C269 1.363 . S
C268 C273 1.379 . S
C268 N275 1.356 . S
C269 C268 1.363 . S
C269 C272 1.363 . S
N270 C272 1.356 . S
N270 H282 0.984 . S
N270 H283 0.985 . S
N271 C273 1.356 . S
N271 H276 0.984 . S
N271 H277 0.985 . S
C272 C266 1.379 . S
C272 C269 1.363 . S
C272 N270 1.356 . S
C273 C267 1.363 . S
C273 C268 1.379 . S
C273 N271 1.356 . S
N274 C266 1.356 . S
N274 H280 0.984 . S
N274 H281 0.984 . S
N275 C268 1.356 . S
N275 H278 0.984 . S
N275 H279 0.985 . S
H276 N271 0.984 . S
H277 N271 0.985 . S
H278 N275 0.984 . S
H279 N275 0.985 . S
H280 N274 0.984 . S
H281 N274 0.984 . S
H282 N270 0.984 . S
H283 N270 0.985 . S
C284 C285 1.363 . S
C284 C290 1.379 . S
C284 N292 1.348 1_556 S
C285 C284 1.363 . S
C285 C291 1.363 . S
C286 C287 1.363 . S
C286 C291 1.379 . S
C286 N293 1.356 . S
C287 C286 1.363 . S
C287 C290 1.363 . S
N288 C290 1.356 . S
N288 H300 0.984 1_565 S
N288 H301 0.987 . S
N289 C291 1.356 . S
N289 H294 0.984 . S
N289 H295 0.985 . S
C290 C284 1.379 . S
C290 C287 1.363 . S
C290 N288 1.356 . S
C291 C285 1.363 . S
C291 C286 1.379 . S
C291 N289 1.356 . S
N292 C284 1.348 1_554 S
N292 H298 0.988 . S
N292 H299 0.989 . S
N293 C286 1.356 . S
N293 H296 0.984 . S
N293 H297 0.985 . S
H294 N289 0.984 . S
H295 N289 0.985 . S
H296 N293 0.984 . S
H297 N293 0.985 . S
H298 N292 0.988 . S
H299 N292 0.989 . S
H300 N288 0.984 1_545 S
H301 N288 0.987 . S
C89 C60 1.258 . S
C87 N37 1.444 . S
C105 N4 1.487 . S
C107 C81 1.309 . S
C123 N15 1.567 . S
C125 C57 1.395 . S
C141 N26 1.569 . S
C143 C78 1.365 . S
C161 C62 1.507 . S
C159 C9 1.500 . S
C179 C82 1.526 . S
C177 C17 1.592 . S
C195 C31 1.579 . S
C197 C58 1.547 . S
C213 C42 1.511 . S
C215 C80 1.455 . S
C233 C79 1.471 . S
C231 C20 1.507 . S
C251 C61 1.457 . S
C249 C28 1.517 . S
C269 C83 1.422 . S
C267 C39 1.452 . S
C285 C6 1.455 . S
C287 C59 1.394 . S
