# Generated by pormake.
# Topology ssa, (4,4)-cn, num edge types: 1
# Building blocks:
#     Node 0, Type 0, BuildingBlock: KOZSID_clean_sbu_0, # of connection points: 4
#     Node 1, Type 0, BuildingBlock: KOZSID_clean_sbu_0, # of connection points: 4
#     Node 2, Type 0, BuildingBlock: KOZSID_clean_sbu_0, # of connection points: 4
#     Node 3, Type 0, BuildingBlock: KOZSID_clean_sbu_0, # of connection points: 4
#     Node 4, Type 0, BuildingBlock: KOZSID_clean_sbu_0, # of connection points: 4
#     Node 5, Type 0, BuildingBlock: KOZSID_clean_sbu_0, # of connection points: 4
#     Node 6, Type 1, BuildingBlock: NAHDIM_clean_linker_0, # of connection points: 4
#     Node 7, Type 1, BuildingBlock: NAHDIM_clean_linker_0, # of connection points: 4
#     Node 8, Type 1, BuildingBlock: NAHDIM_clean_linker_0, # of connection points: 4
#     Node 9, Type 1, BuildingBlock: NAHDIM_clean_linker_0, # of connection points: 4
#     Node 10, Type 1, BuildingBlock: NAHDIM_clean_linker_0, # of connection points: 4
#     Node 11, Type 1, BuildingBlock: NAHDIM_clean_linker_0, # of connection points: 4
#     Edge 12, Type (0, 1), None
#     Edge 13, Type (0, 1), None
#     Edge 14, Type (0, 1), None
#     Edge 15, Type (0, 1), None
#     Edge 16, Type (0, 1), None
#     Edge 17, Type (0, 1), None
#     Edge 18, Type (0, 1), None
#     Edge 19, Type (0, 1), None
#     Edge 20, Type (0, 1), None
#     Edge 21, Type (0, 1), None
#     Edge 22, Type (0, 1), None
#     Edge 23, Type (0, 1), None
#     Edge 24, Type (0, 1), None
#     Edge 25, Type (0, 1), None
#     Edge 26, Type (0, 1), None
#     Edge 27, Type (0, 1), None
#     Edge 28, Type (0, 1), None
#     Edge 29, Type (0, 1), None
#     Edge 30, Type (0, 1), None
#     Edge 31, Type (0, 1), None
#     Edge 32, Type (0, 1), None
#     Edge 33, Type (0, 1), None
#     Edge 34, Type (0, 1), None
#     Edge 35, Type (0, 1), None
# Relax obj value: 0.015
# Max RMSD: 0.053
# Mean RMSD: 0.033
data_MOF--net-ssa--node1-KOZSID_clean_sbu_0--node2-NAHDIM_clean_linker_0--edge1-none
_symmetry_space_group_name_H-M    P1
_symmetry_Int_Tables_number       1
_symmetry_cell_setting            triclinic
loop_
_symmetry_equiv_pos_as_xyz
'x, y, z'
_cell_length_a     41.46971
_cell_length_b     42.800421
_cell_length_c     36.349012
_cell_angle_alpha  86.39984
_cell_angle_beta   90.63186
_cell_angle_gamma 123.27642
loop_
_atom_site_label
_atom_site_type_symbol
_atom_site_fract_x
_atom_site_fract_y
_atom_site_fract_z
_atom_type_partial_charge
C0 C 0.94591 0.50577 0.0105 0.0
C1 C 0.90955 0.49459 0.02367 0.0
C2 C 0.89932 0.467 0.05089 0.0
C3 C 0.92974 0.46273 0.05257 0.0
N4 N 0.95811 0.48495 0.02714 0.0
Co5 Co 0.00822 0.48912 0.02049 0.0
N6 N 0.99556 0.45181 0.06309 0.0
C7 C 0.96344 0.4341 0.08515 0.0
C8 C 0.96307 0.40994 0.11199 0.0
C9 C 0.99623 0.41125 0.10577 0.0
C10 C 0.01474 0.43595 0.07513 0.0
N11 N 0.05877 0.49406 0.01444 0.0
C12 C 0.071 0.47297 0.03042 0.0
C13 C 0.1077 0.48503 0.01733 0.0
C14 C 0.11832 0.51381 0.99151 0.0
C15 C 0.08781 0.51787 0.99022 0.0
N16 N 0.02032 0.52562 0.97724 0.0
C17 C 0.05145 0.54169 0.95409 0.0
C18 C 0.05181 0.56563 0.92702 0.0
C19 C 0.01958 0.56572 0.93401 0.0
C20 C 0.0016 0.54205 0.9654 0.0
N21 N 0.03228 0.53087 0.0539 0.0
C22 C 0.06073 0.59189 0.09859 0.0
C23 C 0.07818 0.59617 0.06433 0.0
C24 C 0.06377 0.5655 0.04268 0.0
C25 C 0.03074 0.55588 0.1112 0.0
C26 C 0.01664 0.52633 0.08837 0.0
N27 N 0.98412 0.4473 0.98721 0.0
C28 C 0.98909 0.41677 0.93574 0.0
C29 C 0.95301 0.38438 0.94493 0.0
C30 C 0.9322 0.38451 0.97478 0.0
C31 C 0.94811 0.41595 0.9953 0.0
C32 C 0.0039 0.44776 0.95696 0.0
H33 H 0.93108 0.41373 0.01817 0.0
H34 H 0.03183 0.47136 0.94893 0.0
H35 H 0.07801 0.57071 0.01663 0.0
H36 H 0.99253 0.50029 0.09914 0.0
C37 C 0.9337 0.43995 0.07906 0.0
C38 C 0.96998 0.53936 0.98603 0.0
C39 C 0.04696 0.43929 0.05506 0.0
C40 C 0.08251 0.53837 0.96214 0.0
H41 H 0.8928 0.50618 0.01555 0.0
H42 H 0.87351 0.45288 0.06838 0.0
H43 H 0.94077 0.39252 0.1328 0.0
H44 H 0.00494 0.39472 0.12117 0.0
H45 H 0.12486 0.47371 0.02425 0.0
H46 H 0.14409 0.52825 0.97396 0.0
H47 H 0.07402 0.58271 0.90602 0.0
H48 H 0.01144 0.5825 0.91833 0.0
H49 H 0.10246 0.62328 0.05395 0.0
H50 H 0.01725 0.55041 0.13818 0.0
H51 H 0.00623 0.41789 0.91279 0.0
H52 H 0.9041 0.35998 0.98292 0.0
C53 C 0.53394 0.00922 0.58591 0.0
C54 C 0.52483 0.98995 0.62033 0.0
C55 C 0.48698 0.96101 0.6197 0.0
C56 C 0.47509 0.96448 0.58522 0.0
N57 N 0.50275 0.99459 0.56435 0.0
Co58 Co 0.49821 0.0111 0.51301 0.0
N59 N 0.44452 0.96605 0.50987 0.0
C60 C 0.42516 0.93667 0.53507 0.0
C61 C 0.38837 0.91038 0.52511 0.0
C62 C 0.38362 0.92451 0.49224 0.0
C63 C 0.41782 0.95891 0.48426 0.0
N64 N 0.49335 0.02804 0.46184 0.0
C65 C 0.46147 0.01477 0.44133 0.0
C66 C 0.4697 0.03544 0.40782 0.0
C67 C 0.50778 0.06388 0.40801 0.0
C68 C 0.5206 0.05881 0.44136 0.0
N69 N 0.55232 0.05577 0.51606 0.0
C70 C 0.57204 0.08467 0.49041 0.0
C71 C 0.60922 0.11026 0.49972 0.0
C72 C 0.61396 0.09616 0.53258 0.0
C73 C 0.57936 0.06231 0.54128 0.0
N74 N 0.51916 0.98336 0.49305 0.0
C75 C 0.55335 0.94687 0.46771 0.0
C76 C 0.56472 0.98244 0.45297 0.0
C77 C 0.54727 -0.00011 0.46574 0.0
C78 C 0.5236 0.92924 0.49453 0.0
C79 C 0.50723 0.94798 0.50692 0.0
N80 N 0.47705 0.03883 0.53268 0.0
C81 C 0.47231 0.09278 0.52853 0.0
C82 C 0.43948 0.07422 0.55164 0.0
C83 C 0.42667 0.0382 0.5664 0.0
C84 C 0.44598 0.02133 0.55693 0.0
C85 C 0.49064 0.07485 0.51968 0.0
H86 H 0.43433 0.99358 0.56852 0.0
H87 H 0.51487 0.09028 0.50122 0.0
H88 H 0.55775 0.02713 0.45362 0.0
H89 H 0.48572 0.93367 0.52835 0.0
C90 C 0.44005 0.93772 0.57008 0.0
C91 C 0.57353 0.03575 0.57215 0.0
C92 C 0.42242 0.98622 0.45511 0.0
C93 C 0.55633 0.08458 0.45606 0.0
H94 H 0.54411 0.99484 0.64275 0.0
H95 H 0.4708 0.93885 0.64103 0.0
H96 H 0.36673 0.88522 0.54099 0.0
H97 H 0.35727 0.91183 0.47696 0.0
H98 H 0.4499 0.03184 0.38637 0.0
H99 H 0.52355 0.0868 0.38729 0.0
H100 H 0.6309 0.13532 0.48373 0.0
H101 H 0.64033 0.10939 0.5476 0.0
H102 H 0.58753 0.99716 0.43201 0.0
H103 H 0.51372 0.90151 0.50658 0.0
H104 H 0.48309 0.12066 0.51628 0.0
H105 H 0.40111 0.02262 0.58423 0.0
C106 C 0.60033 0.55709 0.97559 0.0
C107 C 0.60981 0.57759 0.94174 0.0
C108 C 0.58246 0.58553 0.93556 0.0
C109 C 0.55746 0.56886 0.96536 0.0
N110 N 0.56675 0.55009 0.98982 0.0
Co111 Co 0.53596 0.51872 0.03492 0.0
N112 N 0.49822 0.53373 0.02787 0.0
C113 C 0.50101 0.55979 0.00273 0.0
C114 C 0.47128 0.56486 0.00519 0.0
C115 C 0.44765 0.53995 0.03302 0.0
C116 C 0.46418 0.52063 0.04574 0.0
N117 N 0.50393 0.48577 0.07896 0.0
C118 C 0.46863 0.47631 0.09099 0.0
C119 C 0.45642 0.45228 0.12267 0.0
C120 C 0.48395 0.4447 0.1296 0.0
C121 C 0.51149 0.46476 0.10222 0.0
N122 N 0.57481 0.50506 0.04294 0.0
C123 C 0.5743 0.48204 0.07053 0.0
C124 C 0.60486 0.47813 0.06901 0.0
C125 C 0.62685 0.50088 0.03933 0.0
C126 C 0.6086 0.51786 0.02458 0.0
N127 N 0.56718 0.56187 0.06593 0.0
C128 C 0.61573 0.623 0.10859 0.0
C129 C 0.5995 0.58624 0.12291 0.0
C130 C 0.57575 0.55645 0.10133 0.0
C131 C 0.60662 0.62877 0.07271 0.0
C132 C 0.58218 0.59802 0.05215 0.0
N133 N 0.50495 0.47567 0.00396 0.0
C134 C 0.48073 0.41182 0.99108 0.0
C135 C 0.46141 0.41412 0.96039 0.0
C136 C 0.46403 0.44776 0.95194 0.0
C137 C 0.48588 0.47803 0.9739 0.0
C138 C 0.50176 0.44243 0.01243 0.0
H139 H 0.48681 0.50298 0.96616 0.0
H140 H 0.51501 0.43835 0.03579 0.0
H141 H 0.56546 0.52938 0.11382 0.0
H142 H 0.57649 0.60425 0.02493 0.0
C143 C 0.5279 0.57397 0.97343 0.0
C144 C 0.62557 0.54797 0.99505 0.0
C145 C 0.44489 0.48735 0.07158 0.0
C146 C 0.54447 0.46415 0.09719 0.0
H147 H 0.63438 0.58683 0.92361 0.0
H148 H 0.5817 0.60261 0.91273 0.0
H149 H 0.46609 0.58279 0.98733 0.0
H150 H 0.42036 0.53537 0.04128 0.0
H151 H 0.43014 0.44081 0.13894 0.0
H152 H 0.48355 0.4262 0.15157 0.0
H153 H 0.61075 0.46117 0.08757 0.0
H154 H 0.65382 0.50509 0.03044 0.0
H155 H 0.60606 0.58052 0.15047 0.0
H156 H 0.61878 0.65682 0.06025 0.0
H157 H 0.47944 0.38628 0.99875 0.0
H158 H 0.44936 0.45073 0.92848 0.0
C159 C 0.93688 0.4451 0.54166 0.0
C160 C 0.89923 0.43013 0.53063 0.0
C161 C 0.90077 0.45408 0.50299 0.0
C162 C 0.93899 0.48239 0.49897 0.0
N163 N 0.96175 0.47845 0.52314 0.0
Co164 Co 0.01897 0.5127 0.52709 0.0
N165 N 0.02215 0.54482 0.48298 0.0
C166 C 0.99322 0.53874 0.46067 0.0
C167 C 0.00465 0.56598 0.43262 0.0
C168 C 0.04283 0.59161 0.4382 0.0
C169 C 0.05226 0.57867 0.46982 0.0
N170 N 0.07617 0.54733 0.53127 0.0
C171 C 0.1005 0.58154 0.51392 0.0
C172 C 0.13802 0.59743 0.52569 0.0
C173 C 0.13693 0.57311 0.55263 0.0
C174 C 0.09905 0.54377 0.5556 0.0
N175 N 0.01587 0.48036 0.57101 0.0
C176 C 0.04511 0.4859 0.59262 0.0
C177 C 0.03379 0.45874 0.62071 0.0
C178 C 0.99532 0.43371 0.61594 0.0
C179 C 0.98553 0.44687 0.58472 0.0
N180 N 0.02622 0.4811 0.4947 0.0
C181 C 0.03468 0.43416 0.45016 0.0
C182 C 0.05552 0.44696 0.48228 0.0
C183 C 0.05095 0.47019 0.50388 0.0
C184 C 0.01014 0.44598 0.44029 0.0
C185 C 0.0059 0.46869 0.46305 0.0
N186 N 0.01182 0.5443 0.55947 0.0
C187 C 0.02851 0.57917 0.614 0.0
C188 C 0.00706 0.59406 0.60285 0.0
C189 C 0.98715 0.5829 0.56996 0.0
C190 C 0.98961 0.55788 0.54907 0.0
C191 C 0.03076 0.55487 0.59201 0.0
H192 H 0.974 0.55062 0.5242 0.0
H193 H 0.04882 0.54581 0.60157 0.0
H194 H 0.06758 0.47872 0.52801 0.0
H195 H 0.98582 0.47561 0.45454 0.0
C196 C 0.95495 0.5101 0.46989 0.0
C197 C 0.94874 0.42503 0.56636 0.0
C198 C 0.08798 0.60121 0.4895 0.0
C199 C 0.08326 0.51528 0.58398 0.0
H200 H 0.87353 0.4037 0.53999 0.0
H201 H 0.87714 0.45018 0.4864 0.0
H202 H 0.98686 0.56809 0.4119 0.0
H203 H 0.06103 0.61775 0.42193 0.0
H204 H 0.16326 0.62461 0.5173 0.0
H205 H 0.16048 0.57744 0.5696 0.0
H206 H 0.05166 0.45659 0.6413 0.0
H207 H 0.977 0.40801 0.63278 0.0
H208 H 0.07546 0.43916 0.49074 0.0
H209 H 0.99408 0.43768 0.41517 0.0
H210 H 0.04452 0.58719 0.63921 0.0
H211 H 0.97022 0.59376 0.55997 0.0
C212 C 0.47678 0.0138 0.05794 0.0
C213 C 0.48127 0.04013 0.08165 0.0
C214 C 0.51118 0.07448 0.06741 0.0
C215 C 0.52361 0.06743 0.03606 0.0
N216 N 0.50348 0.0307 0.03008 0.0
Co217 Co 0.51253 0.0083 0.98889 0.0
N218 N 0.56522 0.0528 0.97981 0.0
C219 C 0.57878 0.08751 0.98982 0.0
C220 C 0.6172 0.11209 0.98028 0.0
C221 C 0.62813 0.09123 0.96346 0.0
C222 C 0.59565 0.05501 0.96378 0.0
N223 N 0.52199 0.98622 0.94768 0.0
C224 C 0.55605 0.99409 0.93422 0.0
C225 C 0.55042 0.97213 0.90526 0.0
C226 C 0.51114 0.94967 0.90089 0.0
C227 C 0.49513 0.95923 0.92729 0.0
N228 N 0.4596 0.96379 0.99715 0.0
C229 C 0.43859 0.93939 0.97162 0.0
C230 C 0.40134 0.91354 0.98355 0.0
C231 C 0.39883 0.92247 0.01855 0.0
C232 C 0.43505 0.95332 0.02635 0.0
N233 N 0.4924 0.03014 0.95462 0.0
C234 C 0.45376 0.04572 0.90085 0.0
C235 C 0.48995 0.05208 0.89285 0.0
C236 C 0.50896 0.04431 0.92023 0.0
C237 C 0.43882 0.03427 0.93702 0.0
C238 C 0.4588 0.0271 0.96353 0.0
N239 N 0.53215 0.986 0.02301 0.0
C240 C 0.536 0.93353 0.04257 0.0
C241 C 0.56414 0.955 0.06797 0.0
C242 C 0.57547 0.99218 0.07076 0.0
C243 C 0.55894 0.00708 0.0482 0.0
C244 C 0.52026 0.94947 0.02056 0.0
H245 H 0.5685 0.03592 0.05046 0.0
H246 H 0.49917 0.93254 0.0008 0.0
H247 H 0.53597 0.04773 0.91306 0.0
H248 H 0.44569 0.01683 0.99071 0.0
C249 C 0.5577 0.09311 0.01553 0.0
C250 C 0.44482 0.97385 0.06028 0.0
C251 C 0.59348 0.0231 0.94818 0.0
C252 C 0.45617 0.93896 0.93892 0.0
H253 H 0.46452 0.03536 0.10641 0.0
H254 H 0.5233 0.10116 0.07932 0.0
H255 H 0.63573 0.14103 0.98689 0.0
H256 H 0.65674 0.10143 0.95274 0.0
H257 H 0.57213 0.97201 0.8892 0.0
H258 H 0.49613 0.92767 0.88205 0.0
H259 H 0.37882 0.89056 0.96887 0.0
H260 H 0.37282 0.90812 0.03566 0.0
H261 H 0.50254 0.06125 0.8652 0.0
H262 H 0.41102 0.02917 0.94446 0.0
H263 H 0.52693 0.90488 0.0391 0.0
H264 H 0.59751 0.00982 0.08968 0.0
C265 C 0.53885 0.60586 0.50701 0.0
C266 C 0.52401 0.62601 0.51841 0.0
C267 C 0.49392 0.60246 0.54235 0.0
C268 C 0.49194 0.56938 0.54397 0.0
N269 N 0.51806 0.57001 0.52149 0.0
Co270 Co 0.5268 0.52899 0.5159 0.0
N271 N 0.4886 0.49701 0.5569 0.0
C272 C 0.46853 0.50619 0.5778 0.0
C273 C 0.44596 0.4794 0.605 0.0
C274 C 0.45107 0.45097 0.60068 0.0
C275 C 0.4761 0.46178 0.57037 0.0
N276 N 0.53579 0.48812 0.51025 0.0
C277 C 0.5184 0.45353 0.52779 0.0
C278 C 0.5343 0.43433 0.51603 0.0
C279 C 0.56129 0.45687 0.48919 0.0
C280 C 0.56085 0.48863 0.48627 0.0
N281 N 0.56517 0.56129 0.4751 0.0
C282 C 0.58441 0.55211 0.45312 0.0
C283 C 0.61004 0.58079 0.42875 0.0
C284 C 0.60813 0.61051 0.43656 0.0
C285 C 0.58146 0.59817 0.46559 0.0
N286 N 0.56877 0.55184 0.55185 0.0
C287 C 0.62928 0.58704 0.60189 0.0
C288 C 0.63449 0.57534 0.5687 0.0
C289 C 0.60416 0.55792 0.54433 0.0
C290 C 0.59267 0.57961 0.61003 0.0
C291 C 0.56342 0.56282 0.58458 0.0
N292 N 0.48454 0.50591 0.47991 0.0
C293 C 0.45953 0.47639 0.42254 0.0
C294 C 0.4228 0.46847 0.43123 0.0
C295 C 0.41812 0.48077 0.46419 0.0
C296 C 0.44897 0.49931 0.48778 0.0
C297 C 0.48946 0.49456 0.4472 0.0
H298 H 0.44301 0.5075 0.51242 0.0
H299 H 0.51613 0.49858 0.43929 0.0
H300 H 0.61013 0.54993 0.51942 0.0
H301 H 0.53683 0.55938 0.59186 0.0
C302 C 0.47037 0.5396 0.57025 0.0
C303 C 0.57539 0.62273 0.48642 0.0
C304 C 0.48488 0.43697 0.55335 0.0
C305 C 0.58204 0.51843 0.45993 0.0
H306 H 0.53489 0.65519 0.51165 0.0
H307 H 0.47721 0.60943 0.5585 0.0
H308 H 0.42746 0.48016 0.62522 0.0
H309 H 0.43731 0.42518 0.61795 0.0
H310 H 0.52661 0.4064 0.52468 0.0
H311 H 0.57838 0.4504 0.47297 0.0
H312 H 0.62958 0.58081 0.40924 0.0
H313 H 0.62569 0.63822 0.42312 0.0
H314 H 0.66203 0.5797 0.56155 0.0
H315 H 0.58628 0.58703 0.63558 0.0
H316 H 0.46558 0.46834 0.39722 0.0
H317 H 0.39043 0.47584 0.4719 0.0
C318 C 0.00205 0.37503 0.41593 0.0
C319 C 0.04057 0.41003 0.42587 0.0
C320 C 0.08909 0.43081 0.37598 0.0
C321 C 0.11486 0.46209 0.35285 0.0
C322 C 0.14517 0.46386 0.33388 0.0
C323 C 0.14892 0.43285 0.33716 0.0
C324 C 0.12234 0.40066 0.35983 0.0
C325 C 0.09287 0.40006 0.37924 0.0
C326 C 0.17338 0.4991 0.31068 0.0
C327 C 0.12508 0.36687 0.3636 0.0
C328 C 0.3944 0.42932 0.37496 0.0
C329 C 0.38829 0.44805 0.40651 0.0
C330 C 0.3455 0.46567 0.3784 0.0
C331 C 0.31245 0.42909 0.37748 0.0
C332 C 0.27901 0.42249 0.36017 0.0
C333 C 0.27839 0.45302 0.34384 0.0
C334 C 0.31078 0.48998 0.34651 0.0
C335 C 0.34397 0.49576 0.36363 0.0
C336 C 0.24478 0.38274 0.3581 0.0
C337 C 0.31086 0.52325 0.33 0.0
C338 C 0.35459 0.47239 0.10714 0.0
C339 C 0.32587 0.43438 0.11569 0.0
C340 C 0.29177 0.42393 0.13487 0.0
C341 C 0.28627 0.45196 0.14548 0.0
C342 C 0.31496 0.49015 0.13662 0.0
C343 C 0.34878 0.4998 0.11765 0.0
C344 C 0.26162 0.38298 0.14393 0.0
C345 C 0.30992 0.52079 0.14725 0.0
C346 C 0.02766 0.38641 0.01511 0.0
C347 C 0.04673 0.40381 0.05104 0.0
C348 C 0.1026 0.4124 0.08205 0.0
C349 C 0.10716 0.38305 0.09191 0.0
C350 C 0.1316 0.38608 0.12042 0.0
C351 C 0.15299 0.41991 0.13841 0.0
C352 C 0.14759 0.44936 0.12903 0.0
C353 C 0.12185 0.44493 0.10129 0.0
C354 C 0.136 0.3538 0.12993 0.0
C355 C 0.17059 0.48632 0.14665 0.0
C356 C 0.18116 0.43453 0.31754 0.0
C357 C 0.21323 0.44194 0.33788 0.0
C358 C 0.24549 0.44601 0.32083 0.0
C359 C 0.24641 0.44359 0.28229 0.0
C360 C 0.27894 0.44875 0.26411 0.0
C361 C 0.28027 0.44785 0.22605 0.0
C362 C 0.24889 0.44118 0.20472 0.0
C363 C 0.25056 0.44154 0.16592 0.0
C364 C 0.21868 0.43411 0.14553 0.0
C365 C 0.18482 0.42636 0.16276 0.0
C366 C 0.18276 0.42645 0.20159 0.0
C367 C 0.14937 0.41903 0.21999 0.0
C368 C 0.14857 0.42127 0.25802 0.0
C369 C 0.18096 0.43051 0.27914 0.0
C370 C 0.2141 0.43598 0.26138 0.0
C371 C 0.21515 0.43432 0.22256 0.0
C372 C 0.38259 0.44742 0.03878 0.0
C373 C 0.40091 0.463 0.07571 0.0
O374 O 0.06099 0.43144 0.3942 0.0
O375 O 0.08345 0.41091 0.05116 0.0
O376 O 0.38818 0.48421 0.08877 0.0
O377 O 0.37956 0.47332 0.39232 0.0
H378 H 0.05717 0.40039 0.4415 0.0
H379 H 0.00725 0.35598 0.40161 0.0
H380 H 0.9856 0.3825 0.39723 0.0
H381 H 0.98428 0.35957 0.44131 0.0
H382 H 0.11162 0.48559 0.35035 0.0
H383 H 0.07276 0.37534 0.39651 0.0
H384 H 0.2035 0.50823 0.31691 0.0
H385 H 0.16973 0.52243 0.31525 0.0
H386 H 0.169 0.49341 0.28106 0.0
H387 H 0.0994 0.34234 0.37823 0.0
H388 H 0.15107 0.37385 0.37931 0.0
H389 H 0.12825 0.35897 0.33598 0.0
H390 H 0.36401 0.42568 0.42455 0.0
H391 H 0.36729 0.41218 0.35999 0.0
H392 H 0.40317 0.41034 0.38605 0.0
H393 H 0.41665 0.45076 0.35475 0.0
H394 H 0.31262 0.4054 0.38936 0.0
H395 H 0.36935 0.52391 0.3648 0.0
H396 H 0.21868 0.37988 0.37003 0.0
H397 H 0.24933 0.36206 0.37301 0.0
H398 H 0.23908 0.37593 0.3288 0.0
H399 H 0.33637 0.55023 0.33811 0.0
H400 H 0.28423 0.52136 0.33875 0.0
H401 H 0.31108 0.52319 0.29947 0.0
H402 H 0.39197 0.43857 0.09528 0.0
H403 H 0.32963 0.41269 0.10757 0.0
H404 H 0.37102 0.52899 0.11082 0.0
H405 H 0.25543 0.3777 0.17413 0.0
H406 H 0.27074 0.36456 0.13492 0.0
H407 H 0.23435 0.37526 0.13027 0.0
H408 H 0.33416 0.54904 0.13678 0.0
H409 H 0.30796 0.52021 0.17775 0.0
H410 H 0.28256 0.51597 0.13626 0.0
H411 H 0.02933 0.38212 0.07355 0.0
H412 H 0.99762 0.3795 0.01484 0.0
H413 H 0.02661 0.36013 0.01266 0.0
H414 H 0.04411 0.40592 0.99087 0.0
H415 H 0.09227 0.35813 0.07656 0.0
H416 H 0.11833 0.46766 0.0933 0.0
H417 H 0.13745 0.34978 0.16025 0.0
H418 H 0.16332 0.36008 0.11722 0.0
H419 H 0.11183 0.32726 0.11953 0.0
H420 H 0.16597 0.50762 0.1334 0.0
H421 H 0.20188 0.49746 0.14495 0.0
H422 H 0.16208 0.48219 0.17626 0.0
H423 H 0.2132 0.44482 0.36733 0.0
H424 H 0.30405 0.45409 0.279 0.0
H425 H 0.30629 0.45255 0.21355 0.0
H426 H 0.22047 0.43492 0.11567 0.0
H427 H 0.12372 0.41198 0.20506 0.0
H428 H 0.1223 0.41584 0.27067 0.0
H429 H 0.39477 0.43233 0.02753 0.0
H430 H 0.35096 0.42732 0.04271 0.0
H431 H 0.38754 0.46999 0.0182 0.0
C432 C 0.94209 0.32117 0.94879 0.0
C433 C 0.93766 0.34928 0.92455 0.0
C434 C 0.87635 0.30743 0.89389 0.0
C435 C 0.88974 0.29049 0.87222 0.0
C436 C 0.86438 0.26115 0.85034 0.0
C437 C 0.82521 0.24959 0.84888 0.0
C438 C 0.81204 0.26759 0.86958 0.0
C439 C 0.83774 0.29601 0.89208 0.0
C440 C 0.87941 0.24218 0.82923 0.0
C441 C 0.77068 0.25655 0.86837 0.0
C442 C 0.61991 0.9849 0.96959 0.0
C443 C 0.6284 0.02024 0.94733 0.0
C444 C 0.66408 0.05113 0.89035 0.0
C445 C 0.65465 0.07698 0.87919 0.0
C446 C 0.6811 0.11015 0.85841 0.0
C447 C 0.71739 0.11707 0.84802 0.0
C448 C 0.72648 0.0904 0.85836 0.0
C449 C 0.69948 0.05751 0.87932 0.0
C450 C 0.6703 0.13783 0.84762 0.0
C451 C 0.76472 0.09678 0.84734 0.0
C452 C 0.66313 0.08022 0.60091 0.0
C453 C 0.64817 0.09332 0.62569 0.0
C454 C 0.67268 0.12184 0.6487 0.0
C455 C 0.71264 0.13597 0.64831 0.0
C456 C 0.72737 0.12155 0.6243 0.0
C457 C 0.7025 0.09458 0.60022 0.0
C458 C 0.65583 0.13748 0.67247 0.0
C459 C 0.76953 0.13516 0.62319 0.0
C460 C 0.92273 0.36692 0.53149 0.0
C461 C 0.92603 0.38235 0.56932 0.0
C462 C 0.86707 0.33574 0.6056 0.0
C463 C 0.83263 0.32877 0.62048 0.0
C464 C 0.80751 0.29575 0.64221 0.0
C465 C 0.81736 0.26919 0.64936 0.0
C466 C 0.8522 0.276 0.63447 0.0
C467 C 0.87656 0.30902 0.61247 0.0
C468 C 0.77041 0.28916 0.65743 0.0
C469 C 0.86356 0.2482 0.64167 0.0
C470 C 0.79774 0.21799 0.82661 0.0
C471 C 0.77236 0.18316 0.84524 0.0
C472 C 0.74559 0.1522 0.82619 0.0
C473 C 0.74466 0.15552 0.78734 0.0
C474 C 0.71931 0.12446 0.76723 0.0
C475 C 0.71813 0.12814 0.72903 0.0
C476 C 0.74153 0.16318 0.70957 0.0
C477 C 0.73954 0.16756 0.67088 0.0
C478 C 0.76399 0.20267 0.65242 0.0
C479 C 0.79074 0.23365 0.67138 0.0
C480 C 0.79263 0.23009 0.71011 0.0
C481 C 0.81862 0.26095 0.73013 0.0
C482 C 0.82018 0.25716 0.7683 0.0
C483 C 0.79617 0.22226 0.78784 0.0
C484 C 0.76967 0.1908 0.76817 0.0
C485 C 0.76789 0.19471 0.72927 0.0
C486 C 0.5967 0.99462 0.5576 0.0
C487 C 0.60318 0.02581 0.58123 0.0
O488 O 0.8991 0.33425 0.91734 0.0
O489 O 0.88982 0.36833 0.58473 0.0
O490 O 0.64089 0.0558 0.57552 0.0
O491 O 0.6392 0.01976 0.91159 0.0
H492 H 0.95455 0.35644 0.89828 0.0
H493 H 0.97292 0.3337 0.95527 0.0
H494 H 0.92502 0.31309 0.97503 0.0
H495 H 0.93206 0.29533 0.93453 0.0
H496 H 0.91972 0.2995 0.87257 0.0
H497 H 0.8277 0.30939 0.90865 0.0
H498 H 0.85996 0.21126 0.83385 0.0
H499 H 0.90898 0.25083 0.83729 0.0
H500 H 0.88012 0.24941 0.79927 0.0
H501 H 0.76654 0.27697 0.88135 0.0
H502 H 0.75183 0.22872 0.88332 0.0
H503 H 0.76116 0.25419 0.83942 0.0
H504 H 0.6531 0.04412 0.9609 0.0
H505 H 0.61105 0.98494 0.99825 0.0
H506 H 0.64628 0.98417 0.97052 0.0
H507 H 0.59661 0.95923 0.95713 0.0
H508 H 0.62659 0.07118 0.88661 0.0
H509 H 0.70613 0.03696 0.88777 0.0
H510 H 0.67017 0.1413 0.8171 0.0
H511 H 0.69213 0.16562 0.85764 0.0
H512 H 0.64146 0.12883 0.85898 0.0
H513 H 0.76708 0.07296 0.85693 0.0
H514 H 0.78852 0.12263 0.8591 0.0
H515 H 0.76864 0.10102 0.81687 0.0
H516 H 0.59942 0.01476 0.61046 0.0
H517 H 0.61771 0.08265 0.62583 0.0
H518 H 0.71372 0.0844 0.58077 0.0
H519 H 0.65288 0.12617 0.70142 0.0
H520 H 0.6268 0.12971 0.6634 0.0
H521 H 0.67496 0.16849 0.67199 0.0
H522 H 0.77427 0.11491 0.6107 0.0
H523 H 0.78146 0.14005 0.65128 0.0
H524 H 0.78586 0.16207 0.60618 0.0
H525 H 0.94182 0.37327 0.58683 0.0
H526 H 0.95185 0.38004 0.51837 0.0
H527 H 0.90934 0.33619 0.53473 0.0
H528 H 0.90464 0.37219 0.51281 0.0
H529 H 0.82542 0.34939 0.6149 0.0
H530 H 0.90263 0.31337 0.60068 0.0
H531 H 0.76978 0.28578 0.688 0.0
H532 H 0.74549 0.2628 0.64755 0.0
H533 H 0.76684 0.31251 0.64919 0.0
H534 H 0.89255 0.25847 0.62973 0.0
H535 H 0.84208 0.22146 0.62962 0.0
H536 H 0.86355 0.24213 0.67183 0.0
H537 H 0.77308 0.18023 0.87506 0.0
H538 H 0.70023 0.0969 0.7808 0.0
H539 H 0.69837 0.10319 0.71499 0.0
H540 H 0.76256 0.20584 0.62269 0.0
H541 H 0.8379 0.28845 0.71653 0.0
H542 H 0.84049 0.28196 0.78228 0.0
H543 H 0.60021 0.00388 0.52786 0.0
H544 H 0.56738 0.96904 0.56305 0.0
H545 H 0.61806 0.98729 0.56436 0.0
C546 C 0.63562 0.65907 0.52211 0.0
C547 C 0.60895 0.66196 0.49473 0.0
C548 C 0.62034 0.70033 0.43742 0.0
C549 C 0.58181 0.68824 0.4311 0.0
C550 C 0.57268 0.70676 0.40407 0.0
C551 C 0.60273 0.73875 0.38364 0.0
C552 C 0.64161 0.75093 0.38973 0.0
C553 C 0.64979 0.73094 0.41602 0.0
C554 C 0.53082 0.69253 0.398 0.0
C555 C 0.67453 0.78564 0.36934 0.0
C556 C 0.59535 0.92424 0.48834 0.0
C557 C 0.57403 0.92888 0.45585 0.0
C558 C 0.55491 0.87501 0.41934 0.0
C559 C 0.59212 0.88841 0.40518 0.0
C560 C 0.59849 0.86674 0.3827 0.0
C561 C 0.56719 0.83087 0.37432 0.0
C562 C 0.52963 0.81759 0.38779 0.0
C563 C 0.524 0.83995 0.41004 0.0
C564 C 0.63892 0.88178 0.36864 0.0
C565 C 0.49566 0.7794 0.3794 0.0
C566 C 0.56232 0.88054 0.12637 0.0
C567 C 0.59636 0.89383 0.14606 0.0
C568 C 0.60103 0.86944 0.1696 0.0
C569 C 0.57044 0.83128 0.17472 0.0
C570 C 0.53561 0.81811 0.15602 0.0
C571 C 0.53215 0.84294 0.13189 0.0
C572 C 0.63892 0.88445 0.1886 0.0
C573 C 0.50223 0.77777 0.16126 0.0
C574 C 0.68448 0.66171 0.12616 0.0
C575 C 0.64452 0.65501 0.13109 0.0
C576 C 0.63389 0.7043 0.14101 0.0
C577 C 0.65763 0.74278 0.14456 0.0
C578 C 0.6457 0.76108 0.16584 0.0
C579 C 0.60828 0.74047 0.18263 0.0
C580 C 0.58362 0.70153 0.17814 0.0
C581 C 0.597 0.68371 0.15787 0.0
C582 C 0.6731 0.80253 0.17004 0.0
C583 C 0.54297 0.6789 0.19412 0.0
C584 C 0.59342 0.76137 0.35879 0.0
C585 C 0.5844 0.78432 0.37532 0.0
C586 C 0.57452 0.8061 0.35433 0.0
C587 C 0.57344 0.80509 0.31556 0.0
C588 C 0.56336 0.82652 0.29363 0.0
C589 C 0.56328 0.826 0.25542 0.0
C590 C 0.57369 0.80436 0.23769 0.0
C591 C 0.57548 0.80508 0.19885 0.0
C592 C 0.58525 0.78278 0.18206 0.0
C593 C 0.59455 0.76037 0.20295 0.0
C594 C 0.59353 0.75968 0.24194 0.0
C595 C 0.60326 0.73799 0.26401 0.0
C596 C 0.60243 0.73782 0.30233 0.0
C597 C 0.59299 0.76021 0.31999 0.0
C598 C 0.58301 0.78225 0.29831 0.0
C599 C 0.58308 0.78183 0.2593 0.0
C600 C 0.61544 0.94201 0.06419 0.0
C601 C 0.5844 0.93946 0.08932 0.0
O602 O 0.63028 0.68301 0.46334 0.0
O603 O 0.647 0.68792 0.12048 0.0
O604 O 0.55747 0.90257 0.10141 0.0
O605 O 0.54756 0.89445 0.44236 0.0
H606 H 0.59862 0.67763 0.50817 0.0
H607 H 0.65959 0.68754 0.52875 0.0
H608 H 0.64817 0.64451 0.51038 0.0
H609 H 0.61943 0.64347 0.54813 0.0
H610 H 0.55858 0.66428 0.44682 0.0
H611 H 0.67941 0.73989 0.42089 0.0
H612 H 0.5241 0.71153 0.41019 0.0
H613 H 0.51102 0.66384 0.411 0.0
H614 H 0.52514 0.69233 0.36806 0.0
H615 H 0.70307 0.79338 0.37995 0.0
H616 H 0.67141 0.8096 0.37172 0.0
H617 H 0.67395 0.78088 0.33962 0.0
H618 H 0.59565 0.9477 0.43382 0.0
H619 H 0.61239 0.91314 0.47914 0.0
H620 H 0.5747 0.90447 0.51052 0.0
H621 H 0.6156 0.95176 0.49982 0.0
H622 H 0.61659 0.91539 0.41189 0.0
H623 H 0.4954 0.82982 0.4209 0.0
H624 H 0.64887 0.8642 0.38105 0.0
H625 H 0.65973 0.91124 0.37534 0.0
H626 H 0.63915 0.88025 0.33826 0.0
H627 H 0.46799 0.77381 0.39051 0.0
H628 H 0.50001 0.75754 0.39153 0.0
H629 H 0.4936 0.7769 0.34912 0.0
H630 H 0.59822 0.95639 0.11349 0.0
H631 H 0.61971 0.92302 0.14286 0.0
H632 H 0.50586 0.833 0.11685 0.0
H633 H 0.63465 0.88497 0.21858 0.0
H634 H 0.66149 0.9133 0.17777 0.0
H635 H 0.64958 0.86597 0.18517 0.0
H636 H 0.47579 0.77288 0.14782 0.0
H637 H 0.4957 0.7692 0.19113 0.0
H638 H 0.51021 0.75957 0.14933 0.0
H639 H 0.63645 0.64715 0.16099 0.0
H640 H 0.68394 0.63619 0.1355 0.0
H641 H 0.70559 0.68495 0.14289 0.0
H642 H 0.69432 0.66935 0.09674 0.0
H643 H 0.68596 0.75836 0.13115 0.0
H644 H 0.57841 0.65394 0.15435 0.0
H645 H 0.6732 0.80904 0.19916 0.0
H646 H 0.66342 0.81813 0.15289 0.0
H647 H 0.70308 0.81281 0.16114 0.0
H648 H 0.52597 0.65024 0.18415 0.0
H649 H 0.52789 0.69323 0.18688 0.0
H650 H 0.54375 0.67643 0.22463 0.0
H651 H 0.58526 0.78537 0.40511 0.0
H652 H 0.55553 0.84401 0.3058 0.0
H653 H 0.55527 0.84306 0.23989 0.0
H654 H 0.58698 0.78392 0.15218 0.0
H655 H 0.61157 0.72086 0.25191 0.0
H656 H 0.60984 0.72033 0.31795 0.0
H657 H 0.63696 0.9717 0.05485 0.0
H658 H 0.63115 0.93105 0.07893 0.0
H659 H 0.60223 0.92556 0.03967 0.0
C660 C 0.69259 0.59025 0.01952 0.0
C661 C 0.66888 0.57065 0.98593 0.0
C662 C 0.70658 0.55523 0.94783 0.0
C663 C 0.73555 0.59209 0.93536 0.0
C664 C 0.76444 0.59898 0.91002 0.0
C665 C 0.76432 0.56849 0.89692 0.0
C666 C 0.73493 0.53142 0.90903 0.0
C667 C 0.70657 0.52535 0.93448 0.0
C668 C 0.79553 0.63885 0.89769 0.0
C669 C 0.73386 0.49825 0.89551 0.0
C670 C 0.00117 0.59841 0.01919 0.0
C671 C 0.96995 0.57439 0.99216 0.0
C672 C 0.94865 0.59177 0.93621 0.0
C673 C 0.91489 0.55672 0.93121 0.0
C674 C 0.88651 0.55348 0.90739 0.0
C675 C 0.89152 0.58611 0.889 0.0
C676 C 0.92589 0.62143 0.89358 0.0
C677 C 0.95444 0.62358 0.91647 0.0
C678 C 0.85065 0.5152 0.90283 0.0
C679 C 0.93194 0.65706 0.87548 0.0
C680 C 0.94879 0.61891 0.64008 0.0
C681 C 0.92458 0.5825 0.65618 0.0
C682 C 0.89341 0.57344 0.67958 0.0
C683 C 0.88744 0.60185 0.68793 0.0
C684 C 0.91243 0.63877 0.67196 0.0
C685 C 0.94224 0.64655 0.64751 0.0
C686 C 0.86669 0.53353 0.69498 0.0
C687 C 0.90756 0.67009 0.68023 0.0
C688 C 0.65884 0.629 0.65581 0.0
C689 C 0.66246 0.60508 0.62832 0.0
C690 C 0.6961 0.57986 0.66226 0.0
C691 C 0.69255 0.54698 0.67648 0.0
C692 C 0.72362 0.54775 0.69326 0.0
C693 C 0.75883 0.58257 0.69695 0.0
C694 C 0.76273 0.616 0.68246 0.0
C695 C 0.73162 0.61424 0.66471 0.0
C696 C 0.71864 0.51137 0.70731 0.0
C697 C 0.79978 0.65375 0.68552 0.0
C698 C 0.79631 0.57533 0.87248 0.0
C699 C 0.82832 0.57857 0.88927 0.0
C700 C 0.85912 0.5836 0.86841 0.0
C701 C 0.85818 0.58569 0.82943 0.0
C702 C 0.88851 0.59058 0.80745 0.0
C703 C 0.88761 0.59344 0.76912 0.0
C704 C 0.85579 0.59035 0.75125 0.0
C705 C 0.85448 0.59303 0.71229 0.0
C706 C 0.8222 0.58957 0.69558 0.0
C707 C 0.79131 0.5842 0.71662 0.0
C708 C 0.79237 0.58201 0.75557 0.0
C709 C 0.76224 0.57755 0.77761 0.0
C710 C 0.76337 0.57518 0.81589 0.0
C711 C 0.79491 0.57768 0.83362 0.0
C712 C 0.82592 0.58276 0.812 0.0
C713 C 0.82461 0.58484 0.77291 0.0
C714 C 0.04619 0.66081 0.61842 0.0
C715 C 0.00784 0.62306 0.6254 0.0
O716 O 0.67861 0.547 0.97311 0.0
O717 O 0.66451 0.57701 0.64703 0.0
O718 O 0.97815 0.62779 0.61658 0.0
O719 O 0.97622 0.59594 0.95973 0.0
H720 H 0.67609 0.59329 0.96459 0.0
H721 H 0.69027 0.57007 0.04168 0.0
H722 H 0.68275 0.6073 0.03082 0.0
H723 H 0.72355 0.60933 0.01133 0.0
H724 H 0.73638 0.61566 0.94568 0.0
H725 H 0.68417 0.49705 0.94429 0.0
H726 H 0.82404 0.64487 0.90642 0.0
H727 H 0.7908 0.65949 0.90928 0.0
H728 H 0.7966 0.64263 0.86713 0.0
H729 H 0.70802 0.47113 0.90622 0.0
H730 H 0.76007 0.4992 0.90432 0.0
H731 H 0.73397 0.49955 0.86491 0.0
H732 H 0.94219 0.56686 0.00506 0.0
H733 H 0.99627 0.58206 0.04587 0.0
H734 H 0.00029 0.6232 0.02454 0.0
H735 H 0.03026 0.60841 0.00771 0.0
H736 H 0.91057 0.53181 0.94573 0.0
H737 H 0.98082 0.65045 0.92032 0.0
H738 H 0.84193 0.51197 0.8736 0.0
H739 H 0.82667 0.51185 0.91969 0.0
H740 H 0.85485 0.49244 0.91204 0.0
H741 H 0.95814 0.68247 0.8853 0.0
H742 H 0.90655 0.65854 0.88103 0.0
H743 H 0.93505 0.6573 0.84518 0.0
H744 H 0.0064 0.61456 0.6553 0.0
H745 H 0.92961 0.56111 0.64971 0.0
H746 H 0.96111 0.67452 0.63462 0.0
H747 H 0.87022 0.53186 0.7252 0.0
H748 H 0.87253 0.51406 0.68237 0.0
H749 H 0.83619 0.52402 0.69029 0.0
H750 H 0.93395 0.69807 0.67265 0.0
H751 H 0.9004 0.66861 0.7099 0.0
H752 H 0.88347 0.66738 0.66398 0.0
H753 H 0.6892 0.62394 0.61117 0.0
H754 H 0.653 0.64885 0.64103 0.0
H755 H 0.63546 0.61098 0.67669 0.0
H756 H 0.68598 0.64576 0.67081 0.0
H757 H 0.66521 0.52052 0.67427 0.0
H758 H 0.73536 0.64 0.65333 0.0
H759 H 0.71759 0.50933 0.73791 0.0
H760 H 0.74359 0.51047 0.69825 0.0
H761 H 0.6917 0.48663 0.6976 0.0
H762 H 0.79555 0.67711 0.68024 0.0
H763 H 0.82105 0.65716 0.66476 0.0
H764 H 0.81214 0.65599 0.71323 0.0
H765 H 0.82914 0.57683 0.91916 0.0
H766 H 0.91345 0.5926 0.81969 0.0
H767 H 0.9121 0.59785 0.75366 0.0
H768 H 0.82144 0.59183 0.66572 0.0
H769 H 0.73735 0.57575 0.76555 0.0
H770 H 0.73928 0.57154 0.83143 0.0
H771 H 0.0499 0.67061 0.58879 0.0
H772 H 0.07081 0.65861 0.62655 0.0
H773 H 0.04675 0.68203 0.63503 0.0
C774 C 0.10978 0.65771 0.52582 0.0
C775 C 0.10873 0.64374 0.48775 0.0
C776 C 0.16511 0.68876 0.44765 0.0
C777 C 0.15394 0.71374 0.43762 0.0
C778 C 0.1746 0.74272 0.41003 0.0
C779 C 0.20747 0.74728 0.39279 0.0
C780 C 0.21946 0.72293 0.40374 0.0
C781 C 0.19797 0.69392 0.43092 0.0
C782 C 0.16137 0.76851 0.39932 0.0
C783 C 0.25509 0.7276 0.38686 0.0
C784 C 0.39433 0.02556 0.45465 0.0
C785 C 0.3881 0.98853 0.44434 0.0
C786 C 0.35882 0.9511 0.39247 0.0
C787 C 0.36827 0.92427 0.39532 0.0
C788 C 0.3438 0.88895 0.38156 0.0
C789 C 0.30931 0.88054 0.36455 0.0
C790 C 0.30019 0.90797 0.36095 0.0
C791 C 0.32543 0.9432 0.37464 0.0
C792 C 0.35476 0.86062 0.38521 0.0
C793 C 0.26359 0.8999 0.34307 0.0
C794 C 0.37231 0.89542 0.12311 0.0
C795 C 0.3812 0.87726 0.15059 0.0
C796 C 0.35265 0.85008 0.17578 0.0
C797 C 0.31455 0.84185 0.1739 0.0
C798 C 0.30545 0.85982 0.14556 0.0
C799 C 0.33414 0.88528 0.11971 0.0
C800 C 0.36329 0.83006 0.20405 0.0
C801 C 0.26538 0.85188 0.14175 0.0
C802 C 0.04171 0.6237 0.14185 0.0
C803 C 0.0751 0.62532 0.12157 0.0
C804 C 0.13066 0.65724 0.16204 0.0
C805 C 0.15821 0.65385 0.18105 0.0
C806 C 0.18946 0.68454 0.1975 0.0
C807 C 0.19218 0.71902 0.1962 0.0
C808 C 0.16386 0.72237 0.17777 0.0
C809 C 0.13411 0.69186 0.16006 0.0
C810 C 0.21965 0.68017 0.21599 0.0
C811 C 0.1651 0.75836 0.17629 0.0
C812 C 0.23027 0.77811 0.3641 0.0
C813 C 0.25701 0.81381 0.37569 0.0
C814 C 0.28268 0.84307 0.35054 0.0
C815 C 0.28287 0.83636 0.31301 0.0
C816 C 0.31008 0.86447 0.28746 0.0
C817 C 0.31046 0.85732 0.25073 0.0
C818 C 0.2835 0.82187 0.23809 0.0
C819 C 0.28416 0.81404 0.20099 0.0
C820 C 0.25499 0.7795 0.18875 0.0
C821 C 0.22519 0.75225 0.21262 0.0
C822 C 0.22565 0.75855 0.25041 0.0
C823 C 0.19747 0.731 0.27574 0.0
C824 C 0.19906 0.73716 0.31308 0.0
C825 C 0.22788 0.7717 0.32618 0.0
C826 C 0.25513 0.80059 0.30076 0.0
C827 C 0.25485 0.7936 0.26309 0.0
C828 C 0.38702 0.96861 0.08822 0.0
C829 C 0.41675 0.95783 0.09333 0.0
O830 O 0.14582 0.65983 0.47361 0.0
O831 O 0.10129 0.62651 0.14644 0.0
O832 O 0.39982 0.91936 0.09757 0.0
O833 O 0.38144 0.98468 0.40704 0.0
H834 H 0.09241 0.65212 0.47013 0.0
H835 H 0.12763 0.6526 0.54503 0.0
H836 H 0.08006 0.64346 0.53786 0.0
H837 H 0.12233 0.68832 0.52317 0.0
H838 H 0.12955 0.71122 0.45136 0.0
H839 H 0.20669 0.6749 0.43924 0.0
H840 H 0.18323 0.79715 0.40746 0.0
H841 H 0.13321 0.75912 0.4127 0.0
H842 H 0.15871 0.77021 0.36893 0.0
H843 H 0.26269 0.70884 0.40111 0.0
H844 H 0.28001 0.75705 0.3879 0.0
H845 H 0.25019 0.72119 0.35744 0.0
H846 H 0.36154 0.96648 0.46012 0.0
H847 H 0.40042 0.02911 0.48444 0.0
H848 H 0.36785 0.02543 0.44923 0.0
H849 H 0.41864 0.04983 0.4384 0.0
H850 H 0.39483 0.93096 0.40808 0.0
H851 H 0.31871 0.96439 0.37237 0.0
H852 H 0.35412 0.85012 0.35786 0.0
H853 H 0.3334 0.83628 0.40365 0.0
H854 H 0.3839 0.87247 0.39669 0.0
H855 H 0.25944 0.92331 0.34472 0.0
H856 H 0.23828 0.87405 0.35651 0.0
H857 H 0.26444 0.89493 0.31359 0.0
H858 H 0.43314 0.97008 0.1186 0.0
H859 H 0.41049 0.88407 0.15191 0.0
H860 H 0.32644 0.89692 0.09665 0.0
H861 H 0.36662 0.84189 0.23118 0.0
H862 H 0.39093 0.83331 0.19655 0.0
H863 H 0.3403 0.79973 0.20722 0.0
H864 H 0.26583 0.87525 0.12603 0.0
H865 H 0.25108 0.84703 0.16907 0.0
H866 H 0.24783 0.82636 0.12637 0.0
H867 H 0.08957 0.65099 0.10244 0.0
H868 H 0.01794 0.61682 0.12268 0.0
H869 H 0.03039 0.60253 0.16563 0.0
H870 H 0.05128 0.651 0.15275 0.0
H871 H 0.15552 0.62715 0.18236 0.0
H872 H 0.11372 0.69552 0.14497 0.0
H873 H 0.21864 0.68268 0.24609 0.0
H874 H 0.24887 0.70285 0.20533 0.0
H875 H 0.21533 0.65268 0.21156 0.0
H876 H 0.13713 0.75405 0.168 0.0
H877 H 0.18757 0.77873 0.15578 0.0
H878 H 0.17262 0.77084 0.20344 0.0
H879 H 0.25824 0.81875 0.40475 0.0
H880 H 0.3317 0.8922 0.29566 0.0
H881 H 0.33214 0.88003 0.23236 0.0
H882 H 0.25486 0.77411 0.15995 0.0
H883 H 0.17436 0.70408 0.26712 0.0
H884 H 0.17714 0.71472 0.33152 0.0
H885 H 0.36786 0.95447 0.06501 0.0
H886 H 0.40143 0.99921 0.08209 0.0
H887 H 0.36949 0.96135 0.11396 0.0
C888 C 0.38344 0.07637 0.52974 0.0
C889 C 0.41632 0.09131 0.55692 0.0
C890 C 0.40813 0.10932 0.61616 0.0
C891 C 0.44586 0.13924 0.62205 0.0
C892 C 0.45275 0.16756 0.64468 0.0
C893 C 0.42112 0.16606 0.66121 0.0
C894 C 0.38305 0.1352 0.65614 0.0
C895 C 0.37714 0.10677 0.63416 0.0
C896 C 0.49376 0.19948 0.65021 0.0
C897 C 0.34859 0.13282 0.67293 0.0
C898 C 0.43993 0.37458 0.52616 0.0
C899 C 0.45899 0.39456 0.56125 0.0
C900 C 0.47032 0.35381 0.60265 0.0
C901 C 0.43162 0.32698 0.61323 0.0
C902 C 0.42222 0.29746 0.63938 0.0
C903 C 0.45201 0.29462 0.65488 0.0
C904 C 0.49094 0.3218 0.64457 0.0
C905 C 0.49952 0.35105 0.61853 0.0
C906 C 0.38041 0.2687 0.64975 0.0
C907 C 0.52338 0.31937 0.66032 0.0
C908 C 0.45647 0.34429 0.90247 0.0
C909 C 0.4229 0.32494 0.88186 0.0
C910 C 0.4167 0.29647 0.85963 0.0
C911 C 0.44575 0.28887 0.85617 0.0
C912 C 0.48069 0.31022 0.87498 0.0
C913 C 0.48523 0.33716 0.8983 0.0
C914 C 0.37867 0.27399 0.8407 0.0
C915 C 0.51298 0.30403 0.87137 0.0
C916 C 0.40478 0.00954 0.85447 0.0
C917 C 0.42989 0.04787 0.87033 0.0
C918 C 0.41247 0.09286 0.87958 0.0
C919 C 0.38068 0.096 0.87905 0.0
C920 C 0.38516 0.13039 0.86914 0.0
C921 C 0.42244 0.16219 0.85998 0.0
C922 C 0.45509 0.16004 0.86478 0.0
C923 C 0.44977 0.12528 0.87454 0.0
C924 C 0.34987 0.13203 0.86526 0.0
C925 C 0.49538 0.1938 0.85662 0.0
C926 C 0.42779 0.19784 0.68192 0.0
C927 C 0.43508 0.22988 0.66155 0.0
C928 C 0.44237 0.26125 0.6789 0.0
C929 C 0.44169 0.2607 0.71781 0.0
C930 C 0.44881 0.29178 0.73618 0.0
C931 C 0.44824 0.29086 0.77458 0.0
C932 C 0.44005 0.25867 0.79604 0.0
C933 C 0.43884 0.25709 0.83513 0.0
C934 C 0.43207 0.22497 0.85539 0.0
C935 C 0.42664 0.19447 0.83772 0.0
C936 C 0.42672 0.19514 0.79881 0.0
C937 C 0.42074 0.16449 0.7803 0.0
C938 C 0.42123 0.16538 0.74209 0.0
C939 C 0.42751 0.19683 0.72082 0.0
C940 C 0.43406 0.22823 0.73884 0.0
C941 C 0.43342 0.2273 0.77793 0.0
C942 C 0.40326 0.34919 0.96037 0.0
C943 C 0.43833 0.3807 0.9373 0.0
O944 O 0.40091 0.08309 0.59253 0.0
O945 O 0.40596 0.05812 0.88353 0.0
O946 O 0.46229 0.36927 0.92732 0.0
O947 O 0.48104 0.38224 0.5767 0.0
H948 H 0.43514 0.12222 0.55064 0.0
H949 H 0.36658 0.08904 0.53388 0.0
H950 H 0.36372 0.04542 0.53393 0.0
H951 H 0.39517 0.0839 0.50092 0.0
H952 H 0.46983 0.14051 0.60871 0.0
H953 H 0.34816 0.08325 0.62958 0.0
H954 H 0.49918 0.22517 0.63468 0.0
H955 H 0.51506 0.19357 0.64041 0.0
H956 H 0.49847 0.20527 0.67982 0.0
H957 H 0.32084 0.10863 0.66377 0.0
H958 H 0.34969 0.15896 0.66545 0.0
H959 H 0.34922 0.12995 0.70344 0.0
H960 H 0.43505 0.38738 0.58039 0.0
H961 H 0.41921 0.34418 0.53317 0.0
H962 H 0.46128 0.3777 0.5057 0.0
H963 H 0.42373 0.38598 0.51321 0.0
H964 H 0.40856 0.32824 0.60073 0.0
H965 H 0.52922 0.37182 0.61005 0.0
H966 H 0.37193 0.2413 0.63964 0.0
H967 H 0.36089 0.27668 0.63791 0.0
H968 H 0.37635 0.26492 0.68023 0.0
H969 H 0.55219 0.34327 0.65003 0.0
H970 H 0.5199 0.29291 0.65296 0.0
H971 H 0.52228 0.31879 0.69088 0.0
H972 H 0.4282 0.38875 0.91219 0.0
H973 H 0.40103 0.33121 0.88353 0.0
H974 H 0.51131 0.35262 0.91385 0.0
H975 H 0.38301 0.2824 0.81076 0.0
H976 H 0.35674 0.27852 0.85166 0.0
H977 H 0.36713 0.24361 0.84401 0.0
H978 H 0.54084 0.32812 0.88048 0.0
H979 H 0.51666 0.29936 0.84243 0.0
H980 H 0.50584 0.27872 0.88888 0.0
H981 H 0.4489 0.06757 0.84708 0.0
H982 H 0.42309 0.00064 0.84313 0.0
H983 H 0.38745 0.0111 0.83177 0.0
H984 H 0.38473 0.98811 0.87607 0.0
H985 H 0.35208 0.07092 0.88404 0.0
H986 H 0.47467 0.12331 0.87681 0.0
H987 H 0.3445 0.13441 0.83554 0.0
H988 H 0.35464 0.15719 0.87784 0.0
H989 H 0.32378 0.10666 0.87839 0.0
H990 H 0.51774 0.18908 0.86711 0.0
H991 H 0.49924 0.21861 0.86914 0.0
H992 H 0.4999 0.20027 0.82634 0.0
H993 H 0.43562 0.23063 0.63164 0.0
H994 H 0.45496 0.31716 0.72103 0.0
H995 H 0.45426 0.31569 0.78724 0.0
H996 H 0.43171 0.22396 0.8853 0.0
H997 H 0.41555 0.13931 0.79503 0.0
H998 H 0.41661 0.14104 0.72944 0.0
H999 H 0.38607 0.35967 0.97094 0.0
H1000 H 0.38395 0.32523 0.9437 0.0
H1001 H 0.41253 0.33859 0.98413 0.0
loop_
_geom_bond_atom_site_label_1
_geom_bond_atom_site_label_2
_geom_bond_distance
_geom_bond_site_symmetry_2
_ccdc_geom_bond_type
C0 C1 1.443 . S
C0 N4 1.376 1_556 S
C0 C38 1.389 . S
C1 C0 1.443 . S
C1 C2 1.340 1_556 S
C1 H41 0.951 . S
C2 C1 1.340 1_554 S
C2 C3 1.439 . S
C2 H42 0.950 . S
C3 C2 1.439 . S
C3 N4 1.374 . S
C3 C37 1.395 . S
N4 C0 1.376 1_554 S
N4 C3 1.374 . S
N4 Co5 2.008 1_655 S
Co5 N4 2.008 1_455 S
Co5 N6 1.995 . S
Co5 N11 2.008 . S
Co5 N16 1.995 1_554 S
Co5 N21 2.282 . S
Co5 N27 2.282 1_554 S
N6 Co5 1.995 . S
N6 C7 1.376 1_455 S
N6 C10 1.383 . S
C7 N6 1.376 1_655 S
C7 C8 1.446 . S
C7 C37 1.391 . S
C8 C7 1.446 . S
C8 C9 1.339 1_655 S
C8 H43 0.949 . S
C9 C8 1.339 1_455 S
C9 C10 1.439 . S
C9 H44 0.950 . S
C10 N6 1.383 . S
C10 C9 1.439 . S
C10 C39 1.392 . S
N11 Co5 2.008 . S
N11 C12 1.376 . S
N11 C15 1.374 1_554 S
C12 N11 1.376 . S
C12 C13 1.443 . S
C12 C39 1.389 . S
C13 C12 1.443 . S
C13 C14 1.340 1_554 S
C13 H45 0.951 . S
C14 C13 1.340 1_556 S
C14 C15 1.439 . S
C14 H46 0.950 . S
C15 N11 1.374 1_556 S
C15 C14 1.439 . S
C15 C40 1.395 . S
N16 Co5 1.995 1_556 S
N16 C17 1.376 . S
N16 C20 1.383 . S
C17 N16 1.376 . S
C17 C18 1.446 . S
C17 C40 1.391 . S
C18 C17 1.446 . S
C18 C19 1.339 . S
C18 H47 0.949 . S
C19 C18 1.339 . S
C19 C20 1.439 . S
C19 H48 0.950 . S
C20 N16 1.383 . S
C20 C19 1.439 . S
C20 C38 1.392 1_455 S
N21 Co5 2.282 . S
N21 C24 1.332 . S
N21 C26 1.332 . S
C22 C23 1.386 . S
C22 C25 1.388 . S
C23 C22 1.386 . S
C23 C24 1.382 . S
C23 H49 0.950 . S
C24 N21 1.332 . S
C24 C23 1.382 . S
C24 H35 0.952 . S
C25 C22 1.388 . S
C25 C26 1.382 . S
C25 H50 0.950 . S
C26 N21 1.332 . S
C26 C25 1.382 . S
C26 H36 0.948 . S
N27 Co5 2.282 1_556 S
N27 C31 1.332 1_455 S
N27 C32 1.332 . S
C28 C29 1.388 . S
C28 C32 1.382 1_655 S
C28 H51 0.950 . S
C29 C28 1.388 . S
C29 C30 1.386 . S
C30 C29 1.386 . S
C30 C31 1.382 . S
C30 H52 0.950 . S
C31 N27 1.332 1_655 S
C31 C30 1.382 . S
C31 H33 0.952 1_556 S
C32 N27 1.332 . S
C32 C28 1.382 1_455 S
C32 H34 0.948 . S
H33 C31 0.952 1_554 S
H34 C32 0.948 . S
H35 C24 0.952 . S
H36 C26 0.948 . S
C37 C3 1.395 . S
C37 C7 1.391 . S
C38 C0 1.389 . S
C38 C20 1.392 1_655 S
C39 C10 1.392 . S
C39 C12 1.389 . S
C40 C15 1.395 . S
C40 C17 1.391 . S
H41 C1 0.951 . S
H42 C2 0.950 . S
H43 C8 0.949 . S
H44 C9 0.950 . S
H45 C13 0.951 . S
H46 C14 0.950 . S
H47 C18 0.949 . S
H48 C19 0.950 . S
H49 C23 0.950 . S
H50 C25 0.950 . S
H51 C28 0.950 . S
H52 C30 0.950 . S
C53 C54 1.443 . S
C53 N57 1.376 1_545 S
C53 C91 1.389 . S
C54 C53 1.443 . S
C54 C55 1.340 1_545 S
C54 H94 0.951 . S
C55 C54 1.340 1_565 S
C55 C56 1.439 . S
C55 H95 0.950 . S
C56 C55 1.439 . S
C56 N57 1.374 . S
C56 C90 1.395 . S
N57 C53 1.376 1_565 S
N57 C56 1.374 . S
N57 Co58 2.008 1_565 S
Co58 N57 2.008 1_545 S
Co58 N59 1.995 1_545 S
Co58 N64 2.008 . S
Co58 N69 1.995 . S
Co58 N74 2.282 1_545 S
Co58 N80 2.282 . S
N59 Co58 1.995 1_565 S
N59 C60 1.376 . S
N59 C63 1.383 . S
C60 N59 1.376 . S
C60 C61 1.446 . S
C60 C90 1.391 . S
C61 C60 1.446 . S
C61 C62 1.339 . S
C61 H96 0.949 . S
C62 C61 1.339 . S
C62 C63 1.439 . S
C62 H97 0.950 . S
C63 N59 1.383 . S
C63 C62 1.439 . S
C63 C92 1.392 . S
N64 Co58 2.008 . S
N64 C65 1.376 1_545 S
N64 C68 1.374 . S
C65 N64 1.376 1_565 S
C65 C66 1.443 1_565 S
C65 C92 1.389 . S
C66 C65 1.443 1_545 S
C66 C67 1.340 . S
C66 H98 0.951 1_545 S
C67 C66 1.340 . S
C67 C68 1.439 . S
C67 H99 0.950 . S
C68 N64 1.374 . S
C68 C67 1.439 . S
C68 C93 1.395 . S
N69 Co58 1.995 . S
N69 C70 1.376 . S
N69 C73 1.383 . S
C70 N69 1.376 . S
C70 C71 1.446 . S
C70 C93 1.391 . S
C71 C70 1.446 . S
C71 C72 1.339 . S
C71 H100 0.949 . S
C72 C71 1.339 . S
C72 C73 1.439 . S
C72 H101 0.950 . S
C73 N69 1.383 . S
C73 C72 1.439 . S
C73 C91 1.392 . S
N74 Co58 2.282 1_565 S
N74 C77 1.332 . S
N74 C79 1.332 . S
C75 C76 1.386 . S
C75 C78 1.388 . S
C76 C75 1.386 . S
C76 C77 1.382 . S
C76 H102 0.950 . S
C77 N74 1.332 . S
C77 C76 1.382 . S
C77 H88 0.952 1_565 S
C78 C75 1.388 . S
C78 C79 1.382 . S
C78 H103 0.950 . S
C79 N74 1.332 . S
C79 C78 1.382 . S
C79 H89 0.948 . S
N80 Co58 2.282 . S
N80 C84 1.332 . S
N80 C85 1.332 . S
C81 C82 1.388 . S
C81 C85 1.382 . S
C81 H104 0.950 . S
C82 C81 1.388 . S
C82 C83 1.386 . S
C83 C82 1.386 . S
C83 C84 1.382 . S
C83 H105 0.950 . S
C84 N80 1.332 . S
C84 C83 1.382 . S
C84 H86 0.952 1_545 S
C85 N80 1.332 . S
C85 C81 1.382 . S
C85 H87 0.948 . S
H86 C84 0.952 1_565 S
H87 C85 0.948 . S
H88 C77 0.952 1_545 S
H89 C79 0.948 . S
C90 C56 1.395 . S
C90 C60 1.391 . S
C91 C53 1.389 . S
C91 C73 1.392 . S
C92 C63 1.392 . S
C92 C65 1.389 . S
C93 C68 1.395 . S
C93 C70 1.391 . S
H94 C54 0.951 . S
H95 C55 0.950 . S
H96 C61 0.949 . S
H97 C62 0.950 . S
H98 C66 0.951 1_565 S
H99 C67 0.950 . S
H100 C71 0.949 . S
H101 C72 0.950 . S
H102 C76 0.950 . S
H103 C78 0.950 . S
H104 C81 0.950 . S
H105 C83 0.950 . S
C106 C107 1.443 . S
C106 N110 1.376 . S
C106 C144 1.389 . S
C107 C106 1.443 . S
C107 C108 1.340 . S
C107 H147 0.951 . S
C108 C107 1.340 . S
C108 C109 1.439 . S
C108 H148 0.950 . S
C109 C108 1.439 . S
C109 N110 1.374 . S
C109 C143 1.395 . S
N110 C106 1.376 . S
N110 C109 1.374 . S
N110 Co111 2.008 1_556 S
Co111 N110 2.008 1_554 S
Co111 N112 1.995 . S
Co111 N117 2.008 . S
Co111 N122 1.995 . S
Co111 N127 2.282 . S
Co111 N133 2.282 1_554 S
N112 Co111 1.995 . S
N112 C113 1.376 1_554 S
N112 C116 1.383 . S
C113 N112 1.376 1_556 S
C113 C114 1.446 . S
C113 C143 1.391 . S
C114 C113 1.446 . S
C114 C115 1.339 1_556 S
C114 H149 0.949 . S
C115 C114 1.339 1_554 S
C115 C116 1.439 . S
C115 H150 0.950 . S
C116 N112 1.383 . S
C116 C115 1.439 . S
C116 C145 1.392 . S
N117 Co111 2.008 . S
N117 C118 1.376 . S
N117 C121 1.374 . S
C118 N117 1.376 . S
C118 C119 1.443 . S
C118 C145 1.389 . S
C119 C118 1.443 . S
C119 C120 1.340 . S
C119 H151 0.951 . S
C120 C119 1.340 . S
C120 C121 1.439 . S
C120 H152 0.950 . S
C121 N117 1.374 . S
C121 C120 1.439 . S
C121 C146 1.395 . S
N122 Co111 1.995 . S
N122 C123 1.376 . S
N122 C126 1.383 1_554 S
C123 N122 1.376 . S
C123 C124 1.446 . S
C123 C146 1.391 . S
C124 C123 1.446 . S
C124 C125 1.339 . S
C124 H153 0.949 . S
C125 C124 1.339 . S
C125 C126 1.439 1_554 S
C125 H154 0.950 1_554 S
C126 N122 1.383 1_556 S
C126 C125 1.439 1_556 S
C126 C144 1.392 . S
N127 Co111 2.282 . S
N127 C130 1.332 . S
N127 C132 1.332 . S
C128 C129 1.386 . S
C128 C131 1.388 . S
C129 C128 1.386 . S
C129 C130 1.382 . S
C129 H155 0.950 . S
C130 N127 1.332 . S
C130 C129 1.382 . S
C130 H141 0.952 . S
C131 C128 1.388 . S
C131 C132 1.382 . S
C131 H156 0.950 . S
C132 N127 1.332 . S
C132 C131 1.382 . S
C132 H142 0.948 . S
N133 Co111 2.282 1_556 S
N133 C137 1.332 . S
N133 C138 1.332 . S
C134 C135 1.388 . S
C134 C138 1.382 . S
C134 H157 0.950 . S
C135 C134 1.388 . S
C135 C136 1.386 . S
C136 C135 1.386 . S
C136 C137 1.382 . S
C136 H158 0.950 . S
C137 N133 1.332 . S
C137 C136 1.382 . S
C137 H139 0.952 . S
C138 N133 1.332 . S
C138 C134 1.382 . S
C138 H140 0.948 1_556 S
H139 C137 0.952 . S
H140 C138 0.948 1_554 S
H141 C130 0.952 . S
H142 C132 0.948 . S
C143 C109 1.395 . S
C143 C113 1.391 . S
C144 C106 1.389 . S
C144 C126 1.392 . S
C145 C116 1.392 . S
C145 C118 1.389 . S
C146 C121 1.395 . S
C146 C123 1.391 . S
H147 C107 0.951 . S
H148 C108 0.950 . S
H149 C114 0.949 . S
H150 C115 0.950 . S
H151 C119 0.951 . S
H152 C120 0.950 . S
H153 C124 0.949 . S
H154 C125 0.950 1_556 S
H155 C129 0.950 . S
H156 C131 0.950 . S
H157 C134 0.950 . S
H158 C136 0.950 . S
C159 C160 1.443 . S
C159 N163 1.376 . S
C159 C197 1.389 . S
C160 C159 1.443 . S
C160 C161 1.340 . S
C160 H200 0.951 . S
C161 C160 1.340 . S
C161 C162 1.439 . S
C161 H201 0.950 . S
C162 C161 1.439 . S
C162 N163 1.374 . S
C162 C196 1.395 . S
N163 C159 1.376 . S
N163 C162 1.374 . S
N163 Co164 2.008 1_655 S
Co164 N163 2.008 1_455 S
Co164 N165 1.995 1_455 S
Co164 N170 2.008 . S
Co164 N175 1.995 . S
Co164 N180 2.282 . S
Co164 N186 2.282 1_455 S
N165 Co164 1.995 1_655 S
N165 C166 1.376 . S
N165 C169 1.383 1_655 S
C166 N165 1.376 . S
C166 C167 1.446 . S
C166 C196 1.391 . S
C167 C166 1.446 . S
C167 C168 1.339 1_655 S
C167 H202 0.949 . S
C168 C167 1.339 1_455 S
C168 C169 1.439 . S
C168 H203 0.950 . S
C169 N165 1.383 1_455 S
C169 C168 1.439 . S
C169 C198 1.392 . S
N170 Co164 2.008 . S
N170 C171 1.376 . S
N170 C174 1.374 . S
C171 N170 1.376 . S
C171 C172 1.443 . S
C171 C198 1.389 . S
C172 C171 1.443 . S
C172 C173 1.340 . S
C172 H204 0.951 . S
C173 C172 1.340 . S
C173 C174 1.439 . S
C173 H205 0.950 . S
C174 N170 1.374 . S
C174 C173 1.439 . S
C174 C199 1.395 . S
N175 Co164 1.995 . S
N175 C176 1.376 . S
N175 C179 1.383 1_455 S
C176 N175 1.376 . S
C176 C177 1.446 . S
C176 C199 1.391 . S
C177 C176 1.446 . S
C177 C178 1.339 . S
C177 H206 0.949 . S
C178 C177 1.339 . S
C178 C179 1.439 1_455 S
C178 H207 0.950 1_455 S
C179 N175 1.383 1_655 S
C179 C178 1.439 1_655 S
C179 C197 1.392 . S
N180 Co164 2.282 . S
N180 C183 1.332 . S
N180 C185 1.332 . S
C181 C182 1.386 . S
C181 C184 1.388 . S
C182 C181 1.386 . S
C182 C183 1.382 . S
C182 H208 0.950 . S
C183 N180 1.332 . S
C183 C182 1.382 . S
C183 H194 0.952 . S
C184 C181 1.388 . S
C184 C185 1.382 . S
C184 H209 0.950 . S
C185 N180 1.332 . S
C185 C184 1.382 . S
C185 H195 0.948 1_455 S
N186 Co164 2.282 1_655 S
N186 C190 1.332 . S
N186 C191 1.332 . S
C187 C188 1.388 . S
C187 C191 1.382 . S
C187 H210 0.950 . S
C188 C187 1.388 . S
C188 C189 1.386 . S
C189 C188 1.386 . S
C189 C190 1.382 . S
C189 H211 0.950 . S
C190 N186 1.332 . S
C190 C189 1.382 . S
C190 H192 0.952 . S
C191 N186 1.332 . S
C191 C187 1.382 . S
C191 H193 0.948 1_655 S
H192 C190 0.952 . S
H193 C191 0.948 1_455 S
H194 C183 0.952 . S
H195 C185 0.948 1_655 S
C196 C162 1.395 . S
C196 C166 1.391 . S
C197 C159 1.389 . S
C197 C179 1.392 . S
C198 C169 1.392 . S
C198 C171 1.389 . S
C199 C174 1.395 . S
C199 C176 1.391 . S
H200 C160 0.951 . S
H201 C161 0.950 . S
H202 C167 0.949 . S
H203 C168 0.950 . S
H204 C172 0.951 . S
H205 C173 0.950 . S
H206 C177 0.949 . S
H207 C178 0.950 1_655 S
H208 C182 0.950 . S
H209 C184 0.950 . S
H210 C187 0.950 . S
H211 C189 0.950 . S
C212 C213 1.443 1_565 S
C212 N216 1.376 1_565 S
C212 C250 1.389 . S
C213 C212 1.443 1_545 S
C213 C214 1.340 . S
C213 H253 0.950 1_545 S
C214 C213 1.340 . S
C214 C215 1.439 . S
C214 H254 0.950 . S
C215 C214 1.439 . S
C215 N216 1.374 . S
C215 C249 1.395 . S
N216 C212 1.376 1_545 S
N216 C215 1.374 . S
N216 Co217 2.008 . S
Co217 N216 2.008 . S
Co217 N218 1.995 . S
Co217 N223 2.008 1_544 S
Co217 N228 1.995 1_545 S
Co217 N233 2.282 1_554 S
Co217 N239 2.282 1_545 S
N218 Co217 1.995 . S
N218 C219 1.376 . S
N218 C222 1.383 1_554 S
C219 N218 1.376 . S
C219 C220 1.446 . S
C219 C249 1.391 . S
C220 C219 1.446 . S
C220 C221 1.339 1_554 S
C220 H255 0.949 . S
C221 C220 1.339 1_556 S
C221 C222 1.439 . S
C221 H256 0.950 . S
C222 N218 1.383 1_556 S
C222 C221 1.439 . S
C222 C251 1.392 . S
N223 Co217 2.008 1_566 S
N223 C224 1.376 1_565 S
N223 C227 1.374 . S
C224 N223 1.376 1_545 S
C224 C225 1.443 . S
C224 C251 1.389 . S
C225 C224 1.443 . S
C225 C226 1.340 1_545 S
C225 H257 0.951 . S
C226 C225 1.340 1_565 S
C226 C227 1.439 . S
C226 H258 0.950 . S
C227 N223 1.374 . S
C227 C226 1.439 . S
C227 C252 1.395 . S
N228 Co217 1.995 1_565 S
N228 C229 1.376 1_554 S
N228 C232 1.383 . S
C229 N228 1.376 1_556 S
C229 C230 1.446 1_556 S
C229 C252 1.391 . S
C230 C229 1.446 1_554 S
C230 C231 1.339 . S
C230 H259 0.949 1_554 S
C231 C230 1.339 . S
C231 C232 1.439 . S
C231 H260 0.950 . S
C232 N228 1.383 . S
C232 C231 1.439 . S
C232 C250 1.392 . S
N233 Co217 2.282 1_556 S
N233 C236 1.332 . S
N233 C238 1.332 . S
C234 C235 1.386 . S
C234 C237 1.388 . S
C235 C234 1.386 . S
C235 C236 1.382 . S
C235 H261 0.950 . S
C236 N233 1.332 . S
C236 C235 1.382 . S
C236 H247 0.952 1_545 S
C237 C234 1.388 . S
C237 C238 1.382 . S
C237 H262 0.950 . S
C238 N233 1.332 . S
C238 C237 1.382 . S
C238 H248 0.948 . S
N239 Co217 2.282 1_565 S
N239 C243 1.332 . S
N239 C244 1.332 . S
C240 C241 1.388 . S
C240 C244 1.382 . S
C240 H263 0.950 . S
C241 C240 1.388 . S
C241 C242 1.386 . S
C242 C241 1.386 . S
C242 C243 1.382 . S
C242 H264 0.950 . S
C243 N239 1.332 . S
C243 C242 1.382 . S
C243 H245 0.952 1_565 S
C244 N239 1.332 . S
C244 C240 1.382 . S
C244 H246 0.948 . S
H245 C243 0.952 1_545 S
H246 C244 0.948 . S
H247 C236 0.952 1_565 S
H248 C238 0.948 . S
C249 C215 1.395 . S
C249 C219 1.391 . S
C250 C212 1.389 . S
C250 C232 1.392 . S
C251 C222 1.392 . S
C251 C224 1.389 . S
C252 C227 1.395 . S
C252 C229 1.391 . S
H253 C213 0.950 1_565 S
H254 C214 0.950 . S
H255 C220 0.949 . S
H256 C221 0.950 . S
H257 C225 0.951 . S
H258 C226 0.950 . S
H259 C230 0.949 1_556 S
H260 C231 0.950 . S
H261 C235 0.950 . S
H262 C237 0.950 . S
H263 C240 0.950 . S
H264 C242 0.950 . S
C265 C266 1.443 . S
C265 N269 1.376 . S
C265 C303 1.389 . S
C266 C265 1.443 . S
C266 C267 1.340 . S
C266 H306 0.951 . S
C267 C266 1.340 . S
C267 C268 1.439 . S
C267 H307 0.950 . S
C268 C267 1.439 . S
C268 N269 1.374 . S
C268 C302 1.395 . S
N269 C265 1.376 . S
N269 C268 1.374 . S
N269 Co270 2.008 . S
Co270 N269 2.008 . S
Co270 N271 1.995 . S
Co270 N276 2.008 . S
Co270 N281 1.995 . S
Co270 N286 2.282 . S
Co270 N292 2.282 . S
N271 Co270 1.995 . S
N271 C272 1.376 . S
N271 C275 1.383 . S
C272 N271 1.376 . S
C272 C273 1.446 . S
C272 C302 1.391 . S
C273 C272 1.446 . S
C273 C274 1.339 . S
C273 H308 0.949 . S
C274 C273 1.339 . S
C274 C275 1.439 . S
C274 H309 0.950 . S
C275 N271 1.383 . S
C275 C274 1.439 . S
C275 C304 1.392 . S
N276 Co270 2.008 . S
N276 C277 1.376 . S
N276 C280 1.374 . S
C277 N276 1.376 . S
C277 C278 1.443 . S
C277 C304 1.389 . S
C278 C277 1.443 . S
C278 C279 1.340 . S
C278 H310 0.951 . S
C279 C278 1.340 . S
C279 C280 1.439 . S
C279 H311 0.950 . S
C280 N276 1.374 . S
C280 C279 1.439 . S
C280 C305 1.395 . S
N281 Co270 1.995 . S
N281 C282 1.376 . S
N281 C285 1.383 . S
C282 N281 1.376 . S
C282 C283 1.446 . S
C282 C305 1.391 . S
C283 C282 1.446 . S
C283 C284 1.339 . S
C283 H312 0.949 . S
C284 C283 1.339 . S
C284 C285 1.439 . S
C284 H313 0.950 . S
C285 N281 1.383 . S
C285 C284 1.439 . S
C285 C303 1.392 . S
N286 Co270 2.282 . S
N286 C289 1.332 . S
N286 C291 1.332 . S
C287 C288 1.386 . S
C287 C290 1.388 . S
C288 C287 1.386 . S
C288 C289 1.382 . S
C288 H314 0.950 . S
C289 N286 1.332 . S
C289 C288 1.382 . S
C289 H300 0.952 . S
C290 C287 1.388 . S
C290 C291 1.382 . S
C290 H315 0.950 . S
C291 N286 1.332 . S
C291 C290 1.382 . S
C291 H301 0.948 . S
N292 Co270 2.282 . S
N292 C296 1.332 . S
N292 C297 1.332 . S
C293 C294 1.388 . S
C293 C297 1.382 . S
C293 H316 0.950 . S
C294 C293 1.388 . S
C294 C295 1.386 . S
C295 C294 1.386 . S
C295 C296 1.382 . S
C295 H317 0.950 . S
C296 N292 1.332 . S
C296 C295 1.382 . S
C296 H298 0.952 . S
C297 N292 1.332 . S
C297 C293 1.382 . S
C297 H299 0.948 . S
H298 C296 0.952 . S
H299 C297 0.948 . S
H300 C289 0.952 . S
H301 C291 0.948 . S
C302 C268 1.395 . S
C302 C272 1.391 . S
C303 C265 1.389 . S
C303 C285 1.392 . S
C304 C275 1.392 . S
C304 C277 1.389 . S
C305 C280 1.395 . S
C305 C282 1.391 . S
H306 C266 0.951 . S
H307 C267 0.950 . S
H308 C273 0.949 . S
H309 C274 0.950 . S
H310 C278 0.951 . S
H311 C279 0.950 . S
H312 C283 0.949 . S
H313 C284 0.950 . S
H314 C288 0.950 . S
H315 C290 0.950 . S
H316 C293 0.950 . S
H317 C295 0.950 . S
C318 C319 1.560 . S
C318 H379 0.959 . S
C318 H380 0.959 1_455 S
C318 H381 0.960 . S
C319 C318 1.560 . S
C319 O374 1.426 . S
C319 H378 0.980 . S
C320 C321 1.407 . S
C320 C325 1.418 . S
C320 O374 1.334 . S
C321 C320 1.407 . S
C321 C322 1.360 . S
C321 H382 0.929 . S
C322 C321 1.360 . S
C322 C323 1.401 . S
C322 C326 1.527 . S
C323 C322 1.401 . S
C323 C324 1.405 . S
C323 C356 1.587 . S
C324 C323 1.405 . S
C324 C325 1.332 . S
C324 C327 1.496 . S
C325 C320 1.418 . S
C325 C324 1.332 . S
C325 H383 0.929 . S
C326 C322 1.527 . S
C326 H384 0.959 . S
C326 H385 0.961 . S
C326 H386 0.961 . S
C327 C324 1.496 . S
C327 H387 0.960 . S
C327 H388 0.960 . S
C327 H389 0.961 . S
C328 C329 1.517 . S
C328 H391 0.961 . S
C328 H392 0.960 . S
C328 H393 0.959 . S
C329 C328 1.517 . S
C329 O377 1.468 . S
C329 H390 0.980 . S
C330 C331 1.349 . S
C330 C335 1.367 . S
C330 O377 1.408 . S
C331 C330 1.349 . S
C331 C332 1.407 . S
C331 H394 0.930 . S
C332 C331 1.407 . S
C332 C333 1.449 . S
C332 C336 1.535 . S
C333 C332 1.449 . S
C333 C334 1.384 . S
C333 C358 1.553 . S
C334 C333 1.384 . S
C334 C335 1.364 . S
C334 C337 1.450 . S
C335 C330 1.367 . S
C335 C334 1.364 . S
C335 H395 0.931 . S
C336 C332 1.535 . S
C336 H396 0.959 . S
C336 H397 0.961 . S
C336 H398 0.959 . S
C337 C334 1.450 . S
C337 H399 0.960 . S
C337 H400 0.960 . S
C337 H401 0.960 . S
C338 C339 1.309 . S
C338 C343 1.304 . S
C338 O376 1.435 . S
C339 C338 1.309 . S
C339 C340 1.476 . S
C339 H403 0.930 . S
C340 C339 1.476 . S
C340 C341 1.400 . S
C340 C344 1.567 . S
C341 C340 1.400 . S
C341 C342 1.373 . S
C341 C363 1.432 . S
C342 C341 1.373 . S
C342 C343 1.339 . S
C342 C345 1.530 . S
C343 C338 1.304 . S
C343 C342 1.339 . S
C343 H404 0.930 . S
C344 C340 1.567 . S
C344 H405 0.961 . S
C344 H406 0.960 . S
C344 H407 0.958 . S
C345 C342 1.530 . S
C345 H408 0.961 . S
C345 H409 0.960 . S
C345 H410 0.960 . S
C346 C347 1.530 . S
C346 H412 0.967 . S
C346 H413 0.961 1_455 S
C346 H414 0.959 . S
C347 C346 1.530 . S
C347 O375 1.412 . S
C347 H411 0.980 . S
C348 C349 1.288 . S
C348 C353 1.377 . S
C348 O375 1.393 . S
C349 C348 1.288 . S
C349 C350 1.369 . S
C349 H415 0.932 . S
C350 C349 1.369 . S
C350 C351 1.398 . S
C350 C354 1.527 . S
C351 C350 1.398 . S
C351 C352 1.380 . S
C351 C365 1.497 . S
C352 C351 1.380 . S
C352 C353 1.383 . S
C352 C355 1.603 . S
C353 C348 1.377 . S
C353 C352 1.383 . S
C353 H416 0.929 . S
C354 C350 1.527 . S
C354 H417 0.961 . S
C354 H418 0.959 . S
C354 H419 0.959 . S
C355 C352 1.603 . S
C355 H420 0.960 . S
C355 H421 0.962 . S
C355 H422 0.961 . S
C356 C323 1.587 . S
C356 C357 1.360 . S
C356 C369 1.412 . S
C357 C356 1.360 . S
C357 C358 1.365 . S
C357 H423 0.929 . S
C358 C333 1.553 . S
C358 C357 1.365 . S
C358 C359 1.404 . S
C359 C358 1.404 . S
C359 C360 1.395 . S
C359 C370 1.451 . S
C360 C359 1.395 . S
C360 C361 1.322 . S
C360 H424 0.930 . S
C361 C360 1.322 . S
C361 C362 1.459 . S
C361 H425 0.929 . S
C362 C361 1.459 . S
C362 C363 1.445 . S
C362 C371 1.395 . S
C363 C341 1.432 . S
C363 C362 1.445 . S
C363 C364 1.370 . S
C364 C363 1.370 . S
C364 C365 1.438 . S
C364 H426 0.930 . S
C365 C351 1.497 . S
C365 C364 1.438 . S
C365 C366 1.360 . S
C366 C365 1.360 . S
C366 C367 1.401 . S
C366 C371 1.446 . S
C367 C366 1.401 . S
C367 C368 1.347 . S
C367 H427 0.929 . S
C368 C367 1.347 . S
C368 C369 1.455 . S
C368 H428 0.930 . S
C369 C356 1.412 . S
C369 C368 1.455 . S
C369 C370 1.331 . S
C370 C359 1.451 . S
C370 C369 1.331 . S
C370 C371 1.497 . S
C371 C362 1.395 . S
C371 C366 1.446 . S
C371 C370 1.497 . S
C372 C373 1.582 . S
C372 H429 0.962 . S
C372 H430 0.959 . S
C372 H431 0.958 . S
C373 C372 1.582 . S
C373 O376 1.458 . S
C373 H402 0.980 . S
O374 C319 1.426 . S
O374 C320 1.334 . S
O375 C347 1.412 . S
O375 C348 1.393 . S
O376 C338 1.435 . S
O376 C373 1.458 . S
O377 C329 1.468 . S
O377 C330 1.408 . S
H378 C319 0.980 . S
H379 C318 0.959 . S
H380 C318 0.959 1_655 S
H381 C318 0.960 . S
H382 C321 0.929 . S
H383 C325 0.929 . S
H384 C326 0.959 . S
H385 C326 0.961 . S
H386 C326 0.961 . S
H387 C327 0.960 . S
H388 C327 0.960 . S
H389 C327 0.961 . S
H390 C329 0.980 . S
H391 C328 0.961 . S
H392 C328 0.960 . S
H393 C328 0.959 . S
H394 C331 0.930 . S
H395 C335 0.931 . S
H396 C336 0.959 . S
H397 C336 0.961 . S
H398 C336 0.959 . S
H399 C337 0.960 . S
H400 C337 0.960 . S
H401 C337 0.960 . S
H402 C373 0.980 . S
H403 C339 0.930 . S
H404 C343 0.930 . S
H405 C344 0.961 . S
H406 C344 0.960 . S
H407 C344 0.958 . S
H408 C345 0.961 . S
H409 C345 0.960 . S
H410 C345 0.960 . S
H411 C347 0.980 . S
H412 C346 0.967 . S
H413 C346 0.961 1_655 S
H414 C346 0.959 . S
H415 C349 0.932 . S
H416 C353 0.929 . S
H417 C354 0.961 . S
H418 C354 0.959 . S
H419 C354 0.959 . S
H420 C355 0.960 . S
H421 C355 0.962 . S
H422 C355 0.961 . S
H423 C357 0.929 . S
H424 C360 0.930 . S
H425 C361 0.929 . S
H426 C364 0.930 . S
H427 C367 0.929 . S
H428 C368 0.930 . S
H429 C372 0.962 . S
H430 C372 0.959 . S
H431 C372 0.958 . S
C432 C433 1.560 . S
C432 H493 0.959 . S
C432 H494 0.959 . S
C432 H495 0.960 . S
C433 C432 1.560 . S
C433 O488 1.426 . S
C433 H492 0.980 . S
C434 C435 1.407 . S
C434 C439 1.418 . S
C434 O488 1.334 . S
C435 C434 1.407 . S
C435 C436 1.360 . S
C435 H496 0.929 . S
C436 C435 1.360 . S
C436 C437 1.401 . S
C436 C440 1.527 . S
C437 C436 1.401 . S
C437 C438 1.405 . S
C437 C470 1.587 . S
C438 C437 1.405 . S
C438 C439 1.332 . S
C438 C441 1.496 . S
C439 C434 1.418 . S
C439 C438 1.332 . S
C439 H497 0.929 . S
C440 C436 1.527 . S
C440 H498 0.959 . S
C440 H499 0.961 . S
C440 H500 0.961 . S
C441 C438 1.496 . S
C441 H501 0.960 . S
C441 H502 0.960 . S
C441 H503 0.961 . S
C442 C443 1.517 1_565 S
C442 H505 0.961 . S
C442 H506 0.960 . S
C442 H507 0.959 . S
C443 C442 1.517 1_545 S
C443 O491 1.468 . S
C443 H504 0.980 . S
C444 C445 1.349 . S
C444 C449 1.367 . S
C444 O491 1.408 . S
C445 C444 1.349 . S
C445 C446 1.407 . S
C445 H508 0.930 . S
C446 C445 1.407 . S
C446 C447 1.449 . S
C446 C450 1.535 . S
C447 C446 1.449 . S
C447 C448 1.384 . S
C447 C472 1.553 . S
C448 C447 1.384 . S
C448 C449 1.364 . S
C448 C451 1.450 . S
C449 C444 1.367 . S
C449 C448 1.364 . S
C449 H509 0.931 . S
C450 C446 1.535 . S
C450 H510 0.959 . S
C450 H511 0.961 . S
C450 H512 0.959 . S
C451 C448 1.450 . S
C451 H513 0.960 . S
C451 H514 0.960 . S
C451 H515 0.960 . S
C452 C453 1.309 . S
C452 C457 1.304 . S
C452 O490 1.435 . S
C453 C452 1.309 . S
C453 C454 1.476 . S
C453 H517 0.930 . S
C454 C453 1.476 . S
C454 C455 1.400 . S
C454 C458 1.567 . S
C455 C454 1.400 . S
C455 C456 1.373 . S
C455 C477 1.432 . S
C456 C455 1.373 . S
C456 C457 1.339 . S
C456 C459 1.530 . S
C457 C452 1.304 . S
C457 C456 1.339 . S
C457 H518 0.930 . S
C458 C454 1.567 . S
C458 H519 0.961 . S
C458 H520 0.960 . S
C458 H521 0.958 . S
C459 C456 1.530 . S
C459 H522 0.961 . S
C459 H523 0.960 . S
C459 H524 0.960 . S
C460 C461 1.530 . S
C460 H526 0.963 . S
C460 H527 0.961 . S
C460 H528 0.959 . S
C461 C460 1.530 . S
C461 O489 1.412 . S
C461 H525 0.980 . S
C462 C463 1.288 . S
C462 C467 1.377 . S
C462 O489 1.393 . S
C463 C462 1.288 . S
C463 C464 1.369 . S
C463 H529 0.932 . S
C464 C463 1.369 . S
C464 C465 1.398 . S
C464 C468 1.527 . S
C465 C464 1.398 . S
C465 C466 1.380 . S
C465 C479 1.497 . S
C466 C465 1.380 . S
C466 C467 1.383 . S
C466 C469 1.603 . S
C467 C462 1.377 . S
C467 C466 1.383 . S
C467 H530 0.929 . S
C468 C464 1.527 . S
C468 H531 0.961 . S
C468 H532 0.959 . S
C468 H533 0.959 . S
C469 C466 1.603 . S
C469 H534 0.960 . S
C469 H535 0.962 . S
C469 H536 0.961 . S
C470 C437 1.587 . S
C470 C471 1.360 . S
C470 C483 1.412 . S
C471 C470 1.360 . S
C471 C472 1.365 . S
C471 H537 0.929 . S
C472 C447 1.553 . S
C472 C471 1.365 . S
C472 C473 1.404 . S
C473 C472 1.404 . S
C473 C474 1.395 . S
C473 C484 1.451 . S
C474 C473 1.395 . S
C474 C475 1.322 . S
C474 H538 0.930 . S
C475 C474 1.322 . S
C475 C476 1.459 . S
C475 H539 0.929 . S
C476 C475 1.459 . S
C476 C477 1.445 . S
C476 C485 1.395 . S
C477 C455 1.432 . S
C477 C476 1.445 . S
C477 C478 1.370 . S
C478 C477 1.370 . S
C478 C479 1.438 . S
C478 H540 0.930 . S
C479 C465 1.497 . S
C479 C478 1.438 . S
C479 C480 1.360 . S
C480 C479 1.360 . S
C480 C481 1.401 . S
C480 C485 1.446 . S
C481 C480 1.401 . S
C481 C482 1.347 . S
C481 H541 0.929 . S
C482 C481 1.347 . S
C482 C483 1.455 . S
C482 H542 0.930 . S
C483 C470 1.412 . S
C483 C482 1.455 . S
C483 C484 1.331 . S
C484 C473 1.451 . S
C484 C483 1.331 . S
C484 C485 1.497 . S
C485 C476 1.395 . S
C485 C480 1.446 . S
C485 C484 1.497 . S
C486 C487 1.582 1_565 S
C486 H543 0.962 . S
C486 H544 0.959 . S
C486 H545 0.958 . S
C487 C486 1.582 1_545 S
C487 O490 1.458 . S
C487 H516 0.980 . S
O488 C433 1.426 . S
O488 C434 1.334 . S
O489 C461 1.412 . S
O489 C462 1.393 . S
O490 C452 1.435 . S
O490 C487 1.458 . S
O491 C443 1.468 . S
O491 C444 1.408 . S
H492 C433 0.980 . S
H493 C432 0.959 . S
H494 C432 0.959 . S
H495 C432 0.960 . S
H496 C435 0.929 . S
H497 C439 0.929 . S
H498 C440 0.959 . S
H499 C440 0.961 . S
H500 C440 0.961 . S
H501 C441 0.960 . S
H502 C441 0.960 . S
H503 C441 0.961 . S
H504 C443 0.980 . S
H505 C442 0.961 . S
H506 C442 0.960 . S
H507 C442 0.959 . S
H508 C445 0.930 . S
H509 C449 0.931 . S
H510 C450 0.959 . S
H511 C450 0.961 . S
H512 C450 0.959 . S
H513 C451 0.960 . S
H514 C451 0.960 . S
H515 C451 0.960 . S
H516 C487 0.980 . S
H517 C453 0.930 . S
H518 C457 0.930 . S
H519 C458 0.961 . S
H520 C458 0.960 . S
H521 C458 0.958 . S
H522 C459 0.961 . S
H523 C459 0.960 . S
H524 C459 0.960 . S
H525 C461 0.980 . S
H526 C460 0.963 . S
H527 C460 0.961 . S
H528 C460 0.959 . S
H529 C463 0.932 . S
H530 C467 0.929 . S
H531 C468 0.961 . S
H532 C468 0.959 . S
H533 C468 0.959 . S
H534 C469 0.960 . S
H535 C469 0.962 . S
H536 C469 0.961 . S
H537 C471 0.929 . S
H538 C474 0.930 . S
H539 C475 0.929 . S
H540 C478 0.930 . S
H541 C481 0.929 . S
H542 C482 0.930 . S
H543 C486 0.962 . S
H544 C486 0.959 . S
H545 C486 0.958 . S
C546 C547 1.560 . S
C546 H607 0.959 . S
C546 H608 0.959 . S
C546 H609 0.960 . S
C547 C546 1.560 . S
C547 O602 1.426 . S
C547 H606 0.980 . S
C548 C549 1.407 . S
C548 C553 1.418 . S
C548 O602 1.334 . S
C549 C548 1.407 . S
C549 C550 1.360 . S
C549 H610 0.929 . S
C550 C549 1.360 . S
C550 C551 1.401 . S
C550 C554 1.527 . S
C551 C550 1.401 . S
C551 C552 1.405 . S
C551 C584 1.587 . S
C552 C551 1.405 . S
C552 C553 1.332 . S
C552 C555 1.496 . S
C553 C548 1.418 . S
C553 C552 1.332 . S
C553 H611 0.929 . S
C554 C550 1.527 . S
C554 H612 0.959 . S
C554 H613 0.961 . S
C554 H614 0.961 . S
C555 C552 1.496 . S
C555 H615 0.960 . S
C555 H616 0.960 . S
C555 H617 0.961 . S
C556 C557 1.517 . S
C556 H619 0.961 . S
C556 H620 0.960 . S
C556 H621 0.959 . S
C557 C556 1.517 . S
C557 O605 1.468 . S
C557 H618 0.980 . S
C558 C559 1.349 . S
C558 C563 1.367 . S
C558 O605 1.408 . S
C559 C558 1.349 . S
C559 C560 1.407 . S
C559 H622 0.930 . S
C560 C559 1.407 . S
C560 C561 1.449 . S
C560 C564 1.535 . S
C561 C560 1.449 . S
C561 C562 1.384 . S
C561 C586 1.553 . S
C562 C561 1.384 . S
C562 C563 1.364 . S
C562 C565 1.450 . S
C563 C558 1.367 . S
C563 C562 1.364 . S
C563 H623 0.931 . S
C564 C560 1.535 . S
C564 H624 0.959 . S
C564 H625 0.961 . S
C564 H626 0.959 . S
C565 C562 1.450 . S
C565 H627 0.960 . S
C565 H628 0.960 . S
C565 H629 0.960 . S
C566 C567 1.309 . S
C566 C571 1.304 . S
C566 O604 1.435 . S
C567 C566 1.309 . S
C567 C568 1.476 . S
C567 H631 0.930 . S
C568 C567 1.476 . S
C568 C569 1.400 . S
C568 C572 1.567 . S
C569 C568 1.400 . S
C569 C570 1.373 . S
C569 C591 1.432 . S
C570 C569 1.373 . S
C570 C571 1.339 . S
C570 C573 1.530 . S
C571 C566 1.304 . S
C571 C570 1.339 . S
C571 H632 0.930 . S
C572 C568 1.567 . S
C572 H633 0.961 . S
C572 H634 0.960 . S
C572 H635 0.958 . S
C573 C570 1.530 . S
C573 H636 0.961 . S
C573 H637 0.960 . S
C573 H638 0.960 . S
C574 C575 1.530 . S
C574 H640 0.961 . S
C574 H641 0.961 . S
C574 H642 0.959 . S
C575 C574 1.530 . S
C575 O603 1.412 . S
C575 H639 0.980 . S
C576 C577 1.288 . S
C576 C581 1.377 . S
C576 O603 1.393 . S
C577 C576 1.288 . S
C577 C578 1.369 . S
C577 H643 0.932 . S
C578 C577 1.369 . S
C578 C579 1.398 . S
C578 C582 1.527 . S
C579 C578 1.398 . S
C579 C580 1.380 . S
C579 C593 1.497 . S
C580 C579 1.380 . S
C580 C581 1.383 . S
C580 C583 1.603 . S
C581 C576 1.377 . S
C581 C580 1.383 . S
C581 H644 0.929 . S
C582 C578 1.527 . S
C582 H645 0.961 . S
C582 H646 0.959 . S
C582 H647 0.959 . S
C583 C580 1.603 . S
C583 H648 0.960 . S
C583 H649 0.962 . S
C583 H650 0.961 . S
C584 C551 1.587 . S
C584 C585 1.360 . S
C584 C597 1.412 . S
C585 C584 1.360 . S
C585 C586 1.365 . S
C585 H651 0.929 . S
C586 C561 1.553 . S
C586 C585 1.365 . S
C586 C587 1.404 . S
C587 C586 1.404 . S
C587 C588 1.395 . S
C587 C598 1.451 . S
C588 C587 1.395 . S
C588 C589 1.322 . S
C588 H652 0.930 . S
C589 C588 1.322 . S
C589 C590 1.459 . S
C589 H653 0.929 . S
C590 C589 1.459 . S
C590 C591 1.445 . S
C590 C599 1.395 . S
C591 C569 1.432 . S
C591 C590 1.445 . S
C591 C592 1.370 . S
C592 C591 1.370 . S
C592 C593 1.438 . S
C592 H654 0.930 . S
C593 C579 1.497 . S
C593 C592 1.438 . S
C593 C594 1.360 . S
C594 C593 1.360 . S
C594 C595 1.401 . S
C594 C599 1.446 . S
C595 C594 1.401 . S
C595 C596 1.347 . S
C595 H655 0.929 . S
C596 C595 1.347 . S
C596 C597 1.455 . S
C596 H656 0.930 . S
C597 C584 1.412 . S
C597 C596 1.455 . S
C597 C598 1.331 . S
C598 C587 1.451 . S
C598 C597 1.331 . S
C598 C599 1.497 . S
C599 C590 1.395 . S
C599 C594 1.446 . S
C599 C598 1.497 . S
C600 C601 1.582 . S
C600 H657 0.953 1_565 S
C600 H658 0.959 . S
C600 H659 0.958 . S
C601 C600 1.582 . S
C601 O604 1.458 . S
C601 H630 0.980 . S
O602 C547 1.426 . S
O602 C548 1.334 . S
O603 C575 1.412 . S
O603 C576 1.393 . S
O604 C566 1.435 . S
O604 C601 1.458 . S
O605 C557 1.468 . S
O605 C558 1.408 . S
H606 C547 0.980 . S
H607 C546 0.959 . S
H608 C546 0.959 . S
H609 C546 0.960 . S
H610 C549 0.929 . S
H611 C553 0.929 . S
H612 C554 0.959 . S
H613 C554 0.961 . S
H614 C554 0.961 . S
H615 C555 0.960 . S
H616 C555 0.960 . S
H617 C555 0.961 . S
H618 C557 0.980 . S
H619 C556 0.961 . S
H620 C556 0.960 . S
H621 C556 0.959 . S
H622 C559 0.930 . S
H623 C563 0.931 . S
H624 C564 0.959 . S
H625 C564 0.961 . S
H626 C564 0.959 . S
H627 C565 0.960 . S
H628 C565 0.960 . S
H629 C565 0.960 . S
H630 C601 0.980 . S
H631 C567 0.930 . S
H632 C571 0.930 . S
H633 C572 0.961 . S
H634 C572 0.960 . S
H635 C572 0.958 . S
H636 C573 0.961 . S
H637 C573 0.960 . S
H638 C573 0.960 . S
H639 C575 0.980 . S
H640 C574 0.961 . S
H641 C574 0.961 . S
H642 C574 0.959 . S
H643 C577 0.932 . S
H644 C581 0.929 . S
H645 C582 0.961 . S
H646 C582 0.959 . S
H647 C582 0.959 . S
H648 C583 0.960 . S
H649 C583 0.962 . S
H650 C583 0.961 . S
H651 C585 0.929 . S
H652 C588 0.930 . S
H653 C589 0.929 . S
H654 C592 0.930 . S
H655 C595 0.929 . S
H656 C596 0.930 . S
H657 C600 0.953 1_545 S
H658 C600 0.959 . S
H659 C600 0.958 . S
C660 C661 1.560 1_554 S
C660 H721 0.959 . S
C660 H722 0.959 1_554 S
C660 H723 0.960 . S
C661 C660 1.560 1_556 S
C661 O716 1.426 . S
C661 H720 0.980 . S
C662 C663 1.407 . S
C662 C667 1.418 . S
C662 O716 1.334 . S
C663 C662 1.407 . S
C663 C664 1.360 . S
C663 H724 0.929 . S
C664 C663 1.360 . S
C664 C665 1.401 . S
C664 C668 1.527 . S
C665 C664 1.401 . S
C665 C666 1.405 . S
C665 C698 1.587 . S
C666 C665 1.405 . S
C666 C667 1.332 . S
C666 C669 1.496 . S
C667 C662 1.418 . S
C667 C666 1.332 . S
C667 H725 0.929 . S
C668 C664 1.527 . S
C668 H726 0.959 . S
C668 H727 0.961 . S
C668 H728 0.961 . S
C669 C666 1.496 . S
C669 H729 0.960 . S
C669 H730 0.960 . S
C669 H731 0.961 . S
C670 C671 1.517 1_455 S
C670 H733 0.961 . S
C670 H734 0.960 . S
C670 H735 0.959 . S
C671 C670 1.517 1_655 S
C671 O719 1.461 . S
C671 H732 0.980 . S
C672 C673 1.349 . S
C672 C677 1.367 . S
C672 O719 1.422 . S
C673 C672 1.349 . S
C673 C674 1.407 . S
C673 H736 0.930 . S
C674 C673 1.407 . S
C674 C675 1.449 . S
C674 C678 1.535 . S
C675 C674 1.449 . S
C675 C676 1.384 . S
C675 C700 1.553 . S
C676 C675 1.384 . S
C676 C677 1.364 . S
C676 C679 1.450 . S
C677 C672 1.367 . S
C677 C676 1.364 . S
C677 H737 0.931 . S
C678 C674 1.535 . S
C678 H738 0.959 . S
C678 H739 0.961 . S
C678 H740 0.959 . S
C679 C676 1.450 . S
C679 H741 0.960 . S
C679 H742 0.960 . S
C679 H743 0.960 . S
C680 C681 1.309 . S
C680 C685 1.304 . S
C680 O718 1.435 . S
C681 C680 1.309 . S
C681 C682 1.476 . S
C681 H745 0.930 . S
C682 C681 1.476 . S
C682 C683 1.400 . S
C682 C686 1.567 . S
C683 C682 1.400 . S
C683 C684 1.373 . S
C683 C705 1.432 . S
C684 C683 1.373 . S
C684 C685 1.339 . S
C684 C687 1.530 . S
C685 C680 1.304 . S
C685 C684 1.339 . S
C685 H746 0.930 . S
C686 C682 1.567 . S
C686 H747 0.961 . S
C686 H748 0.960 . S
C686 H749 0.958 . S
C687 C684 1.530 . S
C687 H750 0.961 . S
C687 H751 0.960 . S
C687 H752 0.960 . S
C688 C689 1.530 . S
C688 H754 0.961 . S
C688 H755 0.961 . S
C688 H756 0.959 . S
C689 C688 1.530 . S
C689 O717 1.412 . S
C689 H753 0.980 . S
C690 C691 1.288 . S
C690 C695 1.377 . S
C690 O717 1.393 . S
C691 C690 1.288 . S
C691 C692 1.369 . S
C691 H757 0.932 . S
C692 C691 1.369 . S
C692 C693 1.398 . S
C692 C696 1.527 . S
C693 C692 1.398 . S
C693 C694 1.380 . S
C693 C707 1.497 . S
C694 C693 1.380 . S
C694 C695 1.383 . S
C694 C697 1.603 . S
C695 C690 1.377 . S
C695 C694 1.383 . S
C695 H758 0.929 . S
C696 C692 1.527 . S
C696 H759 0.961 . S
C696 H760 0.959 . S
C696 H761 0.959 . S
C697 C694 1.603 . S
C697 H762 0.960 . S
C697 H763 0.962 . S
C697 H764 0.961 . S
C698 C665 1.587 . S
C698 C699 1.360 . S
C698 C711 1.412 . S
C699 C698 1.360 . S
C699 C700 1.365 . S
C699 H765 0.929 . S
C700 C675 1.553 . S
C700 C699 1.365 . S
C700 C701 1.404 . S
C701 C700 1.404 . S
C701 C702 1.395 . S
C701 C712 1.451 . S
C702 C701 1.395 . S
C702 C703 1.322 . S
C702 H766 0.930 . S
C703 C702 1.322 . S
C703 C704 1.459 . S
C703 H767 0.929 . S
C704 C703 1.459 . S
C704 C705 1.445 . S
C704 C713 1.395 . S
C705 C683 1.432 . S
C705 C704 1.445 . S
C705 C706 1.370 . S
C706 C705 1.370 . S
C706 C707 1.438 . S
C706 H768 0.930 . S
C707 C693 1.497 . S
C707 C706 1.438 . S
C707 C708 1.360 . S
C708 C707 1.360 . S
C708 C709 1.401 . S
C708 C713 1.446 . S
C709 C708 1.401 . S
C709 C710 1.347 . S
C709 H769 0.929 . S
C710 C709 1.347 . S
C710 C711 1.455 . S
C710 H770 0.930 . S
C711 C698 1.412 . S
C711 C710 1.455 . S
C711 C712 1.331 . S
C712 C701 1.451 . S
C712 C711 1.331 . S
C712 C713 1.497 . S
C713 C704 1.395 . S
C713 C708 1.446 . S
C713 C712 1.497 . S
C714 C715 1.582 1_455 S
C714 H771 0.962 . S
C714 H772 0.959 . S
C714 H773 0.958 . S
C715 C714 1.582 1_655 S
C715 O718 1.458 . S
C715 H744 0.980 . S
O716 C661 1.426 . S
O716 C662 1.334 . S
O717 C689 1.412 . S
O717 C690 1.393 . S
O718 C680 1.435 . S
O718 C715 1.458 . S
O719 C671 1.461 . S
O719 C672 1.422 . S
H720 C661 0.980 . S
H721 C660 0.959 . S
H722 C660 0.959 1_556 S
H723 C660 0.960 . S
H724 C663 0.929 . S
H725 C667 0.929 . S
H726 C668 0.959 . S
H727 C668 0.961 . S
H728 C668 0.961 . S
H729 C669 0.960 . S
H730 C669 0.960 . S
H731 C669 0.961 . S
H732 C671 0.980 . S
H733 C670 0.961 . S
H734 C670 0.960 . S
H735 C670 0.959 . S
H736 C673 0.930 . S
H737 C677 0.931 . S
H738 C678 0.959 . S
H739 C678 0.961 . S
H740 C678 0.959 . S
H741 C679 0.960 . S
H742 C679 0.960 . S
H743 C679 0.960 . S
H744 C715 0.980 . S
H745 C681 0.930 . S
H746 C685 0.930 . S
H747 C686 0.961 . S
H748 C686 0.960 . S
H749 C686 0.958 . S
H750 C687 0.961 . S
H751 C687 0.960 . S
H752 C687 0.960 . S
H753 C689 0.980 . S
H754 C688 0.961 . S
H755 C688 0.961 . S
H756 C688 0.959 . S
H757 C691 0.932 . S
H758 C695 0.929 . S
H759 C696 0.961 . S
H760 C696 0.959 . S
H761 C696 0.959 . S
H762 C697 0.960 . S
H763 C697 0.962 . S
H764 C697 0.961 . S
H765 C699 0.929 . S
H766 C702 0.930 . S
H767 C703 0.929 . S
H768 C706 0.930 . S
H769 C709 0.929 . S
H770 C710 0.930 . S
H771 C714 0.962 . S
H772 C714 0.959 . S
H773 C714 0.958 . S
C774 C775 1.560 . S
C774 H835 0.959 . S
C774 H836 0.959 . S
C774 H837 0.960 . S
C775 C774 1.560 . S
C775 O830 1.426 . S
C775 H834 0.980 . S
C776 C777 1.407 . S
C776 C781 1.418 . S
C776 O830 1.334 . S
C777 C776 1.407 . S
C777 C778 1.360 . S
C777 H838 0.929 . S
C778 C777 1.360 . S
C778 C779 1.401 . S
C778 C782 1.527 . S
C779 C778 1.401 . S
C779 C780 1.405 . S
C779 C812 1.587 . S
C780 C779 1.405 . S
C780 C781 1.332 . S
C780 C783 1.496 . S
C781 C776 1.418 . S
C781 C780 1.332 . S
C781 H839 0.929 . S
C782 C778 1.527 . S
C782 H840 0.959 . S
C782 H841 0.961 . S
C782 H842 0.961 . S
C783 C780 1.496 . S
C783 H843 0.960 . S
C783 H844 0.960 . S
C783 H845 0.961 . S
C784 C785 1.517 1_545 S
C784 H847 0.961 . S
C784 H848 0.960 . S
C784 H849 0.959 . S
C785 C784 1.517 1_565 S
C785 O833 1.468 . S
C785 H846 0.980 . S
C786 C787 1.349 . S
C786 C791 1.367 . S
C786 O833 1.408 . S
C787 C786 1.349 . S
C787 C788 1.407 . S
C787 H850 0.930 . S
C788 C787 1.407 . S
C788 C789 1.449 . S
C788 C792 1.535 . S
C789 C788 1.449 . S
C789 C790 1.384 . S
C789 C814 1.553 . S
C790 C789 1.384 . S
C790 C791 1.364 . S
C790 C793 1.450 . S
C791 C786 1.367 . S
C791 C790 1.364 . S
C791 H851 0.931 . S
C792 C788 1.535 . S
C792 H852 0.959 . S
C792 H853 0.961 . S
C792 H854 0.959 . S
C793 C790 1.450 . S
C793 H855 0.960 . S
C793 H856 0.960 . S
C793 H857 0.960 . S
C794 C795 1.309 . S
C794 C799 1.304 . S
C794 O832 1.435 . S
C795 C794 1.309 . S
C795 C796 1.476 . S
C795 H859 0.930 . S
C796 C795 1.476 . S
C796 C797 1.400 . S
C796 C800 1.567 . S
C797 C796 1.400 . S
C797 C798 1.373 . S
C797 C819 1.432 . S
C798 C797 1.373 . S
C798 C799 1.339 . S
C798 C801 1.530 . S
C799 C794 1.304 . S
C799 C798 1.339 . S
C799 H860 0.930 . S
C800 C796 1.567 . S
C800 H861 0.961 . S
C800 H862 0.960 . S
C800 H863 0.958 . S
C801 C798 1.530 . S
C801 H864 0.961 . S
C801 H865 0.960 . S
C801 H866 0.960 . S
C802 C803 1.530 . S
C802 H868 0.961 . S
C802 H869 0.961 . S
C802 H870 0.959 . S
C803 C802 1.530 . S
C803 O831 1.412 . S
C803 H867 0.980 . S
C804 C805 1.288 . S
C804 C809 1.377 . S
C804 O831 1.393 . S
C805 C804 1.288 . S
C805 C806 1.369 . S
C805 H871 0.932 . S
C806 C805 1.369 . S
C806 C807 1.398 . S
C806 C810 1.527 . S
C807 C806 1.398 . S
C807 C808 1.380 . S
C807 C821 1.497 . S
C808 C807 1.380 . S
C808 C809 1.383 . S
C808 C811 1.603 . S
C809 C804 1.377 . S
C809 C808 1.383 . S
C809 H872 0.929 . S
C810 C806 1.527 . S
C810 H873 0.961 . S
C810 H874 0.959 . S
C810 H875 0.959 . S
C811 C808 1.603 . S
C811 H876 0.960 . S
C811 H877 0.962 . S
C811 H878 0.961 . S
C812 C779 1.587 . S
C812 C813 1.360 . S
C812 C825 1.412 . S
C813 C812 1.360 . S
C813 C814 1.365 . S
C813 H879 0.929 . S
C814 C789 1.553 . S
C814 C813 1.365 . S
C814 C815 1.404 . S
C815 C814 1.404 . S
C815 C816 1.395 . S
C815 C826 1.451 . S
C816 C815 1.395 . S
C816 C817 1.322 . S
C816 H880 0.930 . S
C817 C816 1.322 . S
C817 C818 1.459 . S
C817 H881 0.929 . S
C818 C817 1.459 . S
C818 C819 1.445 . S
C818 C827 1.395 . S
C819 C797 1.432 . S
C819 C818 1.445 . S
C819 C820 1.370 . S
C820 C819 1.370 . S
C820 C821 1.438 . S
C820 H882 0.930 . S
C821 C807 1.497 . S
C821 C820 1.438 . S
C821 C822 1.360 . S
C822 C821 1.360 . S
C822 C823 1.401 . S
C822 C827 1.446 . S
C823 C822 1.401 . S
C823 C824 1.347 . S
C823 H883 0.929 . S
C824 C823 1.347 . S
C824 C825 1.455 . S
C824 H884 0.930 . S
C825 C812 1.412 . S
C825 C824 1.455 . S
C825 C826 1.331 . S
C826 C815 1.451 . S
C826 C825 1.331 . S
C826 C827 1.497 . S
C827 C818 1.395 . S
C827 C822 1.446 . S
C827 C826 1.497 . S
C828 C829 1.582 1_545 S
C828 H885 0.962 . S
C828 H886 0.959 . S
C828 H887 0.958 . S
C829 C828 1.582 1_565 S
C829 O832 1.458 . S
C829 H858 0.980 . S
O830 C775 1.426 . S
O830 C776 1.334 . S
O831 C803 1.412 . S
O831 C804 1.393 . S
O832 C794 1.435 . S
O832 C829 1.458 . S
O833 C785 1.468 . S
O833 C786 1.408 . S
H834 C775 0.980 . S
H835 C774 0.959 . S
H836 C774 0.959 . S
H837 C774 0.960 . S
H838 C777 0.929 . S
H839 C781 0.929 . S
H840 C782 0.959 . S
H841 C782 0.961 . S
H842 C782 0.961 . S
H843 C783 0.960 . S
H844 C783 0.960 . S
H845 C783 0.961 . S
H846 C785 0.980 . S
H847 C784 0.961 . S
H848 C784 0.960 . S
H849 C784 0.959 . S
H850 C787 0.930 . S
H851 C791 0.931 . S
H852 C792 0.959 . S
H853 C792 0.961 . S
H854 C792 0.959 . S
H855 C793 0.960 . S
H856 C793 0.960 . S
H857 C793 0.960 . S
H858 C829 0.980 . S
H859 C795 0.930 . S
H860 C799 0.930 . S
H861 C800 0.961 . S
H862 C800 0.960 . S
H863 C800 0.958 . S
H864 C801 0.961 . S
H865 C801 0.960 . S
H866 C801 0.960 . S
H867 C803 0.980 . S
H868 C802 0.961 . S
H869 C802 0.961 . S
H870 C802 0.959 . S
H871 C805 0.932 . S
H872 C809 0.929 . S
H873 C810 0.961 . S
H874 C810 0.959 . S
H875 C810 0.959 . S
H876 C811 0.960 . S
H877 C811 0.962 . S
H878 C811 0.961 . S
H879 C813 0.929 . S
H880 C816 0.930 . S
H881 C817 0.929 . S
H882 C820 0.930 . S
H883 C823 0.929 . S
H884 C824 0.930 . S
H885 C828 0.962 . S
H886 C828 0.959 . S
H887 C828 0.958 . S
C888 C889 1.560 . S
C888 H949 0.959 . S
C888 H950 0.959 . S
C888 H951 0.960 . S
C889 C888 1.560 . S
C889 O944 1.426 . S
C889 H948 0.980 . S
C890 C891 1.407 . S
C890 C895 1.418 . S
C890 O944 1.334 . S
C891 C890 1.407 . S
C891 C892 1.360 . S
C891 H952 0.929 . S
C892 C891 1.360 . S
C892 C893 1.401 . S
C892 C896 1.527 . S
C893 C892 1.401 . S
C893 C894 1.405 . S
C893 C926 1.587 . S
C894 C893 1.405 . S
C894 C895 1.332 . S
C894 C897 1.496 . S
C895 C890 1.418 . S
C895 C894 1.332 . S
C895 H953 0.929 . S
C896 C892 1.527 . S
C896 H954 0.959 . S
C896 H955 0.961 . S
C896 H956 0.961 . S
C897 C894 1.496 . S
C897 H957 0.960 . S
C897 H958 0.960 . S
C897 H959 0.961 . S
C898 C899 1.517 . S
C898 H961 0.961 . S
C898 H962 0.960 . S
C898 H963 0.959 . S
C899 C898 1.517 . S
C899 O947 1.468 . S
C899 H960 0.980 . S
C900 C901 1.349 . S
C900 C905 1.367 . S
C900 O947 1.408 . S
C901 C900 1.349 . S
C901 C902 1.407 . S
C901 H964 0.930 . S
C902 C901 1.407 . S
C902 C903 1.449 . S
C902 C906 1.535 . S
C903 C902 1.449 . S
C903 C904 1.384 . S
C903 C928 1.553 . S
C904 C903 1.384 . S
C904 C905 1.364 . S
C904 C907 1.450 . S
C905 C900 1.367 . S
C905 C904 1.364 . S
C905 H965 0.931 . S
C906 C902 1.535 . S
C906 H966 0.959 . S
C906 H967 0.961 . S
C906 H968 0.959 . S
C907 C904 1.450 . S
C907 H969 0.960 . S
C907 H970 0.960 . S
C907 H971 0.960 . S
C908 C909 1.309 . S
C908 C913 1.304 . S
C908 O946 1.435 . S
C909 C908 1.309 . S
C909 C910 1.476 . S
C909 H973 0.930 . S
C910 C909 1.476 . S
C910 C911 1.400 . S
C910 C914 1.567 . S
C911 C910 1.400 . S
C911 C912 1.373 . S
C911 C933 1.432 . S
C912 C911 1.373 . S
C912 C913 1.339 . S
C912 C915 1.530 . S
C913 C908 1.304 . S
C913 C912 1.339 . S
C913 H974 0.930 . S
C914 C910 1.567 . S
C914 H975 0.961 . S
C914 H976 0.960 . S
C914 H977 0.958 . S
C915 C912 1.530 . S
C915 H978 0.961 . S
C915 H979 0.960 . S
C915 H980 0.960 . S
C916 C917 1.530 . S
C916 H982 0.961 1_545 S
C916 H983 0.961 1_545 S
C916 H984 0.959 1_545 S
C917 C916 1.530 . S
C917 O945 1.412 . S
C917 H981 0.980 . S
C918 C919 1.288 . S
C918 C923 1.377 . S
C918 O945 1.393 . S
C919 C918 1.288 . S
C919 C920 1.369 . S
C919 H985 0.932 . S
C920 C919 1.369 . S
C920 C921 1.398 . S
C920 C924 1.527 . S
C921 C920 1.398 . S
C921 C922 1.380 . S
C921 C935 1.497 . S
C922 C921 1.380 . S
C922 C923 1.383 . S
C922 C925 1.603 . S
C923 C918 1.377 . S
C923 C922 1.383 . S
C923 H986 0.929 . S
C924 C920 1.527 . S
C924 H987 0.961 . S
C924 H988 0.959 . S
C924 H989 0.959 . S
C925 C922 1.603 . S
C925 H990 0.960 . S
C925 H991 0.962 . S
C925 H992 0.961 . S
C926 C893 1.587 . S
C926 C927 1.360 . S
C926 C939 1.412 . S
C927 C926 1.360 . S
C927 C928 1.365 . S
C927 H993 0.929 . S
C928 C903 1.553 . S
C928 C927 1.365 . S
C928 C929 1.404 . S
C929 C928 1.404 . S
C929 C930 1.395 . S
C929 C940 1.451 . S
C930 C929 1.395 . S
C930 C931 1.322 . S
C930 H994 0.930 . S
C931 C930 1.322 . S
C931 C932 1.459 . S
C931 H995 0.929 . S
C932 C931 1.459 . S
C932 C933 1.445 . S
C932 C941 1.395 . S
C933 C911 1.432 . S
C933 C932 1.445 . S
C933 C934 1.370 . S
C934 C933 1.370 . S
C934 C935 1.438 . S
C934 H996 0.930 . S
C935 C921 1.497 . S
C935 C934 1.438 . S
C935 C936 1.360 . S
C936 C935 1.360 . S
C936 C937 1.401 . S
C936 C941 1.446 . S
C937 C936 1.401 . S
C937 C938 1.347 . S
C937 H997 0.929 . S
C938 C937 1.347 . S
C938 C939 1.455 . S
C938 H998 0.930 . S
C939 C926 1.412 . S
C939 C938 1.455 . S
C939 C940 1.331 . S
C940 C929 1.451 . S
C940 C939 1.331 . S
C940 C941 1.497 . S
C941 C932 1.395 . S
C941 C936 1.446 . S
C941 C940 1.497 . S
C942 C943 1.582 . S
C942 H999 0.962 . S
C942 H1000 0.959 . S
C942 H1001 0.958 . S
C943 C942 1.582 . S
C943 O946 1.458 . S
C943 H972 0.980 . S
O944 C889 1.426 . S
O944 C890 1.334 . S
O945 C917 1.412 . S
O945 C918 1.393 . S
O946 C908 1.435 . S
O946 C943 1.458 . S
O947 C899 1.468 . S
O947 C900 1.408 . S
H948 C889 0.980 . S
H949 C888 0.959 . S
H950 C888 0.959 . S
H951 C888 0.960 . S
H952 C891 0.929 . S
H953 C895 0.929 . S
H954 C896 0.959 . S
H955 C896 0.961 . S
H956 C896 0.961 . S
H957 C897 0.960 . S
H958 C897 0.960 . S
H959 C897 0.961 . S
H960 C899 0.980 . S
H961 C898 0.961 . S
H962 C898 0.960 . S
H963 C898 0.959 . S
H964 C901 0.930 . S
H965 C905 0.931 . S
H966 C906 0.959 . S
H967 C906 0.961 . S
H968 C906 0.959 . S
H969 C907 0.960 . S
H970 C907 0.960 . S
H971 C907 0.960 . S
H972 C943 0.980 . S
H973 C909 0.930 . S
H974 C913 0.930 . S
H975 C914 0.961 . S
H976 C914 0.960 . S
H977 C914 0.958 . S
H978 C915 0.961 . S
H979 C915 0.960 . S
H980 C915 0.960 . S
H981 C917 0.980 . S
H982 C916 0.961 1_565 S
H983 C916 0.961 1_565 S
H984 C916 0.959 1_565 S
H985 C919 0.932 . S
H986 C923 0.929 . S
H987 C924 0.961 . S
H988 C924 0.959 . S
H989 C924 0.959 . S
H990 C925 0.960 . S
H991 C925 0.962 . S
H992 C925 0.961 . S
H993 C927 0.929 . S
H994 C930 0.930 . S
H995 C931 0.929 . S
H996 C934 0.930 . S
H997 C937 0.929 . S
H998 C938 0.930 . S
H999 C942 0.962 . S
H1000 C942 0.959 . S
H1001 C942 0.958 . S
C39 C347 3.040 . S
C91 C487 2.855 . S
C575 C128 2.670 . S
C715 C188 2.912 . S
C829 C250 2.833 . S
C899 C304 2.131 . S
C75 C557 1.960 . S
C144 C661 2.497 . S
C775 C198 2.112 . S
C917 C234 2.699 . S
C294 C329 1.527 . S
C433 C29 1.719 . S
C671 C38 3.232 . S
C92 C785 3.056 . S
C943 C135 2.332 . S
C181 C319 2.734 . S
C251 C443 3.153 . S
C303 C547 3.580 . S
C82 C889 3.337 . S
C373 C145 2.189 . S
C197 C461 2.315 . S
C241 C601 2.134 . S
C287 C689 1.926 . S
C22 C803 2.102 . S
