# Generated by pormake.
# Topology pyr, (3,6)-cn, num edge types: 1
# Building blocks:
#     Node 0, Type 0, BuildingBlock: BETDIP_clean_linker_0, # of connection points: 3
#     Node 1, Type 0, BuildingBlock: BETDIP_clean_linker_0, # of connection points: 3
#     Node 2, Type 0, BuildingBlock: BETDIP_clean_linker_0, # of connection points: 3
#     Node 3, Type 0, BuildingBlock: BETDIP_clean_linker_0, # of connection points: 3
#     Node 4, Type 0, BuildingBlock: BETDIP_clean_linker_0, # of connection points: 3
#     Node 5, Type 0, BuildingBlock: BETDIP_clean_linker_0, # of connection points: 3
#     Node 6, Type 0, BuildingBlock: BETDIP_clean_linker_0, # of connection points: 3
#     Node 7, Type 0, BuildingBlock: BETDIP_clean_linker_0, # of connection points: 3
#     Node 8, Type 1, BuildingBlock: PAMTUU_clean_sbu_0, # of connection points: 6
#     Node 9, Type 1, BuildingBlock: PAMTUU_clean_sbu_0, # of connection points: 6
#     Node 10, Type 1, BuildingBlock: PAMTUU_clean_sbu_0, # of connection points: 6
#     Node 11, Type 1, BuildingBlock: PAMTUU_clean_sbu_0, # of connection points: 6
#     Edge 12, Type (0, 1), BuildingBlock: CIFDUS_clean_linker_0, # of connection points: 2
#     Edge 13, Type (0, 1), BuildingBlock: CIFDUS_clean_linker_0, # of connection points: 2
#     Edge 14, Type (0, 1), BuildingBlock: CIFDUS_clean_linker_0, # of connection points: 2
#     Edge 15, Type (0, 1), BuildingBlock: CIFDUS_clean_linker_0, # of connection points: 2
#     Edge 16, Type (0, 1), BuildingBlock: CIFDUS_clean_linker_0, # of connection points: 2
#     Edge 17, Type (0, 1), BuildingBlock: CIFDUS_clean_linker_0, # of connection points: 2
#     Edge 18, Type (0, 1), BuildingBlock: CIFDUS_clean_linker_0, # of connection points: 2
#     Edge 19, Type (0, 1), BuildingBlock: CIFDUS_clean_linker_0, # of connection points: 2
#     Edge 20, Type (0, 1), BuildingBlock: CIFDUS_clean_linker_0, # of connection points: 2
#     Edge 21, Type (0, 1), BuildingBlock: CIFDUS_clean_linker_0, # of connection points: 2
#     Edge 22, Type (0, 1), BuildingBlock: CIFDUS_clean_linker_0, # of connection points: 2
#     Edge 23, Type (0, 1), BuildingBlock: CIFDUS_clean_linker_0, # of connection points: 2
#     Edge 24, Type (0, 1), BuildingBlock: CIFDUS_clean_linker_0, # of connection points: 2
#     Edge 25, Type (0, 1), BuildingBlock: CIFDUS_clean_linker_0, # of connection points: 2
#     Edge 26, Type (0, 1), BuildingBlock: CIFDUS_clean_linker_0, # of connection points: 2
#     Edge 27, Type (0, 1), BuildingBlock: CIFDUS_clean_linker_0, # of connection points: 2
#     Edge 28, Type (0, 1), BuildingBlock: CIFDUS_clean_linker_0, # of connection points: 2
#     Edge 29, Type (0, 1), BuildingBlock: CIFDUS_clean_linker_0, # of connection points: 2
#     Edge 30, Type (0, 1), BuildingBlock: CIFDUS_clean_linker_0, # of connection points: 2
#     Edge 31, Type (0, 1), BuildingBlock: CIFDUS_clean_linker_0, # of connection points: 2
#     Edge 32, Type (0, 1), BuildingBlock: CIFDUS_clean_linker_0, # of connection points: 2
#     Edge 33, Type (0, 1), BuildingBlock: CIFDUS_clean_linker_0, # of connection points: 2
#     Edge 34, Type (0, 1), BuildingBlock: CIFDUS_clean_linker_0, # of connection points: 2
#     Edge 35, Type (0, 1), BuildingBlock: CIFDUS_clean_linker_0, # of connection points: 2
# Relax obj value: 0.148
# Max RMSD: 0.161
# Mean RMSD: 0.132
data_MOF--net-pyr--node1-PAMTUU_clean_sbu_0--node2-BETDIP_clean_linker_0--edge1-CIFDUS_clean_linker_0
_symmetry_space_group_name_H-M    P1
_symmetry_Int_Tables_number       1
_symmetry_cell_setting            triclinic
loop_
_symmetry_equiv_pos_as_xyz
'x, y, z'
_cell_length_a     33.571462
_cell_length_b     34.119091
_cell_length_c     32.659574
_cell_angle_alpha  90.875594
_cell_angle_beta   89.445737
_cell_angle_gamma 108.39746
loop_
_atom_site_label
_atom_site_type_symbol
_atom_site_fract_x
_atom_site_fract_y
_atom_site_fract_z
_atom_type_partial_charge
H0 H 0.32885 0.28076 0.27759 0.0
H1 H 0.38662 0.27698 0.16124 0.0
H2 H 0.43762 0.23981 0.26866 0.0
H3 H 0.34933 0.32412 0.14426 0.0
C4 C 0.32111 0.31176 0.16262 0.0
C5 C 0.35511 0.27669 0.2605 0.0
C6 C 0.38359 0.26009 0.27926 0.0
C7 C 0.35676 0.28421 0.21857 0.0
C8 C 0.38722 0.27461 0.19424 0.0
C9 C 0.4165 0.25857 0.21248 0.0
C10 C 0.4157 0.25326 0.2551 0.0
N11 N 0.32321 0.29554 0.20193 0.0
H12 H 0.11768 0.77819 0.81806 0.0
H13 H 0.15236 0.7236 0.70931 0.0
H14 H 0.2278 0.73958 0.81726 0.0
H15 H 0.12436 0.76684 0.67899 0.0
C16 C 0.10291 0.77568 0.69945 0.0
C17 C 0.13764 0.76283 0.8029 0.0
C18 C 0.17297 0.75929 0.82313 0.0
C19 C 0.13038 0.75101 0.76174 0.0
C20 C 0.15731 0.73268 0.74121 0.0
C21 C 0.1924 0.72826 0.76135 0.0
C22 C 0.19958 0.74108 0.8024 0.0
N23 N 0.09934 0.76326 0.74097 0.0
H24 H 0.72138 0.44965 0.85708 0.0
H25 H 0.61886 0.33591 0.85273 0.0
H26 H 0.71285 0.3557 0.94614 0.0
H27 H 0.67857 0.47443 0.8189 0.0
C28 C 0.65716 0.44867 0.80229 0.0
C29 C 0.70481 0.41982 0.86978 0.0
C30 C 0.72232 0.40539 0.90337 0.0
C31 C 0.66692 0.39494 0.85181 0.0
C32 C 0.6472 0.35526 0.86741 0.0
C33 C 0.6636 0.34037 0.90125 0.0
C34 C 0.70085 0.36606 0.91912 0.0
N35 N 0.64816 0.40764 0.81733 0.0
H36 H 0.80488 0.63779 0.35917 0.0
H37 H 0.91292 0.74662 0.35392 0.0
H38 H 0.81757 0.7377 0.44519 0.0
H39 H 0.90795 0.72945 0.28622 0.0
C40 C 0.90072 0.69609 0.28598 0.0
C41 C 0.82235 0.66804 0.3712 0.0
C42 C 0.80659 0.68488 0.40491 0.0
C43 C 0.85988 0.69053 0.35173 0.0
C44 C 0.88286 0.72994 0.3673 0.0
C45 C 0.86795 0.7473 0.4012 0.0
C46 C 0.82957 0.72455 0.41934 0.0
N47 N 0.87391 0.67257 0.31693 0.0
H48 H 0.62227 0.76465 0.99716 0.0
H49 H 0.69213 0.72417 0.90354 0.0
H50 H 0.69089 0.8495 0.90584 0.0
H51 H 0.62744 0.63588 0.95649 0.0
C52 C 0.65289 0.66491 0.95829 0.0
C53 C 0.64262 0.77137 0.97047 0.0
C54 C 0.65423 0.81085 0.95316 0.0
C55 C 0.65627 0.73995 0.95318 0.0
C56 C 0.68191 0.74814 0.91795 0.0
C57 C 0.69456 0.78771 0.90106 0.0
C58 C 0.68034 0.81871 0.91851 0.0
N59 N 0.64219 0.70028 0.9713 0.0
H60 H 0.90562 0.27659 0.40538 0.0
H61 H 0.85296 0.31861 0.51169 0.0
H62 H 0.78864 0.30216 0.3967 0.0
H63 H 0.97082 0.31022 0.44751 0.0
C64 C 0.95394 0.28885 0.47086 0.0
C65 C 0.8818 0.28781 0.41927 0.0
C66 C 0.84753 0.28906 0.39565 0.0
C67 C 0.88404 0.2986 0.46118 0.0
C68 C 0.85201 0.31138 0.47921 0.0
C69 C 0.81803 0.31332 0.45563 0.0
C70 C 0.81604 0.30231 0.4141 0.0
N71 N 0.91557 0.29231 0.4865 0.0
H72 H 0.3107 0.65895 0.2473 0.0
H73 H 0.40956 0.77507 0.25127 0.0
H74 H 0.32502 0.74482 0.14905 0.0
H75 H 0.36302 0.63687 0.27795 0.0
C76 C 0.37632 0.66181 0.2998 0.0
C77 C 0.32751 0.6878 0.23283 0.0
C78 C 0.31192 0.69916 0.19632 0.0
C79 C 0.36386 0.71447 0.25185 0.0
C80 C 0.38318 0.7539 0.23528 0.0
C81 C 0.36865 0.76592 0.19859 0.0
C82 C 0.33434 0.73729 0.17875 0.0
N83 N 0.38062 0.70326 0.28846 0.0
H84 H 0.11176 0.32493 0.74082 0.0
H85 H 0.21609 0.4363 0.7392 0.0
H86 H 0.21588 0.33495 0.65888 0.0
H87 H 0.19554 0.43405 0.80974 0.0
C88 C 0.16216 0.42809 0.80486 0.0
C89 C 0.14205 0.34232 0.72824 0.0
C90 C 0.16107 0.32472 0.69747 0.0
C91 C 0.16208 0.38198 0.74401 0.0
C92 C 0.20152 0.40493 0.72836 0.0
C93 C 0.22142 0.38827 0.6976 0.0
C94 C 0.20092 0.34803 0.68254 0.0
N95 N 0.14113 0.39861 0.77452 0.0
Tb96 Tb 0.06033 0.0324 0.53153 0.0
Tb97 Tb 0.98944 1.01686 0.60474 0.0
C98 C 0.97752 0.95593 0.52948 0.0
C99 C 0.15295 0.07856 0.46417 0.0
C100 C 0.22616 0.14092 0.43998 0.0
C101 C 0.21041 0.10443 0.41646 0.0
C102 C 0.17424 0.07353 0.42855 0.0
C103 C 0.16789 0.11508 0.48761 0.0
C104 C 0.20428 0.14618 0.4755 0.0
C105 C 0.11672 0.04437 0.47742 0.0
O106 O 0.03395 0.08241 0.52681 0.0
O107 O 0.97007 0.04909 0.55547 0.0
O108 O 0.03113 0.07913 0.6148 0.0
O109 O 0.09011 0.07369 0.58227 0.0
O110 O 0.9263 1.00568 0.62001 0.0
O111 O 0.97302 1.01405 0.66729 0.0
O112 O 0.03442 0.98695 0.62512 0.0
O113 O 0.06158 0.97746 0.56245 0.0
O114 O 1.00412 0.98522 0.50787 0.0
O115 O 0.97272 0.9602 0.56905 0.0
C116 C 0.99479 0.07975 0.5343 0.0
O117 O 0.11969 0.03059 0.51387 0.0
O118 O 0.0797 0.04783 0.4708 0.0
C119 C 0.07152 0.09339 0.60707 0.0
C120 C 0.90489 0.9676 0.68079 0.0
C121 C 0.84544 0.90549 0.72509 0.0
C122 C 0.88019 0.93309 0.74504 0.0
C123 C 0.90952 0.96402 0.72309 0.0
C124 C 0.87123 0.93864 0.66052 0.0
C125 C 0.84173 0.90797 0.68252 0.0
C126 C 0.93303 1.00345 0.65901 0.0
C127 C 0.05551 0.96895 0.60137 0.0
H128 H 0.22577 0.09989 0.38828 0.0
H129 H 0.16303 0.04552 0.41017 0.0
H130 H 0.15169 0.11925 0.51539 0.0
H131 H 0.21555 0.174 0.49409 0.0
H132 H 0.88348 0.93216 0.77794 0.0
H133 H 0.935 0.98608 0.73946 0.0
H134 H 0.86678 0.9404 0.62788 0.0
H135 H 0.81532 0.88689 0.66644 0.0
Tb136 Tb 0.58206 0.0648 0.08919 0.0
Tb137 Tb 0.50471 0.03924 1.02336 0.0
C138 C 0.57722 1.00177 1.01902 0.0
C139 C 0.67494 0.12369 0.15288 0.0
C140 C 0.73555 0.18925 0.19276 0.0
C141 C 0.74738 0.15819 0.17205 0.0
C142 C 0.71727 0.12559 0.15249 0.0
C143 C 0.66346 0.15622 0.17087 0.0
C144 C 0.69351 0.18868 0.19072 0.0
C145 C 0.64325 0.08595 0.13762 0.0
O146 O 0.60434 0.10382 1.03589 0.0
O147 O 0.54147 0.10224 1.00777 0.0
O148 O 0.48362 0.06287 0.07853 0.0
O149 O 0.5467 0.10779 0.09807 0.0
O150 O 0.47639 1.00405 0.97231 0.0
O151 O 0.45053 0.0488 0.99948 0.0
O152 O 0.48901 0.98648 0.06423 0.0
O153 O 0.53488 1.01273 0.11772 0.0
O154 O 0.58295 1.00874 0.0583 0.0
O155 O 0.55702 1.02176 0.99783 0.0
C156 C 0.58216 0.11958 1.01191 0.0
O157 O 0.60433 0.07994 0.14885 0.0
O158 O 0.64645 0.07609 0.09926 0.0
C159 C 0.50563 0.09717 0.09689 0.0
C160 C 0.40232 0.9878 0.97116 0.0
C161 C 0.32146 0.93149 0.95711 0.0
C162 C 0.32648 0.97252 0.96917 0.0
C163 C 0.36656 1.00046 0.97592 0.0
C164 C 0.39713 0.94627 0.96126 0.0
C165 C 0.35723 0.91851 0.95431 0.0
C166 C 0.44475 1.01843 0.97319 0.0
C167 C 0.503 0.98371 0.10129 0.0
H168 H 0.77961 0.15811 0.1725 0.0
H169 H 0.7268 0.10094 0.13848 0.0
H170 H 0.63102 0.15569 0.17129 0.0
H171 H 0.6832 0.21186 0.20665 0.0
H172 H 0.29958 0.98344 0.97197 0.0
H173 H 0.36963 0.03229 0.98351 0.0
H174 H 0.42397 0.93543 0.95717 0.0
H175 H 0.35484 0.88745 0.94429 0.0
Tb176 Tb 0.51416 0.50964 0.52943 0.0
Tb177 Tb 0.50801 0.59244 0.57727 0.0
C178 C 0.47116 0.57023 0.48806 0.0
C179 C 0.56173 0.4316 0.49924 0.0
C180 C 0.63427 0.40703 0.50075 0.0
C181 C 0.60008 0.38604 0.47563 0.0
C182 C 0.5641 0.39835 0.47482 0.0
C183 C 0.59528 0.45197 0.52509 0.0
C184 C 0.63126 0.43983 0.52582 0.0
C185 C 0.52561 0.44684 0.49632 0.0
O186 O 0.577 0.55396 0.52769 0.0
O187 O 0.5608 0.61409 0.53512 0.0
O188 O 0.55602 0.57342 0.60874 0.0
O189 O 0.52961 0.50469 0.59363 0.0
O190 O 0.50512 0.65307 0.57822 0.0
O191 O 0.50461 0.62048 0.63436 0.0
O192 O 0.45644 0.54006 0.59911 0.0
O193 O 0.44802 0.49632 0.5437 0.0
O194 O 0.4921 0.54361 0.4833 0.0
O195 O 0.46754 0.58693 0.52398 0.0
C196 C 0.58645 0.59398 0.52294 0.0
O197 O 0.50428 0.44569 0.5301 0.0
O198 O 0.53346 0.48227 0.47823 0.0
C199 C 0.55285 0.5349 0.61677 0.0
C200 C 0.46475 0.66602 0.63364 0.0
C201 C 0.39775 0.69021 0.66633 0.0
C202 C 0.43573 0.69837 0.68783 0.0
C203 C 0.46886 0.68653 0.67156 0.0
C204 C 0.42678 0.65713 0.61219 0.0
C205 C 0.3936 0.66925 0.62835 0.0
C206 C 0.50005 0.65325 0.61782 0.0
C207 C 0.43377 0.50796 0.57776 0.0
H208 H 0.60169 0.36099 0.4556 0.0
H209 H 0.53855 0.38249 0.45454 0.0
H210 H 0.59392 0.47778 0.54418 0.0
H211 H 0.65686 0.4563 0.54576 0.0
H212 H 0.43979 0.7136 0.71754 0.0
H213 H 0.49772 0.69319 0.68879 0.0
H214 H 0.42279 0.64092 0.58298 0.0
H215 H 0.36497 0.66272 0.61083 0.0
Tb216 Tb 0.01734 0.58596 1.02099 0.0
Tb217 Tb 0.02008 0.50611 0.07419 0.0
C218 C 0.06474 0.52523 0.98958 0.0
C219 C 0.96887 0.65761 0.9801 0.0
C220 C 0.89326 0.67615 0.9741 0.0
C221 C 0.92898 0.69925 0.95215 0.0
C222 C 0.96661 0.68975 0.95488 0.0
C223 C 0.93361 0.63581 1.00322 0.0
C224 C 0.89607 0.64472 0.99996 0.0
C225 C 1.0067 0.64478 0.98138 0.0
O226 O 0.95351 0.54367 1.02278 0.0
O227 O 0.97051 0.48457 1.02848 0.0
O228 O 0.97624 0.53006 0.10817 0.0
O229 O 0.99947 0.59612 0.08342 0.0
O230 O 1.00942 0.44217 0.07358 0.0
O231 O 0.03291 0.47867 0.12776 0.0
O232 O 0.07227 0.55785 0.09668 0.0
O233 O 0.08172 0.60368 1.04343 0.0
O234 O 0.03966 0.54626 0.9795 0.0
O235 O 0.06858 0.51573 1.02769 0.0
C236 C 0.94407 0.50371 1.01746 0.0
O237 O 0.02539 0.64947 1.01672 0.0
O238 O 1.00211 0.60829 0.96568 0.0
C239 C 0.97882 0.56933 0.11076 0.0
C240 C 0.06277 0.4269 0.10982 0.0
C241 C 0.13382 0.39963 0.11254 0.0
C242 C 0.10729 0.39594 0.14696 0.0
C243 C 0.07207 0.40944 0.14556 0.0
C244 C 0.08904 0.43044 0.07535 0.0
C245 C 0.12408 0.41682 0.07665 0.0
C246 C 0.0271 0.44329 0.10909 0.0
C247 C 0.09458 0.59137 0.07753 0.0
H248 H 0.92736 0.72364 0.93202 0.0
H249 H 0.99357 0.7069 0.93687 0.0
H250 H 0.93487 0.61134 1.02333 0.0
H251 H 0.86902 0.62682 1.01746 0.0
H252 H 0.11424 0.38346 0.17532 0.0
H253 H 0.05246 0.40684 0.17258 0.0
H254 H 0.08271 0.44398 1.04737 0.0
H255 H 0.14347 0.41968 1.04946 0.0
H256 H 0.34743 0.28773 0.34479 0.0
H257 H 0.39547 0.18898 0.30737 0.0
H258 H 0.35771 0.14696 0.36285 0.0
H259 H 0.29776 0.1312 0.40951 0.0
H260 H 0.23953 0.22441 0.43805 0.0
H261 H 0.29374 0.27499 0.39882 0.0
C262 C 0.35002 0.25716 0.34893 0.0
C263 C 0.37324 0.24135 0.32061 0.0
C264 C 0.32523 0.23144 0.37888 0.0
C265 C 0.3779 0.20245 0.32807 0.0
C266 C 0.35561 0.17782 0.35961 0.0
C267 C 0.29729 0.16277 0.40758 0.0
C268 C 0.26403 0.17373 0.42555 0.0
C269 C 0.32701 0.19091 0.38315 0.0
C270 C 0.26459 0.21505 0.42416 0.0
C271 C 0.29541 0.24392 0.40144 0.0
H272 H 0.17676 0.83791 0.84052 0.0
H273 H 0.2041 0.73334 0.89126 0.0
H274 H 0.247 0.77792 0.94444 0.0
H275 H 0.28702 0.84818 0.96733 0.0
H276 H 0.26417 0.95272 0.91096 0.0
H277 H 0.20778 0.90651 0.87068 0.0
C278 C 0.19071 0.82452 0.86416 0.0
C279 C 0.1877 0.78251 0.86175 0.0
C280 C 0.21655 0.85054 0.89348 0.0
C281 C 0.20642 0.76573 0.8923 0.0
C282 C 0.23107 0.79124 0.92254 0.0
C283 C 0.26926 0.86083 0.94667 0.0
C284 C 0.28057 0.90389 0.94158 0.0
C285 C 0.23815 0.83402 0.92198 0.0
C286 C 0.25635 0.9198 0.91565 0.0
C287 C 0.2243 0.89333 0.89214 0.0
H288 H 0.66096 0.52382 0.77268 0.0
H289 H 0.60296 0.39347 0.74982 0.0
H290 H 0.56638 0.40855 0.69066 0.0
H291 H 0.55024 0.4588 0.64533 0.0
H292 H 0.60736 0.5893 0.66896 0.0
H293 H 0.64461 0.57413 0.72744 0.0
C294 C 0.64032 0.49872 0.7547 0.0
C295 C 0.6348 0.45756 0.76587 0.0
C296 C 0.61907 0.50766 0.72069 0.0
C297 C 0.60786 0.42543 0.7422 0.0
C298 C 0.58688 0.43406 0.70823 0.0
C299 C 0.57084 0.48401 0.66319 0.0
C300 C 0.57577 0.52526 0.65244 0.0
C301 C 0.59214 0.47506 0.69718 0.0
C302 C 0.60271 0.5573 0.67626 0.0
C303 C 0.62413 0.54864 0.70984 0.0
H304 H 0.89277 0.61368 0.27183 0.0
H305 H 0.94366 0.73549 0.221 0.0
H306 H 0.97097 0.70704 0.16223 0.0
H307 H 0.9815 0.64852 0.12571 0.0
H308 H 0.93275 0.52601 0.17549 0.0
H309 H 0.90339 0.55373 0.23401 0.0
C310 C 0.90974 0.63389 0.24781 0.0
C311 C 0.91615 0.67674 0.25075 0.0
C312 C 0.92576 0.61723 0.21392 0.0
C313 C 0.93833 0.70248 0.21945 0.0
C314 C 0.95396 0.68623 0.18581 0.0
C315 C 0.9644 0.62761 0.1492 0.0
C316 C 0.95948 0.58512 0.14601 0.0
C317 C 0.94801 0.64376 0.18278 0.0
C318 C 0.93711 0.55883 0.177 0.0
C319 C 0.92033 0.57471 0.21056 0.0
H320 H 0.38648 0.1967 0.15827 0.0
H321 H 0.50139 0.27325 0.21317 0.0
H322 H 0.53988 0.23042 0.18104 0.0
H323 H 0.53938 0.16819 0.14138 0.0
H324 H 0.42266 0.08959 0.09045 0.0
H325 H 0.38627 0.13599 0.1173 0.0
C326 C 0.42017 0.20457 0.16223 0.0
C327 C 0.44137 0.23837 0.18728 0.0
C328 C 0.44151 0.17892 0.14513 0.0
C329 C 0.48472 0.24765 0.19341 0.0
C330 C 0.50654 0.22297 0.1754 0.0
C331 C 0.50599 0.16123 0.13612 0.0
C332 C 0.48379 0.12524 0.11417 0.0
C333 C 0.48505 0.18796 0.15194 0.0
C334 C 0.44054 0.11679 0.10756 0.0
C335 C 0.41966 0.14345 0.12271 0.0
H336 H 0.12736 0.82258 0.63307 0.0
H337 H 0.04552 0.80612 0.73829 0.0
H338 H 0.02477 0.86586 0.71847 0.0
H339 H 0.03001 0.92297 0.67062 0.0
H340 H 0.11366 0.93899 0.56645 0.0
H341 H 0.1339 0.87979 0.58678 0.0
C342 C 0.10476 0.83196 0.65149 0.0
C343 C 0.08785 0.80998 0.68685 0.0
C344 C 0.09361 0.86659 0.64033 0.0
C345 C 0.05893 0.82258 0.71079 0.0
C346 C 0.04717 0.85681 0.69955 0.0
C347 C 0.053 0.91375 0.65271 0.0
C348 C 0.07015 0.93539 0.61702 0.0
C349 C 0.06448 0.87923 0.66443 0.0
C350 C 0.0997 0.92282 0.59394 0.0
C351 C 0.11131 0.88885 0.60545 0.0
H352 H 0.78529 0.37841 0.93171 0.0
H353 H 0.75161 0.48954 0.91796 0.0
H354 H 0.81682 0.52973 0.95173 0.0
H355 H 0.88301 0.53303 0.98677 0.0
H356 H 0.91456 0.42076 1.0017 0.0
H357 H 0.85022 0.38144 0.96684 0.0
C358 C 0.79182 0.41137 0.93641 0.0
C359 C 0.76308 0.43067 0.92237 0.0
C360 C 0.82904 0.43417 0.95645 0.0
C361 C 0.77305 0.4737 0.92796 0.0
C362 C 0.81029 0.49671 0.94763 0.0
C363 C 0.87578 0.49993 0.98255 0.0
C364 C 0.90385 0.48002 0.99712 0.0
C365 C 0.83845 0.47724 0.96226 0.0
C366 C 0.89379 0.43708 0.99106 0.0
C367 C 0.85692 0.41447 0.97098 0.0
H368 H 0.74506 0.71459 0.43412 0.0
H369 H 0.77729 0.60208 0.42201 0.0
H370 H 0.71246 0.56417 0.45751 0.0
H371 H 0.64703 0.56315 0.49292 0.0
H372 H 0.61641 0.67652 0.5066 0.0
H373 H 0.68077 0.71394 0.47055 0.0
C374 C 0.73826 0.68186 0.4396 0.0
C375 C 0.76631 0.66137 0.42539 0.0
C376 C 0.70129 0.66038 0.46066 0.0
C377 C 0.7562 0.61867 0.43204 0.0
C378 C 0.71924 0.59699 0.45269 0.0
C379 C 0.65445 0.59609 0.48822 0.0
C380 C 0.62673 0.61689 0.50263 0.0
C381 C 0.69162 0.61756 0.46728 0.0
C382 C 0.63703 0.65959 0.49604 0.0
C383 C 0.67385 0.68108 0.47527 0.0
H384 H 0.31199 0.37254 0.11446 0.0
H385 H 0.24205 0.26812 0.1864 0.0
H386 H 0.17754 0.28474 0.17521 0.0
H387 H 0.1417 0.3312 0.14872 0.0
H388 H 0.21181 0.43837 0.08026 0.0
H389 H 0.27513 0.41818 0.08575 0.0
C390 C 0.28245 0.35324 0.12713 0.0
C391 C 0.28173 0.31945 0.15143 0.0
C392 C 0.24551 0.3636 0.12142 0.0
C393 C 0.24342 0.29462 0.16793 0.0
C394 C 0.2065 0.3041 0.16159 0.0
C395 C 0.17087 0.3503 0.13519 0.0
C396 C 0.17194 0.38637 0.11437 0.0
C397 C 0.20734 0.33901 0.13916 0.0
C398 C 0.20988 0.41022 0.0962 0.0
C399 C 0.24624 0.39884 0.09952 0.0
H400 H 0.69905 0.28509 0.93303 0.0
H401 H 0.57871 0.3005 0.90866 0.0
H402 H 0.54325 0.23316 0.9383 0.0
H403 H 0.54609 0.17081 0.97379 0.0
H404 H 0.66655 0.15742 1.00152 0.0
H405 H 0.70195 0.22315 0.96867 0.0
C406 C 0.66505 0.27407 0.93448 0.0
C407 C 0.64183 0.29836 0.91846 0.0
C408 C 0.64471 0.23552 0.95243 0.0
C409 C 0.59768 0.28263 0.92003 0.0
C410 C 0.57726 0.2441 0.93735 0.0
C411 C 0.5801 0.18206 0.97242 0.0
C412 C 0.6035 0.15888 0.99015 0.0
C413 C 0.60042 0.22036 0.9539 0.0
C414 C 0.64759 0.17439 0.98828 0.0
C415 C 0.66794 0.21209 0.96944 0.0
H416 H 0.87723 0.77172 0.48135 0.0
H417 H 0.91378 0.81696 0.35949 0.0
H418 H 0.95144 0.88529 0.38785 0.0
H419 H 0.9727 0.93297 0.44776 0.0
H420 H 0.93114 0.88655 0.56848 0.0
H421 H 0.89587 0.81869 0.53977 0.0
C422 C 0.89278 0.79654 0.46072 0.0
C423 C 0.89221 0.78892 0.4182 0.0
C424 C 0.91335 0.83596 0.47706 0.0
C425 C 0.9139 0.82153 0.39237 0.0
C426 C 0.9352 0.86083 0.40856 0.0
C427 C 0.95578 0.90805 0.46772 0.0
C428 C 0.95471 0.91526 0.5103 0.0
C429 C 0.93495 0.86854 0.45093 0.0
C430 C 0.93255 0.88238 0.53562 0.0
C431 C 0.91236 0.84327 0.51927 0.0
H432 H 0.27495 0.77027 0.75701 0.0
H433 H 0.18245 0.65869 0.71407 0.0
H434 H 0.23773 0.63723 0.6796 0.0
H435 H 0.31305 0.64915 0.6648 0.0
H436 H 0.40428 0.76264 0.70652 0.0
H437 H 0.34883 0.78406 0.73893 0.0
C438 C 0.26694 0.74117 0.74019 0.0
C439 C 0.22491 0.71573 0.73852 0.0
C440 C 0.29868 0.72928 0.72054 0.0
C441 C 0.2147 0.67862 0.71585 0.0
C442 C 0.24628 0.66637 0.6963 0.0
C443 C 0.32076 0.67881 0.6805 0.0
C444 C 0.36302 0.70391 0.68365 0.0
C445 C 0.2885 0.6913 0.6988 0.0
C446 C 0.37229 0.74216 0.7044 0.0
C447 C 0.34054 0.75464 0.72275 0.0
H448 H 0.68411 0.82081 0.82916 0.0
H449 H 0.77216 0.7787 0.89664 0.0
H450 H 0.82676 0.80847 0.84539 0.0
H451 H 0.85118 0.85373 0.78581 0.0
H452 H 0.76236 0.89565 0.71899 0.0
H453 H 0.70611 0.85827 0.76514 0.0
C454 C 0.71509 0.81757 0.83208 0.0
C455 C 0.72449 0.79812 0.86651 0.0
C456 C 0.74616 0.83498 0.80284 0.0
C457 C 0.76443 0.79358 0.87015 0.0
C458 C 0.79564 0.81084 0.84108 0.0
C459 C 0.81936 0.85412 0.78116 0.0
C460 C 0.8109 0.87759 0.74935 0.0
C461 C 0.78718 0.83275 0.808 0.0
C462 C 0.76953 0.87758 0.74316 0.0
C463 C 0.73742 0.85647 0.76969 0.0
H464 H 0.81953 0.31952 0.32905 0.0
H465 H 0.85993 0.21791 0.36824 0.0
H466 H 0.83475 0.18082 0.3045 0.0
H467 H 0.79033 0.17207 0.24427 0.0
H468 H 0.74618 0.27161 0.20606 0.0
H469 H 0.7833 0.31451 0.26313 0.0
C470 C 0.82336 0.28952 0.32329 0.0
C471 C 0.84105 0.2713 0.35358 0.0
C472 C 0.80742 0.26766 0.28718 0.0
C473 C 0.84664 0.23279 0.34542 0.0
C474 C 0.83181 0.21131 0.30913 0.0
C475 C 0.78989 0.20361 0.24749 0.0
C476 C 0.76506 0.21841 0.22122 0.0
C477 C 0.8106 0.22772 0.28067 0.0
C478 C 0.76446 0.25922 0.22632 0.0
C479 C 0.7857 0.28376 0.2589 0.0
H480 H 0.38966 0.59 0.31818 0.0
H481 H 0.40327 0.71094 0.36857 0.0
H482 H 0.4317 0.69281 0.43191 0.0
H483 H 0.45374 0.64235 0.47298 0.0
H484 H 0.44367 0.52311 0.41977 0.0
H485 H 0.41288 0.54062 0.35806 0.0
C486 C 0.39886 0.61241 0.34305 0.0
C487 C 0.39428 0.65177 0.33853 0.0
C488 C 0.41584 0.60196 0.3791 0.0
C489 C 0.40655 0.68049 0.37103 0.0
C490 C 0.42275 0.67006 0.40736 0.0
C491 C 0.44452 0.62012 0.44797 0.0
C492 C 0.45092 0.58128 0.45129 0.0
C493 C 0.42762 0.63085 0.4118 0.0
C494 C 0.43928 0.55318 0.41822 0.0
C495 C 0.42161 0.56318 0.38281 0.0
H496 H 0.18711 0.46023 0.87971 0.0
H497 H 0.08433 0.43694 0.79507 0.0
H498 H 0.0463 0.46788 0.84352 0.0
H499 H 0.04163 0.5002 0.91111 0.0
H500 H 0.14216 0.51747 0.99761 0.0
H501 H 0.18172 0.49055 0.94752 0.0
C502 C 0.15639 0.46202 0.87193 0.0
C503 C 0.13855 0.44638 0.83397 0.0
C504 C 0.13436 0.47891 0.90032 0.0
C505 C 0.09862 0.44857 0.82425 0.0
C506 C 0.07694 0.46638 0.8519 0.0
C507 C 0.0724 0.49847 0.91869 0.0
C508 C 0.08918 0.51125 0.95781 0.0
C509 C 0.09442 0.48155 0.89013 0.0
C510 C 0.12868 0.508 0.96763 0.0
C511 C 0.15129 0.49254 0.93903 0.0
H512 H 0.62521 0.86612 0.91373 0.0
H513 H 0.65216 0.83092 1.03417 0.0
H514 H 0.63131 0.88726 0.06474 0.0
H515 H 0.60624 0.94654 0.05734 0.0
H516 H 0.57863 0.98222 0.93729 0.0
H517 H 0.59963 0.92588 0.90635 0.0
C518 C 0.62672 0.87095 0.94666 0.0
C519 C 0.64021 0.84434 0.97165 0.0
C520 C 0.61488 0.90356 0.96402 0.0
C521 C 0.64141 0.8506 1.0143 0.0
C522 C 0.62979 0.88299 1.03177 0.0
C523 C 0.60502 0.94229 1.02435 0.0
C524 C 0.59114 0.96879 0.99963 0.0
C525 C 0.61663 0.90969 1.00692 0.0
C526 C 0.58932 0.96238 0.957 0.0
C527 C 0.60126 0.93013 0.93932 0.0
H528 H 0.90939 0.2181 0.50976 0.0
H529 H 0.02893 0.27896 0.45273 0.0
H530 H 0.05185 0.21894 0.46579 0.0
H531 H 0.03793 0.14957 0.49373 0.0
H532 H 0.91756 0.08813 0.54942 0.0
H533 H 0.89475 0.14786 0.53598 0.0
C534 C 0.94057 0.21836 0.50048 0.0
C535 C 0.96774 0.25304 0.48076 0.0
C536 C 0.95319 0.18351 0.50743 0.0
C537 C 1.00771 0.25265 0.46827 0.0
C538 C 0.02072 0.21834 0.47558 0.0
C539 C 1.00656 0.14901 0.50267 0.0
C540 C 0.97955 0.1143 0.52257 0.0
C541 C 0.99368 0.18357 0.49506 0.0
C542 C 0.93903 0.1143 0.53394 0.0
C543 C 0.92599 0.14857 0.52646 0.0
H544 H 0.25508 0.72361 0.15145 0.0
H545 H 0.27703 0.61375 0.19659 0.0
H546 H 0.21169 0.57129 0.16524 0.0
H547 H 0.14834 0.56499 0.12389 0.0
H548 H 0.13175 0.67457 0.07269 0.0
H549 H 0.19597 0.71717 0.10613 0.0
C550 C 0.24659 0.69035 0.15382 0.0
C551 C 0.27187 0.6724 0.17663 0.0
C552 C 0.20982 0.66584 0.13421 0.0
C553 C 0.25847 0.62904 0.18009 0.0
C554 C 0.2211 0.6045 0.16172 0.0
C555 C 0.15891 0.59821 0.11997 0.0
C556 C 0.1351 0.61659 0.0959 0.0
C557 C 0.19652 0.62255 0.13865 0.0
C558 C 0.14948 0.65959 0.09079 0.0
C559 C 0.18614 0.684 0.11011 0.0
H560 H 0.25023 0.39192 0.61837 0.0
H561 H 0.28749 0.44097 0.73979 0.0
H562 H 0.35506 0.48347 0.71314 0.0
H563 H 0.40426 0.50624 0.65574 0.0
H564 H 0.36927 0.45396 0.53517 0.0
H565 H 0.30055 0.41274 0.56132 0.0
C566 C 0.27326 0.41141 0.63921 0.0
C567 C 0.26333 0.41321 0.68112 0.0
C568 C 0.31263 0.43526 0.62383 0.0
C569 C 0.29363 0.43938 0.7073 0.0
C570 C 0.33254 0.46357 0.69214 0.0
C571 C 0.38155 0.48597 0.6351 0.0
C572 C 0.39188 0.48336 0.5935 0.0
C573 C 0.34237 0.46182 0.65048 0.0
C574 C 0.36221 0.45654 0.56734 0.0
C575 C 0.32286 0.43297 0.58227 0.0
H576 H 0.72727 0.72488 0.98035 0.0
H577 H 0.67623 0.59986 0.93424 0.0
H578 H 0.74621 0.59249 0.93372 0.0
H579 H 0.82144 0.62075 0.9482 0.0
H580 H 0.87382 0.74688 0.98979 0.0
H581 H 0.80382 0.75535 0.98878 0.0
C582 C 0.73143 0.69636 0.96926 0.0
C583 C 0.69649 0.66303 0.95684 0.0
C584 C 0.77199 0.69266 0.96806 0.0
C585 C 0.70263 0.62595 0.94378 0.0
C586 C 0.7426 0.62172 0.9434 0.0
C587 C 0.81742 0.65016 0.95668 0.0
C588 C 0.85232 0.6831 0.9693 0.0
C589 C 0.77741 0.65475 0.95571 0.0
C590 C 0.84718 0.72122 0.97989 0.0
C591 C 0.80722 0.72592 0.97954 0.0
H592 H 0.45146 0.81695 0.20096 0.0
H593 H 0.32906 0.81206 0.15655 0.0
H594 H 0.35954 0.87708 0.12186 0.0
H595 H 0.42104 0.93541 0.10225 0.0
H596 H 0.54207 0.94516 0.15244 0.0
H597 H 0.51195 0.87916 0.18718 0.0
C598 C 0.43119 0.83021 0.18427 0.0
C599 C 0.38794 0.80824 0.18067 0.0
C600 C 0.44873 0.86891 0.16528 0.0
C601 C 0.36265 0.82674 0.15874 0.0
C602 C 0.37998 0.86445 0.13909 0.0
C603 C 0.44075 0.92315 0.12097 0.0
C604 C 0.48376 0.9451 0.12455 0.0
C605 C 0.42302 0.88562 0.14168 0.0
C606 C 0.50879 0.92901 0.14931 0.0
C607 C 0.4916 0.89114 0.16908 0.0
H608 H 0.19471 0.26405 0.67292 0.0
H609 H 0.07696 0.28989 0.68322 0.0
H610 H 0.0396 0.22069 0.65826 0.0
H611 H 0.03973 0.15309 0.63302 0.0
H612 H 0.15688 0.12755 0.61721 0.0
H613 H 0.19508 0.19666 0.64404 0.0
C614 C 0.16094 0.25483 0.66929 0.0
C615 C 0.13885 0.28242 0.68066 0.0
C616 C 0.13945 0.21496 0.65389 0.0
C617 C 0.09494 0.26934 0.67593 0.0
C618 C 0.07344 0.22973 0.66127 0.0
C619 C 0.07362 0.16238 0.63573 0.0
C620 C 0.09534 0.13486 0.62371 0.0
C621 C 0.0953 0.20226 0.65037 0.0
C622 C 0.13935 0.14796 0.62653 0.0
C623 C 0.16118 0.1875 0.64185 0.0
H624 H 0.8145 0.38943 0.47486 0.0
H625 H 0.74177 0.2605 0.4746 0.0
H626 H 0.67818 0.27795 0.49187 0.0
H627 H 0.64242 0.33021 0.50035 0.0
H628 H 0.71466 0.45952 0.49733 0.0
H629 H 0.7793 0.44184 0.48867 0.0
C630 C 0.78483 0.36533 0.4797 0.0
C631 C 0.78247 0.32386 0.47401 0.0
C632 C 0.74832 0.37571 0.48852 0.0
C633 C 0.744 0.29262 0.4794 0.0
C634 C 0.70772 0.30261 0.48892 0.0
C635 C 0.67235 0.35448 0.49793 0.0
C636 C 0.67369 0.39607 0.49917 0.0
C637 C 0.70932 0.34409 0.4924 0.0
C638 C 0.71278 0.42724 0.49673 0.0
C639 C 0.74975 0.41717 0.49155 0.0
loop_
_geom_bond_atom_site_label_1
_geom_bond_atom_site_label_2
_geom_bond_distance
_geom_bond_site_symmetry_2
_ccdc_geom_bond_type
H0 C5 0.930 . S
H1 C8 0.930 . S
H2 C10 0.930 . S
H3 C4 1.016 . S
C4 H3 1.016 . S
C4 N11 1.286 . S
C5 H0 0.930 . S
C5 C6 1.397 . S
C5 C7 1.361 . S
C6 C5 1.397 . S
C6 C10 1.390 . S
C7 C5 1.361 . S
C7 C8 1.393 . S
C7 N11 1.413 . S
C8 H1 0.930 . S
C8 C7 1.393 . S
C8 C9 1.399 . S
C9 C8 1.399 . S
C9 C10 1.381 . S
C10 H2 0.930 . S
C10 C6 1.390 . S
C10 C9 1.381 . S
N11 C4 1.286 . S
N11 C7 1.413 . S
H12 C17 0.930 . S
H13 C20 0.930 . S
H14 C22 0.930 . S
H15 C16 1.016 . S
C16 H15 1.016 . S
C16 N23 1.286 . S
C17 H12 0.930 . S
C17 C18 1.397 . S
C17 C19 1.361 . S
C18 C17 1.397 . S
C18 C22 1.390 . S
C19 C17 1.361 . S
C19 C20 1.393 . S
C19 N23 1.413 . S
C20 H13 0.930 . S
C20 C19 1.393 . S
C20 C21 1.399 . S
C21 C20 1.399 . S
C21 C22 1.381 . S
C22 H14 0.930 . S
C22 C18 1.390 . S
C22 C21 1.381 . S
N23 C16 1.286 . S
N23 C19 1.413 . S
H24 C29 0.930 . S
H25 C32 0.930 . S
H26 C34 0.930 . S
H27 C28 1.016 . S
C28 H27 1.016 . S
C28 N35 1.286 . S
C29 H24 0.930 . S
C29 C30 1.397 . S
C29 C31 1.361 . S
C30 C29 1.397 . S
C30 C34 1.390 . S
C31 C29 1.361 . S
C31 C32 1.393 . S
C31 N35 1.413 . S
C32 H25 0.930 . S
C32 C31 1.393 . S
C32 C33 1.399 . S
C33 C32 1.399 . S
C33 C34 1.381 . S
C34 H26 0.930 . S
C34 C30 1.390 . S
C34 C33 1.381 . S
N35 C28 1.286 . S
N35 C31 1.413 . S
H36 C41 0.930 . S
H37 C44 0.930 . S
H38 C46 0.930 . S
H39 C40 1.016 . S
C40 H39 1.016 . S
C40 N47 1.286 . S
C41 H36 0.930 . S
C41 C42 1.397 . S
C41 C43 1.361 . S
C42 C41 1.397 . S
C42 C46 1.390 . S
C43 C41 1.361 . S
C43 C44 1.393 . S
C43 N47 1.413 . S
C44 H37 0.930 . S
C44 C43 1.393 . S
C44 C45 1.399 . S
C45 C44 1.399 . S
C45 C46 1.381 . S
C46 H38 0.930 . S
C46 C42 1.390 . S
C46 C45 1.381 . S
N47 C40 1.286 . S
N47 C43 1.413 . S
H48 C53 0.930 . S
H49 C56 0.930 . S
H50 C58 0.930 . S
H51 C52 1.016 . S
C52 H51 1.016 . S
C52 N59 1.286 . S
C53 H48 0.930 . S
C53 C54 1.397 . S
C53 C55 1.361 . S
C54 C53 1.397 . S
C54 C58 1.390 . S
C55 C53 1.361 . S
C55 C56 1.393 . S
C55 N59 1.413 . S
C56 H49 0.930 . S
C56 C55 1.393 . S
C56 C57 1.399 . S
C57 C56 1.399 . S
C57 C58 1.381 . S
C58 H50 0.930 . S
C58 C54 1.390 . S
C58 C57 1.381 . S
N59 C52 1.286 . S
N59 C55 1.413 . S
H60 C65 0.930 . S
H61 C68 0.930 . S
H62 C70 0.930 . S
H63 C64 1.016 . S
C64 H63 1.016 . S
C64 N71 1.286 . S
C65 H60 0.930 . S
C65 C66 1.397 . S
C65 C67 1.361 . S
C66 C65 1.397 . S
C66 C70 1.390 . S
C67 C65 1.361 . S
C67 C68 1.393 . S
C67 N71 1.413 . S
C68 H61 0.930 . S
C68 C67 1.393 . S
C68 C69 1.399 . S
C69 C68 1.399 . S
C69 C70 1.381 . S
C70 H62 0.930 . S
C70 C66 1.390 . S
C70 C69 1.381 . S
N71 C64 1.286 . S
N71 C67 1.413 . S
H72 C77 0.930 . S
H73 C80 0.930 . S
H74 C82 0.930 . S
H75 C76 1.016 . S
C76 H75 1.016 . S
C76 N83 1.286 . S
C77 H72 0.930 . S
C77 C78 1.397 . S
C77 C79 1.361 . S
C78 C77 1.397 . S
C78 C82 1.390 . S
C79 C77 1.361 . S
C79 C80 1.393 . S
C79 N83 1.413 . S
C80 H73 0.930 . S
C80 C79 1.393 . S
C80 C81 1.399 . S
C81 C80 1.399 . S
C81 C82 1.381 . S
C82 H74 0.930 . S
C82 C78 1.390 . S
C82 C81 1.381 . S
N83 C76 1.286 . S
N83 C79 1.413 . S
H84 C89 0.930 . S
H85 C92 0.930 . S
H86 C94 0.930 . S
H87 C88 1.016 . S
C88 H87 1.016 . S
C88 N95 1.286 . S
C89 H84 0.930 . S
C89 C90 1.397 . S
C89 C91 1.361 . S
C90 C89 1.397 . S
C90 C94 1.390 . S
C91 C89 1.361 . S
C91 C92 1.393 . S
C91 N95 1.413 . S
C92 H85 0.930 . S
C92 C91 1.393 . S
C92 C93 1.399 . S
C93 C92 1.399 . S
C93 C94 1.381 . S
C94 H86 0.930 . S
C94 C90 1.390 . S
C94 C93 1.381 . S
N95 C88 1.286 . S
N95 C91 1.413 . S
Tb96 C105 2.764 . S
Tb96 O106 2.325 . S
Tb96 O109 2.303 . S
Tb96 O113 2.322 1_545 S
Tb96 O114 2.349 1_545 S
Tb96 O117 2.415 . S
Tb96 O118 2.399 . S
Tb97 O107 2.305 1_565 S
Tb97 O108 2.332 1_565 S
Tb97 O110 2.435 . S
Tb97 O111 2.402 . S
Tb97 O112 2.341 1_655 S
Tb97 O115 2.318 . S
Tb97 C126 2.777 . S
C98 O114 1.261 1_655 S
C98 O115 1.257 . S
C99 C102 1.358 . S
C99 C103 1.332 . S
C99 C105 1.504 . S
C100 C101 1.373 . S
C100 C104 1.308 . S
C101 C100 1.373 . S
C101 C102 1.429 . S
C101 H128 0.932 . S
C102 C99 1.358 . S
C102 C101 1.429 . S
C102 H129 0.930 . S
C103 C99 1.332 . S
C103 C104 1.394 . S
C103 H130 0.932 . S
C104 C100 1.308 . S
C104 C103 1.394 . S
C104 H131 0.929 . S
C105 Tb96 2.764 . S
C105 C99 1.504 . S
C105 O117 1.239 . S
C105 O118 1.263 . S
O106 Tb96 2.325 . S
O106 C116 1.236 1_455 S
O107 Tb97 2.305 1_545 S
O107 C116 1.257 . S
O108 Tb97 2.332 1_545 S
O108 C119 1.261 1_655 S
O109 Tb96 2.303 . S
O109 C119 1.257 . S
O110 Tb97 2.435 . S
O110 C126 1.239 . S
O111 Tb97 2.402 . S
O111 C126 1.263 . S
O112 Tb97 2.341 1_455 S
O112 C127 1.236 . S
O113 Tb96 2.322 1_565 S
O113 C127 1.257 . S
O114 Tb96 2.349 1_565 S
O114 C98 1.261 1_455 S
O115 Tb97 2.318 . S
O115 C98 1.257 . S
C116 O106 1.236 1_655 S
C116 O107 1.257 . S
O117 Tb96 2.415 . S
O117 C105 1.239 . S
O118 Tb96 2.399 . S
O118 C105 1.263 . S
C119 O108 1.261 1_455 S
C119 O109 1.257 . S
C120 C123 1.358 . S
C120 C124 1.332 . S
C120 C126 1.504 . S
C121 C122 1.373 . S
C121 C125 1.308 . S
C122 C121 1.373 . S
C122 C123 1.429 . S
C122 H132 0.932 . S
C123 C120 1.358 . S
C123 C122 1.429 . S
C123 H133 0.930 . S
C124 C120 1.332 . S
C124 C125 1.394 . S
C124 H134 0.932 . S
C125 C121 1.308 . S
C125 C124 1.394 . S
C125 H135 0.929 . S
C126 Tb97 2.777 . S
C126 O110 1.239 . S
C126 O111 1.263 . S
C126 C120 1.504 . S
C127 O112 1.236 . S
C127 O113 1.257 . S
H128 C101 0.932 . S
H129 C102 0.930 . S
H130 C103 0.932 . S
H131 C104 0.929 . S
H132 C122 0.932 . S
H133 C123 0.930 . S
H134 C124 0.932 . S
H135 C125 0.929 . S
Tb136 C145 2.764 . S
Tb136 O146 2.325 . S
Tb136 O149 2.303 . S
Tb136 O153 2.322 1_545 S
Tb136 O154 2.349 1_545 S
Tb136 O157 2.415 . S
Tb136 O158 2.399 . S
Tb137 O147 2.322 . S
Tb137 O148 2.349 1_556 S
Tb137 O150 2.415 1_545 S
Tb137 O151 2.399 1_545 S
Tb137 O152 2.325 1_546 S
Tb137 O155 2.303 1_545 S
Tb137 C166 2.764 1_545 S
C138 O154 1.261 1_556 S
C138 O155 1.257 . S
C139 C142 1.358 . S
C139 C143 1.332 . S
C139 C145 1.504 . S
C140 C141 1.373 . S
C140 C144 1.308 . S
C141 C140 1.373 . S
C141 C142 1.429 . S
C141 H168 0.932 . S
C142 C139 1.358 . S
C142 C141 1.429 . S
C142 H169 0.930 . S
C143 C139 1.332 . S
C143 C144 1.394 . S
C143 H170 0.932 . S
C144 C140 1.308 . S
C144 C143 1.394 . S
C144 H171 0.929 . S
C145 Tb136 2.764 . S
C145 C139 1.504 . S
C145 O157 1.239 . S
C145 O158 1.263 . S
O146 Tb136 2.325 . S
O146 C156 1.236 1_554 S
O147 Tb137 2.322 . S
O147 C156 1.257 . S
O148 Tb137 2.349 1_554 S
O148 C159 1.261 . S
O149 Tb136 2.303 . S
O149 C159 1.257 . S
O150 Tb137 2.415 1_565 S
O150 C166 1.239 . S
O151 Tb137 2.399 1_565 S
O151 C166 1.263 . S
O152 Tb137 2.325 1_564 S
O152 C167 1.236 . S
O153 Tb136 2.322 1_565 S
O153 C167 1.257 . S
O154 Tb136 2.349 1_565 S
O154 C138 1.261 1_554 S
O155 Tb137 2.303 1_565 S
O155 C138 1.257 . S
C156 O146 1.236 1_556 S
C156 O147 1.257 . S
O157 Tb136 2.415 . S
O157 C145 1.239 . S
O158 Tb136 2.399 . S
O158 C145 1.263 . S
C159 O148 1.261 . S
C159 O149 1.257 . S
C160 C163 1.358 . S
C160 C164 1.332 . S
C160 C166 1.504 . S
C161 C162 1.373 . S
C161 C165 1.308 . S
C162 C161 1.373 . S
C162 C163 1.429 . S
C162 H172 0.932 . S
C163 C160 1.358 . S
C163 C162 1.429 . S
C163 H173 0.930 . S
C164 C160 1.332 . S
C164 C165 1.394 . S
C164 H174 0.932 . S
C165 C161 1.308 . S
C165 C164 1.394 . S
C165 H175 0.929 . S
C166 Tb137 2.764 1_565 S
C166 O150 1.239 . S
C166 O151 1.263 . S
C166 C160 1.504 . S
C167 O152 1.236 . S
C167 O153 1.257 . S
H168 C141 0.932 . S
H169 C142 0.930 . S
H170 C143 0.932 . S
H171 C144 0.929 . S
H172 C162 0.932 . S
H173 C163 0.930 . S
H174 C164 0.932 . S
H175 C165 0.929 . S
Tb176 C185 2.764 . S
Tb176 O186 2.325 . S
Tb176 O189 2.303 . S
Tb176 O193 2.322 . S
Tb176 O194 2.349 . S
Tb176 O197 2.415 . S
Tb176 O198 2.399 . S
Tb177 O187 2.322 . S
Tb177 O188 2.349 . S
Tb177 O190 2.415 . S
Tb177 O191 2.399 . S
Tb177 O192 2.325 . S
Tb177 O195 2.303 . S
Tb177 C206 2.764 . S
C178 O194 1.261 . S
C178 O195 1.257 . S
C179 C182 1.358 . S
C179 C183 1.332 . S
C179 C185 1.504 . S
C180 C181 1.373 . S
C180 C184 1.308 . S
C181 C180 1.373 . S
C181 C182 1.429 . S
C181 H208 0.932 . S
C182 C179 1.358 . S
C182 C181 1.429 . S
C182 H209 0.930 . S
C183 C179 1.332 . S
C183 C184 1.394 . S
C183 H210 0.932 . S
C184 C180 1.308 . S
C184 C183 1.394 . S
C184 H211 0.929 . S
C185 Tb176 2.764 . S
C185 C179 1.504 . S
C185 O197 1.239 . S
C185 O198 1.263 . S
O186 Tb176 2.325 . S
O186 C196 1.236 . S
O187 Tb177 2.322 . S
O187 C196 1.257 . S
O188 Tb177 2.349 . S
O188 C199 1.261 . S
O189 Tb176 2.303 . S
O189 C199 1.257 . S
O190 Tb177 2.415 . S
O190 C206 1.239 . S
O191 Tb177 2.399 . S
O191 C206 1.263 . S
O192 Tb177 2.325 . S
O192 C207 1.236 . S
O193 Tb176 2.322 . S
O193 C207 1.257 . S
O194 Tb176 2.349 . S
O194 C178 1.261 . S
O195 Tb177 2.303 . S
O195 C178 1.257 . S
C196 O186 1.236 . S
C196 O187 1.257 . S
O197 Tb176 2.415 . S
O197 C185 1.239 . S
O198 Tb176 2.399 . S
O198 C185 1.263 . S
C199 O188 1.261 . S
C199 O189 1.257 . S
C200 C203 1.358 . S
C200 C204 1.332 . S
C200 C206 1.504 . S
C201 C202 1.373 . S
C201 C205 1.308 . S
C202 C201 1.373 . S
C202 C203 1.429 . S
C202 H212 0.932 . S
C203 C200 1.358 . S
C203 C202 1.429 . S
C203 H213 0.930 . S
C204 C200 1.332 . S
C204 C205 1.394 . S
C204 H214 0.932 . S
C205 C201 1.308 . S
C205 C204 1.394 . S
C205 H215 0.929 . S
C206 Tb177 2.764 . S
C206 O190 1.239 . S
C206 O191 1.263 . S
C206 C200 1.504 . S
C207 O192 1.236 . S
C207 O193 1.257 . S
H208 C181 0.932 . S
H209 C182 0.930 . S
H210 C183 0.932 . S
H211 C184 0.929 . S
H212 C202 0.932 . S
H213 C203 0.930 . S
H214 C204 0.932 . S
H215 C205 0.929 . S
Tb216 C225 2.764 1_455 S
Tb216 O226 2.325 1_455 S
Tb216 O229 2.303 1_456 S
Tb216 O233 2.322 1_556 S
Tb216 O234 2.349 . S
Tb216 O237 2.415 1_455 S
Tb216 O238 2.399 1_455 S
Tb217 O227 2.322 1_455 S
Tb217 O228 2.349 1_455 S
Tb217 O230 2.415 . S
Tb217 O231 2.399 . S
Tb217 O232 2.325 . S
Tb217 O235 2.303 1_554 S
Tb217 C246 2.764 . S
C218 O234 1.261 . S
C218 O235 1.257 . S
C219 C222 1.358 . S
C219 C223 1.332 . S
C219 C225 1.504 . S
C220 C221 1.373 . S
C220 C224 1.308 . S
C221 C220 1.373 . S
C221 C222 1.429 . S
C221 H248 0.932 . S
C222 C219 1.358 . S
C222 C221 1.429 . S
C222 H249 0.930 . S
C223 C219 1.332 . S
C223 C224 1.394 . S
C223 H250 0.932 . S
C224 C220 1.308 . S
C224 C223 1.394 . S
C224 H251 0.929 . S
C225 Tb216 2.764 1_655 S
C225 C219 1.504 . S
C225 O237 1.239 . S
C225 O238 1.263 . S
O226 Tb216 2.325 1_655 S
O226 C236 1.236 . S
O227 Tb217 2.322 1_655 S
O227 C236 1.257 1_554 S
O228 Tb217 2.349 1_655 S
O228 C239 1.261 . S
O229 Tb216 2.303 1_654 S
O229 C239 1.257 . S
O230 Tb217 2.415 . S
O230 C246 1.239 . S
O231 Tb217 2.399 . S
O231 C246 1.263 . S
O232 Tb217 2.325 . S
O232 C247 1.236 . S
O233 Tb216 2.322 1_554 S
O233 C247 1.257 . S
O234 Tb216 2.349 . S
O234 C218 1.261 . S
O235 Tb217 2.303 1_556 S
O235 C218 1.257 . S
C236 O226 1.236 . S
C236 O227 1.257 1_556 S
O237 Tb216 2.415 1_655 S
O237 C225 1.239 . S
O238 Tb216 2.399 1_655 S
O238 C225 1.263 . S
C239 O228 1.261 . S
C239 O229 1.257 . S
C240 C243 1.358 . S
C240 C244 1.332 . S
C240 C246 1.504 . S
C241 C242 1.373 . S
C241 C245 1.308 . S
C242 C241 1.373 . S
C242 C243 1.429 . S
C242 H252 0.932 . S
C243 C240 1.358 . S
C243 C242 1.429 . S
C243 H253 0.930 . S
C244 C240 1.332 . S
C244 C245 1.394 . S
C244 H254 0.932 . S
C245 C241 1.308 . S
C245 C244 1.394 . S
C245 H255 0.929 . S
C246 Tb217 2.764 . S
C246 O230 1.239 . S
C246 O231 1.263 . S
C246 C240 1.504 . S
C247 O232 1.236 . S
C247 O233 1.257 . S
H248 C221 0.932 . S
H249 C222 0.930 . S
H250 C223 0.932 . S
H251 C224 0.929 . S
H252 C242 0.932 . S
H253 C243 0.930 . S
H254 C244 0.932 . S
H255 C245 0.929 . S
H256 C262 0.930 . S
H257 C265 0.930 . S
H258 C266 0.930 . S
H259 C267 0.930 . S
H260 C270 0.930 . S
H261 C271 0.930 . S
C262 H256 0.930 . S
C262 C263 1.355 . S
C262 C264 1.415 . S
C263 C262 1.355 . S
C263 C265 1.419 . S
C264 C262 1.415 . S
C264 C269 1.425 . S
C264 C271 1.409 . S
C265 H257 0.930 . S
C265 C263 1.419 . S
C265 C266 1.362 . S
C266 H258 0.930 . S
C266 C265 1.362 . S
C266 C269 1.409 . S
C267 H259 0.930 . S
C267 C268 1.355 . S
C267 C269 1.415 . S
C268 C267 1.355 . S
C268 C270 1.419 . S
C269 C264 1.425 . S
C269 C266 1.409 . S
C269 C267 1.415 . S
C270 H260 0.930 . S
C270 C268 1.419 . S
C270 C271 1.362 . S
C271 H261 0.930 . S
C271 C264 1.409 . S
C271 C270 1.362 . S
H272 C278 0.930 . S
H273 C281 0.930 . S
H274 C282 0.930 . S
H275 C283 0.930 . S
H276 C286 0.930 . S
H277 C287 0.930 . S
C278 H272 0.930 . S
C278 C279 1.355 . S
C278 C280 1.415 . S
C279 C278 1.355 . S
C279 C281 1.419 . S
C280 C278 1.415 . S
C280 C285 1.425 . S
C280 C287 1.409 . S
C281 H273 0.930 . S
C281 C279 1.419 . S
C281 C282 1.362 . S
C282 H274 0.930 . S
C282 C281 1.362 . S
C282 C285 1.409 . S
C283 H275 0.930 . S
C283 C284 1.355 . S
C283 C285 1.415 . S
C284 C283 1.355 . S
C284 C286 1.419 . S
C285 C280 1.425 . S
C285 C282 1.409 . S
C285 C283 1.415 . S
C286 H276 0.930 . S
C286 C284 1.419 . S
C286 C287 1.362 . S
C287 H277 0.930 . S
C287 C280 1.409 . S
C287 C286 1.362 . S
H288 C294 0.930 . S
H289 C297 0.930 . S
H290 C298 0.930 . S
H291 C299 0.930 . S
H292 C302 0.930 . S
H293 C303 0.930 . S
C294 H288 0.930 . S
C294 C295 1.355 . S
C294 C296 1.415 . S
C295 C294 1.355 . S
C295 C297 1.419 . S
C296 C294 1.415 . S
C296 C301 1.425 . S
C296 C303 1.409 . S
C297 H289 0.930 . S
C297 C295 1.419 . S
C297 C298 1.362 . S
C298 H290 0.930 . S
C298 C297 1.362 . S
C298 C301 1.409 . S
C299 H291 0.930 . S
C299 C300 1.355 . S
C299 C301 1.415 . S
C300 C299 1.355 . S
C300 C302 1.419 . S
C301 C296 1.425 . S
C301 C298 1.409 . S
C301 C299 1.415 . S
C302 H292 0.930 . S
C302 C300 1.419 . S
C302 C303 1.362 . S
C303 H293 0.930 . S
C303 C296 1.409 . S
C303 C302 1.362 . S
H304 C310 0.930 . S
H305 C313 0.930 . S
H306 C314 0.930 . S
H307 C315 0.930 . S
H308 C318 0.930 . S
H309 C319 0.930 . S
C310 H304 0.930 . S
C310 C311 1.355 . S
C310 C312 1.415 . S
C311 C310 1.355 . S
C311 C313 1.419 . S
C312 C310 1.415 . S
C312 C317 1.425 . S
C312 C319 1.409 . S
C313 H305 0.930 . S
C313 C311 1.419 . S
C313 C314 1.362 . S
C314 H306 0.930 . S
C314 C313 1.362 . S
C314 C317 1.409 . S
C315 H307 0.930 . S
C315 C316 1.355 . S
C315 C317 1.415 . S
C316 C315 1.355 . S
C316 C318 1.419 . S
C317 C312 1.425 . S
C317 C314 1.409 . S
C317 C315 1.415 . S
C318 H308 0.930 . S
C318 C316 1.419 . S
C318 C319 1.362 . S
C319 H309 0.930 . S
C319 C312 1.409 . S
C319 C318 1.362 . S
H320 C326 0.930 . S
H321 C329 0.930 . S
H322 C330 0.930 . S
H323 C331 0.930 . S
H324 C334 0.930 . S
H325 C335 0.930 . S
C326 H320 0.930 . S
C326 C327 1.355 . S
C326 C328 1.415 . S
C327 C326 1.355 . S
C327 C329 1.419 . S
C328 C326 1.415 . S
C328 C333 1.425 . S
C328 C335 1.409 . S
C329 H321 0.930 . S
C329 C327 1.419 . S
C329 C330 1.362 . S
C330 H322 0.930 . S
C330 C329 1.362 . S
C330 C333 1.409 . S
C331 H323 0.930 . S
C331 C332 1.355 . S
C331 C333 1.415 . S
C332 C331 1.355 . S
C332 C334 1.419 . S
C333 C328 1.425 . S
C333 C330 1.409 . S
C333 C331 1.415 . S
C334 H324 0.930 . S
C334 C332 1.419 . S
C334 C335 1.362 . S
C335 H325 0.930 . S
C335 C328 1.409 . S
C335 C334 1.362 . S
H336 C342 0.930 . S
H337 C345 0.930 . S
H338 C346 0.930 . S
H339 C347 0.930 . S
H340 C350 0.930 . S
H341 C351 0.930 . S
C342 H336 0.930 . S
C342 C343 1.355 . S
C342 C344 1.415 . S
C343 C342 1.355 . S
C343 C345 1.419 . S
C344 C342 1.415 . S
C344 C349 1.425 . S
C344 C351 1.409 . S
C345 H337 0.930 . S
C345 C343 1.419 . S
C345 C346 1.362 . S
C346 H338 0.930 . S
C346 C345 1.362 . S
C346 C349 1.409 . S
C347 H339 0.930 . S
C347 C348 1.355 . S
C347 C349 1.415 . S
C348 C347 1.355 . S
C348 C350 1.419 . S
C349 C344 1.425 . S
C349 C346 1.409 . S
C349 C347 1.415 . S
C350 H340 0.930 . S
C350 C348 1.419 . S
C350 C351 1.362 . S
C351 H341 0.930 . S
C351 C344 1.409 . S
C351 C350 1.362 . S
H352 C358 0.930 . S
H353 C361 0.930 . S
H354 C362 0.930 . S
H355 C363 0.930 . S
H356 C366 0.930 . S
H357 C367 0.930 . S
C358 H352 0.930 . S
C358 C359 1.355 . S
C358 C360 1.415 . S
C359 C358 1.355 . S
C359 C361 1.419 . S
C360 C358 1.415 . S
C360 C365 1.425 . S
C360 C367 1.409 . S
C361 H353 0.930 . S
C361 C359 1.419 . S
C361 C362 1.362 . S
C362 H354 0.930 . S
C362 C361 1.362 . S
C362 C365 1.409 . S
C363 H355 0.930 . S
C363 C364 1.355 . S
C363 C365 1.415 . S
C364 C363 1.355 . S
C364 C366 1.419 . S
C365 C360 1.425 . S
C365 C362 1.409 . S
C365 C363 1.415 . S
C366 H356 0.930 . S
C366 C364 1.419 . S
C366 C367 1.362 . S
C367 H357 0.930 . S
C367 C360 1.409 . S
C367 C366 1.362 . S
H368 C374 0.930 . S
H369 C377 0.930 . S
H370 C378 0.930 . S
H371 C379 0.930 . S
H372 C382 0.930 . S
H373 C383 0.930 . S
C374 H368 0.930 . S
C374 C375 1.355 . S
C374 C376 1.415 . S
C375 C374 1.355 . S
C375 C377 1.419 . S
C376 C374 1.415 . S
C376 C381 1.425 . S
C376 C383 1.409 . S
C377 H369 0.930 . S
C377 C375 1.419 . S
C377 C378 1.362 . S
C378 H370 0.930 . S
C378 C377 1.362 . S
C378 C381 1.409 . S
C379 H371 0.930 . S
C379 C380 1.355 . S
C379 C381 1.415 . S
C380 C379 1.355 . S
C380 C382 1.419 . S
C381 C376 1.425 . S
C381 C378 1.409 . S
C381 C379 1.415 . S
C382 H372 0.930 . S
C382 C380 1.419 . S
C382 C383 1.362 . S
C383 H373 0.930 . S
C383 C376 1.409 . S
C383 C382 1.362 . S
H384 C390 0.930 . S
H385 C393 0.930 . S
H386 C394 0.930 . S
H387 C395 0.930 . S
H388 C398 0.930 . S
H389 C399 0.930 . S
C390 H384 0.930 . S
C390 C391 1.355 . S
C390 C392 1.415 . S
C391 C390 1.355 . S
C391 C393 1.419 . S
C392 C390 1.415 . S
C392 C397 1.425 . S
C392 C399 1.409 . S
C393 H385 0.930 . S
C393 C391 1.419 . S
C393 C394 1.362 . S
C394 H386 0.930 . S
C394 C393 1.362 . S
C394 C397 1.409 . S
C395 H387 0.930 . S
C395 C396 1.355 . S
C395 C397 1.415 . S
C396 C395 1.355 . S
C396 C398 1.419 . S
C397 C392 1.425 . S
C397 C394 1.409 . S
C397 C395 1.415 . S
C398 H388 0.930 . S
C398 C396 1.419 . S
C398 C399 1.362 . S
C399 H389 0.930 . S
C399 C392 1.409 . S
C399 C398 1.362 . S
H400 C406 0.930 . S
H401 C409 0.930 . S
H402 C410 0.930 . S
H403 C411 0.930 . S
H404 C414 0.930 . S
H405 C415 0.930 . S
C406 H400 0.930 . S
C406 C407 1.355 . S
C406 C408 1.415 . S
C407 C406 1.355 . S
C407 C409 1.419 . S
C408 C406 1.415 . S
C408 C413 1.425 . S
C408 C415 1.409 . S
C409 H401 0.930 . S
C409 C407 1.419 . S
C409 C410 1.362 . S
C410 H402 0.930 . S
C410 C409 1.362 . S
C410 C413 1.409 . S
C411 H403 0.930 . S
C411 C412 1.355 . S
C411 C413 1.415 . S
C412 C411 1.355 . S
C412 C414 1.419 . S
C413 C408 1.425 . S
C413 C410 1.409 . S
C413 C411 1.415 . S
C414 H404 0.930 . S
C414 C412 1.419 . S
C414 C415 1.362 . S
C415 H405 0.930 . S
C415 C408 1.409 . S
C415 C414 1.362 . S
H416 C422 0.930 . S
H417 C425 0.930 . S
H418 C426 0.930 . S
H419 C427 0.930 . S
H420 C430 0.930 . S
H421 C431 0.930 . S
C422 H416 0.930 . S
C422 C423 1.355 . S
C422 C424 1.415 . S
C423 C422 1.355 . S
C423 C425 1.419 . S
C424 C422 1.415 . S
C424 C429 1.425 . S
C424 C431 1.409 . S
C425 H417 0.930 . S
C425 C423 1.419 . S
C425 C426 1.362 . S
C426 H418 0.930 . S
C426 C425 1.362 . S
C426 C429 1.409 . S
C427 H419 0.930 . S
C427 C428 1.355 . S
C427 C429 1.415 . S
C428 C427 1.355 . S
C428 C430 1.419 . S
C429 C424 1.425 . S
C429 C426 1.409 . S
C429 C427 1.415 . S
C430 H420 0.930 . S
C430 C428 1.419 . S
C430 C431 1.362 . S
C431 H421 0.930 . S
C431 C424 1.409 . S
C431 C430 1.362 . S
H432 C438 0.930 . S
H433 C441 0.930 . S
H434 C442 0.930 . S
H435 C443 0.930 . S
H436 C446 0.930 . S
H437 C447 0.930 . S
C438 H432 0.930 . S
C438 C439 1.355 . S
C438 C440 1.415 . S
C439 C438 1.355 . S
C439 C441 1.419 . S
C440 C438 1.415 . S
C440 C445 1.425 . S
C440 C447 1.409 . S
C441 H433 0.930 . S
C441 C439 1.419 . S
C441 C442 1.362 . S
C442 H434 0.930 . S
C442 C441 1.362 . S
C442 C445 1.409 . S
C443 H435 0.930 . S
C443 C444 1.355 . S
C443 C445 1.415 . S
C444 C443 1.355 . S
C444 C446 1.419 . S
C445 C440 1.425 . S
C445 C442 1.409 . S
C445 C443 1.415 . S
C446 H436 0.930 . S
C446 C444 1.419 . S
C446 C447 1.362 . S
C447 H437 0.930 . S
C447 C440 1.409 . S
C447 C446 1.362 . S
H448 C454 0.930 . S
H449 C457 0.930 . S
H450 C458 0.930 . S
H451 C459 0.930 . S
H452 C462 0.930 . S
H453 C463 0.930 . S
C454 H448 0.930 . S
C454 C455 1.355 . S
C454 C456 1.415 . S
C455 C454 1.355 . S
C455 C457 1.419 . S
C456 C454 1.415 . S
C456 C461 1.425 . S
C456 C463 1.409 . S
C457 H449 0.930 . S
C457 C455 1.419 . S
C457 C458 1.362 . S
C458 H450 0.930 . S
C458 C457 1.362 . S
C458 C461 1.409 . S
C459 H451 0.930 . S
C459 C460 1.355 . S
C459 C461 1.415 . S
C460 C459 1.355 . S
C460 C462 1.419 . S
C461 C456 1.425 . S
C461 C458 1.409 . S
C461 C459 1.415 . S
C462 H452 0.930 . S
C462 C460 1.419 . S
C462 C463 1.362 . S
C463 H453 0.930 . S
C463 C456 1.409 . S
C463 C462 1.362 . S
H464 C470 0.930 . S
H465 C473 0.930 . S
H466 C474 0.930 . S
H467 C475 0.930 . S
H468 C478 0.930 . S
H469 C479 0.930 . S
C470 H464 0.930 . S
C470 C471 1.355 . S
C470 C472 1.415 . S
C471 C470 1.355 . S
C471 C473 1.419 . S
C472 C470 1.415 . S
C472 C477 1.425 . S
C472 C479 1.409 . S
C473 H465 0.930 . S
C473 C471 1.419 . S
C473 C474 1.362 . S
C474 H466 0.930 . S
C474 C473 1.362 . S
C474 C477 1.409 . S
C475 H467 0.930 . S
C475 C476 1.355 . S
C475 C477 1.415 . S
C476 C475 1.355 . S
C476 C478 1.419 . S
C477 C472 1.425 . S
C477 C474 1.409 . S
C477 C475 1.415 . S
C478 H468 0.930 . S
C478 C476 1.419 . S
C478 C479 1.362 . S
C479 H469 0.930 . S
C479 C472 1.409 . S
C479 C478 1.362 . S
H480 C486 0.930 . S
H481 C489 0.930 . S
H482 C490 0.930 . S
H483 C491 0.930 . S
H484 C494 0.930 . S
H485 C495 0.930 . S
C486 H480 0.930 . S
C486 C487 1.355 . S
C486 C488 1.415 . S
C487 C486 1.355 . S
C487 C489 1.419 . S
C488 C486 1.415 . S
C488 C493 1.425 . S
C488 C495 1.409 . S
C489 H481 0.930 . S
C489 C487 1.419 . S
C489 C490 1.362 . S
C490 H482 0.930 . S
C490 C489 1.362 . S
C490 C493 1.409 . S
C491 H483 0.930 . S
C491 C492 1.355 . S
C491 C493 1.415 . S
C492 C491 1.355 . S
C492 C494 1.419 . S
C493 C488 1.425 . S
C493 C490 1.409 . S
C493 C491 1.415 . S
C494 H484 0.930 . S
C494 C492 1.419 . S
C494 C495 1.362 . S
C495 H485 0.930 . S
C495 C488 1.409 . S
C495 C494 1.362 . S
H496 C502 0.930 . S
H497 C505 0.930 . S
H498 C506 0.930 . S
H499 C507 0.930 . S
H500 C510 0.930 . S
H501 C511 0.930 . S
C502 H496 0.930 . S
C502 C503 1.355 . S
C502 C504 1.415 . S
C503 C502 1.355 . S
C503 C505 1.419 . S
C504 C502 1.415 . S
C504 C509 1.425 . S
C504 C511 1.409 . S
C505 H497 0.930 . S
C505 C503 1.419 . S
C505 C506 1.362 . S
C506 H498 0.930 . S
C506 C505 1.362 . S
C506 C509 1.409 . S
C507 H499 0.930 . S
C507 C508 1.355 . S
C507 C509 1.415 . S
C508 C507 1.355 . S
C508 C510 1.419 . S
C509 C504 1.425 . S
C509 C506 1.409 . S
C509 C507 1.415 . S
C510 H500 0.930 . S
C510 C508 1.419 . S
C510 C511 1.362 . S
C511 H501 0.930 . S
C511 C504 1.409 . S
C511 C510 1.362 . S
H512 C518 0.930 . S
H513 C521 0.930 . S
H514 C522 0.930 . S
H515 C523 0.930 . S
H516 C526 0.930 . S
H517 C527 0.930 . S
C518 H512 0.930 . S
C518 C519 1.355 . S
C518 C520 1.415 . S
C519 C518 1.355 . S
C519 C521 1.419 . S
C520 C518 1.415 . S
C520 C525 1.425 . S
C520 C527 1.409 . S
C521 H513 0.930 . S
C521 C519 1.419 . S
C521 C522 1.362 . S
C522 H514 0.930 . S
C522 C521 1.362 . S
C522 C525 1.409 . S
C523 H515 0.930 . S
C523 C524 1.355 . S
C523 C525 1.415 . S
C524 C523 1.355 . S
C524 C526 1.419 . S
C525 C520 1.425 . S
C525 C522 1.409 . S
C525 C523 1.415 . S
C526 H516 0.930 . S
C526 C524 1.419 . S
C526 C527 1.362 . S
C527 H517 0.930 . S
C527 C520 1.409 . S
C527 C526 1.362 . S
H528 C534 0.930 . S
H529 C537 0.933 . S
H530 C538 0.930 . S
H531 C539 0.930 1_455 S
H532 C542 0.930 . S
H533 C543 0.930 . S
C534 H528 0.930 . S
C534 C535 1.355 . S
C534 C536 1.415 . S
C535 C534 1.355 . S
C535 C537 1.413 1_655 S
C536 C534 1.415 . S
C536 C541 1.425 . S
C536 C543 1.409 . S
C537 H529 0.933 . S
C537 C535 1.413 1_455 S
C537 C538 1.365 . S
C538 H530 0.930 . S
C538 C537 1.365 . S
C538 C541 1.409 1_455 S
C539 H531 0.930 1_655 S
C539 C540 1.355 . S
C539 C541 1.415 . S
C540 C539 1.355 . S
C540 C542 1.419 . S
C541 C536 1.425 . S
C541 C538 1.409 1_655 S
C541 C539 1.415 . S
C542 H532 0.930 . S
C542 C540 1.419 . S
C542 C543 1.362 . S
C543 H533 0.930 . S
C543 C536 1.409 . S
C543 C542 1.362 . S
H544 C550 0.930 . S
H545 C553 0.930 . S
H546 C554 0.930 . S
H547 C555 0.930 . S
H548 C558 0.930 1_556 S
H549 C559 0.930 . S
C550 H544 0.930 . S
C550 C551 1.355 . S
C550 C552 1.415 . S
C551 C550 1.355 . S
C551 C553 1.419 . S
C552 C550 1.415 . S
C552 C557 1.425 . S
C552 C559 1.409 . S
C553 H545 0.930 . S
C553 C551 1.419 . S
C553 C554 1.362 . S
C554 H546 0.930 . S
C554 C553 1.362 . S
C554 C557 1.409 . S
C555 H547 0.930 . S
C555 C556 1.355 . S
C555 C557 1.415 . S
C556 C555 1.355 . S
C556 C558 1.419 . S
C557 C552 1.425 . S
C557 C554 1.409 . S
C557 C555 1.415 . S
C558 H548 0.930 1_554 S
C558 C556 1.419 . S
C558 C559 1.362 . S
C559 H549 0.930 . S
C559 C552 1.409 . S
C559 C558 1.362 . S
H560 C566 0.930 . S
H561 C569 0.930 . S
H562 C570 0.930 . S
H563 C571 0.930 . S
H564 C574 0.930 . S
H565 C575 0.930 . S
C566 H560 0.930 . S
C566 C567 1.355 . S
C566 C568 1.415 . S
C567 C566 1.355 . S
C567 C569 1.419 . S
C568 C566 1.415 . S
C568 C573 1.425 . S
C568 C575 1.409 . S
C569 H561 0.930 . S
C569 C567 1.419 . S
C569 C570 1.362 . S
C570 H562 0.930 . S
C570 C569 1.362 . S
C570 C573 1.409 . S
C571 H563 0.930 . S
C571 C572 1.355 . S
C571 C573 1.415 . S
C572 C571 1.355 . S
C572 C574 1.419 . S
C573 C568 1.425 . S
C573 C570 1.409 . S
C573 C571 1.415 . S
C574 H564 0.930 . S
C574 C572 1.419 . S
C574 C575 1.362 . S
C575 H565 0.930 . S
C575 C568 1.409 . S
C575 C574 1.362 . S
H576 C582 0.930 . S
H577 C585 0.930 . S
H578 C586 0.930 . S
H579 C587 0.930 . S
H580 C590 0.930 . S
H581 C591 0.930 . S
C582 H576 0.930 . S
C582 C583 1.355 . S
C582 C584 1.415 . S
C583 C582 1.355 . S
C583 C585 1.419 . S
C584 C582 1.415 . S
C584 C589 1.425 . S
C584 C591 1.409 . S
C585 H577 0.930 . S
C585 C583 1.419 . S
C585 C586 1.362 . S
C586 H578 0.930 . S
C586 C585 1.362 . S
C586 C589 1.409 . S
C587 H579 0.930 . S
C587 C588 1.355 . S
C587 C589 1.415 . S
C588 C587 1.355 . S
C588 C590 1.419 . S
C589 C584 1.425 . S
C589 C586 1.409 . S
C589 C587 1.415 . S
C590 H580 0.930 . S
C590 C588 1.419 . S
C590 C591 1.362 . S
C591 H581 0.930 . S
C591 C584 1.409 . S
C591 C590 1.362 . S
H592 C598 0.930 . S
H593 C601 0.930 . S
H594 C602 0.930 . S
H595 C603 0.930 . S
H596 C606 0.930 . S
H597 C607 0.930 . S
C598 H592 0.930 . S
C598 C599 1.355 . S
C598 C600 1.415 . S
C599 C598 1.355 . S
C599 C601 1.419 . S
C600 C598 1.415 . S
C600 C605 1.425 . S
C600 C607 1.409 . S
C601 H593 0.930 . S
C601 C599 1.419 . S
C601 C602 1.362 . S
C602 H594 0.930 . S
C602 C601 1.362 . S
C602 C605 1.409 . S
C603 H595 0.930 . S
C603 C604 1.355 . S
C603 C605 1.415 . S
C604 C603 1.355 . S
C604 C606 1.419 . S
C605 C600 1.425 . S
C605 C602 1.409 . S
C605 C603 1.415 . S
C606 H596 0.930 . S
C606 C604 1.419 . S
C606 C607 1.362 . S
C607 H597 0.930 . S
C607 C600 1.409 . S
C607 C606 1.362 . S
H608 C614 0.930 . S
H609 C617 0.930 . S
H610 C618 0.930 . S
H611 C619 0.930 . S
H612 C622 0.930 . S
H613 C623 0.930 . S
C614 H608 0.930 . S
C614 C615 1.355 . S
C614 C616 1.415 . S
C615 C614 1.355 . S
C615 C617 1.419 . S
C616 C614 1.415 . S
C616 C621 1.425 . S
C616 C623 1.409 . S
C617 H609 0.930 . S
C617 C615 1.419 . S
C617 C618 1.362 . S
C618 H610 0.930 . S
C618 C617 1.362 . S
C618 C621 1.409 . S
C619 H611 0.930 . S
C619 C620 1.355 . S
C619 C621 1.415 . S
C620 C619 1.355 . S
C620 C622 1.419 . S
C621 C616 1.425 . S
C621 C618 1.409 . S
C621 C619 1.415 . S
C622 H612 0.930 . S
C622 C620 1.419 . S
C622 C623 1.362 . S
C623 H613 0.930 . S
C623 C616 1.409 . S
C623 C622 1.362 . S
H624 C630 0.930 . S
H625 C633 0.930 . S
H626 C634 0.930 . S
H627 C635 0.930 . S
H628 C638 0.930 . S
H629 C639 0.930 . S
C630 H624 0.930 . S
C630 C631 1.355 . S
C630 C632 1.415 . S
C631 C630 1.355 . S
C631 C633 1.419 . S
C632 C630 1.415 . S
C632 C637 1.425 . S
C632 C639 1.409 . S
C633 H625 0.930 . S
C633 C631 1.419 . S
C633 C634 1.362 . S
C634 H626 0.930 . S
C634 C633 1.362 . S
C634 C637 1.409 . S
C635 H627 0.930 . S
C635 C636 1.355 . S
C635 C637 1.415 . S
C636 C635 1.355 . S
C636 C638 1.419 . S
C637 C632 1.425 . S
C637 C634 1.409 . S
C637 C635 1.415 . S
C638 H628 0.930 . S
C638 C636 1.419 . S
C638 C639 1.362 . S
C639 H629 0.930 . S
C639 C632 1.409 . S
C639 C638 1.362 . S
C263 C6 0.947 . S
C268 C100 0.944 . S
C279 C18 1.252 . S
C284 C161 1.269 . S
C300 C199 2.636 . S
C295 C28 2.669 . S
C311 C40 1.838 . S
C316 C239 1.811 . S
C332 C159 1.374 . S
C327 C9 1.387 . S
C348 C127 1.915 . S
C343 C16 1.797 . S
C364 C236 1.800 . S
C359 C30 1.819 . S
C380 C196 1.563 . S
C375 C42 1.596 . S
C391 C4 1.068 . S
C396 C241 1.059 . S
C412 C156 2.592 . S
C407 C33 2.587 . S
C423 C45 1.960 . S
C428 C98 1.938 . S
C439 C21 1.518 . S
C444 C201 1.568 . S
C460 C121 0.941 . S
C455 C57 0.913 . S
C471 C66 1.236 . S
C476 C140 1.298 . S
C487 C76 2.722 . S
C492 C178 2.664 . S
C503 C88 1.769 . S
C508 C218 1.754 . S
C519 C54 1.320 . S
C524 C138 1.373 . S
C540 C116 2.009 . S
C535 C64 1.952 . S
C556 C247 1.722 . S
C551 C78 1.722 . S
C572 C207 1.661 . S
C567 C93 1.672 . S
C583 C52 1.161 . S
C588 C220 1.191 . S
C604 C167 2.576 . S
C599 C81 2.553 . S
C620 C119 1.923 . S
C615 C90 1.938 . S
C631 C69 1.416 . S
C636 C180 1.523 . S
