# Generated by pormake.
# Topology wbl, (4,4)-cn, num edge types: 1
# Building blocks:
#     Node 0, Type 0, BuildingBlock: MIFKUJ_clean_linker_1, # of connection points: 4
#     Node 1, Type 0, BuildingBlock: MIFKUJ_clean_linker_1, # of connection points: 4
#     Node 2, Type 0, BuildingBlock: MIFKUJ_clean_linker_1, # of connection points: 4
#     Node 3, Type 0, BuildingBlock: MIFKUJ_clean_linker_1, # of connection points: 4
#     Node 4, Type 0, BuildingBlock: MIFKUJ_clean_linker_1, # of connection points: 4
#     Node 5, Type 0, BuildingBlock: MIFKUJ_clean_linker_1, # of connection points: 4
#     Node 6, Type 0, BuildingBlock: MIFKUJ_clean_linker_1, # of connection points: 4
#     Node 7, Type 0, BuildingBlock: MIFKUJ_clean_linker_1, # of connection points: 4
#     Node 8, Type 1, BuildingBlock: KUFVIS_clean_sbu_0, # of connection points: 4
#     Node 9, Type 1, BuildingBlock: KUFVIS_clean_sbu_0, # of connection points: 4
#     Node 10, Type 1, BuildingBlock: KUFVIS_clean_sbu_0, # of connection points: 4
#     Node 11, Type 1, BuildingBlock: KUFVIS_clean_sbu_0, # of connection points: 4
#     Node 12, Type 1, BuildingBlock: KUFVIS_clean_sbu_0, # of connection points: 4
#     Node 13, Type 1, BuildingBlock: KUFVIS_clean_sbu_0, # of connection points: 4
#     Node 14, Type 1, BuildingBlock: KUFVIS_clean_sbu_0, # of connection points: 4
#     Node 15, Type 1, BuildingBlock: KUFVIS_clean_sbu_0, # of connection points: 4
#     Edge 16, Type (0, 1), BuildingBlock: XUDNAN_clean_linker_2, # of connection points: 2
#     Edge 17, Type (0, 1), BuildingBlock: XUDNAN_clean_linker_2, # of connection points: 2
#     Edge 18, Type (0, 1), BuildingBlock: XUDNAN_clean_linker_2, # of connection points: 2
#     Edge 19, Type (0, 1), BuildingBlock: XUDNAN_clean_linker_2, # of connection points: 2
#     Edge 20, Type (0, 1), BuildingBlock: XUDNAN_clean_linker_2, # of connection points: 2
#     Edge 21, Type (0, 1), BuildingBlock: XUDNAN_clean_linker_2, # of connection points: 2
#     Edge 22, Type (0, 1), BuildingBlock: XUDNAN_clean_linker_2, # of connection points: 2
#     Edge 23, Type (0, 1), BuildingBlock: XUDNAN_clean_linker_2, # of connection points: 2
#     Edge 24, Type (0, 1), BuildingBlock: XUDNAN_clean_linker_2, # of connection points: 2
#     Edge 25, Type (0, 1), BuildingBlock: XUDNAN_clean_linker_2, # of connection points: 2
#     Edge 26, Type (0, 1), BuildingBlock: XUDNAN_clean_linker_2, # of connection points: 2
#     Edge 27, Type (0, 1), BuildingBlock: XUDNAN_clean_linker_2, # of connection points: 2
#     Edge 28, Type (0, 1), BuildingBlock: XUDNAN_clean_linker_2, # of connection points: 2
#     Edge 29, Type (0, 1), BuildingBlock: XUDNAN_clean_linker_2, # of connection points: 2
#     Edge 30, Type (0, 1), BuildingBlock: XUDNAN_clean_linker_2, # of connection points: 2
#     Edge 31, Type (0, 1), BuildingBlock: XUDNAN_clean_linker_2, # of connection points: 2
#     Edge 32, Type (0, 1), BuildingBlock: XUDNAN_clean_linker_2, # of connection points: 2
#     Edge 33, Type (0, 1), BuildingBlock: XUDNAN_clean_linker_2, # of connection points: 2
#     Edge 34, Type (0, 1), BuildingBlock: XUDNAN_clean_linker_2, # of connection points: 2
#     Edge 35, Type (0, 1), BuildingBlock: XUDNAN_clean_linker_2, # of connection points: 2
#     Edge 36, Type (0, 1), BuildingBlock: XUDNAN_clean_linker_2, # of connection points: 2
#     Edge 37, Type (0, 1), BuildingBlock: XUDNAN_clean_linker_2, # of connection points: 2
#     Edge 38, Type (0, 1), BuildingBlock: XUDNAN_clean_linker_2, # of connection points: 2
#     Edge 39, Type (0, 1), BuildingBlock: XUDNAN_clean_linker_2, # of connection points: 2
#     Edge 40, Type (0, 1), BuildingBlock: XUDNAN_clean_linker_2, # of connection points: 2
#     Edge 41, Type (0, 1), BuildingBlock: XUDNAN_clean_linker_2, # of connection points: 2
#     Edge 42, Type (0, 1), BuildingBlock: XUDNAN_clean_linker_2, # of connection points: 2
#     Edge 43, Type (0, 1), BuildingBlock: XUDNAN_clean_linker_2, # of connection points: 2
#     Edge 44, Type (0, 1), BuildingBlock: XUDNAN_clean_linker_2, # of connection points: 2
#     Edge 45, Type (0, 1), BuildingBlock: XUDNAN_clean_linker_2, # of connection points: 2
#     Edge 46, Type (0, 1), BuildingBlock: XUDNAN_clean_linker_2, # of connection points: 2
#     Edge 47, Type (0, 1), BuildingBlock: XUDNAN_clean_linker_2, # of connection points: 2
# Relax obj value: 0.148
# Max RMSD: 0.142
# Mean RMSD: 0.130
data_MOF--net-wbl--node1-KUFVIS_clean_sbu_0--node2-MIFKUJ_clean_linker_1--edge1-XUDNAN_clean_linker_2
_symmetry_space_group_name_H-M    P1
_symmetry_Int_Tables_number       1
_symmetry_cell_setting            triclinic
loop_
_symmetry_equiv_pos_as_xyz
'x, y, z'
_cell_length_a     46.148833
_cell_length_b     46.109115
_cell_length_c     74.325817
_cell_angle_alpha  90.012529
_cell_angle_beta   90.650993
_cell_angle_gamma 89.98732
loop_
_atom_site_label
_atom_site_type_symbol
_atom_site_fract_x
_atom_site_fract_y
_atom_site_fract_z
_atom_type_partial_charge
H0 H 0.99953 0.06765 0.35566 0.0
H1 H 0.96588 0.08832 0.37712 0.0
H2 H 0.89406 0.05307 0.34623 0.0
H3 H 0.92796 0.02985 0.32612 0.0
H4 H 0.00793 0.01263 0.35176 0.0
H5 H 0.98432 0.0893 0.30501 0.0
H6 H 0.94544 0.11749 0.29098 0.0
H7 H 0.90037 0.03761 0.27794 0.0
H8 H 0.94067 0.01007 0.2904 0.0
H9 H 0.03162 0.93724 0.3082 0.0
H10 H 0.06892 0.90784 0.29391 0.0
H11 H 0.1073 0.98548 0.27199 0.0
H12 H 0.07019 0.01484 0.28677 0.0
H13 H 0.0068 0.01355 0.28499 0.0
H14 H 0.01779 0.9442 0.34403 0.0
H15 H 0.04898 0.92001 0.36635 0.0
H16 H 0.11421 0.98591 0.35891 0.0
H17 H 0.08309 0.00969 0.3363 0.0
C18 C 0.96645 0.04735 0.33906 0.0
C19 C 0.97649 0.06458 0.35343 0.0
C20 C 0.95708 0.07673 0.36563 0.0
C21 C 0.92703 0.07228 0.36362 0.0
C22 C 0.917 0.05651 0.34855 0.0
C23 C 0.93646 0.04372 0.33666 0.0
C24 C 0.98743 0.03059 0.32806 0.0
C25 C 0.00771 0.01314 0.33716 0.0
C26 C 0.98701 0.0306 0.30898 0.0
C27 C 0.96527 0.04767 0.29874 0.0
C28 C 0.9663 0.07803 0.29869 0.0
C29 C 0.94371 0.0941 0.29087 0.0
C30 C 0.91912 0.08013 0.28344 0.0
C31 C 0.91886 0.04952 0.28308 0.0
C32 C 0.94191 0.03354 0.29034 0.0
C33 C 0.04832 0.97823 0.29869 0.0
C34 C 0.04802 0.94791 0.30026 0.0
C35 C 0.06923 0.93111 0.29195 0.0
C36 C 0.09119 0.9443 0.28183 0.0
C37 C 0.09092 0.97467 0.27986 0.0
C38 C 0.0696 0.99146 0.28816 0.0
C39 C 0.02741 0.99612 0.30886 0.0
C40 C 0.00712 0.01352 0.29959 0.0
C41 C 0.02746 0.99591 0.32783 0.0
C42 C 0.04829 0.97858 0.33855 0.0
C43 C 0.03919 0.95286 0.34681 0.0
C44 C 0.05704 0.93904 0.35948 0.0
C45 C 0.08394 0.95116 0.36432 0.0
C46 C 0.09356 0.97617 0.35537 0.0
C47 C 0.0759 0.9897 0.34248 0.0
H48 H 0.00102 0.42451 0.55893 0.0
H49 H 0.98227 0.3819 0.54321 0.0
H50 H 0.91396 0.43456 0.51972 0.0
H51 H 0.93441 0.47729 0.53449 0.0
H52 H 0.99873 0.49995 0.53535 0.0
H53 H 0.99062 0.45025 0.60672 0.0
H54 H 0.9601 0.42097 0.62592 0.0
H55 H 0.88811 0.43324 0.58891 0.0
H56 H 0.91848 0.46439 0.57039 0.0
H57 H 0.97681 0.56906 0.59643 0.0
H58 H 0.99819 0.60104 0.61915 0.0
H59 H 0.082 0.56185 0.61026 0.0
H60 H 0.06054 0.53115 0.58678 0.0
H61 H 0.98346 0.50539 0.60125 0.0
H62 H 0.99557 0.58237 0.56051 0.0
H63 H 0.02348 0.62175 0.5476 0.0
H64 H 0.08101 0.55934 0.52325 0.0
H65 H 0.05373 0.5199 0.53723 0.0
C66 C 0.96909 0.45396 0.54782 0.0
C67 C 0.98228 0.42682 0.55013 0.0
C68 C 0.97123 0.40238 0.54128 0.0
C69 C 0.94626 0.40441 0.53023 0.0
C70 C 0.93346 0.43195 0.52777 0.0
C71 C 0.945 0.4565 0.5363 0.0
C72 C 0.9795 0.4792 0.55835 0.0
C73 C 0.99546 0.50114 0.54976 0.0
C74 C 0.97469 0.48098 0.57708 0.0
C75 C 0.95701 0.45941 0.587 0.0
C76 C 0.96835 0.44638 0.60261 0.0
C77 C 0.95082 0.4293 0.61352 0.0
C78 C 0.92147 0.42453 0.60902 0.0
C79 C 0.91046 0.43665 0.59295 0.0
C80 C 0.92799 0.4541 0.58214 0.0
C81 C 0.01711 0.54776 0.59002 0.0
C82 C 0.99991 0.56792 0.59911 0.0
C83 C 0.01218 0.58599 0.6122 0.0
C84 C 0.04176 0.58366 0.61686 0.0
C85 C 0.05923 0.56447 0.60698 0.0
C86 C 0.04699 0.54676 0.59361 0.0
C87 C 0.00327 0.52553 0.57843 0.0
C88 C 0.98678 0.5041 0.58683 0.0
C89 C 0.00723 0.52454 0.55961 0.0
C90 C 0.02286 0.54816 0.55016 0.0
C91 C 0.01432 0.57712 0.5525 0.0
C92 C 0.03013 0.59968 0.54485 0.0
C93 C 0.05465 0.59386 0.53435 0.0
C94 C 0.06257 0.56471 0.53149 0.0
C95 C 0.04681 0.54209 0.53931 0.0
H96 H 0.49071 0.56621 0.85617 0.0
H97 H 0.45498 0.58943 0.87492 0.0
H98 H 0.38643 0.55129 0.84245 0.0
H99 H 0.42257 0.52551 0.82499 0.0
H100 H 0.50083 0.51244 0.85417 0.0
H101 H 0.47123 0.58372 0.80948 0.0
H102 H 0.43108 0.60754 0.79371 0.0
H103 H 0.40782 0.526 0.76873 0.0
H104 H 0.44745 0.50212 0.7851 0.0
H105 H 0.52189 0.45426 0.78662 0.0
H106 H 0.56029 0.42655 0.77233 0.0
H107 H 0.62418 0.47281 0.80426 0.0
H108 H 0.58576 0.50188 0.81744 0.0
H109 H 0.5068 0.5087 0.78773 0.0
H110 H 0.54736 0.44062 0.83151 0.0
H111 H 0.58084 0.41885 0.8531 0.0
H112 H 0.58088 0.49923 0.88347 0.0
H113 H 0.55175 0.52151 0.86058 0.0
C114 C 0.45952 0.54404 0.83909 0.0
C115 C 0.46796 0.5628 0.85308 0.0
C116 C 0.44731 0.57655 0.86367 0.0
C117 C 0.41748 0.57247 0.86034 0.0
C118 C 0.40907 0.55465 0.84576 0.0
C119 C 0.42982 0.5402 0.83548 0.0
C120 C 0.48202 0.52721 0.82931 0.0
C121 C 0.50268 0.51218 0.83963 0.0
C122 C 0.48343 0.52577 0.81032 0.0
C123 C 0.46203 0.54106 0.79868 0.0
C124 C 0.45764 0.57105 0.80046 0.0
C125 C 0.43477 0.58468 0.79133 0.0
C126 C 0.41601 0.56862 0.78008 0.0
C127 C 0.42152 0.53888 0.77755 0.0
C128 C 0.44435 0.52526 0.78674 0.0
C129 C 0.55081 0.4798 0.80339 0.0
C130 C 0.54421 0.45874 0.79034 0.0
C131 C 0.56625 0.44262 0.78233 0.0
C132 C 0.59547 0.44699 0.7873 0.0
C133 C 0.60206 0.46887 0.79993 0.0
C134 C 0.58001 0.48531 0.8077 0.0
C135 C 0.52708 0.49538 0.81273 0.0
C136 C 0.50564 0.50952 0.80229 0.0
C137 C 0.52551 0.49672 0.83177 0.0
C138 C 0.5471 0.48294 0.8442 0.0
C139 C 0.55561 0.4538 0.84248 0.0
C140 C 0.57443 0.44112 0.8552 0.0
C141 C 0.58416 0.45689 0.87041 0.0
C142 C 0.57532 0.48608 0.87192 0.0
C143 C 0.55778 0.49897 0.85886 0.0
H144 H 0.50244 0.93624 0.0366 0.0
H145 H 0.4781 0.89674 0.02044 0.0
H146 H 0.39513 0.93014 0.03718 0.0
H147 H 0.41957 0.97004 0.05274 0.0
H148 H 0.49954 0.99693 0.03412 0.0
H149 H 0.47148 0.9211 0.07885 0.0
H150 H 0.44021 0.89278 0.09885 0.0
H151 H 0.39754 0.97156 0.11538 0.0
H152 H 0.42836 0.9996 0.09536 0.0
H153 H 0.48658 0.06857 0.09282 0.0
H154 H 0.50877 0.09724 0.11709 0.0
H155 H 0.58708 0.04651 0.11301 0.0
H156 H 0.56459 0.01766 0.08894 0.0
H157 H 0.48644 0.00252 0.10018 0.0
H158 H 0.48986 0.06417 0.03968 0.0
H159 H 0.51617 0.10487 0.02651 0.0
H160 H 0.59718 0.06648 0.04407 0.0
H161 H 0.57064 0.02529 0.0565 0.0
C162 C 0.46285 0.95589 0.04604 0.0
C163 C 0.47898 0.93526 0.03655 0.0
C164 C 0.46505 0.91254 0.02746 0.0
C165 C 0.43466 0.91011 0.02762 0.0
C166 C 0.41853 0.93145 0.03663 0.0
C167 C 0.43248 0.95416 0.04568 0.0
C168 C 0.47792 0.97826 0.05703 0.0
C169 C 0.49692 0.99782 0.0486 0.0
C170 C 0.47348 0.98058 0.07579 0.0
C171 C 0.45234 0.96249 0.08569 0.0
C172 C 0.45489 0.93214 0.08644 0.0
C173 C 0.43701 0.91599 0.09782 0.0
C174 C 0.41666 0.93007 0.10874 0.0
C175 C 0.41324 0.96023 0.10724 0.0
C176 C 0.43085 0.97624 0.09583 0.0
C177 C 0.5241 0.0413 0.08896 0.0
C178 C 0.50883 0.06425 0.09679 0.0
C179 C 0.52148 0.0805 0.11067 0.0
C180 C 0.54961 0.07402 0.11694 0.0
C181 C 0.56553 0.05223 0.10827 0.0
C182 C 0.55274 0.03578 0.0945 0.0
C183 C 0.50854 0.02019 0.0774 0.0
C184 C 0.48926 1.00118 0.08572 0.0
C185 C 0.51188 0.0191 0.05859 0.0
C186 C 0.52833 0.0419 0.04915 0.0
C187 C 0.51332 0.06437 0.04041 0.0
C188 C 0.52839 0.08776 0.03309 0.0
C189 C 0.55881 0.08917 0.0344 0.0
C190 C 0.57381 0.06606 0.04269 0.0
C191 C 0.55868 0.04259 0.04994 0.0
H192 H 0.02599 0.5821 0.92344 0.0
H193 H 0.05694 0.60994 0.90326 0.0
H194 H 0.10559 0.53206 0.89164 0.0
H195 H 0.07335 0.5043 0.91094 0.0
H196 H 0.00532 0.51251 0.90272 0.0
H197 H 0.02009 0.56164 0.97321 0.0
H198 H 0.05977 0.58433 0.99035 0.0
H199 H 0.12127 0.53032 0.96239 0.0
H200 H 0.0816 0.50698 0.94615 0.0
H201 H 0.98479 0.44962 0.96865 0.0
H202 H 0.94651 0.42084 0.9822 0.0
H203 H 0.88231 0.47009 0.95232 0.0
H204 H 0.92067 0.50012 0.93988 0.0
H205 H 1.00079 0.50354 0.96909 0.0
H206 H 0.95797 0.43963 0.92394 0.0
H207 H 0.92433 0.41952 0.90196 0.0
H208 H 0.92527 0.50157 0.87332 0.0
H209 H 0.9545 0.52219 0.89673 0.0
C210 C 0.04747 0.54122 0.91864 0.0
C211 C 0.04371 0.57125 0.91677 0.0
C212 C 0.06155 0.58714 0.90528 0.0
C213 C 0.0836 0.57324 0.89556 0.0
C214 C 0.0884 0.54341 0.8985 0.0
C215 C 0.07022 0.5275 0.90969 0.0
C216 C 0.02532 0.52367 0.92787 0.0
C217 C 0.00389 0.51058 0.91724 0.0
C218 C 0.02448 0.52083 0.94672 0.0
C219 C 0.04797 0.53297 0.95821 0.0
C220 C 0.04213 0.55445 0.97104 0.0
C221 C 0.06485 0.56755 0.9807 0.0
C222 C 0.09381 0.55931 0.97771 0.0
C223 C 0.09933 0.53703 0.96526 0.0
C224 C 0.07666 0.5239 0.95575 0.0
C225 C 0.95572 0.47675 0.95298 0.0
C226 C 0.96243 0.45455 0.96525 0.0
C227 C 0.94046 0.43781 0.97282 0.0
C228 C 0.91119 0.4427 0.96818 0.0
C229 C 0.90449 0.4657 0.95638 0.0
C230 C 0.92648 0.48274 0.94904 0.0
C231 C 0.97941 0.49278 0.94389 0.0
C232 C 0.00147 0.50555 0.95456 0.0
C233 C 0.98073 0.49527 0.92485 0.0
C234 C 0.95873 0.48265 0.91223 0.0
C235 C 0.94987 0.45355 0.91328 0.0
C236 C 0.93095 0.44182 0.90028 0.0
C237 C 0.92155 0.45845 0.88534 0.0
C238 C 0.93061 0.48767 0.88456 0.0
C239 C 0.94821 0.49964 0.89794 0.0
H240 H 0.51438 0.5857 0.19118 0.0
H241 H 0.48467 0.6246 0.20304 0.0
H242 H 0.42744 0.56131 0.22672 0.0
H243 H 0.45656 0.52226 0.21379 0.0
H244 H 0.50983 0.50294 0.21709 0.0
H245 H 0.53744 0.56964 0.1534 0.0
H246 H 0.51534 0.59861 0.12941 0.0
H247 H 0.43151 0.56251 0.14203 0.0
H248 H 0.45373 0.53453 0.1665 0.0
H249 H 0.53232 0.42768 0.17047 0.0
H250 H 0.56153 0.39582 0.15139 0.0
H251 H 0.62259 0.46553 0.14342 0.0
H252 H 0.5933 0.49716 0.1623 0.0
H253 H 0.53541 0.50977 0.15262 0.0
H254 H 0.49889 0.4495 0.21656 0.0
H255 H 0.51125 0.40511 0.23237 0.0
H256 H 0.59954 0.41238 0.21385 0.0
H257 H 0.58774 0.45869 0.20004 0.0
C258 C 0.48746 0.55098 0.20127 0.0
C259 C 0.49531 0.58012 0.1988 0.0
C260 C 0.47845 0.60244 0.20585 0.0
C261 C 0.45353 0.59623 0.21588 0.0
C262 C 0.44619 0.56696 0.21884 0.0
C263 C 0.46301 0.54456 0.21161 0.0
C264 C 0.50457 0.52756 0.1926 0.0
C265 C 0.51526 0.50421 0.20295 0.0
C266 C 0.51132 0.52893 0.17413 0.0
C267 C 0.49725 0.54986 0.16165 0.0
C268 C 0.51421 0.56848 0.15123 0.0
C269 C 0.50153 0.58486 0.13744 0.0
C270 C 0.47169 0.58249 0.13353 0.0
C271 C 0.45448 0.56506 0.1447 0.0
C272 C 0.46717 0.54895 0.15867 0.0
C273 C 0.56066 0.46477 0.16778 0.0
C274 C 0.55231 0.43584 0.1649 0.0
C275 C 0.56907 0.41766 0.15405 0.0
C276 C 0.59424 0.42826 0.14578 0.0
C277 C 0.60312 0.45686 0.14939 0.0
C278 C 0.58646 0.47492 0.16021 0.0
C279 C 0.54142 0.48555 0.17711 0.0
C280 C 0.53023 0.5085 0.16681 0.0
C281 C 0.53328 0.48274 0.19539 0.0
C282 C 0.54208 0.45718 0.20651 0.0
C283 C 0.5211 0.44195 0.21625 0.0
C284 C 0.52816 0.41609 0.22506 0.0
C285 C 0.55626 0.40424 0.22399 0.0
C286 C 0.57765 0.42045 0.21508 0.0
C287 C 0.57075 0.44686 0.20678 0.0
H288 H 0.48738 0.93181 0.40753 0.0
H289 H 0.45428 0.9085 0.38591 0.0
H290 H 0.38841 0.97163 0.39841 0.0
H291 H 0.42147 0.99468 0.42016 0.0
H292 H 0.50215 0.99225 0.40181 0.0
H293 H 0.46601 0.92954 0.44957 0.0
H294 H 0.42615 0.90694 0.46579 0.0
H295 H 0.39216 0.992 0.47819 0.0
H296 H 0.43278 0.01424 0.46261 0.0
H297 H 0.5134 0.06796 0.46351 0.0
H298 H 0.55263 0.09611 0.47785 0.0
H299 H 0.61478 0.03275 0.45962 0.0
H300 H 0.57573 0.00482 0.44566 0.0
H301 H 0.49455 0.00864 0.46761 0.0
H302 H 0.52668 0.07216 0.42076 0.0
H303 H 0.5607 0.09787 0.40128 0.0
H304 H 0.5967 0.01585 0.38455 0.0
H305 H 0.56258 0.99028 0.40396 0.0
C306 C 0.45683 0.96493 0.4154 0.0
C307 C 0.46552 0.94009 0.40597 0.0
C308 C 0.44657 0.92671 0.39373 0.0
C309 C 0.41886 0.93834 0.39051 0.0
C310 C 0.40968 0.96228 0.40068 0.0
C311 C 0.42848 0.97539 0.41311 0.0
C312 C 0.47839 0.98206 0.42576 0.0
C313 C 0.5008 0.99538 0.41625 0.0
C314 C 0.47575 0.98722 0.44441 0.0
C315 C 0.4523 0.97355 0.4549 0.0
C316 C 0.45003 0.94325 0.45593 0.0
C317 C 0.42708 0.93037 0.46511 0.0
C318 C 0.40575 0.94756 0.47332 0.0
C319 C 0.40837 0.97798 0.47238 0.0
C320 C 0.43153 0.99081 0.46339 0.0
C321 C 0.54171 0.03439 0.4535 0.0
C322 C 0.53546 0.06005 0.46285 0.0
C323 C 0.55788 0.07618 0.47088 0.0
C324 C 0.58679 0.06661 0.4699 0.0
C325 C 0.59274 0.04053 0.46086 0.0
C326 C 0.57046 0.02462 0.45277 0.0
C327 C 0.51875 0.01822 0.44366 0.0
C328 C 0.496 0.0053 0.4532 0.0
C329 C 0.52066 0.01379 0.42489 0.0
C330 C 0.54223 0.02933 0.41384 0.0
C331 C 0.5421 0.05977 0.41302 0.0
C332 C 0.5614 0.07441 0.40184 0.0
C333 C 0.58137 0.05885 0.39147 0.0
C334 C 0.58177 0.0284 0.39256 0.0
C335 C 0.56221 0.01377 0.40354 0.0
H336 H 0.00445 0.08296 0.69281 0.0
H337 H 0.97735 0.12217 0.70647 0.0
H338 H 0.92454 0.05959 0.73443 0.0
H339 H 0.95119 0.0201 0.71984 0.0
H340 H 0.00772 0.00217 0.71919 0.0
H341 H 0.01266 0.07051 0.65404 0.0
H342 H 0.98114 0.10117 0.63545 0.0
H343 H 0.90652 0.0538 0.65452 0.0
H344 H 0.93808 0.02491 0.67385 0.0
H345 H 0.02886 0.92666 0.6733 0.0
H346 H 0.05824 0.89653 0.65329 0.0
H347 H 0.10588 0.97259 0.63699 0.0
H348 H 0.07646 0.00246 0.65684 0.0
H349 H 0.0167 0.00817 0.6528 0.0
H350 H 0.00274 0.94081 0.71569 0.0
H351 H 0.02704 0.90049 0.73114 0.0
H352 H 0.10996 0.93359 0.71418 0.0
H353 H 0.08558 0.97411 0.69915 0.0
C354 C 0.97955 0.04859 0.70506 0.0
C355 C 0.98699 0.07762 0.70185 0.0
C356 C 0.97166 0.10009 0.70989 0.0
C357 C 0.94873 0.09413 0.72162 0.0
C358 C 0.94185 0.06496 0.7253 0.0
C359 C 0.9572 0.04236 0.71711 0.0
C360 C 0.99475 0.02524 0.69516 0.0
C361 C 0.00942 0.00322 0.70467 0.0
C362 C 0.99659 0.02621 0.67621 0.0
C363 C 0.97766 0.04552 0.66531 0.0
C364 C 0.98945 0.06708 0.65429 0.0
C365 C 0.97133 0.08446 0.64358 0.0
C366 C 0.94107 0.0801 0.64331 0.0
C367 C 0.92949 0.0585 0.65456 0.0
C368 C 0.94756 0.04163 0.66553 0.0
C369 C 0.05042 0.96681 0.66648 0.0
C370 C 0.04602 0.93669 0.66567 0.0
C371 C 0.06287 0.91951 0.65429 0.0
C372 C 0.08419 0.93226 0.64347 0.0
C373 C 0.08934 0.96221 0.64497 0.0
C374 C 0.07258 0.9793 0.65631 0.0
C375 C 0.03084 0.9859 0.67684 0.0
C376 C 0.01511 0.00708 0.66734 0.0
C377 C 0.02731 0.98331 0.69568 0.0
C378 C 0.04234 0.96032 0.70616 0.0
C379 C 0.02618 0.93955 0.71552 0.0
C380 C 0.04007 0.91639 0.7242 0.0
C381 C 0.07043 0.91374 0.72382 0.0
C382 C 0.08658 0.93512 0.71489 0.0
C383 C 0.07267 0.95819 0.70617 0.0
Mn384 Mn 0.33647 0.67284 0.00483 0.0
Mn385 Mn 0.34551 0.6002 0.00627 0.0
C386 C 0.3553 0.6506 0.0304 0.0
C387 C 0.35254 0.71994 0.99936 0.0
C388 C 0.28693 0.62887 0.00919 0.0
O389 O 0.33618 0.66195 0.97815 0.0
O390 O 0.34161 0.6134 0.98096 0.0
C391 C 0.4033 0.59739 0.98946 0.0
N392 N 0.38573 0.59152 0.0036 0.0
C393 C 0.42459 0.56797 0.01977 0.0
C394 C 0.44308 0.57365 0.00535 0.0
C395 C 0.4324 0.58847 0.99015 0.0
C396 C 0.39579 0.57732 0.0183 0.0
H397 H 0.3952 0.60883 0.97777 0.0
C398 C 0.33823 0.63644 0.97153 0.0
O399 O 0.32516 0.71357 0.99942 0.0
O400 O 0.37068 0.69873 0.00175 0.0
N401 N 0.34983 0.58471 0.03002 0.0
C402 C 0.32959 0.58232 0.04313 0.0
C403 C 0.33687 0.56824 0.05931 0.0
C404 C 0.36482 0.55672 0.0618 0.0
C405 C 0.38535 0.55971 0.04818 0.0
C406 C 0.37673 0.57357 0.03225 0.0
H407 H 0.30803 0.59101 0.04122 0.0
O408 O 0.3423 0.67548 0.03163 0.0
O409 O 0.35593 0.63927 0.01443 0.0
O410 O 0.29624 0.65478 0.0077 0.0
O411 O 0.30357 0.60676 0.00931 0.0
C412 C 0.4141 0.54969 0.04986 0.0
C413 C 0.43374 0.5539 0.03568 0.0
H414 H 0.46557 0.56693 0.00586 0.0
H415 H 0.44656 0.59304 0.979 0.0
H416 H 0.32097 0.5662 0.06983 0.0
H417 H 0.37032 0.5457 0.07423 0.0
H418 H 0.42143 0.53904 0.06207 0.0
H419 H 0.45589 0.54647 0.03722 0.0
Mn420 Mn 0.32127 0.8294 0.25565 0.0
Mn421 Mn 0.39285 0.84285 0.25629 0.0
C422 C 0.3451 0.84026 0.28268 0.0
C423 C 0.27389 0.84693 0.25294 0.0
C424 C 0.36693 0.78278 0.25043 0.0
O425 O 0.33041 0.83783 0.22921 0.0
O426 O 0.37666 0.85353 0.23235 0.0
C427 C 0.39174 0.90694 0.25368 0.0
N428 N 0.40006 0.88244 0.26256 0.0
C429 C 0.42384 0.91035 0.28577 0.0
C430 C 0.41586 0.93588 0.27674 0.0
C431 C 0.39962 0.93416 0.26067 0.0
C432 C 0.41531 0.88386 0.27817 0.0
H433 H 0.37892 0.90571 0.24149 0.0
C434 C 0.35353 0.84924 0.22299 0.0
O435 O 0.27993 0.81987 0.24985 0.0
O436 O 0.29545 0.86382 0.25694 0.0
N437 N 0.41063 0.83364 0.27895 0.0
C438 C 0.4154 0.80706 0.28643 0.0
C439 C 0.4315 0.80491 0.3025 0.0
C440 C 0.44253 0.83008 0.3107 0.0
C441 C 0.43687 0.85725 0.30296 0.0
C442 C 0.42114 0.858 0.28676 0.0
H443 H 0.40733 0.78758 0.28008 0.0
O444 O 0.32049 0.82666 0.28281 0.0
O445 O 0.35475 0.8462 0.26684 0.0
O446 O 0.34066 0.78967 0.2535 0.0
O447 O 0.3876 0.80127 0.25023 0.0
C448 C 0.44617 0.88362 0.31069 0.0
C449 C 0.43944 0.91016 0.30218 0.0
H450 H 0.42179 0.95691 0.28212 0.0
H451 H 0.39311 0.95377 0.25372 0.0
H452 H 0.43559 0.78389 0.30848 0.0
H453 H 0.45519 0.82825 0.32301 0.0
H454 H 0.45823 0.88375 0.32327 0.0
H455 H 0.44629 0.93031 0.3084 0.0
Mn456 Mn 0.17779 0.83195 0.49701 0.0
Mn457 Mn 0.10583 0.84236 0.49624 0.0
C458 C 0.15434 0.84527 0.47031 0.0
C459 C 0.22366 0.85176 0.50174 0.0
C460 C 0.1345 0.783 0.49989 0.0
O461 O 0.16737 0.83617 0.52363 0.0
O462 O 0.12111 0.852 0.5206 0.0
C463 C 0.10291 0.90609 0.50092 0.0
N464 N 0.09649 0.88195 0.49112 0.0
C465 C 0.07186 0.9104 0.4685 0.0
C466 C 0.07795 0.93552 0.47848 0.0
C467 C 0.09364 0.93336 0.49473 0.0
C468 C 0.08166 0.88382 0.47537 0.0
H469 H 0.11526 0.90455 0.51326 0.0
C470 C 0.14405 0.84689 0.53001 0.0
O471 O 0.21953 0.82393 0.50273 0.0
O472 O 0.20132 0.86789 0.49833 0.0
N473 N 0.08918 0.83407 0.47309 0.0
C474 C 0.08641 0.80798 0.46463 0.0
C475 C 0.07135 0.80637 0.44815 0.0
C476 C 0.05928 0.83155 0.44055 0.0
C477 C 0.06277 0.85824 0.44936 0.0
C478 C 0.07763 0.85844 0.46588 0.0
H479 H 0.09534 0.78846 0.47046 0.0
O480 O 0.17968 0.83312 0.46986 0.0
O481 O 0.14391 0.84858 0.48625 0.0
O482 O 0.16038 0.79114 0.49672 0.0
O483 O 0.11322 0.80068 0.50108 0.0
C484 C 0.05223 0.88466 0.44235 0.0
C485 C 0.05695 0.91074 0.45186 0.0
H486 H 0.07096 0.95661 0.47369 0.0
H487 H 0.09867 0.95267 0.50242 0.0
H488 H 0.0689 0.78573 0.44136 0.0
H489 H 0.04751 0.83015 0.42789 0.0
H490 H 0.04073 0.88521 0.42957 0.0
H491 H 0.04916 0.93098 0.44619 0.0
Mn492 Mn 0.16989 0.67653 0.74716 0.0
Mn493 Mn 0.16053 0.60412 0.74493 0.0
C494 C 0.15488 0.65462 0.72038 0.0
C495 C 0.15272 0.72342 0.75217 0.0
C496 C 0.21957 0.63284 0.74737 0.0
O497 O 0.1659 0.66475 0.7737 0.0
O498 O 0.15539 0.61724 0.77002 0.0
C499 C 0.09826 0.59984 0.75372 0.0
N500 N 0.12035 0.5949 0.74213 0.0
C501 C 0.08819 0.57152 0.72093 0.0
C502 C 0.06508 0.57638 0.73264 0.0
C503 C 0.07014 0.59063 0.7491 0.0
C504 C 0.11573 0.58123 0.72626 0.0
H505 H 0.10207 0.61078 0.76638 0.0
C506 C 0.15864 0.63985 0.77989 0.0
O507 O 0.18005 0.71715 0.7536 0.0
O508 O 0.13513 0.70218 0.74854 0.0
N509 N 0.16467 0.58934 0.72105 0.0
C510 C 0.18911 0.58732 0.71102 0.0
C511 C 0.18788 0.57328 0.69427 0.0
C512 C 0.16158 0.56151 0.68804 0.0
C513 C 0.13657 0.5644 0.69842 0.0
C514 C 0.13923 0.57814 0.71515 0.0
H515 H 0.20947 0.59604 0.71584 0.0
O516 O 0.16777 0.67964 0.72006 0.0
O517 O 0.15234 0.64319 0.73618 0.0
O518 O 0.21044 0.65885 0.74634 0.0
O519 O 0.20269 0.61092 0.74752 0.0
C520 C 0.10912 0.5542 0.69284 0.0
C521 C 0.08492 0.5579 0.70405 0.0
H522 H 0.04334 0.5694 0.7291 0.0
H523 H 0.0524 0.59451 0.75819 0.0
H524 H 0.20721 0.57134 0.68626 0.0
H525 H 0.16086 0.5503 0.67524 0.0
H526 H 0.10634 0.54371 0.6799 0.0
H527 H 0.06386 0.55029 0.69952 0.0
Mn528 Mn 0.83372 0.17174 0.50795 0.0
Mn529 Mn 0.83297 0.09926 0.51429 0.0
C530 C 0.83813 0.15237 0.53662 0.0
C531 C 0.85724 0.21578 0.50309 0.0
C532 C 0.77868 0.13397 0.50716 0.0
O533 O 0.84265 0.15666 0.48277 0.0
O534 O 0.8396 0.10875 0.4886 0.0
C535 C 0.89426 0.08667 0.50599 0.0
N536 N 0.87172 0.0856 0.51763 0.0
C537 C 0.89873 0.05526 0.53809 0.0
C538 C 0.92227 0.05601 0.52633 0.0
C539 C 0.92012 0.07205 0.5103 0.0
C540 C 0.87388 0.071 0.53335 0.0
H541 H 0.8924 0.09832 0.49342 0.0
C542 C 0.84313 0.13013 0.47784 0.0
O543 O 0.83009 0.21229 0.49891 0.0
O544 O 0.87105 0.19342 0.50941 0.0
N545 N 0.82677 0.08666 0.53845 0.0
C546 C 0.80201 0.08793 0.54824 0.0
C547 C 0.80111 0.07428 0.56512 0.0
C548 C 0.82529 0.05867 0.57146 0.0
C549 C 0.85019 0.05691 0.56087 0.0
C550 C 0.85012 0.07166 0.54441 0.0
H551 H 0.78316 0.09939 0.54325 0.0
O552 O 0.82845 0.17854 0.53428 0.0
O553 O 0.84477 0.13814 0.52215 0.0
O554 O 0.79132 0.15835 0.50509 0.0
O555 O 0.79223 0.11076 0.51123 0.0
C556 C 0.87478 0.04051 0.56579 0.0
C557 C 0.89887 0.03934 0.55427 0.0
H558 H 0.94208 0.04438 0.52948 0.0
H559 H 0.93818 0.07272 0.50114 0.0
H560 H 0.7817 0.07549 0.57311 0.0
H561 H 0.82436 0.04781 0.58436 0.0
H562 H 0.87537 0.02861 0.57835 0.0
H563 H 0.91768 0.02668 0.55821 0.0
Mn564 Mn 0.82439 0.33301 0.75566 0.0
Mn565 Mn 0.89615 0.34505 0.7529 0.0
C566 C 0.85134 0.34627 0.78105 0.0
C567 C 0.77657 0.34954 0.75462 0.0
C568 C 0.86975 0.28489 0.75205 0.0
O569 O 0.82998 0.33932 0.72865 0.0
O570 O 0.87797 0.34905 0.72875 0.0
C571 C 0.89347 0.40754 0.74388 0.0
N572 N 0.90282 0.38584 0.75493 0.0
C573 C 0.92688 0.41983 0.7746 0.0
C574 C 0.91762 0.44256 0.7634 0.0
C575 C 0.90078 0.43638 0.748 0.0
C576 C 0.91873 0.39157 0.76989 0.0
H577 H 0.88045 0.40288 0.73207 0.0
C578 C 0.85347 0.34602 0.72067 0.0
O579 O 0.78284 0.32237 0.75221 0.0
O580 O 0.79814 0.36721 0.757 0.0
N581 N 0.91624 0.34199 0.77545 0.0
C582 C 0.9233 0.31758 0.78485 0.0
C583 C 0.94124 0.31978 0.80016 0.0
C584 C 0.9517 0.34702 0.80562 0.0
C585 C 0.94364 0.37192 0.79596 0.0
C586 C 0.92626 0.36829 0.78058 0.0
H587 H 0.91571 0.29653 0.78054 0.0
O588 O 0.82697 0.33254 0.78274 0.0
O589 O 0.85913 0.35093 0.76463 0.0
O590 O 0.84357 0.29305 0.75404 0.0
O591 O 0.89103 0.30256 0.75124 0.0
C592 C 0.95237 0.40013 0.80088 0.0
C593 C 0.94375 0.42411 0.79031 0.0
H594 H 0.92324 0.46482 0.7665 0.0
H595 H 0.89346 0.45381 0.73932 0.0
H596 H 0.94721 0.30051 0.80764 0.0
H597 H 0.9659 0.34853 0.81728 0.0
H598 H 0.9656 0.40364 0.81281 0.0
H599 H 0.95038 0.44573 0.79431 0.0
Mn600 Mn 0.68233 0.32777 0.99833 0.0
Mn601 Mn 0.61147 0.34306 0.00195 0.0
C602 C 0.65541 0.342 0.9731 0.0
C603 C 0.73043 0.34343 0.99938 0.0
C604 C 0.63608 0.28184 0.0037 0.0
O605 O 0.67702 0.33342 0.02548 0.0
O606 O 0.63096 0.35032 0.02543 0.0
C607 C 0.61521 0.40655 0.00753 0.0
N608 N 0.60511 0.38351 0.99786 0.0
C609 C 0.58019 0.41502 0.97703 0.0
C610 C 0.59015 0.43907 0.98685 0.0
C611 C 0.60783 0.4348 0.00213 0.0
C612 C 0.58841 0.38739 0.983 0.0
H613 H 0.62894 0.40336 0.01918 0.0
C614 C 0.65509 0.34448 0.03333 0.0
O615 O 0.72378 0.31628 0.00152 0.0
O616 O 0.70911 0.36146 0.99726 0.0
N617 N 0.59056 0.33722 0.97987 0.0
C618 C 0.58355 0.31179 0.97156 0.0
C619 C 0.56551 0.3122 0.95623 0.0
C620 C 0.5548 0.3387 0.94966 0.0
C621 C 0.56266 0.36464 0.95826 0.0
C622 C 0.58038 0.36285 0.97362 0.0
H623 H 0.59134 0.29131 0.9767 0.0
O624 O 0.67953 0.3279 0.97122 0.0
O625 O 0.6481 0.34668 0.98959 0.0
O626 O 0.66198 0.28858 0.99962 0.0
O627 O 0.61599 0.30063 0.00585 0.0
C628 C 0.55359 0.39219 0.95221 0.0
C629 C 0.56261 0.41738 0.96148 0.0
H630 H 0.58449 0.4609 0.98272 0.0
H631 H 0.61576 0.45325 0.00972 0.0
H632 H 0.55968 0.29211 0.94958 0.0
H633 H 0.54068 0.33886 0.93791 0.0
H634 H 0.53987 0.39428 0.94036 0.0
H635 H 0.55584 0.43845 0.95655 0.0
Mn636 Mn 0.6652 0.17127 0.24978 0.0
Mn637 Mn 0.6708 0.09837 0.24847 0.0
C638 C 0.65566 0.14581 0.22335 0.0
C639 C 0.63752 0.21333 0.25328 0.0
C640 C 0.72291 0.13814 0.24985 0.0
O641 O 0.66279 0.1603 0.27635 0.0
O642 O 0.66633 0.11147 0.27375 0.0
C643 C 0.61137 0.08389 0.26007 0.0
N644 N 0.63271 0.08212 0.24761 0.0
C645 C 0.60245 0.05352 0.22788 0.0
C646 C 0.5802 0.05492 0.24054 0.0
C647 C 0.58467 0.07021 0.25669 0.0
C648 C 0.62861 0.06752 0.23201 0.0
H649 H 0.61466 0.09574 0.27246 0.0
C650 C 0.66367 0.13474 0.28304 0.0
O651 O 0.66555 0.21385 0.2551 0.0
O652 O 0.62571 0.18829 0.25024 0.0
N653 N 0.67486 0.08332 0.22465 0.0
C654 C 0.69804 0.0852 0.21352 0.0
C655 C 0.69716 0.07095 0.19683 0.0
C656 C 0.67246 0.05501 0.19176 0.0
C657 C 0.64867 0.05382 0.2033 0.0
C658 C 0.65102 0.06798 0.21991 0.0
H659 H 0.71711 0.09735 0.21739 0.0
O660 O 0.66365 0.17276 0.22268 0.0
O661 O 0.65493 0.13465 0.23932 0.0
O662 O 0.70875 0.16194 0.25009 0.0
O663 O 0.71088 0.11324 0.24895 0.0
C664 C 0.62268 0.03927 0.19894 0.0
C665 C 0.59954 0.03923 0.21119 0.0
H666 H 0.55952 0.04452 0.23795 0.0
H667 H 0.56755 0.0715 0.26649 0.0
H668 H 0.7155 0.07216 0.18792 0.0
H669 H 0.67201 0.04379 0.17897 0.0
H670 H 0.62015 0.0283 0.18613 0.0
H671 H 0.57953 0.02828 0.2076 0.0
H672 H 0.14939 0.95656 0.28144 0.0
H673 H 0.08666 0.89141 0.26495 0.0
H674 H 0.12641 0.86039 0.25397 0.0
H675 H 0.19916 0.94638 0.24379 0.0
H676 H 0.23085 0.95196 0.25776 0.0
H677 H 0.19728 0.96967 0.26323 0.0
H678 H 0.19938 0.94708 0.29515 0.0
H679 H 0.23288 0.92927 0.28978 0.0
H680 H 0.20252 0.90829 0.29752 0.0
H681 H 0.17355 0.83513 0.24655 0.0
H682 H 0.22405 0.81794 0.24334 0.0
H683 H 0.25544 0.90028 0.26404 0.0
C684 C 0.14391 0.93607 0.27516 0.0
C685 C 0.11485 0.92648 0.27402 0.0
C686 C 0.10876 0.89913 0.26611 0.0
C687 C 0.13118 0.88144 0.25973 0.0
C688 C 0.15961 0.89142 0.26127 0.0
C689 C 0.166 0.91816 0.26872 0.0
C690 C 0.19839 0.9233 0.26959 0.0
C691 C 0.20691 0.94937 0.25789 0.0
C692 C 0.2089 0.9272 0.28917 0.0
C693 C 0.20927 0.89512 0.26168 0.0
C694 C 0.18661 0.87702 0.25688 0.0
C695 C 0.19145 0.84926 0.25007 0.0
C696 C 0.2202 0.83967 0.2483 0.0
C697 C 0.24369 0.85782 0.2533 0.0
C698 C 0.238 0.886 0.25986 0.0
H699 H 0.03523 0.64626 0.52109 0.0
H700 H 0.114 0.59713 0.53133 0.0
H701 H 0.14308 0.63885 0.52121 0.0
H702 H 0.06037 0.68661 0.48198 0.0
H703 H 0.04207 0.71939 0.48861 0.0
H704 H 0.02745 0.68458 0.49476 0.0
H705 H 0.0281 0.69985 0.52833 0.0
H706 H 0.04269 0.73466 0.5223 0.0
H707 H 0.06151 0.71226 0.53851 0.0
H708 H 0.16374 0.6875 0.51188 0.0
H709 H 0.174 0.73884 0.50478 0.0
H710 H 0.08156 0.75622 0.50201 0.0
C711 C 0.05859 0.64412 0.52119 0.0
C712 C 0.07221 0.61821 0.52699 0.0
C713 C 0.1029 0.61644 0.52665 0.0
C714 C 0.11966 0.64013 0.52102 0.0
C715 C 0.10548 0.66548 0.51574 0.0
C716 C 0.07561 0.66757 0.51576 0.0
C717 C 0.06563 0.69772 0.51053 0.0
C718 C 0.04783 0.69702 0.49292 0.0
C719 C 0.04848 0.71195 0.52583 0.0
C720 C 0.09455 0.71248 0.5079 0.0
C721 C 0.11731 0.69349 0.51074 0.0
C722 C 0.14606 0.7025 0.50951 0.0
C723 C 0.15168 0.73172 0.50545 0.0
C724 C 0.12863 0.75169 0.50285 0.0
C725 C 0.09974 0.74165 0.50393 0.0
H726 H 0.36129 0.54578 0.77706 0.0
H727 H 0.41122 0.62307 0.76516 0.0
H728 H 0.36671 0.64724 0.75402 0.0
H729 H 0.31209 0.55061 0.73798 0.0
H730 H 0.28153 0.53756 0.75051 0.0
H731 H 0.31765 0.52591 0.7565 0.0
H732 H 0.30999 0.54395 0.78913 0.0
H733 H 0.27396 0.55577 0.78324 0.0
H734 H 0.29948 0.58109 0.79292 0.0
H735 H 0.31607 0.66401 0.74612 0.0
H736 H 0.26355 0.67172 0.74148 0.0
H737 H 0.24732 0.58276 0.75768 0.0
C738 C 0.36308 0.56754 0.77171 0.0
C739 C 0.38984 0.58247 0.77194 0.0
C740 C 0.39095 0.61125 0.76527 0.0
C741 C 0.36582 0.6251 0.75881 0.0
C742 C 0.33975 0.60984 0.75901 0.0
C743 C 0.33827 0.58162 0.76517 0.0
C744 C 0.30744 0.57038 0.76464 0.0
C745 C 0.30451 0.54459 0.75163 0.0
C746 C 0.29712 0.56234 0.78361 0.0
C747 C 0.29172 0.59684 0.75746 0.0
C748 C 0.31072 0.61936 0.75425 0.0
C749 C 0.30103 0.64642 0.74839 0.0
C750 C 0.27113 0.65061 0.74584 0.0
C751 C 0.25124 0.62782 0.74911 0.0
C752 C 0.26189 0.60054 0.75482 0.0
H753 H 0.45168 0.85302 0.02829 0.0
H754 H 0.38379 0.90984 0.00802 0.0
H755 H 0.35731 0.86733 0.99608 0.0
H756 H 0.44899 0.80056 0.99064 0.0
H757 H 0.4556 0.77009 0.00532 0.0
H758 H 0.47034 0.8052 0.01091 0.0
H759 H 0.44524 0.80318 0.0419 0.0
H760 H 0.43042 0.76816 0.03641 0.0
H761 H 0.40666 0.79734 0.04281 0.0
H762 H 0.33605 0.8184 0.98899 0.0
H763 H 0.32196 0.76677 0.98697 0.0
H764 H 0.40469 0.74201 0.01063 0.0
C765 C 0.43162 0.85665 0.02094 0.0
C766 C 0.41986 0.88484 0.01908 0.0
C767 C 0.39312 0.88846 0.00978 0.0
C768 C 0.37802 0.86446 0.00282 0.0
C769 C 0.39004 0.83697 0.00512 0.0
C770 C 0.41634 0.83296 0.01385 0.0
C771 C 0.42372 0.80103 0.01546 0.0
C772 C 0.4513 0.7938 0.00495 0.0
C773 C 0.42667 0.79191 0.03532 0.0
C774 C 0.39716 0.78767 0.00664 0.0
C775 C 0.37805 0.80877 0.00069 0.0
C776 C 0.35105 0.80169 0.99331 0.0
C777 C 0.34322 0.77233 0.99224 0.0
C778 C 0.36237 0.75041 0.99843 0.0
C779 C 0.38988 0.75825 0.00541 0.0
H780 H 0.14514 0.53619 0.99033 0.0
H781 H 0.09866 0.61763 0.98476 0.0
H782 H 0.14151 0.64387 0.99638 0.0
H783 H 0.18904 0.55584 0.03066 0.0
H784 H 0.2205 0.53711 0.0224 0.0
H785 H 0.18471 0.52432 0.01653 0.0
H786 H 0.19727 0.52764 0.98268 0.0
H787 H 0.23299 0.5404 0.98844 0.0
H788 H 0.21006 0.56154 0.97367 0.0
H789 H 0.19124 0.66179 0.00492 0.0
H790 H 0.24367 0.66991 0.00925 0.0
H791 H 0.258 0.5768 0.00842 0.0
C792 C 0.14377 0.55951 0.99176 0.0
C793 C 0.11836 0.57477 0.98669 0.0
C794 C 0.11758 0.60531 0.98887 0.0
C795 C 0.1419 0.62046 0.9954 0.0
C796 C 0.16682 0.60479 0.99978 0.0
C797 C 0.16787 0.57496 0.99813 0.0
C798 C 0.198 0.56346 0.00213 0.0
C799 C 0.19805 0.54404 0.01893 0.0
C800 C 0.21029 0.54732 0.98576 0.0
C801 C 0.21402 0.59157 0.00566 0.0
C802 C 0.19558 0.61514 0.00453 0.0
C803 C 0.2058 0.64347 0.00611 0.0
C804 C 0.23568 0.64785 0.00855 0.0
C805 C 0.25511 0.62401 0.00924 0.0
C806 C 0.24384 0.59553 0.00817 0.0
H807 H 0.47099 0.64933 0.22914 0.0
H808 H 0.39398 0.59812 0.2177 0.0
H809 H 0.36338 0.63917 0.22715 0.0
H810 H 0.44327 0.68878 0.2677 0.0
H811 H 0.46091 0.72211 0.26146 0.0
H812 H 0.47671 0.68778 0.25541 0.0
H813 H 0.4769 0.70338 0.2219 0.0
H814 H 0.4611 0.73771 0.22785 0.0
H815 H 0.44354 0.71496 0.21129 0.0
H816 H 0.34106 0.68708 0.23633 0.0
H817 H 0.32905 0.73778 0.244 0.0
H818 H 0.42084 0.75788 0.24806 0.0
C819 C 0.4477 0.64661 0.22861 0.0
C820 C 0.435 0.6203 0.22269 0.0
C821 C 0.40436 0.61777 0.22247 0.0
C822 C 0.38675 0.64107 0.22771 0.0
C823 C 0.40004 0.66681 0.23315 0.0
C824 C 0.42983 0.66968 0.23364 0.0
C825 C 0.43878 0.70004 0.23913 0.0
C826 C 0.45593 0.69964 0.25699 0.0
C827 C 0.45609 0.71489 0.22415 0.0
C828 C 0.40935 0.71398 0.24139 0.0
C829 C 0.38726 0.69443 0.23806 0.0
C830 C 0.35821 0.70253 0.23904 0.0
C831 C 0.3516 0.73141 0.24342 0.0
C832 C 0.37395 0.75195 0.24662 0.0
C833 C 0.40318 0.74285 0.24568 0.0
H834 H 0.37602 0.89796 0.46351 0.0
H835 H 0.3778 0.96637 0.50371 0.0
H836 H 0.33354 0.94635 0.51714 0.0
H837 H 0.30159 0.89554 0.45673 0.0
H838 H 0.29917 0.8567 0.45444 0.0
H839 H 0.33219 0.87509 0.44877 0.0
H840 H 0.36085 0.84243 0.47106 0.0
H841 H 0.32786 0.82386 0.4768 0.0
H842 H 0.3498 0.84038 0.49421 0.0
H843 H 0.28595 0.92281 0.52375 0.0
H844 H 0.23982 0.8954 0.52408 0.0
H845 H 0.27123 0.83939 0.48179 0.0
C846 C 0.36766 0.90836 0.47543 0.0
C847 C 0.38047 0.93396 0.48242 0.0
C848 C 0.3682 0.94712 0.49781 0.0
C849 C 0.34318 0.93573 0.50568 0.0
C850 C 0.33091 0.9108 0.49826 0.0
C851 C 0.34294 0.89702 0.48362 0.0
C852 C 0.3248 0.8712 0.47778 0.0
C853 C 0.31379 0.87487 0.45828 0.0
C854 C 0.34185 0.84278 0.48011 0.0
C855 C 0.30022 0.87313 0.49107 0.0
C856 C 0.30419 0.89616 0.50278 0.0
C857 C 0.28297 0.90423 0.51502 0.0
C858 C 0.25691 0.88861 0.51513 0.0
C859 C 0.25256 0.86491 0.50335 0.0
C860 C 0.27464 0.85676 0.4914 0.0
H861 H 0.05384 0.85657 0.72229 0.0
H862 H 0.12074 0.91331 0.74385 0.0
H863 H 0.14704 0.87071 0.75585 0.0
H864 H 0.05546 0.80331 0.75937 0.0
H865 H 0.0497 0.77307 0.74438 0.0
H866 H 0.03496 0.80819 0.7388 0.0
H867 H 0.06142 0.80694 0.70825 0.0
H868 H 0.07622 0.7719 0.71372 0.0
H869 H 0.10007 0.80133 0.70794 0.0
H870 H 0.16802 0.82185 0.76326 0.0
H871 H 0.18224 0.7703 0.76539 0.0
H872 H 0.10102 0.74537 0.73981 0.0
C873 C 0.07367 0.86011 0.72991 0.0
C874 C 0.08519 0.88832 0.73218 0.0
C875 C 0.11161 0.89191 0.74182 0.0
C876 C 0.1266 0.86786 0.7488 0.0
C877 C 0.11481 0.84035 0.74612 0.0
C878 C 0.08889 0.83635 0.73697 0.0
C879 C 0.0818 0.8044 0.73501 0.0
C880 C 0.05382 0.7968 0.74499 0.0
C881 C 0.07977 0.79564 0.71505 0.0
C882 C 0.10807 0.79103 0.74416 0.0
C883 C 0.12677 0.81214 0.75059 0.0
C884 C 0.15336 0.80512 0.75852 0.0
C885 C 0.16126 0.77579 0.75966 0.0
C886 C 0.14261 0.75383 0.75294 0.0
C887 C 0.11547 0.76163 0.74539 0.0
H888 H 0.6519 0.46189 0.77912 0.0
H889 H 0.59237 0.38888 0.7791 0.0
H890 H 0.63112 0.35719 0.76793 0.0
H891 H 0.69353 0.44095 0.7398 0.0
H892 H 0.72751 0.45254 0.74959 0.0
H893 H 0.69433 0.47033 0.75581 0.0
H894 H 0.70519 0.4594 0.78942 0.0
H895 H 0.73842 0.44171 0.78331 0.0
H896 H 0.71191 0.42252 0.79637 0.0
H897 H 0.67705 0.33258 0.75846 0.0
H898 H 0.72723 0.31665 0.75277 0.0
H899 H 0.75734 0.40504 0.76034 0.0
C900 C 0.64688 0.43927 0.77677 0.0
C901 C 0.61878 0.42812 0.77986 0.0
C902 C 0.61336 0.39831 0.77645 0.0
C903 C 0.63533 0.38 0.77018 0.0
C904 C 0.66274 0.39169 0.76745 0.0
C905 C 0.66863 0.42061 0.7707 0.0
C906 C 0.70038 0.42733 0.7678 0.0
C907 C 0.70415 0.44907 0.75233 0.0
C908 C 0.71482 0.43838 0.78527 0.0
C909 C 0.71151 0.39756 0.76271 0.0
C910 C 0.68939 0.37737 0.76237 0.0
C911 C 0.69453 0.34823 0.75857 0.0
C912 C 0.7231 0.33939 0.75534 0.0
C913 C 0.74621 0.35959 0.75606 0.0
C914 C 0.74015 0.3891 0.75955 0.0
H915 H 0.54278 0.14648 0.03682 0.0
H916 H 0.61095 0.09054 0.01684 0.0
H917 H 0.63792 0.13364 0.00659 0.0
H918 H 0.54501 0.19862 0.00034 0.0
H919 H 0.53805 0.22914 0.01481 0.0
H920 H 0.52412 0.19385 0.02048 0.0
H921 H 0.54982 0.19677 0.05162 0.0
H922 H 0.56388 0.23202 0.04604 0.0
H923 H 0.5883 0.20338 0.05276 0.0
H924 H 0.65797 0.183 0.99916 0.0
H925 H 0.66923 0.23476 0.9946 0.0
H926 H 0.58705 0.25824 0.01854 0.0
C927 C 0.56317 0.14318 0.03005 0.0
C928 C 0.57471 0.11502 0.02764 0.0
C929 C 0.6018 0.11185 0.01905 0.0
C930 C 0.6172 0.1362 0.01308 0.0
C931 C 0.60521 0.16359 0.01573 0.0
C932 C 0.57875 0.1672 0.02394 0.0
C933 C 0.57076 0.19899 0.02533 0.0
C934 C 0.54283 0.20553 0.0146 0.0
C935 C 0.56804 0.20833 0.04511 0.0
C936 C 0.59691 0.21274 0.01665 0.0
C937 C 0.61656 0.19196 0.01124 0.0
C938 C 0.64267 0.19945 0.00326 0.0
C939 C 0.64889 0.22895 0.00077 0.0
C940 C 0.62902 0.25068 0.00616 0.0
C941 C 0.60264 0.24227 0.01413 0.0
H942 H 0.87798 0.06525 0.25745 0.0
H943 H 0.90004 0.13346 0.29568 0.0
H944 H 0.85563 0.15947 0.28715 0.0
H945 H 0.83911 0.10957 0.22384 0.0
H946 H 0.81159 0.08235 0.22034 0.0
H947 H 0.84792 0.07172 0.2266 0.0
H948 H 0.82807 0.04357 0.25402 0.0
H949 H 0.79178 0.05397 0.24779 0.0
H950 H 0.8056 0.06223 0.26998 0.0
H951 H 0.80645 0.17629 0.2766 0.0
H952 H 0.7549 0.1795 0.26746 0.0
H953 H 0.7626 0.09776 0.23899 0.0
C954 C 0.8738 0.08568 0.26408 0.0
C955 C 0.89321 0.09717 0.27717 0.0
C956 C 0.88642 0.12428 0.2852 0.0
C957 C 0.86097 0.13929 0.28052 0.0
C958 C 0.84215 0.12691 0.26793 0.0
C959 C 0.84812 0.10055 0.25996 0.0
C960 C 0.8227 0.09007 0.24864 0.0
C961 C 0.83083 0.08833 0.22867 0.0
C962 C 0.81137 0.06074 0.25553 0.0
C963 C 0.80118 0.11424 0.25192 0.0
C964 C 0.81308 0.1357 0.26267 0.0
C965 C 0.79699 0.15973 0.26805 0.0
C966 C 0.76774 0.16144 0.26273 0.0
C967 C 0.75475 0.13892 0.25249 0.0
C968 C 0.77196 0.11538 0.24674 0.0
H969 H 0.94577 0.34844 0.54361 0.0
H970 H 0.91658 0.39974 0.49779 0.0
H971 H 0.89211 0.3567 0.48522 0.0
H972 H 0.96105 0.28284 0.51741 0.0
H973 H 0.94962 0.25912 0.53525 0.0
H974 H 0.96507 0.29402 0.54055 0.0
H975 H 0.91945 0.30709 0.55888 0.0
H976 H 0.90383 0.27233 0.5536 0.0
H977 H 0.88423 0.30507 0.54821 0.0
H978 H 0.86698 0.30881 0.47905 0.0
H979 H 0.84679 0.25899 0.47868 0.0
H980 H 0.89725 0.23803 0.52646 0.0
C981 C 0.93491 0.35072 0.53071 0.0
C982 C 0.9331 0.37789 0.52186 0.0
C983 C 0.91787 0.37956 0.50518 0.0
C984 C 0.90408 0.35509 0.49779 0.0
C985 C 0.90615 0.32884 0.50699 0.0
C986 C 0.92159 0.32642 0.52294 0.0
C987 C 0.92045 0.29576 0.53023 0.0
C988 C 0.95086 0.28214 0.53089 0.0
C989 C 0.90613 0.29504 0.54883 0.0
C990 C 0.90151 0.28141 0.51605 0.0
C991 C 0.89326 0.30089 0.50281 0.0
C992 C 0.87381 0.29322 0.48912 0.0
C993 C 0.86243 0.26495 0.48901 0.0
C994 C 0.87098 0.24463 0.50231 0.0
C995 C 0.89103 0.25293 0.51584 0.0
H996 H 0.63326 0.0466 0.48937 0.0
H997 H 0.59551 0.12544 0.4676 0.0
H998 H 0.63884 0.15297 0.47761 0.0
H999 H 0.67061 0.08013 0.52841 0.0
H1000 H 0.70143 0.05638 0.5264 0.0
H1001 H 0.66593 0.04399 0.51959 0.0
H1002 H 0.68547 0.03154 0.48794 0.0
H1003 H 0.72092 0.04393 0.49462 0.0
H1004 H 0.7033 0.05931 0.47507 0.0
H1005 H 0.68913 0.17056 0.48704 0.0
H1006 H 0.74085 0.17656 0.49539 0.0
H1007 H 0.74469 0.08579 0.51083 0.0
C1008 C 0.63391 0.06974 0.48692 0.0
C1009 C 0.61101 0.08389 0.47772 0.0
C1010 C 0.61264 0.11422 0.47484 0.0
C1011 C 0.63722 0.13001 0.48042 0.0
C1012 C 0.65979 0.11518 0.48904 0.0
C1013 C 0.65815 0.08574 0.49242 0.0
C1014 C 0.68591 0.07439 0.5008 0.0
C1015 C 0.68065 0.06306 0.51994 0.0
C1016 C 0.6997 0.05092 0.48889 0.0
C1017 C 0.70384 0.10182 0.50111 0.0
C1018 C 0.68842 0.12523 0.49446 0.0
C1019 C 0.70126 0.15244 0.49251 0.0
C1020 C 0.73068 0.15564 0.49728 0.0
C1021 C 0.74697 0.1317 0.50381 0.0
C1022 C 0.73299 0.10465 0.50599 0.0
H1023 H 0.96872 0.14697 0.73356 0.0
H1024 H 0.88978 0.09682 0.7265 0.0
H1025 H 0.86104 0.13911 0.7362 0.0
H1026 H 0.94539 0.19053 0.77215 0.0
H1027 H 0.96321 0.22268 0.76405 0.0
H1028 H 0.97766 0.18739 0.75884 0.0
H1029 H 0.97533 0.19967 0.72482 0.0
H1030 H 0.96081 0.23491 0.7299 0.0
H1031 H 0.94137 0.21099 0.71485 0.0
H1032 H 0.84068 0.18838 0.74404 0.0
H1033 H 0.83043 0.24022 0.7493 0.0
H1034 H 0.92284 0.25821 0.75001 0.0
C1035 C 0.9454 0.14471 0.73417 0.0
C1036 C 0.93157 0.11845 0.72929 0.0
C1037 C 0.90099 0.11648 0.73046 0.0
C1038 C 0.88444 0.14046 0.73587 0.0
C1039 C 0.89878 0.16623 0.7401 0.0
C1040 C 0.9286 0.16843 0.73938 0.0
C1041 C 0.93869 0.19902 0.74337 0.0
C1042 C 0.95734 0.19995 0.76063 0.0
C1043 C 0.955 0.2119 0.72728 0.0
C1044 C 0.90985 0.21391 0.74603 0.0
C1045 C 0.88709 0.1946 0.74431 0.0
C1046 C 0.85836 0.20362 0.74559 0.0
C1047 C 0.85277 0.23316 0.74856 0.0
C1048 C 0.8758 0.25343 0.75007 0.0
C1049 C 0.90468 0.2434 0.74897 0.0
H1050 H 0.85504 0.45699 0.97734 0.0
H1051 H 0.91422 0.38389 0.9742 0.0
H1052 H 0.8756 0.35135 0.9846 0.0
H1053 H 0.81447 0.43276 0.01627 0.0
H1054 H 0.78028 0.44534 0.00728 0.0
H1055 H 0.81336 0.46351 0.00129 0.0
H1056 H 0.80148 0.45559 0.96748 0.0
H1057 H 0.76834 0.43755 0.97336 0.0
H1058 H 0.79434 0.41941 0.95936 0.0
H1059 H 0.8297 0.32607 0.99376 0.0
H1060 H 0.77956 0.30997 0.99952 0.0
H1061 H 0.74996 0.3991 0.99531 0.0
C1062 C 0.86001 0.43417 0.97882 0.0
C1063 C 0.88797 0.42323 0.97509 0.0
C1064 C 0.89332 0.39312 0.97737 0.0
C1065 C 0.87143 0.37434 0.98319 0.0
C1066 C 0.84415 0.38586 0.98661 0.0
C1067 C 0.83833 0.41506 0.98444 0.0
C1068 C 0.80673 0.42165 0.98792 0.0
C1069 C 0.80354 0.44202 0.00416 0.0
C1070 C 0.79185 0.43429 0.97102 0.0
C1071 C 0.7956 0.39153 0.99211 0.0
C1072 C 0.81758 0.37122 0.9915 0.0
C1073 C 0.81234 0.34181 0.99438 0.0
C1074 C 0.7838 0.33287 0.99768 0.0
C1075 C 0.76085 0.35325 0.99792 0.0
C1076 C 0.76704 0.38299 0.99534 0.0
H1077 H 0.60837 0.38199 0.23738 0.0
H1078 H 0.51889 0.35782 0.22599 0.0
H1079 H 0.52917 0.30839 0.23621 0.0
H1080 H 0.63782 0.31793 0.21924 0.0
H1081 H 0.66726 0.31531 0.23531 0.0
H1082 H 0.65213 0.3502 0.22977 0.0
H1083 H 0.64219 0.35962 0.2635 0.0
H1084 H 0.65719 0.32464 0.26915 0.0
H1085 H 0.62102 0.33389 0.27603 0.0
H1086 H 0.54923 0.26067 0.24532 0.0
H1087 H 0.57875 0.21698 0.25061 0.0
H1088 H 0.65623 0.2702 0.25403 0.0
C1089 C 0.59079 0.36648 0.23707 0.0
C1090 C 0.56256 0.37447 0.23112 0.0
C1091 C 0.54043 0.35304 0.23104 0.0
C1092 C 0.54609 0.32463 0.23672 0.0
C1093 C 0.57408 0.31757 0.24228 0.0
C1094 C 0.59617 0.33776 0.24237 0.0
C1095 C 0.62493 0.32372 0.24734 0.0
C1096 C 0.64682 0.32698 0.232 0.0
C1097 C 0.63704 0.33622 0.26506 0.0
C1098 C 0.61559 0.2924 0.24962 0.0
C1099 C 0.58605 0.28952 0.24695 0.0
C1100 C 0.57235 0.26265 0.24758 0.0
C1101 C 0.58935 0.23793 0.2506 0.0
C1102 C 0.61981 0.24013 0.25279 0.0
C1103 C 0.63297 0.26784 0.25263 0.0
H1104 H 0.10063 0.89507 0.37209 0.0
H1105 H 0.10115 0.98279 0.39318 0.0
H1106 H 0.12095 0.96483 0.42203 0.0
H1107 H 0.07819 0.86064 0.40891 0.0
H1108 H 0.10134 0.82901 0.40923 0.0
H1109 H 0.09254 0.84674 0.38829 0.0
H1110 H 0.14506 0.85636 0.38018 0.0
H1111 H 0.15594 0.836 0.39984 0.0
H1112 H 0.16942 0.87228 0.39653 0.0
H1113 H 0.13647 0.93781 0.44897 0.0
H1114 H 0.14992 0.90295 0.47273 0.0
H1115 H 0.14033 0.83188 0.43492 0.0
C1116 C 0.1056 0.91046 0.38268 0.0
C1117 C 0.09963 0.94033 0.38043 0.0
C1118 C 0.10605 0.95992 0.39457 0.0
C1119 C 0.11717 0.94991 0.41102 0.0
C1120 C 0.12227 0.92032 0.41297 0.0
C1121 C 0.11738 0.90089 0.39911 0.0
C1122 C 0.12412 0.87009 0.40508 0.0
C1123 C 0.09747 0.85042 0.40278 0.0
C1124 C 0.15019 0.85797 0.3948 0.0
C1125 C 0.13186 0.87515 0.42475 0.0
C1126 C 0.13108 0.90442 0.42881 0.0
C1127 C 0.13731 0.91487 0.44597 0.0
C1128 C 0.14467 0.89492 0.45938 0.0
C1129 C 0.1454 0.86486 0.45567 0.0
C1130 C 0.13943 0.85479 0.43807 0.0
H1131 H 0.09644 0.60749 0.62257 0.0
H1132 H 0.01399 0.59227 0.64865 0.0
H1133 H 0.03353 0.61288 0.67664 0.0
H1134 H 0.13781 0.58487 0.65666 0.0
H1135 H 0.1671 0.6109 0.657 0.0
H1136 H 0.14797 0.60291 0.63633 0.0
H1137 H 0.13148 0.65444 0.63036 0.0
H1138 H 0.1534 0.66569 0.64935 0.0
H1139 H 0.11562 0.67555 0.64812 0.0
H1140 H 0.06141 0.63259 0.702 0.0
H1141 H 0.0979 0.64718 0.72458 0.0
H1142 H 0.16445 0.64636 0.68386 0.0
C1143 C 0.08234 0.60894 0.63407 0.0
C1144 C 0.05339 0.59868 0.63317 0.0
C1145 C 0.03586 0.60075 0.64867 0.0
C1146 C 0.04681 0.61232 0.66473 0.0
C1147 C 0.07538 0.62185 0.6652 0.0
C1148 C 0.09297 0.62049 0.65033 0.0
C1149 C 0.12366 0.63001 0.6551 0.0
C1150 C 0.14549 0.60576 0.65108 0.0
C1151 C 0.1315 0.65809 0.64514 0.0
C1152 C 0.12076 0.63548 0.67517 0.0
C1153 C 0.0924 0.63145 0.68045 0.0
C1154 C 0.08371 0.63567 0.69809 0.0
C1155 C 0.10463 0.64372 0.71083 0.0
C1156 C 0.13402 0.64684 0.70603 0.0
C1157 C 0.14217 0.64346 0.68787 0.0
H1158 H 0.42063 0.62315 0.88043 0.0
H1159 H 0.36504 0.54878 0.8699 0.0
H1160 H 0.33239 0.56495 0.89362 0.0
H1161 H 0.4194 0.61562 0.92607 0.0
H1162 H 0.42026 0.65377 0.93136 0.0
H1163 H 0.43526 0.64106 0.91061 0.0
H1164 H 0.4018 0.67627 0.89282 0.0
H1165 H 0.38656 0.689 0.91362 0.0
H1166 H 0.36318 0.67495 0.89609 0.0
H1167 H 0.31103 0.58266 0.92174 0.0
H1168 H 0.30385 0.59968 0.95284 0.0
H1169 H 0.37369 0.66147 0.94678 0.0
C1170 C 0.40139 0.6104 0.88284 0.0
C1171 C 0.39558 0.58467 0.87298 0.0
C1172 C 0.3699 0.56896 0.87671 0.0
C1173 C 0.35112 0.57793 0.89031 0.0
C1174 C 0.35818 0.60266 0.90019 0.0
C1175 C 0.3827 0.61872 0.89664 0.0
C1176 C 0.38769 0.64177 0.91094 0.0
C1177 C 0.41739 0.63779 0.92029 0.0
C1178 C 0.38462 0.67231 0.90288 0.0
C1179 C 0.36299 0.63512 0.92357 0.0
C1180 C 0.34581 0.61293 0.91684 0.0
C1181 C 0.32377 0.60056 0.92693 0.0
C1182 C 0.31983 0.61035 0.94456 0.0
C1183 C 0.33776 0.63231 0.95191 0.0
C1184 C 0.35899 0.64549 0.94113 0.0
H1185 H 0.41482 0.94475 0.14395 0.0
H1186 H 0.38527 0.87925 0.10619 0.0
H1187 H 0.36113 0.85301 0.13112 0.0
H1188 H 0.43275 0.89659 0.17878 0.0
H1189 H 0.42198 0.92085 0.19651 0.0
H1190 H 0.43402 0.93529 0.1754 0.0
H1191 H 0.38593 0.96405 0.17207 0.0
H1192 H 0.37368 0.94952 0.19316 0.0
H1193 H 0.35187 0.94502 0.17308 0.0
H1194 H 0.34108 0.83368 0.16114 0.0
H1195 H 0.33227 0.82066 0.19309 0.0
H1196 H 0.37782 0.89826 0.21012 0.0
C1197 C 0.40278 0.92518 0.14085 0.0
C1198 C 0.40141 0.91422 0.12316 0.0
C1199 C 0.38633 0.88803 0.11969 0.0
C1200 C 0.37246 0.87315 0.13373 0.0
C1201 C 0.37419 0.88468 0.1511 0.0
C1202 C 0.38928 0.91 0.15464 0.0
C1203 C 0.39019 0.91688 0.17449 0.0
C1204 C 0.42159 0.91741 0.18171 0.0
C1205 C 0.37448 0.94557 0.17842 0.0
C1206 C 0.37361 0.89129 0.18171 0.0
C1207 C 0.36397 0.87314 0.1681 0.0
C1208 C 0.34849 0.84783 0.17186 0.0
C1209 C 0.34343 0.84067 0.18999 0.0
C1210 C 0.35439 0.85848 0.204 0.0
C1211 C 0.36918 0.88425 0.19969 0.0
H1212 H 0.09982 0.55164 0.86294 0.0
H1213 H 0.10215 0.63047 0.89486 0.0
H1214 H 0.12425 0.65651 0.8693 0.0
H1215 H 0.16895 0.56303 0.84036 0.0
H1216 H 0.15549 0.54735 0.81968 0.0
H1217 H 0.14157 0.53517 0.84092 0.0
H1218 H 0.08931 0.547 0.82997 0.0
H1219 H 0.10305 0.55939 0.80878 0.0
H1220 H 0.08093 0.58309 0.82216 0.0
H1221 H 0.14344 0.67442 0.83865 0.0
H1222 H 0.15789 0.68159 0.80688 0.0
H1223 H 0.14412 0.58976 0.79696 0.0
C1224 C 0.10569 0.57415 0.8649 0.0
C1225 C 0.09938 0.58884 0.88106 0.0
C1226 C 0.10657 0.61868 0.8826 0.0
C1227 C 0.11931 0.63363 0.86818 0.0
C1228 C 0.12494 0.6184 0.85237 0.0
C1229 C 0.11852 0.58922 0.85081 0.0
C1230 C 0.12546 0.57774 0.83234 0.0
C1231 C 0.14929 0.55445 0.83339 0.0
C1232 C 0.09806 0.56614 0.82276 0.0
C1233 C 0.13634 0.60509 0.82356 0.0
C1234 C 0.13607 0.62842 0.83521 0.0
C1235 C 0.14403 0.65617 0.82951 0.0
C1236 C 0.15222 0.66005 0.81145 0.0
C1237 C 0.15228 0.63629 0.79933 0.0
C1238 C 0.14455 0.60851 0.80573 0.0
H1239 H 0.41769 0.60786 0.12807 0.0
H1240 H 0.4973 0.58523 0.10068 0.0
H1241 H 0.47668 0.60327 0.07225 0.0
H1242 H 0.37083 0.58478 0.09532 0.0
H1243 H 0.34436 0.61354 0.09572 0.0
H1244 H 0.36499 0.60471 0.11569 0.0
H1245 H 0.38533 0.65572 0.11932 0.0
H1246 H 0.36311 0.66702 0.10048 0.0
H1247 H 0.40159 0.67375 0.10044 0.0
H1248 H 0.44821 0.62241 0.04682 0.0
H1249 H 0.41134 0.6384 0.02479 0.0
H1250 H 0.34803 0.64558 0.06722 0.0
C1251 C 0.43089 0.60699 0.11613 0.0
C1252 C 0.45939 0.59552 0.11677 0.0
C1253 C 0.47581 0.59466 0.10077 0.0
C1254 C 0.46423 0.60471 0.08447 0.0
C1255 C 0.43615 0.61564 0.0843 0.0
C1256 C 0.41962 0.61698 0.09964 0.0
C1257 C 0.38943 0.62846 0.09534 0.0
C1258 C 0.366 0.60658 0.10081 0.0
C1259 C 0.38459 0.65799 0.10444 0.0
C1260 C 0.39126 0.63181 0.07504 0.0
C1261 C 0.41878 0.62509 0.06916 0.0
C1262 C 0.42649 0.6274 0.0512 0.0
C1263 C 0.40536 0.63624 0.03878 0.0
C1264 C 0.37666 0.64187 0.04424 0.0
C1265 C 0.36967 0.64051 0.06269 0.0
H1266 H 0.40296 0.8825 0.38139 0.0
H1267 H 0.39753 0.97198 0.36367 0.0
H1268 H 0.37551 0.95607 0.33498 0.0
H1269 H 0.4233 0.85288 0.34343 0.0
H1270 H 0.40147 0.82037 0.34192 0.0
H1271 H 0.41046 0.83586 0.3635 0.0
H1272 H 0.35847 0.84295 0.37318 0.0
H1273 H 0.34715 0.82403 0.35306 0.0
H1274 H 0.3325 0.85935 0.35802 0.0
H1275 H 0.359 0.93116 0.30756 0.0
H1276 H 0.34608 0.8982 0.28269 0.0
H1277 H 0.36128 0.82393 0.31732 0.0
C1278 C 0.39635 0.89868 0.37162 0.0
C1279 C 0.40166 0.92848 0.37475 0.0
C1280 C 0.39316 0.94912 0.36163 0.0
C1281 C 0.38073 0.94029 0.34529 0.0
C1282 C 0.37638 0.91078 0.34242 0.0
C1283 C 0.3832 0.89026 0.35533 0.0
C1284 C 0.37725 0.85983 0.34836 0.0
C1285 C 0.40474 0.84108 0.34931 0.0
C1286 C 0.35236 0.84571 0.35877 0.0
C1287 C 0.368 0.86646 0.3291 0.0
C1288 C 0.3671 0.89609 0.32622 0.0
C1289 C 0.3594 0.90794 0.30966 0.0
C1290 C 0.35234 0.88907 0.29559 0.0
C1291 C 0.35336 0.85868 0.29806 0.0
C1292 C 0.36075 0.84713 0.31511 0.0
H1293 H 0.09203 0.94804 0.60868 0.0
H1294 H 0.10851 0.87765 0.64607 0.0
H1295 H 0.13066 0.84903 0.62149 0.0
H1296 H 0.0705 0.90512 0.57258 0.0
H1297 H 0.08659 0.92785 0.55568 0.0
H1298 H 0.0752 0.9434 0.57662 0.0
H1299 H 0.12695 0.96379 0.58208 0.0
H1300 H 0.1385 0.94823 0.56111 0.0
H1301 H 0.15756 0.93951 0.5817 0.0
H1302 H 0.14918 0.82749 0.59173 0.0
H1303 H 0.15795 0.81413 0.55979 0.0
H1304 H 0.12753 0.89883 0.54302 0.0
C1305 C 0.10096 0.9269 0.61185 0.0
C1306 C 0.09899 0.91522 0.62933 0.0
C1307 C 0.10994 0.88702 0.63276 0.0
C1308 C 0.1227 0.87073 0.61891 0.0
C1309 C 0.1242 0.88297 0.60177 0.0
C1310 C 0.11346 0.91043 0.59826 0.0
C1311 C 0.11537 0.91805 0.57857 0.0
C1312 C 0.08512 0.92393 0.57039 0.0
C1313 C 0.13582 0.94393 0.5757 0.0
C1314 C 0.12824 0.89037 0.57136 0.0
C1315 C 0.13379 0.87048 0.58488 0.0
C1316 C 0.14506 0.84302 0.58109 0.0
C1317 C 0.15009 0.83564 0.56299 0.0
C1318 C 0.14329 0.85549 0.54907 0.0
C1319 C 0.13278 0.88324 0.55341 0.0
H1320 H 0.58989 0.39795 0.8793 0.0
H1321 H 0.62058 0.48362 0.89542 0.0
H1322 H 0.63996 0.46306 0.92323 0.0
H1323 H 0.57093 0.36932 0.91751 0.0
H1324 H 0.58766 0.33386 0.91657 0.0
H1325 H 0.57802 0.3527 0.89618 0.0
H1326 H 0.62936 0.35155 0.88405 0.0
H1327 H 0.63999 0.33004 0.90328 0.0
H1328 H 0.65933 0.3629 0.89812 0.0
H1329 H 0.64943 0.43543 0.95103 0.0
H1330 H 0.65986 0.39963 0.97482 0.0
H1331 H 0.63155 0.33014 0.93943 0.0
C1332 C 0.60131 0.41257 0.88824 0.0
C1333 C 0.60175 0.44304 0.88527 0.0
C1334 C 0.61762 0.46066 0.89763 0.0
C1335 C 0.62936 0.4491 0.91348 0.0
C1336 C 0.62684 0.4195 0.9164 0.0
C1337 C 0.61475 0.40117 0.90374 0.0
C1338 C 0.61656 0.36982 0.90999 0.0
C1339 C 0.5865 0.35557 0.91012 0.0
C1340 C 0.63756 0.35256 0.89816 0.0
C1341 C 0.62906 0.37389 0.92884 0.0
C1342 C 0.63496 0.40284 0.93207 0.0
C1343 C 0.64557 0.41262 0.94857 0.0
C1344 C 0.65116 0.3922 0.96203 0.0
C1345 C 0.64629 0.36235 0.95892 0.0
C1346 C 0.63528 0.35293 0.94208 0.0
H1347 H 0.60337 0.09811 0.12418 0.0
H1348 H 0.52072 0.07758 0.14838 0.0
H1349 H 0.53931 0.09413 0.17782 0.0
H1350 H 0.64672 0.07487 0.15884 0.0
H1351 H 0.67365 0.1033 0.15943 0.0
H1352 H 0.6551 0.09444 0.13868 0.0
H1353 H 0.63521 0.1454 0.13384 0.0
H1354 H 0.65579 0.157 0.1533 0.0
H1355 H 0.61738 0.16395 0.15196 0.0
H1356 H 0.56655 0.1104 0.20454 0.0
H1357 H 0.60087 0.12819 0.22757 0.0
H1358 H 0.66678 0.13902 0.18698 0.0
C1359 C 0.58915 0.09755 0.13566 0.0
C1360 C 0.56051 0.08682 0.134 0.0
C1361 C 0.54252 0.08619 0.1493 0.0
C1362 C 0.55293 0.09538 0.16609 0.0
C1363 C 0.58128 0.10551 0.16734 0.0
C1364 C 0.59906 0.10718 0.15256 0.0
C1365 C 0.62879 0.11873 0.15785 0.0
C1366 C 0.65252 0.09654 0.15347 0.0
C1367 C 0.63463 0.14801 0.14869 0.0
C1368 C 0.62511 0.12244 0.17801 0.0
C1369 C 0.59739 0.11478 0.18306 0.0
C1370 C 0.58832 0.11645 0.20079 0.0
C1371 C 0.60802 0.12637 0.21378 0.0
C1372 C 0.63658 0.13419 0.20907 0.0
C1373 C 0.64518 0.13264 0.19091 0.0
H1374 H 0.93029 0.12032 0.38623 0.0
H1375 H 0.87812 0.04385 0.37467 0.0
H1376 H 0.84703 0.05541 0.40014 0.0
H1377 H 0.93167 0.11026 0.43263 0.0
H1378 H 0.93004 0.14815 0.4385 0.0
H1379 H 0.94543 0.13728 0.41742 0.0
H1380 H 0.90936 0.17076 0.40037 0.0
H1381 H 0.89383 0.18175 0.42145 0.0
H1382 H 0.871 0.16676 0.40395 0.0
H1383 H 0.82562 0.0704 0.42874 0.0
H1384 H 0.81525 0.08815 0.45924 0.0
H1385 H 0.88119 0.15448 0.45374 0.0
C1386 C 0.91213 0.10616 0.38887 0.0
C1387 C 0.90662 0.08134 0.37806 0.0
C1388 C 0.88252 0.0635 0.38218 0.0
C1389 C 0.86472 0.06976 0.39678 0.0
C1390 C 0.87116 0.09391 0.4073 0.0
C1391 C 0.89422 0.11192 0.40358 0.0
C1392 C 0.89799 0.13478 0.41815 0.0
C1393 C 0.92806 0.13246 0.42721 0.0
C1394 C 0.89273 0.16533 0.41052 0.0
C1395 C 0.87409 0.12606 0.43093 0.0
C1396 C 0.85869 0.10265 0.4242 0.0
C1397 C 0.83714 0.08903 0.43403 0.0
C1398 C 0.83149 0.09919 0.45136 0.0
C1399 C 0.84724 0.1228 0.45872 0.0
C1400 C 0.86839 0.13684 0.44823 0.0
H1401 H 0.93528 0.37831 0.63093 0.0
H1402 H 0.86433 0.43611 0.61679 0.0
H1403 H 0.83509 0.41494 0.64101 0.0
H1404 H 0.89119 0.31586 0.64733 0.0
H1405 H 0.91646 0.30895 0.6655 0.0
H1406 H 0.92915 0.32368 0.64455 0.0
H1407 H 0.95236 0.36696 0.66172 0.0
H1408 H 0.93983 0.35237 0.68263 0.0
H1409 H 0.93011 0.38882 0.67619 0.0
H1410 H 0.81616 0.39256 0.66972 0.0
H1411 H 0.81119 0.37362 0.70077 0.0
H1412 H 0.8958 0.33348 0.69696 0.0
C1413 C 0.91343 0.38628 0.63268 0.0
C1414 C 0.90222 0.40888 0.6218 0.0
C1415 C 0.87337 0.41841 0.6246 0.0
C1416 C 0.85654 0.40656 0.63842 0.0
C1417 C 0.86877 0.38512 0.64934 0.0
C1418 C 0.89659 0.37506 0.64656 0.0
C1419 C 0.90632 0.35488 0.66148 0.0
C1420 C 0.91105 0.32401 0.65428 0.0
C1421 C 0.93375 0.36647 0.67107 0.0
C1422 C 0.88019 0.3562 0.67355 0.0
C1423 C 0.85835 0.37305 0.66613 0.0
C1424 C 0.83293 0.37893 0.67551 0.0
C1425 C 0.83021 0.36803 0.6931 0.0
C1426 C 0.85307 0.35206 0.70116 0.0
C1427 C 0.87791 0.34547 0.69103 0.0
H1428 H 0.56709 0.10068 0.36678 0.0
H1429 H 0.63954 0.05038 0.38743 0.0
H1430 H 0.67116 0.07174 0.36433 0.0
H1431 H 0.58179 0.09042 0.32204 0.0
H1432 H 0.57091 0.12601 0.31456 0.0
H1433 H 0.5554 0.11082 0.33452 0.0
H1434 H 0.57203 0.15585 0.35279 0.0
H1435 H 0.58772 0.17117 0.33281 0.0
H1436 H 0.60968 0.16627 0.35279 0.0
H1437 H 0.69261 0.09219 0.33664 0.0
H1438 H 0.70215 0.10963 0.30582 0.0
H1439 H 0.61657 0.14793 0.30316 0.0
C1440 C 0.58985 0.09494 0.36678 0.0
C1441 C 0.601 0.07408 0.37896 0.0
C1442 C 0.63063 0.06632 0.37821 0.0
C1443 C 0.64877 0.07851 0.36523 0.0
C1444 C 0.63698 0.09853 0.35315 0.0
C1445 C 0.60821 0.1068 0.35383 0.0
C1446 C 0.60014 0.12613 0.33805 0.0
C1447 C 0.57563 0.11252 0.32662 0.0
C1448 C 0.59191 0.15667 0.3445 0.0
C1449 C 0.62853 0.12651 0.328 0.0
C1450 C 0.64963 0.11081 0.33712 0.0
C1451 C 0.6766 0.10523 0.32961 0.0
C1452 C 0.68187 0.11522 0.31216 0.0
C1453 C 0.66039 0.1308 0.3025 0.0
C1454 C 0.6337 0.13714 0.31066 0.0
H1455 H 0.95388 0.10039 0.60938 0.0
H1456 H 0.88415 0.09696 0.64814 0.0
H1457 H 0.85054 0.11689 0.62535 0.0
H1458 H 0.92541 0.17091 0.58735 0.0
H1459 H 0.93903 0.15901 0.56594 0.0
H1460 H 0.95797 0.14942 0.58645 0.0
H1461 H 0.95591 0.09776 0.57577 0.0
H1462 H 0.93194 0.1031 0.5568 0.0
H1463 H 0.92206 0.07897 0.57495 0.0
H1464 H 0.8238 0.13511 0.59772 0.0
H1465 H 0.80626 0.14887 0.5672 0.0
H1466 H 0.89291 0.13762 0.54656 0.0
C1467 C 0.93189 0.10481 0.61345 0.0
C1468 C 0.92181 0.09656 0.63062 0.0
C1469 C 0.89246 0.10223 0.63498 0.0
C1470 C 0.87319 0.11398 0.62219 0.0
C1471 C 0.88369 0.12078 0.60522 0.0
C1472 C 0.91254 0.11716 0.601 0.0
C1473 C 0.91806 0.12478 0.58151 0.0
C1474 C 0.93618 0.15269 0.58024 0.0
C1475 C 0.9328 0.09968 0.57159 0.0
C1476 C 0.8873 0.13015 0.57497 0.0
C1477 C 0.868 0.12927 0.58905 0.0
C1478 C 0.83867 0.13566 0.58657 0.0
C1479 C 0.82887 0.14331 0.56926 0.0
C1480 C 0.84808 0.14314 0.5546 0.0
C1481 C 0.87765 0.13671 0.55752 0.0
H1482 H 0.91441 0.39982 0.87591 0.0
H1483 H 0.88719 0.48661 0.85962 0.0
H1484 H 0.86859 0.46688 0.8314 0.0
H1485 H 0.93462 0.37216 0.83804 0.0
H1486 H 0.91746 0.33681 0.83807 0.0
H1487 H 0.92632 0.35468 0.85893 0.0
H1488 H 0.87465 0.35455 0.87035 0.0
H1489 H 0.86442 0.3334 0.85089 0.0
H1490 H 0.84537 0.36651 0.85592 0.0
H1491 H 0.8595 0.43956 0.80327 0.0
H1492 H 0.84899 0.4041 0.77927 0.0
H1493 H 0.87349 0.33374 0.81505 0.0
C1494 C 0.90389 0.41494 0.86689 0.0
C1495 C 0.90428 0.44539 0.87003 0.0
C1496 C 0.88959 0.46359 0.85742 0.0
C1497 C 0.87826 0.45252 0.8413 0.0
C1498 C 0.87996 0.42286 0.83831 0.0
C1499 C 0.89085 0.4041 0.85112 0.0
C1500 C 0.88867 0.37288 0.8447 0.0
C1501 C 0.91855 0.35822 0.84489 0.0
C1502 C 0.86698 0.35583 0.85614 0.0
C1503 C 0.87697 0.37739 0.8257 0.0
C1504 C 0.87209 0.40652 0.82243 0.0
C1505 C 0.86253 0.41663 0.80577 0.0
C1506 C 0.85688 0.39639 0.7922 0.0
C1507 C 0.86056 0.36638 0.79537 0.0
C1508 C 0.8706 0.35664 0.81236 0.0
H1509 H 0.6127 0.44642 0.11302 0.0
H1510 H 0.60936 0.37038 0.14724 0.0
H1511 H 0.63203 0.34122 0.12313 0.0
H1512 H 0.59233 0.41188 0.07374 0.0
H1513 H 0.61516 0.43311 0.05929 0.0
H1514 H 0.60258 0.44825 0.08006 0.0
H1515 H 0.65567 0.45861 0.08992 0.0
H1516 H 0.66843 0.44332 0.06914 0.0
H1517 H 0.68165 0.4294 0.09036 0.0
H1518 H 0.65115 0.31967 0.09388 0.0
H1519 H 0.6607 0.30751 0.06192 0.0
H1520 H 0.65108 0.39799 0.04765 0.0
C1521 C 0.61753 0.42383 0.11569 0.0
C1522 C 0.60969 0.41076 0.1321 0.0
C1523 C 0.61531 0.38085 0.13477 0.0
C1524 C 0.62837 0.3642 0.12121 0.0
C1525 C 0.63567 0.37782 0.10511 0.0
C1526 C 0.63032 0.407 0.10234 0.0
C1527 C 0.63731 0.41607 0.08334 0.0
C1528 C 0.61024 0.42801 0.07354 0.0
C1529 C 0.66225 0.43815 0.08319 0.0
C1530 C 0.64667 0.38729 0.07561 0.0
C1531 C 0.64617 0.3655 0.08839 0.0
C1532 C 0.65209 0.33668 0.08388 0.0
C1533 C 0.65769 0.32996 0.06577 0.0
C1534 C 0.65697 0.35194 0.05252 0.0
C1535 C 0.65215 0.38092 0.05762 0.0
loop_
_geom_bond_atom_site_label_1
_geom_bond_atom_site_label_2
_geom_bond_distance
_geom_bond_site_symmetry_2
_ccdc_geom_bond_type
H0 C19 0.949 . S
H1 C20 0.950 . S
H2 C22 0.950 . S
H3 C23 0.950 . S
H4 C25 0.950 . S
H5 C28 0.950 . S
H6 C29 0.950 . S
H7 C31 0.951 . S
H8 C32 0.949 1_565 S
H9 C34 0.949 . S
H10 C35 0.950 . S
H11 C37 0.950 . S
H12 C38 0.950 . S
H13 C40 0.950 1_655 S
H14 C43 0.950 . S
H15 C44 0.950 . S
H16 C46 0.951 . S
H17 C47 0.949 1_545 S
C18 C19 1.376 . S
C18 C23 1.386 . S
C18 C24 1.483 . S
C19 H0 0.949 . S
C19 C18 1.376 . S
C19 C20 1.397 . S
C20 H1 0.950 . S
C20 C19 1.397 . S
C20 C21 1.391 . S
C21 C20 1.391 . S
C21 C22 1.405 . S
C22 H2 0.950 . S
C22 C21 1.405 . S
C22 C23 1.367 . S
C23 H3 0.950 . S
C23 C18 1.386 . S
C23 C22 1.367 . S
C24 C18 1.483 . S
C24 C25 1.382 1_655 S
C24 C26 1.403 . S
C25 H4 0.950 . S
C25 C24 1.382 1_455 S
C25 C41 1.411 1_545 S
C26 C24 1.403 . S
C26 C27 1.489 . S
C26 C40 1.411 1_645 S
C27 C26 1.489 . S
C27 C28 1.383 . S
C27 C32 1.382 . S
C28 H5 0.950 . S
C28 C27 1.383 . S
C28 C29 1.395 . S
C29 H6 0.950 . S
C29 C28 1.395 . S
C29 C30 1.288 . S
C30 C29 1.288 . S
C30 C31 1.392 . S
C31 H7 0.951 . S
C31 C30 1.392 . S
C31 C32 1.392 . S
C32 H8 0.949 1_545 S
C32 C27 1.382 . S
C32 C31 1.392 . S
C33 C34 1.376 . S
C33 C38 1.386 . S
C33 C39 1.483 . S
C34 H9 0.949 . S
C34 C33 1.376 . S
C34 C35 1.397 . S
C35 H10 0.950 . S
C35 C34 1.397 . S
C35 C36 1.391 . S
C36 C35 1.391 . S
C36 C37 1.405 . S
C37 H11 0.950 . S
C37 C36 1.405 . S
C37 C38 1.367 . S
C38 H12 0.950 . S
C38 C33 1.386 . S
C38 C37 1.367 . S
C39 C33 1.483 . S
C39 C40 1.382 . S
C39 C41 1.403 . S
C40 H13 0.950 1_455 S
C40 C26 1.411 1_465 S
C40 C39 1.382 . S
C41 C25 1.411 1_565 S
C41 C39 1.403 . S
C41 C42 1.489 . S
C42 C41 1.489 . S
C42 C43 1.383 . S
C42 C47 1.382 . S
C43 H14 0.950 . S
C43 C42 1.383 . S
C43 C44 1.395 . S
C44 H15 0.950 . S
C44 C43 1.395 . S
C44 C45 1.288 . S
C45 C44 1.288 . S
C45 C46 1.392 . S
C46 H16 0.951 . S
C46 C45 1.392 . S
C46 C47 1.392 . S
C47 H17 0.949 1_565 S
C47 C42 1.382 . S
C47 C46 1.392 . S
H48 C67 0.949 1_455 S
H49 C68 0.950 . S
H50 C70 0.950 . S
H51 C71 0.950 . S
H52 C73 0.950 . S
H53 C76 0.950 . S
H54 C77 0.950 . S
H55 C79 0.951 . S
H56 C80 0.949 . S
H57 C82 0.949 1_655 S
H58 C83 0.950 . S
H59 C85 0.950 . S
H60 C86 0.950 . S
H61 C88 0.950 . S
H62 C91 0.950 . S
H63 C92 0.950 . S
H64 C94 0.951 . S
H65 C95 0.949 . S
C66 C67 1.376 . S
C66 C71 1.386 . S
C66 C72 1.483 . S
C67 H48 0.949 1_655 S
C67 C66 1.376 . S
C67 C68 1.397 . S
C68 H49 0.950 . S
C68 C67 1.397 . S
C68 C69 1.391 . S
C69 C68 1.391 . S
C69 C70 1.405 . S
C70 H50 0.950 . S
C70 C69 1.405 . S
C70 C71 1.367 . S
C71 H51 0.950 . S
C71 C66 1.386 . S
C71 C70 1.367 . S
C72 C66 1.483 . S
C72 C73 1.382 1_655 S
C72 C74 1.403 . S
C73 H52 0.950 . S
C73 C72 1.382 1_455 S
C73 C89 1.411 . S
C74 C72 1.403 . S
C74 C75 1.489 . S
C74 C88 1.411 . S
C75 C74 1.489 . S
C75 C76 1.383 . S
C75 C80 1.382 . S
C76 H53 0.950 . S
C76 C75 1.383 . S
C76 C77 1.395 . S
C77 H54 0.950 . S
C77 C76 1.395 . S
C77 C78 1.288 . S
C78 C77 1.288 . S
C78 C79 1.392 . S
C79 H55 0.951 . S
C79 C78 1.392 . S
C79 C80 1.392 . S
C80 H56 0.949 . S
C80 C75 1.382 . S
C80 C79 1.392 . S
C81 C82 1.376 . S
C81 C86 1.386 . S
C81 C87 1.483 . S
C82 H57 0.949 1_455 S
C82 C81 1.376 . S
C82 C83 1.397 . S
C83 H58 0.950 . S
C83 C82 1.397 . S
C83 C84 1.391 . S
C84 C83 1.391 . S
C84 C85 1.405 . S
C85 H59 0.950 . S
C85 C84 1.405 . S
C85 C86 1.367 . S
C86 H60 0.950 . S
C86 C81 1.386 . S
C86 C85 1.367 . S
C87 C81 1.483 . S
C87 C88 1.382 1_455 S
C87 C89 1.403 . S
C88 H61 0.950 . S
C88 C74 1.411 . S
C88 C87 1.382 1_655 S
C89 C73 1.411 . S
C89 C87 1.403 . S
C89 C90 1.489 . S
C90 C89 1.489 . S
C90 C91 1.383 . S
C90 C95 1.382 . S
C91 H62 0.950 . S
C91 C90 1.383 . S
C91 C92 1.395 . S
C92 H63 0.950 . S
C92 C91 1.395 . S
C92 C93 1.288 . S
C93 C92 1.288 . S
C93 C94 1.392 . S
C94 H64 0.951 . S
C94 C93 1.392 . S
C94 C95 1.392 . S
C95 H65 0.949 . S
C95 C90 1.382 . S
C95 C94 1.392 . S
H96 C115 0.949 . S
H97 C116 0.950 . S
H98 C118 0.950 . S
H99 C119 0.950 . S
H100 C121 0.950 . S
H101 C124 0.950 . S
H102 C125 0.950 . S
H103 C127 0.951 . S
H104 C128 0.949 . S
H105 C130 0.949 . S
H106 C131 0.950 . S
H107 C133 0.950 . S
H108 C134 0.950 . S
H109 C136 0.950 . S
H110 C139 0.950 . S
H111 C140 0.950 . S
H112 C142 0.951 . S
H113 C143 0.949 . S
C114 C115 1.376 . S
C114 C119 1.386 . S
C114 C120 1.483 . S
C115 H96 0.949 . S
C115 C114 1.376 . S
C115 C116 1.397 . S
C116 H97 0.950 . S
C116 C115 1.397 . S
C116 C117 1.391 . S
C117 C116 1.391 . S
C117 C118 1.405 . S
C118 H98 0.950 . S
C118 C117 1.405 . S
C118 C119 1.367 . S
C119 H99 0.950 . S
C119 C114 1.386 . S
C119 C118 1.367 . S
C120 C114 1.483 . S
C120 C121 1.382 . S
C120 C122 1.403 . S
C121 H100 0.950 . S
C121 C120 1.382 . S
C121 C137 1.411 . S
C122 C120 1.403 . S
C122 C123 1.489 . S
C122 C136 1.411 . S
C123 C122 1.489 . S
C123 C124 1.383 . S
C123 C128 1.382 . S
C124 H101 0.950 . S
C124 C123 1.383 . S
C124 C125 1.395 . S
C125 H102 0.950 . S
C125 C124 1.395 . S
C125 C126 1.288 . S
C126 C125 1.288 . S
C126 C127 1.392 . S
C127 H103 0.951 . S
C127 C126 1.392 . S
C127 C128 1.392 . S
C128 H104 0.949 . S
C128 C123 1.382 . S
C128 C127 1.392 . S
C129 C130 1.376 . S
C129 C134 1.386 . S
C129 C135 1.483 . S
C130 H105 0.949 . S
C130 C129 1.376 . S
C130 C131 1.397 . S
C131 H106 0.950 . S
C131 C130 1.397 . S
C131 C132 1.391 . S
C132 C131 1.391 . S
C132 C133 1.405 . S
C133 H107 0.950 . S
C133 C132 1.405 . S
C133 C134 1.367 . S
C134 H108 0.950 . S
C134 C129 1.386 . S
C134 C133 1.367 . S
C135 C129 1.483 . S
C135 C136 1.382 . S
C135 C137 1.403 . S
C136 H109 0.950 . S
C136 C122 1.411 . S
C136 C135 1.382 . S
C137 C121 1.411 . S
C137 C135 1.403 . S
C137 C138 1.489 . S
C138 C137 1.489 . S
C138 C139 1.383 . S
C138 C143 1.382 . S
C139 H110 0.950 . S
C139 C138 1.383 . S
C139 C140 1.395 . S
C140 H111 0.950 . S
C140 C139 1.395 . S
C140 C141 1.288 . S
C141 C140 1.288 . S
C141 C142 1.392 . S
C142 H112 0.951 . S
C142 C141 1.392 . S
C142 C143 1.392 . S
C143 H113 0.949 . S
C143 C138 1.382 . S
C143 C142 1.392 . S
H144 C163 0.949 . S
H145 C164 0.950 . S
H146 C166 0.950 . S
H147 C167 0.950 . S
H148 C169 0.950 1_565 S
H149 C172 0.950 . S
H150 C173 0.950 . S
H151 C175 0.951 . S
H152 C176 0.949 . S
H153 C178 0.949 . S
H154 C179 0.950 . S
H155 C181 0.950 . S
H156 C182 0.950 . S
H157 C184 0.950 . S
H158 C187 0.950 . S
H159 C188 0.950 . S
H160 C190 0.951 . S
H161 C191 0.949 . S
C162 C163 1.376 . S
C162 C167 1.386 . S
C162 C168 1.483 . S
C163 H144 0.949 . S
C163 C162 1.376 . S
C163 C164 1.397 . S
C164 H145 0.950 . S
C164 C163 1.397 . S
C164 C165 1.391 . S
C165 C164 1.391 . S
C165 C166 1.405 . S
C166 H146 0.950 . S
C166 C165 1.405 . S
C166 C167 1.367 . S
C167 H147 0.950 . S
C167 C162 1.386 . S
C167 C166 1.367 . S
C168 C162 1.483 . S
C168 C169 1.382 1_565 S
C168 C170 1.403 . S
C169 H148 0.950 1_545 S
C169 C168 1.382 1_545 S
C169 C185 1.411 . S
C170 C168 1.403 . S
C170 C171 1.489 . S
C170 C184 1.411 1_565 S
C171 C170 1.489 . S
C171 C172 1.383 . S
C171 C176 1.382 . S
C172 H149 0.950 . S
C172 C171 1.383 . S
C172 C173 1.395 . S
C173 H150 0.950 . S
C173 C172 1.395 . S
C173 C174 1.288 . S
C174 C173 1.288 . S
C174 C175 1.392 . S
C175 H151 0.951 . S
C175 C174 1.392 . S
C175 C176 1.392 . S
C176 H152 0.949 . S
C176 C171 1.382 . S
C176 C175 1.392 . S
C177 C178 1.376 . S
C177 C182 1.386 . S
C177 C183 1.483 . S
C178 H153 0.949 . S
C178 C177 1.376 . S
C178 C179 1.397 . S
C179 H154 0.950 . S
C179 C178 1.397 . S
C179 C180 1.391 . S
C180 C179 1.391 . S
C180 C181 1.405 . S
C181 H155 0.950 . S
C181 C180 1.405 . S
C181 C182 1.367 . S
C182 H156 0.950 . S
C182 C177 1.386 . S
C182 C181 1.367 . S
C183 C177 1.483 . S
C183 C184 1.382 . S
C183 C185 1.403 . S
C184 H157 0.950 . S
C184 C170 1.411 1_545 S
C184 C183 1.382 . S
C185 C169 1.411 . S
C185 C183 1.403 . S
C185 C186 1.489 . S
C186 C185 1.489 . S
C186 C187 1.383 . S
C186 C191 1.382 . S
C187 H158 0.950 . S
C187 C186 1.383 . S
C187 C188 1.395 . S
C188 H159 0.950 . S
C188 C187 1.395 . S
C188 C189 1.288 . S
C189 C188 1.288 . S
C189 C190 1.392 . S
C190 H160 0.951 . S
C190 C189 1.392 . S
C190 C191 1.392 . S
C191 H161 0.949 . S
C191 C186 1.382 . S
C191 C190 1.392 . S
H192 C211 0.949 . S
H193 C212 0.950 . S
H194 C214 0.950 . S
H195 C215 0.950 . S
H196 C217 0.952 . S
H197 C220 0.950 . S
H198 C221 0.950 . S
H199 C223 0.951 . S
H200 C224 0.949 . S
H201 C226 0.949 . S
H202 C227 0.950 . S
H203 C229 0.950 . S
H204 C230 0.950 . S
H205 C232 0.950 . S
H206 C235 0.950 . S
H207 C236 0.950 . S
H208 C238 0.951 . S
H209 C239 0.949 . S
C210 C211 1.376 . S
C210 C215 1.386 . S
C210 C216 1.483 . S
C211 H192 0.949 . S
C211 C210 1.376 . S
C211 C212 1.397 . S
C212 H193 0.950 . S
C212 C211 1.397 . S
C212 C213 1.391 . S
C213 C212 1.391 . S
C213 C214 1.405 . S
C214 H194 0.950 . S
C214 C213 1.405 . S
C214 C215 1.367 . S
C215 H195 0.950 . S
C215 C210 1.386 . S
C215 C214 1.367 . S
C216 C210 1.483 . S
C216 C217 1.365 1_455 S
C216 C218 1.403 . S
C217 H196 0.952 . S
C217 C216 1.365 1_655 S
C217 C233 1.426 . S
C218 C216 1.403 . S
C218 C219 1.489 . S
C218 C232 1.411 . S
C219 C218 1.489 . S
C219 C220 1.383 . S
C219 C224 1.382 . S
C220 H197 0.950 . S
C220 C219 1.383 . S
C220 C221 1.395 . S
C221 H198 0.950 . S
C221 C220 1.395 . S
C221 C222 1.288 . S
C222 C221 1.288 . S
C222 C223 1.392 . S
C223 H199 0.951 . S
C223 C222 1.392 . S
C223 C224 1.392 . S
C224 H200 0.949 . S
C224 C219 1.382 . S
C224 C223 1.392 . S
C225 C226 1.376 . S
C225 C230 1.386 . S
C225 C231 1.483 . S
C226 H201 0.949 . S
C226 C225 1.376 . S
C226 C227 1.397 . S
C227 H202 0.950 . S
C227 C226 1.397 . S
C227 C228 1.391 . S
C228 C227 1.391 . S
C228 C229 1.405 . S
C229 H203 0.950 . S
C229 C228 1.405 . S
C229 C230 1.367 . S
C230 H204 0.950 . S
C230 C225 1.386 . S
C230 C229 1.367 . S
C231 C225 1.483 . S
C231 C232 1.382 1_655 S
C231 C233 1.403 . S
C232 H205 0.950 . S
C232 C218 1.411 . S
C232 C231 1.382 1_455 S
C233 C217 1.426 . S
C233 C231 1.403 . S
C233 C234 1.489 . S
C234 C233 1.489 . S
C234 C235 1.383 . S
C234 C239 1.382 . S
C235 H206 0.950 . S
C235 C234 1.383 . S
C235 C236 1.395 . S
C236 H207 0.950 . S
C236 C235 1.395 . S
C236 C237 1.288 . S
C237 C236 1.288 . S
C237 C238 1.392 . S
C238 H208 0.951 . S
C238 C237 1.392 . S
C238 C239 1.392 . S
C239 H209 0.949 . S
C239 C234 1.382 . S
C239 C238 1.392 . S
H240 C259 0.949 . S
H241 C260 0.950 . S
H242 C262 0.950 . S
H243 C263 0.950 . S
H244 C265 0.950 . S
H245 C268 0.950 . S
H246 C269 0.950 . S
H247 C271 0.951 . S
H248 C272 0.949 . S
H249 C274 0.949 . S
H250 C275 0.950 . S
H251 C277 0.950 . S
H252 C278 0.950 . S
H253 C280 0.950 . S
H254 C283 0.950 . S
H255 C284 0.950 . S
H256 C286 0.951 . S
H257 C287 0.949 . S
C258 C259 1.376 . S
C258 C263 1.386 . S
C258 C264 1.483 . S
C259 H240 0.949 . S
C259 C258 1.376 . S
C259 C260 1.397 . S
C260 H241 0.950 . S
C260 C259 1.397 . S
C260 C261 1.391 . S
C261 C260 1.391 . S
C261 C262 1.405 . S
C262 H242 0.950 . S
C262 C261 1.405 . S
C262 C263 1.367 . S
C263 H243 0.950 . S
C263 C258 1.386 . S
C263 C262 1.367 . S
C264 C258 1.483 . S
C264 C265 1.382 . S
C264 C266 1.403 . S
C265 H244 0.950 . S
C265 C264 1.382 . S
C265 C281 1.411 . S
C266 C264 1.403 . S
C266 C267 1.489 . S
C266 C280 1.411 . S
C267 C266 1.489 . S
C267 C268 1.383 . S
C267 C272 1.382 . S
C268 H245 0.950 . S
C268 C267 1.383 . S
C268 C269 1.395 . S
C269 H246 0.950 . S
C269 C268 1.395 . S
C269 C270 1.288 . S
C270 C269 1.288 . S
C270 C271 1.392 . S
C271 H247 0.951 . S
C271 C270 1.392 . S
C271 C272 1.392 . S
C272 H248 0.949 . S
C272 C267 1.382 . S
C272 C271 1.392 . S
C273 C274 1.376 . S
C273 C278 1.386 . S
C273 C279 1.483 . S
C274 H249 0.949 . S
C274 C273 1.376 . S
C274 C275 1.397 . S
C275 H250 0.950 . S
C275 C274 1.397 . S
C275 C276 1.391 . S
C276 C275 1.391 . S
C276 C277 1.405 . S
C277 H251 0.950 . S
C277 C276 1.405 . S
C277 C278 1.367 . S
C278 H252 0.950 . S
C278 C273 1.386 . S
C278 C277 1.367 . S
C279 C273 1.483 . S
C279 C280 1.382 . S
C279 C281 1.403 . S
C280 H253 0.950 . S
C280 C266 1.411 . S
C280 C279 1.382 . S
C281 C265 1.411 . S
C281 C279 1.403 . S
C281 C282 1.489 . S
C282 C281 1.489 . S
C282 C283 1.383 . S
C282 C287 1.382 . S
C283 H254 0.950 . S
C283 C282 1.383 . S
C283 C284 1.395 . S
C284 H255 0.950 . S
C284 C283 1.395 . S
C284 C285 1.288 . S
C285 C284 1.288 . S
C285 C286 1.392 . S
C286 H256 0.951 . S
C286 C285 1.392 . S
C286 C287 1.392 . S
C287 H257 0.949 . S
C287 C282 1.382 . S
C287 C286 1.392 . S
H288 C307 0.949 . S
H289 C308 0.950 . S
H290 C310 0.950 . S
H291 C311 0.950 . S
H292 C313 0.950 . S
H293 C316 0.950 . S
H294 C317 0.950 . S
H295 C319 0.951 . S
H296 C320 0.949 1_545 S
H297 C322 0.949 . S
H298 C323 0.950 . S
H299 C325 0.950 . S
H300 C326 0.950 . S
H301 C328 0.950 . S
H302 C331 0.950 . S
H303 C332 0.950 . S
H304 C334 0.951 . S
H305 C335 0.949 1_565 S
C306 C307 1.376 . S
C306 C311 1.386 . S
C306 C312 1.483 . S
C307 H288 0.949 . S
C307 C306 1.376 . S
C307 C308 1.397 . S
C308 H289 0.950 . S
C308 C307 1.397 . S
C308 C309 1.391 . S
C309 C308 1.391 . S
C309 C310 1.405 . S
C310 H290 0.950 . S
C310 C309 1.405 . S
C310 C311 1.367 . S
C311 H291 0.950 . S
C311 C306 1.386 . S
C311 C310 1.367 . S
C312 C306 1.483 . S
C312 C313 1.382 . S
C312 C314 1.403 . S
C313 H292 0.950 . S
C313 C312 1.382 . S
C313 C329 1.411 1_565 S
C314 C312 1.403 . S
C314 C315 1.489 . S
C314 C328 1.411 1_565 S
C315 C314 1.489 . S
C315 C316 1.383 . S
C315 C320 1.382 . S
C316 H293 0.950 . S
C316 C315 1.383 . S
C316 C317 1.395 . S
C317 H294 0.950 . S
C317 C316 1.395 . S
C317 C318 1.288 . S
C318 C317 1.288 . S
C318 C319 1.392 . S
C319 H295 0.951 . S
C319 C318 1.392 . S
C319 C320 1.392 . S
C320 H296 0.949 1_565 S
C320 C315 1.382 . S
C320 C319 1.392 . S
C321 C322 1.376 . S
C321 C326 1.386 . S
C321 C327 1.483 . S
C322 H297 0.949 . S
C322 C321 1.376 . S
C322 C323 1.397 . S
C323 H298 0.950 . S
C323 C322 1.397 . S
C323 C324 1.391 . S
C324 C323 1.391 . S
C324 C325 1.405 . S
C325 H299 0.950 . S
C325 C324 1.405 . S
C325 C326 1.367 . S
C326 H300 0.950 . S
C326 C321 1.386 . S
C326 C325 1.367 . S
C327 C321 1.483 . S
C327 C328 1.382 . S
C327 C329 1.403 . S
C328 H301 0.950 . S
C328 C314 1.411 1_545 S
C328 C327 1.382 . S
C329 C313 1.411 1_545 S
C329 C327 1.403 . S
C329 C330 1.489 . S
C330 C329 1.489 . S
C330 C331 1.383 . S
C330 C335 1.382 . S
C331 H302 0.950 . S
C331 C330 1.383 . S
C331 C332 1.395 . S
C332 H303 0.950 . S
C332 C331 1.395 . S
C332 C333 1.288 . S
C333 C332 1.288 . S
C333 C334 1.392 . S
C334 H304 0.951 . S
C334 C333 1.392 . S
C334 C335 1.392 . S
C335 H305 0.949 1_545 S
C335 C330 1.382 . S
C335 C334 1.392 . S
H336 C355 0.949 1_455 S
H337 C356 0.950 . S
H338 C358 0.950 . S
H339 C359 0.950 . S
H340 C361 0.950 . S
H341 C364 0.950 . S
H342 C365 0.950 . S
H343 C367 0.951 . S
H344 C368 0.949 . S
H345 C370 0.974 . S
H346 C371 0.950 . S
H347 C373 0.950 . S
H348 C374 0.950 . S
H349 C376 0.948 1_665 S
H350 C379 0.950 . S
H351 C380 0.950 . S
H352 C382 0.951 . S
H353 C383 0.949 . S
C354 C355 1.376 . S
C354 C359 1.386 . S
C354 C360 1.483 . S
C355 H336 0.949 1_655 S
C355 C354 1.376 . S
C355 C356 1.397 . S
C356 H337 0.950 . S
C356 C355 1.397 . S
C356 C357 1.391 . S
C357 C356 1.391 . S
C357 C358 1.405 . S
C358 H338 0.950 . S
C358 C357 1.405 . S
C358 C359 1.367 . S
C359 H339 0.950 . S
C359 C354 1.386 . S
C359 C358 1.367 . S
C360 C354 1.483 . S
C360 C361 1.382 1_655 S
C360 C362 1.403 . S
C361 H340 0.950 . S
C361 C360 1.382 1_455 S
C361 C377 1.411 1_545 S
C362 C360 1.403 . S
C362 C363 1.489 . S
C362 C376 1.396 1_655 S
C363 C362 1.489 . S
C363 C364 1.383 . S
C363 C368 1.382 . S
C364 H341 0.950 . S
C364 C363 1.383 . S
C364 C365 1.395 . S
C365 H342 0.950 . S
C365 C364 1.395 . S
C365 C366 1.288 . S
C366 C365 1.288 . S
C366 C367 1.392 . S
C367 H343 0.951 . S
C367 C366 1.392 . S
C367 C368 1.392 . S
C368 H344 0.949 . S
C368 C363 1.382 . S
C368 C367 1.392 . S
C369 C370 1.376 . S
C369 C374 1.386 . S
C369 C375 1.483 . S
C370 H345 0.974 . S
C370 C369 1.376 . S
C370 C371 1.397 . S
C371 H346 0.950 . S
C371 C370 1.397 . S
C371 C372 1.391 . S
C372 C371 1.391 . S
C372 C373 1.405 . S
C373 H347 0.950 . S
C373 C372 1.405 . S
C373 C374 1.367 . S
C374 H348 0.950 . S
C374 C369 1.386 . S
C374 C373 1.367 . S
C375 C369 1.483 . S
C375 C376 1.400 1_565 S
C375 C377 1.403 . S
C376 H349 0.948 1_445 S
C376 C362 1.396 1_455 S
C376 C375 1.400 1_545 S
C377 C361 1.411 1_565 S
C377 C375 1.403 . S
C377 C378 1.489 . S
C378 C377 1.489 . S
C378 C379 1.383 . S
C378 C383 1.382 . S
C379 H350 0.950 . S
C379 C378 1.383 . S
C379 C380 1.395 . S
C380 H351 0.950 . S
C380 C379 1.395 . S
C380 C381 1.288 . S
C381 C380 1.288 . S
C381 C382 1.392 . S
C382 H352 0.951 . S
C382 C381 1.392 . S
C382 C383 1.392 . S
C383 H353 0.949 . S
C383 C378 1.382 . S
C383 C382 1.392 . S
Mn384 O389 2.095 1_554 S
Mn384 O399 2.162 . S
Mn384 O400 2.297 . S
Mn384 O408 2.385 . S
Mn384 O409 2.209 . S
Mn384 O410 2.094 1_554 S
Mn385 O390 2.121 . S
Mn385 N392 2.257 1_556 S
Mn385 N401 2.282 1_556 S
Mn385 O409 2.215 1_556 S
Mn385 O411 2.117 . S
C386 O408 1.234 . S
C386 O409 1.283 . S
C387 O399 1.281 . S
C387 O400 1.236 . S
C388 O410 1.240 . S
C388 O411 1.264 . S
O389 Mn384 2.095 1_556 S
O389 C398 1.250 . S
O390 Mn385 2.121 . S
O390 C398 1.258 . S
C391 N392 1.326 1_556 S
C391 C395 1.460 1_556 S
C391 H397 0.929 . S
N392 Mn385 2.257 1_554 S
N392 C391 1.326 1_554 S
N392 C396 1.362 . S
C393 C394 1.258 . S
C393 C396 1.431 . S
C393 C413 1.449 . S
C394 C393 1.258 . S
C394 C395 1.477 . S
C394 H414 0.931 . S
C395 C391 1.460 1_554 S
C395 C394 1.477 . S
C395 H415 0.930 1_554 S
C396 N392 1.362 . S
C396 C393 1.431 . S
C396 C406 1.476 . S
H397 C391 0.929 . S
C398 O389 1.250 . S
C398 O390 1.258 . S
O399 Mn384 2.162 . S
O399 C387 1.281 . S
O400 Mn384 2.297 . S
O400 C387 1.236 . S
N401 Mn385 2.282 1_554 S
N401 C402 1.328 . S
N401 C406 1.318 . S
C402 N401 1.328 . S
C402 C403 1.457 . S
C402 H407 0.929 . S
C403 C402 1.457 . S
C403 C404 1.291 . S
C403 H416 0.931 . S
C404 C403 1.291 . S
C404 C405 1.373 . S
C404 H417 0.929 . S
C405 C404 1.373 . S
C405 C406 1.396 . S
C405 C412 1.403 . S
C406 C396 1.476 . S
C406 N401 1.318 . S
C406 C405 1.396 . S
H407 C402 0.929 . S
O408 Mn384 2.385 . S
O408 C386 1.234 . S
O409 Mn384 2.209 . S
O409 Mn385 2.215 1_554 S
O409 C386 1.283 . S
O410 Mn384 2.094 1_556 S
O410 C388 1.240 . S
O411 Mn385 2.117 . S
O411 C388 1.264 . S
C412 C405 1.403 . S
C412 C413 1.399 . S
C412 H418 0.929 . S
C413 C393 1.449 . S
C413 C412 1.399 . S
C413 H419 0.930 . S
H414 C394 0.931 . S
H415 C395 0.930 1_556 S
H416 C403 0.931 . S
H417 C404 0.929 . S
H418 C412 0.929 . S
H419 C413 0.930 . S
Mn420 O425 2.095 . S
Mn420 O435 2.162 . S
Mn420 O436 2.297 . S
Mn420 O444 2.385 . S
Mn420 O445 2.209 . S
Mn420 O446 2.094 . S
Mn421 O426 2.121 . S
Mn421 N428 2.257 . S
Mn421 N437 2.282 . S
Mn421 O445 2.215 . S
Mn421 O447 2.117 . S
C422 O444 1.234 . S
C422 O445 1.283 . S
C423 O435 1.281 . S
C423 O436 1.236 . S
C424 O446 1.240 . S
C424 O447 1.264 . S
O425 Mn420 2.095 . S
O425 C434 1.250 . S
O426 Mn421 2.121 . S
O426 C434 1.258 . S
C427 N428 1.326 . S
C427 C431 1.460 . S
C427 H433 0.929 . S
N428 Mn421 2.257 . S
N428 C427 1.326 . S
N428 C432 1.362 . S
C429 C430 1.258 . S
C429 C432 1.431 . S
C429 C449 1.449 . S
C430 C429 1.258 . S
C430 C431 1.477 . S
C430 H450 0.931 . S
C431 C427 1.460 . S
C431 C430 1.477 . S
C431 H451 0.930 . S
C432 N428 1.362 . S
C432 C429 1.431 . S
C432 C442 1.476 . S
H433 C427 0.929 . S
C434 O425 1.250 . S
C434 O426 1.258 . S
O435 Mn420 2.162 . S
O435 C423 1.281 . S
O436 Mn420 2.297 . S
O436 C423 1.236 . S
N437 Mn421 2.282 . S
N437 C438 1.328 . S
N437 C442 1.318 . S
C438 N437 1.328 . S
C438 C439 1.457 . S
C438 H443 0.929 . S
C439 C438 1.457 . S
C439 C440 1.291 . S
C439 H452 0.931 . S
C440 C439 1.291 . S
C440 C441 1.373 . S
C440 H453 0.929 . S
C441 C440 1.373 . S
C441 C442 1.396 . S
C441 C448 1.403 . S
C442 C432 1.476 . S
C442 N437 1.318 . S
C442 C441 1.396 . S
H443 C438 0.929 . S
O444 Mn420 2.385 . S
O444 C422 1.234 . S
O445 Mn420 2.209 . S
O445 Mn421 2.215 . S
O445 C422 1.283 . S
O446 Mn420 2.094 . S
O446 C424 1.240 . S
O447 Mn421 2.117 . S
O447 C424 1.264 . S
C448 C441 1.403 . S
C448 C449 1.399 . S
C448 H454 0.929 . S
C449 C429 1.449 . S
C449 C448 1.399 . S
C449 H455 0.930 . S
H450 C430 0.931 . S
H451 C431 0.930 . S
H452 C439 0.931 . S
H453 C440 0.929 . S
H454 C448 0.929 . S
H455 C449 0.930 . S
Mn456 O461 2.095 . S
Mn456 O471 2.162 . S
Mn456 O472 2.297 . S
Mn456 O480 2.385 . S
Mn456 O481 2.209 . S
Mn456 O482 2.094 . S
Mn457 O462 2.121 . S
Mn457 N464 2.257 . S
Mn457 N473 2.282 . S
Mn457 O481 2.215 . S
Mn457 O483 2.117 . S
C458 O480 1.234 . S
C458 O481 1.283 . S
C459 O471 1.281 . S
C459 O472 1.236 . S
C460 O482 1.240 . S
C460 O483 1.264 . S
O461 Mn456 2.095 . S
O461 C470 1.250 . S
O462 Mn457 2.121 . S
O462 C470 1.258 . S
C463 N464 1.326 . S
C463 C467 1.460 . S
C463 H469 0.929 . S
N464 Mn457 2.257 . S
N464 C463 1.326 . S
N464 C468 1.362 . S
C465 C466 1.258 . S
C465 C468 1.431 . S
C465 C485 1.449 . S
C466 C465 1.258 . S
C466 C467 1.477 . S
C466 H486 0.931 . S
C467 C463 1.460 . S
C467 C466 1.477 . S
C467 H487 0.930 . S
C468 N464 1.362 . S
C468 C465 1.431 . S
C468 C478 1.476 . S
H469 C463 0.929 . S
C470 O461 1.250 . S
C470 O462 1.258 . S
O471 Mn456 2.162 . S
O471 C459 1.281 . S
O472 Mn456 2.297 . S
O472 C459 1.236 . S
N473 Mn457 2.282 . S
N473 C474 1.328 . S
N473 C478 1.318 . S
C474 N473 1.328 . S
C474 C475 1.457 . S
C474 H479 0.929 . S
C475 C474 1.457 . S
C475 C476 1.291 . S
C475 H488 0.931 . S
C476 C475 1.291 . S
C476 C477 1.373 . S
C476 H489 0.929 . S
C477 C476 1.373 . S
C477 C478 1.396 . S
C477 C484 1.403 . S
C478 C468 1.476 . S
C478 N473 1.318 . S
C478 C477 1.396 . S
H479 C474 0.929 . S
O480 Mn456 2.385 . S
O480 C458 1.234 . S
O481 Mn456 2.209 . S
O481 Mn457 2.215 . S
O481 C458 1.283 . S
O482 Mn456 2.094 . S
O482 C460 1.240 . S
O483 Mn457 2.117 . S
O483 C460 1.264 . S
C484 C477 1.403 . S
C484 C485 1.399 . S
C484 H490 0.929 . S
C485 C465 1.449 . S
C485 C484 1.399 . S
C485 H491 0.930 . S
H486 C466 0.931 . S
H487 C467 0.930 . S
H488 C475 0.931 . S
H489 C476 0.929 . S
H490 C484 0.929 . S
H491 C485 0.930 . S
Mn492 O497 2.095 . S
Mn492 O507 2.162 . S
Mn492 O508 2.297 . S
Mn492 O516 2.385 . S
Mn492 O517 2.209 . S
Mn492 O518 2.094 . S
Mn493 O498 2.121 . S
Mn493 N500 2.257 . S
Mn493 N509 2.282 . S
Mn493 O517 2.215 . S
Mn493 O519 2.117 . S
C494 O516 1.234 . S
C494 O517 1.283 . S
C495 O507 1.281 . S
C495 O508 1.236 . S
C496 O518 1.240 . S
C496 O519 1.264 . S
O497 Mn492 2.095 . S
O497 C506 1.250 . S
O498 Mn493 2.121 . S
O498 C506 1.258 . S
C499 N500 1.326 . S
C499 C503 1.460 . S
C499 H505 0.929 . S
N500 Mn493 2.257 . S
N500 C499 1.326 . S
N500 C504 1.362 . S
C501 C502 1.258 . S
C501 C504 1.431 . S
C501 C521 1.449 . S
C502 C501 1.258 . S
C502 C503 1.477 . S
C502 H522 0.931 . S
C503 C499 1.460 . S
C503 C502 1.477 . S
C503 H523 0.930 . S
C504 N500 1.362 . S
C504 C501 1.431 . S
C504 C514 1.476 . S
H505 C499 0.929 . S
C506 O497 1.250 . S
C506 O498 1.258 . S
O507 Mn492 2.162 . S
O507 C495 1.281 . S
O508 Mn492 2.297 . S
O508 C495 1.236 . S
N509 Mn493 2.282 . S
N509 C510 1.328 . S
N509 C514 1.318 . S
C510 N509 1.328 . S
C510 C511 1.457 . S
C510 H515 0.929 . S
C511 C510 1.457 . S
C511 C512 1.291 . S
C511 H524 0.931 . S
C512 C511 1.291 . S
C512 C513 1.373 . S
C512 H525 0.929 . S
C513 C512 1.373 . S
C513 C514 1.396 . S
C513 C520 1.403 . S
C514 C504 1.476 . S
C514 N509 1.318 . S
C514 C513 1.396 . S
H515 C510 0.929 . S
O516 Mn492 2.385 . S
O516 C494 1.234 . S
O517 Mn492 2.209 . S
O517 Mn493 2.215 . S
O517 C494 1.283 . S
O518 Mn492 2.094 . S
O518 C496 1.240 . S
O519 Mn493 2.117 . S
O519 C496 1.264 . S
C520 C513 1.403 . S
C520 C521 1.399 . S
C520 H526 0.929 . S
C521 C501 1.449 . S
C521 C520 1.399 . S
C521 H527 0.930 . S
H522 C502 0.931 . S
H523 C503 0.930 . S
H524 C511 0.931 . S
H525 C512 0.929 . S
H526 C520 0.929 . S
H527 C521 0.930 . S
Mn528 O533 2.095 . S
Mn528 O543 2.162 . S
Mn528 O544 2.297 . S
Mn528 O552 2.385 . S
Mn528 O553 2.209 . S
Mn528 O554 2.094 . S
Mn529 O534 2.121 . S
Mn529 N536 2.257 . S
Mn529 N545 2.282 . S
Mn529 O553 2.215 . S
Mn529 O555 2.117 . S
C530 O552 1.234 . S
C530 O553 1.283 . S
C531 O543 1.281 . S
C531 O544 1.236 . S
C532 O554 1.240 . S
C532 O555 1.264 . S
O533 Mn528 2.095 . S
O533 C542 1.250 . S
O534 Mn529 2.121 . S
O534 C542 1.258 . S
C535 N536 1.326 . S
C535 C539 1.460 . S
C535 H541 0.929 . S
N536 Mn529 2.257 . S
N536 C535 1.326 . S
N536 C540 1.362 . S
C537 C538 1.258 . S
C537 C540 1.431 . S
C537 C557 1.449 . S
C538 C537 1.258 . S
C538 C539 1.477 . S
C538 H558 0.931 . S
C539 C535 1.460 . S
C539 C538 1.477 . S
C539 H559 0.930 . S
C540 N536 1.362 . S
C540 C537 1.431 . S
C540 C550 1.476 . S
H541 C535 0.929 . S
C542 O533 1.250 . S
C542 O534 1.258 . S
O543 Mn528 2.162 . S
O543 C531 1.281 . S
O544 Mn528 2.297 . S
O544 C531 1.236 . S
N545 Mn529 2.282 . S
N545 C546 1.328 . S
N545 C550 1.318 . S
C546 N545 1.328 . S
C546 C547 1.457 . S
C546 H551 0.929 . S
C547 C546 1.457 . S
C547 C548 1.291 . S
C547 H560 0.931 . S
C548 C547 1.291 . S
C548 C549 1.373 . S
C548 H561 0.929 . S
C549 C548 1.373 . S
C549 C550 1.396 . S
C549 C556 1.403 . S
C550 C540 1.476 . S
C550 N545 1.318 . S
C550 C549 1.396 . S
H551 C546 0.929 . S
O552 Mn528 2.385 . S
O552 C530 1.234 . S
O553 Mn528 2.209 . S
O553 Mn529 2.215 . S
O553 C530 1.283 . S
O554 Mn528 2.094 . S
O554 C532 1.240 . S
O555 Mn529 2.117 . S
O555 C532 1.264 . S
C556 C549 1.403 . S
C556 C557 1.399 . S
C556 H562 0.929 . S
C557 C537 1.449 . S
C557 C556 1.399 . S
C557 H563 0.930 . S
H558 C538 0.931 . S
H559 C539 0.930 . S
H560 C547 0.931 . S
H561 C548 0.929 . S
H562 C556 0.929 . S
H563 C557 0.930 . S
Mn564 O569 2.095 . S
Mn564 O579 2.162 . S
Mn564 O580 2.297 . S
Mn564 O588 2.385 . S
Mn564 O589 2.209 . S
Mn564 O590 2.094 . S
Mn565 O570 2.121 . S
Mn565 N572 2.257 . S
Mn565 N581 2.282 . S
Mn565 O589 2.215 . S
Mn565 O591 2.117 . S
C566 O588 1.234 . S
C566 O589 1.283 . S
C567 O579 1.281 . S
C567 O580 1.236 . S
C568 O590 1.240 . S
C568 O591 1.264 . S
O569 Mn564 2.095 . S
O569 C578 1.250 . S
O570 Mn565 2.121 . S
O570 C578 1.258 . S
C571 N572 1.326 . S
C571 C575 1.460 . S
C571 H577 0.929 . S
N572 Mn565 2.257 . S
N572 C571 1.326 . S
N572 C576 1.362 . S
C573 C574 1.258 . S
C573 C576 1.431 . S
C573 C593 1.449 . S
C574 C573 1.258 . S
C574 C575 1.477 . S
C574 H594 0.931 . S
C575 C571 1.460 . S
C575 C574 1.477 . S
C575 H595 0.930 . S
C576 N572 1.362 . S
C576 C573 1.431 . S
C576 C586 1.476 . S
H577 C571 0.929 . S
C578 O569 1.250 . S
C578 O570 1.258 . S
O579 Mn564 2.162 . S
O579 C567 1.281 . S
O580 Mn564 2.297 . S
O580 C567 1.236 . S
N581 Mn565 2.282 . S
N581 C582 1.328 . S
N581 C586 1.318 . S
C582 N581 1.328 . S
C582 C583 1.457 . S
C582 H587 0.929 . S
C583 C582 1.457 . S
C583 C584 1.291 . S
C583 H596 0.931 . S
C584 C583 1.291 . S
C584 C585 1.373 . S
C584 H597 0.929 . S
C585 C584 1.373 . S
C585 C586 1.396 . S
C585 C592 1.403 . S
C586 C576 1.476 . S
C586 N581 1.318 . S
C586 C585 1.396 . S
H587 C582 0.929 . S
O588 Mn564 2.385 . S
O588 C566 1.234 . S
O589 Mn564 2.209 . S
O589 Mn565 2.215 . S
O589 C566 1.283 . S
O590 Mn564 2.094 . S
O590 C568 1.240 . S
O591 Mn565 2.117 . S
O591 C568 1.264 . S
C592 C585 1.403 . S
C592 C593 1.399 . S
C592 H598 0.929 . S
C593 C573 1.449 . S
C593 C592 1.399 . S
C593 H599 0.930 . S
H594 C574 0.931 . S
H595 C575 0.930 . S
H596 C583 0.931 . S
H597 C584 0.929 . S
H598 C592 0.929 . S
H599 C593 0.930 . S
Mn600 O605 2.095 . S
Mn600 O615 2.162 . S
Mn600 O616 2.297 1_554 S
Mn600 O624 2.385 1_554 S
Mn600 O625 2.209 1_554 S
Mn600 O626 2.094 . S
Mn601 O606 2.121 . S
Mn601 N608 2.257 1_554 S
Mn601 N617 2.282 1_554 S
Mn601 O625 2.215 1_554 S
Mn601 O627 2.117 . S
C602 O624 1.234 . S
C602 O625 1.283 . S
C603 O615 1.279 1_556 S
C603 O616 1.236 . S
C604 O626 1.240 . S
C604 O627 1.264 . S
O605 Mn600 2.095 . S
O605 C614 1.250 . S
O606 Mn601 2.121 . S
O606 C614 1.258 . S
C607 N608 1.326 1_554 S
C607 C611 1.475 . S
C607 H613 0.929 . S
N608 Mn601 2.257 1_556 S
N608 C607 1.326 1_556 S
N608 C612 1.362 . S
C609 C610 1.258 . S
C609 C612 1.431 . S
C609 C629 1.449 . S
C610 C609 1.258 . S
C610 C611 1.438 1_556 S
C610 H630 0.931 . S
C611 C607 1.475 . S
C611 C610 1.438 1_554 S
C611 H631 0.955 . S
C612 N608 1.362 . S
C612 C609 1.431 . S
C612 C622 1.476 . S
H613 C607 0.929 . S
C614 O605 1.250 . S
C614 O606 1.258 . S
O615 Mn600 2.162 . S
O615 C603 1.279 1_554 S
O616 Mn600 2.297 1_556 S
O616 C603 1.236 . S
N617 Mn601 2.282 1_556 S
N617 C618 1.328 . S
N617 C622 1.318 . S
C618 N617 1.328 . S
C618 C619 1.457 . S
C618 H623 0.929 . S
C619 C618 1.457 . S
C619 C620 1.291 . S
C619 H632 0.931 . S
C620 C619 1.291 . S
C620 C621 1.373 . S
C620 H633 0.929 . S
C621 C620 1.373 . S
C621 C622 1.396 . S
C621 C628 1.403 . S
C622 C612 1.476 . S
C622 N617 1.318 . S
C622 C621 1.396 . S
H623 C618 0.929 . S
O624 Mn600 2.385 1_556 S
O624 C602 1.234 . S
O625 Mn600 2.209 1_556 S
O625 Mn601 2.215 1_556 S
O625 C602 1.283 . S
O626 Mn600 2.094 . S
O626 C604 1.240 . S
O627 Mn601 2.117 . S
O627 C604 1.264 . S
C628 C621 1.403 . S
C628 C629 1.399 . S
C628 H634 0.929 . S
C629 C609 1.449 . S
C629 C628 1.399 . S
C629 H635 0.930 . S
H630 C610 0.931 . S
H631 C611 0.955 . S
H632 C619 0.931 . S
H633 C620 0.929 . S
H634 C628 0.929 . S
H635 C629 0.930 . S
Mn636 O641 2.095 . S
Mn636 O651 2.162 . S
Mn636 O652 2.297 . S
Mn636 O660 2.385 . S
Mn636 O661 2.209 . S
Mn636 O662 2.094 . S
Mn637 O642 2.121 . S
Mn637 N644 2.257 . S
Mn637 N653 2.282 . S
Mn637 O661 2.215 . S
Mn637 O663 2.117 . S
C638 O660 1.234 . S
C638 O661 1.283 . S
C639 O651 1.281 . S
C639 O652 1.236 . S
C640 O662 1.240 . S
C640 O663 1.264 . S
O641 Mn636 2.095 . S
O641 C650 1.250 . S
O642 Mn637 2.121 . S
O642 C650 1.258 . S
C643 N644 1.326 . S
C643 C647 1.460 . S
C643 H649 0.929 . S
N644 Mn637 2.257 . S
N644 C643 1.326 . S
N644 C648 1.362 . S
C645 C646 1.258 . S
C645 C648 1.431 . S
C645 C665 1.449 . S
C646 C645 1.258 . S
C646 C647 1.477 . S
C646 H666 0.931 . S
C647 C643 1.460 . S
C647 C646 1.477 . S
C647 H667 0.930 . S
C648 N644 1.362 . S
C648 C645 1.431 . S
C648 C658 1.476 . S
H649 C643 0.929 . S
C650 O641 1.250 . S
C650 O642 1.258 . S
O651 Mn636 2.162 . S
O651 C639 1.281 . S
O652 Mn636 2.297 . S
O652 C639 1.236 . S
N653 Mn637 2.282 . S
N653 C654 1.328 . S
N653 C658 1.318 . S
C654 N653 1.328 . S
C654 C655 1.457 . S
C654 H659 0.929 . S
C655 C654 1.457 . S
C655 C656 1.291 . S
C655 H668 0.931 . S
C656 C655 1.291 . S
C656 C657 1.373 . S
C656 H669 0.929 . S
C657 C656 1.373 . S
C657 C658 1.396 . S
C657 C664 1.403 . S
C658 C648 1.476 . S
C658 N653 1.318 . S
C658 C657 1.396 . S
H659 C654 0.929 . S
O660 Mn636 2.385 . S
O660 C638 1.234 . S
O661 Mn636 2.209 . S
O661 Mn637 2.215 . S
O661 C638 1.283 . S
O662 Mn636 2.094 . S
O662 C640 1.240 . S
O663 Mn637 2.117 . S
O663 C640 1.264 . S
C664 C657 1.403 . S
C664 C665 1.399 . S
C664 H670 0.929 . S
C665 C645 1.449 . S
C665 C664 1.399 . S
C665 H671 0.930 . S
H666 C646 0.931 . S
H667 C647 0.930 . S
H668 C655 0.931 . S
H669 C656 0.929 . S
H670 C664 0.929 . S
H671 C665 0.930 . S
H672 C684 0.930 . S
H673 C686 0.930 . S
H674 C687 0.930 . S
H675 C691 0.959 . S
H676 C691 0.959 . S
H677 C691 0.961 . S
H678 C692 0.960 . S
H679 C692 0.961 . S
H680 C692 0.959 . S
H681 C695 0.929 . S
H682 C696 0.931 . S
H683 C698 0.930 . S
C684 H672 0.930 . S
C684 C685 1.399 . S
C684 C689 1.399 . S
C685 C684 1.399 . S
C685 C686 1.376 . S
C686 H673 0.930 . S
C686 C685 1.376 . S
C686 C687 1.388 . S
C687 H674 0.930 . S
C687 C686 1.388 . S
C687 C688 1.390 . S
C688 C687 1.390 . S
C688 C689 1.394 . S
C688 C694 1.465 . S
C689 C684 1.399 . S
C689 C688 1.394 . S
C689 C690 1.516 . S
C690 C689 1.516 . S
C690 C691 1.502 . S
C690 C692 1.561 . S
C690 C693 1.526 . S
C691 H675 0.959 . S
C691 H676 0.959 . S
C691 H677 0.961 . S
C691 C690 1.502 . S
C692 H678 0.960 . S
C692 H679 0.961 . S
C692 H680 0.959 . S
C692 C690 1.561 . S
C693 C690 1.526 . S
C693 C694 1.396 . S
C693 C698 1.390 . S
C694 C688 1.465 . S
C694 C693 1.396 . S
C694 C695 1.399 . S
C695 H681 0.929 . S
C695 C694 1.399 . S
C695 C696 1.385 . S
C696 H682 0.931 . S
C696 C695 1.385 . S
C696 C697 1.389 . S
C697 C696 1.389 . S
C697 C698 1.387 . S
C698 H683 0.930 . S
C698 C693 1.390 . S
C698 C697 1.387 . S
H699 C711 0.930 . S
H700 C713 0.930 . S
H701 C714 0.930 . S
H702 C718 0.959 . S
H703 C718 0.959 . S
H704 C718 0.961 . S
H705 C719 0.960 . S
H706 C719 0.961 . S
H707 C719 0.959 . S
H708 C722 0.929 . S
H709 C723 0.931 . S
H710 C725 0.930 . S
C711 H699 0.930 . S
C711 C712 1.399 . S
C711 C716 1.399 . S
C712 C711 1.399 . S
C712 C713 1.376 . S
C713 H700 0.930 . S
C713 C712 1.376 . S
C713 C714 1.388 . S
C714 H701 0.930 . S
C714 C713 1.388 . S
C714 C715 1.390 . S
C715 C714 1.390 . S
C715 C716 1.394 . S
C715 C721 1.465 . S
C716 C711 1.399 . S
C716 C715 1.394 . S
C716 C717 1.516 . S
C717 C716 1.516 . S
C717 C718 1.502 . S
C717 C719 1.561 . S
C717 C720 1.526 . S
C718 H702 0.959 . S
C718 H703 0.959 . S
C718 H704 0.961 . S
C718 C717 1.502 . S
C719 H705 0.960 . S
C719 H706 0.961 . S
C719 H707 0.959 . S
C719 C717 1.561 . S
C720 C717 1.526 . S
C720 C721 1.396 . S
C720 C725 1.390 . S
C721 C715 1.465 . S
C721 C720 1.396 . S
C721 C722 1.399 . S
C722 H708 0.929 . S
C722 C721 1.399 . S
C722 C723 1.385 . S
C723 H709 0.931 . S
C723 C722 1.385 . S
C723 C724 1.389 . S
C724 C723 1.389 . S
C724 C725 1.387 . S
C725 H710 0.930 . S
C725 C720 1.390 . S
C725 C724 1.387 . S
H726 C738 0.930 . S
H727 C740 0.930 . S
H728 C741 0.930 . S
H729 C745 0.959 . S
H730 C745 0.959 . S
H731 C745 0.961 . S
H732 C746 0.960 . S
H733 C746 0.961 . S
H734 C746 0.959 . S
H735 C749 0.929 . S
H736 C750 0.931 . S
H737 C752 0.930 . S
C738 H726 0.930 . S
C738 C739 1.399 . S
C738 C743 1.399 . S
C739 C738 1.399 . S
C739 C740 1.376 . S
C740 H727 0.930 . S
C740 C739 1.376 . S
C740 C741 1.388 . S
C741 H728 0.930 . S
C741 C740 1.388 . S
C741 C742 1.390 . S
C742 C741 1.390 . S
C742 C743 1.394 . S
C742 C748 1.465 . S
C743 C738 1.399 . S
C743 C742 1.394 . S
C743 C744 1.516 . S
C744 C743 1.516 . S
C744 C745 1.502 . S
C744 C746 1.561 . S
C744 C747 1.526 . S
C745 H729 0.959 . S
C745 H730 0.959 . S
C745 H731 0.961 . S
C745 C744 1.502 . S
C746 H732 0.960 . S
C746 H733 0.961 . S
C746 H734 0.959 . S
C746 C744 1.561 . S
C747 C744 1.526 . S
C747 C748 1.396 . S
C747 C752 1.390 . S
C748 C742 1.465 . S
C748 C747 1.396 . S
C748 C749 1.399 . S
C749 H735 0.929 . S
C749 C748 1.399 . S
C749 C750 1.385 . S
C750 H736 0.931 . S
C750 C749 1.385 . S
C750 C751 1.389 . S
C751 C750 1.389 . S
C751 C752 1.387 . S
C752 H737 0.930 . S
C752 C747 1.390 . S
C752 C751 1.387 . S
H753 C765 0.930 . S
H754 C767 0.930 . S
H755 C768 0.930 1_556 S
H756 C772 0.959 . S
H757 C772 0.959 . S
H758 C772 0.961 . S
H759 C773 0.960 . S
H760 C773 0.961 . S
H761 C773 0.959 . S
H762 C776 0.929 . S
H763 C777 0.931 . S
H764 C779 0.930 . S
C765 H753 0.930 . S
C765 C766 1.399 . S
C765 C770 1.399 . S
C766 C765 1.399 . S
C766 C767 1.376 . S
C767 H754 0.930 . S
C767 C766 1.376 . S
C767 C768 1.388 . S
C768 H755 0.930 1_554 S
C768 C767 1.388 . S
C768 C769 1.390 . S
C769 C768 1.390 . S
C769 C770 1.394 . S
C769 C775 1.465 . S
C770 C765 1.399 . S
C770 C769 1.394 . S
C770 C771 1.516 . S
C771 C770 1.516 . S
C771 C772 1.502 . S
C771 C773 1.561 . S
C771 C774 1.526 . S
C772 H756 0.959 . S
C772 H757 0.959 . S
C772 H758 0.961 . S
C772 C771 1.502 . S
C773 H759 0.960 . S
C773 H760 0.961 . S
C773 H761 0.959 . S
C773 C771 1.561 . S
C774 C771 1.526 . S
C774 C775 1.396 . S
C774 C779 1.390 . S
C775 C769 1.465 . S
C775 C774 1.396 . S
C775 C776 1.399 1_554 S
C776 H762 0.929 . S
C776 C775 1.399 1_556 S
C776 C777 1.385 . S
C777 H763 0.931 . S
C777 C776 1.385 . S
C777 C778 1.389 1_556 S
C778 C777 1.389 1_554 S
C778 C779 1.387 . S
C779 H764 0.930 . S
C779 C774 1.390 . S
C779 C778 1.387 . S
H780 C792 0.930 . S
H781 C794 0.930 . S
H782 C795 0.930 . S
H783 C799 0.959 1_556 S
H784 C799 0.959 . S
H785 C799 0.961 . S
H786 C800 0.960 . S
H787 C800 0.961 . S
H788 C800 0.959 . S
H789 C803 0.929 . S
H790 C804 0.931 . S
H791 C806 0.884 1_554 S
C792 H780 0.930 . S
C792 C793 1.399 . S
C792 C797 1.399 . S
C793 C792 1.399 . S
C793 C794 1.376 . S
C794 H781 0.930 . S
C794 C793 1.376 . S
C794 C795 1.388 . S
C795 H782 0.930 . S
C795 C794 1.388 . S
C795 C796 1.390 . S
C796 C795 1.390 . S
C796 C797 1.394 . S
C796 C802 1.465 . S
C797 C792 1.399 . S
C797 C796 1.394 . S
C797 C798 1.516 1_556 S
C798 C797 1.516 1_554 S
C798 C799 1.502 . S
C798 C800 1.561 . S
C798 C801 1.526 1_554 S
C799 H783 0.959 1_554 S
C799 H784 0.959 . S
C799 H785 0.961 . S
C799 C798 1.502 . S
C800 H786 0.960 . S
C800 H787 0.961 . S
C800 H788 0.959 . S
C800 C798 1.561 . S
C801 C798 1.526 1_556 S
C801 C802 1.396 . S
C801 C806 1.408 . S
C802 C796 1.465 . S
C802 C801 1.396 . S
C802 C803 1.399 . S
C803 H789 0.929 . S
C803 C802 1.399 . S
C803 C804 1.385 . S
C804 H790 0.931 . S
C804 C803 1.385 . S
C804 C805 1.389 . S
C805 C804 1.389 . S
C805 C806 1.418 . S
C806 H791 0.884 1_556 S
C806 C801 1.408 . S
C806 C805 1.418 . S
H807 C819 0.930 . S
H808 C821 0.930 . S
H809 C822 0.930 . S
H810 C826 0.959 . S
H811 C826 0.959 . S
H812 C826 0.961 . S
H813 C827 0.960 . S
H814 C827 0.961 . S
H815 C827 0.959 . S
H816 C830 0.929 . S
H817 C831 0.931 . S
H818 C833 0.930 . S
C819 H807 0.930 . S
C819 C820 1.399 . S
C819 C824 1.399 . S
C820 C819 1.399 . S
C820 C821 1.376 . S
C821 H808 0.930 . S
C821 C820 1.376 . S
C821 C822 1.388 . S
C822 H809 0.930 . S
C822 C821 1.388 . S
C822 C823 1.390 . S
C823 C822 1.390 . S
C823 C824 1.394 . S
C823 C829 1.465 . S
C824 C819 1.399 . S
C824 C823 1.394 . S
C824 C825 1.516 . S
C825 C824 1.516 . S
C825 C826 1.502 . S
C825 C827 1.561 . S
C825 C828 1.526 . S
C826 H810 0.959 . S
C826 H811 0.959 . S
C826 H812 0.961 . S
C826 C825 1.502 . S
C827 H813 0.960 . S
C827 H814 0.961 . S
C827 H815 0.959 . S
C827 C825 1.561 . S
C828 C825 1.526 . S
C828 C829 1.396 . S
C828 C833 1.390 . S
C829 C823 1.465 . S
C829 C828 1.396 . S
C829 C830 1.399 . S
C830 H816 0.929 . S
C830 C829 1.399 . S
C830 C831 1.385 . S
C831 H817 0.931 . S
C831 C830 1.385 . S
C831 C832 1.389 . S
C832 C831 1.389 . S
C832 C833 1.387 . S
C833 H818 0.930 . S
C833 C828 1.390 . S
C833 C832 1.387 . S
H834 C846 0.930 . S
H835 C848 0.930 . S
H836 C849 0.930 . S
H837 C853 0.959 . S
H838 C853 0.959 . S
H839 C853 0.961 . S
H840 C854 0.960 . S
H841 C854 0.961 . S
H842 C854 0.959 . S
H843 C857 0.929 . S
H844 C858 0.931 . S
H845 C860 0.930 . S
C846 H834 0.930 . S
C846 C847 1.399 . S
C846 C851 1.399 . S
C847 C846 1.399 . S
C847 C848 1.376 . S
C848 H835 0.930 . S
C848 C847 1.376 . S
C848 C849 1.388 . S
C849 H836 0.930 . S
C849 C848 1.388 . S
C849 C850 1.390 . S
C850 C849 1.390 . S
C850 C851 1.394 . S
C850 C856 1.465 . S
C851 C846 1.399 . S
C851 C850 1.394 . S
C851 C852 1.516 . S
C852 C851 1.516 . S
C852 C853 1.502 . S
C852 C854 1.561 . S
C852 C855 1.526 . S
C853 H837 0.959 . S
C853 H838 0.959 . S
C853 H839 0.961 . S
C853 C852 1.502 . S
C854 H840 0.960 . S
C854 H841 0.961 . S
C854 H842 0.959 . S
C854 C852 1.561 . S
C855 C852 1.526 . S
C855 C856 1.396 . S
C855 C860 1.390 . S
C856 C850 1.465 . S
C856 C855 1.396 . S
C856 C857 1.399 . S
C857 H843 0.929 . S
C857 C856 1.399 . S
C857 C858 1.385 . S
C858 H844 0.931 . S
C858 C857 1.385 . S
C858 C859 1.389 . S
C859 C858 1.389 . S
C859 C860 1.387 . S
C860 H845 0.930 . S
C860 C855 1.390 . S
C860 C859 1.387 . S
H861 C873 0.930 . S
H862 C875 0.930 . S
H863 C876 0.930 . S
H864 C880 0.959 . S
H865 C880 0.959 . S
H866 C880 0.961 . S
H867 C881 0.960 . S
H868 C881 0.961 . S
H869 C881 0.959 . S
H870 C884 0.929 . S
H871 C885 0.931 . S
H872 C887 0.930 . S
C873 H861 0.930 . S
C873 C874 1.399 . S
C873 C878 1.399 . S
C874 C873 1.399 . S
C874 C875 1.376 . S
C875 H862 0.930 . S
C875 C874 1.376 . S
C875 C876 1.388 . S
C876 H863 0.930 . S
C876 C875 1.388 . S
C876 C877 1.390 . S
C877 C876 1.390 . S
C877 C878 1.394 . S
C877 C883 1.465 . S
C878 C873 1.399 . S
C878 C877 1.394 . S
C878 C879 1.516 . S
C879 C878 1.516 . S
C879 C880 1.502 . S
C879 C881 1.561 . S
C879 C882 1.526 . S
C880 H864 0.959 . S
C880 H865 0.959 . S
C880 H866 0.961 . S
C880 C879 1.502 . S
C881 H867 0.960 . S
C881 H868 0.961 . S
C881 H869 0.959 . S
C881 C879 1.561 . S
C882 C879 1.526 . S
C882 C883 1.396 . S
C882 C887 1.390 . S
C883 C877 1.465 . S
C883 C882 1.396 . S
C883 C884 1.399 . S
C884 H870 0.929 . S
C884 C883 1.399 . S
C884 C885 1.385 . S
C885 H871 0.931 . S
C885 C884 1.385 . S
C885 C886 1.389 . S
C886 C885 1.389 . S
C886 C887 1.387 . S
C887 H872 0.930 . S
C887 C882 1.390 . S
C887 C886 1.387 . S
H888 C900 0.930 . S
H889 C902 0.930 . S
H890 C903 0.930 . S
H891 C907 0.959 . S
H892 C907 0.959 . S
H893 C907 0.961 . S
H894 C908 0.960 . S
H895 C908 0.961 . S
H896 C908 0.959 . S
H897 C911 0.929 . S
H898 C912 0.931 . S
H899 C914 0.930 . S
C900 H888 0.930 . S
C900 C901 1.399 . S
C900 C905 1.399 . S
C901 C900 1.399 . S
C901 C902 1.376 . S
C902 H889 0.930 . S
C902 C901 1.376 . S
C902 C903 1.388 . S
C903 H890 0.930 . S
C903 C902 1.388 . S
C903 C904 1.390 . S
C904 C903 1.390 . S
C904 C905 1.394 . S
C904 C910 1.465 . S
C905 C900 1.399 . S
C905 C904 1.394 . S
C905 C906 1.516 . S
C906 C905 1.516 . S
C906 C907 1.502 . S
C906 C908 1.561 . S
C906 C909 1.526 . S
C907 H891 0.959 . S
C907 H892 0.959 . S
C907 H893 0.961 . S
C907 C906 1.502 . S
C908 H894 0.960 . S
C908 H895 0.961 . S
C908 H896 0.959 . S
C908 C906 1.561 . S
C909 C906 1.526 . S
C909 C910 1.396 . S
C909 C914 1.390 . S
C910 C904 1.465 . S
C910 C909 1.396 . S
C910 C911 1.399 . S
C911 H897 0.929 . S
C911 C910 1.399 . S
C911 C912 1.385 . S
C912 H898 0.931 . S
C912 C911 1.385 . S
C912 C913 1.389 . S
C913 C912 1.389 . S
C913 C914 1.387 . S
C914 H899 0.930 . S
C914 C909 1.390 . S
C914 C913 1.387 . S
H915 C927 0.930 . S
H916 C929 0.951 . S
H917 C930 0.930 1_556 S
H918 C934 0.959 . S
H919 C934 0.959 . S
H920 C934 0.961 . S
H921 C935 0.960 . S
H922 C935 0.961 . S
H923 C935 0.959 . S
H924 C938 0.929 . S
H925 C939 0.931 . S
H926 C941 0.930 . S
C927 H915 0.930 . S
C927 C928 1.399 . S
C927 C932 1.399 . S
C928 C927 1.399 . S
C928 C929 1.376 . S
C929 H916 0.951 . S
C929 C928 1.376 . S
C929 C930 1.388 . S
C930 H917 0.930 1_554 S
C930 C929 1.388 . S
C930 C931 1.390 . S
C931 C930 1.390 . S
C931 C932 1.394 . S
C931 C937 1.465 . S
C932 C927 1.399 . S
C932 C931 1.394 . S
C932 C933 1.516 . S
C933 C932 1.516 . S
C933 C934 1.502 . S
C933 C935 1.561 . S
C933 C936 1.526 . S
C934 H918 0.959 . S
C934 H919 0.959 . S
C934 H920 0.961 . S
C934 C933 1.502 . S
C935 H921 0.960 . S
C935 H922 0.961 . S
C935 H923 0.959 . S
C935 C933 1.561 . S
C936 C933 1.526 . S
C936 C937 1.396 . S
C936 C941 1.390 . S
C937 C931 1.465 . S
C937 C936 1.396 . S
C937 C938 1.399 1_554 S
C938 H924 0.929 . S
C938 C937 1.399 1_556 S
C938 C939 1.385 . S
C939 H925 0.931 . S
C939 C938 1.385 . S
C939 C940 1.389 1_556 S
C940 C939 1.389 1_554 S
C940 C941 1.387 . S
C941 H926 0.930 . S
C941 C936 1.390 . S
C941 C940 1.387 . S
H942 C954 0.930 . S
H943 C956 0.930 . S
H944 C957 0.930 . S
H945 C961 0.959 . S
H946 C961 0.959 . S
H947 C961 0.961 . S
H948 C962 0.960 . S
H949 C962 0.961 . S
H950 C962 0.959 . S
H951 C965 0.929 . S
H952 C966 0.931 . S
H953 C968 0.930 . S
C954 H942 0.930 . S
C954 C955 1.399 . S
C954 C959 1.399 . S
C955 C954 1.399 . S
C955 C956 1.376 . S
C956 H943 0.930 . S
C956 C955 1.376 . S
C956 C957 1.388 . S
C957 H944 0.930 . S
C957 C956 1.388 . S
C957 C958 1.390 . S
C958 C957 1.390 . S
C958 C959 1.394 . S
C958 C964 1.465 . S
C959 C954 1.399 . S
C959 C958 1.394 . S
C959 C960 1.516 . S
C960 C959 1.516 . S
C960 C961 1.502 . S
C960 C962 1.561 . S
C960 C963 1.526 . S
C961 H945 0.959 . S
C961 H946 0.959 . S
C961 H947 0.961 . S
C961 C960 1.502 . S
C962 H948 0.960 . S
C962 H949 0.961 . S
C962 H950 0.959 . S
C962 C960 1.561 . S
C963 C960 1.526 . S
C963 C964 1.396 . S
C963 C968 1.390 . S
C964 C958 1.465 . S
C964 C963 1.396 . S
C964 C965 1.399 . S
C965 H951 0.929 . S
C965 C964 1.399 . S
C965 C966 1.385 . S
C966 H952 0.931 . S
C966 C965 1.385 . S
C966 C967 1.389 . S
C967 C966 1.389 . S
C967 C968 1.387 . S
C968 H953 0.930 . S
C968 C963 1.390 . S
C968 C967 1.387 . S
H969 C981 0.930 . S
H970 C983 0.930 . S
H971 C984 0.930 . S
H972 C988 0.959 . S
H973 C988 0.959 . S
H974 C988 0.961 . S
H975 C989 0.960 . S
H976 C989 0.961 . S
H977 C989 0.959 . S
H978 C992 0.929 . S
H979 C993 0.931 . S
H980 C995 0.930 . S
C981 H969 0.930 . S
C981 C982 1.399 . S
C981 C986 1.399 . S
C982 C981 1.399 . S
C982 C983 1.376 . S
C983 H970 0.930 . S
C983 C982 1.376 . S
C983 C984 1.388 . S
C984 H971 0.930 . S
C984 C983 1.388 . S
C984 C985 1.390 . S
C985 C984 1.390 . S
C985 C986 1.394 . S
C985 C991 1.465 . S
C986 C981 1.399 . S
C986 C985 1.394 . S
C986 C987 1.516 . S
C987 C986 1.516 . S
C987 C988 1.502 . S
C987 C989 1.561 . S
C987 C990 1.526 . S
C988 H972 0.959 . S
C988 H973 0.959 . S
C988 H974 0.961 . S
C988 C987 1.502 . S
C989 H975 0.960 . S
C989 H976 0.961 . S
C989 H977 0.959 . S
C989 C987 1.561 . S
C990 C987 1.526 . S
C990 C991 1.396 . S
C990 C995 1.390 . S
C991 C985 1.465 . S
C991 C990 1.396 . S
C991 C992 1.399 . S
C992 H978 0.929 . S
C992 C991 1.399 . S
C992 C993 1.385 . S
C993 H979 0.931 . S
C993 C992 1.385 . S
C993 C994 1.389 . S
C994 C993 1.389 . S
C994 C995 1.387 . S
C995 H980 0.930 . S
C995 C990 1.390 . S
C995 C994 1.387 . S
H996 C1008 0.930 . S
H997 C1010 0.930 . S
H998 C1011 0.930 . S
H999 C1015 0.959 . S
H1000 C1015 0.959 . S
H1001 C1015 0.961 . S
H1002 C1016 0.960 . S
H1003 C1016 0.961 . S
H1004 C1016 0.959 . S
H1005 C1019 0.929 . S
H1006 C1020 0.931 . S
H1007 C1022 0.930 . S
C1008 H996 0.930 . S
C1008 C1009 1.399 . S
C1008 C1013 1.399 . S
C1009 C1008 1.399 . S
C1009 C1010 1.376 . S
C1010 H997 0.930 . S
C1010 C1009 1.376 . S
C1010 C1011 1.388 . S
C1011 H998 0.930 . S
C1011 C1010 1.388 . S
C1011 C1012 1.390 . S
C1012 C1011 1.390 . S
C1012 C1013 1.394 . S
C1012 C1018 1.465 . S
C1013 C1008 1.399 . S
C1013 C1012 1.394 . S
C1013 C1014 1.516 . S
C1014 C1013 1.516 . S
C1014 C1015 1.502 . S
C1014 C1016 1.561 . S
C1014 C1017 1.526 . S
C1015 H999 0.959 . S
C1015 H1000 0.959 . S
C1015 H1001 0.961 . S
C1015 C1014 1.502 . S
C1016 H1002 0.960 . S
C1016 H1003 0.961 . S
C1016 H1004 0.959 . S
C1016 C1014 1.561 . S
C1017 C1014 1.526 . S
C1017 C1018 1.396 . S
C1017 C1022 1.390 . S
C1018 C1012 1.465 . S
C1018 C1017 1.396 . S
C1018 C1019 1.399 . S
C1019 H1005 0.929 . S
C1019 C1018 1.399 . S
C1019 C1020 1.385 . S
C1020 H1006 0.931 . S
C1020 C1019 1.385 . S
C1020 C1021 1.389 . S
C1021 C1020 1.389 . S
C1021 C1022 1.387 . S
C1022 H1007 0.930 . S
C1022 C1017 1.390 . S
C1022 C1021 1.387 . S
H1023 C1035 0.930 . S
H1024 C1037 0.930 . S
H1025 C1038 0.930 . S
H1026 C1042 0.959 . S
H1027 C1042 0.959 . S
H1028 C1042 0.961 . S
H1029 C1043 0.960 . S
H1030 C1043 0.961 . S
H1031 C1043 0.959 . S
H1032 C1046 0.929 . S
H1033 C1047 0.931 . S
H1034 C1049 0.930 . S
C1035 H1023 0.930 . S
C1035 C1036 1.399 . S
C1035 C1040 1.399 . S
C1036 C1035 1.399 . S
C1036 C1037 1.376 . S
C1037 H1024 0.930 . S
C1037 C1036 1.376 . S
C1037 C1038 1.388 . S
C1038 H1025 0.930 . S
C1038 C1037 1.388 . S
C1038 C1039 1.390 . S
C1039 C1038 1.390 . S
C1039 C1040 1.394 . S
C1039 C1045 1.465 . S
C1040 C1035 1.399 . S
C1040 C1039 1.394 . S
C1040 C1041 1.516 . S
C1041 C1040 1.516 . S
C1041 C1042 1.502 . S
C1041 C1043 1.561 . S
C1041 C1044 1.526 . S
C1042 H1026 0.959 . S
C1042 H1027 0.959 . S
C1042 H1028 0.961 . S
C1042 C1041 1.502 . S
C1043 H1029 0.960 . S
C1043 H1030 0.961 . S
C1043 H1031 0.959 . S
C1043 C1041 1.561 . S
C1044 C1041 1.526 . S
C1044 C1045 1.396 . S
C1044 C1049 1.390 . S
C1045 C1039 1.465 . S
C1045 C1044 1.396 . S
C1045 C1046 1.399 . S
C1046 H1032 0.929 . S
C1046 C1045 1.399 . S
C1046 C1047 1.385 . S
C1047 H1033 0.931 . S
C1047 C1046 1.385 . S
C1047 C1048 1.389 . S
C1048 C1047 1.389 . S
C1048 C1049 1.387 . S
C1049 H1034 0.930 . S
C1049 C1044 1.390 . S
C1049 C1048 1.387 . S
H1050 C1062 0.879 1_554 S
H1051 C1064 0.930 . S
H1052 C1065 0.930 . S
H1053 C1069 0.959 . S
H1054 C1069 0.959 . S
H1055 C1069 0.961 . S
H1056 C1070 0.960 . S
H1057 C1070 0.961 . S
H1058 C1070 0.959 . S
H1059 C1073 0.929 . S
H1060 C1074 0.931 . S
H1061 C1076 0.930 . S
C1062 H1050 0.879 1_556 S
C1062 C1063 1.399 . S
C1062 C1067 1.399 . S
C1063 C1062 1.399 . S
C1063 C1064 1.376 . S
C1064 H1051 0.930 . S
C1064 C1063 1.376 . S
C1064 C1065 1.388 . S
C1065 H1052 0.930 . S
C1065 C1064 1.388 . S
C1065 C1066 1.390 . S
C1066 C1065 1.390 . S
C1066 C1067 1.394 . S
C1066 C1072 1.465 . S
C1067 C1062 1.399 . S
C1067 C1066 1.394 . S
C1067 C1068 1.516 1_556 S
C1068 C1067 1.516 1_554 S
C1068 C1069 1.502 . S
C1068 C1070 1.561 . S
C1068 C1071 1.526 1_554 S
C1069 H1053 0.959 . S
C1069 H1054 0.959 . S
C1069 H1055 0.961 . S
C1069 C1068 1.502 . S
C1070 H1056 0.960 . S
C1070 H1057 0.961 . S
C1070 H1058 0.959 . S
C1070 C1068 1.561 . S
C1071 C1068 1.526 1_556 S
C1071 C1072 1.396 . S
C1071 C1076 1.390 1_556 S
C1072 C1066 1.465 . S
C1072 C1071 1.396 . S
C1072 C1073 1.399 . S
C1073 H1059 0.929 . S
C1073 C1072 1.399 . S
C1073 C1074 1.385 . S
C1074 H1060 0.931 . S
C1074 C1073 1.385 . S
C1074 C1075 1.389 . S
C1075 C1074 1.389 . S
C1075 C1076 1.387 1_556 S
C1076 H1061 0.930 . S
C1076 C1071 1.390 1_554 S
C1076 C1075 1.387 1_554 S
H1077 C1089 0.930 . S
H1078 C1091 0.930 . S
H1079 C1092 0.930 . S
H1080 C1096 0.959 . S
H1081 C1096 0.959 . S
H1082 C1096 0.961 . S
H1083 C1097 0.960 . S
H1084 C1097 0.961 . S
H1085 C1097 0.959 . S
H1086 C1100 0.929 . S
H1087 C1101 0.931 . S
H1088 C1103 0.930 . S
C1089 H1077 0.930 . S
C1089 C1090 1.399 . S
C1089 C1094 1.399 . S
C1090 C1089 1.399 . S
C1090 C1091 1.376 . S
C1091 H1078 0.930 . S
C1091 C1090 1.376 . S
C1091 C1092 1.388 . S
C1092 H1079 0.930 . S
C1092 C1091 1.388 . S
C1092 C1093 1.390 . S
C1093 C1092 1.390 . S
C1093 C1094 1.394 . S
C1093 C1099 1.465 . S
C1094 C1089 1.399 . S
C1094 C1093 1.394 . S
C1094 C1095 1.516 . S
C1095 C1094 1.516 . S
C1095 C1096 1.502 . S
C1095 C1097 1.561 . S
C1095 C1098 1.526 . S
C1096 H1080 0.959 . S
C1096 H1081 0.959 . S
C1096 H1082 0.961 . S
C1096 C1095 1.502 . S
C1097 H1083 0.960 . S
C1097 H1084 0.961 . S
C1097 H1085 0.959 . S
C1097 C1095 1.561 . S
C1098 C1095 1.526 . S
C1098 C1099 1.396 . S
C1098 C1103 1.390 . S
C1099 C1093 1.465 . S
C1099 C1098 1.396 . S
C1099 C1100 1.399 . S
C1100 H1086 0.929 . S
C1100 C1099 1.399 . S
C1100 C1101 1.385 . S
C1101 H1087 0.931 . S
C1101 C1100 1.385 . S
C1101 C1102 1.389 . S
C1102 C1101 1.389 . S
C1102 C1103 1.387 . S
C1103 H1088 0.930 . S
C1103 C1098 1.390 . S
C1103 C1102 1.387 . S
H1104 C1116 0.930 . S
H1105 C1118 0.930 . S
H1106 C1119 0.930 . S
H1107 C1123 0.959 . S
H1108 C1123 0.959 . S
H1109 C1123 0.961 . S
H1110 C1124 0.960 . S
H1111 C1124 0.961 . S
H1112 C1124 0.959 . S
H1113 C1127 0.929 . S
H1114 C1128 0.931 . S
H1115 C1130 0.930 . S
C1116 H1104 0.930 . S
C1116 C1117 1.399 . S
C1116 C1121 1.399 . S
C1117 C1116 1.399 . S
C1117 C1118 1.376 . S
C1118 H1105 0.930 . S
C1118 C1117 1.376 . S
C1118 C1119 1.388 . S
C1119 H1106 0.930 . S
C1119 C1118 1.388 . S
C1119 C1120 1.390 . S
C1120 C1119 1.390 . S
C1120 C1121 1.394 . S
C1120 C1126 1.465 . S
C1121 C1116 1.399 . S
C1121 C1120 1.394 . S
C1121 C1122 1.516 . S
C1122 C1121 1.516 . S
C1122 C1123 1.502 . S
C1122 C1124 1.561 . S
C1122 C1125 1.526 . S
C1123 H1107 0.959 . S
C1123 H1108 0.959 . S
C1123 H1109 0.961 . S
C1123 C1122 1.502 . S
C1124 H1110 0.960 . S
C1124 H1111 0.961 . S
C1124 H1112 0.959 . S
C1124 C1122 1.561 . S
C1125 C1122 1.526 . S
C1125 C1126 1.396 . S
C1125 C1130 1.390 . S
C1126 C1120 1.465 . S
C1126 C1125 1.396 . S
C1126 C1127 1.399 . S
C1127 H1113 0.929 . S
C1127 C1126 1.399 . S
C1127 C1128 1.385 . S
C1128 H1114 0.931 . S
C1128 C1127 1.385 . S
C1128 C1129 1.389 . S
C1129 C1128 1.389 . S
C1129 C1130 1.387 . S
C1130 H1115 0.930 . S
C1130 C1125 1.390 . S
C1130 C1129 1.387 . S
H1131 C1143 0.930 . S
H1132 C1145 0.930 . S
H1133 C1146 0.930 . S
H1134 C1150 0.959 . S
H1135 C1150 0.959 . S
H1136 C1150 0.961 . S
H1137 C1151 0.960 . S
H1138 C1151 0.961 . S
H1139 C1151 0.959 . S
H1140 C1154 0.929 . S
H1141 C1155 0.931 . S
H1142 C1157 0.930 . S
C1143 H1131 0.930 . S
C1143 C1144 1.399 . S
C1143 C1148 1.399 . S
C1144 C1143 1.399 . S
C1144 C1145 1.376 . S
C1145 H1132 0.930 . S
C1145 C1144 1.376 . S
C1145 C1146 1.388 . S
C1146 H1133 0.930 . S
C1146 C1145 1.388 . S
C1146 C1147 1.390 . S
C1147 C1146 1.390 . S
C1147 C1148 1.394 . S
C1147 C1153 1.465 . S
C1148 C1143 1.399 . S
C1148 C1147 1.394 . S
C1148 C1149 1.516 . S
C1149 C1148 1.516 . S
C1149 C1150 1.502 . S
C1149 C1151 1.561 . S
C1149 C1152 1.526 . S
C1150 H1134 0.959 . S
C1150 H1135 0.959 . S
C1150 H1136 0.961 . S
C1150 C1149 1.502 . S
C1151 H1137 0.960 . S
C1151 H1138 0.961 . S
C1151 H1139 0.959 . S
C1151 C1149 1.561 . S
C1152 C1149 1.526 . S
C1152 C1153 1.396 . S
C1152 C1157 1.390 . S
C1153 C1147 1.465 . S
C1153 C1152 1.396 . S
C1153 C1154 1.399 . S
C1154 H1140 0.929 . S
C1154 C1153 1.399 . S
C1154 C1155 1.385 . S
C1155 H1141 0.931 . S
C1155 C1154 1.385 . S
C1155 C1156 1.389 . S
C1156 C1155 1.389 . S
C1156 C1157 1.387 . S
C1157 H1142 0.930 . S
C1157 C1152 1.390 . S
C1157 C1156 1.387 . S
H1158 C1170 0.930 . S
H1159 C1172 0.930 . S
H1160 C1173 0.930 . S
H1161 C1177 0.959 . S
H1162 C1177 0.959 . S
H1163 C1177 0.961 . S
H1164 C1178 0.960 . S
H1165 C1178 0.961 . S
H1166 C1178 0.959 . S
H1167 C1181 0.929 . S
H1168 C1182 0.931 . S
H1169 C1184 0.930 . S
C1170 H1158 0.930 . S
C1170 C1171 1.399 . S
C1170 C1175 1.399 . S
C1171 C1170 1.399 . S
C1171 C1172 1.376 . S
C1172 H1159 0.930 . S
C1172 C1171 1.376 . S
C1172 C1173 1.388 . S
C1173 H1160 0.930 . S
C1173 C1172 1.388 . S
C1173 C1174 1.390 . S
C1174 C1173 1.390 . S
C1174 C1175 1.394 . S
C1174 C1180 1.465 . S
C1175 C1170 1.399 . S
C1175 C1174 1.394 . S
C1175 C1176 1.516 . S
C1176 C1175 1.516 . S
C1176 C1177 1.502 . S
C1176 C1178 1.561 . S
C1176 C1179 1.526 . S
C1177 H1161 0.959 . S
C1177 H1162 0.959 . S
C1177 H1163 0.961 . S
C1177 C1176 1.502 . S
C1178 H1164 0.960 . S
C1178 H1165 0.961 . S
C1178 H1166 0.959 . S
C1178 C1176 1.561 . S
C1179 C1176 1.526 . S
C1179 C1180 1.396 . S
C1179 C1184 1.390 . S
C1180 C1174 1.465 . S
C1180 C1179 1.396 . S
C1180 C1181 1.399 . S
C1181 H1167 0.929 . S
C1181 C1180 1.399 . S
C1181 C1182 1.385 . S
C1182 H1168 0.931 . S
C1182 C1181 1.385 . S
C1182 C1183 1.389 . S
C1183 C1182 1.389 . S
C1183 C1184 1.387 . S
C1184 H1169 0.930 . S
C1184 C1179 1.390 . S
C1184 C1183 1.387 . S
H1185 C1197 0.930 . S
H1186 C1199 0.930 . S
H1187 C1200 0.930 . S
H1188 C1204 0.959 . S
H1189 C1204 0.959 . S
H1190 C1204 0.961 . S
H1191 C1205 0.960 . S
H1192 C1205 0.961 . S
H1193 C1205 0.959 . S
H1194 C1208 0.929 . S
H1195 C1209 0.931 . S
H1196 C1211 0.930 . S
C1197 H1185 0.930 . S
C1197 C1198 1.399 . S
C1197 C1202 1.399 . S
C1198 C1197 1.399 . S
C1198 C1199 1.376 . S
C1199 H1186 0.930 . S
C1199 C1198 1.376 . S
C1199 C1200 1.388 . S
C1200 H1187 0.930 . S
C1200 C1199 1.388 . S
C1200 C1201 1.390 . S
C1201 C1200 1.390 . S
C1201 C1202 1.394 . S
C1201 C1207 1.465 . S
C1202 C1197 1.399 . S
C1202 C1201 1.394 . S
C1202 C1203 1.516 . S
C1203 C1202 1.516 . S
C1203 C1204 1.502 . S
C1203 C1205 1.561 . S
C1203 C1206 1.526 . S
C1204 H1188 0.959 . S
C1204 H1189 0.959 . S
C1204 H1190 0.961 . S
C1204 C1203 1.502 . S
C1205 H1191 0.960 . S
C1205 H1192 0.961 . S
C1205 H1193 0.959 . S
C1205 C1203 1.561 . S
C1206 C1203 1.526 . S
C1206 C1207 1.396 . S
C1206 C1211 1.390 . S
C1207 C1201 1.465 . S
C1207 C1206 1.396 . S
C1207 C1208 1.399 . S
C1208 H1194 0.929 . S
C1208 C1207 1.399 . S
C1208 C1209 1.385 . S
C1209 H1195 0.931 . S
C1209 C1208 1.385 . S
C1209 C1210 1.389 . S
C1210 C1209 1.389 . S
C1210 C1211 1.387 . S
C1211 H1196 0.930 . S
C1211 C1206 1.390 . S
C1211 C1210 1.387 . S
H1212 C1224 0.930 . S
H1213 C1226 0.930 . S
H1214 C1227 0.930 . S
H1215 C1231 0.959 . S
H1216 C1231 0.959 . S
H1217 C1231 0.961 . S
H1218 C1232 0.960 . S
H1219 C1232 0.961 . S
H1220 C1232 0.959 . S
H1221 C1235 0.929 . S
H1222 C1236 0.931 . S
H1223 C1238 0.930 . S
C1224 H1212 0.930 . S
C1224 C1225 1.399 . S
C1224 C1229 1.399 . S
C1225 C1224 1.399 . S
C1225 C1226 1.376 . S
C1226 H1213 0.930 . S
C1226 C1225 1.376 . S
C1226 C1227 1.388 . S
C1227 H1214 0.930 . S
C1227 C1226 1.388 . S
C1227 C1228 1.390 . S
C1228 C1227 1.390 . S
C1228 C1229 1.394 . S
C1228 C1234 1.465 . S
C1229 C1224 1.399 . S
C1229 C1228 1.394 . S
C1229 C1230 1.516 . S
C1230 C1229 1.516 . S
C1230 C1231 1.502 . S
C1230 C1232 1.561 . S
C1230 C1233 1.526 . S
C1231 H1215 0.959 . S
C1231 H1216 0.959 . S
C1231 H1217 0.961 . S
C1231 C1230 1.502 . S
C1232 H1218 0.960 . S
C1232 H1219 0.961 . S
C1232 H1220 0.959 . S
C1232 C1230 1.561 . S
C1233 C1230 1.526 . S
C1233 C1234 1.396 . S
C1233 C1238 1.390 . S
C1234 C1228 1.465 . S
C1234 C1233 1.396 . S
C1234 C1235 1.399 . S
C1235 H1221 0.929 . S
C1235 C1234 1.399 . S
C1235 C1236 1.385 . S
C1236 H1222 0.931 . S
C1236 C1235 1.385 . S
C1236 C1237 1.389 . S
C1237 C1236 1.389 . S
C1237 C1238 1.387 . S
C1238 H1223 0.930 . S
C1238 C1233 1.390 . S
C1238 C1237 1.387 . S
H1239 C1251 0.930 . S
H1240 C1253 0.930 . S
H1241 C1254 0.930 . S
H1242 C1258 0.959 . S
H1243 C1258 0.959 . S
H1244 C1258 0.961 . S
H1245 C1259 0.960 . S
H1246 C1259 0.961 . S
H1247 C1259 0.959 . S
H1248 C1262 0.929 . S
H1249 C1263 0.931 . S
H1250 C1265 0.930 . S
C1251 H1239 0.930 . S
C1251 C1252 1.399 . S
C1251 C1256 1.399 . S
C1252 C1251 1.399 . S
C1252 C1253 1.376 . S
C1253 H1240 0.930 . S
C1253 C1252 1.376 . S
C1253 C1254 1.388 . S
C1254 H1241 0.930 . S
C1254 C1253 1.388 . S
C1254 C1255 1.390 . S
C1255 C1254 1.390 . S
C1255 C1256 1.394 . S
C1255 C1261 1.465 . S
C1256 C1251 1.399 . S
C1256 C1255 1.394 . S
C1256 C1257 1.516 . S
C1257 C1256 1.516 . S
C1257 C1258 1.502 . S
C1257 C1259 1.561 . S
C1257 C1260 1.526 . S
C1258 H1242 0.959 . S
C1258 H1243 0.959 . S
C1258 H1244 0.961 . S
C1258 C1257 1.502 . S
C1259 H1245 0.960 . S
C1259 H1246 0.961 . S
C1259 H1247 0.959 . S
C1259 C1257 1.561 . S
C1260 C1257 1.526 . S
C1260 C1261 1.396 . S
C1260 C1265 1.390 . S
C1261 C1255 1.465 . S
C1261 C1260 1.396 . S
C1261 C1262 1.399 . S
C1262 H1248 0.929 . S
C1262 C1261 1.399 . S
C1262 C1263 1.385 . S
C1263 H1249 0.931 . S
C1263 C1262 1.385 . S
C1263 C1264 1.389 . S
C1264 C1263 1.389 . S
C1264 C1265 1.387 . S
C1265 H1250 0.930 . S
C1265 C1260 1.390 . S
C1265 C1264 1.387 . S
H1266 C1278 0.930 . S
H1267 C1280 0.930 . S
H1268 C1281 0.930 . S
H1269 C1285 0.959 . S
H1270 C1285 0.959 . S
H1271 C1285 0.961 . S
H1272 C1286 0.960 . S
H1273 C1286 0.961 . S
H1274 C1286 0.959 . S
H1275 C1289 0.929 . S
H1276 C1290 0.931 . S
H1277 C1292 0.930 . S
C1278 H1266 0.930 . S
C1278 C1279 1.399 . S
C1278 C1283 1.399 . S
C1279 C1278 1.399 . S
C1279 C1280 1.376 . S
C1280 H1267 0.930 . S
C1280 C1279 1.376 . S
C1280 C1281 1.388 . S
C1281 H1268 0.930 . S
C1281 C1280 1.388 . S
C1281 C1282 1.390 . S
C1282 C1281 1.390 . S
C1282 C1283 1.394 . S
C1282 C1288 1.465 . S
C1283 C1278 1.399 . S
C1283 C1282 1.394 . S
C1283 C1284 1.516 . S
C1284 C1283 1.516 . S
C1284 C1285 1.502 . S
C1284 C1286 1.561 . S
C1284 C1287 1.526 . S
C1285 H1269 0.959 . S
C1285 H1270 0.959 . S
C1285 H1271 0.961 . S
C1285 C1284 1.502 . S
C1286 H1272 0.960 . S
C1286 H1273 0.961 . S
C1286 H1274 0.959 . S
C1286 C1284 1.561 . S
C1287 C1284 1.526 . S
C1287 C1288 1.396 . S
C1287 C1292 1.390 . S
C1288 C1282 1.465 . S
C1288 C1287 1.396 . S
C1288 C1289 1.399 . S
C1289 H1275 0.929 . S
C1289 C1288 1.399 . S
C1289 C1290 1.385 . S
C1290 H1276 0.931 . S
C1290 C1289 1.385 . S
C1290 C1291 1.389 . S
C1291 C1290 1.389 . S
C1291 C1292 1.387 . S
C1292 H1277 0.930 . S
C1292 C1287 1.390 . S
C1292 C1291 1.387 . S
H1293 C1305 0.930 . S
H1294 C1307 0.930 . S
H1295 C1308 0.930 . S
H1296 C1312 0.959 . S
H1297 C1312 0.959 . S
H1298 C1312 0.961 . S
H1299 C1313 0.960 . S
H1300 C1313 0.961 . S
H1301 C1313 0.959 . S
H1302 C1316 0.929 . S
H1303 C1317 0.931 . S
H1304 C1319 0.930 . S
C1305 H1293 0.930 . S
C1305 C1306 1.399 . S
C1305 C1310 1.399 . S
C1306 C1305 1.399 . S
C1306 C1307 1.376 . S
C1307 H1294 0.930 . S
C1307 C1306 1.376 . S
C1307 C1308 1.388 . S
C1308 H1295 0.930 . S
C1308 C1307 1.388 . S
C1308 C1309 1.390 . S
C1309 C1308 1.390 . S
C1309 C1310 1.394 . S
C1309 C1315 1.465 . S
C1310 C1305 1.399 . S
C1310 C1309 1.394 . S
C1310 C1311 1.516 . S
C1311 C1310 1.516 . S
C1311 C1312 1.502 . S
C1311 C1313 1.561 . S
C1311 C1314 1.526 . S
C1312 H1296 0.959 . S
C1312 H1297 0.959 . S
C1312 H1298 0.961 . S
C1312 C1311 1.502 . S
C1313 H1299 0.960 . S
C1313 H1300 0.961 . S
C1313 H1301 0.959 . S
C1313 C1311 1.561 . S
C1314 C1311 1.526 . S
C1314 C1315 1.396 . S
C1314 C1319 1.390 . S
C1315 C1309 1.465 . S
C1315 C1314 1.396 . S
C1315 C1316 1.399 . S
C1316 H1302 0.929 . S
C1316 C1315 1.399 . S
C1316 C1317 1.385 . S
C1317 H1303 0.931 . S
C1317 C1316 1.385 . S
C1317 C1318 1.389 . S
C1318 C1317 1.389 . S
C1318 C1319 1.387 . S
C1319 H1304 0.930 . S
C1319 C1314 1.390 . S
C1319 C1318 1.387 . S
H1320 C1332 0.930 . S
H1321 C1334 0.930 . S
H1322 C1335 0.930 . S
H1323 C1339 0.959 . S
H1324 C1339 0.959 . S
H1325 C1339 0.961 . S
H1326 C1340 0.960 . S
H1327 C1340 0.961 . S
H1328 C1340 0.959 . S
H1329 C1343 0.929 . S
H1330 C1344 0.931 . S
H1331 C1346 0.930 . S
C1332 H1320 0.930 . S
C1332 C1333 1.399 . S
C1332 C1337 1.399 . S
C1333 C1332 1.399 . S
C1333 C1334 1.376 . S
C1334 H1321 0.930 . S
C1334 C1333 1.376 . S
C1334 C1335 1.388 . S
C1335 H1322 0.930 . S
C1335 C1334 1.388 . S
C1335 C1336 1.390 . S
C1336 C1335 1.390 . S
C1336 C1337 1.394 . S
C1336 C1342 1.465 . S
C1337 C1332 1.399 . S
C1337 C1336 1.394 . S
C1337 C1338 1.516 . S
C1338 C1337 1.516 . S
C1338 C1339 1.502 . S
C1338 C1340 1.561 . S
C1338 C1341 1.526 . S
C1339 H1323 0.959 . S
C1339 H1324 0.959 . S
C1339 H1325 0.961 . S
C1339 C1338 1.502 . S
C1340 H1326 0.960 . S
C1340 H1327 0.961 . S
C1340 H1328 0.959 . S
C1340 C1338 1.561 . S
C1341 C1338 1.526 . S
C1341 C1342 1.396 . S
C1341 C1346 1.390 . S
C1342 C1336 1.465 . S
C1342 C1341 1.396 . S
C1342 C1343 1.399 . S
C1343 H1329 0.929 . S
C1343 C1342 1.399 . S
C1343 C1344 1.385 . S
C1344 H1330 0.931 . S
C1344 C1343 1.385 . S
C1344 C1345 1.389 . S
C1345 C1344 1.389 . S
C1345 C1346 1.387 . S
C1346 H1331 0.930 . S
C1346 C1341 1.390 . S
C1346 C1345 1.387 . S
H1347 C1359 0.930 . S
H1348 C1361 0.930 . S
H1349 C1362 0.930 . S
H1350 C1366 0.959 . S
H1351 C1366 0.959 . S
H1352 C1366 0.961 . S
H1353 C1367 0.960 . S
H1354 C1367 0.961 . S
H1355 C1367 0.959 . S
H1356 C1370 0.929 . S
H1357 C1371 0.931 . S
H1358 C1373 0.930 . S
C1359 H1347 0.930 . S
C1359 C1360 1.399 . S
C1359 C1364 1.399 . S
C1360 C1359 1.399 . S
C1360 C1361 1.376 . S
C1361 H1348 0.930 . S
C1361 C1360 1.376 . S
C1361 C1362 1.388 . S
C1362 H1349 0.930 . S
C1362 C1361 1.388 . S
C1362 C1363 1.390 . S
C1363 C1362 1.390 . S
C1363 C1364 1.394 . S
C1363 C1369 1.465 . S
C1364 C1359 1.399 . S
C1364 C1363 1.394 . S
C1364 C1365 1.516 . S
C1365 C1364 1.516 . S
C1365 C1366 1.502 . S
C1365 C1367 1.561 . S
C1365 C1368 1.526 . S
C1366 H1350 0.959 . S
C1366 H1351 0.959 . S
C1366 H1352 0.961 . S
C1366 C1365 1.502 . S
C1367 H1353 0.960 . S
C1367 H1354 0.961 . S
C1367 H1355 0.959 . S
C1367 C1365 1.561 . S
C1368 C1365 1.526 . S
C1368 C1369 1.396 . S
C1368 C1373 1.390 . S
C1369 C1363 1.465 . S
C1369 C1368 1.396 . S
C1369 C1370 1.399 . S
C1370 H1356 0.929 . S
C1370 C1369 1.399 . S
C1370 C1371 1.385 . S
C1371 H1357 0.931 . S
C1371 C1370 1.385 . S
C1371 C1372 1.389 . S
C1372 C1371 1.389 . S
C1372 C1373 1.387 . S
C1373 H1358 0.930 . S
C1373 C1368 1.390 . S
C1373 C1372 1.387 . S
H1374 C1386 0.930 . S
H1375 C1388 0.930 . S
H1376 C1389 0.930 . S
H1377 C1393 0.959 . S
H1378 C1393 0.959 . S
H1379 C1393 0.961 . S
H1380 C1394 0.960 . S
H1381 C1394 0.961 . S
H1382 C1394 0.959 . S
H1383 C1397 0.929 . S
H1384 C1398 0.931 . S
H1385 C1400 0.930 . S
C1386 H1374 0.930 . S
C1386 C1387 1.399 . S
C1386 C1391 1.399 . S
C1387 C1386 1.399 . S
C1387 C1388 1.376 . S
C1388 H1375 0.930 . S
C1388 C1387 1.376 . S
C1388 C1389 1.388 . S
C1389 H1376 0.930 . S
C1389 C1388 1.388 . S
C1389 C1390 1.390 . S
C1390 C1389 1.390 . S
C1390 C1391 1.394 . S
C1390 C1396 1.465 . S
C1391 C1386 1.399 . S
C1391 C1390 1.394 . S
C1391 C1392 1.516 . S
C1392 C1391 1.516 . S
C1392 C1393 1.502 . S
C1392 C1394 1.561 . S
C1392 C1395 1.526 . S
C1393 H1377 0.959 . S
C1393 H1378 0.959 . S
C1393 H1379 0.961 . S
C1393 C1392 1.502 . S
C1394 H1380 0.960 . S
C1394 H1381 0.961 . S
C1394 H1382 0.959 . S
C1394 C1392 1.561 . S
C1395 C1392 1.526 . S
C1395 C1396 1.396 . S
C1395 C1400 1.390 . S
C1396 C1390 1.465 . S
C1396 C1395 1.396 . S
C1396 C1397 1.399 . S
C1397 H1383 0.929 . S
C1397 C1396 1.399 . S
C1397 C1398 1.385 . S
C1398 H1384 0.931 . S
C1398 C1397 1.385 . S
C1398 C1399 1.389 . S
C1399 C1398 1.389 . S
C1399 C1400 1.387 . S
C1400 H1385 0.930 . S
C1400 C1395 1.390 . S
C1400 C1399 1.387 . S
H1401 C1413 0.930 . S
H1402 C1415 0.930 . S
H1403 C1416 0.930 . S
H1404 C1420 0.959 . S
H1405 C1420 0.959 . S
H1406 C1420 0.961 . S
H1407 C1421 0.960 . S
H1408 C1421 0.961 . S
H1409 C1421 0.959 . S
H1410 C1424 0.929 . S
H1411 C1425 0.931 . S
H1412 C1427 0.930 . S
C1413 H1401 0.930 . S
C1413 C1414 1.399 . S
C1413 C1418 1.399 . S
C1414 C1413 1.399 . S
C1414 C1415 1.376 . S
C1415 H1402 0.930 . S
C1415 C1414 1.376 . S
C1415 C1416 1.388 . S
C1416 H1403 0.930 . S
C1416 C1415 1.388 . S
C1416 C1417 1.390 . S
C1417 C1416 1.390 . S
C1417 C1418 1.394 . S
C1417 C1423 1.465 . S
C1418 C1413 1.399 . S
C1418 C1417 1.394 . S
C1418 C1419 1.516 . S
C1419 C1418 1.516 . S
C1419 C1420 1.502 . S
C1419 C1421 1.561 . S
C1419 C1422 1.526 . S
C1420 H1404 0.959 . S
C1420 H1405 0.959 . S
C1420 H1406 0.961 . S
C1420 C1419 1.502 . S
C1421 H1407 0.960 . S
C1421 H1408 0.961 . S
C1421 H1409 0.959 . S
C1421 C1419 1.561 . S
C1422 C1419 1.526 . S
C1422 C1423 1.396 . S
C1422 C1427 1.390 . S
C1423 C1417 1.465 . S
C1423 C1422 1.396 . S
C1423 C1424 1.399 . S
C1424 H1410 0.929 . S
C1424 C1423 1.399 . S
C1424 C1425 1.385 . S
C1425 H1411 0.931 . S
C1425 C1424 1.385 . S
C1425 C1426 1.389 . S
C1426 C1425 1.389 . S
C1426 C1427 1.387 . S
C1427 H1412 0.930 . S
C1427 C1422 1.390 . S
C1427 C1426 1.387 . S
H1428 C1440 0.930 . S
H1429 C1442 0.930 . S
H1430 C1443 0.930 . S
H1431 C1447 0.959 . S
H1432 C1447 0.959 . S
H1433 C1447 0.961 . S
H1434 C1448 0.960 . S
H1435 C1448 0.961 . S
H1436 C1448 0.959 . S
H1437 C1451 0.929 . S
H1438 C1452 0.931 . S
H1439 C1454 0.930 . S
C1440 H1428 0.930 . S
C1440 C1441 1.399 . S
C1440 C1445 1.399 . S
C1441 C1440 1.399 . S
C1441 C1442 1.376 . S
C1442 H1429 0.930 . S
C1442 C1441 1.376 . S
C1442 C1443 1.388 . S
C1443 H1430 0.930 . S
C1443 C1442 1.388 . S
C1443 C1444 1.390 . S
C1444 C1443 1.390 . S
C1444 C1445 1.394 . S
C1444 C1450 1.465 . S
C1445 C1440 1.399 . S
C1445 C1444 1.394 . S
C1445 C1446 1.516 . S
C1446 C1445 1.516 . S
C1446 C1447 1.502 . S
C1446 C1448 1.561 . S
C1446 C1449 1.526 . S
C1447 H1431 0.959 . S
C1447 H1432 0.959 . S
C1447 H1433 0.961 . S
C1447 C1446 1.502 . S
C1448 H1434 0.960 . S
C1448 H1435 0.961 . S
C1448 H1436 0.959 . S
C1448 C1446 1.561 . S
C1449 C1446 1.526 . S
C1449 C1450 1.396 . S
C1449 C1454 1.390 . S
C1450 C1444 1.465 . S
C1450 C1449 1.396 . S
C1450 C1451 1.399 . S
C1451 H1437 0.929 . S
C1451 C1450 1.399 . S
C1451 C1452 1.385 . S
C1452 H1438 0.931 . S
C1452 C1451 1.385 . S
C1452 C1453 1.389 . S
C1453 C1452 1.389 . S
C1453 C1454 1.387 . S
C1454 H1439 0.930 . S
C1454 C1449 1.390 . S
C1454 C1453 1.387 . S
H1455 C1467 0.930 . S
H1456 C1469 0.930 . S
H1457 C1470 0.930 . S
H1458 C1474 0.959 . S
H1459 C1474 0.959 . S
H1460 C1474 0.961 . S
H1461 C1475 0.960 . S
H1462 C1475 0.961 . S
H1463 C1475 0.959 . S
H1464 C1478 0.929 . S
H1465 C1479 0.931 . S
H1466 C1481 0.930 . S
C1467 H1455 0.930 . S
C1467 C1468 1.399 . S
C1467 C1472 1.399 . S
C1468 C1467 1.399 . S
C1468 C1469 1.376 . S
C1469 H1456 0.930 . S
C1469 C1468 1.376 . S
C1469 C1470 1.388 . S
C1470 H1457 0.930 . S
C1470 C1469 1.388 . S
C1470 C1471 1.390 . S
C1471 C1470 1.390 . S
C1471 C1472 1.394 . S
C1471 C1477 1.465 . S
C1472 C1467 1.399 . S
C1472 C1471 1.394 . S
C1472 C1473 1.516 . S
C1473 C1472 1.516 . S
C1473 C1474 1.502 . S
C1473 C1475 1.561 . S
C1473 C1476 1.526 . S
C1474 H1458 0.959 . S
C1474 H1459 0.959 . S
C1474 H1460 0.961 . S
C1474 C1473 1.502 . S
C1475 H1461 0.960 . S
C1475 H1462 0.961 . S
C1475 H1463 0.959 . S
C1475 C1473 1.561 . S
C1476 C1473 1.526 . S
C1476 C1477 1.396 . S
C1476 C1481 1.390 . S
C1477 C1471 1.465 . S
C1477 C1476 1.396 . S
C1477 C1478 1.399 . S
C1478 H1464 0.929 . S
C1478 C1477 1.399 . S
C1478 C1479 1.385 . S
C1479 H1465 0.931 . S
C1479 C1478 1.385 . S
C1479 C1480 1.389 . S
C1480 C1479 1.389 . S
C1480 C1481 1.387 . S
C1481 H1466 0.930 . S
C1481 C1476 1.390 . S
C1481 C1480 1.387 . S
H1482 C1494 0.930 . S
H1483 C1496 0.930 . S
H1484 C1497 0.930 . S
H1485 C1501 0.959 . S
H1486 C1501 0.959 . S
H1487 C1501 0.961 . S
H1488 C1502 0.960 . S
H1489 C1502 0.961 . S
H1490 C1502 0.959 . S
H1491 C1505 0.929 . S
H1492 C1506 0.931 . S
H1493 C1508 0.930 . S
C1494 H1482 0.930 . S
C1494 C1495 1.399 . S
C1494 C1499 1.399 . S
C1495 C1494 1.399 . S
C1495 C1496 1.376 . S
C1496 H1483 0.930 . S
C1496 C1495 1.376 . S
C1496 C1497 1.388 . S
C1497 H1484 0.930 . S
C1497 C1496 1.388 . S
C1497 C1498 1.390 . S
C1498 C1497 1.390 . S
C1498 C1499 1.394 . S
C1498 C1504 1.465 . S
C1499 C1494 1.399 . S
C1499 C1498 1.394 . S
C1499 C1500 1.516 . S
C1500 C1499 1.516 . S
C1500 C1501 1.502 . S
C1500 C1502 1.561 . S
C1500 C1503 1.526 . S
C1501 H1485 0.959 . S
C1501 H1486 0.959 . S
C1501 H1487 0.961 . S
C1501 C1500 1.502 . S
C1502 H1488 0.960 . S
C1502 H1489 0.961 . S
C1502 H1490 0.959 . S
C1502 C1500 1.561 . S
C1503 C1500 1.526 . S
C1503 C1504 1.396 . S
C1503 C1508 1.390 . S
C1504 C1498 1.465 . S
C1504 C1503 1.396 . S
C1504 C1505 1.399 . S
C1505 H1491 0.929 . S
C1505 C1504 1.399 . S
C1505 C1506 1.385 . S
C1506 H1492 0.931 . S
C1506 C1505 1.385 . S
C1506 C1507 1.389 . S
C1507 C1506 1.389 . S
C1507 C1508 1.387 . S
C1508 H1493 0.930 . S
C1508 C1503 1.390 . S
C1508 C1507 1.387 . S
H1509 C1521 0.930 . S
H1510 C1523 0.930 . S
H1511 C1524 0.930 . S
H1512 C1528 0.959 . S
H1513 C1528 0.959 . S
H1514 C1528 0.961 . S
H1515 C1529 0.960 . S
H1516 C1529 0.961 . S
H1517 C1529 0.959 . S
H1518 C1532 0.929 . S
H1519 C1533 0.931 . S
H1520 C1535 0.930 . S
C1521 H1509 0.930 . S
C1521 C1522 1.399 . S
C1521 C1526 1.399 . S
C1522 C1521 1.399 . S
C1522 C1523 1.376 . S
C1523 H1510 0.930 . S
C1523 C1522 1.376 . S
C1523 C1524 1.388 . S
C1524 H1511 0.930 . S
C1524 C1523 1.388 . S
C1524 C1525 1.390 . S
C1525 C1524 1.390 . S
C1525 C1526 1.394 . S
C1525 C1531 1.465 . S
C1526 C1521 1.399 . S
C1526 C1525 1.394 . S
C1526 C1527 1.516 . S
C1527 C1526 1.516 . S
C1527 C1528 1.502 . S
C1527 C1529 1.561 . S
C1527 C1530 1.526 . S
C1528 H1512 0.959 . S
C1528 H1513 0.959 . S
C1528 H1514 0.961 . S
C1528 C1527 1.502 . S
C1529 H1515 0.960 . S
C1529 H1516 0.961 . S
C1529 H1517 0.959 . S
C1529 C1527 1.561 . S
C1530 C1527 1.526 . S
C1530 C1531 1.396 . S
C1530 C1535 1.390 . S
C1531 C1525 1.465 . S
C1531 C1530 1.396 . S
C1531 C1532 1.399 . S
C1532 H1518 0.929 . S
C1532 C1531 1.399 . S
C1532 C1533 1.385 . S
C1533 H1519 0.931 . S
C1533 C1532 1.385 . S
C1533 C1534 1.389 . S
C1534 C1533 1.389 . S
C1534 C1535 1.387 . S
C1535 H1520 0.930 . S
C1535 C1530 1.390 . S
C1535 C1534 1.387 . S
C697 C423 1.353 . S
C685 C36 1.324 . S
C724 C460 1.310 . S
C712 C93 1.312 . S
C751 C496 1.373 . S
C739 C126 1.336 . S
C766 C165 1.354 . S
C778 C387 1.363 . S
C793 C222 1.302 . S
C805 C388 1.320 . S
C820 C261 1.285 . S
C832 C424 1.300 . S
C859 C459 1.335 . S
C847 C318 1.347 . S
C886 C495 1.362 . S
C874 C381 1.360 . S
C901 C132 1.278 . S
C913 C567 1.343 . S
C940 C604 1.327 . S
C928 C189 1.351 . S
C955 C30 1.297 . S
C967 C640 1.348 . S
C994 C531 1.363 . S
C982 C69 1.355 . S
C1009 C324 1.289 . S
C1021 C532 1.343 . S
C1036 C357 1.270 . S
C1048 C568 1.329 . S
C1075 C603 1.341 . S
C1063 C228 1.279 . S
C1090 C285 1.326 . S
C1102 C639 1.358 . S
C1129 C458 1.690 . S
C1117 C45 1.693 . S
C1156 C494 1.699 . S
C1144 C84 1.671 . S
C1171 C117 1.654 . S
C1183 C398 1.466 . S
C1198 C174 1.653 . S
C1210 C434 1.513 . S
C1225 C213 1.628 . S
C1237 C506 1.563 . S
C1264 C386 1.695 . S
C1252 C270 1.634 . S
C1291 C422 1.698 . S
C1279 C309 1.697 . S
C1318 C470 1.521 . S
C1306 C372 1.674 . S
C1345 C602 1.693 . S
C1333 C141 1.712 . S
C1372 C638 1.690 . S
C1360 C180 1.679 . S
C1387 C21 1.655 . S
C1399 C542 1.465 . S
C1426 C578 1.526 . S
C1414 C78 1.605 . S
C1453 C650 1.474 . S
C1441 C333 1.650 . S
C1468 C366 1.656 . S
C1480 C530 1.690 . S
C1507 C566 1.689 . S
C1495 C237 1.700 . S
C1534 C614 1.535 . S
C1522 C276 1.671 . S
