# Generated by pormake.
# Topology nom, (4,4)-cn, num edge types: 1
# Building blocks:
#     Node 0, Type 0, BuildingBlock: GIZVER_clean_linker_0, # of connection points: 4
#     Node 1, Type 0, BuildingBlock: GIZVER_clean_linker_0, # of connection points: 4
#     Node 2, Type 0, BuildingBlock: GIZVER_clean_linker_0, # of connection points: 4
#     Node 3, Type 0, BuildingBlock: GIZVER_clean_linker_0, # of connection points: 4
#     Node 4, Type 0, BuildingBlock: GIZVER_clean_linker_0, # of connection points: 4
#     Node 5, Type 0, BuildingBlock: GIZVER_clean_linker_0, # of connection points: 4
#     Node 6, Type 1, BuildingBlock: NAHDIM_clean_sbu_0, # of connection points: 4
#     Node 7, Type 1, BuildingBlock: NAHDIM_clean_sbu_0, # of connection points: 4
#     Node 8, Type 1, BuildingBlock: NAHDIM_clean_sbu_0, # of connection points: 4
#     Node 9, Type 1, BuildingBlock: NAHDIM_clean_sbu_0, # of connection points: 4
#     Node 10, Type 1, BuildingBlock: NAHDIM_clean_sbu_0, # of connection points: 4
#     Node 11, Type 1, BuildingBlock: NAHDIM_clean_sbu_0, # of connection points: 4
#     Edge 12, Type (0, 1), BuildingBlock: AJUNOK_clean_linker_0, # of connection points: 2
#     Edge 13, Type (0, 1), BuildingBlock: AJUNOK_clean_linker_0, # of connection points: 2
#     Edge 14, Type (0, 1), BuildingBlock: AJUNOK_clean_linker_0, # of connection points: 2
#     Edge 15, Type (0, 1), BuildingBlock: AJUNOK_clean_linker_0, # of connection points: 2
#     Edge 16, Type (0, 1), BuildingBlock: AJUNOK_clean_linker_0, # of connection points: 2
#     Edge 17, Type (0, 1), BuildingBlock: AJUNOK_clean_linker_0, # of connection points: 2
#     Edge 18, Type (0, 1), BuildingBlock: AJUNOK_clean_linker_0, # of connection points: 2
#     Edge 19, Type (0, 1), BuildingBlock: AJUNOK_clean_linker_0, # of connection points: 2
#     Edge 20, Type (0, 1), BuildingBlock: AJUNOK_clean_linker_0, # of connection points: 2
#     Edge 21, Type (0, 1), BuildingBlock: AJUNOK_clean_linker_0, # of connection points: 2
#     Edge 22, Type (0, 1), BuildingBlock: AJUNOK_clean_linker_0, # of connection points: 2
#     Edge 23, Type (0, 1), BuildingBlock: AJUNOK_clean_linker_0, # of connection points: 2
#     Edge 24, Type (0, 1), BuildingBlock: AJUNOK_clean_linker_0, # of connection points: 2
#     Edge 25, Type (0, 1), BuildingBlock: AJUNOK_clean_linker_0, # of connection points: 2
#     Edge 26, Type (0, 1), BuildingBlock: AJUNOK_clean_linker_0, # of connection points: 2
#     Edge 27, Type (0, 1), BuildingBlock: AJUNOK_clean_linker_0, # of connection points: 2
#     Edge 28, Type (0, 1), BuildingBlock: AJUNOK_clean_linker_0, # of connection points: 2
#     Edge 29, Type (0, 1), BuildingBlock: AJUNOK_clean_linker_0, # of connection points: 2
#     Edge 30, Type (0, 1), BuildingBlock: AJUNOK_clean_linker_0, # of connection points: 2
#     Edge 31, Type (0, 1), BuildingBlock: AJUNOK_clean_linker_0, # of connection points: 2
#     Edge 32, Type (0, 1), BuildingBlock: AJUNOK_clean_linker_0, # of connection points: 2
#     Edge 33, Type (0, 1), BuildingBlock: AJUNOK_clean_linker_0, # of connection points: 2
#     Edge 34, Type (0, 1), BuildingBlock: AJUNOK_clean_linker_0, # of connection points: 2
#     Edge 35, Type (0, 1), BuildingBlock: AJUNOK_clean_linker_0, # of connection points: 2
# Relax obj value: 0.022
# Max RMSD: 0.126
# Mean RMSD: 0.094
data_MOF--net-nom--node1-NAHDIM_clean_sbu_0--node2-GIZVER_clean_linker_0--edge1-AJUNOK_clean_linker_0
_symmetry_space_group_name_H-M    P1
_symmetry_Int_Tables_number       1
_symmetry_cell_setting            triclinic
loop_
_symmetry_equiv_pos_as_xyz
'x, y, z'
_cell_length_a     33.766143
_cell_length_b     34.886852
_cell_length_c     35.178546
_cell_angle_alpha  90.006642
_cell_angle_beta   90.461471
_cell_angle_gamma 121.05987
loop_
_atom_site_label
_atom_site_type_symbol
_atom_site_fract_x
_atom_site_fract_y
_atom_site_fract_z
_atom_type_partial_charge
H0 H 0.95538 0.55438 0.34845 0.0
H1 H 0.99538 0.54104 0.23552 0.0
H2 H 0.86508 0.43916 0.28054 0.0
H3 H 0.02202 0.61669 0.32045 0.0
H4 H 0.02612 0.6169 0.26984 0.0
H5 H 0.05282 0.57232 0.35779 0.0
H6 H 0.1844 0.60136 0.3154 0.0
H7 H 0.09357 0.62218 0.24399 0.0
C8 C 0.94907 0.53485 0.32274 0.0
C9 C 0.90757 0.49362 0.31854 0.0
C10 C 0.98143 0.5517 0.29306 0.0
C11 C 0.97152 0.52721 0.25903 0.0
C12 C 0.92976 0.48631 0.25443 0.0
C13 C 0.89853 0.46941 0.28461 0.0
C14 C 0.02407 0.59779 0.29582 0.0
C15 C 0.06731 0.59545 0.29984 0.0
C16 C 0.07705 0.58203 0.33458 0.0
C17 C 0.11902 0.58353 0.34019 0.0
C18 C 0.15081 0.5976 0.31045 0.0
C19 C 0.14204 0.61173 0.2758 0.0
C20 C 0.09999 0.61024 0.27041 0.0
H21 H 0.41989 0.95677 0.51867 0.0
H22 H 0.46664 0.98832 0.40324 0.0
H23 H 0.45538 0.8726 0.45712 0.0
H24 H 0.41087 1.01145 0.48386 0.0
H25 H 0.42126 0.01752 0.43397 0.0
H26 H 0.4786 0.05173 0.5298 0.0
H27 H 0.58513 0.18036 0.49004 0.0
H28 H 0.48831 0.08317 0.41048 0.0
C29 C 0.43422 0.95048 0.49362 0.0
C30 C 0.43798 0.91225 0.49207 0.0
C31 C 0.44614 0.97899 0.46196 0.0
C32 C 0.46097 0.96836 0.42848 0.0
C33 C 0.46398 0.92974 0.42646 0.0
C34 C 0.45442 0.90316 0.45892 0.0
C35 C 0.43672 0.01684 0.46184 0.0
C36 C 0.48026 0.06137 0.46907 0.0
C37 C 0.49671 0.07429 0.50652 0.0
C38 C 0.53397 0.11751 0.51425 0.0
C39 C 0.5566 0.14676 0.48406 0.0
C40 C 0.54006 0.13493 0.44673 0.0
C41 C 0.50204 0.09199 0.43919 0.0
H42 H 0.41068 0.49315 0.57404 0.0
H43 H 0.4439 0.48211 0.6905 0.0
H44 H 0.43115 0.59329 0.65564 0.0
H45 H 0.40252 0.42427 0.5957 0.0
H46 H 0.40078 0.4148 0.64562 0.0
H47 H 0.47558 0.45416 0.56066 0.0
H48 H 0.57895 0.43369 0.61245 0.0
H49 H 0.46681 0.42057 0.67929 0.0
C50 C 0.42066 0.50713 0.60245 0.0
C51 C 0.42236 0.54723 0.61121 0.0
C52 C 0.42936 0.48387 0.63086 0.0
C53 C 0.43938 0.50097 0.66816 0.0
C54 C 0.44073 0.54082 0.6772 0.0
C55 C 0.43308 0.56407 0.6484 0.0
C56 C 0.42219 0.43822 0.62273 0.0
C57 C 0.46758 0.43968 0.62063 0.0
C58 C 0.49059 0.44831 0.5857 0.0
C59 C 0.53065 0.44581 0.58247 0.0
C60 C 0.54853 0.43649 0.61492 0.0
C61 C 0.52553 0.4268 0.64972 0.0
C62 C 0.48527 0.42894 0.65264 0.0
H63 H 0.93995 0.38963 0.74563 0.0
H64 H 0.99275 0.4378 0.85841 0.0
H65 H 0.85574 0.4057 0.82746 0.0
H66 H 1.00744 0.38998 0.76717 0.0
H67 H 0.01871 0.39363 0.81703 0.0
H68 H 0.03805 0.46247 0.72954 0.0
H69 H 0.17395 0.56373 0.76674 0.0
H70 H 0.08434 0.45901 0.8432 0.0
C71 C 0.93575 0.40013 0.77354 0.0
C72 C 0.89381 0.39706 0.78291 0.0
C73 C 0.97153 0.41467 0.80076 0.0
C74 C 0.96575 0.42771 0.83709 0.0
C75 C 0.92441 0.42567 0.84652 0.0
C76 C 0.88884 0.41035 0.81931 0.0
C77 C 1.01325 0.41099 0.79282 0.0
C78 C 0.05614 0.45624 0.78722 0.0
C79 C 0.06401 0.47759 0.75187 0.0
C80 C 0.10614 0.51706 0.74465 0.0
C81 C 0.14023 0.53512 0.77321 0.0
C82 C 0.13298 0.51453 0.8088 0.0
C83 C 0.09032 0.47545 0.81592 0.0
H84 H 0.62765 0.09593 0.02514 0.0
H85 H 0.58755 0.05132 0.90946 0.0
H86 H 0.61164 0.17966 0.94484 0.0
H87 H 0.63154 0.03315 0.002 0.0
H88 H 0.62843 0.02327 0.95203 0.0
H89 H 0.55719 1.00094 0.03944 0.0
H90 H 0.45113 0.8717 -0.0013 0.0
H91 H 0.56104 0.96027 0.92457 0.0
C92 C 0.61756 0.10071 -0.00297 0.0
C93 C 0.6189 0.14069 -0.01138 0.0
C94 C 0.60568 0.06803 0.9686 0.0
C95 C 0.59517 0.07575 0.9317 0.0
C96 C 0.59736 0.11606 0.92291 0.0
C97 C 0.60792 0.14766 0.9518 0.0
C98 C 0.61007 0.02782 0.97613 0.0
C99 C 0.56345 0.98594 0.98107 0.0
C100 C 0.54145 0.97682 0.01646 0.0
C101 C 0.50085 0.9356 0.02296 0.0
C102 C 0.48129 0.90435 -0.00675 0.0
C103 C 0.50281 0.91278 0.9578 0.0
C104 C 0.54369 0.95392 0.95165 0.0
H105 H 0.62302 0.55468 0.07787 0.0
H106 H 0.59438 0.56581 0.1951 0.0
H107 H 0.61332 0.45859 0.15917 0.0
H108 H 0.6304 0.62316 0.10071 0.0
H109 H 0.63145 0.63231 0.15065 0.0
H110 H 0.55689 0.58853 0.06462 0.0
H111 H 0.44988 0.60437 0.11356 0.0
H112 H 0.56435 0.6241 0.18266 0.0
C113 C 0.61542 0.54128 0.10644 0.0
C114 C 0.61664 0.50257 0.11488 0.0
C115 C 0.60675 0.56392 0.13527 0.0
C116 C 0.59958 0.54762 0.17264 0.0
C117 C 0.60216 0.50972 0.18152 0.0
C118 C 0.60931 0.48673 0.15227 0.0
C119 C 0.611 0.60837 0.12741 0.0
C120 C 0.5642 0.60389 0.12449 0.0
C121 C 0.54101 0.59362 0.08924 0.0
C122 C 0.49986 0.59408 0.08499 0.0
C123 C 0.48098 0.60279 0.11686 0.0
C124 C 0.50431 0.61437 0.15192 0.0
C125 C 0.54558 0.61411 0.15585 0.0
C126 C 0.62243 0.30417 0.37154 0.0
O127 O 0.66333 0.32388 0.35565 0.0
O128 O 0.70561 0.42606 0.37659 0.0
Zn129 Zn 0.63614 0.39513 0.38178 0.0
O130 O 0.61923 0.41296 0.43089 0.0
C131 C 0.63486 0.45453 0.32778 0.0
O132 O 0.67123 0.48222 0.34835 0.0
O133 O 0.60596 0.32766 0.38307 0.0
C134 C 0.60273 0.43833 0.43463 0.0
O135 O 0.59689 0.45713 0.40451 0.0
C136 C 0.73311 0.41756 0.39438 0.0
O137 O 0.71679 0.38583 0.42009 0.0
O138 O 0.61229 0.41344 0.33693 0.0
C139 C 0.3368 0.74231 0.56563 0.0
O140 O 0.35314 0.72426 0.58895 0.0
O141 O 0.29654 0.62035 0.55396 0.0
Zn142 Zn 0.25866 0.65003 0.55075 0.0
O143 O 0.21795 0.62952 0.50421 0.0
C144 C 0.18531 0.59086 0.59864 0.0
O145 O 0.17886 0.5637 0.57025 0.0
O146 O 0.29873 0.71741 0.5482 0.0
C147 C 0.20861 0.59566 0.48394 0.0
O148 O 0.22646 0.5712 0.49322 0.0
C149 C 0.33667 0.63486 0.54058 0.0
O150 O 0.35711 0.67255 0.52155 0.0
O151 O 0.21813 0.63138 0.59673 0.0
C152 C 0.60129 0.33755 0.73198 0.0
O153 O 0.6447 0.35944 0.7433 0.0
O154 O 0.68377 0.30361 0.72934 0.0
Zn155 Zn 0.61464 0.26114 0.72504 0.0
O156 O 0.59835 0.22819 0.67501 0.0
C157 C 0.61676 0.19927 0.77657 0.0
O158 O 0.65127 0.20723 0.75442 0.0
O159 O 0.58189 0.29596 0.72465 0.0
C160 C 0.58349 0.18707 0.66855 0.0
O161 O 0.57902 0.16055 0.69677 0.0
C162 C 0.71341 0.29806 0.71206 0.0
O163 O 0.69919 0.26413 0.68851 0.0
O164 O 0.59418 0.21846 0.76931 0.0
C165 C 0.42107 0.74331 0.87952 0.0
O166 O 0.37741 0.7224 0.86894 0.0
O167 O 0.33954 0.62686 0.87241 0.0
Zn168 Zn 0.4083 0.65345 0.87985 0.0
O169 O 0.4214 0.63224 0.92899 0.0
C170 C 0.41207 0.59549 0.82433 0.0
O171 O 0.37603 0.56579 0.84358 0.0
O172 O 0.44069 0.72082 0.88434 0.0
C173 C 0.43699 0.60621 0.93353 0.0
O174 O 0.44506 0.58874 0.90371 0.0
C175 C 0.30893 0.58982 0.88661 0.0
O176 O 0.32178 0.56787 0.90888 0.0
O177 O 0.43274 0.63618 0.83496 0.0
C178 C 0.70322 0.41973 0.03885 0.0
O179 O 0.68318 0.38271 0.01858 0.0
O180 O 0.74681 0.34009 0.04505 0.0
Zn181 Zn 0.78382 0.40757 0.0476 0.0
O182 O 0.82687 0.42875 0.09262 0.0
C183 C 0.85389 0.42058 -0.00358 0.0
O184 O 0.8612 0.39922 0.02374 0.0
O185 O 0.74374 0.4347 0.05216 0.0
C186 C 0.83711 0.40478 0.11275 0.0
O187 O 0.81882 0.36223 0.10427 0.0
C188 C 0.70825 0.31332 0.06042 0.0
O189 O 0.6876 0.32916 0.08107 0.0
O190 O 0.82184 0.42914 0.0003 0.0
C191 C 0.42977 0.70643 0.23088 0.0
O192 O 0.39227 0.68712 0.25166 0.0
O193 O 0.34515 0.74649 0.22057 0.0
Zn194 Zn 0.41503 0.78302 0.22217 0.0
O195 O 0.44033 0.82839 0.18038 0.0
C196 C 0.46365 0.85535 0.27834 0.0
O197 O 0.48897 0.87978 0.24984 0.0
O198 O 0.44362 0.74484 0.21681 0.0
C199 C 0.41969 0.84555 0.16369 0.0
O200 O 0.37712 0.8329 0.17321 0.0
C201 C 0.31917 0.70876 0.20464 0.0
O202 O 0.3378 0.68988 0.18533 0.0
O203 O 0.4326 0.81466 0.27248 0.0
C204 C 0.20307 0.61249 0.23551 0.0
C205 C 0.18058 0.63444 0.24855 0.0
C206 C 0.24655 0.63635 0.21826 0.0
C207 C 0.26944 0.68313 0.21428 0.0
H208 H 0.18812 0.57705 0.2407 0.0
H209 H 0.2637 0.61844 0.21061 0.0
S210 S 0.22282 0.75541 0.23987 0.0
N211 N 0.18228 0.70473 0.25304 0.0
N212 N 0.2642 0.74974 0.2211 0.0
C213 C 0.24584 0.70492 0.22481 0.0
C214 C 0.20132 0.68051 0.24183 0.0
C215 C 0.60546 0.19535 0.40989 0.0
C216 C 0.55796 0.17101 0.41807 0.0
C217 C 0.62562 0.2371 0.39185 0.0
C218 C 0.5991 0.25636 0.38229 0.0
H219 H 0.62759 0.18326 0.41961 0.0
H220 H 0.66274 0.25576 0.38799 0.0
S221 S 0.47245 0.20381 0.39413 0.0
N222 N 0.4843 0.16712 0.41219 0.0
N223 N 0.52214 0.24583 0.37889 0.0
C224 C 0.55108 0.23094 0.38807 0.0
C225 C 0.53051 0.18817 0.4058 0.0
C226 C 0.35783 0.54369 0.57371 0.0
C227 C 0.40475 0.5678 0.58437 0.0
C228 C 0.33658 0.56537 0.55752 0.0
C229 C 0.3617 0.61178 0.55085 0.0
H230 H 0.33661 0.50847 0.58051 0.0
H231 H 0.29975 0.54598 0.5517 0.0
S232 S 0.48676 0.68893 0.57009 0.0
N233 N 0.47655 0.63964 0.58466 0.0
N234 N 0.437 0.6804 0.55329 0.0
C235 C 0.40946 0.63562 0.55875 0.0
C236 C 0.43089 0.61361 0.57582 0.0
C237 C 0.82425 0.3937 0.7537 0.0
C238 C 0.85263 0.37524 0.75724 0.0
C239 C 0.78007 0.36932 0.73721 0.0
C240 C 0.76281 0.32579 0.72304 0.0
H241 H 0.83539 0.42646 0.76551 0.0
H242 H 0.75863 0.38408 0.7368 0.0
S243 S 0.82442 0.26327 0.72273 0.0
N244 N 0.86099 0.31144 0.74347 0.0
N245 N 0.77859 0.26627 0.71125 0.0
C246 C 0.79196 0.30807 0.72394 0.0
C247 C 0.83677 0.33267 0.74129 0.0
C248 C 0.43818 0.85168 0.9198 0.0
C249 C 0.4853 0.87545 0.92997 0.0
C250 C 0.41831 0.81029 0.90099 0.0
C251 C 0.44469 0.79076 0.8922 0.0
H252 H 0.41604 0.86415 0.92818 0.0
H253 H 0.38142 0.79235 0.89543 0.0
S254 S 0.57086 0.84211 0.90901 0.0
N255 N 0.55874 0.87856 0.92699 0.0
N256 N 0.5216 0.80082 0.89163 0.0
C257 C 0.49256 0.81571 0.89993 0.0
C258 C 0.51282 0.85805 0.91881 0.0
C259 C 0.68019 0.50824 0.07554 0.0
C260 C 0.63394 0.4829 0.08714 0.0
C261 C 0.70168 0.48778 0.05788 0.0
C262 C 0.67743 0.44142 0.05063 0.0
H263 H 0.70083 0.54352 0.0826 0.0
H264 H 0.73812 0.5081 0.05133 0.0
S265 S 0.55415 0.36129 0.07209 0.0
N266 N 0.56356 0.40992 0.0879 0.0
N267 N 0.60351 0.37145 0.05369 0.0
C268 C 0.63018 0.41632 0.05958 0.0
C269 C 0.60856 0.43707 0.07818 0.0
C270 C 0.36727 0.8545 0.52479 0.0
C271 C 0.41544 0.8761 0.52055 0.0
C272 C 0.34232 0.81219 0.54162 0.0
C273 C 0.36471 0.79023 0.55532 0.0
H274 H 0.34828 0.8687 0.51226 0.0
H275 H 0.30496 0.7956 0.5422 0.0
S276 S 0.49114 0.83545 0.55532 0.0
N277 N 0.48516 0.87461 0.53445 0.0
N278 N 0.43846 0.7954 0.5669 0.0
C279 C 0.41329 0.81319 0.55415 0.0
C280 C 0.43862 0.85604 0.53651 0.0
C281 C 0.58702 0.43053 0.69219 0.0
C282 C 0.5405 0.40763 0.68024 0.0
C283 C 0.60559 0.40842 0.71199 0.0
C284 C 0.57846 0.36237 0.71996 0.0
H285 H 0.60992 0.46504 0.68395 0.0
H286 H 0.64226 0.42687 0.71852 0.0
S287 S 0.45295 0.28901 0.69955 0.0
N288 N 0.46644 0.33793 0.6815 0.0
N289 N 0.50116 0.29618 0.71867 0.0
C290 C 0.53092 0.34012 0.71101 0.0
C291 C 0.51198 0.36281 0.69116 0.0
C292 C 0.20108 0.57838 0.84174 0.0
C293 C 0.17261 0.53189 0.83599 0.0
C294 C 0.24419 0.59671 0.85993 0.0
C295 C 0.26028 0.56926 0.87363 0.0
H296 H 0.19094 0.60096 0.83039 0.0
H297 H 0.26579 0.63279 0.86206 0.0
S298 S 0.19759 0.44525 0.86859 0.0
N299 N 0.16266 0.45865 0.84731 0.0
N300 N 0.243 0.49303 0.88268 0.0
C301 C 0.23084 0.52257 0.87051 0.0
C302 C 0.18713 0.50389 0.85146 0.0
C303 C 0.61417 0.19924 0.02577 0.0
C304 C 0.6393 0.17895 0.01546 0.0
C305 C 0.63615 0.24159 0.04323 0.0
C306 C 0.68417 0.2654 0.04995 0.0
H307 H 0.57779 0.18328 0.01848 0.0
H308 H 0.61599 0.257 0.04899 0.0
S309 S 0.76456 0.22504 0.0313 0.0
N310 N 0.7138 0.18407 0.01599 0.0
N311 N 0.75535 0.26397 0.04806 0.0
C312 C 0.7091 0.2443 0.04176 0.0
C313 C 0.68658 0.20094 0.02468 0.0
C314 C 0.44348 0.61219 0.19359 0.0
C315 C 0.48952 0.63501 0.18102 0.0
C316 C 0.42516 0.63494 0.21258 0.0
C317 C 0.45204 0.68143 0.2188 0.0
H318 H 0.42078 0.5771 0.1867 0.0
H319 H 0.38888 0.61658 0.21992 0.0
S320 S 0.57586 0.75548 0.1951 0.0
N321 N 0.56265 0.70567 0.17923 0.0
N322 N 0.5282 0.74853 0.21445 0.0
C323 C 0.49894 0.70394 0.20865 0.0
C324 C 0.51771 0.68068 0.1899 0.0
C325 C 0.84624 0.50209 0.34878 0.0
C326 C 0.86956 0.47855 0.3461 0.0
C327 C 0.80302 0.48294 0.36633 0.0
C328 C 0.78196 0.43986 0.3823 0.0
H329 H 0.85998 0.53419 0.33493 0.0
H330 H 0.7851 0.50127 0.366 0.0
S331 S 0.83136 0.36644 0.38557 0.0
N332 N 0.8703 0.41144 0.36269 0.0
N333 N 0.78959 0.37574 0.39671 0.0
C334 C 0.80653 0.41733 0.38208 0.0
C335 C 0.85019 0.43658 0.36362 0.0
C336 C 0.1336 0.60526 0.40849 0.0
C337 C 0.13391 0.57864 0.37868 0.0
C338 C 0.15627 0.60898 0.44296 0.0
C339 C 0.18004 0.58612 0.44904 0.0
H340 H 0.11804 0.62547 0.40441 0.0
H341 H 0.15646 0.63128 0.46449 0.0
S342 S 0.18583 0.50747 0.38137 0.0
N343 N 0.15584 0.52563 0.35844 0.0
N344 N 0.19858 0.53242 0.42336 0.0
C345 C 0.17801 0.55704 0.42029 0.0
C346 C 0.15499 0.55343 0.38506 0.0
C347 C 0.55517 0.11183 0.58179 0.0
C348 C 0.5455 0.13466 0.55379 0.0
C349 C 0.56723 0.12881 0.61902 0.0
C350 C 0.57004 0.16917 0.62937 0.0
H351 H 0.55409 0.08108 0.57472 0.0
H352 H 0.57503 0.11052 0.63964 0.0
S353 S 0.54251 0.23866 0.5673 0.0
N354 N 0.53546 0.19737 0.53963 0.0
N355 N 0.55877 0.22965 0.60906 0.0
C356 C 0.55919 0.19158 0.60174 0.0
C357 C 0.5467 0.17419 0.5641 0.0
C358 C 0.40861 0.523 0.74262 0.0
C359 C 0.44131 0.55421 0.71729 0.0
C360 C 0.40098 0.5365 0.77789 0.0
C361 C 0.42573 0.58177 0.78924 0.0
H362 H 0.38672 0.48827 0.73422 0.0
H363 H 0.37402 0.51137 0.79565 0.0
S364 S 0.52011 0.6755 0.73523 0.0
N365 N 0.50224 0.63135 0.7074 0.0
N366 N 0.48801 0.65708 0.77373 0.0
C367 C 0.46082 0.61286 0.7652 0.0
C368 C 0.46853 0.599 0.72922 0.0
C369 C 0.92097 0.40927 0.91585 0.0
C370 C 0.91483 0.4327 0.88614 0.0
C371 C 0.90322 0.40756 0.95206 0.0
C372 C 0.87842 0.42898 0.95983 0.0
H373 H 0.93713 0.38986 0.91054 0.0
H374 H 0.90698 0.38731 0.97347 0.0
S375 S 0.85994 0.50103 0.89327 0.0
N376 N 0.88776 0.48256 0.86798 0.0
N377 N 0.85381 0.47902 0.93594 0.0
C378 C 0.87498 0.45518 0.93106 0.0
C379 C 0.89331 0.4571 0.89425 0.0
C380 C 0.43453 0.90134 0.06813 0.0
C381 C 0.48227 0.92142 0.06177 0.0
C382 C 0.41476 0.87912 0.10226 0.0
C383 C 0.44198 0.87562 0.13095 0.0
H384 H 0.41206 0.90113 0.04587 0.0
H385 H 0.37759 0.86248 0.10522 0.0
S386 S 0.56939 0.92638 0.12971 0.0
N387 N 0.55672 0.93931 0.08804 0.0
N388 N 0.51978 0.89788 0.15221 0.0
C389 C 0.49015 0.89793 0.12583 0.0
C390 C 0.51026 0.92079 0.09124 0.0
C391 C 0.57956 0.45264 0.23286 0.0
C392 C 0.60484 0.49766 0.22149 0.0
C393 C 0.58803 0.43925 0.26804 0.0
C394 C 0.62239 0.47035 0.29309 0.0
H395 H 0.55421 0.42733 0.21376 0.0
H396 H 0.5687 0.40396 0.27491 0.0
S397 S 0.69588 0.59293 0.27773 0.0
N398 N 0.66397 0.57371 0.23875 0.0
N399 N 0.67943 0.54888 0.30508 0.0
C400 C 0.64622 0.51587 0.28285 0.0
C401 C 0.63754 0.52945 0.24703 0.0
C402 C 0.4351 0.86719 0.37979 0.0
C403 C 0.46771 0.91193 0.38919 0.0
C404 C 0.43515 0.84926 0.34438 0.0
C405 C 0.46751 0.87533 0.31644 0.0
H406 H 0.4083 0.84594 0.39963 0.0
H407 H 0.40866 0.81478 0.33871 0.0
S408 S 0.5618 0.99401 0.32745 0.0
N409 N 0.53453 0.98161 0.36848 0.0
N410 N 0.53439 0.94812 0.30118 0.0
C411 C 0.50095 0.92005 0.32559 0.0
C412 C 0.50099 0.93833 0.36203 0.0
C413 C 0.55993 0.41257 0.53584 0.0
C414 C 0.55031 0.44629 0.54471 0.0
C415 C 0.57772 0.41103 0.50056 0.0
C416 C 0.58611 0.44277 0.4723 0.0
H417 H 0.55289 0.3865 0.55615 0.0
H418 H 0.58393 0.38399 0.4952 0.0
S419 S 0.56858 0.53904 0.48159 0.0
N420 N 0.55209 0.51324 0.5229 0.0
N421 N 0.58464 0.50983 0.45588 0.0
C422 C 0.57688 0.47688 0.48071 0.0
C423 C 0.55909 0.47869 0.517 0.0
C424 C 0.11291 0.50825 0.67504 0.0
C425 C 0.11809 0.53613 0.70588 0.0
C426 C 0.13275 0.52629 0.6398 0.0
C427 C 0.15876 0.5729 0.63416 0.0
H428 H 0.09585 0.47236 0.67876 0.0
H429 H 0.12961 0.50345 0.61749 0.0
S430 S 0.17555 0.65981 0.70418 0.0
N431 N 0.14563 0.61212 0.72725 0.0
N432 N 0.18354 0.64627 0.66113 0.0
C433 C 0.16132 0.60098 0.664 0.0
C434 C 0.14085 0.58254 0.69982 0.0
C435 C 0.56971 0.14839 0.87322 0.0
C436 C 0.59608 0.1291 0.883 0.0
C437 C 0.57496 0.16913 0.83795 0.0
C438 C 0.60709 0.17169 0.81125 0.0
H439 H 0.54616 0.149 0.89361 0.0
H440 H 0.55503 0.18487 0.83233 0.0
S441 S 0.6821 0.12327 0.8222 0.0
N442 N 0.65364 0.11169 0.86255 0.0
N443 N 0.66313 0.14993 0.79611 0.0
C444 C 0.63185 0.15032 0.81995 0.0
C445 C 0.62641 0.12918 0.85584 0.0
C446 C 0.47084 0.62701 0.03751 0.0
C447 C 0.48102 0.5937 0.0466 0.0
C448 C 0.45554 0.62982 0.00124 0.0
C449 C 0.45033 0.59984 0.97218 0.0
H450 H 0.47592 0.65206 0.05835 0.0
H451 H 0.44902 0.65665 -0.00421 0.0
S452 S 0.46979 0.50478 0.98172 0.0
N453 N 0.48261 0.52862 0.02419 0.0
N454 N 0.4547 0.53443 0.95532 0.0
C455 C 0.4597 0.56587 0.98088 0.0
C456 C 0.47495 0.56275 0.01818 0.0
C457 C 0.91447 0.49139 0.1859 0.0
C458 C 0.91431 0.46531 0.21638 0.0
C459 C 0.89113 0.47149 0.15189 0.0
C460 C 0.86679 0.42469 0.14696 0.0
H461 H 0.93035 0.52728 0.1891 0.0
H462 H 0.89078 0.49299 0.12985 0.0
S463 S 0.86123 0.3421 0.21659 0.0
N464 N 0.89206 0.3909 0.23837 0.0
N465 N 0.84795 0.35314 0.17432 0.0
C466 C 0.86904 0.39843 0.17631 0.0
C467 C 0.89278 0.41882 0.21108 0.0
loop_
_geom_bond_atom_site_label_1
_geom_bond_atom_site_label_2
_geom_bond_distance
_geom_bond_site_symmetry_2
_ccdc_geom_bond_type
H0 C8 0.930 . S
H1 C11 0.930 . S
H2 C13 0.930 . S
H3 C14 0.970 1_655 S
H4 C14 0.970 . S
H5 C16 0.930 . S
H6 C18 0.930 . S
H7 C20 0.930 . S
C8 H0 0.930 . S
C8 C9 1.382 . S
C8 C10 1.426 . S
C9 C8 1.382 . S
C9 C13 1.389 . S
C10 C8 1.426 . S
C10 C11 1.375 . S
C10 C14 1.532 1_655 S
C11 H1 0.930 . S
C11 C10 1.375 . S
C11 C12 1.416 . S
C12 C11 1.416 . S
C12 C13 1.371 . S
C13 H2 0.930 . S
C13 C9 1.389 . S
C13 C12 1.371 . S
C14 H3 0.970 1_455 S
C14 H4 0.970 . S
C14 C10 1.532 1_455 S
C14 C15 1.499 . S
C15 C14 1.499 . S
C15 C16 1.370 . S
C15 C20 1.415 . S
C16 H5 0.930 . S
C16 C15 1.370 . S
C16 C17 1.407 . S
C17 C16 1.407 . S
C17 C18 1.365 . S
C18 H6 0.930 . S
C18 C17 1.365 . S
C18 C19 1.393 . S
C19 C18 1.393 . S
C19 C20 1.387 . S
C20 H7 0.930 . S
C20 C15 1.415 . S
C20 C19 1.387 . S
H21 C29 0.930 . S
H22 C32 0.930 . S
H23 C34 0.930 . S
H24 C35 0.971 1_565 S
H25 C35 0.970 . S
H26 C37 0.930 . S
H27 C39 0.930 . S
H28 C41 0.930 . S
C29 H21 0.930 . S
C29 C30 1.382 . S
C29 C31 1.426 . S
C30 C29 1.382 . S
C30 C34 1.389 . S
C31 C29 1.426 . S
C31 C32 1.375 . S
C31 C35 1.532 1_565 S
C32 H22 0.930 . S
C32 C31 1.375 . S
C32 C33 1.416 . S
C33 C32 1.416 . S
C33 C34 1.371 . S
C34 H23 0.930 . S
C34 C30 1.389 . S
C34 C33 1.371 . S
C35 H24 0.971 1_545 S
C35 H25 0.970 . S
C35 C31 1.532 1_545 S
C35 C36 1.499 . S
C36 C35 1.499 . S
C36 C37 1.370 . S
C36 C41 1.415 . S
C37 H26 0.930 . S
C37 C36 1.370 . S
C37 C38 1.407 . S
C38 C37 1.407 . S
C38 C39 1.365 . S
C39 H27 0.930 . S
C39 C38 1.365 . S
C39 C40 1.393 . S
C40 C39 1.393 . S
C40 C41 1.387 . S
C41 H28 0.930 . S
C41 C36 1.415 . S
C41 C40 1.387 . S
H42 C50 0.930 . S
H43 C53 0.930 . S
H44 C55 0.930 . S
H45 C56 0.970 . S
H46 C56 0.970 . S
H47 C58 0.930 . S
H48 C60 0.930 . S
H49 C62 0.930 . S
C50 H42 0.930 . S
C50 C51 1.382 . S
C50 C52 1.426 . S
C51 C50 1.382 . S
C51 C55 1.389 . S
C52 C50 1.426 . S
C52 C53 1.375 . S
C52 C56 1.532 . S
C53 H43 0.930 . S
C53 C52 1.375 . S
C53 C54 1.416 . S
C54 C53 1.416 . S
C54 C55 1.371 . S
C55 H44 0.930 . S
C55 C51 1.389 . S
C55 C54 1.371 . S
C56 H45 0.970 . S
C56 H46 0.970 . S
C56 C52 1.532 . S
C56 C57 1.499 . S
C57 C56 1.499 . S
C57 C58 1.370 . S
C57 C62 1.415 . S
C58 H47 0.930 . S
C58 C57 1.370 . S
C58 C59 1.407 . S
C59 C58 1.407 . S
C59 C60 1.365 . S
C60 H48 0.930 . S
C60 C59 1.365 . S
C60 C61 1.393 . S
C61 C60 1.393 . S
C61 C62 1.387 . S
C62 H49 0.930 . S
C62 C57 1.415 . S
C62 C61 1.387 . S
H63 C71 0.930 . S
H64 C74 0.930 . S
H65 C76 0.930 . S
H66 C77 0.970 1_655 S
H67 C77 0.970 . S
H68 C79 0.930 . S
H69 C81 0.930 . S
H70 C83 0.930 . S
C71 H63 0.930 . S
C71 C72 1.382 . S
C71 C73 1.426 . S
C72 C71 1.382 . S
C72 C76 1.389 . S
C73 C71 1.426 . S
C73 C74 1.375 . S
C73 C77 1.532 1_655 S
C74 H64 0.930 . S
C74 C73 1.375 . S
C74 C75 1.416 . S
C75 C74 1.416 . S
C75 C76 1.371 . S
C76 H65 0.930 . S
C76 C72 1.389 . S
C76 C75 1.371 . S
C77 H66 0.970 1_455 S
C77 H67 0.970 . S
C77 C73 1.532 1_455 S
C77 C78 1.499 . S
C78 C77 1.499 . S
C78 C79 1.370 . S
C78 C83 1.415 . S
C79 H68 0.930 . S
C79 C78 1.370 . S
C79 C80 1.407 . S
C80 C79 1.407 . S
C80 C81 1.365 . S
C81 H69 0.930 . S
C81 C80 1.365 . S
C81 C82 1.393 . S
C82 C81 1.393 . S
C82 C83 1.387 . S
C83 H70 0.930 . S
C83 C78 1.415 . S
C83 C82 1.387 . S
H84 C92 0.930 . S
H85 C95 0.930 . S
H86 C97 0.930 . S
H87 C98 0.970 1_554 S
H88 C98 0.970 . S
H89 C100 0.930 . S
H90 C102 0.930 . S
H91 C104 0.930 . S
C92 H84 0.930 . S
C92 C93 1.383 . S
C92 C94 1.426 1_554 S
C93 C92 1.383 . S
C93 C97 1.386 1_554 S
C94 C92 1.426 1_556 S
C94 C95 1.375 . S
C94 C98 1.532 . S
C95 H85 0.930 . S
C95 C94 1.375 . S
C95 C96 1.416 . S
C96 C95 1.416 . S
C96 C97 1.371 . S
C97 H86 0.930 . S
C97 C93 1.386 1_556 S
C97 C96 1.371 . S
C98 H87 0.970 1_556 S
C98 H88 0.970 . S
C98 C94 1.532 . S
C98 C99 1.499 1_546 S
C99 C98 1.499 1_564 S
C99 C100 1.370 . S
C99 C104 1.415 1_554 S
C100 H89 0.930 . S
C100 C99 1.370 . S
C100 C101 1.407 . S
C101 C100 1.407 . S
C101 C102 1.365 . S
C102 H90 0.930 . S
C102 C101 1.365 . S
C102 C103 1.393 1_554 S
C103 C102 1.393 1_556 S
C103 C104 1.387 . S
C104 H91 0.930 . S
C104 C99 1.415 1_556 S
C104 C103 1.387 . S
H105 C113 0.930 . S
H106 C116 0.930 . S
H107 C118 0.930 . S
H108 C119 0.970 . S
H109 C119 0.970 . S
H110 C121 0.930 . S
H111 C123 0.930 . S
H112 C125 0.930 . S
C113 H105 0.930 . S
C113 C114 1.382 . S
C113 C115 1.426 . S
C114 C113 1.382 . S
C114 C118 1.389 . S
C115 C113 1.426 . S
C115 C116 1.375 . S
C115 C119 1.532 . S
C116 H106 0.930 . S
C116 C115 1.375 . S
C116 C117 1.416 . S
C117 C116 1.416 . S
C117 C118 1.371 . S
C118 H107 0.930 . S
C118 C114 1.389 . S
C118 C117 1.371 . S
C119 H108 0.970 . S
C119 H109 0.970 . S
C119 C115 1.532 . S
C119 C120 1.499 . S
C120 C119 1.499 . S
C120 C121 1.370 . S
C120 C125 1.415 . S
C121 H110 0.930 . S
C121 C120 1.370 . S
C121 C122 1.407 . S
C122 C121 1.407 . S
C122 C123 1.365 . S
C123 H111 0.930 . S
C123 C122 1.365 . S
C123 C124 1.393 . S
C124 C123 1.393 . S
C124 C125 1.387 . S
C125 H112 0.930 . S
C125 C120 1.415 . S
C125 C124 1.387 . S
C126 O127 1.160 . S
C126 O133 1.185 . S
O127 C126 1.160 . S
O128 Zn129 1.899 . S
O128 C136 1.284 . S
Zn129 O128 1.899 . S
Zn129 O130 2.032 . S
Zn129 O133 2.086 . S
Zn129 O138 1.977 . S
O130 Zn129 2.032 . S
O130 C134 1.278 . S
C131 O132 1.203 . S
C131 O138 1.267 . S
O132 C131 1.203 . S
O133 C126 1.185 . S
O133 Zn129 2.086 . S
C134 O130 1.278 . S
C134 O135 1.211 . S
O135 C134 1.211 . S
C136 O128 1.284 . S
C136 O137 1.273 . S
O137 C136 1.273 . S
O138 Zn129 1.977 . S
O138 C131 1.267 . S
C139 O140 1.160 . S
C139 O146 1.185 . S
O140 C139 1.160 . S
O141 Zn142 1.899 . S
O141 C149 1.284 . S
Zn142 O141 1.899 . S
Zn142 O143 2.032 . S
Zn142 O146 2.086 . S
Zn142 O151 1.977 . S
O143 Zn142 2.032 . S
O143 C147 1.278 . S
C144 O145 1.203 . S
C144 O151 1.267 . S
O145 C144 1.203 . S
O146 C139 1.185 . S
O146 Zn142 2.086 . S
C147 O143 1.278 . S
C147 O148 1.211 . S
O148 C147 1.211 . S
C149 O141 1.284 . S
C149 O150 1.273 . S
O150 C149 1.273 . S
O151 Zn142 1.977 . S
O151 C144 1.267 . S
C152 O153 1.160 . S
C152 O159 1.185 . S
O153 C152 1.160 . S
O154 Zn155 1.899 . S
O154 C162 1.284 . S
Zn155 O154 1.899 . S
Zn155 O156 2.032 . S
Zn155 O159 2.086 . S
Zn155 O164 1.977 . S
O156 Zn155 2.032 . S
O156 C160 1.278 . S
C157 O158 1.203 . S
C157 O164 1.267 . S
O158 C157 1.203 . S
O159 C152 1.185 . S
O159 Zn155 2.086 . S
C160 O156 1.278 . S
C160 O161 1.211 . S
O161 C160 1.211 . S
C162 O154 1.284 . S
C162 O163 1.273 . S
O163 C162 1.273 . S
O164 Zn155 1.977 . S
O164 C157 1.267 . S
C165 O166 1.160 . S
C165 O172 1.185 . S
O166 C165 1.160 . S
O167 Zn168 1.899 . S
O167 C175 1.284 . S
Zn168 O167 1.899 . S
Zn168 O169 2.032 . S
Zn168 O172 2.086 . S
Zn168 O177 1.977 . S
O169 Zn168 2.032 . S
O169 C173 1.278 . S
C170 O171 1.203 . S
C170 O177 1.267 . S
O171 C170 1.203 . S
O172 C165 1.185 . S
O172 Zn168 2.086 . S
C173 O169 1.278 . S
C173 O174 1.211 . S
O174 C173 1.211 . S
C175 O167 1.284 . S
C175 O176 1.273 . S
O176 C175 1.273 . S
O177 Zn168 1.977 . S
O177 C170 1.267 . S
C178 O179 1.160 . S
C178 O185 1.185 . S
O179 C178 1.160 . S
O180 Zn181 1.899 . S
O180 C188 1.284 . S
Zn181 O180 1.899 . S
Zn181 O182 2.032 . S
Zn181 O185 2.086 . S
Zn181 O190 1.977 . S
O182 Zn181 2.032 . S
O182 C186 1.278 . S
C183 O184 1.203 . S
C183 O190 1.267 . S
O184 C183 1.203 . S
O185 C178 1.185 . S
O185 Zn181 2.086 . S
C186 O182 1.278 . S
C186 O187 1.211 . S
O187 C186 1.211 . S
C188 O180 1.284 . S
C188 O189 1.273 . S
O189 C188 1.273 . S
O190 Zn181 1.977 . S
O190 C183 1.267 . S
C191 O192 1.160 . S
C191 O198 1.185 . S
O192 C191 1.160 . S
O193 Zn194 1.899 . S
O193 C201 1.284 . S
Zn194 O193 1.899 . S
Zn194 O195 2.032 . S
Zn194 O198 2.086 . S
Zn194 O203 1.977 . S
O195 Zn194 2.032 . S
O195 C199 1.278 . S
C196 O197 1.203 . S
C196 O203 1.267 . S
O197 C196 1.203 . S
O198 C191 1.185 . S
O198 Zn194 2.086 . S
C199 O195 1.278 . S
C199 O200 1.211 . S
O200 C199 1.211 . S
C201 O193 1.284 . S
C201 O202 1.273 . S
O202 C201 1.273 . S
O203 Zn194 1.977 . S
O203 C196 1.267 . S
C204 C205 1.369 . S
C204 C206 1.419 . S
C204 H208 0.930 . S
C205 C204 1.369 . S
C205 C214 1.429 . S
C206 C204 1.419 . S
C206 C207 1.363 . S
C206 H209 0.929 . S
C207 C206 1.363 . S
C207 C213 1.428 . S
H208 C204 0.930 . S
H209 C206 0.929 . S
S210 N211 1.613 . S
S210 N212 1.610 . S
N211 S210 1.613 . S
N211 C214 1.350 . S
N212 S210 1.610 . S
N212 C213 1.351 . S
C213 C207 1.428 . S
C213 N212 1.351 . S
C213 C214 1.434 . S
C214 C205 1.429 . S
C214 N211 1.350 . S
C214 C213 1.434 . S
C215 C216 1.369 . S
C215 C217 1.419 . S
C215 H219 0.930 . S
C216 C215 1.369 . S
C216 C225 1.429 . S
C217 C215 1.419 . S
C217 C218 1.363 . S
C217 H220 0.929 . S
C218 C217 1.363 . S
C218 C224 1.428 . S
H219 C215 0.930 . S
H220 C217 0.929 . S
S221 N222 1.613 . S
S221 N223 1.610 . S
N222 S221 1.613 . S
N222 C225 1.350 . S
N223 S221 1.610 . S
N223 C224 1.351 . S
C224 C218 1.428 . S
C224 N223 1.351 . S
C224 C225 1.434 . S
C225 C216 1.429 . S
C225 N222 1.350 . S
C225 C224 1.434 . S
C226 C227 1.369 . S
C226 C228 1.419 . S
C226 H230 0.930 . S
C227 C226 1.369 . S
C227 C236 1.429 . S
C228 C226 1.419 . S
C228 C229 1.363 . S
C228 H231 0.929 . S
C229 C228 1.363 . S
C229 C235 1.428 . S
H230 C226 0.930 . S
H231 C228 0.929 . S
S232 N233 1.613 . S
S232 N234 1.610 . S
N233 S232 1.613 . S
N233 C236 1.350 . S
N234 S232 1.610 . S
N234 C235 1.351 . S
C235 C229 1.428 . S
C235 N234 1.351 . S
C235 C236 1.434 . S
C236 C227 1.429 . S
C236 N233 1.350 . S
C236 C235 1.434 . S
C237 C238 1.369 . S
C237 C239 1.419 . S
C237 H241 0.930 . S
C238 C237 1.369 . S
C238 C247 1.429 . S
C239 C237 1.419 . S
C239 C240 1.363 . S
C239 H242 0.929 . S
C240 C239 1.363 . S
C240 C246 1.428 . S
H241 C237 0.930 . S
H242 C239 0.929 . S
S243 N244 1.613 . S
S243 N245 1.610 . S
N244 S243 1.613 . S
N244 C247 1.350 . S
N245 S243 1.610 . S
N245 C246 1.351 . S
C246 C240 1.428 . S
C246 N245 1.351 . S
C246 C247 1.434 . S
C247 C238 1.429 . S
C247 N244 1.350 . S
C247 C246 1.434 . S
C248 C249 1.369 . S
C248 C250 1.419 . S
C248 H252 0.930 . S
C249 C248 1.369 . S
C249 C258 1.429 . S
C250 C248 1.419 . S
C250 C251 1.363 . S
C250 H253 0.929 . S
C251 C250 1.363 . S
C251 C257 1.428 . S
H252 C248 0.930 . S
H253 C250 0.929 . S
S254 N255 1.613 . S
S254 N256 1.610 1_554 S
N255 S254 1.613 . S
N255 C258 1.350 1_554 S
N256 S254 1.610 1_556 S
N256 C257 1.351 . S
C257 C251 1.428 . S
C257 N256 1.351 . S
C257 C258 1.434 . S
C258 C249 1.429 . S
C258 N255 1.350 1_556 S
C258 C257 1.434 . S
C259 C260 1.369 . S
C259 C261 1.419 . S
C259 H263 0.930 . S
C260 C259 1.369 . S
C260 C269 1.429 . S
C261 C259 1.419 . S
C261 C262 1.363 . S
C261 H264 0.929 . S
C262 C261 1.363 . S
C262 C268 1.428 . S
H263 C259 0.930 . S
H264 C261 0.929 . S
S265 N266 1.613 . S
S265 N267 1.610 . S
N266 S265 1.613 . S
N266 C269 1.350 . S
N267 S265 1.610 . S
N267 C268 1.351 . S
C268 C262 1.428 . S
C268 N267 1.351 . S
C268 C269 1.434 . S
C269 C260 1.429 . S
C269 N266 1.350 . S
C269 C268 1.434 . S
C270 C271 1.369 . S
C270 C272 1.419 . S
C270 H274 0.930 . S
C271 C270 1.369 . S
C271 C280 1.429 . S
C272 C270 1.419 . S
C272 C273 1.363 . S
C272 H275 0.929 . S
C273 C272 1.363 . S
C273 C279 1.428 . S
H274 C270 0.930 . S
H275 C272 0.929 . S
S276 N277 1.613 . S
S276 N278 1.610 . S
N277 S276 1.613 . S
N277 C280 1.350 . S
N278 S276 1.610 . S
N278 C279 1.351 . S
C279 C273 1.428 . S
C279 N278 1.351 . S
C279 C280 1.434 . S
C280 C271 1.429 . S
C280 N277 1.350 . S
C280 C279 1.434 . S
C281 C282 1.369 . S
C281 C283 1.419 . S
C281 H285 0.930 . S
C282 C281 1.369 . S
C282 C291 1.429 . S
C283 C281 1.419 . S
C283 C284 1.363 . S
C283 H286 0.929 . S
C284 C283 1.363 . S
C284 C290 1.428 . S
H285 C281 0.930 . S
H286 C283 0.929 . S
S287 N288 1.613 . S
S287 N289 1.610 . S
N288 S287 1.613 . S
N288 C291 1.350 . S
N289 S287 1.610 . S
N289 C290 1.351 . S
C290 C284 1.428 . S
C290 N289 1.351 . S
C290 C291 1.434 . S
C291 C282 1.429 . S
C291 N288 1.350 . S
C291 C290 1.434 . S
C292 C293 1.369 . S
C292 C294 1.419 . S
C292 H296 0.930 . S
C293 C292 1.369 . S
C293 C302 1.429 . S
C294 C292 1.419 . S
C294 C295 1.363 . S
C294 H297 0.929 . S
C295 C294 1.363 . S
C295 C301 1.428 . S
H296 C292 0.930 . S
H297 C294 0.929 . S
S298 N299 1.613 . S
S298 N300 1.610 . S
N299 S298 1.613 . S
N299 C302 1.350 . S
N300 S298 1.610 . S
N300 C301 1.351 . S
C301 C295 1.428 . S
C301 N300 1.351 . S
C301 C302 1.434 . S
C302 C293 1.429 . S
C302 N299 1.350 . S
C302 C301 1.434 . S
C303 C304 1.369 . S
C303 C305 1.419 . S
C303 H307 0.930 . S
C304 C303 1.369 . S
C304 C313 1.419 1_554 S
C305 C303 1.419 . S
C305 C306 1.363 . S
C305 H308 0.929 . S
C306 C305 1.363 . S
C306 C312 1.428 . S
H307 C303 0.930 . S
H308 C305 0.929 . S
S309 N310 1.613 . S
S309 N311 1.610 . S
N310 S309 1.613 . S
N310 C313 1.366 . S
N311 S309 1.610 . S
N311 C312 1.351 1_556 S
C312 C306 1.428 . S
C312 N311 1.351 1_554 S
C312 C313 1.429 1_554 S
C313 C304 1.419 1_556 S
C313 N310 1.366 . S
C313 C312 1.429 1_556 S
C314 C315 1.369 . S
C314 C316 1.419 . S
C314 H318 0.930 . S
C315 C314 1.369 . S
C315 C324 1.429 . S
C316 C314 1.419 . S
C316 C317 1.363 . S
C316 H319 0.929 . S
C317 C316 1.363 . S
C317 C323 1.428 . S
H318 C314 0.930 . S
H319 C316 0.929 . S
S320 N321 1.613 . S
S320 N322 1.610 . S
N321 S320 1.613 . S
N321 C324 1.350 . S
N322 S320 1.610 . S
N322 C323 1.351 . S
C323 C317 1.428 . S
C323 N322 1.351 . S
C323 C324 1.434 . S
C324 C315 1.429 . S
C324 N321 1.350 . S
C324 C323 1.434 . S
C325 C326 1.369 . S
C325 C327 1.419 . S
C325 H329 0.930 . S
C326 C325 1.369 . S
C326 C335 1.429 . S
C327 C325 1.419 . S
C327 C328 1.363 . S
C327 H330 0.929 . S
C328 C327 1.363 . S
C328 C334 1.428 . S
H329 C325 0.930 . S
H330 C327 0.929 . S
S331 N332 1.613 . S
S331 N333 1.610 . S
N332 S331 1.613 . S
N332 C335 1.350 . S
N333 S331 1.610 . S
N333 C334 1.351 . S
C334 C328 1.428 . S
C334 N333 1.351 . S
C334 C335 1.434 . S
C335 C326 1.429 . S
C335 N332 1.350 . S
C335 C334 1.434 . S
C336 C337 1.369 . S
C336 C338 1.419 . S
C336 H340 0.930 . S
C337 C336 1.369 . S
C337 C346 1.429 . S
C338 C336 1.419 . S
C338 C339 1.363 . S
C338 H341 0.929 . S
C339 C338 1.363 . S
C339 C345 1.428 . S
H340 C336 0.930 . S
H341 C338 0.929 . S
S342 N343 1.613 . S
S342 N344 1.610 . S
N343 S342 1.613 . S
N343 C346 1.350 . S
N344 S342 1.610 . S
N344 C345 1.351 . S
C345 C339 1.428 . S
C345 N344 1.351 . S
C345 C346 1.434 . S
C346 C337 1.429 . S
C346 N343 1.350 . S
C346 C345 1.434 . S
C347 C348 1.369 . S
C347 C349 1.419 . S
C347 H351 0.930 . S
C348 C347 1.369 . S
C348 C357 1.429 . S
C349 C347 1.419 . S
C349 C350 1.363 . S
C349 H352 0.929 . S
C350 C349 1.363 . S
C350 C356 1.428 . S
H351 C347 0.930 . S
H352 C349 0.929 . S
S353 N354 1.613 . S
S353 N355 1.610 . S
N354 S353 1.613 . S
N354 C357 1.350 . S
N355 S353 1.610 . S
N355 C356 1.351 . S
C356 C350 1.428 . S
C356 N355 1.351 . S
C356 C357 1.434 . S
C357 C348 1.429 . S
C357 N354 1.350 . S
C357 C356 1.434 . S
C358 C359 1.369 . S
C358 C360 1.419 . S
C358 H362 0.930 . S
C359 C358 1.369 . S
C359 C368 1.429 . S
C360 C358 1.419 . S
C360 C361 1.363 . S
C360 H363 0.929 . S
C361 C360 1.363 . S
C361 C367 1.428 . S
H362 C358 0.930 . S
H363 C360 0.929 . S
S364 N365 1.613 . S
S364 N366 1.610 . S
N365 S364 1.613 . S
N365 C368 1.350 . S
N366 S364 1.610 . S
N366 C367 1.351 . S
C367 C361 1.428 . S
C367 N366 1.351 . S
C367 C368 1.434 . S
C368 C359 1.429 . S
C368 N365 1.350 . S
C368 C367 1.434 . S
C369 C370 1.369 . S
C369 C371 1.419 . S
C369 H373 0.930 . S
C370 C369 1.369 . S
C370 C379 1.429 . S
C371 C369 1.419 . S
C371 C372 1.363 . S
C371 H374 0.929 . S
C372 C371 1.363 . S
C372 C378 1.428 . S
H373 C369 0.930 . S
H374 C371 0.929 . S
S375 N376 1.613 1_554 S
S375 N377 1.610 . S
N376 S375 1.613 1_556 S
N376 C379 1.350 . S
N377 S375 1.610 . S
N377 C378 1.351 1_554 S
C378 C372 1.428 . S
C378 N377 1.351 1_556 S
C378 C379 1.434 . S
C379 C370 1.429 . S
C379 N376 1.350 . S
C379 C378 1.434 . S
C380 C381 1.369 . S
C380 C382 1.419 . S
C380 H384 0.930 . S
C381 C380 1.369 . S
C381 C390 1.429 . S
C382 C380 1.419 . S
C382 C383 1.363 . S
C382 H385 0.929 . S
C383 C382 1.363 . S
C383 C389 1.428 . S
H384 C380 0.930 . S
H385 C382 0.929 . S
S386 N387 1.613 . S
S386 N388 1.610 . S
N387 S386 1.613 . S
N387 C390 1.350 . S
N388 S386 1.610 . S
N388 C389 1.351 . S
C389 C383 1.428 . S
C389 N388 1.351 . S
C389 C390 1.434 . S
C390 C381 1.429 . S
C390 N387 1.350 . S
C390 C389 1.434 . S
C391 C392 1.369 . S
C391 C393 1.419 . S
C391 H395 0.930 . S
C392 C391 1.369 . S
C392 C401 1.429 . S
C393 C391 1.419 . S
C393 C394 1.363 . S
C393 H396 0.929 . S
C394 C393 1.363 . S
C394 C400 1.428 . S
H395 C391 0.930 . S
H396 C393 0.929 . S
S397 N398 1.613 . S
S397 N399 1.610 . S
N398 S397 1.613 . S
N398 C401 1.350 . S
N399 S397 1.610 . S
N399 C400 1.351 . S
C400 C394 1.428 . S
C400 N399 1.351 . S
C400 C401 1.434 . S
C401 C392 1.429 . S
C401 N398 1.350 . S
C401 C400 1.434 . S
C402 C403 1.369 . S
C402 C404 1.419 . S
C402 H406 0.930 . S
C403 C402 1.369 . S
C403 C412 1.429 . S
C404 C402 1.419 . S
C404 C405 1.363 . S
C404 H407 0.929 . S
C405 C404 1.363 . S
C405 C411 1.428 . S
H406 C402 0.930 . S
H407 C404 0.929 . S
S408 N409 1.613 . S
S408 N410 1.610 . S
N409 S408 1.613 . S
N409 C412 1.350 . S
N410 S408 1.610 . S
N410 C411 1.351 . S
C411 C405 1.428 . S
C411 N410 1.351 . S
C411 C412 1.434 . S
C412 C403 1.429 . S
C412 N409 1.350 . S
C412 C411 1.434 . S
C413 C414 1.369 . S
C413 C415 1.419 . S
C413 H417 0.930 . S
C414 C413 1.369 . S
C414 C423 1.429 . S
C415 C413 1.419 . S
C415 C416 1.363 . S
C415 H418 0.929 . S
C416 C415 1.363 . S
C416 C422 1.428 . S
H417 C413 0.930 . S
H418 C415 0.929 . S
S419 N420 1.613 . S
S419 N421 1.610 . S
N420 S419 1.613 . S
N420 C423 1.350 . S
N421 S419 1.610 . S
N421 C422 1.351 . S
C422 C416 1.428 . S
C422 N421 1.351 . S
C422 C423 1.434 . S
C423 C414 1.429 . S
C423 N420 1.350 . S
C423 C422 1.434 . S
C424 C425 1.369 . S
C424 C426 1.419 . S
C424 H428 0.930 . S
C425 C424 1.369 . S
C425 C434 1.429 . S
C426 C424 1.419 . S
C426 C427 1.363 . S
C426 H429 0.929 . S
C427 C426 1.363 . S
C427 C433 1.428 . S
H428 C424 0.930 . S
H429 C426 0.929 . S
S430 N431 1.613 . S
S430 N432 1.610 . S
N431 S430 1.613 . S
N431 C434 1.350 . S
N432 S430 1.610 . S
N432 C433 1.351 . S
C433 C427 1.428 . S
C433 N432 1.351 . S
C433 C434 1.434 . S
C434 C425 1.429 . S
C434 N431 1.350 . S
C434 C433 1.434 . S
C435 C436 1.369 . S
C435 C437 1.419 . S
C435 H439 0.930 . S
C436 C435 1.369 . S
C436 C445 1.429 . S
C437 C435 1.419 . S
C437 C438 1.363 . S
C437 H440 0.929 . S
C438 C437 1.363 . S
C438 C444 1.428 . S
H439 C435 0.930 . S
H440 C437 0.929 . S
S441 N442 1.613 . S
S441 N443 1.610 . S
N442 S441 1.613 . S
N442 C445 1.350 . S
N443 S441 1.610 . S
N443 C444 1.351 . S
C444 C438 1.428 . S
C444 N443 1.351 . S
C444 C445 1.434 . S
C445 C436 1.429 . S
C445 N442 1.350 . S
C445 C444 1.434 . S
C446 C447 1.369 . S
C446 C448 1.419 . S
C446 H450 0.930 . S
C447 C446 1.369 . S
C447 C456 1.429 . S
C448 C446 1.419 . S
C448 C449 1.363 1_554 S
C448 H451 0.929 . S
C449 C448 1.363 1_556 S
C449 C455 1.428 . S
H450 C446 0.930 . S
H451 C448 0.929 . S
S452 N453 1.613 1_556 S
S452 N454 1.610 . S
N453 S452 1.613 1_554 S
N453 C456 1.350 . S
N454 S452 1.610 . S
N454 C455 1.351 . S
C455 C449 1.428 . S
C455 N454 1.351 . S
C455 C456 1.434 1_556 S
C456 C447 1.429 . S
C456 N453 1.350 . S
C456 C455 1.434 1_554 S
C457 C458 1.369 . S
C457 C459 1.419 . S
C457 H461 0.930 . S
C458 C457 1.369 . S
C458 C467 1.429 . S
C459 C457 1.419 . S
C459 C460 1.363 . S
C459 H462 0.929 . S
C460 C459 1.363 . S
C460 C466 1.428 . S
H461 C457 0.930 . S
H462 C459 0.929 . S
S463 N464 1.613 . S
S463 N465 1.610 . S
N464 S463 1.613 . S
N464 C467 1.350 . S
N465 S463 1.610 . S
N465 C466 1.351 . S
C466 C460 1.428 . S
C466 N465 1.351 . S
C466 C467 1.434 . S
C467 C458 1.429 . S
C467 N464 1.350 . S
C467 C466 1.434 . S
C207 C201 1.584 . S
C205 C19 1.481 . S
C216 C40 1.454 . S
C218 C126 1.486 . S
C227 C51 1.481 . S
C229 C149 1.605 . S
C238 C72 1.404 . S
C240 C162 1.496 . S
C251 C165 1.508 . S
C249 C103 1.477 . S
C260 C114 1.402 . S
C262 C178 1.450 . S
C271 C30 1.408 . S
C273 C139 1.460 . S
C282 C61 1.478 . S
C284 C152 1.513 . S
C293 C82 1.413 . S
C295 C175 1.492 . S
C306 C188 1.598 . S
C304 C93 1.466 . S
C317 C191 1.484 . S
C315 C124 1.453 . S
C328 C136 1.587 . S
C326 C9 1.479 . S
C337 C17 1.454 . S
C339 C147 1.482 . S
C348 C38 1.404 . S
C350 C160 1.454 . S
C361 C170 1.472 . S
C359 C54 1.425 . S
C370 C75 1.433 . S
C372 C183 1.459 1_556 S
C383 C199 1.480 . S
C381 C101 1.431 . S
C394 C131 1.446 . S
C392 C117 1.385 . S
C405 C196 1.444 . S
C403 C33 1.395 . S
C414 C59 1.441 . S
C416 C134 1.475 . S
C427 C144 1.465 . S
C425 C80 1.430 . S
C436 C96 1.416 . S
C438 C157 1.471 . S
C447 C122 1.415 . S
C449 C173 1.448 . S
C458 C12 1.455 . S
C460 C186 1.477 . S
