# Generated by pormake.
# Topology eea, (3,6)-cn, num edge types: 1
# Building blocks:
#     Node 0, Type 0, BuildingBlock: BETDIP_clean_linker_0, # of connection points: 3
#     Node 1, Type 0, BuildingBlock: BETDIP_clean_linker_0, # of connection points: 3
#     Node 2, Type 0, BuildingBlock: BETDIP_clean_linker_0, # of connection points: 3
#     Node 3, Type 0, BuildingBlock: BETDIP_clean_linker_0, # of connection points: 3
#     Node 4, Type 0, BuildingBlock: BETDIP_clean_linker_0, # of connection points: 3
#     Node 5, Type 0, BuildingBlock: BETDIP_clean_linker_0, # of connection points: 3
#     Node 6, Type 0, BuildingBlock: BETDIP_clean_linker_0, # of connection points: 3
#     Node 7, Type 0, BuildingBlock: BETDIP_clean_linker_0, # of connection points: 3
#     Node 8, Type 0, BuildingBlock: BETDIP_clean_linker_0, # of connection points: 3
#     Node 9, Type 0, BuildingBlock: BETDIP_clean_linker_0, # of connection points: 3
#     Node 10, Type 0, BuildingBlock: BETDIP_clean_linker_0, # of connection points: 3
#     Node 11, Type 0, BuildingBlock: BETDIP_clean_linker_0, # of connection points: 3
#     Node 12, Type 0, BuildingBlock: BETDIP_clean_linker_0, # of connection points: 3
#     Node 13, Type 0, BuildingBlock: BETDIP_clean_linker_0, # of connection points: 3
#     Node 14, Type 0, BuildingBlock: BETDIP_clean_linker_0, # of connection points: 3
#     Node 15, Type 0, BuildingBlock: BETDIP_clean_linker_0, # of connection points: 3
#     Node 16, Type 0, BuildingBlock: BETDIP_clean_linker_0, # of connection points: 3
#     Node 17, Type 0, BuildingBlock: BETDIP_clean_linker_0, # of connection points: 3
#     Node 18, Type 1, BuildingBlock: KUMBOL_clean_sbu_0, # of connection points: 6
#     Node 19, Type 1, BuildingBlock: KUMBOL_clean_sbu_0, # of connection points: 6
#     Node 20, Type 1, BuildingBlock: KUMBOL_clean_sbu_0, # of connection points: 6
#     Node 21, Type 1, BuildingBlock: KUMBOL_clean_sbu_0, # of connection points: 6
#     Node 22, Type 1, BuildingBlock: KUMBOL_clean_sbu_0, # of connection points: 6
#     Node 23, Type 1, BuildingBlock: KUMBOL_clean_sbu_0, # of connection points: 6
#     Node 24, Type 1, BuildingBlock: KUMBOL_clean_sbu_0, # of connection points: 6
#     Node 25, Type 1, BuildingBlock: KUMBOL_clean_sbu_0, # of connection points: 6
#     Node 26, Type 1, BuildingBlock: KUMBOL_clean_sbu_0, # of connection points: 6
#     Edge 27, Type (0, 1), BuildingBlock: XUDNAN_clean_linker_2, # of connection points: 2
#     Edge 28, Type (0, 1), BuildingBlock: XUDNAN_clean_linker_2, # of connection points: 2
#     Edge 29, Type (0, 1), BuildingBlock: XUDNAN_clean_linker_2, # of connection points: 2
#     Edge 30, Type (0, 1), BuildingBlock: XUDNAN_clean_linker_2, # of connection points: 2
#     Edge 31, Type (0, 1), BuildingBlock: XUDNAN_clean_linker_2, # of connection points: 2
#     Edge 32, Type (0, 1), BuildingBlock: XUDNAN_clean_linker_2, # of connection points: 2
#     Edge 33, Type (0, 1), BuildingBlock: XUDNAN_clean_linker_2, # of connection points: 2
#     Edge 34, Type (0, 1), BuildingBlock: XUDNAN_clean_linker_2, # of connection points: 2
#     Edge 35, Type (0, 1), BuildingBlock: XUDNAN_clean_linker_2, # of connection points: 2
#     Edge 36, Type (0, 1), BuildingBlock: XUDNAN_clean_linker_2, # of connection points: 2
#     Edge 37, Type (0, 1), BuildingBlock: XUDNAN_clean_linker_2, # of connection points: 2
#     Edge 38, Type (0, 1), BuildingBlock: XUDNAN_clean_linker_2, # of connection points: 2
#     Edge 39, Type (0, 1), BuildingBlock: XUDNAN_clean_linker_2, # of connection points: 2
#     Edge 40, Type (0, 1), BuildingBlock: XUDNAN_clean_linker_2, # of connection points: 2
#     Edge 41, Type (0, 1), BuildingBlock: XUDNAN_clean_linker_2, # of connection points: 2
#     Edge 42, Type (0, 1), BuildingBlock: XUDNAN_clean_linker_2, # of connection points: 2
#     Edge 43, Type (0, 1), BuildingBlock: XUDNAN_clean_linker_2, # of connection points: 2
#     Edge 44, Type (0, 1), BuildingBlock: XUDNAN_clean_linker_2, # of connection points: 2
#     Edge 45, Type (0, 1), BuildingBlock: XUDNAN_clean_linker_2, # of connection points: 2
#     Edge 46, Type (0, 1), BuildingBlock: XUDNAN_clean_linker_2, # of connection points: 2
#     Edge 47, Type (0, 1), BuildingBlock: XUDNAN_clean_linker_2, # of connection points: 2
#     Edge 48, Type (0, 1), BuildingBlock: XUDNAN_clean_linker_2, # of connection points: 2
#     Edge 49, Type (0, 1), BuildingBlock: XUDNAN_clean_linker_2, # of connection points: 2
#     Edge 50, Type (0, 1), BuildingBlock: XUDNAN_clean_linker_2, # of connection points: 2
#     Edge 51, Type (0, 1), BuildingBlock: XUDNAN_clean_linker_2, # of connection points: 2
#     Edge 52, Type (0, 1), BuildingBlock: XUDNAN_clean_linker_2, # of connection points: 2
#     Edge 53, Type (0, 1), BuildingBlock: XUDNAN_clean_linker_2, # of connection points: 2
#     Edge 54, Type (0, 1), BuildingBlock: XUDNAN_clean_linker_2, # of connection points: 2
#     Edge 55, Type (0, 1), BuildingBlock: XUDNAN_clean_linker_2, # of connection points: 2
#     Edge 56, Type (0, 1), BuildingBlock: XUDNAN_clean_linker_2, # of connection points: 2
#     Edge 57, Type (0, 1), BuildingBlock: XUDNAN_clean_linker_2, # of connection points: 2
#     Edge 58, Type (0, 1), BuildingBlock: XUDNAN_clean_linker_2, # of connection points: 2
#     Edge 59, Type (0, 1), BuildingBlock: XUDNAN_clean_linker_2, # of connection points: 2
#     Edge 60, Type (0, 1), BuildingBlock: XUDNAN_clean_linker_2, # of connection points: 2
#     Edge 61, Type (0, 1), BuildingBlock: XUDNAN_clean_linker_2, # of connection points: 2
#     Edge 62, Type (0, 1), BuildingBlock: XUDNAN_clean_linker_2, # of connection points: 2
#     Edge 63, Type (0, 1), BuildingBlock: XUDNAN_clean_linker_2, # of connection points: 2
#     Edge 64, Type (0, 1), BuildingBlock: XUDNAN_clean_linker_2, # of connection points: 2
#     Edge 65, Type (0, 1), BuildingBlock: XUDNAN_clean_linker_2, # of connection points: 2
#     Edge 66, Type (0, 1), BuildingBlock: XUDNAN_clean_linker_2, # of connection points: 2
#     Edge 67, Type (0, 1), BuildingBlock: XUDNAN_clean_linker_2, # of connection points: 2
#     Edge 68, Type (0, 1), BuildingBlock: XUDNAN_clean_linker_2, # of connection points: 2
#     Edge 69, Type (0, 1), BuildingBlock: XUDNAN_clean_linker_2, # of connection points: 2
#     Edge 70, Type (0, 1), BuildingBlock: XUDNAN_clean_linker_2, # of connection points: 2
#     Edge 71, Type (0, 1), BuildingBlock: XUDNAN_clean_linker_2, # of connection points: 2
#     Edge 72, Type (0, 1), BuildingBlock: XUDNAN_clean_linker_2, # of connection points: 2
#     Edge 73, Type (0, 1), BuildingBlock: XUDNAN_clean_linker_2, # of connection points: 2
#     Edge 74, Type (0, 1), BuildingBlock: XUDNAN_clean_linker_2, # of connection points: 2
#     Edge 75, Type (0, 1), BuildingBlock: XUDNAN_clean_linker_2, # of connection points: 2
#     Edge 76, Type (0, 1), BuildingBlock: XUDNAN_clean_linker_2, # of connection points: 2
#     Edge 77, Type (0, 1), BuildingBlock: XUDNAN_clean_linker_2, # of connection points: 2
#     Edge 78, Type (0, 1), BuildingBlock: XUDNAN_clean_linker_2, # of connection points: 2
#     Edge 79, Type (0, 1), BuildingBlock: XUDNAN_clean_linker_2, # of connection points: 2
#     Edge 80, Type (0, 1), BuildingBlock: XUDNAN_clean_linker_2, # of connection points: 2
# Relax obj value: 0.025
# Max RMSD: 0.166
# Mean RMSD: 0.120
data_MOF--net-eea--node1-KUMBOL_clean_sbu_0--node2-BETDIP_clean_linker_0--edge1-XUDNAN_clean_linker_2
_symmetry_space_group_name_H-M    P1
_symmetry_Int_Tables_number       1
_symmetry_cell_setting            triclinic
loop_
_symmetry_equiv_pos_as_xyz
'x, y, z'
_cell_length_a     54.346936
_cell_length_b     55.697283
_cell_length_c     66.631708
_cell_angle_alpha  90.149535
_cell_angle_beta   90.088825
_cell_angle_gamma 119.89244
loop_
_atom_site_label
_atom_site_type_symbol
_atom_site_fract_x
_atom_site_fract_y
_atom_site_fract_z
_atom_type_partial_charge
H0 H 0.21345 0.09994 0.38813 0.0
H1 H 0.2418 0.15191 0.4405 0.0
H2 H 0.25921 0.08497 0.43459 0.0
H3 H 0.20842 0.16149 0.43172 0.0
C4 C 0.20995 0.1628 0.41548 0.0
C5 C 0.22409 0.10512 0.40258 0.0
C6 C 0.23547 0.08921 0.41034 0.0
C7 C 0.226 0.12761 0.41338 0.0
C8 C 0.23988 0.13442 0.43214 0.0
C9 C 0.25184 0.11913 0.4401 0.0
C10 C 0.24937 0.09645 0.42905 0.0
N11 N 0.21536 0.14396 0.40453 0.0
H12 H 0.9274 0.13631 0.37556 0.0
H13 H 0.87788 0.11081 0.42975 0.0
H14 H 0.94781 0.19392 0.42434 0.0
H15 H 0.84344 0.08078 0.40899 0.0
C16 C 0.85442 0.07479 0.39824 0.0
C17 C 0.92313 0.14096 0.39053 0.0
C18 C 0.94029 0.16746 0.39874 0.0
C19 C 0.89988 0.12066 0.40128 0.0
C20 C 0.89474 0.1267 0.42086 0.0
C21 C 0.91209 0.15301 0.42943 0.0
C22 C 0.93458 0.17338 0.4181 0.0
N23 N 0.88257 0.09425 0.39218 0.0
H24 H 0.89687 0.81215 0.38143 0.0
H25 H 0.92498 0.78241 0.43075 0.0
H26 H 0.84484 0.78026 0.4342 0.0
H27 H 0.94646 0.77224 0.40378 0.0
C28 C 0.95576 0.79223 0.39636 0.0
C29 C 0.89316 0.80303 0.39625 0.0
C30 C 0.86786 0.79624 0.40656 0.0
C31 C 0.9136 0.79766 0.40469 0.0
C32 C 0.90902 0.78605 0.42399 0.0
C33 C 0.88429 0.7797 0.43484 0.0
C34 C 0.86365 0.7845 0.42583 0.0
N35 N 0.93917 0.80537 0.39392 0.0
H36 H 0.08319 0.19379 0.64346 0.0
H37 H 0.15015 0.23545 0.60083 0.0
H38 H 0.07405 0.24058 0.59531 0.0
H39 H 0.17654 0.2417 0.62967 0.0
C40 C 0.16553 0.2206 0.6353 0.0
C41 C 0.0913 0.20639 0.63011 0.0
C42 C 0.07486 0.21583 0.62007 0.0
C43 C 0.11876 0.21412 0.62366 0.0
C44 C 0.12948 0.23054 0.60643 0.0
C45 C 0.11374 0.24048 0.59615 0.0
C46 C 0.08632 0.23294 0.60305 0.0
N47 N 0.13531 0.20525 0.63468 0.0
H48 H 0.7887 0.8858 0.65813 0.0
H49 H 0.7716 0.91454 0.60315 0.0
H50 H 0.76905 0.83636 0.604 0.0
H51 H 0.74199 0.92032 0.62972 0.0
C52 C 0.76106 0.93396 0.63824 0.0
C53 C 0.78326 0.88243 0.64233 0.0
C54 C 0.77939 0.8583 0.63253 0.0
C55 C 0.7795 0.90218 0.63197 0.0
C56 C 0.77373 0.89887 0.61133 0.0
C57 C 0.77036 0.87539 0.60117 0.0
C58 C 0.77256 0.85486 0.61186 0.0
N59 N 0.78082 0.925 0.64248 0.0
H60 H 0.11989 0.90983 0.65055 0.0
H61 H 0.09862 0.86784 0.59362 0.0
H62 H 0.17951 0.94141 0.60156 0.0
H63 H 0.05435 0.86803 0.60613 0.0
C64 C 0.05392 0.85737 0.61989 0.0
C65 C 0.12594 0.90836 0.63532 0.0
C66 C 0.15231 0.92887 0.62766 0.0
C67 C 0.10642 0.88655 0.6231 0.0
C68 C 0.11356 0.8847 0.6031 0.0
C69 C 0.13983 0.90467 0.59526 0.0
C70 C 0.15902 0.9265 0.60761 0.0
N71 N 0.07948 0.867 0.63105 0.0
H72 H 0.88955 0.426 0.71604 0.0
H73 H 0.91629 0.4829 0.76561 0.0
H74 H 0.93295 0.41506 0.76625 0.0
H75 H 0.87795 0.48727 0.75455 0.0
C76 C 0.88198 0.48858 0.73851 0.0
C77 C 0.89941 0.43235 0.73071 0.0
C78 C 0.91067 0.41742 0.74017 0.0
C79 C 0.90066 0.45547 0.73994 0.0
C80 C 0.91409 0.46431 0.7587 0.0
C81 C 0.92579 0.44983 0.76831 0.0
C82 C 0.92342 0.42597 0.75917 0.0
N83 N 0.89008 0.47054 0.72933 0.0
H84 H 0.59816 0.46898 0.71296 0.0
H85 H 0.54425 0.42664 0.76299 0.0
H86 H 0.6128 0.5105 0.77002 0.0
H87 H 0.55491 0.38951 0.74015 0.0
C88 C 0.54246 0.39425 0.7298 0.0
C89 C 0.59278 0.46881 0.72864 0.0
C90 C 0.60863 0.49245 0.74064 0.0
C91 C 0.56979 0.44498 0.73673 0.0
C92 C 0.56257 0.44481 0.75698 0.0
C93 C 0.57766 0.46852 0.76908 0.0
C94 C 0.60069 0.49226 0.76075 0.0
N95 N 0.55257 0.42216 0.72401 0.0
H96 H 0.56113 0.14913 0.71928 0.0
H97 H 0.58677 0.11423 0.76675 0.0
H98 H 0.50514 0.10884 0.76912 0.0
H99 H 0.60847 0.10637 0.7386 0.0
C100 C 0.61833 0.12702 0.73219 0.0
C101 C 0.55655 0.13822 0.73344 0.0
C102 C 0.53037 0.12943 0.74303 0.0
C103 C 0.57669 0.13232 0.74163 0.0
C104 C 0.57103 0.11827 0.76006 0.0
C105 C 0.54516 0.10958 0.77 0.0
C106 C 0.52486 0.115 0.76128 0.0
N107 N 0.6027 0.14123 0.73126 0.0
H108 H 0.76934 0.5358 0.97945 0.0
H109 H 0.82253 0.58068 0.92976 0.0
H110 H 0.73661 0.56503 0.93244 0.0
H111 H 0.80241 0.51343 0.97375 0.0
C112 C 0.82197 0.5332 0.97282 0.0
C113 C 0.77196 0.54589 0.96511 0.0
C114 C 0.75008 0.55012 0.95746 0.0
C115 C 0.79805 0.55663 0.95477 0.0
C116 C 0.80192 0.57137 0.93688 0.0
C117 C 0.77998 0.57457 0.9284 0.0
C118 C 0.75407 0.56341 0.9388 0.0
N119 N 0.82203 0.55582 0.96276 0.0
H120 H 0.4739 0.21485 0.98862 0.0
H121 H 0.45847 0.25585 0.9397 0.0
H122 H 0.45048 0.17599 0.93029 0.0
H123 H 0.42623 0.24977 0.97316 0.0
C124 C 0.44668 0.265 0.9794 0.0
C125 C 0.4693 0.21551 0.97287 0.0
C126 C 0.46275 0.19269 0.96029 0.0
C127 C 0.46729 0.23811 0.96551 0.0
C128 C 0.46034 0.23855 0.94525 0.0
C129 C 0.45431 0.21627 0.93245 0.0
C130 C 0.45551 0.19343 0.94009 0.0
N131 N 0.46924 0.25902 0.97879 0.0
H132 H 0.79356 0.24693 0.98048 0.0
H133 H 0.75358 0.19934 0.92714 0.0
H134 H 0.83568 0.27269 0.92352 0.0
H135 H 0.71168 0.19748 0.9502 0.0
C136 C 0.71881 0.18825 0.9615 0.0
C137 C 0.79358 0.24425 0.96436 0.0
C138 C 0.81715 0.26286 0.95302 0.0
C139 C 0.77033 0.2216 0.95508 0.0
C140 C 0.77094 0.21735 0.93426 0.0
C141 C 0.79452 0.23585 0.92278 0.0
C142 C 0.81726 0.25864 0.93226 0.0
N143 N 0.74789 0.20193 0.96725 0.0
H144 H 0.54497 0.74999 0.05028 0.0
H145 H 0.56008 0.7944 0.10579 0.0
H146 H 0.5977 0.74343 0.09594 0.0
H147 H 0.53935 0.78923 0.0388 0.0
C148 C 0.53644 0.79835 0.05237 0.0
C149 C 0.55504 0.75555 0.06491 0.0
C150 C 0.57144 0.74396 0.07174 0.0
C151 C 0.55137 0.77402 0.0773 0.0
C152 C 0.56376 0.78063 0.09634 0.0
C153 C 0.58124 0.77045 0.10306 0.0
C154 C 0.5847 0.75187 0.09072 0.0
N155 N 0.53544 0.78668 0.07145 0.0
H156 H 0.26386 0.78646 0.04872 0.0
H157 H 0.21339 0.76672 0.10225 0.0
H158 H 0.29067 0.84491 0.09751 0.0
H159 H 0.19818 0.72219 0.09169 0.0
C160 C 0.19626 0.72394 0.0756 0.0
C161 C 0.2606 0.79209 0.06366 0.0
C162 C 0.2803 0.81791 0.07187 0.0
C163 C 0.23652 0.77343 0.07452 0.0
C164 C 0.23204 0.78082 0.09382 0.0
C165 C 0.25157 0.80657 0.1023 0.0
C166 C 0.27554 0.82498 0.09114 0.0
N167 N 0.21671 0.74795 0.06524 0.0
H168 H 0.22746 0.47259 0.04876 0.0
H169 H 0.25321 0.44186 0.09912 0.0
H170 H 0.17084 0.43553 0.09831 0.0
H171 H 0.27762 0.43451 0.07316 0.0
C172 C 0.28721 0.45467 0.06598 0.0
C173 C 0.22323 0.4633 0.06353 0.0
C174 C 0.19654 0.45412 0.07246 0.0
C175 C 0.24386 0.45892 0.07307 0.0
C176 C 0.23758 0.44557 0.09193 0.0
C177 C 0.21116 0.43672 0.10135 0.0
C178 C 0.19119 0.44175 0.09147 0.0
N179 N 0.27057 0.46782 0.06338 0.0
H180 H 0.43238 0.88395 0.32169 0.0
H181 H 0.47848 0.89171 0.26733 0.0
H182 H 0.40577 0.90327 0.26624 0.0
H183 H 0.47539 0.84767 0.291 0.0
C184 C 0.48804 0.86506 0.30093 0.0
C185 C 0.43466 0.88704 0.3056 0.0
C186 C 0.41567 0.89254 0.29492 0.0
C187 C 0.45702 0.88611 0.29565 0.0
C188 C 0.46072 0.89149 0.27489 0.0
C189 C 0.44232 0.89776 0.26409 0.0
C190 C 0.41968 0.89784 0.27425 0.0
N191 N 0.4773 0.88266 0.30698 0.0
H192 H 0.12933 0.55784 0.31775 0.0
H193 H 0.1141 0.58918 0.2631 0.0
H194 H 0.10282 0.50731 0.26418 0.0
H195 H 0.09952 0.61021 0.28555 0.0
C196 C 0.1172 0.61827 0.29605 0.0
C197 C 0.12304 0.55485 0.3021 0.0
C198 C 0.11638 0.52991 0.29223 0.0
C199 C 0.12162 0.57608 0.29188 0.0
C200 C 0.11444 0.57264 0.27136 0.0
C201 C 0.10753 0.5479 0.26131 0.0
C202 C 0.10836 0.52654 0.27186 0.0
N203 N 0.12814 0.60099 0.30225 0.0
H204 H 0.4539 0.58447 0.31283 0.0
H205 H 0.43443 0.52962 0.26294 0.0
H206 H 0.51741 0.60228 0.26762 0.0
H207 H 0.41957 0.49945 0.29307 0.0
C208 C 0.40565 0.50684 0.2985 0.0
C209 C 0.46055 0.57941 0.29889 0.0
C210 C 0.48801 0.59686 0.29129 0.0
C211 C 0.44182 0.55469 0.28913 0.0
C212 C 0.44976 0.54814 0.2708 0.0
C213 C 0.47696 0.56514 0.26266 0.0
C214 C 0.496 0.58955 0.27312 0.0
N215 N 0.41568 0.53581 0.29844 0.0
Gd216 Gd 0.51189 0.01655 0.042 0.0
Gd217 Gd 0.49574 0.98784 0.99073 0.0
C218 C 0.41313 0.90767 0.97734 0.0
C219 C 0.43059 0.877 0.96706 0.0
C220 C 0.46379 0.9251 0.97552 0.0
C221 C 0.44136 0.9295 0.97981 0.0
C222 C 0.45859 0.89903 0.96852 0.0
C223 C 0.40791 0.8813 0.97149 0.0
C224 C 0.39092 0.91309 0.98039 0.0
C225 C 0.39709 0.93994 0.98498 0.0
N226 N 0.44705 0.95527 0.98552 0.0
C227 C 0.42534 0.96094 0.98716 0.0
H228 H 0.42912 0.98123 0.99089 0.0
C229 C 0.51308 0.94448 0.97002 0.0
N230 N 0.49067 0.94673 0.97704 0.0
C231 C 0.50894 0.91909 0.96289 0.0
C232 C 0.48164 0.89611 0.96254 0.0
H233 H 0.53429 0.96208 0.97022 0.0
H234 H 0.38638 0.86427 0.9698 0.0
H235 H 0.5759 0.02229 0.04727 0.0
H236 H 0.36899 0.89687 0.97877 0.0
H237 H 0.38006 0.94447 0.98699 0.0
H238 H 0.42621 0.85675 0.96197 0.0
H239 H 0.47209 0.04438 0.05531 0.0
H240 H 0.63731 0.10796 0.05579 0.0
H241 H 0.62568 0.05918 0.05216 0.0
H242 H 0.57986 0.15062 0.06278 0.0
H243 H 0.52681 0.91725 0.95777 0.0
H244 H 0.4785 0.87643 0.95708 0.0
H245 H 0.61999 0.14209 0.05945 0.0
H246 H 0.47867 0.0906 0.0635 0.0
N247 N 0.55964 0.04999 0.04768 0.0
C248 C 0.61543 0.09185 0.05371 0.0
C249 C 0.60894 0.06433 0.05174 0.0
C250 C 0.59346 0.09806 0.05385 0.0
C251 C 0.56538 0.07631 0.05102 0.0
C252 C 0.5807 0.04348 0.04899 0.0
N253 N 0.5162 0.05919 0.05157 0.0
C254 C 0.5429 0.08107 0.05309 0.0
C255 C 0.49691 0.08822 0.06056 0.0
C256 C 0.52425 0.11122 0.0612 0.0
C257 C 0.49326 0.0621 0.05602 0.0
C258 C 0.54771 0.10776 0.05777 0.0
H259 H 0.52703 0.13141 0.06481 0.0
O260 O 0.48782 0.00516 0.0698 0.0
O261 O 0.48154 0.98233 0.02237 0.0
O262 O 0.47539 0.01388 0.99786 0.0
O263 O 0.50623 0.04562 0.02132 0.0
O264 O 0.46395 0.99632 0.04336 0.0
O265 O 0.52594 0.00211 0.06742 0.0
O266 O 0.51203 0.02541 0.97297 0.0
O267 O 0.52792 0.01985 0.01084 0.0
O268 O 0.52641 0.98483 0.03797 0.0
O269 O 0.50572 0.95929 0.00859 0.0
O270 O 0.54229 1.00097 0.99115 0.0
O271 O 0.49372 0.98602 0.95797 0.0
C272 C 0.45831 0.97793 0.02964 0.0
C273 C 0.57569 0.12987 0.05943 0.0
C274 C 0.59854 0.12502 0.05751 0.0
C275 C 0.50525 0.99913 0.07897 0.0
C276 C 0.51255 0.00856 0.09991 0.0
C277 C 0.53201 0.03627 0.10445 0.0
C278 C 0.49984 0.98938 0.11559 0.0
C279 C 0.50635 0.9977 0.13585 0.0
C280 C 0.5387 0.04472 0.12443 0.0
C281 C 0.52601 0.02568 0.14002 0.0
C282 C 0.48682 0.03826 0.00706 0.0
C283 C 0.5499 0.01977 1.00484 0.0
C284 C 0.50686 0.01273 0.95582 0.0
C285 C 0.52974 0.02478 0.94077 0.0
C286 C 0.55757 0.03154 0.94566 0.0
C287 C 0.52374 0.03029 0.92133 0.0
C288 C 0.54532 0.04222 0.90671 0.0
C289 C 0.579 0.04321 0.93133 0.0
C290 C 0.57298 0.0484 0.91199 0.0
C291 C 0.51913 0.96315 0.02598 0.0
H292 H 0.54198 0.0513 0.09257 0.0
H293 H 0.48506 0.96791 0.11193 0.0
H294 H 0.55367 0.06618 0.12787 0.0
H295 H 0.53124 0.03303 0.15535 0.0
H296 H 0.56293 0.02797 0.96051 0.0
H297 H 0.50237 0.02571 0.91777 0.0
H298 H 0.60039 0.04823 0.93523 0.0
H299 H 0.59001 0.05699 0.90112 0.0
Gd300 Gd 0.99325 0.48542 0.03828 0.0
Gd301 Gd 0.02866 0.49678 0.98886 0.0
C302 C 0.11317 0.49816 0.98194 0.0
C303 C 0.14549 0.54629 0.97351 0.0
C304 C 0.09544 0.5301 0.97913 0.0
C305 C 0.09081 0.50403 0.9835 0.0
C306 C 0.12266 0.55139 0.97353 0.0
C307 C 0.14071 0.51964 0.97759 0.0
C308 C 0.10685 0.47064 0.98359 0.0
C309 C 0.07863 0.44971 0.98548 0.0
N310 N 0.06375 0.48369 0.98685 0.0
C311 C 0.05719 0.45662 0.98671 0.0
H312 H 0.03548 0.44023 0.98816 0.0
C313 C 0.07514 0.55754 0.97053 0.0
N314 N 0.07266 0.53382 0.97842 0.0
C315 C 0.10176 0.57953 0.96521 0.0
C316 C 0.12574 0.57663 0.96706 0.0
H317 H 0.05662 0.55978 0.96888 0.0
H318 H 0.15823 0.51561 0.97657 0.0
H319 H 0.98889 0.54335 0.04107 0.0
H320 H 0.1234 0.46524 0.98253 0.0
H321 H 0.07335 0.42825 0.98605 0.0
H322 H 0.16663 0.56244 0.96945 0.0
H323 H 0.96205 0.41797 0.04974 0.0
H324 H 0.90307 0.52099 0.0538 0.0
H325 H 0.95275 0.55682 0.04706 0.0
H326 H 0.857 0.42264 0.06242 0.0
H327 H 0.10372 0.59862 0.95958 0.0
H328 H 0.14629 0.59353 0.96265 0.0
H329 H 0.86755 0.4709 0.0597 0.0
H330 H 0.91452 0.37971 0.05859 0.0
N331 N 0.95984 0.50007 0.0432 0.0
C332 C 0.91882 0.51489 0.05097 0.0
C333 C 0.94684 0.53517 0.0472 0.0
C334 C 0.91165 0.48705 0.05163 0.0
C335 C 0.93292 0.48021 0.04765 0.0
C336 C 0.96727 0.52738 0.04371 0.0
N337 N 0.94869 0.44786 0.04723 0.0
C338 C 0.92711 0.4532 0.04959 0.0
C339 C 0.91775 0.40028 0.05609 0.0
C340 C 0.89512 0.40527 0.05794 0.0
C341 C 0.94467 0.42203 0.05111 0.0
C342 C 0.89974 0.43209 0.05509 0.0
H343 H 0.87435 0.38845 0.06204 0.0
O344 O 1.00346 0.4738 0.06682 0.0
O345 O 0.03002 0.48787 0.02138 0.0
O346 O 0.99772 0.45156 0.99575 0.0
O347 O 0.96372 0.45181 0.01675 0.0
O348 O 0.0106 0.45643 0.0422 0.0
O349 O 0.00875 0.51479 0.06305 0.0
O350 O 0.01653 0.50464 0.95955 0.0
O351 O 0.99316 0.49557 0.00624 0.0
O352 O 0.02481 0.53121 0.03305 0.0
O353 O 0.05628 0.53423 0.00775 0.0
O354 O 0.0093 0.52415 0.98348 0.0
O355 O 0.01511 0.46578 0.96521 0.0
C356 C 0.03117 0.46798 0.02964 0.0
C357 C 0.87818 0.43858 0.05824 0.0
C358 C 0.88419 0.46605 0.0567 0.0
C359 C 0.0101 0.49733 0.07538 0.0
C360 C 0.9989 0.49576 0.09565 0.0
C361 C 0.96973 0.48428 0.09901 0.0
C362 C 0.0178 0.5054 0.11195 0.0
C363 C 1.00777 0.50358 0.13167 0.0
C364 C 0.95957 0.48241 0.11851 0.0
C365 C 0.9784 0.49192 0.13477 0.0
C366 C 0.97184 0.43944 1.00348 0.0
C367 C 0.99045 0.51416 0.99739 0.0
C368 C 0.01313 0.48171 0.9518 0.0
C369 C 0.0277 0.48452 0.93263 0.0
C370 C 0.05575 0.48965 0.9323 0.0
C371 C 0.01401 0.48343 0.91448 0.0
C372 C 0.02853 0.48815 0.89619 0.0
C373 C 0.07012 0.49414 0.91415 0.0
C374 C 0.0567 0.49363 0.89616 0.0
C375 C 0.04883 0.54482 0.0228 0.0
H376 H 0.95487 0.4767 0.08663 0.0
H377 H 0.04031 0.51392 0.10927 0.0
H378 H 0.93703 0.47356 0.12104 0.0
H379 H 0.97002 0.49051 0.14973 0.0
H380 H 0.06663 0.49041 0.94604 0.0
H381 H 0.99241 0.47967 0.91461 0.0
H382 H 0.0918 0.49824 0.91404 0.0
H383 H 0.06822 0.49737 0.8822 0.0
Gd384 Gd 0.51289 0.51732 0.99154 0.0
Gd385 Gd 0.53602 0.5089 0.04202 0.0
C386 C 0.61782 0.50607 0.05202 0.0
C387 C 0.5997 0.45839 0.06243 0.0
C388 C 0.56719 0.47538 0.05524 0.0
C389 C 0.58974 0.50103 0.05047 0.0
C390 C 0.57187 0.45385 0.06159 0.0
C391 C 0.62264 0.48447 0.05767 0.0
C392 C 0.6402 0.53275 0.04814 0.0
C393 C 0.6343 0.55375 0.04345 0.0
N394 N 0.58425 0.52131 0.04489 0.0
C395 C 0.60609 0.54773 0.04213 0.0
H396 H 0.6021 0.56428 0.03845 0.0
C397 C 0.5179 0.44768 0.06087 0.0
N398 N 0.54067 0.47178 0.05433 0.0
C399 C 0.52139 0.4256 0.06709 0.0
C400 C 0.54848 0.42859 0.06726 0.0
H401 H 0.49687 0.44521 0.06057 0.0
H402 H 0.64405 0.48786 0.05874 0.0
H403 H 0.44546 0.46499 0.99302 0.0
H404 H 0.66207 0.53745 0.04908 0.0
H405 H 0.65145 0.57458 0.04075 0.0
H406 H 0.60373 0.44205 0.06712 0.0
H407 H 0.55674 0.58158 0.97483 0.0
H408 H 0.39035 0.49754 0.98141 0.0
H409 H 0.39721 0.45791 0.98938 0.0
H410 H 0.45474 0.59297 0.96641 0.0
H411 H 0.5032 0.40629 0.07171 0.0
H412 H 0.55116 0.41148 0.07213 0.0
H413 H 0.41203 0.54808 0.97311 0.0
H414 H 0.55421 0.62276 0.96426 0.0
N415 N 0.46598 0.50833 0.98758 0.0
C416 C 0.41164 0.50077 0.98293 0.0
C417 C 0.41542 0.47834 0.98739 0.0
C418 C 0.4354 0.52698 0.98009 0.0
C419 C 0.46265 0.53007 0.98235 0.0
C420 C 0.44289 0.48246 0.98945 0.0
N421 N 0.51232 0.55696 0.97991 0.0
C422 C 0.48658 0.55521 0.97843 0.0
C423 C 0.53503 0.60391 0.96825 0.0
C424 C 0.50881 0.60283 0.96757 0.0
C425 C 0.53637 0.58051 0.97416 0.0
C426 C 0.4841 0.57814 0.97235 0.0
H427 H 0.50782 0.62097 0.96294 0.0
O428 O 0.53415 0.52191 0.96309 0.0
O429 O 0.54489 0.51241 0.00937 0.0
O430 O 0.55494 0.55403 0.03226 0.0
O431 O 0.52177 0.55435 0.01033 0.0
O432 O 0.56062 0.54102 0.98667 0.0
O433 O 0.49245 0.48639 0.96802 0.0
O434 O 0.52048 0.50244 0.07285 0.0
O435 O 0.503 0.51149 0.02411 0.0
O436 O 0.49263 0.47201 1.00057 0.0
O437 O 0.52353 0.46997 0.02399 0.0
O438 O 0.48851 0.48466 0.0479 0.0
O439 O 0.55061 0.54365 0.06241 0.0
C440 C 0.56741 0.52908 1.00037 0.0
C441 C 0.45708 0.57553 0.97088 0.0
C442 C 0.43277 0.54997 0.97471 0.0
C443 C 0.513 0.49979 0.95525 0.0
C444 C 0.50502 0.50277 0.9347 0.0
C445 C 0.48797 0.51464 0.9311 0.0
C446 C 0.51563 0.49465 0.9184 0.0
C447 C 0.5094 0.49842 0.89851 0.0
C448 C 0.48163 0.5184 0.91144 0.0
C449 C 0.49228 0.51043 0.89524 0.0
C450 C 0.54289 0.56683 0.02326 0.0
C451 C 0.48083 0.49494 0.03355 0.0
C452 C 0.53636 0.52848 0.07766 0.0
C453 C 0.55149 0.53504 0.09707 0.0
C454 C 0.5808 0.54481 0.09796 0.0
C455 C 0.53678 0.53345 0.11483 0.0
C456 C 0.55139 0.5424 0.13323 0.0
C457 C 0.5953 0.55354 0.11623 0.0
C458 C 0.58078 0.55262 0.13376 0.0
C459 C 0.50271 0.45822 0.01065 0.0
H460 H 0.47969 0.5211 0.94343 0.0
H461 H 0.52917 0.48586 0.92124 0.0
H462 H 0.46843 0.52755 0.90875 0.0
H463 H 0.48679 0.51331 0.88015 0.0
H464 H 0.59257 0.54615 0.08453 0.0
H465 H 0.51414 0.52592 0.11428 0.0
H466 H 0.61793 0.56124 0.11679 0.0
H467 H 0.59238 0.55949 0.14779 0.0
Gd468 Gd 0.1749 0.35749 0.3773 0.0
Gd469 Gd 0.16314 0.33551 0.32426 0.0
C470 C 0.07364 0.26495 0.31001 0.0
C471 C 0.0808 0.22535 0.30817 0.0
C472 C 0.12093 0.27152 0.31419 0.0
C473 C 0.10294 0.2825 0.31375 0.0
C474 C 0.11013 0.243 0.31048 0.0
C475 C 0.06259 0.2363 0.30796 0.0
C476 C 0.05639 0.27675 0.30765 0.0
C477 C 0.06859 0.30545 0.30803 0.0
N478 N 0.11424 0.31041 0.31561 0.0
C479 C 0.09767 0.32205 0.31172 0.0
H480 H 0.10624 0.34408 0.31117 0.0
C481 C 0.16798 0.28005 0.31181 0.0
N482 N 0.14923 0.28901 0.31635 0.0
C483 C 0.15831 0.25203 0.30819 0.0
C484 C 0.12923 0.23326 0.3081 0.0
H485 H 0.19058 0.29436 0.31227 0.0
H486 H 0.04011 0.22256 0.30542 0.0
H487 H 0.24533 0.38593 0.37959 0.0
H488 H 0.03384 0.26398 0.30477 0.0
H489 H 0.05561 0.31485 0.30543 0.0
H490 H 0.07211 0.20333 0.30571 0.0
H491 H 0.12182 0.36173 0.39882 0.0
H492 H 0.28208 0.47337 0.38858 0.0
H493 H 0.28776 0.4325 0.38265 0.0
H494 H 0.20131 0.48236 0.40542 0.0
H495 H 0.17329 0.24493 0.30558 0.0
H496 H 0.12176 0.21154 0.30523 0.0
H497 H 0.24943 0.49196 0.39677 0.0
H498 H 0.11241 0.39775 0.4127 0.0
N499 N 0.21622 0.40073 0.3819 0.0
C500 C 0.26345 0.45308 0.38686 0.0
C501 C 0.26675 0.43005 0.38362 0.0
C502 C 0.23616 0.44934 0.38914 0.0
C503 C 0.21267 0.4225 0.38663 0.0
C504 C 0.24271 0.40376 0.38172 0.0
N505 N 0.16413 0.3906 0.39032 0.0
C506 C 0.18571 0.41723 0.39133 0.0
C507 C 0.13304 0.40353 0.40656 0.0
C508 C 0.15437 0.43135 0.40612 0.0
C509 C 0.13842 0.38322 0.39879 0.0
C510 C 0.18132 0.43844 0.39886 0.0
H511 H 0.15014 0.44702 0.41214 0.0
O512 O 0.15263 0.33677 0.40467 0.0
O513 O 0.14286 0.33245 0.35355 0.0
O514 O 0.1484 0.3666 0.32768 0.0
O515 O 0.15541 0.3804 0.36153 0.0
O516 O 0.13726 0.31459 0.38117 0.0
O517 O 0.19797 0.35374 0.40269 0.0
O518 O 0.19769 0.34323 0.30425 0.0
O519 O 0.19569 0.36077 0.34772 0.0
O520 O 0.20233 0.33962 0.3683 0.0
O521 O 0.17452 0.30848 0.34398 0.0
O522 O 0.19545 0.38084 0.32196 0.0
O523 O 0.16011 0.34302 0.29242 0.0
C524 C 0.12759 0.31062 0.36321 0.0
C525 C 0.20429 0.46565 0.39995 0.0
C526 C 0.23169 0.47112 0.39502 0.0
C527 C 0.17572 0.3422 0.4143 0.0
C528 C 0.17905 0.35427 0.43459 0.0
C529 C 0.18994 0.38285 0.43679 0.0
C530 C 0.17171 0.33749 0.4519 0.0
C531 C 0.17574 0.34956 0.47117 0.0
C532 C 0.19307 0.39466 0.45573 0.0
C533 C 0.18611 0.37819 0.47281 0.0
C534 C 0.14752 0.38156 0.34285 0.0
C535 C 0.209 0.3834 0.33836 0.0
C536 C 0.18525 0.34651 0.28851 0.0
C537 C 0.19089 0.33857 0.26851 0.0
C538 C 0.2035 0.32194 0.26665 0.0
C539 C 0.18698 0.35075 0.2511 0.0
C540 C 0.19631 0.34696 0.23223 0.0
C541 C 0.21226 0.31776 0.24791 0.0
C542 C 0.20898 0.33039 0.23084 0.0
C543 C 0.1926 0.31552 0.35915 0.0
H544 H 0.19638 0.39618 0.4239 0.0
H545 H 0.16385 0.31546 0.45042 0.0
H546 H 0.20139 0.41674 0.4572 0.0
H547 H 0.18924 0.38793 0.48741 0.0
H548 H 0.20731 0.31274 0.27969 0.0
H549 H 0.17769 0.36398 0.25232 0.0
H550 H 0.22209 0.30504 0.24667 0.0
H551 H 0.21617 0.32708 0.21648 0.0
Gd552 Gd 0.66425 0.83048 0.37627 0.0
Gd553 Gd 0.69081 0.83042 0.32505 0.0
C554 C 0.76414 0.81294 0.31775 0.0
C555 C 0.80105 0.85617 0.30368 0.0
C556 C 0.75453 0.85018 0.31111 0.0
C557 C 0.74561 0.82383 0.31812 0.0
C558 C 0.78214 0.86647 0.30339 0.0
C559 C 0.79207 0.82945 0.31088 0.0
C560 C 0.75389 0.78562 0.32395 0.0
C561 C 0.72557 0.76962 0.32968 0.0
N562 N 0.7185 0.8085 0.32471 0.0
C563 C 0.70798 0.78131 0.32972 0.0
H564 H 0.68628 0.76859 0.33438 0.0
C565 C 0.74249 0.88408 0.30217 0.0
N566 N 0.73576 0.85946 0.31106 0.0
C567 C 0.76962 0.90102 0.29433 0.0
C568 C 0.78968 0.89234 0.29518 0.0
H569 H 0.72706 0.89094 0.30168 0.0
H570 H 0.8067 0.82155 0.31068 0.0
H571 H 0.66232 0.88967 0.37295 0.0
H572 H 0.76748 0.77654 0.32401 0.0
H573 H 0.71729 0.74832 0.33421 0.0
H574 H 0.82245 0.86847 0.29799 0.0
H575 H 0.63631 0.77128 0.40164 0.0
H576 H 0.57742 0.87193 0.3841 0.0
H577 H 0.62734 0.90537 0.3757 0.0
H578 H 0.5313 0.77793 0.40663 0.0
H579 H 0.77507 0.92078 0.28772 0.0
H580 H 0.81069 0.90548 0.28909 0.0
H581 H 0.5415 0.82403 0.39538 0.0
H582 H 0.59034 0.73744 0.4167 0.0
N583 N 0.63234 0.84742 0.37878 0.0
C584 C 0.59266 0.86486 0.3828 0.0
C585 C 0.62083 0.88381 0.37813 0.0
C586 C 0.58491 0.83736 0.38685 0.0
C587 C 0.60557 0.82924 0.38484 0.0
C588 C 0.64061 0.87478 0.37654 0.0
N589 N 0.62129 0.79763 0.39106 0.0
C590 C 0.59985 0.80343 0.39126 0.0
C591 C 0.59263 0.75581 0.40944 0.0
C592 C 0.56968 0.76047 0.40846 0.0
C593 C 0.61862 0.77499 0.40094 0.0
C594 C 0.57333 0.78489 0.39978 0.0
H595 H 0.54965 0.74571 0.41519 0.0
O596 O 0.68097 0.82543 0.40459 0.0
O597 O 0.69687 0.82845 0.35765 0.0
O598 O 0.65575 0.78753 0.33378 0.0
O599 O 0.63123 0.7906 0.36167 0.0
O600 O 0.68294 0.80251 0.38188 0.0
O601 O 0.68026 0.86326 0.39873 0.0
O602 O 0.6829 0.83836 0.29436 0.0
O603 O 0.65891 0.8346 0.3434 0.0
O604 O 0.69686 0.87432 0.36636 0.0
O605 O 0.72317 0.86961 0.34043 0.0
O606 O 0.67593 0.86103 0.31918 0.0
O607 O 0.66709 0.79627 0.30465 0.0
C608 C 0.70088 0.8113 0.36732 0.0
C609 C 0.55195 0.79204 0.40039 0.0
C610 C 0.55776 0.81829 0.39398 0.0
C611 C 0.68526 0.8489 0.41188 0.0
C612 C 0.67479 0.84785 0.43238 0.0
C613 C 0.64674 0.8415 0.43582 0.0
C614 C 0.69286 0.8523 0.44878 0.0
C615 C 0.68305 0.85039 0.4686 0.0
C616 C 0.6368 0.83942 0.45539 0.0
C617 C 0.65476 0.84379 0.4717 0.0
C618 C 0.63385 0.77706 0.34619 0.0
C619 C 0.65815 0.8538 0.33377 0.0
C620 C 0.6706 0.81225 0.28938 0.0
C621 C 0.67993 0.80533 0.27062 0.0
C622 C 0.69969 0.79606 0.2708 0.0
C623 C 0.6679 0.80679 0.25236 0.0
C624 C 0.67503 0.79848 0.23438 0.0
C625 C 0.70698 0.78797 0.25296 0.0
C626 C 0.69458 0.78896 0.23484 0.0
C627 C 0.7198 0.88418 0.35482 0.0
H628 H 0.63253 0.83813 0.42342 0.0
H629 H 0.71446 0.85692 0.44608 0.0
H630 H 0.61512 0.83453 0.45794 0.0
H631 H 0.64665 0.84251 0.48674 0.0
H632 H 0.70917 0.79467 0.2847 0.0
H633 H 0.65247 0.81374 0.2522 0.0
H634 H 0.72213 0.78073 0.25321 0.0
H635 H 0.70047 0.78256 0.22115 0.0
Gd636 Gd 0.18325 0.86493 0.32118 0.0
Gd637 Gd 0.20438 0.85474 0.37202 0.0
C638 C 0.28966 0.86066 0.38536 0.0
C639 C 0.27554 0.81312 0.3939 0.0
C640 C 0.23995 0.82555 0.38492 0.0
C641 C 0.26096 0.85266 0.38189 0.0
C642 C 0.24691 0.80559 0.39143 0.0
C643 C 0.29687 0.84064 0.39096 0.0
C644 C 0.31011 0.88872 0.38391 0.0
C645 C 0.30156 0.90811 0.38009 0.0
N646 N 0.25316 0.87159 0.37708 0.0
C647 C 0.27278 0.89917 0.37707 0.0
H648 H 0.26646 0.91439 0.37418 0.0
C649 C 0.19096 0.79388 0.38878 0.0
N650 N 0.21251 0.81919 0.38297 0.0
C651 C 0.19678 0.77328 0.3951 0.0
C652 C 0.22487 0.77901 0.39611 0.0
H653 H 0.1692 0.78932 0.38796 0.0
H654 H 0.31882 0.84636 0.39353 0.0
H655 H 0.12202 0.80364 0.32257 0.0
H656 H 0.33239 0.8957 0.38635 0.0
H657 H 0.31712 0.92994 0.37946 0.0
H658 H 0.28134 0.79804 0.39873 0.0
H659 H 0.21392 0.92738 0.30052 0.0
H660 H 0.05296 0.81836 0.31275 0.0
H661 H 0.07076 0.78612 0.31982 0.0
H662 H 0.0994 0.9147 0.29579 0.0
H663 H 0.1796 0.753 0.39914 0.0
H664 H 0.22933 0.76308 0.40114 0.0
H665 H 0.06387 0.86662 0.30414 0.0
H666 H 0.20083 0.96172 0.28885 0.0
N667 N 0.13363 0.84582 0.31776 0.0
C668 C 0.0756 0.82624 0.31394 0.0
C669 C 0.08557 0.80798 0.31787 0.0
C670 C 0.09503 0.85429 0.31087 0.0
C671 C 0.12427 0.86348 0.31275 0.0
C672 C 0.1148 0.81808 0.31941 0.0
N673 N 0.17187 0.89774 0.3089 0.0
C674 C 0.14411 0.89044 0.30825 0.0
C675 C 0.18466 0.94183 0.29445 0.0
C676 C 0.1563 0.93533 0.295 0.0
C677 C 0.19201 0.92242 0.3011 0.0
C678 C 0.1355 0.9091 0.30151 0.0
H679 H 0.1506 0.95029 0.2897 0.0
O680 O 0.20724 0.8753 0.29337 0.0
O681 O 0.21703 0.865 0.34012 0.0
O682 O 0.21669 0.90003 0.36689 0.0
O683 O 0.19102 0.90227 0.33917 0.0
O684 O 0.23009 0.89576 0.31875 0.0
O685 O 0.16934 0.83534 0.29667 0.0
O686 O 0.17982 0.84326 0.39952 0.0
O687 O 0.17141 0.85635 0.35331 0.0
O688 O 0.17168 0.82046 0.3273 0.0
O689 O 0.20161 0.82024 0.35236 0.0
O690 O 0.15717 0.8247 0.37386 0.0
O691 O 0.21831 0.88309 0.39747 0.0
C692 C 0.23861 0.88551 0.33264 0.0
C693 C 0.10645 0.90057 0.30069 0.0
C694 C 0.08623 0.87319 0.3054 0.0
C695 C 0.18949 0.85205 0.28467 0.0
C696 C 0.18105 0.85398 0.26407 0.0
C697 C 0.15982 0.86067 0.26023 0.0
C698 C 0.19462 0.84906 0.24801 0.0
C699 C 0.18731 0.851 0.22802 0.0
C700 C 0.15235 0.86255 0.24048 0.0
C701 C 0.16597 0.8578 0.22445 0.0
C702 C 0.20714 0.91313 0.35533 0.0
C703 C 0.14931 0.83647 0.36072 0.0
C704 C 0.19756 0.86592 0.40894 0.0
C705 C 0.20493 0.8625 0.42956 0.0
C706 C 0.22093 0.84956 0.43335 0.0
C707 C 0.19498 0.87151 0.44573 0.0
C708 C 0.20066 0.86734 0.46567 0.0
C709 C 0.22666 0.84537 0.45306 0.0
C710 C 0.21653 0.85408 0.46914 0.0
C711 C 0.18504 0.80915 0.33646 0.0
H712 H 0.14905 0.86439 0.27244 0.0
H713 H 0.21068 0.84345 0.25115 0.0
H714 H 0.13602 0.86783 0.23757 0.0
H715 H 0.16009 0.85986 0.20929 0.0
H716 H 0.22886 0.84258 0.42114 0.0
H717 H 0.18243 0.88134 0.44278 0.0
H718 H 0.239 0.83534 0.45589 0.0
H719 H 0.2215 0.85085 0.48429 0.0
Gd720 Gd 0.84502 0.68496 0.71036 0.0
Gd721 Gd 0.82379 0.66426 0.65812 0.0
C722 C 0.73641 0.58809 0.64871 0.0
C723 C 0.74832 0.55482 0.63473 0.0
C724 C 0.78563 0.60123 0.64364 0.0
C725 C 0.76557 0.60773 0.65018 0.0
C726 C 0.77724 0.57498 0.63526 0.0
C727 C 0.72793 0.5614 0.64138 0.0
C728 C 0.71669 0.59624 0.65386 0.0
C729 C 0.72625 0.62369 0.65944 0.0
N730 N 0.77452 0.63395 0.65656 0.0
C731 C 0.75542 0.64247 0.66048 0.0
H732 H 0.76261 0.6636 0.66492 0.0
C733 C 0.83324 0.61777 0.63407 0.0
N734 N 0.81324 0.62147 0.64383 0.0
C735 C 0.8261 0.59195 0.62588 0.0
C736 C 0.79803 0.57029 0.62679 0.0
H737 H 0.85491 0.6346 0.63326 0.0
H738 H 0.70564 0.54597 0.64022 0.0
H739 H 0.85611 0.64426 0.74112 0.0
H740 H 0.6941 0.58176 0.65302 0.0
H741 H 0.71118 0.63038 0.66305 0.0
H742 H 0.74144 0.53443 0.62853 0.0
H743 H 0.86978 0.75177 0.69843 0.0
H744 H 0.94535 0.6813 0.75239 0.0
H745 H 0.89643 0.64271 0.75726 0.0
H746 H 0.98241 0.77158 0.72406 0.0
H747 H 0.84218 0.58882 0.61878 0.0
H748 H 0.79247 0.55039 0.62021 0.0
H749 H 0.97744 0.72945 0.73967 0.0
H750 H 0.91531 0.79538 0.6975 0.0
N751 N 0.8824 0.68197 0.72585 0.0
C752 C 0.92784 0.68176 0.74495 0.0
C753 C 0.90024 0.6599 0.74772 0.0
C754 C 0.93227 0.70485 0.73382 0.0
C755 C 0.90871 0.70447 0.72456 0.0
C756 C 0.87756 0.66072 0.73848 0.0
N757 N 0.88764 0.72781 0.70925 0.0
C758 C 0.91141 0.72822 0.716 0.0
C759 C 0.91454 0.77663 0.70271 0.0
C760 C 0.93935 0.77715 0.70886 0.0
C761 C 0.88868 0.75174 0.70326 0.0
C762 C 0.93792 0.7529 0.71603 0.0
H763 H 0.95931 0.7965 0.70856 0.0
O764 O 0.84476 0.71185 0.7341 0.0
O765 O 0.80828 0.66102 0.68955 0.0
O766 O 0.81433 0.69816 0.66574 0.0
O767 O 0.82447 0.70954 0.69971 0.0
O768 O 0.81162 0.64052 0.71451 0.0
O769 O 0.82132 0.66773 0.73799 0.0
O770 O 0.84708 0.68072 0.63022 0.0
O771 O 0.85605 0.69654 0.67833 0.0
O772 O 0.86084 0.65603 0.7006 0.0
O773 O 0.83374 0.63313 0.67212 0.0
O774 O 0.87086 0.68084 0.65639 0.0
O775 O 0.80662 0.67826 0.63428 0.0
C776 C 0.79622 0.63838 0.69916 0.0
C777 C 0.96185 0.75287 0.72399 0.0
C778 C 0.95904 0.72886 0.73284 0.0
C779 C 0.83148 0.69163 0.74675 0.0
C780 C 0.84522 0.69402 0.76649 0.0
C781 C 0.87474 0.71105 0.7687 0.0
C782 C 0.82928 0.67744 0.7828 0.0
C783 C 0.84288 0.67731 0.80085 0.0
C784 C 0.88822 0.71093 0.78649 0.0
C785 C 0.87249 0.69406 0.80241 0.0
C786 C 0.81553 0.71253 0.68188 0.0
C787 C 0.87846 0.6995 0.6702 0.0
C788 C 0.82734 0.68405 0.62194 0.0
C789 C 0.81942 0.67387 0.60116 0.0
C790 C 0.79896 0.64621 0.59732 0.0
C791 C 0.83242 0.69203 0.58496 0.0
C792 C 0.82518 0.68264 0.56493 0.0
C793 C 0.79176 0.6367 0.57762 0.0
C794 C 0.80475 0.65467 0.56154 0.0
C795 C 0.85079 0.63569 0.68718 0.0
H796 H 0.88756 0.72415 0.75656 0.0
H797 H 0.80651 0.66418 0.78128 0.0
H798 H 0.911 0.7239 0.78792 0.0
H799 H 0.88344 0.69447 0.81612 0.0
H800 H 0.78851 0.63199 0.60952 0.0
H801 H 0.84789 0.7135 0.58801 0.0
H802 H 0.77608 0.61526 0.57478 0.0
H803 H 0.79904 0.64648 0.54644 0.0
Gd804 Gd 0.32522 0.16113 0.71444 0.0
Gd805 Gd 0.35341 0.16252 0.66333 0.0
C806 C 0.42955 0.14938 0.6565 0.0
C807 C 0.46609 0.1944 0.64464 0.0
C808 C 0.41832 0.18581 0.65096 0.0
C809 C 0.41004 0.15911 0.65693 0.0
C810 C 0.44629 0.20361 0.64437 0.0
C811 C 0.45774 0.16733 0.6507 0.0
C812 C 0.42005 0.12181 0.66164 0.0
C813 C 0.39158 0.10451 0.66653 0.0
N814 N 0.38272 0.14242 0.66268 0.0
C815 C 0.37305 0.11511 0.66679 0.0
H816 H 0.35123 0.10142 0.67079 0.0
C817 C 0.40493 0.21902 0.64284 0.0
N818 N 0.39869 0.19404 0.65087 0.0
C819 C 0.43244 0.23751 0.63629 0.0
C820 C 0.45332 0.22991 0.6373 0.0
H821 H 0.3888 0.22498 0.6422 0.0
H822 H 0.47309 0.16032 0.6505 0.0
H823 H 0.31803 0.21739 0.70808 0.0
H824 H 0.43439 0.11358 0.66157 0.0
H825 H 0.38392 0.08304 0.67027 0.0
H826 H 0.48776 0.20785 0.63983 0.0
H827 H 0.3006 0.10229 0.74004 0.0
H828 H 0.23202 0.19477 0.72031 0.0
H829 H 0.28058 0.22976 0.71005 0.0
H830 H 0.19211 0.10242 0.74572 0.0
H831 H 0.43751 0.25758 0.63048 0.0
H832 H 0.4746 0.24423 0.63216 0.0
H833 H 0.19895 0.14692 0.73329 0.0
H834 H 0.25567 0.0669 0.75541 0.0
N835 N 0.29101 0.17534 0.71657 0.0
C836 C 0.24842 0.18915 0.71947 0.0
C837 C 0.27581 0.20897 0.71371 0.0
C838 C 0.24284 0.16264 0.72483 0.0
C839 C 0.26495 0.15639 0.72337 0.0
C840 C 0.29705 0.2018 0.71263 0.0
N841 N 0.28347 0.12709 0.72988 0.0
C842 C 0.26104 0.1314 0.73025 0.0
C843 C 0.25681 0.08484 0.74825 0.0
C844 C 0.23294 0.08809 0.74761 0.0
C845 C 0.28221 0.10491 0.73957 0.0
C846 C 0.23502 0.11189 0.73891 0.0
H847 H 0.21334 0.0726 0.75444 0.0
O848 O 0.34471 0.15909 0.74239 0.0
O849 O 0.35873 0.16054 0.69597 0.0
O850 O 0.31939 0.11887 0.67205 0.0
O851 O 0.29408 0.12033 0.70018 0.0
O852 O 0.34548 0.13464 0.7203 0.0
O853 O 0.33996 0.19465 0.73625 0.0
O854 O 0.3462 0.17126 0.63269 0.0
O855 O 0.3199 0.16358 0.68149 0.0
O856 O 0.35421 0.20518 0.70329 0.0
O857 O 0.38398 0.20183 0.67962 0.0
O858 O 0.33438 0.1898 0.65711 0.0
O859 O 0.33217 0.12902 0.64201 0.0
C860 C 0.36319 0.14369 0.7056 0.0
C861 C 0.21239 0.11729 0.73935 0.0
C862 C 0.21629 0.14263 0.73228 0.0
C863 C 0.34756 0.18218 0.74932 0.0
C864 C 0.33834 0.18134 0.77015 0.0
C865 C 0.30969 0.17141 0.7747 0.0
C866 C 0.35832 0.18936 0.78578 0.0
C867 C 0.34975 0.18717 0.80595 0.0
C868 C 0.30105 0.16923 0.79466 0.0
C869 C 0.32088 0.17693 0.81021 0.0
C870 C 0.29768 0.10738 0.68472 0.0
C871 C 0.31627 0.18083 0.67157 0.0
C872 C 0.33527 0.14545 0.62711 0.0
C873 C 0.34548 0.14005 0.60811 0.0
C874 C 0.36473 0.13015 0.60796 0.0
C875 C 0.33459 0.1434 0.58986 0.0
C876 C 0.34217 0.13613 0.57163 0.0
C877 C 0.37245 0.1231 0.58984 0.0
C878 C 0.36103 0.1258 0.57176 0.0
C879 C 0.37802 0.21603 0.69275 0.0
H880 H 0.29402 0.16521 0.76288 0.0
H881 H 0.38042 0.19676 0.78225 0.0
H882 H 0.2789 0.1615 0.79808 0.0
H883 H 0.3137 0.17522 0.82557 0.0
H884 H 0.37346 0.12745 0.62181 0.0
H885 H 0.31966 0.15097 0.58988 0.0
H886 H 0.38714 0.1153 0.58983 0.0
H887 H 0.36712 0.1201 0.55784 0.0
Gd888 Gd 0.84097 0.19053 0.65215 0.0
Gd889 Gd 0.86102 0.17747 0.70262 0.0
C890 C 0.94201 0.1732 0.71214 0.0
C891 C 0.92324 0.12504 0.72151 0.0
C892 C 0.89124 0.14274 0.7147 0.0
C893 C 0.91407 0.16853 0.71057 0.0
C894 C 0.89553 0.12083 0.72065 0.0
C895 C 0.94644 0.15118 0.71723 0.0
C896 C 0.96465 0.19998 0.70891 0.0
C897 C 0.95911 0.22142 0.70492 0.0
N898 N 0.90898 0.1893 0.70572 0.0
C899 C 0.93101 0.21577 0.70366 0.0
H900 H 0.92717 0.23257 0.70042 0.0
C901 C 0.84184 0.11537 0.72009 0.0
N902 N 0.86482 0.13944 0.71378 0.0
C903 C 0.84496 0.09295 0.72598 0.0
C904 C 0.8719 0.09557 0.72603 0.0
H905 H 0.82095 0.11322 0.71994 0.0
H906 H 0.96774 0.1543 0.71832 0.0
H907 H 0.77335 0.13826 0.65366 0.0
H908 H 0.98642 0.20441 0.70985 0.0
H909 H 0.97646 0.2423 0.7027 0.0
H910 H 0.92697 0.10839 0.72586 0.0
H911 H 0.88316 0.25202 0.63143 0.0
H912 H 0.71807 0.17092 0.64359 0.0
H913 H 0.7251 0.13118 0.65073 0.0
H914 H 0.78216 0.26555 0.62638 0.0
H915 H 0.82661 0.07366 0.73043 0.0
H916 H 0.87428 0.07819 0.73064 0.0
H917 H 0.73963 0.22134 0.63489 0.0
H918 H 0.88063 0.29274 0.61957 0.0
N919 N 0.79386 0.1817 0.64888 0.0
C920 C 0.73939 0.17414 0.64487 0.0
C921 C 0.74327 0.15166 0.64882 0.0
C922 C 0.76309 0.20032 0.64186 0.0
C923 C 0.79037 0.20338 0.64381 0.0
C924 C 0.77078 0.15577 0.65043 0.0
N925 N 0.83964 0.22935 0.63963 0.0
C926 C 0.81411 0.22809 0.63902 0.0
C927 C 0.86177 0.27476 0.62514 0.0
C928 C 0.83592 0.27444 0.62561 0.0
C929 C 0.86313 0.25168 0.63188 0.0
C930 C 0.81152 0.25066 0.63218 0.0
H931 H 0.83485 0.29225 0.62025 0.0
O932 O 0.86295 0.19555 0.62388 0.0
O933 O 0.87161 0.18429 0.67028 0.0
O934 O 0.87929 0.22361 0.69689 0.0
O935 O 0.8546 0.22937 0.67006 0.0
O936 O 0.88868 0.21435 0.64855 0.0
O937 O 0.82133 0.15986 0.62846 0.0
O938 O 0.83715 0.16948 0.73027 0.0
O939 O 0.83023 0.18383 0.68464 0.0
O940 O 0.82036 0.14473 0.6596 0.0
O941 O 0.84867 0.13946 0.68361 0.0
O942 O 0.8136 0.15245 0.70581 0.0
O943 O 0.87878 0.20594 0.72789 0.0
C944 C 0.89462 0.20161 0.66213 0.0
C945 C 0.78458 0.24834 0.63137 0.0
C946 C 0.76038 0.22318 0.63622 0.0
C947 C 0.84183 0.17371 0.61578 0.0
C948 C 0.83364 0.17728 0.59543 0.0
C949 C 0.81161 0.1831 0.59234 0.0
C950 C 0.84842 0.1752 0.57886 0.0
C951 C 0.84127 0.17877 0.55919 0.0
C952 C 0.80434 0.1866 0.5729 0.0
C953 C 0.81899 0.18443 0.55641 0.0
C954 C 0.87194 0.23875 0.68572 0.0
C955 C 0.80748 0.16569 0.69273 0.0
C956 C 0.8569 0.19131 0.73937 0.0
C957 C 0.86242 0.18753 0.76039 0.0
C958 C 0.87845 0.175 0.76536 0.0
C959 C 0.85048 0.19582 0.77572 0.0
C960 C 0.85452 0.19181 0.79608 0.0
C961 C 0.88256 0.17089 0.78549 0.0
C962 C 0.87072 0.17919 0.80076 0.0
C963 C 0.82894 0.12949 0.66941 0.0
H964 H 0.80006 0.18493 0.6049 0.0
H965 H 0.86533 0.17054 0.58132 0.0
H966 H 0.78735 0.19115 0.5706 0.0
H967 H 0.81319 0.18766 0.54152 0.0
H968 H 0.88766 0.16836 0.75373 0.0
H969 H 0.83768 0.20504 0.77172 0.0
H970 H 0.89502 0.16127 0.78929 0.0
H971 H 0.87467 0.17614 0.81621 0.0
H972 H 0.3018 0.87355 0.06619 0.0
H973 H 0.31784 0.80634 0.05289 0.0
H974 H 0.36384 0.83967 0.03756 0.0
H975 H 0.33615 0.91461 0.02026 0.0
H976 H 0.34983 0.94699 0.03359 0.0
H977 H 0.31692 0.9174 0.04133 0.0
H978 H 0.33724 0.92203 0.07731 0.0
H979 H 0.37016 0.95145 0.06961 0.0
H980 H 0.37012 0.92198 0.08077 0.0
H981 H 0.41071 0.88116 0.02794 0.0
H982 H 0.45324 0.92702 0.02287 0.0
H983 H 0.40575 0.96692 0.041 0.0
C984 C 0.31483 0.86582 0.05977 0.0
C985 C 0.30632 0.83738 0.06071 0.0
C986 C 0.32386 0.82801 0.05213 0.0
C987 C 0.35003 0.84679 0.04345 0.0
C988 C 0.35809 0.87481 0.04319 0.0
C989 C 0.3408 0.88423 0.05087 0.0
C990 C 0.35491 0.91547 0.04961 0.0
C991 C 0.33847 0.92412 0.03535 0.0
C992 C 0.35831 0.92848 0.07057 0.0
C993 C 0.3833 0.92229 0.04081 0.0
C994 C 0.38469 0.89856 0.03705 0.0
C995 C 0.40959 0.89981 0.03034 0.0
C996 C 0.43362 0.92595 0.02742 0.0
C997 C 0.43244 0.95045 0.03088 0.0
C998 C 0.40695 0.94848 0.0377 0.0
H999 H 0.18651 0.49707 0.06193 0.0
H1000 H 0.15089 0.40809 0.05866 0.0
H1001 H 0.1067 0.40302 0.04431 0.0
H1002 H 0.12326 0.49577 0.07685 0.0
H1003 H 0.12871 0.5252 0.06221 0.0
H1004 H 0.15873 0.52244 0.07056 0.0
H1005 H 0.17571 0.52779 0.03417 0.0
H1006 H 0.14509 0.5288 0.02476 0.0
H1007 H 0.15341 0.50322 0.01543 0.0
H1008 H 0.06446 0.40626 0.03545 0.0
H1009 H 0.02707 0.41809 0.02909 0.0
H1010 H 0.08886 0.50537 0.035 0.0
C1011 C 0.16962 0.47668 0.05765 0.0
C1012 C 0.17221 0.45292 0.06116 0.0
C1013 C 0.14942 0.4265 0.05589 0.0
C1014 C 0.12422 0.42343 0.04777 0.0
C1015 C 0.12196 0.44701 0.04486 0.0
C1016 C 0.14403 0.47321 0.04941 0.0
C1017 C 0.13511 0.4948 0.04554 0.0
C1018 C 0.13654 0.51047 0.06495 0.0
C1019 C 0.1534 0.51487 0.02898 0.0
C1020 C 0.10448 0.47652 0.03857 0.0
C1021 C 0.09749 0.449 0.03847 0.0
C1022 C 0.06986 0.42775 0.03486 0.0
C1023 C 0.04874 0.43465 0.03128 0.0
C1024 C 0.05527 0.4626 0.03067 0.0
C1025 C 0.0836 0.48389 0.03436 0.0
H1026 H 0.52962 0.69879 0.05141 0.0
H1027 H 0.61955 0.74085 0.06562 0.0
H1028 H 0.62276 0.7014 0.05191 0.0
H1029 H 0.51379 0.63356 0.06482 0.0
H1030 H 0.48932 0.61504 0.0447 0.0
H1031 H 0.49442 0.64805 0.05277 0.0
H1032 H 0.50777 0.66694 0.01653 0.0
H1033 H 0.50225 0.63373 0.00831 0.0
H1034 H 0.53565 0.66464 1.00362 0.0
H1035 H 0.61476 0.65481 0.04235 0.0
H1036 H 0.59698 0.60571 0.03366 0.0
H1037 H 0.51308 0.59449 0.02315 0.0
C1038 C 0.55018 0.70013 0.05095 0.0
C1039 C 0.57428 0.72283 0.05978 0.0
C1040 C 0.6007 0.72351 0.05924 0.0
C1041 C 0.60279 0.70126 0.05137 0.0
C1042 C 0.57842 0.67866 0.04365 0.0
C1043 C 0.55272 0.67814 0.04288 0.0
C1044 C 0.52945 0.65052 0.03486 0.0
C1045 C 0.50534 0.63594 0.05021 0.0
C1046 C 0.51811 0.65419 0.01463 0.0
C1047 C 0.54582 0.63526 0.03221 0.0
C1048 C 0.57407 0.65193 0.03728 0.0
C1049 C 0.59285 0.64174 0.03786 0.0
C1050 C 0.58253 0.61379 0.03307 0.0
C1051 C 0.55377 0.59644 0.02761 0.0
C1052 C 0.53532 0.60746 0.02693 0.0
H1053 H 0.82191 0.30593 0.97654 0.0
H1054 H 0.87048 0.27112 0.95065 0.0
H1055 H 0.91475 0.31083 0.96339 0.0
H1056 H 0.86984 0.375 0.96401 0.0
H1057 H 0.86553 0.39033 0.98663 0.0
H1058 H 0.83702 0.35766 0.9778 0.0
H1059 H 0.83588 0.33511 0.01206 0.0
H1060 H 0.86419 0.36795 0.02095 0.0
H1061 H 0.86807 0.33767 0.02185 0.0
H1062 H 0.95358 0.35536 0.97569 0.0
H1063 H 0.98567 0.40278 0.98749 0.0
H1064 H 0.9132 0.4104 0.00589 0.0
C1065 C 0.84186 0.30648 0.97404 0.0
C1066 C 0.8429 0.28548 0.96271 0.0
C1067 C 0.86935 0.28705 0.95929 0.0
C1068 C 0.89455 0.30944 0.96652 0.0
C1069 C 0.89299 0.33015 0.9772 0.0
C1070 C 0.86741 0.32895 0.9811 0.0
C1071 C 0.87222 0.35514 0.99176 0.0
C1072 C 0.86045 0.37043 0.9793 0.0
C1073 C 0.85932 0.34856 0.01292 0.0
C1074 C 0.90443 0.3714 0.99271 0.0
C1075 C 0.91582 0.35636 0.98437 0.0
C1076 C 0.94495 0.36726 0.98247 0.0
C1077 C 0.96302 0.39433 0.98912 0.0
C1078 C 0.95201 0.41037 0.99761 0.0
C1079 C 0.92227 0.39855 0.99966 0.0
H1080 H 0.72563 0.58204 0.96408 0.0
H1081 H 0.71363 0.50049 0.97615 0.0
H1082 H 0.66649 0.48662 0.99105 0.0
H1083 H 0.68932 0.58703 0.0094 0.0
H1084 H 0.67457 0.60518 0.9962 0.0
H1085 H 0.7082 0.60914 0.98856 0.0
H1086 H 0.68881 0.59384 0.95243 0.0
H1087 H 0.65517 0.58981 0.95992 0.0
H1088 H 0.65673 0.56117 0.94858 0.0
H1089 H 0.61772 0.48065 1.0014 0.0
H1090 H 0.57439 0.4839 0.00715 0.0
H1091 H 0.61946 0.56967 0.98848 0.0
C1092 C 0.71326 0.56132 0.97008 0.0
C1093 C 0.72334 0.54229 0.96884 0.0
C1094 C 0.70651 0.51549 0.97703 0.0
C1095 C 0.67965 0.50743 0.98545 0.0
C1096 C 0.67004 0.52654 0.98585 0.0
C1097 C 0.68664 0.55308 0.97857 0.0
C1098 C 0.67134 0.56954 0.97987 0.0
C1099 C 0.68678 0.59418 0.99437 0.0
C1100 C 0.6678 0.57914 0.95896 0.0
C1101 C 0.64307 0.54795 0.98838 0.0
C1102 C 0.64267 0.5233 0.99196 0.0
C1103 C 0.61814 0.50005 0.99894 0.0
C1104 C 0.59361 0.50209 1.00228 0.0
C1105 C 0.59377 0.52727 0.99882 0.0
C1106 C 0.61888 0.55033 0.99169 0.0
H1107 H 0.50183 0.18629 0.98311 0.0
H1108 H 0.41852 0.14056 0.95548 0.0
H1109 H 0.41489 0.09667 0.96626 0.0
H1110 H 0.52519 0.13934 0.96917 0.0
H1111 H 0.54419 0.14248 0.99211 0.0
H1112 H 0.53983 0.17085 0.98373 0.0
H1113 H 0.51643 0.17092 0.0177 0.0
H1114 H 0.52156 0.14299 0.02606 0.0
H1115 H 0.48663 0.13917 0.02657 0.0
H1116 H 0.42117 0.05793 0.97742 0.0
H1117 H 0.43662 0.02583 0.9893 0.0
H1118 H 0.51572 0.09528 0.01069 0.0
C1119 C 0.48269 0.16701 0.97967 0.0
C1120 C 0.46049 0.1668 0.96836 0.0
C1121 C 0.43589 0.14118 0.96391 0.0
C1122 C 0.43356 0.11614 0.97006 0.0
C1123 C 0.45595 0.11695 0.98077 0.0
C1124 C 0.48003 0.14162 0.98568 0.0
C1125 C 0.50144 0.13623 0.99655 0.0
C1126 C 0.5293 0.14792 0.98468 0.0
C1127 C 0.50681 0.14803 0.018 0.0
C1128 C 0.48569 0.10476 0.99669 0.0
C1129 C 0.45949 0.09421 0.98752 0.0
C1130 C 0.44152 0.06589 0.98482 0.0
C1131 C 0.45057 0.04778 0.99155 0.0
C1132 C 0.47731 0.05793 1.00099 0.0
C1133 C 0.49497 0.08685 1.00377 0.0
H1134 H 0.66267 0.17075 0.96823 0.0
H1135 H 0.72751 0.14828 0.97796 0.0
H1136 H 0.69171 0.104 0.99303 0.0
H1137 H 0.62444 0.14011 0.01583 0.0
H1138 H 0.58989 0.12858 1.00502 0.0
H1139 H 0.62042 0.15925 0.99556 0.0
H1140 H 0.61027 0.13865 0.9596 0.0
H1141 H 0.57936 0.10823 0.96876 0.0
H1142 H 0.60634 0.1049 0.95543 0.0
H1143 H 0.64787 0.05959 1.00181 0.0
H1144 H 0.59965 0.02018 0.00802 0.0
H1145 H 0.56401 0.07334 0.99737 0.0
C1146 C 0.66929 0.1566 0.97381 0.0
C1147 C 0.69778 0.1628 0.97195 0.0
C1148 C 0.70583 0.14394 0.97939 0.0
C1149 C 0.68564 0.11875 0.98794 0.0
C1150 C 0.65766 0.11309 0.98944 0.0
C1151 C 0.64954 0.1317 0.98299 0.0
C1152 C 0.61801 0.12037 0.9863 0.0
C1153 C 0.61289 0.13814 1.00159 0.0
C1154 C 0.6026 0.11789 0.96633 0.0
C1155 C 0.60953 0.09211 0.99485 0.0
C1156 C 0.63271 0.08826 0.99637 0.0
C1157 C 0.62972 0.06266 1.0014 0.0
C1158 C 0.60235 0.04043 1.00489 0.0
C1159 C 0.57851 0.0442 1.00405 0.0
C1160 C 0.58216 0.0704 0.99912 0.0
H1161 H 0.83346 0.49081 0.9799 0.0
H1162 H 0.87294 0.58037 0.97936 0.0
H1163 H 0.91886 0.58441 0.98846 0.0
H1164 H 0.8721 0.48551 0.02093 0.0
H1165 H 0.87826 0.4587 0.01101 0.0
H1166 H 0.84709 0.46021 1.00373 0.0
H1167 H 0.85844 0.46363 0.96639 0.0
H1168 H 0.88839 0.45939 0.97234 0.0
H1169 H 0.89335 0.48865 0.9577 0.0
H1170 H 0.96117 0.5793 0.99496 0.0
H1171 H 0.99748 0.56533 0.99874 0.0
H1172 H 0.93193 0.47895 0.99667 0.0
C1173 C 0.85176 0.51124 0.98189 0.0
C1174 C 0.84948 0.5353 0.97897 0.0
C1175 C 0.87402 0.56165 0.98145 0.0
C1176 C 0.90026 0.56415 0.98669 0.0
C1177 C 0.90187 0.54014 0.98933 0.0
C1178 C 0.87837 0.51415 0.98689 0.0
C1179 C 0.88642 0.49177 0.9898 0.0
C1180 C 0.87003 0.4729 0.00743 0.0
C1181 C 0.88135 0.47487 0.9704 0.0
C1182 C 0.91805 0.50927 0.99444 0.0
C1183 C 0.9264 0.53714 0.9939 0.0
C1184 C 0.9548 0.55757 0.99583 0.0
C1185 C 0.97529 0.54946 0.99802 0.0
C1186 C 0.96748 0.52115 0.9988 0.0
C1187 C 0.93837 0.50074 0.99709 0.0
H1188 H 0.49458 0.31142 0.99508 0.0
H1189 H 0.40668 0.27966 0.97771 0.0
H1190 H 0.41101 0.32483 0.98553 0.0
H1191 H 0.49435 0.35573 0.03686 0.0
H1192 H 0.53002 0.38303 0.03188 0.0
H1193 H 0.51982 0.3476 0.02621 0.0
H1194 H 0.53616 0.3614 0.98942 0.0
H1195 H 0.5462 0.39677 0.99504 0.0
H1196 H 0.52158 0.37866 0.9749 0.0
H1197 H 0.42519 0.37353 0.99223 0.0
H1198 H 0.44812 0.42348 0.99936 0.0
H1199 H 0.52667 0.42485 0.01404 0.0
C1200 C 0.47621 0.31396 0.99321 0.0
C1201 C 0.45022 0.29205 0.98579 0.0
C1202 C 0.42671 0.29616 0.98341 0.0
C1203 C 0.42895 0.32173 0.98782 0.0
C1204 C 0.45481 0.34301 0.99483 0.0
C1205 C 0.478 0.33948 0.99777 0.0
C1206 C 0.50346 0.36631 1.00503 0.0
C1207 C 0.51243 0.36295 0.02626 0.0
C1208 C 0.52831 0.37637 0.99021 0.0
C1209 C 0.49103 0.38544 1.00516 0.0
C1210 C 0.46291 0.37143 0.99924 0.0
C1211 C 0.44711 0.3847 0.99711 0.0
C1212 C 0.46038 0.41314 1.00108 0.0
C1213 C 0.48913 0.42803 0.00724 0.0
C1214 C 0.50455 0.41389 0.00955 0.0
H1215 H 0.16116 0.67177 0.08972 0.0
H1216 H 0.18036 0.72235 0.03629 0.0
H1217 H 0.1427 0.68248 0.0178 0.0
H1218 H 0.14852 0.60989 0.06422 0.0
H1219 H 0.12008 0.58683 0.0805 0.0
H1220 H 0.14762 0.61968 0.08991 0.0
H1221 H 0.10962 0.63228 0.10069 0.0
H1222 H 0.082 0.59947 0.09122 0.0
H1223 H 0.08466 0.63123 0.08236 0.0
H1224 H 0.10357 0.63738 1.00495 0.0
H1225 H 0.06695 0.58894 0.99804 0.0
H1226 H 0.07381 0.56652 0.05912 0.0
C1227 C 0.15727 0.67441 0.07415 0.0
C1228 C 0.17363 0.70011 0.06443 0.0
C1229 C 0.16816 0.70284 0.04403 0.0
C1230 C 0.14672 0.68033 0.03342 0.0
C1231 C 0.13101 0.65525 0.04341 0.0
C1232 C 0.13606 0.65205 0.06328 0.0
C1233 C 0.11684 0.62247 0.07017 0.0
C1234 C 0.13431 0.60892 0.07657 0.0
C1235 C 0.09711 0.62131 0.08711 0.0
C1236 C 0.10034 0.60954 0.05101 0.0
C1237 C 0.10876 0.62893 0.03583 0.0
C1238 C 0.09698 0.62199 0.01667 0.0
C1239 C 0.07648 0.5944 0.01279 0.0
C1240 C 0.06822 0.57407 0.02788 0.0
C1241 C 0.07983 0.58181 0.04735 0.0
H1242 H 0.31778 0.42831 0.06312 0.0
H1243 H 0.32324 0.50717 0.05084 0.0
H1244 H 0.37292 0.52591 0.0393 0.0
H1245 H 0.3871 0.45415 0.08205 0.0
H1246 H 0.39228 0.42757 0.07074 0.0
H1247 H 0.35705 0.4204 0.07696 0.0
H1248 H 0.3411 0.40565 0.04013 0.0
H1249 H 0.37636 0.41286 0.03378 0.0
H1250 H 0.3602 0.42932 0.02008 0.0
H1251 H 0.42415 0.53675 0.0314 0.0
H1252 H 0.46999 0.53775 0.02697 0.0
H1253 H 0.42964 0.45113 0.04317 0.0
C1254 C 0.32934 0.44947 0.05783 0.0
C1255 C 0.31658 0.46626 0.05788 0.0
C1256 C 0.33247 0.49385 0.05087 0.0
C1257 C 0.36074 0.50467 0.0443 0.0
C1258 C 0.37277 0.48755 0.04461 0.0
C1259 C 0.35735 0.46041 0.05104 0.0
C1260 C 0.37501 0.44625 0.05026 0.0
C1261 C 0.37804 0.43653 0.07125 0.0
C1262 C 0.36241 0.42209 0.03516 0.0
C1263 C 0.40306 0.46975 0.04288 0.0
C1264 C 0.40146 0.49345 0.03959 0.0
C1265 C 0.42533 0.51811 0.03361 0.0
C1266 C 0.45128 0.51847 0.03096 0.0
C1267 C 0.45313 0.49425 0.03401 0.0
C1268 C 0.42866 0.46974 0.04018 0.0
H1269 H 0.52083 0.81992 0.02087 0.0
H1270 H 0.55243 0.83698 0.08214 0.0
H1271 H 0.55337 0.88156 0.08127 0.0
H1272 H 0.56035 0.89058 1.00255 0.0
H1273 H 0.53161 0.88784 0.98734 0.0
H1274 H 0.5345 0.85754 0.99218 0.0
H1275 H 0.48336 0.83245 0.00639 0.0
H1276 H 0.48038 0.86269 1.00151 0.0
H1277 H 0.47426 0.84839 0.02644 0.0
H1278 H 0.55152 0.92437 0.07403 0.0
H1279 H 0.54321 0.96134 0.06171 0.0
H1280 H 0.50977 0.91586 0.00592 0.0
C1281 C 0.528 0.83315 0.03403 0.0
C1282 C 0.53651 0.82497 0.05156 0.0
C1283 C 0.54557 0.84266 0.06858 0.0
C1284 C 0.54636 0.86815 0.06822 0.0
C1285 C 0.53775 0.87561 0.0508 0.0
C1286 C 0.52841 0.85858 0.03407 0.0
C1287 C 0.51908 0.8712 0.01766 0.0
C1288 C 0.53749 0.87714 0.99882 0.0
C1289 C 0.48739 0.85257 0.01272 0.0
C1290 C 0.52464 0.89786 0.02786 0.0
C1291 C 0.53576 0.9001 0.04685 0.0
C1292 C 0.54276 0.92286 0.05918 0.0
C1293 C 0.53798 0.94381 0.052 0.0
C1294 C 0.52596 0.94175 0.03273 0.0
C1295 C 0.51931 0.91839 0.02056 0.0
H1296 H 0.99011 0.16987 0.38825 0.0
H1297 H 0.94448 0.21499 0.38455 0.0
H1298 H 0.98623 0.25439 0.36876 0.0
H1299 H 0.05361 0.22546 0.40367 0.0
H1300 H 0.07627 0.21604 0.39012 0.0
H1301 H 0.04131 0.18971 0.39744 0.0
H1302 H 0.03015 0.1737 0.36057 0.0
H1303 H 0.06466 0.20068 0.35263 0.0
H1304 H 0.03302 0.19778 0.34149 0.0
H1305 H 0.03446 0.29105 0.35827 0.0
H1306 H 0.08618 0.32293 0.3554 0.0
H1307 H 0.10131 0.25478 0.36607 0.0
C1308 C 0.98875 0.18774 0.38347 0.0
C1309 C 0.96408 0.18939 0.38719 0.0
C1310 C 0.96317 0.21337 0.3815 0.0
C1311 C 0.98671 0.23573 0.37247 0.0
C1312 C 0.01103 0.23379 0.36929 0.0
C1313 C 0.01226 0.21042 0.37465 0.0
C1314 C 0.042 0.21497 0.37199 0.0
C1315 C 0.05399 0.21135 0.39199 0.0
C1316 C 0.0425 0.19565 0.35569 0.0
C1317 C 0.05753 0.24489 0.36514 0.0
C1318 C 0.03914 0.25517 0.36324 0.0
C1319 C 0.04893 0.28304 0.35911 0.0
C1320 C 0.07828 0.30097 0.35734 0.0
C1321 C 0.09741 0.29094 0.35962 0.0
C1322 C 0.08688 0.26256 0.36337 0.0
H1323 H 0.80936 0.76365 0.40661 0.0
H1324 H 0.87768 0.8431 0.38646 0.0
H1325 H 0.84251 0.85442 0.37269 0.0
H1326 H 0.76202 0.75172 0.36367 0.0
H1327 H 0.73036 0.73578 0.37876 0.0
H1328 H 0.76084 0.73307 0.38606 0.0
H1329 H 0.76115 0.75405 0.42091 0.0
H1330 H 0.73068 0.75678 0.41372 0.0
H1331 H 0.76255 0.78705 0.42229 0.0
H1332 H 0.80006 0.85868 0.36333 0.0
H1333 H 0.75352 0.85491 0.35805 0.0
H1334 H 0.712 0.77235 0.3833 0.0
C1335 C 0.81693 0.78341 0.39926 0.0
C1336 C 0.84641 0.80245 0.39759 0.0
C1337 C 0.85533 0.82799 0.38771 0.0
C1338 C 0.83548 0.83467 0.3799 0.0
C1339 C 0.80667 0.81554 0.38192 0.0
C1340 C 0.79737 0.79035 0.39123 0.0
C1341 C 0.76515 0.77375 0.39174 0.0
C1342 C 0.75394 0.74699 0.37932 0.0
C1343 C 0.75425 0.76755 0.41346 0.0
C1344 C 0.75782 0.79388 0.38179 0.0
C1345 C 0.78212 0.81777 0.37612 0.0
C1346 C 0.78091 0.83985 0.36739 0.0
C1347 C 0.75422 0.83744 0.36432 0.0
C1348 C 0.72893 0.81296 0.36958 0.0
C1349 C 0.73091 0.79105 0.37866 0.0
H1350 H 0.22224 0.03761 0.42427 0.0
H1351 H 0.24466 0.08726 0.37014 0.0
H1352 H 0.24174 0.04814 0.3507 0.0
H1353 H 0.26144 0.0021 0.4128 0.0
H1354 H 0.23484 0.96957 0.42318 0.0
H1355 H 0.23926 1.00164 0.43306 0.0
H1356 H 0.18612 0.98468 0.42624 0.0
H1357 H 0.18157 0.95257 0.4164 0.0
H1358 H 0.17195 0.97346 0.40132 0.0
H1359 H 0.23619 0.00398 0.33707 0.0
H1360 H 0.22654 0.95668 0.3298 0.0
H1361 H 0.20715 0.93485 0.39242 0.0
C1362 C 0.22679 0.04032 0.40835 0.0
C1363 C 0.23364 0.06552 0.3987 0.0
C1364 C 0.23903 0.06809 0.3778 0.0
C1365 C 0.23764 0.04605 0.36667 0.0
C1366 C 0.23084 0.02156 0.37663 0.0
C1367 C 0.22542 0.01848 0.39698 0.0
C1368 C 0.21781 0.98962 0.40386 0.0
C1369 C 0.23965 0.99082 0.41913 0.0
C1370 C 0.18756 0.97418 0.41246 0.0
C1371 C 0.21964 0.97693 0.38415 0.0
C1372 C 0.22732 0.99582 0.36869 0.0
C1373 C 0.22996 0.98896 0.34902 0.0
C1374 C 0.2241 0.96194 0.34497 0.0
C1375 C 0.21548 0.94201 0.36041 0.0
C1376 C 0.21378 0.94977 0.38034 0.0
H1377 H 0.52768 0.64872 0.27722 0.0
H1378 H 0.4957 0.60125 0.33209 0.0
H1379 H 0.52869 0.64217 0.3519 0.0
H1380 H 0.60124 0.68693 0.29309 0.0
H1381 H 0.60815 0.71857 0.28096 0.0
H1382 H 0.58157 0.68566 0.27091 0.0
H1383 H 0.54415 0.70148 0.27308 0.0
H1384 H 0.57064 0.73439 0.28317 0.0
H1385 H 0.53819 0.71347 0.29675 0.0
H1386 H 0.5649 0.68815 0.36601 0.0
H1387 H 0.60325 0.73574 0.37312 0.0
H1388 H 0.61279 0.75353 0.30946 0.0
C1389 C 0.52773 0.64685 0.29339 0.0
C1390 C 0.50869 0.62172 0.30305 0.0
C1391 C 0.50947 0.62034 0.32429 0.0
C1392 C 0.52832 0.64345 0.33571 0.0
C1393 C 0.54653 0.66789 0.32575 0.0
C1394 C 0.54657 0.66976 0.30507 0.0
C1395 C 0.56862 0.69851 0.29816 0.0
C1396 C 0.59123 0.69734 0.28501 0.0
C1397 C 0.55455 0.7128 0.28714 0.0
C1398 C 0.58093 0.71238 0.31819 0.0
C1399 C 0.56775 0.69438 0.3339 0.0
C1400 C 0.57527 0.70248 0.35382 0.0
C1401 C 0.59687 0.7297 0.35778 0.0
C1402 C 0.61075 0.7485 0.34196 0.0
C1403 C 0.60267 0.73958 0.3219 0.0
H1404 H 0.36229 0.85215 0.30703 0.0
H1405 H 0.41867 0.94092 0.30493 0.0
H1406 H 0.38048 0.94832 0.31819 0.0
H1407 H 0.30092 0.85253 0.29047 0.0
H1408 H 0.27642 0.82492 0.3065 0.0
H1409 H 0.30895 0.82646 0.29891 0.0
H1410 H 0.32114 0.82515 0.33597 0.0
H1411 H 0.28969 0.82531 0.34441 0.0
H1412 H 0.32431 0.85175 0.35291 0.0
H1413 H 0.3352 0.94648 0.32682 0.0
H1414 H 0.28574 0.93554 0.33216 0.0
H1415 H 0.25777 0.84785 0.33093 0.0
C1416 C 0.36666 0.87306 0.30993 0.0
C1417 C 0.39352 0.89606 0.30533 0.0
C1418 C 0.39837 0.92314 0.30868 0.0
C1419 C 0.37679 0.9275 0.31618 0.0
C1420 C 0.3504 0.90451 0.32031 0.0
C1421 C 0.3452 0.87778 0.31745 0.0
C1422 C 0.31431 0.85688 0.32197 0.0
C1423 C 0.29927 0.83916 0.30335 0.0
C1424 C 0.3122 0.83867 0.33989 0.0
C1425 C 0.30285 0.87607 0.32726 0.0
C1426 C 0.32416 0.90346 0.32619 0.0
C1427 C 0.3185 0.92514 0.32826 0.0
C1428 C 0.29037 0.91876 0.33127 0.0
C1429 C 0.26819 0.89096 0.33269 0.0
C1430 C 0.27455 0.8693 0.33082 0.0
H1431 H 0.13935 0.4985 0.27925 0.0
H1432 H 0.0963 0.51029 0.32988 0.0
H1433 H 0.09824 0.47258 0.34801 0.0
H1434 H 0.10508 0.4239 0.28217 0.0
H1435 H 0.1366 0.42277 0.27545 0.0
H1436 H 0.1315 0.45043 0.26637 0.0
H1437 H 0.17988 0.48657 0.28176 0.0
H1438 H 0.18514 0.45902 0.29082 0.0
H1439 H 0.18654 0.48466 0.30806 0.0
H1440 H 0.1046 0.43331 0.36049 0.0
H1441 H 0.11666 0.39671 0.36681 0.0
H1442 H 0.15645 0.41131 0.30845 0.0
C1443 C 0.13009 0.49298 0.29408 0.0
C1444 C 0.11762 0.5073 0.30316 0.0
C1445 C 0.10619 0.49977 0.32272 0.0
C1446 C 0.10703 0.47828 0.33307 0.0
C1447 C 0.11943 0.46456 0.32367 0.0
C1448 C 0.13086 0.47168 0.30464 0.0
C1449 C 0.14359 0.45413 0.2981 0.0
C1450 C 0.12827 0.43678 0.27942 0.0
C1451 C 0.17569 0.47217 0.29448 0.0
C1452 C 0.13752 0.43601 0.31641 0.0
C1453 C 0.1235 0.4423 0.33097 0.0
C1454 C 0.11583 0.42843 0.34927 0.0
C1455 C 0.12308 0.40792 0.35287 0.0
C1456 C 0.13806 0.40167 0.3384 0.0
C1457 C 0.14493 0.41563 0.31981 0.0
H1458 H 0.35856 0.51203 0.30737 0.0
H1459 H 0.39162 0.45554 0.31051 0.0
H1460 H 0.34627 0.41948 0.32466 0.0
H1461 H 0.31378 0.48707 0.35334 0.0
H1462 H 0.28531 0.49034 0.3423 0.0
H1463 H 0.32147 0.51332 0.33474 0.0
H1464 H 0.30773 0.49891 0.29759 0.0
H1465 H 0.27155 0.47611 0.30497 0.0
H1466 H 0.2904 0.46274 0.29084 0.0
H1467 H 0.29696 0.38847 0.33574 0.0
H1468 H 0.24539 0.3634 0.34172 0.0
H1469 H 0.24256 0.43871 0.33086 0.0
C1470 C 0.35635 0.49225 0.31145 0.0
C1471 C 0.37865 0.48657 0.30809 0.0
C1472 C 0.37482 0.46027 0.31311 0.0
C1473 C 0.3492 0.43972 0.32123 0.0
C1474 C 0.32748 0.44572 0.32417 0.0
C1475 C 0.33063 0.47126 0.31941 0.0
C1476 C 0.30296 0.4713 0.32251 0.0
C1477 C 0.30608 0.49173 0.33921 0.0
C1478 C 0.29255 0.47763 0.3028 0.0
C1479 C 0.28367 0.44159 0.32907 0.0
C1480 C 0.29849 0.42743 0.33032 0.0
C1481 C 0.28521 0.39943 0.33519 0.0
C1482 C 0.25593 0.38539 0.33866 0.0
C1483 C 0.24024 0.39937 0.33735 0.0
C1484 C 0.25429 0.4278 0.33245 0.0
H1485 H 0.5014 0.82474 0.30964 0.0
H1486 H 0.53601 0.91367 0.31022 0.0
H1487 H 0.58269 0.92022 0.32074 0.0
H1488 H 0.54001 0.82418 0.35446 0.0
H1489 H 0.54642 0.797 0.34598 0.0
H1490 H 0.515 0.79757 0.33793 0.0
H1491 H 0.5271 0.7978 0.30068 0.0
H1492 H 0.55778 0.79547 0.30786 0.0
H1493 H 0.56173 0.82306 0.29168 0.0
H1494 H 0.62692 0.91712 0.32581 0.0
H1495 H 0.66425 0.90468 0.33098 0.0
H1496 H 0.60029 0.81779 0.33265 0.0
C1497 C 0.51879 0.84555 0.31224 0.0
C1498 C 0.51519 0.86876 0.30909 0.0
C1499 C 0.53829 0.89566 0.31268 0.0
C1500 C 0.56488 0.89955 0.31858 0.0
C1501 C 0.56785 0.87629 0.32138 0.0
C1502 C 0.54528 0.84976 0.31881 0.0
C1503 C 0.55412 0.82834 0.32328 0.0
C1504 C 0.53794 0.81071 0.3415 0.0
C1505 C 0.54994 0.8101 0.30477 0.0
C1506 C 0.58543 0.84697 0.32808 0.0
C1507 C 0.59292 0.87457 0.32656 0.0
C1508 C 0.62115 0.89566 0.32775 0.0
C1509 C 0.64221 0.88843 0.33067 0.0
C1510 C 0.63499 0.86045 0.3332 0.0
C1511 C 0.60618 0.83943 0.33187 0.0
H1512 H 0.13673 0.64808 0.33129 0.0
H1513 H 0.13263 0.65605 0.26688 0.0
H1514 H 0.1559 0.70686 0.27041 0.0
H1515 H 0.1171 0.69738 0.34305 0.0
H1516 H 0.13947 0.71147 0.36489 0.0
H1517 H 0.12727 0.67625 0.35736 0.0
H1518 H 0.17929 0.68656 0.3559 0.0
H1519 H 0.19159 0.72189 0.36341 0.0
H1520 H 0.20467 0.71471 0.34065 0.0
H1521 H 0.17503 0.75529 0.28056 0.0
H1522 H 0.18631 0.79916 0.29698 0.0
H1523 H 0.17557 0.76096 0.35529 0.0
C1524 C 0.14161 0.66076 0.31798 0.0
C1525 C 0.13357 0.64851 0.29875 0.0
C1526 C 0.13906 0.66533 0.28166 0.0
C1527 C 0.15235 0.69413 0.28352 0.0
C1528 C 0.15964 0.70573 0.30265 0.0
C1529 C 0.15436 0.6897 0.31965 0.0
C1530 C 0.16118 0.70736 0.33852 0.0
C1531 C 0.13467 0.69752 0.35172 0.0
C1532 C 0.18564 0.70764 0.35032 0.0
C1533 C 0.1703 0.73552 0.3294 0.0
C1534 C 0.16976 0.73405 0.30868 0.0
C1535 C 0.17574 0.75677 0.29677 0.0
C1536 C 0.18186 0.78155 0.30625 0.0
C1537 C 0.18173 0.78347 0.32742 0.0
C1538 C 0.17645 0.7603 0.33915 0.0
H1539 H 0.79955 0.0352 0.40514 0.0
H1540 H 0.87387 0.05126 0.37068 0.0
H1541 H 0.84722 0.00448 0.3557 0.0
H1542 H 0.77571 0.96351 0.41565 0.0
H1543 H 0.73856 0.95265 0.41328 0.0
H1544 H 0.7634 0.98744 0.42125 0.0
H1545 H 0.74674 0.00688 0.39222 0.0
H1546 H 0.72187 0.97213 0.38416 0.0
H1547 H 0.74769 0.99626 0.36678 0.0
H1548 H 0.8129 0.95576 0.34499 0.0
H1549 H 0.77328 0.90867 0.33892 0.0
H1550 H 0.72042 0.9243 0.37962 0.0
C1551 C 0.81016 0.02883 0.39441 0.0
C1552 C 0.83874 0.04684 0.38904 0.0
C1553 C 0.85198 0.03784 0.37499 0.0
C1554 C 0.83701 0.0113 0.36641 0.0
C1555 C 0.80884 0.99405 0.37201 0.0
C1556 C 0.7955 0.00242 0.38567 0.0
C1557 C 0.76505 0.97981 0.38913 0.0
C1558 C 0.76042 0.97029 0.41113 0.0
C1559 C 0.74411 0.98935 0.38268 0.0
C1560 C 0.76336 0.9574 0.37527 0.0
C1561 C 0.78887 0.96606 0.36558 0.0
C1562 C 0.79273 0.94887 0.35233 0.0
C1563 C 0.76993 0.92215 0.34886 0.0
C1564 C 0.74341 0.9128 0.35845 0.0
C1565 C 0.74025 0.93079 0.37189 0.0
H1566 H 0.98684 0.76649 0.39278 0.0
H1567 H 0.99067 0.84491 0.38161 0.0
H1568 H 0.04027 0.86465 0.36983 0.0
H1569 H 0.05644 0.79303 0.41125 0.0
H1570 H 0.06227 0.76719 0.39936 0.0
H1571 H 0.02684 0.75909 0.4059 0.0
H1572 H 0.01073 0.74504 0.36901 0.0
H1573 H 0.04616 0.75312 0.36232 0.0
H1574 H 0.02932 0.76934 0.34917 0.0
H1575 H 0.0912 0.87661 0.36163 0.0
H1576 H 0.13737 0.87878 0.35622 0.0
H1577 H 0.09909 0.79189 0.37137 0.0
C1578 C 0.99805 0.78775 0.38767 0.0
C1579 C 0.98492 0.80416 0.38809 0.0
C1580 C 1.00026 0.83191 0.38133 0.0
C1581 C 0.02846 0.8433 0.37464 0.0
C1582 C 0.0409 0.82657 0.37459 0.0
C1583 C 0.02601 0.79928 0.38074 0.0
C1584 C 0.04415 0.78569 0.37948 0.0
C1585 C 0.04763 0.77567 0.40023 0.0
C1586 C 0.03185 0.76189 0.36408 0.0
C1587 C 0.07184 0.80973 0.37219 0.0
C1588 C 0.06962 0.83316 0.36936 0.0
C1589 C 0.09295 0.85822 0.36349 0.0
C1590 C 0.11908 0.85926 0.36035 0.0
C1591 C 0.12155 0.83529 0.36277 0.0
C1592 C 0.09763 0.81037 0.36896 0.0
H1593 H 0.1797 0.16918 0.38476 0.0
H1594 H 0.24915 0.21437 0.42646 0.0
H1595 H 0.25552 0.25866 0.41351 0.0
H1596 H 0.2067 0.22009 0.34291 0.0
H1597 H 0.172 0.21499 0.33712 0.0
H1598 H 0.17554 0.18699 0.34747 0.0
H1599 H 0.14146 0.18226 0.37635 0.0
H1600 H 0.13812 0.21034 0.36604 0.0
H1601 H 0.14962 0.21207 0.39166 0.0
H1602 H 0.25263 0.29743 0.39806 0.0
H1603 H 0.23859 0.32895 0.38275 0.0
H1604 H 0.16866 0.2593 0.35226 0.0
C1605 C 0.19663 0.18851 0.39071 0.0
C1606 C 0.21442 0.18868 0.40627 0.0
C1607 C 0.23568 0.21409 0.41435 0.0
C1608 C 0.23948 0.23926 0.40705 0.0
C1609 C 0.22149 0.23859 0.39186 0.0
C1610 C 0.20028 0.21394 0.38387 0.0
C1611 C 0.18203 0.2192 0.3692 0.0
C1612 C 0.18422 0.20976 0.34791 0.0
C1613 C 0.15098 0.20513 0.37624 0.0
C1614 C 0.19608 0.25053 0.37049 0.0
C1615 C 0.21907 0.26121 0.38341 0.0
C1616 C 0.23481 0.28937 0.38779 0.0
C1617 C 0.22659 0.30711 0.37903 0.0
C1618 C 0.20266 0.29667 0.36614 0.0
C1619 C 0.18745 0.26801 0.36163 0.0
H1620 H 0.65557 0.49615 0.72232 0.0
H1621 H 0.61776 0.54523 0.74071 0.0
H1622 H 0.66004 0.5876 0.72845 0.0
H1623 H 0.72514 0.54435 0.73834 0.0
H1624 H 0.7427 0.53756 0.71801 0.0
H1625 H 0.70831 0.51091 0.72621 0.0
H1626 H 0.68934 0.50617 0.69002 0.0
H1627 H 0.72337 0.53338 0.68156 0.0
H1628 H 0.69193 0.53599 0.67756 0.0
H1629 H 0.70757 0.62485 0.71662 0.0
H1630 H 0.75804 0.65471 0.70744 0.0
H1631 H 0.76585 0.58198 0.69734 0.0
C1632 C 0.65606 0.51579 0.72338 0.0
C1633 C 0.63335 0.5175 0.73224 0.0
C1634 C 0.63494 0.54357 0.73389 0.0
C1635 C 0.65878 0.56767 0.72689 0.0
C1636 C 0.68097 0.56538 0.7184 0.0
C1637 C 0.67993 0.54014 0.71674 0.0
C1638 C 0.70759 0.54371 0.70853 0.0
C1639 C 0.72177 0.53354 0.72368 0.0
C1640 C 0.70278 0.52894 0.6882 0.0
C1641 C 0.72449 0.57492 0.70615 0.0
C1642 C 0.70857 0.58697 0.71168 0.0
C1643 C 0.72006 0.61563 0.7119 0.0
C1644 C 0.74863 0.63241 0.70658 0.0
C1645 C 0.7653 0.62049 0.70098 0.0
C1646 C 0.75312 0.59143 0.70085 0.0
H1647 H 0.4723 0.09561 0.74096 0.0
H1648 H 0.54013 0.17795 0.7256 0.0
H1649 H 0.50481 0.18938 0.71231 0.0
H1650 H 0.42676 0.08686 0.69782 0.0
H1651 H 0.39439 0.06894 0.71203 0.0
H1652 H 0.42491 0.06619 0.71914 0.0
H1653 H 0.4234 0.08344 0.75499 0.0
H1654 H 0.39273 0.086 0.74818 0.0
H1655 H 0.42381 0.11579 0.7582 0.0
H1656 H 0.46219 0.1932 0.70316 0.0
H1657 H 0.41525 0.18867 0.69805 0.0
H1658 H 0.37466 0.104 0.71913 0.0
C1659 C 0.47976 0.11604 0.73477 0.0
C1660 C 0.50907 0.13586 0.73429 0.0
C1661 C 0.51788 0.16227 0.72588 0.0
C1662 C 0.49796 0.169 0.71836 0.0
C1663 C 0.46928 0.14909 0.71926 0.0
C1664 C 0.46016 0.1231 0.72716 0.0
C1665 C 0.42802 0.10584 0.72697 0.0
C1666 C 0.41793 0.08045 0.71317 0.0
C1667 C 0.41631 0.09727 0.74836 0.0
C1668 C 0.42049 0.12645 0.71826 0.0
C1669 C 0.44463 0.15118 0.71375 0.0
C1670 C 0.44317 0.17376 0.70631 0.0
C1671 C 0.41634 0.17096 0.70333 0.0
C1672 C 0.39129 0.14571 0.70752 0.0
C1673 C 0.39348 0.12331 0.71533 0.0
H1674 H 0.89349 0.36516 0.75456 0.0
H1675 H 0.92702 0.41671 0.70171 0.0
H1676 H 0.92415 0.37718 0.68291 0.0
H1677 H 0.92844 0.32353 0.74643 0.0
H1678 H 0.89818 0.29201 0.75509 0.0
H1679 H 0.90516 0.32495 0.76505 0.0
H1680 H 0.85456 0.31383 0.75471 0.0
H1681 H 0.8475 0.28094 0.74472 0.0
H1682 H 0.8433 0.30493 0.72897 0.0
H1683 H 0.91498 0.33202 0.6692 0.0
H1684 H 0.8994 0.28321 0.66125 0.0
H1685 H 0.87115 0.26007 0.72252 0.0
C1686 C 0.90069 0.36815 0.73914 0.0
C1687 C 0.91045 0.39392 0.72953 0.0
C1688 C 0.91925 0.39705 0.70926 0.0
C1689 C 0.91788 0.37479 0.69851 0.0
C1690 C 0.90772 0.34954 0.70827 0.0
C1691 C 0.8993 0.34603 0.72813 0.0
C1692 C 0.88758 0.31619 0.73459 0.0
C1693 C 0.90594 0.31406 0.75128 0.0
C1694 C 0.85639 0.30322 0.74112 0.0
C1695 C 0.89027 0.30347 0.71515 0.0
C1696 C 0.90215 0.32319 0.70024 0.0
C1697 C 0.90571 0.3164 0.68075 0.0
C1698 C 0.89648 0.28862 0.67628 0.0
C1699 C 0.88372 0.26804 0.69116 0.0
C1700 C 0.88109 0.2756 0.71094 0.0
H1701 H 0.18846 0.98266 0.61555 0.0
H1702 H 0.16263 0.93024 0.66842 0.0
H1703 H 0.19616 0.97027 0.68895 0.0
H1704 H 0.26283 0.0204 0.62815 0.0
H1705 H 0.26805 0.05255 0.61795 0.0
H1706 H 0.24099 0.02008 0.60764 0.0
H1707 H 0.20319 0.03461 0.6141 0.0
H1708 H 0.23013 0.06709 0.62445 0.0
H1709 H 0.19914 0.0448 0.63903 0.0
H1710 H 0.23269 0.01666 0.70385 0.0
H1711 H 0.27056 0.06461 0.71129 0.0
H1712 H 0.27453 0.08529 0.64832 0.0
C1713 C 0.18998 0.97928 0.63138 0.0
C1714 C 0.17263 0.95301 0.64026 0.0
C1715 C 0.17514 0.95009 0.6612 0.0
C1716 C 0.19434 0.97271 0.673 0.0
C1717 C 0.21115 0.99815 0.66368 0.0
C1718 C 0.2093 1.00146 0.6433 0.0
C1719 C 0.23024 0.03072 0.63678 0.0
C1720 C 0.2518 0.03094 0.62174 0.0
C1721 C 0.21474 0.04515 0.62808 0.0
C1722 C 0.2442 0.04341 0.65668 0.0
C1723 C 0.23273 0.02441 0.67207 0.0
C1724 C 0.24182 0.03165 0.69189 0.0
C1725 C 0.26316 0.05898 0.69603 0.0
C1726 C 0.27534 0.0786 0.68042 0.0
C1727 C 0.26578 0.07059 0.66051 0.0
H1728 H 0.0515 0.24958 0.62458 0.0
H1729 H 0.03327 0.16512 0.6334 0.0
H1730 H 0.98634 0.15281 0.64734 0.0
H1731 H 0.01638 0.25372 0.66985 0.0
H1732 H 1.00316 0.27422 0.65815 0.0
H1733 H 0.03575 0.27668 0.6495 0.0
H1734 H 0.01536 0.26436 0.61333 0.0
H1735 H 0.98287 0.26212 0.62187 0.0
H1736 H 0.98195 0.23313 0.60906 0.0
H1737 H 0.94024 0.14922 0.65912 0.0
H1738 H 0.89876 0.15466 0.66679 0.0
H1739 H 0.94727 0.24144 0.65085 0.0
C1740 C 0.03757 0.22844 0.62931 0.0
C1741 C 0.04615 0.20832 0.62787 0.0
C1742 C 0.02735 0.18098 0.63452 0.0
C1743 C 1.00061 0.17377 0.64245 0.0
C1744 C 0.99292 0.19414 0.64378 0.0
C1745 C 0.01086 0.22093 0.63739 0.0
C1746 C 0.99731 0.2388 0.64013 0.0
C1747 C 0.01416 0.26225 0.65531 0.0
C1748 C 0.99418 0.25027 0.61989 0.0
C1749 C 0.9687 0.21776 0.64857 0.0
C1750 C 0.96664 0.19217 0.65077 0.0
C1751 C 0.94179 0.16927 0.65766 0.0
C1752 C 0.91837 0.17258 0.66214 0.0
C1753 C 0.92008 0.19864 0.65995 0.0
C1754 C 0.94561 0.22143 0.65307 0.0
H1755 H 0.80134 0.82601 0.61911 0.0
H1756 H 0.76406 0.84154 0.67169 0.0
H1757 H 0.77028 0.80689 0.69056 0.0
H1758 H 0.76708 0.75218 0.62579 0.0
H1759 H 0.7971 0.74993 0.61672 0.0
H1760 H 0.79081 0.77685 0.60771 0.0
H1761 H 0.84159 0.8139 0.61878 0.0
H1762 H 0.84796 0.78707 0.6279 0.0
H1763 H 0.85247 0.81463 0.64445 0.0
H1764 H 0.78179 0.77078 0.70402 0.0
H1765 H 0.7945 0.73423 0.70979 0.0
H1766 H 0.8204 0.74061 0.64757 0.0
C1767 C 0.79411 0.822 0.6345 0.0
C1768 C 0.78241 0.83683 0.64386 0.0
C1769 C 0.77371 0.83102 0.66421 0.0
C1770 C 0.77695 0.81119 0.67506 0.0
C1771 C 0.78863 0.79706 0.66534 0.0
C1772 C 0.7968 0.80204 0.64545 0.0
C1773 C 0.80807 0.7836 0.63826 0.0
C1774 C 0.78966 0.76451 0.62111 0.0
C1775 C 0.83938 0.80083 0.63198 0.0
C1776 C 0.80492 0.76742 0.65719 0.0
C1777 C 0.79399 0.77561 0.67276 0.0
C1778 C 0.79012 0.76403 0.69187 0.0
C1779 C 0.79743 0.74338 0.69504 0.0
C1780 C 0.80799 0.73436 0.67907 0.0
C1781 C 0.81181 0.74668 0.65999 0.0
H1782 H 0.03921 0.81065 0.64253 0.0
H1783 H 1.00549 0.85919 0.61584 0.0
H1784 H 0.95778 0.82604 0.6287 0.0
H1785 H 0.97936 0.74531 0.62898 0.0
H1786 H 0.98052 0.72763 0.65128 0.0
H1787 H 0.01258 0.75662 0.64185 0.0
H1788 H 0.02123 0.78087 0.6763 0.0
H1789 H 0.98897 0.75223 0.68586 0.0
H1790 H 0.99433 0.78691 0.68692 0.0
H1791 H 0.91371 0.78717 0.64296 0.0
H1792 H 0.87487 0.74287 0.65572 0.0
H1793 H 0.93561 0.71718 0.67174 0.0
C1794 C 0.02181 0.81445 0.63976 0.0
C1795 C 0.02596 0.8377 0.62855 0.0
C1796 C 1.00265 0.84162 0.62459 0.0
C1797 C 0.97555 0.82297 0.63188 0.0
C1798 C 0.97199 0.80015 0.64279 0.0
C1799 C 0.99433 0.79553 0.6465 0.0
C1800 C 0.98404 0.76798 0.65701 0.0
C1801 C 0.98945 0.74822 0.644 0.0
C1802 C 0.99796 0.77226 0.67777 0.0
C1803 C 0.95251 0.75795 0.65869 0.0
C1804 C 0.94616 0.77706 0.65056 0.0
C1805 C 0.91844 0.77221 0.64959 0.0
C1806 C 0.89655 0.74707 0.65695 0.0
C1807 C 0.90245 0.7271 0.66525 0.0
C1808 C 0.93075 0.73252 0.66599 0.0
H1809 H 0.22275 0.24685 0.63785 0.0
H1810 H 0.14749 0.1687 0.65153 0.0
H1811 H 0.17786 0.15044 0.66428 0.0
H1812 H 0.26449 0.21898 0.62007 0.0
H1813 H 0.29722 0.24611 0.63058 0.0
H1814 H 0.2694 0.25317 0.6238 0.0
H1815 H 0.26993 0.2707 0.65985 0.0
H1816 H 0.29737 0.26324 0.6671 0.0
H1817 H 0.26452 0.24832 0.68086 0.0
H1818 H 0.21738 0.14019 0.67388 0.0
H1819 H 0.26196 0.13906 0.67925 0.0
H1820 H 0.31066 0.22411 0.65927 0.0
C1821 C 0.21265 0.22596 0.64371 0.0
C1822 C 0.18282 0.20921 0.64377 0.0
C1823 C 0.17033 0.18193 0.6514 0.0
C1824 C 0.18742 0.17141 0.65869 0.0
C1825 C 0.21688 0.18849 0.65827 0.0
C1826 C 0.22933 0.21522 0.65098 0.0
C1827 C 0.26138 0.22917 0.65146 0.0
C1828 C 0.27384 0.23733 0.63022 0.0
C1829 C 0.27405 0.25434 0.66567 0.0
C1830 C 0.26517 0.206 0.6598 0.0
C1831 C 0.23933 0.18272 0.6638 0.0
C1832 C 0.23768 0.15844 0.671 0.0
C1833 C 0.26307 0.158 0.67411 0.0
C1834 C 0.28966 0.18175 0.67015 0.0
C1835 C 0.29058 0.20588 0.66278 0.0
H1836 H 0.80695 0.97641 0.6586 0.0
H1837 H 0.72651 0.95409 0.62995 0.0
H1838 H 0.73441 1.00096 0.63648 0.0
H1839 H 0.80267 0.02182 0.69776 0.0
H1840 H 0.84018 0.04625 0.69675 0.0
H1841 H 0.82725 0.01022 0.69122 0.0
H1842 H 0.85294 0.02421 0.65685 0.0
H1843 H 0.86541 0.06015 0.66232 0.0
H1844 H 0.84525 0.04468 0.63976 0.0
H1845 H 0.75191 0.05001 0.64328 0.0
H1846 H 0.77732 0.09939 0.65152 0.0
H1847 H 0.84659 0.09153 0.67703 0.0
C1848 C 0.79089 0.98136 0.65398 0.0
C1849 C 0.76603 0.9617 0.64379 0.0
C1850 C 0.74559 0.9689 0.63782 0.0
C1851 C 0.74988 0.99542 0.64147 0.0
C1852 C 0.77465 0.01446 0.65127 0.0
C1853 C 0.79477 0.00787 0.65765 0.0
C1854 C 0.8199 0.03283 0.6673 0.0
C1855 C 0.82264 0.02745 0.68959 0.0
C1856 C 0.8475 0.04094 0.65587 0.0
C1857 C 0.81094 0.05449 0.66485 0.0
C1858 C 0.78471 0.04323 0.65561 0.0
C1859 C 0.77231 0.05905 0.65076 0.0
C1860 C 0.78706 0.08723 0.65545 0.0
C1861 C 0.81393 0.09945 0.66503 0.0
C1862 C 0.82593 0.08274 0.66993 0.0
H1863 H 0.53087 0.34188 0.7207 0.0
H1864 H 0.49396 0.39519 0.72058 0.0
H1865 H 0.44778 0.35559 0.70987 0.0
H1866 H 0.49199 0.30204 0.67545 0.0
H1867 H 0.48853 0.27019 0.68485 0.0
H1868 H 0.51875 0.30289 0.69195 0.0
H1869 H 0.50693 0.29039 0.72949 0.0
H1870 H 0.47667 0.25777 0.72247 0.0
H1871 H 0.47216 0.28126 0.73867 0.0
H1872 H 0.40434 0.30869 0.70334 0.0
H1873 H 0.36857 0.25954 0.69674 0.0
H1874 H 0.43521 0.23833 0.6969 0.0
C1875 C 0.5131 0.34519 0.71813 0.0
C1876 C 0.51579 0.37144 0.72144 0.0
C1877 C 0.49227 0.37522 0.71794 0.0
C1878 C 0.46598 0.35285 0.71195 0.0
C1879 C 0.46387 0.32708 0.70901 0.0
C1880 C 0.487 0.32331 0.71149 0.0
C1881 C 0.47921 0.29364 0.70703 0.0
C1882 C 0.4956 0.29211 0.68873 0.0
C1883 C 0.48403 0.27997 0.72552 0.0
C1884 C 0.44791 0.2811 0.70232 0.0
C1885 C 0.43936 0.30063 0.70375 0.0
C1886 C 0.41091 0.29337 0.70173 0.0
C1887 C 0.39076 0.26546 0.69809 0.0
C1888 C 0.39928 0.24538 0.69608 0.0
C1889 C 0.42824 0.25341 0.698 0.0
H1890 H 0.64697 0.09967 0.72544 0.0
H1891 H 0.65419 0.18033 0.71891 0.0
H1892 H 0.70294 0.19905 0.7056 0.0
H1893 H 0.71632 0.12241 0.74201 0.0
H1894 H 0.72028 0.09647 0.7285 0.0
H1895 H 0.6856 0.08944 0.73614 0.0
H1896 H 0.66811 0.07815 0.69926 0.0
H1897 H 0.70284 0.0853 0.69145 0.0
H1898 H 0.68675 0.10341 0.67998 0.0
H1899 H 0.75299 0.2095 0.69559 0.0
H1900 H 0.79828 0.20997 0.68919 0.0
H1901 H 0.7565 0.12195 0.70116 0.0
C1902 C 0.65872 0.12121 0.72099 0.0
C1903 C 0.64689 0.13854 0.72316 0.0
C1904 C 0.66285 0.16664 0.71727 0.0
C1905 C 0.69054 0.17744 0.70969 0.0
C1906 C 0.70172 0.15975 0.70789 0.0
C1907 C 0.68611 0.13215 0.71323 0.0
C1908 C 0.70297 0.11751 0.71045 0.0
C1909 C 0.7065 0.10579 0.73047 0.0
C1910 C 0.68935 0.09475 0.69433 0.0
C1911 C 0.73084 0.14129 0.7033 0.0
C1912 C 0.72983 0.16553 0.70174 0.0
C1913 C 0.75379 0.1905 0.69643 0.0
C1914 C 0.77936 0.1906 0.69272 0.0
C1915 C 0.7805 0.16583 0.69416 0.0
C1916 C 0.75594 0.14102 0.69952 0.0
H1917 H 0.85917 0.51966 0.75098 0.0
H1918 H 0.89591 0.50267 0.6989 0.0
H1919 H 0.89085 0.53781 0.67959 0.0
H1920 H 0.8076 0.53055 0.72281 0.0
H1921 H 0.81082 0.55747 0.7395 0.0
H1922 H 0.81632 0.53019 0.74889 0.0
H1923 H 0.86643 0.56669 0.76201 0.0
H1924 H 0.86019 0.59359 0.75298 0.0
H1925 H 0.89125 0.59241 0.74493 0.0
H1926 H 0.88332 0.57633 0.66637 0.0
H1927 H 0.87354 0.61477 0.66052 0.0
H1928 H 0.84074 0.60528 0.72091 0.0
C1929 C 0.86595 0.52325 0.73547 0.0
C1930 C 0.87789 0.50852 0.72642 0.0
C1931 C 0.88657 0.51367 0.7061 0.0
C1932 C 0.88381 0.5336 0.69502 0.0
C1933 C 0.87213 0.54796 0.70445 0.0
C1934 C 0.86313 0.54286 0.72417 0.0
C1935 C 0.85146 0.56119 0.73087 0.0
C1936 C 0.81966 0.54381 0.7358 0.0
C1937 C 0.86838 0.57957 0.74875 0.0
C1938 C 0.85621 0.57808 0.71207 0.0
C1939 C 0.86785 0.56999 0.69689 0.0
C1940 C 0.87413 0.58276 0.67814 0.0
C1941 C 0.86844 0.60445 0.6749 0.0
C1942 C 0.85688 0.61312 0.6904 0.0
C1943 C 0.85047 0.59959 0.70908 0.0
H1944 H 0.49264 0.93548 0.24639 0.0
H1945 H 0.40355 0.87991 0.23342 0.0
H1946 H 0.4108 0.89754 0.19866 0.0
H1947 H 0.49868 0.99227 0.21944 0.0
H1948 H 0.53403 0.00387 0.21027 0.0
H1949 H 0.52264 0.98507 0.2335 0.0
H1950 H 0.53506 0.94879 0.21992 0.0
H1951 H 0.54675 0.96764 0.19668 0.0
H1952 H 0.51998 0.9315 0.19643 0.0
H1953 H 0.427 0.92355 0.16603 0.0
H1954 H 0.45083 0.9557 0.13801 0.0
H1955 H 0.5297 0.99424 0.17192 0.0
C1956 C 0.47483 0.92654 0.23607 0.0
C1957 C 0.44754 0.90615 0.24259 0.0
C1958 C 0.42461 0.89553 0.22877 0.0
C1959 C 0.42855 0.90537 0.20898 0.0
C1960 C 0.45557 0.92589 0.20316 0.0
C1961 C 0.47836 0.93627 0.21627 0.0
C1962 C 0.50484 0.95935 0.20656 0.0
C1963 C 0.51567 0.98676 0.21814 0.0
C1964 C 0.52803 0.95133 0.20479 0.0
C1965 C 0.49326 0.96062 0.18609 0.0
C1966 C 0.46486 0.941 0.18439 0.0
C1967 C 0.44933 0.93876 0.16711 0.0
C1968 C 0.46315 0.95708 0.15119 0.0
C1969 C 0.49226 0.97754 0.15258 0.0
C1970 C 0.50741 0.97905 0.17033 0.0
H1971 H 0.06071 0.50444 0.24388 0.0
H1972 H 0.13443 0.58402 0.23062 0.0
H1973 H 0.118 0.58037 0.19555 0.0
H1974 H 0.05645 0.47175 0.19494 0.0
H1975 H 0.0182 0.4536 0.19463 0.0
H1976 H 0.03701 0.46149 0.21819 0.0
H1977 H 0.01035 0.4866 0.23023 0.0
H1978 H 0.99165 0.47901 0.20667 0.0
H1979 H 0.01192 0.51432 0.21535 0.0
H1980 H 0.09231 0.56928 0.16252 0.0
H1981 H 0.05908 0.55158 0.13381 0.0
H1982 H 1.0019 0.47921 0.16854 0.0
C1983 C 0.07366 0.52079 0.23346 0.0
C1984 C 0.09889 0.54446 0.23989 0.0
C1985 C 0.11498 0.56576 0.22597 0.0
C1986 C 0.10587 0.56383 0.20603 0.0
C1987 C 0.08062 0.54047 0.20025 0.0
C1988 C 0.06476 0.51928 0.21352 0.0
C1989 C 0.03768 0.4971 0.20375 0.0
C1990 C 0.03733 0.46934 0.20282 0.0
C1991 C 0.01135 0.4941 0.21465 0.0
C1992 C 0.04059 0.50933 0.18302 0.0
C1993 C 0.06563 0.53423 0.18126 0.0
C1994 C 0.07276 0.54967 0.16365 0.0
C1995 C 0.05379 0.5394 0.14741 0.0
C1996 C 0.02791 0.51398 0.14889 0.0
C1997 C 0.02139 0.4988 0.16698 0.0
H1998 H 0.51376 0.59842 0.2327 0.0
H1999 H 0.46035 0.51216 0.24964 0.0
H2000 H 0.47157 0.49758 0.21785 0.0
H2001 H 0.49965 0.59087 0.17991 0.0
H2002 H 0.53576 0.61465 0.17274 0.0
H2003 H 0.52254 0.61885 0.19649 0.0
H2004 H 0.56352 0.61702 0.21498 0.0
H2005 H 0.57701 0.61305 0.19128 0.0
H2006 H 0.5689 0.58795 0.21087 0.0
H2007 H 0.48694 0.49182 0.18363 0.0
H2008 H 0.51054 0.49567 0.15105 0.0
H2009 H 0.55804 0.58496 0.15766 0.0
C2010 C 0.50457 0.57645 0.22991 0.0
C2011 C 0.48545 0.55658 0.24371 0.0
C2012 C 0.47409 0.52802 0.23918 0.0
C2013 C 0.48055 0.5194 0.22116 0.0
C2014 C 0.49896 0.53948 0.20783 0.0
C2015 C 0.51128 0.56741 0.21212 0.0
C2016 C 0.53155 0.58464 0.19557 0.0
C2017 C 0.52178 0.60336 0.18559 0.0
C2018 C 0.56205 0.60167 0.20366 0.0
C2019 C 0.52855 0.562 0.18135 0.0
C2020 C 0.50929 0.53611 0.18859 0.0
C2021 C 0.50226 0.51196 0.17788 0.0
C2022 C 0.51561 0.51431 0.15939 0.0
C2023 C 0.53606 0.54053 0.15202 0.0
C2024 C 0.54254 0.56467 0.16311 0.0
H2025 H 0.92238 0.42207 0.80325 0.0
H2026 H 0.96754 0.50292 0.77524 0.0
H2027 H 0.99721 0.52193 0.8056 0.0
H2028 H 0.92255 0.44757 0.85397 0.0
H2029 H 0.9275 0.42127 0.86591 0.0
H2030 H 0.90904 0.41412 0.84223 0.0
H2031 H 0.9442 0.40061 0.82677 0.0
H2032 H 0.96275 0.40771 0.85038 0.0
H2033 H 0.98178 0.42487 0.82792 0.0
H2034 H 0.0242 0.53141 0.83768 0.0
H2035 H 0.04536 0.53127 0.87057 0.0
H2036 H 0.98157 0.44511 0.87875 0.0
C2037 C 0.93843 0.44379 0.80361 0.0
C2038 C 0.94262 0.46109 0.78697 0.0
C2039 C 0.96377 0.48942 0.78794 0.0
C2040 C 0.98077 0.50037 0.80507 0.0
C2041 C 0.97619 0.48279 0.82119 0.0
C2042 C 0.9554 0.45517 0.82072 0.0
C2043 C 0.95515 0.44078 0.84007 0.0
C2044 C 0.92687 0.43032 0.8512 0.0
C2045 C 0.96135 0.4171 0.83604 0.0
C2046 C 0.97939 0.46451 0.85129 0.0
C2047 C 0.99125 0.48853 0.84007 0.0
C2048 C 0.01488 0.51285 0.84673 0.0
C2049 C 0.02677 0.5126 0.86534 0.0
C2050 C 0.01483 0.4883 0.8771 0.0
C2051 C 0.99071 0.46404 0.87009 0.0
H2052 H 0.57189 0.50922 0.78816 0.0
H2053 H 0.56265 0.42807 0.79749 0.0
H2054 H 0.54575 0.4275 0.83202 0.0
H2055 H 0.59595 0.53581 0.8388 0.0
H2056 H 0.57659 0.5543 0.83948 0.0
H2057 H 0.58924 0.54879 0.8159 0.0
H2058 H 0.53814 0.52558 0.80149 0.0
H2059 H 0.5253 0.5309 0.82503 0.0
H2060 H 0.50992 0.49657 0.81446 0.0
H2061 H 0.52874 0.4354 0.86534 0.0
H2062 H 0.51172 0.45055 0.89446 0.0
H2063 H 0.532 0.52651 0.86329 0.0
C2064 C 0.56674 0.49152 0.79757 0.0
C2065 C 0.5687 0.46872 0.79015 0.0
C2066 C 0.56116 0.44569 0.80282 0.0
C2067 C 0.55167 0.44524 0.82248 0.0
C2068 C 0.54977 0.46796 0.82926 0.0
C2069 C 0.55708 0.49067 0.81718 0.0
C2070 C 0.5521 0.51196 0.82782 0.0
C2071 C 0.58014 0.53933 0.83067 0.0
C2072 C 0.53005 0.5165 0.81652 0.0
C2073 C 0.54059 0.49758 0.84769 0.0
C2074 C 0.53963 0.47233 0.8483 0.0
C2075 C 0.52953 0.4552 0.86506 0.0
C2076 C 0.52003 0.46404 0.88157 0.0
C2077 C 0.5205 0.48971 0.8812 0.0
C2078 C 0.53109 0.50666 0.864 0.0
H2079 H 0.5805 0.1244 0.80275 0.0
H2080 H 0.49692 0.06263 0.78172 0.0
H2081 H 0.48735 0.03891 0.81452 0.0
H2082 H 0.59555 0.07865 0.8313 0.0
H2083 H 0.61338 0.10327 0.85125 0.0
H2084 H 0.6135 0.11527 0.82616 0.0
H2085 H 0.59211 0.14477 0.83931 0.0
H2086 H 0.59193 0.13286 0.86444 0.0
H2087 H 0.55955 0.12832 0.85344 0.0
H2088 H 0.48761 0.02124 0.84945 0.0
H2089 H 0.49716 0.0116 0.88385 0.0
H2090 H 0.57973 0.08642 0.88245 0.0
C2091 C 0.56026 0.10577 0.80501 0.0
C2092 C 0.53948 0.09526 0.78967 0.0
C2093 C 0.51307 0.0711 0.79332 0.0
C2094 C 0.50749 0.05745 0.81186 0.0
C2095 C 0.52845 0.06837 0.82667 0.0
C2096 C 0.55425 0.09207 0.82348 0.0
C2097 C 0.57304 0.09976 0.84193 0.0
C2098 C 0.60049 0.09919 0.83738 0.0
C2099 C 0.57953 0.1281 0.85027 0.0
C2100 C 0.55392 0.07652 0.85593 0.0
C2101 C 0.52832 0.0586 0.84686 0.0
C2102 C 0.50751 0.03528 0.85675 0.0
C2103 C 0.51306 0.03009 0.87639 0.0
C2104 C 0.53919 0.04822 0.88603 0.0
C2105 C 0.55969 0.07184 0.87555 0.0
H2106 H 0.08979 0.24105 0.55927 0.0
H2107 H 0.16787 0.28364 0.5939 0.0
H2108 H 0.19202 0.31353 0.56505 0.0
H2109 H 0.12201 0.24269 0.51159 0.0
H2110 H 0.09818 0.24942 0.49696 0.0
H2111 H 0.08636 0.23076 0.52025 0.0
H2112 H 0.07273 0.26632 0.53347 0.0
H2113 H 0.08419 0.2849 0.51013 0.0
H2114 H 0.09893 0.30265 0.53353 0.0
H2115 H 0.20828 0.33861 0.53308 0.0
H2116 H 0.21502 0.36042 0.4999 0.0
H2117 H 0.12698 0.30324 0.4849 0.0
C2118 C 0.11189 0.25683 0.5608 0.0
C2119 C 0.12702 0.25964 0.57884 0.0
C2120 C 0.15595 0.28059 0.58017 0.0
C2121 C 0.16988 0.29777 0.56386 0.0
C2122 C 0.15466 0.29405 0.54622 0.0
C2123 C 0.12626 0.27437 0.54454 0.0
C2124 C 0.11501 0.27539 0.5238 0.0
C2125 C 0.10479 0.24793 0.51248 0.0
C2126 C 0.09131 0.28276 0.52533 0.0
C2127 C 0.14156 0.29873 0.51421 0.0
C2128 C 0.16413 0.30897 0.5275 0.0
C2129 C 0.1908 0.33081 0.52253 0.0
C2130 C 0.19444 0.34303 0.50365 0.0
C2131 C 0.17159 0.33349 0.48986 0.0
C2132 C 0.14488 0.31069 0.49508 0.0
H2133 H 0.72307 0.83559 0.58168 0.0
H2134 H 0.80365 0.91026 0.57196 0.0
H2135 H 0.79176 0.90956 0.53602 0.0
H2136 H 0.71789 0.80281 0.53191 0.0
H2137 H 0.68019 0.78962 0.53013 0.0
H2138 H 0.69669 0.79385 0.55436 0.0
H2139 H 0.67586 0.8245 0.56591 0.0
H2140 H 0.65951 0.82057 0.54171 0.0
H2141 H 0.68319 0.85471 0.55151 0.0
H2142 H 0.76961 0.90304 0.50204 0.0
H2143 H 0.73829 0.89187 0.47247 0.0
H2144 H 0.67137 0.8219 0.50426 0.0
C2145 C 0.73845 0.85127 0.57179 0.0
C2146 C 0.76444 0.87275 0.57936 0.0
C2147 C 0.78377 0.89352 0.56626 0.0
C2148 C 0.77721 0.89325 0.54588 0.0
C2149 C 0.75114 0.87213 0.53888 0.0
C2150 C 0.73204 0.85149 0.55141 0.0
C2151 C 0.70451 0.83262 0.54048 0.0
C2152 C 0.69954 0.80297 0.53914 0.0
C2153 C 0.67929 0.83315 0.5505 0.0
C2154 C 0.71088 0.84626 0.52003 0.0
C2155 C 0.73804 0.86877 0.51935 0.0
C2156 C 0.74842 0.88525 0.50231 0.0
C2157 C 0.7305 0.87868 0.48555 0.0
C2158 C 0.7024 0.85597 0.48599 0.0
C2159 C 0.69268 0.83947 0.50347 0.0
H2160 H 0.13875 0.86069 0.57572 0.0
H2161 H 0.15868 0.94566 0.5673 0.0
H2162 H 0.17393 0.94454 0.53252 0.0
H2163 H 0.19832 0.86717 0.54937 0.0
H2164 H 0.17992 0.83297 0.53846 0.0
H2165 H 0.16825 0.8396 0.56204 0.0
H2166 H 0.11779 0.82126 0.54737 0.0
H2167 H 0.12929 0.81447 0.52374 0.0
H2168 H 0.11336 0.83614 0.5246 0.0
H2169 H 0.18842 0.93465 0.49906 0.0
H2170 H 0.20324 0.91747 0.46986 0.0
H2171 H 0.17529 0.83936 0.50035 0.0
C2172 C 0.14588 0.87885 0.56639 0.0
C2173 C 0.14738 0.90321 0.57407 0.0
C2174 C 0.1574 0.92682 0.56164 0.0
C2175 C 0.166 0.92633 0.54187 0.0
C2176 C 0.1646 0.90212 0.5348 0.0
C2177 C 0.15489 0.87883 0.54669 0.0
C2178 C 0.15714 0.85604 0.53585 0.0
C2179 C 0.1771 0.84852 0.5471 0.0
C2180 C 0.12764 0.83047 0.5327 0.0
C2181 C 0.1699 0.87025 0.51611 0.0
C2182 C 0.17371 0.89669 0.51572 0.0
C2183 C 0.18542 0.91393 0.49916 0.0
C2184 C 0.19367 0.90396 0.48262 0.0
C2185 C 0.19045 0.87711 0.48283 0.0
C2186 C 0.17822 0.86006 0.49981 0.0
H2187 H 0.59215 0.74 0.13079 0.0
H2188 H 0.60494 0.82234 0.11985 0.0
H2189 H 0.62895 0.83791 0.15254 0.0
H2190 H 0.58039 0.73797 0.18379 0.0
H2191 H 0.59991 0.72046 0.18943 0.0
H2192 H 0.58261 0.71528 0.16544 0.0
H2193 H 0.63035 0.73053 0.1474 0.0
H2194 H 0.64778 0.73568 0.17133 0.0
H2195 H 0.6608 0.7636 0.15347 0.0
H2196 H 0.65096 0.84456 0.18664 0.0
H2197 H 0.67223 0.84238 0.21899 0.0
H2198 H 0.64823 0.75695 0.20669 0.0
C2199 C 0.60019 0.76138 0.13512 0.0
C2200 C 0.59623 0.77978 0.12273 0.0
C2201 C 0.60695 0.80755 0.12921 0.0
C2202 C 0.62086 0.81671 0.14772 0.0
C2203 C 0.62425 0.798 0.15954 0.0
C2204 C 0.61449 0.771 0.15344 0.0
C2205 C 0.62163 0.75533 0.16876 0.0
C2206 C 0.59452 0.73081 0.17736 0.0
C2207 C 0.64131 0.74573 0.15969 0.0
C2208 C 0.63694 0.77778 0.18439 0.0
C2209 C 0.63797 0.80215 0.17887 0.0
C2210 C 0.65044 0.82564 0.19109 0.0
C2211 C 0.66235 0.8242 0.20942 0.0
C2212 C 0.66196 0.79958 0.21518 0.0
C2213 C 0.64908 0.77612 0.20248 0.0
H2214 H 0.20173 0.79849 0.11909 0.0
H2215 H 0.2914 0.83238 0.1319 0.0
H2216 H 0.28466 0.84713 0.16541 0.0
H2217 H 0.19374 0.85094 0.14364 0.0
H2218 H 0.15894 0.82758 0.15341 0.0
H2219 H 0.17059 0.81914 0.13053 0.0
H2220 H 0.16073 0.7724 0.14575 0.0
H2221 H 0.14887 0.78062 0.16864 0.0
H2222 H 0.17689 0.77223 0.16935 0.0
H2223 H 0.26853 0.85937 0.19711 0.0
H2224 H 0.24393 0.86748 0.22512 0.0
H2225 H 0.16433 0.82389 0.19229 0.0
C2226 C 0.21988 0.80868 0.12903 0.0
C2227 C 0.24714 0.81439 0.12279 0.0
C2228 C 0.27041 0.82816 0.13619 0.0
C2229 C 0.26677 0.83647 0.15531 0.0
C2230 C 0.2397 0.83076 0.16088 0.0
C2231 C 0.21662 0.81706 0.1482 0.0
C2232 C 0.18984 0.8137 0.15782 0.0
C2233 C 0.17757 0.82875 0.14562 0.0
C2234 C 0.16778 0.78291 0.16055 0.0
C2235 C 0.20154 0.82786 0.17782 0.0
C2236 C 0.23033 0.83752 0.17929 0.0
C2237 C 0.24593 0.85168 0.19622 0.0
C2238 C 0.2317 0.85604 0.21211 0.0
C2239 C 0.20212 0.8462 0.21103 0.0
C2240 C 0.18697 0.83192 0.19357 0.0
H2241 H 0.24674 0.44038 0.13307 0.0
H2242 H 0.15823 0.39617 0.11424 0.0
H2243 H 0.14503 0.37213 0.14648 0.0
H2244 H 0.24366 0.38037 0.15622 0.0
H2245 H 0.26805 0.39995 0.17611 0.0
H2246 H 0.27058 0.41592 0.15216 0.0
H2247 H 0.26621 0.45511 0.1698 0.0
H2248 H 0.2634 0.43911 0.1938 0.0
H2249 H 0.23613 0.4464 0.18572 0.0
H2250 H 0.14068 0.35286 0.1812 0.0
H2251 H 0.14678 0.33533 0.21392 0.0
H2252 H 0.23801 0.38705 0.20882 0.0
C2253 C 0.22457 0.42557 0.13552 0.0
C2254 C 0.20359 0.42117 0.12094 0.0
C2255 C 0.17485 0.40129 0.12518 0.0
C2256 C 0.16701 0.38713 0.14351 0.0
C2257 C 0.18811 0.39231 0.15751 0.0
C2258 C 0.21637 0.4106 0.1536 0.0
C2259 C 0.23501 0.41079 0.1707 0.0
C2260 C 0.25553 0.40118 0.16335 0.0
C2261 C 0.25114 0.43957 0.18059 0.0
C2262 C 0.21277 0.38975 0.18475 0.0
C2263 C 0.18579 0.37973 0.177 0.0
C2264 C 0.16171 0.36044 0.18737 0.0
C2265 C 0.16532 0.3507 0.20596 0.0
C2266 C 0.19278 0.35988 0.21381 0.0
C2267 C 0.21677 0.37977 0.20311 0.0
H2268 H 0.81471 0.57991 0.896 0.0
H2269 H 0.75588 0.60607 0.91688 0.0
H2270 H 0.76205 0.63092 0.88528 0.0
H2271 H 0.86339 0.64557 0.87453 0.0
H2272 H 0.87292 0.63086 0.8539 0.0
H2273 H 0.86164 0.61257 0.87734 0.0
H2274 H 0.82237 0.56965 0.85864 0.0
H2275 H 0.83339 0.58792 0.83515 0.0
H2276 H 0.79709 0.57322 0.84323 0.0
H2277 H 0.77491 0.65376 0.8512 0.0
H2278 H 0.79796 0.67707 0.81941 0.0
H2279 H 0.85181 0.64027 0.82224 0.0
C2280 C 0.80315 0.59092 0.89414 0.0
C2281 C 0.78426 0.59023 0.90913 0.0
C2282 C 0.76966 0.60509 0.90562 0.0
C2283 C 0.77319 0.61959 0.88766 0.0
C2284 C 0.7918 0.61965 0.8733 0.0
C2285 C 0.80688 0.60607 0.87648 0.0
C2286 C 0.82716 0.6111 0.85928 0.0
C2287 C 0.85811 0.62591 0.86671 0.0
C2288 C 0.81954 0.58384 0.84843 0.0
C2289 C 0.82129 0.62983 0.84605 0.0
C2290 C 0.80041 0.63408 0.85422 0.0
C2291 C 0.79132 0.6506 0.84469 0.0
C2292 C 0.80437 0.66363 0.82659 0.0
C2293 C 0.8266 0.66046 0.81841 0.0
C2294 C 0.83486 0.64305 0.8282 0.0
H2295 H 0.407 0.17529 0.91385 0.0
H2296 H 0.47937 0.25708 0.90426 0.0
H2297 H 0.46181 0.25765 0.87003 0.0
H2298 H 0.40145 0.1491 0.86268 0.0
H2299 H 0.3632 0.13058 0.86293 0.0
H2300 H 0.3827 0.13587 0.88596 0.0
H2301 H 0.35603 0.15888 0.90188 0.0
H2302 H 0.33655 0.15377 0.87889 0.0
H2303 H 0.35676 0.188 0.88955 0.0
H2304 H 0.43552 0.24957 0.83711 0.0
H2305 H 0.4014 0.23461 0.80883 0.0
H2306 H 0.34549 0.15877 0.84055 0.0
C2307 C 0.41939 0.19309 0.90438 0.0
C2308 C 0.4447 0.21604 0.91155 0.0
C2309 C 0.45997 0.23929 0.89897 0.0
C2310 C 0.45021 0.23974 0.87953 0.0
C2311 C 0.42503 0.21685 0.87296 0.0
C2312 C 0.40977 0.19401 0.88505 0.0
C2313 C 0.38253 0.1728 0.8749 0.0
C2314 C 0.38248 0.14547 0.87141 0.0
C2315 C 0.35643 0.1681 0.88703 0.0
C2316 C 0.38467 0.18737 0.85529 0.0
C2317 C 0.4095 0.2126 0.85433 0.0
C2318 C 0.41606 0.22983 0.83768 0.0
C2319 C 0.39662 0.22113 0.82167 0.0
C2320 C 0.3708 0.19559 0.82253 0.0
C2321 C 0.36494 0.17851 0.83955 0.0
H2322 H 0.79309 0.19047 0.90555 0.0
H2323 H 0.80386 0.27113 0.8918 0.0
H2324 H 0.81655 0.26683 0.85686 0.0
H2325 H 0.85188 0.1992 0.87919 0.0
H2326 H 0.83644 0.16408 0.87015 0.0
H2327 H 0.82381 0.17125 0.89307 0.0
H2328 H 0.77255 0.14707 0.87894 0.0
H2329 H 0.78495 0.13946 0.85602 0.0
H2330 H 0.76564 0.15799 0.85517 0.0
H2331 H 0.83305 0.25611 0.8247 0.0
H2332 H 0.85152 0.23956 0.79743 0.0
H2333 H 0.83048 0.16573 0.83189 0.0
C2334 C 0.79713 0.20672 0.89493 0.0
C2335 C 0.79702 0.23093 0.90118 0.0
C2336 C 0.80348 0.25229 0.88715 0.0
C2337 C 0.81073 0.25002 0.86732 0.0
C2338 C 0.81151 0.22627 0.86174 0.0
C2339 C 0.80471 0.20488 0.87508 0.0
C2340 C 0.80958 0.18271 0.86576 0.0
C2341 C 0.83175 0.17912 0.87776 0.0
C2342 C 0.78151 0.15518 0.86386 0.0
C2343 C 0.82088 0.19532 0.84533 0.0
C2344 C 0.8215 0.22028 0.84324 0.0
C2345 C 0.83223 0.23636 0.82604 0.0
C2346 C 0.8426 0.22671 0.81057 0.0
C2347 C 0.84236 0.20123 0.81236 0.0
C2348 C 0.83113 0.18534 0.83001 0.0
H2349 H 0.25477 0.08514 0.46913 0.0
H2350 H 0.28515 0.17176 0.45553 0.0
H2351 H 0.30964 0.18511 0.48814 0.0
H2352 H 0.24494 0.08791 0.5219 0.0
H2353 H 0.2582 0.06497 0.52825 0.0
H2354 H 0.24159 0.06186 0.50423 0.0
H2355 H 0.28643 0.06756 0.48625 0.0
H2356 H 0.30313 0.07055 0.51021 0.0
H2357 H 0.32048 0.09741 0.49174 0.0
H2358 H 0.33004 0.18917 0.52273 0.0
H2359 H 0.34849 0.18368 0.55543 0.0
H2360 H 0.30915 0.09531 0.54491 0.0
C2361 C 0.26677 0.10697 0.4728 0.0
C2362 C 0.26744 0.12727 0.45969 0.0
C2363 C 0.28335 0.15559 0.46542 0.0
C2364 C 0.29763 0.16348 0.4839 0.0
C2365 C 0.29632 0.14292 0.49643 0.0
C2366 C 0.28165 0.11529 0.49101 0.0
C2367 C 0.28463 0.09741 0.50684 0.0
C2368 C 0.25561 0.07682 0.51584 0.0
C2369 C 0.29956 0.08235 0.49825 0.0
C2370 C 0.30323 0.11932 0.52201 0.0
C2371 C 0.30942 0.14542 0.51585 0.0
C2372 C 0.32554 0.16888 0.52765 0.0
C2373 C 0.33584 0.1656 0.54616 0.0
C2374 C 0.33033 0.13916 0.55246 0.0
C2375 C 0.31382 0.11577 0.54025 0.0
H2376 H 0.86101 0.13894 0.44724 0.0
H2377 H 0.95168 0.18093 0.4588 0.0
H2378 H 0.94348 0.1916 0.49331 0.0
H2379 H 0.8467 0.18562 0.47494 0.0
H2380 H 0.81305 0.15895 0.48441 0.0
H2381 H 0.82601 0.1542 0.46072 0.0
H2382 H 0.82155 0.10829 0.4735 0.0
H2383 H 0.8085 0.11286 0.49722 0.0
H2384 H 0.83907 0.1083 0.4965 0.0
H2385 H 0.92537 0.19789 0.52657 0.0
H2386 H 0.89878 0.20016 0.55586 0.0
H2387 H 0.81987 0.15349 0.52274 0.0
C2388 C 0.87913 0.15016 0.45708 0.0
C2389 C 0.90702 0.15915 0.45028 0.0
C2390 C 0.93016 0.17413 0.46358 0.0
C2391 C 0.9257 0.18014 0.48325 0.0
C2392 C 0.89796 0.17105 0.48944 0.0
C2393 C 0.87506 0.1564 0.47675 0.0
C2394 C 0.84742 0.14937 0.48702 0.0
C2395 C 0.83242 0.16284 0.47612 0.0
C2396 C 0.82799 0.11783 0.48866 0.0
C2397 C 0.85836 0.16247 0.50742 0.0
C2398 C 0.88756 0.17475 0.50855 0.0
C2399 C 0.90248 0.18825 0.52589 0.0
C2400 C 0.88717 0.18929 0.54249 0.0
C2401 C 0.85722 0.17698 0.54164 0.0
C2402 C 0.84276 0.16336 0.52382 0.0
H2403 H 0.83546 0.73924 0.45298 0.0
H2404 H 0.92476 0.79639 0.46449 0.0
H2405 H 0.91923 0.77863 0.49902 0.0
H2406 H 0.81061 0.74519 0.50241 0.0
H2407 H 0.7836 0.70917 0.50333 0.0
H2408 H 0.79453 0.72657 0.47952 0.0
H2409 H 0.80617 0.68932 0.46689 0.0
H2410 H 0.79535 0.67185 0.49066 0.0
H2411 H 0.83032 0.68257 0.48111 0.0
H2412 H 0.90425 0.75386 0.53225 0.0
H2413 H 0.88097 0.72383 0.56142 0.0
H2414 H 0.80098 0.68428 0.52884 0.0
C2415 C 0.85381 0.74824 0.4628 0.0
C2416 C 0.88062 0.76912 0.45585 0.0
C2417 C 0.90411 0.78004 0.46923 0.0
C2418 C 0.90115 0.77023 0.48897 0.0
C2419 C 0.87451 0.74957 0.49526 0.0
C2420 C 0.85122 0.73874 0.4826 0.0
C2421 C 0.82501 0.71645 0.49304 0.0
C2422 C 0.80209 0.72486 0.49467 0.0
C2423 C 0.81355 0.68839 0.48228 0.0
C2424 C 0.83726 0.71625 0.51346 0.0
C2425 C 0.86582 0.73556 0.51447 0.0
C2426 C 0.88182 0.73881 0.53168 0.0
C2427 C 0.86833 0.72174 0.54826 0.0
C2428 C 0.83906 0.70161 0.54758 0.0
C2429 C 0.82342 0.69916 0.52989 0.0
loop_
_geom_bond_atom_site_label_1
_geom_bond_atom_site_label_2
_geom_bond_distance
_geom_bond_site_symmetry_2
_ccdc_geom_bond_type
H0 C5 0.930 . S
H1 C8 0.930 . S
H2 C10 0.930 . S
H3 C4 1.016 . S
C4 H3 1.016 . S
C4 N11 1.286 . S
C5 H0 0.930 . S
C5 C6 1.397 . S
C5 C7 1.361 . S
C6 C5 1.397 . S
C6 C10 1.390 . S
C7 C5 1.361 . S
C7 C8 1.393 . S
C7 N11 1.413 . S
C8 H1 0.930 . S
C8 C7 1.393 . S
C8 C9 1.399 . S
C9 C8 1.399 . S
C9 C10 1.381 . S
C10 H2 0.930 . S
C10 C6 1.390 . S
C10 C9 1.381 . S
N11 C4 1.286 . S
N11 C7 1.413 . S
H12 C17 0.930 . S
H13 C20 0.930 . S
H14 C22 0.930 . S
H15 C16 1.016 . S
C16 H15 1.016 . S
C16 N23 1.286 . S
C17 H12 0.930 . S
C17 C18 1.397 . S
C17 C19 1.361 . S
C18 C17 1.397 . S
C18 C22 1.390 . S
C19 C17 1.361 . S
C19 C20 1.393 . S
C19 N23 1.413 . S
C20 H13 0.930 . S
C20 C19 1.393 . S
C20 C21 1.399 . S
C21 C20 1.399 . S
C21 C22 1.381 . S
C22 H14 0.930 . S
C22 C18 1.390 . S
C22 C21 1.381 . S
N23 C16 1.286 . S
N23 C19 1.413 . S
H24 C29 0.930 . S
H25 C32 0.930 . S
H26 C34 0.930 . S
H27 C28 1.016 . S
C28 H27 1.016 . S
C28 N35 1.286 . S
C29 H24 0.930 . S
C29 C30 1.397 . S
C29 C31 1.361 . S
C30 C29 1.397 . S
C30 C34 1.390 . S
C31 C29 1.361 . S
C31 C32 1.393 . S
C31 N35 1.413 . S
C32 H25 0.930 . S
C32 C31 1.393 . S
C32 C33 1.399 . S
C33 C32 1.399 . S
C33 C34 1.381 . S
C34 H26 0.930 . S
C34 C30 1.390 . S
C34 C33 1.381 . S
N35 C28 1.286 . S
N35 C31 1.413 . S
H36 C41 0.930 . S
H37 C44 0.930 . S
H38 C46 0.930 . S
H39 C40 1.016 . S
C40 H39 1.016 . S
C40 N47 1.286 . S
C41 H36 0.930 . S
C41 C42 1.397 . S
C41 C43 1.361 . S
C42 C41 1.397 . S
C42 C46 1.390 . S
C43 C41 1.361 . S
C43 C44 1.393 . S
C43 N47 1.413 . S
C44 H37 0.930 . S
C44 C43 1.393 . S
C44 C45 1.399 . S
C45 C44 1.399 . S
C45 C46 1.381 . S
C46 H38 0.930 . S
C46 C42 1.390 . S
C46 C45 1.381 . S
N47 C40 1.286 . S
N47 C43 1.413 . S
H48 C53 0.930 . S
H49 C56 0.930 . S
H50 C58 0.930 . S
H51 C52 1.016 . S
C52 H51 1.016 . S
C52 N59 1.286 . S
C53 H48 0.930 . S
C53 C54 1.397 . S
C53 C55 1.361 . S
C54 C53 1.397 . S
C54 C58 1.390 . S
C55 C53 1.361 . S
C55 C56 1.393 . S
C55 N59 1.413 . S
C56 H49 0.930 . S
C56 C55 1.393 . S
C56 C57 1.399 . S
C57 C56 1.399 . S
C57 C58 1.381 . S
C58 H50 0.930 . S
C58 C54 1.390 . S
C58 C57 1.381 . S
N59 C52 1.286 . S
N59 C55 1.413 . S
H60 C65 0.930 . S
H61 C68 0.930 . S
H62 C70 0.930 . S
H63 C64 1.016 . S
C64 H63 1.016 . S
C64 N71 1.286 . S
C65 H60 0.930 . S
C65 C66 1.397 . S
C65 C67 1.361 . S
C66 C65 1.397 . S
C66 C70 1.390 . S
C67 C65 1.361 . S
C67 C68 1.393 . S
C67 N71 1.413 . S
C68 H61 0.930 . S
C68 C67 1.393 . S
C68 C69 1.399 . S
C69 C68 1.399 . S
C69 C70 1.381 . S
C70 H62 0.930 . S
C70 C66 1.390 . S
C70 C69 1.381 . S
N71 C64 1.286 . S
N71 C67 1.413 . S
H72 C77 0.930 . S
H73 C80 0.930 . S
H74 C82 0.930 . S
H75 C76 1.016 . S
C76 H75 1.016 . S
C76 N83 1.286 . S
C77 H72 0.930 . S
C77 C78 1.397 . S
C77 C79 1.361 . S
C78 C77 1.397 . S
C78 C82 1.390 . S
C79 C77 1.361 . S
C79 C80 1.393 . S
C79 N83 1.413 . S
C80 H73 0.930 . S
C80 C79 1.393 . S
C80 C81 1.399 . S
C81 C80 1.399 . S
C81 C82 1.381 . S
C82 H74 0.930 . S
C82 C78 1.390 . S
C82 C81 1.381 . S
N83 C76 1.286 . S
N83 C79 1.413 . S
H84 C89 0.930 . S
H85 C92 0.930 . S
H86 C94 0.930 . S
H87 C88 1.016 . S
C88 H87 1.016 . S
C88 N95 1.286 . S
C89 H84 0.930 . S
C89 C90 1.397 . S
C89 C91 1.361 . S
C90 C89 1.397 . S
C90 C94 1.390 . S
C91 C89 1.361 . S
C91 C92 1.393 . S
C91 N95 1.413 . S
C92 H85 0.930 . S
C92 C91 1.393 . S
C92 C93 1.399 . S
C93 C92 1.399 . S
C93 C94 1.381 . S
C94 H86 0.930 . S
C94 C90 1.390 . S
C94 C93 1.381 . S
N95 C88 1.286 . S
N95 C91 1.413 . S
H96 C101 0.930 . S
H97 C104 0.930 . S
H98 C106 0.930 . S
H99 C100 1.016 . S
C100 H99 1.016 . S
C100 N107 1.286 . S
C101 H96 0.930 . S
C101 C102 1.397 . S
C101 C103 1.361 . S
C102 C101 1.397 . S
C102 C106 1.390 . S
C103 C101 1.361 . S
C103 C104 1.393 . S
C103 N107 1.413 . S
C104 H97 0.930 . S
C104 C103 1.393 . S
C104 C105 1.399 . S
C105 C104 1.399 . S
C105 C106 1.381 . S
C106 H98 0.930 . S
C106 C102 1.390 . S
C106 C105 1.381 . S
N107 C100 1.286 . S
N107 C103 1.413 . S
H108 C113 0.930 . S
H109 C116 0.930 . S
H110 C118 0.930 . S
H111 C112 1.016 . S
C112 H111 1.016 . S
C112 N119 1.286 . S
C113 H108 0.930 . S
C113 C114 1.397 . S
C113 C115 1.361 . S
C114 C113 1.397 . S
C114 C118 1.390 . S
C115 C113 1.361 . S
C115 C116 1.393 . S
C115 N119 1.413 . S
C116 H109 0.930 . S
C116 C115 1.393 . S
C116 C117 1.399 . S
C117 C116 1.399 . S
C117 C118 1.381 . S
C118 H110 0.930 . S
C118 C114 1.390 . S
C118 C117 1.381 . S
N119 C112 1.286 . S
N119 C115 1.413 . S
H120 C125 0.930 . S
H121 C128 0.930 . S
H122 C130 0.930 . S
H123 C124 1.016 . S
C124 H123 1.016 . S
C124 N131 1.286 . S
C125 H120 0.930 . S
C125 C126 1.397 . S
C125 C127 1.361 . S
C126 C125 1.397 . S
C126 C130 1.390 . S
C127 C125 1.361 . S
C127 C128 1.393 . S
C127 N131 1.413 . S
C128 H121 0.930 . S
C128 C127 1.393 . S
C128 C129 1.399 . S
C129 C128 1.399 . S
C129 C130 1.381 . S
C130 H122 0.930 . S
C130 C126 1.390 . S
C130 C129 1.381 . S
N131 C124 1.286 . S
N131 C127 1.413 . S
H132 C137 0.930 . S
H133 C140 0.930 . S
H134 C142 0.930 . S
H135 C136 1.016 . S
C136 H135 1.016 . S
C136 N143 1.286 . S
C137 H132 0.930 . S
C137 C138 1.397 . S
C137 C139 1.361 . S
C138 C137 1.397 . S
C138 C142 1.390 . S
C139 C137 1.361 . S
C139 C140 1.393 . S
C139 N143 1.413 . S
C140 H133 0.930 . S
C140 C139 1.393 . S
C140 C141 1.399 . S
C141 C140 1.399 . S
C141 C142 1.381 . S
C142 H134 0.930 . S
C142 C138 1.390 . S
C142 C141 1.381 . S
N143 C136 1.286 . S
N143 C139 1.413 . S
H144 C149 0.930 . S
H145 C152 0.930 . S
H146 C154 0.930 . S
H147 C148 1.016 . S
C148 H147 1.016 . S
C148 N155 1.286 . S
C149 H144 0.930 . S
C149 C150 1.397 . S
C149 C151 1.361 . S
C150 C149 1.397 . S
C150 C154 1.390 . S
C151 C149 1.361 . S
C151 C152 1.393 . S
C151 N155 1.413 . S
C152 H145 0.930 . S
C152 C151 1.393 . S
C152 C153 1.399 . S
C153 C152 1.399 . S
C153 C154 1.381 . S
C154 H146 0.930 . S
C154 C150 1.390 . S
C154 C153 1.381 . S
N155 C148 1.286 . S
N155 C151 1.413 . S
H156 C161 0.930 . S
H157 C164 0.930 . S
H158 C166 0.930 . S
H159 C160 1.016 . S
C160 H159 1.016 . S
C160 N167 1.286 . S
C161 H156 0.930 . S
C161 C162 1.397 . S
C161 C163 1.361 . S
C162 C161 1.397 . S
C162 C166 1.390 . S
C163 C161 1.361 . S
C163 C164 1.393 . S
C163 N167 1.413 . S
C164 H157 0.930 . S
C164 C163 1.393 . S
C164 C165 1.399 . S
C165 C164 1.399 . S
C165 C166 1.381 . S
C166 H158 0.930 . S
C166 C162 1.390 . S
C166 C165 1.381 . S
N167 C160 1.286 . S
N167 C163 1.413 . S
H168 C173 0.930 . S
H169 C176 0.930 . S
H170 C178 0.930 . S
H171 C172 1.016 . S
C172 H171 1.016 . S
C172 N179 1.286 . S
C173 H168 0.930 . S
C173 C174 1.397 . S
C173 C175 1.361 . S
C174 C173 1.397 . S
C174 C178 1.390 . S
C175 C173 1.361 . S
C175 C176 1.393 . S
C175 N179 1.413 . S
C176 H169 0.930 . S
C176 C175 1.393 . S
C176 C177 1.399 . S
C177 C176 1.399 . S
C177 C178 1.381 . S
C178 H170 0.930 . S
C178 C174 1.390 . S
C178 C177 1.381 . S
N179 C172 1.286 . S
N179 C175 1.413 . S
H180 C185 0.930 . S
H181 C188 0.930 . S
H182 C190 0.930 . S
H183 C184 1.016 . S
C184 H183 1.016 . S
C184 N191 1.286 . S
C185 H180 0.930 . S
C185 C186 1.397 . S
C185 C187 1.361 . S
C186 C185 1.397 . S
C186 C190 1.390 . S
C187 C185 1.361 . S
C187 C188 1.393 . S
C187 N191 1.413 . S
C188 H181 0.930 . S
C188 C187 1.393 . S
C188 C189 1.399 . S
C189 C188 1.399 . S
C189 C190 1.381 . S
C190 H182 0.930 . S
C190 C186 1.390 . S
C190 C189 1.381 . S
N191 C184 1.286 . S
N191 C187 1.413 . S
H192 C197 0.930 . S
H193 C200 0.930 . S
H194 C202 0.930 . S
H195 C196 1.016 . S
C196 H195 1.016 . S
C196 N203 1.286 . S
C197 H192 0.930 . S
C197 C198 1.397 . S
C197 C199 1.361 . S
C198 C197 1.397 . S
C198 C202 1.390 . S
C199 C197 1.361 . S
C199 C200 1.393 . S
C199 N203 1.413 . S
C200 H193 0.930 . S
C200 C199 1.393 . S
C200 C201 1.399 . S
C201 C200 1.399 . S
C201 C202 1.381 . S
C202 H194 0.930 . S
C202 C198 1.390 . S
C202 C201 1.381 . S
N203 C196 1.286 . S
N203 C199 1.413 . S
H204 C209 0.930 . S
H205 C212 0.930 . S
H206 C214 0.930 . S
H207 C208 1.016 . S
C208 H207 1.016 . S
C208 N215 1.286 . S
C209 H204 0.930 . S
C209 C210 1.397 . S
C209 C211 1.361 . S
C210 C209 1.397 . S
C210 C214 1.390 . S
C211 C209 1.361 . S
C211 C212 1.393 . S
C211 N215 1.413 . S
C212 H205 0.930 . S
C212 C211 1.393 . S
C212 C213 1.399 . S
C213 C212 1.399 . S
C213 C214 1.381 . S
C214 H206 0.930 . S
C214 C210 1.390 . S
C214 C213 1.381 . S
N215 C208 1.286 . S
N215 C211 1.413 . S
Gd216 N247 2.661 . S
Gd216 N253 2.601 . S
Gd216 O260 2.545 . S
Gd216 O261 2.606 1_545 S
Gd216 O263 2.429 . S
Gd216 O264 2.545 1_545 S
Gd216 O265 2.412 1_545 S
Gd216 O267 2.362 . S
Gd216 O268 2.324 1_545 S
Gd216 C275 2.828 . S
Gd217 N226 2.661 . S
Gd217 N230 2.601 . S
Gd217 O261 2.362 1_556 S
Gd217 O262 2.324 1_565 S
Gd217 O266 2.545 . S
Gd217 O267 2.606 1_566 S
Gd217 O269 2.433 . S
Gd217 O270 2.545 1_565 S
Gd217 O271 2.412 1_565 S
Gd217 C284 2.828 1_565 S
C218 C221 1.417 . S
C218 C223 1.431 . S
C218 C224 1.412 . S
C219 C222 1.437 . S
C219 C223 1.317 . S
C219 H238 0.929 . S
C220 C221 1.426 . S
C220 C222 1.413 . S
C220 N230 1.359 . S
C221 C218 1.417 . S
C221 C220 1.426 . S
C221 N226 1.350 . S
C222 C219 1.437 . S
C222 C220 1.413 . S
C222 C232 1.391 . S
C223 C218 1.431 . S
C223 C219 1.317 . S
C223 H234 0.930 . S
C224 C218 1.412 . S
C224 C225 1.355 . S
C224 H236 0.930 . S
C225 C224 1.355 . S
C225 C227 1.402 . S
C225 H237 0.930 . S
N226 Gd217 2.661 . S
N226 C221 1.350 . S
N226 C227 1.307 . S
C227 C225 1.402 . S
C227 N226 1.307 . S
C227 H228 0.930 . S
H228 C227 0.930 . S
C229 N230 1.334 . S
C229 C231 1.394 . S
C229 H233 0.930 . S
N230 Gd217 2.601 . S
N230 C220 1.359 . S
N230 C229 1.334 . S
C231 C229 1.394 . S
C231 C232 1.359 . S
C231 H243 0.930 . S
C232 C222 1.391 . S
C232 C231 1.359 . S
C232 H244 0.929 . S
H233 C229 0.930 . S
H234 C223 0.930 . S
H235 C252 0.930 . S
H236 C224 0.930 . S
H237 C225 0.930 . S
H238 C219 0.929 . S
H239 C257 0.930 . S
H240 C248 0.930 . S
H241 C249 0.930 . S
H242 C273 0.929 . S
H243 C231 0.930 . S
H244 C232 0.929 . S
H245 C274 0.930 . S
H246 C255 0.930 . S
N247 Gd216 2.661 . S
N247 C251 1.350 . S
N247 C252 1.307 . S
C248 H240 0.930 . S
C248 C249 1.355 . S
C248 C250 1.412 . S
C249 H241 0.930 . S
C249 C248 1.355 . S
C249 C252 1.402 . S
C250 C248 1.412 . S
C250 C251 1.417 . S
C250 C274 1.431 . S
C251 N247 1.350 . S
C251 C250 1.417 . S
C251 C254 1.426 . S
C252 H235 0.930 . S
C252 N247 1.307 . S
C252 C249 1.402 . S
N253 Gd216 2.601 . S
N253 C254 1.359 . S
N253 C257 1.334 . S
C254 C251 1.426 . S
C254 N253 1.359 . S
C254 C258 1.413 . S
C255 H246 0.930 . S
C255 C256 1.359 . S
C255 C257 1.394 . S
C256 C255 1.359 . S
C256 C258 1.391 . S
C256 H259 0.929 . S
C257 H239 0.930 . S
C257 N253 1.334 . S
C257 C255 1.394 . S
C258 C254 1.413 . S
C258 C256 1.391 . S
C258 C273 1.437 . S
H259 C256 0.929 . S
O260 Gd216 2.545 . S
O260 C275 1.258 . S
O261 Gd216 2.606 1_565 S
O261 Gd217 2.362 1_554 S
O261 C272 1.284 . S
O262 Gd217 2.324 1_545 S
O262 C282 1.254 1_556 S
O263 Gd216 2.429 . S
O263 C282 1.268 . S
O264 Gd216 2.545 1_565 S
O264 C272 1.250 . S
O265 Gd216 2.412 1_565 S
O265 C275 1.252 1_565 S
O266 Gd217 2.545 . S
O266 C284 1.251 1_565 S
O267 Gd216 2.362 . S
O267 Gd217 2.606 1_544 S
O267 C283 1.284 1_554 S
O268 Gd216 2.324 1_565 S
O268 C291 1.254 . S
O269 Gd217 2.433 . S
O269 C291 1.261 1_556 S
O270 Gd217 2.545 1_545 S
O270 C283 1.250 . S
O271 Gd217 2.412 1_545 S
O271 C284 1.257 . S
C272 O261 1.284 . S
C272 O264 1.250 . S
C273 H242 0.929 . S
C273 C258 1.437 . S
C273 C274 1.317 . S
C274 H245 0.930 . S
C274 C250 1.431 . S
C274 C273 1.317 . S
C275 Gd216 2.828 . S
C275 O260 1.258 . S
C275 O265 1.252 1_545 S
C275 C276 1.497 . S
C276 C275 1.497 . S
C276 C277 1.395 . S
C276 C278 1.380 1_545 S
C277 C276 1.395 . S
C277 C280 1.398 . S
C277 H292 0.930 . S
C278 C276 1.380 1_565 S
C278 C279 1.391 . S
C278 H293 0.930 . S
C279 C278 1.391 . S
C279 C281 1.387 . S
C280 C277 1.398 . S
C280 C281 1.380 1_545 S
C280 H294 0.930 . S
C281 C279 1.387 . S
C281 C280 1.380 1_565 S
C281 H295 0.930 . S
C282 O262 1.254 1_554 S
C282 O263 1.268 . S
C283 O267 1.284 1_556 S
C283 O270 1.250 . S
C284 Gd217 2.828 1_545 S
C284 O266 1.251 1_545 S
C284 O271 1.257 . S
C284 C285 1.498 . S
C285 C284 1.498 . S
C285 C286 1.395 1_545 S
C285 C287 1.380 . S
C286 C285 1.395 1_565 S
C286 C289 1.398 . S
C286 H296 0.930 . S
C287 C285 1.380 . S
C287 C288 1.391 . S
C287 H297 0.930 . S
C288 C287 1.391 . S
C288 C290 1.387 . S
C289 C286 1.398 . S
C289 C290 1.380 1_565 S
C289 H298 0.930 . S
C290 C288 1.387 . S
C290 C289 1.380 1_545 S
C290 H299 0.930 . S
C291 O268 1.254 . S
C291 O269 1.261 1_554 S
H292 C277 0.930 . S
H293 C278 0.930 . S
H294 C280 0.930 . S
H295 C281 0.930 . S
H296 C286 0.930 . S
H297 C287 0.930 . S
H298 C289 0.930 . S
H299 C290 0.930 . S
Gd300 N331 2.661 . S
Gd300 N337 2.601 . S
Gd300 O344 2.545 . S
Gd300 O345 2.606 1_655 S
Gd300 O347 2.429 . S
Gd300 O348 2.545 1_655 S
Gd300 O349 2.412 1_655 S
Gd300 O351 2.362 . S
Gd300 O352 2.324 1_655 S
Gd300 C359 2.828 . S
Gd301 N310 2.661 . S
Gd301 N314 2.601 . S
Gd301 O345 2.362 1_556 S
Gd301 O346 2.324 1_455 S
Gd301 O350 2.545 . S
Gd301 O351 2.606 1_456 S
Gd301 O353 2.408 1_556 S
Gd301 O354 2.545 1_455 S
Gd301 O355 2.416 . S
Gd301 C368 2.828 . S
C302 C305 1.417 . S
C302 C307 1.431 . S
C302 C308 1.412 . S
C303 C306 1.437 . S
C303 C307 1.317 . S
C303 H322 0.929 . S
C304 C305 1.426 . S
C304 C306 1.413 . S
C304 N314 1.359 . S
C305 C302 1.417 . S
C305 C304 1.426 . S
C305 N310 1.350 . S
C306 C303 1.437 . S
C306 C304 1.413 . S
C306 C316 1.391 . S
C307 C302 1.431 . S
C307 C303 1.317 . S
C307 H318 0.930 . S
C308 C302 1.412 . S
C308 C309 1.355 . S
C308 H320 0.930 . S
C309 C308 1.355 . S
C309 C311 1.402 . S
C309 H321 0.930 . S
N310 Gd301 2.661 . S
N310 C305 1.350 . S
N310 C311 1.307 . S
C311 C309 1.402 . S
C311 N310 1.307 . S
C311 H312 0.930 . S
H312 C311 0.930 . S
C313 N314 1.334 . S
C313 C315 1.394 . S
C313 H317 0.930 . S
N314 Gd301 2.601 . S
N314 C304 1.359 . S
N314 C313 1.334 . S
C315 C313 1.394 . S
C315 C316 1.359 . S
C315 H327 0.930 . S
C316 C306 1.391 . S
C316 C315 1.359 . S
C316 H328 0.929 . S
H317 C313 0.930 . S
H318 C307 0.930 . S
H319 C336 0.930 . S
H320 C308 0.930 . S
H321 C309 0.930 . S
H322 C303 0.929 . S
H323 C341 0.930 . S
H324 C332 0.930 . S
H325 C333 0.930 . S
H326 C357 0.929 . S
H327 C315 0.930 . S
H328 C316 0.929 . S
H329 C358 0.930 . S
H330 C339 0.930 . S
N331 Gd300 2.661 . S
N331 C335 1.350 . S
N331 C336 1.307 . S
C332 H324 0.930 . S
C332 C333 1.355 . S
C332 C334 1.412 . S
C333 H325 0.930 . S
C333 C332 1.355 . S
C333 C336 1.402 . S
C334 C332 1.412 . S
C334 C335 1.417 . S
C334 C358 1.431 . S
C335 N331 1.350 . S
C335 C334 1.417 . S
C335 C338 1.426 . S
C336 H319 0.930 . S
C336 N331 1.307 . S
C336 C333 1.402 . S
N337 Gd300 2.601 . S
N337 C338 1.359 . S
N337 C341 1.334 . S
C338 C335 1.426 . S
C338 N337 1.359 . S
C338 C342 1.413 . S
C339 H330 0.930 . S
C339 C340 1.359 . S
C339 C341 1.394 . S
C340 C339 1.359 . S
C340 C342 1.391 . S
C340 H343 0.929 . S
C341 H323 0.930 . S
C341 N337 1.334 . S
C341 C339 1.394 . S
C342 C338 1.413 . S
C342 C340 1.391 . S
C342 C357 1.437 . S
H343 C340 0.929 . S
O344 Gd300 2.545 . S
O344 C359 1.258 . S
O345 Gd300 2.606 1_455 S
O345 Gd301 2.362 1_554 S
O345 C356 1.284 . S
O346 Gd301 2.324 1_655 S
O346 C366 1.254 1_556 S
O347 Gd300 2.429 . S
O347 C366 1.268 . S
O348 Gd300 2.545 1_455 S
O348 C356 1.250 . S
O349 Gd300 2.412 1_455 S
O349 C359 1.252 1_455 S
O350 Gd301 2.545 . S
O350 C368 1.258 . S
O351 Gd300 2.362 . S
O351 Gd301 2.606 1_654 S
O351 C367 1.284 1_554 S
O352 Gd300 2.324 1_455 S
O352 C375 1.254 . S
O353 Gd301 2.408 1_554 S
O353 C375 1.310 . S
O354 Gd301 2.545 1_655 S
O354 C367 1.250 . S
O355 Gd301 2.416 . S
O355 C368 1.251 . S
C356 O345 1.284 . S
C356 O348 1.250 . S
C357 H326 0.929 . S
C357 C342 1.437 . S
C357 C358 1.317 . S
C358 H329 0.930 . S
C358 C334 1.431 . S
C358 C357 1.317 . S
C359 Gd300 2.828 . S
C359 O344 1.258 . S
C359 O349 1.252 1_655 S
C359 C360 1.497 1_655 S
C360 C359 1.497 1_455 S
C360 C361 1.395 1_455 S
C360 C362 1.380 . S
C361 C360 1.395 1_655 S
C361 C364 1.398 . S
C361 H376 0.930 . S
C362 C360 1.380 . S
C362 C363 1.391 . S
C362 H377 0.930 . S
C363 C362 1.391 . S
C363 C365 1.387 . S
C364 C361 1.398 . S
C364 C365 1.380 1_655 S
C364 H378 0.930 . S
C365 C363 1.387 . S
C365 C364 1.380 1_455 S
C365 H379 0.930 . S
C366 O346 1.254 1_554 S
C366 O347 1.268 . S
C367 O351 1.284 1_556 S
C367 O354 1.250 . S
C368 Gd301 2.828 . S
C368 O350 1.258 . S
C368 O355 1.251 . S
C368 C369 1.497 . S
C369 C368 1.497 . S
C369 C370 1.395 . S
C369 C371 1.380 1_455 S
C370 C369 1.395 . S
C370 C373 1.398 . S
C370 H380 0.930 . S
C371 C369 1.380 1_655 S
C371 C372 1.391 . S
C371 H381 0.930 . S
C372 C371 1.391 . S
C372 C374 1.387 . S
C373 C370 1.398 . S
C373 C374 1.380 1_455 S
C373 H382 0.930 . S
C374 C372 1.387 . S
C374 C373 1.380 1_655 S
C374 H383 0.930 . S
C375 O352 1.254 . S
C375 O353 1.310 . S
H376 C361 0.930 . S
H377 C362 0.930 . S
H378 C364 0.930 . S
H379 C365 0.930 . S
H380 C370 0.930 . S
H381 C371 0.930 . S
H382 C373 0.930 . S
H383 C374 0.930 . S
Gd384 N415 2.661 . S
Gd384 N421 2.601 . S
Gd384 O428 2.545 . S
Gd384 O429 2.606 1_556 S
Gd384 O431 2.429 1_556 S
Gd384 O432 2.545 . S
Gd384 O433 2.412 . S
Gd384 O435 2.362 1_556 S
Gd384 O436 2.324 . S
Gd384 C443 2.828 . S
Gd385 N394 2.661 . S
Gd385 N398 2.601 . S
Gd385 O429 2.362 . S
Gd385 O430 2.324 . S
Gd385 O434 2.545 . S
Gd385 O435 2.606 . S
Gd385 O437 2.429 . S
Gd385 O438 2.545 . S
Gd385 O439 2.412 . S
Gd385 C452 2.828 . S
C386 C389 1.417 . S
C386 C391 1.431 . S
C386 C392 1.412 . S
C387 C390 1.437 . S
C387 C391 1.317 . S
C387 H406 0.929 . S
C388 C389 1.426 . S
C388 C390 1.413 . S
C388 N398 1.359 . S
C389 C386 1.417 . S
C389 C388 1.426 . S
C389 N394 1.350 . S
C390 C387 1.437 . S
C390 C388 1.413 . S
C390 C400 1.391 . S
C391 C386 1.431 . S
C391 C387 1.317 . S
C391 H402 0.930 . S
C392 C386 1.412 . S
C392 C393 1.355 . S
C392 H404 0.930 . S
C393 C392 1.355 . S
C393 C395 1.402 . S
C393 H405 0.930 . S
N394 Gd385 2.661 . S
N394 C389 1.350 . S
N394 C395 1.307 . S
C395 C393 1.402 . S
C395 N394 1.307 . S
C395 H396 0.930 . S
H396 C395 0.930 . S
C397 N398 1.334 . S
C397 C399 1.394 . S
C397 H401 0.930 . S
N398 Gd385 2.601 . S
N398 C388 1.359 . S
N398 C397 1.334 . S
C399 C397 1.394 . S
C399 C400 1.359 . S
C399 H411 0.930 . S
C400 C390 1.391 . S
C400 C399 1.359 . S
C400 H412 0.929 . S
H401 C397 0.930 . S
H402 C391 0.930 . S
H403 C420 0.930 . S
H404 C392 0.930 . S
H405 C393 0.930 . S
H406 C387 0.929 . S
H407 C425 0.930 . S
H408 C416 0.930 . S
H409 C417 0.930 . S
H410 C441 0.929 . S
H411 C399 0.930 . S
H412 C400 0.929 . S
H413 C442 0.930 . S
H414 C423 0.930 . S
N415 Gd384 2.661 . S
N415 C419 1.350 . S
N415 C420 1.307 . S
C416 H408 0.930 . S
C416 C417 1.355 . S
C416 C418 1.412 . S
C417 H409 0.930 . S
C417 C416 1.355 . S
C417 C420 1.402 . S
C418 C416 1.412 . S
C418 C419 1.417 . S
C418 C442 1.431 . S
C419 N415 1.350 . S
C419 C418 1.417 . S
C419 C422 1.426 . S
C420 H403 0.930 . S
C420 N415 1.307 . S
C420 C417 1.402 . S
N421 Gd384 2.601 . S
N421 C422 1.359 . S
N421 C425 1.334 . S
C422 C419 1.426 . S
C422 N421 1.359 . S
C422 C426 1.413 . S
C423 H414 0.930 . S
C423 C424 1.359 . S
C423 C425 1.394 . S
C424 C423 1.359 . S
C424 C426 1.391 . S
C424 H427 0.929 . S
C425 H407 0.930 . S
C425 N421 1.334 . S
C425 C423 1.394 . S
C426 C422 1.413 . S
C426 C424 1.391 . S
C426 C441 1.437 . S
H427 C424 0.929 . S
O428 Gd384 2.545 . S
O428 C443 1.258 . S
O429 Gd384 2.606 1_554 S
O429 Gd385 2.362 . S
O429 C440 1.284 1_554 S
O430 Gd385 2.324 . S
O430 C450 1.254 . S
O431 Gd384 2.429 1_554 S
O431 C450 1.268 . S
O432 Gd384 2.545 . S
O432 C440 1.250 . S
O433 Gd384 2.412 . S
O433 C443 1.252 . S
O434 Gd385 2.545 . S
O434 C452 1.258 . S
O435 Gd384 2.362 1_554 S
O435 Gd385 2.606 . S
O435 C451 1.284 . S
O436 Gd384 2.324 . S
O436 C459 1.254 1_556 S
O437 Gd385 2.429 . S
O437 C459 1.268 . S
O438 Gd385 2.545 . S
O438 C451 1.250 . S
O439 Gd385 2.412 . S
O439 C452 1.252 . S
C440 O429 1.284 1_556 S
C440 O432 1.250 . S
C441 H410 0.929 . S
C441 C426 1.437 . S
C441 C442 1.317 . S
C442 H413 0.930 . S
C442 C418 1.431 . S
C442 C441 1.317 . S
C443 Gd384 2.828 . S
C443 O428 1.258 . S
C443 O433 1.252 . S
C443 C444 1.497 . S
C444 C443 1.497 . S
C444 C445 1.395 . S
C444 C446 1.380 . S
C445 C444 1.395 . S
C445 C448 1.398 . S
C445 H460 0.930 . S
C446 C444 1.380 . S
C446 C447 1.391 . S
C446 H461 0.930 . S
C447 C446 1.391 . S
C447 C449 1.387 . S
C448 C445 1.398 . S
C448 C449 1.380 . S
C448 H462 0.930 . S
C449 C447 1.387 . S
C449 C448 1.380 . S
C449 H463 0.930 . S
C450 O430 1.254 . S
C450 O431 1.268 . S
C451 O435 1.284 . S
C451 O438 1.250 . S
C452 Gd385 2.828 . S
C452 O434 1.258 . S
C452 O439 1.252 . S
C452 C453 1.497 . S
C453 C452 1.497 . S
C453 C454 1.395 . S
C453 C455 1.380 . S
C454 C453 1.395 . S
C454 C457 1.398 . S
C454 H464 0.930 . S
C455 C453 1.380 . S
C455 C456 1.391 . S
C455 H465 0.930 . S
C456 C455 1.391 . S
C456 C458 1.387 . S
C457 C454 1.398 . S
C457 C458 1.380 . S
C457 H466 0.930 . S
C458 C456 1.387 . S
C458 C457 1.380 . S
C458 H467 0.930 . S
C459 O436 1.254 1_554 S
C459 O437 1.268 . S
H460 C445 0.930 . S
H461 C446 0.930 . S
H462 C448 0.930 . S
H463 C449 0.930 . S
H464 C454 0.930 . S
H465 C455 0.930 . S
H466 C457 0.930 . S
H467 C458 0.930 . S
Gd468 N499 2.661 . S
Gd468 N505 2.601 . S
Gd468 O512 2.545 . S
Gd468 O513 2.606 . S
Gd468 O515 2.429 . S
Gd468 O516 2.545 . S
Gd468 O517 2.412 . S
Gd468 O519 2.362 . S
Gd468 O520 2.324 . S
Gd468 C527 2.828 . S
Gd469 N478 2.661 . S
Gd469 N482 2.601 . S
Gd469 O513 2.362 . S
Gd469 O514 2.324 . S
Gd469 O518 2.545 . S
Gd469 O519 2.606 . S
Gd469 O521 2.429 . S
Gd469 O522 2.545 . S
Gd469 O523 2.412 . S
Gd469 C536 2.828 . S
C470 C473 1.417 . S
C470 C475 1.431 . S
C470 C476 1.412 . S
C471 C474 1.437 . S
C471 C475 1.317 . S
C471 H490 0.929 . S
C472 C473 1.426 . S
C472 C474 1.413 . S
C472 N482 1.359 . S
C473 C470 1.417 . S
C473 C472 1.426 . S
C473 N478 1.350 . S
C474 C471 1.437 . S
C474 C472 1.413 . S
C474 C484 1.391 . S
C475 C470 1.431 . S
C475 C471 1.317 . S
C475 H486 0.937 . S
C476 C470 1.412 . S
C476 C477 1.355 . S
C476 H488 0.930 1_455 S
C477 C476 1.355 . S
C477 C479 1.402 . S
C477 H489 0.930 . S
N478 Gd469 2.661 . S
N478 C473 1.350 . S
N478 C479 1.307 . S
C479 C477 1.402 . S
C479 N478 1.307 . S
C479 H480 0.930 . S
H480 C479 0.930 . S
C481 N482 1.334 . S
C481 C483 1.394 . S
C481 H485 0.930 . S
N482 Gd469 2.601 . S
N482 C472 1.359 . S
N482 C481 1.334 . S
C483 C481 1.394 . S
C483 C484 1.359 . S
C483 H495 0.930 . S
C484 C474 1.391 . S
C484 C483 1.359 . S
C484 H496 0.929 . S
H485 C481 0.930 . S
H486 C475 0.937 . S
H487 C504 0.930 . S
H488 C476 0.930 1_655 S
H489 C477 0.930 . S
H490 C471 0.929 . S
H491 C509 0.930 . S
H492 C500 0.930 . S
H493 C501 0.930 . S
H494 C525 0.929 . S
H495 C483 0.930 . S
H496 C484 0.929 . S
H497 C526 0.930 . S
H498 C507 0.930 . S
N499 Gd468 2.661 . S
N499 C503 1.350 . S
N499 C504 1.307 . S
C500 H492 0.930 . S
C500 C501 1.355 . S
C500 C502 1.412 . S
C501 H493 0.930 . S
C501 C500 1.355 . S
C501 C504 1.402 . S
C502 C500 1.412 . S
C502 C503 1.417 . S
C502 C526 1.431 . S
C503 N499 1.350 . S
C503 C502 1.417 . S
C503 C506 1.426 . S
C504 H487 0.930 . S
C504 N499 1.307 . S
C504 C501 1.402 . S
N505 Gd468 2.601 . S
N505 C506 1.359 . S
N505 C509 1.334 . S
C506 C503 1.426 . S
C506 N505 1.359 . S
C506 C510 1.413 . S
C507 H498 0.930 . S
C507 C508 1.359 . S
C507 C509 1.394 . S
C508 C507 1.359 . S
C508 C510 1.391 . S
C508 H511 0.929 . S
C509 H491 0.930 . S
C509 N505 1.334 . S
C509 C507 1.394 . S
C510 C506 1.413 . S
C510 C508 1.391 . S
C510 C525 1.437 . S
H511 C508 0.929 . S
O512 Gd468 2.545 . S
O512 C527 1.258 . S
O513 Gd468 2.606 . S
O513 Gd469 2.362 . S
O513 C524 1.284 . S
O514 Gd469 2.324 . S
O514 C534 1.254 . S
O515 Gd468 2.429 . S
O515 C534 1.268 . S
O516 Gd468 2.545 . S
O516 C524 1.250 . S
O517 Gd468 2.412 . S
O517 C527 1.252 . S
O518 Gd469 2.545 . S
O518 C536 1.258 . S
O519 Gd468 2.362 . S
O519 Gd469 2.606 . S
O519 C535 1.284 . S
O520 Gd468 2.324 . S
O520 C543 1.254 . S
O521 Gd469 2.429 . S
O521 C543 1.268 . S
O522 Gd469 2.545 . S
O522 C535 1.250 . S
O523 Gd469 2.412 . S
O523 C536 1.252 . S
C524 O513 1.284 . S
C524 O516 1.250 . S
C525 H494 0.929 . S
C525 C510 1.437 . S
C525 C526 1.317 . S
C526 H497 0.930 . S
C526 C502 1.431 . S
C526 C525 1.317 . S
C527 Gd468 2.828 . S
C527 O512 1.258 . S
C527 O517 1.252 . S
C527 C528 1.497 . S
C528 C527 1.497 . S
C528 C529 1.395 . S
C528 C530 1.380 . S
C529 C528 1.395 . S
C529 C532 1.398 . S
C529 H544 0.930 . S
C530 C528 1.380 . S
C530 C531 1.391 . S
C530 H545 0.930 . S
C531 C530 1.391 . S
C531 C533 1.387 . S
C532 C529 1.398 . S
C532 C533 1.380 . S
C532 H546 0.930 . S
C533 C531 1.387 . S
C533 C532 1.380 . S
C533 H547 0.930 . S
C534 O514 1.254 . S
C534 O515 1.268 . S
C535 O519 1.284 . S
C535 O522 1.250 . S
C536 Gd469 2.828 . S
C536 O518 1.258 . S
C536 O523 1.252 . S
C536 C537 1.497 . S
C537 C536 1.497 . S
C537 C538 1.395 . S
C537 C539 1.380 . S
C538 C537 1.395 . S
C538 C541 1.398 . S
C538 H548 0.930 . S
C539 C537 1.380 . S
C539 C540 1.391 . S
C539 H549 0.930 . S
C540 C539 1.391 . S
C540 C542 1.387 . S
C541 C538 1.398 . S
C541 C542 1.380 . S
C541 H550 0.930 . S
C542 C540 1.387 . S
C542 C541 1.380 . S
C542 H551 0.930 . S
C543 O520 1.254 . S
C543 O521 1.268 . S
H544 C529 0.930 . S
H545 C530 0.930 . S
H546 C532 0.930 . S
H547 C533 0.930 . S
H548 C538 0.930 . S
H549 C539 0.930 . S
H550 C541 0.930 . S
H551 C542 0.930 . S
Gd552 N583 2.661 . S
Gd552 N589 2.601 . S
Gd552 O596 2.545 . S
Gd552 O597 2.606 . S
Gd552 O599 2.429 . S
Gd552 O600 2.545 . S
Gd552 O601 2.412 . S
Gd552 O603 2.362 . S
Gd552 O604 2.324 . S
Gd552 C611 2.828 . S
Gd553 N562 2.661 . S
Gd553 N566 2.601 . S
Gd553 O597 2.362 . S
Gd553 O598 2.324 . S
Gd553 O602 2.545 . S
Gd553 O603 2.606 . S
Gd553 O605 2.429 . S
Gd553 O606 2.545 . S
Gd553 O607 2.412 . S
Gd553 C620 2.828 . S
C554 C557 1.417 . S
C554 C559 1.431 . S
C554 C560 1.412 . S
C555 C558 1.437 . S
C555 C559 1.317 . S
C555 H574 0.929 . S
C556 C557 1.426 . S
C556 C558 1.413 . S
C556 N566 1.359 . S
C557 C554 1.417 . S
C557 C556 1.426 . S
C557 N562 1.350 . S
C558 C555 1.437 . S
C558 C556 1.413 . S
C558 C568 1.391 . S
C559 C554 1.431 . S
C559 C555 1.317 . S
C559 H570 0.930 . S
C560 C554 1.412 . S
C560 C561 1.355 . S
C560 H572 0.930 . S
C561 C560 1.355 . S
C561 C563 1.402 . S
C561 H573 0.930 . S
N562 Gd553 2.661 . S
N562 C557 1.350 . S
N562 C563 1.307 . S
C563 C561 1.402 . S
C563 N562 1.307 . S
C563 H564 0.930 . S
H564 C563 0.930 . S
C565 N566 1.334 . S
C565 C567 1.394 . S
C565 H569 0.930 . S
N566 Gd553 2.601 . S
N566 C556 1.359 . S
N566 C565 1.334 . S
C567 C565 1.394 . S
C567 C568 1.359 . S
C567 H579 0.930 . S
C568 C558 1.391 . S
C568 C567 1.359 . S
C568 H580 0.929 . S
H569 C565 0.930 . S
H570 C559 0.930 . S
H571 C588 0.930 . S
H572 C560 0.930 . S
H573 C561 0.930 . S
H574 C555 0.929 . S
H575 C593 0.930 . S
H576 C584 0.930 . S
H577 C585 0.930 . S
H578 C609 0.929 . S
H579 C567 0.930 . S
H580 C568 0.929 . S
H581 C610 0.930 . S
H582 C591 0.930 . S
N583 Gd552 2.661 . S
N583 C587 1.350 . S
N583 C588 1.307 . S
C584 H576 0.930 . S
C584 C585 1.355 . S
C584 C586 1.412 . S
C585 H577 0.930 . S
C585 C584 1.355 . S
C585 C588 1.402 . S
C586 C584 1.412 . S
C586 C587 1.417 . S
C586 C610 1.431 . S
C587 N583 1.350 . S
C587 C586 1.417 . S
C587 C590 1.426 . S
C588 H571 0.930 . S
C588 N583 1.307 . S
C588 C585 1.402 . S
N589 Gd552 2.601 . S
N589 C590 1.359 . S
N589 C593 1.334 . S
C590 C587 1.426 . S
C590 N589 1.359 . S
C590 C594 1.413 . S
C591 H582 0.930 . S
C591 C592 1.359 . S
C591 C593 1.394 . S
C592 C591 1.359 . S
C592 C594 1.391 . S
C592 H595 0.929 . S
C593 H575 0.930 . S
C593 N589 1.334 . S
C593 C591 1.394 . S
C594 C590 1.413 . S
C594 C592 1.391 . S
C594 C609 1.437 . S
H595 C592 0.929 . S
O596 Gd552 2.545 . S
O596 C611 1.258 . S
O597 Gd552 2.606 . S
O597 Gd553 2.362 . S
O597 C608 1.284 . S
O598 Gd553 2.324 . S
O598 C618 1.254 . S
O599 Gd552 2.429 . S
O599 C618 1.268 . S
O600 Gd552 2.545 . S
O600 C608 1.250 . S
O601 Gd552 2.412 . S
O601 C611 1.252 . S
O602 Gd553 2.545 . S
O602 C620 1.258 . S
O603 Gd552 2.362 . S
O603 Gd553 2.606 . S
O603 C619 1.284 . S
O604 Gd552 2.324 . S
O604 C627 1.254 . S
O605 Gd553 2.429 . S
O605 C627 1.268 . S
O606 Gd553 2.545 . S
O606 C619 1.250 . S
O607 Gd553 2.412 . S
O607 C620 1.252 . S
C608 O597 1.284 . S
C608 O600 1.250 . S
C609 H578 0.929 . S
C609 C594 1.437 . S
C609 C610 1.317 . S
C610 H581 0.930 . S
C610 C586 1.431 . S
C610 C609 1.317 . S
C611 Gd552 2.828 . S
C611 O596 1.258 . S
C611 O601 1.252 . S
C611 C612 1.497 . S
C612 C611 1.497 . S
C612 C613 1.395 . S
C612 C614 1.380 . S
C613 C612 1.395 . S
C613 C616 1.398 . S
C613 H628 0.930 . S
C614 C612 1.380 . S
C614 C615 1.391 . S
C614 H629 0.930 . S
C615 C614 1.391 . S
C615 C617 1.387 . S
C616 C613 1.398 . S
C616 C617 1.380 . S
C616 H630 0.930 . S
C617 C615 1.387 . S
C617 C616 1.380 . S
C617 H631 0.930 . S
C618 O598 1.254 . S
C618 O599 1.268 . S
C619 O603 1.284 . S
C619 O606 1.250 . S
C620 Gd553 2.828 . S
C620 O602 1.258 . S
C620 O607 1.252 . S
C620 C621 1.497 . S
C621 C620 1.497 . S
C621 C622 1.395 . S
C621 C623 1.380 . S
C622 C621 1.395 . S
C622 C625 1.398 . S
C622 H632 0.930 . S
C623 C621 1.380 . S
C623 C624 1.391 . S
C623 H633 0.930 . S
C624 C623 1.391 . S
C624 C626 1.387 . S
C625 C622 1.398 . S
C625 C626 1.380 . S
C625 H634 0.930 . S
C626 C624 1.387 . S
C626 C625 1.380 . S
C626 H635 0.930 . S
C627 O604 1.254 . S
C627 O605 1.268 . S
H628 C613 0.930 . S
H629 C614 0.930 . S
H630 C616 0.930 . S
H631 C617 0.930 . S
H632 C622 0.930 . S
H633 C623 0.930 . S
H634 C625 0.930 . S
H635 C626 0.930 . S
Gd636 N667 2.661 . S
Gd636 N673 2.601 . S
Gd636 O680 2.545 . S
Gd636 O681 2.606 . S
Gd636 O683 2.429 . S
Gd636 O684 2.545 . S
Gd636 O685 2.412 . S
Gd636 O687 2.362 . S
Gd636 O688 2.324 . S
Gd636 C695 2.828 . S
Gd637 N646 2.661 . S
Gd637 N650 2.601 . S
Gd637 O681 2.362 . S
Gd637 O682 2.324 . S
Gd637 O686 2.545 . S
Gd637 O687 2.606 . S
Gd637 O689 2.429 . S
Gd637 O690 2.545 . S
Gd637 O691 2.412 . S
Gd637 C704 2.828 . S
C638 C641 1.417 . S
C638 C643 1.431 . S
C638 C644 1.412 . S
C639 C642 1.437 . S
C639 C643 1.317 . S
C639 H658 0.929 . S
C640 C641 1.426 . S
C640 C642 1.413 . S
C640 N650 1.359 . S
C641 C638 1.417 . S
C641 C640 1.426 . S
C641 N646 1.350 . S
C642 C639 1.437 . S
C642 C640 1.413 . S
C642 C652 1.391 . S
C643 C638 1.431 . S
C643 C639 1.317 . S
C643 H654 0.930 . S
C644 C638 1.412 . S
C644 C645 1.355 . S
C644 H656 0.930 . S
C645 C644 1.355 . S
C645 C647 1.402 . S
C645 H657 0.930 . S
N646 Gd637 2.661 . S
N646 C641 1.350 . S
N646 C647 1.307 . S
C647 C645 1.402 . S
C647 N646 1.307 . S
C647 H648 0.930 . S
H648 C647 0.930 . S
C649 N650 1.334 . S
C649 C651 1.394 . S
C649 H653 0.930 . S
N650 Gd637 2.601 . S
N650 C640 1.359 . S
N650 C649 1.334 . S
C651 C649 1.394 . S
C651 C652 1.359 . S
C651 H663 0.930 . S
C652 C642 1.391 . S
C652 C651 1.359 . S
C652 H664 0.929 . S
H653 C649 0.930 . S
H654 C643 0.930 . S
H655 C672 0.930 . S
H656 C644 0.930 . S
H657 C645 0.930 . S
H658 C639 0.929 . S
H659 C677 0.930 . S
H660 C668 0.930 . S
H661 C669 0.930 . S
H662 C693 0.929 . S
H663 C651 0.930 . S
H664 C652 0.929 . S
H665 C694 0.930 . S
H666 C675 0.930 . S
N667 Gd636 2.661 . S
N667 C671 1.350 . S
N667 C672 1.307 . S
C668 H660 0.930 . S
C668 C669 1.355 . S
C668 C670 1.412 . S
C669 H661 0.930 . S
C669 C668 1.355 . S
C669 C672 1.402 . S
C670 C668 1.412 . S
C670 C671 1.417 . S
C670 C694 1.431 . S
C671 N667 1.350 . S
C671 C670 1.417 . S
C671 C674 1.426 . S
C672 H655 0.930 . S
C672 N667 1.307 . S
C672 C669 1.402 . S
N673 Gd636 2.601 . S
N673 C674 1.359 . S
N673 C677 1.334 . S
C674 C671 1.426 . S
C674 N673 1.359 . S
C674 C678 1.413 . S
C675 H666 0.930 . S
C675 C676 1.359 . S
C675 C677 1.394 . S
C676 C675 1.359 . S
C676 C678 1.391 . S
C676 H679 0.929 . S
C677 H659 0.930 . S
C677 N673 1.334 . S
C677 C675 1.394 . S
C678 C674 1.413 . S
C678 C676 1.391 . S
C678 C693 1.437 . S
H679 C676 0.929 . S
O680 Gd636 2.545 . S
O680 C695 1.258 . S
O681 Gd636 2.606 . S
O681 Gd637 2.362 . S
O681 C692 1.284 . S
O682 Gd637 2.324 . S
O682 C702 1.254 . S
O683 Gd636 2.429 . S
O683 C702 1.268 . S
O684 Gd636 2.545 . S
O684 C692 1.250 . S
O685 Gd636 2.412 . S
O685 C695 1.252 . S
O686 Gd637 2.545 . S
O686 C704 1.258 . S
O687 Gd636 2.362 . S
O687 Gd637 2.606 . S
O687 C703 1.284 . S
O688 Gd636 2.324 . S
O688 C711 1.254 . S
O689 Gd637 2.429 . S
O689 C711 1.268 . S
O690 Gd637 2.545 . S
O690 C703 1.250 . S
O691 Gd637 2.412 . S
O691 C704 1.252 . S
C692 O681 1.284 . S
C692 O684 1.250 . S
C693 H662 0.929 . S
C693 C678 1.437 . S
C693 C694 1.317 . S
C694 H665 0.930 . S
C694 C670 1.431 . S
C694 C693 1.317 . S
C695 Gd636 2.828 . S
C695 O680 1.258 . S
C695 O685 1.252 . S
C695 C696 1.497 . S
C696 C695 1.497 . S
C696 C697 1.395 . S
C696 C698 1.380 . S
C697 C696 1.395 . S
C697 C700 1.398 . S
C697 H712 0.930 . S
C698 C696 1.380 . S
C698 C699 1.391 . S
C698 H713 0.930 . S
C699 C698 1.391 . S
C699 C701 1.387 . S
C700 C697 1.398 . S
C700 C701 1.380 . S
C700 H714 0.930 . S
C701 C699 1.387 . S
C701 C700 1.380 . S
C701 H715 0.930 . S
C702 O682 1.254 . S
C702 O683 1.268 . S
C703 O687 1.284 . S
C703 O690 1.250 . S
C704 Gd637 2.828 . S
C704 O686 1.258 . S
C704 O691 1.252 . S
C704 C705 1.497 . S
C705 C704 1.497 . S
C705 C706 1.395 . S
C705 C707 1.380 . S
C706 C705 1.395 . S
C706 C709 1.398 . S
C706 H716 0.930 . S
C707 C705 1.380 . S
C707 C708 1.391 . S
C707 H717 0.930 . S
C708 C707 1.391 . S
C708 C710 1.387 . S
C709 C706 1.398 . S
C709 C710 1.380 . S
C709 H718 0.930 . S
C710 C708 1.387 . S
C710 C709 1.380 . S
C710 H719 0.930 . S
C711 O688 1.254 . S
C711 O689 1.268 . S
H712 C697 0.930 . S
H713 C698 0.930 . S
H714 C700 0.930 . S
H715 C701 0.930 . S
H716 C706 0.930 . S
H717 C707 0.930 . S
H718 C709 0.930 . S
H719 C710 0.930 . S
Gd720 N751 2.661 . S
Gd720 N757 2.601 . S
Gd720 O764 2.545 . S
Gd720 O765 2.606 . S
Gd720 O767 2.429 . S
Gd720 O768 2.545 . S
Gd720 O769 2.412 . S
Gd720 O771 2.362 . S
Gd720 O772 2.324 . S
Gd720 C779 2.828 . S
Gd721 N730 2.661 . S
Gd721 N734 2.601 . S
Gd721 O765 2.362 . S
Gd721 O766 2.324 . S
Gd721 O770 2.545 . S
Gd721 O771 2.606 . S
Gd721 O773 2.429 . S
Gd721 O774 2.545 . S
Gd721 O775 2.412 . S
Gd721 C788 2.828 . S
C722 C725 1.417 . S
C722 C727 1.431 . S
C722 C728 1.412 . S
C723 C726 1.437 . S
C723 C727 1.317 . S
C723 H742 0.929 . S
C724 C725 1.426 . S
C724 C726 1.413 . S
C724 N734 1.359 . S
C725 C722 1.417 . S
C725 C724 1.426 . S
C725 N730 1.350 . S
C726 C723 1.437 . S
C726 C724 1.413 . S
C726 C736 1.391 . S
C727 C722 1.431 . S
C727 C723 1.317 . S
C727 H738 0.930 . S
C728 C722 1.412 . S
C728 C729 1.355 . S
C728 H740 0.930 . S
C729 C728 1.355 . S
C729 C731 1.402 . S
C729 H741 0.930 . S
N730 Gd721 2.661 . S
N730 C725 1.350 . S
N730 C731 1.307 . S
C731 C729 1.402 . S
C731 N730 1.307 . S
C731 H732 0.930 . S
H732 C731 0.930 . S
C733 N734 1.334 . S
C733 C735 1.394 . S
C733 H737 0.930 . S
N734 Gd721 2.601 . S
N734 C724 1.359 . S
N734 C733 1.334 . S
C735 C733 1.394 . S
C735 C736 1.359 . S
C735 H747 0.930 . S
C736 C726 1.391 . S
C736 C735 1.359 . S
C736 H748 0.929 . S
H737 C733 0.930 . S
H738 C727 0.930 . S
H739 C756 0.930 . S
H740 C728 0.930 . S
H741 C729 0.930 . S
H742 C723 0.929 . S
H743 C761 0.930 . S
H744 C752 0.930 . S
H745 C753 0.930 . S
H746 C777 0.929 . S
H747 C735 0.930 . S
H748 C736 0.929 . S
H749 C778 0.930 . S
H750 C759 0.930 . S
N751 Gd720 2.661 . S
N751 C755 1.350 . S
N751 C756 1.307 . S
C752 H744 0.930 . S
C752 C753 1.355 . S
C752 C754 1.412 . S
C753 H745 0.930 . S
C753 C752 1.355 . S
C753 C756 1.402 . S
C754 C752 1.412 . S
C754 C755 1.417 . S
C754 C778 1.431 . S
C755 N751 1.350 . S
C755 C754 1.417 . S
C755 C758 1.426 . S
C756 H739 0.930 . S
C756 N751 1.307 . S
C756 C753 1.402 . S
N757 Gd720 2.601 . S
N757 C758 1.359 . S
N757 C761 1.334 . S
C758 C755 1.426 . S
C758 N757 1.359 . S
C758 C762 1.413 . S
C759 H750 0.930 . S
C759 C760 1.359 . S
C759 C761 1.394 . S
C760 C759 1.359 . S
C760 C762 1.391 . S
C760 H763 0.929 . S
C761 H743 0.930 . S
C761 N757 1.334 . S
C761 C759 1.394 . S
C762 C758 1.413 . S
C762 C760 1.391 . S
C762 C777 1.437 . S
H763 C760 0.929 . S
O764 Gd720 2.545 . S
O764 C779 1.258 . S
O765 Gd720 2.606 . S
O765 Gd721 2.362 . S
O765 C776 1.284 . S
O766 Gd721 2.324 . S
O766 C786 1.254 . S
O767 Gd720 2.429 . S
O767 C786 1.268 . S
O768 Gd720 2.545 . S
O768 C776 1.250 . S
O769 Gd720 2.412 . S
O769 C779 1.252 . S
O770 Gd721 2.545 . S
O770 C788 1.258 . S
O771 Gd720 2.362 . S
O771 Gd721 2.606 . S
O771 C787 1.284 . S
O772 Gd720 2.324 . S
O772 C795 1.254 . S
O773 Gd721 2.429 . S
O773 C795 1.268 . S
O774 Gd721 2.545 . S
O774 C787 1.250 . S
O775 Gd721 2.412 . S
O775 C788 1.252 . S
C776 O765 1.284 . S
C776 O768 1.250 . S
C777 H746 0.929 . S
C777 C762 1.437 . S
C777 C778 1.317 . S
C778 H749 0.930 . S
C778 C754 1.431 . S
C778 C777 1.317 . S
C779 Gd720 2.828 . S
C779 O764 1.258 . S
C779 O769 1.252 . S
C779 C780 1.497 . S
C780 C779 1.497 . S
C780 C781 1.395 . S
C780 C782 1.380 . S
C781 C780 1.395 . S
C781 C784 1.398 . S
C781 H796 0.930 . S
C782 C780 1.380 . S
C782 C783 1.391 . S
C782 H797 0.930 . S
C783 C782 1.391 . S
C783 C785 1.387 . S
C784 C781 1.398 . S
C784 C785 1.380 . S
C784 H798 0.930 . S
C785 C783 1.387 . S
C785 C784 1.380 . S
C785 H799 0.930 . S
C786 O766 1.254 . S
C786 O767 1.268 . S
C787 O771 1.284 . S
C787 O774 1.250 . S
C788 Gd721 2.828 . S
C788 O770 1.258 . S
C788 O775 1.252 . S
C788 C789 1.497 . S
C789 C788 1.497 . S
C789 C790 1.395 . S
C789 C791 1.380 . S
C790 C789 1.395 . S
C790 C793 1.398 . S
C790 H800 0.930 . S
C791 C789 1.380 . S
C791 C792 1.391 . S
C791 H801 0.930 . S
C792 C791 1.391 . S
C792 C794 1.387 . S
C793 C790 1.398 . S
C793 C794 1.380 . S
C793 H802 0.930 . S
C794 C792 1.387 . S
C794 C793 1.380 . S
C794 H803 0.930 . S
C795 O772 1.254 . S
C795 O773 1.268 . S
H796 C781 0.930 . S
H797 C782 0.930 . S
H798 C784 0.930 . S
H799 C785 0.930 . S
H800 C790 0.930 . S
H801 C791 0.930 . S
H802 C793 0.930 . S
H803 C794 0.930 . S
Gd804 N835 2.661 . S
Gd804 N841 2.601 . S
Gd804 O848 2.545 . S
Gd804 O849 2.606 . S
Gd804 O851 2.429 . S
Gd804 O852 2.545 . S
Gd804 O853 2.412 . S
Gd804 O855 2.362 . S
Gd804 O856 2.324 . S
Gd804 C863 2.828 . S
Gd805 N814 2.661 . S
Gd805 N818 2.601 . S
Gd805 O849 2.362 . S
Gd805 O850 2.324 . S
Gd805 O854 2.545 . S
Gd805 O855 2.606 . S
Gd805 O857 2.429 . S
Gd805 O858 2.545 . S
Gd805 O859 2.412 . S
Gd805 C872 2.828 . S
C806 C809 1.417 . S
C806 C811 1.431 . S
C806 C812 1.412 . S
C807 C810 1.437 . S
C807 C811 1.317 . S
C807 H826 0.929 . S
C808 C809 1.426 . S
C808 C810 1.413 . S
C808 N818 1.359 . S
C809 C806 1.417 . S
C809 C808 1.426 . S
C809 N814 1.350 . S
C810 C807 1.437 . S
C810 C808 1.413 . S
C810 C820 1.391 . S
C811 C806 1.431 . S
C811 C807 1.317 . S
C811 H822 0.930 . S
C812 C806 1.412 . S
C812 C813 1.355 . S
C812 H824 0.930 . S
C813 C812 1.355 . S
C813 C815 1.402 . S
C813 H825 0.930 . S
N814 Gd805 2.661 . S
N814 C809 1.350 . S
N814 C815 1.307 . S
C815 C813 1.402 . S
C815 N814 1.307 . S
C815 H816 0.930 . S
H816 C815 0.930 . S
C817 N818 1.334 . S
C817 C819 1.394 . S
C817 H821 0.930 . S
N818 Gd805 2.601 . S
N818 C808 1.359 . S
N818 C817 1.334 . S
C819 C817 1.394 . S
C819 C820 1.359 . S
C819 H831 0.930 . S
C820 C810 1.391 . S
C820 C819 1.359 . S
C820 H832 0.929 . S
H821 C817 0.930 . S
H822 C811 0.930 . S
H823 C840 0.930 . S
H824 C812 0.930 . S
H825 C813 0.930 . S
H826 C807 0.929 . S
H827 C845 0.930 . S
H828 C836 0.930 . S
H829 C837 0.930 . S
H830 C861 0.929 . S
H831 C819 0.930 . S
H832 C820 0.929 . S
H833 C862 0.930 . S
H834 C843 0.930 . S
N835 Gd804 2.661 . S
N835 C839 1.350 . S
N835 C840 1.307 . S
C836 H828 0.930 . S
C836 C837 1.355 . S
C836 C838 1.412 . S
C837 H829 0.930 . S
C837 C836 1.355 . S
C837 C840 1.402 . S
C838 C836 1.412 . S
C838 C839 1.417 . S
C838 C862 1.431 . S
C839 N835 1.350 . S
C839 C838 1.417 . S
C839 C842 1.426 . S
C840 H823 0.930 . S
C840 N835 1.307 . S
C840 C837 1.402 . S
N841 Gd804 2.601 . S
N841 C842 1.359 . S
N841 C845 1.334 . S
C842 C839 1.426 . S
C842 N841 1.359 . S
C842 C846 1.413 . S
C843 H834 0.930 . S
C843 C844 1.359 . S
C843 C845 1.394 . S
C844 C843 1.359 . S
C844 C846 1.391 . S
C844 H847 0.929 . S
C845 H827 0.930 . S
C845 N841 1.334 . S
C845 C843 1.394 . S
C846 C842 1.413 . S
C846 C844 1.391 . S
C846 C861 1.437 . S
H847 C844 0.929 . S
O848 Gd804 2.545 . S
O848 C863 1.258 . S
O849 Gd804 2.606 . S
O849 Gd805 2.362 . S
O849 C860 1.284 . S
O850 Gd805 2.324 . S
O850 C870 1.254 . S
O851 Gd804 2.429 . S
O851 C870 1.268 . S
O852 Gd804 2.545 . S
O852 C860 1.250 . S
O853 Gd804 2.412 . S
O853 C863 1.252 . S
O854 Gd805 2.545 . S
O854 C872 1.258 . S
O855 Gd804 2.362 . S
O855 Gd805 2.606 . S
O855 C871 1.284 . S
O856 Gd804 2.324 . S
O856 C879 1.254 . S
O857 Gd805 2.429 . S
O857 C879 1.268 . S
O858 Gd805 2.545 . S
O858 C871 1.250 . S
O859 Gd805 2.412 . S
O859 C872 1.252 . S
C860 O849 1.284 . S
C860 O852 1.250 . S
C861 H830 0.929 . S
C861 C846 1.437 . S
C861 C862 1.317 . S
C862 H833 0.930 . S
C862 C838 1.431 . S
C862 C861 1.317 . S
C863 Gd804 2.828 . S
C863 O848 1.258 . S
C863 O853 1.252 . S
C863 C864 1.497 . S
C864 C863 1.497 . S
C864 C865 1.395 . S
C864 C866 1.380 . S
C865 C864 1.395 . S
C865 C868 1.398 . S
C865 H880 0.930 . S
C866 C864 1.380 . S
C866 C867 1.391 . S
C866 H881 0.930 . S
C867 C866 1.391 . S
C867 C869 1.387 . S
C868 C865 1.398 . S
C868 C869 1.380 . S
C868 H882 0.930 . S
C869 C867 1.387 . S
C869 C868 1.380 . S
C869 H883 0.930 . S
C870 O850 1.254 . S
C870 O851 1.268 . S
C871 O855 1.284 . S
C871 O858 1.250 . S
C872 Gd805 2.828 . S
C872 O854 1.258 . S
C872 O859 1.252 . S
C872 C873 1.497 . S
C873 C872 1.497 . S
C873 C874 1.395 . S
C873 C875 1.380 . S
C874 C873 1.395 . S
C874 C877 1.398 . S
C874 H884 0.930 . S
C875 C873 1.380 . S
C875 C876 1.391 . S
C875 H885 0.930 . S
C876 C875 1.391 . S
C876 C878 1.387 . S
C877 C874 1.398 . S
C877 C878 1.380 . S
C877 H886 0.930 . S
C878 C876 1.387 . S
C878 C877 1.380 . S
C878 H887 0.930 . S
C879 O856 1.254 . S
C879 O857 1.268 . S
H880 C865 0.930 . S
H881 C866 0.930 . S
H882 C868 0.930 . S
H883 C869 0.930 . S
H884 C874 0.930 . S
H885 C875 0.930 . S
H886 C877 0.930 . S
H887 C878 0.930 . S
Gd888 N919 2.661 . S
Gd888 N925 2.601 . S
Gd888 O932 2.545 . S
Gd888 O933 2.606 . S
Gd888 O935 2.429 . S
Gd888 O936 2.545 . S
Gd888 O937 2.412 . S
Gd888 O939 2.362 . S
Gd888 O940 2.324 . S
Gd888 C947 2.828 . S
Gd889 N898 2.661 . S
Gd889 N902 2.601 . S
Gd889 O933 2.362 . S
Gd889 O934 2.324 . S
Gd889 O938 2.545 . S
Gd889 O939 2.606 . S
Gd889 O941 2.429 . S
Gd889 O942 2.545 . S
Gd889 O943 2.412 . S
Gd889 C956 2.828 . S
C890 C893 1.417 . S
C890 C895 1.431 . S
C890 C896 1.412 . S
C891 C894 1.437 . S
C891 C895 1.317 . S
C891 H910 0.929 . S
C892 C893 1.426 . S
C892 C894 1.413 . S
C892 N902 1.359 . S
C893 C890 1.417 . S
C893 C892 1.426 . S
C893 N898 1.350 . S
C894 C891 1.437 . S
C894 C892 1.413 . S
C894 C904 1.391 . S
C895 C890 1.431 . S
C895 C891 1.317 . S
C895 H906 0.930 1_655 S
C896 C890 1.412 . S
C896 C897 1.355 . S
C896 H908 0.930 1_655 S
C897 C896 1.355 . S
C897 C899 1.402 . S
C897 H909 0.930 . S
N898 Gd889 2.661 . S
N898 C893 1.350 . S
N898 C899 1.307 . S
C899 C897 1.402 . S
C899 N898 1.307 . S
C899 H900 0.930 . S
H900 C899 0.930 . S
C901 N902 1.334 . S
C901 C903 1.394 . S
C901 H905 0.930 . S
N902 Gd889 2.601 . S
N902 C892 1.359 . S
N902 C901 1.334 . S
C903 C901 1.394 . S
C903 C904 1.359 . S
C903 H915 0.930 . S
C904 C894 1.391 . S
C904 C903 1.359 . S
C904 H916 0.929 . S
H905 C901 0.930 . S
H906 C895 0.930 1_455 S
H907 C924 0.930 . S
H908 C896 0.930 1_455 S
H909 C897 0.930 . S
H910 C891 0.929 . S
H911 C929 0.930 . S
H912 C920 0.930 . S
H913 C921 0.930 . S
H914 C945 0.929 . S
H915 C903 0.930 . S
H916 C904 0.929 . S
H917 C946 0.930 . S
H918 C927 0.930 . S
N919 Gd888 2.661 . S
N919 C923 1.350 . S
N919 C924 1.307 . S
C920 H912 0.930 . S
C920 C921 1.355 . S
C920 C922 1.412 . S
C921 H913 0.930 . S
C921 C920 1.355 . S
C921 C924 1.402 . S
C922 C920 1.412 . S
C922 C923 1.417 . S
C922 C946 1.431 . S
C923 N919 1.350 . S
C923 C922 1.417 . S
C923 C926 1.426 . S
C924 H907 0.930 . S
C924 N919 1.307 . S
C924 C921 1.402 . S
N925 Gd888 2.601 . S
N925 C926 1.359 . S
N925 C929 1.334 . S
C926 C923 1.426 . S
C926 N925 1.359 . S
C926 C930 1.413 . S
C927 H918 0.930 . S
C927 C928 1.359 . S
C927 C929 1.394 . S
C928 C927 1.359 . S
C928 C930 1.391 . S
C928 H931 0.929 . S
C929 H911 0.930 . S
C929 N925 1.334 . S
C929 C927 1.394 . S
C930 C926 1.413 . S
C930 C928 1.391 . S
C930 C945 1.437 . S
H931 C928 0.929 . S
O932 Gd888 2.545 . S
O932 C947 1.258 . S
O933 Gd888 2.606 . S
O933 Gd889 2.362 . S
O933 C944 1.284 . S
O934 Gd889 2.324 . S
O934 C954 1.254 . S
O935 Gd888 2.429 . S
O935 C954 1.268 . S
O936 Gd888 2.545 . S
O936 C944 1.250 . S
O937 Gd888 2.412 . S
O937 C947 1.252 . S
O938 Gd889 2.545 . S
O938 C956 1.258 . S
O939 Gd888 2.362 . S
O939 Gd889 2.606 . S
O939 C955 1.284 . S
O940 Gd888 2.324 . S
O940 C963 1.254 . S
O941 Gd889 2.429 . S
O941 C963 1.268 . S
O942 Gd889 2.545 . S
O942 C955 1.250 . S
O943 Gd889 2.412 . S
O943 C956 1.252 . S
C944 O933 1.284 . S
C944 O936 1.250 . S
C945 H914 0.929 . S
C945 C930 1.437 . S
C945 C946 1.317 . S
C946 H917 0.930 . S
C946 C922 1.431 . S
C946 C945 1.317 . S
C947 Gd888 2.828 . S
C947 O932 1.258 . S
C947 O937 1.252 . S
C947 C948 1.497 . S
C948 C947 1.497 . S
C948 C949 1.395 . S
C948 C950 1.380 . S
C949 C948 1.395 . S
C949 C952 1.398 . S
C949 H964 0.930 . S
C950 C948 1.380 . S
C950 C951 1.391 . S
C950 H965 0.930 . S
C951 C950 1.391 . S
C951 C953 1.387 . S
C952 C949 1.398 . S
C952 C953 1.380 . S
C952 H966 0.930 . S
C953 C951 1.387 . S
C953 C952 1.380 . S
C953 H967 0.930 . S
C954 O934 1.254 . S
C954 O935 1.268 . S
C955 O939 1.284 . S
C955 O942 1.250 . S
C956 Gd889 2.828 . S
C956 O938 1.258 . S
C956 O943 1.252 . S
C956 C957 1.497 . S
C957 C956 1.497 . S
C957 C958 1.395 . S
C957 C959 1.380 . S
C958 C957 1.395 . S
C958 C961 1.398 . S
C958 H968 0.930 . S
C959 C957 1.380 . S
C959 C960 1.391 . S
C959 H969 0.930 . S
C960 C959 1.391 . S
C960 C962 1.387 . S
C961 C958 1.398 . S
C961 C962 1.380 . S
C961 H970 0.930 . S
C962 C960 1.387 . S
C962 C961 1.380 . S
C962 H971 0.930 . S
C963 O940 1.254 . S
C963 O941 1.268 . S
H964 C949 0.930 . S
H965 C950 0.930 . S
H966 C952 0.930 . S
H967 C953 0.930 . S
H968 C958 0.930 . S
H969 C959 0.930 . S
H970 C961 0.930 . S
H971 C962 0.930 . S
H972 C984 0.930 . S
H973 C986 0.930 . S
H974 C987 0.930 . S
H975 C991 0.959 . S
H976 C991 0.959 . S
H977 C991 0.961 . S
H978 C992 0.960 . S
H979 C992 0.961 . S
H980 C992 0.959 . S
H981 C995 0.929 . S
H982 C996 0.931 . S
H983 C998 0.930 . S
C984 H972 0.930 . S
C984 C985 1.399 . S
C984 C989 1.399 . S
C985 C984 1.399 . S
C985 C986 1.376 . S
C986 H973 0.930 . S
C986 C985 1.376 . S
C986 C987 1.388 . S
C987 H974 0.930 . S
C987 C986 1.388 . S
C987 C988 1.390 . S
C988 C987 1.390 . S
C988 C989 1.394 . S
C988 C994 1.465 . S
C989 C984 1.399 . S
C989 C988 1.394 . S
C989 C990 1.516 . S
C990 C989 1.516 . S
C990 C991 1.502 . S
C990 C992 1.561 . S
C990 C993 1.526 . S
C991 H975 0.959 . S
C991 H976 0.959 . S
C991 H977 0.961 . S
C991 C990 1.502 . S
C992 H978 0.960 . S
C992 H979 0.961 . S
C992 H980 0.959 . S
C992 C990 1.561 . S
C993 C990 1.526 . S
C993 C994 1.396 . S
C993 C998 1.390 . S
C994 C988 1.465 . S
C994 C993 1.396 . S
C994 C995 1.399 . S
C995 H981 0.929 . S
C995 C994 1.399 . S
C995 C996 1.385 . S
C996 H982 0.931 . S
C996 C995 1.385 . S
C996 C997 1.389 . S
C997 C996 1.389 . S
C997 C998 1.387 . S
C998 H983 0.930 . S
C998 C993 1.390 . S
C998 C997 1.387 . S
H999 C1011 0.930 . S
H1000 C1013 0.930 . S
H1001 C1014 0.930 . S
H1002 C1018 0.959 . S
H1003 C1018 0.959 . S
H1004 C1018 0.961 . S
H1005 C1019 0.960 . S
H1006 C1019 0.961 . S
H1007 C1019 0.959 . S
H1008 C1022 0.929 . S
H1009 C1023 0.931 . S
H1010 C1025 0.930 . S
C1011 H999 0.930 . S
C1011 C1012 1.399 . S
C1011 C1016 1.399 . S
C1012 C1011 1.399 . S
C1012 C1013 1.376 . S
C1013 H1000 0.930 . S
C1013 C1012 1.376 . S
C1013 C1014 1.388 . S
C1014 H1001 0.930 . S
C1014 C1013 1.388 . S
C1014 C1015 1.390 . S
C1015 C1014 1.390 . S
C1015 C1016 1.394 . S
C1015 C1021 1.465 . S
C1016 C1011 1.399 . S
C1016 C1015 1.394 . S
C1016 C1017 1.516 . S
C1017 C1016 1.516 . S
C1017 C1018 1.502 . S
C1017 C1019 1.561 . S
C1017 C1020 1.526 . S
C1018 H1002 0.959 . S
C1018 H1003 0.959 . S
C1018 H1004 0.961 . S
C1018 C1017 1.502 . S
C1019 H1005 0.960 . S
C1019 H1006 0.961 . S
C1019 H1007 0.959 . S
C1019 C1017 1.561 . S
C1020 C1017 1.526 . S
C1020 C1021 1.396 . S
C1020 C1025 1.390 . S
C1021 C1015 1.465 . S
C1021 C1020 1.396 . S
C1021 C1022 1.399 . S
C1022 H1008 0.929 . S
C1022 C1021 1.399 . S
C1022 C1023 1.385 . S
C1023 H1009 0.931 . S
C1023 C1022 1.385 . S
C1023 C1024 1.389 . S
C1024 C1023 1.389 . S
C1024 C1025 1.387 . S
C1025 H1010 0.930 . S
C1025 C1020 1.390 . S
C1025 C1024 1.387 . S
H1026 C1038 0.930 . S
H1027 C1040 0.930 . S
H1028 C1041 0.930 . S
H1029 C1045 0.959 . S
H1030 C1045 0.959 . S
H1031 C1045 0.961 . S
H1032 C1046 0.960 . S
H1033 C1046 0.961 1_556 S
H1034 C1046 0.966 . S
H1035 C1049 0.929 . S
H1036 C1050 0.931 . S
H1037 C1052 0.930 . S
C1038 H1026 0.930 . S
C1038 C1039 1.399 . S
C1038 C1043 1.399 . S
C1039 C1038 1.399 . S
C1039 C1040 1.376 . S
C1040 H1027 0.930 . S
C1040 C1039 1.376 . S
C1040 C1041 1.388 . S
C1041 H1028 0.930 . S
C1041 C1040 1.388 . S
C1041 C1042 1.390 . S
C1042 C1041 1.390 . S
C1042 C1043 1.394 . S
C1042 C1048 1.465 . S
C1043 C1038 1.399 . S
C1043 C1042 1.394 . S
C1043 C1044 1.516 . S
C1044 C1043 1.516 . S
C1044 C1045 1.502 . S
C1044 C1046 1.561 . S
C1044 C1047 1.526 . S
C1045 H1029 0.959 . S
C1045 H1030 0.959 . S
C1045 H1031 0.961 . S
C1045 C1044 1.502 . S
C1046 H1032 0.960 . S
C1046 H1033 0.961 1_554 S
C1046 H1034 0.966 . S
C1046 C1044 1.561 . S
C1047 C1044 1.526 . S
C1047 C1048 1.396 . S
C1047 C1052 1.390 . S
C1048 C1042 1.465 . S
C1048 C1047 1.396 . S
C1048 C1049 1.399 . S
C1049 H1035 0.929 . S
C1049 C1048 1.399 . S
C1049 C1050 1.385 . S
C1050 H1036 0.931 . S
C1050 C1049 1.385 . S
C1050 C1051 1.389 . S
C1051 C1050 1.389 . S
C1051 C1052 1.387 . S
C1052 H1037 0.930 . S
C1052 C1047 1.390 . S
C1052 C1051 1.387 . S
H1053 C1065 0.930 . S
H1054 C1067 0.930 . S
H1055 C1068 0.930 . S
H1056 C1072 0.959 . S
H1057 C1072 0.971 . S
H1058 C1072 0.961 . S
H1059 C1073 0.960 . S
H1060 C1073 0.961 . S
H1061 C1073 0.959 . S
H1062 C1076 0.929 . S
H1063 C1077 0.931 . S
H1064 C1079 0.930 1_554 S
C1065 H1053 0.930 . S
C1065 C1066 1.399 . S
C1065 C1070 1.399 . S
C1066 C1065 1.399 . S
C1066 C1067 1.376 . S
C1067 H1054 0.930 . S
C1067 C1066 1.376 . S
C1067 C1068 1.388 . S
C1068 H1055 0.930 . S
C1068 C1067 1.388 . S
C1068 C1069 1.390 . S
C1069 C1068 1.390 . S
C1069 C1070 1.394 . S
C1069 C1075 1.465 . S
C1070 C1065 1.399 . S
C1070 C1069 1.394 . S
C1070 C1071 1.516 . S
C1071 C1070 1.516 . S
C1071 C1072 1.502 . S
C1071 C1073 1.561 1_556 S
C1071 C1074 1.526 . S
C1072 H1056 0.959 . S
C1072 H1057 0.971 . S
C1072 H1058 0.961 . S
C1072 C1071 1.502 . S
C1073 H1059 0.960 . S
C1073 H1060 0.961 . S
C1073 H1061 0.959 . S
C1073 C1071 1.561 1_554 S
C1074 C1071 1.526 . S
C1074 C1075 1.396 . S
C1074 C1079 1.390 . S
C1075 C1069 1.465 . S
C1075 C1074 1.396 . S
C1075 C1076 1.399 . S
C1076 H1062 0.929 . S
C1076 C1075 1.399 . S
C1076 C1077 1.385 . S
C1077 H1063 0.931 . S
C1077 C1076 1.385 . S
C1077 C1078 1.389 . S
C1078 C1077 1.389 . S
C1078 C1079 1.387 . S
C1079 H1064 0.930 1_556 S
C1079 C1074 1.390 . S
C1079 C1078 1.387 . S
H1080 C1092 0.930 . S
H1081 C1094 0.930 . S
H1082 C1095 0.930 . S
H1083 C1099 0.959 1_554 S
H1084 C1099 0.959 . S
H1085 C1099 0.961 . S
H1086 C1100 0.960 . S
H1087 C1100 0.961 . S
H1088 C1100 0.959 . S
H1089 C1103 0.929 . S
H1090 C1104 0.931 . S
H1091 C1106 0.930 . S
C1092 H1080 0.930 . S
C1092 C1093 1.399 . S
C1092 C1097 1.399 . S
C1093 C1092 1.399 . S
C1093 C1094 1.376 . S
C1094 H1081 0.930 . S
C1094 C1093 1.376 . S
C1094 C1095 1.388 . S
C1095 H1082 0.930 . S
C1095 C1094 1.388 . S
C1095 C1096 1.390 . S
C1096 C1095 1.390 . S
C1096 C1097 1.394 . S
C1096 C1102 1.465 . S
C1097 C1092 1.399 . S
C1097 C1096 1.394 . S
C1097 C1098 1.516 . S
C1098 C1097 1.516 . S
C1098 C1099 1.502 . S
C1098 C1100 1.561 . S
C1098 C1101 1.526 . S
C1099 H1083 0.959 1_556 S
C1099 H1084 0.959 . S
C1099 H1085 0.961 . S
C1099 C1098 1.502 . S
C1100 H1086 0.960 . S
C1100 H1087 0.961 . S
C1100 H1088 0.959 . S
C1100 C1098 1.561 . S
C1101 C1098 1.526 . S
C1101 C1102 1.396 . S
C1101 C1106 1.390 . S
C1102 C1096 1.465 . S
C1102 C1101 1.396 . S
C1102 C1103 1.399 . S
C1103 H1089 0.929 . S
C1103 C1102 1.399 . S
C1103 C1104 1.385 . S
C1104 H1090 0.931 . S
C1104 C1103 1.385 . S
C1104 C1105 1.389 . S
C1105 C1104 1.389 . S
C1105 C1106 1.387 . S
C1106 H1091 0.930 . S
C1106 C1101 1.390 . S
C1106 C1105 1.387 . S
H1107 C1119 0.930 . S
H1108 C1121 0.930 . S
H1109 C1122 0.930 . S
H1110 C1126 0.959 . S
H1111 C1126 0.959 . S
H1112 C1126 0.961 . S
H1113 C1127 0.960 . S
H1114 C1127 0.961 . S
H1115 C1127 0.959 . S
H1116 C1130 0.929 . S
H1117 C1131 0.931 . S
H1118 C1133 0.930 . S
C1119 H1107 0.930 . S
C1119 C1120 1.399 . S
C1119 C1124 1.399 . S
C1120 C1119 1.399 . S
C1120 C1121 1.376 . S
C1121 H1108 0.930 . S
C1121 C1120 1.376 . S
C1121 C1122 1.388 . S
C1122 H1109 0.930 . S
C1122 C1121 1.388 . S
C1122 C1123 1.390 . S
C1123 C1122 1.390 . S
C1123 C1124 1.394 . S
C1123 C1129 1.465 . S
C1124 C1119 1.399 . S
C1124 C1123 1.394 . S
C1124 C1125 1.516 . S
C1125 C1124 1.516 . S
C1125 C1126 1.502 . S
C1125 C1127 1.561 1_556 S
C1125 C1128 1.526 . S
C1126 H1110 0.959 . S
C1126 H1111 0.959 . S
C1126 H1112 0.961 . S
C1126 C1125 1.502 . S
C1127 H1113 0.960 . S
C1127 H1114 0.961 . S
C1127 H1115 0.959 . S
C1127 C1125 1.561 1_554 S
C1128 C1125 1.526 . S
C1128 C1129 1.396 . S
C1128 C1133 1.390 . S
C1129 C1123 1.465 . S
C1129 C1128 1.396 . S
C1129 C1130 1.399 . S
C1130 H1116 0.929 . S
C1130 C1129 1.399 . S
C1130 C1131 1.385 . S
C1131 H1117 0.931 . S
C1131 C1130 1.385 . S
C1131 C1132 1.389 . S
C1132 C1131 1.389 . S
C1132 C1133 1.387 . S
C1133 H1118 0.930 . S
C1133 C1128 1.390 . S
C1133 C1132 1.387 . S
H1134 C1146 0.930 . S
H1135 C1148 0.930 . S
H1136 C1149 0.887 1_554 S
H1137 C1153 0.959 . S
H1138 C1153 0.959 . S
H1139 C1153 0.961 . S
H1140 C1154 0.960 . S
H1141 C1154 0.961 . S
H1142 C1154 0.959 . S
H1143 C1157 0.929 . S
H1144 C1158 0.931 . S
H1145 C1160 0.930 . S
C1146 H1134 0.930 . S
C1146 C1147 1.399 . S
C1146 C1151 1.399 . S
C1147 C1146 1.399 . S
C1147 C1148 1.376 . S
C1148 H1135 0.930 . S
C1148 C1147 1.376 . S
C1148 C1149 1.409 . S
C1149 H1136 0.887 1_556 S
C1149 C1148 1.409 . S
C1149 C1150 1.414 . S
C1150 C1149 1.414 . S
C1150 C1151 1.394 . S
C1150 C1156 1.465 . S
C1151 C1146 1.399 . S
C1151 C1150 1.394 . S
C1151 C1152 1.516 . S
C1152 C1151 1.516 . S
C1152 C1153 1.502 . S
C1152 C1154 1.561 . S
C1152 C1155 1.526 . S
C1153 H1137 0.959 . S
C1153 H1138 0.959 . S
C1153 H1139 0.961 . S
C1153 C1152 1.502 . S
C1154 H1140 0.960 . S
C1154 H1141 0.961 . S
C1154 H1142 0.959 . S
C1154 C1152 1.561 . S
C1155 C1152 1.526 . S
C1155 C1156 1.396 . S
C1155 C1160 1.390 . S
C1156 C1150 1.465 . S
C1156 C1155 1.396 . S
C1156 C1157 1.399 1_556 S
C1157 H1143 0.929 . S
C1157 C1156 1.399 1_554 S
C1157 C1158 1.385 . S
C1158 H1144 0.931 . S
C1158 C1157 1.385 . S
C1158 C1159 1.389 1_554 S
C1159 C1158 1.389 1_556 S
C1159 C1160 1.387 . S
C1160 H1145 0.930 . S
C1160 C1155 1.390 . S
C1160 C1159 1.387 . S
H1161 C1173 0.930 . S
H1162 C1175 0.930 . S
H1163 C1176 0.930 . S
H1164 C1180 0.959 . S
H1165 C1180 0.959 . S
H1166 C1180 0.961 . S
H1167 C1181 0.960 . S
H1168 C1181 0.961 . S
H1169 C1181 0.959 . S
H1170 C1184 0.929 . S
H1171 C1185 0.931 . S
H1172 C1187 0.930 . S
C1173 H1161 0.930 . S
C1173 C1174 1.399 . S
C1173 C1178 1.399 . S
C1174 C1173 1.399 . S
C1174 C1175 1.376 . S
C1175 H1162 0.930 . S
C1175 C1174 1.376 . S
C1175 C1176 1.388 . S
C1176 H1163 0.930 . S
C1176 C1175 1.388 . S
C1176 C1177 1.390 . S
C1177 C1176 1.390 . S
C1177 C1178 1.394 . S
C1177 C1183 1.465 . S
C1178 C1173 1.399 . S
C1178 C1177 1.394 . S
C1178 C1179 1.516 . S
C1179 C1178 1.516 . S
C1179 C1180 1.502 . S
C1179 C1181 1.561 . S
C1179 C1182 1.526 . S
C1180 H1164 0.959 . S
C1180 H1165 0.959 . S
C1180 H1166 0.961 . S
C1180 C1179 1.502 . S
C1181 H1167 0.960 . S
C1181 H1168 0.961 . S
C1181 H1169 0.959 . S
C1181 C1179 1.561 . S
C1182 C1179 1.526 . S
C1182 C1183 1.396 . S
C1182 C1187 1.390 . S
C1183 C1177 1.465 . S
C1183 C1182 1.396 . S
C1183 C1184 1.399 1_556 S
C1184 H1170 0.929 . S
C1184 C1183 1.399 1_554 S
C1184 C1185 1.385 . S
C1185 H1171 0.931 . S
C1185 C1184 1.385 . S
C1185 C1186 1.389 1_554 S
C1186 C1185 1.389 1_556 S
C1186 C1187 1.387 . S
C1187 H1172 0.930 . S
C1187 C1182 1.390 . S
C1187 C1186 1.387 . S
H1188 C1200 0.912 1_554 S
H1189 C1202 0.930 . S
H1190 C1203 0.930 . S
H1191 C1207 0.959 . S
H1192 C1207 0.959 . S
H1193 C1207 0.961 . S
H1194 C1208 0.960 . S
H1195 C1208 0.961 . S
H1196 C1208 0.959 . S
H1197 C1211 0.929 . S
H1198 C1212 0.931 . S
H1199 C1214 0.930 . S
C1200 H1188 0.912 1_556 S
C1200 C1201 1.399 . S
C1200 C1205 1.399 . S
C1201 C1200 1.399 . S
C1201 C1202 1.376 . S
C1202 H1189 0.930 . S
C1202 C1201 1.376 . S
C1202 C1203 1.388 . S
C1203 H1190 0.930 . S
C1203 C1202 1.388 . S
C1203 C1204 1.390 . S
C1204 C1203 1.390 . S
C1204 C1205 1.394 . S
C1204 C1210 1.465 . S
C1205 C1200 1.399 . S
C1205 C1204 1.394 . S
C1205 C1206 1.516 1_556 S
C1206 C1205 1.516 1_554 S
C1206 C1207 1.502 . S
C1206 C1208 1.561 . S
C1206 C1209 1.526 1_554 S
C1207 H1191 0.959 . S
C1207 H1192 0.959 . S
C1207 H1193 0.961 . S
C1207 C1206 1.502 . S
C1208 H1194 0.960 . S
C1208 H1195 0.961 . S
C1208 H1196 0.959 . S
C1208 C1206 1.561 . S
C1209 C1206 1.526 1_556 S
C1209 C1210 1.396 . S
C1209 C1214 1.390 1_556 S
C1210 C1204 1.465 . S
C1210 C1209 1.396 . S
C1210 C1211 1.399 . S
C1211 H1197 0.929 . S
C1211 C1210 1.399 . S
C1211 C1212 1.385 . S
C1212 H1198 0.931 . S
C1212 C1211 1.385 . S
C1212 C1213 1.389 . S
C1213 C1212 1.389 . S
C1213 C1214 1.387 1_556 S
C1214 H1199 0.930 . S
C1214 C1209 1.390 1_554 S
C1214 C1213 1.387 1_554 S
H1215 C1227 0.930 . S
H1216 C1229 0.930 . S
H1217 C1230 0.930 . S
H1218 C1234 0.959 . S
H1219 C1234 0.959 . S
H1220 C1234 0.961 . S
H1221 C1235 0.960 . S
H1222 C1235 0.961 . S
H1223 C1235 0.959 . S
H1224 C1238 0.929 1_556 S
H1225 C1239 0.931 1_556 S
H1226 C1241 0.930 . S
C1227 H1215 0.930 . S
C1227 C1228 1.399 . S
C1227 C1232 1.399 . S
C1228 C1227 1.399 . S
C1228 C1229 1.376 . S
C1229 H1216 0.930 . S
C1229 C1228 1.376 . S
C1229 C1230 1.388 . S
C1230 H1217 0.930 . S
C1230 C1229 1.388 . S
C1230 C1231 1.390 . S
C1231 C1230 1.390 . S
C1231 C1232 1.394 . S
C1231 C1237 1.465 . S
C1232 C1227 1.399 . S
C1232 C1231 1.394 . S
C1232 C1233 1.516 . S
C1233 C1232 1.516 . S
C1233 C1234 1.502 . S
C1233 C1235 1.561 . S
C1233 C1236 1.526 . S
C1234 H1218 0.959 . S
C1234 H1219 0.959 . S
C1234 H1220 0.961 . S
C1234 C1233 1.502 . S
C1235 H1221 0.960 . S
C1235 H1222 0.961 . S
C1235 H1223 0.959 . S
C1235 C1233 1.561 . S
C1236 C1233 1.526 . S
C1236 C1237 1.396 . S
C1236 C1241 1.390 . S
C1237 C1231 1.465 . S
C1237 C1236 1.396 . S
C1237 C1238 1.399 . S
C1238 H1224 0.929 1_554 S
C1238 C1237 1.399 . S
C1238 C1239 1.385 . S
C1239 H1225 0.931 1_554 S
C1239 C1238 1.385 . S
C1239 C1240 1.389 . S
C1240 C1239 1.389 . S
C1240 C1241 1.387 . S
C1241 H1226 0.930 . S
C1241 C1236 1.390 . S
C1241 C1240 1.387 . S
H1242 C1254 0.930 . S
H1243 C1256 0.930 . S
H1244 C1257 0.930 . S
H1245 C1261 0.959 . S
H1246 C1261 0.959 . S
H1247 C1261 0.961 . S
H1248 C1262 0.960 . S
H1249 C1262 0.961 . S
H1250 C1262 0.959 . S
H1251 C1265 0.937 . S
H1252 C1266 0.931 1_556 S
H1253 C1268 0.930 . S
C1254 H1242 0.930 . S
C1254 C1255 1.399 . S
C1254 C1259 1.399 . S
C1255 C1254 1.399 . S
C1255 C1256 1.376 . S
C1256 H1243 0.930 . S
C1256 C1255 1.376 . S
C1256 C1257 1.388 . S
C1257 H1244 0.930 . S
C1257 C1256 1.388 . S
C1257 C1258 1.390 . S
C1258 C1257 1.390 . S
C1258 C1259 1.394 . S
C1258 C1264 1.465 . S
C1259 C1254 1.399 . S
C1259 C1258 1.394 . S
C1259 C1260 1.516 . S
C1260 C1259 1.516 . S
C1260 C1261 1.502 . S
C1260 C1262 1.561 . S
C1260 C1263 1.526 . S
C1261 H1245 0.959 . S
C1261 H1246 0.959 . S
C1261 H1247 0.961 . S
C1261 C1260 1.502 . S
C1262 H1248 0.960 . S
C1262 H1249 0.961 . S
C1262 H1250 0.959 . S
C1262 C1260 1.561 . S
C1263 C1260 1.526 . S
C1263 C1264 1.396 . S
C1263 C1268 1.390 . S
C1264 C1258 1.465 . S
C1264 C1263 1.396 . S
C1264 C1265 1.399 . S
C1265 H1251 0.937 . S
C1265 C1264 1.399 . S
C1265 C1266 1.385 . S
C1266 H1252 0.931 1_554 S
C1266 C1265 1.385 . S
C1266 C1267 1.389 . S
C1267 C1266 1.389 . S
C1267 C1268 1.387 . S
C1268 H1253 0.930 . S
C1268 C1263 1.390 . S
C1268 C1267 1.387 . S
H1269 C1281 0.930 . S
H1270 C1283 0.930 . S
H1271 C1284 0.930 . S
H1272 C1288 0.959 . S
H1273 C1288 0.959 1_556 S
H1274 C1288 0.961 . S
H1275 C1289 0.960 . S
H1276 C1289 0.961 . S
H1277 C1289 0.974 . S
H1278 C1292 0.929 . S
H1279 C1293 0.931 . S
H1280 C1295 0.930 . S
C1281 H1269 0.930 . S
C1281 C1282 1.399 . S
C1281 C1286 1.399 . S
C1282 C1281 1.399 . S
C1282 C1283 1.376 . S
C1283 H1270 0.930 . S
C1283 C1282 1.376 . S
C1283 C1284 1.388 . S
C1284 H1271 0.930 . S
C1284 C1283 1.388 . S
C1284 C1285 1.390 . S
C1285 C1284 1.390 . S
C1285 C1286 1.394 . S
C1285 C1291 1.465 . S
C1286 C1281 1.399 . S
C1286 C1285 1.394 . S
C1286 C1287 1.516 . S
C1287 C1286 1.516 . S
C1287 C1288 1.502 . S
C1287 C1289 1.561 1_554 S
C1287 C1290 1.526 . S
C1288 H1272 0.959 . S
C1288 H1273 0.959 1_554 S
C1288 H1274 0.961 . S
C1288 C1287 1.502 . S
C1289 H1275 0.960 . S
C1289 H1276 0.961 . S
C1289 H1277 0.974 . S
C1289 C1287 1.561 1_556 S
C1290 C1287 1.526 . S
C1290 C1291 1.396 . S
C1290 C1295 1.390 . S
C1291 C1285 1.465 . S
C1291 C1290 1.396 . S
C1291 C1292 1.399 . S
C1292 H1278 0.929 . S
C1292 C1291 1.399 . S
C1292 C1293 1.385 . S
C1293 H1279 0.931 . S
C1293 C1292 1.385 . S
C1293 C1294 1.389 . S
C1294 C1293 1.389 . S
C1294 C1295 1.387 . S
C1295 H1280 0.930 . S
C1295 C1290 1.390 . S
C1295 C1294 1.387 . S
H1296 C1308 0.930 . S
H1297 C1310 0.930 . S
H1298 C1311 0.930 . S
H1299 C1315 0.959 . S
H1300 C1315 0.959 . S
H1301 C1315 0.961 . S
H1302 C1316 0.960 . S
H1303 C1316 0.961 1_455 S
H1304 C1316 0.959 . S
H1305 C1319 0.929 . S
H1306 C1320 0.931 . S
H1307 C1322 0.930 . S
C1308 H1296 0.930 . S
C1308 C1309 1.399 . S
C1308 C1313 1.399 . S
C1309 C1308 1.399 . S
C1309 C1310 1.376 . S
C1310 H1297 0.930 . S
C1310 C1309 1.376 . S
C1310 C1311 1.388 . S
C1311 H1298 0.930 . S
C1311 C1310 1.388 . S
C1311 C1312 1.390 . S
C1312 C1311 1.390 . S
C1312 C1313 1.394 . S
C1312 C1318 1.465 1_655 S
C1313 C1308 1.399 . S
C1313 C1312 1.394 . S
C1313 C1314 1.516 1_655 S
C1314 C1313 1.516 1_455 S
C1314 C1315 1.502 . S
C1314 C1316 1.561 1_455 S
C1314 C1317 1.526 . S
C1315 H1299 0.959 . S
C1315 H1300 0.959 . S
C1315 H1301 0.961 . S
C1315 C1314 1.502 . S
C1316 H1302 0.960 . S
C1316 H1303 0.961 1_655 S
C1316 H1304 0.959 . S
C1316 C1314 1.561 1_655 S
C1317 C1314 1.526 . S
C1317 C1318 1.396 . S
C1317 C1322 1.390 . S
C1318 C1312 1.465 1_455 S
C1318 C1317 1.396 . S
C1318 C1319 1.399 . S
C1319 H1305 0.929 . S
C1319 C1318 1.399 . S
C1319 C1320 1.385 . S
C1320 H1306 0.931 . S
C1320 C1319 1.385 . S
C1320 C1321 1.389 . S
C1321 C1320 1.389 . S
C1321 C1322 1.387 . S
C1322 H1307 0.930 . S
C1322 C1317 1.390 . S
C1322 C1321 1.387 . S
H1323 C1335 0.930 . S
H1324 C1337 0.930 . S
H1325 C1338 0.930 . S
H1326 C1342 0.959 . S
H1327 C1342 0.959 . S
H1328 C1342 0.961 . S
H1329 C1343 0.960 . S
H1330 C1343 0.961 . S
H1331 C1343 0.959 . S
H1332 C1346 0.929 . S
H1333 C1347 0.931 . S
H1334 C1349 0.930 . S
C1335 H1323 0.930 . S
C1335 C1336 1.399 . S
C1335 C1340 1.399 . S
C1336 C1335 1.399 . S
C1336 C1337 1.376 . S
C1337 H1324 0.930 . S
C1337 C1336 1.376 . S
C1337 C1338 1.388 . S
C1338 H1325 0.930 . S
C1338 C1337 1.388 . S
C1338 C1339 1.390 . S
C1339 C1338 1.390 . S
C1339 C1340 1.394 . S
C1339 C1345 1.465 . S
C1340 C1335 1.399 . S
C1340 C1339 1.394 . S
C1340 C1341 1.516 . S
C1341 C1340 1.516 . S
C1341 C1342 1.502 . S
C1341 C1343 1.561 . S
C1341 C1344 1.526 . S
C1342 H1326 0.959 . S
C1342 H1327 0.959 . S
C1342 H1328 0.961 . S
C1342 C1341 1.502 . S
C1343 H1329 0.960 . S
C1343 H1330 0.961 . S
C1343 H1331 0.959 . S
C1343 C1341 1.561 . S
C1344 C1341 1.526 . S
C1344 C1345 1.396 . S
C1344 C1349 1.390 . S
C1345 C1339 1.465 . S
C1345 C1344 1.396 . S
C1345 C1346 1.399 . S
C1346 H1332 0.929 . S
C1346 C1345 1.399 . S
C1346 C1347 1.385 . S
C1347 H1333 0.931 . S
C1347 C1346 1.385 . S
C1347 C1348 1.389 . S
C1348 C1347 1.389 . S
C1348 C1349 1.387 . S
C1349 H1334 0.930 . S
C1349 C1344 1.390 . S
C1349 C1348 1.387 . S
H1350 C1362 0.930 . S
H1351 C1364 0.930 . S
H1352 C1365 0.930 . S
H1353 C1369 0.959 1_545 S
H1354 C1369 0.959 . S
H1355 C1369 0.961 1_545 S
H1356 C1370 0.960 . S
H1357 C1370 0.961 . S
H1358 C1370 0.959 . S
H1359 C1373 0.929 1_545 S
H1360 C1374 0.931 . S
H1361 C1376 0.930 . S
C1362 H1350 0.930 . S
C1362 C1363 1.399 . S
C1362 C1367 1.399 . S
C1363 C1362 1.399 . S
C1363 C1364 1.376 . S
C1364 H1351 0.930 . S
C1364 C1363 1.376 . S
C1364 C1365 1.388 . S
C1365 H1352 0.930 . S
C1365 C1364 1.388 . S
C1365 C1366 1.390 . S
C1366 C1365 1.390 . S
C1366 C1367 1.394 . S
C1366 C1372 1.465 1_545 S
C1367 C1362 1.399 . S
C1367 C1366 1.394 . S
C1367 C1368 1.516 1_545 S
C1368 C1367 1.516 1_565 S
C1368 C1369 1.502 . S
C1368 C1370 1.561 . S
C1368 C1371 1.526 . S
C1369 H1353 0.959 1_565 S
C1369 H1354 0.959 . S
C1369 H1355 0.961 1_565 S
C1369 C1368 1.502 . S
C1370 H1356 0.960 . S
C1370 H1357 0.961 . S
C1370 H1358 0.959 . S
C1370 C1368 1.561 . S
C1371 C1368 1.526 . S
C1371 C1372 1.396 . S
C1371 C1376 1.390 . S
C1372 C1366 1.465 1_565 S
C1372 C1371 1.396 . S
C1372 C1373 1.399 . S
C1373 H1359 0.929 1_565 S
C1373 C1372 1.399 . S
C1373 C1374 1.385 . S
C1374 H1360 0.931 . S
C1374 C1373 1.385 . S
C1374 C1375 1.389 . S
C1375 C1374 1.389 . S
C1375 C1376 1.387 . S
C1376 H1361 0.930 . S
C1376 C1371 1.390 . S
C1376 C1375 1.387 . S
H1377 C1389 0.930 . S
H1378 C1391 0.930 . S
H1379 C1392 0.930 . S
H1380 C1396 0.959 . S
H1381 C1396 0.959 . S
H1382 C1396 0.961 . S
H1383 C1397 0.960 . S
H1384 C1397 0.961 . S
H1385 C1397 0.959 . S
H1386 C1400 0.929 . S
H1387 C1401 0.931 . S
H1388 C1403 0.930 . S
C1389 H1377 0.930 . S
C1389 C1390 1.399 . S
C1389 C1394 1.399 . S
C1390 C1389 1.399 . S
C1390 C1391 1.376 . S
C1391 H1378 0.930 . S
C1391 C1390 1.376 . S
C1391 C1392 1.388 . S
C1392 H1379 0.930 . S
C1392 C1391 1.388 . S
C1392 C1393 1.390 . S
C1393 C1392 1.390 . S
C1393 C1394 1.394 . S
C1393 C1399 1.465 . S
C1394 C1389 1.399 . S
C1394 C1393 1.394 . S
C1394 C1395 1.516 . S
C1395 C1394 1.516 . S
C1395 C1396 1.502 . S
C1395 C1397 1.561 . S
C1395 C1398 1.526 . S
C1396 H1380 0.959 . S
C1396 H1381 0.959 . S
C1396 H1382 0.961 . S
C1396 C1395 1.502 . S
C1397 H1383 0.960 . S
C1397 H1384 0.961 . S
C1397 H1385 0.959 . S
C1397 C1395 1.561 . S
C1398 C1395 1.526 . S
C1398 C1399 1.396 . S
C1398 C1403 1.390 . S
C1399 C1393 1.465 . S
C1399 C1398 1.396 . S
C1399 C1400 1.399 . S
C1400 H1386 0.929 . S
C1400 C1399 1.399 . S
C1400 C1401 1.385 . S
C1401 H1387 0.931 . S
C1401 C1400 1.385 . S
C1401 C1402 1.389 . S
C1402 C1401 1.389 . S
C1402 C1403 1.387 . S
C1403 H1388 0.930 . S
C1403 C1398 1.390 . S
C1403 C1402 1.387 . S
H1404 C1416 0.930 . S
H1405 C1418 0.930 . S
H1406 C1419 0.930 . S
H1407 C1423 0.959 . S
H1408 C1423 0.959 . S
H1409 C1423 0.961 . S
H1410 C1424 0.960 . S
H1411 C1424 0.961 . S
H1412 C1424 0.959 . S
H1413 C1427 0.929 . S
H1414 C1428 0.931 . S
H1415 C1430 0.930 . S
C1416 H1404 0.930 . S
C1416 C1417 1.399 . S
C1416 C1421 1.399 . S
C1417 C1416 1.399 . S
C1417 C1418 1.376 . S
C1418 H1405 0.930 . S
C1418 C1417 1.376 . S
C1418 C1419 1.388 . S
C1419 H1406 0.930 . S
C1419 C1418 1.388 . S
C1419 C1420 1.390 . S
C1420 C1419 1.390 . S
C1420 C1421 1.394 . S
C1420 C1426 1.465 . S
C1421 C1416 1.399 . S
C1421 C1420 1.394 . S
C1421 C1422 1.516 . S
C1422 C1421 1.516 . S
C1422 C1423 1.502 . S
C1422 C1424 1.561 . S
C1422 C1425 1.526 . S
C1423 H1407 0.959 . S
C1423 H1408 0.959 . S
C1423 H1409 0.961 . S
C1423 C1422 1.502 . S
C1424 H1410 0.960 . S
C1424 H1411 0.961 . S
C1424 H1412 0.959 . S
C1424 C1422 1.561 . S
C1425 C1422 1.526 . S
C1425 C1426 1.396 . S
C1425 C1430 1.390 . S
C1426 C1420 1.465 . S
C1426 C1425 1.396 . S
C1426 C1427 1.399 . S
C1427 H1413 0.929 . S
C1427 C1426 1.399 . S
C1427 C1428 1.385 . S
C1428 H1414 0.931 . S
C1428 C1427 1.385 . S
C1428 C1429 1.389 . S
C1429 C1428 1.389 . S
C1429 C1430 1.387 . S
C1430 H1415 0.930 . S
C1430 C1425 1.390 . S
C1430 C1429 1.387 . S
H1431 C1443 0.930 . S
H1432 C1445 0.930 . S
H1433 C1446 0.930 . S
H1434 C1450 0.959 . S
H1435 C1450 0.959 . S
H1436 C1450 0.961 . S
H1437 C1451 0.960 . S
H1438 C1451 0.961 . S
H1439 C1451 0.959 . S
H1440 C1454 0.929 . S
H1441 C1455 0.931 . S
H1442 C1457 0.930 . S
C1443 H1431 0.930 . S
C1443 C1444 1.399 . S
C1443 C1448 1.399 . S
C1444 C1443 1.399 . S
C1444 C1445 1.376 . S
C1445 H1432 0.930 . S
C1445 C1444 1.376 . S
C1445 C1446 1.388 . S
C1446 H1433 0.930 . S
C1446 C1445 1.388 . S
C1446 C1447 1.390 . S
C1447 C1446 1.390 . S
C1447 C1448 1.394 . S
C1447 C1453 1.465 . S
C1448 C1443 1.399 . S
C1448 C1447 1.394 . S
C1448 C1449 1.516 . S
C1449 C1448 1.516 . S
C1449 C1450 1.502 . S
C1449 C1451 1.561 . S
C1449 C1452 1.526 . S
C1450 H1434 0.959 . S
C1450 H1435 0.959 . S
C1450 H1436 0.961 . S
C1450 C1449 1.502 . S
C1451 H1437 0.960 . S
C1451 H1438 0.961 . S
C1451 H1439 0.959 . S
C1451 C1449 1.561 . S
C1452 C1449 1.526 . S
C1452 C1453 1.396 . S
C1452 C1457 1.390 . S
C1453 C1447 1.465 . S
C1453 C1452 1.396 . S
C1453 C1454 1.399 . S
C1454 H1440 0.929 . S
C1454 C1453 1.399 . S
C1454 C1455 1.385 . S
C1455 H1441 0.931 . S
C1455 C1454 1.385 . S
C1455 C1456 1.389 . S
C1456 C1455 1.389 . S
C1456 C1457 1.387 . S
C1457 H1442 0.930 . S
C1457 C1452 1.390 . S
C1457 C1456 1.387 . S
H1458 C1470 0.930 . S
H1459 C1472 0.930 . S
H1460 C1473 0.930 . S
H1461 C1477 0.959 . S
H1462 C1477 0.959 . S
H1463 C1477 0.961 . S
H1464 C1478 0.960 . S
H1465 C1478 0.961 . S
H1466 C1478 0.959 . S
H1467 C1481 0.929 . S
H1468 C1482 0.931 . S
H1469 C1484 0.930 . S
C1470 H1458 0.930 . S
C1470 C1471 1.399 . S
C1470 C1475 1.399 . S
C1471 C1470 1.399 . S
C1471 C1472 1.376 . S
C1472 H1459 0.930 . S
C1472 C1471 1.376 . S
C1472 C1473 1.388 . S
C1473 H1460 0.930 . S
C1473 C1472 1.388 . S
C1473 C1474 1.390 . S
C1474 C1473 1.390 . S
C1474 C1475 1.394 . S
C1474 C1480 1.465 . S
C1475 C1470 1.399 . S
C1475 C1474 1.394 . S
C1475 C1476 1.516 . S
C1476 C1475 1.516 . S
C1476 C1477 1.502 . S
C1476 C1478 1.561 . S
C1476 C1479 1.526 . S
C1477 H1461 0.959 . S
C1477 H1462 0.959 . S
C1477 H1463 0.961 . S
C1477 C1476 1.502 . S
C1478 H1464 0.960 . S
C1478 H1465 0.961 . S
C1478 H1466 0.959 . S
C1478 C1476 1.561 . S
C1479 C1476 1.526 . S
C1479 C1480 1.396 . S
C1479 C1484 1.390 . S
C1480 C1474 1.465 . S
C1480 C1479 1.396 . S
C1480 C1481 1.399 . S
C1481 H1467 0.929 . S
C1481 C1480 1.399 . S
C1481 C1482 1.385 . S
C1482 H1468 0.931 . S
C1482 C1481 1.385 . S
C1482 C1483 1.389 . S
C1483 C1482 1.389 . S
C1483 C1484 1.387 . S
C1484 H1469 0.930 . S
C1484 C1479 1.390 . S
C1484 C1483 1.387 . S
H1485 C1497 0.930 . S
H1486 C1499 0.930 . S
H1487 C1500 0.930 . S
H1488 C1504 0.959 . S
H1489 C1504 0.959 . S
H1490 C1504 0.961 . S
H1491 C1505 0.960 . S
H1492 C1505 0.961 . S
H1493 C1505 0.959 . S
H1494 C1508 0.929 . S
H1495 C1509 0.931 . S
H1496 C1511 0.930 . S
C1497 H1485 0.930 . S
C1497 C1498 1.399 . S
C1497 C1502 1.399 . S
C1498 C1497 1.399 . S
C1498 C1499 1.376 . S
C1499 H1486 0.930 . S
C1499 C1498 1.376 . S
C1499 C1500 1.388 . S
C1500 H1487 0.930 . S
C1500 C1499 1.388 . S
C1500 C1501 1.390 . S
C1501 C1500 1.390 . S
C1501 C1502 1.394 . S
C1501 C1507 1.465 . S
C1502 C1497 1.399 . S
C1502 C1501 1.394 . S
C1502 C1503 1.516 . S
C1503 C1502 1.516 . S
C1503 C1504 1.502 . S
C1503 C1505 1.561 . S
C1503 C1506 1.526 . S
C1504 H1488 0.959 . S
C1504 H1489 0.959 . S
C1504 H1490 0.961 . S
C1504 C1503 1.502 . S
C1505 H1491 0.960 . S
C1505 H1492 0.961 . S
C1505 H1493 0.959 . S
C1505 C1503 1.561 . S
C1506 C1503 1.526 . S
C1506 C1507 1.396 . S
C1506 C1511 1.390 . S
C1507 C1501 1.465 . S
C1507 C1506 1.396 . S
C1507 C1508 1.399 . S
C1508 H1494 0.929 . S
C1508 C1507 1.399 . S
C1508 C1509 1.385 . S
C1509 H1495 0.931 . S
C1509 C1508 1.385 . S
C1509 C1510 1.389 . S
C1510 C1509 1.389 . S
C1510 C1511 1.387 . S
C1511 H1496 0.930 . S
C1511 C1506 1.390 . S
C1511 C1510 1.387 . S
H1512 C1524 0.930 . S
H1513 C1526 0.930 . S
H1514 C1527 0.930 . S
H1515 C1531 0.959 . S
H1516 C1531 0.959 . S
H1517 C1531 0.961 . S
H1518 C1532 0.960 . S
H1519 C1532 0.961 . S
H1520 C1532 0.959 . S
H1521 C1535 0.929 . S
H1522 C1536 0.931 . S
H1523 C1538 0.930 . S
C1524 H1512 0.930 . S
C1524 C1525 1.399 . S
C1524 C1529 1.399 . S
C1525 C1524 1.399 . S
C1525 C1526 1.376 . S
C1526 H1513 0.930 . S
C1526 C1525 1.376 . S
C1526 C1527 1.388 . S
C1527 H1514 0.930 . S
C1527 C1526 1.388 . S
C1527 C1528 1.390 . S
C1528 C1527 1.390 . S
C1528 C1529 1.394 . S
C1528 C1534 1.465 . S
C1529 C1524 1.399 . S
C1529 C1528 1.394 . S
C1529 C1530 1.516 . S
C1530 C1529 1.516 . S
C1530 C1531 1.502 . S
C1530 C1532 1.561 . S
C1530 C1533 1.526 . S
C1531 H1515 0.959 . S
C1531 H1516 0.959 . S
C1531 H1517 0.961 . S
C1531 C1530 1.502 . S
C1532 H1518 0.960 . S
C1532 H1519 0.961 . S
C1532 H1520 0.959 . S
C1532 C1530 1.561 . S
C1533 C1530 1.526 . S
C1533 C1534 1.396 . S
C1533 C1538 1.390 . S
C1534 C1528 1.465 . S
C1534 C1533 1.396 . S
C1534 C1535 1.399 . S
C1535 H1521 0.929 . S
C1535 C1534 1.399 . S
C1535 C1536 1.385 . S
C1536 H1522 0.931 . S
C1536 C1535 1.385 . S
C1536 C1537 1.389 . S
C1537 C1536 1.389 . S
C1537 C1538 1.387 . S
C1538 H1523 0.930 . S
C1538 C1533 1.390 . S
C1538 C1537 1.387 . S
H1539 C1551 0.930 1_545 S
H1540 C1553 0.930 . S
H1541 C1554 0.930 . S
H1542 C1558 0.959 . S
H1543 C1558 0.959 . S
H1544 C1558 0.961 . S
H1545 C1559 0.960 . S
H1546 C1559 0.961 . S
H1547 C1559 0.959 . S
H1548 C1562 0.929 . S
H1549 C1563 0.931 . S
H1550 C1565 0.930 . S
C1551 H1539 0.930 1_565 S
C1551 C1552 1.399 1_565 S
C1551 C1556 1.399 . S
C1552 C1551 1.399 1_545 S
C1552 C1553 1.376 . S
C1553 H1540 0.930 . S
C1553 C1552 1.376 . S
C1553 C1554 1.388 1_545 S
C1554 H1541 0.930 . S
C1554 C1553 1.388 1_565 S
C1554 C1555 1.390 . S
C1555 C1554 1.390 . S
C1555 C1556 1.394 . S
C1555 C1561 1.465 . S
C1556 C1551 1.399 . S
C1556 C1555 1.394 . S
C1556 C1557 1.516 . S
C1557 C1556 1.516 . S
C1557 C1558 1.502 . S
C1557 C1559 1.561 . S
C1557 C1560 1.526 . S
C1558 H1542 0.959 . S
C1558 H1543 0.959 . S
C1558 H1544 0.961 . S
C1558 C1557 1.502 . S
C1559 H1545 0.960 . S
C1559 H1546 0.961 . S
C1559 H1547 0.959 . S
C1559 C1557 1.561 . S
C1560 C1557 1.526 . S
C1560 C1561 1.396 . S
C1560 C1565 1.390 . S
C1561 C1555 1.465 . S
C1561 C1560 1.396 . S
C1561 C1562 1.399 . S
C1562 H1548 0.929 . S
C1562 C1561 1.399 . S
C1562 C1563 1.385 . S
C1563 H1549 0.931 . S
C1563 C1562 1.385 . S
C1563 C1564 1.389 . S
C1564 C1563 1.389 . S
C1564 C1565 1.387 . S
C1565 H1550 0.930 . S
C1565 C1560 1.390 . S
C1565 C1564 1.387 . S
H1566 C1578 0.930 1_655 S
H1567 C1580 0.930 . S
H1568 C1581 0.930 . S
H1569 C1585 0.959 . S
H1570 C1585 0.959 . S
H1571 C1585 0.961 . S
H1572 C1586 0.960 . S
H1573 C1586 0.961 . S
H1574 C1586 0.959 . S
H1575 C1589 0.929 . S
H1576 C1590 0.931 . S
H1577 C1592 0.930 . S
C1578 H1566 0.930 1_455 S
C1578 C1579 1.399 1_455 S
C1578 C1583 1.399 . S
C1579 C1578 1.399 1_655 S
C1579 C1580 1.376 1_655 S
C1580 H1567 0.930 . S
C1580 C1579 1.376 1_455 S
C1580 C1581 1.388 . S
C1581 H1568 0.930 . S
C1581 C1580 1.388 . S
C1581 C1582 1.390 . S
C1582 C1581 1.390 . S
C1582 C1583 1.394 . S
C1582 C1588 1.465 . S
C1583 C1578 1.399 . S
C1583 C1582 1.394 . S
C1583 C1584 1.516 . S
C1584 C1583 1.516 . S
C1584 C1585 1.502 . S
C1584 C1586 1.561 . S
C1584 C1587 1.526 . S
C1585 H1569 0.959 . S
C1585 H1570 0.959 . S
C1585 H1571 0.961 . S
C1585 C1584 1.502 . S
C1586 H1572 0.960 . S
C1586 H1573 0.961 . S
C1586 H1574 0.959 . S
C1586 C1584 1.561 . S
C1587 C1584 1.526 . S
C1587 C1588 1.396 . S
C1587 C1592 1.390 . S
C1588 C1582 1.465 . S
C1588 C1587 1.396 . S
C1588 C1589 1.399 . S
C1589 H1575 0.929 . S
C1589 C1588 1.399 . S
C1589 C1590 1.385 . S
C1590 H1576 0.931 . S
C1590 C1589 1.385 . S
C1590 C1591 1.389 . S
C1591 C1590 1.389 . S
C1591 C1592 1.387 . S
C1592 H1577 0.930 . S
C1592 C1587 1.390 . S
C1592 C1591 1.387 . S
H1593 C1605 0.930 . S
H1594 C1607 0.930 . S
H1595 C1608 0.930 . S
H1596 C1612 0.959 . S
H1597 C1612 0.959 . S
H1598 C1612 0.961 . S
H1599 C1613 0.960 . S
H1600 C1613 0.961 . S
H1601 C1613 0.959 . S
H1602 C1616 0.929 . S
H1603 C1617 0.931 . S
H1604 C1619 0.930 . S
C1605 H1593 0.930 . S
C1605 C1606 1.399 . S
C1605 C1610 1.399 . S
C1606 C1605 1.399 . S
C1606 C1607 1.376 . S
C1607 H1594 0.930 . S
C1607 C1606 1.376 . S
C1607 C1608 1.388 . S
C1608 H1595 0.930 . S
C1608 C1607 1.388 . S
C1608 C1609 1.390 . S
C1609 C1608 1.390 . S
C1609 C1610 1.394 . S
C1609 C1615 1.465 . S
C1610 C1605 1.399 . S
C1610 C1609 1.394 . S
C1610 C1611 1.516 . S
C1611 C1610 1.516 . S
C1611 C1612 1.502 . S
C1611 C1613 1.561 . S
C1611 C1614 1.526 . S
C1612 H1596 0.959 . S
C1612 H1597 0.959 . S
C1612 H1598 0.961 . S
C1612 C1611 1.502 . S
C1613 H1599 0.960 . S
C1613 H1600 0.961 . S
C1613 H1601 0.959 . S
C1613 C1611 1.561 . S
C1614 C1611 1.526 . S
C1614 C1615 1.396 . S
C1614 C1619 1.390 . S
C1615 C1609 1.465 . S
C1615 C1614 1.396 . S
C1615 C1616 1.399 . S
C1616 H1602 0.929 . S
C1616 C1615 1.399 . S
C1616 C1617 1.385 . S
C1617 H1603 0.931 . S
C1617 C1616 1.385 . S
C1617 C1618 1.389 . S
C1618 C1617 1.389 . S
C1618 C1619 1.387 . S
C1619 H1604 0.930 . S
C1619 C1614 1.390 . S
C1619 C1618 1.387 . S
H1620 C1632 0.930 . S
H1621 C1634 0.930 . S
H1622 C1635 0.930 . S
H1623 C1639 0.959 . S
H1624 C1639 0.959 . S
H1625 C1639 0.961 . S
H1626 C1640 0.960 . S
H1627 C1640 0.961 . S
H1628 C1640 0.959 . S
H1629 C1643 0.929 . S
H1630 C1644 0.931 . S
H1631 C1646 0.930 . S
C1632 H1620 0.930 . S
C1632 C1633 1.399 . S
C1632 C1637 1.399 . S
C1633 C1632 1.399 . S
C1633 C1634 1.376 . S
C1634 H1621 0.930 . S
C1634 C1633 1.376 . S
C1634 C1635 1.388 . S
C1635 H1622 0.930 . S
C1635 C1634 1.388 . S
C1635 C1636 1.390 . S
C1636 C1635 1.390 . S
C1636 C1637 1.394 . S
C1636 C1642 1.465 . S
C1637 C1632 1.399 . S
C1637 C1636 1.394 . S
C1637 C1638 1.516 . S
C1638 C1637 1.516 . S
C1638 C1639 1.502 . S
C1638 C1640 1.561 . S
C1638 C1641 1.526 . S
C1639 H1623 0.959 . S
C1639 H1624 0.959 . S
C1639 H1625 0.961 . S
C1639 C1638 1.502 . S
C1640 H1626 0.960 . S
C1640 H1627 0.961 . S
C1640 H1628 0.959 . S
C1640 C1638 1.561 . S
C1641 C1638 1.526 . S
C1641 C1642 1.396 . S
C1641 C1646 1.390 . S
C1642 C1636 1.465 . S
C1642 C1641 1.396 . S
C1642 C1643 1.399 . S
C1643 H1629 0.929 . S
C1643 C1642 1.399 . S
C1643 C1644 1.385 . S
C1644 H1630 0.931 . S
C1644 C1643 1.385 . S
C1644 C1645 1.389 . S
C1645 C1644 1.389 . S
C1645 C1646 1.387 . S
C1646 H1631 0.930 . S
C1646 C1641 1.390 . S
C1646 C1645 1.387 . S
H1647 C1659 0.930 . S
H1648 C1661 0.930 . S
H1649 C1662 0.930 . S
H1650 C1666 0.959 . S
H1651 C1666 0.959 . S
H1652 C1666 0.961 . S
H1653 C1667 0.960 . S
H1654 C1667 0.961 . S
H1655 C1667 0.959 . S
H1656 C1670 0.929 . S
H1657 C1671 0.931 . S
H1658 C1673 0.930 . S
C1659 H1647 0.930 . S
C1659 C1660 1.399 . S
C1659 C1664 1.399 . S
C1660 C1659 1.399 . S
C1660 C1661 1.376 . S
C1661 H1648 0.930 . S
C1661 C1660 1.376 . S
C1661 C1662 1.388 . S
C1662 H1649 0.930 . S
C1662 C1661 1.388 . S
C1662 C1663 1.390 . S
C1663 C1662 1.390 . S
C1663 C1664 1.394 . S
C1663 C1669 1.465 . S
C1664 C1659 1.399 . S
C1664 C1663 1.394 . S
C1664 C1665 1.516 . S
C1665 C1664 1.516 . S
C1665 C1666 1.502 . S
C1665 C1667 1.561 . S
C1665 C1668 1.526 . S
C1666 H1650 0.959 . S
C1666 H1651 0.959 . S
C1666 H1652 0.961 . S
C1666 C1665 1.502 . S
C1667 H1653 0.960 . S
C1667 H1654 0.961 . S
C1667 H1655 0.959 . S
C1667 C1665 1.561 . S
C1668 C1665 1.526 . S
C1668 C1669 1.396 . S
C1668 C1673 1.390 . S
C1669 C1663 1.465 . S
C1669 C1668 1.396 . S
C1669 C1670 1.399 . S
C1670 H1656 0.929 . S
C1670 C1669 1.399 . S
C1670 C1671 1.385 . S
C1671 H1657 0.931 . S
C1671 C1670 1.385 . S
C1671 C1672 1.389 . S
C1672 C1671 1.389 . S
C1672 C1673 1.387 . S
C1673 H1658 0.930 . S
C1673 C1668 1.390 . S
C1673 C1672 1.387 . S
H1674 C1686 0.930 . S
H1675 C1688 0.930 . S
H1676 C1689 0.930 . S
H1677 C1693 0.959 . S
H1678 C1693 0.959 . S
H1679 C1693 0.961 . S
H1680 C1694 0.960 . S
H1681 C1694 0.961 . S
H1682 C1694 0.959 . S
H1683 C1697 0.929 . S
H1684 C1698 0.931 . S
H1685 C1700 0.930 . S
C1686 H1674 0.930 . S
C1686 C1687 1.399 . S
C1686 C1691 1.399 . S
C1687 C1686 1.399 . S
C1687 C1688 1.376 . S
C1688 H1675 0.930 . S
C1688 C1687 1.376 . S
C1688 C1689 1.388 . S
C1689 H1676 0.930 . S
C1689 C1688 1.388 . S
C1689 C1690 1.390 . S
C1690 C1689 1.390 . S
C1690 C1691 1.394 . S
C1690 C1696 1.465 . S
C1691 C1686 1.399 . S
C1691 C1690 1.394 . S
C1691 C1692 1.516 . S
C1692 C1691 1.516 . S
C1692 C1693 1.502 . S
C1692 C1694 1.561 . S
C1692 C1695 1.526 . S
C1693 H1677 0.959 . S
C1693 H1678 0.959 . S
C1693 H1679 0.961 . S
C1693 C1692 1.502 . S
C1694 H1680 0.960 . S
C1694 H1681 0.961 . S
C1694 H1682 0.959 . S
C1694 C1692 1.561 . S
C1695 C1692 1.526 . S
C1695 C1696 1.396 . S
C1695 C1700 1.390 . S
C1696 C1690 1.465 . S
C1696 C1695 1.396 . S
C1696 C1697 1.399 . S
C1697 H1683 0.929 . S
C1697 C1696 1.399 . S
C1697 C1698 1.385 . S
C1698 H1684 0.931 . S
C1698 C1697 1.385 . S
C1698 C1699 1.389 . S
C1699 C1698 1.389 . S
C1699 C1700 1.387 . S
C1700 H1685 0.930 . S
C1700 C1695 1.390 . S
C1700 C1699 1.387 . S
H1701 C1713 0.930 . S
H1702 C1715 0.930 . S
H1703 C1716 0.930 . S
H1704 C1720 0.959 . S
H1705 C1720 0.959 . S
H1706 C1720 0.961 . S
H1707 C1721 0.960 . S
H1708 C1721 0.961 . S
H1709 C1721 0.959 . S
H1710 C1724 0.929 1_565 S
H1711 C1725 0.931 . S
H1712 C1727 0.930 . S
C1713 H1701 0.930 . S
C1713 C1714 1.399 . S
C1713 C1718 1.399 . S
C1714 C1713 1.399 . S
C1714 C1715 1.376 . S
C1715 H1702 0.930 . S
C1715 C1714 1.376 . S
C1715 C1716 1.388 . S
C1716 H1703 0.930 . S
C1716 C1715 1.388 . S
C1716 C1717 1.390 . S
C1717 C1716 1.390 . S
C1717 C1718 1.394 . S
C1717 C1723 1.465 1_565 S
C1718 C1713 1.399 . S
C1718 C1717 1.394 . S
C1718 C1719 1.516 1_565 S
C1719 C1718 1.516 1_545 S
C1719 C1720 1.502 . S
C1719 C1721 1.561 . S
C1719 C1722 1.526 . S
C1720 H1704 0.959 . S
C1720 H1705 0.959 . S
C1720 H1706 0.961 . S
C1720 C1719 1.502 . S
C1721 H1707 0.960 . S
C1721 H1708 0.961 . S
C1721 H1709 0.959 . S
C1721 C1719 1.561 . S
C1722 C1719 1.526 . S
C1722 C1723 1.396 . S
C1722 C1727 1.390 . S
C1723 C1717 1.465 1_545 S
C1723 C1722 1.396 . S
C1723 C1724 1.399 . S
C1724 H1710 0.929 1_545 S
C1724 C1723 1.399 . S
C1724 C1725 1.385 . S
C1725 H1711 0.931 . S
C1725 C1724 1.385 . S
C1725 C1726 1.389 . S
C1726 C1725 1.389 . S
C1726 C1727 1.387 . S
C1727 H1712 0.930 . S
C1727 C1722 1.390 . S
C1727 C1726 1.387 . S
H1728 C1740 0.930 . S
H1729 C1742 0.930 . S
H1730 C1743 0.930 1_655 S
H1731 C1747 0.959 . S
H1732 C1747 0.959 . S
H1733 C1747 0.961 . S
H1734 C1748 0.960 . S
H1735 C1748 0.961 . S
H1736 C1748 0.959 . S
H1737 C1751 0.929 . S
H1738 C1752 0.931 . S
H1739 C1754 0.930 . S
C1740 H1728 0.930 . S
C1740 C1741 1.399 . S
C1740 C1745 1.399 . S
C1741 C1740 1.399 . S
C1741 C1742 1.376 . S
C1742 H1729 0.930 . S
C1742 C1741 1.376 . S
C1742 C1743 1.388 . S
C1743 H1730 0.930 1_455 S
C1743 C1742 1.388 . S
C1743 C1744 1.390 . S
C1744 C1743 1.390 . S
C1744 C1745 1.394 . S
C1744 C1750 1.465 1_455 S
C1745 C1740 1.399 . S
C1745 C1744 1.394 . S
C1745 C1746 1.516 . S
C1746 C1745 1.516 . S
C1746 C1747 1.502 . S
C1746 C1748 1.561 . S
C1746 C1749 1.526 1_455 S
C1747 H1731 0.959 . S
C1747 H1732 0.959 . S
C1747 H1733 0.961 . S
C1747 C1746 1.502 . S
C1748 H1734 0.960 . S
C1748 H1735 0.961 . S
C1748 H1736 0.959 . S
C1748 C1746 1.561 . S
C1749 C1746 1.526 1_655 S
C1749 C1750 1.396 . S
C1749 C1754 1.390 . S
C1750 C1744 1.465 1_655 S
C1750 C1749 1.396 . S
C1750 C1751 1.399 . S
C1751 H1737 0.929 . S
C1751 C1750 1.399 . S
C1751 C1752 1.385 . S
C1752 H1738 0.931 . S
C1752 C1751 1.385 . S
C1752 C1753 1.389 . S
C1753 C1752 1.389 . S
C1753 C1754 1.387 . S
C1754 H1739 0.930 . S
C1754 C1749 1.390 . S
C1754 C1753 1.387 . S
H1755 C1767 0.930 . S
H1756 C1769 0.930 . S
H1757 C1770 0.930 . S
H1758 C1774 0.959 . S
H1759 C1774 0.959 . S
H1760 C1774 0.961 . S
H1761 C1775 0.960 . S
H1762 C1775 0.961 . S
H1763 C1775 0.959 . S
H1764 C1778 0.929 . S
H1765 C1779 0.931 . S
H1766 C1781 0.930 . S
C1767 H1755 0.930 . S
C1767 C1768 1.399 . S
C1767 C1772 1.399 . S
C1768 C1767 1.399 . S
C1768 C1769 1.376 . S
C1769 H1756 0.930 . S
C1769 C1768 1.376 . S
C1769 C1770 1.388 . S
C1770 H1757 0.930 . S
C1770 C1769 1.388 . S
C1770 C1771 1.390 . S
C1771 C1770 1.390 . S
C1771 C1772 1.394 . S
C1771 C1777 1.465 . S
C1772 C1767 1.399 . S
C1772 C1771 1.394 . S
C1772 C1773 1.516 . S
C1773 C1772 1.516 . S
C1773 C1774 1.502 . S
C1773 C1775 1.561 . S
C1773 C1776 1.526 . S
C1774 H1758 0.959 . S
C1774 H1759 0.959 . S
C1774 H1760 0.961 . S
C1774 C1773 1.502 . S
C1775 H1761 0.960 . S
C1775 H1762 0.961 . S
C1775 H1763 0.959 . S
C1775 C1773 1.561 . S
C1776 C1773 1.526 . S
C1776 C1777 1.396 . S
C1776 C1781 1.390 . S
C1777 C1771 1.465 . S
C1777 C1776 1.396 . S
C1777 C1778 1.399 . S
C1778 H1764 0.929 . S
C1778 C1777 1.399 . S
C1778 C1779 1.385 . S
C1779 H1765 0.931 . S
C1779 C1778 1.385 . S
C1779 C1780 1.389 . S
C1780 C1779 1.389 . S
C1780 C1781 1.387 . S
C1781 H1766 0.930 . S
C1781 C1776 1.390 . S
C1781 C1780 1.387 . S
H1782 C1794 0.930 . S
H1783 C1796 0.930 1_455 S
H1784 C1797 0.930 . S
H1785 C1801 0.959 . S
H1786 C1801 0.959 . S
H1787 C1801 0.961 . S
H1788 C1802 0.960 . S
H1789 C1802 0.961 . S
H1790 C1802 0.959 . S
H1791 C1805 0.929 . S
H1792 C1806 0.931 . S
H1793 C1808 0.930 . S
C1794 H1782 0.930 . S
C1794 C1795 1.399 . S
C1794 C1799 1.399 1_455 S
C1795 C1794 1.399 . S
C1795 C1796 1.376 1_455 S
C1796 H1783 0.930 1_655 S
C1796 C1795 1.376 1_655 S
C1796 C1797 1.388 . S
C1797 H1784 0.930 . S
C1797 C1796 1.388 . S
C1797 C1798 1.390 . S
C1798 C1797 1.390 . S
C1798 C1799 1.394 . S
C1798 C1804 1.465 . S
C1799 C1794 1.399 1_655 S
C1799 C1798 1.394 . S
C1799 C1800 1.516 . S
C1800 C1799 1.516 . S
C1800 C1801 1.502 . S
C1800 C1802 1.561 . S
C1800 C1803 1.526 . S
C1801 H1785 0.959 . S
C1801 H1786 0.959 . S
C1801 H1787 0.961 . S
C1801 C1800 1.502 . S
C1802 H1788 0.960 . S
C1802 H1789 0.961 . S
C1802 H1790 0.959 . S
C1802 C1800 1.561 . S
C1803 C1800 1.526 . S
C1803 C1804 1.396 . S
C1803 C1808 1.390 . S
C1804 C1798 1.465 . S
C1804 C1803 1.396 . S
C1804 C1805 1.399 . S
C1805 H1791 0.929 . S
C1805 C1804 1.399 . S
C1805 C1806 1.385 . S
C1806 H1792 0.931 . S
C1806 C1805 1.385 . S
C1806 C1807 1.389 . S
C1807 C1806 1.389 . S
C1807 C1808 1.387 . S
C1808 H1793 0.930 . S
C1808 C1803 1.390 . S
C1808 C1807 1.387 . S
H1809 C1821 0.930 . S
H1810 C1823 0.930 . S
H1811 C1824 0.930 . S
H1812 C1828 0.959 . S
H1813 C1828 0.959 . S
H1814 C1828 0.961 . S
H1815 C1829 0.960 . S
H1816 C1829 0.961 . S
H1817 C1829 0.959 . S
H1818 C1832 0.929 . S
H1819 C1833 0.931 . S
H1820 C1835 0.930 . S
C1821 H1809 0.930 . S
C1821 C1822 1.399 . S
C1821 C1826 1.399 . S
C1822 C1821 1.399 . S
C1822 C1823 1.376 . S
C1823 H1810 0.930 . S
C1823 C1822 1.376 . S
C1823 C1824 1.388 . S
C1824 H1811 0.930 . S
C1824 C1823 1.388 . S
C1824 C1825 1.390 . S
C1825 C1824 1.390 . S
C1825 C1826 1.394 . S
C1825 C1831 1.465 . S
C1826 C1821 1.399 . S
C1826 C1825 1.394 . S
C1826 C1827 1.516 . S
C1827 C1826 1.516 . S
C1827 C1828 1.502 . S
C1827 C1829 1.561 . S
C1827 C1830 1.526 . S
C1828 H1812 0.959 . S
C1828 H1813 0.959 . S
C1828 H1814 0.961 . S
C1828 C1827 1.502 . S
C1829 H1815 0.960 . S
C1829 H1816 0.961 . S
C1829 H1817 0.959 . S
C1829 C1827 1.561 . S
C1830 C1827 1.526 . S
C1830 C1831 1.396 . S
C1830 C1835 1.390 . S
C1831 C1825 1.465 . S
C1831 C1830 1.396 . S
C1831 C1832 1.399 . S
C1832 H1818 0.929 . S
C1832 C1831 1.399 . S
C1832 C1833 1.385 . S
C1833 H1819 0.931 . S
C1833 C1832 1.385 . S
C1833 C1834 1.389 . S
C1834 C1833 1.389 . S
C1834 C1835 1.387 . S
C1835 H1820 0.930 . S
C1835 C1830 1.390 . S
C1835 C1834 1.387 . S
H1836 C1848 0.930 1_565 S
H1837 C1850 0.930 1_565 S
H1838 C1851 0.930 . S
H1839 C1855 0.959 . S
H1840 C1855 0.959 . S
H1841 C1855 0.961 . S
H1842 C1856 0.960 . S
H1843 C1856 0.961 . S
H1844 C1856 0.959 . S
H1845 C1859 0.929 . S
H1846 C1860 0.931 . S
H1847 C1862 0.930 . S
C1848 H1836 0.930 1_545 S
C1848 C1849 1.399 1_545 S
C1848 C1853 1.399 . S
C1849 C1848 1.399 1_565 S
C1849 C1850 1.376 1_565 S
C1850 H1837 0.930 1_545 S
C1850 C1849 1.376 1_545 S
C1850 C1851 1.388 . S
C1851 H1838 0.930 . S
C1851 C1850 1.388 . S
C1851 C1852 1.390 . S
C1852 C1851 1.390 . S
C1852 C1853 1.394 . S
C1852 C1858 1.465 . S
C1853 C1848 1.399 . S
C1853 C1852 1.394 . S
C1853 C1854 1.516 . S
C1854 C1853 1.516 . S
C1854 C1855 1.502 . S
C1854 C1856 1.561 . S
C1854 C1857 1.526 . S
C1855 H1839 0.959 . S
C1855 H1840 0.959 . S
C1855 H1841 0.961 . S
C1855 C1854 1.502 . S
C1856 H1842 0.960 . S
C1856 H1843 0.961 . S
C1856 H1844 0.959 . S
C1856 C1854 1.561 . S
C1857 C1854 1.526 . S
C1857 C1858 1.396 . S
C1857 C1862 1.390 . S
C1858 C1852 1.465 . S
C1858 C1857 1.396 . S
C1858 C1859 1.399 . S
C1859 H1845 0.929 . S
C1859 C1858 1.399 . S
C1859 C1860 1.385 . S
C1860 H1846 0.931 . S
C1860 C1859 1.385 . S
C1860 C1861 1.389 . S
C1861 C1860 1.389 . S
C1861 C1862 1.387 . S
C1862 H1847 0.930 . S
C1862 C1857 1.390 . S
C1862 C1861 1.387 . S
H1863 C1875 0.930 . S
H1864 C1877 0.930 . S
H1865 C1878 0.930 . S
H1866 C1882 0.959 . S
H1867 C1882 0.959 . S
H1868 C1882 0.961 . S
H1869 C1883 0.960 . S
H1870 C1883 0.961 . S
H1871 C1883 0.959 . S
H1872 C1886 0.929 . S
H1873 C1887 0.931 . S
H1874 C1889 0.930 . S
C1875 H1863 0.930 . S
C1875 C1876 1.399 . S
C1875 C1880 1.399 . S
C1876 C1875 1.399 . S
C1876 C1877 1.376 . S
C1877 H1864 0.930 . S
C1877 C1876 1.376 . S
C1877 C1878 1.388 . S
C1878 H1865 0.930 . S
C1878 C1877 1.388 . S
C1878 C1879 1.390 . S
C1879 C1878 1.390 . S
C1879 C1880 1.394 . S
C1879 C1885 1.465 . S
C1880 C1875 1.399 . S
C1880 C1879 1.394 . S
C1880 C1881 1.516 . S
C1881 C1880 1.516 . S
C1881 C1882 1.502 . S
C1881 C1883 1.561 . S
C1881 C1884 1.526 . S
C1882 H1866 0.959 . S
C1882 H1867 0.959 . S
C1882 H1868 0.961 . S
C1882 C1881 1.502 . S
C1883 H1869 0.960 . S
C1883 H1870 0.961 . S
C1883 H1871 0.959 . S
C1883 C1881 1.561 . S
C1884 C1881 1.526 . S
C1884 C1885 1.396 . S
C1884 C1889 1.390 . S
C1885 C1879 1.465 . S
C1885 C1884 1.396 . S
C1885 C1886 1.399 . S
C1886 H1872 0.929 . S
C1886 C1885 1.399 . S
C1886 C1887 1.385 . S
C1887 H1873 0.931 . S
C1887 C1886 1.385 . S
C1887 C1888 1.389 . S
C1888 C1887 1.389 . S
C1888 C1889 1.387 . S
C1889 H1874 0.930 . S
C1889 C1884 1.390 . S
C1889 C1888 1.387 . S
H1890 C1902 0.930 . S
H1891 C1904 0.930 . S
H1892 C1905 0.930 . S
H1893 C1909 0.959 . S
H1894 C1909 0.959 . S
H1895 C1909 0.961 . S
H1896 C1910 0.960 . S
H1897 C1910 0.961 . S
H1898 C1910 0.959 . S
H1899 C1913 0.929 . S
H1900 C1914 0.931 . S
H1901 C1916 0.930 . S
C1902 H1890 0.930 . S
C1902 C1903 1.399 . S
C1902 C1907 1.399 . S
C1903 C1902 1.399 . S
C1903 C1904 1.376 . S
C1904 H1891 0.930 . S
C1904 C1903 1.376 . S
C1904 C1905 1.388 . S
C1905 H1892 0.930 . S
C1905 C1904 1.388 . S
C1905 C1906 1.390 . S
C1906 C1905 1.390 . S
C1906 C1907 1.394 . S
C1906 C1912 1.465 . S
C1907 C1902 1.399 . S
C1907 C1906 1.394 . S
C1907 C1908 1.516 . S
C1908 C1907 1.516 . S
C1908 C1909 1.502 . S
C1908 C1910 1.561 . S
C1908 C1911 1.526 . S
C1909 H1893 0.959 . S
C1909 H1894 0.959 . S
C1909 H1895 0.961 . S
C1909 C1908 1.502 . S
C1910 H1896 0.960 . S
C1910 H1897 0.961 . S
C1910 H1898 0.959 . S
C1910 C1908 1.561 . S
C1911 C1908 1.526 . S
C1911 C1912 1.396 . S
C1911 C1916 1.390 . S
C1912 C1906 1.465 . S
C1912 C1911 1.396 . S
C1912 C1913 1.399 . S
C1913 H1899 0.929 . S
C1913 C1912 1.399 . S
C1913 C1914 1.385 . S
C1914 H1900 0.931 . S
C1914 C1913 1.385 . S
C1914 C1915 1.389 . S
C1915 C1914 1.389 . S
C1915 C1916 1.387 . S
C1916 H1901 0.930 . S
C1916 C1911 1.390 . S
C1916 C1915 1.387 . S
H1917 C1929 0.930 . S
H1918 C1931 0.930 . S
H1919 C1932 0.930 . S
H1920 C1936 0.959 . S
H1921 C1936 0.959 . S
H1922 C1936 0.961 . S
H1923 C1937 0.960 . S
H1924 C1937 0.961 . S
H1925 C1937 0.959 . S
H1926 C1940 0.929 . S
H1927 C1941 0.931 . S
H1928 C1943 0.930 . S
C1929 H1917 0.930 . S
C1929 C1930 1.399 . S
C1929 C1934 1.399 . S
C1930 C1929 1.399 . S
C1930 C1931 1.376 . S
C1931 H1918 0.930 . S
C1931 C1930 1.376 . S
C1931 C1932 1.388 . S
C1932 H1919 0.930 . S
C1932 C1931 1.388 . S
C1932 C1933 1.390 . S
C1933 C1932 1.390 . S
C1933 C1934 1.394 . S
C1933 C1939 1.465 . S
C1934 C1929 1.399 . S
C1934 C1933 1.394 . S
C1934 C1935 1.516 . S
C1935 C1934 1.516 . S
C1935 C1936 1.502 . S
C1935 C1937 1.561 . S
C1935 C1938 1.526 . S
C1936 H1920 0.959 . S
C1936 H1921 0.959 . S
C1936 H1922 0.961 . S
C1936 C1935 1.502 . S
C1937 H1923 0.960 . S
C1937 H1924 0.961 . S
C1937 H1925 0.959 . S
C1937 C1935 1.561 . S
C1938 C1935 1.526 . S
C1938 C1939 1.396 . S
C1938 C1943 1.390 . S
C1939 C1933 1.465 . S
C1939 C1938 1.396 . S
C1939 C1940 1.399 . S
C1940 H1926 0.929 . S
C1940 C1939 1.399 . S
C1940 C1941 1.385 . S
C1941 H1927 0.931 . S
C1941 C1940 1.385 . S
C1941 C1942 1.389 . S
C1942 C1941 1.389 . S
C1942 C1943 1.387 . S
C1943 H1928 0.930 . S
C1943 C1938 1.390 . S
C1943 C1942 1.387 . S
H1944 C1956 0.930 . S
H1945 C1958 0.930 . S
H1946 C1959 0.930 . S
H1947 C1963 0.959 . S
H1948 C1963 0.959 . S
H1949 C1963 0.961 . S
H1950 C1964 0.960 . S
H1951 C1964 0.961 . S
H1952 C1964 0.959 . S
H1953 C1967 0.929 . S
H1954 C1968 0.931 . S
H1955 C1970 0.930 . S
C1956 H1944 0.930 . S
C1956 C1957 1.399 . S
C1956 C1961 1.399 . S
C1957 C1956 1.399 . S
C1957 C1958 1.376 . S
C1958 H1945 0.930 . S
C1958 C1957 1.376 . S
C1958 C1959 1.388 . S
C1959 H1946 0.930 . S
C1959 C1958 1.388 . S
C1959 C1960 1.390 . S
C1960 C1959 1.390 . S
C1960 C1961 1.394 . S
C1960 C1966 1.465 . S
C1961 C1956 1.399 . S
C1961 C1960 1.394 . S
C1961 C1962 1.516 . S
C1962 C1961 1.516 . S
C1962 C1963 1.502 . S
C1962 C1964 1.561 . S
C1962 C1965 1.526 . S
C1963 H1947 0.959 . S
C1963 H1948 0.959 . S
C1963 H1949 0.961 . S
C1963 C1962 1.502 . S
C1964 H1950 0.960 . S
C1964 H1951 0.961 . S
C1964 H1952 0.959 . S
C1964 C1962 1.561 . S
C1965 C1962 1.526 . S
C1965 C1966 1.396 . S
C1965 C1970 1.390 . S
C1966 C1960 1.465 . S
C1966 C1965 1.396 . S
C1966 C1967 1.399 . S
C1967 H1953 0.929 . S
C1967 C1966 1.399 . S
C1967 C1968 1.385 . S
C1968 H1954 0.931 . S
C1968 C1967 1.385 . S
C1968 C1969 1.389 . S
C1969 C1968 1.389 . S
C1969 C1970 1.387 . S
C1970 H1955 0.930 . S
C1970 C1965 1.390 . S
C1970 C1969 1.387 . S
H1971 C1983 0.930 . S
H1972 C1985 0.930 . S
H1973 C1986 0.930 . S
H1974 C1990 0.959 . S
H1975 C1990 0.959 . S
H1976 C1990 0.961 . S
H1977 C1991 0.960 . S
H1978 C1991 0.961 . S
H1979 C1991 0.959 . S
H1980 C1994 0.929 . S
H1981 C1995 0.931 . S
H1982 C1997 0.930 . S
C1983 H1971 0.930 . S
C1983 C1984 1.399 . S
C1983 C1988 1.399 . S
C1984 C1983 1.399 . S
C1984 C1985 1.376 . S
C1985 H1972 0.930 . S
C1985 C1984 1.376 . S
C1985 C1986 1.388 . S
C1986 H1973 0.930 . S
C1986 C1985 1.388 . S
C1986 C1987 1.390 . S
C1987 C1986 1.390 . S
C1987 C1988 1.394 . S
C1987 C1993 1.465 . S
C1988 C1983 1.399 . S
C1988 C1987 1.394 . S
C1988 C1989 1.516 . S
C1989 C1988 1.516 . S
C1989 C1990 1.502 . S
C1989 C1991 1.561 . S
C1989 C1992 1.526 . S
C1990 H1974 0.959 . S
C1990 H1975 0.959 . S
C1990 H1976 0.961 . S
C1990 C1989 1.502 . S
C1991 H1977 0.960 . S
C1991 H1978 0.961 . S
C1991 H1979 0.959 . S
C1991 C1989 1.561 . S
C1992 C1989 1.526 . S
C1992 C1993 1.396 . S
C1992 C1997 1.390 . S
C1993 C1987 1.465 . S
C1993 C1992 1.396 . S
C1993 C1994 1.399 . S
C1994 H1980 0.929 . S
C1994 C1993 1.399 . S
C1994 C1995 1.385 . S
C1995 H1981 0.931 . S
C1995 C1994 1.385 . S
C1995 C1996 1.389 . S
C1996 C1995 1.389 . S
C1996 C1997 1.387 . S
C1997 H1982 0.930 . S
C1997 C1992 1.390 . S
C1997 C1996 1.387 . S
H1998 C2010 0.930 . S
H1999 C2012 0.930 . S
H2000 C2013 0.930 . S
H2001 C2017 0.959 . S
H2002 C2017 0.959 . S
H2003 C2017 0.961 . S
H2004 C2018 0.960 . S
H2005 C2018 0.961 . S
H2006 C2018 0.959 . S
H2007 C2021 0.929 . S
H2008 C2022 0.931 . S
H2009 C2024 0.930 . S
C2010 H1998 0.930 . S
C2010 C2011 1.399 . S
C2010 C2015 1.399 . S
C2011 C2010 1.399 . S
C2011 C2012 1.376 . S
C2012 H1999 0.930 . S
C2012 C2011 1.376 . S
C2012 C2013 1.388 . S
C2013 H2000 0.930 . S
C2013 C2012 1.388 . S
C2013 C2014 1.390 . S
C2014 C2013 1.390 . S
C2014 C2015 1.394 . S
C2014 C2020 1.465 . S
C2015 C2010 1.399 . S
C2015 C2014 1.394 . S
C2015 C2016 1.516 . S
C2016 C2015 1.516 . S
C2016 C2017 1.502 . S
C2016 C2018 1.561 . S
C2016 C2019 1.526 . S
C2017 H2001 0.959 . S
C2017 H2002 0.959 . S
C2017 H2003 0.961 . S
C2017 C2016 1.502 . S
C2018 H2004 0.960 . S
C2018 H2005 0.961 . S
C2018 H2006 0.959 . S
C2018 C2016 1.561 . S
C2019 C2016 1.526 . S
C2019 C2020 1.396 . S
C2019 C2024 1.390 . S
C2020 C2014 1.465 . S
C2020 C2019 1.396 . S
C2020 C2021 1.399 . S
C2021 H2007 0.929 . S
C2021 C2020 1.399 . S
C2021 C2022 1.385 . S
C2022 H2008 0.931 . S
C2022 C2021 1.385 . S
C2022 C2023 1.389 . S
C2023 C2022 1.389 . S
C2023 C2024 1.387 . S
C2024 H2009 0.930 . S
C2024 C2019 1.390 . S
C2024 C2023 1.387 . S
H2025 C2037 0.930 . S
H2026 C2039 0.930 . S
H2027 C2040 0.930 . S
H2028 C2044 0.959 . S
H2029 C2044 0.959 . S
H2030 C2044 0.961 . S
H2031 C2045 0.960 . S
H2032 C2045 0.961 . S
H2033 C2045 0.959 . S
H2034 C2048 0.929 . S
H2035 C2049 0.931 . S
H2036 C2051 0.930 . S
C2037 H2025 0.930 . S
C2037 C2038 1.399 . S
C2037 C2042 1.399 . S
C2038 C2037 1.399 . S
C2038 C2039 1.376 . S
C2039 H2026 0.930 . S
C2039 C2038 1.376 . S
C2039 C2040 1.388 . S
C2040 H2027 0.930 . S
C2040 C2039 1.388 . S
C2040 C2041 1.390 . S
C2041 C2040 1.390 . S
C2041 C2042 1.394 . S
C2041 C2047 1.465 . S
C2042 C2037 1.399 . S
C2042 C2041 1.394 . S
C2042 C2043 1.516 . S
C2043 C2042 1.516 . S
C2043 C2044 1.502 . S
C2043 C2045 1.561 . S
C2043 C2046 1.526 . S
C2044 H2028 0.959 . S
C2044 H2029 0.959 . S
C2044 H2030 0.961 . S
C2044 C2043 1.502 . S
C2045 H2031 0.960 . S
C2045 H2032 0.961 . S
C2045 H2033 0.959 . S
C2045 C2043 1.561 . S
C2046 C2043 1.526 . S
C2046 C2047 1.396 . S
C2046 C2051 1.390 . S
C2047 C2041 1.465 . S
C2047 C2046 1.396 . S
C2047 C2048 1.399 . S
C2048 H2034 0.929 . S
C2048 C2047 1.399 . S
C2048 C2049 1.385 . S
C2049 H2035 0.931 . S
C2049 C2048 1.385 . S
C2049 C2050 1.389 . S
C2050 C2049 1.389 . S
C2050 C2051 1.387 . S
C2051 H2036 0.930 . S
C2051 C2046 1.390 . S
C2051 C2050 1.387 . S
H2052 C2064 0.930 . S
H2053 C2066 0.930 . S
H2054 C2067 0.930 . S
H2055 C2071 0.959 . S
H2056 C2071 0.959 . S
H2057 C2071 0.961 . S
H2058 C2072 0.960 . S
H2059 C2072 0.961 . S
H2060 C2072 0.959 . S
H2061 C2075 0.929 . S
H2062 C2076 0.931 . S
H2063 C2078 0.930 . S
C2064 H2052 0.930 . S
C2064 C2065 1.399 . S
C2064 C2069 1.399 . S
C2065 C2064 1.399 . S
C2065 C2066 1.376 . S
C2066 H2053 0.930 . S
C2066 C2065 1.376 . S
C2066 C2067 1.388 . S
C2067 H2054 0.930 . S
C2067 C2066 1.388 . S
C2067 C2068 1.390 . S
C2068 C2067 1.390 . S
C2068 C2069 1.394 . S
C2068 C2074 1.465 . S
C2069 C2064 1.399 . S
C2069 C2068 1.394 . S
C2069 C2070 1.516 . S
C2070 C2069 1.516 . S
C2070 C2071 1.502 . S
C2070 C2072 1.561 . S
C2070 C2073 1.526 . S
C2071 H2055 0.959 . S
C2071 H2056 0.959 . S
C2071 H2057 0.961 . S
C2071 C2070 1.502 . S
C2072 H2058 0.960 . S
C2072 H2059 0.961 . S
C2072 H2060 0.959 . S
C2072 C2070 1.561 . S
C2073 C2070 1.526 . S
C2073 C2074 1.396 . S
C2073 C2078 1.390 . S
C2074 C2068 1.465 . S
C2074 C2073 1.396 . S
C2074 C2075 1.399 . S
C2075 H2061 0.929 . S
C2075 C2074 1.399 . S
C2075 C2076 1.385 . S
C2076 H2062 0.931 . S
C2076 C2075 1.385 . S
C2076 C2077 1.389 . S
C2077 C2076 1.389 . S
C2077 C2078 1.387 . S
C2078 H2063 0.930 . S
C2078 C2073 1.390 . S
C2078 C2077 1.387 . S
H2079 C2091 0.930 . S
H2080 C2093 0.930 . S
H2081 C2094 0.930 . S
H2082 C2098 0.959 . S
H2083 C2098 0.959 . S
H2084 C2098 0.961 . S
H2085 C2099 0.960 . S
H2086 C2099 0.961 . S
H2087 C2099 0.959 . S
H2088 C2102 0.929 . S
H2089 C2103 0.931 . S
H2090 C2105 0.930 . S
C2091 H2079 0.930 . S
C2091 C2092 1.399 . S
C2091 C2096 1.399 . S
C2092 C2091 1.399 . S
C2092 C2093 1.376 . S
C2093 H2080 0.930 . S
C2093 C2092 1.376 . S
C2093 C2094 1.388 . S
C2094 H2081 0.930 . S
C2094 C2093 1.388 . S
C2094 C2095 1.390 . S
C2095 C2094 1.390 . S
C2095 C2096 1.394 . S
C2095 C2101 1.465 . S
C2096 C2091 1.399 . S
C2096 C2095 1.394 . S
C2096 C2097 1.516 . S
C2097 C2096 1.516 . S
C2097 C2098 1.502 . S
C2097 C2099 1.561 . S
C2097 C2100 1.526 . S
C2098 H2082 0.959 . S
C2098 H2083 0.959 . S
C2098 H2084 0.961 . S
C2098 C2097 1.502 . S
C2099 H2085 0.960 . S
C2099 H2086 0.961 . S
C2099 H2087 0.959 . S
C2099 C2097 1.561 . S
C2100 C2097 1.526 . S
C2100 C2101 1.396 . S
C2100 C2105 1.390 . S
C2101 C2095 1.465 . S
C2101 C2100 1.396 . S
C2101 C2102 1.399 . S
C2102 H2088 0.929 . S
C2102 C2101 1.399 . S
C2102 C2103 1.385 . S
C2103 H2089 0.931 . S
C2103 C2102 1.385 . S
C2103 C2104 1.389 . S
C2104 C2103 1.389 . S
C2104 C2105 1.387 . S
C2105 H2090 0.930 . S
C2105 C2100 1.390 . S
C2105 C2104 1.387 . S
H2106 C2118 0.930 . S
H2107 C2120 0.930 . S
H2108 C2121 0.930 . S
H2109 C2125 0.959 . S
H2110 C2125 0.959 . S
H2111 C2125 0.961 . S
H2112 C2126 0.960 . S
H2113 C2126 0.961 . S
H2114 C2126 0.959 . S
H2115 C2129 0.929 . S
H2116 C2130 0.931 . S
H2117 C2132 0.930 . S
C2118 H2106 0.930 . S
C2118 C2119 1.399 . S
C2118 C2123 1.399 . S
C2119 C2118 1.399 . S
C2119 C2120 1.376 . S
C2120 H2107 0.930 . S
C2120 C2119 1.376 . S
C2120 C2121 1.388 . S
C2121 H2108 0.930 . S
C2121 C2120 1.388 . S
C2121 C2122 1.390 . S
C2122 C2121 1.390 . S
C2122 C2123 1.394 . S
C2122 C2128 1.465 . S
C2123 C2118 1.399 . S
C2123 C2122 1.394 . S
C2123 C2124 1.516 . S
C2124 C2123 1.516 . S
C2124 C2125 1.502 . S
C2124 C2126 1.561 . S
C2124 C2127 1.526 . S
C2125 H2109 0.959 . S
C2125 H2110 0.959 . S
C2125 H2111 0.961 . S
C2125 C2124 1.502 . S
C2126 H2112 0.960 . S
C2126 H2113 0.961 . S
C2126 H2114 0.959 . S
C2126 C2124 1.561 . S
C2127 C2124 1.526 . S
C2127 C2128 1.396 . S
C2127 C2132 1.390 . S
C2128 C2122 1.465 . S
C2128 C2127 1.396 . S
C2128 C2129 1.399 . S
C2129 H2115 0.929 . S
C2129 C2128 1.399 . S
C2129 C2130 1.385 . S
C2130 H2116 0.931 . S
C2130 C2129 1.385 . S
C2130 C2131 1.389 . S
C2131 C2130 1.389 . S
C2131 C2132 1.387 . S
C2132 H2117 0.930 . S
C2132 C2127 1.390 . S
C2132 C2131 1.387 . S
H2133 C2145 0.930 . S
H2134 C2147 0.930 . S
H2135 C2148 0.930 . S
H2136 C2152 0.959 . S
H2137 C2152 0.959 . S
H2138 C2152 0.961 . S
H2139 C2153 0.960 . S
H2140 C2153 0.961 . S
H2141 C2153 0.959 . S
H2142 C2156 0.929 . S
H2143 C2157 0.931 . S
H2144 C2159 0.930 . S
C2145 H2133 0.930 . S
C2145 C2146 1.399 . S
C2145 C2150 1.399 . S
C2146 C2145 1.399 . S
C2146 C2147 1.376 . S
C2147 H2134 0.930 . S
C2147 C2146 1.376 . S
C2147 C2148 1.388 . S
C2148 H2135 0.930 . S
C2148 C2147 1.388 . S
C2148 C2149 1.390 . S
C2149 C2148 1.390 . S
C2149 C2150 1.394 . S
C2149 C2155 1.465 . S
C2150 C2145 1.399 . S
C2150 C2149 1.394 . S
C2150 C2151 1.516 . S
C2151 C2150 1.516 . S
C2151 C2152 1.502 . S
C2151 C2153 1.561 . S
C2151 C2154 1.526 . S
C2152 H2136 0.959 . S
C2152 H2137 0.959 . S
C2152 H2138 0.961 . S
C2152 C2151 1.502 . S
C2153 H2139 0.960 . S
C2153 H2140 0.961 . S
C2153 H2141 0.959 . S
C2153 C2151 1.561 . S
C2154 C2151 1.526 . S
C2154 C2155 1.396 . S
C2154 C2159 1.390 . S
C2155 C2149 1.465 . S
C2155 C2154 1.396 . S
C2155 C2156 1.399 . S
C2156 H2142 0.929 . S
C2156 C2155 1.399 . S
C2156 C2157 1.385 . S
C2157 H2143 0.931 . S
C2157 C2156 1.385 . S
C2157 C2158 1.389 . S
C2158 C2157 1.389 . S
C2158 C2159 1.387 . S
C2159 H2144 0.930 . S
C2159 C2154 1.390 . S
C2159 C2158 1.387 . S
H2160 C2172 0.930 . S
H2161 C2174 0.930 . S
H2162 C2175 0.930 . S
H2163 C2179 0.959 . S
H2164 C2179 0.959 . S
H2165 C2179 0.961 . S
H2166 C2180 0.960 . S
H2167 C2180 0.961 . S
H2168 C2180 0.959 . S
H2169 C2183 0.929 . S
H2170 C2184 0.931 . S
H2171 C2186 0.930 . S
C2172 H2160 0.930 . S
C2172 C2173 1.399 . S
C2172 C2177 1.399 . S
C2173 C2172 1.399 . S
C2173 C2174 1.376 . S
C2174 H2161 0.930 . S
C2174 C2173 1.376 . S
C2174 C2175 1.388 . S
C2175 H2162 0.930 . S
C2175 C2174 1.388 . S
C2175 C2176 1.390 . S
C2176 C2175 1.390 . S
C2176 C2177 1.394 . S
C2176 C2182 1.465 . S
C2177 C2172 1.399 . S
C2177 C2176 1.394 . S
C2177 C2178 1.516 . S
C2178 C2177 1.516 . S
C2178 C2179 1.502 . S
C2178 C2180 1.561 . S
C2178 C2181 1.526 . S
C2179 H2163 0.959 . S
C2179 H2164 0.959 . S
C2179 H2165 0.961 . S
C2179 C2178 1.502 . S
C2180 H2166 0.960 . S
C2180 H2167 0.961 . S
C2180 H2168 0.959 . S
C2180 C2178 1.561 . S
C2181 C2178 1.526 . S
C2181 C2182 1.396 . S
C2181 C2186 1.390 . S
C2182 C2176 1.465 . S
C2182 C2181 1.396 . S
C2182 C2183 1.399 . S
C2183 H2169 0.929 . S
C2183 C2182 1.399 . S
C2183 C2184 1.385 . S
C2184 H2170 0.931 . S
C2184 C2183 1.385 . S
C2184 C2185 1.389 . S
C2185 C2184 1.389 . S
C2185 C2186 1.387 . S
C2186 H2171 0.930 . S
C2186 C2181 1.390 . S
C2186 C2185 1.387 . S
H2187 C2199 0.930 . S
H2188 C2201 0.930 . S
H2189 C2202 0.930 . S
H2190 C2206 0.959 . S
H2191 C2206 0.959 . S
H2192 C2206 0.961 . S
H2193 C2207 0.960 . S
H2194 C2207 0.961 . S
H2195 C2207 0.959 . S
H2196 C2210 0.929 . S
H2197 C2211 0.931 . S
H2198 C2213 0.930 . S
C2199 H2187 0.930 . S
C2199 C2200 1.399 . S
C2199 C2204 1.399 . S
C2200 C2199 1.399 . S
C2200 C2201 1.376 . S
C2201 H2188 0.930 . S
C2201 C2200 1.376 . S
C2201 C2202 1.388 . S
C2202 H2189 0.930 . S
C2202 C2201 1.388 . S
C2202 C2203 1.390 . S
C2203 C2202 1.390 . S
C2203 C2204 1.394 . S
C2203 C2209 1.465 . S
C2204 C2199 1.399 . S
C2204 C2203 1.394 . S
C2204 C2205 1.516 . S
C2205 C2204 1.516 . S
C2205 C2206 1.502 . S
C2205 C2207 1.561 . S
C2205 C2208 1.526 . S
C2206 H2190 0.959 . S
C2206 H2191 0.959 . S
C2206 H2192 0.961 . S
C2206 C2205 1.502 . S
C2207 H2193 0.960 . S
C2207 H2194 0.961 . S
C2207 H2195 0.959 . S
C2207 C2205 1.561 . S
C2208 C2205 1.526 . S
C2208 C2209 1.396 . S
C2208 C2213 1.390 . S
C2209 C2203 1.465 . S
C2209 C2208 1.396 . S
C2209 C2210 1.399 . S
C2210 H2196 0.929 . S
C2210 C2209 1.399 . S
C2210 C2211 1.385 . S
C2211 H2197 0.931 . S
C2211 C2210 1.385 . S
C2211 C2212 1.389 . S
C2212 C2211 1.389 . S
C2212 C2213 1.387 . S
C2213 H2198 0.930 . S
C2213 C2208 1.390 . S
C2213 C2212 1.387 . S
H2214 C2226 0.930 . S
H2215 C2228 0.930 . S
H2216 C2229 0.930 . S
H2217 C2233 0.959 . S
H2218 C2233 0.959 . S
H2219 C2233 0.961 . S
H2220 C2234 0.960 . S
H2221 C2234 0.961 . S
H2222 C2234 0.959 . S
H2223 C2237 0.929 . S
H2224 C2238 0.931 . S
H2225 C2240 0.930 . S
C2226 H2214 0.930 . S
C2226 C2227 1.399 . S
C2226 C2231 1.399 . S
C2227 C2226 1.399 . S
C2227 C2228 1.376 . S
C2228 H2215 0.930 . S
C2228 C2227 1.376 . S
C2228 C2229 1.388 . S
C2229 H2216 0.930 . S
C2229 C2228 1.388 . S
C2229 C2230 1.390 . S
C2230 C2229 1.390 . S
C2230 C2231 1.394 . S
C2230 C2236 1.465 . S
C2231 C2226 1.399 . S
C2231 C2230 1.394 . S
C2231 C2232 1.516 . S
C2232 C2231 1.516 . S
C2232 C2233 1.502 . S
C2232 C2234 1.561 . S
C2232 C2235 1.526 . S
C2233 H2217 0.959 . S
C2233 H2218 0.959 . S
C2233 H2219 0.961 . S
C2233 C2232 1.502 . S
C2234 H2220 0.960 . S
C2234 H2221 0.961 . S
C2234 H2222 0.959 . S
C2234 C2232 1.561 . S
C2235 C2232 1.526 . S
C2235 C2236 1.396 . S
C2235 C2240 1.390 . S
C2236 C2230 1.465 . S
C2236 C2235 1.396 . S
C2236 C2237 1.399 . S
C2237 H2223 0.929 . S
C2237 C2236 1.399 . S
C2237 C2238 1.385 . S
C2238 H2224 0.931 . S
C2238 C2237 1.385 . S
C2238 C2239 1.389 . S
C2239 C2238 1.389 . S
C2239 C2240 1.387 . S
C2240 H2225 0.930 . S
C2240 C2235 1.390 . S
C2240 C2239 1.387 . S
H2241 C2253 0.930 . S
H2242 C2255 0.930 . S
H2243 C2256 0.930 . S
H2244 C2260 0.959 . S
H2245 C2260 0.959 . S
H2246 C2260 0.961 . S
H2247 C2261 0.960 . S
H2248 C2261 0.961 . S
H2249 C2261 0.959 . S
H2250 C2264 0.929 . S
H2251 C2265 0.931 . S
H2252 C2267 0.930 . S
C2253 H2241 0.930 . S
C2253 C2254 1.399 . S
C2253 C2258 1.399 . S
C2254 C2253 1.399 . S
C2254 C2255 1.376 . S
C2255 H2242 0.930 . S
C2255 C2254 1.376 . S
C2255 C2256 1.388 . S
C2256 H2243 0.930 . S
C2256 C2255 1.388 . S
C2256 C2257 1.390 . S
C2257 C2256 1.390 . S
C2257 C2258 1.394 . S
C2257 C2263 1.465 . S
C2258 C2253 1.399 . S
C2258 C2257 1.394 . S
C2258 C2259 1.516 . S
C2259 C2258 1.516 . S
C2259 C2260 1.502 . S
C2259 C2261 1.561 . S
C2259 C2262 1.526 . S
C2260 H2244 0.959 . S
C2260 H2245 0.959 . S
C2260 H2246 0.961 . S
C2260 C2259 1.502 . S
C2261 H2247 0.960 . S
C2261 H2248 0.961 . S
C2261 H2249 0.959 . S
C2261 C2259 1.561 . S
C2262 C2259 1.526 . S
C2262 C2263 1.396 . S
C2262 C2267 1.390 . S
C2263 C2257 1.465 . S
C2263 C2262 1.396 . S
C2263 C2264 1.399 . S
C2264 H2250 0.929 . S
C2264 C2263 1.399 . S
C2264 C2265 1.385 . S
C2265 H2251 0.931 . S
C2265 C2264 1.385 . S
C2265 C2266 1.389 . S
C2266 C2265 1.389 . S
C2266 C2267 1.387 . S
C2267 H2252 0.930 . S
C2267 C2262 1.390 . S
C2267 C2266 1.387 . S
H2268 C2280 0.930 . S
H2269 C2282 0.930 . S
H2270 C2283 0.930 . S
H2271 C2287 0.959 . S
H2272 C2287 0.959 . S
H2273 C2287 0.961 . S
H2274 C2288 0.960 . S
H2275 C2288 0.961 . S
H2276 C2288 0.959 . S
H2277 C2291 0.929 . S
H2278 C2292 0.931 . S
H2279 C2294 0.930 . S
C2280 H2268 0.930 . S
C2280 C2281 1.399 . S
C2280 C2285 1.399 . S
C2281 C2280 1.399 . S
C2281 C2282 1.376 . S
C2282 H2269 0.930 . S
C2282 C2281 1.376 . S
C2282 C2283 1.388 . S
C2283 H2270 0.930 . S
C2283 C2282 1.388 . S
C2283 C2284 1.390 . S
C2284 C2283 1.390 . S
C2284 C2285 1.394 . S
C2284 C2290 1.465 . S
C2285 C2280 1.399 . S
C2285 C2284 1.394 . S
C2285 C2286 1.516 . S
C2286 C2285 1.516 . S
C2286 C2287 1.502 . S
C2286 C2288 1.561 . S
C2286 C2289 1.526 . S
C2287 H2271 0.959 . S
C2287 H2272 0.959 . S
C2287 H2273 0.961 . S
C2287 C2286 1.502 . S
C2288 H2274 0.960 . S
C2288 H2275 0.961 . S
C2288 H2276 0.959 . S
C2288 C2286 1.561 . S
C2289 C2286 1.526 . S
C2289 C2290 1.396 . S
C2289 C2294 1.390 . S
C2290 C2284 1.465 . S
C2290 C2289 1.396 . S
C2290 C2291 1.399 . S
C2291 H2277 0.929 . S
C2291 C2290 1.399 . S
C2291 C2292 1.385 . S
C2292 H2278 0.931 . S
C2292 C2291 1.385 . S
C2292 C2293 1.389 . S
C2293 C2292 1.389 . S
C2293 C2294 1.387 . S
C2294 H2279 0.930 . S
C2294 C2289 1.390 . S
C2294 C2293 1.387 . S
H2295 C2307 0.930 . S
H2296 C2309 0.930 . S
H2297 C2310 0.930 . S
H2298 C2314 0.959 . S
H2299 C2314 0.959 . S
H2300 C2314 0.961 . S
H2301 C2315 0.960 . S
H2302 C2315 0.961 . S
H2303 C2315 0.959 . S
H2304 C2318 0.929 . S
H2305 C2319 0.931 . S
H2306 C2321 0.930 . S
C2307 H2295 0.930 . S
C2307 C2308 1.399 . S
C2307 C2312 1.399 . S
C2308 C2307 1.399 . S
C2308 C2309 1.376 . S
C2309 H2296 0.930 . S
C2309 C2308 1.376 . S
C2309 C2310 1.388 . S
C2310 H2297 0.930 . S
C2310 C2309 1.388 . S
C2310 C2311 1.390 . S
C2311 C2310 1.390 . S
C2311 C2312 1.394 . S
C2311 C2317 1.465 . S
C2312 C2307 1.399 . S
C2312 C2311 1.394 . S
C2312 C2313 1.516 . S
C2313 C2312 1.516 . S
C2313 C2314 1.502 . S
C2313 C2315 1.561 . S
C2313 C2316 1.526 . S
C2314 H2298 0.959 . S
C2314 H2299 0.959 . S
C2314 H2300 0.961 . S
C2314 C2313 1.502 . S
C2315 H2301 0.960 . S
C2315 H2302 0.961 . S
C2315 H2303 0.959 . S
C2315 C2313 1.561 . S
C2316 C2313 1.526 . S
C2316 C2317 1.396 . S
C2316 C2321 1.390 . S
C2317 C2311 1.465 . S
C2317 C2316 1.396 . S
C2317 C2318 1.399 . S
C2318 H2304 0.929 . S
C2318 C2317 1.399 . S
C2318 C2319 1.385 . S
C2319 H2305 0.931 . S
C2319 C2318 1.385 . S
C2319 C2320 1.389 . S
C2320 C2319 1.389 . S
C2320 C2321 1.387 . S
C2321 H2306 0.930 . S
C2321 C2316 1.390 . S
C2321 C2320 1.387 . S
H2322 C2334 0.930 . S
H2323 C2336 0.930 . S
H2324 C2337 0.930 . S
H2325 C2341 0.959 . S
H2326 C2341 0.959 . S
H2327 C2341 0.961 . S
H2328 C2342 0.960 . S
H2329 C2342 0.961 . S
H2330 C2342 0.959 . S
H2331 C2345 0.929 . S
H2332 C2346 0.931 . S
H2333 C2348 0.930 . S
C2334 H2322 0.930 . S
C2334 C2335 1.399 . S
C2334 C2339 1.399 . S
C2335 C2334 1.399 . S
C2335 C2336 1.376 . S
C2336 H2323 0.930 . S
C2336 C2335 1.376 . S
C2336 C2337 1.388 . S
C2337 H2324 0.930 . S
C2337 C2336 1.388 . S
C2337 C2338 1.390 . S
C2338 C2337 1.390 . S
C2338 C2339 1.394 . S
C2338 C2344 1.465 . S
C2339 C2334 1.399 . S
C2339 C2338 1.394 . S
C2339 C2340 1.516 . S
C2340 C2339 1.516 . S
C2340 C2341 1.502 . S
C2340 C2342 1.561 . S
C2340 C2343 1.526 . S
C2341 H2325 0.959 . S
C2341 H2326 0.959 . S
C2341 H2327 0.961 . S
C2341 C2340 1.502 . S
C2342 H2328 0.960 . S
C2342 H2329 0.961 . S
C2342 H2330 0.959 . S
C2342 C2340 1.561 . S
C2343 C2340 1.526 . S
C2343 C2344 1.396 . S
C2343 C2348 1.390 . S
C2344 C2338 1.465 . S
C2344 C2343 1.396 . S
C2344 C2345 1.399 . S
C2345 H2331 0.929 . S
C2345 C2344 1.399 . S
C2345 C2346 1.385 . S
C2346 H2332 0.931 . S
C2346 C2345 1.385 . S
C2346 C2347 1.389 . S
C2347 C2346 1.389 . S
C2347 C2348 1.387 . S
C2348 H2333 0.930 . S
C2348 C2343 1.390 . S
C2348 C2347 1.387 . S
H2349 C2361 0.930 . S
H2350 C2363 0.930 . S
H2351 C2364 0.930 . S
H2352 C2368 0.959 . S
H2353 C2368 0.959 . S
H2354 C2368 0.961 . S
H2355 C2369 0.960 . S
H2356 C2369 0.961 . S
H2357 C2369 0.959 . S
H2358 C2372 0.929 . S
H2359 C2373 0.931 . S
H2360 C2375 0.930 . S
C2361 H2349 0.930 . S
C2361 C2362 1.399 . S
C2361 C2366 1.399 . S
C2362 C2361 1.399 . S
C2362 C2363 1.376 . S
C2363 H2350 0.930 . S
C2363 C2362 1.376 . S
C2363 C2364 1.388 . S
C2364 H2351 0.930 . S
C2364 C2363 1.388 . S
C2364 C2365 1.390 . S
C2365 C2364 1.390 . S
C2365 C2366 1.394 . S
C2365 C2371 1.465 . S
C2366 C2361 1.399 . S
C2366 C2365 1.394 . S
C2366 C2367 1.516 . S
C2367 C2366 1.516 . S
C2367 C2368 1.502 . S
C2367 C2369 1.561 . S
C2367 C2370 1.526 . S
C2368 H2352 0.959 . S
C2368 H2353 0.959 . S
C2368 H2354 0.961 . S
C2368 C2367 1.502 . S
C2369 H2355 0.960 . S
C2369 H2356 0.961 . S
C2369 H2357 0.959 . S
C2369 C2367 1.561 . S
C2370 C2367 1.526 . S
C2370 C2371 1.396 . S
C2370 C2375 1.390 . S
C2371 C2365 1.465 . S
C2371 C2370 1.396 . S
C2371 C2372 1.399 . S
C2372 H2358 0.929 . S
C2372 C2371 1.399 . S
C2372 C2373 1.385 . S
C2373 H2359 0.931 . S
C2373 C2372 1.385 . S
C2373 C2374 1.389 . S
C2374 C2373 1.389 . S
C2374 C2375 1.387 . S
C2375 H2360 0.930 . S
C2375 C2370 1.390 . S
C2375 C2374 1.387 . S
H2376 C2388 0.930 . S
H2377 C2390 0.930 . S
H2378 C2391 0.930 . S
H2379 C2395 0.959 . S
H2380 C2395 0.959 . S
H2381 C2395 0.961 . S
H2382 C2396 0.960 . S
H2383 C2396 0.961 . S
H2384 C2396 0.959 . S
H2385 C2399 0.929 . S
H2386 C2400 0.931 . S
H2387 C2402 0.930 . S
C2388 H2376 0.930 . S
C2388 C2389 1.399 . S
C2388 C2393 1.399 . S
C2389 C2388 1.399 . S
C2389 C2390 1.376 . S
C2390 H2377 0.930 . S
C2390 C2389 1.376 . S
C2390 C2391 1.388 . S
C2391 H2378 0.930 . S
C2391 C2390 1.388 . S
C2391 C2392 1.390 . S
C2392 C2391 1.390 . S
C2392 C2393 1.394 . S
C2392 C2398 1.465 . S
C2393 C2388 1.399 . S
C2393 C2392 1.394 . S
C2393 C2394 1.516 . S
C2394 C2393 1.516 . S
C2394 C2395 1.502 . S
C2394 C2396 1.561 . S
C2394 C2397 1.526 . S
C2395 H2379 0.959 . S
C2395 H2380 0.959 . S
C2395 H2381 0.961 . S
C2395 C2394 1.502 . S
C2396 H2382 0.960 . S
C2396 H2383 0.961 . S
C2396 H2384 0.959 . S
C2396 C2394 1.561 . S
C2397 C2394 1.526 . S
C2397 C2398 1.396 . S
C2397 C2402 1.390 . S
C2398 C2392 1.465 . S
C2398 C2397 1.396 . S
C2398 C2399 1.399 . S
C2399 H2385 0.929 . S
C2399 C2398 1.399 . S
C2399 C2400 1.385 . S
C2400 H2386 0.931 . S
C2400 C2399 1.385 . S
C2400 C2401 1.389 . S
C2401 C2400 1.389 . S
C2401 C2402 1.387 . S
C2402 H2387 0.930 . S
C2402 C2397 1.390 . S
C2402 C2401 1.387 . S
H2403 C2415 0.930 . S
H2404 C2417 0.930 . S
H2405 C2418 0.930 . S
H2406 C2422 0.959 . S
H2407 C2422 0.959 . S
H2408 C2422 0.961 . S
H2409 C2423 0.960 . S
H2410 C2423 0.961 . S
H2411 C2423 0.959 . S
H2412 C2426 0.929 . S
H2413 C2427 0.931 . S
H2414 C2429 0.930 . S
C2415 H2403 0.930 . S
C2415 C2416 1.399 . S
C2415 C2420 1.399 . S
C2416 C2415 1.399 . S
C2416 C2417 1.376 . S
C2417 H2404 0.930 . S
C2417 C2416 1.376 . S
C2417 C2418 1.388 . S
C2418 H2405 0.930 . S
C2418 C2417 1.388 . S
C2418 C2419 1.390 . S
C2419 C2418 1.390 . S
C2419 C2420 1.394 . S
C2419 C2425 1.465 . S
C2420 C2415 1.399 . S
C2420 C2419 1.394 . S
C2420 C2421 1.516 . S
C2421 C2420 1.516 . S
C2421 C2422 1.502 . S
C2421 C2423 1.561 . S
C2421 C2424 1.526 . S
C2422 H2406 0.959 . S
C2422 H2407 0.959 . S
C2422 H2408 0.961 . S
C2422 C2421 1.502 . S
C2423 H2409 0.960 . S
C2423 H2410 0.961 . S
C2423 H2411 0.959 . S
C2423 C2421 1.561 . S
C2424 C2421 1.526 . S
C2424 C2425 1.396 . S
C2424 C2429 1.390 . S
C2425 C2419 1.465 . S
C2425 C2424 1.396 . S
C2425 C2426 1.399 . S
C2426 H2412 0.929 . S
C2426 C2425 1.399 . S
C2426 C2427 1.385 . S
C2427 H2413 0.931 . S
C2427 C2426 1.385 . S
C2427 C2428 1.389 . S
C2428 C2427 1.389 . S
C2428 C2429 1.387 . S
C2429 H2414 0.930 . S
C2429 C2424 1.390 . S
C2429 C2428 1.387 . S
C985 C162 1.451 . S
C997 C272 1.399 . S
C1012 C174 1.469 . S
C1024 C356 1.433 . S
C1039 C150 1.431 . S
C1051 C450 1.422 . S
C1066 C138 1.411 . S
C1078 C366 1.410 1_556 S
C1105 C440 1.369 . S
C1093 C114 1.435 . S
C1120 C126 1.399 . S
C1132 C282 1.376 1_556 S
C1159 C283 1.456 . S
C1147 C136 1.508 . S
C1186 C367 1.460 . S
C1174 C112 1.519 . S
C1201 C124 1.483 . S
C1213 C459 1.505 1_556 S
C1228 C160 1.499 . S
C1240 C375 1.421 . S
C1255 C172 1.490 . S
C1267 C451 1.454 . S
C1294 C291 1.461 . S
C1282 C148 1.438 . S
C1321 C524 1.356 . S
C1309 C18 1.433 . S
C1336 C30 1.478 . S
C1348 C608 1.422 . S
C1363 C6 1.454 . S
C1375 C702 1.423 . S
C1390 C210 1.438 . S
C1402 C618 1.416 . S
C1417 C186 1.418 . S
C1429 C692 1.355 . S
C1444 C198 1.413 . S
C1456 C534 1.383 . S
C1471 C208 1.465 . S
C1483 C535 1.392 . S
C1498 C184 1.519 . S
C1510 C619 1.461 . S
C1537 C711 1.498 . S
C1525 C196 1.479 . S
C1552 C16 1.505 . S
C1564 C627 1.444 . S
C1591 C703 1.400 . S
C1579 C28 1.453 . S
C1606 C4 1.430 . S
C1618 C543 1.430 . S
C1645 C776 1.351 . S
C1633 C90 1.432 . S
C1660 C102 1.472 . S
C1672 C860 1.404 . S
C1699 C954 1.423 . S
C1687 C78 1.454 . S
C1726 C870 1.403 . S
C1714 C66 1.429 . S
C1753 C944 1.352 . S
C1741 C42 1.430 . S
C1768 C54 1.403 . S
C1780 C786 1.375 . S
C1795 C64 1.474 . S
C1807 C787 1.426 . S
C1822 C40 1.493 . S
C1834 C871 1.436 . S
C1861 C963 1.508 . S
C1849 C52 1.486 . S
C1876 C88 1.454 . S
C1888 C879 1.440 . S
C1903 C100 1.471 . S
C1915 C955 1.434 . S
C1930 C76 1.483 . S
C1942 C795 1.405 . S
C1957 C189 1.579 . S
C1969 C279 1.496 . S
C1996 C363 1.487 . S
C1984 C201 1.635 . S
C2011 C213 1.567 . S
C2023 C456 1.319 . S
C2038 C81 1.588 . S
C2050 C372 1.329 . S
C2065 C93 1.597 . S
C2077 C447 1.466 . S
C2104 C288 1.325 . S
C2092 C105 1.516 . S
C2119 C45 1.548 . S
C2131 C531 1.388 . S
C2146 C57 1.634 . S
C2158 C615 1.479 . S
C2173 C69 1.569 . S
C2185 C708 1.451 . S
C2200 C153 1.600 . S
C2212 C624 1.340 . S
C2239 C699 1.442 . S
C2227 C165 1.565 . S
C2254 C177 1.518 . S
C2266 C540 1.318 . S
C2281 C117 1.543 . S
C2293 C783 1.397 . S
C2308 C129 1.635 . S
C2320 C867 1.489 . S
C2347 C960 1.451 . S
C2335 C141 1.570 . S
C2362 C9 1.598 . S
C2374 C876 1.334 . S
C2389 C21 1.566 . S
C2401 C951 1.448 . S
C2416 C33 1.552 . S
C2428 C792 1.388 . S
