# Generated by pormake.
# Topology ant, (3,6)-cn, num edge types: 1
# Building blocks:
#     Node 0, Type 0, BuildingBlock: ESEHIV_clean_linker_0, # of connection points: 3
#     Node 1, Type 0, BuildingBlock: ESEHIV_clean_linker_0, # of connection points: 3
#     Node 2, Type 0, BuildingBlock: ESEHIV_clean_linker_0, # of connection points: 3
#     Node 3, Type 0, BuildingBlock: ESEHIV_clean_linker_0, # of connection points: 3
#     Node 4, Type 0, BuildingBlock: ESEHIV_clean_linker_0, # of connection points: 3
#     Node 5, Type 0, BuildingBlock: ESEHIV_clean_linker_0, # of connection points: 3
#     Node 6, Type 0, BuildingBlock: ESEHIV_clean_linker_0, # of connection points: 3
#     Node 7, Type 0, BuildingBlock: ESEHIV_clean_linker_0, # of connection points: 3
#     Node 8, Type 1, BuildingBlock: MIDCAF_clean_sbu_0, # of connection points: 6
#     Node 9, Type 1, BuildingBlock: MIDCAF_clean_sbu_0, # of connection points: 6
#     Node 10, Type 1, BuildingBlock: MIDCAF_clean_sbu_0, # of connection points: 6
#     Node 11, Type 1, BuildingBlock: MIDCAF_clean_sbu_0, # of connection points: 6
#     Edge 12, Type (0, 1), BuildingBlock: EZIPEK_clean_linker_0, # of connection points: 2
#     Edge 13, Type (0, 1), BuildingBlock: EZIPEK_clean_linker_0, # of connection points: 2
#     Edge 14, Type (0, 1), BuildingBlock: EZIPEK_clean_linker_0, # of connection points: 2
#     Edge 15, Type (0, 1), BuildingBlock: EZIPEK_clean_linker_0, # of connection points: 2
#     Edge 16, Type (0, 1), BuildingBlock: EZIPEK_clean_linker_0, # of connection points: 2
#     Edge 17, Type (0, 1), BuildingBlock: EZIPEK_clean_linker_0, # of connection points: 2
#     Edge 18, Type (0, 1), BuildingBlock: EZIPEK_clean_linker_0, # of connection points: 2
#     Edge 19, Type (0, 1), BuildingBlock: EZIPEK_clean_linker_0, # of connection points: 2
#     Edge 20, Type (0, 1), BuildingBlock: EZIPEK_clean_linker_0, # of connection points: 2
#     Edge 21, Type (0, 1), BuildingBlock: EZIPEK_clean_linker_0, # of connection points: 2
#     Edge 22, Type (0, 1), BuildingBlock: EZIPEK_clean_linker_0, # of connection points: 2
#     Edge 23, Type (0, 1), BuildingBlock: EZIPEK_clean_linker_0, # of connection points: 2
#     Edge 24, Type (0, 1), BuildingBlock: EZIPEK_clean_linker_0, # of connection points: 2
#     Edge 25, Type (0, 1), BuildingBlock: EZIPEK_clean_linker_0, # of connection points: 2
#     Edge 26, Type (0, 1), BuildingBlock: EZIPEK_clean_linker_0, # of connection points: 2
#     Edge 27, Type (0, 1), BuildingBlock: EZIPEK_clean_linker_0, # of connection points: 2
#     Edge 28, Type (0, 1), BuildingBlock: EZIPEK_clean_linker_0, # of connection points: 2
#     Edge 29, Type (0, 1), BuildingBlock: EZIPEK_clean_linker_0, # of connection points: 2
#     Edge 30, Type (0, 1), BuildingBlock: EZIPEK_clean_linker_0, # of connection points: 2
#     Edge 31, Type (0, 1), BuildingBlock: EZIPEK_clean_linker_0, # of connection points: 2
#     Edge 32, Type (0, 1), BuildingBlock: EZIPEK_clean_linker_0, # of connection points: 2
#     Edge 33, Type (0, 1), BuildingBlock: EZIPEK_clean_linker_0, # of connection points: 2
#     Edge 34, Type (0, 1), BuildingBlock: EZIPEK_clean_linker_0, # of connection points: 2
#     Edge 35, Type (0, 1), BuildingBlock: EZIPEK_clean_linker_0, # of connection points: 2
# Relax obj value: 0.103
# Max RMSD: 0.160
# Mean RMSD: 0.105
data_MOF--net-ant--node1-MIDCAF_clean_sbu_0--node2-ESEHIV_clean_linker_0--edge1-EZIPEK_clean_linker_0
_symmetry_space_group_name_H-M    P1
_symmetry_Int_Tables_number       1
_symmetry_cell_setting            triclinic
loop_
_symmetry_equiv_pos_as_xyz
'x, y, z'
_cell_length_a     18.602443
_cell_length_b     18.692286
_cell_length_c     52.577849
_cell_angle_alpha  90.516318
_cell_angle_beta   95.366403
_cell_angle_gamma 89.826149
loop_
_atom_site_label
_atom_site_type_symbol
_atom_site_fract_x
_atom_site_fract_y
_atom_site_fract_z
_atom_type_partial_charge
H0 H 0.21454 0.34885 0.01377 0.0
H1 H 0.25358 0.12418 0.01869 0.0
H2 H 0.20257 0.24125 0.08554 0.0
C3 C 0.21975 0.30132 0.02543 0.0
C4 C 0.21188 0.30535 0.05179 0.0
C5 C 0.22804 0.23494 0.01346 0.0
C6 C 0.24272 0.17428 0.02819 0.0
C7 C 0.23253 0.17526 0.05425 0.0
C8 C 0.21389 0.24061 0.0657 0.0
H9 H 0.95209 0.6823 0.2697 0.0
H10 H 0.15964 0.78025 0.28947 0.0
H11 H 0.99861 0.7859 0.34259 0.0
C12 C 0.98908 0.71294 0.28267 0.0
C13 C 0.96582 0.73781 0.30578 0.0
C14 C 0.05799 0.73103 0.27579 0.0
C15 C 0.10573 0.76671 0.29403 0.0
C16 C 0.0871 0.78031 0.31885 0.0
C17 C 0.01514 0.77102 0.32403 0.0
H18 H 0.69631 0.82083 0.50758 0.0
H19 H 0.72269 0.59643 0.52248 0.0
H20 H 0.78766 0.75032 0.58146 0.0
C21 C 0.71617 0.77807 0.52018 0.0
C22 C 0.7455 0.79426 0.54512 0.0
C23 C 0.70846 0.70666 0.51199 0.0
C24 C 0.73175 0.65159 0.52853 0.0
C25 C 0.76102 0.66684 0.5535 0.0
C26 C 0.76844 0.7384 0.56179 0.0
H27 H 0.48178 0.2364 0.75494 0.0
H28 H 0.70567 0.28169 0.77518 0.0
H29 H 0.54945 0.33264 0.82815 0.0
C30 C 0.52424 0.25662 0.76864 0.0
C31 C 0.50773 0.28215 0.79257 0.0
C32 C 0.59554 0.25775 0.76238 0.0
C33 C 0.65042 0.2823 0.78024 0.0
C34 C 0.63506 0.30974 0.80406 0.0
C35 C 0.56274 0.31097 0.80999 0.0
H36 H 0.03114 0.627 0.94908 0.0
H37 H 0.01726 0.85492 0.95802 0.0
H38 H 0.03501 0.76031 0.88353 0.0
C39 C 0.02621 0.67978 0.94066 0.0
C40 C 0.02666 0.68722 0.91431 0.0
C41 C 0.0263 0.74018 0.95641 0.0
C42 C 0.02015 0.80868 0.94558 0.0
C43 C 0.02355 0.81753 0.91908 0.0
C44 C 0.02875 0.75562 0.90373 0.0
H45 H 0.5428 0.81059 0.19078 0.0
H46 H 0.76774 0.77951 0.21355 0.0
H47 H 0.7 0.85725 0.13808 0.0
C48 C 0.5985 0.8144 0.18636 0.0
C49 C 0.61418 0.8365 0.16206 0.0
C50 C 0.65355 0.79566 0.20496 0.0
C51 C 0.72529 0.79701 0.1994 0.0
C52 C 0.74193 0.81818 0.17518 0.0
C53 C 0.68672 0.84054 0.15676 0.0
H54 H 0.54281 0.10935 0.4456 0.0
H55 H 0.55627 0.3368 0.45618 0.0
H56 H 0.49884 0.24855 0.38123 0.0
C57 C 0.53428 0.16271 0.43792 0.0
C58 C 0.51645 0.17164 0.41157 0.0
C59 C 0.55085 0.22171 0.45383 0.0
C60 C 0.54251 0.29087 0.44396 0.0
C61 C 0.52126 0.30065 0.41794 0.0
C62 C 0.50945 0.24097 0.40165 0.0
H63 H 0.11475 0.26361 0.68823 0.0
H64 H 0.3403 0.23127 0.71013 0.0
H65 H 0.26958 0.30205 0.63398 0.0
C66 C 0.17012 0.26441 0.68329 0.0
C67 C 0.18484 0.28426 0.65868 0.0
C68 C 0.22581 0.24686 0.70187 0.0
C69 C 0.29721 0.24601 0.6958 0.0
C70 C 0.31293 0.26497 0.67122 0.0
C71 C 0.25706 0.28625 0.65285 0.0
Zn72 Zn 0.26051 0.67148 0.14038 0.0
Zn73 Zn 0.09238 0.83928 0.10321 0.0
Zn74 Zn 0.16974 0.74872 0.11821 0.0
C75 C 0.10091 0.74434 0.06336 0.0
C76 C 0.20279 0.91713 0.10868 0.0
O77 O 0.13631 0.73227 0.15745 0.0
O78 O 0.2184 0.65464 0.17293 0.0
C79 C 0.20582 0.58776 0.09972 0.0
O80 O 0.12554 0.70338 0.08174 0.0
O81 O 0.09095 0.81002 0.06734 0.0
O82 O 0.13947 0.92961 0.114 0.0
O83 O 0.22485 0.85143 0.10782 0.0
O84 O 0.25858 0.59172 0.11651 0.0
O85 O 0.16355 0.64264 0.09603 0.0
O86 O 0.27763 0.80206 0.11923 0.0
O87 O 0.34897 0.72704 0.14195 0.0
C88 C 0.34057 0.78425 0.12961 0.0
O89 O 0.07861 0.76774 0.14298 0.0
O90 O 1.00143 0.82586 0.11595 0.0
C91 C 0.16399 0.69301 0.17599 0.0
C92 C 0.01536 0.79491 0.13689 0.0
Zn93 Zn 0.44215 0.65647 0.32776 0.0
Zn94 Zn 0.61826 0.79119 0.37606 0.0
Zn95 Zn 0.52505 0.73637 0.35675 0.0
C96 C 0.53495 0.89677 0.3624 0.0
C97 C 0.68964 0.7337 0.34378 0.0
O98 O 0.51873 0.63356 0.3761 0.0
O99 O 0.46926 0.56428 0.34483 0.0
C100 C 0.36234 0.76835 0.35208 0.0
O101 O 0.49166 0.84611 0.3674 0.0
O102 O 0.59535 0.87958 0.35529 0.0
O103 O 0.7049 0.73836 0.36759 0.0
O104 O 0.62321 0.74043 0.33446 0.0
O105 O 0.3592 0.70889 0.34034 0.0
O106 O 0.42396 0.79793 0.35831 0.0
O107 O 0.56124 0.7311 0.31857 0.0
O108 O 0.47383 0.67904 0.29355 0.0
C109 C 0.53303 0.71221 0.29625 0.0
O110 O 0.55846 0.68048 0.39258 0.0
O111 O 0.5911 0.78163 0.41168 0.0
C112 C 0.49826 0.57163 0.36739 0.0
C113 C 0.57749 0.71595 0.41314 0.0
Zn114 Zn 0.65501 0.30937 0.59608 0.0
Zn115 Zn 0.82013 0.14066 0.63869 0.0
Zn116 Zn 0.74046 0.23343 0.61052 0.0
C117 C 0.90515 0.25905 0.62272 0.0
C118 C 0.76222 0.07002 0.59366 0.0
O119 O 0.64636 0.2473 0.6343 0.0
O120 O 0.55992 0.27918 0.60496 0.0
C121 C 0.75431 0.397 0.60556 0.0
O122 O 0.84539 0.28565 0.61284 0.0
O123 O 0.90676 0.19896 0.63361 0.0
O124 O 0.79661 0.05833 0.61509 0.0
O125 O 0.73825 0.13306 0.58781 0.0
O126 O 0.70046 0.38993 0.61807 0.0
O127 O 0.78535 0.33902 0.59886 0.0
O128 O 0.69853 0.18776 0.57402 0.0
O129 O 0.67025 0.29539 0.55944 0.0
C130 C 0.67788 0.22925 0.55538 0.0
O131 O 0.70482 0.22096 0.64899 0.0
O132 O 0.77794 0.14804 0.67225 0.0
C133 C 0.57909 0.25942 0.62739 0.0
C134 C 0.72446 0.18997 0.67036 0.0
Zn135 Zn 0.99002 0.17939 0.82412 0.0
Zn136 Zn 0.16674 0.32576 0.86862 0.0
Zn137 Zn 0.07644 0.25285 0.85317 0.0
C138 C 0.13737 0.24251 0.908 0.0
C139 C 0.06982 0.41946 0.86161 0.0
O140 O 0.11442 0.23672 0.81528 0.0
O141 O 0.03811 0.16576 0.7922 0.0
C142 C 0.02677 0.09486 0.86772 0.0
O143 O 0.11351 0.20236 0.88909 0.0
O144 O 0.15134 0.30723 0.90444 0.0
O145 O 0.12878 0.41522 0.85175 0.0
O146 O 0.03565 0.36084 0.86518 0.0
O147 O 0.98317 0.09944 0.84793 0.0
O148 O 0.06906 0.14821 0.87402 0.0
O149 O 0.97266 0.31401 0.85078 0.0
O150 O 0.90926 0.24596 0.82232 0.0
C151 C 0.91369 0.30024 0.83672 0.0
O152 O 0.17331 0.26379 0.82983 0.0
O153 O 0.2608 0.29433 0.85914 0.0
C154 C 0.09457 0.2033 0.79423 0.0
C155 C 0.24098 0.27485 0.83664 0.0
C156 C 0.15804 0.43211 0.05227 0.0
C157 C 0.20113 0.37677 0.06458 0.0
C158 C 0.21676 0.45446 0.10209 0.0
C159 C 0.1928 0.51524 0.08753 0.0
N160 N 0.155 0.55944 0.04539 0.0
N161 N 0.29209 0.35124 0.09953 0.0
C162 C 0.16646 0.50367 0.06163 0.0
C163 C 0.23611 0.39197 0.08917 0.0
N164 N 0.10801 0.41702 0.03234 0.0
N165 N 0.22142 0.45579 0.12815 0.0
H166 H 0.31689 0.31261 0.08895 0.0
H167 H 0.32036 0.36393 0.11707 0.0
H168 H 0.20147 0.49832 0.13843 0.0
H169 H 0.23632 0.41069 0.13899 0.0
H170 H 0.07355 0.45607 0.02394 0.0
H171 H 0.09518 0.3647 0.0266 0.0
H172 H 0.13952 0.55246 0.02593 0.0
H173 H 0.17153 0.6107 0.05083 0.0
C174 C 0.8683 0.66954 0.32488 0.0
C175 C 0.8893 0.72922 0.3109 0.0
C176 C 0.76981 0.78376 0.31254 0.0
C177 C 0.74983 0.72549 0.32749 0.0
N178 N 0.77074 0.60522 0.34216 0.0
N179 N 0.85603 0.83345 0.28571 0.0
C180 C 0.79626 0.66566 0.33169 0.0
C181 C 0.83839 0.78287 0.30268 0.0
N182 N 0.91798 0.61799 0.33233 0.0
N183 N 0.72591 0.84243 0.30945 0.0
H184 H 0.90707 0.83685 0.27915 0.0
H185 H 0.81864 0.86857 0.27661 0.0
H186 H 0.67495 0.84505 0.31606 0.0
H187 H 0.74133 0.89027 0.30159 0.0
H188 H 0.90881 0.57744 0.34506 0.0
H189 H 0.97024 0.61767 0.32666 0.0
H190 H 0.79926 0.55727 0.34394 0.0
H191 H 0.71778 0.60139 0.34702 0.0
C192 C 0.83133 0.56526 0.57547 0.0
C193 C 0.7672 0.60654 0.57169 0.0
C194 C 0.69749 0.50713 0.58535 0.0
C195 C 0.76186 0.46744 0.59252 0.0
N196 N 0.89227 0.46392 0.59646 0.0
N197 N 0.64338 0.62395 0.58017 0.0
C198 C 0.82973 0.49801 0.58822 0.0
C199 C 0.70217 0.58017 0.57955 0.0
N200 N 0.89296 0.5894 0.56626 0.0
N201 N 0.63194 0.47401 0.58134 0.0
H202 H 0.64455 0.6781 0.5756 0.0
H203 H 0.59626 0.6079 0.58779 0.0
H204 H 0.62598 0.41878 0.58106 0.0
H205 H 0.58502 0.50054 0.57422 0.0
H206 H 0.93943 0.55841 0.56575 0.0
H207 H 0.89597 0.63962 0.5579 0.0
H208 H 0.94312 0.48699 0.59631 0.0
H209 H 0.8928 0.41411 0.60498 0.0
C210 C 0.72268 0.30165 0.84414 0.0
C211 C 0.69722 0.33799 0.8214 0.0
C212 C 0.81892 0.38145 0.81678 0.0
C213 C 0.84544 0.34024 0.83813 0.0
N214 N 0.82131 0.28596 0.8775 0.0
N215 N 0.71458 0.4363 0.79349 0.0
C216 C 0.79618 0.31055 0.85399 0.0
C217 C 0.74324 0.38763 0.81078 0.0
N218 N 0.67962 0.2538 0.85494 0.0
N219 N 0.86567 0.40784 0.80068 0.0
H220 H 0.65892 0.44003 0.78867 0.0
H221 H 0.74509 0.47649 0.7861 0.0
H222 H 0.92154 0.40199 0.80419 0.0
H223 H 0.84875 0.43127 0.78322 0.0
H224 H 0.69848 0.2198 0.86969 0.0
H225 H 0.62586 0.24518 0.84833 0.0
H226 H 0.78767 0.26747 0.89077 0.0
H227 H 0.87561 0.29108 0.88437 0.0
C228 C 0.97605 0.58722 0.88566 0.0
C229 C 0.0363 0.62246 0.89864 0.0
C230 C 0.11331 0.52087 0.89067 0.0
C231 C 0.05522 0.48779 0.87521 0.0
N232 N 0.93456 0.49661 0.85457 0.0
N233 N 0.16513 0.63105 0.90818 0.0
C234 C 0.98718 0.52282 0.87184 0.0
C235 C 0.10581 0.59194 0.89934 0.0
N236 N 0.90831 0.61476 0.88681 0.0
N237 N 0.17457 0.48347 0.89849 0.0
H238 H 0.16187 0.68365 0.91476 0.0
H239 H 0.21785 0.61391 0.90649 0.0
H240 H 0.18267 0.43018 0.89389 0.0
H241 H 0.21427 0.503 0.91206 0.0
H242 H 0.86148 0.58749 0.88011 0.0
H243 H 0.89882 0.66315 0.89599 0.0
H244 H 0.88608 0.523 0.84939 0.0
H245 H 0.94302 0.45136 0.84371 0.0
C246 C 0.83177 0.74471 0.15422 0.0
C247 C 0.81617 0.80719 0.16822 0.0
C248 C 0.94273 0.84387 0.17 0.0
C249 C 0.95504 0.78793 0.15267 0.0
N250 N 0.91319 0.68563 0.12739 0.0
N251 N 0.85464 0.91709 0.1896 0.0
C252 C 0.90019 0.738 0.14472 0.0
C253 C 0.87128 0.85678 0.17644 0.0
N254 N 0.78165 0.69131 0.15045 0.0
N255 N 0.99966 0.88415 0.18018 0.0
H256 H 0.80286 0.92763 0.19479 0.0
H257 H 0.89073 0.95877 0.19403 0.0
H258 H 0.05239 0.87452 0.17574 0.0
H259 H 0.99602 0.92222 0.19456 0.0
H260 H 0.79269 0.64142 0.14274 0.0
H261 H 0.73045 0.69442 0.15696 0.0
H262 H 0.873 0.65347 0.11819 0.0
H263 H 0.96436 0.67638 0.12137 0.0
C264 C 0.46066 0.41995 0.41111 0.0
C265 C 0.51927 0.37362 0.4072 0.0
C266 C 0.56851 0.46114 0.37919 0.0
C267 C 0.51039 0.50766 0.38334 0.0
N268 N 0.41038 0.53979 0.40712 0.0
N269 N 0.63749 0.35579 0.39283 0.0
C270 C 0.45955 0.48985 0.40068 0.0
C271 C 0.57594 0.39602 0.39285 0.0
N272 N 0.40459 0.39593 0.42376 0.0
N273 N 0.61544 0.47851 0.36171 0.0
H274 H 0.64485 0.30778 0.4027 0.0
H275 H 0.68369 0.37275 0.38491 0.0
H276 H 0.61335 0.52725 0.35216 0.0
H277 H 0.65375 0.44325 0.35554 0.0
H278 H 0.35662 0.42417 0.4248 0.0
H279 H 0.4037 0.34513 0.43178 0.0
H280 H 0.37649 0.53267 0.42156 0.0
H281 H 0.40759 0.59111 0.39945 0.0
C282 C 0.07333 0.35537 0.64756 0.0
C283 C 0.12209 0.30242 0.64004 0.0
C284 C 0.02725 0.25778 0.60857 0.0
C285 C 0.97554 0.29484 0.62174 0.0
N286 N 0.94831 0.38214 0.65337 0.0
N287 N 0.14605 0.20387 0.61184 0.0
C288 C 0.99825 0.34655 0.64057 0.0
C289 C 0.10011 0.25528 0.61943 0.0
N290 N 0.09899 0.41128 0.66257 0.0
N291 N 0.00512 0.22162 0.58658 0.0
H292 H 0.19971 0.19965 0.61926 0.0
H293 H 0.12977 0.16277 0.59911 0.0
H294 H 0.95125 0.22256 0.57889 0.0
H295 H 0.0406 0.19729 0.57495 0.0
H296 H 0.06687 0.4541 0.66745 0.0
H297 H 0.15412 0.41753 0.66797 0.0
H298 H 0.96178 0.41431 0.66938 0.0
H299 H 0.89289 0.37654 0.64854 0.0
C300 C 0.41103 0.19482 0.65301 0.0
C301 C 0.38801 0.25906 0.66443 0.0
C302 C 0.5028 0.31662 0.65823 0.0
C303 C 0.52364 0.25404 0.64541 0.0
N304 N 0.5099 0.12841 0.63671 0.0
N305 N 0.41713 0.37363 0.6841 0.0
C306 C 0.4817 0.19116 0.64495 0.0
C307 C 0.43588 0.31753 0.66919 0.0
N308 N 0.36435 0.13856 0.64907 0.0
N309 N 0.54546 0.37611 0.65872 0.0
H310 H 0.36748 0.37675 0.69178 0.0
H311 H 0.45248 0.41443 0.69046 0.0
H312 H 0.59639 0.37565 0.65192 0.0
H313 H 0.52981 0.42627 0.66498 0.0
H314 H 0.37479 0.09327 0.63836 0.0
H315 H 0.31301 0.13846 0.65554 0.0
H316 H 0.48483 0.07895 0.63767 0.0
H317 H 0.56205 0.12513 0.63096 0.0
C318 C 0.53274 0.80177 0.12273 0.0
C319 C 0.5518 0.85137 0.14289 0.0
C320 C 0.42505 0.8817 0.14532 0.0
C321 C 0.40578 0.82731 0.12714 0.0
N322 N 0.43812 0.75721 0.09159 0.0
N323 N 0.52015 0.95865 0.16471 0.0
C324 C 0.45901 0.79604 0.1131 0.0
C325 C 0.49896 0.89968 0.15054 0.0
N326 N 0.58285 0.75555 0.11456 0.0
N327 N 0.37426 0.90991 0.15961 0.0
H328 H 0.57475 0.97067 0.16911 0.0
H329 H 0.48418 0.99799 0.16978 0.0
H330 H 0.32019 0.89464 0.15688 0.0
H331 H 0.38664 0.94435 0.17508 0.0
H332 H 0.56957 0.71243 0.10235 0.0
H333 H 0.63749 0.75809 0.12078 0.0
H334 H 0.47431 0.73668 0.0794 0.0
H335 H 0.38371 0.75206 0.08483 0.0
C336 C 0.38191 0.33046 0.79373 0.0
C337 C 0.4329 0.27517 0.79975 0.0
C338 C 0.34209 0.20753 0.82037 0.0
C339 C 0.29662 0.26827 0.81856 0.0
N340 N 0.26989 0.38722 0.8033 0.0
N341 N 0.46262 0.15957 0.81799 0.0
C342 C 0.3149 0.32919 0.80469 0.0
C343 C 0.41295 0.21266 0.81254 0.0
N344 N 0.39773 0.38391 0.77759 0.0
N345 N 0.31696 0.14527 0.82965 0.0
H346 H 0.51437 0.16047 0.81187 0.0
H347 H 0.4542 0.11639 0.8297 0.0
H348 H 0.26471 0.14084 0.8352 0.0
H349 H 0.34474 0.09686 0.82968 0.0
H350 H 0.36015 0.42164 0.77034 0.0
H351 H 0.44719 0.3873 0.76982 0.0
H352 H 0.28358 0.43661 0.79617 0.0
H353 H 0.21927 0.38664 0.81033 0.0
C354 C 0.18934 0.85917 0.33628 0.0
C355 C 0.14644 0.79744 0.33914 0.0
C356 C 0.24437 0.74692 0.36794 0.0
C357 C 0.29173 0.79726 0.35881 0.0
N358 N 0.30569 0.91766 0.34643 0.0
N359 N 0.13014 0.68529 0.36072 0.0
C360 C 0.26278 0.85924 0.34686 0.0
C361 C 0.17192 0.74339 0.35674 0.0
N362 N 0.16054 0.91511 0.32224 0.0
N363 N 0.27106 0.70043 0.38636 0.0
H364 H 0.07653 0.68049 0.35338 0.0
H365 H 0.14931 0.64014 0.37063 0.0
H366 H 0.32488 0.70322 0.39406 0.0
H367 H 0.23938 0.66469 0.39547 0.0
H368 H 0.18993 0.95937 0.31736 0.0
H369 H 0.10606 0.91637 0.31532 0.0
H370 H 0.289 0.96679 0.3388 0.0
H371 H 0.35637 0.91717 0.35668 0.0
C372 C 0.80651 0.91369 0.55227 0.0
C373 C 0.74545 0.86961 0.55449 0.0
C374 C 0.68743 0.96554 0.5775 0.0
C375 C 0.74941 0.00855 0.57593 0.0
N376 N 0.85984 0.03233 0.55733 0.0
N377 N 0.62206 0.85708 0.56436 0.0
C378 C 0.80633 0.98532 0.56174 0.0
C379 C 0.68388 0.89687 0.5655 0.0
N380 N 0.86545 0.8861 0.54187 0.0
N381 N 0.63355 0.98933 0.59147 0.0
H382 H 0.61825 0.80566 0.55651 0.0
H383 H 0.573 0.8764 0.5696 0.0
H384 H 0.63302 0.0408 0.59931 0.0
H385 H 0.59094 0.95768 0.5962 0.0
H386 H 0.91469 0.91243 0.54209 0.0
H387 H 0.86651 0.83456 0.53413 0.0
H388 H 0.90019 0.02146 0.54541 0.0
H389 H 0.8602 0.08515 0.56397 0.0
C390 C 0.20095 0.04427 0.05702 0.0
C391 C 0.23515 0.10607 0.06849 0.0
C392 C 0.26217 0.03769 0.1077 0.0
C393 C 0.23634 0.97457 0.09484 0.0
N394 N 0.20643 0.91576 0.05423 0.0
N395 N 0.32074 0.15094 0.10238 0.0
C396 C 0.21585 0.97712 0.06832 0.0
C397 C 0.2731 0.0997 0.09314 0.0
N398 N 0.14965 0.04958 0.03676 0.0
N399 N 0.27279 0.04 0.13368 0.0
H400 H 0.33523 0.19318 0.09116 0.0
H401 H 0.35228 0.14583 0.11975 0.0
H402 H 0.26173 0.99647 0.14489 0.0
H403 H 0.28612 0.08705 0.14383 0.0
H404 H 0.12051 0.00547 0.0292 0.0
H405 H 0.12956 0.09851 0.02985 0.0
H406 H 0.19413 0.91601 0.03445 0.0
H407 H 0.2198 0.86581 0.06193 0.0
C408 C 0.46578 0.08386 0.37686 0.0
C409 C 0.52274 0.10834 0.39461 0.0
C410 C 0.58547 0.99532 0.39122 0.0
C411 C 0.52949 0.97024 0.37297 0.0
N412 N 0.43778 0.00625 0.34017 0.0
N413 N 0.65013 0.09973 0.40769 0.0
C414 C 0.47556 0.01898 0.36321 0.0
C415 C 0.5871 0.06809 0.39812 0.0
N416 N 0.40216 0.12042 0.37348 0.0
N417 N 0.63633 0.95028 0.40267 0.0
H418 H 0.65372 0.1546 0.41135 0.0
H419 H 0.69979 0.07336 0.40877 0.0
H420 H 0.63834 0.89591 0.39885 0.0
H421 H 0.67289 0.96637 0.41789 0.0
H422 H 0.35756 0.10062 0.3621 0.0
H423 H 0.39261 0.16733 0.38351 0.0
H424 H 0.40273 0.04392 0.33122 0.0
H425 H 0.44628 0.96042 0.32933 0.0
C426 C 0.06345 0.94925 0.91876 0.0
C427 C 0.02362 0.89051 0.90713 0.0
C428 C 0.00347 0.96148 0.86851 0.0
C429 C 0.02915 0.02472 0.88173 0.0
N430 N 0.05854 0.07725 0.92356 0.0
N431 N 0.93152 0.85694 0.87341 0.0
C432 C 0.05236 0.01855 0.90812 0.0
C433 C 0.98569 0.90162 0.88281 0.0
N434 N 0.11402 0.93973 0.93895 0.0
N435 N 0.9997 0.95584 0.84252 0.0
H436 H 0.91161 0.81639 0.8843 0.0
H437 H 0.90101 0.86659 0.85609 0.0
H438 H 0.0229 0.99313 0.83115 0.0
H439 H 0.98365 0.90862 0.83289 0.0
H440 H 0.14582 0.98184 0.94675 0.0
H441 H 0.13058 0.8893 0.94548 0.0
H442 H 0.07211 0.07368 0.94323 0.0
H443 H 0.0385 0.12666 0.9173 0.0
C444 C 0.2518 0.20653 0.96803 0.0
C445 C 0.20284 0.22514 0.98611 0.0
C446 C 0.10393 0.23394 0.95224 0.0
C447 C 0.1529 0.2165 0.93414 0.0
N448 N 0.26728 0.16879 0.92448 0.0
N449 N 0.07879 0.23159 -0.00357 0.0
C450 C 0.22484 0.19624 0.94205 0.0
C451 C 0.12765 0.23087 0.97854 0.0
N452 N 0.32403 0.20208 0.97548 0.0
N453 N 0.03567 0.25657 0.9442 0.0
H454 H 0.09361 0.22783 0.01599 0.0
H455 H 0.02321 0.2287 -0.00824 0.0
H456 H 0.01554 0.25622 0.92498 0.0
H457 H 1.00061 0.27897 0.95642 0.0
H458 H 0.36333 0.19562 0.9628 0.0
H459 H 0.34526 0.20971 -0.00562 0.0
H460 H 0.31868 0.14786 0.92917 0.0
H461 H 0.24795 0.1611 0.90536 0.0
C462 C 0.03507 0.71662 0.22707 0.0
C463 C 0.08206 0.71188 0.25004 0.0
C464 C 0.18368 0.69698 0.22424 0.0
C465 C 0.13575 0.69509 0.20155 0.0
N466 N 0.0144 0.66665 0.18458 0.0
N467 N 0.19536 0.66122 0.26829 0.0
C468 C 0.06074 0.69353 0.20383 0.0
C469 C 0.15474 0.69044 0.24802 0.0
N470 N 0.96828 0.74702 0.22666 0.0
N471 N 0.25599 0.70807 0.22358 0.0
H472 H 0.1737 0.64879 0.28532 0.0
H473 H 0.2473 0.64133 0.26683 0.0
H474 H 0.27957 0.71982 0.2069 0.0
H475 H 0.29081 0.71413 0.2402 0.0
H476 H 0.93327 0.74982 0.21005 0.0
H477 H 0.95161 0.77703 0.24182 0.0
H478 H 0.96004 0.65779 0.1869 0.0
H479 H 0.03226 0.64588 0.16778 0.0
C480 C 0.70575 0.66281 0.46653 0.0
C481 C 0.66843 0.68915 0.48703 0.0
C482 C 0.55745 0.70153 0.45856 0.0
C483 C 0.59656 0.68147 0.43786 0.0
N484 N 0.69726 0.61891 0.4227 0.0
N485 N 0.55493 0.71077 0.50453 0.0
C486 C 0.66704 0.653 0.44218 0.0
C487 C 0.59266 0.70075 0.48369 0.0
N488 N 0.77867 0.6517 0.46992 0.0
N489 N 0.48787 0.72476 0.45378 0.0
H490 H 0.57944 0.70936 0.5232 0.0
H491 H 0.49889 0.71423 0.50351 0.0
H492 H 0.46053 0.72182 0.43551 0.0
H493 H 0.45837 0.7485 0.46748 0.0
H494 H 0.8101 0.64008 0.45503 0.0
H495 H 0.80892 0.65863 0.48748 0.0
H496 H 0.74662 0.59224 0.42497 0.0
H497 H 0.66912 0.61116 0.40478 0.0
C498 C 0.62444 0.16616 0.72953 0.0
C499 C 0.61431 0.23863 0.73649 0.0
C500 C 0.67627 0.27867 0.70033 0.0
C501 C 0.68461 0.20624 0.69273 0.0
N502 N 0.64986 0.08261 0.69598 0.0
N503 N 0.61085 0.3629 0.72479 0.0
C504 C 0.65356 0.15025 0.70608 0.0
C505 C 0.63343 0.29455 0.72051 0.0
N506 N 0.60883 0.11281 0.74572 0.0
N507 N 0.71297 0.33198 0.68947 0.0
H508 H 0.57902 0.37602 0.73949 0.0
H509 H 0.61734 0.40479 0.71227 0.0
H510 H 0.74803 0.3228 0.67543 0.0
H511 H 0.71425 0.38463 0.69615 0.0
H512 H 0.62299 0.0595 0.74305 0.0
H513 H 0.58556 0.12257 0.76272 0.0
H514 H 0.6216 0.04125 0.70365 0.0
H515 H 0.66914 0.0695 0.67852 0.0
C516 C 0.99339 0.71495 0.00077 0.0
C517 C 0.04666 0.73135 0.98411 0.0
C518 C 0.14074 0.73219 0.01999 0.0
C519 C 0.08695 0.71962 0.03673 0.0
N520 N 0.96717 0.68287 0.04376 0.0
N521 N 0.17243 0.74022 0.97645 0.0
C522 C 0.01477 0.70523 0.02723 0.0
C523 C 0.12094 0.73493 -0.0067 0.0
N524 N 0.92244 0.7113 -0.00865 0.0
N525 N 0.21026 0.74448 0.02991 0.0
H526 H 0.16019 0.74529 0.9568 0.0
H527 H 0.22757 0.73519 0.9816 0.0
H528 H 0.227 0.73744 0.04924 0.0
H529 H 0.25067 0.76371 0.0194 0.0
H530 H 0.87985 0.70585 0.00266 0.0
H531 H 0.90552 0.7174 0.97201 0.0
H532 H 0.91454 0.66671 0.03821 0.0
H533 H 0.98279 0.67503 0.06314 0.0
C534 C 0.62385 0.69928 0.2349 0.0
C535 C 0.63416 0.77288 0.23014 0.0
C536 C 0.5778 0.80627 0.26856 0.0
C537 C 0.56946 0.7326 0.27383 0.0
N538 N 0.59871 0.60923 0.26574 0.0
N539 N 0.63802 0.89519 0.24496 0.0
C540 C 0.59679 0.679 0.25811 0.0
C541 C 0.61682 0.82601 0.24789 0.0
N542 N 0.63748 0.64915 0.21686 0.0
N543 N 0.54532 0.85724 0.28246 0.0
H544 H 0.66652 0.91129 0.22982 0.0
H545 H 0.63353 0.93495 0.25872 0.0
H546 H 0.51509 0.84518 0.29759 0.0
H547 H 0.54321 0.9112 0.2777 0.0
H548 H 0.62291 0.5956 0.21791 0.0
H549 H 0.65955 0.66191 0.19995 0.0
H550 H 0.62473 0.56881 0.25635 0.0
H551 H 0.57967 0.5927 0.28278 0.0
C552 C 0.66321 0.22367 0.48405 0.0
C553 C 0.58781 0.21034 0.47969 0.0
C554 C 0.58494 0.17562 0.52436 0.0
C555 C 0.65601 0.20218 0.5295 0.0
N556 N 0.76566 0.24729 0.51508 0.0
N557 N 0.47576 0.17388 0.49525 0.0
C558 C 0.69643 0.22375 0.50946 0.0
C559 C 0.54851 0.18498 0.49963 0.0
N560 N 0.70293 0.23554 0.4639 0.0
N561 N 0.55216 0.14296 0.54334 0.0
H562 H 0.44729 0.18054 0.47738 0.0
H563 H 0.44256 0.16283 0.50958 0.0
H564 H 0.57797 0.13584 0.56162 0.0
H565 H 0.50259 0.11707 0.54043 0.0
H566 H 0.75903 0.2385 0.46557 0.0
H567 H 0.68031 0.23717 0.44503 0.0
H568 H 0.79553 0.27274 0.50205 0.0
H569 H 0.79242 0.24329 0.53339 0.0
C570 C 0.18861 0.29426 0.74266 0.0
C571 C 0.20761 0.23435 0.72812 0.0
C572 C 0.16681 0.15393 0.76019 0.0
C573 C 0.13617 0.21356 0.7721 0.0
N574 N 0.1089 0.3403 0.77257 0.0
N575 N 0.21331 0.10667 0.72186 0.0
C576 C 0.14535 0.28393 0.76301 0.0
C577 C 0.19708 0.16384 0.73667 0.0
N578 N 0.21147 0.36102 0.73678 0.0
N579 N 0.1685 0.08854 0.77165 0.0
H580 H 0.23771 0.1122 0.7049 0.0
H581 H 0.19895 0.05428 0.72562 0.0
H582 H 0.14761 0.07989 0.78911 0.0
H583 H 0.19625 0.04466 0.76508 0.0
H584 H 0.20502 0.40592 0.74824 0.0
H585 H 0.24342 0.37008 0.72184 0.0
H586 H 0.108 0.39127 0.7647 0.0
H587 H 0.07392 0.33516 0.78682 0.0
loop_
_geom_bond_atom_site_label_1
_geom_bond_atom_site_label_2
_geom_bond_distance
_geom_bond_site_symmetry_2
_ccdc_geom_bond_type
H0 C3 0.931 . S
H1 C6 0.928 . S
H2 C8 0.930 . S
C3 H0 0.931 . S
C3 C4 1.413 . S
C3 C5 1.360 . S
C4 C3 1.413 . S
C4 C8 1.429 . S
C5 C3 1.360 . S
C5 C6 1.372 . S
C6 H1 0.928 . S
C6 C5 1.372 . S
C6 C7 1.404 . S
C7 C6 1.404 . S
C7 C8 1.391 . S
C8 H2 0.930 . S
C8 C4 1.429 . S
C8 C7 1.391 . S
H9 C12 0.931 . S
H10 C15 0.928 . S
H11 C17 0.930 . S
C12 H9 0.931 . S
C12 C13 1.413 . S
C12 C14 1.360 . S
C13 C12 1.413 . S
C13 C17 1.429 . S
C14 C12 1.360 . S
C14 C15 1.372 . S
C15 H10 0.928 . S
C15 C14 1.372 . S
C15 C16 1.404 . S
C16 C15 1.404 . S
C16 C17 1.391 . S
C17 H11 0.930 . S
C17 C13 1.429 . S
C17 C16 1.391 . S
H18 C21 0.931 . S
H19 C24 0.928 . S
H20 C26 0.930 . S
C21 H18 0.931 . S
C21 C22 1.413 . S
C21 C23 1.360 . S
C22 C21 1.413 . S
C22 C26 1.429 . S
C23 C21 1.360 . S
C23 C24 1.372 . S
C24 H19 0.928 . S
C24 C23 1.372 . S
C24 C25 1.404 . S
C25 C24 1.404 . S
C25 C26 1.391 . S
C26 H20 0.930 . S
C26 C22 1.429 . S
C26 C25 1.391 . S
H27 C30 0.931 . S
H28 C33 0.928 . S
H29 C35 0.930 . S
C30 H27 0.931 . S
C30 C31 1.413 . S
C30 C32 1.360 . S
C31 C30 1.413 . S
C31 C35 1.429 . S
C32 C30 1.360 . S
C32 C33 1.372 . S
C33 H28 0.928 . S
C33 C32 1.372 . S
C33 C34 1.404 . S
C34 C33 1.404 . S
C34 C35 1.391 . S
C35 H29 0.930 . S
C35 C31 1.429 . S
C35 C34 1.391 . S
H36 C39 0.931 . S
H37 C42 0.928 . S
H38 C44 0.930 . S
C39 H36 0.931 . S
C39 C40 1.413 . S
C39 C41 1.360 . S
C40 C39 1.413 . S
C40 C44 1.429 . S
C41 C39 1.360 . S
C41 C42 1.372 . S
C42 H37 0.928 . S
C42 C41 1.372 . S
C42 C43 1.404 . S
C43 C42 1.404 . S
C43 C44 1.391 . S
C44 H38 0.930 . S
C44 C40 1.429 . S
C44 C43 1.391 . S
H45 C48 0.931 . S
H46 C51 0.928 . S
H47 C53 0.930 . S
C48 H45 0.931 . S
C48 C49 1.413 . S
C48 C50 1.360 . S
C49 C48 1.413 . S
C49 C53 1.429 . S
C50 C48 1.360 . S
C50 C51 1.372 . S
C51 H46 0.928 . S
C51 C50 1.372 . S
C51 C52 1.404 . S
C52 C51 1.404 . S
C52 C53 1.391 . S
C53 H47 0.930 . S
C53 C49 1.429 . S
C53 C52 1.391 . S
H54 C57 0.931 . S
H55 C60 0.928 . S
H56 C62 0.930 . S
C57 H54 0.931 . S
C57 C58 1.413 . S
C57 C59 1.360 . S
C58 C57 1.413 . S
C58 C62 1.429 . S
C59 C57 1.360 . S
C59 C60 1.372 . S
C60 H55 0.928 . S
C60 C59 1.372 . S
C60 C61 1.404 . S
C61 C60 1.404 . S
C61 C62 1.391 . S
C62 H56 0.930 . S
C62 C58 1.429 . S
C62 C61 1.391 . S
H63 C66 0.931 . S
H64 C69 0.928 . S
H65 C71 0.930 . S
C66 H63 0.931 . S
C66 C67 1.413 . S
C66 C68 1.360 . S
C67 C66 1.413 . S
C67 C71 1.429 . S
C68 C66 1.360 . S
C68 C69 1.372 . S
C69 H64 0.928 . S
C69 C68 1.372 . S
C69 C70 1.404 . S
C70 C69 1.404 . S
C70 C71 1.391 . S
C71 H65 0.930 . S
C71 C67 1.429 . S
C71 C70 1.391 . S
Zn72 O78 1.920 . S
Zn72 O84 1.898 . S
Zn72 O87 1.905 . S
Zn73 O81 1.905 . S
Zn73 O82 1.898 . S
Zn73 O90 1.920 1_455 S
Zn74 O77 2.080 . S
Zn74 O80 2.114 . S
Zn74 O83 2.120 . S
Zn74 O85 2.120 . S
Zn74 O86 2.114 . S
Zn74 O89 2.080 . S
C75 O80 1.166 . S
C75 O81 1.182 . S
C76 O82 1.167 . S
C76 O83 1.299 . S
O77 Zn74 2.080 . S
O77 C91 1.305 . S
O78 Zn72 1.920 . S
O78 C91 1.234 . S
C79 O84 1.167 . S
C79 O85 1.299 . S
O80 Zn74 2.114 . S
O80 C75 1.166 . S
O81 Zn73 1.905 . S
O81 C75 1.182 . S
O82 Zn73 1.898 . S
O82 C76 1.167 . S
O83 Zn74 2.120 . S
O83 C76 1.299 . S
O84 Zn72 1.898 . S
O84 C79 1.167 . S
O85 Zn74 2.120 . S
O85 C79 1.299 . S
O86 Zn74 2.114 . S
O86 C88 1.166 . S
O87 Zn72 1.905 . S
O87 C88 1.182 . S
C88 O86 1.166 . S
C88 O87 1.182 . S
O89 Zn74 2.080 . S
O89 C92 1.305 1_455 S
O90 Zn73 1.920 1_655 S
O90 C92 1.234 . S
C91 O77 1.305 . S
C91 O78 1.234 . S
C92 O89 1.305 1_655 S
C92 O90 1.234 . S
Zn93 O99 1.920 . S
Zn93 O105 1.898 . S
Zn93 O108 1.905 . S
Zn94 O102 1.905 . S
Zn94 O103 1.898 . S
Zn94 O111 1.920 . S
Zn95 O98 2.080 . S
Zn95 O101 2.114 . S
Zn95 O104 2.120 . S
Zn95 O106 2.120 . S
Zn95 O107 2.114 . S
Zn95 O110 2.080 . S
C96 O101 1.166 . S
C96 O102 1.182 . S
C97 O103 1.167 . S
C97 O104 1.299 . S
O98 Zn95 2.080 . S
O98 C112 1.305 . S
O99 Zn93 1.920 . S
O99 C112 1.234 . S
C100 O105 1.167 . S
C100 O106 1.299 . S
O101 Zn95 2.114 . S
O101 C96 1.166 . S
O102 Zn94 1.905 . S
O102 C96 1.182 . S
O103 Zn94 1.898 . S
O103 C97 1.167 . S
O104 Zn95 2.120 . S
O104 C97 1.299 . S
O105 Zn93 1.898 . S
O105 C100 1.167 . S
O106 Zn95 2.120 . S
O106 C100 1.299 . S
O107 Zn95 2.114 . S
O107 C109 1.166 . S
O108 Zn93 1.905 . S
O108 C109 1.182 . S
C109 O107 1.166 . S
C109 O108 1.182 . S
O110 Zn95 2.080 . S
O110 C113 1.305 . S
O111 Zn94 1.920 . S
O111 C113 1.234 . S
C112 O98 1.305 . S
C112 O99 1.234 . S
C113 O110 1.305 . S
C113 O111 1.234 . S
Zn114 O120 1.920 . S
Zn114 O126 1.898 . S
Zn114 O129 1.905 . S
Zn115 O123 1.905 . S
Zn115 O124 1.898 . S
Zn115 O132 1.920 . S
Zn116 O119 2.080 . S
Zn116 O122 2.114 . S
Zn116 O125 2.120 . S
Zn116 O127 2.120 . S
Zn116 O128 2.114 . S
Zn116 O131 2.080 . S
C117 O122 1.166 . S
C117 O123 1.182 . S
C118 O124 1.167 . S
C118 O125 1.299 . S
O119 Zn116 2.080 . S
O119 C133 1.305 . S
O120 Zn114 1.920 . S
O120 C133 1.234 . S
C121 O126 1.167 . S
C121 O127 1.299 . S
O122 Zn116 2.114 . S
O122 C117 1.166 . S
O123 Zn115 1.905 . S
O123 C117 1.182 . S
O124 Zn115 1.898 . S
O124 C118 1.167 . S
O125 Zn116 2.120 . S
O125 C118 1.299 . S
O126 Zn114 1.898 . S
O126 C121 1.167 . S
O127 Zn116 2.120 . S
O127 C121 1.299 . S
O128 Zn116 2.114 . S
O128 C130 1.166 . S
O129 Zn114 1.905 . S
O129 C130 1.182 . S
C130 O128 1.166 . S
C130 O129 1.182 . S
O131 Zn116 2.080 . S
O131 C134 1.305 . S
O132 Zn115 1.920 . S
O132 C134 1.234 . S
C133 O119 1.305 . S
C133 O120 1.234 . S
C134 O131 1.305 . S
C134 O132 1.234 . S
Zn135 O141 1.920 . S
Zn135 O147 1.898 . S
Zn135 O150 1.905 1_455 S
Zn136 O144 1.905 . S
Zn136 O145 1.898 . S
Zn136 O153 1.920 . S
Zn137 O140 2.080 . S
Zn137 O143 2.114 . S
Zn137 O146 2.120 . S
Zn137 O148 2.120 . S
Zn137 O149 2.114 . S
Zn137 O152 2.080 . S
C138 O143 1.166 . S
C138 O144 1.182 . S
C139 O145 1.167 . S
C139 O146 1.299 . S
O140 Zn137 2.080 . S
O140 C154 1.305 . S
O141 Zn135 1.920 . S
O141 C154 1.234 . S
C142 O147 1.167 . S
C142 O148 1.299 . S
O143 Zn137 2.114 . S
O143 C138 1.166 . S
O144 Zn136 1.905 . S
O144 C138 1.182 . S
O145 Zn136 1.898 . S
O145 C139 1.167 . S
O146 Zn137 2.120 . S
O146 C139 1.299 . S
O147 Zn135 1.898 . S
O147 C142 1.167 . S
O148 Zn137 2.120 . S
O148 C142 1.299 . S
O149 Zn137 2.114 . S
O149 C151 1.166 1_455 S
O150 Zn135 1.905 1_655 S
O150 C151 1.182 . S
C151 O149 1.166 1_655 S
C151 O150 1.182 . S
O152 Zn137 2.080 . S
O152 C155 1.305 . S
O153 Zn136 1.920 . S
O153 C155 1.234 . S
C154 O140 1.305 . S
C154 O141 1.234 . S
C155 O152 1.305 . S
C155 O153 1.234 . S
C156 C157 1.363 . S
C156 C162 1.379 . S
C156 N164 1.356 . S
C157 C156 1.363 . S
C157 C163 1.363 . S
C158 C159 1.363 . S
C158 C163 1.379 . S
C158 N165 1.356 . S
C159 C158 1.363 . S
C159 C162 1.363 . S
N160 C162 1.356 . S
N160 H172 0.984 . S
N160 H173 0.985 . S
N161 C163 1.356 . S
N161 H166 0.984 . S
N161 H167 0.985 . S
C162 C156 1.379 . S
C162 C159 1.363 . S
C162 N160 1.356 . S
C163 C157 1.363 . S
C163 C158 1.379 . S
C163 N161 1.356 . S
N164 C156 1.356 . S
N164 H170 0.984 . S
N164 H171 0.984 . S
N165 C158 1.356 . S
N165 H168 0.984 . S
N165 H169 0.985 . S
H166 N161 0.984 . S
H167 N161 0.985 . S
H168 N165 0.984 . S
H169 N165 0.985 . S
H170 N164 0.984 . S
H171 N164 0.984 . S
H172 N160 0.984 . S
H173 N160 0.985 . S
C174 C175 1.363 . S
C174 C180 1.379 . S
C174 N182 1.356 . S
C175 C174 1.363 . S
C175 C181 1.363 . S
C176 C177 1.363 . S
C176 C181 1.379 . S
C176 N183 1.356 . S
C177 C176 1.363 . S
C177 C180 1.363 . S
N178 C180 1.356 . S
N178 H190 0.984 . S
N178 H191 0.985 . S
N179 C181 1.356 1_455 S
N179 H184 0.984 . S
N179 H185 0.985 . S
C180 C174 1.379 . S
C180 C177 1.363 . S
C180 N178 1.356 . S
C181 C175 1.363 . S
C181 C176 1.379 . S
C181 N179 1.356 1_655 S
N182 C174 1.356 . S
N182 H188 0.984 . S
N182 H189 0.984 1_655 S
N183 C176 1.356 . S
N183 H186 0.984 . S
N183 H187 0.985 . S
H184 N179 0.984 . S
H185 N179 0.985 . S
H186 N183 0.984 . S
H187 N183 0.985 . S
H188 N182 0.984 . S
H189 N182 0.984 1_455 S
H190 N178 0.984 . S
H191 N178 0.985 . S
C192 C193 1.363 . S
C192 C198 1.379 . S
C192 N200 1.356 . S
C193 C192 1.363 . S
C193 C199 1.363 . S
C194 C195 1.363 . S
C194 C199 1.379 . S
C194 N201 1.356 . S
C195 C194 1.363 . S
C195 C198 1.363 . S
N196 C198 1.356 . S
N196 H208 0.984 . S
N196 H209 0.985 . S
N197 C199 1.356 . S
N197 H202 0.984 . S
N197 H203 0.985 . S
C198 C192 1.379 . S
C198 C195 1.363 . S
C198 N196 1.356 . S
C199 C193 1.363 . S
C199 C194 1.379 . S
C199 N197 1.356 . S
N200 C192 1.356 . S
N200 H206 0.984 . S
N200 H207 0.984 . S
N201 C194 1.356 . S
N201 H204 0.984 . S
N201 H205 0.985 . S
H202 N197 0.984 . S
H203 N197 0.985 . S
H204 N201 0.984 . S
H205 N201 0.985 . S
H206 N200 0.984 . S
H207 N200 0.984 . S
H208 N196 0.984 . S
H209 N196 0.985 . S
C210 C211 1.363 . S
C210 C216 1.379 . S
C210 N218 1.356 . S
C211 C210 1.363 . S
C211 C217 1.363 . S
C212 C213 1.363 . S
C212 C217 1.379 . S
C212 N219 1.356 . S
C213 C212 1.363 . S
C213 C216 1.363 . S
N214 C216 1.356 . S
N214 H226 0.984 . S
N214 H227 0.985 . S
N215 C217 1.356 . S
N215 H220 0.984 . S
N215 H221 0.985 . S
C216 C210 1.379 . S
C216 C213 1.363 . S
C216 N214 1.356 . S
C217 C211 1.363 . S
C217 C212 1.379 . S
C217 N215 1.356 . S
N218 C210 1.356 . S
N218 H224 0.984 . S
N218 H225 0.984 . S
N219 C212 1.356 . S
N219 H222 0.984 . S
N219 H223 0.985 . S
H220 N215 0.984 . S
H221 N215 0.985 . S
H222 N219 0.984 . S
H223 N219 0.985 . S
H224 N218 0.984 . S
H225 N218 0.984 . S
H226 N214 0.984 . S
H227 N214 0.985 . S
C228 C229 1.363 . S
C228 C234 1.379 . S
C228 N236 1.356 1_455 S
C229 C228 1.363 . S
C229 C235 1.363 . S
C230 C231 1.363 . S
C230 C235 1.379 . S
C230 N237 1.356 . S
C231 C230 1.363 . S
C231 C234 1.363 . S
N232 C234 1.356 . S
N232 H244 0.984 1_455 S
N232 H245 0.985 . S
N233 C235 1.356 . S
N233 H238 0.984 . S
N233 H239 0.985 . S
C234 C228 1.379 . S
C234 C231 1.363 . S
C234 N232 1.356 . S
C235 C229 1.363 . S
C235 C230 1.379 . S
C235 N233 1.356 . S
N236 C228 1.356 1_655 S
N236 H242 0.984 . S
N236 H243 0.984 . S
N237 C230 1.356 . S
N237 H240 0.984 . S
N237 H241 0.985 . S
H238 N233 0.984 . S
H239 N233 0.985 . S
H240 N237 0.984 . S
H241 N237 0.985 . S
H242 N236 0.984 . S
H243 N236 0.984 . S
H244 N232 0.984 1_655 S
H245 N232 0.985 . S
C246 C247 1.363 . S
C246 C252 1.379 . S
C246 N254 1.356 . S
C247 C246 1.363 . S
C247 C253 1.363 . S
C248 C249 1.363 . S
C248 C253 1.379 . S
C248 N255 1.356 . S
C249 C248 1.363 . S
C249 C252 1.363 . S
N250 C252 1.356 . S
N250 H262 0.984 . S
N250 H263 0.985 . S
N251 C253 1.356 . S
N251 H256 0.984 . S
N251 H257 0.985 . S
C252 C246 1.379 . S
C252 C249 1.363 . S
C252 N250 1.356 . S
C253 C247 1.363 . S
C253 C248 1.379 . S
C253 N251 1.356 . S
N254 C246 1.356 . S
N254 H260 0.984 . S
N254 H261 0.984 . S
N255 C248 1.356 . S
N255 H258 0.984 . S
N255 H259 0.985 . S
H256 N251 0.984 . S
H257 N251 0.985 . S
H258 N255 0.984 . S
H259 N255 0.985 . S
H260 N254 0.984 . S
H261 N254 0.984 . S
H262 N250 0.984 . S
H263 N250 0.985 . S
C264 C265 1.363 . S
C264 C270 1.379 . S
C264 N272 1.356 . S
C265 C264 1.363 . S
C265 C271 1.363 . S
C266 C267 1.363 . S
C266 C271 1.379 . S
C266 N273 1.356 . S
C267 C266 1.363 . S
C267 C270 1.363 . S
N268 C270 1.356 . S
N268 H280 0.984 . S
N268 H281 0.985 . S
N269 C271 1.356 . S
N269 H274 0.984 . S
N269 H275 0.985 . S
C270 C264 1.379 . S
C270 C267 1.363 . S
C270 N268 1.356 . S
C271 C265 1.363 . S
C271 C266 1.379 . S
C271 N269 1.356 . S
N272 C264 1.356 . S
N272 H278 0.984 . S
N272 H279 0.984 . S
N273 C266 1.356 . S
N273 H276 0.984 . S
N273 H277 0.985 . S
H274 N269 0.984 . S
H275 N269 0.985 . S
H276 N273 0.984 . S
H277 N273 0.985 . S
H278 N272 0.984 . S
H279 N272 0.984 . S
H280 N268 0.984 . S
H281 N268 0.985 . S
C282 C283 1.363 1_655 S
C282 C288 1.379 . S
C282 N290 1.350 1_655 S
C283 C282 1.363 1_455 S
C283 C289 1.363 1_455 S
C284 C285 1.363 . S
C284 C289 1.379 . S
C284 N291 1.356 . S
C285 C284 1.363 . S
C285 C288 1.363 . S
N286 C288 1.356 . S
N286 H298 0.984 . S
N286 H299 0.985 . S
N287 C289 1.356 1_455 S
N287 H292 0.984 . S
N287 H293 0.985 . S
C288 C282 1.379 . S
C288 C285 1.363 . S
C288 N286 1.356 . S
C289 C283 1.363 1_655 S
C289 C284 1.379 . S
C289 N287 1.356 1_655 S
N290 C282 1.350 1_455 S
N290 H296 0.981 1_455 S
N290 H297 0.994 . S
N291 C284 1.356 . S
N291 H294 0.984 . S
N291 H295 0.985 . S
H292 N287 0.984 . S
H293 N287 0.985 . S
H294 N291 0.984 . S
H295 N291 0.985 . S
H296 N290 0.981 1_655 S
H297 N290 0.994 . S
H298 N286 0.984 . S
H299 N286 0.985 . S
C300 C301 1.363 . S
C300 C306 1.379 . S
C300 N308 1.356 . S
C301 C300 1.363 . S
C301 C307 1.363 . S
C302 C303 1.363 . S
C302 C307 1.379 . S
C302 N309 1.356 . S
C303 C302 1.363 . S
C303 C306 1.363 . S
N304 C306 1.356 . S
N304 H316 0.984 . S
N304 H317 0.985 . S
N305 C307 1.356 . S
N305 H310 0.984 . S
N305 H311 0.985 . S
C306 C300 1.379 . S
C306 C303 1.363 . S
C306 N304 1.356 . S
C307 C301 1.363 . S
C307 C302 1.379 . S
C307 N305 1.356 . S
N308 C300 1.356 . S
N308 H314 0.984 . S
N308 H315 0.984 . S
N309 C302 1.356 . S
N309 H312 0.984 . S
N309 H313 0.985 . S
H310 N305 0.984 . S
H311 N305 0.985 . S
H312 N309 0.984 . S
H313 N309 0.985 . S
H314 N308 0.984 . S
H315 N308 0.984 . S
H316 N304 0.984 . S
H317 N304 0.985 . S
C318 C319 1.363 . S
C318 C324 1.379 . S
C318 N326 1.356 . S
C319 C318 1.363 . S
C319 C325 1.363 . S
C320 C321 1.363 . S
C320 C325 1.379 . S
C320 N327 1.356 . S
C321 C320 1.363 . S
C321 C324 1.363 . S
N322 C324 1.356 . S
N322 H334 0.984 . S
N322 H335 0.985 . S
N323 C325 1.356 . S
N323 H328 0.984 . S
N323 H329 0.985 . S
C324 C318 1.379 . S
C324 C321 1.363 . S
C324 N322 1.356 . S
C325 C319 1.363 . S
C325 C320 1.379 . S
C325 N323 1.356 . S
N326 C318 1.356 . S
N326 H332 0.984 . S
N326 H333 0.984 . S
N327 C320 1.356 . S
N327 H330 0.984 . S
N327 H331 0.985 . S
H328 N323 0.984 . S
H329 N323 0.985 . S
H330 N327 0.984 . S
H331 N327 0.985 . S
H332 N326 0.984 . S
H333 N326 0.984 . S
H334 N322 0.984 . S
H335 N322 0.985 . S
C336 C337 1.363 . S
C336 C342 1.379 . S
C336 N344 1.356 . S
C337 C336 1.363 . S
C337 C343 1.363 . S
C338 C339 1.363 . S
C338 C343 1.379 . S
C338 N345 1.356 . S
C339 C338 1.363 . S
C339 C342 1.363 . S
N340 C342 1.356 . S
N340 H352 0.984 . S
N340 H353 0.985 . S
N341 C343 1.356 . S
N341 H346 0.984 . S
N341 H347 0.985 . S
C342 C336 1.379 . S
C342 C339 1.363 . S
C342 N340 1.356 . S
C343 C337 1.363 . S
C343 C338 1.379 . S
C343 N341 1.356 . S
N344 C336 1.356 . S
N344 H350 0.984 . S
N344 H351 0.984 . S
N345 C338 1.356 . S
N345 H348 0.984 . S
N345 H349 0.985 . S
H346 N341 0.984 . S
H347 N341 0.985 . S
H348 N345 0.984 . S
H349 N345 0.985 . S
H350 N344 0.984 . S
H351 N344 0.984 . S
H352 N340 0.984 . S
H353 N340 0.985 . S
C354 C355 1.363 . S
C354 C360 1.379 . S
C354 N362 1.356 . S
C355 C354 1.363 . S
C355 C361 1.363 . S
C356 C357 1.363 . S
C356 C361 1.379 . S
C356 N363 1.356 . S
C357 C356 1.363 . S
C357 C360 1.363 . S
N358 C360 1.356 . S
N358 H370 0.984 . S
N358 H371 0.985 . S
N359 C361 1.356 . S
N359 H364 0.984 . S
N359 H365 0.985 . S
C360 C354 1.379 . S
C360 C357 1.363 . S
C360 N358 1.356 . S
C361 C355 1.363 . S
C361 C356 1.379 . S
C361 N359 1.356 . S
N362 C354 1.356 . S
N362 H368 0.984 . S
N362 H369 0.984 . S
N363 C356 1.356 . S
N363 H366 0.984 . S
N363 H367 0.985 . S
H364 N359 0.984 . S
H365 N359 0.985 . S
H366 N363 0.984 . S
H367 N363 0.985 . S
H368 N362 0.984 . S
H369 N362 0.984 . S
H370 N358 0.984 . S
H371 N358 0.985 . S
C372 C373 1.363 . S
C372 C378 1.379 . S
C372 N380 1.356 . S
C373 C372 1.363 . S
C373 C379 1.363 . S
C374 C375 1.363 1_565 S
C374 C379 1.379 . S
C374 N381 1.356 . S
C375 C374 1.363 1_545 S
C375 C378 1.363 1_545 S
N376 C378 1.356 1_545 S
N376 H388 0.984 . S
N376 H389 0.985 . S
N377 C379 1.356 . S
N377 H382 0.984 . S
N377 H383 0.985 . S
C378 C372 1.379 . S
C378 C375 1.363 1_565 S
C378 N376 1.356 1_565 S
C379 C373 1.363 . S
C379 C374 1.379 . S
C379 N377 1.356 . S
N380 C372 1.356 . S
N380 H386 0.984 . S
N380 H387 0.984 . S
N381 C374 1.356 . S
N381 H384 0.984 1_565 S
N381 H385 0.985 . S
H382 N377 0.984 . S
H383 N377 0.985 . S
H384 N381 0.984 1_545 S
H385 N381 0.985 . S
H386 N380 0.984 . S
H387 N380 0.984 . S
H388 N376 0.984 . S
H389 N376 0.985 . S
C390 C391 1.363 . S
C390 C396 1.379 1_545 S
C390 N398 1.356 . S
C391 C390 1.363 . S
C391 C397 1.363 . S
C392 C393 1.363 1_545 S
C392 C397 1.379 . S
C392 N399 1.356 1_545 S
C393 C392 1.363 1_565 S
C393 C396 1.363 . S
N394 C396 1.356 . S
N394 H406 0.984 . S
N394 H407 0.985 . S
N395 C397 1.356 . S
N395 H400 0.984 . S
N395 H401 0.985 . S
C396 C390 1.379 1_565 S
C396 C393 1.363 . S
C396 N394 1.356 . S
C397 C391 1.363 . S
C397 C392 1.379 . S
C397 N395 1.356 . S
N398 C390 1.356 . S
N398 H404 0.984 . S
N398 H405 0.984 . S
N399 C392 1.356 1_565 S
N399 H402 0.984 . S
N399 H403 0.985 . S
H400 N395 0.984 . S
H401 N395 0.985 . S
H402 N399 0.984 . S
H403 N399 0.985 . S
H404 N398 0.984 . S
H405 N398 0.984 . S
H406 N394 0.984 . S
H407 N394 0.985 . S
C408 C409 1.363 . S
C408 C414 1.379 . S
C408 N416 1.356 . S
C409 C408 1.363 . S
C409 C415 1.363 . S
C410 C411 1.363 . S
C410 C415 1.379 1_565 S
C410 N417 1.356 . S
C411 C410 1.363 . S
C411 C414 1.363 1_565 S
N412 C414 1.356 1_565 S
N412 H424 0.984 . S
N412 H425 0.985 . S
N413 C415 1.356 . S
N413 H418 0.984 . S
N413 H419 0.985 . S
C414 C408 1.379 . S
C414 C411 1.363 1_545 S
C414 N412 1.356 1_545 S
C415 C409 1.363 . S
C415 C410 1.379 1_545 S
C415 N413 1.356 . S
N416 C408 1.356 . S
N416 H422 0.984 . S
N416 H423 0.984 . S
N417 C410 1.356 . S
N417 H420 0.984 . S
N417 H421 0.985 . S
H418 N413 0.984 . S
H419 N413 0.985 . S
H420 N417 0.984 . S
H421 N417 0.985 . S
H422 N416 0.984 . S
H423 N416 0.984 . S
H424 N412 0.984 . S
H425 N412 0.985 . S
C426 C427 1.363 . S
C426 C432 1.379 . S
C426 N434 1.356 . S
C427 C426 1.363 . S
C427 C433 1.363 . S
C428 C429 1.363 1_565 S
C428 C433 1.379 . S
C428 N435 1.356 1_565 S
C429 C428 1.363 1_545 S
C429 C432 1.363 1_545 S
N430 C432 1.356 1_545 S
N430 H442 0.984 . S
N430 H443 0.985 . S
N431 C433 1.356 . S
N431 H436 0.984 . S
N431 H437 0.985 . S
C432 C426 1.379 . S
C432 C429 1.363 1_565 S
C432 N430 1.356 1_565 S
C433 C427 1.363 . S
C433 C428 1.379 . S
C433 N431 1.356 . S
N434 C426 1.356 . S
N434 H440 0.984 . S
N434 H441 0.984 . S
N435 C428 1.356 1_545 S
N435 H438 0.984 . S
N435 H439 0.985 1_545 S
H436 N431 0.984 . S
H437 N431 0.985 . S
H438 N435 0.984 . S
H439 N435 0.985 1_565 S
H440 N434 0.984 . S
H441 N434 0.984 . S
H442 N430 0.984 . S
H443 N430 0.985 . S
C444 C445 1.363 1_556 S
C444 C450 1.379 . S
C444 N452 1.356 1_556 S
C445 C444 1.363 1_554 S
C445 C451 1.363 1_554 S
C446 C447 1.363 . S
C446 C451 1.379 . S
C446 N453 1.356 . S
C447 C446 1.363 . S
C447 C450 1.363 . S
N448 C450 1.356 . S
N448 H460 0.984 . S
N448 H461 0.985 . S
N449 C451 1.356 1_554 S
N449 H454 0.984 . S
N449 H455 0.985 . S
C450 C444 1.379 . S
C450 C447 1.363 . S
C450 N448 1.356 . S
C451 C445 1.363 1_556 S
C451 C446 1.379 . S
C451 N449 1.356 1_556 S
N452 C444 1.356 1_554 S
N452 H458 0.984 . S
N452 H459 0.984 . S
N453 C446 1.356 . S
N453 H456 0.984 . S
N453 H457 0.985 . S
H454 N449 0.984 . S
H455 N449 0.985 . S
H456 N453 0.984 . S
H457 N453 0.985 . S
H458 N452 0.984 . S
H459 N452 0.984 . S
H460 N448 0.984 . S
H461 N448 0.985 . S
C462 C463 1.363 . S
C462 C468 1.379 . S
C462 N470 1.356 . S
C463 C462 1.363 . S
C463 C469 1.363 . S
C464 C465 1.363 . S
C464 C469 1.379 . S
C464 N471 1.356 . S
C465 C464 1.363 . S
C465 C468 1.363 . S
N466 C468 1.356 . S
N466 H478 0.984 1_455 S
N466 H479 0.985 . S
N467 C469 1.356 . S
N467 H472 0.984 . S
N467 H473 0.985 . S
C468 C462 1.379 . S
C468 C465 1.363 . S
C468 N466 1.356 . S
C469 C463 1.363 . S
C469 C464 1.379 . S
C469 N467 1.356 . S
N470 C462 1.356 . S
N470 H476 0.984 1_455 S
N470 H477 0.984 . S
N471 C464 1.356 . S
N471 H474 0.984 . S
N471 H475 0.985 . S
H472 N467 0.984 . S
H473 N467 0.985 . S
H474 N471 0.984 . S
H475 N471 0.985 . S
H476 N470 0.984 1_655 S
H477 N470 0.984 . S
H478 N466 0.984 1_655 S
H479 N466 0.985 . S
C480 C481 1.363 . S
C480 C486 1.379 . S
C480 N488 1.356 . S
C481 C480 1.363 . S
C481 C487 1.363 . S
C482 C483 1.363 . S
C482 C487 1.379 . S
C482 N489 1.356 . S
C483 C482 1.363 . S
C483 C486 1.363 . S
N484 C486 1.356 . S
N484 H496 0.984 . S
N484 H497 0.985 . S
N485 C487 1.356 . S
N485 H490 0.984 . S
N485 H491 0.985 . S
C486 C480 1.379 . S
C486 C483 1.363 . S
C486 N484 1.356 . S
C487 C481 1.363 . S
C487 C482 1.379 . S
C487 N485 1.356 . S
N488 C480 1.356 . S
N488 H494 0.984 . S
N488 H495 0.984 . S
N489 C482 1.356 . S
N489 H492 0.984 . S
N489 H493 0.985 . S
H490 N485 0.984 . S
H491 N485 0.985 . S
H492 N489 0.984 . S
H493 N489 0.985 . S
H494 N488 0.984 . S
H495 N488 0.984 . S
H496 N484 0.984 . S
H497 N484 0.985 . S
C498 C499 1.363 . S
C498 C504 1.379 . S
C498 N506 1.356 . S
C499 C498 1.363 . S
C499 C505 1.363 . S
C500 C501 1.363 . S
C500 C505 1.379 . S
C500 N507 1.356 . S
C501 C500 1.363 . S
C501 C504 1.363 . S
N502 C504 1.356 . S
N502 H514 0.984 . S
N502 H515 0.985 . S
N503 C505 1.356 . S
N503 H508 0.984 . S
N503 H509 0.985 . S
C504 C498 1.379 . S
C504 C501 1.363 . S
C504 N502 1.356 . S
C505 C499 1.363 . S
C505 C500 1.379 . S
C505 N503 1.356 . S
N506 C498 1.356 . S
N506 H512 0.984 . S
N506 H513 0.984 . S
N507 C500 1.356 . S
N507 H510 0.984 . S
N507 H511 0.985 . S
H508 N503 0.984 . S
H509 N503 0.985 . S
H510 N507 0.984 . S
H511 N507 0.985 . S
H512 N506 0.984 . S
H513 N506 0.984 . S
H514 N502 0.984 . S
H515 N502 0.985 . S
C516 C517 1.350 1_554 S
C516 C522 1.400 . S
C516 N524 1.342 1_454 S
C517 C516 1.350 1_556 S
C517 C523 1.363 . S
C518 C519 1.363 . S
C518 C523 1.379 1_554 S
C518 N525 1.356 . S
C519 C518 1.363 . S
C519 C522 1.363 . S
N520 C522 1.356 . S
N520 H532 0.984 1_455 S
N520 H533 0.985 . S
N521 C523 1.356 . S
N521 H526 0.984 . S
N521 H527 0.985 . S
C522 C516 1.400 . S
C522 C519 1.363 . S
C522 N520 1.356 . S
C523 C517 1.363 . S
C523 C518 1.379 1_556 S
C523 N521 1.356 . S
N524 C516 1.342 1_656 S
N524 H530 0.984 . S
N524 H531 0.984 . S
N525 C518 1.356 . S
N525 H528 0.984 . S
N525 H529 0.985 . S
H526 N521 0.984 . S
H527 N521 0.985 . S
H528 N525 0.984 . S
H529 N525 0.985 . S
H530 N524 0.984 . S
H531 N524 0.984 . S
H532 N520 0.984 1_655 S
H533 N520 0.985 . S
C534 C535 1.363 . S
C534 C540 1.379 . S
C534 N542 1.356 . S
C535 C534 1.363 . S
C535 C541 1.363 . S
C536 C537 1.363 . S
C536 C541 1.379 . S
C536 N543 1.356 . S
C537 C536 1.363 . S
C537 C540 1.363 . S
N538 C540 1.356 . S
N538 H550 0.984 . S
N538 H551 0.985 . S
N539 C541 1.356 . S
N539 H544 0.984 . S
N539 H545 0.985 . S
C540 C534 1.379 . S
C540 C537 1.363 . S
C540 N538 1.356 . S
C541 C535 1.363 . S
C541 C536 1.379 . S
C541 N539 1.356 . S
N542 C534 1.356 . S
N542 H548 0.984 . S
N542 H549 0.984 . S
N543 C536 1.356 . S
N543 H546 0.984 . S
N543 H547 0.985 . S
H544 N539 0.984 . S
H545 N539 0.985 . S
H546 N543 0.984 . S
H547 N543 0.985 . S
H548 N542 0.984 . S
H549 N542 0.984 . S
H550 N538 0.984 . S
H551 N538 0.985 . S
C552 C553 1.363 . S
C552 C558 1.379 . S
C552 N560 1.356 . S
C553 C552 1.363 . S
C553 C559 1.363 . S
C554 C555 1.363 . S
C554 C559 1.379 . S
C554 N561 1.356 . S
C555 C554 1.363 . S
C555 C558 1.363 . S
N556 C558 1.356 . S
N556 H568 0.984 . S
N556 H569 0.985 . S
N557 C559 1.356 . S
N557 H562 0.984 . S
N557 H563 0.985 . S
C558 C552 1.379 . S
C558 C555 1.363 . S
C558 N556 1.356 . S
C559 C553 1.363 . S
C559 C554 1.379 . S
C559 N557 1.356 . S
N560 C552 1.356 . S
N560 H566 0.984 . S
N560 H567 0.984 . S
N561 C554 1.356 . S
N561 H564 0.984 . S
N561 H565 0.985 . S
H562 N557 0.984 . S
H563 N557 0.985 . S
H564 N561 0.984 . S
H565 N561 0.985 . S
H566 N560 0.984 . S
H567 N560 0.984 . S
H568 N556 0.984 . S
H569 N556 0.985 . S
C570 C571 1.363 . S
C570 C576 1.379 . S
C570 N578 1.356 . S
C571 C570 1.363 . S
C571 C577 1.363 . S
C572 C573 1.363 . S
C572 C577 1.379 . S
C572 N579 1.356 . S
C573 C572 1.363 . S
C573 C576 1.363 . S
N574 C576 1.356 . S
N574 H586 0.984 . S
N574 H587 0.985 . S
N575 C577 1.356 . S
N575 H580 0.984 . S
N575 H581 0.985 . S
C576 C570 1.379 . S
C576 C573 1.363 . S
C576 N574 1.356 . S
C577 C571 1.363 . S
C577 C572 1.379 . S
C577 N575 1.356 . S
N578 C570 1.356 . S
N578 H584 0.984 . S
N578 H585 0.984 . S
N579 C572 1.356 . S
N579 H582 0.984 . S
N579 H583 0.985 . S
H580 N575 0.984 . S
H581 N575 0.985 . S
H582 N579 0.984 . S
H583 N579 0.985 . S
H584 N578 0.984 . S
H585 N578 0.984 . S
H586 N574 0.984 . S
H587 N574 0.985 . S
C159 C79 1.426 . S
C157 C4 1.543 . S
C177 C97 1.356 . S
C175 C13 1.433 1_655 S
C193 C25 1.410 . S
C195 C121 1.289 . S
C213 C151 1.271 . S
C211 C34 1.456 . S
C231 C139 1.293 . S
C229 C40 1.419 . S
C247 C52 1.437 . S
C249 C92 1.372 . S
C265 C61 1.547 . S
C267 C112 1.437 . S
C283 C67 1.469 . S
C285 C117 1.280 . S
C301 C70 1.429 . S
C303 C133 1.362 . S
C319 C49 1.477 . S
C321 C88 1.280 . S
C339 C155 1.373 . S
C337 C31 1.443 . S
C357 C100 1.256 . S
C355 C16 1.446 . S
C373 C22 1.535 . S
C375 C118 1.419 . S
C391 C7 1.417 . S
C393 C76 1.296 . S
C411 C96 1.302 . S
C409 C58 1.424 . S
C429 C142 1.429 . S
C427 C43 1.545 . S
C447 C138 1.313 . S
C445 C5 1.497 . S
C465 C91 1.392 . S
C463 C14 1.486 . S
C481 C23 1.482 . S
C483 C113 1.294 . S
C499 C32 1.503 . S
C501 C134 1.406 . S
C519 C75 1.312 . S
C517 C41 1.504 . S
C535 C50 1.524 . S
C537 C109 1.420 . S
C555 C130 1.327 . S
C553 C59 1.522 . S
C573 C154 1.401 . S
C571 C68 1.505 . S
