# Generated by pormake.
# Topology ssb, (4,4)-cn, num edge types: 1
# Building blocks:
#     Node 0, Type 0, BuildingBlock: MIFKUJ_clean_linker_1, # of connection points: 4
#     Node 1, Type 0, BuildingBlock: MIFKUJ_clean_linker_1, # of connection points: 4
#     Node 2, Type 0, BuildingBlock: MIFKUJ_clean_linker_1, # of connection points: 4
#     Node 3, Type 0, BuildingBlock: MIFKUJ_clean_linker_1, # of connection points: 4
#     Node 4, Type 0, BuildingBlock: MIFKUJ_clean_linker_1, # of connection points: 4
#     Node 5, Type 0, BuildingBlock: MIFKUJ_clean_linker_1, # of connection points: 4
#     Node 6, Type 0, BuildingBlock: MIFKUJ_clean_linker_1, # of connection points: 4
#     Node 7, Type 0, BuildingBlock: MIFKUJ_clean_linker_1, # of connection points: 4
#     Node 8, Type 1, BuildingBlock: NAWXER_clean_sbu_0, # of connection points: 4
#     Node 9, Type 1, BuildingBlock: NAWXER_clean_sbu_0, # of connection points: 4
#     Node 10, Type 1, BuildingBlock: NAWXER_clean_sbu_0, # of connection points: 4
#     Node 11, Type 1, BuildingBlock: NAWXER_clean_sbu_0, # of connection points: 4
#     Node 12, Type 1, BuildingBlock: NAWXER_clean_sbu_0, # of connection points: 4
#     Node 13, Type 1, BuildingBlock: NAWXER_clean_sbu_0, # of connection points: 4
#     Node 14, Type 1, BuildingBlock: NAWXER_clean_sbu_0, # of connection points: 4
#     Node 15, Type 1, BuildingBlock: NAWXER_clean_sbu_0, # of connection points: 4
#     Edge 16, Type (0, 1), BuildingBlock: OJICUG_clean_linker_0, # of connection points: 2
#     Edge 17, Type (0, 1), BuildingBlock: OJICUG_clean_linker_0, # of connection points: 2
#     Edge 18, Type (0, 1), BuildingBlock: OJICUG_clean_linker_0, # of connection points: 2
#     Edge 19, Type (0, 1), BuildingBlock: OJICUG_clean_linker_0, # of connection points: 2
#     Edge 20, Type (0, 1), BuildingBlock: OJICUG_clean_linker_0, # of connection points: 2
#     Edge 21, Type (0, 1), BuildingBlock: OJICUG_clean_linker_0, # of connection points: 2
#     Edge 22, Type (0, 1), BuildingBlock: OJICUG_clean_linker_0, # of connection points: 2
#     Edge 23, Type (0, 1), BuildingBlock: OJICUG_clean_linker_0, # of connection points: 2
#     Edge 24, Type (0, 1), BuildingBlock: OJICUG_clean_linker_0, # of connection points: 2
#     Edge 25, Type (0, 1), BuildingBlock: OJICUG_clean_linker_0, # of connection points: 2
#     Edge 26, Type (0, 1), BuildingBlock: OJICUG_clean_linker_0, # of connection points: 2
#     Edge 27, Type (0, 1), BuildingBlock: OJICUG_clean_linker_0, # of connection points: 2
#     Edge 28, Type (0, 1), BuildingBlock: OJICUG_clean_linker_0, # of connection points: 2
#     Edge 29, Type (0, 1), BuildingBlock: OJICUG_clean_linker_0, # of connection points: 2
#     Edge 30, Type (0, 1), BuildingBlock: OJICUG_clean_linker_0, # of connection points: 2
#     Edge 31, Type (0, 1), BuildingBlock: OJICUG_clean_linker_0, # of connection points: 2
#     Edge 32, Type (0, 1), BuildingBlock: OJICUG_clean_linker_0, # of connection points: 2
#     Edge 33, Type (0, 1), BuildingBlock: OJICUG_clean_linker_0, # of connection points: 2
#     Edge 34, Type (0, 1), BuildingBlock: OJICUG_clean_linker_0, # of connection points: 2
#     Edge 35, Type (0, 1), BuildingBlock: OJICUG_clean_linker_0, # of connection points: 2
#     Edge 36, Type (0, 1), BuildingBlock: OJICUG_clean_linker_0, # of connection points: 2
#     Edge 37, Type (0, 1), BuildingBlock: OJICUG_clean_linker_0, # of connection points: 2
#     Edge 38, Type (0, 1), BuildingBlock: OJICUG_clean_linker_0, # of connection points: 2
#     Edge 39, Type (0, 1), BuildingBlock: OJICUG_clean_linker_0, # of connection points: 2
#     Edge 40, Type (0, 1), BuildingBlock: OJICUG_clean_linker_0, # of connection points: 2
#     Edge 41, Type (0, 1), BuildingBlock: OJICUG_clean_linker_0, # of connection points: 2
#     Edge 42, Type (0, 1), BuildingBlock: OJICUG_clean_linker_0, # of connection points: 2
#     Edge 43, Type (0, 1), BuildingBlock: OJICUG_clean_linker_0, # of connection points: 2
#     Edge 44, Type (0, 1), BuildingBlock: OJICUG_clean_linker_0, # of connection points: 2
#     Edge 45, Type (0, 1), BuildingBlock: OJICUG_clean_linker_0, # of connection points: 2
#     Edge 46, Type (0, 1), BuildingBlock: OJICUG_clean_linker_0, # of connection points: 2
#     Edge 47, Type (0, 1), BuildingBlock: OJICUG_clean_linker_0, # of connection points: 2
# Relax obj value: 0.000
# Max RMSD: 0.000
# Mean RMSD: 0.000
data_MOF--net-ssb--node1-NAWXER_clean_sbu_0--node2-MIFKUJ_clean_linker_1--edge1-OJICUG_clean_linker_0
_symmetry_space_group_name_H-M    P1
_symmetry_Int_Tables_number       1
_symmetry_cell_setting            triclinic
loop_
_symmetry_equiv_pos_as_xyz
'x, y, z'
_cell_length_a     41.839398
_cell_length_b     41.591052
_cell_length_c     36.475723
_cell_angle_alpha  90.124204
_cell_angle_beta   90.099766
_cell_angle_gamma 90.16668
loop_
_atom_site_label
_atom_site_type_symbol
_atom_site_fract_x
_atom_site_fract_y
_atom_site_fract_z
_atom_type_partial_charge
H0 H 0.29417 0.23414 0.16661 0.0
H1 H 0.33591 0.23856 0.12025 0.0
H2 H 0.36098 0.33288 0.1613 0.0
H3 H 0.31867 0.32848 0.20737 0.0
H4 H 0.29975 0.23261 0.23915 0.0
H5 H 0.2406 0.29426 0.15331 0.0
H6 H 0.22949 0.33733 0.10937 0.0
H7 H 0.24297 0.40785 0.19512 0.0
H8 H 0.25407 0.36468 0.23897 0.0
H9 H 0.22441 0.31292 0.33479 0.0
H10 H 0.17891 0.31255 0.3768 0.0
H11 H 0.14706 0.22248 0.32966 0.0
H12 H 0.1929 0.22276 0.28844 0.0
H13 H 0.21588 0.31453 0.26023 0.0
H14 H 0.27217 0.24287 0.34712 0.0
H15 H 0.27773 0.19411 0.38455 0.0
H16 H 0.2602 0.13561 0.28867 0.0
H17 H 0.25504 0.18425 0.25141 0.0
C18 C 0.30333 0.28088 0.19056 0.0
C19 C 0.30853 0.25583 0.16553 0.0
C20 C 0.33248 0.2584 0.13909 0.0
C21 C 0.35209 0.28595 0.13733 0.0
C22 C 0.34619 0.31147 0.1617 0.0
C23 C 0.32206 0.30893 0.18812 0.0
C24 C 0.27925 0.27713 0.22013 0.0
C25 C 0.28125 0.2504 0.24365 0.0
C26 C 0.255 0.30016 0.22588 0.0
C27 C 0.24864 0.32632 0.19927 0.0
C28 C 0.24123 0.31901 0.16261 0.0
C29 C 0.23448 0.34357 0.13766 0.0
C30 C 0.23525 0.3759 0.14888 0.0
C31 C 0.2423 0.38313 0.18572 0.0
C32 C 0.24868 0.35854 0.21074 0.0
C33 C 0.21227 0.26764 0.30886 0.0
C34 C 0.20791 0.2928 0.33407 0.0
C35 C 0.18168 0.29275 0.35775 0.0
C36 C 0.15915 0.26763 0.35646 0.0
C37 C 0.16413 0.24201 0.3318 0.0
C38 C 0.19043 0.24203 0.30826 0.0
C39 C 0.23685 0.27052 0.27988 0.0
C40 C 0.23471 0.29699 0.25616 0.0
C41 C 0.26012 0.24654 0.27328 0.0
C42 C 0.26298 0.21725 0.29647 0.0
C43 C 0.2695 0.21954 0.3342 0.0
C44 C 0.27295 0.19168 0.35548 0.0
C45 C 0.26947 0.16103 0.33952 0.0
C46 C 0.26289 0.15887 0.30177 0.0
C47 C 0.25998 0.18665 0.28045 0.0
H48 H 0.64449 0.24894 0.24708 0.0
H49 H 0.60155 0.24367 0.20152 0.0
H50 H 0.67189 0.23289 0.11594 0.0
H51 H 0.71475 0.2386 0.16148 0.0
H52 H 0.69 0.20413 0.26325 0.0
H53 H 0.68482 0.31151 0.22991 0.0
H54 H 0.68192 0.36065 0.19356 0.0
H55 H 0.77503 0.34016 0.1482 0.0
H56 H 0.77788 0.29116 0.1849 0.0
H57 H 0.82348 0.23568 0.25807 0.0
H58 H 0.87232 0.22828 0.29412 0.0
H59 H 0.81645 0.22614 0.39339 0.0
H60 H 0.76773 0.23502 0.35753 0.0
H61 H 0.78002 0.28163 0.25522 0.0
H62 H 0.7764 0.16742 0.29385 0.0
H63 H 0.77507 0.12621 0.34161 0.0
H64 H 0.68966 0.16897 0.38663 0.0
H65 H 0.69116 0.21015 0.33881 0.0
C66 C 0.68274 0.24452 0.20756 0.0
C67 C 0.65062 0.24567 0.21847 0.0
C68 C 0.62619 0.24258 0.19251 0.0
C69 C 0.6335 0.2376 0.15534 0.0
C70 C 0.66566 0.23632 0.14449 0.0
C71 C 0.69009 0.23996 0.17037 0.0
C72 C 0.7087 0.24553 0.2352 0.0
C73 C 0.70949 0.22137 0.26184 0.0
C74 C 0.73375 0.26836 0.23366 0.0
C75 C 0.7315 0.29741 0.21001 0.0
C76 C 0.70444 0.31734 0.21175 0.0
C77 C 0.7028 0.34551 0.19093 0.0
C78 C 0.72828 0.35453 0.16803 0.0
C79 C 0.75519 0.3343 0.16603 0.0
C80 C 0.75682 0.30615 0.18688 0.0
C81 C 0.7917 0.23549 0.30488 0.0
C82 C 0.82167 0.23387 0.28761 0.0
C83 C 0.84958 0.22945 0.30819 0.0
C84 C 0.84812 0.22617 0.34648 0.0
C85 C 0.8182 0.22793 0.36384 0.0
C86 C 0.79034 0.23302 0.34332 0.0
C87 C 0.76211 0.23922 0.28233 0.0
C88 C 0.76054 0.26442 0.25663 0.0
C89 C 0.73558 0.21811 0.28565 0.0
C90 C 0.73423 0.19213 0.31325 0.0
C91 C 0.75744 0.1679 0.31403 0.0
C92 C 0.75663 0.14443 0.3413 0.0
C93 C 0.73239 0.14458 0.36802 0.0
C94 C 0.70848 0.16814 0.3663 0.0
C95 C 0.7094 0.19172 0.33912 0.0
H96 H 0.73681 0.83313 0.16569 0.0
H97 H 0.68852 0.83166 0.12753 0.0
H98 H 0.65797 0.74521 0.18315 0.0
H99 H 0.70631 0.74661 0.22051 0.0
H100 H 0.74175 0.83613 0.24296 0.0
H101 H 0.78445 0.75797 0.14576 0.0
H102 H 0.78388 0.70756 0.11027 0.0
H103 H 0.75963 0.655 0.20836 0.0
H104 H 0.76078 0.70516 0.24362 0.0
H105 H 0.82023 0.74504 0.31683 0.0
H106 H 0.86146 0.74531 0.36405 0.0
H107 H 0.89552 0.83728 0.32503 0.0
H108 H 0.85384 0.83692 0.27767 0.0
H109 H 0.81938 0.74611 0.24406 0.0
H110 H 0.78321 0.80867 0.34187 0.0
H111 H 0.79089 0.84912 0.38972 0.0
H112 H 0.79451 0.92341 0.30737 0.0
H113 H 0.7881 0.88248 0.2591 0.0
C114 C 0.72549 0.78959 0.19536 0.0
C115 C 0.7197 0.81383 0.16947 0.0
C116 C 0.69198 0.81308 0.14788 0.0
C117 C 0.66944 0.78817 0.15201 0.0
C118 C 0.67512 0.76433 0.17857 0.0
C119 C 0.70281 0.76505 0.19998 0.0
C120 C 0.75454 0.79054 0.21869 0.0
C121 C 0.75912 0.81683 0.24256 0.0
C122 C 0.77635 0.76459 0.21971 0.0
C123 C 0.77241 0.73521 0.19718 0.0
C124 C 0.77866 0.7356 0.15941 0.0
C125 C 0.77862 0.70684 0.13932 0.0
C126 C 0.77185 0.67741 0.15666 0.0
C127 C 0.76478 0.67733 0.19429 0.0
C128 C 0.76537 0.70592 0.21441 0.0
C129 C 0.83399 0.79092 0.29378 0.0
C130 C 0.8369 0.765 0.31801 0.0
C131 C 0.86045 0.76525 0.34504 0.0
C132 C 0.88175 0.79134 0.34824 0.0
C133 C 0.87921 0.81705 0.32348 0.0
C134 C 0.8556 0.81676 0.29631 0.0
C135 C 0.80683 0.79178 0.26771 0.0
C136 C 0.80247 0.76585 0.2437 0.0
C137 C 0.78443 0.81719 0.26797 0.0
C138 C 0.78568 0.84247 0.29681 0.0
C139 C 0.78598 0.83362 0.33399 0.0
C140 C 0.79056 0.85669 0.36132 0.0
C141 C 0.79394 0.88926 0.35216 0.0
C142 C 0.79229 0.89837 0.31507 0.0
C143 C 0.78835 0.8751 0.28756 0.0
H144 H 0.21659 0.68375 0.34452 0.0
H145 H 0.17257 0.68345 0.38883 0.0
H146 H 0.12975 0.76403 0.33277 0.0
H147 H 0.1739 0.76437 0.28903 0.0
H148 H 0.21877 0.68115 0.26359 0.0
H149 H 0.24813 0.76057 0.36489 0.0
H150 H 0.23913 0.80944 0.40134 0.0
H151 H 0.21853 0.86223 0.30236 0.0
H152 H 0.22807 0.81345 0.266 0.0
H153 H 0.30382 0.77707 0.19964 0.0
H154 H 0.35151 0.77621 0.16107 0.0
H155 H 0.37755 0.6839 0.20617 0.0
H156 H 0.32974 0.68491 0.24463 0.0
H157 H 0.29029 0.77654 0.2705 0.0
H158 H 0.26064 0.71772 0.17036 0.0
H159 H 0.27071 0.68215 0.11858 0.0
H160 H 0.28063 0.6019 0.1927 0.0
H161 H 0.2712 0.63821 0.24503 0.0
C162 C 0.19875 0.72438 0.31383 0.0
C163 C 0.19744 0.70104 0.34154 0.0
C164 C 0.17223 0.70085 0.3668 0.0
C165 C 0.14783 0.724 0.36469 0.0
C166 C 0.1485 0.74632 0.33572 0.0
C167 C 0.17365 0.74648 0.31057 0.0
C168 C 0.2273 0.72697 0.28991 0.0
C169 C 0.23473 0.70166 0.26567 0.0
C170 C 0.24682 0.75486 0.29033 0.0
C171 C 0.23893 0.7835 0.3128 0.0
C172 C 0.24137 0.78259 0.35113 0.0
C173 C 0.23621 0.81046 0.37185 0.0
C174 C 0.2281 0.83957 0.3546 0.0
C175 C 0.22444 0.84007 0.31634 0.0
C176 C 0.23012 0.81233 0.29559 0.0
C177 C 0.31309 0.731 0.22487 0.0
C178 C 0.32004 0.75689 0.20163 0.0
C179 C 0.34733 0.75632 0.17958 0.0
C180 C 0.36831 0.72989 0.18046 0.0
C181 C 0.36167 0.70435 0.20443 0.0
C182 C 0.33443 0.70499 0.22654 0.0
C183 C 0.28264 0.73006 0.24579 0.0
C184 C 0.27463 0.75575 0.26891 0.0
C185 C 0.26147 0.70363 0.24248 0.0
C186 C 0.26511 0.68062 0.21156 0.0
C187 C 0.26493 0.69246 0.17555 0.0
C188 C 0.27072 0.67208 0.14595 0.0
C189 C 0.27654 0.6392 0.15151 0.0
C190 C 0.27662 0.62721 0.18761 0.0
C191 C 0.27076 0.64777 0.21744 0.0
H192 H 0.17338 0.81171 0.75711 0.0
H193 H 0.12858 0.81446 0.71364 0.0
H194 H 0.19066 0.7816 0.62695 0.0
H195 H 0.2354 0.77922 0.67037 0.0
H196 H 0.20934 0.75255 0.77032 0.0
H197 H 0.2255 0.86204 0.72751 0.0
H198 H 0.23097 0.90034 0.67728 0.0
H199 H 0.3163 0.85163 0.64087 0.0
H200 H 0.31066 0.81319 0.69144 0.0
H201 H 0.34584 0.76783 0.7836 0.0
H202 H 0.38915 0.76825 0.82881 0.0
H203 H 0.32142 0.79071 0.91421 0.0
H204 H 0.27789 0.78979 0.8688 0.0
H205 H 0.30799 0.81873 0.76661 0.0
H206 H 0.29944 0.71422 0.81076 0.0
H207 H 0.29222 0.66524 0.84556 0.0
H208 H 0.19387 0.69134 0.86644 0.0
H209 H 0.20246 0.74209 0.83503 0.0
C210 C 0.20759 0.79526 0.71686 0.0
C211 C 0.17735 0.8055 0.72863 0.0
C212 C 0.15192 0.80727 0.70382 0.0
C213 C 0.15627 0.79821 0.66707 0.0
C214 C 0.18674 0.78861 0.65521 0.0
C215 C 0.21225 0.7873 0.67989 0.0
C216 C 0.23384 0.79132 0.74364 0.0
C217 C 0.23068 0.76742 0.77048 0.0
C218 C 0.26238 0.80946 0.74152 0.0
C219 C 0.26729 0.83434 0.71283 0.0
C220 C 0.2454 0.85956 0.70876 0.0
C221 C 0.24858 0.88145 0.68002 0.0
C222 C 0.27385 0.87876 0.65476 0.0
C223 C 0.29666 0.85442 0.65991 0.0
C224 C 0.29339 0.8324 0.68871 0.0
C225 C 0.30867 0.77847 0.82294 0.0
C226 C 0.34027 0.77257 0.8121 0.0
C227 C 0.36494 0.77287 0.83788 0.0
C228 C 0.35855 0.77969 0.87487 0.0
C229 C 0.32692 0.78567 0.88576 0.0
C230 C 0.30209 0.78481 0.85999 0.0
C231 C 0.2831 0.78064 0.79497 0.0
C232 C 0.28653 0.80403 0.76741 0.0
C233 C 0.25517 0.76119 0.79595 0.0
C234 C 0.25174 0.73254 0.82048 0.0
C235 C 0.27666 0.71017 0.82399 0.0
C236 C 0.27212 0.68142 0.8432 0.0
C237 C 0.24217 0.67355 0.85851 0.0
C238 C 0.21741 0.69629 0.85555 0.0
C239 C 0.22223 0.72543 0.83713 0.0
H240 H 0.33284 0.24095 0.75069 0.0
H241 H 0.38019 0.23636 0.79003 0.0
H242 H 0.31951 0.23238 0.8855 0.0
H243 H 0.2721 0.23762 0.84602 0.0
H244 H 0.2817 0.19654 0.74619 0.0
H245 H 0.30379 0.30442 0.78217 0.0
H246 H 0.31228 0.34942 0.8238 0.0
H247 H 0.21269 0.34487 0.85522 0.0
H248 H 0.20542 0.29783 0.81668 0.0
H249 H 0.15324 0.2448 0.74229 0.0
H250 H 0.10738 0.23793 0.70079 0.0
H251 H 0.17166 0.23231 0.60859 0.0
H252 H 0.2172 0.24042 0.64979 0.0
H253 H 0.20535 0.28755 0.74931 0.0
H254 H 0.18717 0.17479 0.71662 0.0
H255 H 0.17984 0.13228 0.67042 0.0
H256 H 0.27344 0.15354 0.6268 0.0
H257 H 0.28042 0.19601 0.67233 0.0
C258 C 0.29904 0.23994 0.79551 0.0
C259 C 0.32975 0.23917 0.7801 0.0
C260 C 0.35672 0.23654 0.80253 0.0
C261 C 0.35342 0.23386 0.84071 0.0
C262 C 0.32263 0.23411 0.8561 0.0
C263 C 0.29563 0.23736 0.83367 0.0
C264 C 0.27062 0.24206 0.77131 0.0
C265 C 0.26511 0.21655 0.74686 0.0
C266 C 0.24894 0.26825 0.77246 0.0
C267 C 0.25415 0.29677 0.79689 0.0
C268 C 0.28399 0.31243 0.79887 0.0
C269 C 0.28866 0.33883 0.82228 0.0
C270 C 0.26335 0.35099 0.84358 0.0
C271 C 0.23322 0.33589 0.84044 0.0
C272 C 0.2288 0.30906 0.81778 0.0
C273 C 0.18868 0.24274 0.69924 0.0
C274 C 0.15739 0.24277 0.71307 0.0
C275 C 0.13128 0.23852 0.68942 0.0
C276 C 0.1361 0.23384 0.65163 0.0
C277 C 0.16733 0.23509 0.6377 0.0
C278 C 0.19331 0.23999 0.66119 0.0
C279 C 0.21655 0.24194 0.72461 0.0
C280 C 0.22188 0.26752 0.74922 0.0
C281 C 0.23837 0.21603 0.7237 0.0
C282 C 0.23437 0.18862 0.69788 0.0
C283 C 0.20607 0.17024 0.69705 0.0
C284 C 0.2018 0.14613 0.67058 0.0
C285 C 0.22606 0.13961 0.64508 0.0
C286 C 0.25445 0.15779 0.64637 0.0
C287 C 0.25857 0.18197 0.67248 0.0
H288 H 0.72558 0.23068 0.84329 0.0
H289 H 0.67715 0.23433 0.88043 0.0
H290 H 0.65724 0.32775 0.83423 0.0
H291 H 0.7058 0.32408 0.79746 0.0
H292 H 0.73387 0.22756 0.77266 0.0
H293 H 0.77854 0.29323 0.86412 0.0
H294 H 0.784 0.33633 0.9097 0.0
H295 H 0.77381 0.40707 0.82402 0.0
H296 H 0.76854 0.36392 0.77849 0.0
H297 H 0.8 0.31854 0.68558 0.0
H298 H 0.83852 0.32137 0.63513 0.0
H299 H 0.88208 0.23347 0.67318 0.0
H300 H 0.84385 0.23094 0.72364 0.0
H301 H 0.81029 0.31826 0.75972 0.0
H302 H 0.76021 0.24073 0.67026 0.0
H303 H 0.76398 0.19265 0.63138 0.0
H304 H 0.79814 0.13799 0.72388 0.0
H305 H 0.79377 0.18606 0.76287 0.0
C306 C 0.71955 0.27715 0.81771 0.0
C307 C 0.71088 0.25201 0.84129 0.0
C308 C 0.68307 0.25411 0.86241 0.0
C309 C 0.66311 0.28129 0.86017 0.0
C310 C 0.67218 0.30668 0.83703 0.0
C311 C 0.70002 0.30458 0.81596 0.0
C312 C 0.74791 0.27426 0.79332 0.0
C313 C 0.75084 0.24721 0.7703 0.0
C314 C 0.77066 0.29934 0.79051 0.0
C315 C 0.77276 0.32545 0.81804 0.0
C316 C 0.77737 0.31804 0.8552 0.0
C317 C 0.7809 0.34259 0.8811 0.0
C318 C 0.77951 0.37492 0.87024 0.0
C319 C 0.77496 0.38229 0.83302 0.0
C320 C 0.77189 0.35774 0.80707 0.0
C321 C 0.81867 0.27416 0.70788 0.0
C322 C 0.81796 0.29995 0.68307 0.0
C323 C 0.84001 0.30166 0.65441 0.0
C324 C 0.86306 0.27751 0.65008 0.0
C325 C 0.86417 0.25212 0.67548 0.0
C326 C 0.84228 0.25055 0.70423 0.0
C327 C 0.79504 0.2726 0.738 0.0
C328 C 0.79328 0.29865 0.76228 0.0
C329 C 0.77448 0.24589 0.743 0.0
C330 C 0.77656 0.21687 0.71943 0.0
C331 C 0.76844 0.21838 0.68215 0.0
C332 C 0.77064 0.19096 0.66002 0.0
C333 C 0.78144 0.16165 0.67466 0.0
C334 C 0.79001 0.16032 0.71187 0.0
C335 C 0.78726 0.18764 0.73417 0.0
H336 H 0.78074 0.68669 0.66991 0.0
H337 H 0.82962 0.68835 0.63331 0.0
H338 H 0.85451 0.77956 0.68297 0.0
H339 H 0.80517 0.77804 0.71862 0.0
H340 H 0.77463 0.68717 0.74577 0.0
H341 H 0.74794 0.75918 0.64404 0.0
H342 H 0.74891 0.80783 0.60607 0.0
H343 H 0.727 0.86551 0.70115 0.0
H344 H 0.72765 0.81742 0.73935 0.0
H345 H 0.68791 0.77493 0.81256 0.0
H346 H 0.64644 0.77339 0.85929 0.0
H347 H 0.62028 0.67729 0.82505 0.0
H348 H 0.6621 0.67902 0.77801 0.0
H349 H 0.69025 0.77052 0.74004 0.0
H350 H 0.72913 0.71396 0.84212 0.0
H351 H 0.72249 0.67411 0.89066 0.0
H352 H 0.72514 0.59809 0.80995 0.0
H353 H 0.73057 0.6383 0.76102 0.0
C354 C 0.78901 0.73245 0.69662 0.0
C355 C 0.79671 0.70709 0.67277 0.0
C356 C 0.82486 0.70797 0.65205 0.0
C357 C 0.84618 0.73411 0.65499 0.0
C358 C 0.83849 0.75931 0.67933 0.0
C359 C 0.81025 0.75849 0.69985 0.0
C360 C 0.75946 0.73094 0.7192 0.0
C361 C 0.75602 0.7052 0.74399 0.0
C362 C 0.73574 0.75531 0.7183 0.0
C363 C 0.73801 0.78449 0.69476 0.0
C364 C 0.74402 0.78231 0.65692 0.0
C365 C 0.74426 0.81005 0.63517 0.0
C366 C 0.73767 0.84028 0.65072 0.0
C367 C 0.73167 0.84244 0.68843 0.0
C368 C 0.73213 0.81492 0.71024 0.0
C369 C 0.67817 0.72711 0.7918 0.0
C370 C 0.67288 0.75375 0.81459 0.0
C371 C 0.64917 0.75277 0.84138 0.0
C372 C 0.63005 0.72518 0.84591 0.0
C373 C 0.63486 0.69873 0.82251 0.0
C374 C 0.65858 0.69978 0.79551 0.0
C375 C 0.70588 0.72726 0.76636 0.0
C376 C 0.70893 0.75251 0.74129 0.0
C377 C 0.73012 0.70374 0.76842 0.0
C378 C 0.72981 0.67913 0.79786 0.0
C379 C 0.72805 0.68873 0.83477 0.0
C380 C 0.72405 0.666 0.86247 0.0
C381 C 0.7227 0.63313 0.85393 0.0
C382 C 0.72583 0.62337 0.81715 0.0
C383 C 0.72921 0.64623 0.78928 0.0
C384 C 0.95601 0.27312 0.53358 0.0
C385 C 0.0453 0.26783 0.44687 0.0
O386 O 0.96968 0.29747 0.51927 0.0
Zn387 Zn 0.99972 0.273 0.4891 0.0
O388 O 0.96517 0.24478 0.52496 0.0
Zn389 Zn 0.99866 0.22081 0.49132 0.0
O390 O 0.02524 0.19896 0.52792 0.0
O391 O 0.02848 0.25196 0.5308 0.0
O392 O 0.03444 0.24049 0.45707 0.0
O393 O 0.03195 0.29346 0.45822 0.0
O394 O 0.9684 0.25073 0.45049 0.0
O395 O 0.96984 0.19805 0.45771 0.0
C396 C 0.03644 0.22428 0.543 0.0
C397 C 0.95865 0.22261 0.44136 0.0
C398 C 0.78282 0.04943 0.58003 0.0
C399 C 0.79211 0.97457 0.47621 0.0
O400 O 0.80863 0.03721 0.56799 0.0
Zn401 Zn 0.78968 0.00892 0.53064 0.0
O402 O 0.75602 0.03942 0.56735 0.0
Zn403 Zn 0.73825 1.00635 0.52775 0.0
O404 O 0.71706 0.97256 0.55579 0.0
O405 O 0.76955 0.96989 0.56002 0.0
O406 O 0.7634 0.98049 0.48623 0.0
O407 O 0.81556 0.9856 0.49477 0.0
O408 O 0.76671 0.04278 0.49516 0.0
O409 O 0.71434 0.03537 0.49632 0.0
C410 C 0.74193 0.95835 0.56746 0.0
C411 C 0.73865 0.05047 0.48412 0.0
C412 C 0.96097 0.74047 0.56506 0.0
C413 C 0.04983 0.73592 0.4766 0.0
O414 O 0.97107 0.76817 0.55496 0.0
Zn415 Zn 0.00741 0.78813 0.52087 0.0
O416 O 0.9751 0.71543 0.55339 0.0
Zn417 Zn 0.00675 0.73654 0.52205 0.0
O418 O 0.03956 0.75862 0.55916 0.0
O419 O 0.03494 0.81132 0.55472 0.0
O420 O 0.03594 0.71185 0.49124 0.0
O421 O 0.04131 0.76446 0.48568 0.0
O422 O 0.98215 0.81137 0.48506 0.0
O423 O 0.97802 0.7585 0.48073 0.0
C424 C 0.04831 0.78693 0.56895 0.0
C425 C 0.97074 0.7866 0.46912 0.0
C426 C 0.22328 0.04479 0.52942 0.0
C427 C 0.22752 0.95902 0.43661 0.0
O428 O 0.25123 0.03648 0.519 0.0
Zn429 Zn 0.27466 1.00601 0.48144 0.0
O430 O 0.19879 0.03299 0.51339 0.0
Zn431 Zn 0.22268 1.00462 0.47976 0.0
O432 O 0.24525 0.97361 0.51872 0.0
O433 O 0.29778 0.97894 0.51674 0.0
O434 O 0.20214 0.97287 0.44756 0.0
O435 O 0.25482 0.96979 0.44693 0.0
O436 O 0.29573 0.03705 0.44879 0.0
O437 O 0.24332 0.03815 0.44284 0.0
C438 C 0.27299 0.96579 0.53061 0.0
C439 C 0.27093 0.04879 0.43371 0.0
C440 C 0.47132 0.73104 0.07501 0.0
C441 C 0.54281 0.72884 0.96852 0.0
O442 O 0.47951 0.75886 0.06329 0.0
Zn443 Zn 0.50793 0.77986 0.02163 0.0
O444 O 0.48241 0.70602 0.05947 0.0
Zn445 Zn 0.50826 0.72792 0.02256 0.0
O446 O 0.54527 0.75043 0.05356 0.0
O447 O 0.54068 0.8031 0.04923 0.0
O448 O 0.53296 0.70429 0.98608 0.0
O449 O 0.5351 0.75707 0.97948 0.0
O450 O 0.47551 0.80214 0.9928 0.0
O451 O 0.47261 0.7492 0.98867 0.0
C452 C 0.55543 0.77868 0.06159 0.0
C453 C 0.46238 0.77703 0.97946 0.0
C454 C 0.28087 0.5499 0.03038 0.0
C455 C 0.27345 0.46321 0.93828 0.0
O456 O 0.3049 0.53593 0.01599 0.0
Zn457 Zn 0.27995 0.50813 0.98263 0.0
O458 O 0.25257 0.54211 0.02036 0.0
Zn459 Zn 0.22808 0.51024 0.98449 0.0
O460 O 0.20499 0.48363 0.02004 0.0
O461 O 0.25756 0.47859 0.02275 0.0
O462 O 0.24651 0.47403 0.94933 0.0
O463 O 0.29923 0.47641 0.94933 0.0
O464 O 0.25934 0.54262 0.94665 0.0
O465 O 0.20684 0.54142 0.95265 0.0
C466 C 0.22974 0.47128 0.03473 0.0
C467 C 0.23173 0.55348 0.93802 0.0
C468 C 0.54623 0.28156 0.94569 0.0
C469 C 0.45726 0.28401 0.03402 0.0
O470 O 0.53315 0.30677 0.9586 0.0
Zn471 Zn 0.50086 0.28526 0.98887 0.0
O472 O 0.53561 0.25389 0.95514 0.0
Zn473 Zn 0.50048 0.23321 0.98982 0.0
O474 O 0.47213 0.21033 0.95631 0.0
O475 O 0.47005 0.26306 0.94959 0.0
O476 O 0.46695 0.25596 0.02485 0.0
O477 O 0.46996 0.30872 0.01935 0.0
O478 O 0.52992 0.2636 0.02999 0.0
O479 O 0.52733 0.21065 0.02508 0.0
C480 C 0.46076 0.23485 0.94013 0.0
C481 C 0.5382 0.23564 0.0411 0.0
C482 C 0.77072 0.55917 0.07284 0.0
C483 C 0.77562 0.47129 0.9836 0.0
O484 O 0.79573 0.54654 0.05935 0.0
Zn485 Zn 0.77503 0.5134 0.02994 0.0
O486 O 0.74323 0.54765 0.06446 0.0
Zn487 Zn 0.72359 0.51112 0.03019 0.0
O488 O 0.70292 0.48103 0.06368 0.0
O489 O 0.75546 0.48012 0.06817 0.0
O490 O 0.74727 0.47912 0.99327 0.0
O491 O 0.79971 0.48452 0.9989 0.0
O492 O 0.75154 0.54099 0.98867 0.0
O493 O 0.69914 0.53668 0.99506 0.0
C494 C 0.72807 0.46945 0.07815 0.0
C495 C 0.72323 0.54782 0.97789 0.0
C496 C 0.11868 0.23975 0.39579 0.0
C497 C 0.13024 0.26829 0.38015 0.0
H498 H 0.08306 0.21729 0.42865 0.0
C499 C 0.11359 0.29714 0.38677 0.0
H500 H 0.13115 0.21722 0.3919 0.0
C501 C 0.08591 0.29731 0.40839 0.0
C502 C 0.07426 0.26858 0.42357 0.0
H503 H 0.12163 0.31953 0.37476 0.0
H504 H 0.07355 0.31981 0.41294 0.0
C505 C 0.09105 0.23987 0.41704 0.0
C506 C 0.76206 0.11477 0.4164 0.0
C507 C 0.73307 0.12116 0.39856 0.0
H508 H 0.78635 0.08802 0.45748 0.0
C509 C 0.70516 0.10527 0.41028 0.0
H510 H 0.78381 0.12716 0.40856 0.0
C511 C 0.70651 0.08268 0.43872 0.0
C512 C 0.73578 0.07581 0.45592 0.0
H513 H 0.68247 0.10976 0.39694 0.0
H514 H 0.68486 0.07023 0.44671 0.0
C515 C 0.7634 0.09244 0.44469 0.0
C516 C 0.92265 0.76295 0.38586 0.0
C517 C 0.90629 0.79142 0.37757 0.0
H518 H 0.95569 0.73927 0.421 0.0
C519 C 0.9126 0.81922 0.39848 0.0
H520 H 0.91886 0.74134 0.36978 0.0
C521 C 0.93414 0.81816 0.42792 0.0
C522 C 0.94948 0.78923 0.43693 0.0
H523 H 0.90017 0.84148 0.39283 0.0
H524 H 0.93808 0.83965 0.44415 0.0
C525 C 0.94385 0.76183 0.41522 0.0
C526 C 0.2006 0.8911 0.3732 0.0
C527 C 0.22666 0.86989 0.37606 0.0
H528 H 0.17996 0.93597 0.39069 0.0
C529 C 0.25246 0.8783 0.39872 0.0
H530 H 0.18042 0.88512 0.35582 0.0
C531 C 0.25253 0.90737 0.4178 0.0
C532 C 0.22653 0.92864 0.41527 0.0
H533 H 0.27299 0.86262 0.40113 0.0
H534 H 0.27298 0.913 0.43493 0.0
C535 C 0.20033 0.92009 0.39308 0.0
C536 C 0.12281 0.76737 0.62281 0.0
C537 C 0.12861 0.7961 0.64188 0.0
H538 H 0.09276 0.74193 0.58537 0.0
C539 C 0.10753 0.82206 0.63733 0.0
H540 H 0.1385 0.7469 0.62619 0.0
C541 C 0.08131 0.81938 0.61353 0.0
C542 C 0.07545 0.79045 0.59464 0.0
H543 H 0.11157 0.84446 0.65184 0.0
H544 H 0.06554 0.83977 0.61012 0.0
C545 C 0.09643 0.76449 0.59969 0.0
C546 C 0.19533 0.1098 0.59572 0.0
C547 C 0.22282 0.1133 0.61779 0.0
H548 H 0.17363 0.08513 0.54992 0.0
C549 C 0.24853 0.09232 0.61247 0.0
H550 H 0.17512 0.1257 0.59936 0.0
C551 C 0.24772 0.06957 0.58456 0.0
C552 C 0.22113 0.06699 0.56109 0.0
H553 H 0.26968 0.09389 0.62959 0.0
H554 H 0.26842 0.05429 0.58101 0.0
C555 C 0.19447 0.0867 0.56749 0.0
C556 C 0.90171 0.30599 0.60812 0.0
C557 C 0.88525 0.27787 0.61849 0.0
H558 H 0.93732 0.32676 0.57282 0.0
C559 C 0.89048 0.24939 0.59885 0.0
H560 H 0.89802 0.32831 0.62284 0.0
C561 C 0.91262 0.24854 0.57052 0.0
C562 C 0.93023 0.27615 0.56103 0.0
H563 H 0.87758 0.22757 0.6056 0.0
H564 H 0.9163 0.22588 0.55647 0.0
C565 C 0.92413 0.30513 0.57956 0.0
C566 C 0.71179 0.89118 0.62883 0.0
C567 C 0.73778 0.86978 0.62804 0.0
H568 H 0.69239 0.93591 0.6097 0.0
C569 C 0.76453 0.87737 0.60663 0.0
H570 H 0.69084 0.88574 0.64512 0.0
C571 C 0.76568 0.9062 0.58711 0.0
C572 C 0.73983 0.92776 0.58797 0.0
H573 H 0.78491 0.86138 0.60575 0.0
H574 H 0.78687 0.91155 0.57119 0.0
C575 C 0.71264 0.91977 0.60858 0.0
C576 C 0.89372 0.70741 0.62467 0.0
C577 C 0.87601 0.73541 0.63245 0.0
H578 H 0.93438 0.68689 0.59749 0.0
C579 C 0.8869 0.76483 0.61816 0.0
H580 H 0.88638 0.68436 0.63556 0.0
C581 C 0.91459 0.7663 0.59684 0.0
C582 C 0.93218 0.73836 0.58885 0.0
H583 H 0.87371 0.78682 0.62283 0.0
H584 H 0.92192 0.78945 0.58617 0.0
C585 C 0.92141 0.70886 0.60304 0.0
C586 C 0.24659 0.90629 0.60274 0.0
C587 C 0.27491 0.90009 0.62206 0.0
H588 H 0.22397 0.93119 0.559 0.0
C589 C 0.30354 0.91442 0.60988 0.0
H590 H 0.22428 0.89506 0.61076 0.0
C591 C 0.30348 0.9354 0.57967 0.0
C592 C 0.2748 0.94219 0.56108 0.0
H593 H 0.32578 0.91004 0.62422 0.0
H594 H 0.32565 0.9467 0.57135 0.0
C595 C 0.24652 0.92696 0.57278 0.0
C596 C 0.10883 0.20343 0.60061 0.0
C597 C 0.10866 0.22867 0.62644 0.0
H598 H 0.08534 0.18154 0.55431 0.0
C599 C 0.08289 0.25014 0.62673 0.0
H600 H 0.12838 0.18642 0.60003 0.0
C601 C 0.05868 0.24757 0.60049 0.0
C602 C 0.05933 0.22308 0.57385 0.0
H603 H 0.08221 0.26983 0.64621 0.0
H604 H 0.0398 0.26536 0.60039 0.0
C605 C 0.08413 0.20044 0.57474 0.0
C606 C 0.80974 0.11302 0.64907 0.0
C607 C 0.78221 0.13229 0.65143 0.0
H608 H 0.83188 0.07175 0.62422 0.0
C609 C 0.75502 0.12347 0.63122 0.0
H610 H 0.83106 0.11938 0.66438 0.0
C611 C 0.75527 0.09616 0.60897 0.0
C612 C 0.78292 0.07714 0.6058 0.0
H613 H 0.7334 0.13769 0.63279 0.0
H614 H 0.73383 0.09036 0.5936 0.0
C615 C 0.81022 0.08585 0.62611 0.0
C616 C 0.88065 0.19881 0.39554 0.0
C617 C 0.87787 0.2227 0.36845 0.0
H618 H 0.9091 0.17929 0.43927 0.0
C619 C 0.90326 0.24439 0.36346 0.0
H620 H 0.86147 0.18168 0.3998 0.0
C621 C 0.93015 0.24327 0.38619 0.0
C622 C 0.93263 0.22 0.41394 0.0
H623 H 0.90173 0.26313 0.34295 0.0
H624 H 0.94873 0.2612 0.38266 0.0
C625 C 0.90799 0.19723 0.41783 0.0
C626 C 0.81922 0.90976 0.41037 0.0
C627 C 0.79702 0.91365 0.38164 0.0
H628 H 0.83577 0.92679 0.46286 0.0
C629 C 0.77577 0.93962 0.3828 0.0
H630 H 0.83595 0.88992 0.40997 0.0
C631 C 0.77539 0.96018 0.41304 0.0
C632 C 0.79666 0.95562 0.44243 0.0
H633 H 0.75832 0.94305 0.36119 0.0
H634 H 0.75775 0.9792 0.41395 0.0
C635 C 0.81929 0.93087 0.44042 0.0
C636 C 0.10827 0.69869 0.40858 0.0
C637 C 0.12282 0.72629 0.39363 0.0
H638 H 0.07365 0.67988 0.44647 0.0
C639 C 0.11362 0.7566 0.40691 0.0
H640 H 0.11475 0.67497 0.39888 0.0
C641 C 0.09024 0.75939 0.43391 0.0
C642 C 0.0753 0.73195 0.44861 0.0
H643 H 0.12477 0.77833 0.3967 0.0
H644 H 0.08388 0.78328 0.44321 0.0
C645 C 0.08468 0.7015 0.43577 0.0
C646 C 0.24725 0.1079 0.35968 0.0
C647 C 0.27136 0.13137 0.36228 0.0
H648 H 0.22833 0.06358 0.3801 0.0
C649 C 0.29668 0.12645 0.38712 0.0
H650 H 0.22736 0.11106 0.34099 0.0
C651 C 0.29759 0.0988 0.40917 0.0
C652 C 0.27282 0.07592 0.40736 0.0
H653 H 0.3157 0.14405 0.38954 0.0
H654 H 0.317 0.09594 0.42856 0.0
C655 C 0.24782 0.08071 0.38214 0.0
C656 C 0.587 0.75171 0.88232 0.0
C657 C 0.60553 0.72432 0.87532 0.0
H658 H 0.55275 0.77438 0.91686 0.0
C659 C 0.60155 0.69709 0.89779 0.0
H660 H 0.5889 0.77279 0.86507 0.0
C661 C 0.5804 0.69786 0.92761 0.0
C662 C 0.56306 0.72593 0.93546 0.0
H663 H 0.61564 0.67565 0.89317 0.0
H664 H 0.57845 0.67698 0.94516 0.0
C665 C 0.56617 0.75255 0.91202 0.0
C666 C 0.21487 0.6382 0.90596 0.0
C667 C 0.23683 0.64166 0.87687 0.0
H668 H 0.19531 0.60721 0.94741 0.0
C669 C 0.2542 0.6143 0.86583 0.0
H670 H 0.20124 0.65852 0.91581 0.0
C671 C 0.25129 0.5852 0.88468 0.0
C672 C 0.23014 0.5822 0.91428 0.0
H673 H 0.2705 0.61528 0.84287 0.0
H674 H 0.26611 0.5651 0.87653 0.0
C675 C 0.21133 0.60871 0.92417 0.0
C676 C 0.40617 0.25562 0.86123 0.0
C677 C 0.38213 0.23222 0.86447 0.0
H678 H 0.44992 0.27469 0.88275 0.0
C679 C 0.38536 0.20802 0.89107 0.0
H680 H 0.40418 0.27459 0.84104 0.0
C681 C 0.41197 0.20763 0.91449 0.0
C682 C 0.43531 0.23189 0.91219 0.0
H683 H 0.36717 0.1896 0.89392 0.0
H684 H 0.41355 0.18923 0.93538 0.0
C685 C 0.4323 0.25566 0.88508 0.0
C686 C 0.75646 0.42417 0.89825 0.0
C687 C 0.78058 0.40088 0.89797 0.0
H688 H 0.73621 0.46461 0.92569 0.0
C689 C 0.80456 0.40189 0.92507 0.0
H690 H 0.7376 0.42379 0.87785 0.0
C691 C 0.80404 0.42566 0.95238 0.0
C692 C 0.7791 0.44813 0.9533 0.0
H693 H 0.82349 0.38418 0.92524 0.0
H694 H 0.82235 0.42576 0.97341 0.0
C695 C 0.75559 0.44737 0.92576 0.0
C696 C 0.60715 0.21004 0.10176 0.0
C697 C 0.60765 0.23514 0.12769 0.0
H698 H 0.58401 0.18993 0.05423 0.0
C699 C 0.5839 0.25881 0.12632 0.0
H700 H 0.62517 0.1914 0.10245 0.0
C701 C 0.56082 0.25818 0.09871 0.0
C702 C 0.56063 0.23356 0.07226 0.0
H703 H 0.58384 0.27847 0.14586 0.0
H704 H 0.54335 0.27735 0.09773 0.0
C705 C 0.58354 0.20905 0.07444 0.0
C706 C 0.79833 0.63866 0.11339 0.0
C707 C 0.77224 0.64675 0.13582 0.0
H708 H 0.81876 0.6041 0.07651 0.0
C709 C 0.74655 0.62513 0.13867 0.0
H710 H 0.81858 0.6548 0.11103 0.0
C711 C 0.74653 0.59637 0.11883 0.0
C712 C 0.77245 0.5883 0.09616 0.0
H713 H 0.72612 0.63079 0.15569 0.0
H714 H 0.72602 0.58054 0.12105 0.0
C715 C 0.79858 0.60954 0.09399 0.0
C716 C 0.41475 0.75692 0.15 0.0
C717 C 0.39667 0.72894 0.15595 0.0
H718 H 0.45263 0.77929 0.12037 0.0
C719 C 0.40518 0.70057 0.13721 0.0
H720 H 0.40931 0.77896 0.16455 0.0
C721 C 0.43039 0.70063 0.11193 0.0
C722 C 0.44746 0.72909 0.10488 0.0
H723 H 0.39159 0.67863 0.14103 0.0
H724 H 0.43567 0.67878 0.09694 0.0
C725 C 0.43975 0.75701 0.12479 0.0
C726 C 0.25369 0.42707 0.12031 0.0
C727 C 0.23116 0.40207 0.12169 0.0
H728 H 0.2706 0.46849 0.09169 0.0
C729 C 0.20615 0.40147 0.09578 0.0
H730 H 0.27334 0.42803 0.13966 0.0
C731 C 0.20428 0.42509 0.0684 0.0
C732 C 0.22781 0.44912 0.06618 0.0
H733 H 0.18838 0.38249 0.09639 0.0
H734 H 0.18542 0.42368 0.04808 0.0
C735 C 0.25217 0.45014 0.09274 0.0
C736 C 0.388 0.3148 0.09205 0.0
C737 C 0.37973 0.28682 0.11168 0.0
H738 H 0.41915 0.3361 0.05186 0.0
C739 C 0.39825 0.25907 0.10683 0.0
H740 H 0.37419 0.3366 0.09522 0.0
C741 C 0.42358 0.25878 0.08218 0.0
C742 C 0.43142 0.28628 0.06168 0.0
H743 H 0.39324 0.2374 0.12222 0.0
H744 H 0.43699 0.23669 0.07915 0.0
C745 C 0.41368 0.31454 0.06723 0.0
C746 C 0.69891 0.39558 0.12968 0.0
C747 C 0.72723 0.38517 0.14688 0.0
H748 H 0.67675 0.43051 0.09467 0.0
C749 C 0.75489 0.40416 0.14338 0.0
H750 H 0.67719 0.38147 0.13164 0.0
C751 C 0.75464 0.43207 0.12221 0.0
C752 C 0.72669 0.44195 0.10399 0.0
H753 H 0.77691 0.39738 0.15693 0.0
H754 H 0.77665 0.44565 0.11963 0.0
C755 C 0.69863 0.4237 0.10849 0.0
C756 C 0.62311 0.81423 0.11887 0.0
C757 C 0.64039 0.78643 0.12837 0.0
H758 H 0.58258 0.83376 0.09041 0.0
C759 C 0.62962 0.75653 0.11525 0.0
H760 H 0.63061 0.83764 0.12875 0.0
C761 C 0.60212 0.7543 0.09377 0.0
C762 C 0.58462 0.78195 0.08448 0.0
H763 H 0.64264 0.73469 0.12129 0.0
H764 H 0.59472 0.73073 0.08426 0.0
C765 C 0.5955 0.81202 0.09709 0.0
C766 C 0.30384 0.59336 0.11821 0.0
C767 C 0.28026 0.61748 0.11934 0.0
H768 H 0.32336 0.55323 0.08827 0.0
C769 C 0.25934 0.62062 0.08944 0.0
H770 H 0.32045 0.59056 0.14077 0.0
C771 C 0.26109 0.59959 0.05978 0.0
C772 C 0.28392 0.57492 0.05897 0.0
H773 H 0.24073 0.63867 0.08951 0.0
H774 H 0.24381 0.60207 0.0378 0.0
C775 C 0.30582 0.57234 0.08804 0.0
C776 C 0.39003 0.80584 0.92573 0.0
C777 C 0.38492 0.77963 0.90196 0.0
H778 H 0.41919 0.82602 0.96868 0.0
C779 C 0.40555 0.75319 0.90365 0.0
H780 H 0.37448 0.82659 0.92472 0.0
C781 C 0.43063 0.75271 0.92879 0.0
C782 C 0.43602 0.77887 0.95252 0.0
H783 H 0.40204 0.73266 0.88574 0.0
H784 H 0.44598 0.73178 0.92946 0.0
C785 C 0.41565 0.80562 0.95061 0.0
C786 C 0.24952 0.38195 0.90096 0.0
C787 C 0.26801 0.37918 0.86888 0.0
H788 H 0.23669 0.41065 0.94737 0.0
C789 C 0.29029 0.40388 0.86119 0.0
H790 H 0.23297 0.3632 0.90893 0.0
C791 C 0.29328 0.43077 0.88441 0.0
C792 C 0.27353 0.43388 0.91525 0.0
H793 H 0.30482 0.40305 0.83671 0.0
H794 H 0.31004 0.44968 0.87745 0.0
C795 C 0.25189 0.40908 0.9234 0.0
C796 C 0.62156 0.31092 0.89758 0.0
C797 C 0.63236 0.2824 0.88078 0.0
H798 H 0.58572 0.33327 0.93119 0.0
C799 C 0.61345 0.25458 0.8837 0.0
H800 H 0.63559 0.33279 0.89597 0.0
C801 C 0.58513 0.25487 0.90381 0.0
C802 C 0.57472 0.28302 0.92153 0.0
H803 H 0.62049 0.23242 0.87037 0.0
H804 H 0.57155 0.23273 0.90577 0.0
C805 C 0.59298 0.31124 0.91774 0.0
C806 C 0.74232 0.5842 0.88609 0.0
C807 C 0.72 0.60916 0.88374 0.0
H808 H 0.76066 0.54534 0.91797 0.0
C809 C 0.69667 0.61227 0.91132 0.0
H810 H 0.76062 0.58139 0.86535 0.0
C811 C 0.69635 0.59123 0.94133 0.0
C812 C 0.71983 0.56738 0.94447 0.0
H813 H 0.67909 0.6313 0.90995 0.0
H814 H 0.67878 0.59454 0.96277 0.0
C815 C 0.74242 0.56373 0.91629 0.0
loop_
_geom_bond_atom_site_label_1
_geom_bond_atom_site_label_2
_geom_bond_distance
_geom_bond_site_symmetry_2
_ccdc_geom_bond_type
H0 C19 0.949 . S
H1 C20 0.950 . S
H2 C22 0.950 . S
H3 C23 0.950 . S
H4 C25 0.950 . S
H5 C28 0.950 . S
H6 C29 0.950 . S
H7 C31 0.951 . S
H8 C32 0.949 . S
H9 C34 0.949 . S
H10 C35 0.950 . S
H11 C37 0.950 . S
H12 C38 0.950 . S
H13 C40 0.950 . S
H14 C43 0.950 . S
H15 C44 0.950 . S
H16 C46 0.951 . S
H17 C47 0.949 . S
C18 C19 1.376 . S
C18 C23 1.386 . S
C18 C24 1.483 . S
C19 H0 0.949 . S
C19 C18 1.376 . S
C19 C20 1.397 . S
C20 H1 0.950 . S
C20 C19 1.397 . S
C20 C21 1.391 . S
C21 C20 1.391 . S
C21 C22 1.405 . S
C22 H2 0.950 . S
C22 C21 1.405 . S
C22 C23 1.367 . S
C23 H3 0.950 . S
C23 C18 1.386 . S
C23 C22 1.367 . S
C24 C18 1.483 . S
C24 C25 1.382 . S
C24 C26 1.403 . S
C25 H4 0.950 . S
C25 C24 1.382 . S
C25 C41 1.411 . S
C26 C24 1.403 . S
C26 C27 1.489 . S
C26 C40 1.411 . S
C27 C26 1.489 . S
C27 C28 1.383 . S
C27 C32 1.382 . S
C28 H5 0.950 . S
C28 C27 1.383 . S
C28 C29 1.395 . S
C29 H6 0.950 . S
C29 C28 1.395 . S
C29 C30 1.288 . S
C30 C29 1.288 . S
C30 C31 1.392 . S
C31 H7 0.951 . S
C31 C30 1.392 . S
C31 C32 1.392 . S
C32 H8 0.949 . S
C32 C27 1.382 . S
C32 C31 1.392 . S
C33 C34 1.376 . S
C33 C38 1.386 . S
C33 C39 1.483 . S
C34 H9 0.949 . S
C34 C33 1.376 . S
C34 C35 1.397 . S
C35 H10 0.950 . S
C35 C34 1.397 . S
C35 C36 1.391 . S
C36 C35 1.391 . S
C36 C37 1.405 . S
C37 H11 0.950 . S
C37 C36 1.405 . S
C37 C38 1.367 . S
C38 H12 0.950 . S
C38 C33 1.386 . S
C38 C37 1.367 . S
C39 C33 1.483 . S
C39 C40 1.382 . S
C39 C41 1.403 . S
C40 H13 0.950 . S
C40 C26 1.411 . S
C40 C39 1.382 . S
C41 C25 1.411 . S
C41 C39 1.403 . S
C41 C42 1.489 . S
C42 C41 1.489 . S
C42 C43 1.383 . S
C42 C47 1.382 . S
C43 H14 0.950 . S
C43 C42 1.383 . S
C43 C44 1.395 . S
C44 H15 0.950 . S
C44 C43 1.395 . S
C44 C45 1.288 . S
C45 C44 1.288 . S
C45 C46 1.392 . S
C46 H16 0.951 . S
C46 C45 1.392 . S
C46 C47 1.392 . S
C47 H17 0.949 . S
C47 C42 1.382 . S
C47 C46 1.392 . S
H48 C67 0.949 . S
H49 C68 0.950 . S
H50 C70 0.950 . S
H51 C71 0.950 . S
H52 C73 0.950 . S
H53 C76 0.950 . S
H54 C77 0.950 . S
H55 C79 0.951 . S
H56 C80 0.949 . S
H57 C82 0.949 . S
H58 C83 0.950 . S
H59 C85 0.950 . S
H60 C86 0.950 . S
H61 C88 0.950 . S
H62 C91 0.950 . S
H63 C92 0.950 . S
H64 C94 0.951 . S
H65 C95 0.949 . S
C66 C67 1.376 . S
C66 C71 1.386 . S
C66 C72 1.483 . S
C67 H48 0.949 . S
C67 C66 1.376 . S
C67 C68 1.397 . S
C68 H49 0.950 . S
C68 C67 1.397 . S
C68 C69 1.391 . S
C69 C68 1.391 . S
C69 C70 1.405 . S
C70 H50 0.950 . S
C70 C69 1.405 . S
C70 C71 1.367 . S
C71 H51 0.950 . S
C71 C66 1.386 . S
C71 C70 1.367 . S
C72 C66 1.483 . S
C72 C73 1.382 . S
C72 C74 1.403 . S
C73 H52 0.950 . S
C73 C72 1.382 . S
C73 C89 1.411 . S
C74 C72 1.403 . S
C74 C75 1.489 . S
C74 C88 1.411 . S
C75 C74 1.489 . S
C75 C76 1.383 . S
C75 C80 1.382 . S
C76 H53 0.950 . S
C76 C75 1.383 . S
C76 C77 1.395 . S
C77 H54 0.950 . S
C77 C76 1.395 . S
C77 C78 1.288 . S
C78 C77 1.288 . S
C78 C79 1.392 . S
C79 H55 0.951 . S
C79 C78 1.392 . S
C79 C80 1.392 . S
C80 H56 0.949 . S
C80 C75 1.382 . S
C80 C79 1.392 . S
C81 C82 1.376 . S
C81 C86 1.386 . S
C81 C87 1.483 . S
C82 H57 0.949 . S
C82 C81 1.376 . S
C82 C83 1.397 . S
C83 H58 0.950 . S
C83 C82 1.397 . S
C83 C84 1.391 . S
C84 C83 1.391 . S
C84 C85 1.405 . S
C85 H59 0.950 . S
C85 C84 1.405 . S
C85 C86 1.367 . S
C86 H60 0.950 . S
C86 C81 1.386 . S
C86 C85 1.367 . S
C87 C81 1.483 . S
C87 C88 1.382 . S
C87 C89 1.403 . S
C88 H61 0.950 . S
C88 C74 1.411 . S
C88 C87 1.382 . S
C89 C73 1.411 . S
C89 C87 1.403 . S
C89 C90 1.489 . S
C90 C89 1.489 . S
C90 C91 1.383 . S
C90 C95 1.382 . S
C91 H62 0.950 . S
C91 C90 1.383 . S
C91 C92 1.395 . S
C92 H63 0.950 . S
C92 C91 1.395 . S
C92 C93 1.288 . S
C93 C92 1.288 . S
C93 C94 1.392 . S
C94 H64 0.951 . S
C94 C93 1.392 . S
C94 C95 1.392 . S
C95 H65 0.949 . S
C95 C90 1.382 . S
C95 C94 1.392 . S
H96 C115 0.949 . S
H97 C116 0.950 . S
H98 C118 0.950 . S
H99 C119 0.950 . S
H100 C121 0.950 . S
H101 C124 0.950 . S
H102 C125 0.950 . S
H103 C127 0.951 . S
H104 C128 0.949 . S
H105 C130 0.949 . S
H106 C131 0.950 . S
H107 C133 0.950 . S
H108 C134 0.950 . S
H109 C136 0.950 . S
H110 C139 0.950 . S
H111 C140 0.950 . S
H112 C142 0.951 . S
H113 C143 0.949 . S
C114 C115 1.376 . S
C114 C119 1.386 . S
C114 C120 1.483 . S
C115 H96 0.949 . S
C115 C114 1.376 . S
C115 C116 1.397 . S
C116 H97 0.950 . S
C116 C115 1.397 . S
C116 C117 1.391 . S
C117 C116 1.391 . S
C117 C118 1.405 . S
C118 H98 0.950 . S
C118 C117 1.405 . S
C118 C119 1.367 . S
C119 H99 0.950 . S
C119 C114 1.386 . S
C119 C118 1.367 . S
C120 C114 1.483 . S
C120 C121 1.382 . S
C120 C122 1.403 . S
C121 H100 0.950 . S
C121 C120 1.382 . S
C121 C137 1.411 . S
C122 C120 1.403 . S
C122 C123 1.489 . S
C122 C136 1.411 . S
C123 C122 1.489 . S
C123 C124 1.383 . S
C123 C128 1.382 . S
C124 H101 0.950 . S
C124 C123 1.383 . S
C124 C125 1.395 . S
C125 H102 0.950 . S
C125 C124 1.395 . S
C125 C126 1.288 . S
C126 C125 1.288 . S
C126 C127 1.392 . S
C127 H103 0.951 . S
C127 C126 1.392 . S
C127 C128 1.392 . S
C128 H104 0.949 . S
C128 C123 1.382 . S
C128 C127 1.392 . S
C129 C130 1.376 . S
C129 C134 1.386 . S
C129 C135 1.483 . S
C130 H105 0.949 . S
C130 C129 1.376 . S
C130 C131 1.397 . S
C131 H106 0.950 . S
C131 C130 1.397 . S
C131 C132 1.391 . S
C132 C131 1.391 . S
C132 C133 1.405 . S
C133 H107 0.950 . S
C133 C132 1.405 . S
C133 C134 1.367 . S
C134 H108 0.950 . S
C134 C129 1.386 . S
C134 C133 1.367 . S
C135 C129 1.483 . S
C135 C136 1.382 . S
C135 C137 1.403 . S
C136 H109 0.950 . S
C136 C122 1.411 . S
C136 C135 1.382 . S
C137 C121 1.411 . S
C137 C135 1.403 . S
C137 C138 1.489 . S
C138 C137 1.489 . S
C138 C139 1.383 . S
C138 C143 1.382 . S
C139 H110 0.950 . S
C139 C138 1.383 . S
C139 C140 1.395 . S
C140 H111 0.950 . S
C140 C139 1.395 . S
C140 C141 1.288 . S
C141 C140 1.288 . S
C141 C142 1.392 . S
C142 H112 0.951 . S
C142 C141 1.392 . S
C142 C143 1.392 . S
C143 H113 0.949 . S
C143 C138 1.382 . S
C143 C142 1.392 . S
H144 C163 0.949 . S
H145 C164 0.950 . S
H146 C166 0.950 . S
H147 C167 0.950 . S
H148 C169 0.950 . S
H149 C172 0.950 . S
H150 C173 0.950 . S
H151 C175 0.951 . S
H152 C176 0.949 . S
H153 C178 0.949 . S
H154 C179 0.950 . S
H155 C181 0.950 . S
H156 C182 0.950 . S
H157 C184 0.950 . S
H158 C187 0.950 . S
H159 C188 0.950 . S
H160 C190 0.951 . S
H161 C191 0.949 . S
C162 C163 1.376 . S
C162 C167 1.386 . S
C162 C168 1.483 . S
C163 H144 0.949 . S
C163 C162 1.376 . S
C163 C164 1.397 . S
C164 H145 0.950 . S
C164 C163 1.397 . S
C164 C165 1.391 . S
C165 C164 1.391 . S
C165 C166 1.405 . S
C166 H146 0.950 . S
C166 C165 1.405 . S
C166 C167 1.367 . S
C167 H147 0.950 . S
C167 C162 1.386 . S
C167 C166 1.367 . S
C168 C162 1.483 . S
C168 C169 1.382 . S
C168 C170 1.403 . S
C169 H148 0.950 . S
C169 C168 1.382 . S
C169 C185 1.411 . S
C170 C168 1.403 . S
C170 C171 1.489 . S
C170 C184 1.411 . S
C171 C170 1.489 . S
C171 C172 1.383 . S
C171 C176 1.382 . S
C172 H149 0.950 . S
C172 C171 1.383 . S
C172 C173 1.395 . S
C173 H150 0.950 . S
C173 C172 1.395 . S
C173 C174 1.288 . S
C174 C173 1.288 . S
C174 C175 1.392 . S
C175 H151 0.951 . S
C175 C174 1.392 . S
C175 C176 1.392 . S
C176 H152 0.949 . S
C176 C171 1.382 . S
C176 C175 1.392 . S
C177 C178 1.376 . S
C177 C182 1.386 . S
C177 C183 1.483 . S
C178 H153 0.949 . S
C178 C177 1.376 . S
C178 C179 1.397 . S
C179 H154 0.950 . S
C179 C178 1.397 . S
C179 C180 1.391 . S
C180 C179 1.391 . S
C180 C181 1.405 . S
C181 H155 0.950 . S
C181 C180 1.405 . S
C181 C182 1.367 . S
C182 H156 0.950 . S
C182 C177 1.386 . S
C182 C181 1.367 . S
C183 C177 1.483 . S
C183 C184 1.382 . S
C183 C185 1.403 . S
C184 H157 0.950 . S
C184 C170 1.411 . S
C184 C183 1.382 . S
C185 C169 1.411 . S
C185 C183 1.403 . S
C185 C186 1.489 . S
C186 C185 1.489 . S
C186 C187 1.383 . S
C186 C191 1.382 . S
C187 H158 0.950 . S
C187 C186 1.383 . S
C187 C188 1.395 . S
C188 H159 0.950 . S
C188 C187 1.395 . S
C188 C189 1.288 . S
C189 C188 1.288 . S
C189 C190 1.392 . S
C190 H160 0.951 . S
C190 C189 1.392 . S
C190 C191 1.392 . S
C191 H161 0.949 . S
C191 C186 1.382 . S
C191 C190 1.392 . S
H192 C211 0.949 . S
H193 C212 0.950 . S
H194 C214 0.950 . S
H195 C215 0.950 . S
H196 C217 0.950 . S
H197 C220 0.950 . S
H198 C221 0.950 . S
H199 C223 0.951 . S
H200 C224 0.949 . S
H201 C226 0.949 . S
H202 C227 0.950 . S
H203 C229 0.950 . S
H204 C230 0.950 . S
H205 C232 0.950 . S
H206 C235 0.950 . S
H207 C236 0.950 . S
H208 C238 0.951 . S
H209 C239 0.949 . S
C210 C211 1.376 . S
C210 C215 1.386 . S
C210 C216 1.483 . S
C211 H192 0.949 . S
C211 C210 1.376 . S
C211 C212 1.397 . S
C212 H193 0.950 . S
C212 C211 1.397 . S
C212 C213 1.391 . S
C213 C212 1.391 . S
C213 C214 1.405 . S
C214 H194 0.950 . S
C214 C213 1.405 . S
C214 C215 1.367 . S
C215 H195 0.950 . S
C215 C210 1.386 . S
C215 C214 1.367 . S
C216 C210 1.483 . S
C216 C217 1.382 . S
C216 C218 1.403 . S
C217 H196 0.950 . S
C217 C216 1.382 . S
C217 C233 1.411 . S
C218 C216 1.403 . S
C218 C219 1.489 . S
C218 C232 1.411 . S
C219 C218 1.489 . S
C219 C220 1.383 . S
C219 C224 1.382 . S
C220 H197 0.950 . S
C220 C219 1.383 . S
C220 C221 1.395 . S
C221 H198 0.950 . S
C221 C220 1.395 . S
C221 C222 1.288 . S
C222 C221 1.288 . S
C222 C223 1.392 . S
C223 H199 0.951 . S
C223 C222 1.392 . S
C223 C224 1.392 . S
C224 H200 0.949 . S
C224 C219 1.382 . S
C224 C223 1.392 . S
C225 C226 1.376 . S
C225 C230 1.386 . S
C225 C231 1.483 . S
C226 H201 0.949 . S
C226 C225 1.376 . S
C226 C227 1.397 . S
C227 H202 0.950 . S
C227 C226 1.397 . S
C227 C228 1.391 . S
C228 C227 1.391 . S
C228 C229 1.405 . S
C229 H203 0.950 . S
C229 C228 1.405 . S
C229 C230 1.367 . S
C230 H204 0.950 . S
C230 C225 1.386 . S
C230 C229 1.367 . S
C231 C225 1.483 . S
C231 C232 1.382 . S
C231 C233 1.403 . S
C232 H205 0.950 . S
C232 C218 1.411 . S
C232 C231 1.382 . S
C233 C217 1.411 . S
C233 C231 1.403 . S
C233 C234 1.489 . S
C234 C233 1.489 . S
C234 C235 1.383 . S
C234 C239 1.382 . S
C235 H206 0.950 . S
C235 C234 1.383 . S
C235 C236 1.395 . S
C236 H207 0.950 . S
C236 C235 1.395 . S
C236 C237 1.288 . S
C237 C236 1.288 . S
C237 C238 1.392 . S
C238 H208 0.951 . S
C238 C237 1.392 . S
C238 C239 1.392 . S
C239 H209 0.949 . S
C239 C234 1.382 . S
C239 C238 1.392 . S
H240 C259 0.949 . S
H241 C260 0.950 . S
H242 C262 0.950 . S
H243 C263 0.950 . S
H244 C265 0.950 . S
H245 C268 0.950 . S
H246 C269 0.950 . S
H247 C271 0.951 . S
H248 C272 0.949 . S
H249 C274 0.949 . S
H250 C275 0.950 . S
H251 C277 0.950 . S
H252 C278 0.950 . S
H253 C280 0.950 . S
H254 C283 0.950 . S
H255 C284 0.950 . S
H256 C286 0.951 . S
H257 C287 0.949 . S
C258 C259 1.376 . S
C258 C263 1.386 . S
C258 C264 1.483 . S
C259 H240 0.949 . S
C259 C258 1.376 . S
C259 C260 1.397 . S
C260 H241 0.950 . S
C260 C259 1.397 . S
C260 C261 1.391 . S
C261 C260 1.391 . S
C261 C262 1.405 . S
C262 H242 0.950 . S
C262 C261 1.405 . S
C262 C263 1.367 . S
C263 H243 0.950 . S
C263 C258 1.386 . S
C263 C262 1.367 . S
C264 C258 1.483 . S
C264 C265 1.382 . S
C264 C266 1.403 . S
C265 H244 0.950 . S
C265 C264 1.382 . S
C265 C281 1.411 . S
C266 C264 1.403 . S
C266 C267 1.489 . S
C266 C280 1.411 . S
C267 C266 1.489 . S
C267 C268 1.383 . S
C267 C272 1.382 . S
C268 H245 0.950 . S
C268 C267 1.383 . S
C268 C269 1.395 . S
C269 H246 0.950 . S
C269 C268 1.395 . S
C269 C270 1.288 . S
C270 C269 1.288 . S
C270 C271 1.392 . S
C271 H247 0.951 . S
C271 C270 1.392 . S
C271 C272 1.392 . S
C272 H248 0.949 . S
C272 C267 1.382 . S
C272 C271 1.392 . S
C273 C274 1.376 . S
C273 C278 1.386 . S
C273 C279 1.483 . S
C274 H249 0.949 . S
C274 C273 1.376 . S
C274 C275 1.397 . S
C275 H250 0.950 . S
C275 C274 1.397 . S
C275 C276 1.391 . S
C276 C275 1.391 . S
C276 C277 1.405 . S
C277 H251 0.950 . S
C277 C276 1.405 . S
C277 C278 1.367 . S
C278 H252 0.950 . S
C278 C273 1.386 . S
C278 C277 1.367 . S
C279 C273 1.483 . S
C279 C280 1.382 . S
C279 C281 1.403 . S
C280 H253 0.950 . S
C280 C266 1.411 . S
C280 C279 1.382 . S
C281 C265 1.411 . S
C281 C279 1.403 . S
C281 C282 1.489 . S
C282 C281 1.489 . S
C282 C283 1.383 . S
C282 C287 1.382 . S
C283 H254 0.950 . S
C283 C282 1.383 . S
C283 C284 1.395 . S
C284 H255 0.950 . S
C284 C283 1.395 . S
C284 C285 1.288 . S
C285 C284 1.288 . S
C285 C286 1.392 . S
C286 H256 0.951 . S
C286 C285 1.392 . S
C286 C287 1.392 . S
C287 H257 0.949 . S
C287 C282 1.382 . S
C287 C286 1.392 . S
H288 C307 0.949 . S
H289 C308 0.950 . S
H290 C310 0.950 . S
H291 C311 0.950 . S
H292 C313 0.950 . S
H293 C316 0.950 . S
H294 C317 0.950 . S
H295 C319 0.951 . S
H296 C320 0.949 . S
H297 C322 0.949 . S
H298 C323 0.950 . S
H299 C325 0.950 . S
H300 C326 0.950 . S
H301 C328 0.950 . S
H302 C331 0.950 . S
H303 C332 0.950 . S
H304 C334 0.951 . S
H305 C335 0.949 . S
C306 C307 1.376 . S
C306 C311 1.386 . S
C306 C312 1.483 . S
C307 H288 0.949 . S
C307 C306 1.376 . S
C307 C308 1.397 . S
C308 H289 0.950 . S
C308 C307 1.397 . S
C308 C309 1.391 . S
C309 C308 1.391 . S
C309 C310 1.405 . S
C310 H290 0.950 . S
C310 C309 1.405 . S
C310 C311 1.367 . S
C311 H291 0.950 . S
C311 C306 1.386 . S
C311 C310 1.367 . S
C312 C306 1.483 . S
C312 C313 1.382 . S
C312 C314 1.403 . S
C313 H292 0.950 . S
C313 C312 1.382 . S
C313 C329 1.411 . S
C314 C312 1.403 . S
C314 C315 1.489 . S
C314 C328 1.411 . S
C315 C314 1.489 . S
C315 C316 1.383 . S
C315 C320 1.382 . S
C316 H293 0.950 . S
C316 C315 1.383 . S
C316 C317 1.395 . S
C317 H294 0.950 . S
C317 C316 1.395 . S
C317 C318 1.288 . S
C318 C317 1.288 . S
C318 C319 1.392 . S
C319 H295 0.951 . S
C319 C318 1.392 . S
C319 C320 1.392 . S
C320 H296 0.949 . S
C320 C315 1.382 . S
C320 C319 1.392 . S
C321 C322 1.376 . S
C321 C326 1.386 . S
C321 C327 1.483 . S
C322 H297 0.949 . S
C322 C321 1.376 . S
C322 C323 1.397 . S
C323 H298 0.950 . S
C323 C322 1.397 . S
C323 C324 1.391 . S
C324 C323 1.391 . S
C324 C325 1.405 . S
C325 H299 0.950 . S
C325 C324 1.405 . S
C325 C326 1.367 . S
C326 H300 0.950 . S
C326 C321 1.386 . S
C326 C325 1.367 . S
C327 C321 1.483 . S
C327 C328 1.382 . S
C327 C329 1.403 . S
C328 H301 0.950 . S
C328 C314 1.411 . S
C328 C327 1.382 . S
C329 C313 1.411 . S
C329 C327 1.403 . S
C329 C330 1.489 . S
C330 C329 1.489 . S
C330 C331 1.383 . S
C330 C335 1.382 . S
C331 H302 0.950 . S
C331 C330 1.383 . S
C331 C332 1.395 . S
C332 H303 0.950 . S
C332 C331 1.395 . S
C332 C333 1.288 . S
C333 C332 1.288 . S
C333 C334 1.392 . S
C334 H304 0.951 . S
C334 C333 1.392 . S
C334 C335 1.392 . S
C335 H305 0.949 . S
C335 C330 1.382 . S
C335 C334 1.392 . S
H336 C355 0.949 . S
H337 C356 0.950 . S
H338 C358 0.950 . S
H339 C359 0.950 . S
H340 C361 0.950 . S
H341 C364 0.950 . S
H342 C365 0.950 . S
H343 C367 0.951 . S
H344 C368 0.949 . S
H345 C370 0.949 . S
H346 C371 0.950 . S
H347 C373 0.950 . S
H348 C374 0.950 . S
H349 C376 0.950 . S
H350 C379 0.950 . S
H351 C380 0.950 . S
H352 C382 0.951 . S
H353 C383 0.949 . S
C354 C355 1.376 . S
C354 C359 1.386 . S
C354 C360 1.483 . S
C355 H336 0.949 . S
C355 C354 1.376 . S
C355 C356 1.397 . S
C356 H337 0.950 . S
C356 C355 1.397 . S
C356 C357 1.391 . S
C357 C356 1.391 . S
C357 C358 1.405 . S
C358 H338 0.950 . S
C358 C357 1.405 . S
C358 C359 1.367 . S
C359 H339 0.950 . S
C359 C354 1.386 . S
C359 C358 1.367 . S
C360 C354 1.483 . S
C360 C361 1.382 . S
C360 C362 1.403 . S
C361 H340 0.950 . S
C361 C360 1.382 . S
C361 C377 1.411 . S
C362 C360 1.403 . S
C362 C363 1.489 . S
C362 C376 1.411 . S
C363 C362 1.489 . S
C363 C364 1.383 . S
C363 C368 1.382 . S
C364 H341 0.950 . S
C364 C363 1.383 . S
C364 C365 1.395 . S
C365 H342 0.950 . S
C365 C364 1.395 . S
C365 C366 1.288 . S
C366 C365 1.288 . S
C366 C367 1.392 . S
C367 H343 0.951 . S
C367 C366 1.392 . S
C367 C368 1.392 . S
C368 H344 0.949 . S
C368 C363 1.382 . S
C368 C367 1.392 . S
C369 C370 1.376 . S
C369 C374 1.386 . S
C369 C375 1.483 . S
C370 H345 0.949 . S
C370 C369 1.376 . S
C370 C371 1.397 . S
C371 H346 0.950 . S
C371 C370 1.397 . S
C371 C372 1.391 . S
C372 C371 1.391 . S
C372 C373 1.405 . S
C373 H347 0.950 . S
C373 C372 1.405 . S
C373 C374 1.367 . S
C374 H348 0.950 . S
C374 C369 1.386 . S
C374 C373 1.367 . S
C375 C369 1.483 . S
C375 C376 1.382 . S
C375 C377 1.403 . S
C376 H349 0.950 . S
C376 C362 1.411 . S
C376 C375 1.382 . S
C377 C361 1.411 . S
C377 C375 1.403 . S
C377 C378 1.489 . S
C378 C377 1.489 . S
C378 C379 1.383 . S
C378 C383 1.382 . S
C379 H350 0.950 . S
C379 C378 1.383 . S
C379 C380 1.395 . S
C380 H351 0.950 . S
C380 C379 1.395 . S
C380 C381 1.288 . S
C381 C380 1.288 . S
C381 C382 1.392 . S
C382 H352 0.951 . S
C382 C381 1.392 . S
C382 C383 1.392 . S
C383 H353 0.949 . S
C383 C378 1.382 . S
C383 C382 1.392 . S
C384 O386 1.247 . S
C384 O388 1.258 . S
C385 O392 1.247 . S
C385 O393 1.258 . S
O386 C384 1.247 . S
O386 Zn387 2.031 1_655 S
Zn387 O386 2.031 1_455 S
Zn387 O391 2.032 . S
Zn387 O393 2.032 . S
Zn387 O394 2.031 1_455 S
O388 C384 1.258 . S
O388 Zn389 2.023 1_655 S
Zn389 O388 2.023 1_455 S
Zn389 O390 2.040 . S
Zn389 O392 2.040 . S
Zn389 O395 2.023 1_455 S
O390 Zn389 2.040 . S
O390 C396 1.247 . S
O391 Zn387 2.032 . S
O391 C396 1.258 . S
O392 C385 1.247 . S
O392 Zn389 2.040 . S
O393 C385 1.258 . S
O393 Zn387 2.032 . S
O394 Zn387 2.031 1_655 S
O394 C397 1.247 . S
O395 Zn389 2.023 1_655 S
O395 C397 1.258 . S
C396 O390 1.247 . S
C396 O391 1.258 . S
C397 O394 1.247 . S
C397 O395 1.258 . S
C398 O400 1.247 . S
C398 O402 1.258 . S
C399 O406 1.247 . S
C399 O407 1.258 . S
O400 C398 1.247 . S
O400 Zn401 2.040 . S
Zn401 O400 2.040 . S
Zn401 O405 2.023 1_545 S
Zn401 O407 2.023 1_545 S
Zn401 O408 2.040 . S
O402 C398 1.258 . S
O402 Zn403 2.033 . S
Zn403 O402 2.033 . S
Zn403 O404 2.030 1_545 S
Zn403 O406 2.030 1_545 S
Zn403 O409 2.033 . S
O404 Zn403 2.030 1_565 S
O404 C410 1.247 . S
O405 Zn401 2.023 1_565 S
O405 C410 1.258 . S
O406 C399 1.247 . S
O406 Zn403 2.030 1_565 S
O407 C399 1.258 . S
O407 Zn401 2.023 1_565 S
O408 Zn401 2.040 . S
O408 C411 1.247 . S
O409 Zn403 2.033 . S
O409 C411 1.258 . S
C410 O404 1.247 . S
C410 O405 1.258 . S
C411 O408 1.247 . S
C411 O409 1.258 . S
C412 O414 1.247 . S
C412 O416 1.258 . S
C413 O420 1.247 . S
C413 O421 1.258 . S
O414 C412 1.247 . S
O414 Zn415 2.030 1_655 S
Zn415 O414 2.030 1_455 S
Zn415 O419 2.033 . S
Zn415 O421 2.033 . S
Zn415 O422 2.030 1_455 S
O416 C412 1.258 . S
O416 Zn417 2.023 1_655 S
Zn417 O416 2.023 1_455 S
Zn417 O418 2.040 . S
Zn417 O420 2.040 . S
Zn417 O423 2.023 1_455 S
O418 Zn417 2.040 . S
O418 C424 1.247 . S
O419 Zn415 2.033 . S
O419 C424 1.258 . S
O420 C413 1.247 . S
O420 Zn417 2.040 . S
O421 C413 1.258 . S
O421 Zn415 2.033 . S
O422 Zn415 2.030 1_655 S
O422 C425 1.247 . S
O423 Zn417 2.023 1_655 S
O423 C425 1.258 . S
C424 O418 1.247 . S
C424 O419 1.258 . S
C425 O422 1.247 . S
C425 O423 1.258 . S
C426 O428 1.247 . S
C426 O430 1.258 . S
C427 O434 1.247 . S
C427 O435 1.258 . S
O428 C426 1.247 . S
O428 Zn429 2.041 . S
Zn429 O428 2.041 . S
Zn429 O433 2.022 1_545 S
Zn429 O435 2.022 1_545 S
Zn429 O436 2.041 . S
O430 C426 1.258 . S
O430 Zn431 2.033 . S
Zn431 O430 2.033 . S
Zn431 O432 2.030 1_545 S
Zn431 O434 2.030 1_545 S
Zn431 O437 2.033 . S
O432 Zn431 2.030 1_565 S
O432 C438 1.247 . S
O433 Zn429 2.022 1_565 S
O433 C438 1.258 . S
O434 C427 1.247 . S
O434 Zn431 2.030 1_565 S
O435 C427 1.258 . S
O435 Zn429 2.022 1_565 S
O436 Zn429 2.041 . S
O436 C439 1.247 . S
O437 Zn431 2.033 . S
O437 C439 1.258 . S
C438 O432 1.247 . S
C438 O433 1.258 . S
C439 O436 1.247 . S
C439 O437 1.258 . S
C440 O442 1.247 . S
C440 O444 1.258 . S
C441 O448 1.247 . S
C441 O449 1.258 . S
O442 C440 1.247 . S
O442 Zn443 2.028 . S
Zn443 O442 2.028 . S
Zn443 O447 2.035 . S
Zn443 O449 2.035 1_554 S
Zn443 O450 2.028 1_554 S
O444 C440 1.258 . S
O444 Zn445 2.035 . S
Zn445 O444 2.035 . S
Zn445 O446 2.028 . S
Zn445 O448 2.028 1_554 S
Zn445 O451 2.035 1_554 S
O446 Zn445 2.028 . S
O446 C452 1.247 . S
O447 Zn443 2.035 . S
O447 C452 1.258 . S
O448 C441 1.247 . S
O448 Zn445 2.028 1_556 S
O449 C441 1.258 . S
O449 Zn443 2.035 1_556 S
O450 Zn443 2.028 1_556 S
O450 C453 1.247 . S
O451 Zn445 2.035 1_556 S
O451 C453 1.258 . S
C452 O446 1.247 . S
C452 O447 1.258 . S
C453 O450 1.247 . S
C453 O451 1.258 . S
C454 O456 1.247 . S
C454 O458 1.258 . S
C455 O462 1.247 . S
C455 O463 1.258 . S
O456 C454 1.247 . S
O456 Zn457 2.028 . S
Zn457 O456 2.028 . S
Zn457 O461 2.035 . S
Zn457 O463 2.035 1_554 S
Zn457 O464 2.028 1_554 S
O458 C454 1.258 . S
O458 Zn459 2.035 . S
Zn459 O458 2.035 . S
Zn459 O460 2.028 . S
Zn459 O462 2.028 1_554 S
Zn459 O465 2.035 1_554 S
O460 Zn459 2.028 . S
O460 C466 1.247 . S
O461 Zn457 2.035 . S
O461 C466 1.258 . S
O462 C455 1.247 . S
O462 Zn459 2.028 1_556 S
O463 C455 1.258 . S
O463 Zn457 2.035 1_556 S
O464 Zn457 2.028 1_556 S
O464 C467 1.247 . S
O465 Zn459 2.035 1_556 S
O465 C467 1.258 . S
C466 O460 1.247 . S
C466 O461 1.258 . S
C467 O464 1.247 . S
C467 O465 1.258 . S
C468 O470 1.247 . S
C468 O472 1.258 . S
C469 O476 1.247 . S
C469 O477 1.258 . S
O470 C468 1.247 . S
O470 Zn471 2.028 1_556 S
Zn471 O470 2.028 1_554 S
Zn471 O475 2.035 1_554 S
Zn471 O477 2.035 . S
Zn471 O478 2.028 . S
O472 C468 1.258 . S
O472 Zn473 2.035 1_556 S
Zn473 O472 2.035 1_554 S
Zn473 O474 2.028 1_554 S
Zn473 O476 2.028 . S
Zn473 O479 2.035 . S
O474 Zn473 2.028 1_556 S
O474 C480 1.247 . S
O475 Zn471 2.035 1_556 S
O475 C480 1.258 . S
O476 C469 1.247 . S
O476 Zn473 2.028 . S
O477 C469 1.258 . S
O477 Zn471 2.035 . S
O478 Zn471 2.028 . S
O478 C481 1.247 . S
O479 Zn473 2.035 . S
O479 C481 1.258 . S
C480 O474 1.247 . S
C480 O475 1.258 . S
C481 O478 1.247 . S
C481 O479 1.258 . S
C482 O484 1.247 . S
C482 O486 1.258 . S
C483 O490 1.247 . S
C483 O491 1.258 . S
O484 C482 1.247 . S
O484 Zn485 2.028 . S
Zn485 O484 2.028 . S
Zn485 O489 2.035 . S
Zn485 O491 2.035 1_554 S
Zn485 O492 2.028 1_554 S
O486 C482 1.258 . S
O486 Zn487 2.035 . S
Zn487 O486 2.035 . S
Zn487 O488 2.028 . S
Zn487 O490 2.028 1_554 S
Zn487 O493 2.035 1_554 S
O488 Zn487 2.028 . S
O488 C494 1.247 . S
O489 Zn485 2.035 . S
O489 C494 1.258 . S
O490 C483 1.247 . S
O490 Zn487 2.028 1_556 S
O491 C483 1.258 . S
O491 Zn485 2.035 1_556 S
O492 Zn485 2.028 1_556 S
O492 C495 1.247 . S
O493 Zn487 2.035 1_556 S
O493 C495 1.258 . S
C494 O488 1.247 . S
C494 O489 1.258 . S
C495 O492 1.247 . S
C495 O493 1.258 . S
C496 C497 1.387 . S
C496 H500 0.950 . S
C496 C505 1.390 . S
C497 C496 1.387 . S
C497 C499 1.387 . S
H498 C505 0.950 . S
C499 C497 1.387 . S
C499 C501 1.390 . S
C499 H503 0.950 . S
H500 C496 0.950 . S
C501 C499 1.390 . S
C501 C502 1.387 . S
C501 H504 0.950 . S
C502 C501 1.387 . S
C502 C505 1.387 . S
H503 C499 0.950 . S
H504 C501 0.950 . S
C505 C496 1.390 . S
C505 H498 0.950 . S
C505 C502 1.387 . S
C506 C507 1.387 . S
C506 H510 0.950 . S
C506 C515 1.390 . S
C507 C506 1.387 . S
C507 C509 1.387 . S
H508 C515 0.950 . S
C509 C507 1.387 . S
C509 C511 1.390 . S
C509 H513 0.950 . S
H510 C506 0.950 . S
C511 C509 1.390 . S
C511 C512 1.387 . S
C511 H514 0.950 . S
C512 C511 1.387 . S
C512 C515 1.387 . S
H513 C509 0.950 . S
H514 C511 0.950 . S
C515 C506 1.390 . S
C515 H508 0.950 . S
C515 C512 1.387 . S
C516 C517 1.387 . S
C516 H520 0.950 . S
C516 C525 1.390 . S
C517 C516 1.387 . S
C517 C519 1.387 . S
H518 C525 0.950 . S
C519 C517 1.387 . S
C519 C521 1.390 . S
C519 H523 0.950 . S
H520 C516 0.950 . S
C521 C519 1.390 . S
C521 C522 1.387 . S
C521 H524 0.950 . S
C522 C521 1.387 . S
C522 C525 1.387 . S
H523 C519 0.950 . S
H524 C521 0.950 . S
C525 C516 1.390 . S
C525 H518 0.950 . S
C525 C522 1.387 . S
C526 C527 1.387 . S
C526 H530 0.950 . S
C526 C535 1.390 . S
C527 C526 1.387 . S
C527 C529 1.387 . S
H528 C535 0.950 . S
C529 C527 1.387 . S
C529 C531 1.390 . S
C529 H533 0.950 . S
H530 C526 0.950 . S
C531 C529 1.390 . S
C531 C532 1.387 . S
C531 H534 0.950 . S
C532 C531 1.387 . S
C532 C535 1.387 . S
H533 C529 0.950 . S
H534 C531 0.950 . S
C535 C526 1.390 . S
C535 H528 0.950 . S
C535 C532 1.387 . S
C536 C537 1.387 . S
C536 H540 0.950 . S
C536 C545 1.390 . S
C537 C536 1.387 . S
C537 C539 1.387 . S
H538 C545 0.950 . S
C539 C537 1.387 . S
C539 C541 1.390 . S
C539 H543 0.950 . S
H540 C536 0.950 . S
C541 C539 1.390 . S
C541 C542 1.387 . S
C541 H544 0.950 . S
C542 C541 1.387 . S
C542 C545 1.387 . S
H543 C539 0.950 . S
H544 C541 0.950 . S
C545 C536 1.390 . S
C545 H538 0.950 . S
C545 C542 1.387 . S
C546 C547 1.387 . S
C546 H550 0.950 . S
C546 C555 1.390 . S
C547 C546 1.387 . S
C547 C549 1.387 . S
H548 C555 0.950 . S
C549 C547 1.387 . S
C549 C551 1.390 . S
C549 H553 0.950 . S
H550 C546 0.950 . S
C551 C549 1.390 . S
C551 C552 1.387 . S
C551 H554 0.950 . S
C552 C551 1.387 . S
C552 C555 1.387 . S
H553 C549 0.950 . S
H554 C551 0.950 . S
C555 C546 1.390 . S
C555 H548 0.950 . S
C555 C552 1.387 . S
C556 C557 1.387 . S
C556 H560 0.950 . S
C556 C565 1.390 . S
C557 C556 1.387 . S
C557 C559 1.387 . S
H558 C565 0.950 . S
C559 C557 1.387 . S
C559 C561 1.390 . S
C559 H563 0.950 . S
H560 C556 0.950 . S
C561 C559 1.390 . S
C561 C562 1.387 . S
C561 H564 0.950 . S
C562 C561 1.387 . S
C562 C565 1.387 . S
H563 C559 0.950 . S
H564 C561 0.950 . S
C565 C556 1.390 . S
C565 H558 0.950 . S
C565 C562 1.387 . S
C566 C567 1.387 . S
C566 H570 0.950 . S
C566 C575 1.390 . S
C567 C566 1.387 . S
C567 C569 1.387 . S
H568 C575 0.950 . S
C569 C567 1.387 . S
C569 C571 1.390 . S
C569 H573 0.950 . S
H570 C566 0.950 . S
C571 C569 1.390 . S
C571 C572 1.387 . S
C571 H574 0.950 . S
C572 C571 1.387 . S
C572 C575 1.387 . S
H573 C569 0.950 . S
H574 C571 0.950 . S
C575 C566 1.390 . S
C575 H568 0.950 . S
C575 C572 1.387 . S
C576 C577 1.387 . S
C576 H580 0.950 . S
C576 C585 1.390 . S
C577 C576 1.387 . S
C577 C579 1.387 . S
H578 C585 0.950 . S
C579 C577 1.387 . S
C579 C581 1.390 . S
C579 H583 0.950 . S
H580 C576 0.950 . S
C581 C579 1.390 . S
C581 C582 1.387 . S
C581 H584 0.950 . S
C582 C581 1.387 . S
C582 C585 1.387 . S
H583 C579 0.950 . S
H584 C581 0.950 . S
C585 C576 1.390 . S
C585 H578 0.950 . S
C585 C582 1.387 . S
C586 C587 1.387 . S
C586 H590 0.950 . S
C586 C595 1.390 . S
C587 C586 1.387 . S
C587 C589 1.387 . S
H588 C595 0.950 . S
C589 C587 1.387 . S
C589 C591 1.390 . S
C589 H593 0.950 . S
H590 C586 0.950 . S
C591 C589 1.390 . S
C591 C592 1.387 . S
C591 H594 0.950 . S
C592 C591 1.387 . S
C592 C595 1.387 . S
H593 C589 0.950 . S
H594 C591 0.950 . S
C595 C586 1.390 . S
C595 H588 0.950 . S
C595 C592 1.387 . S
C596 C597 1.387 . S
C596 H600 0.950 . S
C596 C605 1.390 . S
C597 C596 1.387 . S
C597 C599 1.387 . S
H598 C605 0.950 . S
C599 C597 1.387 . S
C599 C601 1.390 . S
C599 H603 0.950 . S
H600 C596 0.950 . S
C601 C599 1.390 . S
C601 C602 1.387 . S
C601 H604 0.950 . S
C602 C601 1.387 . S
C602 C605 1.387 . S
H603 C599 0.950 . S
H604 C601 0.950 . S
C605 C596 1.390 . S
C605 H598 0.950 . S
C605 C602 1.387 . S
C606 C607 1.387 . S
C606 H610 0.950 . S
C606 C615 1.390 . S
C607 C606 1.387 . S
C607 C609 1.387 . S
H608 C615 0.950 . S
C609 C607 1.387 . S
C609 C611 1.390 . S
C609 H613 0.950 . S
H610 C606 0.950 . S
C611 C609 1.390 . S
C611 C612 1.387 . S
C611 H614 0.950 . S
C612 C611 1.387 . S
C612 C615 1.387 . S
H613 C609 0.950 . S
H614 C611 0.950 . S
C615 C606 1.390 . S
C615 H608 0.950 . S
C615 C612 1.387 . S
C616 C617 1.387 . S
C616 H620 0.950 . S
C616 C625 1.390 . S
C617 C616 1.387 . S
C617 C619 1.387 . S
H618 C625 0.950 . S
C619 C617 1.387 . S
C619 C621 1.390 . S
C619 H623 0.950 . S
H620 C616 0.950 . S
C621 C619 1.390 . S
C621 C622 1.387 . S
C621 H624 0.950 . S
C622 C621 1.387 . S
C622 C625 1.387 . S
H623 C619 0.950 . S
H624 C621 0.950 . S
C625 C616 1.390 . S
C625 H618 0.950 . S
C625 C622 1.387 . S
C626 C627 1.387 . S
C626 H630 0.950 . S
C626 C635 1.390 . S
C627 C626 1.387 . S
C627 C629 1.387 . S
H628 C635 0.950 . S
C629 C627 1.387 . S
C629 C631 1.390 . S
C629 H633 0.950 . S
H630 C626 0.950 . S
C631 C629 1.390 . S
C631 C632 1.387 . S
C631 H634 0.950 . S
C632 C631 1.387 . S
C632 C635 1.387 . S
H633 C629 0.950 . S
H634 C631 0.950 . S
C635 C626 1.390 . S
C635 H628 0.950 . S
C635 C632 1.387 . S
C636 C637 1.387 . S
C636 H640 0.950 . S
C636 C645 1.390 . S
C637 C636 1.387 . S
C637 C639 1.387 . S
H638 C645 0.950 . S
C639 C637 1.387 . S
C639 C641 1.390 . S
C639 H643 0.950 . S
H640 C636 0.950 . S
C641 C639 1.390 . S
C641 C642 1.387 . S
C641 H644 0.950 . S
C642 C641 1.387 . S
C642 C645 1.387 . S
H643 C639 0.950 . S
H644 C641 0.950 . S
C645 C636 1.390 . S
C645 H638 0.950 . S
C645 C642 1.387 . S
C646 C647 1.387 . S
C646 H650 0.950 . S
C646 C655 1.390 . S
C647 C646 1.387 . S
C647 C649 1.387 . S
H648 C655 0.950 . S
C649 C647 1.387 . S
C649 C651 1.390 . S
C649 H653 0.950 . S
H650 C646 0.950 . S
C651 C649 1.390 . S
C651 C652 1.387 . S
C651 H654 0.950 . S
C652 C651 1.387 . S
C652 C655 1.387 . S
H653 C649 0.950 . S
H654 C651 0.950 . S
C655 C646 1.390 . S
C655 H648 0.950 . S
C655 C652 1.387 . S
C656 C657 1.387 . S
C656 H660 0.950 . S
C656 C665 1.390 . S
C657 C656 1.387 . S
C657 C659 1.387 . S
H658 C665 0.950 . S
C659 C657 1.387 . S
C659 C661 1.390 . S
C659 H663 0.950 . S
H660 C656 0.950 . S
C661 C659 1.390 . S
C661 C662 1.387 . S
C661 H664 0.950 . S
C662 C661 1.387 . S
C662 C665 1.387 . S
H663 C659 0.950 . S
H664 C661 0.950 . S
C665 C656 1.390 . S
C665 H658 0.950 . S
C665 C662 1.387 . S
C666 C667 1.387 . S
C666 H670 0.950 . S
C666 C675 1.390 . S
C667 C666 1.387 . S
C667 C669 1.387 . S
H668 C675 0.950 . S
C669 C667 1.387 . S
C669 C671 1.390 . S
C669 H673 0.950 . S
H670 C666 0.950 . S
C671 C669 1.390 . S
C671 C672 1.387 . S
C671 H674 0.950 . S
C672 C671 1.387 . S
C672 C675 1.387 . S
H673 C669 0.950 . S
H674 C671 0.950 . S
C675 C666 1.390 . S
C675 H668 0.950 . S
C675 C672 1.387 . S
C676 C677 1.387 . S
C676 H680 0.950 . S
C676 C685 1.390 . S
C677 C676 1.387 . S
C677 C679 1.387 . S
H678 C685 0.950 . S
C679 C677 1.387 . S
C679 C681 1.390 . S
C679 H683 0.950 . S
H680 C676 0.950 . S
C681 C679 1.390 . S
C681 C682 1.387 . S
C681 H684 0.950 . S
C682 C681 1.387 . S
C682 C685 1.387 . S
H683 C679 0.950 . S
H684 C681 0.950 . S
C685 C676 1.390 . S
C685 H678 0.950 . S
C685 C682 1.387 . S
C686 C687 1.387 . S
C686 H690 0.950 . S
C686 C695 1.390 . S
C687 C686 1.387 . S
C687 C689 1.387 . S
H688 C695 0.950 . S
C689 C687 1.387 . S
C689 C691 1.390 . S
C689 H693 0.950 . S
H690 C686 0.950 . S
C691 C689 1.390 . S
C691 C692 1.387 . S
C691 H694 0.950 . S
C692 C691 1.387 . S
C692 C695 1.387 . S
H693 C689 0.950 . S
H694 C691 0.950 . S
C695 C686 1.390 . S
C695 H688 0.950 . S
C695 C692 1.387 . S
C696 C697 1.387 . S
C696 H700 0.950 . S
C696 C705 1.390 . S
C697 C696 1.387 . S
C697 C699 1.387 . S
H698 C705 0.950 . S
C699 C697 1.387 . S
C699 C701 1.390 . S
C699 H703 0.950 . S
H700 C696 0.950 . S
C701 C699 1.390 . S
C701 C702 1.387 . S
C701 H704 0.950 . S
C702 C701 1.387 . S
C702 C705 1.387 . S
H703 C699 0.950 . S
H704 C701 0.950 . S
C705 C696 1.390 . S
C705 H698 0.950 . S
C705 C702 1.387 . S
C706 C707 1.387 . S
C706 H710 0.950 . S
C706 C715 1.390 . S
C707 C706 1.387 . S
C707 C709 1.387 . S
H708 C715 0.950 . S
C709 C707 1.387 . S
C709 C711 1.390 . S
C709 H713 0.950 . S
H710 C706 0.950 . S
C711 C709 1.390 . S
C711 C712 1.387 . S
C711 H714 0.950 . S
C712 C711 1.387 . S
C712 C715 1.387 . S
H713 C709 0.950 . S
H714 C711 0.950 . S
C715 C706 1.390 . S
C715 H708 0.950 . S
C715 C712 1.387 . S
C716 C717 1.387 . S
C716 H720 0.950 . S
C716 C725 1.390 . S
C717 C716 1.387 . S
C717 C719 1.387 . S
H718 C725 0.950 . S
C719 C717 1.387 . S
C719 C721 1.390 . S
C719 H723 0.950 . S
H720 C716 0.950 . S
C721 C719 1.390 . S
C721 C722 1.387 . S
C721 H724 0.950 . S
C722 C721 1.387 . S
C722 C725 1.387 . S
H723 C719 0.950 . S
H724 C721 0.950 . S
C725 C716 1.390 . S
C725 H718 0.950 . S
C725 C722 1.387 . S
C726 C727 1.387 . S
C726 H730 0.950 . S
C726 C735 1.390 . S
C727 C726 1.387 . S
C727 C729 1.387 . S
H728 C735 0.950 . S
C729 C727 1.387 . S
C729 C731 1.390 . S
C729 H733 0.950 . S
H730 C726 0.950 . S
C731 C729 1.390 . S
C731 C732 1.387 . S
C731 H734 0.950 . S
C732 C731 1.387 . S
C732 C735 1.387 . S
H733 C729 0.950 . S
H734 C731 0.950 . S
C735 C726 1.390 . S
C735 H728 0.950 . S
C735 C732 1.387 . S
C736 C737 1.387 . S
C736 H740 0.950 . S
C736 C745 1.390 . S
C737 C736 1.387 . S
C737 C739 1.387 . S
H738 C745 0.950 . S
C739 C737 1.387 . S
C739 C741 1.390 . S
C739 H743 0.950 . S
H740 C736 0.950 . S
C741 C739 1.390 . S
C741 C742 1.387 . S
C741 H744 0.950 . S
C742 C741 1.387 . S
C742 C745 1.387 . S
H743 C739 0.950 . S
H744 C741 0.950 . S
C745 C736 1.390 . S
C745 H738 0.950 . S
C745 C742 1.387 . S
C746 C747 1.387 . S
C746 H750 0.950 . S
C746 C755 1.390 . S
C747 C746 1.387 . S
C747 C749 1.387 . S
H748 C755 0.950 . S
C749 C747 1.387 . S
C749 C751 1.390 . S
C749 H753 0.950 . S
H750 C746 0.950 . S
C751 C749 1.390 . S
C751 C752 1.387 . S
C751 H754 0.950 . S
C752 C751 1.387 . S
C752 C755 1.387 . S
H753 C749 0.950 . S
H754 C751 0.950 . S
C755 C746 1.390 . S
C755 H748 0.950 . S
C755 C752 1.387 . S
C756 C757 1.387 . S
C756 H760 0.950 . S
C756 C765 1.390 . S
C757 C756 1.387 . S
C757 C759 1.387 . S
H758 C765 0.950 . S
C759 C757 1.387 . S
C759 C761 1.390 . S
C759 H763 0.950 . S
H760 C756 0.950 . S
C761 C759 1.390 . S
C761 C762 1.387 . S
C761 H764 0.950 . S
C762 C761 1.387 . S
C762 C765 1.387 . S
H763 C759 0.950 . S
H764 C761 0.950 . S
C765 C756 1.390 . S
C765 H758 0.950 . S
C765 C762 1.387 . S
C766 C767 1.387 . S
C766 H770 0.950 . S
C766 C775 1.390 . S
C767 C766 1.387 . S
C767 C769 1.387 . S
H768 C775 0.950 . S
C769 C767 1.387 . S
C769 C771 1.390 . S
C769 H773 0.950 . S
H770 C766 0.950 . S
C771 C769 1.390 . S
C771 C772 1.387 . S
C771 H774 0.950 . S
C772 C771 1.387 . S
C772 C775 1.387 . S
H773 C769 0.950 . S
H774 C771 0.950 . S
C775 C766 1.390 . S
C775 H768 0.950 . S
C775 C772 1.387 . S
C776 C777 1.387 . S
C776 H780 0.950 . S
C776 C785 1.390 . S
C777 C776 1.387 . S
C777 C779 1.387 . S
H778 C785 0.950 . S
C779 C777 1.387 . S
C779 C781 1.390 . S
C779 H783 0.950 . S
H780 C776 0.950 . S
C781 C779 1.390 . S
C781 C782 1.387 . S
C781 H784 0.950 . S
C782 C781 1.387 . S
C782 C785 1.387 . S
H783 C779 0.950 . S
H784 C781 0.950 . S
C785 C776 1.390 . S
C785 H778 0.950 . S
C785 C782 1.387 . S
C786 C787 1.387 . S
C786 H790 0.950 . S
C786 C795 1.390 . S
C787 C786 1.387 . S
C787 C789 1.387 . S
H788 C795 0.950 . S
C789 C787 1.387 . S
C789 C791 1.390 . S
C789 H793 0.950 . S
H790 C786 0.950 . S
C791 C789 1.390 . S
C791 C792 1.387 . S
C791 H794 0.950 . S
C792 C791 1.387 . S
C792 C795 1.387 . S
H793 C789 0.950 . S
H794 C791 0.950 . S
C795 C786 1.390 . S
C795 H788 0.950 . S
C795 C792 1.387 . S
C796 C797 1.387 . S
C796 H800 0.950 . S
C796 C805 1.390 . S
C797 C796 1.387 . S
C797 C799 1.387 . S
H798 C805 0.950 . S
C799 C797 1.387 . S
C799 C801 1.390 . S
C799 H803 0.950 . S
H800 C796 0.950 . S
C801 C799 1.390 . S
C801 C802 1.387 . S
C801 H804 0.950 . S
C802 C801 1.387 . S
C802 C805 1.387 . S
H803 C799 0.950 . S
H804 C801 0.950 . S
C805 C796 1.390 . S
C805 H798 0.950 . S
C805 C802 1.387 . S
C806 C807 1.387 . S
C806 H810 0.950 . S
C806 C815 1.390 . S
C807 C806 1.387 . S
C807 C809 1.387 . S
H808 C815 0.950 . S
C809 C807 1.387 . S
C809 C811 1.390 . S
C809 H813 0.950 . S
H810 C806 0.950 . S
C811 C809 1.390 . S
C811 C812 1.387 . S
C811 H814 0.950 . S
C812 C811 1.387 . S
C812 C815 1.387 . S
H813 C809 0.950 . S
H814 C811 0.950 . S
C815 C806 1.390 . S
C815 H808 0.950 . S
C815 C812 1.387 . S
C502 C385 1.501 . S
C497 C36 1.502 . S
C512 C411 1.501 . S
C507 C93 1.497 . S
C522 C425 1.501 . S
C517 C132 1.501 . S
C532 C427 1.500 . S
C527 C174 1.498 . S
C537 C213 1.502 . S
C542 C424 1.501 . S
C552 C426 1.501 . S
C547 C285 1.497 . S
C562 C384 1.501 . S
C557 C324 1.501 . S
C572 C410 1.500 . S
C567 C366 1.498 . S
C582 C412 1.501 . S
C577 C357 1.502 . S
C592 C438 1.500 . S
C587 C222 1.496 . S
C602 C396 1.501 . S
C597 C276 1.502 . S
C612 C398 1.500 . S
C607 C333 1.499 . S
C622 C397 1.501 . S
C617 C84 1.502 . S
C632 C399 1.500 . S
C627 C141 1.498 . S
C642 C413 1.501 . S
C637 C165 1.502 . S
C652 C439 1.500 . S
C647 C45 1.499 . S
C662 C441 1.501 . S
C657 C372 1.503 . S
C667 C237 1.496 . S
C672 C467 1.502 . S
C677 C261 1.502 . S
C682 C480 1.503 . S
C687 C318 1.498 . S
C692 C483 1.502 . S
C697 C69 1.502 . S
C702 C481 1.499 . S
C707 C126 1.498 . S
C712 C482 1.499 . S
C717 C180 1.501 . S
C722 C440 1.499 . S
C732 C466 1.501 . S
C727 C30 1.496 . S
C742 C469 1.501 . S
C737 C21 1.500 . S
C747 C78 1.496 . S
C752 C494 1.498 . S
C757 C117 1.502 . S
C762 C452 1.500 . S
C767 C189 1.498 . S
C772 C454 1.499 . S
C782 C453 1.501 . S
C777 C228 1.504 . S
C792 C455 1.501 . S
C787 C270 1.498 . S
C797 C309 1.501 . S
C802 C468 1.502 . S
C812 C495 1.501 . S
C807 C381 1.499 . S
