# Generated by pormake.
# Topology eea, (3,6)-cn, num edge types: 1
# Building blocks:
#     Node 0, Type 0, BuildingBlock: BELTOD_clean_linker_0, # of connection points: 3
#     Node 1, Type 0, BuildingBlock: BELTOD_clean_linker_0, # of connection points: 3
#     Node 2, Type 0, BuildingBlock: BELTOD_clean_linker_0, # of connection points: 3
#     Node 3, Type 0, BuildingBlock: BELTOD_clean_linker_0, # of connection points: 3
#     Node 4, Type 0, BuildingBlock: BELTOD_clean_linker_0, # of connection points: 3
#     Node 5, Type 0, BuildingBlock: BELTOD_clean_linker_0, # of connection points: 3
#     Node 6, Type 0, BuildingBlock: BELTOD_clean_linker_0, # of connection points: 3
#     Node 7, Type 0, BuildingBlock: BELTOD_clean_linker_0, # of connection points: 3
#     Node 8, Type 0, BuildingBlock: BELTOD_clean_linker_0, # of connection points: 3
#     Node 9, Type 0, BuildingBlock: BELTOD_clean_linker_0, # of connection points: 3
#     Node 10, Type 0, BuildingBlock: BELTOD_clean_linker_0, # of connection points: 3
#     Node 11, Type 0, BuildingBlock: BELTOD_clean_linker_0, # of connection points: 3
#     Node 12, Type 0, BuildingBlock: BELTOD_clean_linker_0, # of connection points: 3
#     Node 13, Type 0, BuildingBlock: BELTOD_clean_linker_0, # of connection points: 3
#     Node 14, Type 0, BuildingBlock: BELTOD_clean_linker_0, # of connection points: 3
#     Node 15, Type 0, BuildingBlock: BELTOD_clean_linker_0, # of connection points: 3
#     Node 16, Type 0, BuildingBlock: BELTOD_clean_linker_0, # of connection points: 3
#     Node 17, Type 0, BuildingBlock: BELTOD_clean_linker_0, # of connection points: 3
#     Node 18, Type 1, BuildingBlock: NUHQIS_clean_sbu_0, # of connection points: 6
#     Node 19, Type 1, BuildingBlock: NUHQIS_clean_sbu_0, # of connection points: 6
#     Node 20, Type 1, BuildingBlock: NUHQIS_clean_sbu_0, # of connection points: 6
#     Node 21, Type 1, BuildingBlock: NUHQIS_clean_sbu_0, # of connection points: 6
#     Node 22, Type 1, BuildingBlock: NUHQIS_clean_sbu_0, # of connection points: 6
#     Node 23, Type 1, BuildingBlock: NUHQIS_clean_sbu_0, # of connection points: 6
#     Node 24, Type 1, BuildingBlock: NUHQIS_clean_sbu_0, # of connection points: 6
#     Node 25, Type 1, BuildingBlock: NUHQIS_clean_sbu_0, # of connection points: 6
#     Node 26, Type 1, BuildingBlock: NUHQIS_clean_sbu_0, # of connection points: 6
#     Edge 27, Type (0, 1), BuildingBlock: ZUJKAS_clean_linker_0, # of connection points: 2
#     Edge 28, Type (0, 1), BuildingBlock: ZUJKAS_clean_linker_0, # of connection points: 2
#     Edge 29, Type (0, 1), BuildingBlock: ZUJKAS_clean_linker_0, # of connection points: 2
#     Edge 30, Type (0, 1), BuildingBlock: ZUJKAS_clean_linker_0, # of connection points: 2
#     Edge 31, Type (0, 1), BuildingBlock: ZUJKAS_clean_linker_0, # of connection points: 2
#     Edge 32, Type (0, 1), BuildingBlock: ZUJKAS_clean_linker_0, # of connection points: 2
#     Edge 33, Type (0, 1), BuildingBlock: ZUJKAS_clean_linker_0, # of connection points: 2
#     Edge 34, Type (0, 1), BuildingBlock: ZUJKAS_clean_linker_0, # of connection points: 2
#     Edge 35, Type (0, 1), BuildingBlock: ZUJKAS_clean_linker_0, # of connection points: 2
#     Edge 36, Type (0, 1), BuildingBlock: ZUJKAS_clean_linker_0, # of connection points: 2
#     Edge 37, Type (0, 1), BuildingBlock: ZUJKAS_clean_linker_0, # of connection points: 2
#     Edge 38, Type (0, 1), BuildingBlock: ZUJKAS_clean_linker_0, # of connection points: 2
#     Edge 39, Type (0, 1), BuildingBlock: ZUJKAS_clean_linker_0, # of connection points: 2
#     Edge 40, Type (0, 1), BuildingBlock: ZUJKAS_clean_linker_0, # of connection points: 2
#     Edge 41, Type (0, 1), BuildingBlock: ZUJKAS_clean_linker_0, # of connection points: 2
#     Edge 42, Type (0, 1), BuildingBlock: ZUJKAS_clean_linker_0, # of connection points: 2
#     Edge 43, Type (0, 1), BuildingBlock: ZUJKAS_clean_linker_0, # of connection points: 2
#     Edge 44, Type (0, 1), BuildingBlock: ZUJKAS_clean_linker_0, # of connection points: 2
#     Edge 45, Type (0, 1), BuildingBlock: ZUJKAS_clean_linker_0, # of connection points: 2
#     Edge 46, Type (0, 1), BuildingBlock: ZUJKAS_clean_linker_0, # of connection points: 2
#     Edge 47, Type (0, 1), BuildingBlock: ZUJKAS_clean_linker_0, # of connection points: 2
#     Edge 48, Type (0, 1), BuildingBlock: ZUJKAS_clean_linker_0, # of connection points: 2
#     Edge 49, Type (0, 1), BuildingBlock: ZUJKAS_clean_linker_0, # of connection points: 2
#     Edge 50, Type (0, 1), BuildingBlock: ZUJKAS_clean_linker_0, # of connection points: 2
#     Edge 51, Type (0, 1), BuildingBlock: ZUJKAS_clean_linker_0, # of connection points: 2
#     Edge 52, Type (0, 1), BuildingBlock: ZUJKAS_clean_linker_0, # of connection points: 2
#     Edge 53, Type (0, 1), BuildingBlock: ZUJKAS_clean_linker_0, # of connection points: 2
#     Edge 54, Type (0, 1), BuildingBlock: ZUJKAS_clean_linker_0, # of connection points: 2
#     Edge 55, Type (0, 1), BuildingBlock: ZUJKAS_clean_linker_0, # of connection points: 2
#     Edge 56, Type (0, 1), BuildingBlock: ZUJKAS_clean_linker_0, # of connection points: 2
#     Edge 57, Type (0, 1), BuildingBlock: ZUJKAS_clean_linker_0, # of connection points: 2
#     Edge 58, Type (0, 1), BuildingBlock: ZUJKAS_clean_linker_0, # of connection points: 2
#     Edge 59, Type (0, 1), BuildingBlock: ZUJKAS_clean_linker_0, # of connection points: 2
#     Edge 60, Type (0, 1), BuildingBlock: ZUJKAS_clean_linker_0, # of connection points: 2
#     Edge 61, Type (0, 1), BuildingBlock: ZUJKAS_clean_linker_0, # of connection points: 2
#     Edge 62, Type (0, 1), BuildingBlock: ZUJKAS_clean_linker_0, # of connection points: 2
#     Edge 63, Type (0, 1), BuildingBlock: ZUJKAS_clean_linker_0, # of connection points: 2
#     Edge 64, Type (0, 1), BuildingBlock: ZUJKAS_clean_linker_0, # of connection points: 2
#     Edge 65, Type (0, 1), BuildingBlock: ZUJKAS_clean_linker_0, # of connection points: 2
#     Edge 66, Type (0, 1), BuildingBlock: ZUJKAS_clean_linker_0, # of connection points: 2
#     Edge 67, Type (0, 1), BuildingBlock: ZUJKAS_clean_linker_0, # of connection points: 2
#     Edge 68, Type (0, 1), BuildingBlock: ZUJKAS_clean_linker_0, # of connection points: 2
#     Edge 69, Type (0, 1), BuildingBlock: ZUJKAS_clean_linker_0, # of connection points: 2
#     Edge 70, Type (0, 1), BuildingBlock: ZUJKAS_clean_linker_0, # of connection points: 2
#     Edge 71, Type (0, 1), BuildingBlock: ZUJKAS_clean_linker_0, # of connection points: 2
#     Edge 72, Type (0, 1), BuildingBlock: ZUJKAS_clean_linker_0, # of connection points: 2
#     Edge 73, Type (0, 1), BuildingBlock: ZUJKAS_clean_linker_0, # of connection points: 2
#     Edge 74, Type (0, 1), BuildingBlock: ZUJKAS_clean_linker_0, # of connection points: 2
#     Edge 75, Type (0, 1), BuildingBlock: ZUJKAS_clean_linker_0, # of connection points: 2
#     Edge 76, Type (0, 1), BuildingBlock: ZUJKAS_clean_linker_0, # of connection points: 2
#     Edge 77, Type (0, 1), BuildingBlock: ZUJKAS_clean_linker_0, # of connection points: 2
#     Edge 78, Type (0, 1), BuildingBlock: ZUJKAS_clean_linker_0, # of connection points: 2
#     Edge 79, Type (0, 1), BuildingBlock: ZUJKAS_clean_linker_0, # of connection points: 2
#     Edge 80, Type (0, 1), BuildingBlock: ZUJKAS_clean_linker_0, # of connection points: 2
# Relax obj value: 0.032
# Max RMSD: 0.130
# Mean RMSD: 0.071
data_MOF--net-eea--node1-NUHQIS_clean_sbu_0--node2-BELTOD_clean_linker_0--edge1-ZUJKAS_clean_linker_0
_symmetry_space_group_name_H-M    P1
_symmetry_Int_Tables_number       1
_symmetry_cell_setting            triclinic
loop_
_symmetry_equiv_pos_as_xyz
'x, y, z'
_cell_length_a     74.151174
_cell_length_b     74.20248
_cell_length_c     102.23739
_cell_angle_alpha  93.873609
_cell_angle_beta   93.485055
_cell_angle_gamma 119.88491
loop_
_atom_site_label
_atom_site_type_symbol
_atom_site_fract_x
_atom_site_fract_y
_atom_site_fract_z
_atom_type_partial_charge
P0 P 0.32462 0.16868 0.40701 0.0
H1 H 0.32827 0.1465 0.38356 0.0
H2 H 0.30981 0.10956 0.37467 0.0
H3 H 0.27287 0.09427 0.40765 0.0
H4 H 0.29174 0.13106 0.41659 0.0
H5 H 0.3381 0.21126 0.40126 0.0
H6 H 0.31912 0.22782 0.39265 0.0
H7 H 0.26117 0.16869 0.38982 0.0
H8 H 0.28028 0.15224 0.39816 0.0
H9 H 0.35128 0.16476 0.42729 0.0
H10 H 0.30042 0.17742 0.42564 0.0
O11 O 0.34888 0.18058 0.40264 0.0
H12 H 0.35217 0.16609 0.4513 0.0
H13 H 0.30151 0.17925 0.4496 0.0
C14 C 0.31169 0.14141 0.40086 0.0
C15 C 0.31637 0.13512 0.38894 0.0
C16 C 0.30566 0.11403 0.38381 0.0
C17 C 0.28992 0.09892 0.39048 0.0
C18 C 0.28519 0.10541 0.4024 0.0
C19 C 0.29596 0.12647 0.40752 0.0
C20 C 0.31068 0.18046 0.40006 0.0
C21 C 0.32135 0.20184 0.39862 0.0
C22 C 0.31044 0.21131 0.39382 0.0
C23 C 0.28863 0.19955 0.39049 0.0
C24 C 0.27801 0.17811 0.39204 0.0
C25 C 0.28893 0.16868 0.39684 0.0
C26 C 0.32608 0.17136 0.42471 0.0
C27 C 0.34053 0.16816 0.43212 0.0
C28 C 0.34105 0.16897 0.44584 0.0
C29 C 0.32697 0.17288 0.45238 0.0
C30 C 0.31245 0.17604 0.44487 0.0
C31 C 0.31196 0.1752 0.43115 0.0
P32 P 0.90983 0.11829 0.43486 0.0
H33 H 0.90175 0.07952 0.42021 0.0
H34 H 0.87043 0.05016 0.40792 0.0
H35 H 0.83544 0.08092 0.41685 0.0
H36 H 0.86706 0.11052 0.42888 0.0
H37 H 0.94634 0.15986 0.44092 0.0
H38 H 0.97059 0.18451 0.42707 0.0
H39 H 0.93102 0.14473 0.39223 0.0
H40 H 0.90714 0.11998 0.40614 0.0
H41 H 0.90488 0.10688 0.46156 0.0
H42 H 0.89864 0.151 0.43913 0.0
O43 O 0.92499 0.10904 0.44029 0.0
H44 H 0.89423 0.119 0.48076 0.0
H45 H 0.88796 0.16337 0.45845 0.0
C46 C 0.88658 0.09693 0.42573 0.0
C47 C 0.88731 0.0799 0.41957 0.0
C48 C 0.86937 0.06309 0.41258 0.0
C49 C 0.85034 0.06305 0.41156 0.0
C50 C 0.84984 0.08048 0.41742 0.0
C51 C 0.86787 0.09734 0.42441 0.0
C52 C 0.92486 0.1382 0.42459 0.0
C53 C 0.94267 0.1567 0.4303 0.0
C54 C 0.9565 0.1708 0.42235 0.0
C55 C 0.95281 0.16656 0.40852 0.0
C56 C 0.93447 0.14834 0.40285 0.0
C57 C 0.92068 0.13424 0.41081 0.0
C58 C 0.90298 0.12836 0.44903 0.0
C59 C 0.90149 0.1194 0.46083 0.0
C60 C 0.89543 0.12638 0.47182 0.0
C61 C 0.89047 0.1423 0.47118 0.0
C62 C 0.89168 0.15107 0.45924 0.0
C63 C 0.89791 0.14414 0.44825 0.0
P64 P 0.86884 0.73549 0.421 0.0
H65 H 0.84618 0.72994 0.39542 0.0
H66 H 0.8248 0.74404 0.38702 0.0
H67 H 0.8383 0.78127 0.42453 0.0
H68 H 0.86024 0.76751 0.43271 0.0
H69 H 0.89861 0.72133 0.41776 0.0
H70 H 0.93318 0.73725 0.40997 0.0
H71 H 0.93156 0.79407 0.40609 0.0
H72 H 0.8968 0.77791 0.41386 0.0
H73 H 0.83516 0.72368 0.4377 0.0
H74 H 0.9007 0.74296 0.44279 0.0
O75 O 0.85677 0.71081 0.41395 0.0
H76 H 0.83255 0.71745 0.46085 0.0
H77 H 0.89817 0.73669 0.46596 0.0
C78 C 0.85431 0.74725 0.41479 0.0
C79 C 0.84456 0.74116 0.40183 0.0
C80 C 0.83224 0.74917 0.39706 0.0
C81 C 0.82948 0.76352 0.40516 0.0
C82 C 0.84007 0.77027 0.41801 0.0
C83 C 0.85248 0.76228 0.42275 0.0
C84 C 0.89503 0.74832 0.41623 0.0
C85 C 0.90574 0.73726 0.4153 0.0
C86 C 0.92558 0.74644 0.41092 0.0
C87 C 0.93513 0.76693 0.40735 0.0
C88 C 0.92452 0.77817 0.40859 0.0
C89 C 0.90468 0.76898 0.41308 0.0
C90 C 0.86819 0.73415 0.43854 0.0
C91 C 0.84911 0.72702 0.44387 0.0
C92 C 0.84763 0.72345 0.45711 0.0
C93 C 0.86516 0.72659 0.46526 0.0
C94 C 0.88435 0.73399 0.45992 0.0
C95 C 0.88584 0.73772 0.44667 0.0
P96 P 0.12358 0.2707 0.58898 0.0
H97 H 0.11081 0.26753 0.61535 0.0
H98 H 0.0767 0.25262 0.6238 0.0
H99 H 0.04622 0.23047 0.58397 0.0
H100 H 0.08048 0.24524 0.5756 0.0
H101 H 0.16803 0.28574 0.5902 0.0
H102 H 0.1894 0.27041 0.5962 0.0
H103 H 0.13358 0.21305 0.60201 0.0
H104 H 0.11231 0.22873 0.59618 0.0
H105 H 0.12321 0.30244 0.57384 0.0
H106 H 0.12079 0.24346 0.56575 0.0
O107 O 0.13649 0.29493 0.59681 0.0
H108 H 0.12485 0.30734 0.55051 0.0
H109 H 0.12186 0.24793 0.54223 0.0
C110 C 0.09817 0.25772 0.59486 0.0
C111 C 0.09677 0.25934 0.60845 0.0
C112 C 0.07727 0.25091 0.61326 0.0
C113 C 0.05873 0.24057 0.60455 0.0
C114 C 0.06019 0.23826 0.59094 0.0
C115 C 0.07978 0.24679 0.58613 0.0
C116 C 0.13867 0.25852 0.59299 0.0
C117 C 0.1604 0.26987 0.59278 0.0
C118 C 0.17258 0.261 0.5961 0.0
C119 C 0.16323 0.24049 0.59963 0.0
C120 C 0.14131 0.22898 0.59954 0.0
C121 C 0.12912 0.2379 0.59618 0.0
C122 C 0.12232 0.27282 0.57154 0.0
C123 C 0.12282 0.29043 0.567 0.0
C124 C 0.12358 0.29311 0.55361 0.0
C125 C 0.12365 0.2781 0.54446 0.0
C126 C 0.12225 0.25999 0.54902 0.0
C127 C 0.12152 0.25736 0.56245 0.0
P128 P 0.76752 0.87727 0.57763 0.0
H129 H 0.80018 0.91561 0.59272 0.0
H130 H 0.79963 0.94364 0.60627 0.0
H131 H 0.73202 0.90966 0.60024 0.0
H132 H 0.73276 0.88165 0.58655 0.0
H133 H 0.7877 0.8527 0.57359 0.0
H134 H 0.79113 0.82775 0.58635 0.0
H135 H 0.75446 0.8355 0.61515 0.0
H136 H 0.75066 0.86013 0.60208 0.0
H137 H 0.7481 0.89419 0.56075 0.0
H138 H 0.73972 0.83345 0.56624 0.0
O139 O 0.78908 0.88916 0.56997 0.0
H140 H 0.72162 0.87871 0.5417 0.0
H141 H 0.71312 0.81782 0.5472 0.0
C142 C 0.76656 0.8969 0.58836 0.0
C143 C 0.78524 0.91417 0.59435 0.0
C144 C 0.78488 0.93009 0.60219 0.0
C145 C 0.76577 0.92893 0.60426 0.0
C146 C 0.74699 0.91114 0.59865 0.0
C147 C 0.74739 0.89515 0.59083 0.0
C148 C 0.76937 0.8586 0.58707 0.0
C149 C 0.78046 0.84908 0.58268 0.0
C150 C 0.78247 0.83488 0.59001 0.0
C151 C 0.77335 0.82989 0.60188 0.0
C152 C 0.76165 0.83899 0.60604 0.0
C153 C 0.7596 0.85319 0.59864 0.0
C154 C 0.74566 0.86496 0.56503 0.0
C155 C 0.74018 0.87744 0.55805 0.0
C156 C 0.725 0.86854 0.54718 0.0
C157 C 0.71523 0.84702 0.54297 0.0
C158 C 0.72045 0.83447 0.55018 0.0
C159 C 0.73558 0.84338 0.56112 0.0
P160 P 0.13468 0.84089 0.59435 0.0
H161 H 0.16324 0.86335 0.61823 0.0
H162 H 0.1841 0.90046 0.62644 0.0
H163 H 0.15881 0.91554 0.59241 0.0
H164 H 0.1384 0.8784 0.58412 0.0
H165 H 0.1027 0.7974 0.59452 0.0
H166 H 0.06815 0.78046 0.6024 0.0
H167 H 0.07464 0.84106 0.61262 0.0
H168 H 0.10932 0.85786 0.60495 0.0
H169 H 0.16539 0.84224 0.57758 0.0
H170 H 0.10373 0.83459 0.57242 0.0
O171 O 0.14655 0.82884 0.60068 0.0
H172 H 0.16641 0.84045 0.55373 0.0
H173 H 0.1044 0.83233 0.54845 0.0
C174 C 0.14965 0.86821 0.60044 0.0
C175 C 0.16228 0.87467 0.61251 0.0
C176 C 0.17406 0.89589 0.61725 0.0
C177 C 0.17322 0.91101 0.61005 0.0
C178 C 0.16013 0.90436 0.59807 0.0
C179 C 0.14841 0.88312 0.59334 0.0
C180 C 0.10868 0.82885 0.59933 0.0
C181 C 0.09663 0.80701 0.59843 0.0
C182 C 0.07682 0.79736 0.60285 0.0
C183 C 0.06866 0.80941 0.60821 0.0
C184 C 0.08061 0.83134 0.60875 0.0
C185 C 0.10043 0.84097 0.60431 0.0
C186 C 0.13433 0.83809 0.57672 0.0
C187 C 0.15192 0.83983 0.57127 0.0
C188 C 0.15245 0.83874 0.55762 0.0
C189 C 0.1354 0.83605 0.54916 0.0
C190 C 0.11782 0.83449 0.5547 0.0
C191 C 0.11733 0.83559 0.56838 0.0
P192 P 0.98656 0.49971 0.74243 0.0
H193 H 0.98413 0.47451 0.71862 0.0
H194 H 0.96494 0.43683 0.71181 0.0
H195 H 0.93995 0.42614 0.74945 0.0
H196 H 0.95873 0.4638 0.75602 0.0
H197 H 1.00003 0.54081 0.73391 0.0
H198 H 0.98105 0.5562 0.72363 0.0
H199 H 0.92284 0.49817 0.72394 0.0
H200 H 0.942 0.48281 0.73399 0.0
H201 H 0.01635 0.50181 0.76322 0.0
H202 H 0.96241 0.50959 0.76042 0.0
O203 O 0.01033 0.51022 0.73732 0.0
H204 H 0.01943 0.50788 0.78726 0.0
H205 H 0.96564 0.51613 0.7844 0.0
C206 C 0.97318 0.47189 0.7379 0.0
C207 C 0.97464 0.464 0.72543 0.0
C208 C 0.96372 0.44246 0.72157 0.0
C209 C 0.95101 0.42844 0.73012 0.0
C210 C 0.94947 0.4365 0.74259 0.0
C211 C 0.96038 0.45805 0.74642 0.0
C212 C 0.97247 0.51058 0.73445 0.0
C213 C 0.98321 0.53136 0.73164 0.0
C214 C 0.97231 0.54018 0.72586 0.0
C215 C 0.95042 0.52838 0.72292 0.0
C216 C 0.93971 0.50755 0.72586 0.0
C217 C 0.95065 0.49876 0.73163 0.0
C218 C 0.98943 0.50565 0.76004 0.0
C219 C 0.00538 0.50516 0.76778 0.0
C220 C 0.00715 0.5087 0.78152 0.0
C221 C 0.99286 0.51263 0.78776 0.0
C222 C 0.97682 0.51302 0.77992 0.0
C223 C 0.97507 0.50947 0.76618 0.0
P224 P 0.57394 0.45971 0.769 0.0
H225 H 0.56972 0.42448 0.75211 0.0
H226 H 0.54042 0.39578 0.73792 0.0
H227 H 0.50149 0.42198 0.74723 0.0
H228 H 0.53092 0.45052 0.76165 0.0
H229 H 0.6168 0.49324 0.77606 0.0
H230 H 0.64312 0.51818 0.76327 0.0
H231 H 0.597 0.49556 0.72923 0.0
H232 H 0.57068 0.47094 0.74215 0.0
H233 H 0.55538 0.44201 0.79236 0.0
H234 H 0.57163 0.49814 0.77416 0.0
O235 O 0.58692 0.44918 0.77596 0.0
H236 H 0.54333 0.45447 0.81064 0.0
H237 H 0.55912 0.51066 0.79237 0.0
C238 C 0.55232 0.4393 0.75815 0.0
C239 C 0.55486 0.42402 0.75111 0.0
C240 C 0.53814 0.40773 0.74289 0.0
C241 C 0.51857 0.40653 0.74146 0.0
C242 C 0.51627 0.42228 0.74827 0.0
C243 C 0.53307 0.43861 0.7565 0.0
C244 C 0.59194 0.48005 0.76 0.0
C245 C 0.61231 0.49386 0.76589 0.0
C246 C 0.62735 0.508 0.75855 0.0
C247 C 0.62223 0.5086 0.74517 0.0
C248 C 0.60143 0.4955 0.73951 0.0
C249 C 0.58639 0.48133 0.74688 0.0
C250 C 0.56471 0.46931 0.78207 0.0
C251 C 0.55628 0.45703 0.79231 0.0
C252 C 0.5492 0.46411 0.80269 0.0
C253 C 0.55022 0.48358 0.80298 0.0
C254 C 0.55837 0.49572 0.79253 0.0
C255 C 0.56547 0.48858 0.78211 0.0
P256 P 0.53691 0.06932 0.75503 0.0
H257 H 0.51116 0.06103 0.73026 0.0
H258 H 0.49072 0.07594 0.72163 0.0
H259 H 0.51197 0.11995 0.75682 0.0
H260 H 0.53217 0.10456 0.76551 0.0
H261 H 0.5649 0.0534 0.74997 0.0
H262 H 0.59918 0.06865 0.74182 0.0
H263 H 0.60091 0.12766 0.74114 0.0
H264 H 0.56638 0.11214 0.74919 0.0
H265 H 0.50483 0.06205 0.77246 0.0
H266 H 0.56805 0.07359 0.7762 0.0
O267 O 0.52429 0.0444 0.74839 0.0
H268 H 0.5023 0.05599 0.79563 0.0
H269 H 0.56565 0.06757 0.79941 0.0
C270 C 0.52277 0.08137 0.74864 0.0
C271 C 0.5114 0.07386 0.73614 0.0
C272 C 0.49985 0.08255 0.73116 0.0
C273 C 0.4996 0.09912 0.73854 0.0
C274 C 0.51153 0.10699 0.75096 0.0
C275 C 0.52312 0.09826 0.75593 0.0
C276 C 0.56294 0.08152 0.74998 0.0
C277 C 0.57268 0.06964 0.7481 0.0
C278 C 0.59237 0.07844 0.74353 0.0
C279 C 0.60279 0.09937 0.74076 0.0
C280 C 0.59319 0.11141 0.74299 0.0
C281 C 0.57347 0.10258 0.74764 0.0
C282 C 0.53678 0.06875 0.77264 0.0
C283 C 0.51838 0.06384 0.77836 0.0
C284 C 0.51694 0.06034 0.79162 0.0
C285 C 0.53378 0.0613 0.79939 0.0
C286 C 0.55234 0.06657 0.79367 0.0
C287 C 0.5538 0.0702 0.78041 0.0
P288 P 0.78817 0.60102 0.92075 0.0
H289 H 0.76105 0.61796 0.92585 0.0
H290 H 0.72617 0.60301 0.93307 0.0
H291 H 0.72145 0.54242 0.93143 0.0
H292 H 0.75665 0.55769 0.92444 0.0
H293 H 0.81413 0.60758 0.94524 0.0
H294 H 0.83411 0.59154 0.95275 0.0
H295 H 0.80989 0.54808 0.91719 0.0
H296 H 0.79026 0.56464 0.90961 0.0
H297 H 0.75895 0.59724 0.8983 0.0
H298 H 0.82255 0.6104 0.90511 0.0
O299 O 0.80107 0.62545 0.92825 0.0
H300 H 0.76382 0.60395 0.87529 0.0
H301 H 0.82736 0.61653 0.88213 0.0
C302 C 0.7616 0.58904 0.92484 0.0
C303 C 0.75249 0.60144 0.927 0.0
C304 C 0.73244 0.59281 0.93104 0.0
C305 C 0.72099 0.5715 0.93292 0.0
C306 C 0.72995 0.55895 0.9303 0.0
C307 C 0.75005 0.56764 0.92624 0.0
C308 C 0.80106 0.58756 0.92676 0.0
C309 C 0.81305 0.59456 0.93907 0.0
C310 C 0.82437 0.58524 0.9434 0.0
C311 C 0.82376 0.56859 0.93553 0.0
C312 C 0.81103 0.56112 0.92338 0.0
C313 C 0.79972 0.57048 0.91907 0.0
C314 C 0.79029 0.60298 0.90337 0.0
C315 C 0.77382 0.60115 0.8948 0.0
C316 C 0.77662 0.60496 0.88162 0.0
C317 C 0.79602 0.61087 0.87686 0.0
C318 C 0.81232 0.61231 0.88549 0.0
C319 C 0.80951 0.60857 0.89861 0.0
P320 P 0.43058 0.20401 0.91426 0.0
H321 H 0.45439 0.23173 0.93789 0.0
H322 H 0.45315 0.26043 0.95014 0.0
H323 H 0.39934 0.24801 0.92388 0.0
H324 H 0.40082 0.21945 0.91158 0.0
H325 H 0.43516 0.16812 0.90784 0.0
H326 H 0.43312 0.14055 0.92049 0.0
H327 H 0.41401 0.16476 0.95314 0.0
H328 H 0.41612 0.19237 0.9404 0.0
H329 H 0.43794 0.21342 0.88721 0.0
H330 H 0.38594 0.17346 0.90794 0.0
O331 O 0.45532 0.21531 0.91076 0.0
H332 H 0.41536 0.19974 0.86638 0.0
H333 H 0.36309 0.15963 0.887 0.0
C334 C 0.4278 0.22355 0.92382 0.0
C335 C 0.44219 0.23506 0.93487 0.0
C336 C 0.44136 0.25135 0.94191 0.0
C337 C 0.42614 0.25649 0.93797 0.0
C338 C 0.41136 0.24453 0.92708 0.0
C339 C 0.41216 0.22814 0.92006 0.0
C340 C 0.42613 0.18244 0.92325 0.0
C341 C 0.43026 0.16731 0.91766 0.0
C342 C 0.42893 0.15148 0.92487 0.0
C343 C 0.42347 0.15054 0.93784 0.0
C344 C 0.41849 0.16526 0.94322 0.0
C345 C 0.41971 0.18105 0.93595 0.0
C346 C 0.41364 0.1942 0.89905 0.0
C347 C 0.42167 0.20162 0.88726 0.0
C348 C 0.40876 0.19373 0.87536 0.0
C349 C 0.38753 0.17844 0.87506 0.0
C350 C 0.3794 0.1714 0.88695 0.0
C351 C 0.39241 0.1792 0.89888 0.0
P352 P 0.79772 0.16859 0.92588 0.0
H353 H 0.82451 0.19027 0.95052 0.0
H354 H 0.84506 0.22722 0.95922 0.0
H355 H 0.82216 0.24344 0.92467 0.0
H356 H 0.80202 0.20647 0.91593 0.0
H357 H 0.7688 0.12602 0.93109 0.0
H358 H 0.73429 0.10963 0.93901 0.0
H359 H 0.73429 0.16785 0.93872 0.0
H360 H 0.76895 0.1842 0.93094 0.0
H361 H 0.83184 0.1869 0.90971 0.0
H362 H 0.76497 0.1456 0.9034 0.0
O363 O 0.80978 0.15667 0.93213 0.0
H364 H 0.83374 0.18434 0.88599 0.0
H365 H 0.76678 0.14244 0.87959 0.0
C366 C 0.81214 0.19573 0.93247 0.0
C367 C 0.82399 0.2018 0.94481 0.0
C368 C 0.83559 0.22292 0.94982 0.0
C369 C 0.83538 0.23831 0.94259 0.0
C370 C 0.823 0.23203 0.93036 0.0
C371 C 0.81143 0.21091 0.92537 0.0
C372 C 0.77161 0.15642 0.93071 0.0
C373 C 0.76135 0.13524 0.93271 0.0
C374 C 0.74154 0.12586 0.93714 0.0
C375 C 0.73159 0.13749 0.93959 0.0
C376 C 0.74169 0.15857 0.93715 0.0
C377 C 0.76149 0.16792 0.93266 0.0
C378 C 0.79828 0.16659 0.9083 0.0
C379 C 0.81755 0.17725 0.90319 0.0
C380 C 0.81862 0.17563 0.88962 0.0
C381 C 0.80042 0.16309 0.88086 0.0
C382 C 0.78106 0.15242 0.88604 0.0
C383 C 0.78001 0.15413 0.89966 0.0
P384 P 0.65221 0.82951 0.07395 0.0
H385 H 0.656 0.80674 0.05086 0.0
H386 H 0.63792 0.7696 0.04251 0.0
H387 H 0.60073 0.75521 0.07535 0.0
H388 H 0.61925 0.79225 0.08377 0.0
H389 H 0.66567 0.87031 0.06477 0.0
H390 H 0.64647 0.88589 0.05504 0.0
H391 H 0.58807 0.82949 0.0583 0.0
H392 H 0.60739 0.81394 0.06783 0.0
H393 H 0.67279 0.81767 0.09373 0.0
H394 H 0.63584 0.84779 0.09316 0.0
O395 O 0.67636 0.84123 0.06939 0.0
H396 H 0.67497 0.82032 0.11778 0.0
H397 H 0.63834 0.85094 0.11721 0.0
C398 C 0.63926 0.80214 0.06806 0.0
C399 C 0.6441 0.79553 0.05631 0.0
C400 C 0.63361 0.77432 0.05149 0.0
C401 C 0.61793 0.7594 0.0583 0.0
C402 C 0.613 0.76621 0.07001 0.0
C403 C 0.62354 0.7874 0.07483 0.0
C404 C 0.63797 0.84082 0.06675 0.0
C405 C 0.64874 0.86126 0.0633 0.0
C406 C 0.63773 0.87019 0.05784 0.0
C407 C 0.61573 0.85887 0.05583 0.0
C408 C 0.60501 0.83847 0.05949 0.0
C409 C 0.61604 0.82957 0.06497 0.0
C410 C 0.65425 0.83258 0.09168 0.0
C411 C 0.66532 0.82503 0.09881 0.0
C412 C 0.66662 0.82665 0.11256 0.0
C413 C 0.65688 0.83591 0.11944 0.0
C414 C 0.64582 0.84352 0.11222 0.0
C415 C 0.6445 0.84185 0.09844 0.0
P416 P 0.23601 0.78872 0.09949 0.0
H417 H 0.23243 0.75325 0.08317 0.0
H418 H 0.20359 0.72428 0.06886 0.0
H419 H 0.1638 0.74977 0.07736 0.0
H420 H 0.19277 0.7786 0.09191 0.0
H421 H 0.27766 0.82468 0.10647 0.0
H422 H 0.30328 0.84969 0.09339 0.0
H423 H 0.25754 0.823 0.05903 0.0
H424 H 0.23213 0.79789 0.07213 0.0
H425 H 0.21672 0.76974 0.12237 0.0
H426 H 0.23408 0.82723 0.10561 0.0
O427 O 0.25002 0.77913 0.1063 0.0
H428 H 0.20495 0.78159 0.14109 0.0
H429 H 0.2219 0.83916 0.12426 0.0
C430 C 0.21455 0.76774 0.08882 0.0
C431 C 0.21747 0.75255 0.08199 0.0
C432 C 0.20101 0.73611 0.07369 0.0
C433 C 0.18134 0.73466 0.07197 0.0
C434 C 0.17865 0.75026 0.07862 0.0
C435 C 0.19518 0.76674 0.08693 0.0
C436 C 0.25312 0.80928 0.09025 0.0
C437 C 0.27307 0.82445 0.09617 0.0
C438 C 0.28766 0.8388 0.08868 0.0
C439 C 0.28252 0.83821 0.07512 0.0
C440 C 0.2621 0.82363 0.06939 0.0
C441 C 0.24751 0.8093 0.07691 0.0
C442 C 0.22654 0.79772 0.11274 0.0
C443 C 0.21788 0.7849 0.12271 0.0
C444 C 0.21098 0.79165 0.13336 0.0
C445 C 0.21246 0.81136 0.1342 0.0
C446 C 0.22079 0.82403 0.124 0.0
C447 C 0.2277 0.81721 0.11331 0.0
P448 P 0.20294 0.40176 0.08796 0.0
H449 H 0.1861 0.40103 0.0614 0.0
H450 H 0.16544 0.41561 0.05242 0.0
H451 H 0.16937 0.44488 0.09131 0.0
H452 H 0.19007 0.4302 0.10022 0.0
H453 H 0.23306 0.38773 0.08622 0.0
H454 H 0.26798 0.40341 0.07893 0.0
H455 H 0.26669 0.46015 0.07393 0.0
H456 H 0.23157 0.44419 0.08111 0.0
H457 H 0.16699 0.38466 0.10281 0.0
H458 H 0.23381 0.4126 0.11119 0.0
O459 O 0.1911 0.37746 0.08029 0.0
H460 H 0.16269 0.37783 0.12577 0.0
H461 H 0.22961 0.40521 0.1341 0.0
C462 C 0.18918 0.41413 0.0815 0.0
C463 C 0.18258 0.41066 0.06798 0.0
C464 C 0.17088 0.41912 0.06285 0.0
C465 C 0.1656 0.43127 0.07117 0.0
C466 C 0.17288 0.4353 0.08468 0.0
C467 C 0.18473 0.42693 0.08979 0.0
C468 C 0.22962 0.41467 0.08403 0.0
C469 C 0.24037 0.40361 0.08365 0.0
C470 C 0.2604 0.41266 0.07955 0.0
C471 C 0.27012 0.43302 0.07576 0.0
C472 C 0.25953 0.44433 0.07659 0.0
C473 C 0.23948 0.43526 0.08075 0.0
C474 C 0.2007 0.39926 0.1053 0.0
C475 C 0.18077 0.38949 0.10964 0.0
C476 C 0.17832 0.3854 0.12275 0.0
C477 C 0.19578 0.39079 0.1318 0.0
C478 C 0.21584 0.40103 0.12746 0.0
C479 C 0.21826 0.40519 0.11431 0.0
P480 P 0.45556 0.93715 0.25467 0.0
H481 H 0.4428 0.94248 0.28022 0.0
H482 H 0.40886 0.92785 0.28882 0.0
H483 H 0.37889 0.89011 0.25148 0.0
H484 H 0.41312 0.90462 0.24303 0.0
H485 H 0.50029 0.95476 0.26117 0.0
H486 H 0.52162 0.93982 0.26809 0.0
H487 H 0.46579 0.87917 0.2666 0.0
H488 H 0.44445 0.89442 0.2598 0.0
H489 H 0.43318 0.94959 0.23638 0.0
H490 H 0.47481 0.92492 0.23405 0.0
O491 O 0.46825 0.96227 0.2609 0.0
H492 H 0.4345 0.95409 0.2129 0.0
H493 H 0.4767 0.9299 0.2108 0.0
C494 C 0.4304 0.92499 0.26091 0.0
C495 C 0.42892 0.93104 0.27389 0.0
C496 C 0.40949 0.92272 0.27877 0.0
C497 C 0.39109 0.90804 0.27078 0.0
C498 C 0.39274 0.90137 0.2579 0.0
C499 C 0.41227 0.90975 0.25302 0.0
C500 C 0.47078 0.92579 0.26025 0.0
C501 C 0.49261 0.93829 0.26245 0.0
C502 C 0.50481 0.92966 0.26627 0.0
C503 C 0.49542 0.90829 0.26789 0.0
C504 C 0.47348 0.89574 0.2656 0.0
C505 C 0.46126 0.90442 0.26171 0.0
C506 C 0.45373 0.93678 0.23697 0.0
C507 C 0.44233 0.94483 0.23077 0.0
C508 C 0.44328 0.94759 0.21738 0.0
C509 C 0.45584 0.9425 0.20995 0.0
C510 C 0.46666 0.93375 0.21613 0.0
C511 C 0.46565 0.93096 0.22951 0.0
P512 P 0.10199 0.54555 0.25165 0.0
H513 H 0.13154 0.57848 0.2717 0.0
H514 H 0.12988 0.60557 0.28555 0.0
H515 H 0.06578 0.58097 0.26919 0.0
H516 H 0.06772 0.55401 0.25517 0.0
H517 H 0.10508 0.50905 0.24384 0.0
H518 H 0.10318 0.48091 0.25584 0.0
H519 H 0.08536 0.50443 0.28952 0.0
H520 H 0.08761 0.53271 0.27752 0.0
H521 H 0.10694 0.56624 0.22803 0.0
H522 H 0.05989 0.51018 0.24232 0.0
O523 O 0.12657 0.55635 0.24788 0.0
H524 H 0.08498 0.55733 0.2072 0.0
H525 H 0.03748 0.50125 0.2215 0.0
C526 C 0.09997 0.56467 0.26219 0.0
C527 C 0.11714 0.57893 0.2711 0.0
C528 C 0.11607 0.59425 0.27912 0.0
C529 C 0.0977 0.59546 0.27843 0.0
C530 C 0.08023 0.58061 0.2698 0.0
C531 C 0.08133 0.56523 0.26178 0.0
C532 C 0.09675 0.52306 0.25983 0.0
C533 C 0.10043 0.50792 0.25373 0.0
C534 C 0.09919 0.49177 0.26058 0.0
C535 C 0.09426 0.49054 0.27368 0.0
C536 C 0.0895 0.50516 0.27952 0.0
C537 C 0.09072 0.52131 0.27263 0.0
C538 C 0.08521 0.53863 0.23654 0.0
C539 C 0.09183 0.55199 0.22666 0.0
C540 C 0.07914 0.54698 0.21481 0.0
C541 C 0.05945 0.52857 0.21269 0.0
C542 C 0.05267 0.5154 0.22278 0.0
C543 C 0.06544 0.52047 0.23467 0.0
P544 P 0.46613 0.50386 0.25916 0.0
H545 H 0.50621 0.5271 0.27583 0.0
H546 H 0.52732 0.56367 0.28519 0.0
H547 H 0.47971 0.57569 0.26884 0.0
H548 H 0.45863 0.53904 0.25957 0.0
H549 H 0.4491 0.4736 0.27827 0.0
H550 H 0.41513 0.45615 0.28689 0.0
H551 H 0.39361 0.48808 0.26215 0.0
H552 H 0.42759 0.50524 0.25332 0.0
H553 H 0.49184 0.53442 0.2418 0.0
H554 H 0.4371 0.47278 0.23768 0.0
O555 O 0.47887 0.49127 0.26279 0.0
H556 H 0.49143 0.53316 0.21792 0.0
H557 H 0.43651 0.47145 0.21363 0.0
C558 C 0.48076 0.5303 0.26709 0.0
C559 C 0.50019 0.53752 0.27437 0.0
C560 C 0.51232 0.55848 0.27964 0.0
C561 C 0.50521 0.57259 0.27772 0.0
C562 C 0.48551 0.56516 0.27064 0.0
C563 C 0.47343 0.5442 0.26533 0.0
C564 C 0.4408 0.4906 0.26509 0.0
C565 C 0.43704 0.47672 0.27459 0.0
C566 C 0.41761 0.46673 0.2795 0.0
C567 C 0.40173 0.47073 0.27516 0.0
C568 C 0.40562 0.48482 0.26572 0.0
C569 C 0.425 0.4946 0.26067 0.0
C570 C 0.46416 0.5039 0.24153 0.0
C571 C 0.47941 0.52079 0.23576 0.0
C572 C 0.47916 0.52006 0.22207 0.0
C573 C 0.46385 0.50226 0.21387 0.0
C574 C 0.44854 0.48536 0.21969 0.0
C575 C 0.44875 0.48616 0.23341 0.0
Tb576 Tb 0.49261 0.98058 0.98822 0.0
Eu577 Eu 0.50886 0.00715 0.01799 0.0
C578 C 0.51533 0.96843 0.00951 0.0
C579 C 0.46486 0.96527 0.01178 0.0
C580 C 0.48625 0.97158 0.95195 0.0
C581 C 0.48633 0.96598 0.92826 0.0
C582 C 0.48168 0.95805 0.94043 0.0
C583 C 0.49564 0.99318 0.95118 0.0
C584 C 0.50016 0.00111 0.93903 0.0
C585 C 0.49556 0.98761 0.92741 0.0
C586 C 0.48145 0.96322 0.96474 0.0
O587 O 0.49349 0.01001 0.98672 0.0
O588 O 0.48674 0.01536 0.00764 0.0
O589 O 0.53156 0.02831 0.00474 0.0
O590 O 0.52603 0.00232 0.98867 0.0
C591 C 0.48633 0.01831 0.99516 0.0
O592 O 0.50332 0.02306 0.03462 0.0
O593 O 0.53133 0.02085 0.03571 0.0
O594 O 0.52385 0.9874 0.01567 0.0
O595 O 0.49949 0.96119 1.00027 0.0
O596 O 0.46523 0.96803 0.9992 0.0
O597 O 0.48173 0.97562 0.0202 0.0
C598 C 0.53732 0.02162 0.99446 0.0
O599 O 0.49716 0.96464 0.97212 0.0
O600 O 0.47042 0.96888 0.97153 0.0
C601 C 0.51526 0.01853 0.05522 0.0
C602 C 0.50548 0.00484 0.0803 0.0
C603 C 0.51933 0.02608 0.07905 0.0
C604 C 0.52414 0.03285 0.06661 0.0
C605 C 0.50169 0.99731 0.05639 0.0
C606 C 0.49682 0.99052 0.06881 0.0
C607 C 0.51953 0.02586 0.04215 0.0
H608 H 0.48242 0.95516 0.91949 0.0
H609 H 0.47449 0.94134 0.94084 0.0
H610 H 0.49949 0.00392 0.96 0.0
H611 H 0.50752 0.01786 0.93875 0.0
H612 H 0.52653 0.03749 0.08769 0.0
H613 H 0.53467 0.0493 0.06588 0.0
H614 H 0.49464 0.98604 0.04768 0.0
H615 H 0.48591 0.97412 0.06936 0.0
Tb616 Tb 0.00409 0.49898 0.98771 0.0
Eu617 Eu 0.97961 0.49165 0.01442 0.0
C618 C 0.01876 0.53512 0.01049 0.0
C619 C 0.02024 0.48636 0.013 0.0
C620 C 0.02083 0.51126 0.95405 0.0
C621 C 0.03274 0.51729 0.93236 0.0
C622 C 0.03477 0.51232 0.94509 0.0
C623 C 0.00522 0.51592 0.95032 0.0
C624 C 0.00313 0.52085 0.93756 0.0
C625 C 0.01666 0.52124 0.92836 0.0
C626 C 0.02174 0.50359 0.96678 0.0
O627 O 0.9865 0.46561 0.98962 0.0
O628 O 0.95921 0.46519 0.99882 0.0
O629 O 0.96766 0.50765 0.00157 0.0
O630 O 0.97584 0.49972 0.98146 0.0
C631 C 0.96676 0.45566 0.99176 0.0
O632 O 0.96176 0.47095 0.02874 0.0
O633 O 0.96774 0.50282 0.03005 0.0
O634 O 0.01058 0.52126 0.01885 0.0
O635 O 0.01344 0.52977 0.99771 0.0
O636 O 0.0249 0.49648 0.00249 0.0
O637 O 0.00244 0.48037 0.018 0.0
C638 C 0.96555 0.50614 0.98864 0.0
O639 O 0.02939 0.51736 0.97716 0.0
O640 O 0.0049 0.48662 0.96888 0.0
C641 C 0.96659 0.48816 0.04994 0.0
C642 C 0.97785 0.49269 0.07724 0.0
C643 C 0.9575 0.47771 0.07167 0.0
C644 C 0.9519 0.47552 0.05811 0.0
C645 C 0.987 0.50295 0.05543 0.0
C646 C 0.99256 0.50527 0.06899 0.0
C647 C 0.96054 0.48562 0.03571 0.0
H648 H 0.04324 0.51716 0.92548 0.0
H649 H 0.04682 0.50863 0.9478 0.0
H650 H 0.99433 0.51518 0.95716 0.0
H651 H 0.99073 0.52404 0.93482 0.0
H652 H 0.94584 0.4679 0.07782 0.0
H653 H 0.9361 0.46398 0.054 0.0
H654 H 0.99864 0.51268 0.04923 0.0
H655 H 0.00843 0.51672 0.07299 0.0
Tb656 Tb 0.50446 0.4974 0.01695 0.0
Eu657 Eu 0.48347 0.50224 0.98899 0.0
C658 C 0.47823 0.45935 0.99597 0.0
C659 C 0.52942 0.50767 0.99183 0.0
C660 C 0.51416 0.49498 0.05246 0.0
C661 C 0.51774 0.48953 0.07538 0.0
C662 C 0.52275 0.48865 0.06247 0.0
C663 C 0.50056 0.50231 0.05545 0.0
C664 C 0.49559 0.50327 0.06836 0.0
C665 C 0.50405 0.49678 0.07846 0.0
C666 C 0.5188 0.49316 0.03884 0.0
O667 O 0.50485 0.52686 0.01955 0.0
O668 O 0.50843 0.5342 0.99825 0.0
O669 O 0.46247 0.50206 0.00403 0.0
O670 O 0.47188 0.48666 0.01982 0.0
C671 C 0.51101 0.54042 0.01087 0.0
O672 O 0.47701 0.52081 0.97577 0.0
O673 O 0.46598 0.48821 0.96965 0.0
O674 O 0.46767 0.46828 0.99224 0.0
O675 O 0.49638 0.47029 0.00314 0.0
O676 O 0.53029 0.51058 0.00476 0.0
O677 O 0.51193 0.50078 0.98412 0.0
C678 C 0.45922 0.4927 0.01483 0.0
O679 O 0.50368 0.47774 0.031 0.0
O680 O 0.52738 0.51044 0.03329 0.0
C681 C 0.4774 0.51101 0.95339 0.0
C682 C 0.49272 0.51667 0.92855 0.0
C683 C 0.47257 0.51335 0.93 0.0
C684 C 0.46494 0.51045 0.94233 0.0
C685 C 0.49778 0.51507 0.95209 0.0
C686 C 0.50536 0.51783 0.93977 0.0
C687 C 0.46867 0.50581 0.96603 0.0
H688 H 0.5247 0.48466 0.08296 0.0
H689 H 0.53324 0.4829 0.0603 0.0
H690 H 0.49364 0.5071 0.04778 0.0
H691 H 0.4848 0.50869 0.07037 0.0
H692 H 0.46241 0.51219 0.92151 0.0
H693 H 0.44913 0.50722 0.94317 0.0
H694 H 0.50763 0.51561 0.96055 0.0
H695 H 0.52104 0.52062 0.939 0.0
Tb696 Tb 0.16119 0.31716 0.32266 0.0
Eu697 Eu 0.17673 0.3434 0.35257 0.0
C698 C 0.18144 0.30396 0.34529 0.0
C699 C 0.13141 0.30265 0.34487 0.0
C700 C 0.15341 0.30712 0.28627 0.0
C701 C 0.15256 0.301 0.26255 0.0
C702 C 0.1492 0.29348 0.27488 0.0
C703 C 0.16089 0.3284 0.28521 0.0
C704 C 0.16424 0.33595 0.27288 0.0
C705 C 0.16023 0.32236 0.26139 0.0
C706 C 0.15101 0.29929 0.29927 0.0
O707 O 0.14778 0.33741 0.32385 0.0
O708 O 0.17123 0.36371 0.33958 0.0
O709 O 0.20519 0.35565 0.34153 0.0
O710 O 0.18842 0.34715 0.32052 0.0
C711 C 0.15627 0.35656 0.32978 0.0
O712 O 0.17205 0.36042 0.36905 0.0
O713 O 0.19842 0.35534 0.37056 0.0
O714 O 0.17537 0.31278 0.35414 0.0
O715 O 0.18093 0.30732 0.33286 0.0
O716 O 0.13862 0.29643 0.33516 0.0
O717 O 0.14197 0.32178 0.35088 0.0
C718 C 0.20548 0.35747 0.32883 0.0
O719 O 0.16842 0.30429 0.30629 0.0
O720 O 0.13832 0.30197 0.30634 0.0
C721 C 0.182 0.35423 0.38981 0.0
C722 C 0.17093 0.3402 0.41466 0.0
C723 C 0.17769 0.3611 0.41264 0.0
C724 C 0.18321 0.36805 0.40032 0.0
C725 C 0.17516 0.33332 0.39174 0.0
C726 C 0.16978 0.32639 0.40407 0.0
C727 C 0.1873 0.36157 0.37681 0.0
H728 H 0.14959 0.29015 0.25396 0.0
H729 H 0.14361 0.27705 0.27554 0.0
H730 H 0.16431 0.33919 0.29393 0.0
H731 H 0.16991 0.35242 0.27235 0.0
H732 H 0.17893 0.37216 0.42062 0.0
H733 H 0.18837 0.38421 0.399 0.0
H734 H 0.17388 0.32232 0.38369 0.0
H735 H 0.16438 0.31015 0.40526 0.0
Tb736 Tb 0.67177 0.83469 0.32212 0.0
Eu737 Eu 0.6461 0.82758 0.34825 0.0
C738 C 0.68466 0.87104 0.34407 0.0
C739 C 0.68661 0.82242 0.34824 0.0
C740 C 0.68659 0.83992 0.28767 0.0
C741 C 0.69883 0.85209 0.26678 0.0
C742 C 0.70275 0.85257 0.28036 0.0
C743 C 0.66631 0.82686 0.28127 0.0
C744 C 0.66238 0.82629 0.26764 0.0
C745 C 0.67863 0.83885 0.26022 0.0
C746 C 0.69124 0.84085 0.30195 0.0
O747 O 0.64271 0.80495 0.31763 0.0
O748 O 0.63885 0.79621 0.33868 0.0
O749 O 0.62526 0.82829 0.33171 0.0
O750 O 0.65015 0.84604 0.3179 0.0
C751 C 0.635 0.7908 0.3259 0.0
O752 O 0.62042 0.80777 0.35941 0.0
O753 O 0.64162 0.84025 0.36678 0.0
O754 O 0.66507 0.86205 0.34646 0.0
O755 O 0.69141 0.86048 0.3372 0.0
O756 O 0.68456 0.82083 0.33525 0.0
O757 O 0.67565 0.82803 0.35535 0.0
C758 C 0.63134 0.83915 0.32163 0.0
O759 O 0.69045 0.8555 0.30922 0.0
O760 O 0.68245 0.82312 0.307 0.0
C761 C 0.6275 0.81665 0.38248 0.0
C762 C 0.63156 0.80984 0.40899 0.0
C763 C 0.61315 0.8087 0.40341 0.0
C764 C 0.61118 0.81213 0.39026 0.0
C765 C 0.64554 0.81693 0.3878 0.0
C766 C 0.64757 0.81357 0.40096 0.0
C767 C 0.62612 0.82239 0.36917 0.0
H768 H 0.71161 0.86229 0.26144 0.0
H769 H 0.71844 0.86289 0.28518 0.0
H770 H 0.65359 0.81707 0.28679 0.0
H771 H 0.64669 0.81578 0.2629 0.0
H772 H 0.60041 0.80554 0.40927 0.0
H773 H 0.59712 0.81178 0.38627 0.0
H774 H 0.65831 0.82041 0.38189 0.0
H775 H 0.66204 0.8148 0.40497 0.0
Tb776 Tb 0.17212 0.83765 0.35103 0.0
Eu777 Eu 0.15108 0.84064 0.32241 0.0
C778 C 0.14601 0.79835 0.33091 0.0
C779 C 0.19695 0.84607 0.32587 0.0
C780 C 0.18236 0.83718 0.3869 0.0
C781 C 0.18816 0.83449 0.41011 0.0
C782 C 0.19294 0.83339 0.39718 0.0
C783 C 0.16702 0.84226 0.38966 0.0
C784 C 0.16221 0.84337 0.4026 0.0
C785 C 0.17267 0.83941 0.41298 0.0
C786 C 0.18686 0.83502 0.37329 0.0
O787 O 0.17176 0.86675 0.35272 0.0
O788 O 0.17559 0.87308 0.33127 0.0
O789 O 0.12983 0.84095 0.33713 0.0
O790 O 0.13939 0.8266 0.35357 0.0
C791 C 0.17789 0.87985 0.34378 0.0
O792 O 0.14567 0.85865 0.30817 0.0
O793 O 0.13265 0.82538 0.30345 0.0
O794 O 0.1356 0.80697 0.32629 0.0
O795 O 0.16405 0.80969 0.33813 0.0
O796 O 0.19786 0.85007 0.33872 0.0
O797 O 0.17943 0.83861 0.31809 0.0
C798 C 0.12654 0.83208 0.34813 0.0
O799 O 0.17193 0.81909 0.36566 0.0
O800 O 0.1949 0.852 0.36742 0.0
C801 C 0.14435 0.84604 0.28611 0.0
C802 C 0.15836 0.84847 0.2609 0.0
C803 C 0.13898 0.84702 0.26255 0.0
C804 C 0.13201 0.84573 0.27506 0.0
C805 C 0.16396 0.84815 0.28458 0.0
C806 C 0.17089 0.84931 0.27209 0.0
C807 C 0.13623 0.84279 0.29902 0.0
H808 H 0.19628 0.83104 0.41782 0.0
H809 H 0.20472 0.8293 0.39517 0.0
H810 H 0.15867 0.8452 0.3818 0.0
H811 H 0.15038 0.84742 0.40449 0.0
H812 H 0.12891 0.84616 0.25412 0.0
H813 H 0.11678 0.84402 0.27607 0.0
H814 H 0.17371 0.84848 0.29302 0.0
H815 H 0.18599 0.85069 0.27117 0.0
Tb816 Tb 0.82791 0.6505 0.65518 0.0
Eu817 Eu 0.84425 0.6774 0.68489 0.0
C818 C 0.85053 0.63846 0.67667 0.0
C819 C 0.80013 0.63576 0.67873 0.0
C820 C 0.82117 0.64062 0.61891 0.0
C821 C 0.82169 0.63447 0.59533 0.0
C822 C 0.81727 0.6269 0.60761 0.0
C823 C 0.82971 0.66205 0.61782 0.0
C824 C 0.83399 0.66961 0.60555 0.0
C825 C 0.83001 0.6559 0.59415 0.0
C826 C 0.81657 0.63263 0.63182 0.0
O827 O 0.8291 0.68 0.65333 0.0
O828 O 0.82307 0.68655 0.67426 0.0
O829 O 0.86715 0.69831 0.67167 0.0
O830 O 0.86131 0.67233 0.65547 0.0
C831 C 0.82264 0.68911 0.66171 0.0
O832 O 0.83791 0.69223 0.70171 0.0
O833 O 0.86706 0.69213 0.70238 0.0
O834 O 0.85903 0.65744 0.68283 0.0
O835 O 0.83477 0.63125 0.66737 0.0
O836 O 0.80051 0.63843 0.66613 0.0
O837 O 0.81707 0.64595 0.68709 0.0
C838 C 0.87273 0.69159 0.66132 0.0
O839 O 0.83239 0.63427 0.63921 0.0
O840 O 0.80558 0.63841 0.63856 0.0
C841 C 0.85113 0.68839 0.72208 0.0
C842 C 0.84216 0.67375 0.74699 0.0
C843 C 0.85304 0.69536 0.74582 0.0
C844 C 0.85744 0.70259 0.73346 0.0
C845 C 0.84052 0.66684 0.72318 0.0
C846 C 0.83607 0.65958 0.73552 0.0
C847 C 0.85468 0.696 0.70905 0.0
H848 H 0.8183 0.62349 0.58672 0.0
H849 H 0.81075 0.61032 0.60828 0.0
H850 H 0.83307 0.67295 0.62647 0.0
H851 H 0.84065 0.68623 0.60501 0.0
H852 H 0.85772 0.70669 0.75442 0.0
H853 H 0.86551 0.71927 0.73277 0.0
H854 H 0.8355 0.65564 0.71447 0.0
H855 H 0.82792 0.64287 0.73607 0.0
Tb856 Tb 0.34304 0.17177 0.65477 0.0
Eu857 Eu 0.31836 0.16551 0.68133 0.0
C858 C 0.35704 0.20871 0.67655 0.0
C859 C 0.35827 0.15946 0.68076 0.0
C860 C 0.35602 0.17495 0.62005 0.0
C861 C 0.36608 0.17658 0.59785 0.0
C862 C 0.37099 0.17801 0.61142 0.0
C863 C 0.336 0.1704 0.61501 0.0
C864 C 0.33106 0.16899 0.60141 0.0
C865 C 0.34606 0.17205 0.59268 0.0
C866 C 0.36161 0.17673 0.63426 0.0
O867 O 0.31346 0.14252 0.65063 0.0
O868 O 0.31032 0.13389 0.6717 0.0
O869 O 0.2974 0.16685 0.66514 0.0
O870 O 0.32165 0.18341 0.65068 0.0
C871 C 0.3059 0.12843 0.65893 0.0
O872 O 0.29279 0.14606 0.69269 0.0
O873 O 0.31478 0.17836 0.70009 0.0
O874 O 0.33773 0.19992 0.67951 0.0
O875 O 0.36334 0.19796 0.66943 0.0
O876 O 0.35587 0.15781 0.66777 0.0
O877 O 0.34774 0.16539 0.68805 0.0
C878 C 0.30317 0.17717 0.65481 0.0
O879 O 0.36121 0.19176 0.64137 0.0
O880 O 0.35294 0.15931 0.63964 0.0
C881 C 0.30094 0.15449 0.71577 0.0
C882 C 0.30467 0.14583 0.74189 0.0
C883 C 0.28525 0.14166 0.73576 0.0
C884 C 0.28344 0.14602 0.72282 0.0
C885 C 0.32015 0.15792 0.72162 0.0
C886 C 0.32203 0.15372 0.73458 0.0
C887 C 0.29922 0.1606 0.70259 0.0
H888 H 0.37809 0.17935 0.59143 0.0
H889 H 0.38655 0.18161 0.61519 0.0
H890 H 0.32425 0.16797 0.62158 0.0
H891 H 0.31545 0.16529 0.59773 0.0
H892 H 0.2715 0.13526 0.74101 0.0
H893 H 0.26846 0.14316 0.7184 0.0
H894 H 0.33384 0.16438 0.71629 0.0
H895 H 0.33729 0.1574 0.73901 0.0
Tb896 Tb 0.83757 0.16675 0.68294 0.0
Eu897 Eu 0.81921 0.17578 0.65543 0.0
C898 C 0.81372 0.13119 0.65974 0.0
C899 C 0.86376 0.17887 0.65847 0.0
C900 C 0.84587 0.16066 0.7181 0.0
C901 C 0.84714 0.15113 0.74023 0.0
C902 C 0.8519 0.1509 0.72722 0.0
C903 C 0.83499 0.1707 0.72209 0.0
C904 C 0.83029 0.17102 0.73512 0.0
C905 C 0.83627 0.1612 0.74435 0.0
C906 C 0.85033 0.15963 0.70437 0.0
O907 O 0.83792 0.19589 0.68769 0.0
O908 O 0.84181 0.20671 0.66713 0.0
O909 O 0.7979 0.17499 0.67041 0.0
O910 O 0.80448 0.15548 0.68445 0.0
C911 C 0.84375 0.21083 0.67998 0.0
O912 O 0.82332 0.19691 0.64058 0.0
O913 O 0.79572 0.16616 0.63846 0.0
O914 O 0.80428 0.14092 0.65537 0.0
O915 O 0.83042 0.14079 0.66836 0.0
O916 O 0.86411 0.18146 0.67137 0.0
O917 O 0.84654 0.17235 0.65058 0.0
C918 C 0.79299 0.1633 0.68019 0.0
O919 O 0.8348 0.14533 0.69619 0.0
O920 O 0.86 0.17742 0.69945 0.0
C921 C 0.81099 0.17959 0.61921 0.0
C922 C 0.82196 0.17597 0.59362 0.0
C923 C 0.81211 0.18759 0.59653 0.0
C924 C 0.80672 0.18941 0.60924 0.0
C925 C 0.82046 0.16769 0.61633 0.0
C926 C 0.82584 0.16585 0.60365 0.0
C927 C 0.80697 0.18293 0.6328 0.0
H928 H 0.85166 0.1431 0.74699 0.0
H929 H 0.86012 0.1429 0.72425 0.0
H930 H 0.8301 0.17822 0.71512 0.0
H931 H 0.82211 0.1791 0.73798 0.0
H932 H 0.80911 0.19577 0.58909 0.0
H933 H 0.7996 0.19882 0.61135 0.0
H934 H 0.82397 0.16008 0.62394 0.0
H935 H 0.8331 0.15653 0.60171 0.0
H936 H 0.28938 0.82722 0.05064 0.0
H937 H 0.31821 0.84825 0.03795 0.0
H938 H 0.34197 0.90028 0.06831 0.0
H939 H 0.31285 0.87953 0.08096 0.0
H940 H 0.34273 0.91102 0.04159 0.0
H941 H 0.37858 0.86182 0.04999 0.0
H942 H 0.35169 0.84799 0.04296 0.0
H943 H 0.35848 0.86106 0.05945 0.0
C944 C 0.30048 0.84327 0.05451 0.0
C945 C 0.29886 0.85167 0.06686 0.0
C946 C 0.31706 0.85519 0.0473 0.0
C947 C 0.33236 0.87568 0.05229 0.0
C948 C 0.33036 0.88443 0.06433 0.0
H949 H 0.45911 0.95348 0.03662 0.0
H950 H 0.42618 0.93131 0.04542 0.0
C951 C 0.3138 0.87252 0.07157 0.0
C952 C 0.35099 0.88769 0.04529 0.0
H953 H 0.39533 0.88899 0.03661 0.0
C954 C 0.3542 0.90618 0.04042 0.0
C955 C 0.36598 0.88139 0.04393 0.0
C956 C 0.3637 0.86208 0.04943 0.0
C957 C 0.37209 0.91861 0.03422 0.0
C958 C 0.38701 0.91223 0.03279 0.0
C959 C 0.38374 0.8937 0.03762 0.0
C960 C 0.40683 0.92527 0.02712 0.0
C961 C 0.37525 0.93877 0.0296 0.0
C962 C 0.40688 0.92895 0.01383 0.0
C963 C 0.42575 0.94163 0.00872 0.0
C964 C 0.44487 0.95084 0.01684 0.0
C965 C 0.44471 0.94675 0.03008 0.0
C966 C 0.42589 0.93405 0.03515 0.0
H967 H 0.36431 0.94333 0.0336 0.0
H968 H 0.39155 0.95168 0.03259 0.0
H969 H 0.37253 0.93685 0.01868 0.0
H970 H 0.39232 0.92203 0.00743 0.0
H971 H 0.42532 0.94443 0.99848 0.0
H972 H 0.13261 0.43107 0.08195 0.0
H973 H 0.10862 0.44151 0.07235 0.0
H974 H 0.14362 0.45941 0.03871 0.0
H975 H 0.16758 0.44887 0.0482 0.0
H976 H 0.1149 0.47906 0.06494 0.0
H977 H 0.08468 0.41902 0.02147 0.0
H978 H 0.10029 0.41856 0.03555 0.0
H979 H 0.11259 0.43576 0.02326 0.0
C980 C 0.13533 0.43743 0.07257 0.0
C981 C 0.15192 0.43899 0.06579 0.0
C982 C 0.12155 0.44331 0.06707 0.0
C983 C 0.12405 0.45083 0.05468 0.0
C984 C 0.14103 0.45311 0.04811 0.0
H985 H 0.05696 0.4926 0.00433 0.0
H986 H 0.08225 0.48459 0.01485 0.0
C987 C 0.15475 0.44713 0.05356 0.0
C988 C 0.10883 0.45616 0.04862 0.0
H989 H 0.07419 0.44447 0.02139 0.0
C990 C 0.10593 0.47144 0.05544 0.0
C991 C 0.09708 0.44615 0.03625 0.0
C992 C 0.09862 0.42882 0.02875 0.0
C993 C 0.0919 0.47726 0.05011 0.0
C994 C 0.08031 0.46736 0.0377 0.0
C995 C 0.08317 0.45208 0.03089 0.0
C996 C 0.0651 0.47262 0.03158 0.0
C997 C 0.08986 0.49422 0.05766 0.0
C998 C 0.04697 0.46837 0.03745 0.0
C999 C 0.0324 0.47285 0.03145 0.0
C1000 C 0.0357 0.48167 0.01944 0.0
C1001 C 0.05391 0.48588 0.01359 0.0
C1002 C 0.0684 0.4813 0.01957 0.0
H1003 H 0.1031 0.50344 0.0655 0.0
H1004 H 0.08913 0.50503 0.05093 0.0
H1005 H 0.07515 0.48698 0.06242 0.0
H1006 H 0.04396 0.46135 0.04661 0.0
H1007 H 0.01856 0.46937 0.03623 0.0
H1008 H 0.60405 0.74186 0.03263 0.0
H1009 H 0.58538 0.70467 0.0243 0.0
H1010 H 0.5874 0.68877 0.06394 0.0
H1011 H 0.60639 0.72589 0.07236 0.0
H1012 H 0.59886 0.67472 0.02786 0.0
H1013 H 0.52459 0.65372 0.04919 0.0
H1014 H 0.54391 0.68039 0.04734 0.0
H1015 H 0.54789 0.66766 0.06062 0.0
C1016 C 0.60068 0.73047 0.03958 0.0
C1017 C 0.60665 0.73685 0.05317 0.0
C1018 C 0.58992 0.70924 0.0348 0.0
C1019 C 0.58479 0.69403 0.04353 0.0
C1020 C 0.59088 0.7003 0.05708 0.0
H1021 H 0.52162 0.55909 0.0363 0.0
H1022 H 0.53968 0.59649 0.04383 0.0
C1023 C 0.60169 0.72151 0.06186 0.0
C1024 C 0.57343 0.67158 0.03846 0.0
H1025 H 0.52785 0.62572 0.03948 0.0
C1026 C 0.58329 0.66399 0.03031 0.0
C1027 C 0.55316 0.6577 0.04175 0.0
C1028 C 0.54163 0.66523 0.05012 0.0
C1029 C 0.57358 0.64269 0.02559 0.0
C1030 C 0.5533 0.62878 0.02889 0.0
C1031 C 0.5434 0.63643 0.03697 0.0
C1032 C 0.54217 0.60615 0.0242 0.0
C1033 C 0.58537 0.6352 0.01744 0.0
C1034 C 0.5373 0.59919 0.01067 0.0
C1035 C 0.52706 0.57782 0.00632 0.0
C1036 C 0.52131 0.56302 0.01544 0.0
C1037 C 0.52584 0.57005 0.02901 0.0
C1038 C 0.53616 0.59142 0.03333 0.0
H1039 H 0.60246 0.64658 0.01872 0.0
H1040 H 0.58277 0.61987 0.02009 0.0
H1041 H 0.57971 0.63324 0.00686 0.0
H1042 H 0.54139 0.61029 0.00346 0.0
H1043 H 0.52367 0.57293 0.99581 0.0
H1044 H 0.84156 0.25638 0.96797 0.0
H1045 H 0.86347 0.29342 0.97635 0.0
H1046 H 0.88025 0.30817 0.93722 0.0
H1047 H 0.85861 0.27117 0.92877 0.0
H1048 H 0.90683 0.31966 0.97508 0.0
H1049 H 0.85998 0.34866 0.94911 0.0
H1050 H 0.84979 0.32132 0.95092 0.0
H1051 H 0.86708 0.33331 0.93861 0.0
C1052 C 0.84998 0.26749 0.96115 0.0
C1053 C 0.84827 0.26083 0.94769 0.0
C1054 C 0.8624 0.28864 0.96595 0.0
C1055 C 0.87323 0.30352 0.95736 0.0
C1056 C 0.87166 0.29696 0.94395 0.0
H1057 H 0.97735 0.43032 0.97757 0.0
H1058 H 0.95471 0.39332 0.96935 0.0
C1059 C 0.85926 0.27582 0.93914 0.0
C1060 C 0.88664 0.32587 0.96252 0.0
H1061 H 0.89317 0.37436 0.96002 0.0
C1062 C 0.90384 0.33164 0.97183 0.0
C1063 C 0.88253 0.34137 0.95833 0.0
C1064 C 0.86374 0.33591 0.94878 0.0
C1065 C 0.91727 0.35262 0.97693 0.0
C1066 C 0.9135 0.36819 0.97247 0.0
C1067 C 0.89611 0.36238 0.96332 0.0
C1068 C 0.92722 0.3906 0.97736 0.0
C1069 C 0.93519 0.35791 0.9872 0.0
C1070 C 0.91912 0.40141 0.98432 0.0
C1071 C 0.93197 0.42255 0.98898 0.0
C1072 C 0.95315 0.43331 0.9867 0.0
C1073 C 0.96115 0.42248 0.97957 0.0
C1074 C 0.94827 0.40131 0.97492 0.0
H1075 H 0.93297 0.34391 0.99182 0.0
H1076 H 0.94992 0.3643 0.98247 0.0
H1077 H 0.93701 0.36996 0.99507 0.0
H1078 H 0.90287 0.39342 0.98624 0.0
H1079 H 0.92527 0.43043 0.9944 0.0
H1080 H 0.70535 0.54372 0.95129 0.0
H1081 H 0.67212 0.53116 0.96069 0.0
H1082 H 0.6565 0.56723 0.93589 0.0
H1083 H 0.68956 0.57967 0.9263 0.0
H1084 H 0.65176 0.57318 0.96259 0.0
H1085 H 0.61215 0.48872 0.94418 0.0
H1086 H 0.63797 0.49926 0.95256 0.0
H1087 H 0.63462 0.50834 0.93725 0.0
C1088 C 0.69467 0.54867 0.94763 0.0
C1089 C 0.70016 0.56272 0.93802 0.0
C1090 C 0.67568 0.54149 0.95304 0.0
C1091 C 0.66174 0.54811 0.94891 0.0
C1092 C 0.66703 0.56192 0.93922 0.0
H1093 H 0.53355 0.502 0.96564 0.0
H1094 H 0.5657 0.51173 0.95547 0.0
C1095 C 0.68598 0.56908 0.93379 0.0
C1096 C 0.64212 0.5415 0.95514 0.0
H1097 H 0.59569 0.49881 0.95996 0.0
C1098 C 0.63948 0.55693 0.962 0.0
C1099 C 0.62605 0.5203 0.95426 0.0
C1100 C 0.62767 0.50318 0.94657 0.0
C1101 C 0.62132 0.55171 0.96813 0.0
C1102 C 0.60546 0.53047 0.96752 0.0
C1103 C 0.60796 0.51506 0.96052 0.0
C1104 C 0.58596 0.52404 0.97385 0.0
C1105 C 0.61908 0.56901 0.97503 0.0
C1106 C 0.58664 0.52743 0.98759 0.0
C1107 C 0.56827 0.52189 0.99346 0.0
C1108 C 0.54884 0.5128 0.9857 0.0
C1109 C 0.54821 0.50906 0.97194 0.0
C1110 C 0.56658 0.51456 0.96609 0.0
H1111 H 0.63025 0.58454 0.97204 0.0
H1112 H 0.60293 0.56611 0.97291 0.0
H1113 H 0.62228 0.5696 0.98584 0.0
H1114 H 0.6014 0.53442 0.99377 0.0
H1115 H 0.56936 0.52493 0.00407 0.0
H1116 H 0.44076 0.15781 0.96336 0.0
H1117 H 0.44811 0.13449 0.97552 0.0
H1118 H 0.4175 0.08609 0.94277 0.0
H1119 H 0.40967 0.10915 0.93062 0.0
H1120 H 0.41007 0.07222 0.96933 0.0
H1121 H 0.49397 0.12276 0.96202 0.0
H1122 H 0.48154 0.13569 0.96958 0.0
H1123 H 0.47323 0.12407 0.95275 0.0
C1124 C 0.43507 0.14201 0.95888 0.0
C1125 C 0.42483 0.13537 0.94598 0.0
C1126 C 0.43942 0.12878 0.96581 0.0
C1127 C 0.4336 0.10875 0.95994 0.0
C1128 C 0.42219 0.10157 0.94742 0.0
H1129 H 0.48541 0.02972 0.97041 0.0
H1130 H 0.47166 0.05141 0.9627 0.0
C1131 C 0.41786 0.11479 0.94048 0.0
C1132 C 0.44112 0.09602 0.96624 0.0
H1133 H 0.48533 0.09361 0.97354 0.0
C1134 C 0.42652 0.07691 0.97037 0.0
C1135 C 0.46257 0.10216 0.96738 0.0
C1136 C 0.47879 0.1222 0.96262 0.0
C1137 C 0.43287 0.06369 0.97561 0.0
C1138 C 0.45433 0.06988 0.97676 0.0
C1139 C 0.46891 0.08904 0.9727 0.0
C1140 C 0.46198 0.05627 0.98152 0.0
C1141 C 0.4166 0.04296 0.97953 0.0
C1142 C 0.46119 0.05199 0.99469 0.0
C1143 C 0.46912 0.03965 0.99916 0.0
C1144 C 0.47798 0.03143 0.99052 0.0
C1145 C 0.4787 0.03579 0.97733 0.0
C1146 C 0.47085 0.04817 0.97289 0.0
H1147 H 0.40046 0.03893 0.9759 0.0
H1148 H 0.41929 0.03025 0.97564 0.0
H1149 H 0.41782 0.04366 0.99044 0.0
H1150 H 0.45466 0.05839 0.00152 0.0
H1151 H 0.46833 0.03659 0.00938 0.0
H1152 H 0.69776 0.09832 0.93253 0.0
H1153 H 0.66502 0.08147 0.94264 0.0
H1154 H 0.6863 0.13757 0.96919 0.0
H1155 H 0.71917 0.15453 0.95918 0.0
H1156 H 0.66166 0.07476 0.96924 0.0
H1157 H 0.627 0.12291 0.95489 0.0
H1158 H 0.64807 0.12291 0.94692 0.0
H1159 H 0.65332 0.13725 0.96289 0.0
C1160 C 0.69546 0.1071 0.9405 0.0
C1161 C 0.71109 0.12776 0.94506 0.0
C1162 C 0.67672 0.09748 0.94622 0.0
C1163 C 0.67315 0.10834 0.95657 0.0
C1164 C 0.68855 0.12906 0.96104 0.0
H1165 H 0.56686 0.06219 0.00404 0.0
H1166 H 0.6005 0.08453 0.99567 0.0
C1167 C 0.70732 0.13872 0.9553 0.0
C1168 C 0.65381 0.09744 0.96314 0.0
H1169 H 0.6088 0.09717 0.96903 0.0
C1170 C 0.65013 0.07968 0.96921 0.0
C1171 C 0.63889 0.10404 0.9632 0.0
C1172 C 0.64185 0.12272 0.95655 0.0
C1173 C 0.63181 0.06816 0.9752 0.0
C1174 C 0.61662 0.07439 0.97493 0.0
C1175 C 0.62051 0.09247 0.9692 0.0
C1176 C 0.59606 0.06143 0.97979 0.0
C1177 C 0.62881 0.04936 0.98173 0.0
C1178 C 0.58234 0.04129 0.97346 0.0
C1179 C 0.56323 0.02856 0.97817 0.0
C1180 C 0.55736 0.03572 0.98933 0.0
C1181 C 0.57093 0.05616 0.99548 0.0
C1182 C 0.59013 0.06894 0.99071 0.0
H1183 H 0.64391 0.04995 0.98418 0.0
H1184 H 0.62119 0.04818 0.99091 0.0
H1185 H 0.61856 0.03496 0.97491 0.0
H1186 H 0.58648 0.03536 0.96487 0.0
H1187 H 0.55312 0.01302 0.97307 0.0
H1188 H 0.83138 0.56042 0.96039 0.0
H1189 H 0.85508 0.54824 0.96766 0.0
H1190 H 0.8691 0.54358 0.92768 0.0
H1191 H 0.84605 0.55654 0.92038 0.0
H1192 H 0.85475 0.51139 0.96029 0.0
H1193 H 0.92711 0.58019 0.94781 0.0
H1194 H 0.90273 0.57998 0.94831 0.0
H1195 H 0.90674 0.5668 0.93436 0.0
C1196 C 0.83962 0.55697 0.95314 0.0
C1197 C 0.83693 0.55966 0.93981 0.0
C1198 C 0.85305 0.54987 0.95731 0.0
C1199 C 0.86413 0.54535 0.94826 0.0
C1200 C 0.86102 0.54737 0.93488 0.0
H1201 H 0.95734 0.50672 0.96211 0.0
H1202 H 0.93226 0.51504 0.95147 0.0
C1203 C 0.84762 0.55453 0.9307 0.0
C1204 C 0.87899 0.53863 0.95291 0.0
H1205 H 0.93071 0.55294 0.95589 0.0
C1206 C 0.87134 0.52044 0.9593 0.0
C1207 C 0.90064 0.55044 0.95157 0.0
C1208 C 0.90989 0.57054 0.94525 0.0
C1209 C 0.88477 0.51381 0.96445 0.0
C1210 C 0.90646 0.52585 0.96335 0.0
C1211 C 0.91406 0.54375 0.95669 0.0
C1212 C 0.92162 0.52074 0.9697 0.0
C1213 C 0.87565 0.49396 0.97104 0.0
C1214 C 0.92418 0.52156 0.98346 0.0
C1215 C 0.93851 0.51692 0.98957 0.0
C1216 C 0.95066 0.51141 0.98203 0.0
C1217 C 0.94823 0.51084 0.96822 0.0
C1218 C 0.93391 0.51559 0.96211 0.0
H1219 H 0.85861 0.48375 0.96796 0.0
H1220 H 0.88363 0.48502 0.96872 0.0
H1221 H 0.87785 0.49802 0.98189 0.0
H1222 H 0.91515 0.5259 0.98951 0.0
H1223 H 0.93998 0.51762 1.00022 0.0
H1224 H 0.42162 0.28641 0.92653 0.0
H1225 H 0.42691 0.31939 0.93731 0.0
H1226 H 0.43812 0.30232 0.97516 0.0
H1227 H 0.43244 0.26905 0.96449 0.0
H1228 H 0.41209 0.32254 0.97398 0.0
H1229 H 0.48804 0.36526 0.95299 0.0
H1230 H 0.4657 0.34801 0.94138 0.0
H1231 H 0.47468 0.33736 0.95375 0.0
C1232 C 0.42472 0.28943 0.93718 0.0
C1233 C 0.42677 0.2752 0.94466 0.0
C1234 C 0.42789 0.30834 0.9433 0.0
C1235 C 0.43315 0.31331 0.95698 0.0
C1236 C 0.43415 0.29873 0.96457 0.0
H1237 H 0.49704 0.43641 1.00065 0.0
H1238 H 0.48484 0.40023 0.99201 0.0
C1239 C 0.43104 0.27983 0.95845 0.0
C1240 C 0.43909 0.33433 0.96324 0.0
H1241 H 0.47697 0.3857 0.96489 0.0
C1242 C 0.42625 0.33639 0.97202 0.0
C1243 C 0.45773 0.35224 0.96075 0.0
C1244 C 0.47248 0.35072 0.95179 0.0
C1245 C 0.43144 0.35609 0.97826 0.0
C1246 C 0.44986 0.37404 0.97554 0.0
C1247 C 0.46281 0.37188 0.96689 0.0
C1248 C 0.45619 0.3953 0.98159 0.0
C1249 C 0.41742 0.35754 0.98784 0.0
C1250 C 0.44407 0.40445 0.97859 0.0
C1251 C 0.45101 0.42516 0.98348 0.0
C1252 C 0.47025 0.43708 0.99141 0.0
C1253 C 0.48216 0.4277 0.99457 0.0
C1254 C 0.47522 0.40702 0.98965 0.0
H1255 H 0.40665 0.34208 0.99109 0.0
H1256 H 0.42682 0.36871 0.99666 0.0
H1257 H 0.40781 0.36335 0.98299 0.0
H1258 H 0.42951 0.39575 0.97219 0.0
H1259 H 0.44147 0.43192 0.98084 0.0
H1260 H 0.18222 0.716 0.04814 0.0
H1261 H 0.15388 0.68408 0.03554 0.0
H1262 H 0.11217 0.68031 0.06422 0.0
H1263 H 0.14046 0.71205 0.07698 0.0
H1264 H 0.13336 0.64544 0.04544 0.0
H1265 H 0.07715 0.67013 0.0288 0.0
H1266 H 0.10426 0.6886 0.03452 0.0
H1267 H 0.08572 0.67641 0.04617 0.0
C1268 C 0.16699 0.70844 0.05174 0.0
C1269 C 0.16364 0.71653 0.06361 0.0
C1270 C 0.15079 0.69029 0.04449 0.0
C1271 C 0.13089 0.67996 0.04888 0.0
C1272 C 0.1273 0.68828 0.06051 0.0
H1273 H 0.03527 0.55078 0.03603 0.0
H1274 H 0.06246 0.58638 0.04442 0.0
C1275 C 0.1435 0.70643 0.06779 0.0
C1276 C 0.11444 0.65953 0.04194 0.0
H1277 H 0.06433 0.63331 0.02682 0.0
C1278 C 0.11834 0.64284 0.04125 0.0
C1279 C 0.09493 0.65623 0.03641 0.0
C1280 C 0.09026 0.67382 0.03638 0.0
C1281 C 0.10301 0.62277 0.03555 0.0
C1282 C 0.08321 0.61927 0.03053 0.0
C1283 C 0.07949 0.63606 0.0308 0.0
C1284 C 0.06602 0.59805 0.02538 0.0
C1285 C 0.10803 0.60538 0.03502 0.0
C1286 C 0.05872 0.59299 0.01191 0.0
C1287 C 0.04316 0.57258 0.00703 0.0
C1288 C 0.03454 0.55699 0.01559 0.0
C1289 C 0.04157 0.56235 0.02914 0.0
C1290 C 0.05716 0.58267 0.03397 0.0
H1291 H 0.12516 0.61152 0.03653 0.0
H1292 H 0.10071 0.59536 0.04292 0.0
H1293 H 0.10162 0.59542 0.02541 0.0
H1294 H 0.06536 0.60472 0.00515 0.0
H1295 H 0.03805 0.569 0.99655 0.0
H1296 H 0.30429 0.43042 0.08471 0.0
H1297 H 0.33713 0.44266 0.07486 0.0
H1298 H 0.31548 0.46768 0.04482 0.0
H1299 H 0.28258 0.45542 0.05457 0.0
H1300 H 0.34134 0.43053 0.04956 0.0
H1301 H 0.37423 0.51646 0.05709 0.0
H1302 H 0.35309 0.49855 0.06576 0.0
H1303 H 0.348 0.50205 0.04898 0.0
C1304 C 0.30654 0.43861 0.07604 0.0
C1305 C 0.29078 0.44194 0.07044 0.0
C1306 C 0.32536 0.44567 0.07045 0.0
C1307 C 0.32888 0.45631 0.05919 0.0
C1308 C 0.31333 0.45993 0.05368 0.0
H1309 H 0.42727 0.49952 0.00681 0.0
H1310 H 0.39575 0.49084 0.01758 0.0
C1311 C 0.29451 0.45291 0.05928 0.0
C1312 C 0.34827 0.46243 0.05277 0.0
H1313 H 0.39141 0.50419 0.04326 0.0
C1314 C 0.35235 0.44665 0.04826 0.0
C1315 C 0.36255 0.48345 0.05099 0.0
C1316 C 0.35941 0.50115 0.05606 0.0
C1317 C 0.37016 0.45127 0.04187 0.0
C1318 C 0.3845 0.47229 0.04015 0.0
C1319 C 0.3804 0.48808 0.04459 0.0
C1320 C 0.40393 0.47816 0.03385 0.0
C1321 C 0.37324 0.43353 0.03678 0.0
C1322 C 0.41918 0.47429 0.03956 0.0
C1323 C 0.43717 0.47917 0.03344 0.0
C1324 C 0.44038 0.48817 0.02149 0.0
C1325 C 0.4253 0.49252 0.01596 0.0
C1326 C 0.40727 0.4876 0.02211 0.0
H1327 H 0.35842 0.41823 0.03579 0.0
H1328 H 0.37946 0.43608 0.02704 0.0
H1329 H 0.3847 0.43264 0.04381 0.0
H1330 H 0.41714 0.46743 0.04877 0.0
H1331 H 0.44853 0.47581 0.03808 0.0
H1332 H 0.62344 0.89882 0.06129 0.0
H1333 H 0.60439 0.91457 0.0516 0.0
H1334 H 0.56256 0.85634 0.02761 0.0
H1335 H 0.58162 0.84045 0.03721 0.0
H1336 H 0.59797 0.91865 0.02473 0.0
H1337 H 0.52268 0.87118 0.04557 0.0
H1338 H 0.54666 0.8725 0.05183 0.0
H1339 H 0.53242 0.85671 0.03663 0.0
C1340 C 0.61026 0.88938 0.05391 0.0
C1341 C 0.60402 0.86837 0.05003 0.0
C1342 C 0.59934 0.89838 0.04843 0.0
C1343 C 0.58193 0.88654 0.03902 0.0
C1344 C 0.5757 0.86561 0.03506 0.0
H1345 H 0.50196 0.92777 0.99979 0.0
H1346 H 0.51749 0.90653 0.00568 0.0
C1347 C 0.5866 0.85657 0.04055 0.0
C1348 C 0.57071 0.89643 0.03319 0.0
H1349 H 0.52429 0.89586 0.0316 0.0
C1350 C 0.58183 0.9136 0.02617 0.0
C1351 C 0.54961 0.88968 0.03501 0.0
C1352 C 0.53712 0.87161 0.04275 0.0
C1353 C 0.57252 0.92449 0.02112 0.0
C1354 C 0.55166 0.91821 0.02333 0.0
C1355 C 0.54029 0.9006 0.02994 0.0
C1356 C 0.54203 0.93075 0.01973 0.0
C1357 C 0.58514 0.94274 0.01354 0.0
C1358 C 0.55048 0.95118 0.02587 0.0
C1359 C 0.54168 0.96328 0.02258 0.0
C1360 C 0.52416 0.95516 0.0131 0.0
C1361 C 0.51549 0.93452 0.00709 0.0
C1362 C 0.52432 0.92236 0.01044 0.0
H1363 H 0.59832 0.94187 0.00954 0.0
H1364 H 0.57517 0.94341 0.00524 0.0
H1365 H 0.59181 0.95751 0.02024 0.0
H1366 H 0.56391 0.95778 0.03326 0.0
H1367 H 0.54873 0.97906 0.02748 0.0
H1368 H 0.97634 0.20944 0.41143 0.0
H1369 H 0.00493 0.23156 0.39885 0.0
H1370 H 0.99425 0.17693 0.37421 0.0
H1371 H 0.96586 0.15468 0.38679 0.0
H1372 H 0.04087 0.22821 0.39658 0.0
H1373 H 0.99847 0.21744 0.34734 0.0
H1374 H 0.98543 0.2111 0.36213 0.0
H1375 H 0.99271 0.1937 0.35419 0.0
C1376 C 0.97999 0.20213 0.40328 0.0
C1377 C 0.96878 0.18027 0.40013 0.0
C1378 C 0.99625 0.2148 0.39607 0.0
C1379 C 0.00154 0.2059 0.3855 0.0
C1380 C 0.99013 0.18416 0.38213 0.0
H1381 H 0.10626 0.26034 0.33741 0.0
H1382 H 0.07437 0.23595 0.3468 0.0
C1383 C 0.97388 0.17147 0.38935 0.0
C1384 C 0.02003 0.2192 0.37871 0.0
H1385 H 0.03556 0.23592 0.34888 0.0
C1386 C 0.0397 0.22995 0.38616 0.0
C1387 C 0.01846 0.22122 0.36508 0.0
C1388 C 0.99763 0.21041 0.3567 0.0
C1389 C 0.05788 0.24269 0.38037 0.0
C1390 C 0.0563 0.24506 0.3668 0.0
C1391 C 0.03669 0.23405 0.35928 0.0
C1392 C 0.07479 0.25972 0.3605 0.0
C1393 C 0.07869 0.25338 0.3888 0.0
C1394 C 0.0852 0.28115 0.36487 0.0
C1395 C 0.10332 0.29503 0.35958 0.0
C1396 C 0.11139 0.28781 0.34972 0.0
C1397 C 0.10051 0.26639 0.34501 0.0
C1398 C 0.0823 0.25245 0.35036 0.0
H1399 H 0.07797 0.24557 0.39781 0.0
H1400 H 0.09116 0.25362 0.3832 0.0
H1401 H 0.08312 0.2698 0.39197 0.0
H1402 H 0.07941 0.28713 0.3725 0.0
H1403 H 0.11112 0.31143 0.36338 0.0
H1404 H 0.83488 0.80304 0.40909 0.0
H1405 H 0.81094 0.81471 0.4012 0.0
H1406 H 0.76821 0.75264 0.38199 0.0
H1407 H 0.79155 0.74067 0.39022 0.0
H1408 H 0.79695 0.8151 0.37585 0.0
H1409 H 0.72985 0.76502 0.4026 0.0
H1410 H 0.75567 0.76888 0.40659 0.0
H1411 H 0.73854 0.75028 0.39296 0.0
C1412 C 0.82025 0.7918 0.40335 0.0
C1413 C 0.81516 0.7709 0.40032 0.0
C1414 C 0.80664 0.79853 0.39878 0.0
C1415 C 0.78761 0.78447 0.39118 0.0
C1416 C 0.78259 0.76367 0.38806 0.0
H1417 H 0.71087 0.8088 0.33696 0.0
H1418 H 0.73581 0.80094 0.34803 0.0
C1419 C 0.79613 0.75693 0.39263 0.0
C1420 C 0.7733 0.79162 0.38612 0.0
H1421 H 0.7227 0.78088 0.3849 0.0
C1422 C 0.78077 0.80775 0.37793 0.0
C1423 C 0.75227 0.78227 0.38899 0.0
C1424 C 0.74365 0.76581 0.39838 0.0
C1425 C 0.76759 0.81426 0.37216 0.0
C1426 C 0.74626 0.80408 0.37444 0.0
C1427 C 0.73899 0.78849 0.38302 0.0
C1428 C 0.73112 0.80901 0.36777 0.0
C1429 C 0.77669 0.83204 0.36373 0.0
C1430 C 0.71967 0.81557 0.37518 0.0
C1431 C 0.70518 0.81991 0.36888 0.0
C1432 C 0.7018 0.81767 0.35501 0.0
C1433 C 0.71315 0.81086 0.34764 0.0
C1434 C 0.72756 0.80649 0.35396 0.0
H1435 H 0.79389 0.84208 0.3662 0.0
H1436 H 0.77368 0.82556 0.35322 0.0
H1437 H 0.76943 0.84194 0.36492 0.0
H1438 H 0.72203 0.81746 0.38586 0.0
H1439 H 0.6967 0.82505 0.37488 0.0
H1440 H 0.27767 0.06463 0.40388 0.0
H1441 H 0.25774 0.02776 0.39489 0.0
H1442 H 0.25609 0.04553 0.35575 0.0
H1443 H 0.27566 0.08248 0.36466 0.0
H1444 H 0.21687 0.00671 0.3793 0.0
H1445 H 0.27929 0.0045 0.35284 0.0
H1446 H 0.28487 0.0249 0.36583 0.0
H1447 H 0.27396 0.02505 0.34971 0.0
C1448 C 0.27296 0.06073 0.39337 0.0
C1449 C 0.27828 0.07652 0.38499 0.0
C1450 C 0.26167 0.03966 0.38825 0.0
C1451 C 0.25566 0.034 0.37467 0.0
C1452 C 0.26091 0.04965 0.36625 0.0
H1453 H 0.19091 0.91169 0.32812 0.0
H1454 H 0.20853 0.94927 0.33521 0.0
C1455 C 0.27214 0.07073 0.37136 0.0
C1456 C 0.24349 0.01166 0.36937 0.0
H1457 H 0.24625 0.97366 0.3504 0.0
C1458 C 0.22325 0.99944 0.37297 0.0
C1459 C 0.25187 0.00236 0.36106 0.0
C1460 C 0.27374 0.01477 0.35717 0.0
C1461 C 0.21107 0.97807 0.36844 0.0
C1462 C 0.21961 0.96863 0.36036 0.0
C1463 C 0.23976 0.98095 0.3566 0.0
C1464 C 0.20821 0.94586 0.35606 0.0
C1465 C 0.1891 0.96588 0.37222 0.0
C1466 C 0.20233 0.93152 0.36544 0.0
C1467 C 0.19219 0.91007 0.36143 0.0
C1468 C 0.18794 0.90255 0.34795 0.0
C1469 C 0.19391 0.91696 0.33857 0.0
C1470 C 0.20399 0.93843 0.3426 0.0
H1471 H 0.18284 0.97631 0.37491 0.0
H1472 H 0.17836 0.95391 0.36406 0.0
H1473 H 0.18919 0.95777 0.38094 0.0
H1474 H 0.2059 0.93694 0.37588 0.0
H1475 H 0.18799 0.89943 0.36893 0.0
H1476 H 0.49348 0.59841 0.29014 0.0
H1477 H 0.51561 0.63564 0.29803 0.0
H1478 H 0.56915 0.63483 0.28441 0.0
H1479 H 0.54718 0.59763 0.27657 0.0
H1480 H 0.57773 0.65507 0.30923 0.0
H1481 H 0.53876 0.68421 0.27577 0.0
H1482 H 0.52121 0.66476 0.2854 0.0
H1483 H 0.53414 0.65787 0.27339 0.0
C1484 C 0.50994 0.60621 0.28874 0.0
C1485 C 0.51858 0.59509 0.28271 0.0
C1486 C 0.52255 0.62749 0.29321 0.0
C1487 C 0.54396 0.63808 0.2916 0.0
C1488 C 0.55266 0.62697 0.28572 0.0
H1489 H 0.62687 0.77308 0.30029 0.0
H1490 H 0.60527 0.73599 0.29198 0.0
C1491 C 0.5401 0.60569 0.2813 0.0
C1492 C 0.55743 0.66064 0.2963 0.0
H1493 H 0.5636 0.70884 0.29303 0.0
C1494 C 0.57469 0.66684 0.30566 0.0
C1495 C 0.55362 0.676 0.29148 0.0
C1496 C 0.53605 0.67045 0.28086 0.0
C1497 C 0.58806 0.68795 0.31049 0.0
C1498 C 0.58377 0.70322 0.30605 0.0
C1499 C 0.56673 0.69707 0.29652 0.0
C1500 C 0.59683 0.72568 0.31113 0.0
C1501 C 0.60685 0.69372 0.32014 0.0
C1502 C 0.59902 0.73221 0.32462 0.0
C1503 C 0.61144 0.75336 0.32941 0.0
C1504 C 0.62172 0.76843 0.32077 0.0
C1505 C 0.6192 0.76188 0.30721 0.0
C1506 C 0.60685 0.7407 0.30245 0.0
H1507 H 0.6112 0.68138 0.3196 0.0
H1508 H 0.62058 0.70871 0.31829 0.0
H1509 H 0.6031 0.69555 0.33031 0.0
H1510 H 0.59101 0.72096 0.33146 0.0
H1511 H 0.61287 0.75787 0.33989 0.0
H1512 H 0.35745 0.86793 0.26775 0.0
H1513 H 0.32336 0.85554 0.27613 0.0
H1514 H 0.34392 0.91805 0.29378 0.0
H1515 H 0.3777 0.93063 0.28521 0.0
H1516 H 0.31463 0.85777 0.30262 0.0
H1517 H 0.2881 0.90103 0.27218 0.0
H1518 H 0.30956 0.89724 0.26847 0.0
H1519 H 0.31353 0.91724 0.28117 0.0
C1520 C 0.35462 0.87907 0.27329 0.0
C1521 C 0.37032 0.90028 0.2758 0.0
C1522 C 0.33519 0.87194 0.27814 0.0
C1523 C 0.33102 0.88592 0.28544 0.0
C1524 C 0.34667 0.90705 0.288 0.0
H1525 H 0.23679 0.86332 0.33829 0.0
H1526 H 0.26875 0.87161 0.32825 0.0
C1527 C 0.36607 0.91416 0.28321 0.0
C1528 C 0.31049 0.87847 0.29064 0.0
H1529 H 0.26854 0.88587 0.29004 0.0
C1530 C 0.30446 0.86379 0.29981 0.0
C1531 C 0.29713 0.88615 0.28683 0.0
C1532 C 0.30226 0.90114 0.27653 0.0
C1533 C 0.28571 0.85704 0.30558 0.0
C1534 C 0.2728 0.86541 0.3022 0.0
C1535 C 0.27855 0.87963 0.29273 0.0
C1536 C 0.2533 0.85974 0.30838 0.0
C1537 C 0.27982 0.84089 0.31516 0.0
C1538 C 0.23402 0.85065 0.30054 0.0
C1539 C 0.21572 0.84599 0.30623 0.0
C1540 C 0.21632 0.85047 0.31991 0.0
C1541 C 0.23569 0.85955 0.32775 0.0
C1542 C 0.25399 0.8642 0.32203 0.0
H1543 H 0.28814 0.832 0.31396 0.0
H1544 H 0.28419 0.84886 0.32539 0.0
H1545 H 0.2627 0.82967 0.31389 0.0
H1546 H 0.23314 0.84716 0.28997 0.0
H1547 H 0.20112 0.83896 0.29987 0.0
H1548 H 0.11197 0.49751 0.29906 0.0
H1549 H 0.11954 0.47414 0.31094 0.0
H1550 H 0.08937 0.42629 0.27786 0.0
H1551 H 0.08118 0.44938 0.266 0.0
H1552 H 0.08127 0.41188 0.30402 0.0
H1553 H 0.16576 0.4628 0.2984 0.0
H1554 H 0.15314 0.47559 0.30586 0.0
H1555 H 0.14544 0.46452 0.28891 0.0
C1556 C 0.10644 0.48183 0.29443 0.0
C1557 C 0.09611 0.47534 0.28154 0.0
C1558 C 0.11096 0.46858 0.30119 0.0
C1559 C 0.10531 0.44869 0.29516 0.0
C1560 C 0.09396 0.44168 0.28262 0.0
H1561 H 0.12795 0.34837 0.30862 0.0
H1562 H 0.11484 0.37076 0.30136 0.0
C1563 C 0.08942 0.45492 0.27584 0.0
C1564 C 0.11256 0.43579 0.30149 0.0
H1565 H 0.15656 0.43349 0.30985 0.0
C1566 C 0.09772 0.41659 0.30536 0.0
C1567 C 0.13404 0.44207 0.3032 0.0
C1568 C 0.15057 0.46228 0.2988 0.0
C1569 C 0.10383 0.40343 0.31095 0.0
C1570 C 0.12529 0.40952 0.31241 0.0
C1571 C 0.14013 0.4289 0.30874 0.0
C1572 C 0.13267 0.39569 0.31717 0.0
C1573 C 0.08731 0.38322 0.31533 0.0
C1574 C 0.1475 0.40254 0.32827 0.0
C1575 C 0.15523 0.38987 0.33239 0.0
C1576 C 0.14829 0.37014 0.32544 0.0
C1577 C 0.1335 0.36339 0.31428 0.0
C1578 C 0.12585 0.3761 0.31016 0.0
H1579 H 0.073 0.38383 0.31721 0.0
H1580 H 0.08279 0.37026 0.30743 0.0
H1581 H 0.09324 0.37958 0.32442 0.0
H1582 H 0.15311 0.41773 0.33374 0.0
H1583 H 0.1666 0.39553 0.34102 0.0
H1584 H 0.37989 0.48862 0.28457 0.0
H1585 H 0.34689 0.47153 0.29452 0.0
H1586 H 0.3442 0.4122 0.2875 0.0
H1587 H 0.37741 0.42931 0.27792 0.0
H1588 H 0.30842 0.44158 0.28512 0.0
H1589 H 0.33678 0.41369 0.32598 0.0
H1590 H 0.35423 0.43207 0.31565 0.0
H1591 H 0.34028 0.40443 0.31022 0.0
C1592 C 0.3722 0.47193 0.28514 0.0
C1593 C 0.38128 0.46031 0.2806 0.0
C1594 C 0.3534 0.46219 0.29085 0.0
C1595 C 0.3433 0.44066 0.29205 0.0
C1596 C 0.35203 0.42894 0.28709 0.0
H1597 H 0.21382 0.35905 0.30316 0.0
H1598 H 0.24721 0.38059 0.29467 0.0
C1599 C 0.37094 0.43869 0.28155 0.0
C1600 C 0.32349 0.43036 0.29826 0.0
H1601 H 0.29967 0.39842 0.32182 0.0
C1602 C 0.30656 0.43229 0.29323 0.0
C1603 C 0.32116 0.41861 0.30903 0.0
C1604 C 0.33916 0.41726 0.31563 0.0
C1605 C 0.28719 0.42224 0.29837 0.0
C1606 C 0.28449 0.4094 0.30857 0.0
C1607 C 0.30162 0.40803 0.31389 0.0
C1608 C 0.26397 0.39688 0.31372 0.0
C1609 C 0.26994 0.42572 0.2929 0.0
C1610 C 0.26233 0.39837 0.32732 0.0
C1611 C 0.2433 0.38574 0.33226 0.0
C1612 C 0.2255 0.37142 0.32367 0.0
C1613 C 0.22715 0.37008 0.31004 0.0
C1614 C 0.24623 0.38252 0.30515 0.0
H1615 H 0.27637 0.44087 0.28867 0.0
H1616 H 0.25998 0.4131 0.28485 0.0
H1617 H 0.25994 0.42554 0.3006 0.0
H1618 H 0.27583 0.40924 0.33414 0.0
H1619 H 0.24256 0.38716 0.3428 0.0
H1620 H 0.48816 0.88036 0.28596 0.0
H1621 H 0.51103 0.86732 0.29366 0.0
H1622 H 0.5552 0.90279 0.26693 0.0
H1623 H 0.53246 0.91583 0.25916 0.0
H1624 H 0.527 0.84496 0.27989 0.0
H1625 H 0.59073 0.9229 0.30283 0.0
H1626 H 0.56472 0.91779 0.29774 0.0
H1627 H 0.58276 0.92195 0.28574 0.0
C1628 C 0.50264 0.88521 0.28162 0.0
C1629 C 0.50859 0.89931 0.27205 0.0
C1630 C 0.51572 0.87781 0.28607 0.0
C1631 C 0.53499 0.88441 0.28105 0.0
C1632 C 0.54064 0.8979 0.27117 0.0
H1633 H 0.63831 0.86286 0.301 0.0
H1634 H 0.61459 0.87274 0.29025 0.0
C1635 C 0.52762 0.90534 0.26675 0.0
C1636 C 0.54929 0.87737 0.28625 0.0
H1637 H 0.59779 0.89511 0.30245 0.0
C1638 C 0.54246 0.8559 0.28484 0.0
C1639 C 0.56949 0.89169 0.29268 0.0
C1640 C 0.57735 0.91485 0.29497 0.0
C1641 C 0.55538 0.84839 0.28959 0.0
C1642 C 0.5755 0.86271 0.29609 0.0
C1643 C 0.58239 0.88418 0.2974 0.0
C1644 C 0.5894 0.85574 0.30209 0.0
C1645 C 0.54748 0.82522 0.28744 0.0
C1646 C 0.58313 0.84298 0.31235 0.0
C1647 C 0.59662 0.83732 0.31852 0.0
C1648 C 0.61675 0.84442 0.31462 0.0
C1649 C 0.62293 0.85709 0.30425 0.0
C1650 C 0.6094 0.86276 0.29809 0.0
H1651 H 0.53462 0.81728 0.27924 0.0
H1652 H 0.56026 0.82219 0.28522 0.0
H1653 H 0.54128 0.81813 0.29654 0.0
H1654 H 0.56794 0.83774 0.31578 0.0
H1655 H 0.59132 0.82761 0.32649 0.0
H1656 H 0.08125 0.61901 0.27009 0.0
H1657 H 0.08548 0.65111 0.28159 0.0
H1658 H 0.11831 0.64413 0.31535 0.0
H1659 H 0.11384 0.61179 0.30403 0.0
H1660 H 0.07641 0.66133 0.30908 0.0
H1661 H 0.1603 0.7004 0.30001 0.0
H1662 H 0.14067 0.67594 0.29087 0.0
H1663 H 0.15013 0.67647 0.30755 0.0
C1664 C 0.08885 0.62397 0.2801 0.0
C1665 C 0.09744 0.613 0.2861 0.0
C1666 C 0.0913 0.64233 0.28663 0.0
C1667 C 0.10239 0.65 0.29922 0.0
C1668 C 0.10987 0.63847 0.30557 0.0
H1669 H 0.15997 0.77424 0.3416 0.0
H1670 H 0.1476 0.73729 0.33521 0.0
C1671 C 0.1074 0.6201 0.29907 0.0
C1672 C 0.10797 0.67105 0.30512 0.0
H1673 H 0.14912 0.72095 0.3114 0.0
C1674 C 0.09229 0.6744 0.30966 0.0
C1675 C 0.1287 0.68795 0.30582 0.0
C1676 C 0.14597 0.68518 0.30074 0.0
C1677 C 0.09691 0.69437 0.31501 0.0
C1678 C 0.11762 0.71137 0.3155 0.0
C1679 C 0.13327 0.70788 0.31105 0.0
C1680 C 0.12351 0.73311 0.32022 0.0
C1681 C 0.07967 0.69699 0.32024 0.0
C1682 C 0.11401 0.743 0.31394 0.0
C1683 C 0.12098 0.7641 0.31763 0.0
C1684 C 0.13778 0.77575 0.32751 0.0
C1685 C 0.14707 0.76573 0.3339 0.0
C1686 C 0.13998 0.7446 0.33029 0.0
H1687 H 0.06684 0.68197 0.32288 0.0
H1688 H 0.08569 0.70876 0.32907 0.0
H1689 H 0.07293 0.7024 0.31251 0.0
H1690 H 0.10165 0.73458 0.30592 0.0
H1691 H 0.11358 0.77141 0.31247 0.0
H1692 H 0.81987 0.06279 0.39472 0.0
H1693 H 0.7884 0.03225 0.38316 0.0
H1694 H 0.80633 0.99144 0.40067 0.0
H1695 H 0.83729 0.0217 0.41257 0.0
H1696 H 0.78583 0.00159 0.36503 0.0
H1697 H 0.74581 0.96658 0.40832 0.0
H1698 H 0.76736 0.99314 0.40941 0.0
H1699 H 0.77221 0.97167 0.40953 0.0
C1700 C 0.81693 0.0473 0.39626 0.0
C1701 C 0.83109 0.04468 0.40458 0.0
C1702 C 0.79901 0.02989 0.38959 0.0
C1703 C 0.79487 0.00958 0.39122 0.0
C1704 C 0.80899 0.00695 0.39948 0.0
H1705 H 0.72672 0.89346 0.34243 0.0
H1706 H 0.75179 0.9284 0.35315 0.0
C1707 C 0.82685 0.02429 0.40614 0.0
C1708 C 0.77631 0.99106 0.38388 0.0
H1709 H 0.73437 0.94378 0.388 0.0
C1710 C 0.77439 0.98907 0.37004 0.0
C1711 C 0.76119 0.97491 0.39042 0.0
C1712 C 0.76159 0.97675 0.40524 0.0
C1713 C 0.75837 0.97085 0.36258 0.0
C1714 C 0.74416 0.95408 0.36915 0.0
C1715 C 0.74543 0.95654 0.38297 0.0
C1716 C 0.72862 0.93344 0.36197 0.0
C1717 C 0.75691 0.96971 0.34773 0.0
C1718 C 0.70728 0.92446 0.36355 0.0
C1719 C 0.69287 0.90433 0.35752 0.0
C1720 C 0.6996 0.89278 0.34987 0.0
C1721 C 0.72097 0.90194 0.34819 0.0
C1722 C 0.73533 0.92201 0.35424 0.0
H1723 H 0.76403 0.98556 0.34441 0.0
H1724 H 0.76561 0.96218 0.34401 0.0
H1725 H 0.74041 0.96034 0.34323 0.0
H1726 H 0.70179 0.93296 0.36956 0.0
H1727 H 0.67654 0.89773 0.35903 0.0
H1728 H 0.94729 0.78976 0.38631 0.0
H1729 H 0.98024 0.80247 0.37645 0.0
H1730 H 0.00244 0.77759 0.40627 0.0
H1731 H 0.96959 0.76484 0.41616 0.0
H1732 H 0.02197 0.82969 0.38659 0.0
H1733 H 0.00804 0.75001 0.37204 0.0
H1734 H 0.98776 0.75462 0.37731 0.0
H1735 H 0.00686 0.75515 0.38928 0.0
C1736 C 0.95929 0.78721 0.39086 0.0
C1737 C 0.95573 0.7761 0.40195 0.0
C1738 C 0.97807 0.79441 0.38518 0.0
C1739 C 0.99362 0.79059 0.39046 0.0
C1740 C 0.99044 0.78023 0.40183 0.0
H1741 H 0.11493 0.81468 0.37114 0.0
H1742 H 0.083 0.80585 0.38128 0.0
C1743 C 0.97167 0.77298 0.40748 0.0
C1744 C 0.01304 0.79716 0.38399 0.0
H1745 H 0.04175 0.77838 0.3697 0.0
C1746 C 0.02626 0.81848 0.38282 0.0
C1747 C 0.01856 0.78249 0.37903 0.0
C1748 C 0.00448 0.75927 0.37934 0.0
C1749 C 0.04514 0.82558 0.37716 0.0
C1750 C 0.05078 0.81092 0.37238 0.0
C1751 C 0.03745 0.7896 0.37343 0.0
C1752 C 0.07055 0.8173 0.36639 0.0
C1753 C 0.05918 0.84874 0.37663 0.0
C1754 C 0.07416 0.82666 0.35461 0.0
C1755 C 0.09245 0.83173 0.34873 0.0
C1756 C 0.10742 0.82742 0.3545 0.0
C1757 C 0.10377 0.81819 0.36637 0.0
C1758 C 0.08551 0.81312 0.37221 0.0
H1759 H 0.05503 0.85817 0.38337 0.0
H1760 H 0.07583 0.85352 0.37928 0.0
H1761 H 0.05755 0.85243 0.36644 0.0
H1762 H 0.06265 0.82969 0.34982 0.0
H1763 H 0.09469 0.83875 0.33958 0.0
H1764 H 0.29419 0.23779 0.3994 0.0
H1765 H 0.27471 0.25422 0.39144 0.0
H1766 H 0.23706 0.2006 0.36274 0.0
H1767 H 0.25661 0.18412 0.37053 0.0
H1768 H 0.27017 0.26408 0.36567 0.0
H1769 H 0.19366 0.20826 0.38217 0.0
H1770 H 0.21789 0.20994 0.38826 0.0
H1771 H 0.20505 0.19646 0.37225 0.0
C1772 C 0.28188 0.22955 0.39133 0.0
C1773 C 0.27692 0.20962 0.38561 0.0
C1774 C 0.27069 0.23891 0.38685 0.0
C1775 C 0.25428 0.22848 0.37664 0.0
C1776 C 0.2494 0.2087 0.37082 0.0
H1777 H 0.19768 0.2849 0.3301 0.0
H1778 H 0.2147 0.26583 0.3375 0.0
C1779 C 0.26058 0.19932 0.37528 0.0
C1780 C 0.24261 0.23857 0.37191 0.0
H1781 H 0.19417 0.2336 0.36902 0.0
C1782 C 0.25356 0.25744 0.3664 0.0
C1783 C 0.22099 0.22993 0.373 0.0
C1784 C 0.20868 0.21012 0.37934 0.0
C1785 C 0.24341 0.26785 0.36182 0.0
C1786 C 0.2217 0.25898 0.36265 0.0
C1787 C 0.21078 0.24022 0.36829 0.0
C1788 C 0.21022 0.26931 0.35803 0.0
C1789 C 0.25607 0.28846 0.35637 0.0
C1790 C 0.20148 0.27696 0.36707 0.0
C1791 C 0.19168 0.28781 0.36289 0.0
C1792 C 0.19036 0.2911 0.34955 0.0
C1793 C 0.19853 0.28276 0.34045 0.0
C1794 C 0.20835 0.27194 0.34465 0.0
H1795 H 0.27313 0.29535 0.35914 0.0
H1796 H 0.25313 0.28596 0.34545 0.0
H1797 H 0.25143 0.29987 0.35995 0.0
H1798 H 0.2027 0.27497 0.37743 0.0
H1799 H 0.18549 0.29394 0.37016 0.0
H1800 H 0.6613 0.51386 0.74513 0.0
H1801 H 0.68869 0.53529 0.73167 0.0
H1802 H 0.64801 0.55412 0.71289 0.0
H1803 H 0.62051 0.53291 0.72655 0.0
H1804 H 0.68612 0.53246 0.7031 0.0
H1805 H 0.70313 0.60986 0.72697 0.0
H1806 H 0.68921 0.5861 0.73464 0.0
H1807 H 0.67627 0.59109 0.72117 0.0
C1808 C 0.65824 0.52276 0.73826 0.0
C1809 C 0.63881 0.52187 0.73701 0.0
C1810 C 0.67384 0.53483 0.73049 0.0
C1811 C 0.6704 0.54636 0.72136 0.0
C1812 C 0.65101 0.54545 0.71998 0.0
H1813 H 0.76117 0.61117 0.66493 0.0
H1814 H 0.72812 0.58904 0.67396 0.0
C1815 C 0.6353 0.53326 0.72773 0.0
C1816 C 0.68734 0.55937 0.71342 0.0
H1817 H 0.72358 0.60999 0.71023 0.0
C1818 C 0.69418 0.54942 0.70451 0.0
C1819 C 0.69785 0.58146 0.7154 0.0
C1820 C 0.69142 0.59288 0.72511 0.0
C1821 C 0.71161 0.56101 0.69773 0.0
C1822 C 0.72234 0.58309 0.69989 0.0
C1823 C 0.71519 0.59304 0.70856 0.0
C1824 C 0.7421 0.59612 0.6942 0.0
C1825 C 0.71898 0.54961 0.68875 0.0
C1826 C 0.7608 0.60745 0.7026 0.0
C1827 C 0.77962 0.62002 0.69751 0.0
C1828 C 0.78013 0.62164 0.68388 0.0
C1829 C 0.76134 0.61021 0.67545 0.0
C1830 C 0.74246 0.59754 0.68058 0.0
H1831 H 0.71078 0.53256 0.68963 0.0
H1832 H 0.71604 0.55181 0.67837 0.0
H1833 H 0.73608 0.55611 0.691 0.0
H1834 H 0.76083 0.60655 0.71313 0.0
H1835 H 0.79373 0.62861 0.70432 0.0
H1836 H 0.49385 0.1067 0.71319 0.0
H1837 H 0.47035 0.11822 0.70439 0.0
H1838 H 0.45217 0.12246 0.74323 0.0
H1839 H 0.47546 0.11066 0.75212 0.0
H1840 H 0.42655 0.09749 0.70561 0.0
H1841 H 0.46611 0.17902 0.73023 0.0
H1842 H 0.47915 0.164 0.72897 0.0
H1843 H 0.46098 0.15915 0.74096 0.0
C1844 C 0.48488 0.11008 0.71989 0.0
C1845 C 0.48652 0.10768 0.73337 0.0
C1846 C 0.47152 0.11677 0.71484 0.0
C1847 C 0.45966 0.12138 0.72317 0.0
C1848 C 0.46148 0.11936 0.73667 0.0
H1849 H 0.36585 0.15793 0.70719 0.0
H1850 H 0.38997 0.14836 0.71774 0.0
C1851 C 0.47483 0.11263 0.74173 0.0
C1852 C 0.44456 0.12718 0.71755 0.0
H1853 H 0.43322 0.16654 0.71793 0.0
C1854 C 0.42803 0.1126 0.70828 0.0
C1855 C 0.44643 0.14683 0.72114 0.0
C1856 C 0.4642 0.16327 0.73079 0.0
C1857 C 0.41325 0.1171 0.70252 0.0
C1858 C 0.41532 0.1369 0.70591 0.0
C1859 C 0.43169 0.15139 0.71532 0.0
C1860 C 0.40091 0.14301 0.69955 0.0
C1861 C 0.39536 0.10045 0.69302 0.0
C1862 C 0.39931 0.14352 0.68585 0.0
C1863 C 0.38551 0.14889 0.67978 0.0
C1864 C 0.37313 0.15408 0.6873 0.0
C1865 C 0.37508 0.15397 0.70108 0.0
C1866 C 0.38888 0.14852 0.70714 0.0
H1867 H 0.39261 0.08458 0.6944 0.0
H1868 H 0.38067 0.10064 0.6942 0.0
H1869 H 0.39917 0.10341 0.68277 0.0
H1870 H 0.40879 0.13979 0.67982 0.0
H1871 H 0.38461 0.14899 0.66917 0.0
H1872 H 0.91085 0.39995 0.73421 0.0
H1873 H 0.89156 0.36229 0.72727 0.0
H1874 H 0.94485 0.36762 0.70922 0.0
H1875 H 0.96451 0.40512 0.71654 0.0
H1876 H 0.88099 0.34214 0.7021 0.0
H1877 H 0.93051 0.31967 0.73148 0.0
H1878 H 0.9323 0.34478 0.73463 0.0
H1879 H 0.94505 0.34012 0.72149 0.0
C1880 C 0.9186 0.39306 0.72896 0.0
C1881 C 0.93927 0.40554 0.72598 0.0
C1882 C 0.9075 0.37156 0.72492 0.0
C1883 C 0.91688 0.36212 0.71791 0.0
C1884 C 0.93745 0.37452 0.71486 0.0
H1885 H 0.8592 0.24594 0.6672 0.0
H1886 H 0.8757 0.28224 0.67696 0.0
C1887 C 0.94858 0.396 0.7189 0.0
C1888 C 0.90489 0.33943 0.71333 0.0
H1889 H 0.90598 0.29409 0.71433 0.0
C1890 C 0.88635 0.33159 0.70485 0.0
C1891 C 0.91175 0.32564 0.7171 0.0
C1892 C 0.93088 0.33291 0.72678 0.0
C1893 C 0.87482 0.31043 0.6997 0.0
C1894 C 0.88225 0.29687 0.70294 0.0
C1895 C 0.90043 0.30457 0.71175 0.0
C1896 C 0.8717 0.27477 0.69706 0.0
C1897 C 0.85473 0.30278 0.6909 0.0
C1898 C 0.86437 0.25853 0.70515 0.0
C1899 C 0.85506 0.23771 0.69961 0.0
C1900 C 0.85301 0.23279 0.68587 0.0
C1901 C 0.86038 0.24913 0.6778 0.0
C1902 C 0.86972 0.26992 0.68336 0.0
H1903 H 0.84815 0.31322 0.69253 0.0
H1904 H 0.8579 0.30257 0.68044 0.0
H1905 H 0.84279 0.28668 0.69258 0.0
H1906 H 0.86588 0.26197 0.71576 0.0
H1907 H 0.84961 0.22552 0.70611 0.0
H1908 H 0.18099 0.92949 0.63547 0.0
H1909 H 0.20317 0.96662 0.64353 0.0
H1910 H 0.21675 0.98085 0.60387 0.0
H1911 H 0.19489 0.94374 0.59572 0.0
H1912 H 0.24663 0.99268 0.64044 0.0
H1913 H 0.19741 0.02166 0.61752 0.0
H1914 H 0.18738 0.99439 0.61951 0.0
H1915 H 0.20326 0.00582 0.60649 0.0
C1916 C 0.18876 0.94049 0.62846 0.0
C1917 C 0.18613 0.93363 0.61494 0.0
C1918 C 0.20133 0.9617 0.63308 0.0
C1919 C 0.21136 0.97646 0.62427 0.0
C1920 C 0.20879 0.96973 0.61078 0.0
H1921 H 0.29518 0.11095 0.6332 0.0
H1922 H 0.27263 0.07399 0.62488 0.0
C1923 C 0.19626 0.94852 0.60615 0.0
C1924 C 0.22511 0.99882 0.62926 0.0
H1925 H 0.23093 0.04725 0.62788 0.0
C1926 C 0.24319 0.00463 0.63775 0.0
C1927 C 0.22058 0.01432 0.62566 0.0
C1928 C 0.20102 0.0088 0.61688 0.0
C1929 C 0.25707 0.02563 0.6426 0.0
C1930 C 0.25247 0.04114 0.63908 0.0
C1931 C 0.2344 0.03532 0.63056 0.0
C1932 C 0.26616 0.0635 0.64418 0.0
C1933 C 0.27676 0.03107 0.6512 0.0
C1934 C 0.26977 0.06987 0.65778 0.0
C1935 C 0.2827 0.09095 0.66258 0.0
C1936 C 0.29212 0.1061 0.65384 0.0
C1937 C 0.28822 0.0997 0.6402 0.0
C1938 C 0.27532 0.07858 0.63542 0.0
H1939 H 0.28078 0.01853 0.64997 0.0
H1940 H 0.29023 0.04594 0.64894 0.0
H1941 H 0.27438 0.03302 0.6617 0.0
H1942 H 0.26246 0.05854 0.6647 0.0
H1943 H 0.28523 0.09536 0.67313 0.0
H1944 H 0.02218 0.20332 0.59728 0.0
H1945 H 0.98814 0.19143 0.60566 0.0
H1946 H 0.01466 0.24869 0.63184 0.0
H1947 H 0.04851 0.26081 0.6234 0.0
H1948 H 0.97841 0.18648 0.63274 0.0
H1949 H 0.96236 0.24444 0.61118 0.0
H1950 H 0.9816 0.23844 0.60554 0.0
H1951 H 0.98758 0.25542 0.62051 0.0
C1952 C 0.0207 0.21343 0.60475 0.0
C1953 C 0.03806 0.23302 0.60967 0.0
C1954 C 0.0013 0.20657 0.60957 0.0
C1955 C 0.99885 0.21928 0.61927 0.0
C1956 C 0.01615 0.23875 0.62425 0.0
H1957 H 0.90229 0.19082 0.67131 0.0
H1958 H 0.93454 0.19943 0.6615 0.0
C1959 C 0.03554 0.24556 0.6195 0.0
C1960 C 0.97828 0.21222 0.6243 0.0
H1961 H 0.93996 0.22468 0.62673 0.0
C1962 C 0.96992 0.19474 0.63138 0.0
C1963 C 0.96716 0.2229 0.62238 0.0
C1964 C 0.97499 0.24124 0.61439 0.0
C1965 C 0.95096 0.18798 0.63689 0.0
C1966 C 0.94022 0.19913 0.63536 0.0
C1967 C 0.94832 0.21628 0.62799 0.0
C1968 C 0.92053 0.1933 0.64133 0.0
C1969 C 0.9425 0.16889 0.64421 0.0
C1970 C 0.90202 0.18732 0.63325 0.0
C1971 C 0.88357 0.18244 0.63882 0.0
C1972 C 0.88329 0.18362 0.6526 0.0
C1973 C 0.9019 0.18967 0.66067 0.0
C1974 C 0.92034 0.19448 0.65508 0.0
H1975 H 0.94969 0.15923 0.64173 0.0
H1976 H 0.94605 0.1739 0.65497 0.0
H1977 H 0.92525 0.15903 0.64193 0.0
H1978 H 0.90185 0.18642 0.62262 0.0
H1979 H 0.86957 0.17791 0.63229 0.0
H1980 H 0.80926 0.82877 0.60711 0.0
H1981 H 0.81412 0.80404 0.61924 0.0
H1982 H 0.7498 0.77438 0.62755 0.0
H1983 H 0.74454 0.79868 0.61495 0.0
H1984 H 0.80922 0.7959 0.64528 0.0
H1985 H 0.75472 0.72572 0.61033 0.0
H1986 H 0.76381 0.75201 0.60636 0.0
H1987 H 0.7438 0.74062 0.61722 0.0
C1988 C 0.79606 0.81687 0.6114 0.0
C1989 C 0.77643 0.8155 0.60991 0.0
C1990 C 0.79893 0.80287 0.61843 0.0
C1991 C 0.78226 0.78723 0.62413 0.0
C1992 C 0.76277 0.78615 0.62303 0.0
H1993 H 0.80636 0.70946 0.67572 0.0
H1994 H 0.79466 0.73266 0.66762 0.0
C1995 C 0.75986 0.80016 0.61595 0.0
C1996 C 0.78544 0.7719 0.63095 0.0
H1997 H 0.77197 0.72051 0.62849 0.0
C1998 C 0.80095 0.77937 0.64172 0.0
C1999 C 0.77471 0.7504 0.62617 0.0
C2000 C 0.75844 0.74164 0.61433 0.0
C2001 C 0.80645 0.766 0.64762 0.0
C2002 C 0.79586 0.74454 0.64275 0.0
C2003 C 0.77995 0.73697 0.63222 0.0
C2004 C 0.80219 0.73001 0.64772 0.0
C2005 C 0.82417 0.77513 0.65861 0.0
C2006 C 0.80981 0.72046 0.63913 0.0
C2007 C 0.81635 0.70712 0.64368 0.0
C2008 C 0.81539 0.70305 0.65693 0.0
C2009 C 0.80746 0.71241 0.66549 0.0
C2010 C 0.80084 0.72573 0.66089 0.0
H2011 H 0.83345 0.79248 0.65932 0.0
H2012 H 0.81767 0.77075 0.66814 0.0
H2013 H 0.83483 0.76887 0.65716 0.0
H2014 H 0.81094 0.72356 0.62892 0.0
H2015 H 0.8223 0.70015 0.6368 0.0
H2016 H 0.05794 0.82184 0.63087 0.0
H2017 H 0.02465 0.8037 0.64033 0.0
H2018 H 0.99966 0.75554 0.60735 0.0
H2019 H 0.03275 0.77367 0.59773 0.0
H2020 H 0.98267 0.79088 0.62942 0.0
H2021 H 0.99255 0.72377 0.6402 0.0
H2022 H 0.01393 0.74829 0.63648 0.0
H2023 H 0.99522 0.72966 0.62343 0.0
C2024 C 0.04527 0.80754 0.62553 0.0
C2025 C 0.04807 0.79912 0.61358 0.0
C2026 C 0.0263 0.79716 0.63098 0.0
C2027 C 0.00985 0.77813 0.62464 0.0
C2028 C 0.01234 0.77001 0.61253 0.0
H2029 H 0.88669 0.68446 0.63856 0.0
H2030 H 0.91992 0.70684 0.6302 0.0
C2031 C 0.03126 0.78037 0.60706 0.0
C2032 C 0.9902 0.76651 0.63077 0.0
H2033 H 0.95939 0.72018 0.64283 0.0
C2034 C 0.9776 0.77549 0.63245 0.0
C2035 C 0.98374 0.74649 0.63476 0.0
C2036 C 0.99713 0.73651 0.63376 0.0
C2037 C 0.95827 0.7646 0.63758 0.0
C2038 C 0.95164 0.7444 0.64133 0.0
C2039 C 0.96448 0.73564 0.63989 0.0
C2040 C 0.93109 0.7316 0.64629 0.0
C2041 C 0.94481 0.77449 0.63855 0.0
C2042 C 0.9263 0.73812 0.65814 0.0
C2043 C 0.90719 0.72533 0.66298 0.0
C2044 C 0.89266 0.70572 0.6561 0.0
C2045 C 0.89752 0.69939 0.64418 0.0
C2046 C 0.91652 0.71217 0.63935 0.0
H2047 H 0.94992 0.78782 0.63256 0.0
H2048 H 0.92816 0.76282 0.63525 0.0
H2049 H 0.94589 0.78046 0.64898 0.0
H2050 H 0.93749 0.7529 0.66377 0.0
H2051 H 0.90398 0.73064 0.67221 0.0
H2052 H 0.1976 0.24406 0.58872 0.0
H2053 H 0.22075 0.23147 0.59652 0.0
H2054 H 0.18213 0.20419 0.62758 0.0
H2055 H 0.159 0.21688 0.61996 0.0
H2056 H 0.24319 0.24208 0.62149 0.0
H2057 H 0.18937 0.15633 0.61155 0.0
H2058 H 0.18414 0.17495 0.60419 0.0
H2059 H 0.17907 0.16984 0.62091 0.0
C2060 C 0.19399 0.23534 0.59721 0.0
C2061 C 0.17643 0.2315 0.60372 0.0
C2062 C 0.20719 0.22808 0.6016 0.0
C2063 C 0.20303 0.21669 0.61253 0.0
C2064 C 0.18538 0.21256 0.61895 0.0
H2065 H 0.26507 0.16964 0.66156 0.0
H2066 H 0.24141 0.17921 0.65057 0.0
C2067 C 0.17217 0.21983 0.61457 0.0
C2068 C 0.21784 0.21022 0.61769 0.0
H2069 H 0.22133 0.16776 0.62501 0.0
C2070 C 0.23849 0.22582 0.62214 0.0
C2071 C 0.21163 0.189 0.61856 0.0
C2072 C 0.1899 0.17152 0.61344 0.0
C2073 C 0.25295 0.22084 0.62783 0.0
C2074 C 0.24669 0.19963 0.62885 0.0
C2075 C 0.2261 0.184 0.62422 0.0
C2076 C 0.26101 0.19341 0.63516 0.0
C2077 C 0.27458 0.23838 0.63312 0.0
C2078 C 0.27977 0.19791 0.63003 0.0
C2079 C 0.29344 0.19253 0.63633 0.0
C2080 C 0.28851 0.18239 0.64783 0.0
C2081 C 0.26945 0.17748 0.65275 0.0
C2082 C 0.25585 0.18292 0.64647 0.0
H2083 H 0.27527 0.25371 0.63444 0.0
H2084 H 0.27976 0.23536 0.64273 0.0
H2085 H 0.2858 0.23955 0.62606 0.0
H2086 H 0.28386 0.20561 0.62115 0.0
H2087 H 0.30788 0.19636 0.63219 0.0
H2088 H 0.78977 0.95228 0.62708 0.0
H2089 H 0.79299 0.98456 0.63741 0.0
H2090 H 0.74481 0.97835 0.6085 0.0
H2091 H 0.74193 0.94633 0.59787 0.0
H2092 H 0.78101 0.0167 0.6105 0.0
H2093 H 0.75636 0.99703 0.66013 0.0
H2094 H 0.77581 0.99065 0.65589 0.0
H2095 H 0.75038 0.9773 0.64659 0.0
C2096 C 0.77971 0.95767 0.623 0.0
C2097 C 0.76567 0.94681 0.61162 0.0
C2098 C 0.78139 0.97599 0.62901 0.0
C2099 C 0.76896 0.98371 0.62381 0.0
C2100 C 0.75442 0.97254 0.61272 0.0
H2101 H 0.78022 0.10635 0.64134 0.0
H2102 H 0.76748 0.07003 0.63267 0.0
C2103 C 0.75271 0.95419 0.60671 0.0
C2104 C 0.77274 0.00451 0.62911 0.0
H2105 H 0.77578 0.03354 0.65741 0.0
C2106 C 0.77957 0.02033 0.6207 0.0
C2107 C 0.77092 0.00918 0.64244 0.0
C2108 C 0.76277 0.99259 0.65176 0.0
C2109 C 0.78544 0.04092 0.62539 0.0
C2110 C 0.78411 0.0457 0.63879 0.0
C2111 C 0.77682 0.02979 0.64714 0.0
C2112 C 0.79111 0.06733 0.64443 0.0
C2113 C 0.79382 0.05755 0.61609 0.0
C2114 C 0.80828 0.07764 0.65414 0.0
C2115 C 0.81558 0.09835 0.65915 0.0
C2116 C 0.80574 0.10912 0.65458 0.0
C2117 C 0.78825 0.09858 0.64502 0.0
C2118 C 0.78097 0.07785 0.64002 0.0
H2119 H 0.79799 0.0522 0.60695 0.0
H2120 H 0.7817 0.06159 0.61323 0.0
H2121 H 0.80788 0.07199 0.62094 0.0
H2122 H 0.81627 0.06974 0.65768 0.0
H2123 H 0.82901 0.10594 0.66655 0.0
H2124 H 0.47792 0.38438 0.74705 0.0
H2125 H 0.44916 0.35243 0.73468 0.0
H2126 H 0.48965 0.35547 0.70533 0.0
H2127 H 0.5184 0.3876 0.71748 0.0
H2128 H 0.4311 0.34323 0.7064 0.0
H2129 H 0.46908 0.29798 0.72078 0.0
H2130 H 0.4762 0.3231 0.72934 0.0
H2131 H 0.4852 0.32162 0.71361 0.0
C2132 C 0.48061 0.3785 0.73783 0.0
C2133 C 0.50053 0.38842 0.73332 0.0
C2134 C 0.46418 0.36021 0.73081 0.0
C2135 C 0.46742 0.35151 0.71922 0.0
C2136 C 0.48697 0.36183 0.71438 0.0
H2137 H 0.39695 0.23296 0.67046 0.0
H2138 H 0.42282 0.26837 0.68015 0.0
C2139 C 0.50338 0.38012 0.72136 0.0
C2140 C 0.45076 0.33101 0.71257 0.0
H2141 H 0.43832 0.28021 0.70594 0.0
C2142 C 0.43259 0.3294 0.70629 0.0
C2143 C 0.45284 0.31308 0.7125 0.0
C2144 C 0.47179 0.31386 0.71949 0.0
C2145 C 0.41654 0.31031 0.69965 0.0
C2146 C 0.41862 0.29234 0.69959 0.0
C2147 C 0.43679 0.29401 0.70595 0.0
C2148 C 0.40223 0.27156 0.69302 0.0
C2149 C 0.39777 0.30965 0.69252 0.0
C2150 C 0.38201 0.2616 0.69701 0.0
C2151 C 0.36711 0.24135 0.69143 0.0
C2152 C 0.37227 0.23061 0.68189 0.0
C2153 C 0.39246 0.24075 0.67781 0.0
C2154 C 0.40728 0.261 0.68333 0.0
H2155 H 0.40119 0.32548 0.69041 0.0
H2156 H 0.39245 0.29923 0.68309 0.0
H2157 H 0.38474 0.30349 0.69881 0.0
H2158 H 0.37791 0.26926 0.70469 0.0
H2159 H 0.35174 0.23395 0.69485 0.0
H2160 H 0.61596 0.12465 0.72089 0.0
H2161 H 0.6486 0.13704 0.71071 0.0
H2162 H 0.66844 0.10654 0.73772 0.0
H2163 H 0.63597 0.09418 0.74799 0.0
H2164 H 0.69099 0.16159 0.72132 0.0
H2165 H 0.67173 0.08184 0.70143 0.0
H2166 H 0.65249 0.08731 0.70766 0.0
H2167 H 0.67063 0.08492 0.71888 0.0
C2168 C 0.62739 0.1208 0.72478 0.0
C2169 C 0.62325 0.10824 0.73519 0.0
C2170 C 0.64599 0.12781 0.7189 0.0
C2171 C 0.66076 0.12236 0.72328 0.0
C2172 C 0.65703 0.1105 0.73397 0.0
H2173 H 0.77912 0.14146 0.70142 0.0
H2174 H 0.74733 0.13273 0.71169 0.0
C2175 C 0.63846 0.10345 0.73983 0.0
C2176 C 0.67994 0.1288 0.71657 0.0
H2177 H 0.70622 0.10938 0.69985 0.0
C2178 C 0.69429 0.15021 0.71655 0.0
C2179 C 0.68416 0.1139 0.71031 0.0
C2180 C 0.66887 0.09071 0.70943 0.0
C2181 C 0.71307 0.15711 0.71078 0.0
C2182 C 0.71741 0.14219 0.70468 0.0
C2183 C 0.70292 0.1208 0.70457 0.0
C2184 C 0.73706 0.14832 0.69858 0.0
C2185 C 0.72837 0.18028 0.71157 0.0
C2186 C 0.74184 0.15993 0.68773 0.0
C2187 C 0.76007 0.16499 0.68179 0.0
C2188 C 0.7738 0.15838 0.68654 0.0
C2189 C 0.76893 0.14677 0.69744 0.0
C2190 C 0.75074 0.14176 0.70336 0.0
H2191 H 0.72509 0.18933 0.71921 0.0
H2192 H 0.74469 0.18369 0.71383 0.0
H2193 H 0.7272 0.18582 0.70192 0.0
H2194 H 0.73131 0.16482 0.68372 0.0
H2195 H 0.76328 0.17387 0.67339 0.0
H2196 H 0.95684 0.56768 0.72925 0.0
H2197 H 0.93795 0.58352 0.71948 0.0
H2198 H 0.89873 0.52662 0.69361 0.0
H2199 H 0.91771 0.51067 0.70326 0.0
H2200 H 0.93342 0.58922 0.69249 0.0
H2201 H 0.85667 0.53913 0.71106 0.0
H2202 H 0.88055 0.54079 0.71789 0.0
H2203 H 0.86763 0.52571 0.70228 0.0
C2204 C 0.9443 0.55856 0.72142 0.0
C2205 C 0.93879 0.53791 0.71703 0.0
C2206 C 0.93346 0.5676 0.7159 0.0
C2207 C 0.91682 0.55616 0.70594 0.0
C2208 C 0.91128 0.53557 0.70147 0.0
H2209 H 0.83772 0.59814 0.66648 0.0
H2210 H 0.85322 0.57687 0.67234 0.0
C2211 C 0.92214 0.5265 0.707 0.0
C2212 C 0.90569 0.56611 0.7001 0.0
H2213 H 0.85893 0.56488 0.69784 0.0
C2214 C 0.9171 0.58384 0.69359 0.0
C2215 C 0.88436 0.55891 0.70147 0.0
C2216 C 0.87154 0.54018 0.70862 0.0
C2217 C 0.90787 0.59485 0.68862 0.0
C2218 C 0.88678 0.58813 0.69042 0.0
C2219 C 0.87512 0.56997 0.69651 0.0
C2220 C 0.87709 0.60066 0.68691 0.0
C2221 C 0.92081 0.61367 0.68157 0.0
C2222 C 0.88515 0.62086 0.69336 0.0
C2223 C 0.87637 0.63298 0.69008 0.0
C2224 C 0.85926 0.62513 0.6803 0.0
C2225 C 0.85093 0.60469 0.67401 0.0
C2226 C 0.85975 0.59252 0.67734 0.0
H2227 H 0.93428 0.6132 0.67772 0.0
H2228 H 0.91119 0.61475 0.67323 0.0
H2229 H 0.9271 0.62807 0.68858 0.0
H2230 H 0.89827 0.62726 0.70096 0.0
H2231 H 0.88313 0.64859 0.6952 0.0
H2232 H 0.45852 0.91927 0.18885 0.0
H2233 H 0.46645 0.92928 0.16666 0.0
H2234 H 0.46719 0.98686 0.17738 0.0
H2235 H 0.46008 0.9774 0.19968 0.0
H2236 H 0.44528 0.93894 0.14733 0.0
H2237 H 0.52411 0.0071 0.16385 0.0
H2238 H 0.50952 0.98741 0.17443 0.0
H2239 H 0.50352 0.00769 0.17188 0.0
C2240 C 0.46048 0.93412 0.18651 0.0
C2241 C 0.4588 0.94758 0.1961 0.0
C2242 C 0.46488 0.93975 0.1738 0.0
C2243 C 0.4678 0.95899 0.17044 0.0
C2244 C 0.46542 0.97213 0.17983 0.0
H2245 H 0.49774 0.02467 0.10095 0.0
H2246 H 0.48832 0.01292 0.12257 0.0
C2247 C 0.46106 0.96654 0.19254 0.0
C2248 C 0.47351 0.96543 0.15717 0.0
H2249 H 0.51116 0.00356 0.14144 0.0
C2250 C 0.45973 0.953 0.14603 0.0
C2251 C 0.49241 0.98376 0.1555 0.0
C2252 C 0.50835 0.99718 0.16703 0.0
C2253 C 0.4641 0.95869 0.13326 0.0
C2254 C 0.48289 0.97713 0.13161 0.0
C2255 C 0.49672 0.98947 0.14275 0.0
C2256 C 0.48847 0.98403 0.11842 0.0
C2257 C 0.44836 0.9452 0.12167 0.0
C2258 C 0.49196 0.9718 0.10897 0.0
C2259 C 0.49753 0.97855 0.09662 0.0
C2260 C 0.49979 0.99772 0.0935 0.0
C2261 C 0.49642 0.00997 0.10306 0.0
C2262 C 0.4909 0.00322 0.1154 0.0
H2263 H 0.43275 0.93452 0.1248 0.0
H2264 H 0.44661 0.95499 0.11451 0.0
H2265 H 0.45388 0.9355 0.11652 0.0
H2266 H 0.49062 0.95715 0.1112 0.0
H2267 H 0.50035 0.96889 0.08959 0.0
H2268 H 0.05295 0.5545 0.19783 0.0
H2269 H 0.03565 0.54622 0.17533 0.0
H2270 H 0.01935 0.48182 0.17585 0.0
H2271 H 0.03706 0.49002 0.19828 0.0
H2272 H 0.04926 0.52701 0.15423 0.0
H2273 H 0.96433 0.48122 0.16032 0.0
H2274 H 0.98352 0.49971 0.17339 0.0
H2275 H 0.98175 0.47496 0.16934 0.0
C2276 C 0.04559 0.53854 0.1932 0.0
C2277 C 0.04656 0.52296 0.19979 0.0
C2278 C 0.0356 0.53383 0.1804 0.0
C2279 C 0.0262 0.51343 0.17402 0.0
C2280 C 0.02631 0.49761 0.18072 0.0
H2281 H 0.96975 0.46202 0.09325 0.0
H2282 H 0.98109 0.46652 0.11687 0.0
C2283 C 0.0364 0.50232 0.19353 0.0
C2284 C 0.01818 0.50927 0.15993 0.0
H2285 H 0.9735 0.48518 0.13855 0.0
C2286 C 0.03271 0.51789 0.15077 0.0
C2287 C 0.99662 0.49715 0.15553 0.0
C2288 C 0.98053 0.48775 0.16511 0.0
C2289 C 0.02624 0.51473 0.13724 0.0
C2290 C 0.00461 0.50311 0.13282 0.0
C2291 C 0.99007 0.49418 0.14199 0.0
C2292 C 0.99686 0.50033 0.11873 0.0
C2293 C 0.04269 0.52356 0.12781 0.0
C2294 C 0.00157 0.51783 0.11206 0.0
C2295 C 0.99525 0.51532 0.09861 0.0
C2296 C 0.98383 0.49523 0.09162 0.0
C2297 C 0.97848 0.47768 0.09841 0.0
C2298 C 0.98496 0.48022 0.11187 0.0
H2299 H 0.05809 0.52647 0.13226 0.0
H2300 H 0.03804 0.51284 0.11855 0.0
H2301 H 0.04473 0.53873 0.12527 0.0
H2302 H 0.01027 0.53346 0.11726 0.0
H2303 H 0.99923 0.52909 0.09367 0.0
H2304 H 0.47137 0.53272 0.19775 0.0
H2305 H 0.4756 0.53157 0.1742 0.0
H2306 H 0.46299 0.46815 0.17377 0.0
H2307 H 0.45869 0.46917 0.19727 0.0
H2308 H 0.50495 0.5256 0.16278 0.0
H2309 H 0.42532 0.46361 0.14165 0.0
H2310 H 0.43083 0.47627 0.15829 0.0
H2311 H 0.43644 0.45564 0.15453 0.0
C2312 C 0.46935 0.51848 0.19261 0.0
C2313 C 0.46466 0.50102 0.19937 0.0
C2314 C 0.4717 0.51782 0.17915 0.0
C2315 C 0.46934 0.49969 0.17219 0.0
C2316 C 0.46437 0.48213 0.17886 0.0
H2317 H 0.49425 0.46703 0.09541 0.0
H2318 H 0.48571 0.46837 0.11809 0.0
C2319 C 0.46193 0.48275 0.19231 0.0
C2320 C 0.47351 0.49962 0.15818 0.0
H2321 H 0.45229 0.47365 0.12737 0.0
C2322 C 0.49337 0.51438 0.15502 0.0
C2323 C 0.45839 0.48493 0.14808 0.0
C2324 C 0.43648 0.46934 0.15076 0.0
C2325 C 0.49871 0.51451 0.14207 0.0
C2326 C 0.48369 0.49964 0.13202 0.0
C2327 C 0.46376 0.48499 0.13513 0.0
C2328 C 0.48853 0.49883 0.11823 0.0
C2329 C 0.52055 0.53016 0.13932 0.0
C2330 C 0.49271 0.51543 0.11078 0.0
C2331 C 0.49766 0.51475 0.09784 0.0
C2332 C 0.49851 0.49743 0.09213 0.0
C2333 C 0.49404 0.48072 0.0996 0.0
C2334 C 0.48901 0.48138 0.11251 0.0
H2335 H 0.53146 0.5375 0.14851 0.0
H2336 H 0.52683 0.52261 0.13272 0.0
H2337 H 0.52012 0.54274 0.13427 0.0
H2338 H 0.49217 0.52893 0.11498 0.0
H2339 H 0.50113 0.52791 0.09238 0.0
H2340 H 0.02821 0.53518 0.80519 0.0
H2341 H 0.03073 0.53857 0.82931 0.0
H2342 H 0.96356 0.50114 0.82754 0.0
H2343 H 0.96091 0.49709 0.80344 0.0
H2344 H 0.01268 0.55463 0.84702 0.0
H2345 H 0.98456 0.47043 0.8504 0.0
H2346 H 0.99292 0.4824 0.83545 0.0
H2347 H 0.96748 0.47556 0.84011 0.0
C2348 C 0.01398 0.52755 0.80993 0.0
C2349 C 0.99437 0.51572 0.80239 0.0
C2350 C 0.01544 0.52965 0.82371 0.0
C2351 C 0.99736 0.51988 0.83018 0.0
C2352 C 0.97773 0.50855 0.82271 0.0
H2353 H 0.97944 0.50446 0.91279 0.0
H2354 H 0.97405 0.50619 0.88918 0.0
C2355 C 0.97624 0.50643 0.80894 0.0
C2356 C 0.9991 0.52116 0.84476 0.0
H2357 H 0.99024 0.49148 0.8703 0.0
C2358 C 0.00777 0.54085 0.85213 0.0
C2359 C 0.99267 0.50313 0.85138 0.0
C2360 C 0.98405 0.48169 0.84396 0.0
C2361 C 0.01004 0.54296 0.86599 0.0
C2362 C 0.00377 0.52494 0.87259 0.0
C2363 C 0.99493 0.50525 0.8652 0.0
C2364 C 0.00691 0.52607 0.88713 0.0
C2365 C 0.0189 0.56439 0.87343 0.0
C2366 C 0.02717 0.53689 0.89384 0.0
C2367 C 0.0303 0.53604 0.90735 0.0
C2368 C 0.01323 0.52424 0.91439 0.0
C2369 C 0.9929 0.51393 0.90771 0.0
C2370 C 0.98979 0.51478 0.8942 0.0
H2371 H 0.01736 0.57537 0.86721 0.0
H2372 H 0.01098 0.56363 0.88242 0.0
H2373 H 0.03579 0.57087 0.87652 0.0
H2374 H 0.04063 0.54539 0.88853 0.0
H2375 H 0.04613 0.54427 0.91222 0.0
H2376 H 0.51606 0.46103 0.81604 0.0
H2377 H 0.50707 0.47243 0.83628 0.0
H2378 H 0.55915 0.53488 0.83587 0.0
H2379 H 0.56889 0.52332 0.81588 0.0
H2380 H 0.55902 0.52178 0.85939 0.0
H2381 H 0.47946 0.50606 0.84389 0.0
H2382 H 0.48139 0.48321 0.84002 0.0
H2383 H 0.49684 0.50638 0.83217 0.0
C2384 C 0.52559 0.47723 0.82021 0.0
C2385 C 0.5433 0.49122 0.81437 0.0
C2386 C 0.52022 0.48381 0.83169 0.0
C2387 C 0.53222 0.50461 0.8375 0.0
C2388 C 0.54956 0.5188 0.8315 0.0
H2389 H 0.48936 0.53825 0.90866 0.0
H2390 H 0.50062 0.53872 0.88655 0.0
C2391 C 0.55502 0.51219 0.82002 0.0
C2392 C 0.52772 0.51086 0.85046 0.0
H2393 H 0.48793 0.50733 0.86733 0.0
C2394 C 0.54357 0.51896 0.86107 0.0
C2395 C 0.50769 0.50759 0.85265 0.0
C2396 C 0.49047 0.50056 0.84153 0.0
C2397 C 0.5396 0.52272 0.87392 0.0
C2398 C 0.51909 0.51773 0.87629 0.0
C2399 C 0.50357 0.51082 0.86557 0.0
C2400 C 0.51313 0.51835 0.88985 0.0
C2401 C 0.55743 0.53185 0.88483 0.0
C2402 C 0.51621 0.50659 0.89899 0.0
C2403 C 0.50993 0.5064 0.9116 0.0
C2404 C 0.50011 0.51771 0.91529 0.0
C2405 C 0.49684 0.52935 0.90609 0.0
C2406 C 0.50331 0.52967 0.89348 0.0
H2407 H 0.57271 0.54138 0.88096 0.0
H2408 H 0.55553 0.54181 0.89259 0.0
H2409 H 0.55792 0.51895 0.88941 0.0
H2410 H 0.52312 0.49718 0.8963 0.0
H2411 H 0.51225 0.49692 0.91836 0.0
H2412 H 0.54635 0.03687 0.81134 0.0
H2413 H 0.54055 0.02566 0.83341 0.0
H2414 H 0.51028 0.0616 0.84063 0.0
H2415 H 0.51589 0.07276 0.81852 0.0
H2416 H 0.55307 0.04749 0.85805 0.0
H2417 H 0.46641 0.00414 0.84873 0.0
H2418 H 0.48301 0.01345 0.83566 0.0
H2419 H 0.47831 0.0311 0.84584 0.0
C2420 C 0.53865 0.04258 0.81767 0.0
C2421 C 0.53148 0.05563 0.81313 0.0
C2422 C 0.53526 0.03607 0.83027 0.0
C2423 C 0.5246 0.04244 0.83859 0.0
C2424 C 0.51803 0.05602 0.83426 0.0
H2425 H 0.48879 0.01756 0.91781 0.0
H2426 H 0.49662 0.03147 0.89652 0.0
C2427 C 0.52131 0.06244 0.82163 0.0
C2428 C 0.52035 0.03478 0.85176 0.0
H2429 H 0.48095 0.00771 0.87071 0.0
C2430 C 0.5373 0.03874 0.8608 0.0
C2431 C 0.49975 0.0233 0.85534 0.0
C2432 C 0.4808 0.01755 0.84585 0.0
C2433 C 0.53423 0.03179 0.87336 0.0
C2434 C 0.51366 0.02041 0.87694 0.0
C2435 C 0.49672 0.01651 0.86795 0.0
C2436 C 0.50934 0.01221 0.88993 0.0
C2437 C 0.55302 0.03694 0.88281 0.0
C2438 C 0.51372 0.99662 0.89322 0.0
C2439 C 0.50923 0.98861 0.90537 0.0
C2440 C 0.50031 0.99608 0.91447 0.0
C2441 C 0.49591 0.01167 0.9111 0.0
C2442 C 0.50027 0.01956 0.89892 0.0
H2443 H 0.56774 0.04962 0.87973 0.0
H2444 H 0.55118 0.04176 0.89293 0.0
H2445 H 0.5545 0.02281 0.88314 0.0
H2446 H 0.52045 0.99052 0.88635 0.0
H2447 H 0.51294 0.97672 0.90769 0.0
H2448 H 0.10625 0.29555 0.52896 0.0
H2449 H 0.11289 0.30446 0.50647 0.0
H2450 H 0.1532 0.27816 0.50549 0.0
H2451 H 0.14705 0.26958 0.52806 0.0
H2452 H 0.15372 0.33104 0.49841 0.0
H2453 H 0.11339 0.25164 0.4706 0.0
H2454 H 0.10792 0.25663 0.48701 0.0
H2455 H 0.13118 0.25554 0.48469 0.0
C2456 C 0.11652 0.29163 0.52397 0.0
C2457 C 0.12614 0.28186 0.53037 0.0
C2458 C 0.1202 0.29664 0.51109 0.0
C2459 C 0.13337 0.29179 0.50428 0.0
C2460 C 0.14268 0.28169 0.51049 0.0
H2461 H 0.18121 0.31522 0.42799 0.0
H2462 H 0.17199 0.30362 0.44972 0.0
C2463 C 0.13909 0.27675 0.5234 0.0
C2464 C 0.13836 0.29843 0.49098 0.0
H2465 H 0.13395 0.28005 0.45871 0.0
C2466 C 0.14931 0.31992 0.48971 0.0
C2467 C 0.13273 0.28387 0.47969 0.0
C2468 C 0.12051 0.26061 0.48047 0.0
C2469 C 0.1551 0.32727 0.47747 0.0
C2470 C 0.14931 0.31271 0.46612 0.0
C2471 C 0.13835 0.2912 0.46741 0.0
C2472 C 0.15455 0.3195 0.45284 0.0
C2473 C 0.16789 0.35057 0.4769 0.0
C2474 C 0.14752 0.332 0.44728 0.0
C2475 C 0.15284 0.33872 0.4349 0.0
C2476 C 0.16507 0.33283 0.42775 0.0
C2477 C 0.17168 0.31992 0.43322 0.0
C2478 C 0.16647 0.31332 0.44564 0.0
H2479 H 0.17601 0.35911 0.48673 0.0
H2480 H 0.17978 0.35441 0.46985 0.0
H2481 H 0.15736 0.35637 0.47357 0.0
H2482 H 0.13783 0.3365 0.45248 0.0
H2483 H 0.14717 0.34832 0.43085 0.0
H2484 H 0.71463 0.81995 0.52325 0.0
H2485 H 0.69487 0.80946 0.50139 0.0
H2486 H 0.66436 0.84387 0.51246 0.0
H2487 H 0.6841 0.85447 0.53438 0.0
H2488 H 0.65135 0.78897 0.49185 0.0
H2489 H 0.69558 0.87166 0.48101 0.0
H2490 H 0.70329 0.86259 0.49505 0.0
H2491 H 0.68192 0.86751 0.49543 0.0
C2492 C 0.70336 0.8249 0.52114 0.0
C2493 C 0.70107 0.83822 0.53048 0.0
C2494 C 0.69214 0.81893 0.50863 0.0
C2495 C 0.67846 0.8262 0.50526 0.0
C2496 C 0.67516 0.83844 0.51481 0.0
H2497 H 0.62092 0.82745 0.4292 0.0
H2498 H 0.62922 0.82877 0.45283 0.0
C2499 C 0.68644 0.84448 0.52731 0.0
C2500 C 0.66898 0.82234 0.49147 0.0
H2501 H 0.66974 0.84728 0.4645 0.0
C2502 C 0.65526 0.80168 0.48586 0.0
C2503 C 0.67427 0.839 0.48369 0.0
C2504 C 0.6897 0.86143 0.48902 0.0
C2505 C 0.64653 0.79725 0.47264 0.0
C2506 C 0.65196 0.81391 0.46486 0.0
C2507 C 0.66552 0.83455 0.47053 0.0
C2508 C 0.64444 0.81048 0.45067 0.0
C2509 C 0.63146 0.77484 0.46715 0.0
C2510 C 0.65002 0.79953 0.44162 0.0
C2511 C 0.64516 0.7986 0.42807 0.0
C2512 C 0.63474 0.80875 0.42334 0.0
C2513 C 0.62865 0.81918 0.43248 0.0
C2514 C 0.63349 0.82007 0.446 0.0
H2515 H 0.62454 0.76479 0.47512 0.0
H2516 H 0.61861 0.77368 0.46031 0.0
H2517 H 0.63995 0.76863 0.46157 0.0
H2518 H 0.65883 0.79236 0.445 0.0
H2519 H 0.64992 0.79031 0.42129 0.0
H2520 H 0.12236 0.8546 0.53155 0.0
H2521 H 0.12519 0.85444 0.50781 0.0
H2522 H 0.1541 0.81656 0.51035 0.0
H2523 H 0.15067 0.81601 0.53394 0.0
H2524 H 0.16119 0.86985 0.49562 0.0
H2525 H 0.10934 0.78533 0.47928 0.0
H2526 H 0.10937 0.79713 0.49532 0.0
H2527 H 0.12908 0.7904 0.49237 0.0
C2528 C 0.12894 0.84589 0.52701 0.0
C2529 C 0.13625 0.83528 0.53465 0.0
C2530 C 0.13068 0.84594 0.51346 0.0
C2531 C 0.13961 0.83527 0.50728 0.0
C2532 C 0.14679 0.82457 0.51486 0.0
H2533 H 0.1993 0.85548 0.43585 0.0
H2534 H 0.19022 0.85496 0.45845 0.0
C2535 C 0.14505 0.82449 0.52838 0.0
C2536 C 0.14246 0.83621 0.49306 0.0
H2537 H 0.13237 0.80575 0.46396 0.0
C2538 C 0.15472 0.85585 0.48866 0.0
C2539 C 0.13377 0.81796 0.48396 0.0
C2540 C 0.11948 0.79653 0.48793 0.0
C2541 C 0.15914 0.85768 0.4755 0.0
C2542 C 0.15139 0.83936 0.46657 0.0
C2543 C 0.13851 0.81977 0.47086 0.0
C2544 C 0.15687 0.84011 0.45283 0.0
C2545 C 0.17202 0.87923 0.47127 0.0
C2546 C 0.14111 0.83151 0.44217 0.0
C2547 C 0.14624 0.83152 0.42923 0.0
C2548 C 0.16724 0.84003 0.42671 0.0
C2549 C 0.18297 0.84866 0.43744 0.0
C2550 C 0.17783 0.84861 0.45036 0.0
H2551 H 0.1714 0.89131 0.47796 0.0
H2552 H 0.18861 0.88323 0.47159 0.0
H2553 H 0.16657 0.87988 0.46105 0.0
H2554 H 0.12482 0.8247 0.44387 0.0
H2555 H 0.13371 0.82446 0.42122 0.0
H2556 H 0.62585 0.82923 0.1351 0.0
H2557 H 0.62802 0.83124 0.15919 0.0
H2558 H 0.69258 0.84705 0.1609 0.0
H2559 H 0.69081 0.84589 0.13692 0.0
H2560 H 0.63693 0.80787 0.1753 0.0
H2561 H 0.69568 0.89199 0.18741 0.0
H2562 H 0.68215 0.88093 0.17108 0.0
H2563 H 0.70436 0.87858 0.17653 0.0
C2564 C 0.64062 0.8335 0.14062 0.0
C2565 C 0.65819 0.83747 0.13408 0.0
C2566 C 0.64178 0.8345 0.15437 0.0
C2567 C 0.66054 0.8396 0.16185 0.0
C2568 C 0.67806 0.84351 0.15535 0.0
H2569 H 0.70386 0.84007 0.24143 0.0
H2570 H 0.69805 0.8403 0.21769 0.0
C2571 C 0.67694 0.84257 0.14162 0.0
C2572 C 0.66163 0.84 0.17639 0.0
H2573 H 0.68937 0.87057 0.20501 0.0
C2574 C 0.64821 0.82164 0.18182 0.0
C2575 C 0.67631 0.85803 0.18487 0.0
C2576 C 0.6903 0.87856 0.17969 0.0
C2577 C 0.64964 0.82061 0.19548 0.0
C2578 C 0.66478 0.83842 0.20387 0.0
C2579 C 0.67786 0.85691 0.1985 0.0
C2580 C 0.66787 0.83797 0.21824 0.0
C2581 C 0.63547 0.80031 0.20083 0.0
C2582 C 0.65281 0.83666 0.22639 0.0
C2583 C 0.65617 0.83677 0.24002 0.0
C2584 C 0.67467 0.83819 0.24571 0.0
C2585 C 0.68961 0.83932 0.23743 0.0
C2586 C 0.68628 0.83932 0.22385 0.0
H2587 H 0.62678 0.78713 0.19287 0.0
H2588 H 0.64468 0.79629 0.20779 0.0
H2589 H 0.62393 0.80209 0.20636 0.0
H2590 H 0.6386 0.83586 0.22223 0.0
H2591 H 0.64448 0.83618 0.24611 0.0
H2592 H 0.17832 0.78869 0.14729 0.0
H2593 H 0.16978 0.79967 0.16789 0.0
H2594 H 0.22277 0.86178 0.16819 0.0
H2595 H 0.232 0.85063 0.14783 0.0
H2596 H 0.22207 0.84735 0.1915 0.0
H2597 H 0.14346 0.83453 0.17613 0.0
H2598 H 0.1449 0.81147 0.17193 0.0
H2599 H 0.16081 0.83485 0.16439 0.0
C2600 C 0.18815 0.80472 0.1517 0.0
C2601 C 0.20593 0.81874 0.14592 0.0
C2602 C 0.18306 0.81106 0.1634 0.0
C2603 C 0.19543 0.83165 0.16951 0.0
C2604 C 0.2129 0.84586 0.16361 0.0
H2605 H 0.15616 0.86987 0.24057 0.0
H2606 H 0.16657 0.86844 0.21838 0.0
C2607 C 0.21807 0.8395 0.15191 0.0
C2608 C 0.19108 0.83772 0.18257 0.0
H2609 H 0.152 0.83596 0.19948 0.0
C2610 C 0.20683 0.84515 0.1932 0.0
C2611 C 0.17134 0.83521 0.18479 0.0
C2612 C 0.15425 0.8288 0.17366 0.0
C2613 C 0.20307 0.84917 0.20606 0.0
C2614 C 0.18285 0.84515 0.20843 0.0
C2615 C 0.16741 0.83873 0.19771 0.0
C2616 C 0.17715 0.84661 0.22198 0.0
C2617 C 0.22083 0.85763 0.21699 0.0
C2618 C 0.17939 0.83465 0.23132 0.0
C2619 C 0.17356 0.83551 0.24398 0.0
C2620 C 0.16507 0.84814 0.24753 0.0
C2621 C 0.16259 0.85994 0.23812 0.0
C2622 C 0.16858 0.85918 0.22546 0.0
H2623 H 0.23625 0.86629 0.21311 0.0
H2624 H 0.21963 0.86824 0.22463 0.0
H2625 H 0.22037 0.8444 0.22172 0.0
H2626 H 0.18534 0.82433 0.22876 0.0
H2627 H 0.17525 0.82589 0.25091 0.0
H2628 H 0.16526 0.35449 0.1398 0.0
H2629 H 0.16035 0.34477 0.16218 0.0
H2630 H 0.21541 0.40337 0.17726 0.0
H2631 H 0.22001 0.41363 0.15488 0.0
H2632 H 0.18691 0.33986 0.17958 0.0
H2633 H 0.17228 0.40174 0.20077 0.0
H2634 H 0.17162 0.39604 0.18324 0.0
H2635 H 0.19625 0.41129 0.19331 0.0
C2636 C 0.17615 0.36552 0.14788 0.0
C2637 C 0.19292 0.38497 0.14551 0.0
C2638 C 0.1734 0.35984 0.16067 0.0
C2639 C 0.18732 0.37345 0.17143 0.0
C2640 C 0.20422 0.39278 0.16914 0.0
H2641 H 0.19318 0.35917 0.25548 0.0
H2642 H 0.20022 0.3719 0.23383 0.0
C2643 C 0.20697 0.39852 0.15632 0.0
C2644 C 0.18434 0.36699 0.18495 0.0
H2645 H 0.17498 0.37976 0.21556 0.0
C2646 C 0.18428 0.34858 0.18744 0.0
C2647 C 0.18098 0.37842 0.19522 0.0
C2648 C 0.18009 0.39787 0.19302 0.0
C2649 C 0.181 0.3413 0.19989 0.0
C2650 C 0.17737 0.35256 0.2101 0.0
C2651 C 0.17774 0.37115 0.2077 0.0
C2652 C 0.17278 0.34506 0.22327 0.0
C2653 C 0.18169 0.32173 0.20207 0.0
C2654 C 0.1548 0.32593 0.22454 0.0
C2655 C 0.15063 0.31867 0.2369 0.0
C2656 C 0.16434 0.33043 0.24828 0.0
C2657 C 0.18216 0.34979 0.24697 0.0
C2658 C 0.18629 0.35706 0.2346 0.0
H2659 H 0.18986 0.31806 0.19449 0.0
H2660 H 0.18968 0.32329 0.21197 0.0
H2661 H 0.16546 0.30831 0.20146 0.0
H2662 H 0.14392 0.31664 0.21597 0.0
H2663 H 0.13656 0.30391 0.23756 0.0
H2664 H 0.83082 0.64299 0.86851 0.0
H2665 H 0.8371 0.65176 0.84601 0.0
H2666 H 0.77579 0.60016 0.83155 0.0
H2667 H 0.7694 0.59109 0.85408 0.0
H2668 H 0.83674 0.62648 0.82403 0.0
H2669 H 0.7771 0.65022 0.81554 0.0
H2670 H 0.78583 0.64754 0.83179 0.0
H2671 H 0.76758 0.62471 0.82086 0.0
C2672 C 0.81869 0.63337 0.86055 0.0
C2673 C 0.79961 0.61627 0.86312 0.0
C2674 C 0.82228 0.63849 0.8477 0.0
C2675 C 0.80685 0.62676 0.83713 0.0
C2676 C 0.78778 0.60966 0.8396 0.0
H2677 H 0.80553 0.64083 0.75302 0.0
H2678 H 0.7969 0.62831 0.77458 0.0
C2679 C 0.78415 0.6045 0.85248 0.0
C2680 C 0.81103 0.6323 0.82352 0.0
H2681 H 0.79554 0.64992 0.79755 0.0
C2682 C 0.82773 0.6316 0.81823 0.0
C2683 C 0.7992 0.63889 0.81597 0.0
C2684 C 0.78152 0.64059 0.82132 0.0
C2685 C 0.83292 0.63727 0.80558 0.0
C2686 C 0.82133 0.64422 0.79811 0.0
C2687 C 0.80442 0.64461 0.80331 0.0
C2688 C 0.8268 0.65158 0.78499 0.0
C2689 C 0.85059 0.63552 0.80025 0.0
C2690 C 0.84641 0.66894 0.7837 0.0
C2691 C 0.85144 0.67606 0.77138 0.0
C2692 C 0.83692 0.66603 0.7601 0.0
C2693 C 0.81722 0.64871 0.76145 0.0
C2694 C 0.81219 0.64162 0.77379 0.0
H2695 H 0.85388 0.62463 0.80546 0.0
H2696 H 0.847 0.63001 0.78954 0.0
H2697 H 0.86501 0.65114 0.80169 0.0
H2698 H 0.85778 0.67711 0.79226 0.0
H2699 H 0.86679 0.68934 0.77069 0.0
H2700 H 0.39648 0.16551 0.85204 0.0
H2701 H 0.3758 0.15478 0.83046 0.0
H2702 H 0.32756 0.16163 0.84764 0.0
H2703 H 0.3483 0.17259 0.86932 0.0
H2704 H 0.33072 0.12087 0.82233 0.0
H2705 H 0.34898 0.20261 0.81787 0.0
H2706 H 0.36442 0.19677 0.82929 0.0
H2707 H 0.33886 0.19138 0.8327 0.0
C2708 C 0.38142 0.16464 0.85123 0.0
C2709 C 0.37408 0.17009 0.86231 0.0
C2710 C 0.36958 0.15837 0.83894 0.0
C2711 C 0.35028 0.15757 0.8375 0.0
C2712 C 0.3425 0.16225 0.8486 0.0
H2713 H 0.28671 0.15459 0.76216 0.0
H2714 H 0.29361 0.15379 0.78568 0.0
C2715 C 0.35429 0.16841 0.86095 0.0
C2716 C 0.33916 0.15327 0.82418 0.0
H2717 H 0.33041 0.17773 0.79962 0.0
C2718 C 0.33039 0.13318 0.81737 0.0
C2719 C 0.33875 0.1694 0.81783 0.0
C2720 C 0.34832 0.19132 0.8247 0.0
C2721 C 0.32147 0.12888 0.80422 0.0
C2722 C 0.3219 0.14527 0.79765 0.0
C2723 C 0.33007 0.16517 0.80465 0.0
C2724 C 0.31537 0.1427 0.78333 0.0
C2725 C 0.31171 0.10685 0.7975 0.0
C2726 C 0.32507 0.13643 0.77415 0.0
C2727 C 0.3209 0.13654 0.76066 0.0
C2728 C 0.30722 0.14328 0.75607 0.0
C2729 C 0.29709 0.149 0.76529 0.0
C2730 C 0.30113 0.1487 0.77877 0.0
H2731 H 0.30605 0.09525 0.80477 0.0
H2732 H 0.2984 0.10311 0.79009 0.0
H2733 H 0.32367 0.10515 0.79241 0.0
H2734 H 0.33649 0.13221 0.77743 0.0
H2735 H 0.32878 0.13179 0.75385 0.0
H2736 H 0.77385 0.16233 0.86063 0.0
H2737 H 0.77689 0.15986 0.83692 0.0
H2738 H 0.83362 0.15788 0.84485 0.0
H2739 H 0.83026 0.15945 0.86841 0.0
H2740 H 0.80858 0.18706 0.82349 0.0
H2741 H 0.80081 0.10875 0.81674 0.0
H2742 H 0.79405 0.11806 0.83136 0.0
H2743 H 0.82091 0.12586 0.82962 0.0
C2744 C 0.78676 0.16099 0.8573 0.0
C2745 C 0.8018 0.16107 0.86643 0.0
C2746 C 0.78855 0.15972 0.84376 0.0
C2747 C 0.80531 0.15837 0.83911 0.0
C2748 C 0.82032 0.15846 0.84819 0.0
H2749 H 0.86068 0.16582 0.76698 0.0
H2750 H 0.85173 0.1648 0.78964 0.0
C2751 C 0.81852 0.15966 0.86169 0.0
C2752 C 0.80772 0.1578 0.82481 0.0
H2753 H 0.8148 0.1304 0.79942 0.0
C2754 C 0.80967 0.17455 0.81817 0.0
C2755 C 0.80908 0.14142 0.81789 0.0
C2756 C 0.80589 0.12241 0.82423 0.0
C2757 C 0.81375 0.17574 0.80493 0.0
C2758 C 0.81579 0.15971 0.79816 0.0
C2759 C 0.81337 0.14274 0.80469 0.0
C2760 C 0.82105 0.16055 0.78441 0.0
C2761 C 0.81657 0.19446 0.79836 0.0
C2762 C 0.80668 0.15837 0.77398 0.0
C2763 C 0.81164 0.15872 0.76098 0.0
C2764 C 0.83109 0.16126 0.75819 0.0
C2765 C 0.84546 0.16353 0.76872 0.0
C2766 C 0.84044 0.16307 0.78169 0.0
H2767 H 0.81797 0.20711 0.80556 0.0
H2768 H 0.83073 0.20081 0.79303 0.0
H2769 H 0.80286 0.18959 0.79102 0.0
H2770 H 0.79151 0.15611 0.77588 0.0
H2771 H 0.80007 0.15658 0.7531 0.0
H2772 H 0.29341 0.15602 0.46673 0.0
H2773 H 0.29388 0.15635 0.4907 0.0
H2774 H 0.36136 0.19004 0.49486 0.0
H2775 H 0.36105 0.19042 0.47096 0.0
H2776 H 0.31082 0.13924 0.50704 0.0
H2777 H 0.34815 0.22468 0.52108 0.0
H2778 H 0.33732 0.21265 0.50441 0.0
H2779 H 0.36286 0.21778 0.51061 0.0
C2780 C 0.30835 0.16382 0.47276 0.0
C2781 C 0.3272 0.17329 0.46694 0.0
C2782 C 0.30858 0.16386 0.48644 0.0
C2783 C 0.32764 0.17348 0.49455 0.0
C2784 C 0.34647 0.18289 0.48879 0.0
H2785 H 0.35668 0.15367 0.57287 0.0
H2786 H 0.35029 0.15342 0.54912 0.0
C2787 C 0.34627 0.18286 0.47512 0.0
C2788 C 0.32788 0.17293 0.50901 0.0
H2789 H 0.34678 0.20406 0.5384 0.0
C2790 C 0.31851 0.1534 0.51391 0.0
C2791 C 0.33763 0.19143 0.51794 0.0
C2792 C 0.34688 0.21282 0.51326 0.0
C2793 C 0.31929 0.15187 0.52751 0.0
C2794 C 0.33003 0.17037 0.53642 0.0
C2795 C 0.33873 0.1899 0.53154 0.0
C2796 C 0.33311 0.16984 0.5508 0.0
C2797 C 0.30859 0.13048 0.53222 0.0
C2798 C 0.32589 0.1795 0.55964 0.0
C2799 C 0.32974 0.1799 0.57324 0.0
C2800 C 0.34104 0.17079 0.57825 0.0
C2801 C 0.3481 0.161 0.56934 0.0
C2802 C 0.34424 0.16061 0.55576 0.0
H2803 H 0.29611 0.11863 0.52468 0.0
H2804 H 0.32028 0.12552 0.53416 0.0
H2805 H 0.30159 0.13063 0.5415 0.0
H2806 H 0.31741 0.18686 0.556 0.0
H2807 H 0.32433 0.18779 0.57984 0.0
H2808 H 0.90775 0.15049 0.49675 0.0
H2809 H 0.89496 0.1591 0.51635 0.0
H2810 H 0.84541 0.15887 0.49184 0.0
H2811 H 0.85791 0.14986 0.47214 0.0
H2812 H 0.88817 0.19366 0.52289 0.0
H2813 H 0.81511 0.11596 0.5184 0.0
H2814 H 0.83715 0.12052 0.50962 0.0
H2815 H 0.82027 0.13 0.50414 0.0
C2816 C 0.89411 0.15225 0.49553 0.0
C2817 C 0.88371 0.14929 0.48291 0.0
C2818 C 0.88691 0.15729 0.50672 0.0
C2819 C 0.8691 0.15934 0.50554 0.0
C2820 C 0.85904 0.15708 0.49295 0.0
H2821 H 0.80077 0.17127 0.56949 0.0
H2822 H 0.81201 0.16929 0.54765 0.0
C2823 C 0.8663 0.15211 0.48172 0.0
C2824 C 0.86087 0.16325 0.51759 0.0
H2825 H 0.8206 0.14001 0.53653 0.0
C2826 C 0.87333 0.18202 0.52584 0.0
C2827 C 0.84147 0.14805 0.52137 0.0
C2828 C 0.82771 0.12741 0.513 0.0
C2829 C 0.86703 0.18589 0.53788 0.0
C2830 C 0.84797 0.17036 0.54189 0.0
C2831 C 0.83521 0.15187 0.53345 0.0
C2832 C 0.84153 0.17248 0.5551 0.0
C2833 C 0.88082 0.20659 0.54617 0.0
C2834 C 0.85429 0.17474 0.56653 0.0
C2835 C 0.84798 0.176 0.57899 0.0
C2836 C 0.82866 0.17482 0.58031 0.0
C2837 C 0.81585 0.17249 0.56883 0.0
C2838 C 0.8222 0.17125 0.55635 0.0
H2839 H 0.89091 0.21888 0.54006 0.0
H2840 H 0.87138 0.21194 0.55145 0.0
H2841 H 0.89122 0.20482 0.5536 0.0
H2842 H 0.86905 0.17527 0.56581 0.0
H2843 H 0.85834 0.17802 0.5876 0.0
H2844 H 0.88102 0.70536 0.47796 0.0
H2845 H 0.87563 0.69435 0.50011 0.0
H2846 H 0.83939 0.72452 0.50591 0.0
H2847 H 0.84451 0.73537 0.4837 0.0
H2848 H 0.8857 0.71617 0.52451 0.0
H2849 H 0.79949 0.66598 0.51424 0.0
H2850 H 0.8162 0.67651 0.50135 0.0
H2851 H 0.80901 0.69257 0.51111 0.0
C2852 C 0.87206 0.70982 0.484 0.0
C2853 C 0.86307 0.72113 0.47904 0.0
C2854 C 0.86892 0.70344 0.49664 0.0
C2855 C 0.85674 0.70822 0.50458 0.0
C2856 C 0.84835 0.72013 0.49983 0.0
H2857 H 0.82109 0.68397 0.58377 0.0
H2858 H 0.82832 0.69717 0.56224 0.0
C2859 C 0.85135 0.72639 0.48716 0.0
C2860 C 0.8528 0.7007 0.5178 0.0
H2861 H 0.81386 0.67154 0.53653 0.0
C2862 C 0.87 0.70634 0.52712 0.0
C2863 C 0.83229 0.6878 0.52119 0.0
C2864 C 0.81319 0.68017 0.51141 0.0
C2865 C 0.86722 0.69973 0.53978 0.0
C2866 C 0.84674 0.68702 0.54317 0.0
C2867 C 0.82955 0.68138 0.53389 0.0
C2868 C 0.84279 0.67927 0.55629 0.0
C2869 C 0.88619 0.70663 0.54952 0.0
C2870 C 0.84837 0.66469 0.56002 0.0
C2871 C 0.84421 0.65707 0.57229 0.0
C2872 C 0.83444 0.66395 0.58109 0.0
C2873 C 0.82886 0.67856 0.57729 0.0
C2874 C 0.83289 0.68604 0.56498 0.0
H2875 H 0.90054 0.71971 0.54634 0.0
H2876 H 0.88372 0.71163 0.55941 0.0
H2877 H 0.88882 0.69328 0.55046 0.0
H2878 H 0.85581 0.65908 0.55338 0.0
H2879 H 0.84882 0.64595 0.57495 0.0
loop_
_geom_bond_atom_site_label_1
_geom_bond_atom_site_label_2
_geom_bond_distance
_geom_bond_site_symmetry_2
_ccdc_geom_bond_type
P0 O11 1.490 . S
P0 C14 1.812 . S
P0 C20 1.803 . S
P0 C26 1.819 . S
H1 C15 0.941 . S
H2 C16 0.939 . S
H3 C18 0.940 . S
H4 C19 0.940 . S
H5 C21 0.939 . S
H6 C22 0.942 . S
H7 C24 0.940 . S
H8 C25 0.939 . S
H9 C27 0.941 . S
H10 C31 0.939 . S
O11 P0 1.490 . S
H12 C28 0.939 . S
H13 C30 0.940 . S
C14 P0 1.812 . S
C14 C15 1.389 . S
C14 C19 1.391 . S
C15 H1 0.941 . S
C15 C14 1.389 . S
C15 C16 1.397 . S
C16 H2 0.939 . S
C16 C15 1.397 . S
C16 C17 1.378 . S
C17 C16 1.378 . S
C17 C18 1.378 . S
C18 H3 0.940 . S
C18 C17 1.378 . S
C18 C19 1.396 . S
C19 H4 0.940 . S
C19 C14 1.391 . S
C19 C18 1.396 . S
C20 P0 1.803 . S
C20 C21 1.378 . S
C20 C25 1.400 . S
C21 H5 0.939 . S
C21 C20 1.378 . S
C21 C22 1.361 . S
C22 H6 0.942 . S
C22 C21 1.361 . S
C22 C23 1.369 . S
C23 C22 1.369 . S
C23 C24 1.404 . S
C24 H7 0.940 . S
C24 C23 1.404 . S
C24 C25 1.389 . S
C25 H8 0.939 . S
C25 C20 1.400 . S
C25 C24 1.389 . S
C26 P0 1.819 . S
C26 C27 1.391 . S
C26 C31 1.391 . S
C27 H9 0.941 . S
C27 C26 1.391 . S
C27 C28 1.396 . S
C28 H12 0.939 . S
C28 C27 1.396 . S
C28 C29 1.397 . S
C29 C28 1.397 . S
C29 C30 1.385 . S
C30 H13 0.940 . S
C30 C29 1.385 . S
C30 C31 1.388 . S
C31 H10 0.939 . S
C31 C26 1.391 . S
C31 C30 1.388 . S
P32 O43 1.490 . S
P32 C46 1.812 . S
P32 C52 1.803 . S
P32 C58 1.819 . S
H33 C47 0.941 . S
H34 C48 0.939 . S
H35 C50 0.940 . S
H36 C51 0.940 . S
H37 C53 0.939 . S
H38 C54 0.942 . S
H39 C56 0.940 . S
H40 C57 0.939 . S
H41 C59 0.941 . S
H42 C63 0.939 . S
O43 P32 1.490 . S
H44 C60 0.939 . S
H45 C62 0.940 . S
C46 P32 1.812 . S
C46 C47 1.389 . S
C46 C51 1.391 . S
C47 H33 0.941 . S
C47 C46 1.389 . S
C47 C48 1.397 . S
C48 H34 0.939 . S
C48 C47 1.397 . S
C48 C49 1.378 . S
C49 C48 1.378 . S
C49 C50 1.378 . S
C50 H35 0.940 . S
C50 C49 1.378 . S
C50 C51 1.396 . S
C51 H36 0.940 . S
C51 C46 1.391 . S
C51 C50 1.396 . S
C52 P32 1.803 . S
C52 C53 1.378 . S
C52 C57 1.400 . S
C53 H37 0.939 . S
C53 C52 1.378 . S
C53 C54 1.361 . S
C54 H38 0.942 . S
C54 C53 1.361 . S
C54 C55 1.369 . S
C55 C54 1.369 . S
C55 C56 1.404 . S
C56 H39 0.940 . S
C56 C55 1.404 . S
C56 C57 1.389 . S
C57 H40 0.939 . S
C57 C52 1.400 . S
C57 C56 1.389 . S
C58 P32 1.819 . S
C58 C59 1.391 . S
C58 C63 1.391 . S
C59 H41 0.941 . S
C59 C58 1.391 . S
C59 C60 1.396 . S
C60 H44 0.939 . S
C60 C59 1.396 . S
C60 C61 1.397 . S
C61 C60 1.397 . S
C61 C62 1.385 . S
C62 H45 0.940 . S
C62 C61 1.385 . S
C62 C63 1.388 . S
C63 H42 0.939 . S
C63 C58 1.391 . S
C63 C62 1.388 . S
P64 O75 1.490 . S
P64 C78 1.812 . S
P64 C84 1.803 . S
P64 C90 1.819 . S
H65 C79 0.941 . S
H66 C80 0.939 . S
H67 C82 0.940 . S
H68 C83 0.940 . S
H69 C85 0.939 . S
H70 C86 0.942 . S
H71 C88 0.940 . S
H72 C89 0.939 . S
H73 C91 0.941 . S
H74 C95 0.939 . S
O75 P64 1.490 . S
H76 C92 0.939 . S
H77 C94 0.940 . S
C78 P64 1.812 . S
C78 C79 1.389 . S
C78 C83 1.391 . S
C79 H65 0.941 . S
C79 C78 1.389 . S
C79 C80 1.397 . S
C80 H66 0.939 . S
C80 C79 1.397 . S
C80 C81 1.378 . S
C81 C80 1.378 . S
C81 C82 1.378 . S
C82 H67 0.940 . S
C82 C81 1.378 . S
C82 C83 1.396 . S
C83 H68 0.940 . S
C83 C78 1.391 . S
C83 C82 1.396 . S
C84 P64 1.803 . S
C84 C85 1.378 . S
C84 C89 1.400 . S
C85 H69 0.939 . S
C85 C84 1.378 . S
C85 C86 1.361 . S
C86 H70 0.942 . S
C86 C85 1.361 . S
C86 C87 1.369 . S
C87 C86 1.369 . S
C87 C88 1.404 . S
C88 H71 0.940 . S
C88 C87 1.404 . S
C88 C89 1.389 . S
C89 H72 0.939 . S
C89 C84 1.400 . S
C89 C88 1.389 . S
C90 P64 1.819 . S
C90 C91 1.391 . S
C90 C95 1.391 . S
C91 H73 0.941 . S
C91 C90 1.391 . S
C91 C92 1.396 . S
C92 H76 0.939 . S
C92 C91 1.396 . S
C92 C93 1.397 . S
C93 C92 1.397 . S
C93 C94 1.385 . S
C94 H77 0.940 . S
C94 C93 1.385 . S
C94 C95 1.388 . S
C95 H74 0.939 . S
C95 C90 1.391 . S
C95 C94 1.388 . S
P96 O107 1.490 . S
P96 C110 1.812 . S
P96 C116 1.803 . S
P96 C122 1.819 . S
H97 C111 0.941 . S
H98 C112 0.939 . S
H99 C114 0.940 . S
H100 C115 0.940 . S
H101 C117 0.939 . S
H102 C118 0.942 . S
H103 C120 0.940 . S
H104 C121 0.939 . S
H105 C123 0.941 . S
H106 C127 0.939 . S
O107 P96 1.490 . S
H108 C124 0.939 . S
H109 C126 0.940 . S
C110 P96 1.812 . S
C110 C111 1.389 . S
C110 C115 1.391 . S
C111 H97 0.941 . S
C111 C110 1.389 . S
C111 C112 1.397 . S
C112 H98 0.939 . S
C112 C111 1.397 . S
C112 C113 1.378 . S
C113 C112 1.378 . S
C113 C114 1.378 . S
C114 H99 0.940 . S
C114 C113 1.378 . S
C114 C115 1.396 . S
C115 H100 0.940 . S
C115 C110 1.391 . S
C115 C114 1.396 . S
C116 P96 1.803 . S
C116 C117 1.378 . S
C116 C121 1.400 . S
C117 H101 0.939 . S
C117 C116 1.378 . S
C117 C118 1.361 . S
C118 H102 0.942 . S
C118 C117 1.361 . S
C118 C119 1.369 . S
C119 C118 1.369 . S
C119 C120 1.404 . S
C120 H103 0.940 . S
C120 C119 1.404 . S
C120 C121 1.389 . S
C121 H104 0.939 . S
C121 C116 1.400 . S
C121 C120 1.389 . S
C122 P96 1.819 . S
C122 C123 1.391 . S
C122 C127 1.391 . S
C123 H105 0.941 . S
C123 C122 1.391 . S
C123 C124 1.396 . S
C124 H108 0.939 . S
C124 C123 1.396 . S
C124 C125 1.397 . S
C125 C124 1.397 . S
C125 C126 1.385 . S
C126 H109 0.940 . S
C126 C125 1.385 . S
C126 C127 1.388 . S
C127 H106 0.939 . S
C127 C122 1.391 . S
C127 C126 1.388 . S
P128 O139 1.490 . S
P128 C142 1.812 . S
P128 C148 1.803 . S
P128 C154 1.819 . S
H129 C143 0.941 . S
H130 C144 0.939 . S
H131 C146 0.940 . S
H132 C147 0.940 . S
H133 C149 0.939 . S
H134 C150 0.942 . S
H135 C152 0.940 . S
H136 C153 0.939 . S
H137 C155 0.941 . S
H138 C159 0.939 . S
O139 P128 1.490 . S
H140 C156 0.939 . S
H141 C158 0.940 . S
C142 P128 1.812 . S
C142 C143 1.389 . S
C142 C147 1.391 . S
C143 H129 0.941 . S
C143 C142 1.389 . S
C143 C144 1.397 . S
C144 H130 0.939 . S
C144 C143 1.397 . S
C144 C145 1.378 . S
C145 C144 1.378 . S
C145 C146 1.378 . S
C146 H131 0.940 . S
C146 C145 1.378 . S
C146 C147 1.396 . S
C147 H132 0.940 . S
C147 C142 1.391 . S
C147 C146 1.396 . S
C148 P128 1.803 . S
C148 C149 1.378 . S
C148 C153 1.400 . S
C149 H133 0.939 . S
C149 C148 1.378 . S
C149 C150 1.361 . S
C150 H134 0.942 . S
C150 C149 1.361 . S
C150 C151 1.369 . S
C151 C150 1.369 . S
C151 C152 1.404 . S
C152 H135 0.940 . S
C152 C151 1.404 . S
C152 C153 1.389 . S
C153 H136 0.939 . S
C153 C148 1.400 . S
C153 C152 1.389 . S
C154 P128 1.819 . S
C154 C155 1.391 . S
C154 C159 1.391 . S
C155 H137 0.941 . S
C155 C154 1.391 . S
C155 C156 1.396 . S
C156 H140 0.939 . S
C156 C155 1.396 . S
C156 C157 1.397 . S
C157 C156 1.397 . S
C157 C158 1.385 . S
C158 H141 0.940 . S
C158 C157 1.385 . S
C158 C159 1.388 . S
C159 H138 0.939 . S
C159 C154 1.391 . S
C159 C158 1.388 . S
P160 O171 1.490 . S
P160 C174 1.812 . S
P160 C180 1.803 . S
P160 C186 1.819 . S
H161 C175 0.941 . S
H162 C176 0.939 . S
H163 C178 0.940 . S
H164 C179 0.940 . S
H165 C181 0.939 . S
H166 C182 0.942 . S
H167 C184 0.940 . S
H168 C185 0.939 . S
H169 C187 0.941 . S
H170 C191 0.939 . S
O171 P160 1.490 . S
H172 C188 0.939 . S
H173 C190 0.940 . S
C174 P160 1.812 . S
C174 C175 1.389 . S
C174 C179 1.391 . S
C175 H161 0.941 . S
C175 C174 1.389 . S
C175 C176 1.397 . S
C176 H162 0.939 . S
C176 C175 1.397 . S
C176 C177 1.378 . S
C177 C176 1.378 . S
C177 C178 1.378 . S
C178 H163 0.940 . S
C178 C177 1.378 . S
C178 C179 1.396 . S
C179 H164 0.940 . S
C179 C174 1.391 . S
C179 C178 1.396 . S
C180 P160 1.803 . S
C180 C181 1.378 . S
C180 C185 1.400 . S
C181 H165 0.939 . S
C181 C180 1.378 . S
C181 C182 1.361 . S
C182 H166 0.942 . S
C182 C181 1.361 . S
C182 C183 1.369 . S
C183 C182 1.369 . S
C183 C184 1.404 . S
C184 H167 0.940 . S
C184 C183 1.404 . S
C184 C185 1.389 . S
C185 H168 0.939 . S
C185 C180 1.400 . S
C185 C184 1.389 . S
C186 P160 1.819 . S
C186 C187 1.391 . S
C186 C191 1.391 . S
C187 H169 0.941 . S
C187 C186 1.391 . S
C187 C188 1.396 . S
C188 H172 0.939 . S
C188 C187 1.396 . S
C188 C189 1.397 . S
C189 C188 1.397 . S
C189 C190 1.385 . S
C190 H173 0.940 . S
C190 C189 1.385 . S
C190 C191 1.388 . S
C191 H170 0.939 . S
C191 C186 1.391 . S
C191 C190 1.388 . S
P192 O203 1.490 1_655 S
P192 C206 1.812 . S
P192 C212 1.803 . S
P192 C218 1.819 . S
H193 C207 0.941 . S
H194 C208 0.939 . S
H195 C210 0.940 . S
H196 C211 0.940 . S
H197 C213 0.939 . S
H198 C214 0.942 . S
H199 C216 0.940 . S
H200 C217 0.939 . S
H201 C219 0.941 1_455 S
H202 C223 0.939 . S
O203 P192 1.490 1_455 S
H204 C220 0.939 1_455 S
H205 C222 0.940 . S
C206 P192 1.812 . S
C206 C207 1.389 . S
C206 C211 1.391 . S
C207 H193 0.941 . S
C207 C206 1.389 . S
C207 C208 1.397 . S
C208 H194 0.939 . S
C208 C207 1.397 . S
C208 C209 1.378 . S
C209 C208 1.378 . S
C209 C210 1.378 . S
C210 H195 0.940 . S
C210 C209 1.378 . S
C210 C211 1.396 . S
C211 H196 0.940 . S
C211 C206 1.391 . S
C211 C210 1.396 . S
C212 P192 1.803 . S
C212 C213 1.378 . S
C212 C217 1.400 . S
C213 H197 0.939 . S
C213 C212 1.378 . S
C213 C214 1.361 . S
C214 H198 0.942 . S
C214 C213 1.361 . S
C214 C215 1.369 . S
C215 C214 1.369 . S
C215 C216 1.404 . S
C216 H199 0.940 . S
C216 C215 1.404 . S
C216 C217 1.389 . S
C217 H200 0.939 . S
C217 C212 1.400 . S
C217 C216 1.389 . S
C218 P192 1.819 . S
C218 C219 1.391 . S
C218 C223 1.391 . S
C219 H201 0.941 1_655 S
C219 C218 1.391 . S
C219 C220 1.396 . S
C220 H204 0.939 1_655 S
C220 C219 1.396 . S
C220 C221 1.397 . S
C221 C220 1.397 . S
C221 C222 1.385 . S
C222 H205 0.940 . S
C222 C221 1.385 . S
C222 C223 1.388 . S
C223 H202 0.939 . S
C223 C218 1.391 . S
C223 C222 1.388 . S
P224 O235 1.490 . S
P224 C238 1.812 . S
P224 C244 1.803 . S
P224 C250 1.819 . S
H225 C239 0.941 . S
H226 C240 0.939 . S
H227 C242 0.940 . S
H228 C243 0.940 . S
H229 C245 0.939 . S
H230 C246 0.942 . S
H231 C248 0.940 . S
H232 C249 0.939 . S
H233 C251 0.941 . S
H234 C255 0.939 . S
O235 P224 1.490 . S
H236 C252 0.939 . S
H237 C254 0.940 . S
C238 P224 1.812 . S
C238 C239 1.389 . S
C238 C243 1.391 . S
C239 H225 0.941 . S
C239 C238 1.389 . S
C239 C240 1.397 . S
C240 H226 0.939 . S
C240 C239 1.397 . S
C240 C241 1.378 . S
C241 C240 1.378 . S
C241 C242 1.378 . S
C242 H227 0.940 . S
C242 C241 1.378 . S
C242 C243 1.396 . S
C243 H228 0.940 . S
C243 C238 1.391 . S
C243 C242 1.396 . S
C244 P224 1.803 . S
C244 C245 1.378 . S
C244 C249 1.400 . S
C245 H229 0.939 . S
C245 C244 1.378 . S
C245 C246 1.361 . S
C246 H230 0.942 . S
C246 C245 1.361 . S
C246 C247 1.369 . S
C247 C246 1.369 . S
C247 C248 1.404 . S
C248 H231 0.940 . S
C248 C247 1.404 . S
C248 C249 1.389 . S
C249 H232 0.939 . S
C249 C244 1.400 . S
C249 C248 1.389 . S
C250 P224 1.819 . S
C250 C251 1.391 . S
C250 C255 1.391 . S
C251 H233 0.941 . S
C251 C250 1.391 . S
C251 C252 1.396 . S
C252 H236 0.939 . S
C252 C251 1.396 . S
C252 C253 1.397 . S
C253 C252 1.397 . S
C253 C254 1.385 . S
C254 H237 0.940 . S
C254 C253 1.385 . S
C254 C255 1.388 . S
C255 H234 0.939 . S
C255 C250 1.391 . S
C255 C254 1.388 . S
P256 O267 1.490 . S
P256 C270 1.812 . S
P256 C276 1.803 . S
P256 C282 1.819 . S
H257 C271 0.941 . S
H258 C272 0.939 . S
H259 C274 0.940 . S
H260 C275 0.940 . S
H261 C277 0.939 . S
H262 C278 0.942 . S
H263 C280 0.940 . S
H264 C281 0.939 . S
H265 C283 0.941 . S
H266 C287 0.939 . S
O267 P256 1.490 . S
H268 C284 0.939 . S
H269 C286 0.940 . S
C270 P256 1.812 . S
C270 C271 1.389 . S
C270 C275 1.391 . S
C271 H257 0.941 . S
C271 C270 1.389 . S
C271 C272 1.397 . S
C272 H258 0.939 . S
C272 C271 1.397 . S
C272 C273 1.378 . S
C273 C272 1.378 . S
C273 C274 1.378 . S
C274 H259 0.940 . S
C274 C273 1.378 . S
C274 C275 1.396 . S
C275 H260 0.940 . S
C275 C270 1.391 . S
C275 C274 1.396 . S
C276 P256 1.803 . S
C276 C277 1.378 . S
C276 C281 1.400 . S
C277 H261 0.939 . S
C277 C276 1.378 . S
C277 C278 1.361 . S
C278 H262 0.942 . S
C278 C277 1.361 . S
C278 C279 1.369 . S
C279 C278 1.369 . S
C279 C280 1.404 . S
C280 H263 0.940 . S
C280 C279 1.404 . S
C280 C281 1.389 . S
C281 H264 0.939 . S
C281 C276 1.400 . S
C281 C280 1.389 . S
C282 P256 1.819 . S
C282 C283 1.391 . S
C282 C287 1.391 . S
C283 H265 0.941 . S
C283 C282 1.391 . S
C283 C284 1.396 . S
C284 H268 0.939 . S
C284 C283 1.396 . S
C284 C285 1.397 . S
C285 C284 1.397 . S
C285 C286 1.385 . S
C286 H269 0.940 . S
C286 C285 1.385 . S
C286 C287 1.388 . S
C287 H266 0.939 . S
C287 C282 1.391 . S
C287 C286 1.388 . S
P288 O299 1.490 . S
P288 C302 1.812 . S
P288 C308 1.803 . S
P288 C314 1.819 . S
H289 C303 0.941 . S
H290 C304 0.939 . S
H291 C306 0.940 . S
H292 C307 0.940 . S
H293 C309 0.939 . S
H294 C310 0.942 . S
H295 C312 0.940 . S
H296 C313 0.939 . S
H297 C315 0.941 . S
H298 C319 0.939 . S
O299 P288 1.490 . S
H300 C316 0.939 . S
H301 C318 0.940 . S
C302 P288 1.812 . S
C302 C303 1.389 . S
C302 C307 1.391 . S
C303 H289 0.941 . S
C303 C302 1.389 . S
C303 C304 1.397 . S
C304 H290 0.939 . S
C304 C303 1.397 . S
C304 C305 1.378 . S
C305 C304 1.378 . S
C305 C306 1.378 . S
C306 H291 0.940 . S
C306 C305 1.378 . S
C306 C307 1.396 . S
C307 H292 0.940 . S
C307 C302 1.391 . S
C307 C306 1.396 . S
C308 P288 1.803 . S
C308 C309 1.378 . S
C308 C313 1.400 . S
C309 H293 0.939 . S
C309 C308 1.378 . S
C309 C310 1.361 . S
C310 H294 0.942 . S
C310 C309 1.361 . S
C310 C311 1.369 . S
C311 C310 1.369 . S
C311 C312 1.404 . S
C312 H295 0.940 . S
C312 C311 1.404 . S
C312 C313 1.389 . S
C313 H296 0.939 . S
C313 C308 1.400 . S
C313 C312 1.389 . S
C314 P288 1.819 . S
C314 C315 1.391 . S
C314 C319 1.391 . S
C315 H297 0.941 . S
C315 C314 1.391 . S
C315 C316 1.396 . S
C316 H300 0.939 . S
C316 C315 1.396 . S
C316 C317 1.397 . S
C317 C316 1.397 . S
C317 C318 1.385 . S
C318 H301 0.940 . S
C318 C317 1.385 . S
C318 C319 1.388 . S
C319 H298 0.939 . S
C319 C314 1.391 . S
C319 C318 1.388 . S
P320 O331 1.490 . S
P320 C334 1.812 . S
P320 C340 1.803 . S
P320 C346 1.819 . S
H321 C335 0.941 . S
H322 C336 0.939 . S
H323 C338 0.940 . S
H324 C339 0.940 . S
H325 C341 0.939 . S
H326 C342 0.942 . S
H327 C344 0.940 . S
H328 C345 0.939 . S
H329 C347 0.941 . S
H330 C351 0.939 . S
O331 P320 1.490 . S
H332 C348 0.939 . S
H333 C350 0.940 . S
C334 P320 1.812 . S
C334 C335 1.389 . S
C334 C339 1.391 . S
C335 H321 0.941 . S
C335 C334 1.389 . S
C335 C336 1.397 . S
C336 H322 0.939 . S
C336 C335 1.397 . S
C336 C337 1.378 . S
C337 C336 1.378 . S
C337 C338 1.378 . S
C338 H323 0.940 . S
C338 C337 1.378 . S
C338 C339 1.396 . S
C339 H324 0.940 . S
C339 C334 1.391 . S
C339 C338 1.396 . S
C340 P320 1.803 . S
C340 C341 1.378 . S
C340 C345 1.400 . S
C341 H325 0.939 . S
C341 C340 1.378 . S
C341 C342 1.361 . S
C342 H326 0.942 . S
C342 C341 1.361 . S
C342 C343 1.369 . S
C343 C342 1.369 . S
C343 C344 1.404 . S
C344 H327 0.940 . S
C344 C343 1.404 . S
C344 C345 1.389 . S
C345 H328 0.939 . S
C345 C340 1.400 . S
C345 C344 1.389 . S
C346 P320 1.819 . S
C346 C347 1.391 . S
C346 C351 1.391 . S
C347 H329 0.941 . S
C347 C346 1.391 . S
C347 C348 1.396 . S
C348 H332 0.939 . S
C348 C347 1.396 . S
C348 C349 1.397 . S
C349 C348 1.397 . S
C349 C350 1.385 . S
C350 H333 0.940 . S
C350 C349 1.385 . S
C350 C351 1.388 . S
C351 H330 0.939 . S
C351 C346 1.391 . S
C351 C350 1.388 . S
P352 O363 1.490 . S
P352 C366 1.812 . S
P352 C372 1.803 . S
P352 C378 1.819 . S
H353 C367 0.941 . S
H354 C368 0.939 . S
H355 C370 0.940 . S
H356 C371 0.940 . S
H357 C373 0.939 . S
H358 C374 0.942 . S
H359 C376 0.940 . S
H360 C377 0.939 . S
H361 C379 0.941 . S
H362 C383 0.939 . S
O363 P352 1.490 . S
H364 C380 0.939 . S
H365 C382 0.940 . S
C366 P352 1.812 . S
C366 C367 1.389 . S
C366 C371 1.391 . S
C367 H353 0.941 . S
C367 C366 1.389 . S
C367 C368 1.397 . S
C368 H354 0.939 . S
C368 C367 1.397 . S
C368 C369 1.378 . S
C369 C368 1.378 . S
C369 C370 1.378 . S
C370 H355 0.940 . S
C370 C369 1.378 . S
C370 C371 1.396 . S
C371 H356 0.940 . S
C371 C366 1.391 . S
C371 C370 1.396 . S
C372 P352 1.803 . S
C372 C373 1.378 . S
C372 C377 1.400 . S
C373 H357 0.939 . S
C373 C372 1.378 . S
C373 C374 1.361 . S
C374 H358 0.942 . S
C374 C373 1.361 . S
C374 C375 1.369 . S
C375 C374 1.369 . S
C375 C376 1.404 . S
C376 H359 0.940 . S
C376 C375 1.404 . S
C376 C377 1.389 . S
C377 H360 0.939 . S
C377 C372 1.400 . S
C377 C376 1.389 . S
C378 P352 1.819 . S
C378 C379 1.391 . S
C378 C383 1.391 . S
C379 H361 0.941 . S
C379 C378 1.391 . S
C379 C380 1.396 . S
C380 H364 0.939 . S
C380 C379 1.396 . S
C380 C381 1.397 . S
C381 C380 1.397 . S
C381 C382 1.385 . S
C382 H365 0.940 . S
C382 C381 1.385 . S
C382 C383 1.388 . S
C383 H362 0.939 . S
C383 C378 1.391 . S
C383 C382 1.388 . S
P384 O395 1.490 . S
P384 C398 1.812 . S
P384 C404 1.803 . S
P384 C410 1.819 . S
H385 C399 0.941 . S
H386 C400 0.939 . S
H387 C402 0.940 . S
H388 C403 0.940 . S
H389 C405 0.939 . S
H390 C406 0.942 . S
H391 C408 0.940 . S
H392 C409 0.939 . S
H393 C411 0.941 . S
H394 C415 0.939 . S
O395 P384 1.490 . S
H396 C412 0.939 . S
H397 C414 0.940 . S
C398 P384 1.812 . S
C398 C399 1.389 . S
C398 C403 1.391 . S
C399 H385 0.941 . S
C399 C398 1.389 . S
C399 C400 1.397 . S
C400 H386 0.939 . S
C400 C399 1.397 . S
C400 C401 1.378 . S
C401 C400 1.378 . S
C401 C402 1.378 . S
C402 H387 0.940 . S
C402 C401 1.378 . S
C402 C403 1.396 . S
C403 H388 0.940 . S
C403 C398 1.391 . S
C403 C402 1.396 . S
C404 P384 1.803 . S
C404 C405 1.378 . S
C404 C409 1.400 . S
C405 H389 0.939 . S
C405 C404 1.378 . S
C405 C406 1.361 . S
C406 H390 0.942 . S
C406 C405 1.361 . S
C406 C407 1.369 . S
C407 C406 1.369 . S
C407 C408 1.404 . S
C408 H391 0.940 . S
C408 C407 1.404 . S
C408 C409 1.389 . S
C409 H392 0.939 . S
C409 C404 1.400 . S
C409 C408 1.389 . S
C410 P384 1.819 . S
C410 C411 1.391 . S
C410 C415 1.391 . S
C411 H393 0.941 . S
C411 C410 1.391 . S
C411 C412 1.396 . S
C412 H396 0.939 . S
C412 C411 1.396 . S
C412 C413 1.397 . S
C413 C412 1.397 . S
C413 C414 1.385 . S
C414 H397 0.940 . S
C414 C413 1.385 . S
C414 C415 1.388 . S
C415 H394 0.939 . S
C415 C410 1.391 . S
C415 C414 1.388 . S
P416 O427 1.490 . S
P416 C430 1.812 . S
P416 C436 1.803 . S
P416 C442 1.819 . S
H417 C431 0.941 . S
H418 C432 0.939 . S
H419 C434 0.940 . S
H420 C435 0.940 . S
H421 C437 0.939 . S
H422 C438 0.942 . S
H423 C440 0.940 . S
H424 C441 0.939 . S
H425 C443 0.941 . S
H426 C447 0.939 . S
O427 P416 1.490 . S
H428 C444 0.939 . S
H429 C446 0.940 . S
C430 P416 1.812 . S
C430 C431 1.389 . S
C430 C435 1.391 . S
C431 H417 0.941 . S
C431 C430 1.389 . S
C431 C432 1.397 . S
C432 H418 0.939 . S
C432 C431 1.397 . S
C432 C433 1.378 . S
C433 C432 1.378 . S
C433 C434 1.378 . S
C434 H419 0.940 . S
C434 C433 1.378 . S
C434 C435 1.396 . S
C435 H420 0.940 . S
C435 C430 1.391 . S
C435 C434 1.396 . S
C436 P416 1.803 . S
C436 C437 1.378 . S
C436 C441 1.400 . S
C437 H421 0.939 . S
C437 C436 1.378 . S
C437 C438 1.361 . S
C438 H422 0.942 . S
C438 C437 1.361 . S
C438 C439 1.369 . S
C439 C438 1.369 . S
C439 C440 1.404 . S
C440 H423 0.940 . S
C440 C439 1.404 . S
C440 C441 1.389 . S
C441 H424 0.939 . S
C441 C436 1.400 . S
C441 C440 1.389 . S
C442 P416 1.819 . S
C442 C443 1.391 . S
C442 C447 1.391 . S
C443 H425 0.941 . S
C443 C442 1.391 . S
C443 C444 1.396 . S
C444 H428 0.939 . S
C444 C443 1.396 . S
C444 C445 1.397 . S
C445 C444 1.397 . S
C445 C446 1.385 . S
C446 H429 0.940 . S
C446 C445 1.385 . S
C446 C447 1.388 . S
C447 H426 0.939 . S
C447 C442 1.391 . S
C447 C446 1.388 . S
P448 O459 1.490 . S
P448 C462 1.812 . S
P448 C468 1.803 . S
P448 C474 1.819 . S
H449 C463 0.941 . S
H450 C464 0.939 . S
H451 C466 0.940 . S
H452 C467 0.940 . S
H453 C469 0.939 . S
H454 C470 0.942 . S
H455 C472 0.940 . S
H456 C473 0.939 . S
H457 C475 0.941 . S
H458 C479 0.939 . S
O459 P448 1.490 . S
H460 C476 0.939 . S
H461 C478 0.940 . S
C462 P448 1.812 . S
C462 C463 1.389 . S
C462 C467 1.391 . S
C463 H449 0.941 . S
C463 C462 1.389 . S
C463 C464 1.397 . S
C464 H450 0.939 . S
C464 C463 1.397 . S
C464 C465 1.378 . S
C465 C464 1.378 . S
C465 C466 1.378 . S
C466 H451 0.940 . S
C466 C465 1.378 . S
C466 C467 1.396 . S
C467 H452 0.940 . S
C467 C462 1.391 . S
C467 C466 1.396 . S
C468 P448 1.803 . S
C468 C469 1.378 . S
C468 C473 1.400 . S
C469 H453 0.939 . S
C469 C468 1.378 . S
C469 C470 1.361 . S
C470 H454 0.942 . S
C470 C469 1.361 . S
C470 C471 1.369 . S
C471 C470 1.369 . S
C471 C472 1.404 . S
C472 H455 0.940 . S
C472 C471 1.404 . S
C472 C473 1.389 . S
C473 H456 0.939 . S
C473 C468 1.400 . S
C473 C472 1.389 . S
C474 P448 1.819 . S
C474 C475 1.391 . S
C474 C479 1.391 . S
C475 H457 0.941 . S
C475 C474 1.391 . S
C475 C476 1.396 . S
C476 H460 0.939 . S
C476 C475 1.396 . S
C476 C477 1.397 . S
C477 C476 1.397 . S
C477 C478 1.385 . S
C478 H461 0.940 . S
C478 C477 1.385 . S
C478 C479 1.388 . S
C479 H458 0.939 . S
C479 C474 1.391 . S
C479 C478 1.388 . S
P480 O491 1.490 . S
P480 C494 1.812 . S
P480 C500 1.803 . S
P480 C506 1.819 . S
H481 C495 0.941 . S
H482 C496 0.939 . S
H483 C498 0.940 . S
H484 C499 0.940 . S
H485 C501 0.939 . S
H486 C502 0.942 . S
H487 C504 0.940 . S
H488 C505 0.939 . S
H489 C507 0.941 . S
H490 C511 0.939 . S
O491 P480 1.490 . S
H492 C508 0.939 . S
H493 C510 0.940 . S
C494 P480 1.812 . S
C494 C495 1.389 . S
C494 C499 1.391 . S
C495 H481 0.941 . S
C495 C494 1.389 . S
C495 C496 1.397 . S
C496 H482 0.939 . S
C496 C495 1.397 . S
C496 C497 1.378 . S
C497 C496 1.378 . S
C497 C498 1.378 . S
C498 H483 0.940 . S
C498 C497 1.378 . S
C498 C499 1.396 . S
C499 H484 0.940 . S
C499 C494 1.391 . S
C499 C498 1.396 . S
C500 P480 1.803 . S
C500 C501 1.378 . S
C500 C505 1.400 . S
C501 H485 0.939 . S
C501 C500 1.378 . S
C501 C502 1.361 . S
C502 H486 0.942 . S
C502 C501 1.361 . S
C502 C503 1.369 . S
C503 C502 1.369 . S
C503 C504 1.404 . S
C504 H487 0.940 . S
C504 C503 1.404 . S
C504 C505 1.389 . S
C505 H488 0.939 . S
C505 C500 1.400 . S
C505 C504 1.389 . S
C506 P480 1.819 . S
C506 C507 1.391 . S
C506 C511 1.391 . S
C507 H489 0.941 . S
C507 C506 1.391 . S
C507 C508 1.396 . S
C508 H492 0.939 . S
C508 C507 1.396 . S
C508 C509 1.397 . S
C509 C508 1.397 . S
C509 C510 1.385 . S
C510 H493 0.940 . S
C510 C509 1.385 . S
C510 C511 1.388 . S
C511 H490 0.939 . S
C511 C506 1.391 . S
C511 C510 1.388 . S
P512 O523 1.490 . S
P512 C526 1.812 . S
P512 C532 1.803 . S
P512 C538 1.819 . S
H513 C527 0.941 . S
H514 C528 0.939 . S
H515 C530 0.940 . S
H516 C531 0.940 . S
H517 C533 0.939 . S
H518 C534 0.942 . S
H519 C536 0.940 . S
H520 C537 0.939 . S
H521 C539 0.941 . S
H522 C543 0.939 . S
O523 P512 1.490 . S
H524 C540 0.939 . S
H525 C542 0.940 . S
C526 P512 1.812 . S
C526 C527 1.389 . S
C526 C531 1.391 . S
C527 H513 0.941 . S
C527 C526 1.389 . S
C527 C528 1.397 . S
C528 H514 0.939 . S
C528 C527 1.397 . S
C528 C529 1.378 . S
C529 C528 1.378 . S
C529 C530 1.378 . S
C530 H515 0.940 . S
C530 C529 1.378 . S
C530 C531 1.396 . S
C531 H516 0.940 . S
C531 C526 1.391 . S
C531 C530 1.396 . S
C532 P512 1.803 . S
C532 C533 1.378 . S
C532 C537 1.400 . S
C533 H517 0.939 . S
C533 C532 1.378 . S
C533 C534 1.361 . S
C534 H518 0.942 . S
C534 C533 1.361 . S
C534 C535 1.369 . S
C535 C534 1.369 . S
C535 C536 1.404 . S
C536 H519 0.940 . S
C536 C535 1.404 . S
C536 C537 1.389 . S
C537 H520 0.939 . S
C537 C532 1.400 . S
C537 C536 1.389 . S
C538 P512 1.819 . S
C538 C539 1.391 . S
C538 C543 1.391 . S
C539 H521 0.941 . S
C539 C538 1.391 . S
C539 C540 1.396 . S
C540 H524 0.939 . S
C540 C539 1.396 . S
C540 C541 1.397 . S
C541 C540 1.397 . S
C541 C542 1.385 . S
C542 H525 0.940 . S
C542 C541 1.385 . S
C542 C543 1.388 . S
C543 H522 0.939 . S
C543 C538 1.391 . S
C543 C542 1.388 . S
P544 O555 1.490 . S
P544 C558 1.812 . S
P544 C564 1.803 . S
P544 C570 1.819 . S
H545 C559 0.941 . S
H546 C560 0.939 . S
H547 C562 0.940 . S
H548 C563 0.940 . S
H549 C565 0.939 . S
H550 C566 0.942 . S
H551 C568 0.940 . S
H552 C569 0.939 . S
H553 C571 0.941 . S
H554 C575 0.939 . S
O555 P544 1.490 . S
H556 C572 0.939 . S
H557 C574 0.940 . S
C558 P544 1.812 . S
C558 C559 1.389 . S
C558 C563 1.391 . S
C559 H545 0.941 . S
C559 C558 1.389 . S
C559 C560 1.397 . S
C560 H546 0.939 . S
C560 C559 1.397 . S
C560 C561 1.378 . S
C561 C560 1.378 . S
C561 C562 1.378 . S
C562 H547 0.940 . S
C562 C561 1.378 . S
C562 C563 1.396 . S
C563 H548 0.940 . S
C563 C558 1.391 . S
C563 C562 1.396 . S
C564 P544 1.803 . S
C564 C565 1.378 . S
C564 C569 1.400 . S
C565 H549 0.939 . S
C565 C564 1.378 . S
C565 C566 1.361 . S
C566 H550 0.942 . S
C566 C565 1.361 . S
C566 C567 1.369 . S
C567 C566 1.369 . S
C567 C568 1.404 . S
C568 H551 0.940 . S
C568 C567 1.404 . S
C568 C569 1.389 . S
C569 H552 0.939 . S
C569 C564 1.400 . S
C569 C568 1.389 . S
C570 P544 1.819 . S
C570 C571 1.391 . S
C570 C575 1.391 . S
C571 H553 0.941 . S
C571 C570 1.391 . S
C571 C572 1.396 . S
C572 H556 0.939 . S
C572 C571 1.396 . S
C572 C573 1.397 . S
C573 C572 1.397 . S
C573 C574 1.385 . S
C574 H557 0.940 . S
C574 C573 1.385 . S
C574 C575 1.388 . S
C575 H554 0.939 . S
C575 C570 1.391 . S
C575 C574 1.388 . S
Tb576 C586 2.825 . S
Tb576 O587 2.347 1_565 S
Tb576 O590 2.366 1_565 S
Tb576 O595 2.418 . S
Tb576 O596 2.397 . S
Tb576 O599 2.479 . S
Tb576 O600 2.471 1_565 S
Eu577 O588 2.418 . S
Eu577 O589 2.384 . S
Eu577 O592 2.479 . S
Eu577 O593 2.471 1_545 S
Eu577 O594 2.347 1_545 S
Eu577 O597 2.366 1_545 S
Eu577 C607 2.825 . S
C578 O594 1.259 . S
C578 O595 1.265 1_554 S
C579 O596 1.239 1_554 S
C579 O597 1.265 . S
C580 C582 1.380 . S
C580 C583 1.374 1_565 S
C580 C586 1.507 . S
C581 C582 1.384 . S
C581 C585 1.387 1_565 S
C581 H608 0.930 . S
C582 C580 1.380 . S
C582 C581 1.384 . S
C582 H609 0.931 . S
C583 C580 1.374 1_545 S
C583 C584 1.390 . S
C583 H610 0.930 . S
C584 C583 1.390 . S
C584 C585 1.391 . S
C584 H611 0.930 . S
C585 C581 1.387 1_545 S
C585 C584 1.391 . S
C586 Tb576 2.825 . S
C586 C580 1.507 . S
C586 O599 1.238 . S
C586 O600 1.247 1_565 S
O587 Tb576 2.347 1_545 S
O587 C591 1.258 1_556 S
O588 Eu577 2.418 . S
O588 C591 1.268 . S
O589 Eu577 2.384 . S
O589 C598 1.255 1_554 S
O590 Tb576 2.366 1_545 S
O590 C598 1.265 . S
C591 O587 1.258 1_554 S
C591 O588 1.268 . S
O592 Eu577 2.479 . S
O592 C607 1.238 . S
O593 Eu577 2.471 1_565 S
O593 C607 1.247 1_565 S
O594 Eu577 2.347 1_565 S
O594 C578 1.259 . S
O595 Tb576 2.418 . S
O595 C578 1.265 1_556 S
O596 Tb576 2.397 . S
O596 C579 1.239 1_556 S
O597 Eu577 2.366 1_565 S
O597 C579 1.265 . S
C598 O589 1.255 1_556 S
C598 O590 1.265 . S
O599 Tb576 2.479 . S
O599 C586 1.238 . S
O600 Tb576 2.471 1_545 S
O600 C586 1.247 1_545 S
C601 C604 1.380 . S
C601 C605 1.374 1_545 S
C601 C607 1.507 . S
C602 C603 1.387 1_565 S
C602 C606 1.391 . S
C603 C602 1.387 1_545 S
C603 C604 1.384 . S
C603 H612 0.930 . S
C604 C601 1.380 . S
C604 C603 1.384 . S
C604 H613 0.931 . S
C605 C601 1.374 1_565 S
C605 C606 1.390 . S
C605 H614 0.930 . S
C606 C602 1.391 . S
C606 C605 1.390 . S
C606 H615 0.930 . S
C607 Eu577 2.825 . S
C607 O592 1.238 . S
C607 O593 1.247 1_545 S
C607 C601 1.507 . S
H608 C581 0.930 . S
H609 C582 0.931 . S
H610 C583 0.930 . S
H611 C584 0.930 . S
H612 C603 0.930 . S
H613 C604 0.931 . S
H614 C605 0.930 . S
H615 C606 0.930 . S
Tb616 C626 2.825 . S
Tb616 O627 2.347 1_455 S
Tb616 O630 2.366 1_455 S
Tb616 O635 2.418 . S
Tb616 O636 2.384 1_556 S
Tb616 O639 2.479 . S
Tb616 O640 2.471 1_455 S
Eu617 O628 2.418 . S
Eu617 O629 2.384 . S
Eu617 O632 2.479 . S
Eu617 O633 2.471 1_655 S
Eu617 O634 2.347 1_655 S
Eu617 O637 2.366 1_655 S
Eu617 C647 2.825 . S
C618 O634 1.259 . S
C618 O635 1.265 1_554 S
C619 O636 1.255 . S
C619 O637 1.265 . S
C620 C622 1.382 . S
C620 C623 1.370 1_455 S
C620 C626 1.509 . S
C621 C622 1.384 . S
C621 C625 1.387 1_455 S
C621 H648 0.930 . S
C622 C620 1.382 . S
C622 C621 1.384 . S
C622 H649 0.931 . S
C623 C620 1.370 1_655 S
C623 C624 1.390 . S
C623 H650 0.930 . S
C624 C623 1.390 . S
C624 C625 1.391 . S
C624 H651 0.930 . S
C625 C621 1.387 1_655 S
C625 C624 1.391 . S
C626 Tb616 2.825 . S
C626 C620 1.509 . S
C626 O639 1.238 . S
C626 O640 1.247 1_455 S
O627 Tb616 2.347 1_655 S
O627 C631 1.259 . S
O628 Eu617 2.418 . S
O628 C631 1.265 1_554 S
O629 Eu617 2.384 . S
O629 C638 1.255 1_554 S
O630 Tb616 2.366 1_655 S
O630 C638 1.265 . S
C631 O627 1.259 . S
C631 O628 1.265 1_556 S
O632 Eu617 2.479 . S
O632 C647 1.238 . S
O633 Eu617 2.471 1_455 S
O633 C647 1.247 1_455 S
O634 Eu617 2.347 1_455 S
O634 C618 1.259 . S
O635 Tb616 2.418 . S
O635 C618 1.265 1_556 S
O636 Tb616 2.384 1_554 S
O636 C619 1.255 . S
O637 Eu617 2.366 1_455 S
O637 C619 1.265 . S
C638 O629 1.255 1_556 S
C638 O630 1.265 . S
O639 Tb616 2.479 . S
O639 C626 1.238 . S
O640 Tb616 2.471 1_655 S
O640 C626 1.247 1_655 S
C641 C644 1.380 1_455 S
C641 C645 1.374 . S
C641 C647 1.507 1_455 S
C642 C643 1.387 1_455 S
C642 C646 1.391 . S
C643 C642 1.387 1_655 S
C643 C644 1.384 . S
C643 H652 0.930 . S
C644 C641 1.380 1_655 S
C644 C643 1.384 . S
C644 H653 0.931 . S
C645 C641 1.374 . S
C645 C646 1.390 . S
C645 H654 0.930 . S
C646 C642 1.391 . S
C646 C645 1.390 . S
C646 H655 0.930 . S
C647 Eu617 2.825 . S
C647 O632 1.238 . S
C647 O633 1.247 1_655 S
C647 C641 1.507 1_655 S
H648 C621 0.930 . S
H649 C622 0.931 . S
H650 C623 0.930 . S
H651 C624 0.930 . S
H652 C643 0.930 . S
H653 C644 0.931 . S
H654 C645 0.930 . S
H655 C646 0.930 . S
Tb656 C666 2.825 . S
Tb656 O667 2.347 . S
Tb656 O670 2.366 . S
Tb656 O675 2.418 . S
Tb656 O676 2.384 . S
Tb656 O679 2.479 . S
Tb656 O680 2.471 . S
Eu657 O668 2.418 . S
Eu657 O669 2.384 1_556 S
Eu657 O672 2.479 . S
Eu657 O673 2.471 . S
Eu657 O674 2.347 . S
Eu657 O677 2.366 . S
Eu657 C687 2.825 . S
C658 O674 1.259 . S
C658 O675 1.265 1_556 S
C659 O676 1.255 1_556 S
C659 O677 1.265 . S
C660 C662 1.380 . S
C660 C663 1.374 . S
C660 C666 1.507 . S
C661 C662 1.384 . S
C661 C665 1.387 . S
C661 H688 0.930 . S
C662 C660 1.380 . S
C662 C661 1.384 . S
C662 H689 0.931 . S
C663 C660 1.374 . S
C663 C664 1.390 . S
C663 H690 0.930 . S
C664 C663 1.390 . S
C664 C665 1.391 . S
C664 H691 0.930 . S
C665 C661 1.387 . S
C665 C664 1.391 . S
C666 Tb656 2.825 . S
C666 C660 1.507 . S
C666 O679 1.238 . S
C666 O680 1.247 . S
O667 Tb656 2.347 . S
O667 C671 1.259 . S
O668 Eu657 2.418 . S
O668 C671 1.265 1_556 S
O669 Eu657 2.384 1_554 S
O669 C678 1.255 . S
O670 Tb656 2.366 . S
O670 C678 1.265 . S
C671 O667 1.259 . S
C671 O668 1.265 1_554 S
O672 Eu657 2.479 . S
O672 C687 1.238 . S
O673 Eu657 2.471 . S
O673 C687 1.247 . S
O674 Eu657 2.347 . S
O674 C658 1.259 . S
O675 Tb656 2.418 . S
O675 C658 1.265 1_554 S
O676 Tb656 2.384 . S
O676 C659 1.255 1_554 S
O677 Eu657 2.366 . S
O677 C659 1.265 . S
C678 O669 1.255 . S
C678 O670 1.265 . S
O679 Tb656 2.479 . S
O679 C666 1.238 . S
O680 Tb656 2.471 . S
O680 C666 1.247 . S
C681 C684 1.380 . S
C681 C685 1.374 . S
C681 C687 1.507 . S
C682 C683 1.387 . S
C682 C686 1.391 . S
C683 C682 1.387 . S
C683 C684 1.384 . S
C683 H692 0.930 . S
C684 C681 1.380 . S
C684 C683 1.384 . S
C684 H693 0.931 . S
C685 C681 1.374 . S
C685 C686 1.390 . S
C685 H694 0.930 . S
C686 C682 1.391 . S
C686 C685 1.390 . S
C686 H695 0.930 . S
C687 Eu657 2.825 . S
C687 O672 1.238 . S
C687 O673 1.247 . S
C687 C681 1.507 . S
H688 C661 0.930 . S
H689 C662 0.931 . S
H690 C663 0.930 . S
H691 C664 0.930 . S
H692 C683 0.930 . S
H693 C684 0.931 . S
H694 C685 0.930 . S
H695 C686 0.930 . S
Tb696 C706 2.825 . S
Tb696 O707 2.347 . S
Tb696 O710 2.366 . S
Tb696 O715 2.418 . S
Tb696 O716 2.384 . S
Tb696 O719 2.479 . S
Tb696 O720 2.471 . S
Eu697 O708 2.418 . S
Eu697 O709 2.384 . S
Eu697 O712 2.479 . S
Eu697 O713 2.471 . S
Eu697 O714 2.347 . S
Eu697 O717 2.366 . S
Eu697 C727 2.825 . S
C698 O714 1.259 . S
C698 O715 1.265 . S
C699 O716 1.255 . S
C699 O717 1.265 . S
C700 C702 1.380 . S
C700 C703 1.374 . S
C700 C706 1.507 . S
C701 C702 1.384 . S
C701 C705 1.387 . S
C701 H728 0.930 . S
C702 C700 1.380 . S
C702 C701 1.384 . S
C702 H729 0.931 . S
C703 C700 1.374 . S
C703 C704 1.390 . S
C703 H730 0.930 . S
C704 C703 1.390 . S
C704 C705 1.391 . S
C704 H731 0.930 . S
C705 C701 1.387 . S
C705 C704 1.391 . S
C706 Tb696 2.825 . S
C706 C700 1.507 . S
C706 O719 1.238 . S
C706 O720 1.247 . S
O707 Tb696 2.347 . S
O707 C711 1.259 . S
O708 Eu697 2.418 . S
O708 C711 1.265 . S
O709 Eu697 2.384 . S
O709 C718 1.255 . S
O710 Tb696 2.366 . S
O710 C718 1.265 . S
C711 O707 1.259 . S
C711 O708 1.265 . S
O712 Eu697 2.479 . S
O712 C727 1.238 . S
O713 Eu697 2.471 . S
O713 C727 1.247 . S
O714 Eu697 2.347 . S
O714 C698 1.259 . S
O715 Tb696 2.418 . S
O715 C698 1.265 . S
O716 Tb696 2.384 . S
O716 C699 1.255 . S
O717 Eu697 2.366 . S
O717 C699 1.265 . S
C718 O709 1.255 . S
C718 O710 1.265 . S
O719 Tb696 2.479 . S
O719 C706 1.238 . S
O720 Tb696 2.471 . S
O720 C706 1.247 . S
C721 C724 1.380 . S
C721 C725 1.374 . S
C721 C727 1.507 . S
C722 C723 1.387 . S
C722 C726 1.391 . S
C723 C722 1.387 . S
C723 C724 1.384 . S
C723 H732 0.930 . S
C724 C721 1.380 . S
C724 C723 1.384 . S
C724 H733 0.931 . S
C725 C721 1.374 . S
C725 C726 1.390 . S
C725 H734 0.930 . S
C726 C722 1.391 . S
C726 C725 1.390 . S
C726 H735 0.930 . S
C727 Eu697 2.825 . S
C727 O712 1.238 . S
C727 O713 1.247 . S
C727 C721 1.507 . S
H728 C701 0.930 . S
H729 C702 0.931 . S
H730 C703 0.930 . S
H731 C704 0.930 . S
H732 C723 0.930 . S
H733 C724 0.931 . S
H734 C725 0.930 . S
H735 C726 0.930 . S
Tb736 C746 2.825 . S
Tb736 O747 2.347 . S
Tb736 O750 2.366 . S
Tb736 O755 2.418 . S
Tb736 O756 2.384 . S
Tb736 O759 2.479 . S
Tb736 O760 2.471 . S
Eu737 O748 2.418 . S
Eu737 O749 2.384 . S
Eu737 O752 2.479 . S
Eu737 O753 2.471 . S
Eu737 O754 2.347 . S
Eu737 O757 2.366 . S
Eu737 C767 2.825 . S
C738 O754 1.259 . S
C738 O755 1.265 . S
C739 O756 1.255 . S
C739 O757 1.265 . S
C740 C742 1.380 . S
C740 C743 1.374 . S
C740 C746 1.507 . S
C741 C742 1.384 . S
C741 C745 1.387 . S
C741 H768 0.930 . S
C742 C740 1.380 . S
C742 C741 1.384 . S
C742 H769 0.931 . S
C743 C740 1.374 . S
C743 C744 1.390 . S
C743 H770 0.930 . S
C744 C743 1.390 . S
C744 C745 1.391 . S
C744 H771 0.930 . S
C745 C741 1.387 . S
C745 C744 1.391 . S
C746 Tb736 2.825 . S
C746 C740 1.507 . S
C746 O759 1.238 . S
C746 O760 1.247 . S
O747 Tb736 2.347 . S
O747 C751 1.259 . S
O748 Eu737 2.418 . S
O748 C751 1.265 . S
O749 Eu737 2.384 . S
O749 C758 1.255 . S
O750 Tb736 2.366 . S
O750 C758 1.265 . S
C751 O747 1.259 . S
C751 O748 1.265 . S
O752 Eu737 2.479 . S
O752 C767 1.238 . S
O753 Eu737 2.471 . S
O753 C767 1.247 . S
O754 Eu737 2.347 . S
O754 C738 1.259 . S
O755 Tb736 2.418 . S
O755 C738 1.265 . S
O756 Tb736 2.384 . S
O756 C739 1.255 . S
O757 Eu737 2.366 . S
O757 C739 1.265 . S
C758 O749 1.255 . S
C758 O750 1.265 . S
O759 Tb736 2.479 . S
O759 C746 1.238 . S
O760 Tb736 2.471 . S
O760 C746 1.247 . S
C761 C764 1.380 . S
C761 C765 1.374 . S
C761 C767 1.507 . S
C762 C763 1.387 . S
C762 C766 1.391 . S
C763 C762 1.387 . S
C763 C764 1.384 . S
C763 H772 0.930 . S
C764 C761 1.380 . S
C764 C763 1.384 . S
C764 H773 0.931 . S
C765 C761 1.374 . S
C765 C766 1.390 . S
C765 H774 0.930 . S
C766 C762 1.391 . S
C766 C765 1.390 . S
C766 H775 0.930 . S
C767 Eu737 2.825 . S
C767 O752 1.238 . S
C767 O753 1.247 . S
C767 C761 1.507 . S
H768 C741 0.930 . S
H769 C742 0.931 . S
H770 C743 0.930 . S
H771 C744 0.930 . S
H772 C763 0.930 . S
H773 C764 0.931 . S
H774 C765 0.930 . S
H775 C766 0.930 . S
Tb776 C786 2.825 . S
Tb776 O787 2.347 . S
Tb776 O790 2.366 . S
Tb776 O795 2.418 . S
Tb776 O796 2.384 . S
Tb776 O799 2.479 . S
Tb776 O800 2.471 . S
Eu777 O788 2.418 . S
Eu777 O789 2.384 . S
Eu777 O792 2.479 . S
Eu777 O793 2.471 . S
Eu777 O794 2.347 . S
Eu777 O797 2.366 . S
Eu777 C807 2.825 . S
C778 O794 1.259 . S
C778 O795 1.265 . S
C779 O796 1.255 . S
C779 O797 1.265 . S
C780 C782 1.380 . S
C780 C783 1.374 . S
C780 C786 1.507 . S
C781 C782 1.384 . S
C781 C785 1.387 . S
C781 H808 0.930 . S
C782 C780 1.380 . S
C782 C781 1.384 . S
C782 H809 0.931 . S
C783 C780 1.374 . S
C783 C784 1.390 . S
C783 H810 0.930 . S
C784 C783 1.390 . S
C784 C785 1.391 . S
C784 H811 0.930 . S
C785 C781 1.387 . S
C785 C784 1.391 . S
C786 Tb776 2.825 . S
C786 C780 1.507 . S
C786 O799 1.238 . S
C786 O800 1.247 . S
O787 Tb776 2.347 . S
O787 C791 1.259 . S
O788 Eu777 2.418 . S
O788 C791 1.265 . S
O789 Eu777 2.384 . S
O789 C798 1.255 . S
O790 Tb776 2.366 . S
O790 C798 1.265 . S
C791 O787 1.259 . S
C791 O788 1.265 . S
O792 Eu777 2.479 . S
O792 C807 1.238 . S
O793 Eu777 2.471 . S
O793 C807 1.247 . S
O794 Eu777 2.347 . S
O794 C778 1.259 . S
O795 Tb776 2.418 . S
O795 C778 1.265 . S
O796 Tb776 2.384 . S
O796 C779 1.255 . S
O797 Eu777 2.366 . S
O797 C779 1.265 . S
C798 O789 1.255 . S
C798 O790 1.265 . S
O799 Tb776 2.479 . S
O799 C786 1.238 . S
O800 Tb776 2.471 . S
O800 C786 1.247 . S
C801 C804 1.380 . S
C801 C805 1.374 . S
C801 C807 1.507 . S
C802 C803 1.387 . S
C802 C806 1.391 . S
C803 C802 1.387 . S
C803 C804 1.384 . S
C803 H812 0.930 . S
C804 C801 1.380 . S
C804 C803 1.384 . S
C804 H813 0.931 . S
C805 C801 1.374 . S
C805 C806 1.390 . S
C805 H814 0.930 . S
C806 C802 1.391 . S
C806 C805 1.390 . S
C806 H815 0.930 . S
C807 Eu777 2.825 . S
C807 O792 1.238 . S
C807 O793 1.247 . S
C807 C801 1.507 . S
H808 C781 0.930 . S
H809 C782 0.931 . S
H810 C783 0.930 . S
H811 C784 0.930 . S
H812 C803 0.930 . S
H813 C804 0.931 . S
H814 C805 0.930 . S
H815 C806 0.930 . S
Tb816 C826 2.825 . S
Tb816 O827 2.347 . S
Tb816 O830 2.366 . S
Tb816 O835 2.418 . S
Tb816 O836 2.384 . S
Tb816 O839 2.479 . S
Tb816 O840 2.471 . S
Eu817 O828 2.418 . S
Eu817 O829 2.384 . S
Eu817 O832 2.479 . S
Eu817 O833 2.471 . S
Eu817 O834 2.347 . S
Eu817 O837 2.366 . S
Eu817 C847 2.825 . S
C818 O834 1.259 . S
C818 O835 1.265 . S
C819 O836 1.255 . S
C819 O837 1.265 . S
C820 C822 1.380 . S
C820 C823 1.374 . S
C820 C826 1.507 . S
C821 C822 1.384 . S
C821 C825 1.387 . S
C821 H848 0.930 . S
C822 C820 1.380 . S
C822 C821 1.384 . S
C822 H849 0.931 . S
C823 C820 1.374 . S
C823 C824 1.390 . S
C823 H850 0.930 . S
C824 C823 1.390 . S
C824 C825 1.391 . S
C824 H851 0.930 . S
C825 C821 1.387 . S
C825 C824 1.391 . S
C826 Tb816 2.825 . S
C826 C820 1.507 . S
C826 O839 1.238 . S
C826 O840 1.247 . S
O827 Tb816 2.347 . S
O827 C831 1.259 . S
O828 Eu817 2.418 . S
O828 C831 1.265 . S
O829 Eu817 2.384 . S
O829 C838 1.255 . S
O830 Tb816 2.366 . S
O830 C838 1.265 . S
C831 O827 1.259 . S
C831 O828 1.265 . S
O832 Eu817 2.479 . S
O832 C847 1.238 . S
O833 Eu817 2.471 . S
O833 C847 1.247 . S
O834 Eu817 2.347 . S
O834 C818 1.259 . S
O835 Tb816 2.418 . S
O835 C818 1.265 . S
O836 Tb816 2.384 . S
O836 C819 1.255 . S
O837 Eu817 2.366 . S
O837 C819 1.265 . S
C838 O829 1.255 . S
C838 O830 1.265 . S
O839 Tb816 2.479 . S
O839 C826 1.238 . S
O840 Tb816 2.471 . S
O840 C826 1.247 . S
C841 C844 1.380 . S
C841 C845 1.374 . S
C841 C847 1.507 . S
C842 C843 1.387 . S
C842 C846 1.391 . S
C843 C842 1.387 . S
C843 C844 1.384 . S
C843 H852 0.930 . S
C844 C841 1.380 . S
C844 C843 1.384 . S
C844 H853 0.931 . S
C845 C841 1.374 . S
C845 C846 1.390 . S
C845 H854 0.930 . S
C846 C842 1.391 . S
C846 C845 1.390 . S
C846 H855 0.930 . S
C847 Eu817 2.825 . S
C847 O832 1.238 . S
C847 O833 1.247 . S
C847 C841 1.507 . S
H848 C821 0.930 . S
H849 C822 0.931 . S
H850 C823 0.930 . S
H851 C824 0.930 . S
H852 C843 0.930 . S
H853 C844 0.931 . S
H854 C845 0.930 . S
H855 C846 0.930 . S
Tb856 C866 2.825 . S
Tb856 O867 2.347 . S
Tb856 O870 2.366 . S
Tb856 O875 2.418 . S
Tb856 O876 2.384 . S
Tb856 O879 2.479 . S
Tb856 O880 2.471 . S
Eu857 O868 2.418 . S
Eu857 O869 2.384 . S
Eu857 O872 2.479 . S
Eu857 O873 2.471 . S
Eu857 O874 2.347 . S
Eu857 O877 2.366 . S
Eu857 C887 2.825 . S
C858 O874 1.259 . S
C858 O875 1.265 . S
C859 O876 1.255 . S
C859 O877 1.265 . S
C860 C862 1.380 . S
C860 C863 1.374 . S
C860 C866 1.507 . S
C861 C862 1.384 . S
C861 C865 1.387 . S
C861 H888 0.930 . S
C862 C860 1.380 . S
C862 C861 1.384 . S
C862 H889 0.931 . S
C863 C860 1.374 . S
C863 C864 1.390 . S
C863 H890 0.930 . S
C864 C863 1.390 . S
C864 C865 1.391 . S
C864 H891 0.930 . S
C865 C861 1.387 . S
C865 C864 1.391 . S
C866 Tb856 2.825 . S
C866 C860 1.507 . S
C866 O879 1.238 . S
C866 O880 1.247 . S
O867 Tb856 2.347 . S
O867 C871 1.259 . S
O868 Eu857 2.418 . S
O868 C871 1.265 . S
O869 Eu857 2.384 . S
O869 C878 1.255 . S
O870 Tb856 2.366 . S
O870 C878 1.265 . S
C871 O867 1.259 . S
C871 O868 1.265 . S
O872 Eu857 2.479 . S
O872 C887 1.238 . S
O873 Eu857 2.471 . S
O873 C887 1.247 . S
O874 Eu857 2.347 . S
O874 C858 1.259 . S
O875 Tb856 2.418 . S
O875 C858 1.265 . S
O876 Tb856 2.384 . S
O876 C859 1.255 . S
O877 Eu857 2.366 . S
O877 C859 1.265 . S
C878 O869 1.255 . S
C878 O870 1.265 . S
O879 Tb856 2.479 . S
O879 C866 1.238 . S
O880 Tb856 2.471 . S
O880 C866 1.247 . S
C881 C884 1.380 . S
C881 C885 1.374 . S
C881 C887 1.507 . S
C882 C883 1.387 . S
C882 C886 1.391 . S
C883 C882 1.387 . S
C883 C884 1.384 . S
C883 H892 0.930 . S
C884 C881 1.380 . S
C884 C883 1.384 . S
C884 H893 0.931 . S
C885 C881 1.374 . S
C885 C886 1.390 . S
C885 H894 0.930 . S
C886 C882 1.391 . S
C886 C885 1.390 . S
C886 H895 0.930 . S
C887 Eu857 2.825 . S
C887 O872 1.238 . S
C887 O873 1.247 . S
C887 C881 1.507 . S
H888 C861 0.930 . S
H889 C862 0.931 . S
H890 C863 0.930 . S
H891 C864 0.930 . S
H892 C883 0.930 . S
H893 C884 0.931 . S
H894 C885 0.930 . S
H895 C886 0.930 . S
Tb896 C906 2.825 . S
Tb896 O907 2.347 . S
Tb896 O910 2.366 . S
Tb896 O915 2.418 . S
Tb896 O916 2.384 . S
Tb896 O919 2.479 . S
Tb896 O920 2.471 . S
Eu897 O908 2.418 . S
Eu897 O909 2.384 . S
Eu897 O912 2.479 . S
Eu897 O913 2.471 . S
Eu897 O914 2.347 . S
Eu897 O917 2.366 . S
Eu897 C927 2.825 . S
C898 O914 1.259 . S
C898 O915 1.265 . S
C899 O916 1.255 . S
C899 O917 1.265 . S
C900 C902 1.380 . S
C900 C903 1.374 . S
C900 C906 1.507 . S
C901 C902 1.384 . S
C901 C905 1.387 . S
C901 H928 0.930 . S
C902 C900 1.380 . S
C902 C901 1.384 . S
C902 H929 0.931 . S
C903 C900 1.374 . S
C903 C904 1.390 . S
C903 H930 0.930 . S
C904 C903 1.390 . S
C904 C905 1.391 . S
C904 H931 0.930 . S
C905 C901 1.387 . S
C905 C904 1.391 . S
C906 Tb896 2.825 . S
C906 C900 1.507 . S
C906 O919 1.238 . S
C906 O920 1.247 . S
O907 Tb896 2.347 . S
O907 C911 1.259 . S
O908 Eu897 2.418 . S
O908 C911 1.265 . S
O909 Eu897 2.384 . S
O909 C918 1.255 . S
O910 Tb896 2.366 . S
O910 C918 1.265 . S
C911 O907 1.259 . S
C911 O908 1.265 . S
O912 Eu897 2.479 . S
O912 C927 1.238 . S
O913 Eu897 2.471 . S
O913 C927 1.247 . S
O914 Eu897 2.347 . S
O914 C898 1.259 . S
O915 Tb896 2.418 . S
O915 C898 1.265 . S
O916 Tb896 2.384 . S
O916 C899 1.255 . S
O917 Eu897 2.366 . S
O917 C899 1.265 . S
C918 O909 1.255 . S
C918 O910 1.265 . S
O919 Tb896 2.479 . S
O919 C906 1.238 . S
O920 Tb896 2.471 . S
O920 C906 1.247 . S
C921 C924 1.380 . S
C921 C925 1.374 . S
C921 C927 1.507 . S
C922 C923 1.387 . S
C922 C926 1.391 . S
C923 C922 1.387 . S
C923 C924 1.384 . S
C923 H932 0.930 . S
C924 C921 1.380 . S
C924 C923 1.384 . S
C924 H933 0.931 . S
C925 C921 1.374 . S
C925 C926 1.390 . S
C925 H934 0.930 . S
C926 C922 1.391 . S
C926 C925 1.390 . S
C926 H935 0.930 . S
C927 Eu897 2.825 . S
C927 O912 1.238 . S
C927 O913 1.247 . S
C927 C921 1.507 . S
H928 C901 0.930 . S
H929 C902 0.931 . S
H930 C903 0.930 . S
H931 C904 0.930 . S
H932 C923 0.930 . S
H933 C924 0.931 . S
H934 C925 0.930 . S
H935 C926 0.930 . S
H936 C944 0.929 . S
H937 C946 0.930 . S
H938 C948 0.930 . S
H939 C951 0.929 . S
H940 C954 0.930 . S
H941 C956 0.960 . S
H942 C956 0.960 . S
H943 C956 0.960 . S
C944 H936 0.929 . S
C944 C945 1.377 . S
C944 C946 1.384 . S
C945 C944 1.377 . S
C945 C951 1.390 . S
C946 H937 0.930 . S
C946 C944 1.384 . S
C946 C947 1.372 . S
C947 C946 1.372 . S
C947 C948 1.400 . S
C947 C952 1.490 . S
C948 H938 0.930 . S
C948 C947 1.400 . S
C948 C951 1.386 . S
H949 C965 0.930 . S
H950 C966 0.931 . S
C951 H939 0.929 . S
C951 C945 1.390 . S
C951 C948 1.386 . S
C952 C947 1.490 . S
C952 C954 1.395 . S
C952 C955 1.403 . S
H953 C959 0.930 . S
C954 H940 0.930 . S
C954 C952 1.395 . S
C954 C957 1.403 . S
C955 C952 1.403 . S
C955 C956 1.524 . S
C955 C959 1.400 . S
C956 H941 0.960 . S
C956 H942 0.960 . S
C956 H943 0.960 . S
C956 C955 1.524 . S
C957 C954 1.403 . S
C957 C958 1.392 . S
C957 C961 1.495 . S
C958 C957 1.392 . S
C958 C959 1.385 . S
C958 C960 1.478 . S
C959 H953 0.930 . S
C959 C955 1.400 . S
C959 C958 1.385 . S
C960 C958 1.478 . S
C960 C962 1.381 . S
C960 C966 1.383 . S
C961 C957 1.495 . S
C961 H967 0.959 . S
C961 H968 0.961 . S
C961 H969 0.960 . S
C962 C960 1.381 . S
C962 C963 1.394 . S
C962 H970 0.930 . S
C963 C962 1.394 . S
C963 C964 1.383 . S
C963 H971 0.929 1_554 S
C964 C963 1.383 . S
C964 C965 1.377 . S
C965 H949 0.930 . S
C965 C964 1.377 . S
C965 C966 1.379 . S
C966 H950 0.931 . S
C966 C960 1.383 . S
C966 C965 1.379 . S
H967 C961 0.959 . S
H968 C961 0.961 . S
H969 C961 0.960 . S
H970 C962 0.930 . S
H971 C963 0.929 1_556 S
H972 C980 0.929 . S
H973 C982 0.930 . S
H974 C984 0.930 . S
H975 C987 0.929 . S
H976 C990 0.930 . S
H977 C992 0.960 . S
H978 C992 0.960 . S
H979 C992 0.960 . S
C980 H972 0.929 . S
C980 C981 1.377 . S
C980 C982 1.384 . S
C981 C980 1.377 . S
C981 C987 1.390 . S
C982 H973 0.930 . S
C982 C980 1.384 . S
C982 C983 1.372 . S
C983 C982 1.372 . S
C983 C984 1.400 . S
C983 C988 1.490 . S
C984 H974 0.930 . S
C984 C983 1.400 . S
C984 C987 1.386 . S
H985 C1001 0.930 . S
H986 C1002 0.931 . S
C987 H975 0.929 . S
C987 C981 1.390 . S
C987 C984 1.386 . S
C988 C983 1.490 . S
C988 C990 1.395 . S
C988 C991 1.403 . S
H989 C995 0.930 . S
C990 H976 0.930 . S
C990 C988 1.395 . S
C990 C993 1.403 . S
C991 C988 1.403 . S
C991 C992 1.524 . S
C991 C995 1.400 . S
C992 H977 0.960 . S
C992 H978 0.960 . S
C992 H979 0.960 . S
C992 C991 1.524 . S
C993 C990 1.403 . S
C993 C994 1.392 . S
C993 C997 1.495 . S
C994 C993 1.392 . S
C994 C995 1.385 . S
C994 C996 1.478 . S
C995 H989 0.930 . S
C995 C991 1.400 . S
C995 C994 1.385 . S
C996 C994 1.478 . S
C996 C998 1.381 . S
C996 C1002 1.383 . S
C997 C993 1.495 . S
C997 H1003 0.959 . S
C997 H1004 0.961 . S
C997 H1005 0.960 . S
C998 C996 1.381 . S
C998 C999 1.394 . S
C998 H1006 0.930 . S
C999 C998 1.394 . S
C999 C1000 1.383 . S
C999 H1007 0.929 . S
C1000 C999 1.383 . S
C1000 C1001 1.377 . S
C1001 H985 0.930 . S
C1001 C1000 1.377 . S
C1001 C1002 1.379 . S
C1002 H986 0.931 . S
C1002 C996 1.383 . S
C1002 C1001 1.379 . S
H1003 C997 0.959 . S
H1004 C997 0.961 . S
H1005 C997 0.960 . S
H1006 C998 0.930 . S
H1007 C999 0.929 . S
H1008 C1016 0.929 . S
H1009 C1018 0.930 . S
H1010 C1020 0.930 . S
H1011 C1023 0.929 . S
H1012 C1026 0.930 . S
H1013 C1028 0.960 . S
H1014 C1028 0.960 . S
H1015 C1028 0.960 . S
C1016 H1008 0.929 . S
C1016 C1017 1.377 . S
C1016 C1018 1.384 . S
C1017 C1016 1.377 . S
C1017 C1023 1.390 . S
C1018 H1009 0.930 . S
C1018 C1016 1.384 . S
C1018 C1019 1.372 . S
C1019 C1018 1.372 . S
C1019 C1020 1.400 . S
C1019 C1024 1.490 . S
C1020 H1010 0.930 . S
C1020 C1019 1.400 . S
C1020 C1023 1.386 . S
H1021 C1037 0.930 . S
H1022 C1038 0.931 . S
C1023 H1011 0.929 . S
C1023 C1017 1.390 . S
C1023 C1020 1.386 . S
C1024 C1019 1.490 . S
C1024 C1026 1.395 . S
C1024 C1027 1.403 . S
H1025 C1031 0.930 . S
C1026 H1012 0.930 . S
C1026 C1024 1.395 . S
C1026 C1029 1.403 . S
C1027 C1024 1.403 . S
C1027 C1028 1.524 . S
C1027 C1031 1.400 . S
C1028 H1013 0.960 . S
C1028 H1014 0.960 . S
C1028 H1015 0.960 . S
C1028 C1027 1.524 . S
C1029 C1026 1.403 . S
C1029 C1030 1.392 . S
C1029 C1033 1.495 . S
C1030 C1029 1.392 . S
C1030 C1031 1.385 . S
C1030 C1032 1.478 . S
C1031 H1025 0.930 . S
C1031 C1027 1.400 . S
C1031 C1030 1.385 . S
C1032 C1030 1.478 . S
C1032 C1034 1.381 . S
C1032 C1038 1.383 . S
C1033 C1029 1.495 . S
C1033 H1039 0.959 . S
C1033 H1040 0.961 . S
C1033 H1041 0.960 . S
C1034 C1032 1.381 . S
C1034 C1035 1.394 . S
C1034 H1042 0.930 1_554 S
C1035 C1034 1.394 . S
C1035 C1036 1.383 . S
C1035 H1043 0.929 1_554 S
C1036 C1035 1.383 . S
C1036 C1037 1.377 . S
C1037 H1021 0.930 . S
C1037 C1036 1.377 . S
C1037 C1038 1.379 . S
C1038 H1022 0.931 . S
C1038 C1032 1.383 . S
C1038 C1037 1.379 . S
H1039 C1033 0.959 . S
H1040 C1033 0.961 . S
H1041 C1033 0.960 . S
H1042 C1034 0.930 1_556 S
H1043 C1035 0.929 1_556 S
H1044 C1052 0.929 . S
H1045 C1054 0.930 . S
H1046 C1056 0.930 . S
H1047 C1059 0.929 . S
H1048 C1062 0.930 . S
H1049 C1064 0.960 . S
H1050 C1064 0.960 . S
H1051 C1064 0.960 . S
C1052 H1044 0.929 . S
C1052 C1053 1.377 . S
C1052 C1054 1.384 . S
C1053 C1052 1.377 . S
C1053 C1059 1.390 . S
C1054 H1045 0.930 . S
C1054 C1052 1.384 . S
C1054 C1055 1.372 . S
C1055 C1054 1.372 . S
C1055 C1056 1.400 . S
C1055 C1060 1.490 . S
C1056 H1046 0.930 . S
C1056 C1055 1.400 . S
C1056 C1059 1.386 . S
H1057 C1073 0.930 . S
H1058 C1074 0.931 . S
C1059 H1047 0.929 . S
C1059 C1053 1.390 . S
C1059 C1056 1.386 . S
C1060 C1055 1.490 . S
C1060 C1062 1.395 . S
C1060 C1063 1.403 . S
H1061 C1067 0.930 . S
C1062 H1048 0.930 . S
C1062 C1060 1.395 . S
C1062 C1065 1.403 . S
C1063 C1060 1.403 . S
C1063 C1064 1.524 . S
C1063 C1067 1.400 . S
C1064 H1049 0.960 . S
C1064 H1050 0.960 . S
C1064 H1051 0.960 . S
C1064 C1063 1.524 . S
C1065 C1062 1.403 . S
C1065 C1066 1.392 . S
C1065 C1069 1.495 . S
C1066 C1065 1.392 . S
C1066 C1067 1.385 . S
C1066 C1068 1.478 . S
C1067 H1061 0.930 . S
C1067 C1063 1.400 . S
C1067 C1066 1.385 . S
C1068 C1066 1.478 . S
C1068 C1070 1.381 . S
C1068 C1074 1.383 . S
C1069 C1065 1.495 . S
C1069 H1075 0.959 . S
C1069 H1076 0.961 . S
C1069 H1077 0.960 . S
C1070 C1068 1.381 . S
C1070 C1071 1.387 1_556 S
C1070 H1078 0.930 1_556 S
C1071 C1070 1.387 1_554 S
C1071 C1072 1.348 1_554 S
C1071 H1079 0.973 . S
C1072 C1071 1.348 1_556 S
C1072 C1073 1.377 . S
C1073 H1057 0.930 . S
C1073 C1072 1.377 . S
C1073 C1074 1.379 . S
C1074 H1058 0.931 . S
C1074 C1068 1.383 . S
C1074 C1073 1.379 . S
H1075 C1069 0.959 . S
H1076 C1069 0.961 . S
H1077 C1069 0.960 . S
H1078 C1070 0.930 1_554 S
H1079 C1071 0.973 . S
H1080 C1088 0.929 . S
H1081 C1090 0.930 . S
H1082 C1092 0.930 . S
H1083 C1095 0.929 . S
H1084 C1098 0.930 . S
H1085 C1100 0.960 . S
H1086 C1100 0.960 . S
H1087 C1100 0.960 . S
C1088 H1080 0.929 . S
C1088 C1089 1.377 . S
C1088 C1090 1.384 . S
C1089 C1088 1.377 . S
C1089 C1095 1.390 . S
C1090 H1081 0.930 . S
C1090 C1088 1.384 . S
C1090 C1091 1.372 . S
C1091 C1090 1.372 . S
C1091 C1092 1.400 . S
C1091 C1096 1.490 . S
C1092 H1082 0.930 . S
C1092 C1091 1.400 . S
C1092 C1095 1.386 . S
H1093 C1109 0.930 . S
H1094 C1110 0.931 . S
C1095 H1083 0.929 . S
C1095 C1089 1.390 . S
C1095 C1092 1.386 . S
C1096 C1091 1.490 . S
C1096 C1098 1.395 . S
C1096 C1099 1.403 . S
H1097 C1103 0.930 . S
C1098 H1084 0.930 . S
C1098 C1096 1.395 . S
C1098 C1101 1.403 . S
C1099 C1096 1.403 . S
C1099 C1100 1.524 . S
C1099 C1103 1.400 . S
C1100 H1085 0.960 . S
C1100 H1086 0.960 . S
C1100 H1087 0.960 . S
C1100 C1099 1.524 . S
C1101 C1098 1.403 . S
C1101 C1102 1.392 . S
C1101 C1105 1.495 . S
C1102 C1101 1.392 . S
C1102 C1103 1.385 . S
C1102 C1104 1.478 . S
C1103 H1097 0.930 . S
C1103 C1099 1.400 . S
C1103 C1102 1.385 . S
C1104 C1102 1.478 . S
C1104 C1106 1.381 . S
C1104 C1110 1.383 . S
C1105 C1101 1.495 . S
C1105 H1111 0.959 . S
C1105 H1112 0.961 . S
C1105 H1113 0.960 . S
C1106 C1104 1.381 . S
C1106 C1107 1.394 . S
C1106 H1114 0.930 . S
C1107 C1106 1.394 . S
C1107 C1108 1.383 . S
C1107 H1115 0.929 . S
C1108 C1107 1.383 . S
C1108 C1109 1.377 . S
C1109 H1093 0.930 . S
C1109 C1108 1.377 . S
C1109 C1110 1.379 . S
C1110 H1094 0.931 . S
C1110 C1104 1.383 . S
C1110 C1109 1.379 . S
H1111 C1105 0.959 . S
H1112 C1105 0.961 . S
H1113 C1105 0.960 . S
H1114 C1106 0.930 . S
H1115 C1107 0.929 . S
H1116 C1124 0.929 . S
H1117 C1126 0.930 . S
H1118 C1128 0.930 . S
H1119 C1131 0.929 . S
H1120 C1134 0.930 . S
H1121 C1136 0.960 . S
H1122 C1136 0.960 . S
H1123 C1136 0.960 . S
C1124 H1116 0.929 . S
C1124 C1125 1.377 . S
C1124 C1126 1.384 . S
C1125 C1124 1.377 . S
C1125 C1131 1.390 . S
C1126 H1117 0.930 . S
C1126 C1124 1.384 . S
C1126 C1127 1.372 . S
C1127 C1126 1.372 . S
C1127 C1128 1.400 . S
C1127 C1132 1.490 . S
C1128 H1118 0.930 . S
C1128 C1127 1.400 . S
C1128 C1131 1.386 . S
H1129 C1145 0.930 . S
H1130 C1146 0.931 . S
C1131 H1119 0.929 . S
C1131 C1125 1.390 . S
C1131 C1128 1.386 . S
C1132 C1127 1.490 . S
C1132 C1134 1.395 . S
C1132 C1135 1.403 . S
H1133 C1139 0.930 . S
C1134 H1120 0.930 . S
C1134 C1132 1.395 . S
C1134 C1137 1.403 . S
C1135 C1132 1.403 . S
C1135 C1136 1.524 . S
C1135 C1139 1.400 . S
C1136 H1121 0.960 . S
C1136 H1122 0.960 . S
C1136 H1123 0.960 . S
C1136 C1135 1.524 . S
C1137 C1134 1.403 . S
C1137 C1138 1.392 . S
C1137 C1141 1.495 . S
C1138 C1137 1.392 . S
C1138 C1139 1.385 . S
C1138 C1140 1.478 . S
C1139 H1133 0.930 . S
C1139 C1135 1.400 . S
C1139 C1138 1.385 . S
C1140 C1138 1.478 . S
C1140 C1142 1.342 1_556 S
C1140 C1146 1.383 . S
C1141 C1137 1.495 . S
C1141 H1147 0.959 . S
C1141 H1148 0.961 . S
C1141 H1149 0.960 . S
C1142 C1140 1.342 1_554 S
C1142 C1143 1.405 . S
C1142 H1150 0.959 . S
C1143 C1142 1.405 . S
C1143 C1144 1.383 1_554 S
C1143 H1151 0.929 . S
C1144 C1143 1.383 1_556 S
C1144 C1145 1.377 . S
C1145 H1129 0.930 . S
C1145 C1144 1.377 . S
C1145 C1146 1.379 . S
C1146 H1130 0.931 . S
C1146 C1140 1.383 . S
C1146 C1145 1.379 . S
H1147 C1141 0.959 . S
H1148 C1141 0.961 . S
H1149 C1141 0.960 . S
H1150 C1142 0.959 . S
H1151 C1143 0.929 . S
H1152 C1160 0.929 . S
H1153 C1162 0.930 . S
H1154 C1164 0.930 . S
H1155 C1167 0.929 . S
H1156 C1170 0.930 . S
H1157 C1172 0.960 . S
H1158 C1172 0.960 . S
H1159 C1172 0.960 . S
C1160 H1152 0.929 . S
C1160 C1161 1.377 . S
C1160 C1162 1.384 . S
C1161 C1160 1.377 . S
C1161 C1167 1.390 . S
C1162 H1153 0.930 . S
C1162 C1160 1.384 . S
C1162 C1163 1.372 . S
C1163 C1162 1.372 . S
C1163 C1164 1.400 . S
C1163 C1168 1.490 . S
C1164 H1154 0.930 . S
C1164 C1163 1.400 . S
C1164 C1167 1.386 . S
H1165 C1181 0.930 . S
H1166 C1182 0.931 . S
C1167 H1155 0.929 . S
C1167 C1161 1.390 . S
C1167 C1164 1.386 . S
C1168 C1163 1.490 . S
C1168 C1170 1.395 . S
C1168 C1171 1.403 . S
H1169 C1175 0.930 . S
C1170 H1156 0.930 . S
C1170 C1168 1.395 . S
C1170 C1173 1.403 . S
C1171 C1168 1.403 . S
C1171 C1172 1.524 . S
C1171 C1175 1.400 . S
C1172 H1157 0.960 . S
C1172 H1158 0.960 . S
C1172 H1159 0.960 . S
C1172 C1171 1.524 . S
C1173 C1170 1.403 . S
C1173 C1174 1.392 . S
C1173 C1177 1.495 . S
C1174 C1173 1.392 . S
C1174 C1175 1.385 . S
C1174 C1176 1.478 . S
C1175 H1169 0.930 . S
C1175 C1171 1.400 . S
C1175 C1174 1.385 . S
C1176 C1174 1.478 . S
C1176 C1178 1.381 . S
C1176 C1182 1.383 . S
C1177 C1173 1.495 . S
C1177 H1183 0.959 . S
C1177 H1184 0.919 1_556 S
C1177 H1185 0.960 . S
C1178 C1176 1.381 . S
C1178 C1179 1.394 . S
C1178 H1186 0.930 . S
C1179 C1178 1.394 . S
C1179 C1180 1.383 . S
C1179 H1187 0.929 . S
C1180 C1179 1.383 . S
C1180 C1181 1.377 . S
C1181 H1165 0.930 . S
C1181 C1180 1.377 . S
C1181 C1182 1.379 . S
C1182 H1166 0.931 . S
C1182 C1176 1.383 . S
C1182 C1181 1.379 . S
H1183 C1177 0.959 . S
H1184 C1177 0.919 1_554 S
H1185 C1177 0.960 . S
H1186 C1178 0.930 . S
H1187 C1179 0.929 . S
H1188 C1196 0.929 . S
H1189 C1198 0.930 . S
H1190 C1200 0.930 . S
H1191 C1203 0.929 . S
H1192 C1206 0.930 . S
H1193 C1208 0.960 . S
H1194 C1208 0.960 . S
H1195 C1208 0.960 . S
C1196 H1188 0.929 . S
C1196 C1197 1.377 . S
C1196 C1198 1.384 . S
C1197 C1196 1.377 . S
C1197 C1203 1.390 . S
C1198 H1189 0.930 . S
C1198 C1196 1.384 . S
C1198 C1199 1.372 . S
C1199 C1198 1.372 . S
C1199 C1200 1.400 . S
C1199 C1204 1.490 . S
C1200 H1190 0.930 . S
C1200 C1199 1.400 . S
C1200 C1203 1.386 . S
H1201 C1217 0.930 . S
H1202 C1218 0.931 . S
C1203 H1191 0.929 . S
C1203 C1197 1.390 . S
C1203 C1200 1.386 . S
C1204 C1199 1.490 . S
C1204 C1206 1.395 . S
C1204 C1207 1.403 . S
H1205 C1211 0.930 . S
C1206 H1192 0.930 . S
C1206 C1204 1.395 . S
C1206 C1209 1.403 . S
C1207 C1204 1.403 . S
C1207 C1208 1.524 . S
C1207 C1211 1.400 . S
C1208 H1193 0.960 . S
C1208 H1194 0.960 . S
C1208 H1195 0.960 . S
C1208 C1207 1.524 . S
C1209 C1206 1.403 . S
C1209 C1210 1.392 . S
C1209 C1213 1.495 . S
C1210 C1209 1.392 . S
C1210 C1211 1.385 . S
C1210 C1212 1.478 . S
C1211 H1205 0.930 . S
C1211 C1207 1.400 . S
C1211 C1210 1.385 . S
C1212 C1210 1.478 . S
C1212 C1214 1.381 . S
C1212 C1218 1.383 . S
C1213 C1209 1.495 . S
C1213 H1219 0.959 . S
C1213 H1220 0.961 . S
C1213 H1221 0.960 . S
C1214 C1212 1.381 . S
C1214 C1215 1.394 . S
C1214 H1222 0.930 . S
C1215 C1214 1.394 . S
C1215 C1216 1.383 . S
C1215 H1223 0.929 1_556 S
C1216 C1215 1.383 . S
C1216 C1217 1.377 . S
C1217 H1201 0.930 . S
C1217 C1216 1.377 . S
C1217 C1218 1.379 . S
C1218 H1202 0.931 . S
C1218 C1212 1.383 . S
C1218 C1217 1.379 . S
H1219 C1213 0.959 . S
H1220 C1213 0.961 . S
H1221 C1213 0.960 . S
H1222 C1214 0.930 . S
H1223 C1215 0.929 1_554 S
H1224 C1232 0.929 . S
H1225 C1234 0.930 . S
H1226 C1236 0.930 . S
H1227 C1239 0.929 . S
H1228 C1242 0.930 . S
H1229 C1244 0.960 . S
H1230 C1244 0.960 . S
H1231 C1244 0.960 . S
C1232 H1224 0.929 . S
C1232 C1233 1.377 . S
C1232 C1234 1.384 . S
C1233 C1232 1.377 . S
C1233 C1239 1.390 . S
C1234 H1225 0.930 . S
C1234 C1232 1.384 . S
C1234 C1235 1.372 . S
C1235 C1234 1.372 . S
C1235 C1236 1.400 . S
C1235 C1240 1.490 . S
C1236 H1226 0.930 . S
C1236 C1235 1.400 . S
C1236 C1239 1.386 . S
H1237 C1253 0.929 . S
H1238 C1254 0.931 . S
C1239 H1227 0.929 . S
C1239 C1233 1.390 . S
C1239 C1236 1.386 . S
C1240 C1235 1.490 . S
C1240 C1242 1.395 . S
C1240 C1243 1.403 . S
H1241 C1247 0.930 . S
C1242 H1228 0.930 . S
C1242 C1240 1.395 . S
C1242 C1245 1.403 . S
C1243 C1240 1.403 . S
C1243 C1244 1.524 . S
C1243 C1247 1.400 . S
C1244 H1229 0.960 . S
C1244 H1230 0.960 . S
C1244 H1231 0.960 . S
C1244 C1243 1.524 . S
C1245 C1242 1.403 . S
C1245 C1246 1.392 . S
C1245 C1249 1.539 . S
C1246 C1245 1.392 . S
C1246 C1247 1.385 . S
C1246 C1248 1.478 . S
C1247 H1241 0.930 . S
C1247 C1243 1.400 . S
C1247 C1246 1.385 . S
C1248 C1246 1.478 . S
C1248 C1250 1.381 . S
C1248 C1254 1.383 . S
C1249 C1245 1.539 . S
C1249 H1255 0.937 1_556 S
C1249 H1256 0.918 1_556 S
C1249 H1257 0.986 . S
C1250 C1248 1.381 . S
C1250 C1251 1.394 . S
C1250 H1258 0.930 . S
C1251 C1250 1.394 . S
C1251 C1252 1.383 . S
C1251 H1259 0.929 . S
C1252 C1251 1.383 . S
C1252 C1253 1.377 . S
C1253 H1237 0.929 . S
C1253 C1252 1.377 . S
C1253 C1254 1.379 . S
C1254 H1238 0.931 . S
C1254 C1248 1.383 . S
C1254 C1253 1.379 . S
H1255 C1249 0.937 1_554 S
H1256 C1249 0.918 1_554 S
H1257 C1249 0.986 . S
H1258 C1250 0.930 . S
H1259 C1251 0.929 . S
H1260 C1268 0.929 . S
H1261 C1270 0.930 . S
H1262 C1272 0.930 . S
H1263 C1275 0.929 . S
H1264 C1278 0.930 . S
H1265 C1280 0.960 . S
H1266 C1280 0.960 . S
H1267 C1280 0.960 . S
C1268 H1260 0.929 . S
C1268 C1269 1.377 . S
C1268 C1270 1.384 . S
C1269 C1268 1.377 . S
C1269 C1275 1.390 . S
C1270 H1261 0.930 . S
C1270 C1268 1.384 . S
C1270 C1271 1.372 . S
C1271 C1270 1.372 . S
C1271 C1272 1.400 . S
C1271 C1276 1.490 . S
C1272 H1262 0.930 . S
C1272 C1271 1.400 . S
C1272 C1275 1.386 . S
H1273 C1289 0.930 . S
H1274 C1290 0.931 . S
C1275 H1263 0.929 . S
C1275 C1269 1.390 . S
C1275 C1272 1.386 . S
C1276 C1271 1.490 . S
C1276 C1278 1.395 . S
C1276 C1279 1.403 . S
H1277 C1283 0.930 . S
C1278 H1264 0.930 . S
C1278 C1276 1.395 . S
C1278 C1281 1.403 . S
C1279 C1276 1.403 . S
C1279 C1280 1.524 . S
C1279 C1283 1.400 . S
C1280 H1265 0.960 . S
C1280 H1266 0.960 . S
C1280 H1267 0.960 . S
C1280 C1279 1.524 . S
C1281 C1278 1.403 . S
C1281 C1282 1.392 . S
C1281 C1285 1.495 . S
C1282 C1281 1.392 . S
C1282 C1283 1.385 . S
C1282 C1284 1.478 . S
C1283 H1277 0.930 . S
C1283 C1279 1.400 . S
C1283 C1282 1.385 . S
C1284 C1282 1.478 . S
C1284 C1286 1.381 . S
C1284 C1290 1.383 . S
C1285 C1281 1.495 . S
C1285 H1291 0.959 . S
C1285 H1292 0.961 . S
C1285 H1293 0.960 . S
C1286 C1284 1.381 . S
C1286 C1287 1.394 . S
C1286 H1294 0.930 . S
C1287 C1286 1.394 . S
C1287 C1288 1.383 . S
C1287 H1295 0.929 . S
C1288 C1287 1.383 . S
C1288 C1289 1.377 . S
C1289 H1273 0.930 . S
C1289 C1288 1.377 . S
C1289 C1290 1.379 . S
C1290 H1274 0.931 . S
C1290 C1284 1.383 . S
C1290 C1289 1.379 . S
H1291 C1285 0.959 . S
H1292 C1285 0.961 . S
H1293 C1285 0.960 . S
H1294 C1286 0.930 . S
H1295 C1287 0.929 . S
H1296 C1304 0.929 . S
H1297 C1306 0.930 . S
H1298 C1308 0.930 . S
H1299 C1311 0.929 . S
H1300 C1314 0.930 . S
H1301 C1316 0.960 . S
H1302 C1316 0.960 . S
H1303 C1316 0.960 . S
C1304 H1296 0.929 . S
C1304 C1305 1.377 . S
C1304 C1306 1.384 . S
C1305 C1304 1.377 . S
C1305 C1311 1.390 . S
C1306 H1297 0.930 . S
C1306 C1304 1.384 . S
C1306 C1307 1.372 . S
C1307 C1306 1.372 . S
C1307 C1308 1.400 . S
C1307 C1312 1.490 . S
C1308 H1298 0.930 . S
C1308 C1307 1.400 . S
C1308 C1311 1.386 . S
H1309 C1325 0.930 . S
H1310 C1326 0.931 . S
C1311 H1299 0.929 . S
C1311 C1305 1.390 . S
C1311 C1308 1.386 . S
C1312 C1307 1.490 . S
C1312 C1314 1.395 . S
C1312 C1315 1.403 . S
H1313 C1319 0.930 . S
C1314 H1300 0.930 . S
C1314 C1312 1.395 . S
C1314 C1317 1.403 . S
C1315 C1312 1.403 . S
C1315 C1316 1.524 . S
C1315 C1319 1.400 . S
C1316 H1301 0.960 . S
C1316 H1302 0.960 . S
C1316 H1303 0.960 . S
C1316 C1315 1.524 . S
C1317 C1314 1.403 . S
C1317 C1318 1.392 . S
C1317 C1321 1.495 . S
C1318 C1317 1.392 . S
C1318 C1319 1.385 . S
C1318 C1320 1.478 . S
C1319 H1313 0.930 . S
C1319 C1315 1.400 . S
C1319 C1318 1.385 . S
C1320 C1318 1.478 . S
C1320 C1322 1.381 . S
C1320 C1326 1.383 . S
C1321 C1317 1.495 . S
C1321 H1327 0.959 . S
C1321 H1328 0.961 . S
C1321 H1329 0.960 . S
C1322 C1320 1.381 . S
C1322 C1323 1.394 . S
C1322 H1330 0.930 . S
C1323 C1322 1.394 . S
C1323 C1324 1.383 . S
C1323 H1331 0.929 . S
C1324 C1323 1.383 . S
C1324 C1325 1.377 . S
C1325 H1309 0.930 . S
C1325 C1324 1.377 . S
C1325 C1326 1.379 . S
C1326 H1310 0.931 . S
C1326 C1320 1.383 . S
C1326 C1325 1.379 . S
H1327 C1321 0.959 . S
H1328 C1321 0.961 . S
H1329 C1321 0.960 . S
H1330 C1322 0.930 . S
H1331 C1323 0.929 . S
H1332 C1340 0.929 . S
H1333 C1342 0.930 . S
H1334 C1344 0.930 . S
H1335 C1347 0.929 . S
H1336 C1350 0.930 . S
H1337 C1352 0.960 . S
H1338 C1352 0.960 . S
H1339 C1352 0.960 . S
C1340 H1332 0.929 . S
C1340 C1341 1.377 . S
C1340 C1342 1.384 . S
C1341 C1340 1.377 . S
C1341 C1347 1.390 . S
C1342 H1333 0.930 . S
C1342 C1340 1.384 . S
C1342 C1343 1.372 . S
C1343 C1342 1.372 . S
C1343 C1344 1.400 . S
C1343 C1348 1.490 . S
C1344 H1334 0.930 . S
C1344 C1343 1.400 . S
C1344 C1347 1.386 . S
H1345 C1361 0.930 1_556 S
H1346 C1362 0.931 . S
C1347 H1335 0.929 . S
C1347 C1341 1.390 . S
C1347 C1344 1.386 . S
C1348 C1343 1.490 . S
C1348 C1350 1.395 . S
C1348 C1351 1.403 . S
H1349 C1355 0.930 . S
C1350 H1336 0.930 . S
C1350 C1348 1.395 . S
C1350 C1353 1.403 . S
C1351 C1348 1.403 . S
C1351 C1352 1.524 . S
C1351 C1355 1.400 . S
C1352 H1337 0.960 . S
C1352 H1338 0.960 . S
C1352 H1339 0.960 . S
C1352 C1351 1.524 . S
C1353 C1350 1.403 . S
C1353 C1354 1.392 . S
C1353 C1357 1.495 . S
C1354 C1353 1.392 . S
C1354 C1355 1.385 . S
C1354 C1356 1.478 . S
C1355 H1349 0.930 . S
C1355 C1351 1.400 . S
C1355 C1354 1.385 . S
C1356 C1354 1.478 . S
C1356 C1358 1.381 . S
C1356 C1362 1.383 . S
C1357 C1353 1.495 . S
C1357 H1363 0.959 . S
C1357 H1364 0.961 . S
C1357 H1365 0.960 . S
C1358 C1356 1.381 . S
C1358 C1359 1.394 . S
C1358 H1366 0.930 . S
C1359 C1358 1.394 . S
C1359 C1360 1.383 . S
C1359 H1367 0.929 . S
C1360 C1359 1.383 . S
C1360 C1361 1.377 . S
C1361 H1345 0.930 1_554 S
C1361 C1360 1.377 . S
C1361 C1362 1.379 . S
C1362 H1346 0.931 . S
C1362 C1356 1.383 . S
C1362 C1361 1.379 . S
H1363 C1357 0.959 . S
H1364 C1357 0.961 . S
H1365 C1357 0.960 . S
H1366 C1358 0.930 . S
H1367 C1359 0.929 . S
H1368 C1376 0.929 . S
H1369 C1378 0.930 . S
H1370 C1380 0.930 . S
H1371 C1383 0.929 . S
H1372 C1386 0.930 . S
H1373 C1388 0.969 . S
H1374 C1388 0.960 . S
H1375 C1388 0.960 . S
C1376 H1368 0.929 . S
C1376 C1377 1.377 . S
C1376 C1378 1.384 . S
C1377 C1376 1.377 . S
C1377 C1383 1.390 . S
C1378 H1369 0.930 . S
C1378 C1376 1.384 . S
C1378 C1379 1.372 . S
C1379 C1378 1.372 . S
C1379 C1380 1.400 . S
C1379 C1384 1.490 1_655 S
C1380 H1370 0.930 . S
C1380 C1379 1.400 . S
C1380 C1383 1.386 . S
H1381 C1397 0.930 . S
H1382 C1398 0.931 . S
C1383 H1371 0.929 . S
C1383 C1377 1.390 . S
C1383 C1380 1.386 . S
C1384 C1379 1.490 1_455 S
C1384 C1386 1.395 . S
C1384 C1387 1.403 . S
H1385 C1391 0.930 . S
C1386 H1372 0.930 . S
C1386 C1384 1.395 . S
C1386 C1389 1.403 . S
C1387 C1384 1.403 . S
C1387 C1388 1.524 1_455 S
C1387 C1391 1.400 . S
C1388 H1373 0.969 . S
C1388 H1374 0.960 . S
C1388 H1375 0.960 . S
C1388 C1387 1.524 1_655 S
C1389 C1386 1.403 . S
C1389 C1390 1.392 . S
C1389 C1393 1.495 . S
C1390 C1389 1.392 . S
C1390 C1391 1.385 . S
C1390 C1392 1.478 . S
C1391 H1385 0.930 . S
C1391 C1387 1.400 . S
C1391 C1390 1.385 . S
C1392 C1390 1.478 . S
C1392 C1394 1.381 . S
C1392 C1398 1.383 . S
C1393 C1389 1.495 . S
C1393 H1399 0.959 . S
C1393 H1400 0.961 . S
C1393 H1401 0.960 . S
C1394 C1392 1.381 . S
C1394 C1395 1.394 . S
C1394 H1402 0.930 . S
C1395 C1394 1.394 . S
C1395 C1396 1.383 . S
C1395 H1403 0.929 . S
C1396 C1395 1.383 . S
C1396 C1397 1.377 . S
C1397 H1381 0.930 . S
C1397 C1396 1.377 . S
C1397 C1398 1.379 . S
C1398 H1382 0.931 . S
C1398 C1392 1.383 . S
C1398 C1397 1.379 . S
H1399 C1393 0.959 . S
H1400 C1393 0.961 . S
H1401 C1393 0.960 . S
H1402 C1394 0.930 . S
H1403 C1395 0.929 . S
H1404 C1412 0.929 . S
H1405 C1414 0.930 . S
H1406 C1416 0.930 . S
H1407 C1419 0.929 . S
H1408 C1422 0.930 . S
H1409 C1424 0.960 . S
H1410 C1424 0.960 . S
H1411 C1424 0.960 . S
C1412 H1404 0.929 . S
C1412 C1413 1.377 . S
C1412 C1414 1.384 . S
C1413 C1412 1.377 . S
C1413 C1419 1.390 . S
C1414 H1405 0.930 . S
C1414 C1412 1.384 . S
C1414 C1415 1.372 . S
C1415 C1414 1.372 . S
C1415 C1416 1.400 . S
C1415 C1420 1.490 . S
C1416 H1406 0.930 . S
C1416 C1415 1.400 . S
C1416 C1419 1.386 . S
H1417 C1433 0.930 . S
H1418 C1434 0.931 . S
C1419 H1407 0.929 . S
C1419 C1413 1.390 . S
C1419 C1416 1.386 . S
C1420 C1415 1.490 . S
C1420 C1422 1.395 . S
C1420 C1423 1.403 . S
H1421 C1427 0.930 . S
C1422 H1408 0.930 . S
C1422 C1420 1.395 . S
C1422 C1425 1.403 . S
C1423 C1420 1.403 . S
C1423 C1424 1.524 . S
C1423 C1427 1.400 . S
C1424 H1409 0.960 . S
C1424 H1410 0.960 . S
C1424 H1411 0.960 . S
C1424 C1423 1.524 . S
C1425 C1422 1.403 . S
C1425 C1426 1.392 . S
C1425 C1429 1.495 . S
C1426 C1425 1.392 . S
C1426 C1427 1.385 . S
C1426 C1428 1.478 . S
C1427 H1421 0.930 . S
C1427 C1423 1.400 . S
C1427 C1426 1.385 . S
C1428 C1426 1.478 . S
C1428 C1430 1.381 . S
C1428 C1434 1.383 . S
C1429 C1425 1.495 . S
C1429 H1435 0.959 . S
C1429 H1436 0.961 . S
C1429 H1437 0.960 . S
C1430 C1428 1.381 . S
C1430 C1431 1.394 . S
C1430 H1438 0.930 . S
C1431 C1430 1.394 . S
C1431 C1432 1.383 . S
C1431 H1439 0.929 . S
C1432 C1431 1.383 . S
C1432 C1433 1.377 . S
C1433 H1417 0.930 . S
C1433 C1432 1.377 . S
C1433 C1434 1.379 . S
C1434 H1418 0.931 . S
C1434 C1428 1.383 . S
C1434 C1433 1.379 . S
H1435 C1429 0.959 . S
H1436 C1429 0.961 . S
H1437 C1429 0.960 . S
H1438 C1430 0.930 . S
H1439 C1431 0.929 . S
H1440 C1448 0.929 . S
H1441 C1450 0.930 . S
H1442 C1452 0.930 . S
H1443 C1455 0.929 . S
H1444 C1458 0.930 1_545 S
H1445 C1460 0.960 1_565 S
H1446 C1460 0.960 . S
H1447 C1460 0.960 . S
C1448 H1440 0.929 . S
C1448 C1449 1.377 . S
C1448 C1450 1.384 . S
C1449 C1448 1.377 . S
C1449 C1455 1.390 . S
C1450 H1441 0.930 . S
C1450 C1448 1.384 . S
C1450 C1451 1.372 . S
C1451 C1450 1.372 . S
C1451 C1452 1.400 . S
C1451 C1456 1.490 . S
C1452 H1442 0.930 . S
C1452 C1451 1.400 . S
C1452 C1455 1.386 . S
H1453 C1469 0.930 . S
H1454 C1470 0.931 . S
C1455 H1443 0.929 . S
C1455 C1449 1.390 . S
C1455 C1452 1.386 . S
C1456 C1451 1.490 . S
C1456 C1458 1.395 1_545 S
C1456 C1459 1.403 1_545 S
H1457 C1463 0.930 . S
C1458 H1444 0.930 1_565 S
C1458 C1456 1.395 1_565 S
C1458 C1461 1.403 . S
C1459 C1456 1.403 1_565 S
C1459 C1460 1.524 1_565 S
C1459 C1463 1.400 . S
C1460 H1445 0.960 1_545 S
C1460 H1446 0.960 . S
C1460 H1447 0.960 . S
C1460 C1459 1.524 1_545 S
C1461 C1458 1.403 . S
C1461 C1462 1.392 . S
C1461 C1465 1.495 . S
C1462 C1461 1.392 . S
C1462 C1463 1.385 . S
C1462 C1464 1.478 . S
C1463 H1457 0.930 . S
C1463 C1459 1.400 . S
C1463 C1462 1.385 . S
C1464 C1462 1.478 . S
C1464 C1466 1.381 . S
C1464 C1470 1.383 . S
C1465 C1461 1.495 . S
C1465 H1471 0.959 . S
C1465 H1472 0.961 . S
C1465 H1473 0.960 . S
C1466 C1464 1.381 . S
C1466 C1467 1.394 . S
C1466 H1474 0.930 . S
C1467 C1466 1.394 . S
C1467 C1468 1.383 . S
C1467 H1475 0.929 . S
C1468 C1467 1.383 . S
C1468 C1469 1.377 . S
C1469 H1453 0.930 . S
C1469 C1468 1.377 . S
C1469 C1470 1.379 . S
C1470 H1454 0.931 . S
C1470 C1464 1.383 . S
C1470 C1469 1.379 . S
H1471 C1465 0.959 . S
H1472 C1465 0.961 . S
H1473 C1465 0.960 . S
H1474 C1466 0.930 . S
H1475 C1467 0.929 . S
H1476 C1484 0.929 . S
H1477 C1486 0.930 . S
H1478 C1488 0.930 . S
H1479 C1491 0.929 . S
H1480 C1494 0.930 . S
H1481 C1496 0.960 . S
H1482 C1496 0.960 . S
H1483 C1496 0.960 . S
C1484 H1476 0.929 . S
C1484 C1485 1.377 . S
C1484 C1486 1.384 . S
C1485 C1484 1.377 . S
C1485 C1491 1.390 . S
C1486 H1477 0.930 . S
C1486 C1484 1.384 . S
C1486 C1487 1.372 . S
C1487 C1486 1.372 . S
C1487 C1488 1.400 . S
C1487 C1492 1.490 . S
C1488 H1478 0.930 . S
C1488 C1487 1.400 . S
C1488 C1491 1.386 . S
H1489 C1505 0.930 . S
H1490 C1506 0.931 . S
C1491 H1479 0.929 . S
C1491 C1485 1.390 . S
C1491 C1488 1.386 . S
C1492 C1487 1.490 . S
C1492 C1494 1.395 . S
C1492 C1495 1.403 . S
H1493 C1499 0.930 . S
C1494 H1480 0.930 . S
C1494 C1492 1.395 . S
C1494 C1497 1.403 . S
C1495 C1492 1.403 . S
C1495 C1496 1.524 . S
C1495 C1499 1.400 . S
C1496 H1481 0.960 . S
C1496 H1482 0.960 . S
C1496 H1483 0.960 . S
C1496 C1495 1.524 . S
C1497 C1494 1.403 . S
C1497 C1498 1.392 . S
C1497 C1501 1.495 . S
C1498 C1497 1.392 . S
C1498 C1499 1.385 . S
C1498 C1500 1.478 . S
C1499 H1493 0.930 . S
C1499 C1495 1.400 . S
C1499 C1498 1.385 . S
C1500 C1498 1.478 . S
C1500 C1502 1.381 . S
C1500 C1506 1.383 . S
C1501 C1497 1.495 . S
C1501 H1507 0.959 . S
C1501 H1508 0.961 . S
C1501 H1509 0.960 . S
C1502 C1500 1.381 . S
C1502 C1503 1.394 . S
C1502 H1510 0.930 . S
C1503 C1502 1.394 . S
C1503 C1504 1.383 . S
C1503 H1511 0.929 . S
C1504 C1503 1.383 . S
C1504 C1505 1.377 . S
C1505 H1489 0.930 . S
C1505 C1504 1.377 . S
C1505 C1506 1.379 . S
C1506 H1490 0.931 . S
C1506 C1500 1.383 . S
C1506 C1505 1.379 . S
H1507 C1501 0.959 . S
H1508 C1501 0.961 . S
H1509 C1501 0.960 . S
H1510 C1502 0.930 . S
H1511 C1503 0.929 . S
H1512 C1520 0.929 . S
H1513 C1522 0.930 . S
H1514 C1524 0.930 . S
H1515 C1527 0.929 . S
H1516 C1530 0.930 . S
H1517 C1532 0.960 . S
H1518 C1532 0.960 . S
H1519 C1532 0.960 . S
C1520 H1512 0.929 . S
C1520 C1521 1.377 . S
C1520 C1522 1.384 . S
C1521 C1520 1.377 . S
C1521 C1527 1.390 . S
C1522 H1513 0.930 . S
C1522 C1520 1.384 . S
C1522 C1523 1.372 . S
C1523 C1522 1.372 . S
C1523 C1524 1.400 . S
C1523 C1528 1.490 . S
C1524 H1514 0.930 . S
C1524 C1523 1.400 . S
C1524 C1527 1.386 . S
H1525 C1541 0.930 . S
H1526 C1542 0.931 . S
C1527 H1515 0.929 . S
C1527 C1521 1.390 . S
C1527 C1524 1.386 . S
C1528 C1523 1.490 . S
C1528 C1530 1.395 . S
C1528 C1531 1.403 . S
H1529 C1535 0.930 . S
C1530 H1516 0.930 . S
C1530 C1528 1.395 . S
C1530 C1533 1.403 . S
C1531 C1528 1.403 . S
C1531 C1532 1.524 . S
C1531 C1535 1.400 . S
C1532 H1517 0.960 . S
C1532 H1518 0.960 . S
C1532 H1519 0.960 . S
C1532 C1531 1.524 . S
C1533 C1530 1.403 . S
C1533 C1534 1.392 . S
C1533 C1537 1.495 . S
C1534 C1533 1.392 . S
C1534 C1535 1.385 . S
C1534 C1536 1.478 . S
C1535 H1529 0.930 . S
C1535 C1531 1.400 . S
C1535 C1534 1.385 . S
C1536 C1534 1.478 . S
C1536 C1538 1.381 . S
C1536 C1542 1.383 . S
C1537 C1533 1.495 . S
C1537 H1543 0.959 . S
C1537 H1544 0.961 . S
C1537 H1545 0.960 . S
C1538 C1536 1.381 . S
C1538 C1539 1.394 . S
C1538 H1546 0.930 . S
C1539 C1538 1.394 . S
C1539 C1540 1.383 . S
C1539 H1547 0.929 . S
C1540 C1539 1.383 . S
C1540 C1541 1.377 . S
C1541 H1525 0.930 . S
C1541 C1540 1.377 . S
C1541 C1542 1.379 . S
C1542 H1526 0.931 . S
C1542 C1536 1.383 . S
C1542 C1541 1.379 . S
H1543 C1537 0.959 . S
H1544 C1537 0.961 . S
H1545 C1537 0.960 . S
H1546 C1538 0.930 . S
H1547 C1539 0.929 . S
H1548 C1556 0.929 . S
H1549 C1558 0.930 . S
H1550 C1560 0.930 . S
H1551 C1563 0.929 . S
H1552 C1566 0.930 . S
H1553 C1568 0.960 . S
H1554 C1568 0.960 . S
H1555 C1568 0.960 . S
C1556 H1548 0.929 . S
C1556 C1557 1.377 . S
C1556 C1558 1.384 . S
C1557 C1556 1.377 . S
C1557 C1563 1.390 . S
C1558 H1549 0.930 . S
C1558 C1556 1.384 . S
C1558 C1559 1.372 . S
C1559 C1558 1.372 . S
C1559 C1560 1.400 . S
C1559 C1564 1.490 . S
C1560 H1550 0.930 . S
C1560 C1559 1.400 . S
C1560 C1563 1.386 . S
H1561 C1577 0.930 . S
H1562 C1578 0.931 . S
C1563 H1551 0.929 . S
C1563 C1557 1.390 . S
C1563 C1560 1.386 . S
C1564 C1559 1.490 . S
C1564 C1566 1.395 . S
C1564 C1567 1.403 . S
H1565 C1571 0.930 . S
C1566 H1552 0.930 . S
C1566 C1564 1.395 . S
C1566 C1569 1.403 . S
C1567 C1564 1.403 . S
C1567 C1568 1.524 . S
C1567 C1571 1.400 . S
C1568 H1553 0.960 . S
C1568 H1554 0.960 . S
C1568 H1555 0.960 . S
C1568 C1567 1.524 . S
C1569 C1566 1.403 . S
C1569 C1570 1.392 . S
C1569 C1573 1.495 . S
C1570 C1569 1.392 . S
C1570 C1571 1.385 . S
C1570 C1572 1.478 . S
C1571 H1565 0.930 . S
C1571 C1567 1.400 . S
C1571 C1570 1.385 . S
C1572 C1570 1.478 . S
C1572 C1574 1.381 . S
C1572 C1578 1.383 . S
C1573 C1569 1.495 . S
C1573 H1579 0.959 . S
C1573 H1580 0.961 . S
C1573 H1581 0.960 . S
C1574 C1572 1.381 . S
C1574 C1575 1.394 . S
C1574 H1582 0.930 . S
C1575 C1574 1.394 . S
C1575 C1576 1.383 . S
C1575 H1583 0.929 . S
C1576 C1575 1.383 . S
C1576 C1577 1.377 . S
C1577 H1561 0.930 . S
C1577 C1576 1.377 . S
C1577 C1578 1.379 . S
C1578 H1562 0.931 . S
C1578 C1572 1.383 . S
C1578 C1577 1.379 . S
H1579 C1573 0.959 . S
H1580 C1573 0.961 . S
H1581 C1573 0.960 . S
H1582 C1574 0.930 . S
H1583 C1575 0.929 . S
H1584 C1592 0.929 . S
H1585 C1594 0.930 . S
H1586 C1596 0.930 . S
H1587 C1599 0.929 . S
H1588 C1602 0.930 . S
H1589 C1604 0.960 . S
H1590 C1604 0.960 . S
H1591 C1604 0.960 . S
C1592 H1584 0.929 . S
C1592 C1593 1.377 . S
C1592 C1594 1.384 . S
C1593 C1592 1.377 . S
C1593 C1599 1.390 . S
C1594 H1585 0.930 . S
C1594 C1592 1.384 . S
C1594 C1595 1.372 . S
C1595 C1594 1.372 . S
C1595 C1596 1.400 . S
C1595 C1600 1.490 . S
C1596 H1586 0.930 . S
C1596 C1595 1.400 . S
C1596 C1599 1.386 . S
H1597 C1613 0.930 . S
H1598 C1614 0.931 . S
C1599 H1587 0.929 . S
C1599 C1593 1.390 . S
C1599 C1596 1.386 . S
C1600 C1595 1.490 . S
C1600 C1602 1.395 . S
C1600 C1603 1.403 . S
H1601 C1607 0.930 . S
C1602 H1588 0.930 . S
C1602 C1600 1.395 . S
C1602 C1605 1.403 . S
C1603 C1600 1.403 . S
C1603 C1604 1.524 . S
C1603 C1607 1.400 . S
C1604 H1589 0.960 . S
C1604 H1590 0.960 . S
C1604 H1591 0.960 . S
C1604 C1603 1.524 . S
C1605 C1602 1.403 . S
C1605 C1606 1.392 . S
C1605 C1609 1.495 . S
C1606 C1605 1.392 . S
C1606 C1607 1.385 . S
C1606 C1608 1.478 . S
C1607 H1601 0.930 . S
C1607 C1603 1.400 . S
C1607 C1606 1.385 . S
C1608 C1606 1.478 . S
C1608 C1610 1.381 . S
C1608 C1614 1.383 . S
C1609 C1605 1.495 . S
C1609 H1615 0.959 . S
C1609 H1616 0.961 . S
C1609 H1617 0.960 . S
C1610 C1608 1.381 . S
C1610 C1611 1.394 . S
C1610 H1618 0.930 . S
C1611 C1610 1.394 . S
C1611 C1612 1.383 . S
C1611 H1619 0.929 . S
C1612 C1611 1.383 . S
C1612 C1613 1.377 . S
C1613 H1597 0.930 . S
C1613 C1612 1.377 . S
C1613 C1614 1.379 . S
C1614 H1598 0.931 . S
C1614 C1608 1.383 . S
C1614 C1613 1.379 . S
H1615 C1609 0.959 . S
H1616 C1609 0.961 . S
H1617 C1609 0.960 . S
H1618 C1610 0.930 . S
H1619 C1611 0.929 . S
H1620 C1628 0.929 . S
H1621 C1630 0.930 . S
H1622 C1632 0.930 . S
H1623 C1635 0.929 . S
H1624 C1638 0.930 . S
H1625 C1640 0.960 . S
H1626 C1640 0.960 . S
H1627 C1640 0.960 . S
C1628 H1620 0.929 . S
C1628 C1629 1.377 . S
C1628 C1630 1.384 . S
C1629 C1628 1.377 . S
C1629 C1635 1.390 . S
C1630 H1621 0.930 . S
C1630 C1628 1.384 . S
C1630 C1631 1.372 . S
C1631 C1630 1.372 . S
C1631 C1632 1.400 . S
C1631 C1636 1.490 . S
C1632 H1622 0.930 . S
C1632 C1631 1.400 . S
C1632 C1635 1.386 . S
H1633 C1649 0.930 . S
H1634 C1650 0.931 . S
C1635 H1623 0.929 . S
C1635 C1629 1.390 . S
C1635 C1632 1.386 . S
C1636 C1631 1.490 . S
C1636 C1638 1.395 . S
C1636 C1639 1.403 . S
H1637 C1643 0.930 . S
C1638 H1624 0.930 . S
C1638 C1636 1.395 . S
C1638 C1641 1.403 . S
C1639 C1636 1.403 . S
C1639 C1640 1.524 . S
C1639 C1643 1.400 . S
C1640 H1625 0.960 . S
C1640 H1626 0.960 . S
C1640 H1627 0.960 . S
C1640 C1639 1.524 . S
C1641 C1638 1.403 . S
C1641 C1642 1.392 . S
C1641 C1645 1.495 . S
C1642 C1641 1.392 . S
C1642 C1643 1.385 . S
C1642 C1644 1.478 . S
C1643 H1637 0.930 . S
C1643 C1639 1.400 . S
C1643 C1642 1.385 . S
C1644 C1642 1.478 . S
C1644 C1646 1.381 . S
C1644 C1650 1.383 . S
C1645 C1641 1.495 . S
C1645 H1651 0.959 . S
C1645 H1652 0.961 . S
C1645 H1653 0.960 . S
C1646 C1644 1.381 . S
C1646 C1647 1.394 . S
C1646 H1654 0.930 . S
C1647 C1646 1.394 . S
C1647 C1648 1.383 . S
C1647 H1655 0.929 . S
C1648 C1647 1.383 . S
C1648 C1649 1.377 . S
C1649 H1633 0.930 . S
C1649 C1648 1.377 . S
C1649 C1650 1.379 . S
C1650 H1634 0.931 . S
C1650 C1644 1.383 . S
C1650 C1649 1.379 . S
H1651 C1645 0.959 . S
H1652 C1645 0.961 . S
H1653 C1645 0.960 . S
H1654 C1646 0.930 . S
H1655 C1647 0.929 . S
H1656 C1664 0.929 . S
H1657 C1666 0.930 . S
H1658 C1668 0.930 . S
H1659 C1671 0.929 . S
H1660 C1674 0.930 . S
H1661 C1676 0.960 . S
H1662 C1676 0.960 . S
H1663 C1676 0.960 . S
C1664 H1656 0.929 . S
C1664 C1665 1.377 . S
C1664 C1666 1.384 . S
C1665 C1664 1.377 . S
C1665 C1671 1.390 . S
C1666 H1657 0.930 . S
C1666 C1664 1.384 . S
C1666 C1667 1.372 . S
C1667 C1666 1.372 . S
C1667 C1668 1.400 . S
C1667 C1672 1.490 . S
C1668 H1658 0.930 . S
C1668 C1667 1.400 . S
C1668 C1671 1.386 . S
H1669 C1685 0.930 . S
H1670 C1686 0.931 . S
C1671 H1659 0.929 . S
C1671 C1665 1.390 . S
C1671 C1668 1.386 . S
C1672 C1667 1.490 . S
C1672 C1674 1.395 . S
C1672 C1675 1.403 . S
H1673 C1679 0.930 . S
C1674 H1660 0.930 . S
C1674 C1672 1.395 . S
C1674 C1677 1.403 . S
C1675 C1672 1.403 . S
C1675 C1676 1.524 . S
C1675 C1679 1.400 . S
C1676 H1661 0.960 . S
C1676 H1662 0.960 . S
C1676 H1663 0.960 . S
C1676 C1675 1.524 . S
C1677 C1674 1.403 . S
C1677 C1678 1.392 . S
C1677 C1681 1.495 . S
C1678 C1677 1.392 . S
C1678 C1679 1.385 . S
C1678 C1680 1.478 . S
C1679 H1673 0.930 . S
C1679 C1675 1.400 . S
C1679 C1678 1.385 . S
C1680 C1678 1.478 . S
C1680 C1682 1.381 . S
C1680 C1686 1.383 . S
C1681 C1677 1.495 . S
C1681 H1687 0.959 . S
C1681 H1688 0.961 . S
C1681 H1689 0.960 . S
C1682 C1680 1.381 . S
C1682 C1683 1.394 . S
C1682 H1690 0.930 . S
C1683 C1682 1.394 . S
C1683 C1684 1.383 . S
C1683 H1691 0.929 . S
C1684 C1683 1.383 . S
C1684 C1685 1.377 . S
C1685 H1669 0.930 . S
C1685 C1684 1.377 . S
C1685 C1686 1.379 . S
C1686 H1670 0.931 . S
C1686 C1680 1.383 . S
C1686 C1685 1.379 . S
H1687 C1681 0.959 . S
H1688 C1681 0.961 . S
H1689 C1681 0.960 . S
H1690 C1682 0.930 . S
H1691 C1683 0.929 . S
H1692 C1700 0.929 . S
H1693 C1702 0.930 . S
H1694 C1704 0.930 . S
H1695 C1707 0.929 . S
H1696 C1710 0.930 1_545 S
H1697 C1712 0.960 . S
H1698 C1712 0.960 1_545 S
H1699 C1712 0.960 1_545 S
C1700 H1692 0.929 . S
C1700 C1701 1.377 . S
C1700 C1702 1.384 . S
C1701 C1700 1.377 . S
C1701 C1707 1.390 . S
C1702 H1693 0.930 . S
C1702 C1700 1.384 . S
C1702 C1703 1.372 . S
C1703 C1702 1.372 . S
C1703 C1704 1.400 . S
C1703 C1708 1.490 . S
C1704 H1694 0.930 . S
C1704 C1703 1.400 . S
C1704 C1707 1.386 . S
H1705 C1721 0.930 . S
H1706 C1722 0.931 . S
C1707 H1695 0.929 . S
C1707 C1701 1.390 . S
C1707 C1704 1.386 . S
C1708 C1703 1.490 . S
C1708 C1710 1.395 1_545 S
C1708 C1711 1.403 1_545 S
H1709 C1715 0.930 . S
C1710 H1696 0.930 1_565 S
C1710 C1708 1.395 1_565 S
C1710 C1713 1.403 . S
C1711 C1708 1.403 1_565 S
C1711 C1712 1.524 . S
C1711 C1715 1.400 . S
C1712 H1697 0.960 . S
C1712 H1698 0.960 1_565 S
C1712 H1699 0.960 1_565 S
C1712 C1711 1.524 . S
C1713 C1710 1.403 . S
C1713 C1714 1.392 . S
C1713 C1717 1.495 . S
C1714 C1713 1.392 . S
C1714 C1715 1.385 . S
C1714 C1716 1.478 . S
C1715 H1709 0.930 . S
C1715 C1711 1.400 . S
C1715 C1714 1.385 . S
C1716 C1714 1.478 . S
C1716 C1718 1.381 . S
C1716 C1722 1.383 . S
C1717 C1713 1.495 . S
C1717 H1723 0.959 . S
C1717 H1724 0.961 . S
C1717 H1725 0.960 . S
C1718 C1716 1.381 . S
C1718 C1719 1.394 . S
C1718 H1726 0.930 . S
C1719 C1718 1.394 . S
C1719 C1720 1.383 . S
C1719 H1727 0.929 . S
C1720 C1719 1.383 . S
C1720 C1721 1.377 . S
C1721 H1705 0.930 . S
C1721 C1720 1.377 . S
C1721 C1722 1.379 . S
C1722 H1706 0.931 . S
C1722 C1716 1.383 . S
C1722 C1721 1.379 . S
H1723 C1717 0.959 . S
H1724 C1717 0.961 . S
H1725 C1717 0.960 . S
H1726 C1718 0.930 . S
H1727 C1719 0.929 . S
H1728 C1736 0.929 . S
H1729 C1738 0.930 . S
H1730 C1740 0.930 1_455 S
H1731 C1743 0.929 . S
H1732 C1746 0.930 . S
H1733 C1748 0.960 . S
H1734 C1748 0.960 . S
H1735 C1748 0.960 . S
C1736 H1728 0.929 . S
C1736 C1737 1.377 . S
C1736 C1738 1.384 . S
C1737 C1736 1.377 . S
C1737 C1743 1.390 . S
C1738 H1729 0.930 . S
C1738 C1736 1.384 . S
C1738 C1739 1.372 . S
C1739 C1738 1.372 . S
C1739 C1740 1.400 . S
C1739 C1744 1.490 1_655 S
C1740 H1730 0.930 1_655 S
C1740 C1739 1.400 . S
C1740 C1743 1.386 . S
H1741 C1757 0.930 . S
H1742 C1758 0.931 . S
C1743 H1731 0.929 . S
C1743 C1737 1.390 . S
C1743 C1740 1.386 . S
C1744 C1739 1.490 1_455 S
C1744 C1746 1.395 . S
C1744 C1747 1.403 . S
H1745 C1751 0.930 . S
C1746 H1732 0.930 . S
C1746 C1744 1.395 . S
C1746 C1749 1.403 . S
C1747 C1744 1.403 . S
C1747 C1748 1.524 . S
C1747 C1751 1.400 . S
C1748 H1733 0.960 . S
C1748 H1734 0.960 . S
C1748 H1735 0.960 . S
C1748 C1747 1.524 . S
C1749 C1746 1.403 . S
C1749 C1750 1.392 . S
C1749 C1753 1.495 . S
C1750 C1749 1.392 . S
C1750 C1751 1.385 . S
C1750 C1752 1.478 . S
C1751 H1745 0.930 . S
C1751 C1747 1.400 . S
C1751 C1750 1.385 . S
C1752 C1750 1.478 . S
C1752 C1754 1.381 . S
C1752 C1758 1.383 . S
C1753 C1749 1.495 . S
C1753 H1759 0.959 . S
C1753 H1760 0.961 . S
C1753 H1761 0.960 . S
C1754 C1752 1.381 . S
C1754 C1755 1.394 . S
C1754 H1762 0.930 . S
C1755 C1754 1.394 . S
C1755 C1756 1.383 . S
C1755 H1763 0.929 . S
C1756 C1755 1.383 . S
C1756 C1757 1.377 . S
C1757 H1741 0.930 . S
C1757 C1756 1.377 . S
C1757 C1758 1.379 . S
C1758 H1742 0.931 . S
C1758 C1752 1.383 . S
C1758 C1757 1.379 . S
H1759 C1753 0.959 . S
H1760 C1753 0.961 . S
H1761 C1753 0.960 . S
H1762 C1754 0.930 . S
H1763 C1755 0.929 . S
H1764 C1772 0.929 . S
H1765 C1774 0.930 . S
H1766 C1776 0.930 . S
H1767 C1779 0.929 . S
H1768 C1782 0.930 . S
H1769 C1784 0.960 . S
H1770 C1784 0.960 . S
H1771 C1784 0.960 . S
C1772 H1764 0.929 . S
C1772 C1773 1.377 . S
C1772 C1774 1.384 . S
C1773 C1772 1.377 . S
C1773 C1779 1.390 . S
C1774 H1765 0.930 . S
C1774 C1772 1.384 . S
C1774 C1775 1.372 . S
C1775 C1774 1.372 . S
C1775 C1776 1.400 . S
C1775 C1780 1.490 . S
C1776 H1766 0.930 . S
C1776 C1775 1.400 . S
C1776 C1779 1.386 . S
H1777 C1793 0.930 . S
H1778 C1794 0.931 . S
C1779 H1767 0.929 . S
C1779 C1773 1.390 . S
C1779 C1776 1.386 . S
C1780 C1775 1.490 . S
C1780 C1782 1.395 . S
C1780 C1783 1.403 . S
H1781 C1787 0.930 . S
C1782 H1768 0.930 . S
C1782 C1780 1.395 . S
C1782 C1785 1.403 . S
C1783 C1780 1.403 . S
C1783 C1784 1.524 . S
C1783 C1787 1.400 . S
C1784 H1769 0.960 . S
C1784 H1770 0.960 . S
C1784 H1771 0.960 . S
C1784 C1783 1.524 . S
C1785 C1782 1.403 . S
C1785 C1786 1.392 . S
C1785 C1789 1.495 . S
C1786 C1785 1.392 . S
C1786 C1787 1.385 . S
C1786 C1788 1.478 . S
C1787 H1781 0.930 . S
C1787 C1783 1.400 . S
C1787 C1786 1.385 . S
C1788 C1786 1.478 . S
C1788 C1790 1.381 . S
C1788 C1794 1.383 . S
C1789 C1785 1.495 . S
C1789 H1795 0.959 . S
C1789 H1796 0.961 . S
C1789 H1797 0.960 . S
C1790 C1788 1.381 . S
C1790 C1791 1.394 . S
C1790 H1798 0.930 . S
C1791 C1790 1.394 . S
C1791 C1792 1.383 . S
C1791 H1799 0.929 . S
C1792 C1791 1.383 . S
C1792 C1793 1.377 . S
C1793 H1777 0.930 . S
C1793 C1792 1.377 . S
C1793 C1794 1.379 . S
C1794 H1778 0.931 . S
C1794 C1788 1.383 . S
C1794 C1793 1.379 . S
H1795 C1789 0.959 . S
H1796 C1789 0.961 . S
H1797 C1789 0.960 . S
H1798 C1790 0.930 . S
H1799 C1791 0.929 . S
H1800 C1808 0.929 . S
H1801 C1810 0.930 . S
H1802 C1812 0.930 . S
H1803 C1815 0.929 . S
H1804 C1818 0.930 . S
H1805 C1820 0.960 . S
H1806 C1820 0.960 . S
H1807 C1820 0.960 . S
C1808 H1800 0.929 . S
C1808 C1809 1.377 . S
C1808 C1810 1.384 . S
C1809 C1808 1.377 . S
C1809 C1815 1.390 . S
C1810 H1801 0.930 . S
C1810 C1808 1.384 . S
C1810 C1811 1.372 . S
C1811 C1810 1.372 . S
C1811 C1812 1.400 . S
C1811 C1816 1.490 . S
C1812 H1802 0.930 . S
C1812 C1811 1.400 . S
C1812 C1815 1.386 . S
H1813 C1829 0.930 . S
H1814 C1830 0.931 . S
C1815 H1803 0.929 . S
C1815 C1809 1.390 . S
C1815 C1812 1.386 . S
C1816 C1811 1.490 . S
C1816 C1818 1.395 . S
C1816 C1819 1.403 . S
H1817 C1823 0.930 . S
C1818 H1804 0.930 . S
C1818 C1816 1.395 . S
C1818 C1821 1.403 . S
C1819 C1816 1.403 . S
C1819 C1820 1.524 . S
C1819 C1823 1.400 . S
C1820 H1805 0.960 . S
C1820 H1806 0.960 . S
C1820 H1807 0.960 . S
C1820 C1819 1.524 . S
C1821 C1818 1.403 . S
C1821 C1822 1.392 . S
C1821 C1825 1.495 . S
C1822 C1821 1.392 . S
C1822 C1823 1.385 . S
C1822 C1824 1.478 . S
C1823 H1817 0.930 . S
C1823 C1819 1.400 . S
C1823 C1822 1.385 . S
C1824 C1822 1.478 . S
C1824 C1826 1.381 . S
C1824 C1830 1.383 . S
C1825 C1821 1.495 . S
C1825 H1831 0.959 . S
C1825 H1832 0.961 . S
C1825 H1833 0.960 . S
C1826 C1824 1.381 . S
C1826 C1827 1.394 . S
C1826 H1834 0.930 . S
C1827 C1826 1.394 . S
C1827 C1828 1.383 . S
C1827 H1835 0.929 . S
C1828 C1827 1.383 . S
C1828 C1829 1.377 . S
C1829 H1813 0.930 . S
C1829 C1828 1.377 . S
C1829 C1830 1.379 . S
C1830 H1814 0.931 . S
C1830 C1824 1.383 . S
C1830 C1829 1.379 . S
H1831 C1825 0.959 . S
H1832 C1825 0.961 . S
H1833 C1825 0.960 . S
H1834 C1826 0.930 . S
H1835 C1827 0.929 . S
H1836 C1844 0.929 . S
H1837 C1846 0.930 . S
H1838 C1848 0.930 . S
H1839 C1851 0.929 . S
H1840 C1854 0.930 . S
H1841 C1856 0.960 . S
H1842 C1856 0.960 . S
H1843 C1856 0.960 . S
C1844 H1836 0.929 . S
C1844 C1845 1.377 . S
C1844 C1846 1.384 . S
C1845 C1844 1.377 . S
C1845 C1851 1.390 . S
C1846 H1837 0.930 . S
C1846 C1844 1.384 . S
C1846 C1847 1.372 . S
C1847 C1846 1.372 . S
C1847 C1848 1.400 . S
C1847 C1852 1.490 . S
C1848 H1838 0.930 . S
C1848 C1847 1.400 . S
C1848 C1851 1.386 . S
H1849 C1865 0.930 . S
H1850 C1866 0.931 . S
C1851 H1839 0.929 . S
C1851 C1845 1.390 . S
C1851 C1848 1.386 . S
C1852 C1847 1.490 . S
C1852 C1854 1.395 . S
C1852 C1855 1.403 . S
H1853 C1859 0.930 . S
C1854 H1840 0.930 . S
C1854 C1852 1.395 . S
C1854 C1857 1.403 . S
C1855 C1852 1.403 . S
C1855 C1856 1.524 . S
C1855 C1859 1.400 . S
C1856 H1841 0.960 . S
C1856 H1842 0.960 . S
C1856 H1843 0.960 . S
C1856 C1855 1.524 . S
C1857 C1854 1.403 . S
C1857 C1858 1.392 . S
C1857 C1861 1.495 . S
C1858 C1857 1.392 . S
C1858 C1859 1.385 . S
C1858 C1860 1.478 . S
C1859 H1853 0.930 . S
C1859 C1855 1.400 . S
C1859 C1858 1.385 . S
C1860 C1858 1.478 . S
C1860 C1862 1.381 . S
C1860 C1866 1.383 . S
C1861 C1857 1.495 . S
C1861 H1867 0.959 . S
C1861 H1868 0.961 . S
C1861 H1869 0.960 . S
C1862 C1860 1.381 . S
C1862 C1863 1.394 . S
C1862 H1870 0.930 . S
C1863 C1862 1.394 . S
C1863 C1864 1.383 . S
C1863 H1871 0.929 . S
C1864 C1863 1.383 . S
C1864 C1865 1.377 . S
C1865 H1849 0.930 . S
C1865 C1864 1.377 . S
C1865 C1866 1.379 . S
C1866 H1850 0.931 . S
C1866 C1860 1.383 . S
C1866 C1865 1.379 . S
H1867 C1861 0.959 . S
H1868 C1861 0.961 . S
H1869 C1861 0.960 . S
H1870 C1862 0.930 . S
H1871 C1863 0.929 . S
H1872 C1880 0.929 . S
H1873 C1882 0.930 . S
H1874 C1884 0.930 . S
H1875 C1887 0.929 . S
H1876 C1890 0.930 . S
H1877 C1892 0.960 . S
H1878 C1892 0.960 . S
H1879 C1892 0.960 . S
C1880 H1872 0.929 . S
C1880 C1881 1.377 . S
C1880 C1882 1.384 . S
C1881 C1880 1.377 . S
C1881 C1887 1.390 . S
C1882 H1873 0.930 . S
C1882 C1880 1.384 . S
C1882 C1883 1.372 . S
C1883 C1882 1.372 . S
C1883 C1884 1.400 . S
C1883 C1888 1.490 . S
C1884 H1874 0.930 . S
C1884 C1883 1.400 . S
C1884 C1887 1.386 . S
H1885 C1901 0.930 . S
H1886 C1902 0.931 . S
C1887 H1875 0.929 . S
C1887 C1881 1.390 . S
C1887 C1884 1.386 . S
C1888 C1883 1.490 . S
C1888 C1890 1.395 . S
C1888 C1891 1.403 . S
H1889 C1895 0.930 . S
C1890 H1876 0.930 . S
C1890 C1888 1.395 . S
C1890 C1893 1.403 . S
C1891 C1888 1.403 . S
C1891 C1892 1.524 . S
C1891 C1895 1.400 . S
C1892 H1877 0.960 . S
C1892 H1878 0.960 . S
C1892 H1879 0.960 . S
C1892 C1891 1.524 . S
C1893 C1890 1.403 . S
C1893 C1894 1.392 . S
C1893 C1897 1.495 . S
C1894 C1893 1.392 . S
C1894 C1895 1.385 . S
C1894 C1896 1.478 . S
C1895 H1889 0.930 . S
C1895 C1891 1.400 . S
C1895 C1894 1.385 . S
C1896 C1894 1.478 . S
C1896 C1898 1.381 . S
C1896 C1902 1.383 . S
C1897 C1893 1.495 . S
C1897 H1903 0.959 . S
C1897 H1904 0.961 . S
C1897 H1905 0.960 . S
C1898 C1896 1.381 . S
C1898 C1899 1.394 . S
C1898 H1906 0.930 . S
C1899 C1898 1.394 . S
C1899 C1900 1.383 . S
C1899 H1907 0.929 . S
C1900 C1899 1.383 . S
C1900 C1901 1.377 . S
C1901 H1885 0.930 . S
C1901 C1900 1.377 . S
C1901 C1902 1.379 . S
C1902 H1886 0.931 . S
C1902 C1896 1.383 . S
C1902 C1901 1.379 . S
H1903 C1897 0.959 . S
H1904 C1897 0.961 . S
H1905 C1897 0.960 . S
H1906 C1898 0.930 . S
H1907 C1899 0.929 . S
H1908 C1916 0.929 . S
H1909 C1918 0.930 . S
H1910 C1920 0.930 . S
H1911 C1923 0.929 . S
H1912 C1926 0.930 1_565 S
H1913 C1928 0.960 . S
H1914 C1928 0.960 1_565 S
H1915 C1928 0.960 1_565 S
C1916 H1908 0.929 . S
C1916 C1917 1.377 . S
C1916 C1918 1.384 . S
C1917 C1916 1.377 . S
C1917 C1923 1.390 . S
C1918 H1909 0.930 . S
C1918 C1916 1.384 . S
C1918 C1919 1.372 . S
C1919 C1918 1.372 . S
C1919 C1920 1.400 . S
C1919 C1924 1.490 . S
C1920 H1910 0.930 . S
C1920 C1919 1.400 . S
C1920 C1923 1.386 . S
H1921 C1937 0.930 . S
H1922 C1938 0.931 . S
C1923 H1911 0.929 . S
C1923 C1917 1.390 . S
C1923 C1920 1.386 . S
C1924 C1919 1.490 . S
C1924 C1926 1.395 1_565 S
C1924 C1927 1.403 1_565 S
H1925 C1931 0.930 . S
C1926 H1912 0.930 1_545 S
C1926 C1924 1.395 1_545 S
C1926 C1929 1.403 . S
C1927 C1924 1.403 1_545 S
C1927 C1928 1.524 . S
C1927 C1931 1.400 . S
C1928 H1913 0.960 . S
C1928 H1914 0.960 1_545 S
C1928 H1915 0.960 1_545 S
C1928 C1927 1.524 . S
C1929 C1926 1.403 . S
C1929 C1930 1.392 . S
C1929 C1933 1.495 . S
C1930 C1929 1.392 . S
C1930 C1931 1.385 . S
C1930 C1932 1.478 . S
C1931 H1925 0.930 . S
C1931 C1927 1.400 . S
C1931 C1930 1.385 . S
C1932 C1930 1.478 . S
C1932 C1934 1.381 . S
C1932 C1938 1.383 . S
C1933 C1929 1.495 . S
C1933 H1939 0.959 . S
C1933 H1940 0.961 . S
C1933 H1941 0.960 . S
C1934 C1932 1.381 . S
C1934 C1935 1.394 . S
C1934 H1942 0.930 . S
C1935 C1934 1.394 . S
C1935 C1936 1.383 . S
C1935 H1943 0.929 . S
C1936 C1935 1.383 . S
C1936 C1937 1.377 . S
C1937 H1921 0.930 . S
C1937 C1936 1.377 . S
C1937 C1938 1.379 . S
C1938 H1922 0.931 . S
C1938 C1932 1.383 . S
C1938 C1937 1.379 . S
H1939 C1933 0.959 . S
H1940 C1933 0.961 . S
H1941 C1933 0.960 . S
H1942 C1934 0.930 . S
H1943 C1935 0.929 . S
H1944 C1952 0.929 . S
H1945 C1954 0.930 . S
H1946 C1956 0.930 . S
H1947 C1959 0.929 . S
H1948 C1962 0.930 . S
H1949 C1964 0.960 . S
H1950 C1964 0.960 . S
H1951 C1964 0.960 . S
C1952 H1944 0.929 . S
C1952 C1953 1.377 . S
C1952 C1954 1.384 . S
C1953 C1952 1.377 . S
C1953 C1959 1.390 . S
C1954 H1945 0.930 . S
C1954 C1952 1.384 . S
C1954 C1955 1.372 . S
C1955 C1954 1.372 . S
C1955 C1956 1.400 . S
C1955 C1960 1.490 1_455 S
C1956 H1946 0.930 . S
C1956 C1955 1.400 . S
C1956 C1959 1.386 . S
H1957 C1973 0.930 . S
H1958 C1974 0.931 . S
C1959 H1947 0.929 . S
C1959 C1953 1.390 . S
C1959 C1956 1.386 . S
C1960 C1955 1.490 1_655 S
C1960 C1962 1.395 . S
C1960 C1963 1.403 . S
H1961 C1967 0.930 . S
C1962 H1948 0.930 . S
C1962 C1960 1.395 . S
C1962 C1965 1.403 . S
C1963 C1960 1.403 . S
C1963 C1964 1.524 . S
C1963 C1967 1.400 . S
C1964 H1949 0.960 . S
C1964 H1950 0.960 . S
C1964 H1951 0.960 . S
C1964 C1963 1.524 . S
C1965 C1962 1.403 . S
C1965 C1966 1.392 . S
C1965 C1969 1.495 . S
C1966 C1965 1.392 . S
C1966 C1967 1.385 . S
C1966 C1968 1.478 . S
C1967 H1961 0.930 . S
C1967 C1963 1.400 . S
C1967 C1966 1.385 . S
C1968 C1966 1.478 . S
C1968 C1970 1.381 . S
C1968 C1974 1.383 . S
C1969 C1965 1.495 . S
C1969 H1975 0.959 . S
C1969 H1976 0.961 . S
C1969 H1977 0.960 . S
C1970 C1968 1.381 . S
C1970 C1971 1.394 . S
C1970 H1978 0.930 . S
C1971 C1970 1.394 . S
C1971 C1972 1.383 . S
C1971 H1979 0.929 . S
C1972 C1971 1.383 . S
C1972 C1973 1.377 . S
C1973 H1957 0.930 . S
C1973 C1972 1.377 . S
C1973 C1974 1.379 . S
C1974 H1958 0.931 . S
C1974 C1968 1.383 . S
C1974 C1973 1.379 . S
H1975 C1969 0.959 . S
H1976 C1969 0.961 . S
H1977 C1969 0.960 . S
H1978 C1970 0.930 . S
H1979 C1971 0.929 . S
H1980 C1988 0.929 . S
H1981 C1990 0.930 . S
H1982 C1992 0.930 . S
H1983 C1995 0.929 . S
H1984 C1998 0.930 . S
H1985 C2000 0.960 . S
H1986 C2000 0.960 . S
H1987 C2000 0.960 . S
C1988 H1980 0.929 . S
C1988 C1989 1.377 . S
C1988 C1990 1.384 . S
C1989 C1988 1.377 . S
C1989 C1995 1.390 . S
C1990 H1981 0.930 . S
C1990 C1988 1.384 . S
C1990 C1991 1.372 . S
C1991 C1990 1.372 . S
C1991 C1992 1.400 . S
C1991 C1996 1.490 . S
C1992 H1982 0.930 . S
C1992 C1991 1.400 . S
C1992 C1995 1.386 . S
H1993 C2009 0.930 . S
H1994 C2010 0.931 . S
C1995 H1983 0.929 . S
C1995 C1989 1.390 . S
C1995 C1992 1.386 . S
C1996 C1991 1.490 . S
C1996 C1998 1.395 . S
C1996 C1999 1.403 . S
H1997 C2003 0.930 . S
C1998 H1984 0.930 . S
C1998 C1996 1.395 . S
C1998 C2001 1.403 . S
C1999 C1996 1.403 . S
C1999 C2000 1.524 . S
C1999 C2003 1.400 . S
C2000 H1985 0.960 . S
C2000 H1986 0.960 . S
C2000 H1987 0.960 . S
C2000 C1999 1.524 . S
C2001 C1998 1.403 . S
C2001 C2002 1.392 . S
C2001 C2005 1.495 . S
C2002 C2001 1.392 . S
C2002 C2003 1.385 . S
C2002 C2004 1.478 . S
C2003 H1997 0.930 . S
C2003 C1999 1.400 . S
C2003 C2002 1.385 . S
C2004 C2002 1.478 . S
C2004 C2006 1.381 . S
C2004 C2010 1.383 . S
C2005 C2001 1.495 . S
C2005 H2011 0.959 . S
C2005 H2012 0.961 . S
C2005 H2013 0.960 . S
C2006 C2004 1.381 . S
C2006 C2007 1.394 . S
C2006 H2014 0.930 . S
C2007 C2006 1.394 . S
C2007 C2008 1.383 . S
C2007 H2015 0.929 . S
C2008 C2007 1.383 . S
C2008 C2009 1.377 . S
C2009 H1993 0.930 . S
C2009 C2008 1.377 . S
C2009 C2010 1.379 . S
C2010 H1994 0.931 . S
C2010 C2004 1.383 . S
C2010 C2009 1.379 . S
H2011 C2005 0.959 . S
H2012 C2005 0.961 . S
H2013 C2005 0.960 . S
H2014 C2006 0.930 . S
H2015 C2007 0.929 . S
H2016 C2024 0.929 . S
H2017 C2026 0.930 . S
H2018 C2028 0.930 . S
H2019 C2031 0.929 . S
H2020 C2034 0.930 . S
H2021 C2036 0.960 . S
H2022 C2036 0.960 1_455 S
H2023 C2036 0.960 . S
C2024 H2016 0.929 . S
C2024 C2025 1.377 . S
C2024 C2026 1.384 . S
C2025 C2024 1.377 . S
C2025 C2031 1.390 . S
C2026 H2017 0.930 . S
C2026 C2024 1.384 . S
C2026 C2027 1.372 . S
C2027 C2026 1.372 . S
C2027 C2028 1.400 . S
C2027 C2032 1.490 1_455 S
C2028 H2018 0.930 . S
C2028 C2027 1.400 . S
C2028 C2031 1.386 . S
H2029 C2045 0.930 . S
H2030 C2046 0.931 . S
C2031 H2019 0.929 . S
C2031 C2025 1.390 . S
C2031 C2028 1.386 . S
C2032 C2027 1.490 1_655 S
C2032 C2034 1.395 . S
C2032 C2035 1.403 . S
H2033 C2039 0.930 . S
C2034 H2020 0.930 . S
C2034 C2032 1.395 . S
C2034 C2037 1.403 . S
C2035 C2032 1.403 . S
C2035 C2036 1.524 . S
C2035 C2039 1.400 . S
C2036 H2021 0.960 . S
C2036 H2022 0.960 1_655 S
C2036 H2023 0.960 . S
C2036 C2035 1.524 . S
C2037 C2034 1.403 . S
C2037 C2038 1.392 . S
C2037 C2041 1.495 . S
C2038 C2037 1.392 . S
C2038 C2039 1.385 . S
C2038 C2040 1.478 . S
C2039 H2033 0.930 . S
C2039 C2035 1.400 . S
C2039 C2038 1.385 . S
C2040 C2038 1.478 . S
C2040 C2042 1.381 . S
C2040 C2046 1.383 . S
C2041 C2037 1.495 . S
C2041 H2047 0.959 . S
C2041 H2048 0.961 . S
C2041 H2049 0.960 . S
C2042 C2040 1.381 . S
C2042 C2043 1.394 . S
C2042 H2050 0.930 . S
C2043 C2042 1.394 . S
C2043 C2044 1.383 . S
C2043 H2051 0.929 . S
C2044 C2043 1.383 . S
C2044 C2045 1.377 . S
C2045 H2029 0.930 . S
C2045 C2044 1.377 . S
C2045 C2046 1.379 . S
C2046 H2030 0.931 . S
C2046 C2040 1.383 . S
C2046 C2045 1.379 . S
H2047 C2041 0.959 . S
H2048 C2041 0.961 . S
H2049 C2041 0.960 . S
H2050 C2042 0.930 . S
H2051 C2043 0.929 . S
H2052 C2060 0.929 . S
H2053 C2062 0.930 . S
H2054 C2064 0.930 . S
H2055 C2067 0.929 . S
H2056 C2070 0.930 . S
H2057 C2072 0.960 . S
H2058 C2072 0.960 . S
H2059 C2072 0.960 . S
C2060 H2052 0.929 . S
C2060 C2061 1.377 . S
C2060 C2062 1.384 . S
C2061 C2060 1.377 . S
C2061 C2067 1.390 . S
C2062 H2053 0.930 . S
C2062 C2060 1.384 . S
C2062 C2063 1.372 . S
C2063 C2062 1.372 . S
C2063 C2064 1.400 . S
C2063 C2068 1.490 . S
C2064 H2054 0.930 . S
C2064 C2063 1.400 . S
C2064 C2067 1.386 . S
H2065 C2081 0.930 . S
H2066 C2082 0.931 . S
C2067 H2055 0.929 . S
C2067 C2061 1.390 . S
C2067 C2064 1.386 . S
C2068 C2063 1.490 . S
C2068 C2070 1.395 . S
C2068 C2071 1.403 . S
H2069 C2075 0.930 . S
C2070 H2056 0.930 . S
C2070 C2068 1.395 . S
C2070 C2073 1.403 . S
C2071 C2068 1.403 . S
C2071 C2072 1.524 . S
C2071 C2075 1.400 . S
C2072 H2057 0.960 . S
C2072 H2058 0.960 . S
C2072 H2059 0.960 . S
C2072 C2071 1.524 . S
C2073 C2070 1.403 . S
C2073 C2074 1.392 . S
C2073 C2077 1.495 . S
C2074 C2073 1.392 . S
C2074 C2075 1.385 . S
C2074 C2076 1.478 . S
C2075 H2069 0.930 . S
C2075 C2071 1.400 . S
C2075 C2074 1.385 . S
C2076 C2074 1.478 . S
C2076 C2078 1.381 . S
C2076 C2082 1.383 . S
C2077 C2073 1.495 . S
C2077 H2083 0.959 . S
C2077 H2084 0.961 . S
C2077 H2085 0.960 . S
C2078 C2076 1.381 . S
C2078 C2079 1.394 . S
C2078 H2086 0.930 . S
C2079 C2078 1.394 . S
C2079 C2080 1.383 . S
C2079 H2087 0.929 . S
C2080 C2079 1.383 . S
C2080 C2081 1.377 . S
C2081 H2065 0.930 . S
C2081 C2080 1.377 . S
C2081 C2082 1.379 . S
C2082 H2066 0.931 . S
C2082 C2076 1.383 . S
C2082 C2081 1.379 . S
H2083 C2077 0.959 . S
H2084 C2077 0.961 . S
H2085 C2077 0.960 . S
H2086 C2078 0.930 . S
H2087 C2079 0.929 . S
H2088 C2096 0.929 . S
H2089 C2098 0.930 . S
H2090 C2100 0.930 . S
H2091 C2103 0.929 . S
H2092 C2106 0.930 1_565 S
H2093 C2108 0.962 1_545 S
H2094 C2108 0.960 . S
H2095 C2108 0.960 . S
C2096 H2088 0.929 . S
C2096 C2097 1.377 . S
C2096 C2098 1.384 . S
C2097 C2096 1.377 . S
C2097 C2103 1.390 . S
C2098 H2089 0.930 . S
C2098 C2096 1.384 . S
C2098 C2099 1.372 . S
C2099 C2098 1.372 . S
C2099 C2100 1.400 . S
C2099 C2104 1.490 . S
C2100 H2090 0.930 . S
C2100 C2099 1.400 . S
C2100 C2103 1.386 . S
H2101 C2117 0.930 . S
H2102 C2118 0.931 . S
C2103 H2091 0.929 . S
C2103 C2097 1.390 . S
C2103 C2100 1.386 . S
C2104 C2099 1.490 . S
C2104 C2106 1.395 1_565 S
C2104 C2107 1.403 1_565 S
H2105 C2111 0.930 . S
C2106 H2092 0.930 1_545 S
C2106 C2104 1.395 1_545 S
C2106 C2109 1.403 . S
C2107 C2104 1.403 1_545 S
C2107 C2108 1.524 1_545 S
C2107 C2111 1.400 . S
C2108 H2093 0.962 1_565 S
C2108 H2094 0.960 . S
C2108 H2095 0.960 . S
C2108 C2107 1.524 1_565 S
C2109 C2106 1.403 . S
C2109 C2110 1.392 . S
C2109 C2113 1.495 . S
C2110 C2109 1.392 . S
C2110 C2111 1.385 . S
C2110 C2112 1.478 . S
C2111 H2105 0.930 . S
C2111 C2107 1.400 . S
C2111 C2110 1.385 . S
C2112 C2110 1.478 . S
C2112 C2114 1.381 . S
C2112 C2118 1.383 . S
C2113 C2109 1.495 . S
C2113 H2119 0.959 . S
C2113 H2120 0.961 . S
C2113 H2121 0.960 . S
C2114 C2112 1.381 . S
C2114 C2115 1.394 . S
C2114 H2122 0.930 . S
C2115 C2114 1.394 . S
C2115 C2116 1.383 . S
C2115 H2123 0.929 . S
C2116 C2115 1.383 . S
C2116 C2117 1.377 . S
C2117 H2101 0.930 . S
C2117 C2116 1.377 . S
C2117 C2118 1.379 . S
C2118 H2102 0.931 . S
C2118 C2112 1.383 . S
C2118 C2117 1.379 . S
H2119 C2113 0.959 . S
H2120 C2113 0.961 . S
H2121 C2113 0.960 . S
H2122 C2114 0.930 . S
H2123 C2115 0.929 . S
H2124 C2132 0.929 . S
H2125 C2134 0.930 . S
H2126 C2136 0.930 . S
H2127 C2139 0.929 . S
H2128 C2142 0.930 . S
H2129 C2144 0.960 . S
H2130 C2144 0.960 . S
H2131 C2144 0.960 . S
C2132 H2124 0.929 . S
C2132 C2133 1.377 . S
C2132 C2134 1.384 . S
C2133 C2132 1.377 . S
C2133 C2139 1.390 . S
C2134 H2125 0.930 . S
C2134 C2132 1.384 . S
C2134 C2135 1.372 . S
C2135 C2134 1.372 . S
C2135 C2136 1.400 . S
C2135 C2140 1.490 . S
C2136 H2126 0.930 . S
C2136 C2135 1.400 . S
C2136 C2139 1.386 . S
H2137 C2153 0.930 . S
H2138 C2154 0.931 . S
C2139 H2127 0.929 . S
C2139 C2133 1.390 . S
C2139 C2136 1.386 . S
C2140 C2135 1.490 . S
C2140 C2142 1.395 . S
C2140 C2143 1.403 . S
H2141 C2147 0.930 . S
C2142 H2128 0.930 . S
C2142 C2140 1.395 . S
C2142 C2145 1.403 . S
C2143 C2140 1.403 . S
C2143 C2144 1.524 . S
C2143 C2147 1.400 . S
C2144 H2129 0.960 . S
C2144 H2130 0.960 . S
C2144 H2131 0.960 . S
C2144 C2143 1.524 . S
C2145 C2142 1.403 . S
C2145 C2146 1.392 . S
C2145 C2149 1.495 . S
C2146 C2145 1.392 . S
C2146 C2147 1.385 . S
C2146 C2148 1.478 . S
C2147 H2141 0.930 . S
C2147 C2143 1.400 . S
C2147 C2146 1.385 . S
C2148 C2146 1.478 . S
C2148 C2150 1.381 . S
C2148 C2154 1.383 . S
C2149 C2145 1.495 . S
C2149 H2155 0.959 . S
C2149 H2156 0.961 . S
C2149 H2157 0.960 . S
C2150 C2148 1.381 . S
C2150 C2151 1.394 . S
C2150 H2158 0.930 . S
C2151 C2150 1.394 . S
C2151 C2152 1.383 . S
C2151 H2159 0.929 . S
C2152 C2151 1.383 . S
C2152 C2153 1.377 . S
C2153 H2137 0.930 . S
C2153 C2152 1.377 . S
C2153 C2154 1.379 . S
C2154 H2138 0.931 . S
C2154 C2148 1.383 . S
C2154 C2153 1.379 . S
H2155 C2149 0.959 . S
H2156 C2149 0.961 . S
H2157 C2149 0.960 . S
H2158 C2150 0.930 . S
H2159 C2151 0.929 . S
H2160 C2168 0.929 . S
H2161 C2170 0.930 . S
H2162 C2172 0.930 . S
H2163 C2175 0.929 . S
H2164 C2178 0.930 . S
H2165 C2180 0.960 . S
H2166 C2180 0.960 . S
H2167 C2180 0.960 . S
C2168 H2160 0.929 . S
C2168 C2169 1.377 . S
C2168 C2170 1.384 . S
C2169 C2168 1.377 . S
C2169 C2175 1.390 . S
C2170 H2161 0.930 . S
C2170 C2168 1.384 . S
C2170 C2171 1.372 . S
C2171 C2170 1.372 . S
C2171 C2172 1.400 . S
C2171 C2176 1.490 . S
C2172 H2162 0.930 . S
C2172 C2171 1.400 . S
C2172 C2175 1.386 . S
H2173 C2189 0.930 . S
H2174 C2190 0.931 . S
C2175 H2163 0.929 . S
C2175 C2169 1.390 . S
C2175 C2172 1.386 . S
C2176 C2171 1.490 . S
C2176 C2178 1.395 . S
C2176 C2179 1.403 . S
H2177 C2183 0.930 . S
C2178 H2164 0.930 . S
C2178 C2176 1.395 . S
C2178 C2181 1.403 . S
C2179 C2176 1.403 . S
C2179 C2180 1.524 . S
C2179 C2183 1.400 . S
C2180 H2165 0.960 . S
C2180 H2166 0.960 . S
C2180 H2167 0.960 . S
C2180 C2179 1.524 . S
C2181 C2178 1.403 . S
C2181 C2182 1.392 . S
C2181 C2185 1.495 . S
C2182 C2181 1.392 . S
C2182 C2183 1.385 . S
C2182 C2184 1.478 . S
C2183 H2177 0.930 . S
C2183 C2179 1.400 . S
C2183 C2182 1.385 . S
C2184 C2182 1.478 . S
C2184 C2186 1.381 . S
C2184 C2190 1.383 . S
C2185 C2181 1.495 . S
C2185 H2191 0.959 . S
C2185 H2192 0.961 . S
C2185 H2193 0.960 . S
C2186 C2184 1.381 . S
C2186 C2187 1.394 . S
C2186 H2194 0.930 . S
C2187 C2186 1.394 . S
C2187 C2188 1.383 . S
C2187 H2195 0.929 . S
C2188 C2187 1.383 . S
C2188 C2189 1.377 . S
C2189 H2173 0.930 . S
C2189 C2188 1.377 . S
C2189 C2190 1.379 . S
C2190 H2174 0.931 . S
C2190 C2184 1.383 . S
C2190 C2189 1.379 . S
H2191 C2185 0.959 . S
H2192 C2185 0.961 . S
H2193 C2185 0.960 . S
H2194 C2186 0.930 . S
H2195 C2187 0.929 . S
H2196 C2204 0.929 . S
H2197 C2206 0.930 . S
H2198 C2208 0.930 . S
H2199 C2211 0.929 . S
H2200 C2214 0.930 . S
H2201 C2216 0.960 . S
H2202 C2216 0.960 . S
H2203 C2216 0.960 . S
C2204 H2196 0.929 . S
C2204 C2205 1.377 . S
C2204 C2206 1.384 . S
C2205 C2204 1.377 . S
C2205 C2211 1.390 . S
C2206 H2197 0.930 . S
C2206 C2204 1.384 . S
C2206 C2207 1.372 . S
C2207 C2206 1.372 . S
C2207 C2208 1.400 . S
C2207 C2212 1.490 . S
C2208 H2198 0.930 . S
C2208 C2207 1.400 . S
C2208 C2211 1.386 . S
H2209 C2225 0.930 . S
H2210 C2226 0.931 . S
C2211 H2199 0.929 . S
C2211 C2205 1.390 . S
C2211 C2208 1.386 . S
C2212 C2207 1.490 . S
C2212 C2214 1.395 . S
C2212 C2215 1.403 . S
H2213 C2219 0.930 . S
C2214 H2200 0.930 . S
C2214 C2212 1.395 . S
C2214 C2217 1.403 . S
C2215 C2212 1.403 . S
C2215 C2216 1.524 . S
C2215 C2219 1.400 . S
C2216 H2201 0.960 . S
C2216 H2202 0.960 . S
C2216 H2203 0.960 . S
C2216 C2215 1.524 . S
C2217 C2214 1.403 . S
C2217 C2218 1.392 . S
C2217 C2221 1.495 . S
C2218 C2217 1.392 . S
C2218 C2219 1.385 . S
C2218 C2220 1.478 . S
C2219 H2213 0.930 . S
C2219 C2215 1.400 . S
C2219 C2218 1.385 . S
C2220 C2218 1.478 . S
C2220 C2222 1.381 . S
C2220 C2226 1.383 . S
C2221 C2217 1.495 . S
C2221 H2227 0.959 . S
C2221 H2228 0.961 . S
C2221 H2229 0.960 . S
C2222 C2220 1.381 . S
C2222 C2223 1.394 . S
C2222 H2230 0.930 . S
C2223 C2222 1.394 . S
C2223 C2224 1.383 . S
C2223 H2231 0.929 . S
C2224 C2223 1.383 . S
C2224 C2225 1.377 . S
C2225 H2209 0.930 . S
C2225 C2224 1.377 . S
C2225 C2226 1.379 . S
C2226 H2210 0.931 . S
C2226 C2220 1.383 . S
C2226 C2225 1.379 . S
H2227 C2221 0.959 . S
H2228 C2221 0.961 . S
H2229 C2221 0.960 . S
H2230 C2222 0.930 . S
H2231 C2223 0.929 . S
H2232 C2240 0.929 . S
H2233 C2242 0.930 . S
H2234 C2244 0.930 . S
H2235 C2247 0.929 . S
H2236 C2250 0.930 . S
H2237 C2252 0.936 1_545 S
H2238 C2252 0.990 . S
H2239 C2252 0.940 1_545 S
C2240 H2232 0.929 . S
C2240 C2241 1.377 . S
C2240 C2242 1.384 . S
C2241 C2240 1.377 . S
C2241 C2247 1.390 . S
C2242 H2233 0.930 . S
C2242 C2240 1.384 . S
C2242 C2243 1.372 . S
C2243 C2242 1.372 . S
C2243 C2244 1.400 . S
C2243 C2248 1.490 . S
C2244 H2234 0.930 . S
C2244 C2243 1.400 . S
C2244 C2247 1.386 . S
H2245 C2261 0.930 1_545 S
H2246 C2262 0.931 . S
C2247 H2235 0.929 . S
C2247 C2241 1.390 . S
C2247 C2244 1.386 . S
C2248 C2243 1.490 . S
C2248 C2250 1.395 . S
C2248 C2251 1.403 . S
H2249 C2255 0.930 . S
C2250 H2236 0.930 . S
C2250 C2248 1.395 . S
C2250 C2253 1.403 . S
C2251 C2248 1.403 . S
C2251 C2252 1.540 . S
C2251 C2255 1.400 . S
C2252 H2237 0.936 1_565 S
C2252 H2238 0.990 . S
C2252 H2239 0.940 1_565 S
C2252 C2251 1.540 . S
C2253 C2250 1.403 . S
C2253 C2254 1.392 . S
C2253 C2257 1.495 . S
C2254 C2253 1.392 . S
C2254 C2255 1.385 . S
C2254 C2256 1.478 . S
C2255 H2249 0.930 . S
C2255 C2251 1.400 . S
C2255 C2254 1.385 . S
C2256 C2254 1.478 . S
C2256 C2258 1.381 . S
C2256 C2262 1.383 . S
C2257 C2253 1.495 . S
C2257 H2263 0.959 . S
C2257 H2264 0.961 . S
C2257 H2265 0.960 . S
C2258 C2256 1.381 . S
C2258 C2259 1.394 . S
C2258 H2266 0.930 . S
C2259 C2258 1.394 . S
C2259 C2260 1.383 . S
C2259 H2267 0.929 . S
C2260 C2259 1.383 . S
C2260 C2261 1.377 . S
C2261 H2245 0.930 1_565 S
C2261 C2260 1.377 . S
C2261 C2262 1.379 . S
C2262 H2246 0.931 . S
C2262 C2256 1.383 . S
C2262 C2261 1.379 . S
H2263 C2257 0.959 . S
H2264 C2257 0.961 . S
H2265 C2257 0.960 . S
H2266 C2258 0.930 . S
H2267 C2259 0.929 . S
H2268 C2276 0.929 . S
H2269 C2278 0.930 . S
H2270 C2280 0.930 . S
H2271 C2283 0.929 . S
H2272 C2286 0.930 . S
H2273 C2288 0.960 . S
H2274 C2288 0.960 . S
H2275 C2288 0.960 . S
C2276 H2268 0.929 . S
C2276 C2277 1.377 . S
C2276 C2278 1.384 . S
C2277 C2276 1.377 . S
C2277 C2283 1.390 . S
C2278 H2269 0.930 . S
C2278 C2276 1.384 . S
C2278 C2279 1.372 . S
C2279 C2278 1.372 . S
C2279 C2280 1.400 . S
C2279 C2284 1.490 . S
C2280 H2270 0.930 . S
C2280 C2279 1.400 . S
C2280 C2283 1.386 . S
H2281 C2297 0.930 . S
H2282 C2298 0.931 . S
C2283 H2271 0.929 . S
C2283 C2277 1.390 . S
C2283 C2280 1.386 . S
C2284 C2279 1.490 . S
C2284 C2286 1.395 . S
C2284 C2287 1.403 . S
H2285 C2291 0.930 1_655 S
C2286 H2272 0.930 . S
C2286 C2284 1.395 . S
C2286 C2289 1.403 . S
C2287 C2284 1.403 . S
C2287 C2288 1.524 1_455 S
C2287 C2291 1.400 . S
C2288 H2273 0.960 . S
C2288 H2274 0.960 . S
C2288 H2275 0.960 . S
C2288 C2287 1.524 1_655 S
C2289 C2286 1.403 . S
C2289 C2290 1.392 . S
C2289 C2293 1.495 . S
C2290 C2289 1.392 . S
C2290 C2291 1.385 . S
C2290 C2292 1.478 . S
C2291 H2285 0.930 1_455 S
C2291 C2287 1.400 . S
C2291 C2290 1.385 . S
C2292 C2290 1.478 . S
C2292 C2294 1.381 . S
C2292 C2298 1.383 . S
C2293 C2289 1.495 . S
C2293 H2299 0.959 . S
C2293 H2300 0.961 . S
C2293 H2301 0.960 . S
C2294 C2292 1.381 . S
C2294 C2295 1.394 . S
C2294 H2302 0.930 . S
C2295 C2294 1.394 . S
C2295 C2296 1.383 . S
C2295 H2303 0.929 . S
C2296 C2295 1.383 . S
C2296 C2297 1.377 . S
C2297 H2281 0.930 . S
C2297 C2296 1.377 . S
C2297 C2298 1.379 . S
C2298 H2282 0.931 . S
C2298 C2292 1.383 . S
C2298 C2297 1.379 . S
H2299 C2293 0.959 . S
H2300 C2293 0.961 . S
H2301 C2293 0.960 . S
H2302 C2294 0.930 . S
H2303 C2295 0.929 . S
H2304 C2312 0.929 . S
H2305 C2314 0.930 . S
H2306 C2316 0.930 . S
H2307 C2319 0.929 . S
H2308 C2322 0.930 . S
H2309 C2324 0.960 . S
H2310 C2324 0.960 . S
H2311 C2324 0.960 . S
C2312 H2304 0.929 . S
C2312 C2313 1.377 . S
C2312 C2314 1.384 . S
C2313 C2312 1.377 . S
C2313 C2319 1.390 . S
C2314 H2305 0.930 . S
C2314 C2312 1.384 . S
C2314 C2315 1.372 . S
C2315 C2314 1.372 . S
C2315 C2316 1.400 . S
C2315 C2320 1.490 . S
C2316 H2306 0.930 . S
C2316 C2315 1.400 . S
C2316 C2319 1.386 . S
H2317 C2333 0.930 . S
H2318 C2334 0.931 . S
C2319 H2307 0.929 . S
C2319 C2313 1.390 . S
C2319 C2316 1.386 . S
C2320 C2315 1.490 . S
C2320 C2322 1.395 . S
C2320 C2323 1.403 . S
H2321 C2327 0.930 . S
C2322 H2308 0.930 . S
C2322 C2320 1.395 . S
C2322 C2325 1.403 . S
C2323 C2320 1.403 . S
C2323 C2324 1.524 . S
C2323 C2327 1.400 . S
C2324 H2309 0.960 . S
C2324 H2310 0.960 . S
C2324 H2311 0.960 . S
C2324 C2323 1.524 . S
C2325 C2322 1.403 . S
C2325 C2326 1.392 . S
C2325 C2329 1.495 . S
C2326 C2325 1.392 . S
C2326 C2327 1.385 . S
C2326 C2328 1.478 . S
C2327 H2321 0.930 . S
C2327 C2323 1.400 . S
C2327 C2326 1.385 . S
C2328 C2326 1.478 . S
C2328 C2330 1.381 . S
C2328 C2334 1.383 . S
C2329 C2325 1.495 . S
C2329 H2335 0.959 . S
C2329 H2336 0.961 . S
C2329 H2337 0.960 . S
C2330 C2328 1.381 . S
C2330 C2331 1.394 . S
C2330 H2338 0.930 . S
C2331 C2330 1.394 . S
C2331 C2332 1.383 . S
C2331 H2339 0.929 . S
C2332 C2331 1.383 . S
C2332 C2333 1.377 . S
C2333 H2317 0.930 . S
C2333 C2332 1.377 . S
C2333 C2334 1.379 . S
C2334 H2318 0.931 . S
C2334 C2328 1.383 . S
C2334 C2333 1.379 . S
H2335 C2329 0.959 . S
H2336 C2329 0.961 . S
H2337 C2329 0.960 . S
H2338 C2330 0.930 . S
H2339 C2331 0.929 . S
H2340 C2348 0.929 1_455 S
H2341 C2350 0.930 1_455 S
H2342 C2352 0.930 . S
H2343 C2355 0.929 . S
H2344 C2358 0.930 . S
H2345 C2360 0.960 . S
H2346 C2360 0.939 1_455 S
H2347 C2360 0.960 . S
C2348 H2340 0.929 1_655 S
C2348 C2349 1.377 . S
C2348 C2350 1.384 . S
C2349 C2348 1.377 . S
C2349 C2355 1.390 . S
C2350 H2341 0.930 1_655 S
C2350 C2348 1.384 . S
C2350 C2351 1.372 . S
C2351 C2350 1.372 . S
C2351 C2352 1.400 . S
C2351 C2356 1.490 . S
C2352 H2342 0.930 . S
C2352 C2351 1.400 . S
C2352 C2355 1.386 . S
H2353 C2369 0.930 . S
H2354 C2370 0.931 . S
C2355 H2343 0.929 . S
C2355 C2349 1.390 . S
C2355 C2352 1.386 . S
C2356 C2351 1.490 . S
C2356 C2358 1.395 . S
C2356 C2359 1.403 . S
H2357 C2363 0.930 . S
C2358 H2344 0.930 . S
C2358 C2356 1.395 . S
C2358 C2361 1.403 . S
C2359 C2356 1.403 . S
C2359 C2360 1.524 . S
C2359 C2363 1.400 . S
C2360 H2345 0.960 . S
C2360 H2346 0.939 1_655 S
C2360 H2347 0.960 . S
C2360 C2359 1.524 . S
C2361 C2358 1.403 . S
C2361 C2362 1.392 . S
C2361 C2365 1.495 . S
C2362 C2361 1.392 . S
C2362 C2363 1.385 . S
C2362 C2364 1.478 . S
C2363 H2357 0.930 . S
C2363 C2359 1.400 . S
C2363 C2362 1.385 . S
C2364 C2362 1.478 . S
C2364 C2366 1.361 1_655 S
C2364 C2370 1.383 . S
C2365 C2361 1.495 . S
C2365 H2371 0.959 . S
C2365 H2372 0.961 . S
C2365 H2373 0.960 . S
C2366 C2364 1.361 1_455 S
C2366 C2367 1.394 . S
C2366 H2374 0.952 . S
C2367 C2366 1.394 . S
C2367 C2368 1.383 1_455 S
C2367 H2375 0.929 . S
C2368 C2367 1.383 1_655 S
C2368 C2369 1.377 . S
C2369 H2353 0.930 . S
C2369 C2368 1.377 . S
C2369 C2370 1.379 . S
C2370 H2354 0.931 . S
C2370 C2364 1.383 . S
C2370 C2369 1.379 . S
H2371 C2365 0.959 . S
H2372 C2365 0.961 . S
H2373 C2365 0.960 . S
H2374 C2366 0.952 . S
H2375 C2367 0.929 . S
H2376 C2384 0.929 . S
H2377 C2386 0.930 . S
H2378 C2388 0.930 . S
H2379 C2391 0.929 . S
H2380 C2394 0.930 . S
H2381 C2396 0.960 . S
H2382 C2396 0.960 . S
H2383 C2396 0.960 . S
C2384 H2376 0.929 . S
C2384 C2385 1.377 . S
C2384 C2386 1.384 . S
C2385 C2384 1.377 . S
C2385 C2391 1.390 . S
C2386 H2377 0.930 . S
C2386 C2384 1.384 . S
C2386 C2387 1.372 . S
C2387 C2386 1.372 . S
C2387 C2388 1.400 . S
C2387 C2392 1.490 . S
C2388 H2378 0.930 . S
C2388 C2387 1.400 . S
C2388 C2391 1.386 . S
H2389 C2405 0.930 . S
H2390 C2406 0.931 . S
C2391 H2379 0.929 . S
C2391 C2385 1.390 . S
C2391 C2388 1.386 . S
C2392 C2387 1.490 . S
C2392 C2394 1.395 . S
C2392 C2395 1.403 . S
H2393 C2399 0.930 . S
C2394 H2380 0.930 . S
C2394 C2392 1.395 . S
C2394 C2397 1.403 . S
C2395 C2392 1.403 . S
C2395 C2396 1.524 . S
C2395 C2399 1.400 . S
C2396 H2381 0.960 . S
C2396 H2382 0.960 . S
C2396 H2383 0.960 . S
C2396 C2395 1.524 . S
C2397 C2394 1.403 . S
C2397 C2398 1.392 . S
C2397 C2401 1.495 . S
C2398 C2397 1.392 . S
C2398 C2399 1.385 . S
C2398 C2400 1.478 . S
C2399 H2393 0.930 . S
C2399 C2395 1.400 . S
C2399 C2398 1.385 . S
C2400 C2398 1.478 . S
C2400 C2402 1.381 . S
C2400 C2406 1.383 . S
C2401 C2397 1.495 . S
C2401 H2407 0.959 . S
C2401 H2408 0.961 . S
C2401 H2409 0.960 . S
C2402 C2400 1.381 . S
C2402 C2403 1.394 . S
C2402 H2410 0.930 . S
C2403 C2402 1.394 . S
C2403 C2404 1.383 . S
C2403 H2411 0.929 . S
C2404 C2403 1.383 . S
C2404 C2405 1.377 . S
C2405 H2389 0.930 . S
C2405 C2404 1.377 . S
C2405 C2406 1.379 . S
C2406 H2390 0.931 . S
C2406 C2400 1.383 . S
C2406 C2405 1.379 . S
H2407 C2401 0.959 . S
H2408 C2401 0.961 . S
H2409 C2401 0.960 . S
H2410 C2402 0.930 . S
H2411 C2403 0.929 . S
H2412 C2420 0.929 . S
H2413 C2422 0.930 . S
H2414 C2424 0.930 . S
H2415 C2427 0.929 . S
H2416 C2430 0.930 . S
H2417 C2432 0.960 . S
H2418 C2432 0.960 . S
H2419 C2432 0.960 . S
C2420 H2412 0.929 . S
C2420 C2421 1.377 . S
C2420 C2422 1.384 . S
C2421 C2420 1.377 . S
C2421 C2427 1.390 . S
C2422 H2413 0.930 . S
C2422 C2420 1.384 . S
C2422 C2423 1.372 . S
C2423 C2422 1.372 . S
C2423 C2424 1.400 . S
C2423 C2428 1.490 . S
C2424 H2414 0.930 . S
C2424 C2423 1.400 . S
C2424 C2427 1.386 . S
H2425 C2441 0.930 . S
H2426 C2442 0.931 . S
C2427 H2415 0.929 . S
C2427 C2421 1.390 . S
C2427 C2424 1.386 . S
C2428 C2423 1.490 . S
C2428 C2430 1.395 . S
C2428 C2431 1.403 . S
H2429 C2435 0.976 . S
C2430 H2416 0.930 . S
C2430 C2428 1.395 . S
C2430 C2433 1.403 . S
C2431 C2428 1.403 . S
C2431 C2432 1.524 1_545 S
C2431 C2435 1.400 . S
C2432 H2417 0.960 . S
C2432 H2418 0.960 . S
C2432 H2419 0.960 . S
C2432 C2431 1.524 1_565 S
C2433 C2430 1.403 . S
C2433 C2434 1.392 . S
C2433 C2437 1.495 . S
C2434 C2433 1.392 . S
C2434 C2435 1.385 . S
C2434 C2436 1.478 . S
C2435 H2429 0.976 . S
C2435 C2431 1.400 . S
C2435 C2434 1.385 . S
C2436 C2434 1.478 . S
C2436 C2438 1.381 . S
C2436 C2442 1.383 . S
C2437 C2433 1.495 . S
C2437 H2443 0.959 . S
C2437 H2444 0.961 . S
C2437 H2445 0.960 . S
C2438 C2436 1.381 . S
C2438 C2439 1.394 . S
C2438 H2446 0.930 . S
C2439 C2438 1.394 . S
C2439 C2440 1.383 . S
C2439 H2447 0.929 . S
C2440 C2439 1.383 . S
C2440 C2441 1.377 . S
C2441 H2425 0.930 . S
C2441 C2440 1.377 . S
C2441 C2442 1.379 . S
C2442 H2426 0.931 . S
C2442 C2436 1.383 . S
C2442 C2441 1.379 . S
H2443 C2437 0.959 . S
H2444 C2437 0.961 . S
H2445 C2437 0.960 . S
H2446 C2438 0.930 . S
H2447 C2439 0.929 . S
H2448 C2456 0.929 . S
H2449 C2458 0.930 . S
H2450 C2460 0.930 . S
H2451 C2463 0.929 . S
H2452 C2466 0.930 . S
H2453 C2468 0.960 . S
H2454 C2468 0.960 . S
H2455 C2468 0.960 . S
C2456 H2448 0.929 . S
C2456 C2457 1.377 . S
C2456 C2458 1.384 . S
C2457 C2456 1.377 . S
C2457 C2463 1.390 . S
C2458 H2449 0.930 . S
C2458 C2456 1.384 . S
C2458 C2459 1.372 . S
C2459 C2458 1.372 . S
C2459 C2460 1.400 . S
C2459 C2464 1.490 . S
C2460 H2450 0.930 . S
C2460 C2459 1.400 . S
C2460 C2463 1.386 . S
H2461 C2477 0.930 . S
H2462 C2478 0.931 . S
C2463 H2451 0.929 . S
C2463 C2457 1.390 . S
C2463 C2460 1.386 . S
C2464 C2459 1.490 . S
C2464 C2466 1.395 . S
C2464 C2467 1.403 . S
H2465 C2471 0.930 . S
C2466 H2452 0.930 . S
C2466 C2464 1.395 . S
C2466 C2469 1.403 . S
C2467 C2464 1.403 . S
C2467 C2468 1.524 . S
C2467 C2471 1.400 . S
C2468 H2453 0.960 . S
C2468 H2454 0.960 . S
C2468 H2455 0.960 . S
C2468 C2467 1.524 . S
C2469 C2466 1.403 . S
C2469 C2470 1.392 . S
C2469 C2473 1.495 . S
C2470 C2469 1.392 . S
C2470 C2471 1.385 . S
C2470 C2472 1.478 . S
C2471 H2465 0.930 . S
C2471 C2467 1.400 . S
C2471 C2470 1.385 . S
C2472 C2470 1.478 . S
C2472 C2474 1.381 . S
C2472 C2478 1.383 . S
C2473 C2469 1.495 . S
C2473 H2479 0.959 . S
C2473 H2480 0.961 . S
C2473 H2481 0.960 . S
C2474 C2472 1.381 . S
C2474 C2475 1.394 . S
C2474 H2482 0.930 . S
C2475 C2474 1.394 . S
C2475 C2476 1.383 . S
C2475 H2483 0.929 . S
C2476 C2475 1.383 . S
C2476 C2477 1.377 . S
C2477 H2461 0.930 . S
C2477 C2476 1.377 . S
C2477 C2478 1.379 . S
C2478 H2462 0.931 . S
C2478 C2472 1.383 . S
C2478 C2477 1.379 . S
H2479 C2473 0.959 . S
H2480 C2473 0.961 . S
H2481 C2473 0.960 . S
H2482 C2474 0.930 . S
H2483 C2475 0.929 . S
H2484 C2492 0.929 . S
H2485 C2494 0.930 . S
H2486 C2496 0.930 . S
H2487 C2499 0.929 . S
H2488 C2502 0.930 . S
H2489 C2504 0.960 . S
H2490 C2504 0.960 . S
H2491 C2504 0.960 . S
C2492 H2484 0.929 . S
C2492 C2493 1.377 . S
C2492 C2494 1.384 . S
C2493 C2492 1.377 . S
C2493 C2499 1.390 . S
C2494 H2485 0.930 . S
C2494 C2492 1.384 . S
C2494 C2495 1.372 . S
C2495 C2494 1.372 . S
C2495 C2496 1.400 . S
C2495 C2500 1.490 . S
C2496 H2486 0.930 . S
C2496 C2495 1.400 . S
C2496 C2499 1.386 . S
H2497 C2513 0.930 . S
H2498 C2514 0.931 . S
C2499 H2487 0.929 . S
C2499 C2493 1.390 . S
C2499 C2496 1.386 . S
C2500 C2495 1.490 . S
C2500 C2502 1.395 . S
C2500 C2503 1.403 . S
H2501 C2507 0.930 . S
C2502 H2488 0.930 . S
C2502 C2500 1.395 . S
C2502 C2505 1.403 . S
C2503 C2500 1.403 . S
C2503 C2504 1.524 . S
C2503 C2507 1.400 . S
C2504 H2489 0.960 . S
C2504 H2490 0.960 . S
C2504 H2491 0.960 . S
C2504 C2503 1.524 . S
C2505 C2502 1.403 . S
C2505 C2506 1.392 . S
C2505 C2509 1.495 . S
C2506 C2505 1.392 . S
C2506 C2507 1.385 . S
C2506 C2508 1.478 . S
C2507 H2501 0.930 . S
C2507 C2503 1.400 . S
C2507 C2506 1.385 . S
C2508 C2506 1.478 . S
C2508 C2510 1.381 . S
C2508 C2514 1.383 . S
C2509 C2505 1.495 . S
C2509 H2515 0.959 . S
C2509 H2516 0.961 . S
C2509 H2517 0.960 . S
C2510 C2508 1.381 . S
C2510 C2511 1.394 . S
C2510 H2518 0.930 . S
C2511 C2510 1.394 . S
C2511 C2512 1.383 . S
C2511 H2519 0.929 . S
C2512 C2511 1.383 . S
C2512 C2513 1.377 . S
C2513 H2497 0.930 . S
C2513 C2512 1.377 . S
C2513 C2514 1.379 . S
C2514 H2498 0.931 . S
C2514 C2508 1.383 . S
C2514 C2513 1.379 . S
H2515 C2509 0.959 . S
H2516 C2509 0.961 . S
H2517 C2509 0.960 . S
H2518 C2510 0.930 . S
H2519 C2511 0.929 . S
H2520 C2528 0.929 . S
H2521 C2530 0.930 . S
H2522 C2532 0.930 . S
H2523 C2535 0.929 . S
H2524 C2538 0.930 . S
H2525 C2540 0.960 . S
H2526 C2540 0.960 . S
H2527 C2540 0.960 . S
C2528 H2520 0.929 . S
C2528 C2529 1.377 . S
C2528 C2530 1.384 . S
C2529 C2528 1.377 . S
C2529 C2535 1.390 . S
C2530 H2521 0.930 . S
C2530 C2528 1.384 . S
C2530 C2531 1.372 . S
C2531 C2530 1.372 . S
C2531 C2532 1.400 . S
C2531 C2536 1.490 . S
C2532 H2522 0.930 . S
C2532 C2531 1.400 . S
C2532 C2535 1.386 . S
H2533 C2549 0.930 . S
H2534 C2550 0.931 . S
C2535 H2523 0.929 . S
C2535 C2529 1.390 . S
C2535 C2532 1.386 . S
C2536 C2531 1.490 . S
C2536 C2538 1.395 . S
C2536 C2539 1.403 . S
H2537 C2543 0.930 . S
C2538 H2524 0.930 . S
C2538 C2536 1.395 . S
C2538 C2541 1.403 . S
C2539 C2536 1.403 . S
C2539 C2540 1.524 . S
C2539 C2543 1.400 . S
C2540 H2525 0.960 . S
C2540 H2526 0.960 . S
C2540 H2527 0.960 . S
C2540 C2539 1.524 . S
C2541 C2538 1.403 . S
C2541 C2542 1.392 . S
C2541 C2545 1.495 . S
C2542 C2541 1.392 . S
C2542 C2543 1.385 . S
C2542 C2544 1.478 . S
C2543 H2537 0.930 . S
C2543 C2539 1.400 . S
C2543 C2542 1.385 . S
C2544 C2542 1.478 . S
C2544 C2546 1.381 . S
C2544 C2550 1.383 . S
C2545 C2541 1.495 . S
C2545 H2551 0.959 . S
C2545 H2552 0.961 . S
C2545 H2553 0.960 . S
C2546 C2544 1.381 . S
C2546 C2547 1.394 . S
C2546 H2554 0.930 . S
C2547 C2546 1.394 . S
C2547 C2548 1.383 . S
C2547 H2555 0.929 . S
C2548 C2547 1.383 . S
C2548 C2549 1.377 . S
C2549 H2533 0.930 . S
C2549 C2548 1.377 . S
C2549 C2550 1.379 . S
C2550 H2534 0.931 . S
C2550 C2544 1.383 . S
C2550 C2549 1.379 . S
H2551 C2545 0.959 . S
H2552 C2545 0.961 . S
H2553 C2545 0.960 . S
H2554 C2546 0.930 . S
H2555 C2547 0.929 . S
H2556 C2564 0.929 . S
H2557 C2566 0.930 . S
H2558 C2568 0.930 . S
H2559 C2571 0.929 . S
H2560 C2574 0.930 . S
H2561 C2576 0.960 . S
H2562 C2576 0.960 . S
H2563 C2576 0.960 . S
C2564 H2556 0.929 . S
C2564 C2565 1.377 . S
C2564 C2566 1.384 . S
C2565 C2564 1.377 . S
C2565 C2571 1.390 . S
C2566 H2557 0.930 . S
C2566 C2564 1.384 . S
C2566 C2567 1.372 . S
C2567 C2566 1.372 . S
C2567 C2568 1.400 . S
C2567 C2572 1.490 . S
C2568 H2558 0.930 . S
C2568 C2567 1.400 . S
C2568 C2571 1.386 . S
H2569 C2585 0.930 . S
H2570 C2586 0.931 . S
C2571 H2559 0.929 . S
C2571 C2565 1.390 . S
C2571 C2568 1.386 . S
C2572 C2567 1.490 . S
C2572 C2574 1.395 . S
C2572 C2575 1.403 . S
H2573 C2579 0.930 . S
C2574 H2560 0.930 . S
C2574 C2572 1.395 . S
C2574 C2577 1.403 . S
C2575 C2572 1.403 . S
C2575 C2576 1.524 . S
C2575 C2579 1.400 . S
C2576 H2561 0.960 . S
C2576 H2562 0.960 . S
C2576 H2563 0.960 . S
C2576 C2575 1.524 . S
C2577 C2574 1.403 . S
C2577 C2578 1.392 . S
C2577 C2581 1.495 . S
C2578 C2577 1.392 . S
C2578 C2579 1.385 . S
C2578 C2580 1.478 . S
C2579 H2573 0.930 . S
C2579 C2575 1.400 . S
C2579 C2578 1.385 . S
C2580 C2578 1.478 . S
C2580 C2582 1.381 . S
C2580 C2586 1.383 . S
C2581 C2577 1.495 . S
C2581 H2587 0.959 . S
C2581 H2588 0.961 . S
C2581 H2589 0.960 . S
C2582 C2580 1.381 . S
C2582 C2583 1.394 . S
C2582 H2590 0.930 . S
C2583 C2582 1.394 . S
C2583 C2584 1.383 . S
C2583 H2591 0.929 . S
C2584 C2583 1.383 . S
C2584 C2585 1.377 . S
C2585 H2569 0.930 . S
C2585 C2584 1.377 . S
C2585 C2586 1.379 . S
C2586 H2570 0.931 . S
C2586 C2580 1.383 . S
C2586 C2585 1.379 . S
H2587 C2581 0.959 . S
H2588 C2581 0.961 . S
H2589 C2581 0.960 . S
H2590 C2582 0.930 . S
H2591 C2583 0.929 . S
H2592 C2600 0.929 . S
H2593 C2602 0.930 . S
H2594 C2604 0.930 . S
H2595 C2607 0.929 . S
H2596 C2610 0.930 . S
H2597 C2612 0.960 . S
H2598 C2612 0.960 . S
H2599 C2612 0.960 . S
C2600 H2592 0.929 . S
C2600 C2601 1.377 . S
C2600 C2602 1.384 . S
C2601 C2600 1.377 . S
C2601 C2607 1.390 . S
C2602 H2593 0.930 . S
C2602 C2600 1.384 . S
C2602 C2603 1.372 . S
C2603 C2602 1.372 . S
C2603 C2604 1.400 . S
C2603 C2608 1.490 . S
C2604 H2594 0.930 . S
C2604 C2603 1.400 . S
C2604 C2607 1.386 . S
H2605 C2621 0.930 . S
H2606 C2622 0.931 . S
C2607 H2595 0.929 . S
C2607 C2601 1.390 . S
C2607 C2604 1.386 . S
C2608 C2603 1.490 . S
C2608 C2610 1.395 . S
C2608 C2611 1.403 . S
H2609 C2615 0.930 . S
C2610 H2596 0.930 . S
C2610 C2608 1.395 . S
C2610 C2613 1.403 . S
C2611 C2608 1.403 . S
C2611 C2612 1.524 . S
C2611 C2615 1.400 . S
C2612 H2597 0.960 . S
C2612 H2598 0.960 . S
C2612 H2599 0.960 . S
C2612 C2611 1.524 . S
C2613 C2610 1.403 . S
C2613 C2614 1.392 . S
C2613 C2617 1.495 . S
C2614 C2613 1.392 . S
C2614 C2615 1.385 . S
C2614 C2616 1.478 . S
C2615 H2609 0.930 . S
C2615 C2611 1.400 . S
C2615 C2614 1.385 . S
C2616 C2614 1.478 . S
C2616 C2618 1.381 . S
C2616 C2622 1.383 . S
C2617 C2613 1.495 . S
C2617 H2623 0.959 . S
C2617 H2624 0.961 . S
C2617 H2625 0.960 . S
C2618 C2616 1.381 . S
C2618 C2619 1.394 . S
C2618 H2626 0.930 . S
C2619 C2618 1.394 . S
C2619 C2620 1.383 . S
C2619 H2627 0.929 . S
C2620 C2619 1.383 . S
C2620 C2621 1.377 . S
C2621 H2605 0.930 . S
C2621 C2620 1.377 . S
C2621 C2622 1.379 . S
C2622 H2606 0.931 . S
C2622 C2616 1.383 . S
C2622 C2621 1.379 . S
H2623 C2617 0.959 . S
H2624 C2617 0.961 . S
H2625 C2617 0.960 . S
H2626 C2618 0.930 . S
H2627 C2619 0.929 . S
H2628 C2636 0.929 . S
H2629 C2638 0.930 . S
H2630 C2640 0.930 . S
H2631 C2643 0.929 . S
H2632 C2646 0.930 . S
H2633 C2648 0.960 . S
H2634 C2648 0.960 . S
H2635 C2648 0.960 . S
C2636 H2628 0.929 . S
C2636 C2637 1.377 . S
C2636 C2638 1.384 . S
C2637 C2636 1.377 . S
C2637 C2643 1.390 . S
C2638 H2629 0.930 . S
C2638 C2636 1.384 . S
C2638 C2639 1.372 . S
C2639 C2638 1.372 . S
C2639 C2640 1.400 . S
C2639 C2644 1.490 . S
C2640 H2630 0.930 . S
C2640 C2639 1.400 . S
C2640 C2643 1.386 . S
H2641 C2657 0.930 . S
H2642 C2658 0.931 . S
C2643 H2631 0.929 . S
C2643 C2637 1.390 . S
C2643 C2640 1.386 . S
C2644 C2639 1.490 . S
C2644 C2646 1.395 . S
C2644 C2647 1.403 . S
H2645 C2651 0.930 . S
C2646 H2632 0.930 . S
C2646 C2644 1.395 . S
C2646 C2649 1.403 . S
C2647 C2644 1.403 . S
C2647 C2648 1.524 . S
C2647 C2651 1.400 . S
C2648 H2633 0.960 . S
C2648 H2634 0.960 . S
C2648 H2635 0.960 . S
C2648 C2647 1.524 . S
C2649 C2646 1.403 . S
C2649 C2650 1.392 . S
C2649 C2653 1.495 . S
C2650 C2649 1.392 . S
C2650 C2651 1.385 . S
C2650 C2652 1.478 . S
C2651 H2645 0.930 . S
C2651 C2647 1.400 . S
C2651 C2650 1.385 . S
C2652 C2650 1.478 . S
C2652 C2654 1.381 . S
C2652 C2658 1.383 . S
C2653 C2649 1.495 . S
C2653 H2659 0.959 . S
C2653 H2660 0.961 . S
C2653 H2661 0.960 . S
C2654 C2652 1.381 . S
C2654 C2655 1.394 . S
C2654 H2662 0.930 . S
C2655 C2654 1.394 . S
C2655 C2656 1.383 . S
C2655 H2663 0.929 . S
C2656 C2655 1.383 . S
C2656 C2657 1.377 . S
C2657 H2641 0.930 . S
C2657 C2656 1.377 . S
C2657 C2658 1.379 . S
C2658 H2642 0.931 . S
C2658 C2652 1.383 . S
C2658 C2657 1.379 . S
H2659 C2653 0.959 . S
H2660 C2653 0.961 . S
H2661 C2653 0.960 . S
H2662 C2654 0.930 . S
H2663 C2655 0.929 . S
H2664 C2672 0.929 . S
H2665 C2674 0.930 . S
H2666 C2676 0.930 . S
H2667 C2679 0.929 . S
H2668 C2682 0.930 . S
H2669 C2684 0.960 . S
H2670 C2684 0.960 . S
H2671 C2684 0.960 . S
C2672 H2664 0.929 . S
C2672 C2673 1.377 . S
C2672 C2674 1.384 . S
C2673 C2672 1.377 . S
C2673 C2679 1.390 . S
C2674 H2665 0.930 . S
C2674 C2672 1.384 . S
C2674 C2675 1.372 . S
C2675 C2674 1.372 . S
C2675 C2676 1.400 . S
C2675 C2680 1.490 . S
C2676 H2666 0.930 . S
C2676 C2675 1.400 . S
C2676 C2679 1.386 . S
H2677 C2693 0.930 . S
H2678 C2694 0.931 . S
C2679 H2667 0.929 . S
C2679 C2673 1.390 . S
C2679 C2676 1.386 . S
C2680 C2675 1.490 . S
C2680 C2682 1.395 . S
C2680 C2683 1.403 . S
H2681 C2687 0.930 . S
C2682 H2668 0.930 . S
C2682 C2680 1.395 . S
C2682 C2685 1.403 . S
C2683 C2680 1.403 . S
C2683 C2684 1.524 . S
C2683 C2687 1.400 . S
C2684 H2669 0.960 . S
C2684 H2670 0.960 . S
C2684 H2671 0.960 . S
C2684 C2683 1.524 . S
C2685 C2682 1.403 . S
C2685 C2686 1.392 . S
C2685 C2689 1.495 . S
C2686 C2685 1.392 . S
C2686 C2687 1.385 . S
C2686 C2688 1.478 . S
C2687 H2681 0.930 . S
C2687 C2683 1.400 . S
C2687 C2686 1.385 . S
C2688 C2686 1.478 . S
C2688 C2690 1.381 . S
C2688 C2694 1.383 . S
C2689 C2685 1.495 . S
C2689 H2695 0.959 . S
C2689 H2696 0.961 . S
C2689 H2697 0.960 . S
C2690 C2688 1.381 . S
C2690 C2691 1.394 . S
C2690 H2698 0.930 . S
C2691 C2690 1.394 . S
C2691 C2692 1.383 . S
C2691 H2699 0.929 . S
C2692 C2691 1.383 . S
C2692 C2693 1.377 . S
C2693 H2677 0.930 . S
C2693 C2692 1.377 . S
C2693 C2694 1.379 . S
C2694 H2678 0.931 . S
C2694 C2688 1.383 . S
C2694 C2693 1.379 . S
H2695 C2689 0.959 . S
H2696 C2689 0.961 . S
H2697 C2689 0.960 . S
H2698 C2690 0.930 . S
H2699 C2691 0.929 . S
H2700 C2708 0.929 . S
H2701 C2710 0.930 . S
H2702 C2712 0.930 . S
H2703 C2715 0.929 . S
H2704 C2718 0.930 . S
H2705 C2720 0.960 . S
H2706 C2720 0.960 . S
H2707 C2720 0.960 . S
C2708 H2700 0.929 . S
C2708 C2709 1.377 . S
C2708 C2710 1.384 . S
C2709 C2708 1.377 . S
C2709 C2715 1.390 . S
C2710 H2701 0.930 . S
C2710 C2708 1.384 . S
C2710 C2711 1.372 . S
C2711 C2710 1.372 . S
C2711 C2712 1.400 . S
C2711 C2716 1.490 . S
C2712 H2702 0.930 . S
C2712 C2711 1.400 . S
C2712 C2715 1.386 . S
H2713 C2729 0.930 . S
H2714 C2730 0.931 . S
C2715 H2703 0.929 . S
C2715 C2709 1.390 . S
C2715 C2712 1.386 . S
C2716 C2711 1.490 . S
C2716 C2718 1.395 . S
C2716 C2719 1.403 . S
H2717 C2723 0.930 . S
C2718 H2704 0.930 . S
C2718 C2716 1.395 . S
C2718 C2721 1.403 . S
C2719 C2716 1.403 . S
C2719 C2720 1.524 . S
C2719 C2723 1.400 . S
C2720 H2705 0.960 . S
C2720 H2706 0.960 . S
C2720 H2707 0.960 . S
C2720 C2719 1.524 . S
C2721 C2718 1.403 . S
C2721 C2722 1.392 . S
C2721 C2725 1.495 . S
C2722 C2721 1.392 . S
C2722 C2723 1.385 . S
C2722 C2724 1.478 . S
C2723 H2717 0.930 . S
C2723 C2719 1.400 . S
C2723 C2722 1.385 . S
C2724 C2722 1.478 . S
C2724 C2726 1.381 . S
C2724 C2730 1.383 . S
C2725 C2721 1.495 . S
C2725 H2731 0.959 . S
C2725 H2732 0.961 . S
C2725 H2733 0.960 . S
C2726 C2724 1.381 . S
C2726 C2727 1.394 . S
C2726 H2734 0.930 . S
C2727 C2726 1.394 . S
C2727 C2728 1.383 . S
C2727 H2735 0.929 . S
C2728 C2727 1.383 . S
C2728 C2729 1.377 . S
C2729 H2713 0.930 . S
C2729 C2728 1.377 . S
C2729 C2730 1.379 . S
C2730 H2714 0.931 . S
C2730 C2724 1.383 . S
C2730 C2729 1.379 . S
H2731 C2725 0.959 . S
H2732 C2725 0.961 . S
H2733 C2725 0.960 . S
H2734 C2726 0.930 . S
H2735 C2727 0.929 . S
H2736 C2744 0.929 . S
H2737 C2746 0.930 . S
H2738 C2748 0.930 . S
H2739 C2751 0.929 . S
H2740 C2754 0.930 . S
H2741 C2756 0.960 . S
H2742 C2756 0.960 . S
H2743 C2756 0.960 . S
C2744 H2736 0.929 . S
C2744 C2745 1.377 . S
C2744 C2746 1.384 . S
C2745 C2744 1.377 . S
C2745 C2751 1.390 . S
C2746 H2737 0.930 . S
C2746 C2744 1.384 . S
C2746 C2747 1.372 . S
C2747 C2746 1.372 . S
C2747 C2748 1.400 . S
C2747 C2752 1.490 . S
C2748 H2738 0.930 . S
C2748 C2747 1.400 . S
C2748 C2751 1.386 . S
H2749 C2765 0.930 . S
H2750 C2766 0.931 . S
C2751 H2739 0.929 . S
C2751 C2745 1.390 . S
C2751 C2748 1.386 . S
C2752 C2747 1.490 . S
C2752 C2754 1.395 . S
C2752 C2755 1.403 . S
H2753 C2759 0.930 . S
C2754 H2740 0.930 . S
C2754 C2752 1.395 . S
C2754 C2757 1.403 . S
C2755 C2752 1.403 . S
C2755 C2756 1.524 . S
C2755 C2759 1.400 . S
C2756 H2741 0.960 . S
C2756 H2742 0.960 . S
C2756 H2743 0.960 . S
C2756 C2755 1.524 . S
C2757 C2754 1.403 . S
C2757 C2758 1.392 . S
C2757 C2761 1.495 . S
C2758 C2757 1.392 . S
C2758 C2759 1.385 . S
C2758 C2760 1.478 . S
C2759 H2753 0.930 . S
C2759 C2755 1.400 . S
C2759 C2758 1.385 . S
C2760 C2758 1.478 . S
C2760 C2762 1.381 . S
C2760 C2766 1.383 . S
C2761 C2757 1.495 . S
C2761 H2767 0.959 . S
C2761 H2768 0.961 . S
C2761 H2769 0.960 . S
C2762 C2760 1.381 . S
C2762 C2763 1.394 . S
C2762 H2770 0.930 . S
C2763 C2762 1.394 . S
C2763 C2764 1.383 . S
C2763 H2771 0.929 . S
C2764 C2763 1.383 . S
C2764 C2765 1.377 . S
C2765 H2749 0.930 . S
C2765 C2764 1.377 . S
C2765 C2766 1.379 . S
C2766 H2750 0.931 . S
C2766 C2760 1.383 . S
C2766 C2765 1.379 . S
H2767 C2761 0.959 . S
H2768 C2761 0.961 . S
H2769 C2761 0.960 . S
H2770 C2762 0.930 . S
H2771 C2763 0.929 . S
H2772 C2780 0.929 . S
H2773 C2782 0.930 . S
H2774 C2784 0.930 . S
H2775 C2787 0.929 . S
H2776 C2790 0.930 . S
H2777 C2792 0.960 . S
H2778 C2792 0.960 . S
H2779 C2792 0.960 . S
C2780 H2772 0.929 . S
C2780 C2781 1.377 . S
C2780 C2782 1.384 . S
C2781 C2780 1.377 . S
C2781 C2787 1.390 . S
C2782 H2773 0.930 . S
C2782 C2780 1.384 . S
C2782 C2783 1.372 . S
C2783 C2782 1.372 . S
C2783 C2784 1.400 . S
C2783 C2788 1.490 . S
C2784 H2774 0.930 . S
C2784 C2783 1.400 . S
C2784 C2787 1.386 . S
H2785 C2801 0.930 . S
H2786 C2802 0.931 . S
C2787 H2775 0.929 . S
C2787 C2781 1.390 . S
C2787 C2784 1.386 . S
C2788 C2783 1.490 . S
C2788 C2790 1.395 . S
C2788 C2791 1.403 . S
H2789 C2795 0.930 . S
C2790 H2776 0.930 . S
C2790 C2788 1.395 . S
C2790 C2793 1.403 . S
C2791 C2788 1.403 . S
C2791 C2792 1.524 . S
C2791 C2795 1.400 . S
C2792 H2777 0.960 . S
C2792 H2778 0.960 . S
C2792 H2779 0.960 . S
C2792 C2791 1.524 . S
C2793 C2790 1.403 . S
C2793 C2794 1.392 . S
C2793 C2797 1.495 . S
C2794 C2793 1.392 . S
C2794 C2795 1.385 . S
C2794 C2796 1.478 . S
C2795 H2789 0.930 . S
C2795 C2791 1.400 . S
C2795 C2794 1.385 . S
C2796 C2794 1.478 . S
C2796 C2798 1.381 . S
C2796 C2802 1.383 . S
C2797 C2793 1.495 . S
C2797 H2803 0.959 . S
C2797 H2804 0.961 . S
C2797 H2805 0.960 . S
C2798 C2796 1.381 . S
C2798 C2799 1.394 . S
C2798 H2806 0.930 . S
C2799 C2798 1.394 . S
C2799 C2800 1.383 . S
C2799 H2807 0.929 . S
C2800 C2799 1.383 . S
C2800 C2801 1.377 . S
C2801 H2785 0.930 . S
C2801 C2800 1.377 . S
C2801 C2802 1.379 . S
C2802 H2786 0.931 . S
C2802 C2796 1.383 . S
C2802 C2801 1.379 . S
H2803 C2797 0.959 . S
H2804 C2797 0.961 . S
H2805 C2797 0.960 . S
H2806 C2798 0.930 . S
H2807 C2799 0.929 . S
H2808 C2816 0.929 . S
H2809 C2818 0.930 . S
H2810 C2820 0.930 . S
H2811 C2823 0.929 . S
H2812 C2826 0.930 . S
H2813 C2828 0.960 . S
H2814 C2828 0.960 . S
H2815 C2828 0.960 . S
C2816 H2808 0.929 . S
C2816 C2817 1.377 . S
C2816 C2818 1.384 . S
C2817 C2816 1.377 . S
C2817 C2823 1.390 . S
C2818 H2809 0.930 . S
C2818 C2816 1.384 . S
C2818 C2819 1.372 . S
C2819 C2818 1.372 . S
C2819 C2820 1.400 . S
C2819 C2824 1.490 . S
C2820 H2810 0.930 . S
C2820 C2819 1.400 . S
C2820 C2823 1.386 . S
H2821 C2837 0.930 . S
H2822 C2838 0.931 . S
C2823 H2811 0.929 . S
C2823 C2817 1.390 . S
C2823 C2820 1.386 . S
C2824 C2819 1.490 . S
C2824 C2826 1.395 . S
C2824 C2827 1.403 . S
H2825 C2831 0.930 . S
C2826 H2812 0.930 . S
C2826 C2824 1.395 . S
C2826 C2829 1.403 . S
C2827 C2824 1.403 . S
C2827 C2828 1.524 . S
C2827 C2831 1.400 . S
C2828 H2813 0.960 . S
C2828 H2814 0.960 . S
C2828 H2815 0.960 . S
C2828 C2827 1.524 . S
C2829 C2826 1.403 . S
C2829 C2830 1.392 . S
C2829 C2833 1.495 . S
C2830 C2829 1.392 . S
C2830 C2831 1.385 . S
C2830 C2832 1.478 . S
C2831 H2825 0.930 . S
C2831 C2827 1.400 . S
C2831 C2830 1.385 . S
C2832 C2830 1.478 . S
C2832 C2834 1.381 . S
C2832 C2838 1.383 . S
C2833 C2829 1.495 . S
C2833 H2839 0.959 . S
C2833 H2840 0.961 . S
C2833 H2841 0.960 . S
C2834 C2832 1.381 . S
C2834 C2835 1.394 . S
C2834 H2842 0.930 . S
C2835 C2834 1.394 . S
C2835 C2836 1.383 . S
C2835 H2843 0.929 . S
C2836 C2835 1.383 . S
C2836 C2837 1.377 . S
C2837 H2821 0.930 . S
C2837 C2836 1.377 . S
C2837 C2838 1.379 . S
C2838 H2822 0.931 . S
C2838 C2832 1.383 . S
C2838 C2837 1.379 . S
H2839 C2833 0.959 . S
H2840 C2833 0.961 . S
H2841 C2833 0.960 . S
H2842 C2834 0.930 . S
H2843 C2835 0.929 . S
H2844 C2852 0.929 . S
H2845 C2854 0.930 . S
H2846 C2856 0.930 . S
H2847 C2859 0.929 . S
H2848 C2862 0.930 . S
H2849 C2864 0.960 . S
H2850 C2864 0.960 . S
H2851 C2864 0.960 . S
C2852 H2844 0.929 . S
C2852 C2853 1.377 . S
C2852 C2854 1.384 . S
C2853 C2852 1.377 . S
C2853 C2859 1.390 . S
C2854 H2845 0.930 . S
C2854 C2852 1.384 . S
C2854 C2855 1.372 . S
C2855 C2854 1.372 . S
C2855 C2856 1.400 . S
C2855 C2860 1.490 . S
C2856 H2846 0.930 . S
C2856 C2855 1.400 . S
C2856 C2859 1.386 . S
H2857 C2873 0.930 . S
H2858 C2874 0.931 . S
C2859 H2847 0.929 . S
C2859 C2853 1.390 . S
C2859 C2856 1.386 . S
C2860 C2855 1.490 . S
C2860 C2862 1.395 . S
C2860 C2863 1.403 . S
H2861 C2867 0.930 . S
C2862 H2848 0.930 . S
C2862 C2860 1.395 . S
C2862 C2865 1.403 . S
C2863 C2860 1.403 . S
C2863 C2864 1.524 . S
C2863 C2867 1.400 . S
C2864 H2849 0.960 . S
C2864 H2850 0.960 . S
C2864 H2851 0.960 . S
C2864 C2863 1.524 . S
C2865 C2862 1.403 . S
C2865 C2866 1.392 . S
C2865 C2869 1.495 . S
C2866 C2865 1.392 . S
C2866 C2867 1.385 . S
C2866 C2868 1.478 . S
C2867 H2861 0.930 . S
C2867 C2863 1.400 . S
C2867 C2866 1.385 . S
C2868 C2866 1.478 . S
C2868 C2870 1.381 . S
C2868 C2874 1.383 . S
C2869 C2865 1.495 . S
C2869 H2875 0.959 . S
C2869 H2876 0.961 . S
C2869 H2877 0.960 . S
C2870 C2868 1.381 . S
C2870 C2871 1.394 . S
C2870 H2878 0.930 . S
C2871 C2870 1.394 . S
C2871 C2872 1.383 . S
C2871 H2879 0.929 . S
C2872 C2871 1.383 . S
C2872 C2873 1.377 . S
C2873 H2857 0.930 . S
C2873 C2872 1.377 . S
C2873 C2874 1.379 . S
C2874 H2858 0.931 . S
C2874 C2868 1.383 . S
C2874 C2873 1.379 . S
H2875 C2869 0.959 . S
H2876 C2869 0.961 . S
H2877 C2869 0.960 . S
H2878 C2870 0.930 . S
H2879 C2871 0.929 . S
C945 C439 1.511 . S
C964 C579 1.591 . S
C981 C465 1.851 . S
C1000 C619 1.855 . S
C1017 C401 1.704 . S
C1036 C671 1.670 . S
C1053 C369 1.523 . S
C1072 C631 1.493 . S
C1108 C659 1.479 . S
C1089 C305 1.478 . S
C1125 C343 1.202 . S
C1144 C591 1.276 1_556 S
C1180 C598 1.631 . S
C1161 C375 1.651 . S
C1216 C638 1.804 . S
C1197 C311 1.807 . S
C1233 C337 1.594 . S
C1252 C658 1.660 . S
C1269 C433 1.444 . S
C1288 C618 1.498 . S
C1305 C471 1.438 . S
C1324 C678 1.433 . S
C1360 C578 1.314 . S
C1341 C407 1.341 . S
C1396 C699 1.608 . S
C1377 C55 1.520 . S
C1413 C81 1.853 . S
C1432 C739 1.849 . S
C1449 C17 1.703 . S
C1468 C791 1.664 . S
C1485 C561 1.522 . S
C1504 C751 1.474 . S
C1521 C497 1.480 . S
C1540 C779 1.484 . S
C1557 C535 1.199 . S
C1576 C711 1.273 . S
C1593 C567 1.648 . S
C1612 C718 1.648 . S
C1629 C503 1.808 . S
C1648 C758 1.812 . S
C1684 C778 1.687 . S
C1665 C529 1.589 . S
C1701 C49 1.444 . S
C1720 C738 1.474 . S
C1756 C798 1.444 . S
C1737 C87 1.434 . S
C1773 C23 1.341 . S
C1792 C698 1.325 . S
C1828 C819 1.603 . S
C1809 C247 1.508 . S
C1845 C273 1.853 . S
C1864 C859 1.843 . S
C1900 C911 1.654 . S
C1881 C209 1.703 . S
C1936 C871 1.492 . S
C1917 C177 1.522 . S
C1972 C899 1.484 . S
C1953 C113 1.480 . S
C1989 C151 1.201 . S
C2008 C831 1.274 . S
C2025 C183 1.649 . S
C2044 C838 1.649 . S
C2061 C119 1.809 . S
C2080 C878 1.802 . S
C2116 C898 1.683 . S
C2097 C145 1.596 . S
C2133 C241 1.440 . S
C2152 C858 1.481 . S
C2169 C279 1.434 . S
C2188 C918 1.444 . S
C2205 C215 1.341 . S
C2224 C818 1.311 . S
C2241 C509 1.275 . S
C2260 C602 1.292 . S
C2296 C642 1.845 . S
C2277 C541 1.761 . S
C2313 C573 1.564 . S
C2332 C665 1.552 . S
C2349 C221 1.890 . S
C2368 C625 1.877 . S
C2385 C253 1.469 . S
C2404 C682 1.533 . S
C2440 C585 1.277 . S
C2421 C285 1.266 . S
C2457 C125 1.281 . S
C2476 C722 1.292 . S
C2493 C157 1.751 . S
C2512 C762 1.841 . S
C2529 C189 1.562 . S
C2548 C785 1.558 . S
C2565 C413 1.891 . S
C2584 C745 1.859 . S
C2620 C802 1.535 . S
C2601 C445 1.468 . S
C2637 C477 1.268 . S
C2656 C705 1.285 . S
C2673 C317 1.272 . S
C2692 C842 1.275 . S
C2709 C349 1.752 . S
C2728 C882 1.848 . S
C2764 C905 1.558 . S
C2745 C381 1.562 . S
C2781 C29 1.890 . S
C2800 C865 1.871 . S
C2817 C61 1.461 . S
C2836 C922 1.534 . S
C2853 C93 1.265 . S
C2872 C825 1.281 . S
