# Generated by pormake.
# Topology anh, (6,3)-cn, num edge types: 1
# Building blocks:
#     Node 0, Type 0, BuildingBlock: PAMTUU_clean_sbu_0, # of connection points: 6
#     Node 1, Type 0, BuildingBlock: PAMTUU_clean_sbu_0, # of connection points: 6
#     Node 2, Type 0, BuildingBlock: PAMTUU_clean_sbu_0, # of connection points: 6
#     Node 3, Type 1, BuildingBlock: CUQRIR_clean_linker_1, # of connection points: 3
#     Node 4, Type 1, BuildingBlock: CUQRIR_clean_linker_1, # of connection points: 3
#     Node 5, Type 1, BuildingBlock: CUQRIR_clean_linker_1, # of connection points: 3
#     Node 6, Type 1, BuildingBlock: CUQRIR_clean_linker_1, # of connection points: 3
#     Node 7, Type 1, BuildingBlock: CUQRIR_clean_linker_1, # of connection points: 3
#     Node 8, Type 1, BuildingBlock: CUQRIR_clean_linker_1, # of connection points: 3
#     Edge 9, Type (0, 1), BuildingBlock: CIFDUS_clean_linker_0, # of connection points: 2
#     Edge 10, Type (0, 1), BuildingBlock: CIFDUS_clean_linker_0, # of connection points: 2
#     Edge 11, Type (0, 1), BuildingBlock: CIFDUS_clean_linker_0, # of connection points: 2
#     Edge 12, Type (0, 1), BuildingBlock: CIFDUS_clean_linker_0, # of connection points: 2
#     Edge 13, Type (0, 1), BuildingBlock: CIFDUS_clean_linker_0, # of connection points: 2
#     Edge 14, Type (0, 1), BuildingBlock: CIFDUS_clean_linker_0, # of connection points: 2
#     Edge 15, Type (0, 1), BuildingBlock: CIFDUS_clean_linker_0, # of connection points: 2
#     Edge 16, Type (0, 1), BuildingBlock: CIFDUS_clean_linker_0, # of connection points: 2
#     Edge 17, Type (0, 1), BuildingBlock: CIFDUS_clean_linker_0, # of connection points: 2
#     Edge 18, Type (0, 1), BuildingBlock: CIFDUS_clean_linker_0, # of connection points: 2
#     Edge 19, Type (0, 1), BuildingBlock: CIFDUS_clean_linker_0, # of connection points: 2
#     Edge 20, Type (0, 1), BuildingBlock: CIFDUS_clean_linker_0, # of connection points: 2
#     Edge 21, Type (0, 1), BuildingBlock: CIFDUS_clean_linker_0, # of connection points: 2
#     Edge 22, Type (0, 1), BuildingBlock: CIFDUS_clean_linker_0, # of connection points: 2
#     Edge 23, Type (0, 1), BuildingBlock: CIFDUS_clean_linker_0, # of connection points: 2
#     Edge 24, Type (0, 1), BuildingBlock: CIFDUS_clean_linker_0, # of connection points: 2
#     Edge 25, Type (0, 1), BuildingBlock: CIFDUS_clean_linker_0, # of connection points: 2
#     Edge 26, Type (0, 1), BuildingBlock: CIFDUS_clean_linker_0, # of connection points: 2
# Relax obj value: 0.375
# Max RMSD: 0.223
# Mean RMSD: 0.170
data_MOF--net-anh--node1-PAMTUU_clean_sbu_0--node2-CUQRIR_clean_linker_1--edge1-CIFDUS_clean_linker_0
_symmetry_space_group_name_H-M    P1
_symmetry_Int_Tables_number       1
_symmetry_cell_setting            triclinic
loop_
_symmetry_equiv_pos_as_xyz
'x, y, z'
_cell_length_a     24.853073
_cell_length_b     24.812718
_cell_length_c     41.194217
_cell_angle_alpha  89.472177
_cell_angle_beta   90.36399
_cell_angle_gamma 119.31459
loop_
_atom_site_label
_atom_site_type_symbol
_atom_site_fract_x
_atom_site_fract_y
_atom_site_fract_z
_atom_type_partial_charge
Tb0 Tb 0.19229 0.69929 0.15023 0.0
Tb1 Tb 0.26026 0.63583 0.17913 0.0
C2 C 0.24687 0.6441 0.10382 0.0
C3 C 1.07303 0.7329 0.12109 0.0
C4 C 0.94808 0.67253 0.1054 0.0
C5 C 0.9894 0.72391 0.08705 0.0
C6 C 1.05209 0.75396 0.09482 0.0
C7 C 1.03081 0.68494 0.14104 0.0
C8 C 0.96851 0.65471 0.13314 0.0
C9 C 0.13794 0.75056 0.12326 0.0
O10 O 1.11156 0.59779 0.15591 0.0
O11 O 0.16232 0.55855 0.18558 0.0
O12 O 0.24563 0.685 0.21912 0.0
O13 O 0.15752 0.67686 0.19859 0.0
O14 O 0.33163 0.61401 0.17517 0.0
O15 O 0.26874 0.58282 0.21698 0.0
O16 O 0.34072 0.73359 0.17291 0.0
O17 O 0.28287 0.78119 0.1678 0.0
O18 O 0.2499 0.69616 0.11151 0.0
O19 O 0.23736 0.60488 0.12773 0.0
C20 C 1.10891 0.55021 0.1735 0.0
O21 O 0.16305 0.76558 0.15204 0.0
O22 O 0.15103 0.71191 0.10875 0.0
C23 C 0.19327 0.68476 0.2233 0.0
C24 C 0.34913 0.55411 0.2167 0.0
C25 C 0.40248 0.47914 0.22891 0.0
C26 C 0.34499 0.4639 0.24255 0.0
C27 C 0.31836 0.50127 0.23643 0.0
C28 C 0.40956 0.57354 0.20676 0.0
C29 C 0.43619 0.53663 0.21292 0.0
C30 C 0.31613 0.58422 0.20285 0.0
C31 C 0.33871 0.78628 0.17212 0.0
H32 H 0.97391 0.73778 0.0655 0.0
H33 H 1.08455 0.79044 0.07903 0.0
H34 H 1.04653 0.66777 0.16118 0.0
H35 H 0.93679 0.61504 0.14748 0.0
H36 H 0.31844 0.42061 0.25549 0.0
H37 H 0.27186 0.48611 0.24482 0.0
H38 H 0.43452 0.61488 0.19204 0.0
H39 H 0.4805 0.5504 0.20187 0.0
Tb40 Tb 0.65612 0.11194 0.49363 0.0
Tb41 Tb 0.79897 0.18421 0.5031 0.0
C42 C 0.74016 0.17102 0.43119 0.0
C43 C 0.48751 1.019 0.51223 0.0
C44 C 0.3732 0.94122 0.54204 0.0
C45 C 0.39906 0.91739 0.51979 0.0
C46 C 0.45545 0.95593 0.50497 0.0
C47 C 0.46451 1.04181 0.53658 0.0
C48 C 0.40795 1.0032 0.55142 0.0
C49 C 0.54025 1.0621 0.49206 0.0
O50 O 0.67569 1.03065 0.4968 0.0
O51 O 0.7741 1.08555 0.51585 0.0
O52 O 0.76326 0.17575 0.55273 0.0
O53 O 0.66987 0.09137 0.5423 0.0
O54 O 0.8769 0.17272 0.4997 0.0
O55 O 0.88592 0.25965 0.51453 0.0
O56 O 0.78145 0.26594 0.50333 0.0
O57 O 0.67709 0.20846 0.50861 0.0
O58 O 0.68504 0.14486 0.4442 0.0
O59 O 0.78902 0.18445 0.44928 0.0
C60 C 0.72549 1.03057 0.50943 0.0
O61 O 0.57642 0.11545 0.50502 0.0
O62 O 0.57108 1.04074 0.47616 0.0
C63 C 0.7115 0.12821 0.56272 0.0
C64 C 0.95669 0.26237 0.47642 0.0
C65 C 1.01032 0.34184 0.42333 0.0
C66 C 1.03523 0.3599 0.45478 0.0
C67 C 1.00816 0.32046 0.48121 0.0
C68 C 0.9383 0.24076 0.44454 0.0
C69 C 0.96483 0.28044 0.41812 0.0
C70 C 0.91456 0.23136 0.50362 0.0
C71 C 0.72767 0.26411 0.50841 0.0
H72 H 0.37335 0.87013 0.51144 0.0
H73 H 0.47188 0.93702 0.48635 0.0
H74 H 0.48833 0.09035 0.54284 0.0
H75 H 0.38946 1.0228 0.56853 0.0
H76 H 1.07028 0.40707 0.4597 0.0
H77 H 1.02323 0.33776 0.50554 0.0
H78 H 0.89938 0.19539 0.44009 0.0
H79 H 0.94533 0.26525 0.39415 0.0
Tb80 Tb 0.65144 0.57328 0.8219 0.0
Tb81 Tb 0.72507 0.70738 0.84747 0.0
C82 C 0.70306 0.68085 0.77068 0.0
C83 C 0.56215 0.40024 0.81179 0.0
C84 C 0.51244 0.27235 0.82152 0.0
C85 C 0.57476 0.30944 0.81268 0.0
C86 C 0.59941 0.37289 0.80779 0.0
C87 C 0.50104 0.36382 0.82254 0.0
C88 C 0.47647 0.30049 0.8275 0.0
C89 C 0.5834 0.46468 0.80198 0.0
O90 O 0.74972 0.58697 0.8265 0.0
O91 O 0.79869 0.67937 0.85312 0.0
O92 O 0.69508 0.64964 0.8919 0.0
O93 O 0.67384 0.55714 0.86964 0.0
O94 O 0.80867 0.79104 0.84999 0.0
O95 O 0.7279 0.78063 0.87414 0.0
O96 O 0.62766 0.69476 0.84192 0.0
O97 O 0.57888 0.5906 0.84521 0.0
O98 O 0.65799 0.62619 0.77818 0.0
O99 O 0.73929 0.71696 0.79387 0.0
C100 C 0.80093 0.63084 0.84119 0.0
O101 O 0.56467 0.49469 0.82018 0.0
O102 O 0.64057 0.49914 0.79279 0.0
C103 C 0.68279 0.59179 0.89485 0.0
C104 C 0.78644 0.87254 0.84541 0.0
C105 C 0.74701 0.93944 0.80652 0.0
C106 C 0.7453 0.94282 0.84047 0.0
C107 C 0.76489 0.90929 0.85989 0.0
C108 C 0.79643 0.87675 0.81167 0.0
C109 C 0.77664 0.90994 0.79234 0.0
C110 C 0.78277 0.81962 0.86356 0.0
C111 C 0.57491 0.64212 0.84662 0.0
H112 H 0.60344 0.28895 0.80738 0.0
H113 H 0.64661 0.39978 0.79946 0.0
H114 H 0.47128 0.38386 0.82575 0.0
H115 H 0.4285 0.27309 0.8345 0.0
H116 H 0.72239 0.9653 0.85184 0.0
H117 H 0.75694 0.90673 0.88583 0.0
H118 H 0.81343 0.84932 0.79975 0.0
H119 H 0.77865 0.90724 0.76617 0.0
C120 C 0.72481 0.16961 0.1877 0.0
N121 N 0.76988 0.21292 0.20876 0.0
N122 N 0.677 0.11799 0.20327 0.0
C123 C 0.72752 0.17709 0.15154 0.0
C124 C 0.696 0.13133 0.23464 0.0
N125 N 0.74973 0.18684 0.23832 0.0
C126 C 0.66241 1.08757 0.26235 0.0
H127 H 0.70373 0.20329 0.14435 0.0
H128 H 0.70357 0.1314 0.13953 0.0
H129 H 0.77609 0.20304 0.14315 0.0
H130 H 0.69493 0.09019 0.28165 0.0
H131 H 0.63615 1.03904 0.25399 0.0
H132 H 0.62932 0.1003 0.27302 0.0
C133 C 0.72541 0.64905 0.52759 0.0
N134 N 0.72162 0.69147 0.5484 0.0
N135 N 0.72771 0.60026 0.54358 0.0
C136 C 0.72559 0.65452 0.49134 0.0
C137 C 0.72624 0.61601 0.57507 0.0
N138 N 0.72272 0.66944 0.57826 0.0
C139 C 0.72669 0.57743 0.60344 0.0
H140 H 0.67721 0.63209 0.48252 0.0
H141 H 0.7487 0.63094 0.47999 0.0
H142 H 0.74887 0.70383 0.48375 0.0
H143 H 0.74989 0.60644 0.62485 0.0
H144 H 0.75045 0.55098 0.59723 0.0
H145 H 0.67833 0.54422 0.61021 0.0
C146 C 0.19546 0.64864 0.86137 0.0
N147 N 0.23803 0.64341 0.88186 0.0
N148 N 0.14043 0.63638 0.8766 0.0
C149 C 0.20735 0.66583 0.82619 0.0
C150 C 0.1527 0.62514 0.90753 0.0
N151 N 0.2099 0.62932 0.91096 0.0
C152 C 1.11079 0.61621 0.93579 0.0
H153 H 0.23329 0.71694 0.8239 0.0
H154 H 0.16322 0.64851 0.81269 0.0
H155 H 0.23548 0.64699 0.81544 0.0
H156 H 1.0935 0.56912 0.94606 0.0
H157 H 1.07071 0.62187 0.9288 0.0
H158 H 0.13692 0.64986 0.95519 0.0
C159 C 1.06761 0.6716 0.44611 0.0
N160 N 1.07853 0.66678 0.41448 0.0
N161 N 1.10155 0.73064 0.45657 0.0
C162 C 1.02974 0.61687 0.46784 0.0
C163 C 1.13128 0.76216 0.42923 0.0
N164 N 1.11715 0.72333 0.40391 0.0
C165 C 0.1803 0.8292 0.42833 0.0
H166 H 0.98474 0.58631 0.45604 0.0
H167 H 1.02158 0.63164 0.4918 0.0
H168 H 1.05371 0.58945 0.47131 0.0
H169 H 0.22088 0.83548 0.4427 0.0
H170 H 0.1625 0.85793 0.43936 0.0
H171 H 0.19507 0.84597 0.40317 0.0
C172 C 0.4162 0.9251 0.74024 0.0
N173 N 0.45939 0.92713 0.71977 0.0
N174 N 0.39961 0.96813 0.73223 0.0
C175 C 0.39855 0.88867 0.77154 0.0
C176 C 0.43029 0.99205 0.70395 0.0
N177 N 0.4674 0.96824 0.69685 0.0
C178 C 0.42927 1.04413 0.68545 0.0
H179 H 0.38721 0.84032 0.76666 0.0
H180 H 0.3584 0.88906 0.78294 0.0
H181 H 0.43815 0.90832 0.78866 0.0
H182 H 0.45821 1.08827 0.69831 0.0
H183 H 0.38151 1.03661 0.6842 0.0
H184 H 0.44676 1.0478 0.66036 0.0
C185 C 0.59826 0.36575 0.1016 0.0
N186 N 0.61988 0.39584 0.0731 0.0
N187 N 0.5432 0.36106 0.10918 0.0
C188 C 0.63634 0.35132 0.12511 0.0
C189 C 0.52891 0.38318 0.0821 0.0
N190 N 0.57564 0.40484 0.06032 0.0
C191 C 0.47151 0.38864 0.07861 0.0
H192 H 0.6564 0.32612 0.11233 0.0
H193 H 0.60789 0.32268 0.14574 0.0
H194 H 0.67522 0.39482 0.13455 0.0
H195 H 0.43149 0.34737 0.08923 0.0
H196 H 0.46141 0.39295 0.05275 0.0
H197 H 0.47754 0.42975 0.09211 0.0
H198 H 0.51777 0.49231 0.22953 0.0
H199 H 0.32674 0.35711 0.21427 0.0
H200 H 0.35693 0.29796 0.1795 0.0
H201 H 0.43484 0.30191 0.14104 0.0
H202 H 0.62179 0.45142 0.14849 0.0
H203 H 0.59685 0.48764 0.19753 0.0
C204 C 0.48286 0.44892 0.2193 0.0
C205 C 0.42025 0.43094 0.22324 0.0
C206 C 0.50011 0.41857 0.19666 0.0
C207 C 0.3755 0.3731 0.21122 0.0
C208 C 0.39265 0.33967 0.19066 0.0
C209 C 0.47003 0.34141 0.15399 0.0
C210 C 0.52989 0.37356 0.14133 0.0
C211 C 0.45434 0.36479 0.1811 0.0
C212 C 0.5756 0.42493 0.15818 0.0
C213 C 0.56125 0.44617 0.1861 0.0
H214 H 1.11702 0.44204 0.40456 0.0
H215 H 0.91994 0.35226 0.39101 0.0
H216 H 0.92569 0.45128 0.37973 0.0
H217 H 0.98235 0.56349 0.39122 0.0
H218 H 0.17694 0.65126 0.41135 0.0
H219 H 0.17725 0.55438 0.40266 0.0
C220 C 1.07587 0.44413 0.39763 0.0
C221 C 1.01818 0.39069 0.39997 0.0
C222 C 1.07893 0.50158 0.39359 0.0
C223 C 0.96508 0.39311 0.39 0.0
C224 C 0.96809 0.45 0.38417 0.0
C225 C 1.02474 0.56115 0.39258 0.0
C226 C 1.07934 0.61334 0.40209 0.0
C227 C 1.02395 0.50464 0.38877 0.0
C228 C 1.13459 0.61104 0.40385 0.0
C229 C 1.13467 0.55573 0.39908 0.0
H230 H 0.65543 0.85764 0.7693 0.0
H231 H 0.74163 1.04656 0.80178 0.0
H232 H 0.65969 1.05961 0.77564 0.0
H233 H 0.55992 1.01422 0.74732 0.0
H234 H 0.47016 0.82402 0.71796 0.0
H235 H 0.5574 0.8134 0.73935 0.0
C236 C 0.65696 0.9021 0.76989 0.0
C237 C 0.70458 0.95158 0.78683 0.0
C238 C 0.60886 0.90825 0.75595 0.0
C239 C 0.70553 1.00839 0.78848 0.0
C240 C 0.65869 1.01558 0.77378 0.0
C241 C 0.56025 0.97079 0.74556 0.0
C242 C 0.50983 0.9198 0.73138 0.0
C243 C 0.60963 0.96542 0.75812 0.0
C244 C 0.50908 0.86332 0.729 0.0
C245 C 0.55872 0.85759 0.74108 0.0
H246 H 0.90512 0.55865 0.08213 0.0
H247 H 0.85294 0.69673 0.10294 0.0
H248 H 0.74482 0.62248 0.09073 0.0
H249 H 0.66568 0.51565 0.08154 0.0
H250 H 0.71597 0.3768 0.05999 0.0
H251 H 0.8259 0.45416 0.0654 0.0
C252 C 0.86986 0.57234 0.08339 0.0
C253 C 0.8856 0.63206 0.09363 0.0
C254 C 0.80846 0.52954 0.07655 0.0
C255 C 0.84083 0.65057 0.09513 0.0
C256 C 0.77947 0.60826 0.0883 0.0
C257 C 0.70096 0.50312 0.07673 0.0
C258 C 0.68376 0.44144 0.07002 0.0
C259 C 0.76282 0.54735 0.07992 0.0
C260 C 0.72905 0.42442 0.06499 0.0
C261 C 0.79136 0.46842 0.0682 0.0
H262 H 0.30452 0.81891 0.55631 0.0
H263 H 0.28988 0.98338 0.54141 0.0
H264 H 0.18469 0.9216 0.52197 0.0
H265 H 1.11575 0.82852 0.4908 0.0
H266 H 0.14724 0.67261 0.49394 0.0
H267 H 0.22325 0.72052 0.53646 0.0
C268 C 0.27725 0.84081 0.54998 0.0
C269 C 0.30596 0.90552 0.54853 0.0
C270 C 0.21929 0.80572 0.53556 0.0
C271 C 0.2696 0.93355 0.54191 0.0
C272 C 0.2095 0.89822 0.53017 0.0
C273 C 0.13811 0.80462 0.50167 0.0
C274 C 1.12691 0.74797 0.48875 0.0
C275 C 0.18665 0.83535 0.52383 0.0
C276 C 0.15459 0.71616 0.50348 0.0
C277 C 0.19909 0.74412 0.52753 0.0
H278 H 0.40318 0.19461 0.79295 0.0
H279 H 0.55729 0.19808 0.84381 0.0
H280 H 0.52615 0.09395 0.82495 0.0
H281 H 0.47136 1.01608 0.78411 0.0
H282 H 0.31772 1.01065 0.73237 0.0
H283 H 0.33219 0.10244 0.76185 0.0
C284 C 0.42851 0.17166 0.80102 0.0
C285 C 0.48338 0.20441 0.81907 0.0
C286 C 0.41114 0.11243 0.78945 0.0
C287 C 0.51577 0.17417 0.82929 0.0
C288 C 0.49804 0.11479 0.81849 0.0
C289 C 0.4387 1.03263 0.78054 0.0
C290 C 0.39368 1.00702 0.75601 0.0
C291 C 0.44806 1.08528 0.79708 0.0
C292 C 0.35298 1.03025 0.75095 0.0
C293 C 0.36153 1.0827 0.76768 0.0
H294 H 0.65145 0.89834 0.49186 0.0
H295 H 0.80759 1.0193 0.5508 0.0
H296 H 0.81932 0.93161 0.56859 0.0
H297 H 0.78804 0.81718 0.56833 0.0
H298 H 0.63558 0.69613 0.50758 0.0
H299 H 0.62124 0.78341 0.49077 0.0
C300 C 0.68829 0.90638 0.50865 0.0
C301 C 0.72841 0.96926 0.51943 0.0
C302 C 0.69615 0.85354 0.51898 0.0
C303 C 0.77531 0.97431 0.54124 0.0
C304 C 0.78229 0.92288 0.55178 0.0
C305 C 0.75124 0.80907 0.5515 0.0
C306 C 0.71311 0.74682 0.53967 0.0
C307 C 0.74338 0.86164 0.541 0.0
C308 C 0.66662 0.74117 0.51747 0.0
C309 C 0.65813 0.79225 0.50769 0.0
H310 H 0.93246 0.72042 0.84614 0.0
H311 H 0.81034 0.52363 0.8483 0.0
H312 H 0.89869 0.50736 0.85853 0.0
H313 H 1.01383 0.54742 0.86878 0.0
H314 H 0.13729 0.74331 0.86175 0.0
H315 H 1.04876 0.75999 0.85173 0.0
C316 C 0.92435 0.67355 0.84864 0.0
C317 C 0.8611 0.62341 0.84625 0.0
C318 C 0.97771 0.66383 0.85374 0.0
C319 C 0.85576 0.56395 0.84961 0.0
C320 C 0.90749 0.55441 0.85566 0.0
C321 C 1.02222 0.59401 0.86446 0.0
C322 C 1.08557 0.64395 0.86577 0.0
C323 C 0.96929 0.60366 0.85793 0.0
C324 C 1.09169 0.70328 0.8605 0.0
C325 C 1.03984 0.71295 0.85493 0.0
H326 H 0.47125 0.83747 0.15814 0.0
H327 H 0.34681 0.89061 0.20122 0.0
H328 H 0.43406 0.99232 0.21377 0.0
H329 H 0.54913 1.0707 0.21441 0.0
H330 H 0.6737 1.02241 0.16755 0.0
H331 H 0.58651 0.91954 0.15513 0.0
C332 C 0.46234 0.87087 0.17022 0.0
C333 C 0.39872 0.85236 0.17855 0.0
C334 C 0.51477 0.93293 0.17681 0.0
C335 C 0.39241 0.89993 0.19401 0.0
C336 C 0.44355 0.95958 0.20139 0.0
C337 C 0.55784 1.03863 0.2008 0.0
C338 C 0.6211 1.05841 0.1915 0.0
C339 C 0.50551 0.97756 0.19305 0.0
C340 C 0.62783 1.0124 0.17461 0.0
C341 C 0.57683 0.952 0.16767 0.0
H342 H 0.80649 0.39722 0.49456 0.0
H343 H 0.63364 0.27132 0.54007 0.0
H344 H 0.61759 0.35787 0.55385 0.0
H345 H 0.65102 0.47228 0.55473 0.0
H346 H 0.82043 0.59928 0.50712 0.0
H347 H 0.8376 0.51269 0.49298 0.0
C348 C 0.76503 0.38793 0.50752 0.0
C349 C 0.7217 0.32419 0.51606 0.0
C350 C 0.75461 0.44001 0.51516 0.0
C351 C 0.66867 0.31718 0.53267 0.0
C352 C 0.65917 0.36784 0.54078 0.0
C353 C 0.69157 0.48169 0.54083 0.0
C354 C 0.73357 0.54523 0.53182 0.0
C355 C 0.70143 0.42996 0.53232 0.0
C356 C 0.7858 0.55302 0.51413 0.0
C357 C 0.79607 0.50244 0.50618 0.0
H358 H 0.52152 0.72483 0.83564 0.0
H359 H 0.47471 0.54816 0.87845 0.0
H360 H 0.37365 0.53356 0.8937 0.0
H361 H 0.29252 0.56813 0.8956 0.0
H362 H 0.33508 0.7411 0.84987 0.0
H363 H 0.43821 0.7581 0.83593 0.0
C364 C 0.48984 0.68289 0.84841 0.0
C365 C 0.50998 0.63798 0.85561 0.0
C366 C 0.42809 0.67333 0.85694 0.0
C367 C 0.46429 0.58446 0.872 0.0
C368 C 0.40491 0.57579 0.881 0.0
C369 C 0.3239 0.60994 0.88264 0.0
C370 C 0.30237 0.65301 0.87417 0.0
C371 C 0.38525 0.61947 0.87375 0.0
C372 C 0.34682 0.70604 0.85696 0.0
C373 C 0.40734 0.71608 0.84891 0.0
H374 H 0.97464 0.49088 0.15391 0.0
H375 H 1.09675 0.45508 0.21383 0.0
H376 H 1.01073 0.35602 0.23015 0.0
H377 H 0.89764 0.27261 0.22858 0.0
H378 H 0.77374 0.30529 0.16875 0.0
H379 H 0.85955 0.40598 0.15242 0.0
C380 C 0.98352 0.46209 0.17054 0.0
C381 C 1.04687 0.48529 0.18192 0.0
C382 C 0.93108 0.40122 0.18044 0.0
C383 C 1.05198 0.44287 0.20367 0.0
C384 C 1.00127 0.38431 0.21342 0.0
C385 C 0.88807 0.30118 0.21222 0.0
C386 C 0.82512 0.27691 0.20049 0.0
C387 C 0.93991 0.36184 0.20224 0.0
C388 C 0.81891 0.3185 0.17864 0.0
C389 C 0.86936 0.37792 0.16912 0.0
H390 H 0.30299 0.7228 0.05203 0.0
H391 H 0.18549 0.52994 0.07464 0.0
H392 H 0.16966 0.50637 0.01648 0.0
H393 H 0.1802 0.54247 0.9587 0.0
H394 H 0.3007 0.73439 0.93638 0.0
H395 H 0.32565 0.75606 -0.00582 0.0
C396 C 0.27476 0.67534 0.04432 0.0
C397 C 0.24531 0.6283 0.06821 0.0
C398 C 0.26657 0.66189 0.01051 0.0
C399 C 0.20914 0.56719 0.05727 0.0
C400 C 0.1998 0.55372 0.0238 0.0
C401 C 0.21376 0.58858 0.9664 0.0
C402 C 0.23924 0.63666 0.94278 0.0
C403 C 0.22726 0.6008 0.0001 0.0
C404 C 0.28157 0.69632 0.95358 0.0
C405 C 0.29497 0.70884 0.98686 0.0
H406 H 0.82521 0.1789 0.38338 0.0
H407 H 0.6662 0.20275 0.39723 0.0
H408 H 0.66486 0.22463 0.33968 0.0
H409 H 0.70005 0.22557 0.2839 0.0
H410 H 0.84927 0.18879 0.26737 0.0
H411 H 0.86495 0.18635 0.32622 0.0
C412 C 0.79075 0.18962 0.37389 0.0
C413 C 0.74544 0.18845 0.39533 0.0
C414 C 0.78901 0.20092 0.33976 0.0
C415 C 0.70121 0.20226 0.3819 0.0
C416 C 0.70052 0.21524 0.34871 0.0
C417 C 0.73803 0.22009 0.29317 0.0
C418 C 0.7751 0.2102 0.27062 0.0
C419 C 0.74329 0.21361 0.32721 0.0
C420 C 0.82193 0.19977 0.28356 0.0
C421 C 0.82965 0.19653 0.3175 0.0
H422 H 0.62099 0.64339 0.71917 0.0
H423 H 0.81441 0.75636 0.74088 0.0
H424 H 0.83775 0.77114 0.68264 0.0
H425 H 0.80425 0.74107 0.6249 0.0
H426 H 0.61076 0.63201 0.60368 0.0
H427 H 0.58641 0.62799 0.66152 0.0
C428 C 0.66825 0.67224 0.71127 0.0
C429 C 0.71585 0.69824 0.73497 0.0
C430 C 0.68137 0.68153 0.67739 0.0
C431 C 0.7766 0.73574 0.72371 0.0
C432 C 0.79005 0.74403 0.69016 0.0
C433 C 0.75662 0.71905 0.63281 0.0
C434 C 0.70922 0.68807 0.60943 0.0
C435 C 0.74303 0.71609 0.66664 0.0
C436 C 0.64795 0.65777 0.62064 0.0
C437 C 0.63415 0.65447 0.65397 0.0
H438 H 0.66175 1.01678 0.58952 0.0
H439 H 0.71686 0.2063 0.61111 0.0
H440 H 0.64639 0.17239 0.65783 0.0
H441 H 0.55671 1.08717 0.68646 0.0
H442 H 0.4921 0.89903 0.65733 0.0
H443 H 0.57782 0.9334 0.61915 0.0
C444 C 0.6598 1.05075 0.60519 0.0
C445 C 0.69416 0.11379 0.59705 0.0
C446 C 0.61545 1.03072 0.62969 0.0
C447 C 0.69152 0.15758 0.61728 0.0
C448 C 0.65007 0.13801 0.64344 0.0
C449 C 0.56082 1.0541 0.67118 0.0
C450 C 0.51694 0.99078 0.67356 0.0
C451 C 0.60939 1.07458 0.64867 0.0
C452 C 0.52462 0.94794 0.65508 0.0
C453 C 0.57375 0.96755 0.63358 0.0
H454 H 0.62933 0.60411 0.95059 0.0
H455 H 0.71775 0.50802 0.90949 0.0
H456 H 0.68591 0.43748 0.95563 0.0
H457 H 0.62855 0.39905 0.00601 0.0
H458 H 0.55045 0.50021 0.05167 0.0
H459 H 0.57966 0.57064 0.00505 0.0
C460 C 0.64285 0.56872 0.95228 0.0
C461 C 0.67559 0.5611 0.92663 0.0
C462 C 0.62394 0.52754 0.97903 0.0
C463 C 0.69229 0.5146 0.92889 0.0
C464 C 0.67366 0.47384 0.9551 0.0
C465 C 0.61735 0.43616 0.00549 0.0
C466 C 0.58491 0.44241 0.03155 0.0
C467 C 0.6382 0.4789 0.97984 0.0
C468 C 0.5721 0.4918 0.03114 0.0
C469 C 0.59036 0.53324 0.00481 0.0
H470 H 0.26221 0.73385 0.27852 0.0
H471 H 1.07697 0.65406 0.23992 0.0
H472 H 1.03923 0.66731 0.29165 0.0
H473 H 1.05666 0.69572 0.34865 0.0
H474 H 0.23865 0.77189 0.3894 0.0
H475 H 0.28047 0.76781 0.33612 0.0
C476 C 0.2137 0.71947 0.28156 0.0
C477 C 0.17256 0.69292 0.25543 0.0
C478 C 0.19191 0.72756 0.31159 0.0
C479 C 1.1098 0.67485 0.25957 0.0
C480 C 1.08799 0.68245 0.28914 0.0
C481 C 1.10572 0.71308 0.34539 0.0
C482 C 0.14483 0.73536 0.37227 0.0
C483 C 1.12846 0.70842 0.31527 0.0
C484 C 0.20821 0.7564 0.36854 0.0
C485 C 0.23174 0.75295 0.33829 0.0
loop_
_geom_bond_atom_site_label_1
_geom_bond_atom_site_label_2
_geom_bond_distance
_geom_bond_site_symmetry_2
_ccdc_geom_bond_type
Tb0 C9 2.764 . S
Tb0 O10 2.325 . S
Tb0 O13 2.303 . S
Tb0 O17 2.322 1_655 S
Tb0 O18 2.349 . S
Tb0 O21 2.415 . S
Tb0 O22 2.399 . S
Tb1 O11 2.322 1_455 S
Tb1 O12 2.349 . S
Tb1 O14 2.415 . S
Tb1 O15 2.399 . S
Tb1 O16 2.325 . S
Tb1 O19 2.303 . S
Tb1 C30 2.764 . S
C2 O18 1.261 1_455 S
C2 O19 1.257 . S
C3 C6 1.358 . S
C3 C7 1.332 . S
C3 C9 1.504 . S
C4 C5 1.373 . S
C4 C8 1.308 . S
C5 C4 1.373 . S
C5 C6 1.429 . S
C5 H32 0.932 . S
C6 C3 1.358 . S
C6 C5 1.429 . S
C6 H33 0.930 . S
C7 C3 1.332 . S
C7 C8 1.394 . S
C7 H34 0.932 . S
C8 C4 1.308 . S
C8 C7 1.394 . S
C8 H35 0.929 . S
C9 Tb0 2.764 . S
C9 C3 1.504 . S
C9 O21 1.239 . S
C9 O22 1.263 . S
O10 Tb0 2.325 . S
O10 C20 1.236 . S
O11 Tb1 2.322 1_655 S
O11 C20 1.257 . S
O12 Tb1 2.349 . S
O12 C23 1.261 . S
O13 Tb0 2.303 . S
O13 C23 1.257 1_655 S
O14 Tb1 2.415 . S
O14 C30 1.239 . S
O15 Tb1 2.399 . S
O15 C30 1.263 . S
O16 Tb1 2.325 . S
O16 C31 1.236 . S
O17 Tb0 2.322 1_455 S
O17 C31 1.257 . S
O18 Tb0 2.349 . S
O18 C2 1.261 1_655 S
O19 Tb1 2.303 . S
O19 C2 1.257 . S
C20 O10 1.236 . S
C20 O11 1.257 . S
O21 Tb0 2.415 . S
O21 C9 1.239 . S
O22 Tb0 2.399 . S
O22 C9 1.263 . S
C23 O12 1.261 . S
C23 O13 1.257 1_455 S
C24 C27 1.358 . S
C24 C28 1.332 . S
C24 C30 1.504 . S
C25 C26 1.373 . S
C25 C29 1.308 . S
C26 C25 1.373 . S
C26 C27 1.429 . S
C26 H36 0.932 . S
C27 C24 1.358 . S
C27 C26 1.429 . S
C27 H37 0.930 . S
C28 C24 1.332 . S
C28 C29 1.394 . S
C28 H38 0.932 . S
C29 C25 1.308 . S
C29 C28 1.394 . S
C29 H39 0.929 . S
C30 Tb1 2.764 . S
C30 O14 1.239 . S
C30 O15 1.263 . S
C30 C24 1.504 . S
C31 O16 1.236 . S
C31 O17 1.257 . S
H32 C5 0.932 . S
H33 C6 0.930 . S
H34 C7 0.932 . S
H35 C8 0.929 . S
H36 C26 0.932 . S
H37 C27 0.930 . S
H38 C28 0.932 . S
H39 C29 0.929 . S
Tb40 C49 2.764 . S
Tb40 O50 2.325 . S
Tb40 O53 2.303 1_565 S
Tb40 O57 2.322 1_565 S
Tb40 O58 2.349 1_565 S
Tb40 O61 2.415 . S
Tb40 O62 2.399 . S
Tb41 O51 2.322 1_545 S
Tb41 O52 2.349 . S
Tb41 O54 2.415 . S
Tb41 O55 2.399 . S
Tb41 O56 2.325 . S
Tb41 O59 2.303 . S
Tb41 C70 2.764 . S
C42 O58 1.262 . S
C42 O59 1.257 . S
C43 C46 1.358 . S
C43 C47 1.332 . S
C43 C49 1.504 . S
C44 C45 1.373 . S
C44 C48 1.308 . S
C45 C44 1.373 . S
C45 C46 1.429 . S
C45 H72 0.932 . S
C46 C43 1.358 . S
C46 C45 1.429 . S
C46 H73 0.930 . S
C47 C43 1.332 . S
C47 C48 1.394 . S
C47 H74 0.932 . S
C48 C44 1.308 . S
C48 C47 1.394 . S
C48 H75 0.929 . S
C49 Tb40 2.764 . S
C49 C43 1.504 . S
C49 O61 1.239 . S
C49 O62 1.263 . S
O50 Tb40 2.325 . S
O50 C60 1.236 . S
O51 Tb41 2.322 1_565 S
O51 C60 1.257 . S
O52 Tb41 2.349 . S
O52 C63 1.261 . S
O53 Tb40 2.303 1_545 S
O53 C63 1.257 . S
O54 Tb41 2.415 . S
O54 C70 1.239 . S
O55 Tb41 2.399 . S
O55 C70 1.263 . S
O56 Tb41 2.325 . S
O56 C71 1.236 . S
O57 Tb40 2.322 1_545 S
O57 C71 1.257 . S
O58 Tb40 2.349 1_545 S
O58 C42 1.262 . S
O59 Tb41 2.303 . S
O59 C42 1.257 . S
C60 O50 1.236 . S
C60 O51 1.257 . S
O61 Tb40 2.415 . S
O61 C49 1.239 . S
O62 Tb40 2.399 . S
O62 C49 1.263 . S
C63 O52 1.261 . S
C63 O53 1.257 . S
C64 C67 1.358 . S
C64 C68 1.332 . S
C64 C70 1.504 . S
C65 C66 1.373 . S
C65 C69 1.308 . S
C66 C65 1.373 . S
C66 C67 1.429 . S
C66 H76 0.932 . S
C67 C64 1.358 . S
C67 C66 1.429 . S
C67 H77 0.930 . S
C68 C64 1.332 . S
C68 C69 1.394 . S
C68 H78 0.932 . S
C69 C65 1.308 . S
C69 C68 1.394 . S
C69 H79 0.929 . S
C70 Tb41 2.764 . S
C70 O54 1.239 . S
C70 O55 1.263 . S
C70 C64 1.504 . S
C71 O56 1.236 . S
C71 O57 1.257 . S
H72 C45 0.932 . S
H73 C46 0.930 . S
H74 C47 0.932 . S
H75 C48 0.929 . S
H76 C66 0.932 . S
H77 C67 0.930 . S
H78 C68 0.932 . S
H79 C69 0.929 . S
Tb80 C89 2.764 . S
Tb80 O90 2.325 . S
Tb80 O93 2.303 . S
Tb80 O97 2.322 . S
Tb80 O98 2.349 . S
Tb80 O101 2.415 . S
Tb80 O102 2.399 . S
Tb81 O91 2.322 . S
Tb81 O92 2.349 . S
Tb81 O94 2.415 . S
Tb81 O95 2.399 . S
Tb81 O96 2.325 . S
Tb81 O99 2.303 . S
Tb81 C110 2.764 . S
C82 O98 1.261 . S
C82 O99 1.257 . S
C83 C86 1.358 . S
C83 C87 1.332 . S
C83 C89 1.504 . S
C84 C85 1.373 . S
C84 C88 1.308 . S
C85 C84 1.373 . S
C85 C86 1.429 . S
C85 H112 0.932 . S
C86 C83 1.358 . S
C86 C85 1.429 . S
C86 H113 0.930 . S
C87 C83 1.332 . S
C87 C88 1.394 . S
C87 H114 0.932 . S
C88 C84 1.308 . S
C88 C87 1.394 . S
C88 H115 0.929 . S
C89 Tb80 2.764 . S
C89 C83 1.504 . S
C89 O101 1.239 . S
C89 O102 1.263 . S
O90 Tb80 2.325 . S
O90 C100 1.236 . S
O91 Tb81 2.322 . S
O91 C100 1.257 . S
O92 Tb81 2.349 . S
O92 C103 1.261 . S
O93 Tb80 2.303 . S
O93 C103 1.257 . S
O94 Tb81 2.415 . S
O94 C110 1.239 . S
O95 Tb81 2.399 . S
O95 C110 1.263 . S
O96 Tb81 2.325 . S
O96 C111 1.236 . S
O97 Tb80 2.322 . S
O97 C111 1.257 . S
O98 Tb80 2.349 . S
O98 C82 1.261 . S
O99 Tb81 2.303 . S
O99 C82 1.257 . S
C100 O90 1.236 . S
C100 O91 1.257 . S
O101 Tb80 2.415 . S
O101 C89 1.239 . S
O102 Tb80 2.399 . S
O102 C89 1.263 . S
C103 O92 1.261 . S
C103 O93 1.257 . S
C104 C107 1.358 . S
C104 C108 1.332 . S
C104 C110 1.504 . S
C105 C106 1.373 . S
C105 C109 1.308 . S
C106 C105 1.373 . S
C106 C107 1.429 . S
C106 H116 0.932 . S
C107 C104 1.358 . S
C107 C106 1.429 . S
C107 H117 0.930 . S
C108 C104 1.332 . S
C108 C109 1.394 . S
C108 H118 0.932 . S
C109 C105 1.308 . S
C109 C108 1.394 . S
C109 H119 0.929 . S
C110 Tb81 2.764 . S
C110 O94 1.239 . S
C110 O95 1.263 . S
C110 C104 1.504 . S
C111 O96 1.236 . S
C111 O97 1.257 . S
H112 C85 0.932 . S
H113 C86 0.930 . S
H114 C87 0.932 . S
H115 C88 0.929 . S
H116 C106 0.932 . S
H117 C107 0.930 . S
H118 C108 0.932 . S
H119 C109 0.929 . S
C120 N121 1.317 1_565 S
C120 N122 1.348 . S
C120 C123 1.485 1_565 S
N121 C120 1.317 1_545 S
N121 N125 1.370 . S
N122 C120 1.348 . S
N122 C124 1.346 . S
C123 C120 1.485 1_545 S
C123 H127 0.960 . S
C123 H128 0.961 1_545 S
C123 H129 0.960 . S
C124 N122 1.346 . S
C124 N125 1.307 1_565 S
C124 C126 1.486 . S
N125 N121 1.370 . S
N125 C124 1.307 1_545 S
C126 C124 1.486 . S
C126 H130 0.960 . S
C126 H131 0.960 . S
C126 H132 0.959 . S
H127 C123 0.960 . S
H128 C123 0.961 1_565 S
H129 C123 0.960 . S
H130 C126 0.960 . S
H131 C126 0.960 . S
H132 C126 0.959 . S
C133 N134 1.317 . S
C133 N135 1.348 . S
C133 C136 1.485 . S
N134 C133 1.317 . S
N134 N138 1.370 . S
N135 C133 1.348 . S
N135 C137 1.346 . S
C136 C133 1.485 . S
C136 H140 0.960 . S
C136 H141 0.961 . S
C136 H142 0.960 . S
C137 N135 1.346 . S
C137 N138 1.307 . S
C137 C139 1.486 . S
N138 N134 1.370 . S
N138 C137 1.307 . S
C139 C137 1.486 . S
C139 H143 0.960 . S
C139 H144 0.960 . S
C139 H145 0.959 . S
H140 C136 0.960 . S
H141 C136 0.961 . S
H142 C136 0.960 . S
H143 C139 0.960 . S
H144 C139 0.960 . S
H145 C139 0.959 . S
C146 N147 1.317 . S
C146 N148 1.348 . S
C146 C149 1.485 . S
N147 C146 1.317 . S
N147 N151 1.370 . S
N148 C146 1.348 . S
N148 C150 1.346 . S
C149 C146 1.485 . S
C149 H153 0.960 . S
C149 H154 0.961 . S
C149 H155 0.960 . S
C150 N148 1.346 . S
C150 N151 1.307 . S
C150 C152 1.486 1_455 S
N151 N147 1.370 . S
N151 C150 1.307 . S
C152 C150 1.486 1_655 S
C152 H156 0.960 . S
C152 H157 0.960 . S
C152 H158 0.959 . S
H153 C149 0.960 . S
H154 C149 0.961 . S
H155 C149 0.960 . S
H156 C152 0.960 . S
H157 C152 0.960 . S
H158 C152 0.959 . S
C159 N160 1.317 1_455 S
C159 N161 1.348 . S
C159 C162 1.485 . S
N160 C159 1.317 1_655 S
N160 N164 1.370 1_655 S
N161 C159 1.348 . S
N161 C163 1.346 . S
C162 C159 1.485 . S
C162 H166 0.960 1_455 S
C162 H167 0.961 . S
C162 H168 0.960 1_455 S
C163 N161 1.346 . S
C163 N164 1.307 . S
C163 C165 1.486 . S
N164 N160 1.370 1_455 S
N164 C163 1.307 . S
C165 C163 1.486 . S
C165 H169 0.960 . S
C165 H170 0.960 . S
C165 H171 0.959 . S
H166 C162 0.960 1_655 S
H167 C162 0.961 . S
H168 C162 0.960 1_655 S
H169 C165 0.960 . S
H170 C165 0.960 . S
H171 C165 0.959 . S
C172 N173 1.317 1_545 S
C172 N174 1.348 . S
C172 C175 1.485 . S
N173 C172 1.317 1_565 S
N173 N177 1.370 1_565 S
N174 C172 1.348 . S
N174 C176 1.346 . S
C175 C172 1.485 . S
C175 H179 0.960 . S
C175 H180 0.961 . S
C175 H181 0.960 1_545 S
C176 N174 1.346 . S
C176 N177 1.307 . S
C176 C178 1.486 . S
N177 N173 1.370 1_545 S
N177 C176 1.307 . S
C178 C176 1.486 . S
C178 H182 0.960 . S
C178 H183 0.960 . S
C178 H184 0.959 . S
H179 C175 0.960 . S
H180 C175 0.961 . S
H181 C175 0.960 1_565 S
H182 C178 0.960 . S
H183 C178 0.960 . S
H184 C178 0.959 . S
C185 N186 1.317 . S
C185 N187 1.348 . S
C185 C188 1.485 . S
N186 C185 1.317 . S
N186 N190 1.370 . S
N187 C185 1.348 . S
N187 C189 1.346 . S
C188 C185 1.485 . S
C188 H192 0.960 . S
C188 H193 0.961 . S
C188 H194 0.960 . S
C189 N187 1.346 . S
C189 N190 1.307 . S
C189 C191 1.486 . S
N190 N186 1.370 . S
N190 C189 1.307 . S
C191 C189 1.486 . S
C191 H195 0.960 . S
C191 H196 0.960 . S
C191 H197 0.959 . S
H192 C188 0.960 . S
H193 C188 0.961 . S
H194 C188 0.960 . S
H195 C191 0.960 . S
H196 C191 0.960 . S
H197 C191 0.959 . S
H198 C204 0.930 . S
H199 C207 0.930 . S
H200 C208 0.930 . S
H201 C209 0.930 . S
H202 C212 0.930 . S
H203 C213 0.930 . S
C204 H198 0.930 . S
C204 C205 1.355 . S
C204 C206 1.415 . S
C205 C204 1.355 . S
C205 C207 1.419 . S
C206 C204 1.415 . S
C206 C211 1.425 . S
C206 C213 1.409 . S
C207 H199 0.930 . S
C207 C205 1.419 . S
C207 C208 1.362 . S
C208 H200 0.930 . S
C208 C207 1.362 . S
C208 C211 1.409 . S
C209 H201 0.930 . S
C209 C210 1.355 . S
C209 C211 1.415 . S
C210 C209 1.355 . S
C210 C212 1.419 . S
C211 C206 1.425 . S
C211 C208 1.409 . S
C211 C209 1.415 . S
C212 H202 0.930 . S
C212 C210 1.419 . S
C212 C213 1.362 . S
C213 H203 0.930 . S
C213 C206 1.409 . S
C213 C212 1.362 . S
H214 C220 0.930 . S
H215 C223 0.930 . S
H216 C224 0.930 . S
H217 C225 0.930 . S
H218 C228 0.930 . S
H219 C229 0.930 . S
C220 H214 0.930 . S
C220 C221 1.355 . S
C220 C222 1.415 . S
C221 C220 1.355 . S
C221 C223 1.419 . S
C222 C220 1.415 . S
C222 C227 1.425 . S
C222 C229 1.409 . S
C223 H215 0.930 . S
C223 C221 1.419 . S
C223 C224 1.362 . S
C224 H216 0.930 . S
C224 C223 1.362 . S
C224 C227 1.409 . S
C225 H217 0.930 . S
C225 C226 1.355 . S
C225 C227 1.415 . S
C226 C225 1.355 . S
C226 C228 1.419 . S
C227 C222 1.425 . S
C227 C224 1.409 . S
C227 C225 1.415 . S
C228 H218 0.930 . S
C228 C226 1.419 . S
C228 C229 1.362 . S
C229 H219 0.930 . S
C229 C222 1.409 . S
C229 C228 1.362 . S
H230 C236 0.930 . S
H231 C239 0.930 . S
H232 C240 0.930 . S
H233 C241 0.930 1_545 S
H234 C244 0.930 . S
H235 C245 0.930 . S
C236 H230 0.930 . S
C236 C237 1.355 . S
C236 C238 1.415 . S
C237 C236 1.355 . S
C237 C239 1.419 . S
C238 C236 1.415 . S
C238 C243 1.425 . S
C238 C245 1.409 . S
C239 H231 0.930 . S
C239 C237 1.419 . S
C239 C240 1.362 . S
C240 H232 0.930 . S
C240 C239 1.362 . S
C240 C243 1.409 . S
C241 H233 0.930 1_565 S
C241 C242 1.355 . S
C241 C243 1.415 . S
C242 C241 1.355 . S
C242 C244 1.419 . S
C243 C238 1.425 . S
C243 C240 1.409 . S
C243 C241 1.415 . S
C244 H234 0.930 . S
C244 C242 1.419 . S
C244 C245 1.362 . S
C245 H235 0.930 . S
C245 C238 1.409 . S
C245 C244 1.362 . S
H246 C252 0.930 . S
H247 C255 0.930 . S
H248 C256 0.930 . S
H249 C257 0.930 . S
H250 C260 0.930 . S
H251 C261 0.930 . S
C252 H246 0.930 . S
C252 C253 1.355 . S
C252 C254 1.415 . S
C253 C252 1.355 . S
C253 C255 1.419 . S
C254 C252 1.415 . S
C254 C259 1.425 . S
C254 C261 1.409 . S
C255 H247 0.930 . S
C255 C253 1.419 . S
C255 C256 1.362 . S
C256 H248 0.930 . S
C256 C255 1.362 . S
C256 C259 1.409 . S
C257 H249 0.930 . S
C257 C258 1.355 . S
C257 C259 1.415 . S
C258 C257 1.355 . S
C258 C260 1.419 . S
C259 C254 1.425 . S
C259 C256 1.409 . S
C259 C257 1.415 . S
C260 H250 0.930 . S
C260 C258 1.419 . S
C260 C261 1.362 . S
C261 H251 0.930 . S
C261 C254 1.409 . S
C261 C260 1.362 . S
H262 C268 0.930 . S
H263 C271 0.930 . S
H264 C272 0.930 . S
H265 C273 0.930 . S
H266 C276 0.930 . S
H267 C277 0.930 . S
C268 H262 0.930 . S
C268 C269 1.355 . S
C268 C270 1.415 . S
C269 C268 1.355 . S
C269 C271 1.419 . S
C270 C268 1.415 . S
C270 C275 1.425 . S
C270 C277 1.409 . S
C271 H263 0.930 . S
C271 C269 1.419 . S
C271 C272 1.362 . S
C272 H264 0.930 . S
C272 C271 1.362 . S
C272 C275 1.409 . S
C273 H265 0.930 . S
C273 C274 1.355 . S
C273 C275 1.415 . S
C274 C273 1.355 . S
C274 C276 1.419 . S
C275 C270 1.425 . S
C275 C272 1.409 . S
C275 C273 1.415 . S
C276 H266 0.930 . S
C276 C274 1.419 . S
C276 C277 1.362 . S
C277 H267 0.930 . S
C277 C270 1.409 . S
C277 C276 1.362 . S
H278 C284 0.930 . S
H279 C287 0.930 . S
H280 C288 0.930 . S
H281 C289 0.930 . S
H282 C292 0.930 . S
H283 C293 0.930 . S
C284 H278 0.930 . S
C284 C285 1.355 . S
C284 C286 1.415 . S
C285 C284 1.355 . S
C285 C287 1.419 . S
C286 C284 1.415 . S
C286 C291 1.425 . S
C286 C293 1.409 . S
C287 H279 0.930 . S
C287 C285 1.419 . S
C287 C288 1.362 . S
C288 H280 0.930 . S
C288 C287 1.362 . S
C288 C291 1.409 . S
C289 H281 0.930 . S
C289 C290 1.355 . S
C289 C291 1.415 . S
C290 C289 1.355 . S
C290 C292 1.419 . S
C291 C286 1.425 . S
C291 C288 1.409 . S
C291 C289 1.415 . S
C292 H282 0.930 . S
C292 C290 1.419 . S
C292 C293 1.362 . S
C293 H283 0.930 . S
C293 C286 1.409 . S
C293 C292 1.362 . S
H294 C300 0.930 . S
H295 C303 0.930 . S
H296 C304 0.930 . S
H297 C305 0.930 . S
H298 C308 0.930 . S
H299 C309 0.930 . S
C300 H294 0.930 . S
C300 C301 1.355 . S
C300 C302 1.415 . S
C301 C300 1.355 . S
C301 C303 1.419 . S
C302 C300 1.415 . S
C302 C307 1.425 . S
C302 C309 1.409 . S
C303 H295 0.930 . S
C303 C301 1.419 . S
C303 C304 1.362 . S
C304 H296 0.930 . S
C304 C303 1.362 . S
C304 C307 1.409 . S
C305 H297 0.930 . S
C305 C306 1.355 . S
C305 C307 1.415 . S
C306 C305 1.355 . S
C306 C308 1.419 . S
C307 C302 1.425 . S
C307 C304 1.409 . S
C307 C305 1.415 . S
C308 H298 0.930 . S
C308 C306 1.419 . S
C308 C309 1.362 . S
C309 H299 0.930 . S
C309 C302 1.409 . S
C309 C308 1.362 . S
H310 C316 0.930 . S
H311 C319 0.930 . S
H312 C320 0.930 . S
H313 C321 0.930 . S
H314 C324 0.930 . S
H315 C325 0.930 . S
C316 H310 0.930 . S
C316 C317 1.355 . S
C316 C318 1.415 . S
C317 C316 1.355 . S
C317 C319 1.419 . S
C318 C316 1.415 . S
C318 C323 1.425 . S
C318 C325 1.409 . S
C319 H311 0.930 . S
C319 C317 1.419 . S
C319 C320 1.362 . S
C320 H312 0.930 . S
C320 C319 1.362 . S
C320 C323 1.409 . S
C321 H313 0.930 . S
C321 C322 1.355 . S
C321 C323 1.415 . S
C322 C321 1.355 . S
C322 C324 1.419 . S
C323 C318 1.425 . S
C323 C320 1.409 . S
C323 C321 1.415 . S
C324 H314 0.930 . S
C324 C322 1.419 . S
C324 C325 1.362 . S
C325 H315 0.930 . S
C325 C318 1.409 . S
C325 C324 1.362 . S
H326 C332 0.930 . S
H327 C335 0.930 . S
H328 C336 0.930 . S
H329 C337 0.930 . S
H330 C340 0.930 . S
H331 C341 0.930 . S
C332 H326 0.930 . S
C332 C333 1.355 . S
C332 C334 1.415 . S
C333 C332 1.355 . S
C333 C335 1.419 . S
C334 C332 1.415 . S
C334 C339 1.425 . S
C334 C341 1.409 . S
C335 H327 0.930 . S
C335 C333 1.419 . S
C335 C336 1.362 . S
C336 H328 0.930 . S
C336 C335 1.362 . S
C336 C339 1.409 . S
C337 H329 0.930 . S
C337 C338 1.355 . S
C337 C339 1.415 . S
C338 C337 1.355 . S
C338 C340 1.419 . S
C339 C334 1.425 . S
C339 C336 1.409 . S
C339 C337 1.415 . S
C340 H330 0.930 . S
C340 C338 1.419 . S
C340 C341 1.362 . S
C341 H331 0.930 . S
C341 C334 1.409 . S
C341 C340 1.362 . S
H342 C348 0.930 . S
H343 C351 0.930 . S
H344 C352 0.930 . S
H345 C353 0.930 . S
H346 C356 0.930 . S
H347 C357 0.930 . S
C348 H342 0.930 . S
C348 C349 1.355 . S
C348 C350 1.415 . S
C349 C348 1.355 . S
C349 C351 1.419 . S
C350 C348 1.415 . S
C350 C355 1.425 . S
C350 C357 1.409 . S
C351 H343 0.930 . S
C351 C349 1.419 . S
C351 C352 1.362 . S
C352 H344 0.930 . S
C352 C351 1.362 . S
C352 C355 1.409 . S
C353 H345 0.930 . S
C353 C354 1.355 . S
C353 C355 1.415 . S
C354 C353 1.355 . S
C354 C356 1.419 . S
C355 C350 1.425 . S
C355 C352 1.409 . S
C355 C353 1.415 . S
C356 H346 0.930 . S
C356 C354 1.419 . S
C356 C357 1.362 . S
C357 H347 0.930 . S
C357 C350 1.409 . S
C357 C356 1.362 . S
H358 C364 0.930 . S
H359 C367 0.930 . S
H360 C368 0.930 . S
H361 C369 0.930 . S
H362 C372 0.930 . S
H363 C373 0.930 . S
C364 H358 0.930 . S
C364 C365 1.355 . S
C364 C366 1.415 . S
C365 C364 1.355 . S
C365 C367 1.419 . S
C366 C364 1.415 . S
C366 C371 1.425 . S
C366 C373 1.409 . S
C367 H359 0.930 . S
C367 C365 1.419 . S
C367 C368 1.362 . S
C368 H360 0.930 . S
C368 C367 1.362 . S
C368 C371 1.409 . S
C369 H361 0.930 . S
C369 C370 1.355 . S
C369 C371 1.415 . S
C370 C369 1.355 . S
C370 C372 1.419 . S
C371 C366 1.425 . S
C371 C368 1.409 . S
C371 C369 1.415 . S
C372 H362 0.930 . S
C372 C370 1.419 . S
C372 C373 1.362 . S
C373 H363 0.930 . S
C373 C366 1.409 . S
C373 C372 1.362 . S
H374 C380 0.930 . S
H375 C383 0.930 . S
H376 C384 0.930 . S
H377 C385 0.930 . S
H378 C388 0.930 . S
H379 C389 0.930 . S
C380 H374 0.930 . S
C380 C381 1.355 . S
C380 C382 1.415 . S
C381 C380 1.355 . S
C381 C383 1.419 . S
C382 C380 1.415 . S
C382 C387 1.425 . S
C382 C389 1.409 . S
C383 H375 0.930 . S
C383 C381 1.419 . S
C383 C384 1.362 . S
C384 H376 0.930 . S
C384 C383 1.362 . S
C384 C387 1.409 . S
C385 H377 0.930 . S
C385 C386 1.355 . S
C385 C387 1.415 . S
C386 C385 1.355 . S
C386 C388 1.419 . S
C387 C382 1.425 . S
C387 C384 1.409 . S
C387 C385 1.415 . S
C388 H378 0.930 . S
C388 C386 1.419 . S
C388 C389 1.362 . S
C389 H379 0.930 . S
C389 C382 1.409 . S
C389 C388 1.362 . S
H390 C396 0.930 . S
H391 C399 0.930 . S
H392 C400 0.930 . S
H393 C401 0.930 . S
H394 C404 0.930 . S
H395 C405 0.930 1_554 S
C396 H390 0.930 . S
C396 C397 1.355 . S
C396 C398 1.415 . S
C397 C396 1.355 . S
C397 C399 1.419 1_455 S
C398 C396 1.415 . S
C398 C403 1.425 1_554 S
C398 C405 1.409 1_554 S
C399 H391 0.930 . S
C399 C397 1.419 1_655 S
C399 C400 1.362 . S
C400 H392 0.930 . S
C400 C399 1.362 . S
C400 C403 1.409 1_654 S
C401 H393 0.930 . S
C401 C402 1.355 . S
C401 C403 1.415 . S
C402 C401 1.355 . S
C402 C404 1.419 . S
C403 C398 1.425 1_556 S
C403 C400 1.409 1_456 S
C403 C401 1.415 . S
C404 H394 0.930 . S
C404 C402 1.419 . S
C404 C405 1.362 . S
C405 H395 0.930 1_556 S
C405 C398 1.409 1_556 S
C405 C404 1.362 . S
H406 C412 0.930 1_565 S
H407 C415 0.930 . S
H408 C416 0.930 . S
H409 C417 0.930 . S
H410 C420 0.930 . S
H411 C421 0.930 . S
C412 H406 0.930 1_545 S
C412 C413 1.354 . S
C412 C414 1.415 . S
C413 C412 1.354 . S
C413 C415 1.419 . S
C414 C412 1.415 . S
C414 C419 1.425 . S
C414 C421 1.409 1_545 S
C415 H407 0.930 . S
C415 C413 1.419 . S
C415 C416 1.362 . S
C416 H408 0.930 . S
C416 C415 1.362 . S
C416 C419 1.409 . S
C417 H409 0.930 . S
C417 C418 1.355 . S
C417 C419 1.415 . S
C418 C417 1.355 . S
C418 C420 1.419 1_545 S
C419 C414 1.425 . S
C419 C416 1.409 . S
C419 C417 1.415 . S
C420 H410 0.930 . S
C420 C418 1.419 1_565 S
C420 C421 1.362 . S
C421 H411 0.930 . S
C421 C414 1.409 1_565 S
C421 C420 1.362 . S
H422 C428 0.930 . S
H423 C431 0.930 . S
H424 C432 0.930 . S
H425 C433 0.930 . S
H426 C436 0.930 . S
H427 C437 0.930 . S
C428 H422 0.930 . S
C428 C429 1.355 . S
C428 C430 1.415 . S
C429 C428 1.355 . S
C429 C431 1.419 . S
C430 C428 1.415 . S
C430 C435 1.425 . S
C430 C437 1.409 . S
C431 H423 0.930 . S
C431 C429 1.419 . S
C431 C432 1.362 . S
C432 H424 0.930 . S
C432 C431 1.362 . S
C432 C435 1.409 . S
C433 H425 0.930 . S
C433 C434 1.355 . S
C433 C435 1.415 . S
C434 C433 1.355 . S
C434 C436 1.419 . S
C435 C430 1.425 . S
C435 C432 1.409 . S
C435 C433 1.415 . S
C436 H426 0.930 . S
C436 C434 1.419 . S
C436 C437 1.362 . S
C437 H427 0.930 . S
C437 C430 1.409 . S
C437 C436 1.362 . S
H438 C444 0.930 . S
H439 C447 0.930 . S
H440 C448 0.930 . S
H441 C449 0.930 . S
H442 C452 0.930 . S
H443 C453 0.930 . S
C444 H438 0.930 . S
C444 C445 1.355 . S
C444 C446 1.415 . S
C445 C444 1.355 . S
C445 C447 1.419 . S
C446 C444 1.415 . S
C446 C451 1.425 . S
C446 C453 1.409 . S
C447 H439 0.930 . S
C447 C445 1.419 . S
C447 C448 1.362 . S
C448 H440 0.930 . S
C448 C447 1.362 . S
C448 C451 1.409 . S
C449 H441 0.930 . S
C449 C450 1.355 . S
C449 C451 1.415 . S
C450 C449 1.355 . S
C450 C452 1.419 . S
C451 C446 1.425 . S
C451 C448 1.409 . S
C451 C449 1.415 . S
C452 H442 0.930 . S
C452 C450 1.419 . S
C452 C453 1.362 . S
C453 H443 0.930 . S
C453 C446 1.409 . S
C453 C452 1.362 . S
H454 C460 0.930 . S
H455 C463 0.930 . S
H456 C464 0.930 . S
H457 C465 0.930 . S
H458 C468 0.930 . S
H459 C469 0.930 . S
C460 H454 0.930 . S
C460 C461 1.355 . S
C460 C462 1.415 . S
C461 C460 1.355 . S
C461 C463 1.419 . S
C462 C460 1.415 . S
C462 C467 1.425 . S
C462 C469 1.409 1_556 S
C463 H455 0.930 . S
C463 C461 1.419 . S
C463 C464 1.362 . S
C464 H456 0.930 . S
C464 C463 1.362 . S
C464 C467 1.409 . S
C465 H457 0.930 . S
C465 C466 1.355 . S
C465 C467 1.415 1_554 S
C466 C465 1.355 . S
C466 C468 1.419 . S
C467 C462 1.425 . S
C467 C464 1.409 . S
C467 C465 1.415 1_556 S
C468 H458 0.930 . S
C468 C466 1.419 . S
C468 C469 1.362 . S
C469 H459 0.930 . S
C469 C462 1.409 1_554 S
C469 C468 1.362 . S
H470 C476 0.930 . S
H471 C479 0.930 . S
H472 C480 0.930 . S
H473 C481 0.930 . S
H474 C484 0.930 . S
H475 C485 0.930 . S
C476 H470 0.930 . S
C476 C477 1.355 1_455 S
C476 C478 1.415 . S
C477 C476 1.355 1_655 S
C477 C479 1.419 . S
C478 C476 1.415 . S
C478 C483 1.425 1_455 S
C478 C485 1.409 . S
C479 H471 0.930 . S
C479 C477 1.419 . S
C479 C480 1.362 . S
C480 H472 0.930 . S
C480 C479 1.362 . S
C480 C483 1.409 . S
C481 H473 0.930 . S
C481 C482 1.355 . S
C481 C483 1.415 . S
C482 C481 1.355 . S
C482 C484 1.419 1_655 S
C483 C478 1.425 1_655 S
C483 C480 1.409 . S
C483 C481 1.415 . S
C484 H474 0.930 . S
C484 C482 1.419 1_455 S
C484 C485 1.362 . S
C485 H475 0.930 . S
C485 C478 1.409 . S
C485 C484 1.362 . S
C205 C25 0.225 . S
C210 N187 0.224 . S
C221 C65 0.601 . S
C226 N160 0.561 . S
C237 C105 0.586 . S
C242 N173 0.593 . S
C253 C4 0.759 . S
C258 N186 0.745 . S
C274 N161 0.615 . S
C269 C44 0.599 . S
C290 N174 0.687 . S
C285 C84 0.754 . S
C301 C60 2.899 . S
C306 N134 2.898 . S
C317 C100 2.859 . S
C322 N148 2.811 1_655 S
C333 C31 3.109 . S
C338 N122 3.096 . S
C354 N135 3.111 . S
C349 C71 3.122 . S
C370 N147 3.233 . S
C365 C111 3.190 . S
C381 C20 2.907 . S
C386 N121 2.904 . S
C402 N151 1.797 . S
C397 C2 1.776 . S
C413 C42 1.755 . S
C418 N125 1.768 . S
C429 C82 1.715 . S
C434 N138 1.814 . S
C450 N177 1.221 . S
C445 C63 1.198 . S
C466 N190 1.178 . S
C461 C103 1.210 . S
C477 C23 1.233 1_655 S
C482 N164 1.166 1_655 S
