# Generated by pormake.
# Topology tsx, (6,3)-cn, num edge types: 1
# Building blocks:
#     Node 0, Type 0, BuildingBlock: LEVNOQ01_clean_sbu_1, # of connection points: 6
#     Node 1, Type 0, BuildingBlock: LEVNOQ01_clean_sbu_1, # of connection points: 6
#     Node 2, Type 1, BuildingBlock: BELTOD_clean_linker_0, # of connection points: 3
#     Node 3, Type 1, BuildingBlock: BELTOD_clean_linker_0, # of connection points: 3
#     Node 4, Type 1, BuildingBlock: BELTOD_clean_linker_0, # of connection points: 3
#     Node 5, Type 1, BuildingBlock: BELTOD_clean_linker_0, # of connection points: 3
#     Edge 6, Type (0, 1), BuildingBlock: EZIPEK_clean_linker_0, # of connection points: 2
#     Edge 7, Type (0, 1), BuildingBlock: EZIPEK_clean_linker_0, # of connection points: 2
#     Edge 8, Type (0, 1), BuildingBlock: EZIPEK_clean_linker_0, # of connection points: 2
#     Edge 9, Type (0, 1), BuildingBlock: EZIPEK_clean_linker_0, # of connection points: 2
#     Edge 10, Type (0, 1), BuildingBlock: EZIPEK_clean_linker_0, # of connection points: 2
#     Edge 11, Type (0, 1), BuildingBlock: EZIPEK_clean_linker_0, # of connection points: 2
#     Edge 12, Type (0, 1), BuildingBlock: EZIPEK_clean_linker_0, # of connection points: 2
#     Edge 13, Type (0, 1), BuildingBlock: EZIPEK_clean_linker_0, # of connection points: 2
#     Edge 14, Type (0, 1), BuildingBlock: EZIPEK_clean_linker_0, # of connection points: 2
#     Edge 15, Type (0, 1), BuildingBlock: EZIPEK_clean_linker_0, # of connection points: 2
#     Edge 16, Type (0, 1), BuildingBlock: EZIPEK_clean_linker_0, # of connection points: 2
#     Edge 17, Type (0, 1), BuildingBlock: EZIPEK_clean_linker_0, # of connection points: 2
# Relax obj value: 0.118
# Max RMSD: 0.151
# Mean RMSD: 0.111
data_MOF--net-tsx--node1-LEVNOQ01_clean_sbu_1--node2-BELTOD_clean_linker_0--edge1-EZIPEK_clean_linker_0
_symmetry_space_group_name_H-M    P1
_symmetry_Int_Tables_number       1
_symmetry_cell_setting            triclinic
loop_
_symmetry_equiv_pos_as_xyz
'x, y, z'
_cell_length_a     15.890752
_cell_length_b     19.249672
_cell_length_c     31.558639
_cell_angle_alpha  97.794513
_cell_angle_beta   90.228569
_cell_angle_gamma 91.508694
loop_
_atom_site_label
_atom_site_type_symbol
_atom_site_fract_x
_atom_site_fract_y
_atom_site_fract_z
_atom_type_partial_charge
O0 O 0.18877 0.03168 0.09426 0.0
Mg1 Mg 0.25425 0.02155 0.0344 0.0
O2 O 0.05704 0.03392 0.07069 0.0
Mg3 Mg 0.05484 0.02761 -0.00213 0.0
O4 O 0.18226 0.07742 -0.00022 0.0
O5 O 0.31237 0.11218 0.01367 0.0
O6 O 0.05181 0.02408 0.92527 0.0
O7 O 0.00596 0.14201 0.00574 0.0
Mg8 Mg 0.86131 0.04452 0.96921 0.0
O9 O 0.92688 0.97399 -0.00392 0.0
O10 O 0.9182 0.04209 0.90786 0.0
O11 O 0.86727 0.13876 0.01043 0.0
O12 O 0.79014 0.95965 0.98407 0.0
C13 C 0.17807 0.88435 0.98986 0.0
C14 C 0.10994 0.03652 0.10129 0.0
C15 C 0.23965 0.12525 -0.00097 0.0
C16 C 0.9949 0.03206 0.89789 0.0
C17 C 0.93664 0.1729 0.01352 0.0
C18 C 0.85962 0.93524 -0.00368 0.0
O19 O 0.24588 0.91839 0.0013 0.0
O20 O 0.10697 0.91391 0.98963 0.0
O21 O 0.69485 0.51592 0.59233 0.0
Mg22 Mg 0.76425 0.52328 0.53457 0.0
O23 O 0.56226 0.51975 0.56851 0.0
Mg24 Mg 0.56464 0.53184 0.49748 0.0
O25 O 0.69006 0.58344 0.50437 0.0
O26 O 0.81813 0.62098 0.52042 0.0
O27 O 0.5749 0.54538 0.42538 0.0
O28 O 0.51263 0.64373 0.51329 0.0
Mg29 Mg 0.39099 0.53794 0.45072 0.0
O30 O 0.4337 0.47799 0.49337 0.0
O31 O 0.45289 0.51765 0.39253 0.0
O32 O 0.3901 0.64206 0.47879 0.0
O33 O 0.3023 0.46872 0.46699 0.0
C34 C 0.69183 0.39115 0.48205 0.0
C35 C 0.6154 0.51351 0.59808 0.0
C36 C 0.74548 0.63304 0.50534 0.0
C37 C 0.53034 0.53392 0.39137 0.0
C38 C 0.44682 0.67391 0.50282 0.0
C39 C 0.35968 0.44771 0.49099 0.0
O40 O 0.75917 0.42553 0.49422 0.0
O41 O 0.61988 0.41968 0.48351 0.0
P42 P 0.09315 0.0362 0.41315 0.0
H43 H 0.05905 0.18167 0.44404 0.0
H44 H 0.92869 0.24067 0.46313 0.0
H45 H 0.79621 0.041 0.45594 0.0
H46 H 0.92941 0.98068 0.43803 0.0
H47 H 0.22108 0.06487 0.47915 0.0
H48 H 0.31479 0.98923 0.51226 0.0
H49 H 0.18348 0.80699 0.44613 0.0
H50 H 0.08728 0.88347 0.41384 0.0
H51 H 0.94452 0.04966 0.35981 0.0
H52 H 0.179 0.94 0.3494 0.0
O53 O 0.16208 0.09905 0.40382 0.0
H54 H 0.93402 0.0385 0.28282 0.0
H55 H 0.16755 0.92877 0.2714 0.0
C56 C 0.00406 0.07673 0.43995 0.0
C57 C 0.00318 0.14999 0.44799 0.0
C58 C 0.92846 0.18382 0.45843 0.0
C59 C 0.85308 0.14507 0.46031 0.0
C60 C 0.85409 0.07153 0.45453 0.0
C61 C 0.92986 0.03737 0.44477 0.0
C62 C 0.14802 0.97973 0.44374 0.0
C63 C 0.21082 0.00886 0.47253 0.0
C64 C 0.26451 0.96577 0.49134 0.0
C65 C 0.25607 0.89279 0.4814 0.0
C66 C 0.1906 0.86337 0.45411 0.0
C67 C 0.13597 0.90681 0.43576 0.0
C68 C 0.06271 -0.00453 0.3607 0.0
C69 C 0.99128 0.01932 0.34134 0.0
C70 C 0.98506 0.01317 0.29705 0.0
C71 C 0.05062 0.98387 0.27177 0.0
C72 C 0.11634 0.95142 0.2907 0.0
C73 C 0.12265 0.9577 0.3352 0.0
P74 P 0.07473 0.00394 0.57248 0.0
H75 H 0.04521 0.87458 0.51553 0.0
H76 H 0.9191 0.81142 0.48945 0.0
H77 H 0.77242 -0.00703 0.53296 0.0
H78 H 0.90034 0.05381 0.56412 0.0
H79 H 0.24164 0.06065 0.58812 0.0
H80 H 0.31186 0.17006 0.57579 0.0
H81 H 0.07684 0.24482 0.53308 0.0
H82 H 0.0062 0.13306 0.54402 0.0
H83 H 0.15031 0.92634 0.63537 0.0
H84 H 0.96512 0.08625 0.63287 0.0
O85 O 0.15156 0.94818 0.55986 0.0
H86 H 0.13677 0.9348 0.71277 0.0
H87 H 0.94962 0.09268 0.71076 0.0
C88 C 0.98286 0.96903 0.54232 0.0
C89 C 0.98658 0.90163 0.5195 0.0
C90 C 0.91366 0.86529 0.50425 0.0
C91 C 0.83449 0.89569 0.51058 0.0
C92 C 0.83128 0.96596 0.52994 0.0
C93 C 0.90493 0.00178 0.54665 0.0
C94 C 0.11946 0.0879 0.56546 0.0
C95 C 0.2048 0.10041 0.57608 0.0
C96 C 0.24482 0.16307 0.56965 0.0
C97 C 0.19951 0.2151 0.5536 0.0
C98 C 0.11247 0.20495 0.54573 0.0
C99 C 0.07248 0.14114 0.55149 0.0
C100 C 0.05775 0.00519 0.62839 0.0
C101 C 0.10594 0.96265 0.65125 0.0
C102 C 0.09864 0.9675 0.69541 0.0
C103 C 0.04233 0.01427 0.71705 0.0
C104 C 0.99329 0.05631 0.69423 0.0
C105 C 0.00148 0.05211 0.64997 0.0
P106 P 0.58137 0.52743 0.90511 0.0
H107 H 0.55479 0.67353 0.9386 0.0
H108 H 0.42875 0.73578 0.96242 0.0
H109 H 0.29015 0.53932 0.95767 0.0
H110 H 0.4189 0.47575 0.93475 0.0
H111 H 0.74299 0.55663 0.94842 0.0
H112 H 0.8388 0.48475 0.98265 0.0
H113 H 0.66406 0.30871 0.95727 0.0
H114 H 0.56437 0.38299 0.92517 0.0
H115 H 0.43144 0.54075 0.85321 0.0
H116 H 0.65323 0.41483 0.84651 0.0
O117 O 0.6438 0.58953 0.88891 0.0
H118 H 0.41845 0.51998 0.7758 0.0
H119 H 0.63966 0.39435 0.76876 0.0
C120 C 0.49622 0.56992 0.93476 0.0
C121 C 0.49856 0.6432 0.94393 0.0
C122 C 0.4263 0.67893 0.95722 0.0
C123 C 0.35019 0.6421 0.96113 0.0
C124 C 0.34855 0.56845 0.95469 0.0
C125 C 0.4218 0.53239 0.94188 0.0
C126 C 0.64582 0.47562 0.93484 0.0
C127 C 0.72332 0.50357 0.95141 0.0
C128 C 0.77867 0.46232 0.97062 0.0
C129 C 0.75839 0.39171 0.97249 0.0
C130 C 0.68044 0.36342 0.95623 0.0
C131 C 0.62373 0.40563 0.93809 0.0
C132 C 0.54347 0.47934 0.85586 0.0
C133 C 0.47405 0.50473 0.83563 0.0
C134 C 0.46645 0.49303 0.79122 0.0
C135 C 0.52881 0.45661 0.76689 0.0
C136 C 0.59086 0.42236 0.78728 0.0
C137 C 0.59843 0.43406 0.83176 0.0
P138 P 0.56222 0.50955 0.07979 0.0
H139 H 0.54696 0.38012 0.02172 0.0
H140 H 0.4256 0.31183 0.99144 0.0
H141 H 0.26502 0.4851 0.03311 0.0
H142 H 0.38799 0.55138 0.06738 0.0
H143 H 0.74235 0.51806 0.06409 0.0
H144 H 0.83254 0.61122 0.04168 0.0
H145 H 0.61302 0.73131 0.02339 0.0
H146 H 0.52214 0.63614 0.04371 0.0
H147 H 0.44382 0.46612 0.14092 0.0
H148 H 0.62115 0.63816 0.13366 0.0
O149 O 0.62234 0.44524 0.09152 0.0
H150 H 0.44868 0.4908 0.219 0.0
H151 H 0.62575 0.66212 0.21137 0.0
C152 C 0.47589 0.47009 0.04754 0.0
C153 C 0.48613 0.40408 0.02395 0.0
C154 C 0.41651 0.36516 0.0064 0.0
C155 C 0.33531 0.39209 0.01149 0.0
C156 C 0.3265 0.46201 0.03034 0.0
C157 C 0.39651 0.5003 0.04926 0.0
C158 C 0.62556 0.56975 0.05444 0.0
C159 C 0.71328 0.56348 0.0541 0.0
C160 C 0.76488 0.61686 0.0419 0.0
C161 C 0.72934 0.67819 0.03145 0.0
C162 C 0.64139 0.68427 0.03157 0.0
C163 C 0.58968 0.62988 0.04255 0.0
C164 C 0.53159 0.55034 0.13138 0.0
C165 C 0.48005 0.51141 0.15587 0.0
C166 C 0.4836 0.52488 0.20032 0.0
C167 C 0.53862 0.57742 0.22041 0.0
C168 C 0.58328 0.62125 0.19607 0.0
C169 C 0.57983 0.6077 0.15162 0.0
C170 C 0.19751 0.24283 0.03236 0.0
C171 C 0.22024 0.19859 -0.00513 0.0
C172 C 0.25995 0.30141 0.96119 0.0
C173 C 0.26283 0.34147 0.00226 0.0
N174 N 0.21707 0.35563 0.07582 0.0
N175 N 0.25532 0.18441 0.92042 0.0
C176 C 0.22302 0.31467 0.03713 0.0
C177 C 0.24416 0.22772 0.95781 0.0
N178 N 0.15387 0.21539 0.06369 0.0
N179 N 0.2779 0.33404 0.92643 0.0
H180 H 0.24067 0.13075 0.91764 0.0
H181 H 0.27928 0.20106 0.89275 0.0
H182 H 0.29023 0.38811 0.92964 0.0
H183 H 0.27427 0.30936 0.895 0.0
H184 H 0.12824 0.24557 0.09013 0.0
H185 H 0.13629 0.16249 0.06105 0.0
H186 H 0.2014 0.33628 0.10408 0.0
H187 H 0.22871 0.40947 0.08006 0.0
C188 C 0.2044 0.77358 0.01801 0.0
C189 C 0.18312 0.80722 0.98247 0.0
C190 C 0.23214 0.70691 0.93398 0.0
C191 C 0.27291 0.68329 0.96926 0.0
N192 N 0.29154 0.68773 0.04518 0.0
N193 N 0.16162 0.80302 0.90689 0.0
C194 C 0.25499 0.71351 0.01157 0.0
C195 C 0.1902 0.77195 0.9404 0.0
N196 N 0.17812 0.80102 0.0578 0.0
N197 N 0.23674 0.66825 0.89448 0.0
H198 H 0.12831 0.84944 0.91152 0.0
H199 H 0.17174 0.78402 0.87491 0.0
H200 H 0.2678 0.62077 0.88948 0.0
H201 H 0.20488 0.67996 0.86759 0.0
H202 H 0.18665 0.77696 0.08506 0.0
H203 H 0.14071 0.84519 0.06256 0.0
H204 H 0.28938 0.71197 0.07669 0.0
H205 H 0.32701 0.64263 0.04087 0.0
C206 C 0.8242 0.81327 0.96732 0.0
C207 C 0.86118 0.86013 0.00077 0.0
C208 C 0.83392 0.77792 0.05156 0.0
C209 C 0.78388 0.73612 0.01973 0.0
N210 N 0.73433 0.71125 0.94668 0.0
N211 N 0.93704 0.87356 0.06703 0.0
C212 C 0.78167 0.75206 0.97705 0.0
C213 C 0.87781 0.8381 0.0406 0.0
N214 N 0.83053 0.82825 0.92632 0.0
N215 N 0.83388 0.7637 0.09284 0.0
H216 H 0.97198 0.91546 0.0578 0.0
H217 H 0.95829 0.85658 0.09505 0.0
H218 H 0.80075 0.72128 0.10261 0.0
H219 H 0.86174 0.79683 0.11812 0.0
H220 H 0.81148 0.79414 0.89937 0.0
H221 H 0.86251 0.87325 0.91919 0.0
H222 H 0.722 0.72403 0.91632 0.0
H223 H 0.70276 0.66589 0.95283 0.0
C224 C 0.87048 0.28006 0.04473 0.0
C225 C 0.93097 0.2497 0.0162 0.0
C226 C 0.89368 0.32708 0.96422 0.0
C227 C 0.82163 0.34681 0.98916 0.0
N228 N 0.73817 0.33863 0.05205 0.0
N229 N 0.02448 0.26417 0.95849 0.0
C230 C 0.81015 0.32384 0.02974 0.0
C231 C 0.95115 0.28054 0.97926 0.0
N232 N 0.86896 0.26304 0.0853 0.0
N233 N 0.90292 0.34761 0.9246 0.0
H234 H 0.06652 0.23019 0.96945 0.0
H235 H 0.0476 0.28884 0.9334 0.0
H236 H 0.86067 0.37968 0.91168 0.0
H237 H 0.94906 0.32918 0.90296 0.0
H238 H 0.83018 0.28669 0.10928 0.0
H239 H 0.91322 0.22947 0.09547 0.0
H240 H 0.72231 0.31787 0.07984 0.0
H241 H 0.6906 0.36667 0.04023 0.0
C242 C 0.70128 0.75236 0.53568 0.0
C243 C 0.72426 0.70539 0.49929 0.0
C244 C 0.75847 0.80443 0.46097 0.0
C245 C 0.7586 0.84853 0.50068 0.0
N246 N 0.68714 0.8735 0.5678 0.0
N247 N 0.75166 0.68449 0.42398 0.0
C248 C 0.7148 0.82556 0.53541 0.0
C249 C 0.74375 0.73091 0.46037 0.0
N250 N 0.67131 0.72632 0.57103 0.0
N251 N 0.77958 0.83335 0.42522 0.0
H252 H 0.73881 0.63091 0.42352 0.0
H253 H 0.76904 0.69853 0.3945 0.0
H254 H 0.79122 0.88736 0.42679 0.0
H255 H 0.78185 0.80562 0.3946 0.0
H256 H 0.66208 0.75652 0.60048 0.0
H257 H 0.6569 0.67311 0.57087 0.0
H258 H 0.65096 0.86073 0.59317 0.0
H259 H 0.6923 0.92716 0.56673 0.0
C260 C 0.69795 0.27468 0.43569 0.0
C261 C 0.69685 0.31393 0.47691 0.0
C262 C 0.75633 0.21644 0.50832 0.0
C263 C 0.77446 0.18457 0.46654 0.0
N264 N 0.74492 0.16927 0.39124 0.0
N265 N 0.70139 0.31745 0.55341 0.0
C266 C 0.73749 0.20851 0.43042 0.0
C267 C 0.71701 0.28238 0.5137 0.0
N268 N 0.66435 0.30236 0.40199 0.0
N269 N 0.78195 0.18504 0.54229 0.0
H270 H 0.67232 0.3658 0.55769 0.0
H271 H 0.71408 0.29862 0.58204 0.0
H272 H 0.80853 0.13564 0.53797 0.0
H273 H 0.77553 0.20589 0.57421 0.0
H274 H 0.66376 0.27795 0.37053 0.0
H275 H 0.63352 0.34996 0.4062 0.0
H276 H 0.72217 0.18339 0.36278 0.0
H277 H 0.77249 0.12021 0.38763 0.0
C278 C 0.32538 0.32235 0.48303 0.0
C279 C 0.34077 0.38481 0.51103 0.0
C280 C 0.2745 0.33282 0.5696 0.0
C281 C 0.24674 0.27501 0.53946 0.0
N282 N 0.23917 0.21757 0.46651 0.0
N283 N 0.33491 0.45157 0.581 0.0
C284 C 0.27086 0.27033 0.49594 0.0
C285 C 0.31789 0.39041 0.55465 0.0
N286 N 0.36363 0.31305 0.444 0.0
N287 N 0.25878 0.3326 0.61213 0.0
H288 H 0.3698 0.49295 0.57095 0.0
H289 H 0.31295 0.46225 0.61216 0.0
H290 H 0.22388 0.29261 0.62369 0.0
H291 H 0.28363 0.36991 0.63617 0.0
H292 H 0.36145 0.26581 0.42351 0.0
H293 H 0.40511 0.3506 0.43415 0.0
H294 H 0.24643 0.21669 0.43367 0.0
H295 H 0.19913 0.178 0.47457 0.0
C296 C 0.45817 0.79348 0.48567 0.0
C297 C 0.43491 0.74879 0.5158 0.0
C298 C 0.30262 0.80655 0.52938 0.0
C299 C 0.32089 0.84769 0.49618 0.0
N300 N 0.42156 0.88937 0.44721 0.0
N301 N 0.35839 0.73194 0.57844 0.0
C302 C 0.40157 0.84541 0.47651 0.0
C303 C 0.36595 0.76393 0.5426 0.0
N304 N 0.53038 0.78065 0.46306 0.0
N305 N 0.22329 0.80297 0.54544 0.0
H306 H 0.40466 0.69852 0.58679 0.0
H307 H 0.31184 0.74377 0.60125 0.0
H308 H 0.17276 0.8273 0.53328 0.0
H309 H 0.20558 0.76949 0.56734 0.0
H310 H 0.5495 0.80617 0.43759 0.0
H311 H 0.57036 0.74139 0.46959 0.0
H312 H 0.48144 0.89455 0.43466 0.0
H313 H 0.37882 0.92291 0.43605 0.0
C314 C 0.00605 0.00518 0.15645 0.0
C315 C 0.08021 0.04185 0.14631 0.0
C316 C 0.12053 0.05744 0.22201 0.0
C317 C 0.06059 0.00368 0.22847 0.0
N318 N 0.94645 0.92472 0.2013 0.0
N319 N 0.1962 0.11979 0.17151 0.0
C320 C 0.00313 0.97711 0.19556 0.0
C321 C 0.13395 0.07336 0.1799 0.0
N322 N 0.93609 0.00225 0.13103 0.0
N323 N 0.16138 0.09526 0.25624 0.0
H324 H 0.1987 0.14082 0.14273 0.0
H325 H 0.24504 0.13721 0.1927 0.0
H326 H 0.15142 0.08684 0.28779 0.0
H327 H 0.19984 0.13919 0.25409 0.0
H328 H 0.87891 0.97995 0.13917 0.0
H329 H 0.93106 0.03118 0.10559 0.0
H330 H 0.90839 0.8996 0.17657 0.0
H331 H 0.94276 0.90258 0.22967 0.0
C332 C 0.05208 0.08406 0.83537 0.0
C333 C 0.01709 0.02562 0.85256 0.0
C334 C 0.99642 0.9611 0.78122 0.0
C335 C 0.03439 0.0183 0.7638 0.0
N336 N 0.11407 0.12792 0.77378 0.0
N337 N 0.97757 0.90287 0.84394 0.0
C338 C 0.06698 0.07811 0.79074 0.0
C339 C 0.99596 0.96227 0.82609 0.0
N340 N 0.06909 0.14546 0.86155 0.0
N341 N 0.95786 0.90707 0.755 0.0
H342 H 0.9792 0.90185 0.8769 0.0
H343 H 0.96959 0.85343 0.82617 0.0
H344 H 0.95558 0.9047 0.7218 0.0
H345 H 0.92164 0.86772 0.76633 0.0
H346 H 0.08569 0.1924 0.8504 0.0
H347 H 0.06211 0.1504 0.89467 0.0
H348 H 0.14649 0.16908 0.79225 0.0
H349 H 0.12658 0.125 0.74117 0.0
C350 C 0.60654 0.55136 0.67636 0.0
C351 C 0.58408 0.50187 0.64053 0.0
C352 C 0.51247 0.42729 0.68724 0.0
C353 C 0.54431 0.47259 0.7231 0.0
N354 N 0.62826 0.57455 0.75281 0.0
N355 N 0.51921 0.39075 0.61074 0.0
C356 C 0.59289 0.53394 0.71796 0.0
C357 C 0.5371 0.43952 0.64553 0.0
N358 N 0.63817 0.61614 0.67053 0.0
N359 N 0.45828 0.37319 0.69323 0.0
H360 H 0.53383 0.39828 0.57952 0.0
H361 H 0.49387 0.34092 0.61274 0.0
H362 H 0.44072 0.36242 0.72354 0.0
H363 H 0.42616 0.34206 0.6685 0.0
H364 H 0.64695 0.65738 0.69527 0.0
H365 H 0.64797 0.63107 0.64036 0.0
H366 H 0.67295 0.61439 0.75055 0.0
H367 H 0.61803 0.56568 0.78425 0.0
C368 C 0.524 0.6195 0.34044 0.0
C369 C 0.56034 0.55824 0.35188 0.0
C370 C 0.61048 0.52729 0.27915 0.0
C371 C 0.55778 0.57927 0.26622 0.0
N372 N 0.46778 0.67773 0.28352 0.0
N373 N 0.64737 0.45836 0.33535 0.0
C374 C 0.51705 0.62745 0.29668 0.0
C375 C 0.6081 0.51416 0.32233 0.0
N376 N 0.49498 0.66901 0.37173 0.0
N377 N 0.66157 0.49054 0.24992 0.0
H378 H 0.64949 0.45067 0.36743 0.0
H379 H 0.67599 0.41933 0.31473 0.0
H380 H 0.66431 0.4994 0.21805 0.0
H381 H 0.70577 0.45529 0.25766 0.0
H382 H 0.47373 0.71766 0.36611 0.0
H383 H 0.49954 0.66357 0.4041 0.0
H384 H 0.42846 0.70914 0.3038 0.0
H385 H 0.46294 0.68578 0.25158 0.0
loop_
_geom_bond_atom_site_label_1
_geom_bond_atom_site_label_2
_geom_bond_distance
_geom_bond_site_symmetry_2
_ccdc_geom_bond_type
O0 Mg1 1.990 . S
O0 C14 1.253 . S
Mg1 O0 1.990 . S
Mg1 O4 2.180 . S
Mg1 O5 2.117 . S
Mg1 O19 2.030 1_545 S
O2 Mg3 2.072 1_554 S
O2 C14 1.260 . S
Mg3 O2 2.072 1_556 S
Mg3 O4 2.099 1_556 S
Mg3 O6 2.079 . S
Mg3 O7 2.072 1_456 S
Mg3 O9 2.099 1_445 S
Mg3 O20 2.079 1_545 S
O4 Mg1 2.180 . S
O4 Mg3 2.099 1_554 S
O4 C15 1.279 . S
O5 Mg1 2.117 . S
O5 C15 1.250 . S
O6 Mg3 2.079 . S
O6 C16 1.264 . S
O7 Mg3 2.072 1_654 S
O7 C17 1.260 1_554 S
Mg8 O9 2.180 1_545 S
Mg8 O10 2.030 . S
Mg8 O11 1.990 . S
Mg8 O12 2.117 1_545 S
O9 Mg3 2.099 1_665 S
O9 Mg8 2.180 1_565 S
O9 C18 1.281 . S
O10 Mg8 2.030 . S
O10 C16 1.248 1_655 S
O11 Mg8 1.990 . S
O11 C17 1.253 . S
O12 Mg8 2.117 1_565 S
O12 C18 1.252 . S
C13 O19 1.248 . S
C13 O20 1.264 1_554 S
C14 O0 1.253 . S
C14 O2 1.260 . S
C15 O4 1.279 . S
C15 O5 1.250 . S
C16 O6 1.264 . S
C16 O10 1.248 1_455 S
C17 O7 1.260 1_556 S
C17 O11 1.253 . S
C18 O9 1.281 . S
C18 O12 1.252 . S
O19 Mg1 2.030 1_565 S
O19 C13 1.248 . S
O20 Mg3 2.079 1_565 S
O20 C13 1.264 1_556 S
O21 Mg22 1.990 . S
O21 C35 1.253 . S
Mg22 O21 1.990 . S
Mg22 O25 2.180 . S
Mg22 O26 2.117 . S
Mg22 O40 2.030 . S
O23 Mg24 2.072 . S
O23 C35 1.260 . S
Mg24 O23 2.072 . S
Mg24 O25 2.099 . S
Mg24 O27 2.079 . S
Mg24 O28 2.072 . S
Mg24 O30 2.099 . S
Mg24 O41 2.079 . S
O25 Mg22 2.180 . S
O25 Mg24 2.099 . S
O25 C36 1.279 . S
O26 Mg22 2.117 . S
O26 C36 1.250 . S
O27 Mg24 2.079 . S
O27 C37 1.264 . S
O28 Mg24 2.072 . S
O28 C38 1.260 . S
Mg29 O30 2.180 . S
Mg29 O31 2.030 . S
Mg29 O32 1.990 . S
Mg29 O33 2.117 . S
O30 Mg24 2.099 . S
O30 Mg29 2.180 . S
O30 C39 1.279 . S
O31 Mg29 2.030 . S
O31 C37 1.248 . S
O32 Mg29 1.990 . S
O32 C38 1.253 . S
O33 Mg29 2.117 . S
O33 C39 1.250 . S
C34 O40 1.248 . S
C34 O41 1.264 . S
C35 O21 1.253 . S
C35 O23 1.260 . S
C36 O25 1.279 . S
C36 O26 1.250 . S
C37 O27 1.264 . S
C37 O31 1.248 . S
C38 O28 1.260 . S
C38 O32 1.253 . S
C39 O30 1.279 . S
C39 O33 1.250 . S
O40 Mg22 2.030 . S
O40 C34 1.248 . S
O41 Mg24 2.079 . S
O41 C34 1.264 . S
P42 O53 1.490 . S
P42 C56 1.812 . S
P42 C62 1.803 1_545 S
P42 C68 1.819 . S
H43 C57 0.941 . S
H44 C58 0.939 . S
H45 C60 0.940 . S
H46 C61 0.940 . S
H47 C63 0.939 . S
H48 C64 0.942 . S
H49 C66 0.940 . S
H50 C67 0.939 . S
H51 C69 0.941 . S
H52 C73 0.939 . S
O53 P42 1.490 . S
H54 C70 0.939 . S
H55 C72 0.940 . S
C56 P42 1.812 . S
C56 C57 1.389 . S
C56 C61 1.391 1_455 S
C57 H43 0.941 . S
C57 C56 1.389 . S
C57 C58 1.397 1_455 S
C58 H44 0.939 . S
C58 C57 1.397 1_655 S
C58 C59 1.378 . S
C59 C58 1.378 . S
C59 C60 1.378 . S
C60 H45 0.940 . S
C60 C59 1.378 . S
C60 C61 1.396 . S
C61 H46 0.940 . S
C61 C56 1.391 1_655 S
C61 C60 1.396 . S
C62 P42 1.803 1_565 S
C62 C63 1.378 . S
C62 C67 1.400 . S
C63 H47 0.939 . S
C63 C62 1.378 . S
C63 C64 1.361 . S
C64 H48 0.942 . S
C64 C63 1.361 . S
C64 C65 1.369 . S
C65 C64 1.369 . S
C65 C66 1.404 . S
C66 H49 0.940 . S
C66 C65 1.404 . S
C66 C67 1.389 . S
C67 H50 0.939 . S
C67 C62 1.400 . S
C67 C66 1.389 . S
C68 P42 1.819 . S
C68 C69 1.391 . S
C68 C73 1.391 1_545 S
C69 H51 0.941 . S
C69 C68 1.391 . S
C69 C70 1.396 . S
C70 H54 0.939 . S
C70 C69 1.396 . S
C70 C71 1.397 . S
C71 C70 1.397 . S
C71 C72 1.385 1_545 S
C72 H55 0.940 . S
C72 C71 1.385 1_565 S
C72 C73 1.388 . S
C73 H52 0.939 . S
C73 C68 1.391 1_565 S
C73 C72 1.388 . S
P74 O85 1.490 1_545 S
P74 C88 1.812 1_445 S
P74 C94 1.803 . S
P74 C100 1.819 . S
H75 C89 0.941 . S
H76 C90 0.939 . S
H77 C92 0.940 . S
H78 C93 0.940 1_545 S
H79 C95 0.939 . S
H80 C96 0.942 . S
H81 C98 0.940 . S
H82 C99 0.939 . S
H83 C101 0.941 . S
H84 C105 0.939 . S
O85 P74 1.490 1_565 S
H86 C102 0.939 1_565 S
H87 C104 0.940 . S
C88 P74 1.812 1_665 S
C88 C89 1.389 1_655 S
C88 C93 1.391 . S
C89 H75 0.941 . S
C89 C88 1.389 1_455 S
C89 C90 1.397 1_455 S
C90 H76 0.939 . S
C90 C89 1.397 1_655 S
C90 C91 1.378 . S
C91 C90 1.378 . S
C91 C92 1.378 . S
C92 H77 0.940 . S
C92 C91 1.378 . S
C92 C93 1.396 . S
C93 H78 0.940 1_565 S
C93 C88 1.391 . S
C93 C92 1.396 . S
C94 P74 1.803 . S
C94 C95 1.378 . S
C94 C99 1.400 . S
C95 H79 0.939 . S
C95 C94 1.378 . S
C95 C96 1.361 . S
C96 H80 0.942 . S
C96 C95 1.361 . S
C96 C97 1.369 . S
C97 C96 1.369 . S
C97 C98 1.404 . S
C98 H81 0.940 . S
C98 C97 1.404 . S
C98 C99 1.389 . S
C99 H82 0.939 . S
C99 C94 1.400 . S
C99 C98 1.389 . S
C100 P74 1.819 . S
C100 C101 1.391 1_545 S
C100 C105 1.391 . S
C101 H83 0.941 . S
C101 C100 1.391 1_565 S
C101 C102 1.396 1_565 S
C102 H86 0.939 1_545 S
C102 C101 1.396 1_545 S
C102 C103 1.397 . S
C103 C102 1.397 . S
C103 C104 1.385 . S
C104 H87 0.940 . S
C104 C103 1.385 . S
C104 C105 1.388 . S
C105 H84 0.939 . S
C105 C100 1.391 . S
C105 C104 1.388 . S
P106 O117 1.490 . S
P106 C120 1.812 . S
P106 C126 1.803 . S
P106 C132 1.819 . S
H107 C121 0.941 . S
H108 C122 0.939 . S
H109 C124 0.940 . S
H110 C125 0.940 . S
H111 C127 0.939 . S
H112 C128 0.942 . S
H113 C130 0.940 . S
H114 C131 0.939 . S
H115 C133 0.941 . S
H116 C137 0.939 . S
O117 P106 1.490 . S
H118 C134 0.939 . S
H119 C136 0.940 . S
C120 P106 1.812 . S
C120 C121 1.389 . S
C120 C125 1.391 . S
C121 H107 0.941 . S
C121 C120 1.389 . S
C121 C122 1.397 1_556 S
C122 H108 0.939 . S
C122 C121 1.397 1_554 S
C122 C123 1.378 1_554 S
C123 C122 1.378 1_556 S
C123 C124 1.378 . S
C124 H109 0.940 . S
C124 C123 1.378 . S
C124 C125 1.396 . S
C125 H110 0.940 . S
C125 C120 1.391 . S
C125 C124 1.396 . S
C126 P106 1.803 . S
C126 C127 1.378 . S
C126 C131 1.400 . S
C127 H111 0.939 . S
C127 C126 1.378 . S
C127 C128 1.361 . S
C128 H112 0.942 . S
C128 C127 1.361 . S
C128 C129 1.369 . S
C129 C128 1.369 . S
C129 C130 1.404 . S
C130 H113 0.940 . S
C130 C129 1.404 . S
C130 C131 1.389 . S
C131 H114 0.939 . S
C131 C126 1.400 . S
C131 C130 1.389 . S
C132 P106 1.819 . S
C132 C133 1.391 . S
C132 C137 1.391 . S
C133 H115 0.941 . S
C133 C132 1.391 . S
C133 C134 1.396 . S
C134 H118 0.939 . S
C134 C133 1.396 . S
C134 C135 1.397 . S
C135 C134 1.397 . S
C135 C136 1.385 . S
C136 H119 0.940 . S
C136 C135 1.385 . S
C136 C137 1.388 . S
C137 H116 0.939 . S
C137 C132 1.391 . S
C137 C136 1.388 . S
P138 O149 1.490 . S
P138 C152 1.812 . S
P138 C158 1.803 . S
P138 C164 1.819 . S
H139 C153 0.941 . S
H140 C154 0.939 1_556 S
H141 C156 0.940 . S
H142 C157 0.940 . S
H143 C159 0.939 . S
H144 C160 0.942 . S
H145 C162 0.940 . S
H146 C163 0.939 . S
H147 C165 0.941 . S
H148 C169 0.939 . S
O149 P138 1.490 . S
H150 C166 0.939 . S
H151 C168 0.940 . S
C152 P138 1.812 . S
C152 C153 1.389 . S
C152 C157 1.391 . S
C153 H139 0.941 . S
C153 C152 1.389 . S
C153 C154 1.397 . S
C154 H140 0.939 1_554 S
C154 C153 1.397 . S
C154 C155 1.378 . S
C155 C154 1.378 . S
C155 C156 1.378 . S
C156 H141 0.940 . S
C156 C155 1.378 . S
C156 C157 1.396 . S
C157 H142 0.940 . S
C157 C152 1.391 . S
C157 C156 1.396 . S
C158 P138 1.803 . S
C158 C159 1.378 . S
C158 C163 1.400 . S
C159 H143 0.939 . S
C159 C158 1.378 . S
C159 C160 1.361 . S
C160 H144 0.942 . S
C160 C159 1.361 . S
C160 C161 1.369 . S
C161 C160 1.369 . S
C161 C162 1.404 . S
C162 H145 0.940 . S
C162 C161 1.404 . S
C162 C163 1.389 . S
C163 H146 0.939 . S
C163 C158 1.400 . S
C163 C162 1.389 . S
C164 P138 1.819 . S
C164 C165 1.391 . S
C164 C169 1.391 . S
C165 H147 0.941 . S
C165 C164 1.391 . S
C165 C166 1.396 . S
C166 H150 0.939 . S
C166 C165 1.396 . S
C166 C167 1.397 . S
C167 C166 1.397 . S
C167 C168 1.385 . S
C168 H151 0.940 . S
C168 C167 1.385 . S
C168 C169 1.388 . S
C169 H148 0.939 . S
C169 C164 1.391 . S
C169 C168 1.388 . S
C170 C171 1.363 . S
C170 C176 1.379 . S
C170 N178 1.356 . S
C171 C170 1.363 . S
C171 C177 1.363 1_554 S
C172 C173 1.363 1_556 S
C172 C177 1.379 . S
C172 N179 1.356 . S
C173 C172 1.363 1_554 S
C173 C176 1.363 . S
N174 C176 1.356 . S
N174 H186 0.984 . S
N174 H187 0.985 . S
N175 C177 1.356 . S
N175 H180 0.984 . S
N175 H181 0.985 . S
C176 C170 1.379 . S
C176 C173 1.363 . S
C176 N174 1.356 . S
C177 C171 1.363 1_556 S
C177 C172 1.379 . S
C177 N175 1.356 . S
N178 C170 1.356 . S
N178 H184 0.984 . S
N178 H185 0.984 . S
N179 C172 1.356 . S
N179 H182 0.984 . S
N179 H183 0.985 . S
H180 N175 0.984 . S
H181 N175 0.985 . S
H182 N179 0.984 . S
H183 N179 0.985 . S
H184 N178 0.984 . S
H185 N178 0.984 . S
H186 N174 0.984 . S
H187 N174 0.985 . S
C188 C189 1.363 . S
C188 C194 1.379 . S
C188 N196 1.356 . S
C189 C188 1.363 . S
C189 C195 1.363 1_554 S
C190 C191 1.381 . S
C190 C195 1.379 . S
C190 N197 1.356 . S
C191 C190 1.381 . S
C191 C194 1.347 1_556 S
N192 C194 1.356 . S
N192 H204 0.984 . S
N192 H205 0.985 . S
N193 C195 1.356 . S
N193 H198 0.984 . S
N193 H199 0.985 . S
C194 C188 1.379 . S
C194 C191 1.347 1_554 S
C194 N192 1.356 . S
C195 C189 1.363 1_556 S
C195 C190 1.379 . S
C195 N193 1.356 . S
N196 C188 1.356 . S
N196 H202 0.984 . S
N196 H203 0.984 . S
N197 C190 1.356 . S
N197 H200 0.984 . S
N197 H201 0.985 . S
H198 N193 0.984 . S
H199 N193 0.985 . S
H200 N197 0.984 . S
H201 N197 0.985 . S
H202 N196 0.984 . S
H203 N196 0.984 . S
H204 N192 0.984 . S
H205 N192 0.985 . S
C206 C207 1.363 1_556 S
C206 C212 1.379 . S
C206 N214 1.356 . S
C207 C206 1.363 1_554 S
C207 C213 1.363 . S
C208 C209 1.363 . S
C208 C213 1.379 . S
C208 N215 1.356 . S
C209 C208 1.363 . S
C209 C212 1.363 1_554 S
N210 C212 1.356 . S
N210 H222 0.984 . S
N210 H223 0.985 . S
N211 C213 1.356 . S
N211 H216 0.984 . S
N211 H217 0.985 . S
C212 C206 1.379 . S
C212 C209 1.363 1_556 S
C212 N210 1.356 . S
C213 C207 1.363 . S
C213 C208 1.379 . S
C213 N211 1.356 . S
N214 C206 1.356 . S
N214 H220 0.984 . S
N214 H221 0.984 . S
N215 C208 1.356 . S
N215 H218 0.984 . S
N215 H219 0.985 . S
H216 N211 0.984 . S
H217 N211 0.985 . S
H218 N215 0.984 . S
H219 N215 0.985 . S
H220 N214 0.984 . S
H221 N214 0.984 . S
H222 N210 0.984 . S
H223 N210 0.985 . S
C224 C225 1.363 1_554 S
C224 C230 1.379 . S
C224 N232 1.356 . S
C225 C224 1.363 1_556 S
C225 C231 1.363 . S
C226 C227 1.363 . S
C226 C231 1.379 . S
C226 N233 1.356 . S
C227 C226 1.363 . S
C227 C230 1.363 1_556 S
N228 C230 1.356 . S
N228 H240 0.984 . S
N228 H241 0.985 . S
N229 C231 1.356 . S
N229 H234 0.984 . S
N229 H235 0.985 . S
C230 C224 1.379 . S
C230 C227 1.363 1_554 S
C230 N228 1.356 . S
C231 C225 1.363 . S
C231 C226 1.379 . S
C231 N229 1.356 . S
N232 C224 1.356 . S
N232 H238 0.984 . S
N232 H239 0.984 . S
N233 C226 1.356 . S
N233 H236 0.984 . S
N233 H237 0.985 . S
H234 N229 0.984 . S
H235 N229 0.985 . S
H236 N233 0.984 . S
H237 N233 0.985 . S
H238 N232 0.984 . S
H239 N232 0.984 . S
H240 N228 0.984 . S
H241 N228 0.985 . S
C242 C243 1.363 . S
C242 C248 1.379 . S
C242 N250 1.356 . S
C243 C242 1.363 . S
C243 C249 1.363 . S
C244 C245 1.363 . S
C244 C249 1.379 . S
C244 N251 1.356 . S
C245 C244 1.363 . S
C245 C248 1.363 . S
N246 C248 1.356 . S
N246 H258 0.984 . S
N246 H259 0.985 . S
N247 C249 1.356 . S
N247 H252 0.984 . S
N247 H253 0.985 . S
C248 C242 1.379 . S
C248 C245 1.363 . S
C248 N246 1.356 . S
C249 C243 1.363 . S
C249 C244 1.379 . S
C249 N247 1.356 . S
N250 C242 1.356 . S
N250 H256 0.984 . S
N250 H257 0.984 . S
N251 C244 1.356 . S
N251 H254 0.984 . S
N251 H255 0.985 . S
H252 N247 0.984 . S
H253 N247 0.985 . S
H254 N251 0.984 . S
H255 N251 0.985 . S
H256 N250 0.984 . S
H257 N250 0.984 . S
H258 N246 0.984 . S
H259 N246 0.985 . S
C260 C261 1.363 . S
C260 C266 1.379 . S
C260 N268 1.356 . S
C261 C260 1.363 . S
C261 C267 1.363 . S
C262 C263 1.363 . S
C262 C267 1.379 . S
C262 N269 1.356 . S
C263 C262 1.363 . S
C263 C266 1.363 . S
N264 C266 1.356 . S
N264 H276 0.984 . S
N264 H277 0.985 . S
N265 C267 1.356 . S
N265 H270 0.984 . S
N265 H271 0.985 . S
C266 C260 1.379 . S
C266 C263 1.363 . S
C266 N264 1.356 . S
C267 C261 1.363 . S
C267 C262 1.379 . S
C267 N265 1.356 . S
N268 C260 1.356 . S
N268 H274 0.984 . S
N268 H275 0.984 . S
N269 C262 1.356 . S
N269 H272 0.984 . S
N269 H273 0.985 . S
H270 N265 0.984 . S
H271 N265 0.985 . S
H272 N269 0.984 . S
H273 N269 0.985 . S
H274 N268 0.984 . S
H275 N268 0.984 . S
H276 N264 0.984 . S
H277 N264 0.985 . S
C278 C279 1.363 . S
C278 C284 1.379 . S
C278 N286 1.356 . S
C279 C278 1.363 . S
C279 C285 1.363 . S
C280 C281 1.363 . S
C280 C285 1.379 . S
C280 N287 1.356 . S
C281 C280 1.363 . S
C281 C284 1.363 . S
N282 C284 1.356 . S
N282 H294 0.984 . S
N282 H295 0.985 . S
N283 C285 1.356 . S
N283 H288 0.984 . S
N283 H289 0.985 . S
C284 C278 1.379 . S
C284 C281 1.363 . S
C284 N282 1.356 . S
C285 C279 1.363 . S
C285 C280 1.379 . S
C285 N283 1.356 . S
N286 C278 1.356 . S
N286 H292 0.984 . S
N286 H293 0.984 . S
N287 C280 1.356 . S
N287 H290 0.984 . S
N287 H291 0.985 . S
H288 N283 0.984 . S
H289 N283 0.985 . S
H290 N287 0.984 . S
H291 N287 0.985 . S
H292 N286 0.984 . S
H293 N286 0.984 . S
H294 N282 0.984 . S
H295 N282 0.985 . S
C296 C297 1.363 . S
C296 C302 1.379 . S
C296 N304 1.356 . S
C297 C296 1.363 . S
C297 C303 1.363 . S
C298 C299 1.363 . S
C298 C303 1.379 . S
C298 N305 1.356 . S
C299 C298 1.363 . S
C299 C302 1.363 . S
N300 C302 1.356 . S
N300 H312 0.984 . S
N300 H313 0.985 . S
N301 C303 1.356 . S
N301 H306 0.984 . S
N301 H307 0.985 . S
C302 C296 1.379 . S
C302 C299 1.363 . S
C302 N300 1.356 . S
C303 C297 1.363 . S
C303 C298 1.379 . S
C303 N301 1.356 . S
N304 C296 1.356 . S
N304 H310 0.984 . S
N304 H311 0.984 . S
N305 C298 1.356 . S
N305 H308 0.984 . S
N305 H309 0.985 . S
H306 N301 0.984 . S
H307 N301 0.985 . S
H308 N305 0.984 . S
H309 N305 0.985 . S
H310 N304 0.984 . S
H311 N304 0.984 . S
H312 N300 0.984 . S
H313 N300 0.985 . S
C314 C315 1.363 1_565 S
C314 C320 1.379 . S
C314 N322 1.356 1_455 S
C315 C314 1.363 1_545 S
C315 C321 1.363 . S
C316 C317 1.363 1_545 S
C316 C321 1.379 . S
C316 N323 1.356 . S
C317 C316 1.363 1_565 S
C317 C320 1.363 . S
N318 C320 1.356 1_655 S
N318 H330 0.984 . S
N318 H331 0.985 . S
N319 C321 1.356 . S
N319 H324 0.984 . S
N319 H325 0.985 . S
C320 C314 1.379 . S
C320 C317 1.363 . S
C320 N318 1.356 1_455 S
C321 C315 1.363 . S
C321 C316 1.379 . S
C321 N319 1.356 . S
N322 C314 1.356 1_655 S
N322 H328 0.984 . S
N322 H329 0.984 . S
N323 C316 1.356 . S
N323 H326 0.984 . S
N323 H327 0.985 . S
H324 N319 0.984 . S
H325 N319 0.985 . S
H326 N323 0.984 . S
H327 N323 0.985 . S
H328 N322 0.984 . S
H329 N322 0.984 . S
H330 N318 0.984 . S
H331 N318 0.985 . S
C332 C333 1.363 . S
C332 C338 1.379 . S
C332 N340 1.356 . S
C333 C332 1.363 . S
C333 C339 1.363 1_545 S
C334 C335 1.363 . S
C334 C339 1.379 1_545 S
C334 N341 1.356 1_545 S
C335 C334 1.363 . S
C335 C338 1.363 . S
N336 C338 1.356 . S
N336 H348 0.984 . S
N336 H349 0.985 . S
N337 C339 1.356 . S
N337 H342 0.984 . S
N337 H343 0.985 . S
C338 C332 1.379 . S
C338 C335 1.363 . S
C338 N336 1.356 . S
C339 C333 1.363 1_565 S
C339 C334 1.379 1_565 S
C339 N337 1.356 . S
N340 C332 1.356 . S
N340 H346 0.984 . S
N340 H347 0.984 . S
N341 C334 1.356 1_565 S
N341 H344 0.984 1_455 S
N341 H345 0.985 . S
H342 N337 0.984 . S
H343 N337 0.985 . S
H344 N341 0.984 1_655 S
H345 N341 0.985 . S
H346 N340 0.984 . S
H347 N340 0.984 . S
H348 N336 0.984 . S
H349 N336 0.985 . S
C350 C351 1.363 . S
C350 C356 1.379 . S
C350 N358 1.356 . S
C351 C350 1.363 . S
C351 C357 1.363 . S
C352 C353 1.363 . S
C352 C357 1.379 . S
C352 N359 1.356 . S
C353 C352 1.363 . S
C353 C356 1.363 . S
N354 C356 1.356 . S
N354 H366 0.984 . S
N354 H367 0.985 . S
N355 C357 1.356 . S
N355 H360 0.984 . S
N355 H361 0.985 . S
C356 C350 1.379 . S
C356 C353 1.363 . S
C356 N354 1.356 . S
C357 C351 1.363 . S
C357 C352 1.379 . S
C357 N355 1.356 . S
N358 C350 1.356 . S
N358 H364 0.984 . S
N358 H365 0.984 . S
N359 C352 1.356 . S
N359 H362 0.984 . S
N359 H363 0.985 . S
H360 N355 0.984 . S
H361 N355 0.985 . S
H362 N359 0.984 . S
H363 N359 0.985 . S
H364 N358 0.984 . S
H365 N358 0.984 . S
H366 N354 0.984 . S
H367 N354 0.985 . S
C368 C369 1.363 . S
C368 C374 1.379 . S
C368 N376 1.356 . S
C369 C368 1.363 . S
C369 C375 1.363 . S
C370 C371 1.363 . S
C370 C375 1.379 . S
C370 N377 1.356 . S
C371 C370 1.363 . S
C371 C374 1.363 . S
N372 C374 1.356 . S
N372 H384 0.984 . S
N372 H385 0.985 . S
N373 C375 1.356 . S
N373 H378 0.984 . S
N373 H379 0.985 . S
C374 C368 1.379 . S
C374 C371 1.363 . S
C374 N372 1.356 . S
C375 C369 1.363 . S
C375 C370 1.379 . S
C375 N373 1.356 . S
N376 C368 1.356 . S
N376 H382 0.984 . S
N376 H383 0.984 . S
N377 C370 1.356 . S
N377 H380 0.984 . S
N377 H381 0.985 . S
H378 N373 0.984 . S
H379 N373 0.985 . S
H380 N377 0.984 . S
H381 N377 0.985 . S
H382 N376 0.984 . S
H383 N376 0.984 . S
H384 N372 0.984 . S
H385 N372 0.985 . S
C173 C155 1.457 . S
C171 C15 1.404 . S
C189 C13 1.541 . S
C191 C123 1.503 . S
C207 C18 1.290 1_554 S
C209 C161 1.457 . S
C225 C17 1.393 . S
C227 C129 1.407 . S
C243 C36 1.404 . S
C245 C91 1.458 . S
C261 C34 1.541 . S
C263 C59 1.499 . S
C281 C97 1.456 . S
C279 C39 1.291 . S
C299 C65 1.407 . S
C297 C38 1.393 . S
C315 C14 1.507 . S
C317 C71 1.517 1_565 S
C333 C16 1.392 . S
C335 C103 1.387 . S
C353 C135 1.517 . S
C351 C35 1.507 . S
C369 C37 1.392 . S
C371 C167 1.386 . S
