# Generated by pormake.
# Topology dag, (6,3)-cn, num edge types: 1
# Building blocks:
#     Node 0, Type 0, BuildingBlock: OJICUG_clean_sbu_0, # of connection points: 6
#     Node 1, Type 0, BuildingBlock: OJICUG_clean_sbu_0, # of connection points: 6
#     Node 2, Type 0, BuildingBlock: OJICUG_clean_sbu_0, # of connection points: 6
#     Node 3, Type 0, BuildingBlock: OJICUG_clean_sbu_0, # of connection points: 6
#     Node 4, Type 1, BuildingBlock: QEWDON_clean_linker_0, # of connection points: 3
#     Node 5, Type 1, BuildingBlock: QEWDON_clean_linker_0, # of connection points: 3
#     Node 6, Type 1, BuildingBlock: QEWDON_clean_linker_0, # of connection points: 3
#     Node 7, Type 1, BuildingBlock: QEWDON_clean_linker_0, # of connection points: 3
#     Node 8, Type 1, BuildingBlock: QEWDON_clean_linker_0, # of connection points: 3
#     Node 9, Type 1, BuildingBlock: QEWDON_clean_linker_0, # of connection points: 3
#     Node 10, Type 1, BuildingBlock: QEWDON_clean_linker_0, # of connection points: 3
#     Node 11, Type 1, BuildingBlock: QEWDON_clean_linker_0, # of connection points: 3
#     Edge 12, Type (0, 1), BuildingBlock: MIFKUJ_clean_linker_0, # of connection points: 2
#     Edge 13, Type (0, 1), BuildingBlock: MIFKUJ_clean_linker_0, # of connection points: 2
#     Edge 14, Type (0, 1), BuildingBlock: MIFKUJ_clean_linker_0, # of connection points: 2
#     Edge 15, Type (0, 1), BuildingBlock: MIFKUJ_clean_linker_0, # of connection points: 2
#     Edge 16, Type (0, 1), BuildingBlock: MIFKUJ_clean_linker_0, # of connection points: 2
#     Edge 17, Type (0, 1), BuildingBlock: MIFKUJ_clean_linker_0, # of connection points: 2
#     Edge 18, Type (0, 1), BuildingBlock: MIFKUJ_clean_linker_0, # of connection points: 2
#     Edge 19, Type (0, 1), BuildingBlock: MIFKUJ_clean_linker_0, # of connection points: 2
#     Edge 20, Type (0, 1), BuildingBlock: MIFKUJ_clean_linker_0, # of connection points: 2
#     Edge 21, Type (0, 1), BuildingBlock: MIFKUJ_clean_linker_0, # of connection points: 2
#     Edge 22, Type (0, 1), BuildingBlock: MIFKUJ_clean_linker_0, # of connection points: 2
#     Edge 23, Type (0, 1), BuildingBlock: MIFKUJ_clean_linker_0, # of connection points: 2
#     Edge 24, Type (0, 1), BuildingBlock: MIFKUJ_clean_linker_0, # of connection points: 2
#     Edge 25, Type (0, 1), BuildingBlock: MIFKUJ_clean_linker_0, # of connection points: 2
#     Edge 26, Type (0, 1), BuildingBlock: MIFKUJ_clean_linker_0, # of connection points: 2
#     Edge 27, Type (0, 1), BuildingBlock: MIFKUJ_clean_linker_0, # of connection points: 2
#     Edge 28, Type (0, 1), BuildingBlock: MIFKUJ_clean_linker_0, # of connection points: 2
#     Edge 29, Type (0, 1), BuildingBlock: MIFKUJ_clean_linker_0, # of connection points: 2
#     Edge 30, Type (0, 1), BuildingBlock: MIFKUJ_clean_linker_0, # of connection points: 2
#     Edge 31, Type (0, 1), BuildingBlock: MIFKUJ_clean_linker_0, # of connection points: 2
#     Edge 32, Type (0, 1), BuildingBlock: MIFKUJ_clean_linker_0, # of connection points: 2
#     Edge 33, Type (0, 1), BuildingBlock: MIFKUJ_clean_linker_0, # of connection points: 2
#     Edge 34, Type (0, 1), BuildingBlock: MIFKUJ_clean_linker_0, # of connection points: 2
#     Edge 35, Type (0, 1), BuildingBlock: MIFKUJ_clean_linker_0, # of connection points: 2
# Relax obj value: 0.045
# Max RMSD: 0.066
# Mean RMSD: 0.060
data_MOF--net-dag--node1-OJICUG_clean_sbu_0--node2-QEWDON_clean_linker_0--edge1-MIFKUJ_clean_linker_0
_symmetry_space_group_name_H-M    P1
_symmetry_Int_Tables_number       1
_symmetry_cell_setting            triclinic
loop_
_symmetry_equiv_pos_as_xyz
'x, y, z'
_cell_length_a     51.075943
_cell_length_b     51.091665
_cell_length_c     53.61181
_cell_angle_alpha  89.899907
_cell_angle_beta   90.024561
_cell_angle_gamma 90.049761
loop_
_atom_site_label
_atom_site_type_symbol
_atom_site_fract_x
_atom_site_fract_y
_atom_site_fract_z
_atom_type_partial_charge
Sc0 Sc 0.10258 0.89233 0.00174 0.0
Sc1 Sc 0.11925 0.82561 0.99797 0.0
Sc2 Sc 0.16894 0.87365 0.99757 0.0
O3 O 0.13027 0.86389 -0.00094 0.0
C4 C 0.1428 0.91689 0.96239 0.0
C5 C 0.07511 0.852 0.96428 0.0
C6 C 0.16598 0.82634 0.95877 0.0
C7 C 0.08065 0.84881 0.03921 0.0
C8 C 0.14749 0.91547 0.03676 0.0
C9 C 0.1695 0.82406 0.03367 0.0
O10 O 0.12028 0.91532 0.97247 0.0
O11 O 0.08879 0.83246 0.97099 0.0
O12 O 0.17713 0.84626 0.96816 0.0
O13 O 0.0824 0.87238 0.03166 0.0
O14 O 0.16588 0.90231 0.02693 0.0
O15 O 0.14837 0.8145 0.02502 0.0
O16 O 0.12383 0.91364 0.0297 0.0
O17 O 0.09244 0.82998 0.0286 0.0
O18 O 0.17936 0.84538 0.02576 0.0
O19 O 0.07783 0.87459 0.97387 0.0
O20 O 0.16216 0.90293 0.96923 0.0
O21 O 0.14476 0.81689 0.96723 0.0
Sc22 Sc 0.67846 0.61474 0.50179 0.0
Sc23 Sc 0.62969 0.66353 0.49982 0.0
Sc24 Sc 0.6123 0.59698 0.49996 0.0
O25 O 0.64017 0.62517 0.50055 0.0
C26 C 0.65413 0.57419 0.46262 0.0
C27 C 0.67972 0.66263 0.46385 0.0
C28 C 0.58714 0.63996 0.46356 0.0
C29 C 0.67682 0.66396 0.53859 0.0
C30 C 0.65445 0.57191 0.53731 0.0
C31 C 0.58776 0.63778 0.53728 0.0
O32 O 0.67337 0.58415 0.47438 0.0
O33 O 0.65964 0.67376 0.47304 0.0
O34 O 0.58733 0.61786 0.47441 0.0
O35 O 0.68777 0.64387 0.52933 0.0
O36 O 0.63271 0.5717 0.52578 0.0
O37 O 0.59836 0.6574 0.52653 0.0
O38 O 0.67264 0.58797 0.53222 0.0
O39 O 0.65525 0.6731 0.53052 0.0
O40 O 0.59246 0.61419 0.53114 0.0
O41 O 0.68823 0.64069 0.47157 0.0
O42 O 0.63036 0.57839 0.46843 0.0
O43 O 0.60311 0.65819 0.46894 0.0
Sc44 Sc 0.88055 0.17656 0.99841 0.0
Sc45 Sc 0.82727 0.13251 0.00075 0.0
Sc46 Sc 0.89173 0.10854 -0.00077 0.0
O47 O 0.86651 0.13921 -0.00045 0.0
C48 C 0.91765 0.14768 0.95961 0.0
C49 C 0.83075 0.18009 0.96251 0.0
C50 C 0.84645 0.0877 0.96361 0.0
C51 C 0.83384 0.18174 0.03714 0.0
C52 C 0.92147 0.14858 0.0348 0.0
C53 C 0.8482 0.08875 0.03793 0.0
O54 O 0.90626 0.16809 0.96768 0.0
O55 O 0.81982 0.15946 0.97075 0.0
O56 O 0.8702 0.08855 0.97061 0.0
O57 O 0.85604 0.18891 0.02885 0.0
O58 O 0.91596 0.12541 0.02794 0.0
O59 O 0.83056 0.10459 0.03074 0.0
O60 O 0.91092 0.16874 0.02522 0.0
O61 O 0.82124 0.16241 0.02828 0.0
O62 O 0.87082 0.08779 0.02803 0.0
O63 O 0.85205 0.18899 0.97133 0.0
O64 O 0.91501 0.12533 0.96975 0.0
O65 O 0.82865 0.10178 0.97327 0.0
Sc66 Sc 0.38752 0.39338 0.5033 0.0
Sc67 Sc 0.32043 0.38015 0.4953 0.0
Sc68 Sc 0.36604 0.3282 0.4989 0.0
O69 O 0.35799 0.36725 0.49908 0.0
C70 C 0.41527 0.3506 0.46921 0.0
C71 C 0.3524 0.41985 0.46081 0.0
C72 C 0.32259 0.33203 0.4569 0.0
C73 C 0.34257 0.42067 0.53526 0.0
C74 C 0.40231 0.34899 0.54299 0.0
C75 C 0.31316 0.33097 0.53087 0.0
O76 O 0.41266 0.37368 0.4775 0.0
O77 O 0.33134 0.40807 0.46683 0.0
O78 O 0.34318 0.32173 0.46587 0.0
O79 O 0.36635 0.41642 0.52984 0.0
O80 O 0.38952 0.33091 0.53216 0.0
O81 O 0.30643 0.35371 0.52365 0.0
O82 O 0.4037 0.37224 0.53451 0.0
O83 O 0.32371 0.40954 0.52404 0.0
O84 O 0.33325 0.3192 0.52257 0.0
O85 O 0.37396 0.41671 0.47234 0.0
O86 O 0.40013 0.33196 0.47538 0.0
O87 O 0.31186 0.35225 0.4662 0.0
H88 H 0.17518 0.10685 0.2492 0.0
C89 C 0.15991 0.11794 0.23995 0.0
C90 C 0.15615 0.11554 0.21405 0.0
C91 C 0.14317 0.13378 0.25418 0.0
H92 H 0.13205 0.12768 0.18295 0.0
C93 C 0.1361 0.13012 0.20266 0.0
C94 C 0.11934 0.14592 0.21677 0.0
C95 C 0.12274 0.14751 0.2426 0.0
C96 C 0.14581 0.1347 0.28143 0.0
H97 H 0.10931 0.15909 0.2537 0.0
C98 C 0.16368 0.15196 0.2925 0.0
C99 C 0.16488 0.15426 0.31859 0.0
C100 C 0.12944 0.11927 0.29645 0.0
H101 H 0.11547 0.10595 0.28807 0.0
C102 C 0.13088 0.12115 0.32238 0.0
H103 H 0.17595 0.16422 0.2808 0.0
C104 C 0.14838 0.13866 0.33344 0.0
H105 H 0.14906 0.13999 0.3536 0.0
H106 H 0.11822 0.10922 0.33393 0.0
H107 H 0.39108 0.66295 0.75068 0.0
C108 C 0.37642 0.65433 0.73857 0.0
C109 C 0.38098 0.6528 0.71293 0.0
C110 C 0.35324 0.64393 0.74862 0.0
H111 H 0.36763 0.63809 0.67792 0.0
C112 C 0.36269 0.64076 0.69745 0.0
C113 C 0.34036 0.62877 0.70733 0.0
C114 C 0.33527 0.631 0.73301 0.0
C115 C 0.34896 0.64489 0.77572 0.0
H116 H 0.31826 0.62147 0.74102 0.0
C117 C 0.32885 0.6604 0.78556 0.0
C118 C 0.32615 0.66321 0.8115 0.0
C119 C 0.36594 0.63149 0.79187 0.0
H120 H 0.3816 0.6195 0.78449 0.0
C121 C 0.36285 0.63361 0.81764 0.0
H122 H 0.31616 0.67123 0.77303 0.0
C123 C 0.34319 0.64951 0.82746 0.0
H124 H 0.34134 0.6512 0.84752 0.0
H125 H 0.37594 0.62319 0.83004 0.0
H126 H 0.85808 0.79778 0.2141 0.0
C127 C 0.85157 0.81643 0.20672 0.0
C128 C 0.87 0.83463 0.19776 0.0
C129 C 0.82459 0.82153 0.20462 0.0
H130 H 0.87481 0.87212 0.17966 0.0
C131 C 0.86097 0.85825 0.18746 0.0
C132 C 0.83417 0.86351 0.18521 0.0
C133 C 0.81599 0.84519 0.19403 0.0
C134 C 0.80546 0.80072 0.21028 0.0
H135 H 0.79522 0.84873 0.19156 0.0
C136 C 0.80249 0.79106 0.23467 0.0
C137 C 0.78455 0.77078 0.23959 0.0
C138 C 0.79043 0.79004 0.19087 0.0
H139 H 0.79256 0.79721 0.17195 0.0
C140 C 0.77287 0.76973 0.19565 0.0
H141 H 0.81399 0.79935 0.24971 0.0
C142 C 0.76995 0.76008 0.21984 0.0
H143 H 0.75586 0.74461 0.22323 0.0
H144 H 0.76142 0.76152 0.18058 0.0
H145 H 0.69744 0.33647 0.70454 0.0
C146 C 0.6766 0.33385 0.70159 0.0
C147 C 0.66104 0.35546 0.69516 0.0
C148 C 0.6654 0.30869 0.7031 0.0
H149 H 0.62258 0.36828 0.68412 0.0
C150 C 0.63438 0.3518 0.69018 0.0
C151 C 0.62321 0.32682 0.69088 0.0
C152 C 0.63859 0.30539 0.69788 0.0
C153 C 0.68174 0.28553 0.70882 0.0
H154 H 0.62993 0.28601 0.69826 0.0
C155 C 0.69854 0.28553 0.72958 0.0
C156 C 0.71236 0.26273 0.7364 0.0
C157 C 0.67974 0.2629 0.6941 0.0
H158 H 0.66718 0.26254 0.67782 0.0
C159 C 0.69385 0.2405 0.7003 0.0
H160 H 0.70024 0.30313 0.74069 0.0
C161 C 0.7098 0.24024 0.72142 0.0
H162 H 0.71953 0.22212 0.72628 0.0
H163 H 0.69201 0.22307 0.68898 0.0
H164 H 0.67458 0.37924 0.25093 0.0
C165 C 0.66259 0.36943 0.26478 0.0
C166 C 0.66453 0.37676 0.28991 0.0
C167 C 0.64428 0.35039 0.25738 0.0
H168 H 0.6494 0.37074 0.32694 0.0
C169 C 0.64852 0.36447 0.30767 0.0
C170 C 0.62921 0.34663 0.30037 0.0
C171 C 0.62741 0.33937 0.27524 0.0
C172 C 0.64221 0.34239 0.23096 0.0
H173 H 0.61269 0.32527 0.2696 0.0
C174 C 0.66477 0.33537 0.21763 0.0
C175 C 0.66289 0.32529 0.19327 0.0
C176 C 0.61762 0.34044 0.21938 0.0
H177 H 0.59996 0.346 0.22921 0.0
C178 C 0.6156 0.33115 0.19502 0.0
H179 H 0.68371 0.33715 0.22657 0.0
C180 C 0.63798 0.32335 0.18211 0.0
H181 H 0.63558 0.31515 0.16365 0.0
H182 H 0.59657 0.32949 0.18628 0.0
H183 H 0.1944 0.1504 0.79737 0.0
C184 C 0.17356 0.15332 0.79469 0.0
C185 C 0.15608 0.13256 0.7987 0.0
C186 C 0.16399 0.17813 0.78812 0.0
H187 H 0.11576 0.12108 0.80092 0.0
C188 C 0.12913 0.13682 0.79615 0.0
C189 C 0.11923 0.16174 0.7904 0.0
C190 C 0.13691 0.18228 0.78601 0.0
C191 C 0.1819 0.20051 0.78563 0.0
H192 H 0.12964 0.20175 0.78186 0.0
C193 C 0.19439 0.20559 0.76285 0.0
C194 C 0.20942 0.22851 0.75959 0.0
C195 C 0.18503 0.21785 0.80561 0.0
H196 H 0.17532 0.2142 0.82325 0.0
C197 C 0.20033 0.24026 0.8028 0.0
H198 H 0.19194 0.19184 0.74766 0.0
C199 C 0.21226 0.24574 0.77994 0.0
H200 H 0.22307 0.26386 0.77812 0.0
H201 H 0.20251 0.25374 0.81821 0.0
H202 H 0.35037 0.70202 0.29957 0.0
C203 C 0.34908 0.68125 0.29563 0.0
C204 C 0.37044 0.66494 0.3007 0.0
C205 C 0.32546 0.67044 0.28706 0.0
H206 H 0.38428 0.62538 0.30267 0.0
C207 C 0.36819 0.63792 0.29705 0.0
C208 C 0.34424 0.62671 0.29011 0.0
C209 C 0.32302 0.64319 0.28449 0.0
C210 C 0.3021 0.68706 0.2847 0.0
H211 H 0.30415 0.63475 0.27986 0.0
C212 C 0.29389 0.69614 0.26126 0.0
C213 C 0.27094 0.71119 0.2591 0.0
C214 C 0.2875 0.69321 0.30604 0.0
H215 H 0.29363 0.68626 0.32423 0.0
C216 C 0.26473 0.70813 0.30398 0.0
H217 H 0.30512 0.69121 0.24477 0.0
C218 C 0.2564 0.71701 0.28066 0.0
H219 H 0.23875 0.7287 0.27948 0.0
H220 H 0.25349 0.71278 0.32049 0.0
H221 H 0.87394 0.83477 0.75634 0.0
C222 C 0.86175 0.84885 0.76599 0.0
C223 C 0.86502 0.85304 0.79176 0.0
C224 C 0.8435 0.86374 0.75238 0.0
H225 H 0.85201 0.87591 0.82321 0.0
C226 C 0.84896 0.87151 0.80367 0.0
C227 C 0.83065 0.88634 0.79029 0.0
C228 C 0.82816 0.88254 0.76458 0.0
C229 C 0.84114 0.8609 0.72512 0.0
H230 H 0.81446 0.8944 0.75401 0.0
C231 C 0.83164 0.83757 0.71473 0.0
C232 C 0.8263 0.83593 0.68897 0.0
C233 C 0.84646 0.88238 0.70961 0.0
H234 H 0.85373 0.90055 0.71738 0.0
C235 C 0.84208 0.88068 0.68401 0.0
H236 H 0.82771 0.82108 0.7269 0.0
C237 C 0.83181 0.85779 0.67375 0.0
H238 H 0.82746 0.85763 0.65399 0.0
H239 H 0.84604 0.89739 0.67216 0.0
H240 H 0.11565 0.95294 0.05649 0.0
H241 H 0.1261 0.98479 0.08862 0.0
H242 H 0.20383 0.95251 0.09538 0.0
H243 H 0.19372 0.92078 0.06257 0.0
H244 H 0.1375 0.98006 0.13515 0.0
H245 H 0.24606 0.00234 0.11277 0.0
H246 H 0.27607 0.00231 0.07669 0.0
H247 H 0.21114 0.01443 0.0271 0.0
H248 H 0.18082 0.01486 0.06289 0.0
H249 H 0.16971 0.06588 0.22861 0.0
H250 H 0.18027 0.0294 0.20123 0.0
H251 H 0.18207 0.08184 0.13812 0.0
H252 H 0.1734 0.11875 0.16562 0.0
H253 H 0.21282 0.04119 0.12909 0.0
H254 H 0.12451 0.0549 0.15693 0.0
H255 H 0.08995 0.06105 0.18852 0.0
H256 H 0.10655 0.98504 0.21899 0.0
H257 H 0.14151 0.97871 0.18775 0.0
C258 C 0.13498 0.95249 0.06478 0.0
C259 C 0.15386 0.93429 0.05688 0.0
C260 C 0.14092 0.97074 0.08323 0.0
C261 C 0.16579 0.97116 0.09435 0.0
C262 C 0.18463 0.9528 0.08681 0.0
C263 C 0.17877 0.93462 0.06812 0.0
C264 C 0.17161 0.99091 0.11385 0.0
C265 C 0.15417 0.99318 0.13393 0.0
C266 C 0.19311 0.00837 0.11212 0.0
C267 C 0.21117 0.00825 0.09048 0.0
C268 C 0.23822 0.00502 0.09416 0.0
C269 C 0.25527 0.00495 0.07377 0.0
C270 C 0.2455 0.00825 0.04961 0.0
C271 C 0.21867 0.01174 0.04581 0.0
C272 C 0.20154 0.01187 0.06614 0.0
C273 C 0.17361 0.06995 0.20914 0.0
C274 C 0.16997 0.0952 0.19922 0.0
C275 C 0.17942 0.04896 0.19344 0.0
C276 C 0.18107 0.05278 0.16754 0.0
C277 C 0.18058 0.07836 0.15801 0.0
C278 C 0.17529 0.09943 0.17375 0.0
C279 C 0.17862 0.03031 0.15019 0.0
C280 C 0.1966 0.02755 0.13058 0.0
C281 C 0.15697 0.01302 0.15168 0.0
C282 C 0.13576 0.0165 0.17024 0.0
C283 C 0.12084 0.0396 0.17048 0.0
C284 C 0.10121 0.04311 0.1883 0.0
C285 C 0.0961 0.02347 0.20581 0.0
C286 C 0.11058 0.00025 0.20545 0.0
C287 C 0.1303 0.9967 0.1877 0.0
H288 H 0.0809 0.0262 0.21961 0.0
H289 H 0.25874 0.00818 0.03385 0.0
H290 H 0.55928 0.68224 0.54589 0.0
H291 H 0.52497 0.68855 0.57712 0.0
H292 H 0.53856 0.61052 0.60523 0.0
H293 H 0.57214 0.60377 0.57357 0.0
H294 H 0.48858 0.61866 0.59928 0.0
H295 H 0.55979 0.66844 0.63569 0.0
H296 H 0.59357 0.70293 0.63488 0.0
H297 H 0.53428 0.7613 0.6235 0.0
H298 H 0.50018 0.72707 0.6238 0.0
H299 H 0.42325 0.62187 0.71511 0.0
H300 H 0.45931 0.62198 0.68499 0.0
H301 H 0.43097 0.69476 0.65427 0.0
H302 H 0.39443 0.69424 0.68403 0.0
H303 H 0.48578 0.69207 0.65942 0.0
H304 H 0.41039 0.645 0.6278 0.0
H305 H 0.37123 0.61106 0.61411 0.0
H306 H 0.45415 0.53817 0.61333 0.0
H307 H 0.48021 0.5812 0.62747 0.0
C308 C 0.55511 0.66653 0.55889 0.0
C309 C 0.56839 0.64249 0.55726 0.0
C310 C 0.53554 0.67019 0.57678 0.0
C311 C 0.52933 0.65009 0.59369 0.0
C312 C 0.54295 0.62628 0.59234 0.0
C313 C 0.56218 0.62246 0.57426 0.0
C314 C 0.50805 0.65325 0.61229 0.0
C315 C 0.4882 0.63427 0.61296 0.0
C316 C 0.50701 0.67456 0.62904 0.0
C317 C 0.52747 0.69517 0.62953 0.0
C318 C 0.55398 0.68862 0.6329 0.0
C319 C 0.57318 0.70813 0.63253 0.0
C320 C 0.56608 0.7343 0.62907 0.0
C321 C 0.53975 0.74102 0.62613 0.0
C322 C 0.52048 0.72158 0.62641 0.0
C323 C 0.42546 0.63841 0.70261 0.0
C324 C 0.40663 0.65836 0.70205 0.0
C325 C 0.44565 0.63819 0.68515 0.0
C326 C 0.44729 0.65806 0.66718 0.0
C327 C 0.42976 0.67917 0.66795 0.0
C328 C 0.40925 0.67913 0.68512 0.0
C329 C 0.46701 0.6565 0.64731 0.0
C330 C 0.48633 0.67603 0.64619 0.0
C331 C 0.46766 0.63538 0.63033 0.0
C332 C 0.44714 0.61461 0.62895 0.0
C333 C 0.41529 0.62458 0.62547 0.0
C334 C 0.39107 0.60327 0.61614 0.0
C335 C 0.41063 0.55651 0.60919 0.0
C336 C 0.44334 0.55621 0.61544 0.0
C337 C 0.45937 0.58361 0.62467 0.0
H338 H 0.40191 0.53802 0.60317 0.0
H339 H 0.58094 0.74939 0.62865 0.0
H340 H 0.87433 0.04365 0.04873 0.0
H341 H 0.86094 0.00887 0.07718 0.0
H342 H 0.79379 0.0541 0.09956 0.0
H343 H 0.80675 0.08914 0.07062 0.0
H344 H 0.83055 0.0242 0.13975 0.0
H345 H 0.77386 0.01437 0.06824 0.0
H346 H 0.76475 0.01364 0.02307 0.0
H347 H 0.81891 0.95017 0.01379 0.0
H348 H 0.82867 0.95082 0.05886 0.0
H349 H 0.79964 0.90186 0.19947 0.0
H350 H 0.79046 0.94312 0.17726 0.0
H351 H 0.84128 0.91872 0.11734 0.0
H352 H 0.84996 0.87776 0.13906 0.0
H353 H 0.79952 0.94267 0.09906 0.0
H354 H 0.86308 0.95768 0.16541 0.0
H355 H 0.87765 0.95856 0.20927 0.0
H356 H 0.81538 0.01166 0.22738 0.0
H357 H 0.80025 0.01081 0.18363 0.0
C358 C 0.8569 0.04648 0.05989 0.0
C359 C 0.84153 0.06915 0.05729 0.0
C360 C 0.84927 0.02654 0.07609 0.0
C361 C 0.82635 0.02898 0.09025 0.0
C362 C 0.81153 0.05198 0.08869 0.0
C363 C 0.81894 0.07187 0.07212 0.0
C364 C 0.8176 0.00655 0.10549 0.0
C365 C 0.82297 0.00655 0.13111 0.0
C366 C 0.80823 0.98354 0.09396 0.0
C367 C 0.80211 0.98277 0.06691 0.0
C368 C 0.78398 0.00039 0.05653 0.0
C369 C 0.77867 -3e-05 0.03095 0.0
C370 C 0.79128 0.9819 0.01556 0.0
C371 C 0.80916 0.96416 0.02574 0.0
C372 C 0.81456 0.96453 0.05131 0.0
C373 C 0.80838 0.90526 0.18135 0.0
C374 C 0.82578 0.88693 0.17108 0.0
C375 C 0.80325 0.92879 0.16876 0.0
C376 C 0.81543 0.9341 0.14577 0.0
C377 C 0.83166 0.91508 0.13503 0.0
C378 C 0.83678 0.89178 0.14753 0.0
C379 C 0.8132 0.95994 0.13333 0.0
C380 C 0.80598 0.96055 0.10807 0.0
C381 C 0.82125 0.98339 0.14515 0.0
C382 C 0.83032 0.98389 0.17138 0.0
C383 C 0.85238 0.96937 0.1788 0.0
C384 C 0.86076 0.96989 0.20362 0.0
C385 C 0.84739 0.98508 0.22113 0.0
C386 C 0.82566 -0.00016 0.21382 0.0
C387 C 0.81717 0.99934 0.18902 0.0
H388 H 0.85391 0.98548 0.24033 0.0
H389 H 0.78716 0.98161 0.99576 0.0
H390 H 0.43151 0.38203 0.57187 0.0
H391 H 0.46109 0.37025 0.60566 0.0
H392 H 0.43648 0.28968 0.60031 0.0
H393 H 0.40683 0.30119 0.56619 0.0
H394 H 0.46007 0.34603 0.65187 0.0
H395 H 0.49316 0.25373 0.60169 0.0
H396 H 0.49142 0.23347 0.55992 0.0
H397 H 0.49111 0.30962 0.52586 0.0
H398 H 0.49319 0.33026 0.5674 0.0
H399 H 0.58065 0.30378 0.71332 0.0
H400 H 0.53626 0.29921 0.69555 0.0
H401 H 0.56268 0.33631 0.62769 0.0
H402 H 0.60649 0.34087 0.64523 0.0
H403 H 0.53275 0.29142 0.61941 0.0
H404 H 0.53245 0.37156 0.66939 0.0
H405 H 0.53633 0.39581 0.70899 0.0
H406 H 0.47422 0.34978 0.74056 0.0
H407 H 0.47023 0.32501 0.70123 0.0
C408 C 0.43201 0.36185 0.57806 0.0
C409 C 0.41728 0.34245 0.56584 0.0
C410 C 0.44876 0.3552 0.5976 0.0
C411 C 0.45116 0.32907 0.60527 0.0
C412 C 0.43503 0.30994 0.59448 0.0
C413 C 0.41822 0.31657 0.57489 0.0
C414 C 0.47331 0.3217 0.62161 0.0
C415 C 0.47573 0.33361 0.64507 0.0
C416 C 0.49379 0.30564 0.61264 0.0
C417 C 0.49297 0.29347 0.5876 0.0
C418 C 0.49277 0.2661 0.58526 0.0
C419 C 0.49173 0.25457 0.56164 0.0
C420 C 0.49105 0.27025 0.54026 0.0
C421 C 0.49154 0.29749 0.54243 0.0
C422 C 0.49264 0.30911 0.566 0.0
C423 C 0.57681 0.31076 0.69459 0.0
C424 C 0.59669 0.32293 0.68066 0.0
C425 C 0.55161 0.30818 0.68451 0.0
C426 C 0.54632 0.3174 0.66033 0.0
C427 C 0.56642 0.32895 0.64632 0.0
C428 C 0.59133 0.33176 0.65641 0.0
C429 C 0.51981 0.31627 0.64938 0.0
C430 C 0.51661 0.30281 0.62682 0.0
C431 C 0.49889 0.33129 0.65899 0.0
C432 C 0.5013 0.34621 0.68254 0.0
C433 C 0.5198 0.36646 0.68486 0.0
C434 C 0.52198 0.38033 0.70723 0.0
C435 C 0.5056 0.37428 0.7273 0.0
C436 C 0.48694 0.3544 0.72502 0.0
C437 C 0.48472 0.34044 0.70271 0.0
H438 H 0.50731 0.38505 0.74459 0.0
H439 H 0.4902 0.26128 0.522 0.0
H440 H 0.69651 0.5427 0.45545 0.0
H441 H 0.70512 0.51399 0.42002 0.0
H442 H 0.6337 0.54027 0.38485 0.0
H443 H 0.62432 0.5678 0.42096 0.0
H444 H 0.63554 0.49198 0.37992 0.0
H445 H 0.69814 0.55846 0.36439 0.0
H446 H 0.73409 0.58923 0.37349 0.0
H447 H 0.78589 0.52479 0.38781 0.0
H448 H 0.75014 0.4936 0.37919 0.0
H449 H 0.65856 0.42537 0.27075 0.0
H450 H 0.66642 0.4659 0.29368 0.0
H451 H 0.70851 0.42282 0.35004 0.0
H452 H 0.70038 0.38209 0.32731 0.0
H453 H 0.7225 0.48318 0.3394 0.0
H454 H 0.65173 0.41922 0.3624 0.0
H455 H 0.6147 0.39123 0.34947 0.0
H456 H 0.57746 0.45724 0.31493 0.0
H457 H 0.61428 0.48563 0.32765 0.0
C458 C 0.68272 0.54237 0.4401 0.0
C459 C 0.6597 0.55734 0.44096 0.0
C460 C 0.68777 0.52615 0.41972 0.0
C461 C 0.67033 0.52525 0.39945 0.0
C462 C 0.64748 0.54055 0.40022 0.0
C463 C 0.6421 0.55625 0.42087 0.0
C464 C 0.67501 0.50714 0.37824 0.0
C465 C 0.65448 0.49058 0.37086 0.0
C466 C 0.69971 0.50501 0.36625 0.0
C467 C 0.72137 0.52368 0.37133 0.0
C468 C 0.71714 0.55084 0.36965 0.0
C469 C 0.7375 0.56836 0.3747 0.0
C470 C 0.76224 0.55897 0.38127 0.0
C471 C 0.7667 0.53203 0.38274 0.0
C472 C 0.7464 0.51442 0.37774 0.0
C473 C 0.67081 0.42475 0.28725 0.0
C474 C 0.67867 0.40067 0.29746 0.0
C475 C 0.67523 0.44791 0.30035 0.0
C476 C 0.68778 0.44718 0.32361 0.0
C477 C 0.6989 0.4237 0.33204 0.0
C478 C 0.69422 0.40047 0.31909 0.0
C479 C 0.68317 0.46841 0.34166 0.0
C480 C 0.70362 0.48523 0.34842 0.0
C481 C 0.65824 0.47139 0.35269 0.0
C482 C 0.63584 0.45445 0.34572 0.0
C483 C 0.63575 0.4277 0.35186 0.0
C484 C 0.61488 0.41175 0.34448 0.0
C485 C 0.59393 0.42236 0.33113 0.0
C486 C 0.59374 0.44901 0.32521 0.0
C487 C 0.61457 0.46505 0.33252 0.0
H488 H 0.57777 0.40996 0.32554 0.0
H489 H 0.77797 0.57257 0.38518 0.0
H490 H 0.9384 0.19199 0.93868 0.0
H491 H 0.9654 0.1952 0.90124 0.0
H492 H 0.95966 0.11161 0.89098 0.0
H493 H 0.93342 0.10815 0.92887 0.0
H494 H 0.00704 0.12494 0.88491 0.0
H495 H 0.92731 0.15647 0.85205 0.0
H496 H 0.88697 0.18272 0.84886 0.0
H497 H 0.9327 0.25302 0.84321 0.0
H498 H 0.97335 0.22725 0.84675 0.0
H499 H 0.07812 0.13096 0.77549 0.0
H500 H 0.03471 0.13074 0.79466 0.0
H501 H 0.0524 0.20333 0.83187 0.0
H502 H 0.09607 0.20326 0.81366 0.0
H503 H 0.99471 0.19201 0.81881 0.0
H504 H 0.07383 0.15631 0.86035 0.0
H505 H 0.11279 0.12781 0.85907 0.0
H506 H 0.06391 0.06119 0.84436 0.0
H507 H 0.0247 0.08947 0.84493 0.0
C508 C 0.94283 0.1743 0.92842 0.0
C509 C 0.93392 0.1498 0.93686 0.0
C510 C 0.95807 0.17618 0.90686 0.0
C511 C 0.96425 0.15369 0.89302 0.0
C512 C 0.95514 0.12925 0.9013 0.0
C513 C 0.94022 0.12729 0.92304 0.0
C514 C 0.98173 0.15548 0.87095 0.0
C515 C 0.0039 0.13925 0.87025 0.0
C516 C 0.97784 0.17419 0.85171 0.0
C517 C 0.95343 0.1899 0.84988 0.0
C518 C 0.92879 0.17755 0.85037 0.0
C519 C 0.90585 0.19235 0.84845 0.0
C520 C 0.90727 0.21952 0.84587 0.0
C521 C 0.93163 0.23196 0.84522 0.0
C522 C 0.95464 0.21726 0.84715 0.0
C523 C 0.07244 0.14735 0.78707 0.0
C524 C 0.0908 0.1667 0.79366 0.0
C525 C 0.04756 0.1473 0.79781 0.0
C526 C 0.04067 0.16679 0.81495 0.0
C527 C 0.05745 0.18815 0.81863 0.0
C528 C 0.08247 0.18806 0.80815 0.0
C529 C 0.01973 0.16179 0.8333 0.0
C530 C 0.99723 0.17743 0.83334 0.0
C531 C 0.02292 0.14218 0.8517 0.0
C532 C 0.04638 0.12504 0.8524 0.0
C533 C 0.07141 0.13562 0.85669 0.0
C534 C 0.09354 0.11951 0.85609 0.0
C535 C 0.09084 0.09272 0.85158 0.0
C536 C 0.06598 0.08196 0.84779 0.0
C537 C 0.0438 0.09802 0.84823 0.0
H538 H 0.10799 0.08029 0.85106 0.0
H539 H 0.88948 0.23093 0.84434 0.0
H540 H 0.31159 0.44968 0.44451 0.0
H541 H 0.31104 0.47995 0.40922 0.0
H542 H 0.39123 0.45992 0.39235 0.0
H543 H 0.39226 0.4308 0.4286 0.0
H544 H 0.38672 0.50822 0.3861 0.0
H545 H 0.33642 0.43672 0.35704 0.0
H546 H 0.30227 0.40259 0.35791 0.0
H547 H 0.2426 0.46168 0.3603 0.0
H548 H 0.2764 0.49618 0.35981 0.0
H549 H 0.37413 0.5849 0.27504 0.0
H550 H 0.37557 0.54196 0.29589 0.0
H551 H 0.30865 0.56344 0.34022 0.0
H552 H 0.30619 0.6054 0.31879 0.0
H553 H 0.31169 0.50984 0.32743 0.0
H554 H 0.36857 0.58556 0.34978 0.0
H555 H 0.40865 0.62009 0.34377 0.0
H556 H 0.47033 0.52876 0.34965 0.0
H557 H 0.42228 0.50771 0.35355 0.0
C558 C 0.32906 0.45173 0.43322 0.0
C559 C 0.35193 0.43786 0.43923 0.0
C560 C 0.32871 0.4689 0.41293 0.0
C561 C 0.35092 0.47186 0.39767 0.0
C562 C 0.37382 0.45802 0.40374 0.0
C563 C 0.37438 0.44134 0.42444 0.0
C564 C 0.35036 0.48984 0.37577 0.0
C565 C 0.37062 0.50823 0.3729 0.0
C566 C 0.32945 0.48972 0.35843 0.0
C567 C 0.30898 0.46905 0.35855 0.0
C568 C 0.31602 0.44244 0.3579 0.0
C569 C 0.29672 0.42302 0.35831 0.0
C570 C 0.27029 0.42996 0.3592 0.0
C571 C 0.26309 0.45633 0.35962 0.0
C572 C 0.28231 0.47583 0.35924 0.0
C573 C 0.35913 0.57994 0.28854 0.0
C574 C 0.34021 0.59857 0.29552 0.0
C575 C 0.3603 0.55571 0.30071 0.0
C576 C 0.34317 0.5503 0.32048 0.0
C577 C 0.32241 0.56752 0.32532 0.0
C578 C 0.32089 0.59145 0.31289 0.0
C579 C 0.34786 0.52839 0.33796 0.0
C580 C 0.32817 0.50937 0.3402 0.0
C581 C 0.37005 0.5273 0.35398 0.0
C582 C 0.39333 0.54481 0.35151 0.0
C583 C 0.38819 0.57779 0.34878 0.0
C584 C 0.4136 0.5994 0.34544 0.0
C585 C 0.45842 0.57459 0.3458 0.0
C586 C 0.45357 0.54167 0.34919 0.0
C587 C 0.42298 0.52879 0.35179 0.0
H588 H 0.47868 0.5814 0.34429 0.0
H589 H 0.25538 0.4149 0.35953 0.0
H590 H 0.0398 0.88788 0.94671 0.0
H591 H 0.00616 0.88145 0.91503 0.0
H592 H 0.03145 0.80162 0.90502 0.0
H593 H 0.06493 0.80768 0.93707 0.0
H594 H 0.00804 0.87048 0.8674 0.0
H595 H 0.97774 0.76388 0.89102 0.0
H596 H 0.97642 0.73438 0.92752 0.0
H597 H 0.97118 0.80065 0.97643 0.0
H598 H 0.97207 0.83045 0.94026 0.0
H599 H 0.91529 0.84354 0.77579 0.0
H600 H 0.95331 0.83428 0.8019 0.0
H601 H 0.90326 0.82916 0.86656 0.0
H602 H 0.86506 0.83598 0.8403 0.0
H603 H 0.94181 0.79979 0.87475 0.0
H604 H 0.9342 0.88926 0.84608 0.0
H605 H 0.93105 0.92437 0.81444 0.0
H606 H 0.00507 0.90108 0.78377 0.0
H607 H 0.00847 0.86572 0.81508 0.0
C608 C 0.03828 0.86892 0.93781 0.0
C609 C 0.05503 0.84826 0.94459 0.0
C610 C 0.01907 0.86532 0.9196 0.0
C611 C 0.01615 0.841 0.90777 0.0
C612 C 0.0331 0.82044 0.91415 0.0
C613 C 0.05228 0.82399 0.93245 0.0
C614 C 0.99516 0.83728 0.88894 0.0
C615 C 0.99369 0.85489 0.86891 0.0
C616 C 0.97617 0.8172 0.89109 0.0
C617 C 0.97534 0.79937 0.91294 0.0
C618 C 0.97625 0.77212 0.90957 0.0
C619 C 0.97556 0.75535 0.93021 0.0
C620 C 0.97382 0.76562 0.9543 0.0
C621 C 0.97264 0.79269 0.95779 0.0
C622 C 0.97326 0.80953 0.93723 0.0
C623 C 0.91221 0.83937 0.79537 0.0
C624 C 0.8871 0.8412 0.80602 0.0
C625 C 0.93408 0.83448 0.8104 0.0
C626 C 0.93133 0.83209 0.8364 0.0
C627 C 0.90606 0.83132 0.84664 0.0
C628 C 0.88418 0.83553 0.83158 0.0
C629 C 0.95447 0.8332 0.85328 0.0
C630 C 0.95644 0.81508 0.87295 0.0
C631 C 0.97334 0.8535 0.85143 0.0
C632 C 0.97139 0.87471 0.83265 0.0
C633 C 0.94967 0.89157 0.83245 0.0
C634 C 0.94786 0.9115 0.81462 0.0
C635 C 0.96779 0.91487 0.79705 0.0
C636 C 0.98962 0.89839 0.79734 0.0
C637 C 0.9915 0.87843 0.81512 0.0
H638 H 0.96635 0.9303 0.78326 0.0
H639 H 0.97332 0.75262 0.97025 0.0
H640 H 0.8792 0.06399 0.93052 0.0
H641 H 0.86793 0.03216 0.89848 0.0
H642 H 0.78653 0.03705 0.91952 0.0
H643 H 0.79759 0.06956 0.95131 0.0
H644 H 0.84892 0.98548 0.90397 0.0
H645 H 0.74841 0.02183 0.86826 0.0
H646 H 0.72427 0.06332 0.86319 0.0
H647 H 0.79688 0.10532 0.85745 0.0
H648 H 0.82143 0.06406 0.86213 0.0
H649 H 0.80311 0.88419 0.83371 0.0
H650 H 0.79407 0.92128 0.86116 0.0
H651 H 0.81998 0.97454 0.80374 0.0
H652 H 0.82889 0.93751 0.77617 0.0
H653 H 0.78236 0.99704 0.83732 0.0
H654 H 0.86452 0.95023 0.83701 0.0
H655 H 0.89083 0.9099 0.83855 0.0
H656 H 0.86172 0.89329 0.91201 0.0
H657 H 0.83443 0.93315 0.91052 0.0
C658 C 0.85886 0.05843 0.92828 0.0
C659 C 0.8393 0.06922 0.94354 0.0
C660 C 0.85245 0.04022 0.90995 0.0
C661 C 0.82639 0.03226 0.90655 0.0
C662 C 0.80672 0.04319 0.92156 0.0
C663 C 0.81309 0.06168 0.93978 0.0
C664 C 0.82026 0.01162 0.88806 0.0
C665 C 0.83427 0.98807 0.88951 0.0
C666 C 0.80127 0.01498 0.86904 0.0
C667 C 0.78673 0.03988 0.86583 0.0
C668 C 0.75921 0.03991 0.86583 0.0
C669 C 0.74546 0.06339 0.86303 0.0
C670 C 0.75904 0.08695 0.86009 0.0
C671 C 0.78639 0.08707 0.85983 0.0
C672 C 0.80023 0.06365 0.86259 0.0
C673 C 0.80581 0.90388 0.82662 0.0
C674 C 0.81714 0.90807 0.80308 0.0
C675 C 0.80055 0.92502 0.84224 0.0
C676 C 0.80688 0.95053 0.83459 0.0
C677 C 0.81498 0.95497 0.80994 0.0
C678 C 0.82011 0.93379 0.79422 0.0
C679 C 0.81095 0.97114 0.85349 0.0
C680 C 0.79668 0.99453 0.85207 0.0
C681 C 0.83023 0.96803 0.87223 0.0
C682 C 0.84722 0.9445 0.87353 0.0
C683 C 0.8636 0.9379 0.85343 0.0
C684 C 0.87873 0.91514 0.85431 0.0
C685 C 0.87804 0.89906 0.8754 0.0
C686 C 0.86222 0.90574 0.89567 0.0
C687 C 0.84686 0.92839 0.8948 0.0
H688 H 0.88978 0.88144 0.87603 0.0
H689 H 0.74836 0.10511 0.85796 0.0
H690 H 0.44359 0.38632 0.44289 0.0
H691 H 0.48131 0.37847 0.41626 0.0
H692 H 0.47555 0.29554 0.4307 0.0
H693 H 0.43715 0.30321 0.4571 0.0
H694 H 0.52753 0.35983 0.42703 0.0
H695 H 0.50017 0.26297 0.37905 0.0
H696 H 0.46083 0.23785 0.36708 0.0
H697 H 0.41663 0.30909 0.36158 0.0
H698 H 0.45578 0.33463 0.3732 0.0
H699 H 0.63547 0.3268 0.34749 0.0
H700 H 0.60112 0.31944 0.37871 0.0
H701 H 0.54268 0.34386 0.32541 0.0
H702 H 0.57671 0.3502 0.29402 0.0
H703 H 0.52605 0.30239 0.35256 0.0
H704 H 0.55293 0.39709 0.38085 0.0
H705 H 0.58762 0.42861 0.39231 0.0
H706 H 0.62801 0.36842 0.43295 0.0
H707 H 0.59292 0.33691 0.42257 0.0
C708 C 0.45023 0.36637 0.44037 0.0
C709 C 0.43737 0.34538 0.45213 0.0
C710 C 0.47188 0.36192 0.42519 0.0
C711 C 0.48128 0.33644 0.42151 0.0
C712 C 0.46845 0.31535 0.43309 0.0
C713 C 0.44653 0.31976 0.44815 0.0
C714 C 0.50466 0.33241 0.40561 0.0
C715 C 0.52725 0.34701 0.41091 0.0
C716 C 0.50439 0.31572 0.38458 0.0
C717 C 0.4808 0.30063 0.37732 0.0
C718 C 0.48206 0.27325 0.37524 0.0
C719 C 0.4598 0.25895 0.36851 0.0
C720 C 0.43622 0.27186 0.36368 0.0
C721 C 0.43488 0.29911 0.36544 0.0
C722 C 0.45708 0.3135 0.37212 0.0
C723 C 0.61522 0.33019 0.34243 0.0
C724 C 0.60866 0.33891 0.31836 0.0
C725 C 0.59567 0.32631 0.36033 0.0
C726 C 0.56941 0.33171 0.35457 0.0
C727 C 0.56282 0.33956 0.33027 0.0
C728 C 0.58224 0.34305 0.31231 0.0
C729 C 0.54864 0.33019 0.37379 0.0
C730 C 0.52653 0.31457 0.36911 0.0
C731 C 0.54907 0.34631 0.39517 0.0
C732 C 0.57075 0.36461 0.40047 0.0
C733 C 0.56931 0.39062 0.39212 0.0
C734 C 0.58886 0.40852 0.39864 0.0
C735 C 0.61015 0.40046 0.41312 0.0
C736 C 0.61164 0.37459 0.42154 0.0
C737 C 0.59184 0.35676 0.41551 0.0
H738 H 0.62541 0.41428 0.4179 0.0
H739 H 0.41901 0.26075 0.3585 0.0
H740 H 0.11366 0.96044 0.95253 0.0
H741 H 0.12091 0.99312 0.92008 0.0
H742 H 0.18766 0.94957 0.8935 0.0
H743 H 0.18112 0.91729 0.92668 0.0
H744 H 0.19962 0.99818 0.89349 0.0
H745 H 0.12675 0.95035 0.86224 0.0
H746 H 0.08311 0.92968 0.86254 0.0
H747 H 0.04721 0.00464 0.87416 0.0
H748 H 0.09065 0.02572 0.87436 0.0
H749 H 0.14769 0.08395 0.7798 0.0
H750 H 0.15227 0.04236 0.80214 0.0
H751 H 0.18577 0.08335 0.8649 0.0
H752 H 0.18213 0.12467 0.84212 0.0
H753 H 0.12654 0.03043 0.84089 0.0
H754 H 0.21984 0.04364 0.90243 0.0
H755 H 0.26446 0.06164 0.89847 0.0
H756 H 0.26177 0.05037 0.81917 0.0
H757 H 0.21728 0.03196 0.82267 0.0
C758 C 0.1298 0.95772 0.9397 0.0
C759 C 0.14676 0.93621 0.94213 0.0
C760 C 0.13387 0.97638 0.92105 0.0
C761 C 0.15456 0.97361 0.904 0.0
C762 C 0.17153 0.95213 0.90638 0.0
C763 C 0.16774 0.93367 0.92533 0.0
C764 C 0.15882 0.99356 0.88418 0.0
C765 C 0.18369 0.00511 0.88185 0.0
C766 C 0.13823 0.00222 0.86851 0.0
C767 C 0.11202 0.98959 0.86851 0.0
C768 C 0.10957 0.96241 0.86506 0.0
C769 C 0.08486 0.95062 0.86512 0.0
C770 C 0.06241 0.96583 0.86843 0.0
C771 C 0.06462 0.99287 0.87164 0.0
C772 C 0.08928 0.00475 0.87165 0.0
C773 C 0.15697 0.0838 0.79798 0.0
C774 C 0.16483 0.10733 0.80921 0.0
C775 C 0.15939 0.06013 0.81082 0.0
C776 C 0.16938 0.05964 0.83523 0.0
C777 C 0.17852 0.08305 0.84592 0.0
C778 C 0.17648 0.10667 0.8329 0.0
C779 C 0.16719 0.03549 0.85059 0.0
C780 C 0.14263 0.02324 0.8522 0.0
C781 C 0.18823 0.02577 0.86507 0.0
C782 C 0.21512 0.03658 0.86282 0.0
C783 C 0.22881 0.04487 0.88416 0.0
C784 C 0.25408 0.05517 0.88199 0.0
C785 C 0.26592 0.0572 0.85858 0.0
C786 C 0.25254 0.04887 0.83729 0.0
C787 C 0.22728 0.03853 0.83935 0.0
H788 H 0.28547 0.0652 0.85694 0.0
H789 H 0.04329 0.95666 0.86845 0.0
H790 H 0.58945 0.67163 0.4223 0.0
H791 H 0.55469 0.67949 0.39168 0.0
H792 H 0.5031 0.62845 0.43314 0.0
H793 H 0.53819 0.61935 0.46268 0.0
H794 H 0.4952 0.61947 0.38804 0.0
H795 H 0.50102 0.69936 0.43482 0.0
H796 H 0.52262 0.73823 0.45272 0.0
H797 H 0.54258 0.76509 0.3792 0.0
H798 H 0.52136 0.72619 0.36088 0.0
H799 H 0.37227 0.6702 0.35041 0.0
H800 H 0.41204 0.67037 0.37598 0.0
H801 H 0.459 0.67982 0.30977 0.0
H802 H 0.41916 0.6781 0.28393 0.0
H803 H 0.47061 0.70993 0.36373 0.0
H804 H 0.46219 0.63091 0.31463 0.0
H805 H 0.43952 0.59191 0.28905 0.0
H806 H 0.41976 0.55806 0.38751 0.0
H807 H 0.44509 0.60377 0.39937 0.0
C808 C 0.57069 0.66207 0.42474 0.0
C809 C 0.56649 0.6449 0.44484 0.0
C810 C 0.55076 0.66668 0.40735 0.0
C811 C 0.52599 0.65495 0.41026 0.0
C812 C 0.52196 0.6377 0.43033 0.0
C813 C 0.54204 0.63255 0.44727 0.0
C814 C 0.50415 0.66049 0.39261 0.0
C815 C 0.48975 0.6393 0.38298 0.0
C816 C 0.49713 0.68633 0.38555 0.0
C817 C 0.50987 0.70973 0.39651 0.0
C818 C 0.51018 0.71347 0.42249 0.0
C819 C 0.52233 0.73552 0.43271 0.0
C820 C 0.53403 0.75408 0.41711 0.0
C821 C 0.53355 0.75067 0.39126 0.0
C822 C 0.52145 0.72864 0.38095 0.0
C823 C 0.39105 0.67329 0.34145 0.0
C824 C 0.39288 0.67426 0.31535 0.0
C825 C 0.41367 0.67316 0.356 0.0
C826 C 0.43831 0.67439 0.3446 0.0
C827 C 0.44005 0.67841 0.31874 0.0
C828 C 0.41741 0.67771 0.30406 0.0
C829 C 0.46193 0.66901 0.35954 0.0
C830 C 0.47638 0.69018 0.36876 0.0
C831 C 0.46863 0.6432 0.36672 0.0
C832 C 0.45417 0.61992 0.35754 0.0
C833 C 0.45244 0.61621 0.32574 0.0
C834 C 0.4387 0.59141 0.3092 0.0
C835 C 0.42416 0.56539 0.32368 0.0
C836 C 0.42664 0.57047 0.3722 0.0
C837 C 0.44242 0.59902 0.37988 0.0
H838 H 0.4164 0.54995 0.31174 0.0
H839 H 0.54343 0.77114 0.42506 0.0
H840 H 0.37594 0.43797 0.57119 0.0
H841 H 0.3684 0.47218 0.60186 0.0
H842 H 0.28932 0.48172 0.57499 0.0
H843 H 0.29657 0.44684 0.54439 0.0
H844 H 0.35919 0.52083 0.59179 0.0
H845 H 0.25208 0.50792 0.62378 0.0
H846 H 0.21989 0.47247 0.63 0.0
H847 H 0.28226 0.41756 0.64199 0.0
H848 H 0.31479 0.45274 0.6362 0.0
H849 H 0.32393 0.63445 0.65904 0.0
H850 H 0.31917 0.59853 0.62922 0.0
H851 H 0.32312 0.54284 0.68967 0.0
H852 H 0.32863 0.57847 0.71939 0.0
H853 H 0.28889 0.52763 0.65496 0.0
H854 H 0.37873 0.56084 0.66213 0.0
H855 H 0.42743 0.58349 0.65845 0.0
H856 H 0.40077 0.5891 0.55643 0.0
H857 H 0.35711 0.56697 0.5746 0.0
C858 C 0.35683 0.44714 0.57189 0.0
C859 C 0.33693 0.43989 0.55515 0.0
C860 C 0.35255 0.46669 0.58947 0.0
C861 C 0.32835 0.47959 0.59067 0.0
C862 C 0.30808 0.47186 0.57456 0.0
C863 C 0.31228 0.45201 0.55703 0.0
C864 C 0.32536 0.50237 0.60753 0.0
C865 C 0.34374 0.52264 0.60554 0.0
C866 C 0.30523 0.5042 0.62549 0.0
C867 C 0.28585 0.48292 0.62925 0.0
C868 C 0.25891 0.4883 0.62781 0.0
C869 C 0.24061 0.46825 0.63126 0.0
C870 C 0.24902 0.44276 0.63629 0.0
C871 C 0.27576 0.43729 0.63798 0.0
C872 C 0.29414 0.45727 0.63458 0.0
C873 C 0.32291 0.61455 0.66601 0.0
C874 C 0.32698 0.60922 0.6915 0.0
C875 C 0.32057 0.5941 0.64894 0.0
C876 C 0.32168 0.56812 0.65724 0.0
C877 C 0.32259 0.56284 0.68292 0.0
C878 C 0.32529 0.58325 0.69996 0.0
C879 C 0.32303 0.54634 0.63929 0.0
C880 C 0.30418 0.5263 0.64098 0.0
C881 C 0.34316 0.54459 0.62123 0.0
C882 C 0.36521 0.56356 0.61863 0.0
C883 C 0.38499 0.56802 0.64411 0.0
C884 C 0.4158 0.58147 0.64142 0.0
C885 C 0.42558 0.59318 0.59478 0.0
C886 C 0.39955 0.58546 0.57627 0.0
C887 C 0.37195 0.5719 0.58822 0.0
H888 H 0.44269 0.60169 0.58555 0.0
H889 H 0.23482 0.42727 0.63894 0.0
H890 H 0.06597 0.80066 0.05687 0.0
H891 H 0.03697 0.79101 0.09193 0.0
H892 H 0.029 0.87354 0.1067 0.0
H893 H 0.05798 0.8835 0.07164 0.0
H894 H 0.03456 0.8414 0.1507 0.0
H895 H 0.98415 0.84536 0.0732 0.0
H896 H 0.97405 0.83163 0.03015 0.0
H897 H 0.96379 0.75234 0.05499 0.0
H898 H 0.97421 0.76555 0.09813 0.0
H899 H 0.91251 0.86653 0.20471 0.0
H900 H 0.95534 0.86064 0.18603 0.0
H901 H 0.93521 0.78106 0.16688 0.0
H902 H 0.89136 0.78772 0.18358 0.0
H903 H 0.94853 0.80334 0.12777 0.0
H904 H 0.99019 0.79959 0.20631 0.0
H905 H 0.00084 0.81153 0.24967 0.0
H906 H 0.02885 0.88651 0.22507 0.0
H907 H 0.01802 0.87521 0.1816 0.0
C908 C 0.05825 0.81681 0.06766 0.0
C909 C 0.06407 0.8429 0.06121 0.0
C910 C 0.04174 0.81121 0.08773 0.0
C911 C 0.03081 0.83156 0.10179 0.0
C912 C 0.03735 0.85756 0.09609 0.0
C913 C 0.05372 0.86321 0.0759 0.0
C914 C 0.0108 0.82598 0.12104 0.0
C915 C 0.01566 0.83314 0.14586 0.0
C916 C 0.98665 0.81422 0.11474 0.0
C917 C 0.98026 0.80638 0.08882 0.0
C918 C 0.97996 0.82496 0.06944 0.0
C919 C 0.97414 0.81728 0.04503 0.0
C920 C 0.96837 0.79111 0.03983 0.0
C921 C 0.96833 0.77259 0.05904 0.0
C922 C 0.97418 0.78016 0.08346 0.0
C923 C 0.91737 0.84757 0.19699 0.0
C924 C 0.8982 0.82789 0.19498 0.0
C925 C 0.94215 0.84405 0.18658 0.0
C926 C 0.94865 0.82041 0.17477 0.0
C927 C 0.93062 0.79961 0.17561 0.0
C928 C 0.90556 0.80334 0.18547 0.0
C929 C 0.97176 0.81923 0.15785 0.0
C930 C 0.96754 0.81094 0.13318 0.0
C931 C 0.99657 0.8296 0.16449 0.0
C932 C 0.00315 0.83656 0.19065 0.0
C933 C 0.99844 0.8187 0.21014 0.0
C934 C 0.00455 0.82535 0.23476 0.0
C935 C 0.01549 0.84977 0.24013 0.0
C936 C 0.02039 0.86759 0.22089 0.0
C937 C 0.01431 0.86105 0.19624 0.0
H938 H 0.0202 0.85488 0.25919 0.0
H939 H 0.96383 0.78519 0.02095 0.0
H940 H 0.68672 0.57592 0.57791 0.0
H941 H 0.69308 0.54365 0.61119 0.0
H942 H 0.63912 0.49133 0.57431 0.0
H943 H 0.63175 0.52396 0.54186 0.0
H944 H 0.6293 0.48983 0.62026 0.0
H945 H 0.70942 0.4851 0.57263 0.0
H946 H 0.74975 0.50266 0.55357 0.0
H947 H 0.77773 0.52594 0.62575 0.0
H948 H 0.73741 0.50877 0.6452 0.0
H949 H 0.69694 0.36635 0.65953 0.0
H950 H 0.70272 0.40886 0.63928 0.0
H951 H 0.65584 0.4452 0.6965 0.0
H952 H 0.64922 0.40242 0.7162 0.0
H953 H 0.71753 0.45838 0.64484 0.0
H954 H 0.61087 0.48292 0.66973 0.0
H955 H 0.5702 0.46071 0.68298 0.0
H956 H 0.595 0.39027 0.64646 0.0
H957 H 0.63579 0.41203 0.63302 0.0
C958 C 0.67625 0.5575 0.57696 0.0
C959 C 0.65875 0.55243 0.55729 0.0
C960 C 0.67998 0.53902 0.59593 0.0
C961 C 0.66683 0.51486 0.59518 0.0
C962 C 0.64941 0.50985 0.57546 0.0
C963 C 0.64524 0.52849 0.55685 0.0
C964 C 0.67085 0.49465 0.61482 0.0
C965 C 0.64865 0.48317 0.62571 0.0
C966 C 0.69604 0.48572 0.62197 0.0
C967 C 0.7203 0.49593 0.61032 0.0
C968 C 0.72411 0.49412 0.5844 0.0
C969 C 0.74697 0.50397 0.57354 0.0
C970 C 0.76625 0.51548 0.58843 0.0
C971 C 0.76275 0.51707 0.61423 0.0
C972 C 0.73992 0.50727 0.62519 0.0
C973 C 0.68889 0.38361 0.66837 0.0
C974 C 0.67252 0.38123 0.68925 0.0
C975 C 0.69212 0.4079 0.65675 0.0
C976 C 0.67911 0.43007 0.66601 0.0
C977 C 0.6656 0.42823 0.68876 0.0
C978 C 0.66201 0.40388 0.70013 0.0
C979 C 0.67599 0.45343 0.64979 0.0
C980 C 0.69827 0.4655 0.63966 0.0
C981 C 0.65084 0.46232 0.64255 0.0
C982 C 0.62646 0.44902 0.65064 0.0
C983 C 0.60762 0.46268 0.66457 0.0
C984 C 0.58459 0.45016 0.67214 0.0
C985 C 0.5801 0.42405 0.66568 0.0
C986 C 0.5986 0.41042 0.65159 0.0
C987 C 0.62169 0.42282 0.64404 0.0
H988 H 0.56223 0.41442 0.67148 0.0
H989 H 0.78393 0.5231 0.57998 0.0
H990 H 0.93674 0.11329 0.07034 0.0
H991 H 0.96872 0.12 0.10383 0.0
H992 H 0.98268 0.19861 0.07776 0.0
H993 H 0.95028 0.19243 0.0446 0.0
H994 H 0.02781 0.14646 0.09069 0.0
H995 H 0.96427 0.21572 0.11823 0.0
H996 H 0.9187 0.22862 0.12726 0.0
H997 H 0.91084 0.16356 0.17754 0.0
H998 H 0.95628 0.15009 0.16845 0.0
H999 H 0.11946 0.18126 0.17892 0.0
H1000 H 0.08288 0.19054 0.15072 0.0
H1001 H 0.03174 0.1441 0.19716 0.0
H1002 H 0.06814 0.13562 0.22583 0.0
H1003 H 0.0044 0.18252 0.17372 0.0
H1004 H 0.06596 0.11552 0.15236 0.0
H1005 H 0.11028 0.09816 0.14508 0.0
H1006 H 0.12056 0.15135 0.08379 0.0
H1007 H 0.0765 0.16961 0.09116 0.0
C1008 C 0.94656 0.13203 0.07176 0.0
C1009 C 0.94094 0.15236 0.05488 0.0
C1010 C 0.96471 0.13583 0.09091 0.0
C1011 C 0.97768 0.15987 0.09331 0.0
C1012 C 0.97248 0.18007 0.07634 0.0
C1013 C 0.95402 0.17647 0.05743 0.0
C1014 C 0.99735 0.16346 0.11311 0.0
C1015 C 0.02292 0.15482 0.10868 0.0
C1016 C 0.99054 0.17348 0.13674 0.0
C1017 C 0.96346 0.18175 0.14244 0.0
C1018 C 0.95271 0.20405 0.13101 0.0
C1019 C 0.92694 0.21149 0.13618 0.0
C1020 C 0.91185 0.19687 0.1529 0.0
C1021 C 0.92253 0.17483 0.16455 0.0
C1022 C 0.94828 0.16729 0.1594 0.0
C1023 C 0.10012 0.17401 0.18357 0.0
C1024 C 0.09647 0.15766 0.20433 0.0
C1025 C 0.07931 0.17919 0.16746 0.0
C1026 C 0.05481 0.16744 0.17155 0.0
C1027 C 0.05051 0.15328 0.19364 0.0
C1028 C 0.07127 0.14845 0.21 0.0
C1029 C 0.03529 0.16629 0.15114 0.0
C1030 C 0.0096 0.17481 0.15555 0.0
C1031 C 0.0419 0.15568 0.12753 0.0
C1032 C 0.06803 0.14412 0.12247 0.0
C1033 C 0.07771 0.12361 0.1374 0.0
C1034 C 0.10279 0.1136 0.13326 0.0
C1035 C 0.11824 0.12362 0.11399 0.0
C1036 C 0.10859 0.14363 0.09874 0.0
C1037 C 0.08357 0.15385 0.10291 0.0
H1038 H 0.13767 0.11586 0.11085 0.0
H1039 H 0.8919 0.20266 0.15688 0.0
H1040 H 0.14928 0.78486 0.06256 0.0
H1041 H 0.16887 0.76478 0.09942 0.0
H1042 H 0.23811 0.81205 0.08979 0.0
H1043 H 0.21863 0.83251 0.05282 0.0
H1044 H 0.24749 0.75736 0.10224 0.0
H1045 H 0.19784 0.83199 0.13041 0.0
H1046 H 0.15823 0.85942 0.13285 0.0
H1047 H 0.1154 0.79525 0.16478 0.0
H1048 H 0.15468 0.76729 0.16219 0.0
H1049 H 0.29975 0.73706 0.224 0.0
H1050 H 0.2844 0.75523 0.18432 0.0
H1051 H 0.20698 0.72486 0.19897 0.0
H1052 H 0.22213 0.70748 0.23898 0.0
H1053 H 0.20285 0.77217 0.1832 0.0
H1054 H 0.2504 0.69697 0.15508 0.0
H1055 H 0.28837 0.66749 0.15113 0.0
H1056 H 0.33333 0.72955 0.11808 0.0
H1057 H 0.29572 0.75952 0.12214 0.0
C1058 C 0.1688 0.79085 0.06805 0.0
C1059 C 0.18233 0.81042 0.05478 0.0
C1060 C 0.17991 0.77937 0.08916 0.0
C1061 C 0.2048 0.78711 0.09736 0.0
C1062 C 0.21885 0.80587 0.0837 0.0
C1063 C 0.20763 0.81759 0.06267 0.0
C1064 C 0.2155 0.77646 0.12089 0.0
C1065 C 0.23802 0.76083 0.12005 0.0
C1066 C 0.20266 0.78055 0.1439 0.0
C1067 C 0.17914 0.79748 0.1459 0.0
C1068 C 0.17993 0.82367 0.1378 0.0
C1069 C 0.15754 0.83932 0.13923 0.0
C1070 C 0.13429 0.82907 0.1489 0.0
C1071 C 0.13341 0.80316 0.15726 0.0
C1072 C 0.15574 0.78741 0.15585 0.0
C1073 C 0.27953 0.7341 0.21857 0.0
C1074 C 0.26209 0.72092 0.23449 0.0
C1075 C 0.27078 0.7444 0.19589 0.0
C1076 C 0.24457 0.74119 0.18848 0.0
C1077 C 0.22726 0.72769 0.20428 0.0
C1078 C 0.2359 0.71775 0.22711 0.0
C1079 C 0.23486 0.75266 0.16473 0.0
C1080 C 0.21248 0.76859 0.16549 0.0
C1081 C 0.24768 0.74854 0.14162 0.0
C1082 C 0.27033 0.73056 0.13916 0.0
C1083 C 0.26845 0.70439 0.14715 0.0
C1084 C 0.28989 0.68759 0.14486 0.0
C1085 C 0.31327 0.69666 0.13443 0.0
C1086 C 0.31523 0.72256 0.1262 0.0
C1087 C 0.29385 0.73946 0.12847 0.0
H1088 H 0.32985 0.68362 0.13266 0.0
H1089 H 0.11697 0.84121 0.14997 0.0
H1090 H 0.71261 0.64354 0.57099 0.0
H1091 H 0.73685 0.6665 0.60356 0.0
H1092 H 0.69659 0.73815 0.58473 0.0
H1093 H 0.67153 0.71501 0.55287 0.0
H1094 H 0.77069 0.7016 0.60056 0.0
H1095 H 0.69335 0.77991 0.63215 0.0
H1096 H 0.64622 0.7823 0.64187 0.0
H1097 H 0.644 0.69913 0.65323 0.0
H1098 H 0.69118 0.69625 0.64394 0.0
H1099 H 0.83325 0.8146 0.64239 0.0
H1100 H 0.80786 0.78002 0.62294 0.0
H1101 H 0.76612 0.7674 0.69192 0.0
H1102 H 0.78956 0.80379 0.71079 0.0
H1103 H 0.73298 0.76702 0.65848 0.0
H1104 H 0.8127 0.72188 0.66669 0.0
H1105 H 0.86021 0.7137 0.66452 0.0
H1106 H 0.85768 0.72002 0.58468 0.0
H1107 H 0.81021 0.72861 0.58638 0.0
C1108 C 0.70873 0.66414 0.57399 0.0
C1109 C 0.69023 0.67752 0.55931 0.0
C1110 C 0.7226 0.67724 0.59262 0.0
C1111 C 0.71849 0.70405 0.59679 0.0
C1112 C 0.69974 0.71734 0.58234 0.0
C1113 C 0.68552 0.70414 0.56399 0.0
C1114 C 0.7351 0.71857 0.61485 0.0
C1115 C 0.76241 0.71575 0.61338 0.0
C1116 C 0.72439 0.73636 0.63228 0.0
C1117 C 0.69581 0.73787 0.63718 0.0
C1118 C 0.68283 0.76213 0.63675 0.0
C1119 C 0.6561 0.76357 0.64218 0.0
C1120 C 0.64215 0.74088 0.64817 0.0
C1121 C 0.65483 0.71667 0.64854 0.0
C1122 C 0.68156 0.71512 0.64314 0.0
C1123 C 0.81856 0.80466 0.65346 0.0
C1124 C 0.8134 0.81234 0.67817 0.0
C1125 C 0.80435 0.78444 0.6424 0.0
C1126 C 0.78522 0.77074 0.656 0.0
C1127 C 0.78075 0.77762 0.68098 0.0
C1128 C 0.79451 0.79829 0.69189 0.0
C1129 C 0.7686 0.75074 0.64352 0.0
C1130 C 0.74127 0.75258 0.64597 0.0
C1131 C 0.77929 0.73117 0.62788 0.0
C1132 C 0.80789 0.72605 0.62669 0.0
C1133 C 0.8223 0.72171 0.64868 0.0
C1134 C 0.84922 0.71697 0.64753 0.0
C1135 C 0.86196 0.71638 0.62448 0.0
C1136 C 0.84779 0.72048 0.60252 0.0
C1137 C 0.82086 0.72525 0.60357 0.0
H1138 H 0.8828 0.7127 0.62363 0.0
H1139 H 0.62156 0.74209 0.65268 0.0
H1140 H 0.78503 0.17509 0.05677 0.0
H1141 H 0.76319 0.20206 0.08764 0.0
H1142 H 0.83257 0.2497 0.09496 0.0
H1143 H 0.8546 0.22302 0.06342 0.0
H1144 H 0.77118 0.21314 0.13469 0.0
H1145 H 0.81242 0.31317 0.10523 0.0
H1146 H 0.83209 0.33455 0.06839 0.0
H1147 H 0.79008 0.28231 0.02008 0.0
H1148 H 0.76995 0.26087 0.05661 0.0
H1149 H 0.70599 0.30086 0.21351 0.0
H1150 H 0.74276 0.28143 0.19156 0.0
H1151 H 0.70927 0.30531 0.12121 0.0
H1152 H 0.67373 0.32707 0.1431 0.0
H1153 H 0.75909 0.30778 0.11731 0.0
H1154 H 0.69864 0.24239 0.14925 0.0
H1155 H 0.674 0.21917 0.18213 0.0
H1156 H 0.74601 0.199 0.21878 0.0
H1157 H 0.77104 0.22236 0.18624 0.0
C1158 C 0.79582 0.19118 0.06498 0.0
C1159 C 0.82151 0.19704 0.05738 0.0
C1160 C 0.7833 0.20652 0.08276 0.0
C1161 C 0.79616 0.22802 0.09343 0.0
C1162 C 0.82217 0.23339 0.08668 0.0
C1163 C 0.83472 0.2181 0.06869 0.0
C1164 C 0.78155 0.2453 0.11061 0.0
C1165 C 0.76878 0.23391 0.13108 0.0
C1166 C 0.77823 0.27232 0.10574 0.0
C1167 C 0.78998 0.28523 0.08365 0.0
C1168 C 0.80737 0.3063 0.08673 0.0
C1169 C 0.81859 0.31843 0.06591 0.0
C1170 C 0.81243 0.30973 0.04192 0.0
C1171 C 0.79493 0.28896 0.03868 0.0
C1172 C 0.78363 0.27681 0.05943 0.0
C1173 C 0.70676 0.3028 0.19343 0.0
C1174 C 0.68654 0.31534 0.18011 0.0
C1175 C 0.72771 0.2913 0.18086 0.0
C1176 C 0.72845 0.29127 0.1547 0.0
C1177 C 0.70906 0.30488 0.14141 0.0
C1178 C 0.68846 0.31697 0.15398 0.0
C1179 C 0.74805 0.27545 0.14099 0.0
C1180 C 0.76192 0.28715 0.12128 0.0
C1181 C 0.75169 0.24846 0.14601 0.0
C1182 C 0.73667 0.23436 0.16551 0.0
C1183 C 0.70919 0.23313 0.16441 0.0
C1184 C 0.69516 0.21994 0.18297 0.0
C1185 C 0.70843 0.20769 0.20258 0.0
C1186 C 0.73576 0.20854 0.20362 0.0
C1187 C 0.74987 0.22174 0.18513 0.0
H1188 H 0.69754 0.19749 0.21692 0.0
H1189 H 0.82115 0.31912 0.02583 0.0
H1190 H 0.28058 0.3542 0.56467 0.0
H1191 H 0.26163 0.33427 0.60199 0.0
H1192 H 0.29298 0.25925 0.5804 0.0
H1193 H 0.31259 0.27915 0.54342 0.0
H1194 H 0.22787 0.29733 0.61278 0.0
H1195 H 0.31514 0.22732 0.63161 0.0
H1196 H 0.36239 0.22481 0.62225 0.0
H1197 H 0.3662 0.30857 0.61664 0.0
H1198 H 0.31911 0.3116 0.62639 0.0
H1199 H 0.1894 0.21809 0.71296 0.0
H1200 H 0.2069 0.23145 0.67275 0.0
H1201 H 0.27161 0.26964 0.70953 0.0
H1202 H 0.25567 0.25418 0.74972 0.0
H1203 H 0.28882 0.25032 0.66935 0.0
H1204 H 0.2141 0.30316 0.68904 0.0
H1205 H 0.16818 0.31179 0.70061 0.0
H1206 H 0.14189 0.27336 0.63397 0.0
H1207 H 0.18767 0.26421 0.62216 0.0
C1208 C 0.28311 0.33338 0.56767 0.0
C1209 C 0.29838 0.31832 0.55129 0.0
C1210 C 0.27226 0.32202 0.589 0.0
C1211 C 0.27635 0.2954 0.59422 0.0
C1212 C 0.2901 0.27996 0.57703 0.0
C1213 C 0.30123 0.29136 0.55587 0.0
C1214 C 0.26748 0.28416 0.61828 0.0
C1215 C 0.24114 0.28695 0.62511 0.0
C1216 C 0.285 0.27122 0.63465 0.0
C1217 C 0.31352 0.26964 0.62946 0.0
C1218 C 0.32609 0.2452 0.62851 0.0
C1219 C 0.35285 0.24369 0.62313 0.0
C1220 C 0.36726 0.26651 0.61877 0.0
C1221 C 0.355 0.29091 0.61994 0.0
C1222 C 0.32827 0.29252 0.62539 0.0
C1223 C 0.20775 0.22869 0.7126 0.0
C1224 C 0.22092 0.23524 0.73482 0.0
C1225 C 0.21752 0.23672 0.6895 0.0
C1226 C 0.24019 0.25221 0.68809 0.0
C1227 C 0.25394 0.25792 0.71009 0.0
C1228 C 0.24454 0.24936 0.73316 0.0
C1229 C 0.24906 0.26331 0.66388 0.0
C1230 C 0.27544 0.26051 0.65698 0.0
C1231 C 0.23181 0.27716 0.64788 0.0
C1232 C 0.20428 0.28279 0.65484 0.0
C1233 C 0.19851 0.29642 0.67693 0.0
C1234 C 0.17252 0.30142 0.68353 0.0
C1235 C 0.15213 0.29307 0.66807 0.0
C1236 C 0.1577 0.27978 0.64594 0.0
C1237 C 0.18366 0.2747 0.63928 0.0
H1238 H 0.13202 0.29695 0.67321 0.0
H1239 H 0.38794 0.2653 0.61452 0.0
H1240 H 0.71162 0.63989 0.4293 0.0
H1241 H 0.73329 0.66078 0.39398 0.0
H1242 H 0.70156 0.73551 0.4161 0.0
H1243 H 0.67889 0.71445 0.45095 0.0
H1244 H 0.69625 0.73068 0.36892 0.0
H1245 H 0.76849 0.71854 0.42406 0.0
H1246 H 0.79782 0.69439 0.45247 0.0
H1247 H 0.81956 0.64277 0.39286 0.0
H1248 H 0.7901 0.66641 0.36415 0.0
H1249 H 0.77396 0.79999 0.28085 0.0
H1250 H 0.76064 0.78395 0.32212 0.0
H1251 H 0.77131 0.70439 0.29742 0.0
H1252 H 0.7844 0.7203 0.25609 0.0
H1253 H 0.78956 0.7152 0.34782 0.0
H1254 H 0.71363 0.72648 0.29433 0.0
H1255 H 0.68474 0.75191 0.26654 0.0
H1256 H 0.67104 0.8075 0.32508 0.0
H1257 H 0.70021 0.78258 0.35311 0.0
C1258 C 0.7094 0.66081 0.42676 0.0
C1259 C 0.69359 0.67554 0.44296 0.0
C1260 C 0.72195 0.67278 0.40662 0.0
C1261 C 0.7195 0.69985 0.40259 0.0
C1262 C 0.70381 0.71461 0.41884 0.0
C1263 C 0.69088 0.70257 0.43875 0.0
C1264 C 0.73228 0.71247 0.38075 0.0
C1265 C 0.7168 0.72769 0.36467 0.0
C1266 C 0.75901 0.7083 0.37486 0.0
C1267 C 0.77694 0.69415 0.392 0.0
C1268 C 0.77941 0.70194 0.41704 0.0
C1269 C 0.79608 0.68836 0.43319 0.0
C1270 C 0.81051 0.66703 0.42448 0.0
C1271 C 0.80836 0.65929 0.39958 0.0
C1272 C 0.79171 0.6728 0.38335 0.0
C1273 C 0.77396 0.77911 0.28443 0.0
C1274 C 0.78003 0.76134 0.26533 0.0
C1275 C 0.76629 0.77 0.30792 0.0
C1276 C 0.76487 0.74301 0.31268 0.0
C1277 C 0.77233 0.72528 0.29406 0.0
C1278 C 0.77964 0.73436 0.27049 0.0
C1279 C 0.75346 0.73315 0.33624 0.0
C1280 C 0.76915 0.71841 0.35247 0.0
C1281 C 0.72702 0.73799 0.34247 0.0
C1282 C 0.70934 0.75285 0.3257 0.0
C1283 C 0.70464 0.74425 0.3012 0.0
C1284 C 0.68819 0.75855 0.28542 0.0
C1285 C 0.67612 0.78135 0.29401 0.0
C1286 C 0.68044 0.78986 0.31843 0.0
C1287 C 0.69692 0.77566 0.33427 0.0
H1288 H 0.66338 0.79239 0.28177 0.0
H1289 H 0.82339 0.65653 0.43702 0.0
H1290 H 0.84342 0.22835 0.94372 0.0
H1291 H 0.82433 0.25027 0.90748 0.0
H1292 H 0.7725 0.18459 0.89621 0.0
H1293 H 0.79093 0.16287 0.93267 0.0
H1294 H 0.82392 0.23774 0.86053 0.0
H1295 H 0.71558 0.20325 0.87236 0.0
H1296 H 0.68438 0.19467 0.90652 0.0
H1297 H 0.72755 0.24622 0.95455 0.0
H1298 H 0.75878 0.25541 0.92059 0.0
H1299 H 0.75759 0.23511 0.74569 0.0
H1300 H 0.77922 0.22868 0.78559 0.0
H1301 H 0.726 0.28342 0.81994 0.0
H1302 H 0.70255 0.28786 0.78077 0.0
H1303 H 0.72805 0.24489 0.84757 0.0
H1304 H 0.79476 0.29533 0.80941 0.0
H1305 H 0.82683 0.30931 0.77772 0.0
H1306 H 0.86796 0.23654 0.78586 0.0
H1307 H 0.83588 0.22187 0.81723 0.0
C1308 C 0.8278 0.21866 0.93365 0.0
C1309 C 0.81862 0.19389 0.94117 0.0
C1310 C 0.81697 0.2312 0.91292 0.0
C1311 C 0.79679 0.21922 0.89933 0.0
C1312 C 0.78766 0.19448 0.90675 0.0
C1313 C 0.7983 0.18203 0.92757 0.0
C1314 C 0.78583 0.23199 0.87682 0.0
C1315 C 0.80296 0.23952 0.85766 0.0
C1316 C 0.75855 0.23509 0.8735 0.0
C1317 C 0.73964 0.22986 0.89395 0.0
C1318 C 0.71834 0.21287 0.89017 0.0
C1319 C 0.70066 0.20787 0.90951 0.0
C1320 C 0.70401 0.21984 0.93271 0.0
C1321 C 0.72501 0.23689 0.9366 0.0
C1322 C 0.74273 0.24198 0.91732 0.0
C1323 C 0.75031 0.24569 0.76172 0.0
C1324 C 0.72801 0.26177 0.75987 0.0
C1325 C 0.7631 0.24239 0.78452 0.0
C1326 C 0.75448 0.25576 0.80585 0.0
C1327 C 0.73306 0.27283 0.80379 0.0
C1328 C 0.71983 0.27562 0.78117 0.0
C1329 C 0.76609 0.24998 0.83069 0.0
C1330 C 0.74905 0.24362 0.85037 0.0
C1331 C 0.79351 0.24881 0.83471 0.0
C1332 C 0.81271 0.25741 0.81556 0.0
C1333 C 0.81048 0.28219 0.80427 0.0
C1334 C 0.82869 0.29025 0.78637 0.0
C1335 C 0.84937 0.2738 0.77973 0.0
C1336 C 0.8519 0.24925 0.79098 0.0
C1337 C 0.8337 0.24105 0.80883 0.0
H1338 H 0.86347 0.2801 0.76589 0.0
H1339 H 0.69032 0.21593 0.94766 0.0
H1340 H 0.2716 0.33717 0.44248 0.0
H1341 H 0.24747 0.30889 0.41389 0.0
H1342 H 0.31854 0.26755 0.39606 0.0
H1343 H 0.34296 0.2955 0.425 0.0
H1344 H 0.27771 0.27913 0.35367 0.0
H1345 H 0.29077 0.23878 0.43514 0.0
H1346 H 0.29044 0.24011 0.48113 0.0
H1347 H 0.20835 0.2582 0.48041 0.0
H1348 H 0.20834 0.25744 0.43436 0.0
H1349 H 0.21687 0.16212 0.30921 0.0
H1350 H 0.24601 0.19412 0.32893 0.0
H1351 H 0.18145 0.22253 0.37322 0.0
H1352 H 0.15259 0.19008 0.35412 0.0
H1353 H 0.22179 0.21728 0.40139 0.0
H1354 H 0.20687 0.25635 0.32108 0.0
H1355 H 0.20602 0.25831 0.27512 0.0
H1356 H 0.28906 0.24553 0.27286 0.0
H1357 H 0.29036 0.24314 0.31882 0.0
C1358 C 0.28229 0.32251 0.43207 0.0
C1359 C 0.30914 0.31832 0.43628 0.0
C1360 C 0.26845 0.30641 0.41573 0.0
C1361 C 0.28128 0.28615 0.40309 0.0
C1362 C 0.3084 0.28319 0.40568 0.0
C1363 C 0.32224 0.29904 0.42232 0.0
C1364 C 0.26574 0.26605 0.39006 0.0
C1365 C 0.26571 0.26531 0.36396 0.0
C1366 C 0.24981 0.24852 0.40367 0.0
C1367 C 0.24962 0.24831 0.43134 0.0
C1368 C 0.2727 0.24324 0.4448 0.0
C1369 C 0.27257 0.24386 0.47087 0.0
C1370 C 0.2494 0.24931 0.48369 0.0
C1371 C 0.22629 0.25402 0.47046 0.0
C1372 C 0.22634 0.25348 0.44438 0.0
C1373 C 0.20897 0.1753 0.32311 0.0
C1374 C 0.18256 0.17363 0.33025 0.0
C1375 C 0.22557 0.19363 0.33427 0.0
C1376 C 0.21586 0.21096 0.35236 0.0
C1377 C 0.18942 0.20933 0.35938 0.0
C1378 C 0.17296 0.19078 0.3485 0.0
C1379 C 0.23327 0.2303 0.36466 0.0
C1380 C 0.23377 0.23091 0.39084 0.0
C1381 C 0.24938 0.24783 0.35101 0.0
C1382 C 0.24866 0.24928 0.32338 0.0
C1383 C 0.22492 0.25374 0.31077 0.0
C1384 C 0.22436 0.25497 0.28473 0.0
C1385 C 0.24746 0.25197 0.27108 0.0
C1386 C 0.27118 0.24781 0.28346 0.0
C1387 C 0.27184 0.24653 0.3095 0.0
H1388 H 0.24699 0.25293 0.25091 0.0
H1389 H 0.24934 0.24981 0.50387 0.0
H1390 H 0.21752 0.82817 0.94589 0.0
H1391 H 0.23952 0.80316 0.91352 0.0
H1392 H 0.16554 0.7697 0.89103 0.0
H1393 H 0.14351 0.79391 0.92429 0.0
H1394 H 0.19875 0.73307 0.89412 0.0
H1395 H 0.20053 0.8149 0.8534 0.0
H1396 H 0.20684 0.86243 0.84822 0.0
H1397 H 0.28901 0.85381 0.86299 0.0
H1398 H 0.28316 0.80626 0.86865 0.0
H1399 H 0.27428 0.66743 0.79931 0.0
H1400 H 0.24208 0.69787 0.81706 0.0
H1401 H 0.30201 0.73074 0.86432 0.0
H1402 H 0.33414 0.7005 0.84674 0.0
H1403 H 0.2693 0.76861 0.84021 0.0
H1404 H 0.26266 0.68673 0.88782 0.0
H1405 H 0.25454 0.63927 0.89138 0.0
H1406 H 0.17802 0.64929 0.85956 0.0
H1407 H 0.18585 0.6968 0.85552 0.0
C1408 C 0.20586 0.81576 0.93386 0.0
C1409 C 0.17881 0.81293 0.93769 0.0
C1410 C 0.21844 0.80159 0.91518 0.0
C1411 C 0.20415 0.78483 0.89949 0.0
C1412 C 0.17698 0.78252 0.90286 0.0
C1413 C 0.16443 0.79635 0.92187 0.0
C1414 C 0.21806 0.76814 0.88115 0.0
C1415 C 0.21369 0.741 0.88186 0.0
C1416 C 0.23763 0.77835 0.86511 0.0
C1417 C 0.24136 0.80697 0.86157 0.0
C1418 C 0.21993 0.82314 0.8557 0.0
C1419 C 0.22343 0.8501 0.85266 0.0
C1420 C 0.2483 0.86114 0.8553 0.0
C1421 C 0.26975 0.84523 0.86094 0.0
C1422 C 0.26636 0.81826 0.86402 0.0
C1423 C 0.28053 0.68128 0.8134 0.0
C1424 C 0.30658 0.68151 0.82187 0.0
C1425 C 0.26218 0.69858 0.82348 0.0
C1426 C 0.26976 0.71647 0.84197 0.0
C1427 C 0.29587 0.7171 0.85 0.0
C1428 C 0.31409 0.69967 0.84016 0.0
C1429 C 0.25044 0.73382 0.85401 0.0
C1430 C 0.25384 0.76098 0.85204 0.0
C1431 C 0.22965 0.72372 0.8685 0.0
C1432 C 0.22496 0.69522 0.87109 0.0
C1433 C 0.24419 0.67877 0.8814 0.0
C1434 C 0.23963 0.65188 0.88354 0.0
C1435 C 0.21581 0.64126 0.87563 0.0
C1436 C 0.19648 0.65753 0.86563 0.0
C1437 C 0.20096 0.68443 0.86342 0.0
H1438 H 0.21231 0.62043 0.8773 0.0
H1439 H 0.25097 0.88201 0.85295 0.0
loop_
_geom_bond_atom_site_label_1
_geom_bond_atom_site_label_2
_geom_bond_distance
_geom_bond_site_symmetry_2
_ccdc_geom_bond_type
Sc0 O3 2.025 . S
Sc0 O10 2.104 1_554 S
Sc0 O13 2.105 . S
Sc0 O16 2.105 . S
Sc0 O19 2.104 1_554 S
Sc1 O3 2.025 . S
Sc1 O11 2.104 1_554 S
Sc1 O15 2.106 . S
Sc1 O17 2.106 . S
Sc1 O21 2.104 1_554 S
Sc2 O3 2.025 . S
Sc2 O12 2.104 1_554 S
Sc2 O14 2.106 . S
Sc2 O18 2.106 . S
Sc2 O20 2.104 1_554 S
O3 Sc0 2.025 . S
O3 Sc1 2.025 . S
O3 Sc2 2.025 . S
C4 O10 1.268 . S
C4 O20 1.268 . S
C5 O11 1.268 . S
C5 O19 1.268 . S
C6 O12 1.268 . S
C6 O21 1.268 . S
C7 O13 1.268 . S
C7 O17 1.268 . S
C8 O14 1.268 . S
C8 O16 1.268 . S
C9 O15 1.268 . S
C9 O18 1.268 . S
O10 Sc0 2.104 1_556 S
O10 C4 1.268 . S
O11 Sc1 2.104 1_556 S
O11 C5 1.268 . S
O12 Sc2 2.104 1_556 S
O12 C6 1.268 . S
O13 Sc0 2.105 . S
O13 C7 1.268 . S
O14 Sc2 2.106 . S
O14 C8 1.268 . S
O15 Sc1 2.106 . S
O15 C9 1.268 . S
O16 Sc0 2.105 . S
O16 C8 1.268 . S
O17 Sc1 2.106 . S
O17 C7 1.268 . S
O18 Sc2 2.106 . S
O18 C9 1.268 . S
O19 Sc0 2.104 1_556 S
O19 C5 1.268 . S
O20 Sc2 2.104 1_556 S
O20 C4 1.268 . S
O21 Sc1 2.104 1_556 S
O21 C6 1.268 . S
Sc22 O25 2.025 . S
Sc22 O32 2.105 . S
Sc22 O35 2.105 . S
Sc22 O38 2.105 . S
Sc22 O41 2.105 . S
Sc23 O25 2.025 . S
Sc23 O33 2.105 . S
Sc23 O37 2.105 . S
Sc23 O39 2.105 . S
Sc23 O43 2.105 . S
Sc24 O25 2.025 . S
Sc24 O34 2.105 . S
Sc24 O36 2.105 . S
Sc24 O40 2.105 . S
Sc24 O42 2.105 . S
O25 Sc22 2.025 . S
O25 Sc23 2.025 . S
O25 Sc24 2.025 . S
C26 O32 1.268 . S
C26 O42 1.268 . S
C27 O33 1.268 . S
C27 O41 1.268 . S
C28 O34 1.268 . S
C28 O43 1.268 . S
C29 O35 1.268 . S
C29 O39 1.268 . S
C30 O36 1.268 . S
C30 O38 1.268 . S
C31 O37 1.268 . S
C31 O40 1.268 . S
O32 Sc22 2.105 . S
O32 C26 1.268 . S
O33 Sc23 2.105 . S
O33 C27 1.268 . S
O34 Sc24 2.105 . S
O34 C28 1.268 . S
O35 Sc22 2.105 . S
O35 C29 1.268 . S
O36 Sc24 2.105 . S
O36 C30 1.268 . S
O37 Sc23 2.105 . S
O37 C31 1.268 . S
O38 Sc22 2.105 . S
O38 C30 1.268 . S
O39 Sc23 2.105 . S
O39 C29 1.268 . S
O40 Sc24 2.105 . S
O40 C31 1.268 . S
O41 Sc22 2.105 . S
O41 C27 1.268 . S
O42 Sc24 2.105 . S
O42 C26 1.268 . S
O43 Sc23 2.105 . S
O43 C28 1.268 . S
Sc44 O47 2.025 . S
Sc44 O54 2.104 1_554 S
Sc44 O57 2.105 . S
Sc44 O60 2.105 . S
Sc44 O63 2.104 1_554 S
Sc45 O47 2.025 . S
Sc45 O55 2.104 1_554 S
Sc45 O59 2.105 . S
Sc45 O61 2.105 . S
Sc45 O65 2.104 1_554 S
Sc46 O47 2.025 . S
Sc46 O56 2.104 1_554 S
Sc46 O58 2.105 . S
Sc46 O62 2.105 . S
Sc46 O64 2.104 1_554 S
O47 Sc44 2.025 . S
O47 Sc45 2.025 . S
O47 Sc46 2.025 . S
C48 O54 1.268 . S
C48 O64 1.268 . S
C49 O55 1.268 . S
C49 O63 1.268 . S
C50 O56 1.268 . S
C50 O65 1.268 . S
C51 O57 1.268 . S
C51 O61 1.268 . S
C52 O58 1.268 . S
C52 O60 1.268 . S
C53 O59 1.268 . S
C53 O62 1.268 . S
O54 Sc44 2.104 1_556 S
O54 C48 1.268 . S
O55 Sc45 2.104 1_556 S
O55 C49 1.268 . S
O56 Sc46 2.104 1_556 S
O56 C50 1.268 . S
O57 Sc44 2.105 . S
O57 C51 1.268 . S
O58 Sc46 2.105 . S
O58 C52 1.268 . S
O59 Sc45 2.105 . S
O59 C53 1.268 . S
O60 Sc44 2.105 . S
O60 C52 1.268 . S
O61 Sc45 2.105 . S
O61 C51 1.268 . S
O62 Sc46 2.105 . S
O62 C53 1.268 . S
O63 Sc44 2.104 1_556 S
O63 C49 1.268 . S
O64 Sc46 2.104 1_556 S
O64 C48 1.268 . S
O65 Sc45 2.104 1_556 S
O65 C50 1.268 . S
Sc66 O69 2.025 . S
Sc66 O76 2.105 . S
Sc66 O79 2.105 . S
Sc66 O82 2.105 . S
Sc66 O85 2.105 . S
Sc67 O69 2.025 . S
Sc67 O77 2.105 . S
Sc67 O81 2.105 . S
Sc67 O83 2.105 . S
Sc67 O87 2.105 . S
Sc68 O69 2.025 . S
Sc68 O78 2.105 . S
Sc68 O80 2.105 . S
Sc68 O84 2.105 . S
Sc68 O86 2.105 . S
O69 Sc66 2.025 . S
O69 Sc67 2.025 . S
O69 Sc68 2.025 . S
C70 O76 1.268 . S
C70 O86 1.268 . S
C71 O77 1.268 . S
C71 O85 1.268 . S
C72 O78 1.268 . S
C72 O87 1.268 . S
C73 O79 1.268 . S
C73 O83 1.268 . S
C74 O80 1.268 . S
C74 O82 1.268 . S
C75 O81 1.268 . S
C75 O84 1.268 . S
O76 Sc66 2.105 . S
O76 C70 1.268 . S
O77 Sc67 2.105 . S
O77 C71 1.268 . S
O78 Sc68 2.105 . S
O78 C72 1.268 . S
O79 Sc66 2.105 . S
O79 C73 1.268 . S
O80 Sc68 2.105 . S
O80 C74 1.268 . S
O81 Sc67 2.105 . S
O81 C75 1.268 . S
O82 Sc66 2.105 . S
O82 C74 1.268 . S
O83 Sc67 2.105 . S
O83 C73 1.268 . S
O84 Sc68 2.105 . S
O84 C75 1.268 . S
O85 Sc66 2.105 . S
O85 C71 1.268 . S
O86 Sc68 2.105 . S
O86 C70 1.268 . S
O87 Sc67 2.105 . S
O87 C72 1.268 . S
H88 C89 0.949 . S
C89 H88 0.949 . S
C89 C90 1.395 . S
C89 C91 1.391 . S
C90 C89 1.395 . S
C90 C93 1.390 . S
C91 C89 1.391 . S
C91 C95 1.387 . S
C91 C96 1.491 . S
H92 C93 0.950 . S
C93 C90 1.390 . S
C93 H92 0.950 . S
C93 C94 1.378 . S
C94 C93 1.378 . S
C94 C95 1.409 . S
C95 C91 1.387 . S
C95 C94 1.409 . S
C95 H97 0.951 . S
C96 C91 1.491 . S
C96 C98 1.382 . S
C96 C100 1.404 . S
H97 C95 0.951 . S
C98 C96 1.382 . S
C98 C99 1.390 . S
C98 H103 0.949 . S
C99 C98 1.390 . S
C99 C104 1.399 . S
C100 C96 1.404 . S
C100 H101 0.950 . S
C100 C102 1.375 . S
H101 C100 0.950 . S
C102 C100 1.375 . S
C102 C104 1.382 . S
C102 H106 0.950 . S
H103 C98 0.949 . S
C104 C99 1.399 . S
C104 C102 1.382 . S
C104 H105 0.952 . S
H105 C104 0.952 . S
H106 C102 0.950 . S
H107 C108 0.949 . S
C108 H107 0.949 . S
C108 C109 1.395 . S
C108 C110 1.391 . S
C109 C108 1.395 . S
C109 C112 1.390 . S
C110 C108 1.391 . S
C110 C114 1.387 . S
C110 C115 1.491 . S
H111 C112 0.950 . S
C112 C109 1.390 . S
C112 H111 0.950 . S
C112 C113 1.378 . S
C113 C112 1.378 . S
C113 C114 1.409 . S
C114 C110 1.387 . S
C114 C113 1.409 . S
C114 H116 0.951 . S
C115 C110 1.491 . S
C115 C117 1.382 . S
C115 C119 1.404 . S
H116 C114 0.951 . S
C117 C115 1.382 . S
C117 C118 1.390 . S
C117 H122 0.949 . S
C118 C117 1.390 . S
C118 C123 1.399 . S
C119 C115 1.404 . S
C119 H120 0.950 . S
C119 C121 1.375 . S
H120 C119 0.950 . S
C121 C119 1.375 . S
C121 C123 1.382 . S
C121 H125 0.950 . S
H122 C117 0.949 . S
C123 C118 1.399 . S
C123 C121 1.382 . S
C123 H124 0.952 . S
H124 C123 0.952 . S
H125 C121 0.950 . S
H126 C127 0.949 . S
C127 H126 0.949 . S
C127 C128 1.395 . S
C127 C129 1.391 . S
C128 C127 1.395 . S
C128 C131 1.390 . S
C129 C127 1.391 . S
C129 C133 1.387 . S
C129 C134 1.491 . S
H130 C131 0.950 . S
C131 C128 1.390 . S
C131 H130 0.950 . S
C131 C132 1.378 . S
C132 C131 1.378 . S
C132 C133 1.409 . S
C133 C129 1.387 . S
C133 C132 1.409 . S
C133 H135 0.951 . S
C134 C129 1.491 . S
C134 C136 1.382 . S
C134 C138 1.404 . S
H135 C133 0.951 . S
C136 C134 1.382 . S
C136 C137 1.390 . S
C136 H141 0.949 . S
C137 C136 1.390 . S
C137 C142 1.399 . S
C138 C134 1.404 . S
C138 H139 0.950 . S
C138 C140 1.375 . S
H139 C138 0.950 . S
C140 C138 1.375 . S
C140 C142 1.382 . S
C140 H144 0.950 . S
H141 C136 0.949 . S
C142 C137 1.399 . S
C142 C140 1.382 . S
C142 H143 0.952 . S
H143 C142 0.952 . S
H144 C140 0.950 . S
H145 C146 0.949 . S
C146 H145 0.949 . S
C146 C147 1.395 . S
C146 C148 1.391 . S
C147 C146 1.395 . S
C147 C150 1.390 . S
C148 C146 1.391 . S
C148 C152 1.387 . S
C148 C153 1.491 . S
H149 C150 0.950 . S
C150 C147 1.390 . S
C150 H149 0.950 . S
C150 C151 1.378 . S
C151 C150 1.378 . S
C151 C152 1.409 . S
C152 C148 1.387 . S
C152 C151 1.409 . S
C152 H154 0.951 . S
C153 C148 1.491 . S
C153 C155 1.382 . S
C153 C157 1.404 . S
H154 C152 0.951 . S
C155 C153 1.382 . S
C155 C156 1.390 . S
C155 H160 0.949 . S
C156 C155 1.390 . S
C156 C161 1.399 . S
C157 C153 1.404 . S
C157 H158 0.950 . S
C157 C159 1.375 . S
H158 C157 0.950 . S
C159 C157 1.375 . S
C159 C161 1.382 . S
C159 H163 0.950 . S
H160 C155 0.949 . S
C161 C156 1.399 . S
C161 C159 1.382 . S
C161 H162 0.952 . S
H162 C161 0.952 . S
H163 C159 0.950 . S
H164 C165 0.949 . S
C165 H164 0.949 . S
C165 C166 1.395 . S
C165 C167 1.391 . S
C166 C165 1.395 . S
C166 C169 1.390 . S
C167 C165 1.391 . S
C167 C171 1.387 . S
C167 C172 1.491 . S
H168 C169 0.950 . S
C169 C166 1.390 . S
C169 H168 0.950 . S
C169 C170 1.378 . S
C170 C169 1.378 . S
C170 C171 1.409 . S
C171 C167 1.387 . S
C171 C170 1.409 . S
C171 H173 0.951 . S
C172 C167 1.491 . S
C172 C174 1.382 . S
C172 C176 1.404 . S
H173 C171 0.951 . S
C174 C172 1.382 . S
C174 C175 1.390 . S
C174 H179 0.949 . S
C175 C174 1.390 . S
C175 C180 1.399 . S
C176 C172 1.404 . S
C176 H177 0.950 . S
C176 C178 1.375 . S
H177 C176 0.950 . S
C178 C176 1.375 . S
C178 C180 1.382 . S
C178 H182 0.950 . S
H179 C174 0.949 . S
C180 C175 1.399 . S
C180 C178 1.382 . S
C180 H181 0.952 . S
H181 C180 0.952 . S
H182 C178 0.950 . S
H183 C184 0.949 . S
C184 H183 0.949 . S
C184 C185 1.395 . S
C184 C186 1.391 . S
C185 C184 1.395 . S
C185 C188 1.390 . S
C186 C184 1.391 . S
C186 C190 1.387 . S
C186 C191 1.491 . S
H187 C188 0.950 . S
C188 C185 1.390 . S
C188 H187 0.950 . S
C188 C189 1.378 . S
C189 C188 1.378 . S
C189 C190 1.409 . S
C190 C186 1.387 . S
C190 C189 1.409 . S
C190 H192 0.951 . S
C191 C186 1.491 . S
C191 C193 1.382 . S
C191 C195 1.404 . S
H192 C190 0.951 . S
C193 C191 1.382 . S
C193 C194 1.390 . S
C193 H198 0.949 . S
C194 C193 1.390 . S
C194 C199 1.399 . S
C195 C191 1.404 . S
C195 H196 0.950 . S
C195 C197 1.375 . S
H196 C195 0.950 . S
C197 C195 1.375 . S
C197 C199 1.382 . S
C197 H201 0.950 . S
H198 C193 0.949 . S
C199 C194 1.399 . S
C199 C197 1.382 . S
C199 H200 0.952 . S
H200 C199 0.952 . S
H201 C197 0.950 . S
H202 C203 0.949 . S
C203 H202 0.949 . S
C203 C204 1.395 . S
C203 C205 1.391 . S
C204 C203 1.395 . S
C204 C207 1.390 . S
C205 C203 1.391 . S
C205 C209 1.387 . S
C205 C210 1.491 . S
H206 C207 0.950 . S
C207 C204 1.390 . S
C207 H206 0.950 . S
C207 C208 1.378 . S
C208 C207 1.378 . S
C208 C209 1.409 . S
C209 C205 1.387 . S
C209 C208 1.409 . S
C209 H211 0.951 . S
C210 C205 1.491 . S
C210 C212 1.382 . S
C210 C214 1.404 . S
H211 C209 0.951 . S
C212 C210 1.382 . S
C212 C213 1.390 . S
C212 H217 0.949 . S
C213 C212 1.390 . S
C213 C218 1.399 . S
C214 C210 1.404 . S
C214 H215 0.950 . S
C214 C216 1.375 . S
H215 C214 0.950 . S
C216 C214 1.375 . S
C216 C218 1.382 . S
C216 H220 0.950 . S
H217 C212 0.949 . S
C218 C213 1.399 . S
C218 C216 1.382 . S
C218 H219 0.952 . S
H219 C218 0.952 . S
H220 C216 0.950 . S
H221 C222 0.949 . S
C222 H221 0.949 . S
C222 C223 1.395 . S
C222 C224 1.391 . S
C223 C222 1.395 . S
C223 C226 1.390 . S
C224 C222 1.391 . S
C224 C228 1.387 . S
C224 C229 1.491 . S
H225 C226 0.950 . S
C226 C223 1.390 . S
C226 H225 0.950 . S
C226 C227 1.378 . S
C227 C226 1.378 . S
C227 C228 1.409 . S
C228 C224 1.387 . S
C228 C227 1.409 . S
C228 H230 0.951 . S
C229 C224 1.491 . S
C229 C231 1.382 . S
C229 C233 1.404 . S
H230 C228 0.951 . S
C231 C229 1.382 . S
C231 C232 1.390 . S
C231 H236 0.949 . S
C232 C231 1.390 . S
C232 C237 1.399 . S
C233 C229 1.404 . S
C233 H234 0.950 . S
C233 C235 1.375 . S
H234 C233 0.950 . S
C235 C233 1.375 . S
C235 C237 1.382 . S
C235 H239 0.950 . S
H236 C231 0.949 . S
C237 C232 1.399 . S
C237 C235 1.382 . S
C237 H238 0.952 . S
H238 C237 0.952 . S
H239 C235 0.950 . S
H240 C258 0.951 . S
H241 C260 0.951 1_545 S
H242 C262 0.950 . S
H243 C263 0.950 . S
H244 C265 0.950 1_565 S
H245 C268 0.950 1_565 S
H246 C269 0.979 . S
H247 C271 0.950 . S
H248 C272 0.950 . S
H249 C273 0.951 . S
H250 C275 0.951 . S
H251 C277 0.950 . S
H252 C278 0.950 . S
H253 C280 0.950 . S
H254 C283 0.950 . S
H255 C284 0.950 . S
H256 C286 0.950 . S
H257 C287 0.950 . S
C258 H240 0.951 . S
C258 C259 1.366 . S
C258 C260 1.388 . S
C259 C258 1.366 . S
C259 C263 1.385 . S
C260 H241 0.951 1_565 S
C260 C258 1.388 . S
C260 C261 1.366 . S
C261 C260 1.366 . S
C261 C262 1.414 . S
C261 C264 1.499 1_565 S
C262 H242 0.950 . S
C262 C261 1.414 . S
C262 C263 1.374 . S
C263 H243 0.950 . S
C263 C259 1.385 . S
C263 C262 1.374 . S
C264 C261 1.499 1_545 S
C264 C265 1.373 . S
C264 C266 1.389 . S
C265 H244 0.950 1_545 S
C265 C264 1.373 . S
C265 C281 1.377 . S
C266 C264 1.389 . S
C266 C267 1.524 . S
C266 C280 1.377 . S
C267 C266 1.524 . S
C267 C268 1.397 . S
C267 C272 1.363 . S
C268 H245 0.950 1_545 S
C268 C267 1.397 . S
C268 C269 1.334 . S
C269 H246 0.979 . S
C269 C268 1.334 . S
C269 C270 1.287 . S
C270 C269 1.287 . S
C270 C271 1.524 . S
C270 H289 0.913 . S
C271 H247 0.950 . S
C271 C270 1.524 . S
C271 C272 1.415 . S
C272 H248 0.950 . S
C272 C267 1.363 . S
C272 C271 1.415 . S
C273 H249 0.951 . S
C273 C274 1.366 . S
C273 C275 1.388 . S
C274 C273 1.366 . S
C274 C278 1.385 . S
C275 H250 0.951 . S
C275 C273 1.388 . S
C275 C276 1.366 . S
C276 C275 1.366 . S
C276 C277 1.414 . S
C276 C279 1.499 . S
C277 H251 0.950 . S
C277 C276 1.414 . S
C277 C278 1.374 . S
C278 H252 0.950 . S
C278 C274 1.385 . S
C278 C277 1.374 . S
C279 C276 1.499 . S
C279 C280 1.373 . S
C279 C281 1.389 . S
C280 H253 0.950 . S
C280 C266 1.377 . S
C280 C279 1.373 . S
C281 C265 1.377 . S
C281 C279 1.389 . S
C281 C282 1.524 . S
C282 C281 1.524 . S
C282 C283 1.397 . S
C282 C287 1.363 1_545 S
C283 H254 0.950 . S
C283 C282 1.397 . S
C283 C284 1.334 . S
C284 H255 0.950 . S
C284 C283 1.334 . S
C284 C285 1.287 . S
C285 C284 1.287 . S
C285 C286 1.524 1_545 S
C285 H288 0.999 . S
C286 H256 0.950 . S
C286 C285 1.524 1_565 S
C286 C287 1.415 . S
C287 H257 0.950 . S
C287 C282 1.363 1_565 S
C287 C286 1.415 . S
H288 C285 0.999 . S
H289 C270 0.913 . S
H290 C308 0.951 . S
H291 C310 0.951 . S
H292 C312 0.950 . S
H293 C313 0.950 . S
H294 C315 0.950 . S
H295 C318 0.950 . S
H296 C319 0.950 . S
H297 C321 0.950 . S
H298 C322 0.950 . S
H299 C323 0.951 . S
H300 C325 0.951 . S
H301 C327 0.950 . S
H302 C328 0.950 . S
H303 C330 0.950 . S
H304 C333 0.950 . S
H305 C334 0.950 . S
H306 C336 0.950 . S
H307 C337 0.950 . S
C308 H290 0.951 . S
C308 C309 1.366 . S
C308 C310 1.388 . S
C309 C308 1.366 . S
C309 C313 1.385 . S
C310 H291 0.951 . S
C310 C308 1.388 . S
C310 C311 1.366 . S
C311 C310 1.366 . S
C311 C312 1.414 . S
C311 C314 1.499 . S
C312 H292 0.950 . S
C312 C311 1.414 . S
C312 C313 1.374 . S
C313 H293 0.950 . S
C313 C309 1.385 . S
C313 C312 1.374 . S
C314 C311 1.499 . S
C314 C315 1.373 . S
C314 C316 1.389 . S
C315 H294 0.950 . S
C315 C314 1.373 . S
C315 C331 1.377 . S
C316 C314 1.389 . S
C316 C317 1.524 . S
C316 C330 1.377 . S
C317 C316 1.524 . S
C317 C318 1.397 . S
C317 C322 1.363 . S
C318 H295 0.950 . S
C318 C317 1.397 . S
C318 C319 1.334 . S
C319 H296 0.950 . S
C319 C318 1.334 . S
C319 C320 1.287 . S
C320 C319 1.287 . S
C320 C321 1.524 . S
C320 H339 0.913 . S
C321 H297 0.950 . S
C321 C320 1.524 . S
C321 C322 1.415 . S
C322 H298 0.950 . S
C322 C317 1.363 . S
C322 C321 1.415 . S
C323 H299 0.951 . S
C323 C324 1.366 . S
C323 C325 1.388 . S
C324 C323 1.366 . S
C324 C328 1.385 . S
C325 H300 0.951 . S
C325 C323 1.388 . S
C325 C326 1.366 . S
C326 C325 1.366 . S
C326 C327 1.414 . S
C326 C329 1.499 . S
C327 H301 0.950 . S
C327 C326 1.414 . S
C327 C328 1.374 . S
C328 H302 0.950 . S
C328 C324 1.385 . S
C328 C327 1.374 . S
C329 C326 1.499 . S
C329 C330 1.373 . S
C329 C331 1.389 . S
C330 H303 0.950 . S
C330 C316 1.377 . S
C330 C329 1.373 . S
C331 C315 1.377 . S
C331 C329 1.389 . S
C331 C332 1.524 . S
C332 C331 1.524 . S
C332 C333 1.397 . S
C332 C337 1.363 . S
C333 H304 0.950 . S
C333 C332 1.397 . S
C333 C334 1.334 . S
C334 H305 0.950 . S
C334 C333 1.334 . S
C334 C335 1.287 . S
C335 C334 1.287 . S
C335 C336 1.524 . S
C335 H338 0.999 . S
C336 H306 0.950 . S
C336 C335 1.524 . S
C336 C337 1.415 . S
C337 H307 0.950 . S
C337 C332 1.363 . S
C337 C336 1.415 . S
H338 C335 0.999 . S
H339 C320 0.913 . S
H340 C358 0.951 . S
H341 C360 0.951 . S
H342 C362 0.950 . S
H343 C363 0.950 . S
H344 C365 0.950 . S
H345 C368 0.950 . S
H346 C369 0.950 . S
H347 C371 0.950 . S
H348 C372 0.950 . S
H349 C373 0.951 . S
H350 C375 0.951 . S
H351 C377 0.950 . S
H352 C378 0.950 . S
H353 C380 0.950 . S
H354 C383 0.950 . S
H355 C384 0.950 . S
H356 C386 0.950 . S
H357 C387 0.950 . S
C358 H340 0.951 . S
C358 C359 1.366 . S
C358 C360 1.388 . S
C359 C358 1.366 . S
C359 C363 1.385 . S
C360 H341 0.951 . S
C360 C358 1.388 . S
C360 C361 1.366 . S
C361 C360 1.366 . S
C361 C362 1.414 . S
C361 C364 1.529 . S
C362 H342 0.950 . S
C362 C361 1.414 . S
C362 C363 1.374 . S
C363 H343 0.950 . S
C363 C359 1.385 . S
C363 C362 1.374 . S
C364 C361 1.529 . S
C364 C365 1.381 . S
C364 C366 1.352 1_545 S
C365 H344 0.950 . S
C365 C364 1.381 . S
C365 C381 1.377 1_545 S
C366 C364 1.352 1_565 S
C366 C367 1.524 . S
C366 C380 1.377 . S
C367 C366 1.524 . S
C367 C368 1.397 . S
C367 C372 1.363 . S
C368 H345 0.950 . S
C368 C367 1.397 . S
C368 C369 1.334 . S
C369 H346 0.950 . S
C369 C368 1.334 . S
C369 C370 1.287 . S
C370 C369 1.287 . S
C370 C371 1.524 . S
C370 H389 0.913 . S
C371 H347 0.950 . S
C371 C370 1.524 . S
C371 C372 1.415 . S
C372 H348 0.950 . S
C372 C367 1.363 . S
C372 C371 1.415 . S
C373 H349 0.951 . S
C373 C374 1.366 . S
C373 C375 1.388 . S
C374 C373 1.366 . S
C374 C378 1.385 . S
C375 H350 0.951 . S
C375 C373 1.388 . S
C375 C376 1.366 . S
C376 C375 1.366 . S
C376 C377 1.414 . S
C376 C379 1.499 . S
C377 H351 0.950 . S
C377 C376 1.414 . S
C377 C378 1.374 . S
C378 H352 0.950 . S
C378 C374 1.385 . S
C378 C377 1.374 . S
C379 C376 1.499 . S
C379 C380 1.373 . S
C379 C381 1.389 . S
C380 H353 0.950 . S
C380 C366 1.377 . S
C380 C379 1.373 . S
C381 C365 1.377 1_565 S
C381 C379 1.389 . S
C381 C382 1.524 . S
C382 C381 1.524 . S
C382 C383 1.397 . S
C382 C387 1.363 1_565 S
C383 H354 0.950 . S
C383 C382 1.397 . S
C383 C384 1.334 . S
C384 H355 0.950 . S
C384 C383 1.334 . S
C384 C385 1.287 1_565 S
C385 C384 1.287 1_545 S
C385 C386 1.524 . S
C385 H388 0.999 . S
C386 H356 0.950 . S
C386 C385 1.524 . S
C386 C387 1.415 . S
C387 H357 0.950 . S
C387 C382 1.363 1_545 S
C387 C386 1.415 . S
H388 C385 0.999 . S
H389 C370 0.913 . S
H390 C408 0.951 . S
H391 C410 0.951 . S
H392 C412 0.950 . S
H393 C413 0.950 . S
H394 C415 0.950 . S
H395 C418 0.950 . S
H396 C419 0.950 . S
H397 C421 0.950 . S
H398 C422 0.950 . S
H399 C423 0.951 . S
H400 C425 0.951 . S
H401 C427 0.950 . S
H402 C428 0.950 . S
H403 C430 0.950 . S
H404 C433 0.950 . S
H405 C434 0.950 . S
H406 C436 0.950 . S
H407 C437 0.950 . S
C408 H390 0.951 . S
C408 C409 1.366 . S
C408 C410 1.388 . S
C409 C408 1.366 . S
C409 C413 1.385 . S
C410 H391 0.951 . S
C410 C408 1.388 . S
C410 C411 1.366 . S
C411 C410 1.366 . S
C411 C412 1.414 . S
C411 C414 1.499 . S
C412 H392 0.950 . S
C412 C411 1.414 . S
C412 C413 1.374 . S
C413 H393 0.950 . S
C413 C409 1.385 . S
C413 C412 1.374 . S
C414 C411 1.499 . S
C414 C415 1.373 . S
C414 C416 1.389 . S
C415 H394 0.950 . S
C415 C414 1.373 . S
C415 C431 1.377 . S
C416 C414 1.389 . S
C416 C417 1.524 . S
C416 C430 1.377 . S
C417 C416 1.524 . S
C417 C418 1.397 . S
C417 C422 1.363 . S
C418 H395 0.950 . S
C418 C417 1.397 . S
C418 C419 1.334 . S
C419 H396 0.950 . S
C419 C418 1.334 . S
C419 C420 1.287 . S
C420 C419 1.287 . S
C420 C421 1.524 . S
C420 H439 0.913 . S
C421 H397 0.950 . S
C421 C420 1.524 . S
C421 C422 1.415 . S
C422 H398 0.950 . S
C422 C417 1.363 . S
C422 C421 1.415 . S
C423 H399 0.951 . S
C423 C424 1.366 . S
C423 C425 1.388 . S
C424 C423 1.366 . S
C424 C428 1.385 . S
C425 H400 0.951 . S
C425 C423 1.388 . S
C425 C426 1.366 . S
C426 C425 1.366 . S
C426 C427 1.414 . S
C426 C429 1.499 . S
C427 H401 0.950 . S
C427 C426 1.414 . S
C427 C428 1.374 . S
C428 H402 0.950 . S
C428 C424 1.385 . S
C428 C427 1.374 . S
C429 C426 1.499 . S
C429 C430 1.373 . S
C429 C431 1.389 . S
C430 H403 0.950 . S
C430 C416 1.377 . S
C430 C429 1.373 . S
C431 C415 1.377 . S
C431 C429 1.389 . S
C431 C432 1.524 . S
C432 C431 1.524 . S
C432 C433 1.397 . S
C432 C437 1.363 . S
C433 H404 0.950 . S
C433 C432 1.397 . S
C433 C434 1.334 . S
C434 H405 0.950 . S
C434 C433 1.334 . S
C434 C435 1.287 . S
C435 C434 1.287 . S
C435 C436 1.524 . S
C435 H438 0.999 . S
C436 H406 0.950 . S
C436 C435 1.524 . S
C436 C437 1.415 . S
C437 H407 0.950 . S
C437 C432 1.363 . S
C437 C436 1.415 . S
H438 C435 0.999 . S
H439 C420 0.913 . S
H440 C458 0.951 . S
H441 C460 0.951 . S
H442 C462 0.950 . S
H443 C463 0.950 . S
H444 C465 0.950 . S
H445 C468 0.950 . S
H446 C469 0.950 . S
H447 C471 0.950 . S
H448 C472 0.950 . S
H449 C473 0.951 . S
H450 C475 0.951 . S
H451 C477 0.950 . S
H452 C478 0.950 . S
H453 C480 0.950 . S
H454 C483 0.950 . S
H455 C484 0.950 . S
H456 C486 0.950 . S
H457 C487 0.950 . S
C458 H440 0.951 . S
C458 C459 1.366 . S
C458 C460 1.388 . S
C459 C458 1.366 . S
C459 C463 1.385 . S
C460 H441 0.951 . S
C460 C458 1.388 . S
C460 C461 1.366 . S
C461 C460 1.366 . S
C461 C462 1.414 . S
C461 C464 1.499 . S
C462 H442 0.950 . S
C462 C461 1.414 . S
C462 C463 1.374 . S
C463 H443 0.950 . S
C463 C459 1.385 . S
C463 C462 1.374 . S
C464 C461 1.499 . S
C464 C465 1.373 . S
C464 C466 1.389 . S
C465 H444 0.950 . S
C465 C464 1.373 . S
C465 C481 1.377 . S
C466 C464 1.389 . S
C466 C467 1.524 . S
C466 C480 1.377 . S
C467 C466 1.524 . S
C467 C468 1.397 . S
C467 C472 1.363 . S
C468 H445 0.950 . S
C468 C467 1.397 . S
C468 C469 1.334 . S
C469 H446 0.950 . S
C469 C468 1.334 . S
C469 C470 1.287 . S
C470 C469 1.287 . S
C470 C471 1.524 . S
C470 H489 0.913 . S
C471 H447 0.950 . S
C471 C470 1.524 . S
C471 C472 1.415 . S
C472 H448 0.950 . S
C472 C467 1.363 . S
C472 C471 1.415 . S
C473 H449 0.951 . S
C473 C474 1.366 . S
C473 C475 1.388 . S
C474 C473 1.366 . S
C474 C478 1.385 . S
C475 H450 0.951 . S
C475 C473 1.388 . S
C475 C476 1.366 . S
C476 C475 1.366 . S
C476 C477 1.414 . S
C476 C479 1.499 . S
C477 H451 0.950 . S
C477 C476 1.414 . S
C477 C478 1.374 . S
C478 H452 0.950 . S
C478 C474 1.385 . S
C478 C477 1.374 . S
C479 C476 1.499 . S
C479 C480 1.373 . S
C479 C481 1.389 . S
C480 H453 0.950 . S
C480 C466 1.377 . S
C480 C479 1.373 . S
C481 C465 1.377 . S
C481 C479 1.389 . S
C481 C482 1.524 . S
C482 C481 1.524 . S
C482 C483 1.397 . S
C482 C487 1.363 . S
C483 H454 0.950 . S
C483 C482 1.397 . S
C483 C484 1.334 . S
C484 H455 0.950 . S
C484 C483 1.334 . S
C484 C485 1.287 . S
C485 C484 1.287 . S
C485 C486 1.524 . S
C485 H488 0.999 . S
C486 H456 0.950 . S
C486 C485 1.524 . S
C486 C487 1.415 . S
C487 H457 0.950 . S
C487 C482 1.363 . S
C487 C486 1.415 . S
H488 C485 0.999 . S
H489 C470 0.913 . S
H490 C508 0.951 . S
H491 C510 0.951 . S
H492 C512 0.950 . S
H493 C513 0.950 . S
H494 C515 0.950 . S
H495 C518 0.950 . S
H496 C519 0.950 . S
H497 C521 0.950 . S
H498 C522 0.950 1_455 S
H499 C523 0.951 . S
H500 C525 0.951 . S
H501 C527 0.950 . S
H502 C528 0.950 . S
H503 C530 0.950 . S
H504 C533 0.950 . S
H505 C534 0.950 . S
H506 C536 0.950 . S
H507 C537 0.950 . S
C508 H490 0.951 . S
C508 C509 1.366 . S
C508 C510 1.388 . S
C509 C508 1.366 . S
C509 C513 1.385 . S
C510 H491 0.951 . S
C510 C508 1.388 . S
C510 C511 1.366 . S
C511 C510 1.366 . S
C511 C512 1.414 . S
C511 C514 1.499 . S
C512 H492 0.950 . S
C512 C511 1.414 . S
C512 C513 1.374 . S
C513 H493 0.950 . S
C513 C509 1.385 . S
C513 C512 1.374 . S
C514 C511 1.499 . S
C514 C515 1.373 1_655 S
C514 C516 1.386 1_655 S
C515 H494 0.950 . S
C515 C514 1.373 1_455 S
C515 C531 1.377 . S
C516 C514 1.386 1_455 S
C516 C517 1.495 1_455 S
C516 C530 1.410 . S
C517 C516 1.495 1_655 S
C517 C518 1.397 . S
C517 C522 1.363 . S
C518 H495 0.950 . S
C518 C517 1.397 . S
C518 C519 1.334 . S
C519 H496 0.950 . S
C519 C518 1.334 . S
C519 C520 1.287 . S
C520 C519 1.287 . S
C520 C521 1.524 . S
C520 H539 0.913 . S
C521 H497 0.950 . S
C521 C520 1.524 . S
C521 C522 1.415 . S
C522 H498 0.950 1_655 S
C522 C517 1.363 . S
C522 C521 1.415 . S
C523 H499 0.951 . S
C523 C524 1.366 . S
C523 C525 1.388 . S
C524 C523 1.366 . S
C524 C528 1.385 . S
C525 H500 0.951 . S
C525 C523 1.388 . S
C525 C526 1.366 . S
C526 C525 1.366 . S
C526 C527 1.414 . S
C526 C529 1.499 . S
C527 H501 0.950 . S
C527 C526 1.414 . S
C527 C528 1.374 . S
C528 H502 0.950 . S
C528 C524 1.385 . S
C528 C527 1.374 . S
C529 C526 1.499 . S
C529 C530 1.373 . S
C529 C531 1.389 . S
C530 H503 0.950 . S
C530 C516 1.410 . S
C530 C529 1.373 . S
C531 C515 1.377 . S
C531 C529 1.389 . S
C531 C532 1.524 . S
C532 C531 1.524 . S
C532 C533 1.397 . S
C532 C537 1.363 . S
C533 H504 0.950 . S
C533 C532 1.397 . S
C533 C534 1.334 . S
C534 H505 0.950 . S
C534 C533 1.334 . S
C534 C535 1.287 . S
C535 C534 1.287 . S
C535 C536 1.524 . S
C535 H538 0.999 . S
C536 H506 0.950 . S
C536 C535 1.524 . S
C536 C537 1.415 . S
C537 H507 0.950 . S
C537 C532 1.363 . S
C537 C536 1.415 . S
H538 C535 0.999 . S
H539 C520 0.913 . S
H540 C558 0.951 . S
H541 C560 0.951 . S
H542 C562 0.950 . S
H543 C563 0.950 . S
H544 C565 0.950 . S
H545 C568 0.950 . S
H546 C569 0.950 . S
H547 C571 0.950 . S
H548 C572 0.950 . S
H549 C573 0.951 . S
H550 C575 0.951 . S
H551 C577 0.950 . S
H552 C578 0.950 . S
H553 C580 0.950 . S
H554 C583 0.950 . S
H555 C584 0.950 . S
H556 C586 0.950 . S
H557 C587 0.950 . S
C558 H540 0.951 . S
C558 C559 1.366 . S
C558 C560 1.388 . S
C559 C558 1.366 . S
C559 C563 1.385 . S
C560 H541 0.951 . S
C560 C558 1.388 . S
C560 C561 1.366 . S
C561 C560 1.366 . S
C561 C562 1.414 . S
C561 C564 1.499 . S
C562 H542 0.950 . S
C562 C561 1.414 . S
C562 C563 1.374 . S
C563 H543 0.950 . S
C563 C559 1.385 . S
C563 C562 1.374 . S
C564 C561 1.499 . S
C564 C565 1.373 . S
C564 C566 1.389 . S
C565 H544 0.950 . S
C565 C564 1.373 . S
C565 C581 1.377 . S
C566 C564 1.389 . S
C566 C567 1.524 . S
C566 C580 1.377 . S
C567 C566 1.524 . S
C567 C568 1.397 . S
C567 C572 1.363 . S
C568 H545 0.950 . S
C568 C567 1.397 . S
C568 C569 1.334 . S
C569 H546 0.950 . S
C569 C568 1.334 . S
C569 C570 1.287 . S
C570 C569 1.287 . S
C570 C571 1.524 . S
C570 H589 0.913 . S
C571 H547 0.950 . S
C571 C570 1.524 . S
C571 C572 1.415 . S
C572 H548 0.950 . S
C572 C567 1.363 . S
C572 C571 1.415 . S
C573 H549 0.951 . S
C573 C574 1.366 . S
C573 C575 1.388 . S
C574 C573 1.366 . S
C574 C578 1.385 . S
C575 H550 0.951 . S
C575 C573 1.388 . S
C575 C576 1.366 . S
C576 C575 1.366 . S
C576 C577 1.414 . S
C576 C579 1.499 . S
C577 H551 0.950 . S
C577 C576 1.414 . S
C577 C578 1.374 . S
C578 H552 0.950 . S
C578 C574 1.385 . S
C578 C577 1.374 . S
C579 C576 1.499 . S
C579 C580 1.373 . S
C579 C581 1.389 . S
C580 H553 0.950 . S
C580 C566 1.377 . S
C580 C579 1.373 . S
C581 C565 1.377 . S
C581 C579 1.389 . S
C581 C582 1.524 . S
C582 C581 1.524 . S
C582 C583 1.397 . S
C582 C587 1.363 . S
C583 H554 0.950 . S
C583 C582 1.397 . S
C583 C584 1.334 . S
C584 H555 0.950 . S
C584 C583 1.334 . S
C584 C585 1.287 . S
C585 C584 1.287 . S
C585 C586 1.524 . S
C585 H588 0.999 . S
C586 H556 0.950 . S
C586 C585 1.524 . S
C586 C587 1.415 . S
C587 H557 0.950 . S
C587 C582 1.363 . S
C587 C586 1.415 . S
H588 C585 0.999 . S
H589 C570 0.913 . S
H590 C608 0.951 . S
H591 C610 0.951 1_655 S
H592 C612 0.950 . S
H593 C613 0.950 . S
H594 C615 0.917 1_455 S
H595 C618 0.950 . S
H596 C619 0.950 . S
H597 C621 0.950 . S
H598 C622 0.950 . S
H599 C623 0.951 . S
H600 C625 0.951 . S
H601 C627 0.950 . S
H602 C628 0.950 . S
H603 C630 0.950 . S
H604 C633 0.950 . S
H605 C634 0.950 . S
H606 C636 0.950 . S
H607 C637 0.950 . S
C608 H590 0.951 . S
C608 C609 1.366 . S
C608 C610 1.388 . S
C609 C608 1.366 . S
C609 C613 1.385 . S
C610 H591 0.951 1_455 S
C610 C608 1.388 . S
C610 C611 1.366 . S
C611 C610 1.366 . S
C611 C612 1.414 . S
C611 C614 1.499 1_455 S
C612 H592 0.950 . S
C612 C611 1.414 . S
C612 C613 1.374 . S
C613 H593 0.950 . S
C613 C609 1.385 . S
C613 C612 1.374 . S
C614 C611 1.499 1_655 S
C614 C615 1.379 . S
C614 C616 1.389 . S
C615 H594 0.917 1_655 S
C615 C614 1.379 . S
C615 C631 1.404 . S
C616 C614 1.389 . S
C616 C617 1.524 . S
C616 C630 1.377 . S
C617 C616 1.524 . S
C617 C618 1.397 . S
C617 C622 1.363 . S
C618 H595 0.950 . S
C618 C617 1.397 . S
C618 C619 1.334 . S
C619 H596 0.950 . S
C619 C618 1.334 . S
C619 C620 1.287 . S
C620 C619 1.287 . S
C620 C621 1.524 . S
C620 H639 0.913 . S
C621 H597 0.950 . S
C621 C620 1.524 . S
C621 C622 1.415 . S
C622 H598 0.950 . S
C622 C617 1.363 . S
C622 C621 1.415 . S
C623 H599 0.951 . S
C623 C624 1.366 . S
C623 C625 1.388 . S
C624 C623 1.366 . S
C624 C628 1.385 . S
C625 H600 0.951 . S
C625 C623 1.388 . S
C625 C626 1.366 . S
C626 C625 1.366 . S
C626 C627 1.414 . S
C626 C629 1.499 . S
C627 H601 0.950 . S
C627 C626 1.414 . S
C627 C628 1.374 . S
C628 H602 0.950 . S
C628 C624 1.385 . S
C628 C627 1.374 . S
C629 C626 1.499 . S
C629 C630 1.373 . S
C629 C631 1.389 . S
C630 H603 0.950 . S
C630 C616 1.377 . S
C630 C629 1.373 . S
C631 C615 1.404 . S
C631 C629 1.389 . S
C631 C632 1.524 . S
C632 C631 1.524 . S
C632 C633 1.397 . S
C632 C637 1.363 1_655 S
C633 H604 0.950 . S
C633 C632 1.397 . S
C633 C634 1.334 . S
C634 H605 0.950 . S
C634 C633 1.334 . S
C634 C635 1.287 . S
C635 C634 1.287 . S
C635 C636 1.524 1_655 S
C635 H638 0.999 . S
C636 H606 0.950 . S
C636 C635 1.524 1_455 S
C636 C637 1.415 . S
C637 H607 0.950 . S
C637 C632 1.363 1_455 S
C637 C636 1.415 . S
H638 C635 0.999 . S
H639 C620 0.913 . S
H640 C658 0.951 . S
H641 C660 0.951 . S
H642 C662 0.950 . S
H643 C663 0.950 . S
H644 C665 0.950 . S
H645 C668 0.950 . S
H646 C669 0.950 . S
H647 C671 0.950 . S
H648 C672 0.950 . S
H649 C673 0.951 . S
H650 C675 0.951 . S
H651 C677 0.950 . S
H652 C678 0.950 . S
H653 C680 0.950 . S
H654 C683 0.950 . S
H655 C684 0.950 . S
H656 C686 0.950 . S
H657 C687 0.950 . S
C658 H640 0.951 . S
C658 C659 1.366 . S
C658 C660 1.388 . S
C659 C658 1.366 . S
C659 C663 1.385 . S
C660 H641 0.951 . S
C660 C658 1.388 . S
C660 C661 1.366 . S
C661 C660 1.366 . S
C661 C662 1.414 . S
C661 C664 1.513 . S
C662 H642 0.950 . S
C662 C661 1.414 . S
C662 C663 1.374 . S
C663 H643 0.950 . S
C663 C659 1.385 . S
C663 C662 1.374 . S
C664 C661 1.513 . S
C664 C665 1.360 1_545 S
C664 C666 1.389 1_545 S
C665 H644 0.950 . S
C665 C664 1.360 1_565 S
C665 C681 1.377 . S
C666 C664 1.389 1_565 S
C666 C667 1.513 1_565 S
C666 C680 1.389 . S
C667 C666 1.513 1_545 S
C667 C668 1.397 . S
C667 C672 1.363 . S
C668 H645 0.950 . S
C668 C667 1.397 . S
C668 C669 1.334 . S
C669 H646 0.950 . S
C669 C668 1.334 . S
C669 C670 1.287 . S
C670 C669 1.287 . S
C670 C671 1.524 . S
C670 H689 0.913 . S
C671 H647 0.950 . S
C671 C670 1.524 . S
C671 C672 1.415 . S
C672 H648 0.950 . S
C672 C667 1.363 . S
C672 C671 1.415 . S
C673 H649 0.951 . S
C673 C674 1.366 . S
C673 C675 1.388 . S
C674 C673 1.366 . S
C674 C678 1.385 . S
C675 H650 0.951 . S
C675 C673 1.388 . S
C675 C676 1.366 . S
C676 C675 1.366 . S
C676 C677 1.414 . S
C676 C679 1.499 . S
C677 H651 0.950 . S
C677 C676 1.414 . S
C677 C678 1.374 . S
C678 H652 0.950 . S
C678 C674 1.385 . S
C678 C677 1.374 . S
C679 C676 1.499 . S
C679 C680 1.373 . S
C679 C681 1.389 . S
C680 H653 0.950 . S
C680 C666 1.389 . S
C680 C679 1.373 . S
C681 C665 1.377 . S
C681 C679 1.389 . S
C681 C682 1.524 . S
C682 C681 1.524 . S
C682 C683 1.397 . S
C682 C687 1.363 . S
C683 H654 0.950 . S
C683 C682 1.397 . S
C683 C684 1.334 . S
C684 H655 0.950 . S
C684 C683 1.334 . S
C684 C685 1.287 . S
C685 C684 1.287 . S
C685 C686 1.524 . S
C685 H688 0.999 . S
C686 H656 0.950 . S
C686 C685 1.524 . S
C686 C687 1.415 . S
C687 H657 0.950 . S
C687 C682 1.363 . S
C687 C686 1.415 . S
H688 C685 0.999 . S
H689 C670 0.913 . S
H690 C708 0.951 . S
H691 C710 0.951 . S
H692 C712 0.950 . S
H693 C713 0.950 . S
H694 C715 0.950 . S
H695 C718 0.950 . S
H696 C719 0.950 . S
H697 C721 0.950 . S
H698 C722 0.950 . S
H699 C723 0.951 . S
H700 C725 0.951 . S
H701 C727 0.950 . S
H702 C728 0.950 . S
H703 C730 0.950 . S
H704 C733 0.950 . S
H705 C734 0.950 . S
H706 C736 0.950 . S
H707 C737 0.950 . S
C708 H690 0.951 . S
C708 C709 1.366 . S
C708 C710 1.388 . S
C709 C708 1.366 . S
C709 C713 1.385 . S
C710 H691 0.951 . S
C710 C708 1.388 . S
C710 C711 1.366 . S
C711 C710 1.366 . S
C711 C712 1.414 . S
C711 C714 1.499 . S
C712 H692 0.950 . S
C712 C711 1.414 . S
C712 C713 1.374 . S
C713 H693 0.950 . S
C713 C709 1.385 . S
C713 C712 1.374 . S
C714 C711 1.499 . S
C714 C715 1.373 . S
C714 C716 1.389 . S
C715 H694 0.950 . S
C715 C714 1.373 . S
C715 C731 1.377 . S
C716 C714 1.389 . S
C716 C717 1.524 . S
C716 C730 1.377 . S
C717 C716 1.524 . S
C717 C718 1.397 . S
C717 C722 1.363 . S
C718 H695 0.950 . S
C718 C717 1.397 . S
C718 C719 1.334 . S
C719 H696 0.950 . S
C719 C718 1.334 . S
C719 C720 1.287 . S
C720 C719 1.287 . S
C720 C721 1.524 . S
C720 H739 0.913 . S
C721 H697 0.950 . S
C721 C720 1.524 . S
C721 C722 1.415 . S
C722 H698 0.950 . S
C722 C717 1.363 . S
C722 C721 1.415 . S
C723 H699 0.951 . S
C723 C724 1.366 . S
C723 C725 1.388 . S
C724 C723 1.366 . S
C724 C728 1.385 . S
C725 H700 0.951 . S
C725 C723 1.388 . S
C725 C726 1.366 . S
C726 C725 1.366 . S
C726 C727 1.414 . S
C726 C729 1.499 . S
C727 H701 0.950 . S
C727 C726 1.414 . S
C727 C728 1.374 . S
C728 H702 0.950 . S
C728 C724 1.385 . S
C728 C727 1.374 . S
C729 C726 1.499 . S
C729 C730 1.373 . S
C729 C731 1.389 . S
C730 H703 0.950 . S
C730 C716 1.377 . S
C730 C729 1.373 . S
C731 C715 1.377 . S
C731 C729 1.389 . S
C731 C732 1.524 . S
C732 C731 1.524 . S
C732 C733 1.397 . S
C732 C737 1.363 . S
C733 H704 0.950 . S
C733 C732 1.397 . S
C733 C734 1.334 . S
C734 H705 0.950 . S
C734 C733 1.334 . S
C734 C735 1.287 . S
C735 C734 1.287 . S
C735 C736 1.524 . S
C735 H738 0.999 . S
C736 H706 0.950 . S
C736 C735 1.524 . S
C736 C737 1.415 . S
C737 H707 0.950 . S
C737 C732 1.363 . S
C737 C736 1.415 . S
H738 C735 0.999 . S
H739 C720 0.913 . S
H740 C758 0.951 . S
H741 C760 0.951 . S
H742 C762 0.950 . S
H743 C763 0.950 . S
H744 C765 0.950 . S
H745 C768 0.950 . S
H746 C769 0.950 . S
H747 C771 0.950 . S
H748 C772 0.950 . S
H749 C773 0.951 . S
H750 C775 0.951 . S
H751 C777 0.950 . S
H752 C778 0.950 . S
H753 C780 0.950 . S
H754 C783 0.950 . S
H755 C784 0.950 . S
H756 C786 0.950 . S
H757 C787 0.950 . S
C758 H740 0.951 . S
C758 C759 1.366 . S
C758 C760 1.388 . S
C759 C758 1.366 . S
C759 C763 1.385 . S
C760 H741 0.951 . S
C760 C758 1.388 . S
C760 C761 1.366 . S
C761 C760 1.366 . S
C761 C762 1.414 . S
C761 C764 1.499 1_565 S
C762 H742 0.950 . S
C762 C761 1.414 . S
C762 C763 1.374 . S
C763 H743 0.950 . S
C763 C759 1.385 . S
C763 C762 1.374 . S
C764 C761 1.499 1_545 S
C764 C765 1.373 . S
C764 C766 1.389 . S
C765 H744 0.950 . S
C765 C764 1.373 . S
C765 C781 1.377 . S
C766 C764 1.389 . S
C766 C767 1.524 . S
C766 C780 1.377 . S
C767 C766 1.524 . S
C767 C768 1.397 1_545 S
C767 C772 1.363 . S
C768 H745 0.950 . S
C768 C767 1.397 1_565 S
C768 C769 1.334 . S
C769 H746 0.950 . S
C769 C768 1.334 . S
C769 C770 1.287 . S
C770 C769 1.287 . S
C770 C771 1.524 1_565 S
C770 H789 0.913 . S
C771 H747 0.950 . S
C771 C770 1.524 1_545 S
C771 C772 1.415 . S
C772 H748 0.950 . S
C772 C767 1.363 . S
C772 C771 1.415 . S
C773 H749 0.951 . S
C773 C774 1.366 . S
C773 C775 1.388 . S
C774 C773 1.366 . S
C774 C778 1.385 . S
C775 H750 0.951 . S
C775 C773 1.388 . S
C775 C776 1.366 . S
C776 C775 1.366 . S
C776 C777 1.414 . S
C776 C779 1.499 . S
C777 H751 0.950 . S
C777 C776 1.414 . S
C777 C778 1.374 . S
C778 H752 0.950 . S
C778 C774 1.385 . S
C778 C777 1.374 . S
C779 C776 1.499 . S
C779 C780 1.373 . S
C779 C781 1.389 . S
C780 H753 0.950 . S
C780 C766 1.377 . S
C780 C779 1.373 . S
C781 C765 1.377 . S
C781 C779 1.389 . S
C781 C782 1.524 . S
C782 C781 1.524 . S
C782 C783 1.397 . S
C782 C787 1.363 . S
C783 H754 0.950 . S
C783 C782 1.397 . S
C783 C784 1.334 . S
C784 H755 0.950 . S
C784 C783 1.334 . S
C784 C785 1.287 . S
C785 C784 1.287 . S
C785 C786 1.524 . S
C785 H788 0.999 . S
C786 H756 0.950 . S
C786 C785 1.524 . S
C786 C787 1.415 . S
C787 H757 0.950 . S
C787 C782 1.363 . S
C787 C786 1.415 . S
H788 C785 0.999 . S
H789 C770 0.913 . S
H790 C808 0.951 . S
H791 C810 0.951 . S
H792 C812 0.950 . S
H793 C813 0.950 . S
H794 C815 0.950 . S
H795 C818 0.950 . S
H796 C819 0.950 . S
H797 C821 0.950 . S
H798 C822 0.950 . S
H799 C823 0.951 . S
H800 C825 0.951 . S
H801 C827 0.950 . S
H802 C828 0.950 . S
H803 C830 0.950 . S
H804 C833 0.950 . S
H805 C834 0.950 . S
H806 C836 0.950 . S
H807 C837 0.950 . S
C808 H790 0.951 . S
C808 C809 1.366 . S
C808 C810 1.388 . S
C809 C808 1.366 . S
C809 C813 1.385 . S
C810 H791 0.951 . S
C810 C808 1.388 . S
C810 C811 1.366 . S
C811 C810 1.366 . S
C811 C812 1.414 . S
C811 C814 1.499 . S
C812 H792 0.950 . S
C812 C811 1.414 . S
C812 C813 1.374 . S
C813 H793 0.950 . S
C813 C809 1.385 . S
C813 C812 1.374 . S
C814 C811 1.499 . S
C814 C815 1.373 . S
C814 C816 1.389 . S
C815 H794 0.950 . S
C815 C814 1.373 . S
C815 C831 1.377 . S
C816 C814 1.389 . S
C816 C817 1.524 . S
C816 C830 1.377 . S
C817 C816 1.524 . S
C817 C818 1.397 . S
C817 C822 1.363 . S
C818 H795 0.950 . S
C818 C817 1.397 . S
C818 C819 1.334 . S
C819 H796 0.950 . S
C819 C818 1.334 . S
C819 C820 1.287 . S
C820 C819 1.287 . S
C820 C821 1.524 . S
C820 H839 0.913 . S
C821 H797 0.950 . S
C821 C820 1.524 . S
C821 C822 1.415 . S
C822 H798 0.950 . S
C822 C817 1.363 . S
C822 C821 1.415 . S
C823 H799 0.951 . S
C823 C824 1.366 . S
C823 C825 1.388 . S
C824 C823 1.366 . S
C824 C828 1.385 . S
C825 H800 0.951 . S
C825 C823 1.388 . S
C825 C826 1.366 . S
C826 C825 1.366 . S
C826 C827 1.414 . S
C826 C829 1.499 . S
C827 H801 0.950 . S
C827 C826 1.414 . S
C827 C828 1.374 . S
C828 H802 0.950 . S
C828 C824 1.385 . S
C828 C827 1.374 . S
C829 C826 1.499 . S
C829 C830 1.373 . S
C829 C831 1.389 . S
C830 H803 0.950 . S
C830 C816 1.377 . S
C830 C829 1.373 . S
C831 C815 1.377 . S
C831 C829 1.389 . S
C831 C832 1.524 . S
C832 C831 1.524 . S
C832 C833 1.397 . S
C832 C837 1.363 . S
C833 H804 0.950 . S
C833 C832 1.397 . S
C833 C834 1.334 . S
C834 H805 0.950 . S
C834 C833 1.334 . S
C834 C835 1.287 . S
C835 C834 1.287 . S
C835 C836 1.524 . S
C835 H838 0.999 . S
C836 H806 0.950 . S
C836 C835 1.524 . S
C836 C837 1.415 . S
C837 H807 0.950 . S
C837 C832 1.363 . S
C837 C836 1.415 . S
H838 C835 0.999 . S
H839 C820 0.913 . S
H840 C858 0.951 . S
H841 C860 0.951 . S
H842 C862 0.950 . S
H843 C863 0.950 . S
H844 C865 0.950 . S
H845 C868 0.950 . S
H846 C869 0.950 . S
H847 C871 0.950 . S
H848 C872 0.950 . S
H849 C873 0.951 . S
H850 C875 0.951 . S
H851 C877 0.950 . S
H852 C878 0.950 . S
H853 C880 0.950 . S
H854 C883 0.950 . S
H855 C884 0.950 . S
H856 C886 0.950 . S
H857 C887 0.950 . S
C858 H840 0.951 . S
C858 C859 1.366 . S
C858 C860 1.388 . S
C859 C858 1.366 . S
C859 C863 1.385 . S
C860 H841 0.951 . S
C860 C858 1.388 . S
C860 C861 1.366 . S
C861 C860 1.366 . S
C861 C862 1.414 . S
C861 C864 1.499 . S
C862 H842 0.950 . S
C862 C861 1.414 . S
C862 C863 1.374 . S
C863 H843 0.950 . S
C863 C859 1.385 . S
C863 C862 1.374 . S
C864 C861 1.499 . S
C864 C865 1.373 . S
C864 C866 1.389 . S
C865 H844 0.950 . S
C865 C864 1.373 . S
C865 C881 1.377 . S
C866 C864 1.389 . S
C866 C867 1.524 . S
C866 C880 1.377 . S
C867 C866 1.524 . S
C867 C868 1.397 . S
C867 C872 1.363 . S
C868 H845 0.950 . S
C868 C867 1.397 . S
C868 C869 1.334 . S
C869 H846 0.950 . S
C869 C868 1.334 . S
C869 C870 1.287 . S
C870 C869 1.287 . S
C870 C871 1.524 . S
C870 H889 0.913 . S
C871 H847 0.950 . S
C871 C870 1.524 . S
C871 C872 1.415 . S
C872 H848 0.950 . S
C872 C867 1.363 . S
C872 C871 1.415 . S
C873 H849 0.951 . S
C873 C874 1.366 . S
C873 C875 1.388 . S
C874 C873 1.366 . S
C874 C878 1.385 . S
C875 H850 0.951 . S
C875 C873 1.388 . S
C875 C876 1.366 . S
C876 C875 1.366 . S
C876 C877 1.414 . S
C876 C879 1.499 . S
C877 H851 0.950 . S
C877 C876 1.414 . S
C877 C878 1.374 . S
C878 H852 0.950 . S
C878 C874 1.385 . S
C878 C877 1.374 . S
C879 C876 1.499 . S
C879 C880 1.373 . S
C879 C881 1.389 . S
C880 H853 0.950 . S
C880 C866 1.377 . S
C880 C879 1.373 . S
C881 C865 1.377 . S
C881 C879 1.389 . S
C881 C882 1.524 . S
C882 C881 1.524 . S
C882 C883 1.397 . S
C882 C887 1.363 . S
C883 H854 0.950 . S
C883 C882 1.397 . S
C883 C884 1.334 . S
C884 H855 0.950 . S
C884 C883 1.334 . S
C884 C885 1.287 . S
C885 C884 1.287 . S
C885 C886 1.524 . S
C885 H888 0.999 . S
C886 H856 0.950 . S
C886 C885 1.524 . S
C886 C887 1.415 . S
C887 H857 0.950 . S
C887 C882 1.363 . S
C887 C886 1.415 . S
H888 C885 0.999 . S
H889 C870 0.913 . S
H890 C908 0.951 . S
H891 C910 0.951 . S
H892 C912 0.950 . S
H893 C913 0.950 . S
H894 C915 0.950 1_455 S
H895 C918 0.950 . S
H896 C919 0.950 . S
H897 C921 0.950 . S
H898 C922 0.950 . S
H899 C923 0.951 . S
H900 C925 0.951 . S
H901 C927 0.950 . S
H902 C928 0.950 . S
H903 C930 0.950 . S
H904 C933 0.950 . S
H905 C934 0.950 . S
H906 C936 0.950 . S
H907 C937 0.950 . S
C908 H890 0.951 . S
C908 C909 1.366 . S
C908 C910 1.388 . S
C909 C908 1.366 . S
C909 C913 1.385 . S
C910 H891 0.951 . S
C910 C908 1.388 . S
C910 C911 1.366 . S
C911 C910 1.366 . S
C911 C912 1.414 . S
C911 C914 1.499 1_455 S
C912 H892 0.950 . S
C912 C911 1.414 . S
C912 C913 1.374 . S
C913 H893 0.950 . S
C913 C909 1.385 . S
C913 C912 1.374 . S
C914 C911 1.499 1_655 S
C914 C915 1.373 . S
C914 C916 1.389 . S
C915 H894 0.950 1_655 S
C915 C914 1.373 . S
C915 C931 1.377 . S
C916 C914 1.389 . S
C916 C917 1.524 . S
C916 C930 1.377 . S
C917 C916 1.524 . S
C917 C918 1.397 . S
C917 C922 1.363 . S
C918 H895 0.950 . S
C918 C917 1.397 . S
C918 C919 1.334 . S
C919 H896 0.950 . S
C919 C918 1.334 . S
C919 C920 1.287 . S
C920 C919 1.287 . S
C920 C921 1.524 . S
C920 H939 0.913 . S
C921 H897 0.950 . S
C921 C920 1.524 . S
C921 C922 1.415 . S
C922 H898 0.950 . S
C922 C917 1.363 . S
C922 C921 1.415 . S
C923 H899 0.951 . S
C923 C924 1.366 . S
C923 C925 1.388 . S
C924 C923 1.366 . S
C924 C928 1.385 . S
C925 H900 0.951 . S
C925 C923 1.388 . S
C925 C926 1.366 . S
C926 C925 1.366 . S
C926 C927 1.414 . S
C926 C929 1.499 . S
C927 H901 0.950 . S
C927 C926 1.414 . S
C927 C928 1.374 . S
C928 H902 0.950 . S
C928 C924 1.385 . S
C928 C927 1.374 . S
C929 C926 1.499 . S
C929 C930 1.373 . S
C929 C931 1.389 . S
C930 H903 0.950 . S
C930 C916 1.377 . S
C930 C929 1.373 . S
C931 C915 1.377 . S
C931 C929 1.389 . S
C931 C932 1.524 . S
C932 C931 1.524 . S
C932 C933 1.397 . S
C932 C937 1.363 . S
C933 H904 0.950 . S
C933 C932 1.397 . S
C933 C934 1.334 . S
C934 H905 0.950 . S
C934 C933 1.334 . S
C934 C935 1.287 . S
C935 C934 1.287 . S
C935 C936 1.524 . S
C935 H938 0.999 . S
C936 H906 0.950 . S
C936 C935 1.524 . S
C936 C937 1.415 . S
C937 H907 0.950 . S
C937 C932 1.363 . S
C937 C936 1.415 . S
H938 C935 0.999 . S
H939 C920 0.913 . S
H940 C958 0.951 . S
H941 C960 0.951 . S
H942 C962 0.950 . S
H943 C963 0.950 . S
H944 C965 0.950 . S
H945 C968 0.950 . S
H946 C969 0.950 . S
H947 C971 0.950 . S
H948 C972 0.950 . S
H949 C973 0.951 . S
H950 C975 0.951 . S
H951 C977 0.950 . S
H952 C978 0.950 . S
H953 C980 0.950 . S
H954 C983 0.950 . S
H955 C984 0.950 . S
H956 C986 0.950 . S
H957 C987 0.950 . S
C958 H940 0.951 . S
C958 C959 1.366 . S
C958 C960 1.388 . S
C959 C958 1.366 . S
C959 C963 1.385 . S
C960 H941 0.951 . S
C960 C958 1.388 . S
C960 C961 1.366 . S
C961 C960 1.366 . S
C961 C962 1.414 . S
C961 C964 1.499 . S
C962 H942 0.950 . S
C962 C961 1.414 . S
C962 C963 1.374 . S
C963 H943 0.950 . S
C963 C959 1.385 . S
C963 C962 1.374 . S
C964 C961 1.499 . S
C964 C965 1.373 . S
C964 C966 1.389 . S
C965 H944 0.950 . S
C965 C964 1.373 . S
C965 C981 1.377 . S
C966 C964 1.389 . S
C966 C967 1.524 . S
C966 C980 1.377 . S
C967 C966 1.524 . S
C967 C968 1.397 . S
C967 C972 1.363 . S
C968 H945 0.950 . S
C968 C967 1.397 . S
C968 C969 1.334 . S
C969 H946 0.950 . S
C969 C968 1.334 . S
C969 C970 1.287 . S
C970 C969 1.287 . S
C970 C971 1.524 . S
C970 H989 0.913 . S
C971 H947 0.950 . S
C971 C970 1.524 . S
C971 C972 1.415 . S
C972 H948 0.950 . S
C972 C967 1.363 . S
C972 C971 1.415 . S
C973 H949 0.951 . S
C973 C974 1.366 . S
C973 C975 1.388 . S
C974 C973 1.366 . S
C974 C978 1.385 . S
C975 H950 0.951 . S
C975 C973 1.388 . S
C975 C976 1.366 . S
C976 C975 1.366 . S
C976 C977 1.414 . S
C976 C979 1.499 . S
C977 H951 0.950 . S
C977 C976 1.414 . S
C977 C978 1.374 . S
C978 H952 0.950 . S
C978 C974 1.385 . S
C978 C977 1.374 . S
C979 C976 1.499 . S
C979 C980 1.373 . S
C979 C981 1.389 . S
C980 H953 0.950 . S
C980 C966 1.377 . S
C980 C979 1.373 . S
C981 C965 1.377 . S
C981 C979 1.389 . S
C981 C982 1.524 . S
C982 C981 1.524 . S
C982 C983 1.397 . S
C982 C987 1.363 . S
C983 H954 0.950 . S
C983 C982 1.397 . S
C983 C984 1.334 . S
C984 H955 0.950 . S
C984 C983 1.334 . S
C984 C985 1.287 . S
C985 C984 1.287 . S
C985 C986 1.524 . S
C985 H988 0.999 . S
C986 H956 0.950 . S
C986 C985 1.524 . S
C986 C987 1.415 . S
C987 H957 0.950 . S
C987 C982 1.363 . S
C987 C986 1.415 . S
H988 C985 0.999 . S
H989 C970 0.913 . S
H990 C1008 0.951 . S
H991 C1010 0.951 . S
H992 C1012 0.950 . S
H993 C1013 0.950 . S
H994 C1015 0.950 . S
H995 C1018 0.950 . S
H996 C1019 0.950 . S
H997 C1021 0.950 . S
H998 C1022 0.950 . S
H999 C1023 0.951 . S
H1000 C1025 0.951 . S
H1001 C1027 0.950 . S
H1002 C1028 0.950 . S
H1003 C1030 0.950 . S
H1004 C1033 0.950 . S
H1005 C1034 0.950 . S
H1006 C1036 0.950 . S
H1007 C1037 0.950 . S
C1008 H990 0.951 . S
C1008 C1009 1.366 . S
C1008 C1010 1.388 . S
C1009 C1008 1.366 . S
C1009 C1013 1.385 . S
C1010 H991 0.951 . S
C1010 C1008 1.388 . S
C1010 C1011 1.366 . S
C1011 C1010 1.366 . S
C1011 C1012 1.414 . S
C1011 C1014 1.514 . S
C1012 H992 0.950 . S
C1012 C1011 1.414 . S
C1012 C1013 1.374 . S
C1013 H993 0.950 . S
C1013 C1009 1.385 . S
C1013 C1012 1.374 . S
C1014 C1011 1.514 . S
C1014 C1015 1.356 1_655 S
C1014 C1016 1.391 . S
C1015 H994 0.950 . S
C1015 C1014 1.356 1_455 S
C1015 C1031 1.377 . S
C1016 C1014 1.391 . S
C1016 C1017 1.524 . S
C1016 C1030 1.377 1_655 S
C1017 C1016 1.524 . S
C1017 C1018 1.397 . S
C1017 C1022 1.363 . S
C1018 H995 0.950 . S
C1018 C1017 1.397 . S
C1018 C1019 1.334 . S
C1019 H996 0.950 . S
C1019 C1018 1.334 . S
C1019 C1020 1.287 . S
C1020 C1019 1.287 . S
C1020 C1021 1.524 . S
C1020 H1039 0.913 . S
C1021 H997 0.950 . S
C1021 C1020 1.524 . S
C1021 C1022 1.415 . S
C1022 H998 0.950 . S
C1022 C1017 1.363 . S
C1022 C1021 1.415 . S
C1023 H999 0.951 . S
C1023 C1024 1.366 . S
C1023 C1025 1.388 . S
C1024 C1023 1.366 . S
C1024 C1028 1.385 . S
C1025 H1000 0.951 . S
C1025 C1023 1.388 . S
C1025 C1026 1.366 . S
C1026 C1025 1.366 . S
C1026 C1027 1.414 . S
C1026 C1029 1.499 . S
C1027 H1001 0.950 . S
C1027 C1026 1.414 . S
C1027 C1028 1.374 . S
C1028 H1002 0.950 . S
C1028 C1024 1.385 . S
C1028 C1027 1.374 . S
C1029 C1026 1.499 . S
C1029 C1030 1.373 . S
C1029 C1031 1.389 . S
C1030 H1003 0.950 . S
C1030 C1016 1.377 1_455 S
C1030 C1029 1.373 . S
C1031 C1015 1.377 . S
C1031 C1029 1.389 . S
C1031 C1032 1.524 . S
C1032 C1031 1.524 . S
C1032 C1033 1.397 . S
C1032 C1037 1.363 . S
C1033 H1004 0.950 . S
C1033 C1032 1.397 . S
C1033 C1034 1.334 . S
C1034 H1005 0.950 . S
C1034 C1033 1.334 . S
C1034 C1035 1.287 . S
C1035 C1034 1.287 . S
C1035 C1036 1.524 . S
C1035 H1038 0.999 . S
C1036 H1006 0.950 . S
C1036 C1035 1.524 . S
C1036 C1037 1.415 . S
C1037 H1007 0.950 . S
C1037 C1032 1.363 . S
C1037 C1036 1.415 . S
H1038 C1035 0.999 . S
H1039 C1020 0.913 . S
H1040 C1058 0.951 . S
H1041 C1060 0.951 . S
H1042 C1062 0.950 . S
H1043 C1063 0.950 . S
H1044 C1065 0.950 . S
H1045 C1068 0.950 . S
H1046 C1069 0.950 . S
H1047 C1071 0.950 . S
H1048 C1072 0.950 . S
H1049 C1073 0.951 . S
H1050 C1075 0.951 . S
H1051 C1077 0.950 . S
H1052 C1078 0.950 . S
H1053 C1080 0.950 . S
H1054 C1083 0.950 . S
H1055 C1084 0.950 . S
H1056 C1086 0.950 . S
H1057 C1087 0.950 . S
C1058 H1040 0.951 . S
C1058 C1059 1.366 . S
C1058 C1060 1.388 . S
C1059 C1058 1.366 . S
C1059 C1063 1.385 . S
C1060 H1041 0.951 . S
C1060 C1058 1.388 . S
C1060 C1061 1.366 . S
C1061 C1060 1.366 . S
C1061 C1062 1.414 . S
C1061 C1064 1.499 . S
C1062 H1042 0.950 . S
C1062 C1061 1.414 . S
C1062 C1063 1.374 . S
C1063 H1043 0.950 . S
C1063 C1059 1.385 . S
C1063 C1062 1.374 . S
C1064 C1061 1.499 . S
C1064 C1065 1.373 . S
C1064 C1066 1.389 . S
C1065 H1044 0.950 . S
C1065 C1064 1.373 . S
C1065 C1081 1.377 . S
C1066 C1064 1.389 . S
C1066 C1067 1.524 . S
C1066 C1080 1.377 . S
C1067 C1066 1.524 . S
C1067 C1068 1.397 . S
C1067 C1072 1.363 . S
C1068 H1045 0.950 . S
C1068 C1067 1.397 . S
C1068 C1069 1.334 . S
C1069 H1046 0.950 . S
C1069 C1068 1.334 . S
C1069 C1070 1.287 . S
C1070 C1069 1.287 . S
C1070 C1071 1.524 . S
C1070 H1089 0.913 . S
C1071 H1047 0.950 . S
C1071 C1070 1.524 . S
C1071 C1072 1.415 . S
C1072 H1048 0.950 . S
C1072 C1067 1.363 . S
C1072 C1071 1.415 . S
C1073 H1049 0.951 . S
C1073 C1074 1.366 . S
C1073 C1075 1.388 . S
C1074 C1073 1.366 . S
C1074 C1078 1.385 . S
C1075 H1050 0.951 . S
C1075 C1073 1.388 . S
C1075 C1076 1.366 . S
C1076 C1075 1.366 . S
C1076 C1077 1.414 . S
C1076 C1079 1.499 . S
C1077 H1051 0.950 . S
C1077 C1076 1.414 . S
C1077 C1078 1.374 . S
C1078 H1052 0.950 . S
C1078 C1074 1.385 . S
C1078 C1077 1.374 . S
C1079 C1076 1.499 . S
C1079 C1080 1.373 . S
C1079 C1081 1.389 . S
C1080 H1053 0.950 . S
C1080 C1066 1.377 . S
C1080 C1079 1.373 . S
C1081 C1065 1.377 . S
C1081 C1079 1.389 . S
C1081 C1082 1.524 . S
C1082 C1081 1.524 . S
C1082 C1083 1.397 . S
C1082 C1087 1.363 . S
C1083 H1054 0.950 . S
C1083 C1082 1.397 . S
C1083 C1084 1.334 . S
C1084 H1055 0.950 . S
C1084 C1083 1.334 . S
C1084 C1085 1.287 . S
C1085 C1084 1.287 . S
C1085 C1086 1.524 . S
C1085 H1088 0.999 . S
C1086 H1056 0.950 . S
C1086 C1085 1.524 . S
C1086 C1087 1.415 . S
C1087 H1057 0.950 . S
C1087 C1082 1.363 . S
C1087 C1086 1.415 . S
H1088 C1085 0.999 . S
H1089 C1070 0.913 . S
H1090 C1108 0.951 . S
H1091 C1110 0.951 . S
H1092 C1112 0.950 . S
H1093 C1113 0.950 . S
H1094 C1115 0.950 . S
H1095 C1118 0.950 . S
H1096 C1119 0.950 . S
H1097 C1121 0.950 . S
H1098 C1122 0.950 . S
H1099 C1123 0.951 . S
H1100 C1125 0.951 . S
H1101 C1127 0.950 . S
H1102 C1128 0.950 . S
H1103 C1130 0.950 . S
H1104 C1133 0.950 . S
H1105 C1134 0.950 . S
H1106 C1136 0.950 . S
H1107 C1137 0.950 . S
C1108 H1090 0.951 . S
C1108 C1109 1.366 . S
C1108 C1110 1.388 . S
C1109 C1108 1.366 . S
C1109 C1113 1.385 . S
C1110 H1091 0.951 . S
C1110 C1108 1.388 . S
C1110 C1111 1.366 . S
C1111 C1110 1.366 . S
C1111 C1112 1.414 . S
C1111 C1114 1.499 . S
C1112 H1092 0.950 . S
C1112 C1111 1.414 . S
C1112 C1113 1.374 . S
C1113 H1093 0.950 . S
C1113 C1109 1.385 . S
C1113 C1112 1.374 . S
C1114 C1111 1.499 . S
C1114 C1115 1.373 . S
C1114 C1116 1.389 . S
C1115 H1094 0.950 . S
C1115 C1114 1.373 . S
C1115 C1131 1.377 . S
C1116 C1114 1.389 . S
C1116 C1117 1.524 . S
C1116 C1130 1.377 . S
C1117 C1116 1.524 . S
C1117 C1118 1.397 . S
C1117 C1122 1.363 . S
C1118 H1095 0.950 . S
C1118 C1117 1.397 . S
C1118 C1119 1.334 . S
C1119 H1096 0.950 . S
C1119 C1118 1.334 . S
C1119 C1120 1.287 . S
C1120 C1119 1.287 . S
C1120 C1121 1.524 . S
C1120 H1139 0.913 . S
C1121 H1097 0.950 . S
C1121 C1120 1.524 . S
C1121 C1122 1.415 . S
C1122 H1098 0.950 . S
C1122 C1117 1.363 . S
C1122 C1121 1.415 . S
C1123 H1099 0.951 . S
C1123 C1124 1.366 . S
C1123 C1125 1.388 . S
C1124 C1123 1.366 . S
C1124 C1128 1.385 . S
C1125 H1100 0.951 . S
C1125 C1123 1.388 . S
C1125 C1126 1.366 . S
C1126 C1125 1.366 . S
C1126 C1127 1.414 . S
C1126 C1129 1.499 . S
C1127 H1101 0.950 . S
C1127 C1126 1.414 . S
C1127 C1128 1.374 . S
C1128 H1102 0.950 . S
C1128 C1124 1.385 . S
C1128 C1127 1.374 . S
C1129 C1126 1.499 . S
C1129 C1130 1.373 . S
C1129 C1131 1.389 . S
C1130 H1103 0.950 . S
C1130 C1116 1.377 . S
C1130 C1129 1.373 . S
C1131 C1115 1.377 . S
C1131 C1129 1.389 . S
C1131 C1132 1.524 . S
C1132 C1131 1.524 . S
C1132 C1133 1.397 . S
C1132 C1137 1.363 . S
C1133 H1104 0.950 . S
C1133 C1132 1.397 . S
C1133 C1134 1.334 . S
C1134 H1105 0.950 . S
C1134 C1133 1.334 . S
C1134 C1135 1.287 . S
C1135 C1134 1.287 . S
C1135 C1136 1.524 . S
C1135 H1138 0.999 . S
C1136 H1106 0.950 . S
C1136 C1135 1.524 . S
C1136 C1137 1.415 . S
C1137 H1107 0.950 . S
C1137 C1132 1.363 . S
C1137 C1136 1.415 . S
H1138 C1135 0.999 . S
H1139 C1120 0.913 . S
H1140 C1158 0.951 . S
H1141 C1160 0.951 . S
H1142 C1162 0.950 . S
H1143 C1163 0.950 . S
H1144 C1165 0.950 . S
H1145 C1168 0.950 . S
H1146 C1169 0.950 . S
H1147 C1171 0.950 . S
H1148 C1172 0.950 . S
H1149 C1173 0.951 . S
H1150 C1175 0.951 . S
H1151 C1177 0.950 . S
H1152 C1178 0.950 . S
H1153 C1180 0.950 . S
H1154 C1183 0.950 . S
H1155 C1184 0.950 . S
H1156 C1186 0.950 . S
H1157 C1187 0.950 . S
C1158 H1140 0.951 . S
C1158 C1159 1.366 . S
C1158 C1160 1.388 . S
C1159 C1158 1.366 . S
C1159 C1163 1.385 . S
C1160 H1141 0.951 . S
C1160 C1158 1.388 . S
C1160 C1161 1.366 . S
C1161 C1160 1.366 . S
C1161 C1162 1.414 . S
C1161 C1164 1.499 . S
C1162 H1142 0.950 . S
C1162 C1161 1.414 . S
C1162 C1163 1.374 . S
C1163 H1143 0.950 . S
C1163 C1159 1.385 . S
C1163 C1162 1.374 . S
C1164 C1161 1.499 . S
C1164 C1165 1.373 . S
C1164 C1166 1.389 . S
C1165 H1144 0.950 . S
C1165 C1164 1.373 . S
C1165 C1181 1.377 . S
C1166 C1164 1.389 . S
C1166 C1167 1.524 . S
C1166 C1180 1.377 . S
C1167 C1166 1.524 . S
C1167 C1168 1.397 . S
C1167 C1172 1.363 . S
C1168 H1145 0.950 . S
C1168 C1167 1.397 . S
C1168 C1169 1.334 . S
C1169 H1146 0.950 . S
C1169 C1168 1.334 . S
C1169 C1170 1.287 . S
C1170 C1169 1.287 . S
C1170 C1171 1.524 . S
C1170 H1189 0.913 . S
C1171 H1147 0.950 . S
C1171 C1170 1.524 . S
C1171 C1172 1.415 . S
C1172 H1148 0.950 . S
C1172 C1167 1.363 . S
C1172 C1171 1.415 . S
C1173 H1149 0.951 . S
C1173 C1174 1.366 . S
C1173 C1175 1.388 . S
C1174 C1173 1.366 . S
C1174 C1178 1.385 . S
C1175 H1150 0.951 . S
C1175 C1173 1.388 . S
C1175 C1176 1.366 . S
C1176 C1175 1.366 . S
C1176 C1177 1.414 . S
C1176 C1179 1.499 . S
C1177 H1151 0.950 . S
C1177 C1176 1.414 . S
C1177 C1178 1.374 . S
C1178 H1152 0.950 . S
C1178 C1174 1.385 . S
C1178 C1177 1.374 . S
C1179 C1176 1.499 . S
C1179 C1180 1.373 . S
C1179 C1181 1.389 . S
C1180 H1153 0.950 . S
C1180 C1166 1.377 . S
C1180 C1179 1.373 . S
C1181 C1165 1.377 . S
C1181 C1179 1.389 . S
C1181 C1182 1.524 . S
C1182 C1181 1.524 . S
C1182 C1183 1.397 . S
C1182 C1187 1.363 . S
C1183 H1154 0.950 . S
C1183 C1182 1.397 . S
C1183 C1184 1.334 . S
C1184 H1155 0.950 . S
C1184 C1183 1.334 . S
C1184 C1185 1.287 . S
C1185 C1184 1.287 . S
C1185 C1186 1.524 . S
C1185 H1188 0.999 . S
C1186 H1156 0.950 . S
C1186 C1185 1.524 . S
C1186 C1187 1.415 . S
C1187 H1157 0.950 . S
C1187 C1182 1.363 . S
C1187 C1186 1.415 . S
H1188 C1185 0.999 . S
H1189 C1170 0.913 . S
H1190 C1208 0.951 . S
H1191 C1210 0.951 . S
H1192 C1212 0.950 . S
H1193 C1213 0.950 . S
H1194 C1215 0.950 . S
H1195 C1218 0.950 . S
H1196 C1219 0.950 . S
H1197 C1221 0.950 . S
H1198 C1222 0.950 . S
H1199 C1223 0.951 . S
H1200 C1225 0.951 . S
H1201 C1227 0.950 . S
H1202 C1228 0.950 . S
H1203 C1230 0.950 . S
H1204 C1233 0.950 . S
H1205 C1234 0.950 . S
H1206 C1236 0.950 . S
H1207 C1237 0.950 . S
C1208 H1190 0.951 . S
C1208 C1209 1.366 . S
C1208 C1210 1.388 . S
C1209 C1208 1.366 . S
C1209 C1213 1.385 . S
C1210 H1191 0.951 . S
C1210 C1208 1.388 . S
C1210 C1211 1.366 . S
C1211 C1210 1.366 . S
C1211 C1212 1.414 . S
C1211 C1214 1.499 . S
C1212 H1192 0.950 . S
C1212 C1211 1.414 . S
C1212 C1213 1.374 . S
C1213 H1193 0.950 . S
C1213 C1209 1.385 . S
C1213 C1212 1.374 . S
C1214 C1211 1.499 . S
C1214 C1215 1.373 . S
C1214 C1216 1.389 . S
C1215 H1194 0.950 . S
C1215 C1214 1.373 . S
C1215 C1231 1.377 . S
C1216 C1214 1.389 . S
C1216 C1217 1.524 . S
C1216 C1230 1.377 . S
C1217 C1216 1.524 . S
C1217 C1218 1.397 . S
C1217 C1222 1.363 . S
C1218 H1195 0.950 . S
C1218 C1217 1.397 . S
C1218 C1219 1.334 . S
C1219 H1196 0.950 . S
C1219 C1218 1.334 . S
C1219 C1220 1.287 . S
C1220 C1219 1.287 . S
C1220 C1221 1.524 . S
C1220 H1239 0.913 . S
C1221 H1197 0.950 . S
C1221 C1220 1.524 . S
C1221 C1222 1.415 . S
C1222 H1198 0.950 . S
C1222 C1217 1.363 . S
C1222 C1221 1.415 . S
C1223 H1199 0.951 . S
C1223 C1224 1.366 . S
C1223 C1225 1.388 . S
C1224 C1223 1.366 . S
C1224 C1228 1.385 . S
C1225 H1200 0.951 . S
C1225 C1223 1.388 . S
C1225 C1226 1.366 . S
C1226 C1225 1.366 . S
C1226 C1227 1.414 . S
C1226 C1229 1.499 . S
C1227 H1201 0.950 . S
C1227 C1226 1.414 . S
C1227 C1228 1.374 . S
C1228 H1202 0.950 . S
C1228 C1224 1.385 . S
C1228 C1227 1.374 . S
C1229 C1226 1.499 . S
C1229 C1230 1.373 . S
C1229 C1231 1.389 . S
C1230 H1203 0.950 . S
C1230 C1216 1.377 . S
C1230 C1229 1.373 . S
C1231 C1215 1.377 . S
C1231 C1229 1.389 . S
C1231 C1232 1.524 . S
C1232 C1231 1.524 . S
C1232 C1233 1.397 . S
C1232 C1237 1.363 . S
C1233 H1204 0.950 . S
C1233 C1232 1.397 . S
C1233 C1234 1.334 . S
C1234 H1205 0.950 . S
C1234 C1233 1.334 . S
C1234 C1235 1.287 . S
C1235 C1234 1.287 . S
C1235 C1236 1.524 . S
C1235 H1238 0.999 . S
C1236 H1206 0.950 . S
C1236 C1235 1.524 . S
C1236 C1237 1.415 . S
C1237 H1207 0.950 . S
C1237 C1232 1.363 . S
C1237 C1236 1.415 . S
H1238 C1235 0.999 . S
H1239 C1220 0.913 . S
H1240 C1258 0.951 . S
H1241 C1260 0.951 . S
H1242 C1262 0.950 . S
H1243 C1263 0.950 . S
H1244 C1265 0.950 . S
H1245 C1268 0.950 . S
H1246 C1269 0.950 . S
H1247 C1271 0.950 . S
H1248 C1272 0.950 . S
H1249 C1273 0.951 . S
H1250 C1275 0.951 . S
H1251 C1277 0.950 . S
H1252 C1278 0.950 . S
H1253 C1280 0.950 . S
H1254 C1283 0.950 . S
H1255 C1284 0.950 . S
H1256 C1286 0.950 . S
H1257 C1287 0.950 . S
C1258 H1240 0.951 . S
C1258 C1259 1.366 . S
C1258 C1260 1.388 . S
C1259 C1258 1.366 . S
C1259 C1263 1.385 . S
C1260 H1241 0.951 . S
C1260 C1258 1.388 . S
C1260 C1261 1.366 . S
C1261 C1260 1.366 . S
C1261 C1262 1.414 . S
C1261 C1264 1.499 . S
C1262 H1242 0.950 . S
C1262 C1261 1.414 . S
C1262 C1263 1.374 . S
C1263 H1243 0.950 . S
C1263 C1259 1.385 . S
C1263 C1262 1.374 . S
C1264 C1261 1.499 . S
C1264 C1265 1.373 . S
C1264 C1266 1.389 . S
C1265 H1244 0.950 . S
C1265 C1264 1.373 . S
C1265 C1281 1.377 . S
C1266 C1264 1.389 . S
C1266 C1267 1.524 . S
C1266 C1280 1.377 . S
C1267 C1266 1.524 . S
C1267 C1268 1.397 . S
C1267 C1272 1.363 . S
C1268 H1245 0.950 . S
C1268 C1267 1.397 . S
C1268 C1269 1.334 . S
C1269 H1246 0.950 . S
C1269 C1268 1.334 . S
C1269 C1270 1.287 . S
C1270 C1269 1.287 . S
C1270 C1271 1.524 . S
C1270 H1289 0.913 . S
C1271 H1247 0.950 . S
C1271 C1270 1.524 . S
C1271 C1272 1.415 . S
C1272 H1248 0.950 . S
C1272 C1267 1.363 . S
C1272 C1271 1.415 . S
C1273 H1249 0.951 . S
C1273 C1274 1.366 . S
C1273 C1275 1.388 . S
C1274 C1273 1.366 . S
C1274 C1278 1.385 . S
C1275 H1250 0.951 . S
C1275 C1273 1.388 . S
C1275 C1276 1.366 . S
C1276 C1275 1.366 . S
C1276 C1277 1.414 . S
C1276 C1279 1.499 . S
C1277 H1251 0.950 . S
C1277 C1276 1.414 . S
C1277 C1278 1.374 . S
C1278 H1252 0.950 . S
C1278 C1274 1.385 . S
C1278 C1277 1.374 . S
C1279 C1276 1.499 . S
C1279 C1280 1.373 . S
C1279 C1281 1.389 . S
C1280 H1253 0.950 . S
C1280 C1266 1.377 . S
C1280 C1279 1.373 . S
C1281 C1265 1.377 . S
C1281 C1279 1.389 . S
C1281 C1282 1.524 . S
C1282 C1281 1.524 . S
C1282 C1283 1.397 . S
C1282 C1287 1.363 . S
C1283 H1254 0.950 . S
C1283 C1282 1.397 . S
C1283 C1284 1.334 . S
C1284 H1255 0.950 . S
C1284 C1283 1.334 . S
C1284 C1285 1.287 . S
C1285 C1284 1.287 . S
C1285 C1286 1.524 . S
C1285 H1288 0.999 . S
C1286 H1256 0.950 . S
C1286 C1285 1.524 . S
C1286 C1287 1.415 . S
C1287 H1257 0.950 . S
C1287 C1282 1.363 . S
C1287 C1286 1.415 . S
H1288 C1285 0.999 . S
H1289 C1270 0.913 . S
H1290 C1308 0.951 . S
H1291 C1310 0.951 . S
H1292 C1312 0.950 . S
H1293 C1313 0.950 . S
H1294 C1315 0.950 . S
H1295 C1318 0.950 . S
H1296 C1319 0.950 . S
H1297 C1321 0.950 . S
H1298 C1322 0.950 . S
H1299 C1323 0.951 . S
H1300 C1325 0.951 . S
H1301 C1327 0.950 . S
H1302 C1328 0.950 . S
H1303 C1330 0.950 . S
H1304 C1333 0.950 . S
H1305 C1334 0.950 . S
H1306 C1336 0.950 . S
H1307 C1337 0.950 . S
C1308 H1290 0.951 . S
C1308 C1309 1.366 . S
C1308 C1310 1.388 . S
C1309 C1308 1.366 . S
C1309 C1313 1.385 . S
C1310 H1291 0.951 . S
C1310 C1308 1.388 . S
C1310 C1311 1.366 . S
C1311 C1310 1.366 . S
C1311 C1312 1.414 . S
C1311 C1314 1.499 . S
C1312 H1292 0.950 . S
C1312 C1311 1.414 . S
C1312 C1313 1.374 . S
C1313 H1293 0.950 . S
C1313 C1309 1.385 . S
C1313 C1312 1.374 . S
C1314 C1311 1.499 . S
C1314 C1315 1.373 . S
C1314 C1316 1.389 . S
C1315 H1294 0.950 . S
C1315 C1314 1.373 . S
C1315 C1331 1.377 . S
C1316 C1314 1.389 . S
C1316 C1317 1.524 . S
C1316 C1330 1.377 . S
C1317 C1316 1.524 . S
C1317 C1318 1.397 . S
C1317 C1322 1.363 . S
C1318 H1295 0.950 . S
C1318 C1317 1.397 . S
C1318 C1319 1.334 . S
C1319 H1296 0.950 . S
C1319 C1318 1.334 . S
C1319 C1320 1.287 . S
C1320 C1319 1.287 . S
C1320 C1321 1.524 . S
C1320 H1339 0.913 . S
C1321 H1297 0.950 . S
C1321 C1320 1.524 . S
C1321 C1322 1.415 . S
C1322 H1298 0.950 . S
C1322 C1317 1.363 . S
C1322 C1321 1.415 . S
C1323 H1299 0.951 . S
C1323 C1324 1.366 . S
C1323 C1325 1.388 . S
C1324 C1323 1.366 . S
C1324 C1328 1.385 . S
C1325 H1300 0.951 . S
C1325 C1323 1.388 . S
C1325 C1326 1.366 . S
C1326 C1325 1.366 . S
C1326 C1327 1.414 . S
C1326 C1329 1.499 . S
C1327 H1301 0.950 . S
C1327 C1326 1.414 . S
C1327 C1328 1.374 . S
C1328 H1302 0.950 . S
C1328 C1324 1.385 . S
C1328 C1327 1.374 . S
C1329 C1326 1.499 . S
C1329 C1330 1.373 . S
C1329 C1331 1.389 . S
C1330 H1303 0.950 . S
C1330 C1316 1.377 . S
C1330 C1329 1.373 . S
C1331 C1315 1.377 . S
C1331 C1329 1.389 . S
C1331 C1332 1.524 . S
C1332 C1331 1.524 . S
C1332 C1333 1.397 . S
C1332 C1337 1.363 . S
C1333 H1304 0.950 . S
C1333 C1332 1.397 . S
C1333 C1334 1.334 . S
C1334 H1305 0.950 . S
C1334 C1333 1.334 . S
C1334 C1335 1.287 . S
C1335 C1334 1.287 . S
C1335 C1336 1.524 . S
C1335 H1338 0.999 . S
C1336 H1306 0.950 . S
C1336 C1335 1.524 . S
C1336 C1337 1.415 . S
C1337 H1307 0.950 . S
C1337 C1332 1.363 . S
C1337 C1336 1.415 . S
H1338 C1335 0.999 . S
H1339 C1320 0.913 . S
H1340 C1358 0.951 . S
H1341 C1360 0.951 . S
H1342 C1362 0.950 . S
H1343 C1363 0.950 . S
H1344 C1365 0.950 . S
H1345 C1368 0.950 . S
H1346 C1369 0.950 . S
H1347 C1371 0.950 . S
H1348 C1372 0.950 . S
H1349 C1373 0.951 . S
H1350 C1375 0.951 . S
H1351 C1377 0.950 . S
H1352 C1378 0.950 . S
H1353 C1380 0.950 . S
H1354 C1383 0.950 . S
H1355 C1384 0.950 . S
H1356 C1386 0.950 . S
H1357 C1387 0.950 . S
C1358 H1340 0.951 . S
C1358 C1359 1.366 . S
C1358 C1360 1.388 . S
C1359 C1358 1.366 . S
C1359 C1363 1.385 . S
C1360 H1341 0.951 . S
C1360 C1358 1.388 . S
C1360 C1361 1.366 . S
C1361 C1360 1.366 . S
C1361 C1362 1.414 . S
C1361 C1364 1.499 . S
C1362 H1342 0.950 . S
C1362 C1361 1.414 . S
C1362 C1363 1.374 . S
C1363 H1343 0.950 . S
C1363 C1359 1.385 . S
C1363 C1362 1.374 . S
C1364 C1361 1.499 . S
C1364 C1365 1.373 . S
C1364 C1366 1.389 . S
C1365 H1344 0.950 . S
C1365 C1364 1.373 . S
C1365 C1381 1.377 . S
C1366 C1364 1.389 . S
C1366 C1367 1.524 . S
C1366 C1380 1.377 . S
C1367 C1366 1.524 . S
C1367 C1368 1.397 . S
C1367 C1372 1.363 . S
C1368 H1345 0.950 . S
C1368 C1367 1.397 . S
C1368 C1369 1.334 . S
C1369 H1346 0.950 . S
C1369 C1368 1.334 . S
C1369 C1370 1.287 . S
C1370 C1369 1.287 . S
C1370 C1371 1.524 . S
C1370 H1389 0.913 . S
C1371 H1347 0.950 . S
C1371 C1370 1.524 . S
C1371 C1372 1.415 . S
C1372 H1348 0.950 . S
C1372 C1367 1.363 . S
C1372 C1371 1.415 . S
C1373 H1349 0.951 . S
C1373 C1374 1.366 . S
C1373 C1375 1.388 . S
C1374 C1373 1.366 . S
C1374 C1378 1.385 . S
C1375 H1350 0.951 . S
C1375 C1373 1.388 . S
C1375 C1376 1.366 . S
C1376 C1375 1.366 . S
C1376 C1377 1.414 . S
C1376 C1379 1.499 . S
C1377 H1351 0.950 . S
C1377 C1376 1.414 . S
C1377 C1378 1.374 . S
C1378 H1352 0.950 . S
C1378 C1374 1.385 . S
C1378 C1377 1.374 . S
C1379 C1376 1.499 . S
C1379 C1380 1.373 . S
C1379 C1381 1.389 . S
C1380 H1353 0.950 . S
C1380 C1366 1.377 . S
C1380 C1379 1.373 . S
C1381 C1365 1.377 . S
C1381 C1379 1.389 . S
C1381 C1382 1.524 . S
C1382 C1381 1.524 . S
C1382 C1383 1.397 . S
C1382 C1387 1.363 . S
C1383 H1354 0.950 . S
C1383 C1382 1.397 . S
C1383 C1384 1.334 . S
C1384 H1355 0.950 . S
C1384 C1383 1.334 . S
C1384 C1385 1.287 . S
C1385 C1384 1.287 . S
C1385 C1386 1.524 . S
C1385 H1388 0.999 . S
C1386 H1356 0.950 . S
C1386 C1385 1.524 . S
C1386 C1387 1.415 . S
C1387 H1357 0.950 . S
C1387 C1382 1.363 . S
C1387 C1386 1.415 . S
H1388 C1385 0.999 . S
H1389 C1370 0.913 . S
H1390 C1408 0.951 . S
H1391 C1410 0.951 . S
H1392 C1412 0.950 . S
H1393 C1413 0.950 . S
H1394 C1415 0.950 . S
H1395 C1418 0.950 . S
H1396 C1419 0.950 . S
H1397 C1421 0.950 . S
H1398 C1422 0.950 . S
H1399 C1423 0.951 . S
H1400 C1425 0.951 . S
H1401 C1427 0.950 . S
H1402 C1428 0.950 . S
H1403 C1430 0.950 . S
H1404 C1433 0.950 . S
H1405 C1434 0.950 . S
H1406 C1436 0.950 . S
H1407 C1437 0.950 . S
C1408 H1390 0.951 . S
C1408 C1409 1.366 . S
C1408 C1410 1.388 . S
C1409 C1408 1.366 . S
C1409 C1413 1.385 . S
C1410 H1391 0.951 . S
C1410 C1408 1.388 . S
C1410 C1411 1.366 . S
C1411 C1410 1.366 . S
C1411 C1412 1.414 . S
C1411 C1414 1.499 . S
C1412 H1392 0.950 . S
C1412 C1411 1.414 . S
C1412 C1413 1.374 . S
C1413 H1393 0.950 . S
C1413 C1409 1.385 . S
C1413 C1412 1.374 . S
C1414 C1411 1.499 . S
C1414 C1415 1.373 . S
C1414 C1416 1.389 . S
C1415 H1394 0.950 . S
C1415 C1414 1.373 . S
C1415 C1431 1.377 . S
C1416 C1414 1.389 . S
C1416 C1417 1.524 . S
C1416 C1430 1.377 . S
C1417 C1416 1.524 . S
C1417 C1418 1.397 . S
C1417 C1422 1.363 . S
C1418 H1395 0.950 . S
C1418 C1417 1.397 . S
C1418 C1419 1.334 . S
C1419 H1396 0.950 . S
C1419 C1418 1.334 . S
C1419 C1420 1.287 . S
C1420 C1419 1.287 . S
C1420 C1421 1.524 . S
C1420 H1439 0.913 . S
C1421 H1397 0.950 . S
C1421 C1420 1.524 . S
C1421 C1422 1.415 . S
C1422 H1398 0.950 . S
C1422 C1417 1.363 . S
C1422 C1421 1.415 . S
C1423 H1399 0.951 . S
C1423 C1424 1.366 . S
C1423 C1425 1.388 . S
C1424 C1423 1.366 . S
C1424 C1428 1.385 . S
C1425 H1400 0.951 . S
C1425 C1423 1.388 . S
C1425 C1426 1.366 . S
C1426 C1425 1.366 . S
C1426 C1427 1.414 . S
C1426 C1429 1.499 . S
C1427 H1401 0.950 . S
C1427 C1426 1.414 . S
C1427 C1428 1.374 . S
C1428 H1402 0.950 . S
C1428 C1424 1.385 . S
C1428 C1427 1.374 . S
C1429 C1426 1.499 . S
C1429 C1430 1.373 . S
C1429 C1431 1.389 . S
C1430 H1403 0.950 . S
C1430 C1416 1.377 . S
C1430 C1429 1.373 . S
C1431 C1415 1.377 . S
C1431 C1429 1.389 . S
C1431 C1432 1.524 . S
C1432 C1431 1.524 . S
C1432 C1433 1.397 . S
C1432 C1437 1.363 . S
C1433 H1404 0.950 . S
C1433 C1432 1.397 . S
C1433 C1434 1.334 . S
C1434 H1405 0.950 . S
C1434 C1433 1.334 . S
C1434 C1435 1.287 . S
C1435 C1434 1.287 . S
C1435 C1436 1.524 . S
C1435 H1438 0.999 . S
C1436 H1406 0.950 . S
C1436 C1435 1.524 . S
C1436 C1437 1.415 . S
C1437 H1407 0.950 . S
C1437 C1432 1.363 . S
C1437 C1436 1.415 . S
H1438 C1435 0.999 . S
H1439 C1420 0.913 . S
C259 C8 1.365 . S
C274 C90 1.299 . S
C309 C31 1.430 . S
C324 C109 1.360 . S
C359 C53 1.181 . S
C374 C132 1.177 . S
C424 C151 1.112 . S
C409 C74 1.115 . S
C474 C166 1.300 . S
C459 C26 1.365 . S
C509 C48 1.114 . S
C524 C189 1.112 . S
C559 C71 1.180 . S
C574 C208 1.178 . S
C609 C5 1.430 . S
C624 C223 1.360 . S
C659 C50 1.180 . S
C674 C227 1.178 . S
C724 C170 1.113 . S
C709 C70 1.114 . S
C774 C185 1.298 . S
C759 C4 1.365 . S
C809 C28 1.430 . S
C824 C204 1.360 . S
C874 C113 1.178 . S
C859 C73 1.180 . S
C909 C7 1.430 . S
C924 C128 1.359 . S
C974 C147 1.299 . S
C959 C30 1.365 . S
C1024 C94 1.113 . S
C1009 C52 1.114 . S
C1074 C213 1.264 . S
C1059 C9 1.368 . S
C1124 C232 1.271 . S
C1109 C29 1.368 . S
C1159 C51 1.261 . S
C1174 C175 1.171 . S
C1224 C194 1.168 . S
C1209 C75 1.261 . S
C1274 C137 1.266 . S
C1259 C27 1.369 . S
C1309 C49 1.261 . S
C1324 C156 1.168 . S
C1374 C99 1.170 . S
C1359 C72 1.261 . S
C1424 C118 1.272 . S
C1409 C6 1.368 . S
