# Generated by pormake.
# Topology rtl, (3,6)-cn, num edge types: 1
# Building blocks:
#     Node 0, Type 0, BuildingBlock: BETDAH_clean_linker_0, # of connection points: 3
#     Node 1, Type 0, BuildingBlock: BETDAH_clean_linker_0, # of connection points: 3
#     Node 2, Type 0, BuildingBlock: BETDAH_clean_linker_0, # of connection points: 3
#     Node 3, Type 0, BuildingBlock: BETDAH_clean_linker_0, # of connection points: 3
#     Node 4, Type 1, BuildingBlock: FUNLAD_clean_sbu_0, # of connection points: 6
#     Node 5, Type 1, BuildingBlock: FUNLAD_clean_sbu_0, # of connection points: 6
#     Edge 6, Type (0, 1), BuildingBlock: KIFKEQ_clean_linker_1, # of connection points: 2
#     Edge 7, Type (0, 1), BuildingBlock: KIFKEQ_clean_linker_1, # of connection points: 2
#     Edge 8, Type (0, 1), BuildingBlock: KIFKEQ_clean_linker_1, # of connection points: 2
#     Edge 9, Type (0, 1), BuildingBlock: KIFKEQ_clean_linker_1, # of connection points: 2
#     Edge 10, Type (0, 1), BuildingBlock: KIFKEQ_clean_linker_1, # of connection points: 2
#     Edge 11, Type (0, 1), BuildingBlock: KIFKEQ_clean_linker_1, # of connection points: 2
#     Edge 12, Type (0, 1), BuildingBlock: KIFKEQ_clean_linker_1, # of connection points: 2
#     Edge 13, Type (0, 1), BuildingBlock: KIFKEQ_clean_linker_1, # of connection points: 2
#     Edge 14, Type (0, 1), BuildingBlock: KIFKEQ_clean_linker_1, # of connection points: 2
#     Edge 15, Type (0, 1), BuildingBlock: KIFKEQ_clean_linker_1, # of connection points: 2
#     Edge 16, Type (0, 1), BuildingBlock: KIFKEQ_clean_linker_1, # of connection points: 2
#     Edge 17, Type (0, 1), BuildingBlock: KIFKEQ_clean_linker_1, # of connection points: 2
# Relax obj value: 0.003
# Max RMSD: 0.042
# Mean RMSD: 0.028
data_MOF--net-rtl--node1-FUNLAD_clean_sbu_0--node2-BETDAH_clean_linker_0--edge1-KIFKEQ_clean_linker_1
_symmetry_space_group_name_H-M    P1
_symmetry_Int_Tables_number       1
_symmetry_cell_setting            triclinic
loop_
_symmetry_equiv_pos_as_xyz
'x, y, z'
_cell_length_a     40.795415
_cell_length_b     40.682423
_cell_length_c     21.395659
_cell_angle_alpha  91.339186
_cell_angle_beta   92.233458
_cell_angle_gamma 90.052343
loop_
_atom_site_label
_atom_site_type_symbol
_atom_site_fract_x
_atom_site_fract_y
_atom_site_fract_z
_atom_type_partial_charge
H0 H 0.13155 0.89606 0.98494 0.0
H1 H 0.18821 0.8174 0.06619 0.0
H2 H 0.17403 0.82254 0.86613 0.0
C3 C 0.14632 0.8741 0.97944 0.0
C4 C 0.15141 0.86139 0.9193 0.0
C5 C 0.1595 0.85857 0.03268 0.0
C6 C 0.17833 0.82979 0.02535 0.0
C7 C 0.18386 0.81705 0.96475 0.0
C8 C 0.17026 0.8329 0.91244 0.0
N9 N 0.2017 0.78771 0.95359 0.0
C10 C 0.22351 0.77262 0.9953 0.0
H11 H 0.6256 0.6406 0.56068 0.0
H12 H 0.70361 0.69683 0.48524 0.0
H13 H 0.69965 0.68455 0.68408 0.0
C14 C 0.64723 0.65594 0.5679 0.0
C15 C 0.66028 0.66146 0.62878 0.0
C16 C 0.66254 0.66856 0.51588 0.0
C17 C 0.69151 0.68722 0.52514 0.0
C18 C 0.7048 0.69304 0.58624 0.0
C19 C 0.68924 0.67989 0.63733 0.0
N20 N 0.73411 0.71126 0.59884 0.0
C21 C 0.7492 0.7318 0.55758 0.0
H22 H 0.88847 0.12956 0.9735 0.0
H23 H 0.84135 0.21304 0.05919 0.0
H24 H 0.85706 0.21062 0.86149 0.0
C25 C 0.87621 0.1531 0.96957 0.0
C26 C 0.87339 0.16772 0.91104 0.0
C27 C 0.86477 0.16907 0.02339 0.0
C28 C 0.84957 0.20004 0.01791 0.0
C29 C 0.84645 0.21479 0.95906 0.0
C30 C 0.85854 0.19862 0.90622 0.0
N31 N 0.83454 0.24725 0.95218 0.0
C32 C 0.80679 0.25977 0.97985 0.0
H33 H 0.40026 0.38374 0.54863 0.0
H34 H 0.3156 0.3504 0.64389 0.0
H35 H 0.31299 0.35388 0.44356 0.0
C36 C 0.37592 0.37296 0.54763 0.0
C37 C 0.35903 0.36822 0.48977 0.0
C38 C 0.36054 0.36698 0.60394 0.0
C39 C 0.32819 0.35484 0.60122 0.0
C40 C 0.31134 0.34935 0.54359 0.0
C41 C 0.32666 0.35637 0.48789 0.0
N42 N 0.27749 0.34177 0.54269 0.0
C43 C 0.26528 0.31061 0.52752 0.0
C44 C 0.04507 0.97733 0.3749 0.0
N45 N 0.06632 0.06733 0.46827 0.0
C46 C 0.0986 0.05883 0.47106 0.0
C47 C 0.12299 0.08309 0.47383 0.0
C48 C 0.11411 0.11648 0.47362 0.0
C49 C 0.08058 0.12446 0.47065 0.0
C50 C 0.05705 0.09945 0.468 0.0
Zn51 Zn 0.03056 0.03162 0.46493 0.0
C52 C 0.97639 0.04672 0.37103 0.0
N53 N 0.95486 0.95809 0.45797 0.0
C54 C 0.96368 0.92584 0.45843 0.0
C55 C 0.92271 0.96707 0.45719 0.0
C56 C 0.89803 0.94321 0.45778 0.0
C57 C 0.90642 0.90971 0.45913 0.0
C58 C 0.9398 0.90119 0.45895 0.0
Zn59 Zn 0.99076 0.99368 0.46079 0.0
O60 O 0.05611 1.00457 0.39718 0.0
C61 C 0.04386 0.97899 0.55613 0.0
O62 O 0.01748 0.96687 0.39207 0.0
H63 H 0.91617 0.99282 0.45668 0.0
H64 H 0.10549 0.03316 0.47113 0.0
H65 H 0.98935 0.91919 0.45929 0.0
O66 O 0.05603 0.00545 0.53649 0.0
O67 O 0.01665 0.96856 0.53241 0.0
H68 H 0.03129 0.10575 0.46605 0.0
O69 O 0.96528 0.02108 0.5298 0.0
O70 O 0.00482 0.05777 0.53356 0.0
O71 O 0.96516 0.01974 0.39006 0.0
O72 O 1.0039 0.05729 0.39335 0.0
C73 C 0.97753 0.04774 0.55257 0.0
H74 H 0.14851 0.07575 0.47544 0.0
H75 H 0.07252 0.14981 0.47141 0.0
H76 H 0.87263 0.95094 0.45714 0.0
H77 H 0.9475 0.87576 0.46088 0.0
C78 C 0.4796 0.47706 0.97317 0.0
N79 N 0.57078 0.46092 0.0665 0.0
C80 C 0.56378 0.42826 0.06918 0.0
C81 C 0.58884 0.40488 0.06605 0.0
C82 C 0.62137 0.41519 0.05943 0.0
C83 C 0.62792 0.44906 0.05798 0.0
C84 C 0.60221 0.47157 0.06183 0.0
Zn85 Zn 0.53357 0.49499 0.06611 0.0
C86 C 0.54478 0.54755 0.97276 0.0
N87 N 0.45655 0.56681 0.06217 0.0
C88 C 0.42502 0.55601 0.06347 0.0
C89 C 0.46354 0.59953 0.06142 0.0
C90 C 0.43828 0.62277 0.06177 0.0
C91 C 0.40544 0.61232 0.06311 0.0
C92 C 0.39906 0.57837 0.06416 0.0
Zn93 Zn 0.49385 0.53283 0.06269 0.0
O94 O 0.50657 0.46649 0.9968 0.0
C95 C 0.48216 0.48006 0.15518 0.0
O96 O 0.46861 0.50466 0.99193 0.0
H97 H 0.48876 0.60765 0.06042 0.0
H98 H 0.53863 0.42028 0.07261 0.0
H99 H 0.41992 0.52993 0.0642 0.0
O100 O 0.50987 0.46977 0.1378 0.0
O101 O 0.46997 0.50591 0.13151 0.0
H102 H 0.60734 0.49761 0.06012 0.0
O103 O 0.52014 0.56069 0.13309 0.0
O104 O 0.55983 0.52426 0.13487 0.0
O105 O 0.51814 0.55878 0.99354 0.0
O106 O 0.55646 0.52094 0.99429 0.0
C107 C 0.54808 0.55141 0.15439 0.0
H108 H 0.58269 0.37899 0.06675 0.0
H109 H 0.6527 0.45808 0.05361 0.0
H110 H 0.44444 0.64861 0.06001 0.0
H111 H 0.37425 0.56908 0.06614 0.0
H112 H 0.24277 0.28513 0.41632 0.0
H113 H 0.2495 0.26725 0.61411 0.0
H114 H 0.20904 0.23556 0.39936 0.0
H115 H 0.21528 0.21816 0.59807 0.0
H116 H 0.17145 0.11865 0.54513 0.0
H117 H 0.21181 0.16297 0.55399 0.0
H118 H 0.15385 0.21905 0.42114 0.0
H119 H 0.11427 0.17426 0.41038 0.0
C120 C 0.2373 0.27023 0.45594 0.0
C121 C 0.24868 0.27958 0.51634 0.0
C122 C 0.2178 0.24207 0.44647 0.0
C123 C 0.20926 0.2229 0.4974 0.0
C124 C 0.22167 0.23201 0.55768 0.0
C125 C 0.24117 0.26013 0.567 0.0
C126 C 0.16759 0.1402 0.51702 0.0
C127 C 0.13949 0.14291 0.47724 0.0
C128 C 0.19058 0.16578 0.5226 0.0
C129 C 0.18608 0.19468 0.48845 0.0
C130 C 0.15834 0.19705 0.44766 0.0
C131 C 0.13538 0.17151 0.44212 0.0
H132 H 0.21579 0.71134 0.03647 0.0
H133 H 0.28744 0.78773 0.01498 0.0
H134 H 0.2597 0.67247 0.06284 0.0
H135 H 0.33161 0.74895 0.04048 0.0
H136 H 0.40299 0.67292 0.12277 0.0
H137 H 0.3583 0.71287 0.11875 0.0
H138 H 0.301 0.64637 -0.00195 0.0
H139 H 0.34556 0.60679 0.00118 0.0
C140 C 0.24096 0.71995 0.03922 0.0
C141 C 0.24845 0.75239 0.0245 0.0
C142 C 0.26611 0.69768 0.05353 0.0
C143 C 0.2992 0.7075 0.05301 0.0
C144 C 0.30642 0.74064 0.04179 0.0
C145 C 0.28121 0.76287 0.02733 0.0
C146 C 0.38092 0.66688 0.0951 0.0
C147 C 0.37797 0.63653 0.06232 0.0
C148 C 0.35526 0.68975 0.09305 0.0
C149 C 0.32597 0.68274 0.05849 0.0
C150 C 0.32292 0.6523 0.02627 0.0
C151 C 0.34856 0.62956 0.02804 0.0
H152 H 0.81159 0.72464 0.52402 0.0
H153 H 0.73093 0.79292 0.52493 0.0
H154 H 0.84806 0.76812 0.49106 0.0
H155 H 0.76704 0.83657 0.49054 0.0
H156 H 0.85145 0.91147 0.52854 0.0
H157 H 0.81124 0.86812 0.54054 0.0
H158 H 0.86279 0.8058 0.41103 0.0
H159 H 0.9032 0.84929 0.39915 0.0
C160 C 0.80155 0.74882 0.51522 0.0
C161 C 0.76862 0.7556 0.52635 0.0
C162 C 0.82237 0.77375 0.49632 0.0
C163 C 0.81059 0.80599 0.48856 0.0
C164 C 0.77705 0.81218 0.49696 0.0
C165 C 0.75628 0.78719 0.51592 0.0
C166 C 0.85394 0.88876 0.50172 0.0
C167 C 0.88069 0.88388 0.46306 0.0
C168 C 0.83079 0.86385 0.50851 0.0
C169 C 0.83372 0.83338 0.47676 0.0
C170 C 0.86002 0.82877 0.43687 0.0
C171 C 0.88321 0.8537 0.43012 0.0
H172 H 0.76137 0.28151 0.89831 0.0
H173 H 0.78721 0.27888 0.09542 0.0
H174 H 0.71517 0.31767 0.91991 0.0
H175 H 0.74068 0.31534 0.11762 0.0
H176 H 0.63387 0.3591 0.12535 0.0
H177 H 0.67752 0.31869 0.10894 0.0
H178 H 0.71267 0.37623 0.95824 0.0
H179 H 0.66919 0.41622 0.97416 0.0
C180 C 0.75673 0.28837 0.94642 0.0
C181 C 0.7775 0.27754 0.99531 0.0
C182 C 0.7305 0.30922 0.95877 0.0
C183 C 0.7245 0.31961 0.02039 0.0
C184 C 0.74464 0.30761 0.06972 0.0
C185 C 0.77117 0.28684 0.05717 0.0
C186 C 0.65093 0.363 0.08868 0.0
C187 C 0.64812 0.39086 0.05108 0.0
C188 C 0.676 0.34002 0.0796 0.0
C189 C 0.69838 0.34421 0.03209 0.0
C190 C 0.69558 0.37212 0.99478 0.0
C191 C 0.67086 0.3952 0.00429 0.0
H192 H 0.1686 0.92137 0.07478 0.0
H193 H 0.13086 0.82759 0.12883 0.0
H194 H 0.14345 0.94801 0.16365 0.0
H195 H 0.10621 0.8541 0.21977 0.0
H196 H 0.02701 0.92163 0.30729 0.0
H197 H 0.05979 0.89022 0.23388 0.0
H198 H 0.14155 0.95607 0.27349 0.0
H199 H 0.10853 0.98797 0.34498 0.0
C200 C 0.1557 0.90633 0.10701 0.0
C201 C 0.15154 0.87249 0.09488 0.0
C202 C 0.14131 0.92156 0.15816 0.0
C203 C 0.12242 0.9033 0.19867 0.0
C204 C 0.12011 0.86899 0.18888 0.0
C205 C 0.13462 0.85369 0.13745 0.0
C206 C 0.05199 0.92936 0.30028 0.0
C207 C 0.06495 0.9576 0.33127 0.0
C208 C 0.07094 0.91113 0.25872 0.0
C209 C 0.10336 0.92061 0.24754 0.0
C210 C 0.11654 0.94833 0.28007 0.0
C211 C 0.09756 0.96665 0.32114 0.0
H212 H 0.59455 0.65888 0.64875 0.0
H213 H 0.68878 0.63157 0.73075 0.0
H214 H 0.56721 0.6319 0.73272 0.0
H215 H 0.66143 0.6058 0.81649 0.0
H216 H 0.60027 0.52869 0.91393 0.0
H217 H 0.62847 0.55765 0.8333 0.0
H218 H 0.55743 0.63617 0.84272 0.0
H219 H 0.52874 0.60681 0.92221 0.0
C220 C 0.60944 0.64725 0.68494 0.0
C221 C 0.64385 0.64719 0.68279 0.0
C222 C 0.59377 0.63211 0.73351 0.0
C223 C 0.6121 0.6166 0.78135 0.0
C224 C 0.64655 0.61715 0.77996 0.0
C225 C 0.66225 0.63228 0.73125 0.0
C226 C 0.59066 0.55213 0.89881 0.0
C227 C 0.56215 0.56536 0.92432 0.0
C228 C 0.60698 0.56887 0.8529 0.0
C229 C 0.59526 0.59927 0.83153 0.0
C230 C 0.56689 0.6126 0.85747 0.0
C231 C 0.55051 0.59582 0.90325 0.0
H232 H 0.8543 0.10576 0.05592 0.0
H233 H 0.89334 0.19822 0.12842 0.0
H234 H 0.87877 0.07773 0.14526 0.0
H235 H 0.91695 0.17038 0.21974 0.0
H236 H 0.99499 0.10226 0.31164 0.0
H237 H 0.96282 0.13399 0.23602 0.0
H238 H 0.88077 0.06806 0.25421 0.0
H239 H 0.91329 0.03577 0.32814 0.0
C240 C 0.86738 0.12021 0.09205 0.0
C241 C 0.87218 0.1541 0.08493 0.0
C242 C 0.88132 0.10418 0.14353 0.0
C243 C 0.90031 0.12168 0.18942 0.0
C244 C 0.90305 0.15604 0.1846 0.0
C245 C 0.88909 0.17211 0.13285 0.0
C246 C 0.97009 0.09454 0.29944 0.0
C247 C 0.95688 0.06624 0.32534 0.0
C248 C 0.95147 0.11296 0.25659 0.0
C249 C 0.91911 0.10366 0.23894 0.0
C250 C 0.90573 0.07571 0.26595 0.0
C251 C 0.92441 0.05718 0.30841 0.0
H252 H 0.42555 0.36078 0.6402 0.0
H253 H 0.33296 0.39686 0.70523 0.0
H254 H 0.4536 0.38507 0.7327 0.0
H255 H 0.36068 0.41932 0.79927 0.0
H256 H 0.42459 0.4955 0.90655 0.0
H257 H 0.39546 0.46528 0.8224 0.0
H258 H 0.46323 0.38436 0.84402 0.0
H259 H 0.49313 0.4152 0.92738 0.0
C260 C 0.41109 0.37345 0.67464 0.0
C261 C 0.377 0.37711 0.66476 0.0
C262 C 0.42715 0.38708 0.72811 0.0
C263 C 0.40948 0.40453 0.77322 0.0
C264 C 0.37518 0.40662 0.76493 0.0
C265 C 0.35917 0.39323 0.71131 0.0
C266 C 0.43326 0.47121 0.89362 0.0
C267 C 0.46128 0.45784 0.92358 0.0
C268 C 0.41635 0.45371 0.84559 0.0
C269 C 0.42685 0.42225 0.82648 0.0
C270 C 0.45466 0.40866 0.85704 0.0
C271 C 0.47172 0.42628 0.90501 0.0
H272 H 0.59896 0.67416 0.47496 0.0
H273 H 0.69401 0.64287 0.4151 0.0
H274 H 0.57317 0.64901 0.38137 0.0
H275 H 0.66831 0.61846 0.31955 0.0
H276 H 0.60515 0.53641 0.21899 0.0
H277 H 0.63498 0.57018 0.29773 0.0
H278 H 0.56438 0.64822 0.27087 0.0
H279 H 0.534 0.61405 0.19361 0.0
C280 C 0.61441 0.66259 0.44077 0.0
C281 C 0.64843 0.66016 0.45256 0.0
C282 C 0.59966 0.6483 0.38684 0.0
C283 C 0.61859 0.6313 0.34312 0.0
C284 C 0.65294 0.63084 0.35284 0.0
C285 C 0.66774 0.6452 0.40706 0.0
C286 C 0.59604 0.56081 0.22977 0.0
C287 C 0.56694 0.57234 0.20063 0.0
C288 C 0.61336 0.58035 0.27448 0.0
C289 C 0.6021 0.61197 0.29084 0.0
C290 C 0.57351 0.62382 0.26019 0.0
C291 C 0.55608 0.60421 0.21582 0.0
H292 H 0.93482 0.14256 0.90354 0.0
H293 H 0.84467 0.15619 0.79484 0.0
H294 H 0.95878 0.11436 0.81444 0.0
H295 H 0.8688 0.12786 0.70506 0.0
H296 H 0.91548 0.03875 0.59428 0.0
H297 H 0.88922 0.06921 0.67878 0.0
H298 H 0.97572 0.1298 0.70649 0.0
H299 H 1.00192 0.09968 0.6224 0.0
C300 C 0.92014 0.13944 0.86051 0.0
C301 C 0.88788 0.15141 0.85602 0.0
C302 C 0.93392 0.12352 0.80943 0.0
C303 C 0.91564 0.11897 0.7529 0.0
C304 C 0.88333 0.1309 0.74828 0.0
C305 C 0.86964 0.14726 0.79931 0.0
C306 C 0.9288 0.05867 0.61825 0.0
C307 C 0.96084 0.06668 0.60187 0.0
C308 C 0.9137 0.07619 0.66629 0.0
C309 C 0.93053 0.10173 0.69926 0.0
C310 C 0.96233 0.11 0.68225 0.0
C311 C 0.97726 0.0928 0.63392 0.0
H312 H 0.41299 0.34423 0.43315 0.0
H313 H 0.33971 0.42022 0.42132 0.0
H314 H 0.44164 0.36852 0.34723 0.0
H315 H 0.36915 0.44616 0.33891 0.0
H316 H 0.416 0.4776 0.1645 0.0
H317 H 0.38471 0.44683 0.23779 0.0
H318 H 0.47525 0.41159 0.32456 0.0
H319 H 0.50622 0.44059 0.2478 0.0
C320 C 0.40296 0.36604 0.4115 0.0
C321 C 0.37404 0.3802 0.43288 0.0
C322 C 0.41957 0.38032 0.36292 0.0
C323 C 0.40807 0.40966 0.33594 0.0
C324 C 0.37861 0.42331 0.35709 0.0
C325 C 0.36167 0.40855 0.40456 0.0
C326 C 0.42914 0.46316 0.19923 0.0
C327 C 0.46353 0.46162 0.20074 0.0
C328 C 0.4112 0.44561 0.24168 0.0
C329 C 0.42722 0.42671 0.28796 0.0
C330 C 0.46179 0.42521 0.28914 0.0
C331 C 0.47969 0.44213 0.24552 0.0
H332 H 0.18022 0.87709 0.81054 0.0
H333 H 0.08824 0.88206 0.90356 0.0
H334 H 0.15495 0.90478 0.72032 0.0
H335 H 0.06318 0.91 0.81413 0.0
H336 H 0.10493 0.99047 0.61021 0.0
H337 H 0.13166 0.96095 0.6964 0.0
H338 H 0.04765 0.89662 0.7025 0.0
H339 H 0.02087 0.92601 0.61684 0.0
C340 C 0.1546 0.88398 0.8115 0.0
C341 C 0.13619 0.87752 0.864 0.0
C342 C 0.14024 0.90004 0.76022 0.0
C343 C 0.10712 0.90952 0.76027 0.0
C344 C 0.08868 0.90273 0.81256 0.0
C345 C 0.10308 0.887 0.86393 0.0
C346 C 0.09222 0.96996 0.62984 0.0
C347 C 0.06072 0.96068 0.60688 0.0
C348 C 0.10761 0.95297 0.6789 0.0
C349 C 0.09166 0.92659 0.70625 0.0
C350 C 0.06036 0.9171 0.68279 0.0
C351 C 0.0451 0.93387 0.63352 0.0
loop_
_geom_bond_atom_site_label_1
_geom_bond_atom_site_label_2
_geom_bond_distance
_geom_bond_site_symmetry_2
_ccdc_geom_bond_type
H0 C3 0.929 . S
H1 C6 0.929 . S
H2 C8 0.930 . S
C3 H0 0.929 . S
C3 C4 1.398 1_554 S
C3 C5 1.396 . S
C4 C3 1.398 1_556 S
C4 C8 1.407 . S
C5 C3 1.396 . S
C5 C6 1.394 . S
C6 H1 0.929 . S
C6 C5 1.394 . S
C6 C7 1.382 . S
C7 C6 1.382 . S
C7 C8 1.392 1_554 S
C7 N9 1.420 1_554 S
C8 H2 0.930 . S
C8 C4 1.407 . S
C8 C7 1.392 1_556 S
N9 C7 1.420 1_556 S
N9 C10 1.244 1_556 S
C10 N9 1.244 1_554 S
H11 C14 0.929 . S
H12 C17 0.929 . S
H13 C19 0.930 . S
C14 H11 0.929 . S
C14 C15 1.398 . S
C14 C16 1.396 . S
C15 C14 1.398 . S
C15 C19 1.407 . S
C16 C14 1.396 . S
C16 C17 1.394 . S
C17 H12 0.929 . S
C17 C16 1.394 . S
C17 C18 1.382 . S
C18 C17 1.382 . S
C18 C19 1.392 . S
C18 N20 1.420 . S
C19 H13 0.930 . S
C19 C15 1.407 . S
C19 C18 1.392 . S
N20 C18 1.420 . S
N20 C21 1.244 . S
C21 N20 1.244 . S
H22 C25 0.929 . S
H23 C28 0.929 . S
H24 C30 0.930 . S
C25 H22 0.929 . S
C25 C26 1.398 1_554 S
C25 C27 1.396 . S
C26 C25 1.398 1_556 S
C26 C30 1.407 . S
C27 C25 1.396 . S
C27 C28 1.394 . S
C28 H23 0.929 . S
C28 C27 1.394 . S
C28 C29 1.382 1_554 S
C29 C28 1.382 1_556 S
C29 C30 1.392 . S
C29 N31 1.420 . S
C30 H24 0.930 . S
C30 C26 1.407 . S
C30 C29 1.392 . S
N31 C29 1.420 . S
N31 C32 1.244 1_556 S
C32 N31 1.244 1_554 S
H33 C36 0.929 . S
H34 C39 0.929 . S
H35 C41 0.930 . S
C36 H33 0.929 . S
C36 C37 1.398 . S
C36 C38 1.396 . S
C37 C36 1.398 . S
C37 C41 1.407 . S
C38 C36 1.396 . S
C38 C39 1.394 . S
C39 H34 0.929 . S
C39 C38 1.394 . S
C39 C40 1.382 . S
C40 C39 1.382 . S
C40 C41 1.392 . S
C40 N42 1.420 . S
C41 H35 0.930 . S
C41 C37 1.407 . S
C41 C40 1.392 . S
N42 C40 1.420 . S
N42 C43 1.244 . S
C43 N42 1.244 . S
C44 O60 1.251 1_565 S
C44 O62 1.254 . S
N45 C46 1.333 . S
N45 C50 1.307 . S
N45 Zn51 2.020 . S
C46 N45 1.333 . S
C46 C47 1.379 . S
C46 H64 0.952 . S
C47 C46 1.379 . S
C47 C48 1.390 . S
C47 H74 0.949 . S
C48 C47 1.390 . S
C48 C49 1.357 . S
C49 C48 1.357 . S
C49 C50 1.370 . S
C49 H75 0.950 . S
C50 N45 1.307 . S
C50 C49 1.370 . S
C50 H68 0.948 . S
Zn51 N45 2.020 . S
Zn51 O60 2.039 . S
Zn51 O66 2.034 . S
Zn51 O70 2.048 . S
Zn51 O72 2.029 . S
C52 O71 1.246 . S
C52 O72 1.243 1_655 S
N53 C54 1.307 . S
N53 C55 1.333 . S
N53 Zn59 2.020 . S
C54 N53 1.307 . S
C54 C58 1.370 . S
C54 H65 0.948 . S
C55 N53 1.333 . S
C55 C56 1.379 . S
C55 H63 0.952 . S
C56 C55 1.379 . S
C56 C57 1.390 . S
C56 H76 0.949 . S
C57 C56 1.390 . S
C57 C58 1.357 . S
C58 C54 1.370 . S
C58 C57 1.357 . S
C58 H77 0.950 . S
Zn59 N53 2.020 . S
Zn59 O62 2.025 1_655 S
Zn59 O67 2.024 1_655 S
Zn59 O69 2.039 1_565 S
Zn59 O71 2.034 1_565 S
O60 C44 1.251 1_545 S
O60 Zn51 2.039 . S
C61 O66 1.246 1_565 S
C61 O67 1.249 . S
O62 C44 1.254 . S
O62 Zn59 2.025 1_455 S
H63 C55 0.952 . S
H64 C46 0.952 . S
H65 C54 0.948 . S
O66 Zn51 2.034 . S
O66 C61 1.246 1_545 S
O67 Zn59 2.024 1_455 S
O67 C61 1.249 . S
H68 C50 0.948 . S
O69 Zn59 2.039 1_545 S
O69 C73 1.251 . S
O70 Zn51 2.048 . S
O70 C73 1.226 1_455 S
O71 C52 1.246 . S
O71 Zn59 2.034 1_545 S
O72 Zn51 2.029 . S
O72 C52 1.243 1_455 S
C73 O69 1.251 . S
C73 O70 1.226 1_655 S
H74 C47 0.949 . S
H75 C49 0.950 . S
H76 C56 0.949 . S
H77 C58 0.950 . S
C78 O94 1.251 . S
C78 O96 1.254 . S
N79 C80 1.333 . S
N79 C84 1.307 . S
N79 Zn85 2.020 . S
C80 N79 1.333 . S
C80 C81 1.379 . S
C80 H98 0.952 1_554 S
C81 C80 1.379 . S
C81 C82 1.390 . S
C81 H108 0.949 1_554 S
C82 C81 1.390 . S
C82 C83 1.357 . S
C83 C82 1.357 . S
C83 C84 1.370 . S
C83 H109 0.950 . S
C84 N79 1.307 . S
C84 C83 1.370 . S
C84 H102 0.948 . S
Zn85 N79 2.020 . S
Zn85 O94 2.039 1_554 S
Zn85 O100 2.034 . S
Zn85 O104 2.025 . S
Zn85 O106 2.024 1_554 S
C86 O105 1.246 . S
C86 O106 1.249 . S
N87 C88 1.307 . S
N87 C89 1.333 . S
N87 Zn93 2.020 . S
C88 N87 1.307 . S
C88 C92 1.370 . S
C88 H99 0.948 1_554 S
C89 N87 1.333 . S
C89 C90 1.379 . S
C89 H97 0.952 . S
C90 C89 1.379 . S
C90 C91 1.390 . S
C90 H110 0.949 . S
C91 C90 1.390 . S
C91 C92 1.357 . S
C92 C88 1.370 . S
C92 C91 1.357 . S
C92 H111 0.949 1_554 S
Zn93 N87 2.020 . S
Zn93 O96 2.025 1_554 S
Zn93 O101 2.024 . S
Zn93 O103 2.039 . S
Zn93 O105 2.034 1_554 S
O94 C78 1.251 . S
O94 Zn85 2.039 1_556 S
C95 O100 1.246 . S
C95 O101 1.249 . S
O96 C78 1.254 . S
O96 Zn93 2.025 1_556 S
H97 C89 0.952 . S
H98 C80 0.952 1_556 S
H99 C88 0.948 1_556 S
O100 Zn85 2.034 . S
O100 C95 1.246 . S
O101 Zn93 2.024 . S
O101 C95 1.249 . S
H102 C84 0.948 . S
O103 Zn93 2.039 . S
O103 C107 1.251 . S
O104 Zn85 2.025 . S
O104 C107 1.254 . S
O105 C86 1.246 . S
O105 Zn93 2.034 1_556 S
O106 Zn85 2.024 1_556 S
O106 C86 1.249 . S
C107 O103 1.251 . S
C107 O104 1.254 . S
H108 C81 0.949 1_556 S
H109 C83 0.950 . S
H110 C90 0.949 . S
H111 C92 0.949 1_556 S
H112 C120 0.950 . S
H113 C125 0.950 . S
H114 C122 0.950 . S
H115 C124 0.950 . S
H116 C126 0.950 . S
H117 C128 0.950 . S
H118 C130 0.950 . S
H119 C131 0.950 . S
C120 H112 0.950 . S
C120 C121 1.386 . S
C120 C122 1.391 . S
C121 C120 1.386 . S
C121 C125 1.393 . S
C122 H114 0.950 . S
C122 C120 1.391 . S
C122 C123 1.400 . S
C123 C122 1.400 . S
C123 C124 1.398 . S
C123 C129 1.491 . S
C124 H115 0.950 . S
C124 C123 1.398 . S
C124 C125 1.391 . S
C125 H113 0.950 . S
C125 C121 1.393 . S
C125 C124 1.391 . S
C126 H116 0.950 . S
C126 C127 1.386 . S
C126 C128 1.391 . S
C127 C126 1.386 . S
C127 C131 1.393 . S
C128 H117 0.950 . S
C128 C126 1.391 . S
C128 C129 1.400 . S
C129 C123 1.491 . S
C129 C128 1.400 . S
C129 C130 1.398 . S
C130 H118 0.950 . S
C130 C129 1.398 . S
C130 C131 1.391 . S
C131 H119 0.950 . S
C131 C127 1.393 . S
C131 C130 1.391 . S
H132 C140 0.950 . S
H133 C145 0.950 . S
H134 C142 0.948 1_556 S
H135 C144 0.950 . S
H136 C146 0.950 . S
H137 C148 0.950 . S
H138 C150 0.950 1_556 S
H139 C151 0.950 1_556 S
C140 H132 0.950 . S
C140 C141 1.385 1_556 S
C140 C142 1.391 1_556 S
C141 C140 1.385 1_554 S
C141 C145 1.393 . S
C142 H134 0.948 1_554 S
C142 C140 1.391 1_554 S
C142 C143 1.402 . S
C143 C142 1.402 . S
C143 C144 1.398 . S
C143 C149 1.491 . S
C144 H135 0.950 . S
C144 C143 1.398 . S
C144 C145 1.391 . S
C145 H133 0.950 . S
C145 C141 1.393 . S
C145 C144 1.391 . S
C146 H136 0.950 . S
C146 C147 1.386 . S
C146 C148 1.391 . S
C147 C146 1.386 . S
C147 C151 1.393 . S
C148 H137 0.950 . S
C148 C146 1.391 . S
C148 C149 1.400 . S
C149 C143 1.491 . S
C149 C148 1.400 . S
C149 C150 1.398 . S
C150 H138 0.950 1_554 S
C150 C149 1.398 . S
C150 C151 1.391 . S
C151 H139 0.950 1_554 S
C151 C147 1.393 . S
C151 C150 1.391 . S
H152 C160 0.950 . S
H153 C165 0.950 . S
H154 C162 0.950 . S
H155 C164 0.950 . S
H156 C166 0.950 . S
H157 C168 0.950 . S
H158 C170 0.950 . S
H159 C171 0.950 . S
C160 H152 0.950 . S
C160 C161 1.386 . S
C160 C162 1.391 . S
C161 C160 1.386 . S
C161 C165 1.393 . S
C162 H154 0.950 . S
C162 C160 1.391 . S
C162 C163 1.400 . S
C163 C162 1.400 . S
C163 C164 1.398 . S
C163 C169 1.491 . S
C164 H155 0.950 . S
C164 C163 1.398 . S
C164 C165 1.391 . S
C165 H153 0.950 . S
C165 C161 1.393 . S
C165 C164 1.391 . S
C166 H156 0.950 . S
C166 C167 1.386 . S
C166 C168 1.391 . S
C167 C166 1.386 . S
C167 C171 1.393 . S
C168 H157 0.950 . S
C168 C166 1.391 . S
C168 C169 1.400 . S
C169 C163 1.491 . S
C169 C168 1.400 . S
C169 C170 1.398 . S
C170 H158 0.950 . S
C170 C169 1.398 . S
C170 C171 1.391 . S
C171 H159 0.950 . S
C171 C167 1.393 . S
C171 C170 1.391 . S
H172 C180 0.950 . S
H173 C185 0.950 . S
H174 C182 0.950 . S
H175 C184 0.950 . S
H176 C186 0.950 . S
H177 C188 0.950 . S
H178 C190 0.950 . S
H179 C191 0.950 . S
C180 H172 0.950 . S
C180 C181 1.386 1_556 S
C180 C182 1.391 . S
C181 C180 1.386 1_554 S
C181 C185 1.393 . S
C182 H174 0.950 . S
C182 C180 1.391 . S
C182 C183 1.400 1_556 S
C183 C182 1.400 1_554 S
C183 C184 1.398 . S
C183 C189 1.491 . S
C184 H175 0.950 . S
C184 C183 1.398 . S
C184 C185 1.391 . S
C185 H173 0.950 . S
C185 C181 1.393 . S
C185 C184 1.391 . S
C186 H176 0.950 . S
C186 C187 1.386 . S
C186 C188 1.391 . S
C187 C186 1.386 . S
C187 C191 1.393 1_554 S
C188 H177 0.950 . S
C188 C186 1.391 . S
C188 C189 1.400 . S
C189 C183 1.491 . S
C189 C188 1.400 . S
C189 C190 1.398 1_554 S
C190 H178 0.950 . S
C190 C189 1.398 1_556 S
C190 C191 1.391 . S
C191 H179 0.950 . S
C191 C187 1.393 1_556 S
C191 C190 1.391 . S
H192 C200 0.950 . S
H193 C205 0.950 . S
H194 C202 0.950 . S
H195 C204 0.950 . S
H196 C206 0.950 . S
H197 C208 0.950 . S
H198 C210 0.950 . S
H199 C211 0.950 . S
C200 H192 0.950 . S
C200 C201 1.386 . S
C200 C202 1.391 . S
C201 C200 1.386 . S
C201 C205 1.393 . S
C202 H194 0.950 . S
C202 C200 1.391 . S
C202 C203 1.400 . S
C203 C202 1.400 . S
C203 C204 1.398 . S
C203 C209 1.491 . S
C204 H195 0.950 . S
C204 C203 1.398 . S
C204 C205 1.391 . S
C205 H193 0.950 . S
C205 C201 1.393 . S
C205 C204 1.391 . S
C206 H196 0.950 . S
C206 C207 1.386 . S
C206 C208 1.391 . S
C207 C206 1.386 . S
C207 C211 1.393 . S
C208 H197 0.950 . S
C208 C206 1.391 . S
C208 C209 1.400 . S
C209 C203 1.491 . S
C209 C208 1.400 . S
C209 C210 1.398 . S
C210 H198 0.950 . S
C210 C209 1.398 . S
C210 C211 1.391 . S
C211 H199 0.950 . S
C211 C207 1.393 . S
C211 C210 1.391 . S
H212 C220 0.950 . S
H213 C225 0.950 . S
H214 C222 0.950 . S
H215 C224 0.950 . S
H216 C226 0.950 . S
H217 C228 0.950 . S
H218 C230 0.950 . S
H219 C231 0.950 . S
C220 H212 0.950 . S
C220 C221 1.386 . S
C220 C222 1.391 . S
C221 C220 1.386 . S
C221 C225 1.393 . S
C222 H214 0.950 . S
C222 C220 1.391 . S
C222 C223 1.400 . S
C223 C222 1.400 . S
C223 C224 1.398 . S
C223 C229 1.491 . S
C224 H215 0.950 . S
C224 C223 1.398 . S
C224 C225 1.391 . S
C225 H213 0.950 . S
C225 C221 1.393 . S
C225 C224 1.391 . S
C226 H216 0.950 . S
C226 C227 1.386 . S
C226 C228 1.391 . S
C227 C226 1.386 . S
C227 C231 1.393 . S
C228 H217 0.950 . S
C228 C226 1.391 . S
C228 C229 1.400 . S
C229 C223 1.491 . S
C229 C228 1.400 . S
C229 C230 1.398 . S
C230 H218 0.950 . S
C230 C229 1.398 . S
C230 C231 1.391 . S
C231 H219 0.950 . S
C231 C227 1.393 . S
C231 C230 1.391 . S
H232 C240 0.950 . S
H233 C245 0.950 . S
H234 C242 0.950 . S
H235 C244 0.950 . S
H236 C246 0.950 . S
H237 C248 0.950 . S
H238 C250 0.950 . S
H239 C251 0.950 . S
C240 H232 0.950 . S
C240 C241 1.386 . S
C240 C242 1.391 . S
C241 C240 1.386 . S
C241 C245 1.393 . S
C242 H234 0.950 . S
C242 C240 1.391 . S
C242 C243 1.400 . S
C243 C242 1.400 . S
C243 C244 1.398 . S
C243 C249 1.491 . S
C244 H235 0.950 . S
C244 C243 1.398 . S
C244 C245 1.391 . S
C245 H233 0.950 . S
C245 C241 1.393 . S
C245 C244 1.391 . S
C246 H236 0.950 . S
C246 C247 1.386 . S
C246 C248 1.391 . S
C247 C246 1.386 . S
C247 C251 1.393 . S
C248 H237 0.950 . S
C248 C246 1.391 . S
C248 C249 1.400 . S
C249 C243 1.491 . S
C249 C248 1.400 . S
C249 C250 1.398 . S
C250 H238 0.950 . S
C250 C249 1.398 . S
C250 C251 1.391 . S
C251 H239 0.950 . S
C251 C247 1.393 . S
C251 C250 1.391 . S
H252 C260 0.950 . S
H253 C265 0.950 . S
H254 C262 0.950 . S
H255 C264 0.950 . S
H256 C266 0.950 . S
H257 C268 0.950 . S
H258 C270 0.950 . S
H259 C271 0.950 . S
C260 H252 0.950 . S
C260 C261 1.386 . S
C260 C262 1.391 . S
C261 C260 1.386 . S
C261 C265 1.393 . S
C262 H254 0.950 . S
C262 C260 1.391 . S
C262 C263 1.400 . S
C263 C262 1.400 . S
C263 C264 1.398 . S
C263 C269 1.491 . S
C264 H255 0.950 . S
C264 C263 1.398 . S
C264 C265 1.391 . S
C265 H253 0.950 . S
C265 C261 1.393 . S
C265 C264 1.391 . S
C266 H256 0.950 . S
C266 C267 1.386 . S
C266 C268 1.391 . S
C267 C266 1.386 . S
C267 C271 1.393 . S
C268 H257 0.950 . S
C268 C266 1.391 . S
C268 C269 1.400 . S
C269 C263 1.491 . S
C269 C268 1.400 . S
C269 C270 1.398 . S
C270 H258 0.950 . S
C270 C269 1.398 . S
C270 C271 1.391 . S
C271 H259 0.950 . S
C271 C267 1.393 . S
C271 C270 1.391 . S
H272 C280 0.950 . S
H273 C285 0.950 . S
H274 C282 0.950 . S
H275 C284 0.950 . S
H276 C286 0.950 . S
H277 C288 0.950 . S
H278 C290 0.950 . S
H279 C291 0.950 . S
C280 H272 0.950 . S
C280 C281 1.386 . S
C280 C282 1.391 . S
C281 C280 1.386 . S
C281 C285 1.393 . S
C282 H274 0.950 . S
C282 C280 1.391 . S
C282 C283 1.400 . S
C283 C282 1.400 . S
C283 C284 1.398 . S
C283 C289 1.491 . S
C284 H275 0.950 . S
C284 C283 1.398 . S
C284 C285 1.391 . S
C285 H273 0.950 . S
C285 C281 1.393 . S
C285 C284 1.391 . S
C286 H276 0.950 . S
C286 C287 1.386 . S
C286 C288 1.391 . S
C287 C286 1.386 . S
C287 C291 1.393 . S
C288 H277 0.950 . S
C288 C286 1.391 . S
C288 C289 1.400 . S
C289 C283 1.491 . S
C289 C288 1.400 . S
C289 C290 1.398 . S
C290 H278 0.950 . S
C290 C289 1.398 . S
C290 C291 1.391 . S
C291 H279 0.950 . S
C291 C287 1.393 . S
C291 C290 1.391 . S
H292 C300 0.950 . S
H293 C305 0.950 . S
H294 C302 0.950 . S
H295 C304 0.950 . S
H296 C306 0.950 . S
H297 C308 0.950 . S
H298 C310 0.950 . S
H299 C311 0.950 . S
C300 H292 0.950 . S
C300 C301 1.386 . S
C300 C302 1.391 . S
C301 C300 1.386 . S
C301 C305 1.393 . S
C302 H294 0.950 . S
C302 C300 1.391 . S
C302 C303 1.400 . S
C303 C302 1.400 . S
C303 C304 1.398 . S
C303 C309 1.491 . S
C304 H295 0.950 . S
C304 C303 1.398 . S
C304 C305 1.391 . S
C305 H293 0.950 . S
C305 C301 1.393 . S
C305 C304 1.391 . S
C306 H296 0.950 . S
C306 C307 1.386 . S
C306 C308 1.391 . S
C307 C306 1.386 . S
C307 C311 1.393 . S
C308 H297 0.950 . S
C308 C306 1.391 . S
C308 C309 1.400 . S
C309 C303 1.491 . S
C309 C308 1.400 . S
C309 C310 1.398 . S
C310 H298 0.950 . S
C310 C309 1.398 . S
C310 C311 1.391 . S
C311 H299 0.950 . S
C311 C307 1.393 . S
C311 C310 1.391 . S
H312 C320 0.950 . S
H313 C325 0.950 . S
H314 C322 0.950 . S
H315 C324 0.950 . S
H316 C326 0.950 . S
H317 C328 0.950 . S
H318 C330 0.950 . S
H319 C331 0.950 . S
C320 H312 0.950 . S
C320 C321 1.386 . S
C320 C322 1.391 . S
C321 C320 1.386 . S
C321 C325 1.393 . S
C322 H314 0.950 . S
C322 C320 1.391 . S
C322 C323 1.400 . S
C323 C322 1.400 . S
C323 C324 1.398 . S
C323 C329 1.491 . S
C324 H315 0.950 . S
C324 C323 1.398 . S
C324 C325 1.391 . S
C325 H313 0.950 . S
C325 C321 1.393 . S
C325 C324 1.391 . S
C326 H316 0.950 . S
C326 C327 1.386 . S
C326 C328 1.391 . S
C327 C326 1.386 . S
C327 C331 1.393 . S
C328 H317 0.950 . S
C328 C326 1.391 . S
C328 C329 1.400 . S
C329 C323 1.491 . S
C329 C328 1.400 . S
C329 C330 1.398 . S
C330 H318 0.950 . S
C330 C329 1.398 . S
C330 C331 1.391 . S
C331 H319 0.950 . S
C331 C327 1.393 . S
C331 C330 1.391 . S
H332 C340 0.950 . S
H333 C345 0.950 . S
H334 C342 0.950 . S
H335 C344 0.950 . S
H336 C346 0.950 . S
H337 C348 0.950 . S
H338 C350 0.950 . S
H339 C351 0.950 . S
C340 H332 0.950 . S
C340 C341 1.386 . S
C340 C342 1.391 . S
C341 C340 1.386 . S
C341 C345 1.393 . S
C342 H334 0.950 . S
C342 C340 1.391 . S
C342 C343 1.400 . S
C343 C342 1.400 . S
C343 C344 1.398 . S
C343 C349 1.491 . S
C344 H335 0.950 . S
C344 C343 1.398 . S
C344 C345 1.391 . S
C345 H333 0.950 . S
C345 C341 1.393 . S
C345 C344 1.391 . S
C346 H336 0.950 . S
C346 C347 1.386 . S
C346 C348 1.391 . S
C347 C346 1.386 . S
C347 C351 1.393 . S
C348 H337 0.950 . S
C348 C346 1.391 . S
C348 C349 1.400 . S
C349 C343 1.491 . S
C349 C348 1.400 . S
C349 C350 1.398 . S
C350 H338 0.950 . S
C350 C349 1.398 . S
C350 C351 1.391 . S
C351 H339 0.950 . S
C351 C347 1.393 . S
C351 C350 1.391 . S
C127 C48 1.504 . S
C121 C43 1.508 . S
C141 C10 1.511 . S
C147 C91 1.509 . S
C161 C21 1.502 . S
C167 C57 1.509 . S
C181 C32 1.508 . S
C187 C82 1.504 . S
C207 C44 1.558 . S
C201 C5 1.528 . S
C227 C86 1.540 . S
C221 C15 1.536 . S
C241 C27 1.534 . S
C247 C52 1.553 . S
C261 C38 1.514 . S
C267 C78 1.541 . S
C287 C107 1.475 . S
C281 C16 1.463 . S
C307 C73 1.459 . S
C301 C26 1.452 . S
C327 C95 1.473 . S
C321 C37 1.473 . S
C341 C4 1.452 . S
C347 C61 1.458 . S
