# Generated by pormake.
# Topology ftw, (4,12)-cn, num edge types: 1
# Building blocks:
#     Node 0, Type 0, BuildingBlock: MUDLON_clean_linker_0, # of connection points: 4
#     Node 1, Type 0, BuildingBlock: MUDLON_clean_linker_0, # of connection points: 4
#     Node 2, Type 0, BuildingBlock: MUDLON_clean_linker_0, # of connection points: 4
#     Node 3, Type 1, BuildingBlock: EZIPEK_clean_sbu_0, # of connection points: 12
#     Edge 4, Type (0, 1), BuildingBlock: CIFDUS_clean_linker_0, # of connection points: 2
#     Edge 5, Type (0, 1), BuildingBlock: CIFDUS_clean_linker_0, # of connection points: 2
#     Edge 6, Type (0, 1), BuildingBlock: CIFDUS_clean_linker_0, # of connection points: 2
#     Edge 7, Type (0, 1), BuildingBlock: CIFDUS_clean_linker_0, # of connection points: 2
#     Edge 8, Type (0, 1), BuildingBlock: CIFDUS_clean_linker_0, # of connection points: 2
#     Edge 9, Type (0, 1), BuildingBlock: CIFDUS_clean_linker_0, # of connection points: 2
#     Edge 10, Type (0, 1), BuildingBlock: CIFDUS_clean_linker_0, # of connection points: 2
#     Edge 11, Type (0, 1), BuildingBlock: CIFDUS_clean_linker_0, # of connection points: 2
#     Edge 12, Type (0, 1), BuildingBlock: CIFDUS_clean_linker_0, # of connection points: 2
#     Edge 13, Type (0, 1), BuildingBlock: CIFDUS_clean_linker_0, # of connection points: 2
#     Edge 14, Type (0, 1), BuildingBlock: CIFDUS_clean_linker_0, # of connection points: 2
#     Edge 15, Type (0, 1), BuildingBlock: CIFDUS_clean_linker_0, # of connection points: 2
# Relax obj value: 0.081
# Max RMSD: 0.225
# Mean RMSD: 0.171
data_MOF--net-ftw--node1-EZIPEK_clean_sbu_0--node2-MUDLON_clean_linker_0--edge1-CIFDUS_clean_linker_0
_symmetry_space_group_name_H-M    P1
_symmetry_Int_Tables_number       1
_symmetry_cell_setting            triclinic
loop_
_symmetry_equiv_pos_as_xyz
'x, y, z'
_cell_length_a     26.948978
_cell_length_b     29.464262
_cell_length_c     27.264979
_cell_angle_alpha  89.861994
_cell_angle_beta   90.010084
_cell_angle_gamma 90.043862
loop_
_atom_site_label
_atom_site_type_symbol
_atom_site_fract_x
_atom_site_fract_y
_atom_site_fract_z
_atom_type_partial_charge
H0 H 0.96515 0.72711 0.58985 0.0
N1 N 0.04844 0.69732 0.54236 0.0
H2 H 0.96158 0.76345 0.67032 0.0
H3 H 0.12442 0.72104 0.59934 0.0
H4 H 0.12157 0.75839 0.67948 0.0
H5 H 0.11896 0.71562 0.477 0.0
H6 H 0.10972 0.75054 0.39629 0.0
H7 H 0.96247 0.73058 0.5032 0.0
H8 H 0.95284 0.76846 0.4238 0.0
H9 H 0.96167 0.65206 0.55785 0.0
H10 H 0.11674 0.63379 0.52617 0.0
H11 H 0.94993 0.5699 0.55959 0.0
H12 H 0.10522 0.55151 0.52449 0.0
H13 H 0.93019 0.35243 0.6175 0.0
H14 H 0.94143 0.31669 0.69775 0.0
H15 H 0.08996 0.27705 0.65601 0.0
H16 H 0.07872 0.31465 0.57663 0.0
H17 H 0.07999 0.34276 0.49225 0.0
H18 H 0.08517 0.30524 0.41188 0.0
H19 H 0.92647 0.28481 0.41368 0.0
H20 H 0.92195 0.3219 0.49391 0.0
H21 H 0.9319 0.42272 0.51529 0.0
H22 H 0.94448 0.50478 0.51271 0.0
H23 H 0.09259 0.48645 0.57081 0.0
N24 N -0.00446 0.35924 0.54475 0.0
H25 H 0.08025 0.40425 0.57016 0.0
C26 C 0.04522 0.72145 0.58835 0.0
C27 C -0.00055 0.734 0.60897 0.0
C28 C -0.00248 0.75498 0.65516 0.0
C29 C 0.04129 0.76385 0.68188 0.0
C30 C 0.087 0.75152 0.66066 0.0
C31 C 0.08882 0.73058 0.61457 0.0
C32 C 0.04173 0.72118 0.49652 0.0
C33 C 0.08268 0.72739 0.46558 0.0
C34 C 0.07722 0.7477 0.41939 0.0
C35 C 0.0305 0.76301 0.40295 0.0
C36 C 0.98937 0.7568 0.43443 0.0
C37 C 0.99485 0.73573 0.48045 0.0
C38 C 0.04029 0.64897 0.54256 0.0
C39 C 0.99321 0.63027 0.55115 0.0
C40 C 0.98653 0.58306 0.55147 0.0
C41 C 0.02661 0.55343 0.54219 0.0
C42 C 0.07357 0.57271 0.53286 0.0
C43 C 0.08026 0.61984 0.53335 0.0
C44 C 0.00322 0.33583 0.59081 0.0
C45 C 0.96506 0.33581 0.62573 0.0
C46 C 0.97158 0.3151 0.67158 0.0
C47 C 0.01659 0.29351 0.68377 0.0
C48 C 0.05496 0.29367 0.6485 0.0
C49 C 0.04844 0.31477 0.60266 0.0
C50 C 0.00053 0.33457 0.49931 0.0
C51 C 0.04654 0.32949 0.47563 0.0
C52 C 0.04937 0.30818 0.4296 0.0
C53 C 0.00616 0.29224 0.40605 0.0
C54 C 0.96038 0.29719 0.43029 0.0
C55 C 0.95772 0.31797 0.47635 0.0
C56 C 0.00483 0.40746 0.54325 0.0
C57 C 0.96712 0.4366 0.52716 0.0
C58 C 0.97433 0.48363 0.52625 0.0
C59 C 0.01945 0.50289 0.54205 0.0
C60 C 0.05751 0.47328 0.55775 0.0
C61 C 0.05044 0.42609 0.55789 0.0
H62 H 0.45115 0.86947 0.36858 0.0
N63 N 0.52657 0.92723 0.38055 0.0
H64 H 0.36979 0.88506 0.33191 0.0
H65 H 0.49698 1.00649 0.33594 0.0
H66 H 0.41561 1.02357 0.30433 0.0
H67 H 0.53855 0.93432 0.27952 0.0
H68 H 0.61347 0.95587 0.2364 0.0
H69 H 0.62077 0.93053 0.41581 0.0
H70 H 0.69515 0.95386 0.37268 0.0
H71 H 0.50556 0.89106 0.46796 0.0
H72 H 0.54858 1.01664 0.39824 0.0
H73 H 0.50424 0.9295 0.54748 0.0
H74 H 0.54281 0.05585 0.47564 0.0
H75 H 0.47394 1.02709 0.76235 0.0
H76 H 0.39326 0.03272 0.8013 0.0
H77 H 0.37408 0.1671 0.74116 0.0
H78 H 0.45557 0.16108 0.70049 0.0
H79 H 0.58002 0.14793 0.74461 0.0
H80 H 0.65255 0.12916 0.79535 0.0
H81 H 0.62033 0.9865 0.77871 0.0
H82 H 0.54915 1.00524 0.72677 0.0
H83 H 0.45629 1.01978 0.67216 0.0
H84 H 0.45917 0.98119 0.5945 0.0
H85 H 0.58257 0.0657 0.54983 0.0
N86 N 0.51741 0.09069 0.70211 0.0
H87 H 0.57705 0.1069 0.62699 0.0
C88 C 0.48036 0.93654 0.35528 0.0
C89 C 0.44364 0.90287 0.35369 0.0
C90 C 0.39694 0.91212 0.33344 0.0
C91 C 0.38582 0.95566 0.31506 0.0
C92 C 0.42275 0.98938 0.31707 0.0
C93 C 0.46949 0.97983 0.33615 0.0
C94 C 0.57198 0.93505 0.35242 0.0
C95 C 0.57198 0.9392 0.30081 0.0
C96 C 0.61523 0.9514 0.27581 0.0
C97 C 0.65987 0.95864 0.30136 0.0
C98 C 0.66128 0.94948 0.35184 0.0
C99 C 0.61824 0.93677 0.37674 0.0
C100 C 0.52628 0.95082 0.42703 0.0
C101 C 0.51399 0.92696 0.46975 0.0
C102 C 0.51283 0.94915 0.51497 0.0
C103 C 0.52317 0.99595 0.51805 0.0
C104 C 0.53534 1.01975 0.47502 0.0
C105 C 0.53751 0.99744 0.43024 0.0
C106 C 0.47094 0.09381 0.72811 0.0
C107 C 0.45303 0.058 0.75748 0.0
C108 C 0.40662 0.06097 0.77945 0.0
C109 C 0.37771 0.10006 0.77349 0.0
C110 C 0.39594 0.13654 0.74574 0.0
C111 C 0.44218 0.13317 0.72277 0.0
C112 C 0.55898 0.07823 0.73249 0.0
C113 C 0.58871 0.1127 0.75201 0.0
C114 C 0.62995 0.10196 0.78068 0.0
C115 C 0.64153 0.05646 0.79081 0.0
C116 C 0.61165 1.02181 0.77163 0.0
C117 C 0.57099 0.03254 0.74217 0.0
C118 C 0.5162 0.0673 0.65559 0.0
C119 C 0.48362 0.03092 0.64587 0.0
C120 C 0.4857 1.00808 0.60122 0.0
C121 C 0.52109 1.02015 0.56569 0.0
C122 C 0.55401 0.05604 0.57575 0.0
C123 C 0.55115 0.07955 0.61994 0.0
H124 H 0.4428 0.3512 0.1336 0.0
N125 N 0.52168 0.36442 0.07728 0.0
H126 H 0.36906 0.30577 0.11522 0.0
H127 H 0.50184 0.32197 0.99035 0.0
H128 H 0.42795 0.27685 0.97122 0.0
H129 H 0.58881 0.35256 1.0022 0.0
H130 H 0.66261 0.30469 1.00415 0.0
H131 H 0.55715 0.3175 0.15257 0.0
H132 H 0.63097 0.26891 0.15457 0.0
H133 H 0.51721 0.43337 0.13929 0.0
H134 H 0.52639 0.40215 0.98541 0.0
H135 H 0.51504 0.51423 0.12014 0.0
H136 H 0.52915 0.48261 0.96575 0.0
H137 H 0.4752 0.71455 0.07697 0.0
H138 H 0.39393 0.75175 0.08387 0.0
H139 H 0.39023 0.76926 0.92657 0.0
H140 H 0.47142 0.73237 0.92026 0.0
H141 H 0.5941 0.70905 0.92356 0.0
H142 H 0.67523 0.74511 0.93249 0.0
H143 H 0.64317 0.7704 0.08555 0.0
H144 H 0.56101 0.73752 0.0748 0.0
H145 H 0.55781 0.65685 0.07752 0.0
H146 H 0.55899 0.57656 0.09654 0.0
H147 H 0.48501 0.5484 0.95896 0.0
N148 N 0.52522 0.69636 0.99193 0.0
H149 H 0.48831 0.629 0.93848 0.0
C150 C 0.47771 0.33975 0.06361 0.0
C151 C 0.43942 0.33535 0.09796 0.0
C152 C 0.39726 0.30963 0.08722 0.0
C153 C 0.39258 0.28766 0.04171 0.0
C154 C 0.43064 0.29298 1.00677 0.0
C155 C 0.47281 0.31892 1.01755 0.0
C156 C 0.56747 0.33908 0.07763 0.0
C157 C 0.59792 0.33523 0.03591 0.0
C158 C 0.6403 0.30776 0.03703 0.0
C159 C 0.65255 0.28304 0.0795 0.0
C160 C 0.62231 0.28732 0.12122 0.0
C161 C 0.58036 0.31518 0.12024 0.0
C162 C 0.52315 0.41176 0.0641 0.0
C163 C 0.51993 0.44416 0.10138 0.0
C164 C 0.5191 0.49048 0.09022 0.0
C165 C 0.52245 0.50561 0.04125 0.0
C166 C 0.52582 0.47274 1.00386 0.0
C167 C 0.52534 0.42636 1.01509 0.0
C168 C 0.47958 0.72126 0.99801 0.0
C169 C 0.45725 0.72716 0.04416 0.0
C170 C 0.41068 0.74823 0.04798 0.0
C171 C 0.38534 0.76318 1.00571 0.0
C172 C 0.40827 0.75757 0.95978 0.0
C173 C 0.45486 0.73696 0.9561 0.0
C174 C 0.57151 0.72039 0.99833 0.0
C175 C 0.60456 0.72299 0.9588 0.0
C176 C 0.65133 0.74307 0.96431 0.0
C177 C 0.66667 0.76047 1.00998 0.0
C178 C 0.63296 0.75815 0.04955 0.0
C179 C 0.58576 0.73891 0.04363 0.0
C180 C 0.52396 0.64906 1.00581 0.0
C181 C 0.5425 0.63355 0.05102 0.0
C182 C 0.54244 0.5872 0.06224 0.0
C183 C 0.52233 0.55527 1.02931 0.0
C184 C 0.50219 0.57135 0.98483 0.0
C185 C 0.50347 0.61757 0.97316 0.0
C186 C 0.01209 0.14296 0.92842 0.0
C187 C 0.03364 0.13407 0.16904 0.0
C188 C 0.01535 0.9239 0.91842 0.0
C189 C 0.03713 0.91495 0.15904 0.0
C190 C 0.14764 0.92222 0.03738 0.0
C191 C 0.14321 0.14099 0.03914 0.0
C192 C 0.90387 0.91926 0.05021 0.0
C193 C 0.90225 0.13773 0.05594 0.0
C194 C 0.91306 1.01995 0.16902 0.0
C195 C 0.15351 1.02644 0.15154 0.0
C196 C 0.89653 0.03378 0.93451 0.0
C197 C 0.13441 0.04128 0.91778 0.0
Eu198 Eu 0.02306 0.11715 0.0479 0.0
O199 O 0.07022 0.06937 0.08596 0.0
O200 O 0.97786 0.07143 1.00533 0.0
Eu201 Eu 0.11587 0.03103 0.03672 0.0
Eu202 Eu 0.93274 0.0286 0.05018 0.0
O203 O 0.06323 0.07273 0.99925 0.0
O204 O 0.98359 0.06848 0.09287 0.0
Eu205 Eu 0.01763 0.0325 0.95157 0.0
Eu206 Eu 0.0314 1.02547 0.13623 0.0
O207 O 0.06563 0.98946 0.99466 0.0
O208 O 0.0704 0.98755 0.08118 0.0
O209 O 0.98534 0.98606 0.08776 0.0
O210 O 0.9783 0.98897 1.00171 0.0
Eu211 Eu 0.02535 0.94074 0.03954 0.0
O212 O 0.01676 0.15671 0.97513 0.0
O213 O 0.02757 0.15121 0.12374 0.0
O214 O 0.02139 0.90656 0.96364 0.0
O215 O 0.03125 0.90112 0.11246 0.0
O216 O 0.15995 0.96604 0.03647 0.0
O217 O 0.15746 0.09775 0.03583 0.0
O218 O 0.89098 0.96277 0.05327 0.0
O219 O 0.88916 0.09404 0.05593 0.0
O220 O 0.96088 1.0183 0.18191 0.0
O221 O 0.10831 1.02253 0.17124 0.0
O222 O 0.94216 0.03542 0.91586 0.0
O223 O 0.08686 0.03823 0.90492 0.0
O224 O 0.95018 0.90354 0.04378 0.0
O225 O 0.10133 0.90547 0.03695 0.0
O226 O 0.94874 0.15338 0.05299 0.0
O227 O 0.0964 0.15528 0.04422 0.0
O228 O 0.03614 0.09007 0.1805 0.0
O229 O 0.03881 0.95785 0.17428 0.0
O230 O 0.01125 0.10008 0.913 0.0
O231 O 0.01273 0.96797 0.90733 0.0
O232 O 0.15235 0.03845 0.9631 0.0
O233 O 0.16335 0.03116 0.10405 0.0
O234 O 0.88529 0.03031 0.98196 0.0
O235 O 0.89596 1.02519 0.12365 0.0
H236 H 0.07216 0.22896 0.37276 0.0
H237 H 0.94463 0.30677 0.32756 0.0
H238 H 0.94434 0.26825 0.2482 0.0
H239 H 0.97736 0.20852 0.19296 0.0
H240 H 0.10215 0.12849 0.24089 0.0
H241 H 0.10712 0.17208 0.31676 0.0
C242 C 0.04472 0.23795 0.34531 0.0
C243 C 0.00832 0.27061 0.35643 0.0
C244 C 0.04432 0.21515 0.29988 0.0
C245 C 0.97269 0.28134 0.32041 0.0
C246 C 0.97262 0.25944 0.27483 0.0
C247 C 0.00613 0.20134 0.21968 0.0
C248 C 0.03948 0.16545 0.21121 0.0
C249 C 0.00782 0.22575 0.26428 0.0
C250 C 0.07604 0.15593 0.24658 0.0
C251 C 0.07882 0.18077 0.29009 0.0
H252 H 0.75788 0.93683 0.31509 0.0
H253 H 0.66115 1.02426 0.23091 0.0
H254 H 0.73224 0.05482 0.18691 0.0
H255 H 0.82056 0.05371 0.16886 0.0
H256 H 0.91863 0.96682 0.25156 0.0
H257 H 0.84844 0.94076 0.30156 0.0
C258 C 0.75238 0.96299 0.2876 0.0
C259 C 0.70399 0.97755 0.27577 0.0
C260 C 0.79364 0.98098 0.26272 0.0
C261 C 0.69769 1.01137 0.23981 0.0
C262 C 0.73839 0.02931 0.21499 0.0
C263 C 0.82675 0.02952 0.19833 0.0
C264 C 0.8745 1.01191 0.20638 0.0
C265 C 0.78632 1.0139 0.22567 0.0
C266 C 0.88219 0.9811 0.24498 0.0
C267 C 0.84198 0.96578 0.27308 0.0
H268 H 0.09754 0.81699 0.35422 0.0
H269 H 0.95087 0.75955 0.339 0.0
H270 H 0.94112 0.79788 0.26013 0.0
H271 H 0.97296 0.85122 0.19637 0.0
H272 H 0.12024 0.90616 0.21213 0.0
H273 H 0.13168 0.86398 0.2885 0.0
C274 C 0.06371 0.81182 0.33348 0.0
C275 C 0.02499 0.78528 0.35344 0.0
C276 C 0.05862 0.83328 0.28751 0.0
C277 C 0.98112 0.78038 0.32569 0.0
C278 C 0.97562 0.80199 0.28007 0.0
C279 C 0.00798 0.85272 0.21591 0.0
C280 C 0.04608 0.88116 0.19832 0.0
C281 C 0.01397 0.82887 0.26066 0.0
C282 C 0.09073 0.88399 0.2247 0.0
C283 C 0.09711 0.86017 0.26859 0.0
H284 H 0.36727 1.01097 0.2375 0.0
H285 H 0.29326 0.92349 0.34166 0.0
H286 H 0.21346 0.9402 0.30281 0.0
H287 H 0.16516 0.97821 0.23685 0.0
H288 H 0.24144 0.06792 0.13656 0.0
H289 H 0.31952 0.05361 0.17826 0.0
C290 C 0.33376 0.99629 0.2528 0.0
C291 C 0.33664 0.96605 0.29265 0.0
C292 C 0.28812 1.00692 0.23129 0.0
C293 C 0.29253 0.94636 0.31054 0.0
C294 C 0.24672 0.95627 0.28867 0.0
C295 C 0.19874 0.99522 0.22488 0.0
C296 C 0.19763 1.02366 0.18339 0.0
C297 C 0.24409 0.98638 0.24876 0.0
C298 C 0.24143 0.04543 0.16808 0.0
C299 C 0.28618 0.03718 0.19175 0.0
H300 H 0.98059 0.83269 0.71233 0.0
H301 H 0.09819 0.7453 0.76339 0.0
H302 H 0.09833 0.7841 0.84253 0.0
H303 H 0.06764 0.84605 0.89657 0.0
H304 H 0.95106 0.93345 0.84338 0.0
H305 H 0.9471 0.89089 0.76697 0.0
C306 C 0.00578 0.82153 0.74092 0.0
C307 C 0.03952 0.78613 0.73134 0.0
C308 C 0.00575 0.84406 0.78648 0.0
C309 C 0.07232 0.7729 0.76904 0.0
C310 C 0.07223 0.79492 0.81463 0.0
C311 C 0.04082 0.85512 0.86856 0.0
C312 C 0.00969 0.89292 0.87576 0.0
C313 C 0.03947 0.83097 0.82371 0.0
C314 C 0.97561 0.90466 0.83874 0.0
C315 C 0.97337 0.88039 0.79488 0.0
H316 H 0.29924 0.0459 0.75624 0.0
H317 H 0.34881 0.158 0.84493 0.0
H318 H 0.2741 0.15182 0.89575 0.0
H319 H 0.20022 0.10869 0.92 0.0
H320 H 0.14931 0.99727 0.83112 0.0
H321 H 0.21893 1.00912 0.77429 0.0
C322 C 0.29288 0.06947 0.78611 0.0
C323 C 0.329 0.10215 0.79741 0.0
C324 C 0.25017 0.06548 0.81501 0.0
C325 C 0.32101 0.1328 0.83581 0.0
C326 C 0.27865 0.12904 0.86492 0.0
C327 C 0.20425 0.08744 0.88778 0.0
C328 C 0.17081 0.05175 0.87971 0.0
C329 C 0.24388 0.09463 0.85568 0.0
C330 C 0.17515 1.02479 0.83771 0.0
C331 C 0.21489 0.03147 0.80555 0.0
H332 H 0.94751 0.2465 0.73755 0.0
H333 H 0.10072 0.28924 0.74123 0.0
H334 H 0.1121 0.25019 0.81955 0.0
H335 H 0.07943 0.20021 0.88578 0.0
H336 H 0.92642 0.15821 0.881 0.0
H337 H 0.91368 0.20171 0.80554 0.0
C338 C 0.98325 0.24814 0.7557 0.0
C339 C 0.02318 0.27085 0.73281 0.0
C340 C 0.98947 0.22596 0.80115 0.0
C341 C 0.0694 0.27145 0.75705 0.0
C342 C 0.07589 0.24939 0.80226 0.0
C343 C 0.04306 0.20182 0.86882 0.0
C344 C 0.00354 0.17697 0.88938 0.0
C345 C 0.03632 0.22617 0.82456 0.0
C346 C 0.957 0.17791 0.86629 0.0
C347 C 0.94986 0.20241 0.8229 0.0
H348 H 0.73614 0.08242 0.77518 0.0
H349 H 0.64364 1.00518 0.8737 0.0
H350 H 0.71527 0.98976 0.92651 0.0
H351 H 0.80329 1.0012 0.94604 0.0
H352 H 0.89641 0.07632 0.84575 0.0
H353 H 0.82548 0.08936 0.79181 0.0
C354 C 0.73193 0.06219 0.80823 0.0
C355 C 0.68504 0.04528 0.82112 0.0
C356 C 0.7732 0.05311 0.83787 0.0
C357 C 0.67967 1.01847 0.86339 0.0
C358 C 0.72045 1.00979 0.89351 0.0
C359 C 0.80803 1.02028 0.91228 0.0
C360 C 0.85477 0.03812 0.90004 0.0
C361 C 0.76726 1.02737 0.88134 0.0
C362 C 0.86073 0.06215 0.85586 0.0
C363 C 0.82019 0.06982 0.82514 0.0
H364 H 0.29514 0.30286 0.06347 0.0
H365 H 0.39326 0.20402 0.99872 0.0
H366 H 0.32415 0.15114 0.98955 0.0
H367 H 0.23746 0.1309 1.00523 0.0
H368 H 0.13896 0.22915 0.07068 0.0
H369 H 0.20675 0.28415 0.07452 0.0
C370 C 0.30138 0.26974 0.04735 0.0
C371 C 0.34945 0.25737 0.03215 0.0
C372 C 0.26154 0.23923 0.04269 0.0
C373 C 0.35666 0.21464 1.01041 0.0
C374 C 0.31722 0.18419 1.00551 0.0
C375 C 0.23064 0.16437 1.02023 0.0
C376 C 0.18319 0.17562 0.03814 0.0
C377 C 0.26973 0.19582 1.02235 0.0
C378 C 0.17504 0.21947 0.05669 0.0
C379 C 0.21386 0.25094 0.05905 0.0
H380 H 0.35421 0.82751 0.07045 0.0
H381 H 0.30388 0.74728 0.94811 0.0
H382 H 0.22364 0.786 0.94969 0.0
H383 H 0.1692 0.84668 0.98267 0.0
H384 H 0.22228 0.92881 0.10235 0.0
H385 H 0.29902 0.88501 0.10571 0.0
C386 C 0.32544 0.81803 0.0446 0.0
C387 C 0.33529 0.7847 1.00907 0.0
C388 C 0.27958 0.84088 0.04528 0.0
C389 C 0.29764 0.77327 0.97545 0.0
C390 C 0.25159 0.79527 0.97645 0.0
C391 C 0.19729 0.85425 1.00995 0.0
C392 C 0.19014 0.89077 0.04227 0.0
C393 C 0.24229 0.82968 1.01073 0.0
C394 C 0.22708 0.90084 0.07702 0.0
C395 C 0.27105 0.8759 0.0789 0.0
H396 H 0.74696 0.29882 0.04737 0.0
H397 H 0.65379 0.19568 0.11197 0.0
H398 H 0.72286 0.14208 0.11113 0.0
H399 H 0.80901 0.12399 0.09078 0.0
H400 H 0.90354 0.2271 1.02778 0.0
H401 H 0.83477 0.28121 1.02939 0.0
C402 C 0.74188 0.26456 0.06112 0.0
C403 C 0.69533 0.25123 0.07967 0.0
C404 C 0.78194 0.23394 0.06085 0.0
C405 C 0.68936 0.2069 0.09793 0.0
C406 C 0.72876 0.17617 0.09726 0.0
C407 C 0.81467 0.15828 0.07732 0.0
C408 C 0.86138 0.17132 0.05891 0.0
C409 C 0.77513 0.18926 0.07864 0.0
C410 C 0.86808 0.21613 0.0423 0.0
C411 C 0.82869 0.24708 0.04303 0.0
H412 H 0.69356 0.83081 0.06992 0.0
H413 H 0.75451 0.73771 0.96372 0.0
H414 H 0.83471 0.77578 0.96917 0.0
H415 H 0.8868 0.83921 1.00066 0.0
H416 H 0.82488 0.92871 0.1097 0.0
H417 H 0.74701 0.8871 0.10798 0.0
C418 C 0.72441 0.81786 0.04868 0.0
C419 C 0.71708 0.78154 1.01596 0.0
C420 C 0.77087 0.83924 0.0527 0.0
C421 C 0.75806 0.76632 0.98829 0.0
C422 C 0.80437 0.78782 0.99172 0.0
C423 C 0.85662 0.8488 1.02479 0.0
C424 C 0.86156 0.8873 0.05485 0.0
C425 C 0.81113 0.82483 1.02331 0.0
C426 C 0.82191 0.89953 0.08573 0.0
C427 C 0.77718 0.87584 0.08471 0.0
loop_
_geom_bond_atom_site_label_1
_geom_bond_atom_site_label_2
_geom_bond_distance
_geom_bond_site_symmetry_2
_ccdc_geom_bond_type
H0 C27 0.929 . S
N1 C26 1.433 . S
N1 C32 1.435 . S
N1 C38 1.423 . S
H2 C28 0.921 1_655 S
H3 C31 0.931 . S
H4 C30 0.929 . S
H5 C33 0.930 . S
H6 C34 0.932 . S
H7 C37 0.929 . S
H8 C36 0.931 . S
H9 C39 0.929 . S
H10 C43 0.932 . S
H11 C40 0.931 . S
H12 C42 0.929 . S
H13 C45 0.929 . S
H14 C46 0.921 1_655 S
H15 C48 0.929 . S
H16 C49 0.931 . S
H17 C51 0.930 . S
H18 C52 0.932 . S
H19 C54 0.931 . S
H20 C55 0.929 . S
H21 C57 0.929 . S
H22 C58 0.931 . S
H23 C60 0.929 . S
N24 C44 1.433 . S
N24 C50 1.435 . S
N24 C56 1.423 . S
H25 C61 0.932 . S
C26 N1 1.433 . S
C26 C27 1.363 1_455 S
C26 C31 1.370 . S
C27 H0 0.929 . S
C27 C26 1.363 1_655 S
C27 C28 1.383 1_655 S
C28 H2 0.921 1_455 S
C28 C27 1.383 1_455 S
C28 C29 1.368 . S
C29 C28 1.368 . S
C29 C30 1.406 . S
C30 H4 0.929 . S
C30 C29 1.406 . S
C30 C31 1.391 . S
C31 H3 0.931 . S
C31 C26 1.370 . S
C31 C30 1.391 . S
C32 N1 1.435 . S
C32 C33 1.358 . S
C32 C37 1.371 1_455 S
C33 H5 0.930 . S
C33 C32 1.358 . S
C33 C34 1.405 . S
C34 H6 0.932 . S
C34 C33 1.405 . S
C34 C35 1.383 . S
C35 C34 1.383 . S
C35 C36 1.393 1_455 S
C36 H8 0.931 . S
C36 C35 1.393 1_655 S
C36 C37 1.382 . S
C37 H7 0.929 . S
C37 C32 1.371 1_655 S
C37 C36 1.382 . S
C38 N1 1.423 . S
C38 C39 1.362 1_455 S
C38 C43 1.388 . S
C39 H9 0.929 . S
C39 C38 1.362 1_655 S
C39 C40 1.376 . S
C40 H11 0.931 . S
C40 C39 1.376 . S
C40 C41 1.396 . S
C41 C40 1.396 . S
C41 C42 1.348 1_655 S
C41 C59 1.472 . S
C42 H12 0.929 . S
C42 C41 1.348 1_455 S
C42 C43 1.443 . S
C43 H10 0.932 . S
C43 C38 1.388 . S
C43 C42 1.443 . S
C44 N24 1.433 . S
C44 C45 1.363 1_455 S
C44 C49 1.370 . S
C45 H13 0.929 . S
C45 C44 1.363 1_655 S
C45 C46 1.383 1_655 S
C46 H14 0.921 1_455 S
C46 C45 1.383 1_455 S
C46 C47 1.368 . S
C47 C46 1.368 . S
C47 C48 1.406 . S
C48 H15 0.929 . S
C48 C47 1.406 . S
C48 C49 1.391 . S
C49 H16 0.931 . S
C49 C44 1.370 . S
C49 C48 1.391 . S
C50 N24 1.435 . S
C50 C51 1.358 . S
C50 C55 1.371 1_455 S
C51 H17 0.930 . S
C51 C50 1.358 . S
C51 C52 1.405 . S
C52 H18 0.932 . S
C52 C51 1.405 . S
C52 C53 1.383 . S
C53 C52 1.383 . S
C53 C54 1.393 1_455 S
C54 H19 0.931 . S
C54 C53 1.393 1_655 S
C54 C55 1.382 . S
C55 H20 0.929 . S
C55 C50 1.371 1_655 S
C55 C54 1.382 . S
C56 N24 1.423 . S
C56 C57 1.362 1_455 S
C56 C61 1.388 . S
C57 H21 0.929 . S
C57 C56 1.362 1_655 S
C57 C58 1.376 . S
C58 H22 0.931 . S
C58 C57 1.376 . S
C58 C59 1.396 . S
C59 C41 1.472 . S
C59 C58 1.396 . S
C59 C60 1.348 1_655 S
C60 H23 0.929 . S
C60 C59 1.348 1_455 S
C60 C61 1.443 . S
C61 H25 0.932 . S
C61 C56 1.388 . S
C61 C60 1.443 . S
H62 C89 0.929 . S
N63 C88 1.433 . S
N63 C94 1.435 . S
N63 C100 1.423 . S
H64 C90 0.930 . S
H65 C93 0.931 . S
H66 C92 0.929 . S
H67 C95 0.930 . S
H68 C96 0.932 . S
H69 C99 0.929 . S
H70 C98 0.931 . S
H71 C101 0.929 . S
H72 C105 0.932 1_545 S
H73 C102 0.931 . S
H74 C104 0.929 1_545 S
H75 C107 0.929 . S
H76 C108 0.930 . S
H77 C110 0.929 . S
H78 C111 0.931 . S
H79 C113 0.930 . S
H80 C114 0.932 . S
H81 C116 0.931 . S
H82 C117 0.929 . S
H83 C119 0.929 . S
H84 C120 0.931 . S
H85 C122 0.929 1_545 S
N86 C106 1.433 . S
N86 C112 1.435 . S
N86 C118 1.423 . S
H87 C123 0.932 1_545 S
C88 N63 1.433 . S
C88 C89 1.363 . S
C88 C93 1.370 1_565 S
C89 H62 0.929 . S
C89 C88 1.363 . S
C89 C90 1.385 . S
C90 H64 0.930 . S
C90 C89 1.385 . S
C90 C91 1.357 . S
C91 C90 1.357 . S
C91 C92 1.406 1_565 S
C92 H66 0.929 . S
C92 C91 1.406 1_545 S
C92 C93 1.391 . S
C93 H65 0.931 . S
C93 C88 1.370 1_545 S
C93 C92 1.391 . S
C94 N63 1.435 . S
C94 C95 1.358 1_565 S
C94 C99 1.371 . S
C95 H67 0.930 . S
C95 C94 1.358 1_545 S
C95 C96 1.405 . S
C96 H68 0.932 . S
C96 C95 1.405 . S
C96 C97 1.383 1_545 S
C97 C96 1.383 1_565 S
C97 C98 1.393 . S
C98 H70 0.931 . S
C98 C97 1.393 . S
C98 C99 1.382 . S
C99 H69 0.929 . S
C99 C94 1.371 . S
C99 C98 1.382 . S
C100 N63 1.423 . S
C100 C101 1.362 . S
C100 C105 1.388 . S
C101 H71 0.929 . S
C101 C100 1.362 . S
C101 C102 1.376 . S
C102 H73 0.931 . S
C102 C101 1.376 . S
C102 C103 1.396 . S
C103 C102 1.396 . S
C103 C104 1.348 . S
C103 C121 1.472 . S
C104 H74 0.929 1_565 S
C104 C103 1.348 . S
C104 C105 1.443 . S
C105 H72 0.932 1_565 S
C105 C100 1.388 . S
C105 C104 1.443 . S
C106 N86 1.433 . S
C106 C107 1.363 . S
C106 C111 1.370 1_565 S
C107 H75 0.929 . S
C107 C106 1.363 . S
C107 C108 1.385 . S
C108 H76 0.930 . S
C108 C107 1.385 . S
C108 C109 1.357 . S
C109 C108 1.357 . S
C109 C110 1.406 1_565 S
C110 H77 0.929 . S
C110 C109 1.406 1_545 S
C110 C111 1.391 . S
C111 H78 0.931 . S
C111 C106 1.370 1_545 S
C111 C110 1.391 . S
C112 N86 1.435 . S
C112 C113 1.358 1_565 S
C112 C117 1.371 . S
C113 H79 0.930 . S
C113 C112 1.358 1_545 S
C113 C114 1.405 . S
C114 H80 0.932 . S
C114 C113 1.405 . S
C114 C115 1.383 1_545 S
C115 C114 1.383 1_565 S
C115 C116 1.393 . S
C116 H81 0.931 . S
C116 C115 1.393 . S
C116 C117 1.382 . S
C117 H82 0.929 . S
C117 C112 1.371 . S
C117 C116 1.382 . S
C118 N86 1.423 . S
C118 C119 1.362 . S
C118 C123 1.388 . S
C119 H83 0.929 . S
C119 C118 1.362 . S
C119 C120 1.376 . S
C120 H84 0.931 . S
C120 C119 1.376 . S
C120 C121 1.396 . S
C121 C103 1.472 . S
C121 C120 1.396 . S
C121 C122 1.348 . S
C122 H85 0.929 1_565 S
C122 C121 1.348 . S
C122 C123 1.443 . S
C123 H87 0.932 1_565 S
C123 C118 1.388 . S
C123 C122 1.443 . S
H124 C151 0.929 . S
N125 C150 1.433 . S
N125 C156 1.435 . S
N125 C162 1.423 . S
H126 C152 0.930 . S
H127 C155 0.931 . S
H128 C154 0.929 . S
H129 C157 0.930 . S
H130 C158 0.932 . S
H131 C161 0.929 . S
H132 C160 0.931 . S
H133 C163 0.929 . S
H134 C167 0.932 1_556 S
H135 C164 0.931 . S
H136 C166 0.929 . S
H137 C169 0.929 . S
H138 C170 0.930 . S
H139 C172 0.929 . S
H140 C173 0.931 . S
H141 C175 0.930 . S
H142 C176 0.932 . S
H143 C178 0.931 . S
H144 C179 0.929 . S
H145 C181 0.929 . S
H146 C182 0.931 . S
H147 C184 0.929 . S
N148 C168 1.433 . S
N148 C174 1.435 . S
N148 C180 1.423 . S
H149 C185 0.932 1_556 S
C150 N125 1.433 . S
C150 C151 1.363 . S
C150 C155 1.370 1_554 S
C151 H124 0.929 . S
C151 C150 1.363 . S
C151 C152 1.385 . S
C152 H126 0.930 . S
C152 C151 1.385 . S
C152 C153 1.357 . S
C153 C152 1.357 . S
C153 C154 1.406 1_554 S
C154 H128 0.929 . S
C154 C153 1.406 1_556 S
C154 C155 1.391 . S
C155 H127 0.931 . S
C155 C150 1.370 1_556 S
C155 C154 1.391 . S
C156 N125 1.435 . S
C156 C157 1.358 1_554 S
C156 C161 1.371 . S
C157 H129 0.930 . S
C157 C156 1.358 1_556 S
C157 C158 1.405 . S
C158 H130 0.932 . S
C158 C157 1.405 . S
C158 C159 1.383 1_556 S
C159 C158 1.383 1_554 S
C159 C160 1.393 . S
C160 H132 0.931 . S
C160 C159 1.393 . S
C160 C161 1.382 . S
C161 H131 0.929 . S
C161 C156 1.371 . S
C161 C160 1.382 . S
C162 N125 1.423 . S
C162 C163 1.362 . S
C162 C167 1.388 . S
C163 H133 0.929 . S
C163 C162 1.362 . S
C163 C164 1.376 . S
C164 H135 0.931 . S
C164 C163 1.376 . S
C164 C165 1.396 . S
C165 C164 1.396 . S
C165 C166 1.348 . S
C165 C183 1.472 . S
C166 H136 0.929 . S
C166 C165 1.348 . S
C166 C167 1.443 . S
C167 H134 0.932 1_554 S
C167 C162 1.388 . S
C167 C166 1.443 . S
C168 N148 1.433 . S
C168 C169 1.363 . S
C168 C173 1.370 1_554 S
C169 H137 0.929 . S
C169 C168 1.363 . S
C169 C170 1.385 . S
C170 H138 0.930 . S
C170 C169 1.385 . S
C170 C171 1.357 . S
C171 C170 1.357 . S
C171 C172 1.406 1_554 S
C172 H139 0.929 . S
C172 C171 1.406 1_556 S
C172 C173 1.391 . S
C173 H140 0.931 . S
C173 C168 1.370 1_556 S
C173 C172 1.391 . S
C174 N148 1.435 . S
C174 C175 1.358 1_554 S
C174 C179 1.371 . S
C175 H141 0.930 . S
C175 C174 1.358 1_556 S
C175 C176 1.405 . S
C176 H142 0.932 . S
C176 C175 1.405 . S
C176 C177 1.383 1_556 S
C177 C176 1.383 1_554 S
C177 C178 1.393 . S
C178 H143 0.931 . S
C178 C177 1.393 . S
C178 C179 1.382 . S
C179 H144 0.929 . S
C179 C174 1.371 . S
C179 C178 1.382 . S
C180 N148 1.423 . S
C180 C181 1.362 . S
C180 C185 1.388 . S
C181 H145 0.929 . S
C181 C180 1.362 . S
C181 C182 1.376 . S
C182 H146 0.931 . S
C182 C181 1.376 . S
C182 C183 1.396 . S
C183 C165 1.472 . S
C183 C182 1.396 . S
C183 C184 1.348 . S
C184 H147 0.929 . S
C184 C183 1.348 . S
C184 C185 1.443 . S
C185 H149 0.932 1_554 S
C185 C180 1.388 . S
C185 C184 1.443 . S
C186 O212 1.283 . S
C186 O230 1.283 . S
C187 O213 1.283 . S
C187 O228 1.283 . S
C188 O214 1.283 . S
C188 O231 1.283 . S
C189 O215 1.283 . S
C189 O229 1.283 . S
C190 O216 1.283 . S
C190 O225 1.283 . S
C191 O217 1.283 . S
C191 O227 1.283 . S
C192 O218 1.283 . S
C192 O224 1.283 . S
C193 O219 1.283 . S
C193 O226 1.283 . S
C194 O220 1.283 . S
C194 O235 1.283 . S
C195 O221 1.283 . S
C195 O233 1.283 . S
C196 O222 1.283 . S
C196 O234 1.283 . S
C197 O223 1.283 . S
C197 O232 1.283 . S
Eu198 O199 2.370 . S
Eu198 O200 2.370 1_454 S
Eu198 O203 2.370 1_554 S
Eu198 O204 2.370 1_455 S
Eu198 O212 2.363 1_554 S
Eu198 O213 2.363 . S
Eu198 O226 2.363 1_455 S
Eu198 O227 2.363 . S
O199 Eu198 2.370 . S
O199 Eu201 2.370 . S
O199 Eu206 2.370 . S
O200 Eu198 2.370 1_656 S
O200 Eu202 2.370 1_556 S
O200 Eu205 2.370 1_655 S
Eu201 O199 2.370 . S
Eu201 O203 2.370 1_554 S
Eu201 O207 2.370 1_544 S
Eu201 O208 2.370 1_545 S
Eu201 O216 2.363 1_545 S
Eu201 O217 2.363 . S
Eu201 O232 2.363 1_554 S
Eu201 O233 2.363 . S
Eu202 O200 2.370 1_554 S
Eu202 O204 2.370 . S
Eu202 O209 2.370 1_545 S
Eu202 O210 2.370 1_544 S
Eu202 O218 2.363 1_545 S
Eu202 O219 2.363 . S
Eu202 O234 2.363 1_554 S
Eu202 O235 2.363 . S
O203 Eu198 2.370 1_556 S
O203 Eu201 2.370 1_556 S
O203 Eu205 2.370 . S
O204 Eu198 2.370 1_655 S
O204 Eu202 2.370 . S
O204 Eu206 2.370 1_655 S
Eu205 O200 2.370 1_455 S
Eu205 O203 2.370 . S
Eu205 O207 2.370 1_545 S
Eu205 O210 2.370 1_445 S
Eu205 O222 2.363 1_455 S
Eu205 O223 2.363 . S
Eu205 O230 2.363 . S
Eu205 O231 2.363 1_545 S
Eu206 O199 2.370 . S
Eu206 O204 2.370 1_455 S
Eu206 O208 2.370 1_545 S
Eu206 O209 2.370 1_445 S
Eu206 O220 2.363 1_455 S
Eu206 O221 2.363 . S
Eu206 O228 2.363 . S
Eu206 O229 2.363 1_545 S
O207 Eu201 2.370 1_566 S
O207 Eu205 2.370 1_565 S
O207 Eu211 2.370 1_556 S
O208 Eu201 2.370 1_565 S
O208 Eu206 2.370 1_565 S
O208 Eu211 2.370 . S
O209 Eu202 2.370 1_565 S
O209 Eu206 2.370 1_665 S
O209 Eu211 2.370 1_655 S
O210 Eu202 2.370 1_566 S
O210 Eu205 2.370 1_665 S
O210 Eu211 2.370 1_656 S
Eu211 O207 2.370 1_554 S
Eu211 O208 2.370 . S
Eu211 O209 2.370 1_455 S
Eu211 O210 2.370 1_454 S
Eu211 O214 2.363 1_554 S
Eu211 O215 2.363 . S
Eu211 O224 2.363 1_455 S
Eu211 O225 2.363 . S
O212 C186 1.283 . S
O212 Eu198 2.363 1_556 S
O213 C187 1.283 . S
O213 Eu198 2.363 . S
O214 C188 1.283 . S
O214 Eu211 2.363 1_556 S
O215 C189 1.283 . S
O215 Eu211 2.363 . S
O216 C190 1.283 . S
O216 Eu201 2.363 1_565 S
O217 C191 1.283 . S
O217 Eu201 2.363 . S
O218 C192 1.283 . S
O218 Eu202 2.363 1_565 S
O219 C193 1.283 . S
O219 Eu202 2.363 . S
O220 C194 1.283 . S
O220 Eu206 2.363 1_655 S
O221 C195 1.283 . S
O221 Eu206 2.363 . S
O222 C196 1.283 . S
O222 Eu205 2.363 1_655 S
O223 C197 1.283 . S
O223 Eu205 2.363 . S
O224 C192 1.283 . S
O224 Eu211 2.363 1_655 S
O225 C190 1.283 . S
O225 Eu211 2.363 . S
O226 C193 1.283 . S
O226 Eu198 2.363 1_655 S
O227 C191 1.283 . S
O227 Eu198 2.363 . S
O228 C187 1.283 . S
O228 Eu206 2.363 . S
O229 C189 1.283 . S
O229 Eu206 2.363 1_565 S
O230 C186 1.283 . S
O230 Eu205 2.363 . S
O231 C188 1.283 . S
O231 Eu205 2.363 1_565 S
O232 C197 1.283 . S
O232 Eu201 2.363 1_556 S
O233 C195 1.283 . S
O233 Eu201 2.363 . S
O234 C196 1.283 . S
O234 Eu202 2.363 1_556 S
O235 C194 1.283 . S
O235 Eu202 2.363 . S
H236 C242 0.930 . S
H237 C245 0.930 . S
H238 C246 0.930 . S
H239 C247 0.930 1_655 S
H240 C250 0.930 . S
H241 C251 0.930 . S
C242 H236 0.930 . S
C242 C243 1.355 . S
C242 C244 1.415 . S
C243 C242 1.355 . S
C243 C245 1.419 1_455 S
C244 C242 1.415 . S
C244 C249 1.425 . S
C244 C251 1.409 . S
C245 H237 0.930 . S
C245 C243 1.419 1_655 S
C245 C246 1.362 . S
C246 H238 0.930 . S
C246 C245 1.362 . S
C246 C249 1.409 1_655 S
C247 H239 0.930 1_455 S
C247 C248 1.355 . S
C247 C249 1.415 . S
C248 C247 1.355 . S
C248 C250 1.419 . S
C249 C244 1.425 . S
C249 C246 1.409 1_455 S
C249 C247 1.415 . S
C250 H240 0.930 . S
C250 C248 1.419 . S
C250 C251 1.362 . S
C251 H241 0.930 . S
C251 C244 1.409 . S
C251 C250 1.362 . S
H252 C258 0.930 . S
H253 C261 0.930 . S
H254 C262 0.930 . S
H255 C263 0.930 . S
H256 C266 0.930 . S
H257 C267 0.930 . S
C258 H252 0.930 . S
C258 C259 1.355 1_565 S
C258 C260 1.415 . S
C259 C258 1.355 1_545 S
C259 C261 1.419 . S
C260 C258 1.415 . S
C260 C265 1.425 1_565 S
C260 C267 1.409 . S
C261 H253 0.930 . S
C261 C259 1.419 . S
C261 C262 1.362 . S
C262 H254 0.930 . S
C262 C261 1.362 . S
C262 C265 1.409 . S
C263 H255 0.930 . S
C263 C264 1.355 1_545 S
C263 C265 1.415 . S
C264 C263 1.355 1_565 S
C264 C266 1.419 . S
C265 C260 1.425 1_545 S
C265 C262 1.409 . S
C265 C263 1.415 . S
C266 H256 0.930 . S
C266 C264 1.419 . S
C266 C267 1.362 . S
C267 H257 0.930 . S
C267 C260 1.409 . S
C267 C266 1.362 . S
H268 C274 0.930 . S
H269 C277 0.930 . S
H270 C278 0.930 . S
H271 C279 0.930 1_655 S
H272 C282 0.930 . S
H273 C283 0.930 . S
C274 H268 0.930 . S
C274 C275 1.355 . S
C274 C276 1.415 . S
C275 C274 1.355 . S
C275 C277 1.419 1_455 S
C276 C274 1.415 . S
C276 C281 1.425 . S
C276 C283 1.409 . S
C277 H269 0.930 . S
C277 C275 1.419 1_655 S
C277 C278 1.362 . S
C278 H270 0.930 . S
C278 C277 1.362 . S
C278 C281 1.409 1_655 S
C279 H271 0.930 1_455 S
C279 C280 1.355 . S
C279 C281 1.415 . S
C280 C279 1.355 . S
C280 C282 1.419 . S
C281 C276 1.425 . S
C281 C278 1.409 1_455 S
C281 C279 1.415 . S
C282 H272 0.930 . S
C282 C280 1.419 . S
C282 C283 1.362 . S
C283 H273 0.930 . S
C283 C276 1.409 . S
C283 C282 1.362 . S
H284 C290 0.930 . S
H285 C293 0.930 . S
H286 C294 0.930 . S
H287 C295 0.930 . S
H288 C298 0.930 . S
H289 C299 0.930 . S
C290 H284 0.930 . S
C290 C291 1.358 . S
C290 C292 1.415 . S
C291 C290 1.358 . S
C291 C293 1.416 1_545 S
C292 C290 1.415 . S
C292 C297 1.425 1_545 S
C292 C299 1.409 . S
C293 H285 0.930 . S
C293 C291 1.416 1_565 S
C293 C294 1.362 . S
C294 H286 0.930 . S
C294 C293 1.362 . S
C294 C297 1.409 . S
C295 H287 0.930 . S
C295 C296 1.357 . S
C295 C297 1.415 . S
C296 C295 1.357 . S
C296 C298 1.417 1_565 S
C297 C292 1.425 1_565 S
C297 C294 1.409 . S
C297 C295 1.415 . S
C298 H288 0.930 . S
C298 C296 1.417 1_545 S
C298 C299 1.362 . S
C299 H289 0.930 . S
C299 C292 1.409 . S
C299 C298 1.362 . S
H300 C306 0.930 . S
H301 C309 0.930 . S
H302 C310 0.930 . S
H303 C311 0.930 . S
H304 C314 0.930 . S
H305 C315 0.930 . S
C306 H300 0.930 . S
C306 C307 1.355 . S
C306 C308 1.415 . S
C307 C306 1.355 . S
C307 C309 1.419 . S
C308 C306 1.415 . S
C308 C313 1.425 . S
C308 C315 1.409 . S
C309 H301 0.930 . S
C309 C307 1.419 . S
C309 C310 1.362 . S
C310 H302 0.930 . S
C310 C309 1.362 . S
C310 C313 1.409 . S
C311 H303 0.930 . S
C311 C312 1.355 . S
C311 C313 1.415 . S
C312 C311 1.355 . S
C312 C314 1.419 . S
C313 C308 1.425 . S
C313 C310 1.409 . S
C313 C311 1.415 . S
C314 H304 0.930 . S
C314 C312 1.419 . S
C314 C315 1.362 . S
C315 H305 0.930 . S
C315 C308 1.409 . S
C315 C314 1.362 . S
H316 C322 0.930 . S
H317 C325 0.930 . S
H318 C326 0.930 . S
H319 C327 0.930 . S
H320 C330 0.930 . S
H321 C331 0.930 . S
C322 H316 0.930 . S
C322 C323 1.355 1_565 S
C322 C324 1.415 . S
C323 C322 1.355 1_545 S
C323 C325 1.419 . S
C324 C322 1.415 . S
C324 C329 1.425 1_565 S
C324 C331 1.409 . S
C325 H317 0.930 . S
C325 C323 1.419 . S
C325 C326 1.362 . S
C326 H318 0.930 . S
C326 C325 1.362 . S
C326 C329 1.409 . S
C327 H319 0.930 . S
C327 C328 1.355 1_545 S
C327 C329 1.415 . S
C328 C327 1.355 1_565 S
C328 C330 1.419 . S
C329 C324 1.425 1_545 S
C329 C326 1.409 . S
C329 C327 1.415 . S
C330 H320 0.930 . S
C330 C328 1.419 . S
C330 C331 1.362 . S
C331 H321 0.930 . S
C331 C324 1.409 . S
C331 C330 1.362 . S
H332 C338 0.930 . S
H333 C341 0.930 . S
H334 C342 0.930 . S
H335 C343 0.930 . S
H336 C346 0.930 . S
H337 C347 0.930 . S
C338 H332 0.930 . S
C338 C339 1.355 . S
C338 C340 1.415 . S
C339 C338 1.355 . S
C339 C341 1.419 . S
C340 C338 1.415 . S
C340 C345 1.425 . S
C340 C347 1.409 . S
C341 H333 0.930 . S
C341 C339 1.419 . S
C341 C342 1.362 . S
C342 H334 0.930 . S
C342 C341 1.362 . S
C342 C345 1.409 . S
C343 H335 0.930 . S
C343 C344 1.355 . S
C343 C345 1.415 . S
C344 C343 1.355 . S
C344 C346 1.419 . S
C345 C340 1.425 . S
C345 C342 1.409 . S
C345 C343 1.415 . S
C346 H336 0.930 . S
C346 C344 1.419 . S
C346 C347 1.362 . S
C347 H337 0.930 . S
C347 C340 1.409 . S
C347 C346 1.362 . S
H348 C354 0.930 . S
H349 C357 0.930 . S
H350 C358 0.930 . S
H351 C359 0.930 . S
H352 C362 0.930 . S
H353 C363 0.930 . S
C354 H348 0.930 . S
C354 C355 1.355 1_545 S
C354 C356 1.415 . S
C355 C354 1.355 1_565 S
C355 C357 1.419 . S
C356 C354 1.415 . S
C356 C361 1.425 1_545 S
C356 C363 1.409 . S
C357 H349 0.930 . S
C357 C355 1.419 . S
C357 C358 1.362 . S
C358 H350 0.930 . S
C358 C357 1.362 . S
C358 C361 1.409 . S
C359 H351 0.930 . S
C359 C360 1.355 1_565 S
C359 C361 1.415 . S
C360 C359 1.355 1_545 S
C360 C362 1.419 . S
C361 C356 1.425 1_565 S
C361 C358 1.409 . S
C361 C359 1.415 . S
C362 H352 0.930 . S
C362 C360 1.419 . S
C362 C363 1.362 . S
C363 H353 0.930 . S
C363 C356 1.409 . S
C363 C362 1.362 . S
H364 C370 0.930 . S
H365 C373 0.930 . S
H366 C374 0.930 . S
H367 C375 0.930 . S
H368 C378 0.930 . S
H369 C379 0.930 . S
C370 H364 0.930 . S
C370 C371 1.355 . S
C370 C372 1.415 . S
C371 C370 1.355 . S
C371 C373 1.419 1_554 S
C372 C370 1.415 . S
C372 C377 1.425 1_554 S
C372 C379 1.409 . S
C373 H365 0.930 . S
C373 C371 1.419 1_556 S
C373 C374 1.362 . S
C374 H366 0.930 . S
C374 C373 1.362 . S
C374 C377 1.409 . S
C375 H367 0.930 . S
C375 C376 1.355 1_556 S
C375 C377 1.415 . S
C376 C375 1.355 1_554 S
C376 C378 1.419 . S
C377 C372 1.425 1_556 S
C377 C374 1.409 . S
C377 C375 1.415 . S
C378 H368 0.930 . S
C378 C376 1.419 . S
C378 C379 1.362 . S
C379 H369 0.930 . S
C379 C372 1.409 . S
C379 C378 1.362 . S
H380 C386 0.930 . S
H381 C389 0.930 . S
H382 C390 0.930 . S
H383 C391 0.930 . S
H384 C394 0.930 . S
H385 C395 0.930 . S
C386 H380 0.930 . S
C386 C387 1.355 1_556 S
C386 C388 1.415 . S
C387 C386 1.355 1_554 S
C387 C389 1.419 . S
C388 C386 1.415 . S
C388 C393 1.425 1_556 S
C388 C395 1.409 . S
C389 H381 0.930 . S
C389 C387 1.419 . S
C389 C390 1.362 . S
C390 H382 0.930 . S
C390 C389 1.362 . S
C390 C393 1.409 . S
C391 H383 0.930 . S
C391 C392 1.355 . S
C391 C393 1.415 . S
C392 C391 1.355 . S
C392 C394 1.419 1_554 S
C393 C388 1.425 1_554 S
C393 C390 1.409 . S
C393 C391 1.415 . S
C394 H384 0.930 . S
C394 C392 1.419 1_556 S
C394 C395 1.362 . S
C395 H385 0.930 . S
C395 C388 1.409 . S
C395 C394 1.362 . S
H396 C402 0.930 . S
H397 C405 0.930 . S
H398 C406 0.930 . S
H399 C407 0.930 . S
H400 C410 0.930 . S
H401 C411 0.930 . S
C402 H396 0.930 . S
C402 C403 1.355 1_556 S
C402 C404 1.415 . S
C403 C402 1.355 1_554 S
C403 C405 1.419 . S
C404 C402 1.415 . S
C404 C409 1.425 1_556 S
C404 C411 1.409 . S
C405 H397 0.930 . S
C405 C403 1.419 . S
C405 C406 1.362 . S
C406 H398 0.930 . S
C406 C405 1.362 . S
C406 C409 1.409 . S
C407 H399 0.930 . S
C407 C408 1.355 . S
C407 C409 1.415 . S
C408 C407 1.355 . S
C408 C410 1.419 1_554 S
C409 C404 1.425 1_554 S
C409 C406 1.409 . S
C409 C407 1.415 . S
C410 H400 0.930 . S
C410 C408 1.419 1_556 S
C410 C411 1.362 . S
C411 H401 0.930 . S
C411 C404 1.409 . S
C411 C410 1.362 . S
H412 C418 0.930 . S
H413 C421 0.930 . S
H414 C422 0.930 . S
H415 C423 0.930 . S
H416 C426 0.930 . S
H417 C427 0.930 . S
C418 H412 0.930 . S
C418 C419 1.355 . S
C418 C420 1.415 . S
C419 C418 1.355 . S
C419 C421 1.419 1_554 S
C420 C418 1.415 . S
C420 C425 1.425 1_554 S
C420 C427 1.409 . S
C421 H413 0.930 . S
C421 C419 1.419 1_556 S
C421 C422 1.362 . S
C422 H414 0.930 . S
C422 C421 1.362 . S
C422 C425 1.409 . S
C423 H415 0.930 . S
C423 C424 1.355 1_556 S
C423 C425 1.415 . S
C424 C423 1.355 1_554 S
C424 C426 1.419 . S
C425 C420 1.425 1_556 S
C425 C422 1.409 . S
C425 C423 1.415 . S
C426 H416 0.930 . S
C426 C424 1.419 . S
C426 C427 1.362 . S
C427 H417 0.930 . S
C427 C420 1.409 . S
C427 C426 1.362 . S
C248 C187 2.012 . S
C243 C53 2.029 . S
C264 C194 1.282 1_565 S
C259 C97 1.306 1_545 S
C280 C189 2.018 . S
C275 C35 2.033 . S
C296 C195 1.343 1_565 S
C291 C91 1.352 1_545 S
C307 C29 2.122 . S
C312 C188 2.141 . S
C328 C197 1.354 1_565 S
C323 C109 1.327 1_545 S
C339 C47 2.116 . S
C344 C186 2.137 . S
C355 C115 1.292 . S
C360 C196 1.275 . S
C371 C153 1.645 . S
C376 C191 1.710 . S
C387 C171 1.668 . S
C392 C190 1.715 . S
C408 C193 1.559 . S
C403 C159 1.560 . S
C424 C192 1.554 . S
C419 C177 1.572 . S
