# Generated by pormake.
# Topology anh, (6,3)-cn, num edge types: 1
# Building blocks:
#     Node 0, Type 0, BuildingBlock: PAMTOO_clean_sbu_0, # of connection points: 6
#     Node 1, Type 0, BuildingBlock: PAMTOO_clean_sbu_0, # of connection points: 6
#     Node 2, Type 0, BuildingBlock: PAMTOO_clean_sbu_0, # of connection points: 6
#     Node 3, Type 1, BuildingBlock: BELTOD_clean_linker_0, # of connection points: 3
#     Node 4, Type 1, BuildingBlock: BELTOD_clean_linker_0, # of connection points: 3
#     Node 5, Type 1, BuildingBlock: BELTOD_clean_linker_0, # of connection points: 3
#     Node 6, Type 1, BuildingBlock: BELTOD_clean_linker_0, # of connection points: 3
#     Node 7, Type 1, BuildingBlock: BELTOD_clean_linker_0, # of connection points: 3
#     Node 8, Type 1, BuildingBlock: BELTOD_clean_linker_0, # of connection points: 3
#     Edge 9, Type (0, 1), BuildingBlock: ZUJKAS_clean_linker_0, # of connection points: 2
#     Edge 10, Type (0, 1), BuildingBlock: ZUJKAS_clean_linker_0, # of connection points: 2
#     Edge 11, Type (0, 1), BuildingBlock: ZUJKAS_clean_linker_0, # of connection points: 2
#     Edge 12, Type (0, 1), BuildingBlock: ZUJKAS_clean_linker_0, # of connection points: 2
#     Edge 13, Type (0, 1), BuildingBlock: ZUJKAS_clean_linker_0, # of connection points: 2
#     Edge 14, Type (0, 1), BuildingBlock: ZUJKAS_clean_linker_0, # of connection points: 2
#     Edge 15, Type (0, 1), BuildingBlock: ZUJKAS_clean_linker_0, # of connection points: 2
#     Edge 16, Type (0, 1), BuildingBlock: ZUJKAS_clean_linker_0, # of connection points: 2
#     Edge 17, Type (0, 1), BuildingBlock: ZUJKAS_clean_linker_0, # of connection points: 2
#     Edge 18, Type (0, 1), BuildingBlock: ZUJKAS_clean_linker_0, # of connection points: 2
#     Edge 19, Type (0, 1), BuildingBlock: ZUJKAS_clean_linker_0, # of connection points: 2
#     Edge 20, Type (0, 1), BuildingBlock: ZUJKAS_clean_linker_0, # of connection points: 2
#     Edge 21, Type (0, 1), BuildingBlock: ZUJKAS_clean_linker_0, # of connection points: 2
#     Edge 22, Type (0, 1), BuildingBlock: ZUJKAS_clean_linker_0, # of connection points: 2
#     Edge 23, Type (0, 1), BuildingBlock: ZUJKAS_clean_linker_0, # of connection points: 2
#     Edge 24, Type (0, 1), BuildingBlock: ZUJKAS_clean_linker_0, # of connection points: 2
#     Edge 25, Type (0, 1), BuildingBlock: ZUJKAS_clean_linker_0, # of connection points: 2
#     Edge 26, Type (0, 1), BuildingBlock: ZUJKAS_clean_linker_0, # of connection points: 2
# Relax obj value: 0.155
# Max RMSD: 0.183
# Mean RMSD: 0.142
data_MOF--net-anh--node1-PAMTOO_clean_sbu_0--node2-BELTOD_clean_linker_0--edge1-ZUJKAS_clean_linker_0
_symmetry_space_group_name_H-M    P1
_symmetry_Int_Tables_number       1
_symmetry_cell_setting            triclinic
loop_
_symmetry_equiv_pos_as_xyz
'x, y, z'
_cell_length_a     43.654926
_cell_length_b     41.975956
_cell_length_c     76.672006
_cell_angle_alpha  90.453321
_cell_angle_beta   95.51443
_cell_angle_gamma 108.34843
loop_
_atom_site_label
_atom_site_type_symbol
_atom_site_fract_x
_atom_site_fract_y
_atom_site_fract_z
_atom_type_partial_charge
Dy0 Dy 0.0413 0.59921 0.14842 0.0
Dy1 Dy 1.01347 0.51768 0.1397 0.0
C2 C 1.02392 0.56944 0.10963 0.0
O3 O 0.98798 0.58529 0.15229 0.0
O4 O 0.96904 0.53432 0.13701 0.0
O5 O 0.06311 0.64903 0.13949 0.0
O6 O 0.05098 0.64234 0.16625 0.0
O7 O 1.00905 0.52688 0.16796 0.0
O8 O 0.05303 0.57386 0.17235 0.0
O9 O 0.06779 0.52876 0.14353 0.0
O10 O 0.08536 0.58634 0.14174 0.0
O11 O 1.01165 0.46746 0.1468 0.0
O12 O 0.98327 0.47509 0.12337 0.0
C13 C 0.96376 0.56001 0.14472 0.0
O14 O 1.01838 0.59017 0.12084 0.0
O15 O 1.02998 0.54222 0.11498 0.0
C16 C 0.09789 0.68671 0.16107 0.0
C17 C 0.16028 0.73271 0.17067 0.0
C18 C 0.15618 0.69859 0.16707 0.0
C19 C 0.12525 0.67579 0.16236 0.0
C20 C 0.10173 0.72051 0.16492 0.0
C21 C 0.13264 0.74333 0.16973 0.0
C22 C 0.06559 0.6634 0.15493 0.0
C23 C 1.03217 0.5478 0.17851 0.0
C24 C 0.09121 0.55735 0.14228 0.0
C25 C 0.96079 0.42679 0.13923 0.0
C26 C 0.9076 0.37548 0.15007 0.0
C27 C 0.90981 0.40948 0.15233 0.0
C28 C 0.93624 0.43492 0.147 0.0
C29 C 0.95856 0.39301 0.13678 0.0
C30 C 0.93222 0.36756 0.14215 0.0
C31 C 0.98923 0.45327 0.1341 0.0
H32 H 0.17689 0.68951 0.16791 0.0
H33 H 0.1227 0.64972 0.1595 0.0
H34 H 0.08088 0.72939 0.16392 0.0
H35 H 0.13498 0.76945 0.17225 0.0
H36 H 0.89149 0.41646 0.15856 0.0
H37 H 0.9377 0.46094 0.1491 0.0
H38 H 0.97731 0.38629 0.13081 0.0
H39 H 0.93107 0.34166 0.14002 0.0
Dy40 Dy 0.51988 0.02064 0.51122 0.0
Dy41 Dy 0.59942 0.04988 0.52082 0.0
C42 C 0.55148 0.02609 0.55078 0.0
O43 O 0.53152 0.07476 0.51959 0.0
O44 O 0.58378 0.09369 0.51238 0.0
O45 O 0.4707 0.01128 0.51776 0.0
O46 O 0.47958 -0.00187 0.49177 0.0
O47 O 0.59018 0.03623 0.49219 0.0
O48 O 0.54098 0.04464 0.48733 0.0
O49 O 0.5857 0.99532 0.52645 0.0
O50 O 0.5381 0.97676 0.50825 0.0
O51 O 0.64776 0.04939 0.51706 0.0
O52 O 0.64096 0.08477 0.53579 0.0
C53 C 0.5573 0.09945 0.51629 0.0
O54 O 0.52845 0.00798 0.53911 0.0
O55 O 0.57779 0.04833 0.54615 0.0
C56 C 0.43208 0.96421 0.50255 0.0
C57 C 0.38273 0.90148 0.49929 0.0
C58 C 0.4148 0.9037 0.50547 0.0
C59 C 0.43931 0.93484 0.50706 0.0
C60 C 0.40007 0.96225 0.49688 0.0
C61 C 0.37559 0.9312 0.49528 0.0
C62 C 0.45785 0.99664 0.50253 0.0
C63 C 0.5671 0.04137 0.48146 0.0
C64 C 0.56234 0.97092 0.51781 0.0
C65 C 0.68754 0.10272 0.52088 0.0
C66 C 0.73727 0.15644 0.509 0.0
C67 C 0.7047 0.15026 0.50221 0.0
C68 C 0.68004 0.12363 0.50811 0.0
C69 C 0.71989 0.10854 0.52758 0.0
C70 C 0.74456 0.13513 0.5217 0.0
C71 C 0.66179 0.07545 0.52766 0.0
H72 H 0.42117 0.88129 0.50852 0.0
H73 H 0.46401 0.93593 0.51138 0.0
H74 H 0.39411 0.98471 0.49335 0.0
H75 H 0.35108 0.93043 0.49074 0.0
H76 H 0.6982 0.16638 0.49257 0.0
H77 H 0.65509 0.11953 0.50286 0.0
H78 H 0.72606 0.09259 0.53744 0.0
H79 H 0.76939 0.13885 0.52701 0.0
Dy80 Dy 0.55599 0.46964 0.84876 0.0
Dy81 Dy 0.47821 0.44304 0.83638 0.0
C82 C 0.52941 0.46018 0.80828 0.0
O83 O 0.53816 0.51293 0.85412 0.0
O84 O 0.49439 0.49856 0.83336 0.0
O85 O 0.6016 0.50959 0.85217 0.0
O86 O 0.59892 0.45969 0.86051 0.0
O87 O 0.48383 0.46116 0.86445 0.0
O88 O 0.53146 0.45102 0.87256 0.0
O89 O 0.49187 0.39733 0.84328 0.0
O90 O 0.54473 0.4175 0.83735 0.0
O91 O 0.42904 0.41657 0.84157 0.0
O92 O 0.43847 0.4394 0.81661 0.0
C93 C 0.51617 0.52111 0.84385 0.0
O94 O 0.55091 0.47938 0.82028 0.0
O95 O 0.50249 0.43834 0.81252 0.0
C96 C 0.6472 0.4926 0.84979 0.0
C97 C 0.70447 0.50385 0.83341 0.0
C98 C 0.67401 0.48829 0.82395 0.0
C99 C 0.64554 0.48272 0.8321 0.0
C100 C 0.6774 0.50724 0.85936 0.0
C101 C 0.70578 0.51287 0.85127 0.0
C102 C 0.61777 0.48995 0.85812 0.0
C103 C 0.50503 0.45646 0.87667 0.0
C104 C 0.51886 0.39223 0.83979 0.0
C105 C 0.39379 0.44467 0.82923 0.0
C106 C 0.35466 0.48645 0.83065 0.0
C107 C 0.38205 0.49126 0.84286 0.0
C108 C 0.40153 0.47071 0.84209 0.0
C109 C 0.36609 0.43913 0.81728 0.0
C110 C 0.34658 0.45984 0.818 0.0
C111 C 0.41661 0.42604 0.82714 0.0
H112 H 0.67219 0.4809 0.81023 0.0
H113 H 0.62224 0.47143 0.82452 0.0
H114 H 0.679 0.51524 0.87299 0.0
H115 H 0.72871 0.52557 0.85887 0.0
H116 H 0.38863 0.51111 0.85296 0.0
H117 H 0.4231 0.47567 0.85129 0.0
H118 H 0.36009 0.41946 0.8071 0.0
H119 H 0.3258 0.45568 0.80832 0.0
P120 P 0.59274 0.00508 0.23651 0.0
H121 H 0.55965 0.93988 0.21864 0.0
H122 H 0.50333 0.91167 0.20765 0.0
H123 H 0.47952 0.00113 0.22011 0.0
H124 H 0.53634 0.0292 0.2314 0.0
H125 H 0.65063 0.05723 0.25122 0.0
H126 H 0.68641 0.10738 0.23931 0.0
H127 H 0.62261 0.08901 0.19105 0.0
H128 H 0.58649 0.03872 0.20323 0.0
H129 H 0.59837 0.96328 0.26616 0.0
H130 H 0.57936 0.05696 0.25744 0.0
O131 O 0.61387 0.97877 0.23389 0.0
H132 H 0.59466 0.96973 0.29751 0.0
H133 H 0.5759 0.06381 0.28887 0.0
C134 C 0.55226 0.98674 0.22576 0.0
C135 C 0.54253 0.95373 0.21875 0.0
C136 C 0.5102 0.93759 0.21239 0.0
C137 C 0.48679 0.95408 0.21298 0.0
C138 C 0.49683 0.98757 0.21962 0.0
C139 C 0.52933 0.00375 0.22595 0.0
C140 C 0.61557 0.04463 0.22826 0.0
C141 C 0.64393 0.06433 0.23821 0.0
C142 C 0.66458 0.09282 0.2313 0.0
C143 C 0.65749 0.10207 0.21418 0.0
C144 C 0.62858 0.08271 0.20434 0.0
C145 C 0.60791 0.05399 0.21129 0.0
C146 C 0.58973 0.00995 0.25956 0.0
C147 C 0.59362 0.98537 0.27102 0.0
C148 C 0.59159 0.98915 0.28895 0.0
C149 C 0.58528 0.01745 0.29571 0.0
C150 C 0.58063 0.04166 0.28407 0.0
C151 C 0.58278 0.03788 0.26613 0.0
P152 P 0.61139 0.54963 0.5715 0.0
H153 H 0.62928 0.52456 0.53959 0.0
H154 H 0.6143 0.46817 0.52594 0.0
H155 H 0.54194 0.43231 0.56212 0.0
H156 H 0.55617 0.48882 0.57513 0.0
H157 H 0.62541 0.61654 0.58648 0.0
H158 H 0.6117 0.66598 0.57689 0.0
H159 H 0.55589 0.60982 0.5306 0.0
H160 H 0.57029 0.56019 0.5403 0.0
H161 H 0.64157 0.51917 0.59928 0.0
H162 H 0.56214 0.55982 0.59263 0.0
O163 O 0.65156 0.56152 0.5711 0.0
H164 H 0.62989 0.50558 0.62941 0.0
H165 H 0.5503 0.5463 0.62275 0.0
C166 C 0.59431 0.5108 0.55859 0.0
C167 C 0.60963 0.5047 0.54427 0.0
C168 C 0.60126 0.47231 0.5366 0.0
C169 C 0.5774 0.44536 0.54317 0.0
C170 C 0.56038 0.45228 0.55665 0.0
C171 C 0.56864 0.48473 0.56421 0.0
C172 C 0.59855 0.58462 0.56423 0.0
C173 C 0.60994 0.61474 0.57434 0.0
C174 C 0.60192 0.64299 0.56887 0.0
C175 C 0.58241 0.64189 0.55303 0.0
C176 C 0.57107 0.61158 0.54283 0.0
C177 C 0.57909 0.58313 0.54839 0.0
C178 C 0.6033 0.54131 0.59391 0.0
C179 C 0.62182 0.52547 0.60438 0.0
C180 C 0.61493 0.51744 0.62153 0.0
C181 C 0.58927 0.52504 0.62849 0.0
C182 C 0.57055 0.54066 0.61786 0.0
C183 C 0.57734 0.54845 0.60066 0.0
P184 P 0.0966 0.74717 0.88565 0.0
H185 H 0.13779 0.76216 0.85716 0.0
H186 H 0.17762 0.7374 0.84754 0.0
H187 H 0.16686 0.6759 0.89288 0.0
H188 H 0.12734 0.70031 0.90231 0.0
H189 H 0.04374 0.77108 0.87107 0.0
H190 H 0.99604 0.7454 0.85008 0.0
H191 H 1.02902 0.65979 0.84277 0.0
H192 H 0.07651 0.68564 0.86348 0.0
H193 H 0.12556 0.7674 0.92146 0.0
H194 H 0.04065 0.69268 0.8959 0.0
O195 O 0.10815 0.78905 0.88623 0.0
H196 H 0.1128 0.74284 0.94973 0.0
H197 H 1.02714 0.6688 0.92403 0.0
C198 C 0.12994 0.7335 0.88056 0.0
C199 C 0.14463 0.7439 0.86521 0.0
C200 C 0.16714 0.72959 0.85966 0.0
C201 C 0.17538 0.70482 0.8695 0.0
C202 C 0.1614 0.69534 0.88519 0.0
C203 C 0.13871 0.70936 0.8906 0.0
C204 C 0.0639 0.73057 0.86859 0.0
C205 C 0.04099 0.74714 0.86464 0.0
C206 C 1.01371 0.73236 0.85272 0.0
C207 C 1.00885 0.70063 0.84469 0.0
C208 C 1.03237 0.68455 0.84841 0.0
C209 C 0.05953 0.6993 0.86033 0.0
C210 C 0.08393 0.73219 0.9066 0.0
C211 C 0.10376 0.74622 0.922 0.0
C212 C 0.09638 0.73214 0.93815 0.0
C213 C 0.06896 0.70372 0.93918 0.0
C214 C 0.04872 0.69031 0.92371 0.0
C215 C 0.05626 0.70426 0.90757 0.0
P216 P 0.09451 0.47634 0.4217 0.0
H217 H 0.15146 0.49733 0.44761 0.0
H218 H 0.18293 0.55167 0.46158 0.0
H219 H 0.11401 0.59599 0.43645 0.0
H220 H 0.08299 0.54143 0.42217 0.0
H221 H 0.04551 0.41368 0.40983 0.0
H222 H 0.99684 0.37862 0.42181 0.0
H223 H 1.01381 0.45117 0.4649 0.0
H224 H 0.06294 0.4859 0.45292 0.0
H225 H 0.13459 0.48883 0.39271 0.0
H226 H 0.03697 0.48392 0.40108 0.0
O227 O 0.11893 0.45264 0.42265 0.0
H228 H 0.124 0.4995 0.36176 0.0
H229 H 1.02619 0.49473 0.37014 0.0
C230 C 0.11524 0.51553 0.43362 0.0
C231 C 0.14299 0.51867 0.44518 0.0
C232 C 0.16086 0.54978 0.45328 0.0
C233 C 0.15117 0.57833 0.45004 0.0
C234 C 0.12249 0.57467 0.43898 0.0
C235 C 0.10464 0.54349 0.43088 0.0
C236 C 0.05765 0.45245 0.4304 0.0
C237 C 0.03858 0.42216 0.42178 0.0
C238 C 1.01065 0.40224 0.4286 0.0
C239 C 1.00129 0.41215 0.44428 0.0
C240 C 1.02046 0.4427 0.45287 0.0
C241 C 0.04846 0.46269 0.44598 0.0
C242 C 0.08634 0.48475 0.39905 0.0
C243 C 0.11085 0.48997 0.38786 0.0
C244 C 0.10483 0.49632 0.37021 0.0
C245 C 0.07417 0.49771 0.36347 0.0
C246 C 0.04986 0.49321 0.37487 0.0
C247 C 0.056 0.48704 0.39255 0.0
P248 P 0.57247 0.97238 0.79621 0.0
H249 H 0.59815 0.02136 0.8257 0.0
H250 H 0.58345 0.07007 0.83484 0.0
H251 H 0.49838 0.03944 0.79719 0.0
H252 H 0.51315 0.99067 0.78815 0.0
H253 H 0.56377 0.90764 0.7789 0.0
H254 H 0.54736 0.85032 0.78874 0.0
H255 H 0.53092 0.88579 0.83891 0.0
H256 H 0.54686 0.94359 0.82876 0.0
H257 H 0.61245 0.01358 0.77121 0.0
H258 H 0.5181 0.93885 0.76977 0.0
O259 O 0.61236 0.98333 0.80202 0.0
H260 H 0.60418 0.01873 0.73952 0.0
H261 H 0.50954 0.94395 0.73802 0.0
C262 C 0.55712 0.00274 0.80599 0.0
C263 C 0.57596 0.02468 0.81966 0.0
C264 C 0.56748 0.05252 0.82492 0.0
C265 C 0.54004 0.05892 0.81652 0.0
C266 C 0.51999 0.03552 0.80367 0.0
C267 C 0.52835 0.00753 0.79855 0.0
C268 C 0.55534 0.92983 0.80284 0.0
C269 C 0.55556 0.90312 0.7918 0.0
C270 C 0.54631 0.87027 0.79748 0.0
C271 C 0.53751 0.86345 0.81454 0.0
C272 C 0.53745 0.89027 0.82567 0.0
C273 C 0.54628 0.92323 0.81984 0.0
C274 C 0.5663 0.97514 0.77275 0.0
C275 C 0.59005 -0.00192 0.76405 0.0
C276 C 0.58515 0.00123 0.74595 0.0
C277 C 0.55626 0.98161 0.73625 0.0
C278 C 0.53226 0.959 0.74509 0.0
C279 C 0.53714 0.95604 0.76322 0.0
P280 P 0.51252 0.51341 0.12308 0.0
H281 H 0.55499 0.51451 0.15543 0.0
H282 H 0.61387 0.52794 0.16097 0.0
H283 H 0.62452 0.57152 0.11019 0.0
H284 H 0.56592 0.55892 0.10502 0.0
H285 H 0.4542 0.47618 0.13909 0.0
H286 H 0.4041 0.48663 0.1434 0.0
H287 H 0.44339 0.58766 0.12601 0.0
H288 H 0.49507 0.57747 0.12275 0.0
H289 H 0.52172 0.4636 0.09913 0.0
H290 H 0.49355 0.55315 0.09465 0.0
O291 O 0.50727 0.47484 0.13035 0.0
H292 H 0.51674 0.45703 0.06727 0.0
H293 H 0.4889 0.54692 0.0628 0.0
C294 C 0.55549 0.53557 0.12979 0.0
C295 C 0.57001 0.52808 0.14573 0.0
C296 C 0.6039 0.53523 0.14874 0.0
C297 C 0.62444 0.55018 0.13589 0.0
C298 C 0.60994 0.56004 0.12049 0.0
C299 C 0.57604 0.55287 0.11751 0.0
C300 C 0.47895 0.52588 0.13045 0.0
C301 C 0.45273 0.501 0.13656 0.0
C302 C 0.42341 0.50686 0.13874 0.0
C303 C 0.4187 0.53771 0.13454 0.0
C304 C 0.44564 0.56344 0.12934 0.0
C305 C 0.4754 0.55762 0.1274 0.0
C306 C 0.5071 0.50833 0.09941 0.0
C307 C 0.51408 0.48168 0.09134 0.0
C308 C 0.51154 0.47811 0.07307 0.0
C309 C 0.50226 0.50137 0.06245 0.0
C310 C 0.49549 0.5282 0.07058 0.0
C311 C 0.49811 0.53176 0.08888 0.0
H312 H 0.11272 0.50269 0.13863 0.0
H313 H 0.16839 0.50205 0.13723 0.0
H314 H 0.20345 0.61007 0.14255 0.0
H315 H 0.14787 0.61099 0.14386 0.0
H316 H 0.21372 0.53371 0.11277 0.0
H317 H 0.26186 0.58137 0.18096 0.0
H318 H 0.21891 0.56457 0.17409 0.0
H319 H 0.24153 0.60616 0.1684 0.0
C320 C 0.13219 0.52639 0.13956 0.0
C321 C 0.12543 0.5569 0.14143 0.0
C322 C 0.16417 0.52597 0.13873 0.0
C323 C 0.1905 0.55597 0.14001 0.0
C324 C 0.18386 0.58647 0.14182 0.0
H325 H 0.40265 0.59489 0.14289 0.0
H326 H 0.3485 0.60062 0.14339 0.0
C327 C 0.15185 0.58695 0.14248 0.0
C328 C 0.22464 0.55527 0.13905 0.0
H329 H 0.2995 0.57363 0.16254 0.0
C330 C 0.23242 0.5424 0.12368 0.0
C331 C 0.24943 0.56691 0.15315 0.0
C332 C 0.24264 0.58032 0.17016 0.0
C333 C 0.26398 0.5411 0.12197 0.0
C334 C 0.28866 0.55193 0.13624 0.0
C335 C 0.28093 0.5652 0.15155 0.0
C336 C 0.32214 0.54873 0.13572 0.0
C337 C 0.27063 0.52889 0.1046 0.0
C338 C 0.32601 0.51768 0.13145 0.0
C339 C 0.35698 0.51443 0.13089 0.0
C340 C 0.38551 0.54197 0.13497 0.0
C341 C 0.38162 0.57307 0.13945 0.0
C342 C 0.35046 0.57635 0.13988 0.0
H343 H 0.25376 0.53288 0.09367 0.0
H344 H 0.2959 0.54188 0.10173 0.0
H345 H 0.26689 0.50152 0.10496 0.0
H346 H 0.30497 0.49562 0.12861 0.0
H347 H 0.35838 0.4901 0.12706 0.0
H348 H 0.74446 0.178 0.47551 0.0
H349 H 0.78843 0.22435 0.46563 0.0
H350 H 0.83343 0.24585 0.51881 0.0
H351 H 0.78948 0.19982 0.52885 0.0
H352 H 0.81019 0.2938 0.47613 0.0
H353 H 0.90595 0.23392 0.49139 0.0
H354 H 0.86323 0.21072 0.49027 0.0
H355 H 0.88322 0.2369 0.50932 0.0
C356 C 0.76356 0.19276 0.48514 0.0
C357 C 0.76356 0.18501 0.50296 0.0
C358 C 0.78872 0.21915 0.47945 0.0
C359 C 0.81441 0.23818 0.49145 0.0
C360 C 0.81418 0.23101 0.50929 0.0
H361 H 0.99463 0.39706 0.47871 0.0
H362 H 0.94815 0.35749 0.49075 0.0
C363 C 0.78906 0.20464 0.51498 0.0
C364 C 0.84152 0.26546 0.48529 0.0
H365 H 0.92305 0.28971 0.48206 0.0
C366 C 0.83488 0.29295 0.4774 0.0
C367 C 0.8737 0.26427 0.48702 0.0
C368 C 0.88205 0.23477 0.49482 0.0
C369 C 0.85965 0.31949 0.47132 0.0
C370 C 0.89177 0.31813 0.47289 0.0
C371 C 0.89843 0.29076 0.48092 0.0
C372 C 0.91875 0.3442 0.46579 0.0
C373 C 0.85127 0.34895 0.4635 0.0
C374 C 0.9176 0.34998 0.44778 0.0
C375 C 0.94401 0.37273 0.44088 0.0
C376 C 0.97226 0.38999 0.45184 0.0
C377 C 0.97312 0.38455 0.46994 0.0
C378 C 0.94666 0.36177 0.47682 0.0
H379 H 0.82835 0.35089 0.46786 0.0
H380 H 0.87099 0.3729 0.46711 0.0
H381 H 0.84791 0.3456 0.449 0.0
H382 H 0.89658 0.33625 0.43896 0.0
H383 H 0.94242 0.37654 0.42691 0.0
H384 H 0.47907 0.54823 0.82165 0.0
H385 H 0.48136 0.60695 0.82011 0.0
H386 H 0.55477 0.63297 0.86431 0.0
H387 H 0.55336 0.57428 0.86564 0.0
H388 H 0.46991 0.65018 0.84286 0.0
H389 H 0.59865 0.69733 0.82887 0.0
H390 H 0.57611 0.65315 0.82835 0.0
H391 H 0.59268 0.67564 0.84896 0.0
C392 C 0.49576 0.56638 0.83107 0.0
C393 C 0.51633 0.55653 0.84365 0.0
C394 C 0.49697 0.6 0.83018 0.0
C395 C 0.51869 0.62456 0.84186 0.0
C396 C 0.53844 0.61466 0.85485 0.0
H397 H 0.56113 0.84327 0.84539 0.0
H398 H 0.55463 0.7855 0.85402 0.0
C399 C 0.53746 0.58102 0.85566 0.0
C400 C 0.52077 0.66048 0.84018 0.0
H401 H 0.57251 0.73799 0.83253 0.0
C402 C 0.49238 0.66938 0.84065 0.0
C403 C 0.55008 0.68559 0.83725 0.0
C404 C 0.58105 0.67749 0.83565 0.0
C405 C 0.49249 0.70257 0.83819 0.0
C406 C 0.52168 0.72748 0.8351 0.0
C407 C 0.5502 0.71882 0.83501 0.0
C408 C 0.52289 0.76226 0.83084 0.0
C409 C 0.46137 0.71077 0.83887 0.0
C410 C 0.507 0.76828 0.81503 0.0
C411 C 0.51077 0.80116 0.81005 0.0
C412 C 0.53046 0.8287 0.82081 0.0
C413 C 0.5455 0.82259 0.83693 0.0
C414 C 0.54196 0.78964 0.84183 0.0
H415 H 0.44322 0.69117 0.84547 0.0
H416 H 0.46601 0.73539 0.84584 0.0
H417 H 0.45074 0.71242 0.82529 0.0
H418 H 0.49253 0.74753 0.80625 0.0
H419 H 0.4988 0.80508 0.79759 0.0
H420 H 0.90808 0.51447 0.1284 0.0
H421 H 0.85216 0.51503 0.12755 0.0
H422 H 0.8843 0.60651 0.15961 0.0
H423 H 0.9406 0.60614 0.16058 0.0
H424 H 0.82833 0.55948 0.17044 0.0
H425 H 0.81125 0.57601 0.09895 0.0
H426 H 0.825 0.54096 0.10453 0.0
H427 H 0.85077 0.58293 0.11074 0.0
C428 C 0.90347 0.53486 0.13527 0.0
C429 C 0.9293 0.5604 0.14448 0.0
C430 C 0.87126 0.53522 0.13468 0.0
C431 C 0.86368 0.5611 0.14327 0.0
C432 C 0.88927 0.58632 0.15276 0.0
H433 H 0.6764 0.60041 0.1247 0.0
H434 H 0.73372 0.60388 0.12698 0.0
C435 C 0.92162 0.5861 0.15327 0.0
C436 C 0.82912 0.56153 0.14246 0.0
H437 H 0.76387 0.56253 0.11394 0.0
C438 C 0.81433 0.56027 0.15807 0.0
C439 C 0.81061 0.563 0.1264 0.0
C440 C 0.82523 0.56613 0.1092 0.0
C441 C 0.7817 0.55962 0.15803 0.0
C442 C 0.76281 0.55988 0.1419 0.0
C443 C 0.7779 0.56198 0.12633 0.0
C444 C 0.72753 0.55798 0.14087 0.0
C445 C 0.76794 0.5592 0.17537 0.0
C446 C 0.70433 0.53091 0.14774 0.0
C447 C 0.67133 0.52876 0.14639 0.0
C448 C 0.66023 0.55354 0.13802 0.0
C449 C 0.68357 0.58061 0.13111 0.0
C450 C 0.7166 0.58271 0.13247 0.0
H451 H 0.78742 0.56891 0.18633 0.0
H452 H 0.75125 0.57446 0.17514 0.0
H453 H 0.7541 0.53296 0.17809 0.0
H454 H 0.7116 0.5109 0.15386 0.0
H455 H 0.65437 0.50703 0.15152 0.0
H456 H 0.33665 0.88056 0.47128 0.0
H457 H 0.29513 0.82584 0.46585 0.0
H458 H 0.32935 0.7921 0.51468 0.0
H459 H 0.37115 0.84704 0.52025 0.0
H460 H 0.32041 0.74674 0.48708 0.0
H461 H 0.21151 0.78719 0.4884 0.0
H462 H 0.23878 0.81025 0.47347 0.0
H463 H 0.25164 0.81381 0.49662 0.0
C464 C 0.33504 0.86173 0.48103 0.0
C465 C 0.35705 0.86829 0.49628 0.0
C466 C 0.31123 0.83044 0.47791 0.0
C467 C 0.30869 0.8051 0.49002 0.0
C468 C 0.33073 0.81141 0.50522 0.0
H469 H 0.18393 0.5946 0.48297 0.0
H470 H 0.22145 0.64921 0.49406 0.0
C471 C 0.35467 0.84274 0.50834 0.0
C472 C 0.28403 0.77155 0.48632 0.0
H473 H 0.20287 0.73226 0.47581 0.0
C474 C 0.29466 0.74346 0.48485 0.0
C475 C 0.25045 0.76735 0.48342 0.0
C476 C 0.23735 0.7962 0.48573 0.0
C477 C 0.27275 0.71153 0.47986 0.0
C478 C 0.23929 0.70754 0.47649 0.0
C479 C 0.22856 0.73545 0.47835 0.0
C480 C 0.21525 0.67486 0.47027 0.0
C481 C 0.2857 0.68255 0.47759 0.0
C482 C 0.19862 0.67146 0.45343 0.0
C483 C 0.17723 0.64033 0.44703 0.0
C484 C 0.17192 0.61197 0.45741 0.0
C485 C 0.18788 0.61577 0.47452 0.0
C486 C 0.20931 0.64694 0.48089 0.0
H487 H 0.31244 0.69116 0.47722 0.0
H488 H 0.27997 0.66578 0.48875 0.0
H489 H 0.27412 0.66759 0.46532 0.0
H490 H 0.20286 0.69275 0.44504 0.0
H491 H 0.1657 0.63828 0.43374 0.0
H492 H 0.56515 0.37088 0.82626 0.0
H493 H 0.56623 0.31325 0.8231 0.0
H494 H 0.47686 0.27717 0.8471 0.0
H495 H 0.47505 0.3346 0.84979 0.0
H496 H 0.56973 0.2681 0.84674 0.0
H497 H 0.4546 0.2175 0.80354 0.0
H498 H 0.47349 0.26186 0.80845 0.0
H499 H 0.44947 0.23564 0.82387 0.0
C500 C 0.54564 0.35068 0.83081 0.0
C501 C 0.51986 0.35735 0.83814 0.0
C502 C 0.5463 0.31772 0.82901 0.0
C503 C 0.52132 0.29072 0.83456 0.0
C504 C 0.49594 0.29741 0.84226 0.0
H505 H 0.54261 0.09088 0.8483 0.0
H506 H 0.53669 0.14624 0.85353 0.0
C507 C 0.49505 0.33033 0.84388 0.0
C508 C 0.52222 0.25574 0.83253 0.0
H509 H 0.47915 0.17776 0.8147 0.0
C510 C 0.54993 0.24836 0.83971 0.0
C511 C 0.49657 0.23003 0.82317 0.0
C512 C 0.467 0.23666 0.81416 0.0
C513 C 0.55273 0.21609 0.8378 0.0
C514 C 0.52667 0.19013 0.8289 0.0
C515 C 0.49896 0.19752 0.82172 0.0
C516 C 0.52834 0.15562 0.82602 0.0
C517 C 0.58406 0.21052 0.84485 0.0
C518 C 0.52418 0.14176 0.8089 0.0
C519 C 0.527 0.10996 0.80591 0.0
C520 C 0.53414 0.0913 0.81999 0.0
C521 C 0.53747 0.10481 0.83718 0.0
C522 C 0.53429 0.13653 0.84017 0.0
H523 H 0.60436 0.23454 0.84687 0.0
H524 H 0.58098 0.19866 0.85772 0.0
H525 H 0.59092 0.19366 0.83584 0.0
H526 H 0.51952 0.15591 0.79776 0.0
H527 H 0.52468 0.10047 0.79251 0.0
H528 H 0.60699 0.94857 0.53719 0.0
H529 H 0.60702 0.89077 0.54033 0.0
H530 H 0.51915 0.85559 0.50504 0.0
H531 H 0.51853 0.91341 0.50206 0.0
H532 H 0.516 0.81835 0.53412 0.0
H533 H 0.63107 0.83132 0.50583 0.0
H534 H 0.63598 0.86161 0.52338 0.0
H535 H 0.61076 0.86268 0.50352 0.0
C536 C 0.58775 0.92863 0.52998 0.0
C537 C 0.56286 0.93578 0.51928 0.0
C538 C 0.58793 0.89554 0.53171 0.0
C539 C 0.56344 0.86882 0.52266 0.0
C540 C 0.53845 0.8758 0.51205 0.0
H541 H 0.58149 0.66626 0.51987 0.0
H542 H 0.57324 0.71919 0.51099 0.0
C543 C 0.53818 0.90892 0.51033 0.0
C544 C 0.56332 0.83356 0.52485 0.0
H545 H 0.61015 0.78234 0.5223 0.0
C546 C 0.53646 0.81039 0.53137 0.0
C547 C 0.58973 0.82291 0.52097 0.0
C548 C 0.61836 0.84583 0.51287 0.0
C549 C 0.53585 0.77733 0.53476 0.0
C550 C 0.5631 0.7673 0.53187 0.0
C551 C 0.58939 0.79007 0.5247 0.0
C552 C 0.56549 0.73391 0.5369 0.0
C553 C 0.50594 0.75346 0.54136 0.0
C554 C 0.56376 0.72443 0.55439 0.0
C555 C 0.56819 0.69413 0.55946 0.0
C556 C 0.57484 0.67267 0.5472 0.0
C557 C 0.57603 0.68193 0.52961 0.0
C558 C 0.57155 0.71231 0.52454 0.0
H559 H 0.48411 0.76102 0.53749 0.0
H560 H 0.50141 0.72735 0.53631 0.0
H561 H 0.50936 0.75381 0.5559 0.0
H562 H 0.55977 0.74089 0.56426 0.0
H563 H 0.56677 0.68769 0.57307 0.0
H564 H 0.71383 0.52928 0.80078 0.0
H565 H 0.76574 0.55518 0.78912 0.0
H566 H 0.8155 0.52832 0.83527 0.0
H567 H 0.76389 0.50053 0.84631 0.0
H568 H 0.80702 0.60804 0.80296 0.0
H569 H 0.87319 0.51725 0.80109 0.0
H570 H 0.82994 0.50382 0.80243 0.0
H571 H 0.85811 0.51435 0.82208 0.0
C572 C 0.73575 0.5276 0.80807 0.0
C573 C 0.73477 0.51328 0.82463 0.0
C574 C 0.76546 0.54261 0.80142 0.0
C575 C 0.79469 0.54363 0.81121 0.0
C576 C 0.79346 0.52725 0.82716 0.0
H577 H 0.94788 0.6966 0.85164 0.0
H578 H 0.89679 0.66087 0.83682 0.0
C579 C 0.76384 0.51189 0.83368 0.0
C580 C 0.82622 0.56674 0.80677 0.0
H581 H 0.90684 0.5753 0.81218 0.0
C582 C 0.82875 0.60059 0.80436 0.0
C583 C 0.85472 0.5573 0.80795 0.0
C584 C 0.85367 0.52106 0.80831 0.0
C585 C 0.85906 0.62558 0.80538 0.0
C586 C 0.88744 0.61658 0.80949 0.0
C587 C 0.88506 0.58243 0.8096 0.0
C588 C 0.91851 0.64172 0.81658 0.0
C589 C 0.86023 0.66156 0.80297 0.0
C590 C 0.94794 0.6427 0.8103 0.0
C591 C 0.97743 0.66308 0.81891 0.0
C592 C 0.97792 0.68268 0.83399 0.0
C593 C 0.94836 0.68245 0.83985 0.0
C594 C 0.91904 0.66205 0.83132 0.0
H595 H 0.84049 0.66292 0.79301 0.0
H596 H 0.85639 0.67237 0.81552 0.0
H597 H 0.88387 0.67711 0.79884 0.0
H598 H 0.94813 0.62701 0.79905 0.0
H599 H 0.99986 0.66288 0.81405 0.0
H600 H 0.17999 0.78351 0.19601 0.0
H601 H 0.23426 0.82438 0.20269 0.0
H602 H 0.2695 0.77798 0.16204 0.0
H603 H 0.21529 0.73746 0.15508 0.0
H604 H 0.29356 0.81049 0.2128 0.0
H605 H 0.29846 0.87888 0.15091 0.0
H606 H 0.26092 0.85215 0.158 0.0
H607 H 0.28753 0.83401 0.14806 0.0
C608 C 0.19923 0.78221 0.18839 0.0
C609 C 0.19329 0.75727 0.17498 0.0
C610 C 0.23023 0.80547 0.19227 0.0
C611 C 0.25577 0.80449 0.18269 0.0
C612 C 0.25001 0.77952 0.1694 0.0
H613 H 0.46073 0.90996 0.18482 0.0
H614 H 0.40417 0.87515 0.17784 0.0
C615 C 0.21909 0.75615 0.16557 0.0
C616 C 0.2887 0.82895 0.18693 0.0
H617 H 0.34762 0.89127 0.1697 0.0
C618 C 0.30532 0.82837 0.20345 0.0
C619 C 0.30396 0.85214 0.17467 0.0
C620 C 0.28677 0.85467 0.15696 0.0
C621 C 0.33721 0.84971 0.20789 0.0
C622 C 0.35259 0.87279 0.19559 0.0
C623 C 0.33579 0.87361 0.17912 0.0
C624 C 0.38651 0.89546 0.19936 0.0
C625 C 0.35451 0.84651 0.22548 0.0
C626 C 0.39526 0.91912 0.2135 0.0
C627 C 0.42765 0.9389 0.21761 0.0
C628 C 0.45192 0.93555 0.20759 0.0
C629 C 0.44278 0.91279 0.193 0.0
C630 C 0.41042 0.893 0.18892 0.0
H631 H 0.34251 0.82231 0.23146 0.0
H632 H 0.38017 0.84843 0.22429 0.0
H633 H 0.3543 0.86715 0.23455 0.0
H634 H 0.3771 0.92194 0.22153 0.0
H635 H 0.4338 0.95599 0.229 0.0
H636 H 0.60762 0.15727 0.51346 0.0
H637 H 0.60729 0.21519 0.51619 0.0
H638 H 0.50552 0.17962 0.52347 0.0
H639 H 0.50574 0.12154 0.52114 0.0
H640 H 0.57286 0.24967 0.49695 0.0
H641 H 0.5426 0.24319 0.5658 0.0
H642 H 0.55474 0.21102 0.55541 0.0
H643 H 0.51388 0.21217 0.55106 0.0
C644 C 0.58512 0.16168 0.51564 0.0
C645 C 0.55675 0.13465 0.51721 0.0
C646 C 0.58498 0.19487 0.51718 0.0
C647 C 0.55654 0.20183 0.52035 0.0
C648 C 0.52797 0.17493 0.52146 0.0
H649 H 0.52018 0.39257 0.53831 0.0
H650 H 0.51338 0.3335 0.53142 0.0
C651 C 0.5281 0.14169 0.52001 0.0
C652 C 0.55694 0.23725 0.52249 0.0
H653 H 0.54443 0.29325 0.55138 0.0
C654 C 0.56662 0.25918 0.50885 0.0
C655 C 0.54879 0.2497 0.53802 0.0
C656 C 0.5397 0.22793 0.55349 0.0
C657 C 0.56832 0.29312 0.51031 0.0
C658 C 0.56045 0.30559 0.52589 0.0
C659 C 0.55028 0.28359 0.53941 0.0
C660 C 0.56416 0.34171 0.52882 0.0
C661 C 0.57832 0.31534 0.49512 0.0
C662 C 0.59495 0.36595 0.52965 0.0
C663 C 0.59899 0.39965 0.53374 0.0
C664 C 0.57231 0.40995 0.53714 0.0
C665 C 0.54134 0.38561 0.53595 0.0
C666 C 0.53736 0.35183 0.53194 0.0
H667 H 0.5751 0.30041 0.48266 0.0
H668 H 0.56412 0.33309 0.49341 0.0
H669 H 0.60436 0.33028 0.49775 0.0
H670 H 0.61609 0.35863 0.52768 0.0
H671 H 0.62331 0.41738 0.53491 0.0
H672 H 0.28844 0.47077 0.82597 0.0
H673 H 0.25654 0.50901 0.82814 0.0
H674 H 0.34475 0.59227 0.83916 0.0
H675 H 0.37673 0.55462 0.83623 0.0
H676 H 0.25555 0.54508 0.85699 0.0
H677 H 0.29427 0.63142 0.80339 0.0
H678 H 0.30231 0.59184 0.8049 0.0
H679 H 0.32819 0.62826 0.81762 0.0
C680 C 0.30103 0.49733 0.82846 0.0
C681 C 0.33511 0.50962 0.83102 0.0
C682 C 0.28279 0.51912 0.82977 0.0
C683 C 0.29829 0.55355 0.83357 0.0
C684 C 0.33228 0.56594 0.83583 0.0
H685 H 0.2252 0.68937 0.88788 0.0
H686 H 0.25507 0.65329 0.87797 0.0
C687 C 0.35051 0.54426 0.83444 0.0
C688 C 0.27906 0.57604 0.83678 0.0
H689 H 0.2689 0.65106 0.82588 0.0
C690 C 0.25818 0.56805 0.85004 0.0
C691 C 0.28225 0.6058 0.82756 0.0
C692 C 0.30272 0.61468 0.81245 0.0
C693 C 0.24127 0.58959 0.85477 0.0
C694 C 0.24599 0.62031 0.84629 0.0
C695 C 0.26585 0.62775 0.83256 0.0
C696 C 0.23048 0.64496 0.85164 0.0
C697 C 0.21846 0.57919 0.8688 0.0
C698 C 0.208 0.65351 0.83985 0.0
C699 C 0.19109 0.67432 0.84544 0.0
C700 C 0.19648 0.68686 0.86291 0.0
C701 C 0.22023 0.67962 0.87442 0.0
C702 C 0.23722 0.65898 0.8688 0.0
H703 H 0.21081 0.5516 0.87041 0.0
H704 H 0.23099 0.5916 0.88152 0.0
H705 H 0.19645 0.58683 0.86572 0.0
H706 H 0.20264 0.64304 0.82652 0.0
H707 H 0.17275 0.67929 0.83632 0.0
H708 H 0.84298 0.37019 0.14689 0.0
H709 H 0.79809 0.32568 0.15751 0.0
H710 H 0.86504 0.27474 0.17747 0.0
H711 H 0.91002 0.31931 0.16726 0.0
H712 H 0.77773 0.25458 0.14891 0.0
H713 H 0.81609 0.28349 0.21994 0.0
H714 H 0.83147 0.31292 0.20335 0.0
H715 H 0.84732 0.27873 0.2075 0.0
C716 C 0.84817 0.34966 0.15369 0.0
C717 C 0.88012 0.34837 0.15627 0.0
C718 C 0.82248 0.32417 0.15964 0.0
C719 C 0.82831 0.29715 0.16846 0.0
C720 C 0.86007 0.29562 0.17092 0.0
H721 H 0.72324 0.11698 0.21627 0.0
H722 H 0.76255 0.16489 0.20451 0.0
C723 C 0.88572 0.32097 0.16491 0.0
C724 C 0.80124 0.27023 0.17495 0.0
H725 H 0.77464 0.23171 0.21221 0.0
C726 C 0.7768 0.2497 0.16276 0.0
C727 C 0.80012 0.26402 0.19301 0.0
C728 C 0.82497 0.28611 0.20675 0.0
C729 C 0.75195 0.22225 0.16811 0.0
C730 C 0.75122 0.21563 0.18617 0.0
C731 C 0.77526 0.23671 0.19837 0.0
C732 C 0.7267 0.18614 0.19273 0.0
C733 C 0.72749 0.19983 0.15433 0.0
C734 C 0.69336 0.18209 0.19005 0.0
C735 C 0.67071 0.15456 0.19677 0.0
C736 C 0.68108 0.13088 0.20649 0.0
C737 C 0.71447 0.13503 0.20908 0.0
C738 C 0.73699 0.16235 0.2023 0.0
H739 H 0.73595 0.20347 0.14106 0.0
H740 H 0.72232 0.17297 0.15743 0.0
H741 H 0.70445 0.20587 0.15396 0.0
H742 H 0.68487 0.20049 0.18302 0.0
H743 H 0.64519 0.15223 0.19471 0.0
H744 H 0.04672 0.54089 0.08353 0.0
H745 H 0.05228 0.55908 0.05332 0.0
H746 H 1.00905 0.63572 0.06348 0.0
H747 H 1.00341 0.6179 0.09356 0.0
H748 H 0.98569 0.59567 0.02994 0.0
H749 H 0.11997 0.65217 0.04253 0.0
H750 H 0.10237 0.60949 0.04872 0.0
H751 H 0.09403 0.64289 0.06005 0.0
C752 C 0.0381 0.56138 0.07927 0.0
C753 C 1.02483 0.5781 0.09097 0.0
C754 C 0.04141 0.5718 0.06206 0.0
C755 C 1.03134 0.59892 0.05629 0.0
C756 C 1.01703 0.6148 0.06773 0.0
H757 H 0.07616 0.73402 0.97185 0.0
H758 H 0.06651 0.70686 -0.00017 0.0
C759 C 1.01392 0.60461 0.08493 0.0
C760 C 0.03678 0.61184 0.03858 0.0
H761 H 0.09607 0.65658 0.01417 0.0
C762 C 1.0098 0.60874 0.02639 0.0
C763 C 0.06828 0.6292 0.03417 0.0
C764 C 0.09793 0.63395 0.04703 0.0
C765 C 1.01352 0.62271 0.00984 0.0
C766 C 0.04501 0.64014 0.00545 0.0
C767 C 0.07199 0.6431 0.01761 0.0
C768 C 0.05042 0.65629 0.98845 0.0
C769 C 0.98378 0.61954 0.99731 0.0
C770 C 0.04477 0.63676 0.97285 0.0
C771 C 0.05059 0.65215 0.95687 0.0
C772 C 0.06212 0.68741 0.95618 0.0
C773 C 0.06766 0.70685 0.9719 0.0
C774 C 0.06201 0.6914 0.98788 0.0
H775 H 0.96107 0.61023 0.00376 0.0
H776 H 0.98516 0.64416 0.99164 0.0
H777 H 0.98255 0.60163 0.98634 0.0
H778 H 0.03628 0.60959 0.97309 0.0
H779 H 0.04667 0.63636 0.9451 0.0
H780 H 0.61521 0.03043 0.46429 0.0
H781 H 0.61865 0.02919 0.43267 0.0
H782 H 0.52941 0.05294 0.42374 0.0
H783 H 0.5257 0.05433 0.45536 0.0
H784 H 0.56988 0.98575 0.40744 0.0
H785 H 0.59331 0.12099 0.39432 0.0
H786 H 0.60012 0.10634 0.41599 0.0
H787 H 0.55963 0.10209 0.40668 0.0
C788 C 0.59644 0.03571 0.45564 0.0
C789 C 0.57016 0.04248 0.46238 0.0
C790 C 0.59845 0.03495 0.43757 0.0
C791 C 0.57446 0.04128 0.42591 0.0
C792 C 0.54843 0.04848 0.43255 0.0
H793 H 0.54153 0.03862 0.31204 0.0
H794 H 0.53868 0.04437 0.34362 0.0
C795 C 0.5463 0.0491 0.45063 0.0
C796 C 0.57583 0.03858 0.40675 0.0
H797 H 0.58382 0.08365 0.36963 0.0
C798 C 0.57305 0.00715 0.39916 0.0
C799 C 0.5797 0.06652 0.39601 0.0
C800 C 0.58362 0.101 0.40362 0.0
C801 C 0.5737 0.00278 0.38105 0.0
C802 C 0.57801 0.03081 0.37032 0.0
C803 C 0.58058 0.06223 0.3779 0.0
C804 C 0.5802 0.02802 0.35121 0.0
C805 C 0.56907 0.96803 0.37355 0.0
C806 C 0.60484 0.01754 0.34502 0.0
C807 C 0.60652 0.01422 0.32703 0.0
C808 C 0.58376 0.02164 0.31484 0.0
C809 C 0.55953 0.0329 0.32109 0.0
C810 C 0.5578 0.03609 0.33911 0.0
H811 H 0.55711 0.94824 0.38247 0.0
H812 H 0.55426 0.96346 0.36062 0.0
H813 H 0.59312 0.96554 0.3717 0.0
H814 H 0.62288 0.01201 0.35413 0.0
H815 H 0.62586 0.00616 0.32265 0.0
H816 H 0.58025 0.50566 0.79469 0.0
H817 H 0.58892 0.5142 0.7639 0.0
H818 H 0.50179 0.43176 0.74869 0.0
H819 H 0.49242 0.42347 0.77954 0.0
H820 H 0.59791 0.47314 0.73876 0.0
H821 H 0.48643 0.50678 0.71968 0.0
H822 H 0.50111 0.50416 0.74226 0.0
H823 H 0.47898 0.46658 0.72934 0.0
C824 C 0.56286 0.48929 0.78484 0.0
C825 C 0.53546 0.46403 0.7896 0.0
C826 C 0.5679 0.49421 0.76721 0.0
C827 C 0.54571 0.47403 0.75397 0.0
C828 C 0.51882 0.44816 0.75867 0.0
H829 H 0.58667 0.46678 0.64494 0.0
H830 H 0.57571 0.45339 0.67519 0.0
C831 C 0.51362 0.44332 0.77632 0.0
C832 C 0.55098 0.4802 0.73529 0.0
H833 H 0.51719 0.50084 0.69675 0.0
C834 C 0.58026 0.47917 0.72956 0.0
C835 C 0.52811 0.48856 0.72337 0.0
C836 C 0.49702 0.49194 0.72897 0.0
C837 C 0.58729 0.48617 0.71224 0.0
C838 C 0.56406 0.49365 0.70021 0.0
C839 C 0.53483 0.49479 0.70595 0.0
C840 C 0.57001 0.50132 0.68173 0.0
C841 C 0.61992 0.4864 0.70716 0.0
C842 C 0.56942 0.53229 0.67518 0.0
C843 C 0.5754 0.53989 0.65786 0.0
C844 C 0.5821 0.51665 0.64676 0.0
C845 C 0.58217 0.48544 0.65327 0.0
C846 C 0.57597 0.47777 0.67056 0.0
H847 H 0.63789 0.48926 0.71883 0.0
H848 H 0.61722 0.46224 0.70021 0.0
H849 H 0.62968 0.50707 0.69825 0.0
H850 H 0.56477 0.5508 0.68356 0.0
H851 H 0.5754 0.56422 0.65326 0.0
H852 H 0.49967 0.98523 0.56615 0.0
H853 H 0.49599 0.97554 0.59748 0.0
H854 H 0.59264 0.04474 0.60947 0.0
H855 H 0.59667 0.05462 0.57833 0.0
H856 H 0.57963 0.97957 0.62527 0.0
H857 H 0.48861 0.04346 0.63627 0.0
H858 H 0.47902 0.01357 0.61799 0.0
H859 H 0.51224 0.05178 0.61775 0.0
C860 C 0.52009 -0.00146 0.57545 0.0
C861 C 0.54846 0.02075 0.56971 0.0
C862 C 0.51787 0.99305 0.59334 0.0
C863 C 0.54396 0.00963 0.60575 0.0
C864 C 0.57222 0.03179 0.60007 0.0
H865 H 0.56991 0.03908 0.71783 0.0
H866 H 0.56469 0.04388 0.68595 0.0
C867 C 0.57442 0.03742 0.58225 0.0
C868 C 0.54246 0.0033 0.62465 0.0
H869 H 0.50699 0.01748 0.66047 0.0
C870 C 0.56361 0.98763 0.63297 0.0
C871 C 0.5217 0.01413 0.63461 0.0
C872 C 0.49919 0.03189 0.62631 0.0
C873 C 0.56472 0.98266 0.65106 0.0
C874 C 0.54397 0.99348 0.66103 0.0
C875 C 0.52268 0.00902 0.65272 0.0
C876 C 0.54526 0.99031 0.68028 0.0
C877 C 0.58872 0.96676 0.65949 0.0
C878 C 0.53556 0.95861 0.68759 0.0
C879 C 0.53857 0.95577 0.70579 0.0
C880 C 0.55142 0.98463 0.71697 0.0
C881 C 0.56038 0.01638 0.70956 0.0
C882 C 0.55721 0.01918 0.69138 0.0
H883 H 0.60688 0.96534 0.65055 0.0
H884 H 0.60172 0.98113 0.67168 0.0
H885 H 0.57552 0.94086 0.66309 0.0
H886 H 0.52603 0.93605 0.67921 0.0
H887 H 0.53163 0.93097 0.7111 0.0
H888 H 0.54371 0.44713 0.90501 0.0
H889 H 0.53878 0.45578 0.93595 0.0
H890 H 0.45214 0.48244 0.92217 0.0
H891 H 0.45667 0.47354 0.891 0.0
H892 H 0.53905 0.51649 0.95209 0.0
H893 H 0.42562 0.41252 0.96013 0.0
H894 H 0.44866 0.41364 0.94167 0.0
H895 H 0.42347 0.44004 0.94252 0.0
C896 C 0.52337 0.45453 0.90849 0.0
C897 C 0.50055 0.45962 0.89547 0.0
C898 C 0.52065 0.45951 0.92622 0.0
C899 C 0.49499 0.4695 0.93138 0.0
C900 C 0.47186 0.47421 0.91848 0.0
H901 H 0.45588 0.51059 0.03802 0.0
H902 H 0.45329 0.50522 0.00599 0.0
C903 C 0.47456 0.46922 0.90067 0.0
C904 C 0.4936 0.47632 0.95025 0.0
H905 H 0.44999 0.44842 0.98491 0.0
C906 C 0.51952 0.50168 0.95926 0.0
C907 C 0.46797 0.45715 0.95953 0.0
C908 C 0.43991 0.42912 0.95056 0.0
C909 C 0.52075 0.50812 0.97734 0.0
C910 C 0.49567 0.48824 0.98674 0.0
C911 C 0.46924 0.46353 0.97766 0.0
C912 C 0.49724 0.49177 0.0061 0.0
C913 C 0.54887 0.53624 0.98621 0.0
C914 C 0.52259 0.48563 0.01677 0.0
C915 C 0.52422 0.4888 0.03501 0.0
C916 C 0.50038 0.498 0.04301 0.0
C917 C 0.47483 0.50388 0.03228 0.0
C918 C 0.4732 0.50062 0.01399 0.0
H919 H 0.5606 0.55485 0.97669 0.0
H920 H 0.54092 0.54946 0.99662 0.0
H921 H 0.56739 0.52563 0.99238 0.0
H922 H 0.54111 0.47822 0.01096 0.0
H923 H 0.54438 0.48439 0.04285 0.0
H924 H 0.99105 0.4991 0.19653 0.0
H925 H 0.99515 0.49088 0.22814 0.0
H926 H 0.0832 0.5752 0.23515 0.0
H927 H 0.07904 0.58402 0.20371 0.0
H928 H 0.0437 0.47735 0.2493 0.0
H929 H 1.02999 0.5979 0.27106 0.0
H930 H 1.02055 0.58229 0.24854 0.0
H931 H 0.06193 0.60328 0.25719 0.0
C932 C 1.01121 0.516 0.2048 0.0
C933 C 1.03461 0.54236 0.19759 0.0
C934 C 1.01351 0.51126 0.22287 0.0
C935 C 0.03913 0.53282 0.23404 0.0
C936 C 0.06276 0.55879 0.22684 0.0
H937 H 0.11316 0.54291 0.343 0.0
H938 H 0.10309 0.55053 0.31158 0.0
C939 C 0.06044 0.56364 0.20883 0.0
C940 C 0.04184 0.52755 0.25316 0.0
H941 H 0.04858 0.56671 0.29324 0.0
C942 C 0.04444 0.49674 0.25892 0.0
C943 C 0.04276 0.5529 0.26568 0.0
C944 C 0.03834 0.58583 0.26033 0.0
C945 C 0.04893 0.49099 0.27686 0.0
C946 C 0.05051 0.51659 0.28933 0.0
C947 C 0.04748 0.54721 0.28361 0.0
C948 C 0.05602 0.51229 0.3084 0.0
C949 C 0.05289 0.45794 0.28234 0.0
C950 C 1.03264 0.48863 0.31703 0.0
C951 C 0.03833 0.48421 0.33497 0.0
C952 C 0.06753 0.50337 0.34458 0.0
C953 C 0.09064 0.52746 0.33592 0.0
C954 C 0.08486 0.53197 0.318 0.0
H955 H 0.05751 0.44362 0.27119 0.0
H956 H 0.07321 0.46205 0.29289 0.0
H957 H 1.03036 0.44237 0.28758 0.0
H958 H 1.01006 0.47351 0.30986 0.0
H959 H 1.02015 0.46531 0.34123 0.0
loop_
_geom_bond_atom_site_label_1
_geom_bond_atom_site_label_2
_geom_bond_distance
_geom_bond_site_symmetry_2
_ccdc_geom_bond_type
Dy0 O3 2.307 1_455 S
Dy0 O5 2.395 . S
Dy0 O6 2.379 . S
Dy0 O8 2.339 . S
Dy0 O10 2.298 . S
Dy0 O14 2.275 . S
Dy0 C22 2.738 . S
Dy1 O4 2.298 . S
Dy1 O7 2.275 1_655 S
Dy1 O9 2.307 1_655 S
Dy1 O11 2.395 . S
Dy1 O12 2.379 . S
Dy1 O15 2.339 . S
Dy1 C31 2.738 . S
C2 O14 1.254 . S
C2 O15 1.257 1_455 S
O3 Dy0 2.307 1_655 S
O3 C13 1.266 . S
O4 Dy1 2.298 . S
O4 C13 1.236 . S
O5 Dy0 2.395 . S
O5 C22 1.255 . S
O6 Dy0 2.379 . S
O6 C22 1.249 . S
O7 Dy1 2.275 1_455 S
O7 C23 1.254 . S
O8 Dy0 2.339 . S
O8 C23 1.257 . S
O9 Dy1 2.307 1_455 S
O9 C24 1.266 . S
O10 Dy0 2.298 . S
O10 C24 1.236 . S
O11 Dy1 2.395 . S
O11 C31 1.255 . S
O12 Dy1 2.379 . S
O12 C31 1.249 . S
C13 O3 1.266 . S
C13 O4 1.236 . S
O14 Dy0 2.275 . S
O14 C2 1.254 . S
O15 Dy1 2.339 . S
O15 C2 1.257 1_655 S
C16 C19 1.344 . S
C16 C20 1.328 . S
C16 C22 1.516 . S
C17 C18 1.304 . S
C17 C21 1.323 . S
C18 C17 1.304 . S
C18 C19 1.371 . S
C18 H32 0.930 . S
C19 C16 1.344 . S
C19 C18 1.371 . S
C19 H33 0.931 . S
C20 C16 1.328 . S
C20 C21 1.433 . S
C20 H34 0.931 . S
C21 C17 1.323 . S
C21 C20 1.433 . S
C21 H35 0.933 . S
C22 Dy0 2.738 . S
C22 O5 1.255 . S
C22 O6 1.249 . S
C22 C16 1.516 . S
C23 O7 1.254 . S
C23 O8 1.257 . S
C24 O9 1.266 . S
C24 O10 1.236 . S
C25 C28 1.344 . S
C25 C29 1.328 . S
C25 C31 1.516 . S
C26 C27 1.304 . S
C26 C30 1.323 . S
C27 C26 1.304 . S
C27 C28 1.371 . S
C27 H36 0.930 . S
C28 C25 1.344 . S
C28 C27 1.371 . S
C28 H37 0.931 . S
C29 C25 1.328 . S
C29 C30 1.433 . S
C29 H38 0.931 . S
C30 C26 1.323 . S
C30 C29 1.433 . S
C30 H39 0.933 . S
C31 Dy1 2.738 . S
C31 O11 1.255 . S
C31 O12 1.249 . S
C31 C25 1.516 . S
H32 C18 0.930 . S
H33 C19 0.931 . S
H34 C20 0.931 . S
H35 C21 0.933 . S
H36 C27 0.930 . S
H37 C28 0.931 . S
H38 C29 0.931 . S
H39 C30 0.933 . S
Dy40 O43 2.307 . S
Dy40 O45 2.395 1_545 S
Dy40 O46 2.379 1_545 S
Dy40 O48 2.339 . S
Dy40 O50 2.298 1_545 S
Dy40 O54 2.275 . S
Dy40 C62 2.738 1_545 S
Dy41 O44 2.298 . S
Dy41 O47 2.275 . S
Dy41 O49 2.307 1_545 S
Dy41 O51 2.395 . S
Dy41 O52 2.379 . S
Dy41 O55 2.339 . S
Dy41 C71 2.738 . S
C42 O54 1.254 . S
C42 O55 1.257 . S
O43 Dy40 2.307 . S
O43 C53 1.266 . S
O44 Dy41 2.298 . S
O44 C53 1.236 . S
O45 Dy40 2.395 1_565 S
O45 C62 1.255 . S
O46 Dy40 2.379 1_565 S
O46 C62 1.249 . S
O47 Dy41 2.275 . S
O47 C63 1.254 . S
O48 Dy40 2.339 . S
O48 C63 1.257 . S
O49 Dy41 2.307 1_565 S
O49 C64 1.266 . S
O50 Dy40 2.298 1_565 S
O50 C64 1.236 . S
O51 Dy41 2.395 . S
O51 C71 1.255 . S
O52 Dy41 2.379 . S
O52 C71 1.249 . S
C53 O43 1.266 . S
C53 O44 1.236 . S
O54 Dy40 2.275 . S
O54 C42 1.254 . S
O55 Dy41 2.339 . S
O55 C42 1.257 . S
C56 C59 1.344 . S
C56 C60 1.328 . S
C56 C62 1.516 . S
C57 C58 1.304 . S
C57 C61 1.323 . S
C58 C57 1.304 . S
C58 C59 1.371 . S
C58 H72 0.930 . S
C59 C56 1.344 . S
C59 C58 1.371 . S
C59 H73 0.931 . S
C60 C56 1.328 . S
C60 C61 1.433 . S
C60 H74 0.931 . S
C61 C57 1.323 . S
C61 C60 1.433 . S
C61 H75 0.933 . S
C62 Dy40 2.738 1_565 S
C62 O45 1.255 . S
C62 O46 1.249 . S
C62 C56 1.516 . S
C63 O47 1.254 . S
C63 O48 1.257 . S
C64 O49 1.266 . S
C64 O50 1.236 . S
C65 C68 1.344 . S
C65 C69 1.328 . S
C65 C71 1.516 . S
C66 C67 1.304 . S
C66 C70 1.323 . S
C67 C66 1.304 . S
C67 C68 1.371 . S
C67 H76 0.930 . S
C68 C65 1.344 . S
C68 C67 1.371 . S
C68 H77 0.931 . S
C69 C65 1.328 . S
C69 C70 1.433 . S
C69 H78 0.931 . S
C70 C66 1.323 . S
C70 C69 1.433 . S
C70 H79 0.933 . S
C71 Dy41 2.738 . S
C71 O51 1.255 . S
C71 O52 1.249 . S
C71 C65 1.516 . S
H72 C58 0.930 . S
H73 C59 0.931 . S
H74 C60 0.931 . S
H75 C61 0.933 . S
H76 C67 0.930 . S
H77 C68 0.931 . S
H78 C69 0.931 . S
H79 C70 0.933 . S
Dy80 O83 2.307 . S
Dy80 O85 2.395 . S
Dy80 O86 2.379 . S
Dy80 O88 2.339 . S
Dy80 O90 2.298 . S
Dy80 O94 2.275 . S
Dy80 C102 2.738 . S
Dy81 O84 2.298 . S
Dy81 O87 2.275 . S
Dy81 O89 2.307 . S
Dy81 O91 2.395 . S
Dy81 O92 2.379 . S
Dy81 O95 2.339 . S
Dy81 C111 2.738 . S
C82 O94 1.254 . S
C82 O95 1.257 . S
O83 Dy80 2.307 . S
O83 C93 1.266 . S
O84 Dy81 2.298 . S
O84 C93 1.236 . S
O85 Dy80 2.395 . S
O85 C102 1.255 . S
O86 Dy80 2.379 . S
O86 C102 1.249 . S
O87 Dy81 2.275 . S
O87 C103 1.254 . S
O88 Dy80 2.339 . S
O88 C103 1.257 . S
O89 Dy81 2.307 . S
O89 C104 1.266 . S
O90 Dy80 2.298 . S
O90 C104 1.236 . S
O91 Dy81 2.395 . S
O91 C111 1.255 . S
O92 Dy81 2.379 . S
O92 C111 1.249 . S
C93 O83 1.266 . S
C93 O84 1.236 . S
O94 Dy80 2.275 . S
O94 C82 1.254 . S
O95 Dy81 2.339 . S
O95 C82 1.257 . S
C96 C99 1.344 . S
C96 C100 1.328 . S
C96 C102 1.516 . S
C97 C98 1.304 . S
C97 C101 1.323 . S
C98 C97 1.304 . S
C98 C99 1.371 . S
C98 H112 0.930 . S
C99 C96 1.344 . S
C99 C98 1.371 . S
C99 H113 0.931 . S
C100 C96 1.328 . S
C100 C101 1.433 . S
C100 H114 0.931 . S
C101 C97 1.323 . S
C101 C100 1.433 . S
C101 H115 0.933 . S
C102 Dy80 2.738 . S
C102 O85 1.255 . S
C102 O86 1.249 . S
C102 C96 1.516 . S
C103 O87 1.254 . S
C103 O88 1.257 . S
C104 O89 1.266 . S
C104 O90 1.236 . S
C105 C108 1.344 . S
C105 C109 1.328 . S
C105 C111 1.516 . S
C106 C107 1.304 . S
C106 C110 1.323 . S
C107 C106 1.304 . S
C107 C108 1.371 . S
C107 H116 0.930 . S
C108 C105 1.344 . S
C108 C107 1.371 . S
C108 H117 0.931 . S
C109 C105 1.328 . S
C109 C110 1.433 . S
C109 H118 0.931 . S
C110 C106 1.323 . S
C110 C109 1.433 . S
C110 H119 0.933 . S
C111 Dy81 2.738 . S
C111 O91 1.255 . S
C111 O92 1.249 . S
C111 C105 1.516 . S
H112 C98 0.930 . S
H113 C99 0.931 . S
H114 C100 0.931 . S
H115 C101 0.933 . S
H116 C107 0.930 . S
H117 C108 0.931 . S
H118 C109 0.931 . S
H119 C110 0.933 . S
P120 O131 1.490 . S
P120 C134 1.812 . S
P120 C140 1.803 . S
P120 C146 1.819 . S
H121 C135 0.941 . S
H122 C136 0.939 . S
H123 C138 0.940 . S
H124 C139 0.940 . S
H125 C141 0.939 . S
H126 C142 0.942 . S
H127 C144 0.940 . S
H128 C145 0.939 . S
H129 C147 0.941 1_565 S
H130 C151 0.939 . S
O131 P120 1.490 . S
H132 C148 0.939 . S
H133 C150 0.940 . S
C134 P120 1.812 . S
C134 C135 1.389 1_545 S
C134 C139 1.391 . S
C135 H121 0.941 . S
C135 C134 1.389 1_565 S
C135 C136 1.397 . S
C136 H122 0.939 . S
C136 C135 1.397 . S
C136 C137 1.378 . S
C137 C136 1.378 . S
C137 C138 1.378 1_565 S
C138 H123 0.940 . S
C138 C137 1.378 1_545 S
C138 C139 1.396 . S
C139 H124 0.940 . S
C139 C134 1.391 . S
C139 C138 1.396 . S
C140 P120 1.803 . S
C140 C141 1.378 . S
C140 C145 1.400 . S
C141 H125 0.939 . S
C141 C140 1.378 . S
C141 C142 1.361 . S
C142 H126 0.942 . S
C142 C141 1.361 . S
C142 C143 1.369 . S
C143 C142 1.369 . S
C143 C144 1.404 . S
C144 H127 0.940 . S
C144 C143 1.404 . S
C144 C145 1.389 . S
C145 H128 0.939 . S
C145 C140 1.400 . S
C145 C144 1.389 . S
C146 P120 1.819 . S
C146 C147 1.391 . S
C146 C151 1.391 . S
C147 H129 0.941 1_545 S
C147 C146 1.391 . S
C147 C148 1.396 . S
C148 H132 0.939 . S
C148 C147 1.396 . S
C148 C149 1.397 . S
C149 C148 1.397 . S
C149 C150 1.385 . S
C150 H133 0.940 . S
C150 C149 1.385 . S
C150 C151 1.388 . S
C151 H130 0.939 . S
C151 C146 1.391 . S
C151 C150 1.388 . S
P152 O163 1.490 . S
P152 C166 1.812 . S
P152 C172 1.803 . S
P152 C178 1.819 . S
H153 C167 0.941 . S
H154 C168 0.939 . S
H155 C170 0.940 . S
H156 C171 0.940 . S
H157 C173 0.939 . S
H158 C174 0.942 . S
H159 C176 0.940 . S
H160 C177 0.939 . S
H161 C179 0.941 . S
H162 C183 0.939 . S
O163 P152 1.490 . S
H164 C180 0.939 . S
H165 C182 0.940 . S
C166 P152 1.812 . S
C166 C167 1.389 . S
C166 C171 1.391 . S
C167 H153 0.941 . S
C167 C166 1.389 . S
C167 C168 1.397 . S
C168 H154 0.939 . S
C168 C167 1.397 . S
C168 C169 1.378 . S
C169 C168 1.378 . S
C169 C170 1.378 . S
C170 H155 0.940 . S
C170 C169 1.378 . S
C170 C171 1.396 . S
C171 H156 0.940 . S
C171 C166 1.391 . S
C171 C170 1.396 . S
C172 P152 1.803 . S
C172 C173 1.378 . S
C172 C177 1.400 . S
C173 H157 0.939 . S
C173 C172 1.378 . S
C173 C174 1.361 . S
C174 H158 0.942 . S
C174 C173 1.361 . S
C174 C175 1.369 . S
C175 C174 1.369 . S
C175 C176 1.404 . S
C176 H159 0.940 . S
C176 C175 1.404 . S
C176 C177 1.389 . S
C177 H160 0.939 . S
C177 C172 1.400 . S
C177 C176 1.389 . S
C178 P152 1.819 . S
C178 C179 1.391 . S
C178 C183 1.391 . S
C179 H161 0.941 . S
C179 C178 1.391 . S
C179 C180 1.396 . S
C180 H164 0.939 . S
C180 C179 1.396 . S
C180 C181 1.397 . S
C181 C180 1.397 . S
C181 C182 1.385 . S
C182 H165 0.940 . S
C182 C181 1.385 . S
C182 C183 1.388 . S
C183 H162 0.939 . S
C183 C178 1.391 . S
C183 C182 1.388 . S
P184 O195 1.490 . S
P184 C198 1.812 . S
P184 C204 1.803 1_455 S
P184 C210 1.819 . S
H185 C199 0.941 . S
H186 C200 0.939 . S
H187 C202 0.940 . S
H188 C203 0.940 . S
H189 C205 0.939 . S
H190 C206 0.942 . S
H191 C208 0.940 . S
H192 C209 0.939 . S
H193 C211 0.941 . S
H194 C215 0.939 1_655 S
O195 P184 1.490 . S
H196 C212 0.939 . S
H197 C214 0.940 1_655 S
C198 P184 1.812 . S
C198 C199 1.389 . S
C198 C203 1.391 . S
C199 H185 0.941 . S
C199 C198 1.389 . S
C199 C200 1.397 . S
C200 H186 0.939 . S
C200 C199 1.397 . S
C200 C201 1.378 . S
C201 C200 1.378 . S
C201 C202 1.378 . S
C202 H187 0.940 . S
C202 C201 1.378 . S
C202 C203 1.396 . S
C203 H188 0.940 . S
C203 C198 1.391 . S
C203 C202 1.396 . S
C204 P184 1.803 1_655 S
C204 C205 1.378 . S
C204 C209 1.400 . S
C205 H189 0.939 . S
C205 C204 1.378 . S
C205 C206 1.361 . S
C206 H190 0.942 . S
C206 C205 1.361 . S
C206 C207 1.369 . S
C207 C206 1.369 . S
C207 C208 1.404 . S
C208 H191 0.940 . S
C208 C207 1.404 . S
C208 C209 1.389 . S
C209 H192 0.939 . S
C209 C204 1.400 . S
C209 C208 1.389 . S
C210 P184 1.819 . S
C210 C211 1.391 . S
C210 C215 1.391 . S
C211 H193 0.941 . S
C211 C210 1.391 . S
C211 C212 1.396 . S
C212 H196 0.939 . S
C212 C211 1.396 . S
C212 C213 1.397 . S
C213 C212 1.397 . S
C213 C214 1.385 . S
C214 H197 0.940 1_455 S
C214 C213 1.385 . S
C214 C215 1.388 . S
C215 H194 0.939 1_455 S
C215 C210 1.391 . S
C215 C214 1.388 . S
P216 O227 1.490 . S
P216 C230 1.812 . S
P216 C236 1.803 1_455 S
P216 C242 1.819 . S
H217 C231 0.941 . S
H218 C232 0.939 . S
H219 C234 0.940 . S
H220 C235 0.940 . S
H221 C237 0.939 . S
H222 C238 0.942 . S
H223 C240 0.940 . S
H224 C241 0.939 . S
H225 C243 0.941 . S
H226 C247 0.939 . S
O227 P216 1.490 . S
H228 C244 0.939 . S
H229 C246 0.940 . S
C230 P216 1.812 . S
C230 C231 1.389 . S
C230 C235 1.391 . S
C231 H217 0.941 . S
C231 C230 1.389 . S
C231 C232 1.397 . S
C232 H218 0.939 . S
C232 C231 1.397 . S
C232 C233 1.378 . S
C233 C232 1.378 . S
C233 C234 1.378 . S
C234 H219 0.940 . S
C234 C233 1.378 . S
C234 C235 1.396 . S
C235 H220 0.940 . S
C235 C230 1.391 . S
C235 C234 1.396 . S
C236 P216 1.803 1_655 S
C236 C237 1.378 . S
C236 C241 1.400 . S
C237 H221 0.939 . S
C237 C236 1.378 . S
C237 C238 1.361 . S
C238 H222 0.942 . S
C238 C237 1.361 . S
C238 C239 1.369 . S
C239 C238 1.369 . S
C239 C240 1.404 . S
C240 H223 0.940 . S
C240 C239 1.404 . S
C240 C241 1.389 . S
C241 H224 0.939 . S
C241 C236 1.400 . S
C241 C240 1.389 . S
C242 P216 1.819 . S
C242 C243 1.391 . S
C242 C247 1.391 1_455 S
C243 H225 0.941 . S
C243 C242 1.391 . S
C243 C244 1.396 . S
C244 H228 0.939 . S
C244 C243 1.396 . S
C244 C245 1.397 . S
C245 C244 1.397 . S
C245 C246 1.385 1_455 S
C246 H229 0.940 . S
C246 C245 1.385 1_655 S
C246 C247 1.388 . S
C247 H226 0.939 . S
C247 C242 1.391 1_655 S
C247 C246 1.388 . S
P248 O259 1.490 . S
P248 C262 1.812 . S
P248 C268 1.803 1_545 S
P248 C274 1.819 . S
H249 C263 0.941 . S
H250 C264 0.939 . S
H251 C266 0.940 . S
H252 C267 0.940 . S
H253 C269 0.939 . S
H254 C270 0.942 . S
H255 C272 0.940 . S
H256 C273 0.939 . S
H257 C275 0.941 . S
H258 C279 0.939 . S
O259 P248 1.490 . S
H260 C276 0.939 . S
H261 C278 0.940 . S
C262 P248 1.812 . S
C262 C263 1.389 . S
C262 C267 1.391 . S
C263 H249 0.941 . S
C263 C262 1.389 . S
C263 C264 1.397 . S
C264 H250 0.939 . S
C264 C263 1.397 . S
C264 C265 1.378 . S
C265 C264 1.378 . S
C265 C266 1.378 . S
C266 H251 0.940 . S
C266 C265 1.378 . S
C266 C267 1.396 . S
C267 H252 0.940 . S
C267 C262 1.391 . S
C267 C266 1.396 . S
C268 P248 1.803 1_565 S
C268 C269 1.378 . S
C268 C273 1.400 . S
C269 H253 0.939 . S
C269 C268 1.378 . S
C269 C270 1.361 . S
C270 H254 0.942 . S
C270 C269 1.361 . S
C270 C271 1.369 . S
C271 C270 1.369 . S
C271 C272 1.404 . S
C272 H255 0.940 . S
C272 C271 1.404 . S
C272 C273 1.389 . S
C273 H256 0.939 . S
C273 C268 1.400 . S
C273 C272 1.389 . S
C274 P248 1.819 . S
C274 C275 1.391 . S
C274 C279 1.391 1_545 S
C275 H257 0.941 . S
C275 C274 1.391 . S
C275 C276 1.396 . S
C276 H260 0.939 . S
C276 C275 1.396 . S
C276 C277 1.397 . S
C277 C276 1.397 . S
C277 C278 1.385 1_545 S
C278 H261 0.940 . S
C278 C277 1.385 1_565 S
C278 C279 1.388 . S
C279 H258 0.939 . S
C279 C274 1.391 1_565 S
C279 C278 1.388 . S
P280 O291 1.490 . S
P280 C294 1.812 . S
P280 C300 1.803 . S
P280 C306 1.819 . S
H281 C295 0.941 . S
H282 C296 0.939 . S
H283 C298 0.940 . S
H284 C299 0.940 . S
H285 C301 0.939 . S
H286 C302 0.942 . S
H287 C304 0.940 . S
H288 C305 0.939 . S
H289 C307 0.941 . S
H290 C311 0.939 . S
O291 P280 1.490 . S
H292 C308 0.939 . S
H293 C310 0.940 . S
C294 P280 1.812 . S
C294 C295 1.389 . S
C294 C299 1.391 . S
C295 H281 0.941 . S
C295 C294 1.389 . S
C295 C296 1.397 . S
C296 H282 0.939 . S
C296 C295 1.397 . S
C296 C297 1.378 . S
C297 C296 1.378 . S
C297 C298 1.378 . S
C298 H283 0.940 . S
C298 C297 1.378 . S
C298 C299 1.396 . S
C299 H284 0.940 . S
C299 C294 1.391 . S
C299 C298 1.396 . S
C300 P280 1.803 . S
C300 C301 1.378 . S
C300 C305 1.400 . S
C301 H285 0.939 . S
C301 C300 1.378 . S
C301 C302 1.361 . S
C302 H286 0.942 . S
C302 C301 1.361 . S
C302 C303 1.369 . S
C303 C302 1.369 . S
C303 C304 1.404 . S
C304 H287 0.940 . S
C304 C303 1.404 . S
C304 C305 1.389 . S
C305 H288 0.939 . S
C305 C300 1.400 . S
C305 C304 1.389 . S
C306 P280 1.819 . S
C306 C307 1.391 . S
C306 C311 1.391 . S
C307 H289 0.941 . S
C307 C306 1.391 . S
C307 C308 1.396 . S
C308 H292 0.939 . S
C308 C307 1.396 . S
C308 C309 1.397 . S
C309 C308 1.397 . S
C309 C310 1.385 . S
C310 H293 0.940 . S
C310 C309 1.385 . S
C310 C311 1.388 . S
C311 H290 0.939 . S
C311 C306 1.391 . S
C311 C310 1.388 . S
H312 C320 0.929 . S
H313 C322 0.930 . S
H314 C324 0.930 . S
H315 C327 0.929 . S
H316 C330 0.930 . S
H317 C332 0.960 . S
H318 C332 0.960 . S
H319 C332 0.960 . S
C320 H312 0.929 . S
C320 C321 1.377 . S
C320 C322 1.384 . S
C321 C320 1.377 . S
C321 C327 1.390 . S
C322 H313 0.930 . S
C322 C320 1.384 . S
C322 C323 1.372 . S
C323 C322 1.372 . S
C323 C324 1.400 . S
C323 C328 1.490 . S
C324 H314 0.930 . S
C324 C323 1.400 . S
C324 C327 1.386 . S
H325 C341 0.930 . S
H326 C342 0.931 . S
C327 H315 0.929 . S
C327 C321 1.390 . S
C327 C324 1.386 . S
C328 C323 1.490 . S
C328 C330 1.395 . S
C328 C331 1.403 . S
H329 C335 0.930 . S
C330 H316 0.930 . S
C330 C328 1.395 . S
C330 C333 1.403 . S
C331 C328 1.403 . S
C331 C332 1.524 . S
C331 C335 1.400 . S
C332 H317 0.960 . S
C332 H318 0.960 . S
C332 H319 0.960 . S
C332 C331 1.524 . S
C333 C330 1.403 . S
C333 C334 1.392 . S
C333 C337 1.495 . S
C334 C333 1.392 . S
C334 C335 1.385 . S
C334 C336 1.478 . S
C335 H329 0.930 . S
C335 C331 1.400 . S
C335 C334 1.385 . S
C336 C334 1.478 . S
C336 C338 1.381 . S
C336 C342 1.383 . S
C337 C333 1.495 . S
C337 H343 0.959 . S
C337 H344 0.961 . S
C337 H345 0.960 . S
C338 C336 1.381 . S
C338 C339 1.394 . S
C338 H346 0.930 . S
C339 C338 1.394 . S
C339 C340 1.383 . S
C339 H347 0.929 . S
C340 C339 1.383 . S
C340 C341 1.377 . S
C341 H325 0.930 . S
C341 C340 1.377 . S
C341 C342 1.379 . S
C342 H326 0.931 . S
C342 C336 1.383 . S
C342 C341 1.379 . S
H343 C337 0.959 . S
H344 C337 0.961 . S
H345 C337 0.960 . S
H346 C338 0.930 . S
H347 C339 0.929 . S
H348 C356 0.929 . S
H349 C358 0.930 . S
H350 C360 0.930 . S
H351 C363 0.929 . S
H352 C366 0.930 . S
H353 C368 0.960 . S
H354 C368 0.960 . S
H355 C368 0.960 . S
C356 H348 0.929 . S
C356 C357 1.377 . S
C356 C358 1.384 . S
C357 C356 1.377 . S
C357 C363 1.390 . S
C358 H349 0.930 . S
C358 C356 1.384 . S
C358 C359 1.372 . S
C359 C358 1.372 . S
C359 C360 1.400 . S
C359 C364 1.490 . S
C360 H350 0.930 . S
C360 C359 1.400 . S
C360 C363 1.386 . S
H361 C377 0.930 . S
H362 C378 0.931 . S
C363 H351 0.929 . S
C363 C357 1.390 . S
C363 C360 1.386 . S
C364 C359 1.490 . S
C364 C366 1.395 . S
C364 C367 1.403 . S
H365 C371 0.930 . S
C366 H352 0.930 . S
C366 C364 1.395 . S
C366 C369 1.403 . S
C367 C364 1.403 . S
C367 C368 1.524 . S
C367 C371 1.400 . S
C368 H353 0.960 . S
C368 H354 0.960 . S
C368 H355 0.960 . S
C368 C367 1.524 . S
C369 C366 1.403 . S
C369 C370 1.392 . S
C369 C373 1.495 . S
C370 C369 1.392 . S
C370 C371 1.385 . S
C370 C372 1.478 . S
C371 H365 0.930 . S
C371 C367 1.400 . S
C371 C370 1.385 . S
C372 C370 1.478 . S
C372 C374 1.381 . S
C372 C378 1.383 . S
C373 C369 1.495 . S
C373 H379 0.959 . S
C373 H380 0.961 . S
C373 H381 0.960 . S
C374 C372 1.381 . S
C374 C375 1.394 . S
C374 H382 0.930 . S
C375 C374 1.394 . S
C375 C376 1.383 . S
C375 H383 0.929 . S
C376 C375 1.383 . S
C376 C377 1.377 . S
C377 H361 0.930 . S
C377 C376 1.377 . S
C377 C378 1.379 . S
C378 H362 0.931 . S
C378 C372 1.383 . S
C378 C377 1.379 . S
H379 C373 0.959 . S
H380 C373 0.961 . S
H381 C373 0.960 . S
H382 C374 0.930 . S
H383 C375 0.929 . S
H384 C392 0.929 . S
H385 C394 0.930 . S
H386 C396 0.930 . S
H387 C399 0.929 . S
H388 C402 0.930 . S
H389 C404 0.960 . S
H390 C404 0.960 . S
H391 C404 0.960 . S
C392 H384 0.929 . S
C392 C393 1.377 . S
C392 C394 1.384 . S
C393 C392 1.377 . S
C393 C399 1.390 . S
C394 H385 0.930 . S
C394 C392 1.384 . S
C394 C395 1.372 . S
C395 C394 1.372 . S
C395 C396 1.400 . S
C395 C400 1.490 . S
C396 H386 0.930 . S
C396 C395 1.400 . S
C396 C399 1.386 . S
H397 C413 0.930 . S
H398 C414 0.931 . S
C399 H387 0.929 . S
C399 C393 1.390 . S
C399 C396 1.386 . S
C400 C395 1.490 . S
C400 C402 1.395 . S
C400 C403 1.403 . S
H401 C407 0.930 . S
C402 H388 0.930 . S
C402 C400 1.395 . S
C402 C405 1.403 . S
C403 C400 1.403 . S
C403 C404 1.524 . S
C403 C407 1.400 . S
C404 H389 0.960 . S
C404 H390 0.960 . S
C404 H391 0.960 . S
C404 C403 1.524 . S
C405 C402 1.403 . S
C405 C406 1.392 . S
C405 C409 1.495 . S
C406 C405 1.392 . S
C406 C407 1.385 . S
C406 C408 1.478 . S
C407 H401 0.930 . S
C407 C403 1.400 . S
C407 C406 1.385 . S
C408 C406 1.478 . S
C408 C410 1.381 . S
C408 C414 1.383 . S
C409 C405 1.495 . S
C409 H415 0.959 . S
C409 H416 0.961 . S
C409 H417 0.960 . S
C410 C408 1.381 . S
C410 C411 1.394 . S
C410 H418 0.930 . S
C411 C410 1.394 . S
C411 C412 1.383 . S
C411 H419 0.929 . S
C412 C411 1.383 . S
C412 C413 1.377 . S
C413 H397 0.930 . S
C413 C412 1.377 . S
C413 C414 1.379 . S
C414 H398 0.931 . S
C414 C408 1.383 . S
C414 C413 1.379 . S
H415 C409 0.959 . S
H416 C409 0.961 . S
H417 C409 0.960 . S
H418 C410 0.930 . S
H419 C411 0.929 . S
H420 C428 0.929 . S
H421 C430 0.930 . S
H422 C432 0.930 . S
H423 C435 0.929 . S
H424 C438 0.930 . S
H425 C440 0.960 . S
H426 C440 0.960 . S
H427 C440 0.960 . S
C428 H420 0.929 . S
C428 C429 1.377 . S
C428 C430 1.384 . S
C429 C428 1.377 . S
C429 C435 1.390 . S
C430 H421 0.930 . S
C430 C428 1.384 . S
C430 C431 1.372 . S
C431 C430 1.372 . S
C431 C432 1.400 . S
C431 C436 1.490 . S
C432 H422 0.930 . S
C432 C431 1.400 . S
C432 C435 1.386 . S
H433 C449 0.930 . S
H434 C450 0.931 . S
C435 H423 0.929 . S
C435 C429 1.390 . S
C435 C432 1.386 . S
C436 C431 1.490 . S
C436 C438 1.395 . S
C436 C439 1.403 . S
H437 C443 0.930 . S
C438 H424 0.930 . S
C438 C436 1.395 . S
C438 C441 1.403 . S
C439 C436 1.403 . S
C439 C440 1.524 . S
C439 C443 1.400 . S
C440 H425 0.960 . S
C440 H426 0.960 . S
C440 H427 0.960 . S
C440 C439 1.524 . S
C441 C438 1.403 . S
C441 C442 1.392 . S
C441 C445 1.495 . S
C442 C441 1.392 . S
C442 C443 1.385 . S
C442 C444 1.478 . S
C443 H437 0.930 . S
C443 C439 1.400 . S
C443 C442 1.385 . S
C444 C442 1.478 . S
C444 C446 1.381 . S
C444 C450 1.383 . S
C445 C441 1.495 . S
C445 H451 0.959 . S
C445 H452 0.961 . S
C445 H453 0.960 . S
C446 C444 1.381 . S
C446 C447 1.394 . S
C446 H454 0.930 . S
C447 C446 1.394 . S
C447 C448 1.383 . S
C447 H455 0.929 . S
C448 C447 1.383 . S
C448 C449 1.377 . S
C449 H433 0.930 . S
C449 C448 1.377 . S
C449 C450 1.379 . S
C450 H434 0.931 . S
C450 C444 1.383 . S
C450 C449 1.379 . S
H451 C445 0.959 . S
H452 C445 0.961 . S
H453 C445 0.960 . S
H454 C446 0.930 . S
H455 C447 0.929 . S
H456 C464 0.929 . S
H457 C466 0.930 . S
H458 C468 0.930 . S
H459 C471 0.929 . S
H460 C474 0.930 . S
H461 C476 0.960 . S
H462 C476 0.960 . S
H463 C476 0.960 . S
C464 H456 0.929 . S
C464 C465 1.377 . S
C464 C466 1.384 . S
C465 C464 1.377 . S
C465 C471 1.390 . S
C466 H457 0.930 . S
C466 C464 1.384 . S
C466 C467 1.372 . S
C467 C466 1.372 . S
C467 C468 1.400 . S
C467 C472 1.490 . S
C468 H458 0.930 . S
C468 C467 1.400 . S
C468 C471 1.386 . S
H469 C485 0.930 . S
H470 C486 0.931 . S
C471 H459 0.929 . S
C471 C465 1.390 . S
C471 C468 1.386 . S
C472 C467 1.490 . S
C472 C474 1.395 . S
C472 C475 1.403 . S
H473 C479 0.930 . S
C474 H460 0.930 . S
C474 C472 1.395 . S
C474 C477 1.403 . S
C475 C472 1.403 . S
C475 C476 1.524 . S
C475 C479 1.400 . S
C476 H461 0.960 . S
C476 H462 0.960 . S
C476 H463 0.960 . S
C476 C475 1.524 . S
C477 C474 1.403 . S
C477 C478 1.392 . S
C477 C481 1.495 . S
C478 C477 1.392 . S
C478 C479 1.385 . S
C478 C480 1.478 . S
C479 H473 0.930 . S
C479 C475 1.400 . S
C479 C478 1.385 . S
C480 C478 1.478 . S
C480 C482 1.381 . S
C480 C486 1.383 . S
C481 C477 1.495 . S
C481 H487 0.959 . S
C481 H488 0.961 . S
C481 H489 0.960 . S
C482 C480 1.381 . S
C482 C483 1.394 . S
C482 H490 0.930 . S
C483 C482 1.394 . S
C483 C484 1.383 . S
C483 H491 0.929 . S
C484 C483 1.383 . S
C484 C485 1.377 . S
C485 H469 0.930 . S
C485 C484 1.377 . S
C485 C486 1.379 . S
C486 H470 0.931 . S
C486 C480 1.383 . S
C486 C485 1.379 . S
H487 C481 0.959 . S
H488 C481 0.961 . S
H489 C481 0.960 . S
H490 C482 0.930 . S
H491 C483 0.929 . S
H492 C500 0.929 . S
H493 C502 0.930 . S
H494 C504 0.930 . S
H495 C507 0.929 . S
H496 C510 0.930 . S
H497 C512 0.960 . S
H498 C512 0.960 . S
H499 C512 0.960 . S
C500 H492 0.929 . S
C500 C501 1.377 . S
C500 C502 1.384 . S
C501 C500 1.377 . S
C501 C507 1.390 . S
C502 H493 0.930 . S
C502 C500 1.384 . S
C502 C503 1.372 . S
C503 C502 1.372 . S
C503 C504 1.400 . S
C503 C508 1.490 . S
C504 H494 0.930 . S
C504 C503 1.400 . S
C504 C507 1.386 . S
H505 C521 0.930 . S
H506 C522 0.931 . S
C507 H495 0.929 . S
C507 C501 1.390 . S
C507 C504 1.386 . S
C508 C503 1.490 . S
C508 C510 1.395 . S
C508 C511 1.403 . S
H509 C515 0.930 . S
C510 H496 0.930 . S
C510 C508 1.395 . S
C510 C513 1.403 . S
C511 C508 1.403 . S
C511 C512 1.524 . S
C511 C515 1.400 . S
C512 H497 0.960 . S
C512 H498 0.960 . S
C512 H499 0.960 . S
C512 C511 1.524 . S
C513 C510 1.403 . S
C513 C514 1.392 . S
C513 C517 1.495 . S
C514 C513 1.392 . S
C514 C515 1.385 . S
C514 C516 1.478 . S
C515 H509 0.930 . S
C515 C511 1.400 . S
C515 C514 1.385 . S
C516 C514 1.478 . S
C516 C518 1.381 . S
C516 C522 1.383 . S
C517 C513 1.495 . S
C517 H523 0.959 . S
C517 H524 0.961 . S
C517 H525 0.960 . S
C518 C516 1.381 . S
C518 C519 1.394 . S
C518 H526 0.930 . S
C519 C518 1.394 . S
C519 C520 1.383 . S
C519 H527 0.929 . S
C520 C519 1.383 . S
C520 C521 1.377 . S
C521 H505 0.930 . S
C521 C520 1.377 . S
C521 C522 1.379 . S
C522 H506 0.931 . S
C522 C516 1.383 . S
C522 C521 1.379 . S
H523 C517 0.959 . S
H524 C517 0.961 . S
H525 C517 0.960 . S
H526 C518 0.930 . S
H527 C519 0.929 . S
H528 C536 0.929 . S
H529 C538 0.930 . S
H530 C540 0.930 . S
H531 C543 0.929 . S
H532 C546 0.930 . S
H533 C548 0.960 . S
H534 C548 0.960 . S
H535 C548 0.960 . S
C536 H528 0.929 . S
C536 C537 1.377 . S
C536 C538 1.384 . S
C537 C536 1.377 . S
C537 C543 1.390 . S
C538 H529 0.930 . S
C538 C536 1.384 . S
C538 C539 1.372 . S
C539 C538 1.372 . S
C539 C540 1.400 . S
C539 C544 1.490 . S
C540 H530 0.930 . S
C540 C539 1.400 . S
C540 C543 1.386 . S
H541 C557 0.930 . S
H542 C558 0.931 . S
C543 H531 0.929 . S
C543 C537 1.390 . S
C543 C540 1.386 . S
C544 C539 1.490 . S
C544 C546 1.395 . S
C544 C547 1.403 . S
H545 C551 0.930 . S
C546 H532 0.930 . S
C546 C544 1.395 . S
C546 C549 1.403 . S
C547 C544 1.403 . S
C547 C548 1.524 . S
C547 C551 1.400 . S
C548 H533 0.960 . S
C548 H534 0.960 . S
C548 H535 0.960 . S
C548 C547 1.524 . S
C549 C546 1.403 . S
C549 C550 1.392 . S
C549 C553 1.495 . S
C550 C549 1.392 . S
C550 C551 1.385 . S
C550 C552 1.478 . S
C551 H545 0.930 . S
C551 C547 1.400 . S
C551 C550 1.385 . S
C552 C550 1.478 . S
C552 C554 1.381 . S
C552 C558 1.383 . S
C553 C549 1.495 . S
C553 H559 0.959 . S
C553 H560 0.961 . S
C553 H561 0.960 . S
C554 C552 1.381 . S
C554 C555 1.394 . S
C554 H562 0.930 . S
C555 C554 1.394 . S
C555 C556 1.383 . S
C555 H563 0.929 . S
C556 C555 1.383 . S
C556 C557 1.377 . S
C557 H541 0.930 . S
C557 C556 1.377 . S
C557 C558 1.379 . S
C558 H542 0.931 . S
C558 C552 1.383 . S
C558 C557 1.379 . S
H559 C553 0.959 . S
H560 C553 0.961 . S
H561 C553 0.960 . S
H562 C554 0.930 . S
H563 C555 0.929 . S
H564 C572 0.929 . S
H565 C574 0.930 . S
H566 C576 0.930 . S
H567 C579 0.929 . S
H568 C582 0.930 . S
H569 C584 0.960 . S
H570 C584 0.960 . S
H571 C584 0.960 . S
C572 H564 0.929 . S
C572 C573 1.377 . S
C572 C574 1.384 . S
C573 C572 1.377 . S
C573 C579 1.390 . S
C574 H565 0.930 . S
C574 C572 1.384 . S
C574 C575 1.372 . S
C575 C574 1.372 . S
C575 C576 1.400 . S
C575 C580 1.490 . S
C576 H566 0.930 . S
C576 C575 1.400 . S
C576 C579 1.386 . S
H577 C593 0.930 . S
H578 C594 0.931 . S
C579 H567 0.929 . S
C579 C573 1.390 . S
C579 C576 1.386 . S
C580 C575 1.490 . S
C580 C582 1.395 . S
C580 C583 1.403 . S
H581 C587 0.930 . S
C582 H568 0.930 . S
C582 C580 1.395 . S
C582 C585 1.403 . S
C583 C580 1.403 . S
C583 C584 1.524 . S
C583 C587 1.400 . S
C584 H569 0.960 . S
C584 H570 0.960 . S
C584 H571 0.960 . S
C584 C583 1.524 . S
C585 C582 1.403 . S
C585 C586 1.392 . S
C585 C589 1.495 . S
C586 C585 1.392 . S
C586 C587 1.385 . S
C586 C588 1.478 . S
C587 H581 0.930 . S
C587 C583 1.400 . S
C587 C586 1.385 . S
C588 C586 1.478 . S
C588 C590 1.381 . S
C588 C594 1.383 . S
C589 C585 1.495 . S
C589 H595 0.959 . S
C589 H596 0.961 . S
C589 H597 0.960 . S
C590 C588 1.381 . S
C590 C591 1.394 . S
C590 H598 0.930 . S
C591 C590 1.394 . S
C591 C592 1.383 . S
C591 H599 0.929 . S
C592 C591 1.383 . S
C592 C593 1.377 . S
C593 H577 0.930 . S
C593 C592 1.377 . S
C593 C594 1.379 . S
C594 H578 0.931 . S
C594 C588 1.383 . S
C594 C593 1.379 . S
H595 C589 0.959 . S
H596 C589 0.961 . S
H597 C589 0.960 . S
H598 C590 0.930 . S
H599 C591 0.929 . S
H600 C608 0.929 . S
H601 C610 0.930 . S
H602 C612 0.930 . S
H603 C615 0.929 . S
H604 C618 0.930 . S
H605 C620 0.960 . S
H606 C620 0.960 . S
H607 C620 0.960 . S
C608 H600 0.929 . S
C608 C609 1.377 . S
C608 C610 1.384 . S
C609 C608 1.377 . S
C609 C615 1.390 . S
C610 H601 0.930 . S
C610 C608 1.384 . S
C610 C611 1.372 . S
C611 C610 1.372 . S
C611 C612 1.400 . S
C611 C616 1.490 . S
C612 H602 0.930 . S
C612 C611 1.400 . S
C612 C615 1.386 . S
H613 C629 0.930 . S
H614 C630 0.931 . S
C615 H603 0.929 . S
C615 C609 1.390 . S
C615 C612 1.386 . S
C616 C611 1.490 . S
C616 C618 1.395 . S
C616 C619 1.403 . S
H617 C623 0.930 . S
C618 H604 0.930 . S
C618 C616 1.395 . S
C618 C621 1.403 . S
C619 C616 1.403 . S
C619 C620 1.524 . S
C619 C623 1.400 . S
C620 H605 0.960 . S
C620 H606 0.960 . S
C620 H607 0.960 . S
C620 C619 1.524 . S
C621 C618 1.403 . S
C621 C622 1.392 . S
C621 C625 1.495 . S
C622 C621 1.392 . S
C622 C623 1.385 . S
C622 C624 1.478 . S
C623 H617 0.930 . S
C623 C619 1.400 . S
C623 C622 1.385 . S
C624 C622 1.478 . S
C624 C626 1.381 . S
C624 C630 1.383 . S
C625 C621 1.495 . S
C625 H631 0.959 . S
C625 H632 0.961 . S
C625 H633 0.960 . S
C626 C624 1.381 . S
C626 C627 1.394 . S
C626 H634 0.930 . S
C627 C626 1.394 . S
C627 C628 1.383 . S
C627 H635 0.929 . S
C628 C627 1.383 . S
C628 C629 1.377 . S
C629 H613 0.930 . S
C629 C628 1.377 . S
C629 C630 1.379 . S
C630 H614 0.931 . S
C630 C624 1.383 . S
C630 C629 1.379 . S
H631 C625 0.959 . S
H632 C625 0.961 . S
H633 C625 0.960 . S
H634 C626 0.930 . S
H635 C627 0.929 . S
H636 C644 0.929 . S
H637 C646 0.930 . S
H638 C648 0.930 . S
H639 C651 0.929 . S
H640 C654 0.930 . S
H641 C656 0.960 . S
H642 C656 0.960 . S
H643 C656 0.960 . S
C644 H636 0.929 . S
C644 C645 1.377 . S
C644 C646 1.384 . S
C645 C644 1.377 . S
C645 C651 1.390 . S
C646 H637 0.930 . S
C646 C644 1.384 . S
C646 C647 1.372 . S
C647 C646 1.372 . S
C647 C648 1.400 . S
C647 C652 1.490 . S
C648 H638 0.930 . S
C648 C647 1.400 . S
C648 C651 1.386 . S
H649 C665 0.930 . S
H650 C666 0.931 . S
C651 H639 0.929 . S
C651 C645 1.390 . S
C651 C648 1.386 . S
C652 C647 1.490 . S
C652 C654 1.395 . S
C652 C655 1.403 . S
H653 C659 0.930 . S
C654 H640 0.930 . S
C654 C652 1.395 . S
C654 C657 1.403 . S
C655 C652 1.403 . S
C655 C656 1.524 . S
C655 C659 1.400 . S
C656 H641 0.960 . S
C656 H642 0.960 . S
C656 H643 0.960 . S
C656 C655 1.524 . S
C657 C654 1.403 . S
C657 C658 1.392 . S
C657 C661 1.495 . S
C658 C657 1.392 . S
C658 C659 1.385 . S
C658 C660 1.478 . S
C659 H653 0.930 . S
C659 C655 1.400 . S
C659 C658 1.385 . S
C660 C658 1.478 . S
C660 C662 1.381 . S
C660 C666 1.383 . S
C661 C657 1.495 . S
C661 H667 0.959 . S
C661 H668 0.961 . S
C661 H669 0.960 . S
C662 C660 1.381 . S
C662 C663 1.394 . S
C662 H670 0.930 . S
C663 C662 1.394 . S
C663 C664 1.383 . S
C663 H671 0.929 . S
C664 C663 1.383 . S
C664 C665 1.377 . S
C665 H649 0.930 . S
C665 C664 1.377 . S
C665 C666 1.379 . S
C666 H650 0.931 . S
C666 C660 1.383 . S
C666 C665 1.379 . S
H667 C661 0.959 . S
H668 C661 0.961 . S
H669 C661 0.960 . S
H670 C662 0.930 . S
H671 C663 0.929 . S
H672 C680 0.929 . S
H673 C682 0.930 . S
H674 C684 0.930 . S
H675 C687 0.929 . S
H676 C690 0.930 . S
H677 C692 0.960 . S
H678 C692 0.960 . S
H679 C692 0.960 . S
C680 H672 0.929 . S
C680 C681 1.377 . S
C680 C682 1.384 . S
C681 C680 1.377 . S
C681 C687 1.390 . S
C682 H673 0.930 . S
C682 C680 1.384 . S
C682 C683 1.372 . S
C683 C682 1.372 . S
C683 C684 1.400 . S
C683 C688 1.490 . S
C684 H674 0.930 . S
C684 C683 1.400 . S
C684 C687 1.386 . S
H685 C701 0.930 . S
H686 C702 0.931 . S
C687 H675 0.929 . S
C687 C681 1.390 . S
C687 C684 1.386 . S
C688 C683 1.490 . S
C688 C690 1.395 . S
C688 C691 1.403 . S
H689 C695 0.930 . S
C690 H676 0.930 . S
C690 C688 1.395 . S
C690 C693 1.403 . S
C691 C688 1.403 . S
C691 C692 1.524 . S
C691 C695 1.400 . S
C692 H677 0.960 . S
C692 H678 0.960 . S
C692 H679 0.960 . S
C692 C691 1.524 . S
C693 C690 1.403 . S
C693 C694 1.392 . S
C693 C697 1.495 . S
C694 C693 1.392 . S
C694 C695 1.385 . S
C694 C696 1.478 . S
C695 H689 0.930 . S
C695 C691 1.400 . S
C695 C694 1.385 . S
C696 C694 1.478 . S
C696 C698 1.381 . S
C696 C702 1.383 . S
C697 C693 1.495 . S
C697 H703 0.959 . S
C697 H704 0.961 . S
C697 H705 0.960 . S
C698 C696 1.381 . S
C698 C699 1.394 . S
C698 H706 0.930 . S
C699 C698 1.394 . S
C699 C700 1.383 . S
C699 H707 0.929 . S
C700 C699 1.383 . S
C700 C701 1.377 . S
C701 H685 0.930 . S
C701 C700 1.377 . S
C701 C702 1.379 . S
C702 H686 0.931 . S
C702 C696 1.383 . S
C702 C701 1.379 . S
H703 C697 0.959 . S
H704 C697 0.961 . S
H705 C697 0.960 . S
H706 C698 0.930 . S
H707 C699 0.929 . S
H708 C716 0.929 . S
H709 C718 0.930 . S
H710 C720 0.930 . S
H711 C723 0.929 . S
H712 C726 0.930 . S
H713 C728 0.960 . S
H714 C728 0.960 . S
H715 C728 0.960 . S
C716 H708 0.929 . S
C716 C717 1.377 . S
C716 C718 1.384 . S
C717 C716 1.377 . S
C717 C723 1.390 . S
C718 H709 0.930 . S
C718 C716 1.384 . S
C718 C719 1.372 . S
C719 C718 1.372 . S
C719 C720 1.400 . S
C719 C724 1.490 . S
C720 H710 0.930 . S
C720 C719 1.400 . S
C720 C723 1.386 . S
H721 C737 0.930 . S
H722 C738 0.931 . S
C723 H711 0.929 . S
C723 C717 1.390 . S
C723 C720 1.386 . S
C724 C719 1.490 . S
C724 C726 1.395 . S
C724 C727 1.403 . S
H725 C731 0.930 . S
C726 H712 0.930 . S
C726 C724 1.395 . S
C726 C729 1.403 . S
C727 C724 1.403 . S
C727 C728 1.524 . S
C727 C731 1.400 . S
C728 H713 0.960 . S
C728 H714 0.960 . S
C728 H715 0.960 . S
C728 C727 1.524 . S
C729 C726 1.403 . S
C729 C730 1.392 . S
C729 C733 1.495 . S
C730 C729 1.392 . S
C730 C731 1.385 . S
C730 C732 1.478 . S
C731 H725 0.930 . S
C731 C727 1.400 . S
C731 C730 1.385 . S
C732 C730 1.478 . S
C732 C734 1.381 . S
C732 C738 1.383 . S
C733 C729 1.495 . S
C733 H739 0.959 . S
C733 H740 0.961 . S
C733 H741 0.960 . S
C734 C732 1.381 . S
C734 C735 1.394 . S
C734 H742 0.930 . S
C735 C734 1.394 . S
C735 C736 1.383 . S
C735 H743 0.929 . S
C736 C735 1.383 . S
C736 C737 1.377 . S
C737 H721 0.930 . S
C737 C736 1.377 . S
C737 C738 1.379 . S
C738 H722 0.931 . S
C738 C732 1.383 . S
C738 C737 1.379 . S
H739 C733 0.959 . S
H740 C733 0.961 . S
H741 C733 0.960 . S
H742 C734 0.930 . S
H743 C735 0.929 . S
H744 C752 0.929 . S
H745 C754 0.930 . S
H746 C756 0.930 . S
H747 C759 0.929 . S
H748 C762 0.930 . S
H749 C764 0.960 . S
H750 C764 0.960 . S
H751 C764 0.960 . S
C752 H744 0.929 . S
C752 C753 1.377 1_655 S
C752 C754 1.384 . S
C753 C752 1.377 1_455 S
C753 C759 1.390 . S
C754 H745 0.930 . S
C754 C752 1.384 . S
C754 C755 1.372 1_655 S
C755 C754 1.372 1_455 S
C755 C756 1.400 . S
C755 C760 1.490 . S
C756 H746 0.930 . S
C756 C755 1.400 . S
C756 C759 1.386 . S
H757 C773 0.930 . S
H758 C774 0.931 1_554 S
C759 H747 0.929 . S
C759 C753 1.390 . S
C759 C756 1.386 . S
C760 C755 1.490 . S
C760 C762 1.395 1_455 S
C760 C763 1.403 . S
H761 C767 0.930 . S
C762 H748 0.930 . S
C762 C760 1.395 1_655 S
C762 C765 1.403 . S
C763 C760 1.403 . S
C763 C764 1.524 . S
C763 C767 1.400 . S
C764 H749 0.960 . S
C764 H750 0.960 . S
C764 H751 0.960 . S
C764 C763 1.524 . S
C765 C762 1.403 . S
C765 C766 1.392 1_655 S
C765 C769 1.495 . S
C766 C765 1.392 1_455 S
C766 C767 1.385 . S
C766 C768 1.478 . S
C767 H761 0.930 . S
C767 C763 1.400 . S
C767 C766 1.385 . S
C768 C766 1.478 . S
C768 C770 1.381 1_454 S
C768 C774 1.383 1_554 S
C769 C765 1.495 . S
C769 H775 0.959 . S
C769 H776 0.961 . S
C769 H777 0.960 . S
C770 C768 1.381 1_656 S
C770 C771 1.389 1_655 S
C770 H778 0.930 . S
C771 C770 1.389 1_455 S
C771 C772 1.400 . S
C771 H779 0.918 1_455 S
C772 C771 1.400 . S
C772 C773 1.377 . S
C773 H757 0.930 . S
C773 C772 1.377 . S
C773 C774 1.379 . S
C774 H758 0.931 1_556 S
C774 C768 1.383 1_556 S
C774 C773 1.379 . S
H775 C769 0.959 . S
H776 C769 0.961 . S
H777 C769 0.960 . S
H778 C770 0.930 . S
H779 C771 0.918 1_655 S
H780 C788 0.929 . S
H781 C790 0.930 . S
H782 C792 0.930 . S
H783 C795 0.929 . S
H784 C798 0.930 1_565 S
H785 C800 0.960 . S
H786 C800 0.960 . S
H787 C800 0.960 . S
C788 H780 0.929 . S
C788 C789 1.377 . S
C788 C790 1.384 . S
C789 C788 1.377 . S
C789 C795 1.390 . S
C790 H781 0.930 . S
C790 C788 1.384 . S
C790 C791 1.372 . S
C791 C790 1.372 . S
C791 C792 1.400 . S
C791 C796 1.490 . S
C792 H782 0.930 . S
C792 C791 1.400 . S
C792 C795 1.386 . S
H793 C809 0.930 . S
H794 C810 0.931 . S
C795 H783 0.929 . S
C795 C789 1.390 . S
C795 C792 1.386 . S
C796 C791 1.490 . S
C796 C798 1.395 . S
C796 C799 1.403 . S
H797 C803 0.930 . S
C798 H784 0.930 1_545 S
C798 C796 1.395 . S
C798 C801 1.403 . S
C799 C796 1.403 . S
C799 C800 1.524 . S
C799 C803 1.400 . S
C800 H785 0.960 . S
C800 H786 0.960 . S
C800 H787 0.960 . S
C800 C799 1.524 . S
C801 C798 1.403 . S
C801 C802 1.392 . S
C801 C805 1.495 1_545 S
C802 C801 1.392 . S
C802 C803 1.385 . S
C802 C804 1.478 . S
C803 H797 0.930 . S
C803 C799 1.400 . S
C803 C802 1.385 . S
C804 C802 1.478 . S
C804 C806 1.381 . S
C804 C810 1.383 . S
C805 C801 1.495 1_565 S
C805 H811 0.959 . S
C805 H812 0.961 . S
C805 H813 0.960 . S
C806 C804 1.381 . S
C806 C807 1.394 . S
C806 H814 0.930 . S
C807 C806 1.394 . S
C807 C808 1.383 . S
C807 H815 0.929 . S
C808 C807 1.383 . S
C808 C809 1.377 . S
C809 H793 0.930 . S
C809 C808 1.377 . S
C809 C810 1.379 . S
C810 H794 0.931 . S
C810 C804 1.383 . S
C810 C809 1.379 . S
H811 C805 0.959 . S
H812 C805 0.961 . S
H813 C805 0.960 . S
H814 C806 0.930 . S
H815 C807 0.929 . S
H816 C824 0.929 . S
H817 C826 0.930 . S
H818 C828 0.930 . S
H819 C831 0.929 . S
H820 C834 0.930 . S
H821 C836 0.960 . S
H822 C836 0.960 . S
H823 C836 0.960 . S
C824 H816 0.929 . S
C824 C825 1.377 . S
C824 C826 1.384 . S
C825 C824 1.377 . S
C825 C831 1.390 . S
C826 H817 0.930 . S
C826 C824 1.384 . S
C826 C827 1.372 . S
C827 C826 1.372 . S
C827 C828 1.400 . S
C827 C832 1.490 . S
C828 H818 0.930 . S
C828 C827 1.400 . S
C828 C831 1.386 . S
H829 C845 0.930 . S
H830 C846 0.931 . S
C831 H819 0.929 . S
C831 C825 1.390 . S
C831 C828 1.386 . S
C832 C827 1.490 . S
C832 C834 1.395 . S
C832 C835 1.403 . S
H833 C839 0.930 . S
C834 H820 0.930 . S
C834 C832 1.395 . S
C834 C837 1.403 . S
C835 C832 1.403 . S
C835 C836 1.524 . S
C835 C839 1.400 . S
C836 H821 0.960 . S
C836 H822 0.960 . S
C836 H823 0.960 . S
C836 C835 1.524 . S
C837 C834 1.403 . S
C837 C838 1.392 . S
C837 C841 1.495 . S
C838 C837 1.392 . S
C838 C839 1.385 . S
C838 C840 1.478 . S
C839 H833 0.930 . S
C839 C835 1.400 . S
C839 C838 1.385 . S
C840 C838 1.478 . S
C840 C842 1.381 . S
C840 C846 1.383 . S
C841 C837 1.495 . S
C841 H847 0.959 . S
C841 H848 0.961 . S
C841 H849 0.960 . S
C842 C840 1.381 . S
C842 C843 1.394 . S
C842 H850 0.930 . S
C843 C842 1.394 . S
C843 C844 1.383 . S
C843 H851 0.929 . S
C844 C843 1.383 . S
C844 C845 1.377 . S
C845 H829 0.930 . S
C845 C844 1.377 . S
C845 C846 1.379 . S
C846 H830 0.931 . S
C846 C840 1.383 . S
C846 C845 1.379 . S
H847 C841 0.959 . S
H848 C841 0.961 . S
H849 C841 0.960 . S
H850 C842 0.930 . S
H851 C843 0.929 . S
H852 C860 0.929 . S
H853 C862 0.930 . S
H854 C864 0.930 . S
H855 C867 0.929 . S
H856 C870 0.930 1_565 S
H857 C872 0.960 . S
H858 C872 0.960 . S
H859 C872 0.960 . S
C860 H852 0.929 . S
C860 C861 1.377 1_565 S
C860 C862 1.384 . S
C861 C860 1.377 1_545 S
C861 C867 1.390 . S
C862 H853 0.930 . S
C862 C860 1.384 . S
C862 C863 1.372 1_565 S
C863 C862 1.372 1_545 S
C863 C864 1.400 . S
C863 C868 1.490 . S
C864 H854 0.930 . S
C864 C863 1.400 . S
C864 C867 1.386 . S
H865 C881 0.930 . S
H866 C882 0.931 . S
C867 H855 0.929 . S
C867 C861 1.390 . S
C867 C864 1.386 . S
C868 C863 1.490 . S
C868 C870 1.395 . S
C868 C871 1.403 . S
H869 C875 0.930 . S
C870 H856 0.930 1_545 S
C870 C868 1.395 . S
C870 C873 1.404 . S
C871 C868 1.403 . S
C871 C872 1.524 . S
C871 C875 1.400 . S
C872 H857 0.960 . S
C872 H858 0.960 . S
C872 H859 0.960 . S
C872 C871 1.524 . S
C873 C870 1.404 . S
C873 C874 1.403 . S
C873 C877 1.484 1_545 S
C874 C873 1.403 . S
C874 C875 1.385 . S
C874 C876 1.478 . S
C875 H869 0.930 . S
C875 C871 1.400 . S
C875 C874 1.385 . S
C876 C874 1.478 . S
C876 C878 1.381 1_545 S
C876 C882 1.383 . S
C877 C873 1.484 1_565 S
C877 H883 0.959 . S
C877 H884 0.961 1_565 S
C877 H885 0.960 . S
C878 C876 1.381 1_565 S
C878 C879 1.394 . S
C878 H886 0.930 . S
C879 C878 1.394 . S
C879 C880 1.383 1_565 S
C879 H887 0.929 . S
C880 C879 1.383 1_545 S
C880 C881 1.377 . S
C881 H865 0.930 . S
C881 C880 1.377 . S
C881 C882 1.379 . S
C882 H866 0.931 . S
C882 C876 1.383 . S
C882 C881 1.379 . S
H883 C877 0.959 . S
H884 C877 0.961 1_545 S
H885 C877 0.960 . S
H886 C878 0.930 . S
H887 C879 0.929 . S
H888 C896 0.929 . S
H889 C898 0.930 . S
H890 C900 0.930 . S
H891 C903 0.929 . S
H892 C906 0.930 . S
H893 C908 0.960 . S
H894 C908 0.960 . S
H895 C908 0.960 . S
C896 H888 0.929 . S
C896 C897 1.377 . S
C896 C898 1.384 . S
C897 C896 1.377 . S
C897 C903 1.390 . S
C898 H889 0.930 . S
C898 C896 1.384 . S
C898 C899 1.372 . S
C899 C898 1.372 . S
C899 C900 1.400 . S
C899 C904 1.490 . S
C900 H890 0.930 . S
C900 C899 1.400 . S
C900 C903 1.386 . S
H901 C917 0.930 . S
H902 C918 0.931 1_556 S
C903 H891 0.929 . S
C903 C897 1.390 . S
C903 C900 1.386 . S
C904 C899 1.490 . S
C904 C906 1.395 . S
C904 C907 1.403 . S
H905 C911 0.930 . S
C906 H892 0.930 . S
C906 C904 1.395 . S
C906 C909 1.403 . S
C907 C904 1.403 . S
C907 C908 1.524 . S
C907 C911 1.400 . S
C908 H893 0.960 . S
C908 H894 0.960 . S
C908 H895 0.960 . S
C908 C907 1.524 . S
C909 C906 1.403 . S
C909 C910 1.392 . S
C909 C913 1.495 . S
C910 C909 1.392 . S
C910 C911 1.385 . S
C910 C912 1.478 . S
C911 H905 0.930 . S
C911 C907 1.400 . S
C911 C910 1.385 . S
C912 C910 1.478 . S
C912 C914 1.381 1_556 S
C912 C918 1.383 1_556 S
C913 C909 1.495 . S
C913 H919 0.959 . S
C913 H920 0.961 . S
C913 H921 0.960 . S
C914 C912 1.381 1_554 S
C914 C915 1.394 . S
C914 H922 0.929 . S
C915 C914 1.394 . S
C915 C916 1.383 . S
C915 H923 0.929 . S
C916 C915 1.383 . S
C916 C917 1.377 . S
C917 H901 0.930 . S
C917 C916 1.377 . S
C917 C918 1.379 . S
C918 H902 0.931 1_554 S
C918 C912 1.383 1_554 S
C918 C917 1.379 . S
H919 C913 0.959 . S
H920 C913 0.961 . S
H921 C913 0.960 . S
H922 C914 0.929 . S
H923 C915 0.929 . S
H924 C932 0.929 . S
H925 C934 0.930 . S
H926 C936 0.930 . S
H927 C939 0.929 . S
H928 C942 0.930 . S
H929 C944 0.960 . S
H930 C944 0.960 . S
H931 C944 0.960 1_455 S
C932 H924 0.929 . S
C932 C933 1.377 1_655 S
C932 C934 1.384 . S
C933 C932 1.377 1_455 S
C933 C939 1.390 . S
C934 H925 0.930 . S
C934 C932 1.384 . S
C934 C935 1.372 1_655 S
C935 C934 1.372 1_455 S
C935 C936 1.400 . S
C935 C940 1.490 . S
C936 H926 0.930 . S
C936 C935 1.400 . S
C936 C939 1.386 . S
H937 C953 0.930 . S
H938 C954 0.931 . S
C939 H927 0.929 . S
C939 C933 1.390 . S
C939 C936 1.386 . S
C940 C935 1.490 . S
C940 C942 1.395 . S
C940 C943 1.403 1_455 S
H941 C947 0.930 . S
C942 H928 0.930 . S
C942 C940 1.395 . S
C942 C945 1.403 . S
C943 C940 1.403 1_655 S
C943 C944 1.524 . S
C943 C947 1.400 . S
C944 H929 0.960 . S
C944 H930 0.960 . S
C944 H931 0.960 1_655 S
C944 C943 1.524 . S
C945 C942 1.403 . S
C945 C946 1.392 . S
C945 C949 1.495 . S
C946 C945 1.392 . S
C946 C947 1.385 1_455 S
C946 C948 1.478 . S
C947 H941 0.930 . S
C947 C943 1.400 . S
C947 C946 1.385 1_655 S
C948 C946 1.478 . S
C948 C950 1.381 1_455 S
C948 C954 1.383 . S
C949 C945 1.495 . S
C949 H955 0.959 . S
C949 H956 0.961 . S
C949 H957 0.960 . S
C950 C948 1.381 1_655 S
C950 C951 1.394 . S
C950 H958 0.930 . S
C951 C950 1.394 . S
C951 C952 1.383 1_655 S
C951 H959 0.929 . S
C952 C951 1.383 1_455 S
C952 C953 1.377 . S
C953 H937 0.930 . S
C953 C952 1.377 . S
C953 C954 1.379 . S
C954 H938 0.931 . S
C954 C948 1.383 . S
C954 C953 1.379 . S
H955 C949 0.959 . S
H956 C949 0.961 . S
H957 C949 0.960 . S
H958 C950 0.930 . S
H959 C951 0.929 . S
C321 C24 2.813 . S
C340 C303 2.735 . S
C357 C66 1.052 . S
C376 C239 1.039 . S
C393 C93 1.703 . S
C412 C271 1.671 . S
C429 C13 2.988 . S
C448 C297 2.947 . S
C484 C233 1.151 . S
C465 C57 1.197 . S
C520 C265 1.779 . S
C501 C104 1.857 . S
C537 C64 1.868 . S
C556 C175 1.810 . S
C573 C97 0.361 . S
C592 C207 0.326 . S
C609 C17 1.193 . S
C628 C137 1.168 . S
C664 C169 1.676 . S
C645 C53 1.692 . S
C700 C201 0.294 . S
C681 C106 0.338 . S
C717 C26 1.060 . S
C736 C143 1.089 . S
C772 C213 1.076 . S
C753 C2 1.087 . S
C789 C63 1.465 . S
C808 C149 1.458 . S
C825 C82 1.376 . S
C844 C181 1.360 . S
C880 C277 1.348 . S
C861 C42 1.392 . S
C916 C309 1.749 . S
C897 C103 1.719 . S
C933 C23 1.473 . S
C952 C245 1.440 . S
