# Generated by pormake.
# Topology apo, (3,6)-cn, num edge types: 1
# Building blocks:
#     Node 0, Type 0, BuildingBlock: KAKCAD_clean_linker_0, # of connection points: 3
#     Node 1, Type 0, BuildingBlock: KAKCAD_clean_linker_0, # of connection points: 3
#     Node 2, Type 0, BuildingBlock: KAKCAD_clean_linker_0, # of connection points: 3
#     Node 3, Type 0, BuildingBlock: KAKCAD_clean_linker_0, # of connection points: 3
#     Node 4, Type 0, BuildingBlock: KAKCAD_clean_linker_0, # of connection points: 3
#     Node 5, Type 0, BuildingBlock: KAKCAD_clean_linker_0, # of connection points: 3
#     Node 6, Type 0, BuildingBlock: KAKCAD_clean_linker_0, # of connection points: 3
#     Node 7, Type 0, BuildingBlock: KAKCAD_clean_linker_0, # of connection points: 3
#     Node 8, Type 1, BuildingBlock: KUMBOL_clean_sbu_1, # of connection points: 6
#     Node 9, Type 1, BuildingBlock: KUMBOL_clean_sbu_1, # of connection points: 6
#     Node 10, Type 1, BuildingBlock: KUMBOL_clean_sbu_1, # of connection points: 6
#     Node 11, Type 1, BuildingBlock: KUMBOL_clean_sbu_1, # of connection points: 6
#     Edge 12, Type (0, 1), BuildingBlock: OJICUG_clean_linker_0, # of connection points: 2
#     Edge 13, Type (0, 1), BuildingBlock: OJICUG_clean_linker_0, # of connection points: 2
#     Edge 14, Type (0, 1), BuildingBlock: OJICUG_clean_linker_0, # of connection points: 2
#     Edge 15, Type (0, 1), BuildingBlock: OJICUG_clean_linker_0, # of connection points: 2
#     Edge 16, Type (0, 1), BuildingBlock: OJICUG_clean_linker_0, # of connection points: 2
#     Edge 17, Type (0, 1), BuildingBlock: OJICUG_clean_linker_0, # of connection points: 2
#     Edge 18, Type (0, 1), BuildingBlock: OJICUG_clean_linker_0, # of connection points: 2
#     Edge 19, Type (0, 1), BuildingBlock: OJICUG_clean_linker_0, # of connection points: 2
#     Edge 20, Type (0, 1), BuildingBlock: OJICUG_clean_linker_0, # of connection points: 2
#     Edge 21, Type (0, 1), BuildingBlock: OJICUG_clean_linker_0, # of connection points: 2
#     Edge 22, Type (0, 1), BuildingBlock: OJICUG_clean_linker_0, # of connection points: 2
#     Edge 23, Type (0, 1), BuildingBlock: OJICUG_clean_linker_0, # of connection points: 2
#     Edge 24, Type (0, 1), BuildingBlock: OJICUG_clean_linker_0, # of connection points: 2
#     Edge 25, Type (0, 1), BuildingBlock: OJICUG_clean_linker_0, # of connection points: 2
#     Edge 26, Type (0, 1), BuildingBlock: OJICUG_clean_linker_0, # of connection points: 2
#     Edge 27, Type (0, 1), BuildingBlock: OJICUG_clean_linker_0, # of connection points: 2
#     Edge 28, Type (0, 1), BuildingBlock: OJICUG_clean_linker_0, # of connection points: 2
#     Edge 29, Type (0, 1), BuildingBlock: OJICUG_clean_linker_0, # of connection points: 2
#     Edge 30, Type (0, 1), BuildingBlock: OJICUG_clean_linker_0, # of connection points: 2
#     Edge 31, Type (0, 1), BuildingBlock: OJICUG_clean_linker_0, # of connection points: 2
#     Edge 32, Type (0, 1), BuildingBlock: OJICUG_clean_linker_0, # of connection points: 2
#     Edge 33, Type (0, 1), BuildingBlock: OJICUG_clean_linker_0, # of connection points: 2
#     Edge 34, Type (0, 1), BuildingBlock: OJICUG_clean_linker_0, # of connection points: 2
#     Edge 35, Type (0, 1), BuildingBlock: OJICUG_clean_linker_0, # of connection points: 2
# Relax obj value: 0.008
# Max RMSD: 0.113
# Mean RMSD: 0.086
data_MOF--net-apo--node1-KUMBOL_clean_sbu_1--node2-KAKCAD_clean_linker_0--edge1-OJICUG_clean_linker_0
_symmetry_space_group_name_H-M    P1
_symmetry_Int_Tables_number       1
_symmetry_cell_setting            triclinic
loop_
_symmetry_equiv_pos_as_xyz
'x, y, z'
_cell_length_a     23.144667
_cell_length_b     40.668884
_cell_length_c     52.090167
_cell_angle_alpha  89.936003
_cell_angle_beta   89.984106
_cell_angle_gamma 90.42314
loop_
_atom_site_label
_atom_site_type_symbol
_atom_site_fract_x
_atom_site_fract_y
_atom_site_fract_z
_atom_type_partial_charge
C0 C 0.29258 0.48283 0.34082 0.0
C1 C 0.34831 0.49521 0.34577 0.0
C2 C 0.26981 0.45694 0.35551 0.0
C3 C 0.30261 0.44261 0.37527 0.0
C4 C 0.35831 0.4553 0.38024 0.0
C5 C 0.38069 0.48144 0.36579 0.0
C6 C 0.27959 0.41419 0.3904 0.0
C7 C 0.24833 0.38872 0.37842 0.0
C8 C 0.22842 0.3611 0.39241 0.0
C9 C 0.24237 0.35895 0.41875 0.0
C10 C 0.2754 0.38368 0.43089 0.0
C11 C 0.29154 0.4117 0.41671 0.0
C12 C 0.29661 0.37969 0.45782 0.0
C13 C 0.2629 0.36401 0.47678 0.0
C14 C 0.35201 0.39132 0.46462 0.0
C15 C 0.3726 0.38814 0.48967 0.0
C16 C 0.33886 0.37278 0.50864 0.0
C17 C 0.19583 0.33402 0.37905 0.0
C18 C 0.16046 0.34093 0.35772 0.0
C19 C 0.20132 0.30089 0.38673 0.0
C20 C 0.17411 0.27557 0.37295 0.0
C21 C 0.14093 0.28262 0.35109 0.0
C22 C 0.13375 0.31562 0.34387 0.0
C23 C 0.28389 0.36049 0.50188 0.0
H24 H 0.26662 0.49322 0.32558 0.0
H25 H 0.2265 0.44818 0.35141 0.0
H26 H 0.38533 0.44453 0.39494 0.0
H27 H 0.42408 0.49023 0.36975 0.0
H28 H 0.24157 0.3899 0.35788 0.0
H29 H 0.31421 0.43168 0.42617 0.0
H30 H 0.22872 0.33769 0.42972 0.0
H31 H 0.21982 0.35507 0.47245 0.0
H32 H 0.38008 0.40275 0.45052 0.0
H33 H 0.41518 0.39773 0.49419 0.0
H34 H 0.15358 0.36597 0.35143 0.0
H35 H 0.2282 0.29417 0.40286 0.0
H36 H 0.25627 0.34912 0.5162 0.0
H37 H 0.10867 0.32189 0.32703 0.0
H38 H 0.1797 0.25038 0.37922 0.0
C39 C 0.21422 0.01461 0.84321 0.0
C40 C 0.15591 0.00551 0.84642 0.0
C41 C 0.23811 0.04054 0.85749 0.0
C42 C 0.20436 0.05751 0.87552 0.0
C43 C 0.14647 0.04776 0.87912 0.0
C44 C 0.1225 0.02217 0.86468 0.0
C45 C 0.22857 0.08567 0.89037 0.0
C46 C 0.26015 0.11078 0.87812 0.0
C47 C 0.28065 0.13855 0.89181 0.0
C48 C 0.26665 0.14095 0.91821 0.0
C49 C 0.23278 0.11663 0.9305 0.0
C50 C 0.21635 0.08854 0.91657 0.0
C51 C 0.21093 0.12103 0.9573 0.0
C52 C 0.24449 0.1365 0.97642 0.0
C53 C 0.15526 0.10952 0.96393 0.0
C54 C 0.13477 0.11198 0.98903 0.0
C55 C 0.1686 0.12684 0.00809 0.0
C56 C 0.31366 0.1655 0.87811 0.0
C57 C 0.34402 0.1589 0.85523 0.0
C58 C 0.31379 0.19829 0.88704 0.0
C59 C 0.34187 0.22342 0.87329 0.0
C60 C 0.36935 0.21692 0.84974 0.0
C61 C 0.37022 0.18415 0.84109 0.0
C62 C 0.22333 0.13953 1.00155 0.0
H63 H 0.24091 0.00225 0.82918 0.0
H64 H 0.28294 0.04733 0.85445 0.0
H65 H 0.11918 0.06046 0.89273 0.0
H66 H 0.07763 0.01548 0.86773 0.0
H67 H 0.26625 0.10905 0.85759 0.0
H68 H 0.19288 0.06883 0.92605 0.0
H69 H 0.28072 0.16203 0.9292 0.0
H70 H 0.28769 0.14537 0.97223 0.0
H71 H 0.12722 0.09834 0.94972 0.0
H72 H 0.09264 0.10182 0.99368 0.0
H73 H 0.3475 0.13418 0.84781 0.0
H74 H 0.29101 0.20514 0.90431 0.0
H75 H 0.25072 0.15048 0.01613 0.0
H76 H 0.38999 0.17778 0.82296 0.0
H77 H 0.34129 0.24806 0.88111 0.0
C78 C 0.7961 0.02032 0.6696 0.0
C79 C 0.8529 0.00962 0.66556 0.0
C80 C 0.77382 0.04608 0.65501 0.0
C81 C 0.80792 0.06135 0.63607 0.0
C82 C 0.86436 0.05013 0.63174 0.0
C83 C 0.88657 0.02447 0.64631 0.0
C84 C 0.78524 0.08916 0.62093 0.0
C85 C 0.75494 0.11458 0.63283 0.0
C86 C 0.73462 0.14161 0.61865 0.0
C87 C 0.74817 0.14353 0.5922 0.0
C88 C 0.78012 0.11837 0.58017 0.0
C89 C 0.79617 0.09085 0.59462 0.0
C90 C 0.79907 0.12054 0.55286 0.0
C91 C 0.76352 0.13441 0.53392 0.0
C92 C 0.85342 0.10805 0.54551 0.0
C93 C 0.87145 0.10912 0.51996 0.0
C94 C 0.83601 0.12311 0.5013 0.0
C95 C 0.70163 0.16794 0.63218 0.0
C96 C 0.66566 0.15989 0.65314 0.0
C97 C 0.70829 0.20131 0.62554 0.0
C98 C 0.68227 0.2259 0.6403 0.0
C99 C 0.64935 0.21775 0.66217 0.0
C100 C 0.64034 0.1844 0.66803 0.0
C101 C 0.78202 0.1358 0.50836 0.0
H102 H 0.76945 0.00934 0.68445 0.0
H103 H 0.72999 0.05406 0.65853 0.0
H104 H 0.89183 0.06162 0.61741 0.0
H105 H 0.93031 0.01638 0.64264 0.0
H106 H 0.74883 0.11366 0.65344 0.0
H107 H 0.81782 0.0705 0.58539 0.0
H108 H 0.73456 0.1646 0.58111 0.0
H109 H 0.72139 0.14401 0.53875 0.0
H110 H 0.88279 0.09793 0.55957 0.0
H111 H 0.91368 0.0998 0.51488 0.0
H112 H 0.65756 0.1345 0.65839 0.0
H113 H 0.73558 0.20867 0.60964 0.0
H114 H 0.75452 0.14719 0.49411 0.0
H115 H 0.61386 0.17717 0.68426 0.0
H116 H 0.69002 0.25136 0.63518 0.0
C117 C 0.70779 0.47989 0.17178 0.0
C118 C 0.65209 0.49193 0.16704 0.0
C119 C 0.72993 0.45425 0.15696 0.0
C120 C 0.69651 0.43999 0.13731 0.0
C121 C 0.64089 0.45228 0.13254 0.0
C122 C 0.61907 0.4781 0.14715 0.0
C123 C 0.71907 0.4121 0.12197 0.0
C124 C 0.74915 0.38648 0.13384 0.0
C125 C 0.77076 0.35979 0.11958 0.0
C126 C 0.75846 0.35836 0.09302 0.0
C127 C 0.72622 0.3834 0.081 0.0
C128 C 0.70882 0.41059 0.09556 0.0
C129 C 0.70837 0.38125 0.05354 0.0
C130 C 0.74537 0.36834 0.03471 0.0
C131 C 0.65344 0.39257 0.04597 0.0
C132 C 0.63612 0.39125 0.02033 0.0
C133 C 0.67319 0.37852 1.00172 0.0
C134 C 0.8043 0.33345 0.13304 0.0
C135 C 0.83691 0.34122 0.15506 0.0
C136 C 0.80212 0.30034 0.12512 0.0
C137 C 0.82944 0.27574 0.13953 0.0
C138 C 0.85856 0.28345 0.16256 0.0
C139 C 0.86241 0.31669 0.16981 0.0
C140 C 0.72785 0.367 0.009 0.0
H141 H 0.73427 0.49046 0.18685 0.0
H142 H 0.77328 0.44569 0.16081 0.0
H143 H 0.61366 0.4415 0.11783 0.0
H144 H 0.57574 0.48674 0.14333 0.0
H145 H 0.75412 0.38706 0.15449 0.0
H146 H 0.6869 0.43083 0.08627 0.0
H147 H 0.77319 0.33772 0.08176 0.0
H148 H 0.78794 0.35956 0.03975 0.0
H149 H 0.62314 0.40198 0.05994 0.0
H150 H 0.59348 0.39976 0.01507 0.0
H151 H 0.84205 0.36639 0.16142 0.0
H152 H 0.77786 0.29305 0.10829 0.0
H153 H 0.75661 0.35653 0.99482 0.0
H154 H 0.88361 0.32407 0.18741 0.0
H155 H 0.82682 0.25064 0.13274 0.0
C156 C 0.65846 0.5401 0.67276 0.0
C157 C 0.6592 0.5077 0.66357 0.0
C158 C 0.68106 0.56572 0.65806 0.0
C159 C 0.70518 0.55959 0.6338 0.0
C160 C 0.70492 0.52723 0.62427 0.0
C161 C 0.68203 0.50147 0.63905 0.0
C162 C 0.72943 0.58733 0.61861 0.0
C163 C 0.76216 0.61187 0.63079 0.0
C164 C 0.779 0.6407 0.61777 0.0
C165 C 0.76584 0.6436 0.59142 0.0
C166 C 0.7347 0.61853 0.57858 0.0
C167 C 0.71633 0.5907 0.59253 0.0
C168 C 0.71761 0.62168 0.55108 0.0
C169 C 0.69837 0.65175 0.54094 0.0
C170 C 0.71648 0.59377 0.53521 0.0
C171 C 0.69438 0.59546 0.51035 0.0
C172 C 0.67222 0.62511 0.50051 0.0
C173 C 0.80702 0.66807 0.63252 0.0
C174 C 0.78979 0.67426 0.65797 0.0
C175 C 0.85091 0.68795 0.62183 0.0
C176 C 0.87788 0.71264 0.63653 0.0
C177 C 0.86158 0.71805 0.66228 0.0
C178 C 0.8166 0.69871 0.67257 0.0
C179 C 0.67584 0.65344 0.51599 0.0
H180 H 0.63976 0.54573 0.6913 0.0
H181 H 0.67905 0.59049 0.66562 0.0
H182 H 0.72319 0.52179 0.60562 0.0
H183 H 0.68311 0.47665 0.63152 0.0
H184 H 0.77374 0.60863 0.65078 0.0
H185 H 0.6893 0.57225 0.58339 0.0
H186 H 0.77866 0.66557 0.58106 0.0
H187 H 0.69851 0.67375 0.55261 0.0
H188 H 0.7324 0.57036 0.54207 0.0
H189 H 0.6952 0.57334 0.49882 0.0
H190 H 0.75486 0.66038 0.66673 0.0
H191 H 0.86541 0.68396 0.60233 0.0
H192 H 0.65982 0.6768 0.50918 0.0
H193 H 0.80123 0.70266 0.69194 0.0
H194 H 0.91238 0.72694 0.62787 0.0
C195 C 0.77501 0.86358 0.00736 0.0
C196 C 0.8336 0.86937 1.00127 0.0
C197 C 0.75503 0.86738 0.03253 0.0
C198 C 0.79301 0.87755 0.05198 0.0
C199 C 0.85133 0.88336 0.04595 0.0
C200 C 0.87145 0.87916 0.02096 0.0
C201 C 0.77234 0.88283 0.07853 0.0
C202 C 0.73987 0.85857 0.09146 0.0
C203 C 0.72377 0.86277 0.11739 0.0
C204 C 0.74052 0.89227 0.12979 0.0
C205 C 0.77488 0.91606 0.11736 0.0
C206 C 0.7891 0.91146 0.09154 0.0
C207 C 0.79931 0.94456 0.13177 0.0
C208 C 0.76664 0.96073 0.15046 0.0
C209 C 0.85656 0.955 0.12757 0.0
C210 C 0.8811 0.98022 0.14225 0.0
C211 C 0.84895 0.99634 0.16148 0.0
C212 C 0.69343 0.8358 0.13212 0.0
C213 C 0.65922 0.81153 0.11985 0.0
C214 C 0.69969 0.83365 0.15896 0.0
C215 C 0.67249 0.80889 0.17299 0.0
C216 C 0.64051 0.78392 0.16078 0.0
C217 C 0.63369 0.78573 0.13396 0.0
C218 C 0.79064 0.98639 0.1648 0.0
H219 H 0.74412 0.85694 0.99261 0.0
H220 H 0.70967 0.8632 0.03665 0.0
H221 H 0.88166 0.89097 0.06067 0.0
H222 H 0.91684 0.88355 0.01715 0.0
H223 H 0.72996 0.83588 0.0815 0.0
H224 H 0.81394 0.93016 0.08149 0.0
H225 H 0.72841 0.89662 0.1495 0.0
H226 H 0.72204 0.95381 0.15392 0.0
H227 H 0.88341 0.94288 0.11347 0.0
H228 H 0.9259 0.98601 0.13861 0.0
H229 H 0.65199 0.81219 0.09935 0.0
H230 H 0.72671 0.85057 0.16959 0.0
H231 H 0.76216 0.99817 0.17826 0.0
H232 H 0.60952 0.76698 0.12374 0.0
H233 H 0.6774 0.80931 0.19365 0.0
C234 C 0.15577 0.95898 0.33305 0.0
C235 C 0.15222 0.99116 0.34282 0.0
C236 C 0.17797 0.93356 0.34795 0.0
C237 C 0.19861 0.9396 0.37287 0.0
C238 C 0.19588 0.97174 0.38266 0.0
C239 C 0.1727 0.99719 0.36787 0.0
C240 C 0.22176 0.9121 0.38853 0.0
C241 C 0.25503 0.88763 0.37694 0.0
C242 C 0.27095 0.85909 0.39035 0.0
C243 C 0.25769 0.85688 0.41674 0.0
C244 C 0.22654 0.88208 0.42917 0.0
C245 C 0.20776 0.90913 0.41459 0.0
C246 C 0.21053 0.87982 0.45694 0.0
C247 C 0.19755 0.84936 0.46842 0.0
C248 C 0.20559 0.90848 0.47199 0.0
C249 C 0.18604 0.90685 0.49737 0.0
C250 C 0.17187 0.87644 0.50863 0.0
C251 C 0.29819 0.83133 0.37602 0.0
C252 C 0.28281 0.8256 0.35019 0.0
C253 C 0.33916 0.81043 0.38751 0.0
C254 C 0.36477 0.7851 0.37327 0.0
C255 C 0.34959 0.78028 0.34745 0.0
C256 C 0.30856 0.80063 0.33609 0.0
C257 C 0.17905 0.84769 0.49393 0.0
H258 H 0.14175 0.95321 0.31376 0.0
H259 H 0.17839 0.90899 0.33994 0.0
H260 H 0.21178 0.97726 0.40174 0.0
H261 H 0.17012 0.02143 0.37632 0.0
H262 H 0.26783 0.89074 0.35708 0.0
H263 H 0.18011 0.9274 0.42326 0.0
H264 H 0.2707 0.83536 0.42743 0.0
H265 H 0.20032 0.8267 0.45763 0.0
H266 H 0.2166 0.93239 0.46416 0.0
H267 H 0.18142 0.92952 0.50802 0.0
H268 H 0.25032 0.84024 0.3407 0.0
H269 H 0.35234 0.81396 0.40725 0.0
H270 H 0.17058 0.82365 0.50213 0.0
H271 H 0.29657 0.79727 0.31614 0.0
H272 H 0.39653 0.76945 0.38232 0.0
C273 C 0.27815 0.63288 1.00021 0.0
C274 C 0.33431 0.62339 0.00714 0.0
C275 C 0.26037 0.63168 0.97452 0.0
C276 C 0.29857 0.62095 0.95537 0.0
C277 C 0.3548 0.61142 0.96254 0.0
C278 C 0.37246 0.61264 0.98817 0.0
C279 C 0.27991 0.61812 0.92811 0.0
C280 C 0.24984 0.64353 0.91543 0.0
C281 C 0.23584 0.6408 0.88905 0.0
C282 C 0.25175 0.61183 0.87595 0.0
C283 C 0.28268 0.58674 0.88823 0.0
C284 C 0.29514 0.58986 0.91438 0.0
C285 C 0.30551 0.55827 0.87346 0.0
C286 C 0.27297 0.54348 0.85372 0.0
C287 C 0.36146 0.54646 0.87845 0.0
C288 C 0.38471 0.52112 0.86373 0.0
C289 C 0.35259 0.50692 0.84373 0.0
C290 C 0.20735 0.66826 0.87449 0.0
C291 C 0.16691 0.68944 0.88604 0.0
C292 C 0.22007 0.67311 0.84827 0.0
C293 C 0.19166 0.69692 0.83382 0.0
C294 C 0.15054 0.71751 0.8451 0.0
C295 C 0.13915 0.71394 0.87155 0.0
C296 C 0.29623 0.51796 0.83907 0.0
H297 H 0.24841 0.64173 0.01467 0.0
H298 H 0.21673 0.63885 0.96966 0.0
H299 H 0.38555 0.60343 0.9482 0.0
H300 H 0.41628 0.6059 0.9931 0.0
H301 H 0.2397 0.66579 0.92582 0.0
H302 H 0.31718 0.57006 0.92419 0.0
H303 H 0.24129 0.60896 0.85585 0.0
H304 H 0.22959 0.5517 0.84952 0.0
H305 H 0.38817 0.55743 0.89325 0.0
H306 H 0.42816 0.51284 0.86779 0.0
H307 H 0.15573 0.68673 0.90612 0.0
H308 H 0.25265 0.65869 0.83867 0.0
H309 H 0.27078 0.50744 0.82363 0.0
H310 H 0.10791 0.72961 0.8809 0.0
H311 H 0.20287 0.69961 0.81374 0.0
C312 C 0.80542 0.1164 0.26775 0.0
C313 C 0.79737 0.05887 0.27992 0.0
C314 C 0.83035 0.08808 0.27763 0.0
C315 C 0.73952 0.05843 0.27176 0.0
C316 C 0.74724 0.11606 0.25968 0.0
C317 C 0.71459 0.0869 0.26161 0.0
N318 N 0.8382 0.14418 0.26585 0.0
C319 C 0.81492 0.17275 0.25694 0.0
C320 C 0.72354 0.14507 0.24993 0.0
C321 C 0.75745 0.17358 0.24871 0.0
Gd322 Gd 0.07076 0.13744 0.23116 0.0
Gd323 Gd 0.93334 0.14009 0.28099 0.0
N324 N 0.88733 0.08874 0.28409 0.0
C325 C 0.82385 0.03086 0.29 0.0
C326 C 0.91233 0.0621 0.29522 0.0
C327 C 0.88141 0.03261 0.29796 0.0
H328 H 0.95533 0.06385 0.3028 0.0
H329 H 0.90174 0.0114 0.30656 0.0
H330 H 0.05516 0.21252 0.20741 0.0
H331 H 0.84011 0.19518 0.25668 0.0
H332 H 0.11105 0.26441 0.20395 0.0
H333 H 0.80005 0.00797 0.29207 0.0
H334 H 0.71373 0.03615 0.27316 0.0
H335 H 0.16059 0.08075 0.25549 0.0
H336 H 0.679 0.14582 0.24355 0.0
H337 H 0.73921 0.19627 0.24162 0.0
H338 H 0.29401 0.23829 0.24193 0.0
H339 H 0.66992 0.08616 0.25539 0.0
H340 H 0.32306 0.12767 0.27067 0.0
H341 H 0.26094 0.07791 0.27122 0.0
N342 N 0.16451 0.13207 0.24774 0.0
C343 C 0.19809 0.15963 0.24701 0.0
C344 C 0.18649 0.10291 0.25609 0.0
C345 C 0.2786 0.12925 0.2643 0.0
C346 C 0.24364 0.10111 0.26468 0.0
C347 C 0.25614 0.15894 0.25523 0.0
H348 H 0.33493 0.1875 0.25977 0.0
N349 N 0.11893 0.18813 0.22908 0.0
C350 C 0.17473 0.18846 0.2373 0.0
C351 C 0.18533 0.24494 0.22355 0.0
C352 C 0.20923 0.21705 0.23506 0.0
C353 C 0.09671 0.21446 0.21648 0.0
C354 C 0.12904 0.24348 0.21391 0.0
O355 O 0.91901 0.11224 0.24375 0.0
O356 O 0.00936 0.09439 0.23187 0.0
O357 O 0.06998 0.14479 0.18874 0.0
O358 O 0.12474 0.10836 0.20733 0.0
O359 O 0.0161 0.11508 0.29369 0.0
O360 O 0.05529 0.09345 0.25662 0.0
O361 O 0.08354 0.16458 0.26921 0.0
O362 O 0.99266 0.18367 0.27764 0.0
O363 O 0.93793 0.13366 0.32311 0.0
O364 O 0.87674 0.16763 0.30532 0.0
O365 O 0.98956 0.16354 0.218 0.0
O366 O 0.94405 0.18381 0.2544 0.0
C367 C 0.95313 0.09488 0.22884 0.0
C368 C 0.0502 0.09439 0.28171 0.0
C369 C 0.14255 0.11531 0.16245 0.0
C370 C 0.15533 0.11415 0.11575 0.0
C371 C 0.22825 0.09074 0.14367 0.0
C372 C 0.19546 0.09877 0.16506 0.0
C373 C 0.20875 0.09865 0.11929 0.0
C374 C 0.12217 0.12298 0.13747 0.0
C375 C 0.10753 0.12128 0.18584 0.0
C376 C 0.26685 0.21656 0.24352 0.0
C377 C 0.29019 0.18761 0.25363 0.0
H378 H 0.21057 0.2673 0.22122 0.0
C379 C 0.04812 0.18336 0.28239 0.0
C380 C 0.95243 0.18313 0.22935 0.0
C381 C 0.87148 0.16404 0.3515 0.0
C382 C 0.86166 0.15875 0.39802 0.0
C383 C 0.80338 0.19816 0.37473 0.0
C384 C 0.82925 0.18874 0.35187 0.0
C385 C 0.81934 0.18332 0.39761 0.0
C386 C 0.88753 0.14868 0.3748 0.0
C387 C 0.89568 0.15432 0.32637 0.0
H388 H 0.26888 0.07809 0.14598 0.0
H389 H 0.21174 0.0917 0.18374 0.0
H390 H 0.23528 0.09212 0.10294 0.0
H391 H 0.08068 0.13475 0.13495 0.0
H392 H 0.77069 0.21704 0.37471 0.0
H393 H 0.81564 0.20081 0.33437 0.0
H394 H 0.79824 0.19098 0.41517 0.0
H395 H 0.91961 0.1294 0.37493 0.0
C396 C 0.70352 0.38413 0.76554 0.0
C397 C 0.71526 0.44096 0.77901 0.0
C398 C 0.6811 0.41226 0.77665 0.0
C399 C 0.77198 0.44122 0.76944 0.0
C400 C 0.76117 0.38396 0.75671 0.0
C401 C 0.79492 0.41276 0.75836 0.0
N402 N 0.66973 0.35661 0.76432 0.0
C403 C 0.69255 0.32758 0.75611 0.0
C404 C 0.78366 0.35463 0.74707 0.0
C405 C 0.7494 0.32624 0.74706 0.0
Gd406 Gd 0.43594 0.36222 0.73102 0.0
Gd407 Gd 0.57548 0.36156 0.78117 0.0
N408 N 0.62562 0.4115 0.78522 0.0
C409 C 0.6914 0.46844 0.79112 0.0
C410 C 0.60361 0.43728 0.79858 0.0
C411 C 0.63556 0.46641 0.80127 0.0
H412 H 0.56192 0.43498 0.8076 0.0
H413 H 0.61743 0.4871 0.81146 0.0
H414 H 0.46086 0.28414 0.71337 0.0
H415 H 0.66787 0.3051 0.75732 0.0
H416 H 0.40505 0.23254 0.70917 0.0
H417 H 0.71612 0.491 0.79326 0.0
H418 H 0.79873 0.46312 0.77086 0.0
H419 H 0.3435 0.41879 0.75344 0.0
H420 H 0.82784 0.35343 0.74026 0.0
H421 H 0.76706 0.30317 0.74048 0.0
H422 H 0.21678 0.2594 0.74102 0.0
H423 H 0.83914 0.41313 0.75151 0.0
H424 H 0.18206 0.37017 0.76756 0.0
H425 H 0.24205 0.42075 0.76788 0.0
N426 N 0.34223 0.36716 0.74702 0.0
C427 C 0.30991 0.33911 0.74622 0.0
C428 C 0.31844 0.39632 0.75423 0.0
C429 C 0.22698 0.369 0.76178 0.0
C430 C 0.26072 0.3976 0.76204 0.0
C431 C 0.25119 0.33937 0.75352 0.0
H432 H 0.17298 0.31015 0.75729 0.0
N433 N 0.39199 0.3104 0.73047 0.0
C434 C 0.3352 0.31011 0.73747 0.0
C435 C 0.32737 0.25296 0.72518 0.0
C436 C 0.3016 0.28117 0.73527 0.0
C437 C 0.41705 0.28319 0.72025 0.0
C438 C 0.38522 0.25403 0.71753 0.0
O439 O 0.58164 0.40043 0.75029 0.0
O440 O 0.50778 0.39586 0.72001 0.0
O441 O 0.42127 0.3494 0.69041 0.0
O442 O 0.38493 0.39422 0.70728 0.0
O443 O 0.49273 0.38737 0.79265 0.0
O444 O 0.44931 0.40742 0.75551 0.0
O445 O 0.42506 0.33835 0.77041 0.0
O446 O 0.51582 0.31826 0.77629 0.0
O447 O 0.56501 0.36501 0.82336 0.0
O448 O 0.63426 0.33624 0.80594 0.0
O449 O 0.51831 0.3385 0.71761 0.0
O450 O 0.56694 0.31879 0.75331 0.0
C451 C 0.55663 0.40814 0.72845 0.0
C452 C 0.46064 0.40885 0.78027 0.0
C453 C 0.36253 0.38488 0.66251 0.0
C454 C 0.3549 0.3849 0.61569 0.0
C455 C 0.28691 0.41592 0.64139 0.0
C456 C 0.31473 0.40591 0.66366 0.0
C457 C 0.30668 0.40549 0.61763 0.0
C458 C 0.38268 0.37402 0.63828 0.0
C459 C 0.39087 0.37592 0.68693 0.0
C460 C 0.24318 0.28142 0.74261 0.0
C461 C 0.21818 0.31035 0.75185 0.0
H462 H 0.30275 0.23039 0.72283 0.0
C463 C 0.46117 0.31895 0.78254 0.0
C464 C 0.55655 0.31916 0.72837 0.0
C465 C 0.63346 0.33653 0.85214 0.0
C466 C 0.64451 0.34251 0.89851 0.0
C467 C 0.69787 0.3005 0.87578 0.0
C468 C 0.67299 0.31041 0.85279 0.0
C469 C 0.68374 0.31636 0.89847 0.0
C470 C 0.61935 0.35288 0.87522 0.0
C471 C 0.61061 0.34689 0.82692 0.0
H472 H 0.25002 0.43204 0.64254 0.0
H473 H 0.29852 0.41465 0.68191 0.0
H474 H 0.28439 0.41378 0.60053 0.0
H475 H 0.42005 0.35819 0.63698 0.0
H476 H 0.72846 0.2805 0.87599 0.0
H477 H 0.68512 0.29758 0.83542 0.0
H478 H 0.70402 0.30839 0.91615 0.0
H479 H 0.58974 0.37341 0.87508 0.0
C480 C 0.80892 0.83872 0.76465 0.0
C481 C 0.79987 0.78099 0.77602 0.0
C482 C 0.83328 0.81005 0.77414 0.0
C483 C 0.74242 0.78081 0.76733 0.0
C484 C 0.75045 0.83887 0.75684 0.0
C485 C 0.71783 0.80966 0.75772 0.0
N486 N 0.84092 0.86688 0.7648 0.0
C487 C 0.81516 0.89641 0.75953 0.0
C488 C 0.72566 0.86866 0.74935 0.0
C489 C 0.75796 0.89762 0.75108 0.0
Gd490 Gd 0.07662 0.86401 0.72919 0.0
Gd491 Gd 0.93738 0.8615 0.77936 0.0
N492 N 0.88867 0.81098 0.78283 0.0
C493 C 0.82459 0.75322 0.78736 0.0
C494 C 0.91189 0.78457 0.7952 0.0
C495 C 0.88062 0.75514 0.79724 0.0
H496 H 0.95481 0.78624 0.8032 0.0
H497 H 0.89955 0.73403 0.8066 0.0
H498 H 0.07224 0.93855 0.69939 0.0
H499 H 0.83885 0.91927 0.76176 0.0
H500 H 0.12789 0.98992 0.69877 0.0
H501 H 0.80024 0.73048 0.78921 0.0
H502 H 0.71618 0.75869 0.76857 0.0
H503 H 0.16558 0.80658 0.7533 0.0
H504 H 0.68101 0.86974 0.74317 0.0
H505 H 0.7386 0.92098 0.74626 0.0
H506 H 0.30208 0.96366 0.74335 0.0
H507 H 0.67298 0.80935 0.75174 0.0
H508 H 0.32686 0.85271 0.77154 0.0
H509 H 0.26447 0.80315 0.77031 0.0
N510 N 0.16994 0.85817 0.74643 0.0
C511 C 0.20418 0.88552 0.74622 0.0
C512 C 0.19132 0.82873 0.75454 0.0
C513 C 0.28292 0.85457 0.76453 0.0
C514 C 0.2478 0.82655 0.76389 0.0
C515 C 0.2615 0.88448 0.75546 0.0
H516 H 0.3402 0.91258 0.76174 0.0
N517 N 0.12893 0.91396 0.72523 0.0
C518 C 0.18281 0.91432 0.73563 0.0
C519 C 0.19696 0.97067 0.72183 0.0
C520 C 0.21818 0.94276 0.73425 0.0
C521 C 0.11075 0.94013 0.71091 0.0
C522 C 0.14338 0.96912 0.7097 0.0
O523 O 0.94752 0.81842 0.75236 0.0
O524 O 0.98751 0.84525 0.71802 0.0
O525 O 0.08945 0.87416 0.68842 0.0
O526 O 0.11948 0.82788 0.70509 0.0
O527 O 0.02446 0.84231 0.7911 0.0
O528 O 0.06346 0.81878 0.75475 0.0
O529 O 0.08898 0.88707 0.76815 0.0
O530 O 0.99725 0.90597 0.77656 0.0
O531 O 0.93842 0.85378 0.82169 0.0
O532 O 0.88759 0.89244 0.80364 0.0
O533 O 0.01134 0.90382 0.72291 0.0
O534 O 0.92492 0.89367 0.74471 0.0
C535 C 0.96052 0.81967 0.72783 0.0
C536 C 0.05329 0.81873 0.77978 0.0
C537 C 0.13834 0.83651 0.65942 0.0
C538 C 0.14658 0.84318 0.61291 0.0
C539 C 0.19791 0.79934 0.63458 0.0
C540 C 0.17555 0.80947 0.65805 0.0
C541 C 0.18334 0.81593 0.61217 0.0
C542 C 0.12433 0.8538 0.63666 0.0
C543 C 0.1159 0.84652 0.68476 0.0
C544 C 0.27442 0.94207 0.74428 0.0
C545 C 0.29614 0.91297 0.75472 0.0
H546 H 0.22271 0.99296 0.72042 0.0
C547 C 0.05349 0.90662 0.78045 0.0
C548 C 0.95654 0.90935 0.72767 0.0
C549 C 0.8767 0.88885 0.84923 0.0
C550 C 0.864 0.88578 0.89557 0.0
C551 C 0.80985 0.92552 0.87085 0.0
C552 C 0.83602 0.91445 0.84851 0.0
C553 C 0.82369 0.91132 0.89423 0.0
C554 C 0.89064 0.87426 0.87302 0.0
C555 C 0.90141 0.87748 0.82468 0.0
H556 H 0.22672 0.77854 0.63374 0.0
H557 H 0.18777 0.79617 0.67521 0.0
H558 H 0.20132 0.80763 0.5941 0.0
H559 H 0.09616 0.87497 0.63733 0.0
H560 H 0.77858 0.94515 0.87002 0.0
H561 H 0.82387 0.92598 0.83058 0.0
H562 H 0.80273 0.92025 0.91146 0.0
H563 H 0.92145 0.85436 0.87401 0.0
C564 C 0.69972 0.65993 0.26307 0.0
C565 C 0.71516 0.71661 0.27609 0.0
C566 C 0.67921 0.68844 0.27435 0.0
C567 C 0.77126 0.71587 0.2659 0.0
C568 C 0.75701 0.65874 0.25378 0.0
C569 C 0.79225 0.68695 0.2549 0.0
N570 N 0.66473 0.63294 0.26229 0.0
C571 C 0.68605 0.60344 0.25438 0.0
C572 C 0.77785 0.62892 0.24432 0.0
C573 C 0.74242 0.60105 0.24494 0.0
Gd574 Gd 0.43202 0.63571 0.22877 0.0
Gd575 Gd 0.57116 0.63916 0.27935 0.0
N576 N 0.62483 0.68843 0.28422 0.0
C577 C 0.69412 0.74452 0.28852 0.0
C578 C 0.60663 0.71459 0.2985 0.0
C579 C 0.63998 0.74327 0.30017 0.0
H580 H 0.56745 0.71323 0.30957 0.0
H581 H 0.62445 0.7641 0.31102 0.0
H582 H 0.45048 0.56057 0.20508 0.0
H583 H 0.66061 0.58138 0.25622 0.0
H584 H 0.39547 0.50827 0.20143 0.0
H585 H 0.72022 0.76665 0.29012 0.0
H586 H 0.79924 0.7373 0.26699 0.0
H587 H 0.33325 0.69289 0.24719 0.0
H588 H 0.82172 0.62694 0.23724 0.0
H589 H 0.75882 0.57757 0.23859 0.0
H590 H 0.21228 0.53198 0.24005 0.0
H591 H 0.83621 0.68649 0.24775 0.0
H592 H 0.17669 0.6425 0.26652 0.0
H593 H 0.23365 0.69398 0.26348 0.0
N594 N 0.33601 0.64053 0.24397 0.0
C595 C 0.30432 0.61225 0.24409 0.0
C596 C 0.31009 0.66989 0.24958 0.0
C597 C 0.22118 0.64167 0.26008 0.0
C598 C 0.25314 0.67076 0.25841 0.0
C599 C 0.24605 0.61209 0.25221 0.0
H600 H 0.16898 0.58225 0.25745 0.0
N601 N 0.38407 0.58496 0.22553 0.0
C602 C 0.32877 0.58378 0.23432 0.0
C603 C 0.32042 0.52708 0.22082 0.0
C604 C 0.2956 0.55464 0.23239 0.0
C605 C 0.40751 0.55873 0.21306 0.0
C606 C 0.37641 0.52924 0.21088 0.0
O607 O 0.5822 0.66433 0.24076 0.0
O608 O 0.48952 0.68074 0.23057 0.0
O609 O 0.43703 0.62852 0.18631 0.0
O610 O 0.37834 0.66361 0.2039 0.0
O611 O 0.50667 0.67892 0.28562 0.0
O612 O 0.42096 0.66937 0.26312 0.0
O613 O 0.44325 0.59305 0.25585 0.0
O614 O 0.48231 0.61947 0.29076 0.0
O615 O 0.58152 0.64868 0.32079 0.0
O616 O 0.61618 0.60421 0.30292 0.0
O617 O 0.51982 0.61633 0.21781 0.0
O618 O 0.55807 0.59378 0.25467 0.0
C619 C 0.54576 0.68198 0.22705 0.0
C620 C 0.45221 0.68467 0.28062 0.0
C621 C 0.37091 0.66043 0.15809 0.0
C622 C 0.35913 0.6574 0.11146 0.0
C623 C 0.30046 0.69487 0.13645 0.0
C624 C 0.32781 0.68469 0.15874 0.0
C625 C 0.31576 0.68132 0.11305 0.0
C626 C 0.38647 0.64645 0.13419 0.0
C627 C 0.39614 0.64995 0.18292 0.0
C628 C 0.23833 0.55416 0.24131 0.0
C629 C 0.21368 0.58279 0.25125 0.0
H630 H 0.29627 0.50428 0.21894 0.0
C631 C 0.45313 0.59479 0.28062 0.0
C632 C 0.54948 0.59336 0.22962 0.0
C633 C 0.63867 0.6114 0.34773 0.0
C634 C 0.64837 0.61293 0.39436 0.0
C635 C 0.71832 0.58349 0.36854 0.0
C636 C 0.68849 0.59198 0.34636 0.0
C637 C 0.69856 0.59393 0.39234 0.0
C638 C 0.61861 0.62221 0.37193 0.0
C639 C 0.61133 0.62198 0.3236 0.0
H640 H 0.26708 0.71333 0.13733 0.0
H641 H 0.31445 0.69585 0.17663 0.0
H642 H 0.29329 0.68956 0.09599 0.0
H643 H 0.41933 0.62764 0.13324 0.0
H644 H 0.75701 0.56881 0.36728 0.0
H645 H 0.70519 0.58387 0.32802 0.0
H646 H 0.72242 0.58697 0.40938 0.0
H647 H 0.58039 0.63735 0.37331 0.0
C648 C 0.14572 0.05085 0.32937 0.0
C649 C 0.12658 0.01799 0.32696 0.0
H650 H 0.13556 0.10097 0.31707 0.0
C651 C 0.0826 0.01087 0.30904 0.0
H652 H 0.1804 0.05736 0.34238 0.0
C653 C 0.05947 0.03561 0.29368 0.0
C654 C 0.07735 0.06829 0.29685 0.0
H655 H 0.06525 0.98624 0.30697 0.0
H656 H 0.02615 0.02934 0.27988 0.0
C657 C 0.12058 0.07584 0.31475 0.0
C658 C 0.3521 0.45122 0.82298 0.0
C659 C 0.37916 0.48181 0.827 0.0
H660 H 0.35837 0.40343 0.80567 0.0
C661 C 0.43211 0.48855 0.81483 0.0
H662 H 0.31115 0.44553 0.83209 0.0
C663 C 0.45733 0.46526 0.79873 0.0
C664 C 0.43156 0.43425 0.79554 0.0
H665 H 0.45352 0.51209 0.81747 0.0
H666 H 0.49724 0.47142 0.78897 0.0
C667 C 0.37881 0.42732 0.80779 0.0
C668 C 0.59781 0.45725 0.66942 0.0
C669 C 0.63574 0.48083 0.67975 0.0
H670 H 0.54289 0.41582 0.67682 0.0
C671 C 0.64881 0.47976 0.70608 0.0
H672 H 0.58655 0.45768 0.64924 0.0
C673 C 0.62331 0.45612 0.72191 0.0
C674 C 0.58475 0.43284 0.71176 0.0
H675 H 0.67826 0.49752 0.71452 0.0
H676 H 0.63244 0.45679 0.74218 0.0
C677 C 0.57242 0.43353 0.68529 0.0
C678 C 0.84808 0.03305 0.2009 0.0
C679 C 0.87598 0.02254 0.17829 0.0
H680 H 0.84845 0.06474 0.23302 0.0
C681 C 0.93026 0.03714 0.17249 0.0
H682 H 0.80764 0.02269 0.20738 0.0
C683 C 0.95571 0.06028 0.18901 0.0
C684 C 0.92671 0.07059 0.21119 0.0
H685 H 0.9538 0.03123 0.15525 0.0
H686 H 0.99765 0.07056 0.18415 0.0
C687 C 0.87229 0.05721 0.21647 0.0
C688 C 0.84744 0.95509 0.68786 0.0
C689 C 0.87821 0.98407 0.68211 0.0
H690 H 0.84905 0.90815 0.70661 0.0
C691 C 0.93364 0.98883 0.69242 0.0
H692 H 0.80458 0.95089 0.68012 0.0
C693 C 0.95831 0.96484 0.70788 0.0
C694 C 0.9286 0.93538 0.71282 0.0
H695 H 0.95763 0.01135 0.68883 0.0
H696 H 1.0002 0.96962 0.71631 0.0
C697 C 0.87264 0.9308 0.70305 0.0
C698 C 0.60215 0.54587 0.17172 0.0
C699 C 0.62757 0.51829 0.18315 0.0
H700 H 0.55835 0.59132 0.1774 0.0
C701 C 0.62727 0.51537 0.21001 0.0
H702 H 0.60191 0.54867 0.15103 0.0
C703 C 0.60116 0.53942 0.22517 0.0
C704 C 0.57638 0.56734 0.21379 0.0
H705 H 0.64591 0.49404 0.21922 0.0
H706 H 0.60015 0.53599 0.24578 0.0
C707 C 0.57714 0.57023 0.18687 0.0
C708 C 0.37542 0.51718 0.30256 0.0
C709 C 0.3739 0.52128 0.32928 0.0
H710 H 0.40326 0.53643 0.26648 0.0
C711 C 0.39876 0.54972 0.34007 0.0
H712 H 0.35745 0.49522 0.2938 0.0
C713 C 0.42442 0.57371 0.32434 0.0
C714 C 0.42621 0.56955 0.29754 0.0
H715 H 0.39797 0.55347 0.36065 0.0
H716 H 0.44271 0.59552 0.33318 0.0
C717 C 0.40165 0.54088 0.28691 0.0
C718 C 0.07584 0.98542 0.81794 0.0
C719 C 0.12912 0.97968 0.83006 0.0
H720 H 0.0102 0.96688 0.79266 0.0
C721 C 0.15667 0.94943 0.82615 0.0
H722 H 0.05406 0.0087 0.82033 0.0
C723 C 0.13174 0.92559 0.81018 0.0
C724 C 0.07869 0.93149 0.79791 0.0
H725 H 0.19732 0.94415 0.83554 0.0
H726 H 0.15386 0.90244 0.80753 0.0
C727 C 0.05076 0.96153 0.8021 0.0
C728 C 0.14547 0.1532 0.05067 0.0
C729 C 0.1501 0.12495 0.03527 0.0
H730 H 0.13971 0.17206 0.08919 0.0
C731 C 0.14191 0.09393 0.04648 0.0
H732 H 0.15052 0.17741 0.04224 0.0
C733 C 0.13469 0.09094 0.07293 0.0
C734 C 0.13639 0.11885 0.08882 0.0
H735 H 0.14555 0.07181 0.03503 0.0
H736 H 0.13395 0.06652 0.0813 0.0
C737 C 0.13829 0.15017 0.07738 0.0
C738 C 0.34906 0.34456 0.55159 0.0
C739 C 0.35878 0.37218 0.5358 0.0
H740 H 0.34357 0.32632 0.59027 0.0
C741 C 0.38269 0.40073 0.54681 0.0
H742 H 0.33204 0.32195 0.54352 0.0
C743 C 0.39069 0.40284 0.57331 0.0
C744 C 0.37416 0.37668 0.5894 0.0
H745 H 0.39049 0.42251 0.5353 0.0
H746 H 0.40343 0.42629 0.58149 0.0
C747 C 0.3568 0.34679 0.57826 0.0
C748 C 0.67277 0.39553 0.95557 0.0
C749 C 0.65314 0.37444 0.9751 0.0
H750 H 0.68228 0.40256 0.9149 0.0
C751 C 0.61886 0.3471 0.96881 0.0
H752 H 0.69895 0.4169 0.96021 0.0
C753 C 0.60893 0.33913 0.94315 0.0
C754 C 0.63322 0.35837 0.92344 0.0
H755 H 0.60343 0.33059 0.98369 0.0
H756 H 0.58705 0.31619 0.93867 0.0
C757 C 0.66253 0.38762 0.92978 0.0
C758 C 0.84699 0.10458 0.45572 0.0
C759 C 0.85755 0.12797 0.475 0.0
H760 H 0.84272 0.09578 0.41507 0.0
C761 C 0.8831 0.15815 0.4686 0.0
H762 H 0.82776 0.08099 0.4605 0.0
C763 C 0.89276 0.16626 0.44297 0.0
C764 C 0.87597 0.14454 0.42334 0.0
H765 H 0.89169 0.17638 0.4833 0.0
H766 H 0.90764 0.19089 0.43835 0.0
C767 C 0.85628 0.11284 0.42988 0.0
C768 C 0.82994 0.84439 0.95703 0.0
C769 C 0.85423 0.8673 0.97424 0.0
H770 H 0.81646 0.83147 0.91756 0.0
C771 C 0.89474 0.89033 0.96482 0.0
H772 H 0.79991 0.82571 0.9637 0.0
C773 C 0.9058 0.89264 0.93856 0.0
C774 C 0.87592 0.87243 0.92123 0.0
H775 H 0.91421 0.90855 0.97731 0.0
H776 H 0.93249 0.91276 0.93158 0.0
C777 C 0.84052 0.84704 0.93067 0.0
C778 C 0.65577 0.65388 0.45793 0.0
C779 C 0.64793 0.62615 0.47389 0.0
H780 H 0.65877 0.67195 0.41916 0.0
C781 C 0.62199 0.59786 0.46321 0.0
H782 H 0.67439 0.67642 0.46535 0.0
C783 C 0.61299 0.59551 0.43681 0.0
C784 C 0.62916 0.62145 0.42053 0.0
H785 H 0.61247 0.57649 0.47493 0.0
H786 H 0.59958 0.57206 0.42883 0.0
C787 C 0.64631 0.65153 0.43139 0.0
C788 C 0.34998 0.60441 0.05256 0.0
C789 C 0.35492 0.62887 0.03358 0.0
H790 H 0.34994 0.59413 0.09312 0.0
C791 C 0.37454 0.66028 0.04036 0.0
H792 H 0.33552 0.57986 0.04751 0.0
C793 C 0.3841 0.66813 0.06603 0.0
C794 C 0.3729 0.64492 0.08547 0.0
H795 H 0.37885 0.67937 0.02594 0.0
H796 H 0.39469 0.69336 0.07092 0.0
C797 C 0.359 0.61242 0.0785 0.0
C798 C 0.17628 0.89448 0.55503 0.0
C799 C 0.15205 0.87417 0.53587 0.0
H800 H 0.19109 0.90118 0.5954 0.0
C801 C 0.11287 0.84933 0.54336 0.0
H802 H 0.20619 0.91407 0.55009 0.0
C803 C 0.10437 0.84209 0.5693 0.0
C804 C 0.13432 0.85975 0.58827 0.0
H805 H 0.09162 0.834 0.52919 0.0
H806 H 0.07875 0.82067 0.57444 0.0
C807 C 0.16733 0.88733 0.58107 0.0
C808 C 0.14944 0.22857 0.3279 0.0
C809 C 0.11588 0.2558 0.33504 0.0
H810 H 0.15481 0.18454 0.30532 0.0
C811 C 0.05934 0.25824 0.32548 0.0
H812 H 0.19324 0.22606 0.3349 0.0
C813 C 0.03732 0.23446 0.3087 0.0
C814 C 0.07158 0.20787 0.30077 0.0
H815 H 0.03217 0.27869 0.33085 0.0
H816 H 0.99368 0.23735 0.30157 0.0
C817 C 0.12767 0.20497 0.31078 0.0
C818 C 0.37134 0.2759 0.83365 0.0
C819 C 0.39515 0.24403 0.83372 0.0
H820 H 0.37332 0.32451 0.81732 0.0
C821 C 0.44232 0.23788 0.81732 0.0
H822 H 0.33504 0.28188 0.84583 0.0
C823 C 0.46364 0.26229 0.80088 0.0
C824 C 0.43856 0.29359 0.80033 0.0
H825 H 0.46312 0.21414 0.81706 0.0
H826 H 0.49926 0.25644 0.78821 0.0
C827 C 0.39266 0.30033 0.81705 0.0
C828 C 0.62684 0.24003 0.70613 0.0
C829 C 0.62589 0.24382 0.67924 0.0
H830 H 0.60543 0.26055 0.74276 0.0
C831 C 0.60289 0.2728 0.66887 0.0
H832 H 0.64484 0.21818 0.71482 0.0
C833 C 0.58138 0.29734 0.68492 0.0
C834 C 0.58225 0.29355 0.71176 0.0
H835 H 0.60073 0.27639 0.64829 0.0
H836 H 0.56375 0.31929 0.67621 0.0
C837 C 0.60508 0.26456 0.7222 0.0
C838 C 0.85733 0.22569 0.18092 0.0
C839 C 0.88298 0.25724 0.17955 0.0
H840 H 0.85974 0.17739 0.19778 0.0
C841 C 0.93062 0.26403 0.19564 0.0
H842 H 0.81973 0.21952 0.16952 0.0
C843 C 0.95073 0.24052 0.21295 0.0
C844 C 0.92635 0.20894 0.21347 0.0
H845 H 0.95292 0.28748 0.19492 0.0
H846 H 0.98645 0.24682 0.22548 0.0
C847 C 0.87948 0.20164 0.19741 0.0
C848 C 0.89787 0.73834 0.70513 0.0
C849 C 0.89055 0.74363 0.67859 0.0
H850 H 0.92524 0.75792 0.74126 0.0
C851 C 0.90936 0.77387 0.66819 0.0
H852 H 0.88573 0.71512 0.71386 0.0
C853 C 0.93325 0.79834 0.68403 0.0
C854 C 0.93826 0.79333 0.71066 0.0
H855 H 0.9042 0.77907 0.64794 0.0
H856 H 0.94638 0.82151 0.67547 0.0
C857 C 0.92089 0.7629 0.72094 0.0
C858 C 0.64651 0.74545 0.19833 0.0
C859 C 0.61651 0.75606 0.17637 0.0
H860 H 0.64737 0.71478 0.23122 0.0
C861 C 0.56354 0.7405 0.17036 0.0
H862 H 0.68829 0.75569 0.20334 0.0
C863 C 0.54028 0.71619 0.18668 0.0
C864 C 0.56984 0.70681 0.2091 0.0
H865 H 0.53928 0.74763 0.15352 0.0
H866 H 0.4993 0.70476 0.18179 0.0
C867 C 0.62339 0.72142 0.21438 0.0
C868 C 0.34652 0.72607 0.32515 0.0
C869 C 0.37707 0.75484 0.33163 0.0
H870 H 0.34675 0.68099 0.30373 0.0
C871 C 0.43089 0.76117 0.3203 0.0
H872 H 0.30434 0.72118 0.33339 0.0
C873 C 0.45405 0.73892 0.30278 0.0
C874 C 0.42434 0.70969 0.29672 0.0
H875 H 0.45423 0.78373 0.32449 0.0
H876 H 0.49479 0.74484 0.29365 0.0
C877 C 0.37018 0.70351 0.30791 0.0
C878 C 0.11612 0.77546 0.83784 0.0
C879 C 0.12158 0.74299 0.82904 0.0
H880 H 0.09121 0.82483 0.82895 0.0
C881 C 0.10289 0.73549 0.80393 0.0
H882 H 0.13055 0.78219 0.85692 0.0
C883 C 0.08139 0.76005 0.78771 0.0
C884 C 0.07734 0.79258 0.79637 0.0
H885 H 0.10531 0.71056 0.79675 0.0
H886 H 0.06727 0.75354 0.76854 0.0
C887 C 0.09406 0.79992 0.82172 0.0
loop_
_geom_bond_atom_site_label_1
_geom_bond_atom_site_label_2
_geom_bond_distance
_geom_bond_site_symmetry_2
_ccdc_geom_bond_type
C0 C1 1.386 . S
C0 C2 1.397 . S
C0 H24 0.931 . S
C1 C0 1.386 . S
C1 C5 1.397 . S
C2 C0 1.397 . S
C2 C3 1.384 . S
C2 H25 0.930 . S
C3 C2 1.384 . S
C3 C4 1.377 . S
C3 C6 1.481 . S
C4 C3 1.377 . S
C4 C5 1.389 . S
C4 H26 0.929 . S
C5 C1 1.397 . S
C5 C4 1.389 . S
C5 H27 0.931 . S
C6 C3 1.481 . S
C6 C7 1.387 . S
C6 C11 1.390 . S
C7 C6 1.387 . S
C7 C8 1.401 . S
C7 H28 0.930 . S
C8 C7 1.401 . S
C8 C9 1.376 . S
C8 C17 1.511 . S
C9 C8 1.376 . S
C9 C10 1.392 . S
C9 H30 0.931 . S
C10 C9 1.392 . S
C10 C11 1.361 . S
C10 C12 1.500 . S
C11 C6 1.390 . S
C11 C10 1.361 . S
C11 H29 0.931 . S
C12 C10 1.500 . S
C12 C13 1.371 . S
C12 C14 1.365 . S
C13 C12 1.371 . S
C13 C23 1.386 . S
C13 H31 0.931 . S
C14 C12 1.365 . S
C14 C15 1.409 . S
C14 H32 0.929 . S
C15 C14 1.409 . S
C15 C16 1.380 . S
C15 H33 0.930 . S
C16 C15 1.380 . S
C16 C23 1.357 . S
C17 C8 1.511 . S
C17 C18 1.341 . S
C17 C19 1.371 . S
C18 C17 1.341 . S
C18 C22 1.394 . S
C18 H34 0.930 . S
C19 C17 1.371 . S
C19 C20 1.392 . S
C19 H35 0.931 . S
C20 C19 1.392 . S
C20 C21 1.331 . S
C20 H38 0.932 . S
C21 C20 1.331 . S
C21 C22 1.336 . S
C22 C18 1.394 . S
C22 C21 1.336 . S
C22 H37 0.929 . S
C23 C13 1.386 . S
C23 C16 1.357 . S
C23 H36 0.928 . S
H24 C0 0.931 . S
H25 C2 0.930 . S
H26 C4 0.929 . S
H27 C5 0.931 . S
H28 C7 0.930 . S
H29 C11 0.931 . S
H30 C9 0.931 . S
H31 C13 0.931 . S
H32 C14 0.929 . S
H33 C15 0.930 . S
H34 C18 0.930 . S
H35 C19 0.931 . S
H36 C23 0.928 . S
H37 C22 0.929 . S
H38 C20 0.932 . S
C39 C40 1.386 . S
C39 C41 1.397 . S
C39 H63 0.931 . S
C40 C39 1.386 . S
C40 C44 1.397 . S
C41 C39 1.397 . S
C41 C42 1.384 . S
C41 H64 0.930 . S
C42 C41 1.384 . S
C42 C43 1.377 . S
C42 C45 1.481 . S
C43 C42 1.377 . S
C43 C44 1.389 . S
C43 H65 0.929 . S
C44 C40 1.397 . S
C44 C43 1.389 . S
C44 H66 0.931 . S
C45 C42 1.481 . S
C45 C46 1.387 . S
C45 C50 1.390 . S
C46 C45 1.387 . S
C46 C47 1.401 . S
C46 H67 0.930 . S
C47 C46 1.401 . S
C47 C48 1.376 . S
C47 C56 1.511 . S
C48 C47 1.376 . S
C48 C49 1.392 . S
C48 H69 0.931 . S
C49 C48 1.392 . S
C49 C50 1.361 . S
C49 C51 1.500 . S
C50 C45 1.390 . S
C50 C49 1.361 . S
C50 H68 0.931 . S
C51 C49 1.500 . S
C51 C52 1.371 . S
C51 C53 1.365 . S
C52 C51 1.371 . S
C52 C62 1.386 . S
C52 H70 0.931 . S
C53 C51 1.365 . S
C53 C54 1.409 . S
C53 H71 0.929 . S
C54 C53 1.409 . S
C54 C55 1.380 1_556 S
C54 H72 0.930 . S
C55 C54 1.380 1_554 S
C55 C62 1.357 1_554 S
C56 C47 1.511 . S
C56 C57 1.341 . S
C56 C58 1.371 . S
C57 C56 1.341 . S
C57 C61 1.394 . S
C57 H73 0.930 . S
C58 C56 1.371 . S
C58 C59 1.392 . S
C58 H74 0.931 . S
C59 C58 1.392 . S
C59 C60 1.331 . S
C59 H77 0.932 . S
C60 C59 1.331 . S
C60 C61 1.336 . S
C61 C57 1.394 . S
C61 C60 1.336 . S
C61 H76 0.929 . S
C62 C52 1.386 . S
C62 C55 1.357 1_556 S
C62 H75 0.928 1_556 S
H63 C39 0.931 . S
H64 C41 0.930 . S
H65 C43 0.929 . S
H66 C44 0.931 . S
H67 C46 0.930 . S
H68 C50 0.931 . S
H69 C48 0.931 . S
H70 C52 0.931 . S
H71 C53 0.929 . S
H72 C54 0.930 . S
H73 C57 0.930 . S
H74 C58 0.931 . S
H75 C62 0.928 1_554 S
H76 C61 0.929 . S
H77 C59 0.932 . S
C78 C79 1.386 . S
C78 C80 1.397 . S
C78 H102 0.931 . S
C79 C78 1.386 . S
C79 C83 1.397 . S
C80 C78 1.397 . S
C80 C81 1.384 . S
C80 H103 0.930 . S
C81 C80 1.384 . S
C81 C82 1.377 . S
C81 C84 1.481 . S
C82 C81 1.377 . S
C82 C83 1.389 . S
C82 H104 0.929 . S
C83 C79 1.397 . S
C83 C82 1.389 . S
C83 H105 0.931 . S
C84 C81 1.481 . S
C84 C85 1.387 . S
C84 C89 1.390 . S
C85 C84 1.387 . S
C85 C86 1.401 . S
C85 H106 0.930 . S
C86 C85 1.401 . S
C86 C87 1.376 . S
C86 C95 1.511 . S
C87 C86 1.376 . S
C87 C88 1.392 . S
C87 H108 0.931 . S
C88 C87 1.392 . S
C88 C89 1.361 . S
C88 C90 1.500 . S
C89 C84 1.390 . S
C89 C88 1.361 . S
C89 H107 0.931 . S
C90 C88 1.500 . S
C90 C91 1.371 . S
C90 C92 1.365 . S
C91 C90 1.371 . S
C91 C101 1.386 . S
C91 H109 0.931 . S
C92 C90 1.365 . S
C92 C93 1.409 . S
C92 H110 0.929 . S
C93 C92 1.409 . S
C93 C94 1.380 . S
C93 H111 0.930 . S
C94 C93 1.380 . S
C94 C101 1.357 . S
C95 C86 1.511 . S
C95 C96 1.341 . S
C95 C97 1.371 . S
C96 C95 1.341 . S
C96 C100 1.394 . S
C96 H112 0.930 . S
C97 C95 1.371 . S
C97 C98 1.392 . S
C97 H113 0.931 . S
C98 C97 1.392 . S
C98 C99 1.331 . S
C98 H116 0.932 . S
C99 C98 1.331 . S
C99 C100 1.336 . S
C100 C96 1.394 . S
C100 C99 1.336 . S
C100 H115 0.929 . S
C101 C91 1.386 . S
C101 C94 1.357 . S
C101 H114 0.928 . S
H102 C78 0.931 . S
H103 C80 0.930 . S
H104 C82 0.929 . S
H105 C83 0.931 . S
H106 C85 0.930 . S
H107 C89 0.931 . S
H108 C87 0.931 . S
H109 C91 0.931 . S
H110 C92 0.929 . S
H111 C93 0.930 . S
H112 C96 0.930 . S
H113 C97 0.931 . S
H114 C101 0.928 . S
H115 C100 0.929 . S
H116 C98 0.932 . S
C117 C118 1.386 . S
C117 C119 1.397 . S
C117 H141 0.931 . S
C118 C117 1.386 . S
C118 C122 1.397 . S
C119 C117 1.397 . S
C119 C120 1.384 . S
C119 H142 0.930 . S
C120 C119 1.384 . S
C120 C121 1.377 . S
C120 C123 1.481 . S
C121 C120 1.377 . S
C121 C122 1.389 . S
C121 H143 0.929 . S
C122 C118 1.397 . S
C122 C121 1.389 . S
C122 H144 0.931 . S
C123 C120 1.481 . S
C123 C124 1.387 . S
C123 C128 1.390 . S
C124 C123 1.387 . S
C124 C125 1.401 . S
C124 H145 0.930 . S
C125 C124 1.401 . S
C125 C126 1.376 . S
C125 C134 1.511 . S
C126 C125 1.376 . S
C126 C127 1.392 . S
C126 H147 0.931 . S
C127 C126 1.392 . S
C127 C128 1.361 . S
C127 C129 1.500 . S
C128 C123 1.390 . S
C128 C127 1.361 . S
C128 H146 0.931 . S
C129 C127 1.500 . S
C129 C130 1.371 . S
C129 C131 1.365 . S
C130 C129 1.371 . S
C130 C140 1.386 . S
C130 H148 0.931 . S
C131 C129 1.365 . S
C131 C132 1.409 . S
C131 H149 0.929 . S
C132 C131 1.409 . S
C132 C133 1.380 1_554 S
C132 H150 0.930 . S
C133 C132 1.380 1_556 S
C133 C140 1.357 1_556 S
C134 C125 1.511 . S
C134 C135 1.341 . S
C134 C136 1.371 . S
C135 C134 1.341 . S
C135 C139 1.394 . S
C135 H151 0.930 . S
C136 C134 1.371 . S
C136 C137 1.392 . S
C136 H152 0.931 . S
C137 C136 1.392 . S
C137 C138 1.331 . S
C137 H155 0.932 . S
C138 C137 1.331 . S
C138 C139 1.336 . S
C139 C135 1.394 . S
C139 C138 1.336 . S
C139 H154 0.929 . S
C140 C130 1.386 . S
C140 C133 1.357 1_554 S
C140 H153 0.928 1_554 S
H141 C117 0.931 . S
H142 C119 0.930 . S
H143 C121 0.929 . S
H144 C122 0.931 . S
H145 C124 0.930 . S
H146 C128 0.931 . S
H147 C126 0.931 . S
H148 C130 0.931 . S
H149 C131 0.929 . S
H150 C132 0.930 . S
H151 C135 0.930 . S
H152 C136 0.931 . S
H153 C140 0.928 1_556 S
H154 C139 0.929 . S
H155 C137 0.932 . S
C156 C157 1.386 . S
C156 C158 1.397 . S
C156 H180 0.931 . S
C157 C156 1.386 . S
C157 C161 1.397 . S
C158 C156 1.397 . S
C158 C159 1.384 . S
C158 H181 0.930 . S
C159 C158 1.384 . S
C159 C160 1.377 . S
C159 C162 1.481 . S
C160 C159 1.377 . S
C160 C161 1.389 . S
C160 H182 0.929 . S
C161 C157 1.397 . S
C161 C160 1.389 . S
C161 H183 0.931 . S
C162 C159 1.481 . S
C162 C163 1.387 . S
C162 C167 1.390 . S
C163 C162 1.387 . S
C163 C164 1.401 . S
C163 H184 0.930 . S
C164 C163 1.401 . S
C164 C165 1.376 . S
C164 C173 1.511 . S
C165 C164 1.376 . S
C165 C166 1.392 . S
C165 H186 0.931 . S
C166 C165 1.392 . S
C166 C167 1.361 . S
C166 C168 1.500 . S
C167 C162 1.390 . S
C167 C166 1.361 . S
C167 H185 0.931 . S
C168 C166 1.500 . S
C168 C169 1.371 . S
C168 C170 1.365 . S
C169 C168 1.371 . S
C169 C179 1.386 . S
C169 H187 0.931 . S
C170 C168 1.365 . S
C170 C171 1.409 . S
C170 H188 0.929 . S
C171 C170 1.409 . S
C171 C172 1.380 . S
C171 H189 0.930 . S
C172 C171 1.380 . S
C172 C179 1.357 . S
C173 C164 1.511 . S
C173 C174 1.341 . S
C173 C175 1.371 . S
C174 C173 1.341 . S
C174 C178 1.394 . S
C174 H190 0.930 . S
C175 C173 1.371 . S
C175 C176 1.392 . S
C175 H191 0.931 . S
C176 C175 1.392 . S
C176 C177 1.331 . S
C176 H194 0.932 . S
C177 C176 1.331 . S
C177 C178 1.336 . S
C178 C174 1.394 . S
C178 C177 1.336 . S
C178 H193 0.929 . S
C179 C169 1.386 . S
C179 C172 1.357 . S
C179 H192 0.928 . S
H180 C156 0.931 . S
H181 C158 0.930 . S
H182 C160 0.929 . S
H183 C161 0.931 . S
H184 C163 0.930 . S
H185 C167 0.931 . S
H186 C165 0.931 . S
H187 C169 0.931 . S
H188 C170 0.929 . S
H189 C171 0.930 . S
H190 C174 0.930 . S
H191 C175 0.931 . S
H192 C179 0.928 . S
H193 C178 0.929 . S
H194 C176 0.932 . S
C195 C196 1.386 1_554 S
C195 C197 1.397 . S
C195 H219 0.931 1_554 S
C196 C195 1.386 1_556 S
C196 C200 1.397 1_556 S
C197 C195 1.397 . S
C197 C198 1.384 . S
C197 H220 0.930 . S
C198 C197 1.384 . S
C198 C199 1.377 . S
C198 C201 1.481 . S
C199 C198 1.377 . S
C199 C200 1.389 . S
C199 H221 0.929 . S
C200 C196 1.397 1_554 S
C200 C199 1.389 . S
C200 H222 0.931 . S
C201 C198 1.481 . S
C201 C202 1.387 . S
C201 C206 1.390 . S
C202 C201 1.387 . S
C202 C203 1.401 . S
C202 H223 0.930 . S
C203 C202 1.401 . S
C203 C204 1.376 . S
C203 C212 1.511 . S
C204 C203 1.376 . S
C204 C205 1.392 . S
C204 H225 0.931 . S
C205 C204 1.392 . S
C205 C206 1.361 . S
C205 C207 1.500 . S
C206 C201 1.390 . S
C206 C205 1.361 . S
C206 H224 0.931 . S
C207 C205 1.500 . S
C207 C208 1.371 . S
C207 C209 1.365 . S
C208 C207 1.371 . S
C208 C218 1.386 . S
C208 H226 0.931 . S
C209 C207 1.365 . S
C209 C210 1.409 . S
C209 H227 0.929 . S
C210 C209 1.409 . S
C210 C211 1.380 . S
C210 H228 0.930 . S
C211 C210 1.380 . S
C211 C218 1.357 . S
C212 C203 1.511 . S
C212 C213 1.341 . S
C212 C214 1.371 . S
C213 C212 1.341 . S
C213 C217 1.394 . S
C213 H229 0.930 . S
C214 C212 1.371 . S
C214 C215 1.392 . S
C214 H230 0.931 . S
C215 C214 1.392 . S
C215 C216 1.331 . S
C215 H233 0.932 . S
C216 C215 1.331 . S
C216 C217 1.336 . S
C217 C213 1.394 . S
C217 C216 1.336 . S
C217 H232 0.929 . S
C218 C208 1.386 . S
C218 C211 1.357 . S
C218 H231 0.928 . S
H219 C195 0.931 1_556 S
H220 C197 0.930 . S
H221 C199 0.929 . S
H222 C200 0.931 . S
H223 C202 0.930 . S
H224 C206 0.931 . S
H225 C204 0.931 . S
H226 C208 0.931 . S
H227 C209 0.929 . S
H228 C210 0.930 . S
H229 C213 0.930 . S
H230 C214 0.931 . S
H231 C218 0.928 . S
H232 C217 0.929 . S
H233 C215 0.932 . S
C234 C235 1.386 . S
C234 C236 1.397 . S
C234 H258 0.931 . S
C235 C234 1.386 . S
C235 C239 1.397 . S
C236 C234 1.397 . S
C236 C237 1.384 . S
C236 H259 0.930 . S
C237 C236 1.384 . S
C237 C238 1.377 . S
C237 C240 1.481 . S
C238 C237 1.377 . S
C238 C239 1.389 . S
C238 H260 0.929 . S
C239 C235 1.397 . S
C239 C238 1.389 . S
C239 H261 0.931 1_565 S
C240 C237 1.481 . S
C240 C241 1.387 . S
C240 C245 1.390 . S
C241 C240 1.387 . S
C241 C242 1.401 . S
C241 H262 0.930 . S
C242 C241 1.401 . S
C242 C243 1.376 . S
C242 C251 1.511 . S
C243 C242 1.376 . S
C243 C244 1.392 . S
C243 H264 0.931 . S
C244 C243 1.392 . S
C244 C245 1.361 . S
C244 C246 1.500 . S
C245 C240 1.390 . S
C245 C244 1.361 . S
C245 H263 0.931 . S
C246 C244 1.500 . S
C246 C247 1.371 . S
C246 C248 1.365 . S
C247 C246 1.371 . S
C247 C257 1.386 . S
C247 H265 0.931 . S
C248 C246 1.365 . S
C248 C249 1.409 . S
C248 H266 0.929 . S
C249 C248 1.409 . S
C249 C250 1.380 . S
C249 H267 0.930 . S
C250 C249 1.380 . S
C250 C257 1.357 . S
C251 C242 1.511 . S
C251 C252 1.341 . S
C251 C253 1.371 . S
C252 C251 1.341 . S
C252 C256 1.394 . S
C252 H268 0.930 . S
C253 C251 1.371 . S
C253 C254 1.392 . S
C253 H269 0.931 . S
C254 C253 1.392 . S
C254 C255 1.331 . S
C254 H272 0.932 . S
C255 C254 1.331 . S
C255 C256 1.336 . S
C256 C252 1.394 . S
C256 C255 1.336 . S
C256 H271 0.929 . S
C257 C247 1.386 . S
C257 C250 1.357 . S
C257 H270 0.928 . S
H258 C234 0.931 . S
H259 C236 0.930 . S
H260 C238 0.929 . S
H261 C239 0.931 1_545 S
H262 C241 0.930 . S
H263 C245 0.931 . S
H264 C243 0.931 . S
H265 C247 0.931 . S
H266 C248 0.929 . S
H267 C249 0.930 . S
H268 C252 0.930 . S
H269 C253 0.931 . S
H270 C257 0.928 . S
H271 C256 0.929 . S
H272 C254 0.932 . S
C273 C274 1.386 1_556 S
C273 C275 1.397 . S
C273 H297 0.931 1_556 S
C274 C273 1.386 1_554 S
C274 C278 1.397 1_554 S
C275 C273 1.397 . S
C275 C276 1.384 . S
C275 H298 0.930 . S
C276 C275 1.384 . S
C276 C277 1.377 . S
C276 C279 1.481 . S
C277 C276 1.377 . S
C277 C278 1.389 . S
C277 H299 0.929 . S
C278 C274 1.397 1_556 S
C278 C277 1.389 . S
C278 H300 0.931 . S
C279 C276 1.481 . S
C279 C280 1.387 . S
C279 C284 1.390 . S
C280 C279 1.387 . S
C280 C281 1.401 . S
C280 H301 0.930 . S
C281 C280 1.401 . S
C281 C282 1.376 . S
C281 C290 1.511 . S
C282 C281 1.376 . S
C282 C283 1.392 . S
C282 H303 0.931 . S
C283 C282 1.392 . S
C283 C284 1.361 . S
C283 C285 1.500 . S
C284 C279 1.390 . S
C284 C283 1.361 . S
C284 H302 0.931 . S
C285 C283 1.500 . S
C285 C286 1.371 . S
C285 C287 1.365 . S
C286 C285 1.371 . S
C286 C296 1.386 . S
C286 H304 0.931 . S
C287 C285 1.365 . S
C287 C288 1.409 . S
C287 H305 0.929 . S
C288 C287 1.409 . S
C288 C289 1.380 . S
C288 H306 0.930 . S
C289 C288 1.380 . S
C289 C296 1.357 . S
C290 C281 1.511 . S
C290 C291 1.341 . S
C290 C292 1.371 . S
C291 C290 1.341 . S
C291 C295 1.394 . S
C291 H307 0.930 . S
C292 C290 1.371 . S
C292 C293 1.392 . S
C292 H308 0.931 . S
C293 C292 1.392 . S
C293 C294 1.331 . S
C293 H311 0.932 . S
C294 C293 1.331 . S
C294 C295 1.336 . S
C295 C291 1.394 . S
C295 C294 1.336 . S
C295 H310 0.929 . S
C296 C286 1.386 . S
C296 C289 1.357 . S
C296 H309 0.928 . S
H297 C273 0.931 1_554 S
H298 C275 0.930 . S
H299 C277 0.929 . S
H300 C278 0.931 . S
H301 C280 0.930 . S
H302 C284 0.931 . S
H303 C282 0.931 . S
H304 C286 0.931 . S
H305 C287 0.929 . S
H306 C288 0.930 . S
H307 C291 0.930 . S
H308 C292 0.931 . S
H309 C296 0.928 . S
H310 C295 0.929 . S
H311 C293 0.932 . S
C312 C314 1.422 . S
C312 C316 1.415 . S
C312 N318 1.369 . S
C313 C314 1.421 . S
C313 C315 1.417 . S
C313 C325 1.422 . S
C314 C312 1.422 . S
C314 C313 1.421 . S
C314 N324 1.359 . S
C315 C313 1.417 . S
C315 C317 1.329 . S
C315 H334 0.930 . S
C316 C312 1.415 . S
C316 C317 1.437 . S
C316 C320 1.413 . S
C317 C315 1.329 . S
C317 C316 1.437 . S
C317 H339 0.929 . S
N318 C312 1.369 . S
N318 C319 1.338 . S
N318 Gd323 2.622 . S
C319 N318 1.338 . S
C319 C321 1.378 . S
C319 H331 0.929 . S
C320 C316 1.413 . S
C320 C321 1.348 . S
C320 H336 0.931 . S
C321 C319 1.378 . S
C321 C320 1.348 . S
C321 H337 0.930 . S
Gd322 N342 2.622 . S
Gd322 N349 2.570 . S
Gd322 O356 2.353 . S
Gd322 O357 2.468 . S
Gd322 O358 2.427 . S
Gd322 O360 2.388 . S
Gd322 O361 2.386 . S
Gd322 O365 2.315 . S
Gd322 C375 2.805 . S
Gd323 N318 2.622 . S
Gd323 N324 2.570 . S
Gd323 O355 2.386 . S
Gd323 O359 2.307 1_655 S
Gd323 O362 2.353 1_655 S
Gd323 O363 2.468 . S
Gd323 O364 2.427 . S
Gd323 O366 2.388 . S
Gd323 C387 2.805 . S
N324 C314 1.359 . S
N324 Gd323 2.570 . S
N324 C326 1.343 . S
C325 C313 1.422 . S
C325 C327 1.321 . S
C325 H333 0.931 . S
C326 N324 1.343 . S
C326 C327 1.390 . S
C326 H328 0.931 . S
C327 C325 1.321 . S
C327 C326 1.390 . S
C327 H329 0.930 . S
H328 C326 0.931 . S
H329 C327 0.930 . S
H330 C353 0.931 . S
H331 C319 0.929 . S
H332 C354 0.930 . S
H333 C325 0.931 . S
H334 C315 0.930 . S
H335 C344 0.929 . S
H336 C320 0.931 . S
H337 C321 0.930 . S
H338 C376 0.930 . S
H339 C317 0.929 . S
H340 C345 0.931 . S
H341 C346 0.930 . S
N342 Gd322 2.622 . S
N342 C343 1.369 . S
N342 C344 1.338 . S
C343 N342 1.369 . S
C343 C347 1.415 . S
C343 C350 1.422 . S
C344 H335 0.929 . S
C344 N342 1.338 . S
C344 C346 1.378 . S
C345 H340 0.931 . S
C345 C346 1.348 . S
C345 C347 1.413 . S
C346 H341 0.930 . S
C346 C344 1.378 . S
C346 C345 1.348 . S
C347 C343 1.415 . S
C347 C345 1.413 . S
C347 C377 1.437 . S
H348 C377 0.929 . S
N349 Gd322 2.570 . S
N349 C350 1.359 . S
N349 C353 1.343 . S
C350 C343 1.422 . S
C350 N349 1.359 . S
C350 C352 1.421 . S
C351 C352 1.422 . S
C351 C354 1.321 . S
C351 H378 0.931 . S
C352 C350 1.421 . S
C352 C351 1.422 . S
C352 C376 1.417 . S
C353 H330 0.931 . S
C353 N349 1.343 . S
C353 C354 1.390 . S
C354 H332 0.930 . S
C354 C351 1.321 . S
C354 C353 1.390 . S
O355 Gd323 2.386 . S
O355 C367 1.265 . S
O356 Gd322 2.353 . S
O356 C367 1.242 1_455 S
O357 Gd322 2.468 . S
O357 C375 1.263 . S
O358 Gd322 2.427 . S
O358 C375 1.252 . S
O359 Gd323 2.307 1_455 S
O359 C368 1.261 . S
O360 Gd322 2.388 . S
O360 C368 1.252 . S
O361 Gd322 2.386 . S
O361 C379 1.265 . S
O362 Gd323 2.353 1_455 S
O362 C379 1.242 . S
O363 Gd323 2.468 . S
O363 C387 1.263 . S
O364 Gd323 2.427 . S
O364 C387 1.252 . S
O365 Gd322 2.315 . S
O365 C380 1.252 1_455 S
O366 Gd323 2.388 . S
O366 C380 1.252 . S
C367 O355 1.265 . S
C367 O356 1.242 1_655 S
C368 O359 1.261 . S
C368 O360 1.252 . S
C369 C372 1.394 . S
C369 C374 1.370 . S
C369 C375 1.500 . S
C370 C373 1.383 . S
C370 C374 1.395 . S
C371 C372 1.396 . S
C371 C373 1.365 . S
C371 H388 0.929 . S
C372 C369 1.394 . S
C372 C371 1.396 . S
C372 H389 0.930 . S
C373 C370 1.383 . S
C373 C371 1.365 . S
C373 H390 0.931 . S
C374 C369 1.370 . S
C374 C370 1.395 . S
C374 H391 0.930 . S
C375 Gd322 2.805 . S
C375 O357 1.263 . S
C375 O358 1.252 . S
C375 C369 1.500 . S
C376 H338 0.930 . S
C376 C352 1.417 . S
C376 C377 1.329 . S
C377 C347 1.437 . S
C377 H348 0.929 . S
C377 C376 1.329 . S
H378 C351 0.931 . S
C379 O361 1.265 . S
C379 O362 1.242 . S
C380 O365 1.252 1_655 S
C380 O366 1.252 . S
C381 C384 1.394 . S
C381 C386 1.370 . S
C381 C387 1.500 . S
C382 C385 1.383 . S
C382 C386 1.395 . S
C383 C384 1.396 . S
C383 C385 1.365 . S
C383 H392 0.929 . S
C384 C381 1.394 . S
C384 C383 1.396 . S
C384 H393 0.930 . S
C385 C382 1.383 . S
C385 C383 1.365 . S
C385 H394 0.931 . S
C386 C381 1.370 . S
C386 C382 1.395 . S
C386 H395 0.930 . S
C387 Gd323 2.805 . S
C387 O363 1.263 . S
C387 O364 1.252 . S
C387 C381 1.500 . S
H388 C371 0.929 . S
H389 C372 0.930 . S
H390 C373 0.931 . S
H391 C374 0.930 . S
H392 C383 0.929 . S
H393 C384 0.930 . S
H394 C385 0.931 . S
H395 C386 0.930 . S
C396 C398 1.422 . S
C396 C400 1.415 . S
C396 N402 1.369 . S
C397 C398 1.421 . S
C397 C399 1.417 . S
C397 C409 1.422 . S
C398 C396 1.422 . S
C398 C397 1.421 . S
C398 N408 1.359 . S
C399 C397 1.417 . S
C399 C401 1.329 . S
C399 H418 0.930 . S
C400 C396 1.415 . S
C400 C401 1.437 . S
C400 C404 1.413 . S
C401 C399 1.329 . S
C401 C400 1.437 . S
C401 H423 0.929 . S
N402 C396 1.369 . S
N402 C403 1.338 . S
N402 Gd407 2.622 . S
C403 N402 1.338 . S
C403 C405 1.378 . S
C403 H415 0.929 . S
C404 C400 1.413 . S
C404 C405 1.348 . S
C404 H420 0.931 . S
C405 C403 1.378 . S
C405 C404 1.348 . S
C405 H421 0.930 . S
Gd406 N426 2.622 . S
Gd406 N433 2.570 . S
Gd406 O440 2.353 . S
Gd406 O441 2.468 . S
Gd406 O442 2.427 . S
Gd406 O444 2.388 . S
Gd406 O445 2.386 . S
Gd406 O449 2.307 . S
Gd406 C459 2.805 . S
Gd407 N402 2.622 . S
Gd407 N408 2.570 . S
Gd407 O439 2.386 . S
Gd407 O443 2.307 . S
Gd407 O446 2.353 . S
Gd407 O447 2.468 . S
Gd407 O448 2.427 . S
Gd407 O450 2.388 . S
Gd407 C471 2.805 . S
N408 C398 1.359 . S
N408 Gd407 2.570 . S
N408 C410 1.343 . S
C409 C397 1.422 . S
C409 C411 1.321 . S
C409 H417 0.931 . S
C410 N408 1.343 . S
C410 C411 1.390 . S
C410 H412 0.931 . S
C411 C409 1.321 . S
C411 C410 1.390 . S
C411 H413 0.930 . S
H412 C410 0.931 . S
H413 C411 0.930 . S
H414 C437 0.931 . S
H415 C403 0.929 . S
H416 C438 0.930 . S
H417 C409 0.931 . S
H418 C399 0.930 . S
H419 C428 0.929 . S
H420 C404 0.931 . S
H421 C405 0.930 . S
H422 C460 0.930 . S
H423 C401 0.929 . S
H424 C429 0.931 . S
H425 C430 0.930 . S
N426 Gd406 2.622 . S
N426 C427 1.369 . S
N426 C428 1.338 . S
C427 N426 1.369 . S
C427 C431 1.415 . S
C427 C434 1.422 . S
C428 H419 0.929 . S
C428 N426 1.338 . S
C428 C430 1.378 . S
C429 H424 0.931 . S
C429 C430 1.348 . S
C429 C431 1.413 . S
C430 H425 0.930 . S
C430 C428 1.378 . S
C430 C429 1.348 . S
C431 C427 1.415 . S
C431 C429 1.413 . S
C431 C461 1.437 . S
H432 C461 0.929 . S
N433 Gd406 2.570 . S
N433 C434 1.359 . S
N433 C437 1.343 . S
C434 C427 1.422 . S
C434 N433 1.359 . S
C434 C436 1.421 . S
C435 C436 1.422 . S
C435 C438 1.321 . S
C435 H462 0.931 . S
C436 C434 1.421 . S
C436 C435 1.422 . S
C436 C460 1.417 . S
C437 H414 0.931 . S
C437 N433 1.343 . S
C437 C438 1.390 . S
C438 H416 0.930 . S
C438 C435 1.321 . S
C438 C437 1.390 . S
O439 Gd407 2.386 . S
O439 C451 1.265 . S
O440 Gd406 2.353 . S
O440 C451 1.242 . S
O441 Gd406 2.468 . S
O441 C459 1.263 . S
O442 Gd406 2.427 . S
O442 C459 1.252 . S
O443 Gd407 2.307 . S
O443 C452 1.261 . S
O444 Gd406 2.388 . S
O444 C452 1.252 . S
O445 Gd406 2.386 . S
O445 C463 1.265 . S
O446 Gd407 2.353 . S
O446 C463 1.242 . S
O447 Gd407 2.468 . S
O447 C471 1.263 . S
O448 Gd407 2.427 . S
O448 C471 1.252 . S
O449 Gd406 2.307 . S
O449 C464 1.261 . S
O450 Gd407 2.388 . S
O450 C464 1.252 . S
C451 O439 1.265 . S
C451 O440 1.242 . S
C452 O443 1.261 . S
C452 O444 1.252 . S
C453 C456 1.394 . S
C453 C458 1.370 . S
C453 C459 1.500 . S
C454 C457 1.383 . S
C454 C458 1.395 . S
C455 C456 1.396 . S
C455 C457 1.365 . S
C455 H472 0.929 . S
C456 C453 1.394 . S
C456 C455 1.396 . S
C456 H473 0.930 . S
C457 C454 1.383 . S
C457 C455 1.365 . S
C457 H474 0.931 . S
C458 C453 1.370 . S
C458 C454 1.395 . S
C458 H475 0.930 . S
C459 Gd406 2.805 . S
C459 O441 1.263 . S
C459 O442 1.252 . S
C459 C453 1.500 . S
C460 H422 0.930 . S
C460 C436 1.417 . S
C460 C461 1.329 . S
C461 C431 1.437 . S
C461 H432 0.929 . S
C461 C460 1.329 . S
H462 C435 0.931 . S
C463 O445 1.265 . S
C463 O446 1.242 . S
C464 O449 1.261 . S
C464 O450 1.252 . S
C465 C468 1.394 . S
C465 C470 1.370 . S
C465 C471 1.500 . S
C466 C469 1.383 . S
C466 C470 1.395 . S
C467 C468 1.396 . S
C467 C469 1.365 . S
C467 H476 0.929 . S
C468 C465 1.394 . S
C468 C467 1.396 . S
C468 H477 0.930 . S
C469 C466 1.383 . S
C469 C467 1.365 . S
C469 H478 0.931 . S
C470 C465 1.370 . S
C470 C466 1.395 . S
C470 H479 0.930 . S
C471 Gd407 2.805 . S
C471 O447 1.263 . S
C471 O448 1.252 . S
C471 C465 1.500 . S
H472 C455 0.929 . S
H473 C456 0.930 . S
H474 C457 0.931 . S
H475 C458 0.930 . S
H476 C467 0.929 . S
H477 C468 0.930 . S
H478 C469 0.931 . S
H479 C470 0.930 . S
C480 C482 1.422 . S
C480 C484 1.415 . S
C480 N486 1.369 . S
C481 C482 1.421 . S
C481 C483 1.417 . S
C481 C493 1.422 . S
C482 C480 1.422 . S
C482 C481 1.421 . S
C482 N492 1.359 . S
C483 C481 1.417 . S
C483 C485 1.329 . S
C483 H502 0.930 . S
C484 C480 1.415 . S
C484 C485 1.437 . S
C484 C488 1.413 . S
C485 C483 1.329 . S
C485 C484 1.437 . S
C485 H507 0.929 . S
N486 C480 1.369 . S
N486 C487 1.338 . S
N486 Gd491 2.622 . S
C487 N486 1.338 . S
C487 C489 1.378 . S
C487 H499 0.929 . S
C488 C484 1.413 . S
C488 C489 1.348 . S
C488 H504 0.931 . S
C489 C487 1.378 . S
C489 C488 1.348 . S
C489 H505 0.930 . S
Gd490 N510 2.622 . S
Gd490 N517 2.570 . S
Gd490 O524 2.353 . S
Gd490 O525 2.468 . S
Gd490 O526 2.427 . S
Gd490 O528 2.388 . S
Gd490 O529 2.386 . S
Gd490 O533 2.307 . S
Gd490 C543 2.805 . S
Gd491 N486 2.622 . S
Gd491 N492 2.570 . S
Gd491 O523 2.386 . S
Gd491 O527 2.307 1_655 S
Gd491 O530 2.353 1_655 S
Gd491 O531 2.468 . S
Gd491 O532 2.427 . S
Gd491 O534 2.388 . S
Gd491 C555 2.805 . S
N492 C482 1.359 . S
N492 Gd491 2.570 . S
N492 C494 1.343 . S
C493 C481 1.422 . S
C493 C495 1.321 . S
C493 H501 0.931 . S
C494 N492 1.343 . S
C494 C495 1.390 . S
C494 H496 0.931 . S
C495 C493 1.321 . S
C495 C494 1.390 . S
C495 H497 0.930 . S
H496 C494 0.931 . S
H497 C495 0.930 . S
H498 C521 0.931 . S
H499 C487 0.929 . S
H500 C522 0.930 . S
H501 C493 0.931 . S
H502 C483 0.930 . S
H503 C512 0.929 . S
H504 C488 0.931 . S
H505 C489 0.930 . S
H506 C544 0.930 . S
H507 C485 0.929 . S
H508 C513 0.931 . S
H509 C514 0.930 . S
N510 Gd490 2.622 . S
N510 C511 1.369 . S
N510 C512 1.338 . S
C511 N510 1.369 . S
C511 C515 1.415 . S
C511 C518 1.422 . S
C512 H503 0.929 . S
C512 N510 1.338 . S
C512 C514 1.378 . S
C513 H508 0.931 . S
C513 C514 1.348 . S
C513 C515 1.413 . S
C514 H509 0.930 . S
C514 C512 1.378 . S
C514 C513 1.348 . S
C515 C511 1.415 . S
C515 C513 1.413 . S
C515 C545 1.437 . S
H516 C545 0.929 . S
N517 Gd490 2.570 . S
N517 C518 1.359 . S
N517 C521 1.343 . S
C518 C511 1.422 . S
C518 N517 1.359 . S
C518 C520 1.421 . S
C519 C520 1.422 . S
C519 C522 1.321 . S
C519 H546 0.931 . S
C520 C518 1.421 . S
C520 C519 1.422 . S
C520 C544 1.417 . S
C521 H498 0.931 . S
C521 N517 1.343 . S
C521 C522 1.390 . S
C522 H500 0.930 . S
C522 C519 1.321 . S
C522 C521 1.390 . S
O523 Gd491 2.386 . S
O523 C535 1.265 . S
O524 Gd490 2.353 . S
O524 C535 1.242 1_455 S
O525 Gd490 2.468 . S
O525 C543 1.263 . S
O526 Gd490 2.427 . S
O526 C543 1.252 . S
O527 Gd491 2.307 1_455 S
O527 C536 1.261 . S
O528 Gd490 2.388 . S
O528 C536 1.252 . S
O529 Gd490 2.386 . S
O529 C547 1.265 . S
O530 Gd491 2.353 1_455 S
O530 C547 1.242 . S
O531 Gd491 2.468 . S
O531 C555 1.263 . S
O532 Gd491 2.427 . S
O532 C555 1.252 . S
O533 Gd490 2.307 . S
O533 C548 1.261 1_455 S
O534 Gd491 2.388 . S
O534 C548 1.252 . S
C535 O523 1.265 . S
C535 O524 1.242 1_655 S
C536 O527 1.261 . S
C536 O528 1.252 . S
C537 C540 1.394 . S
C537 C542 1.370 . S
C537 C543 1.500 . S
C538 C541 1.383 . S
C538 C542 1.395 . S
C539 C540 1.396 . S
C539 C541 1.365 . S
C539 H556 0.929 . S
C540 C537 1.394 . S
C540 C539 1.396 . S
C540 H557 0.930 . S
C541 C538 1.383 . S
C541 C539 1.365 . S
C541 H558 0.931 . S
C542 C537 1.370 . S
C542 C538 1.395 . S
C542 H559 0.930 . S
C543 Gd490 2.805 . S
C543 O525 1.263 . S
C543 O526 1.252 . S
C543 C537 1.500 . S
C544 H506 0.930 . S
C544 C520 1.417 . S
C544 C545 1.329 . S
C545 C515 1.437 . S
C545 H516 0.929 . S
C545 C544 1.329 . S
H546 C519 0.931 . S
C547 O529 1.265 . S
C547 O530 1.242 . S
C548 O533 1.261 1_655 S
C548 O534 1.252 . S
C549 C552 1.394 . S
C549 C554 1.370 . S
C549 C555 1.500 . S
C550 C553 1.383 . S
C550 C554 1.395 . S
C551 C552 1.396 . S
C551 C553 1.365 . S
C551 H560 0.929 . S
C552 C549 1.394 . S
C552 C551 1.396 . S
C552 H561 0.930 . S
C553 C550 1.383 . S
C553 C551 1.365 . S
C553 H562 0.931 . S
C554 C549 1.370 . S
C554 C550 1.395 . S
C554 H563 0.930 . S
C555 Gd491 2.805 . S
C555 O531 1.263 . S
C555 O532 1.252 . S
C555 C549 1.500 . S
H556 C539 0.929 . S
H557 C540 0.930 . S
H558 C541 0.931 . S
H559 C542 0.930 . S
H560 C551 0.929 . S
H561 C552 0.930 . S
H562 C553 0.931 . S
H563 C554 0.930 . S
C564 C566 1.422 . S
C564 C568 1.415 . S
C564 N570 1.369 . S
C565 C566 1.421 . S
C565 C567 1.417 . S
C565 C577 1.422 . S
C566 C564 1.422 . S
C566 C565 1.421 . S
C566 N576 1.359 . S
C567 C565 1.417 . S
C567 C569 1.329 . S
C567 H586 0.930 . S
C568 C564 1.415 . S
C568 C569 1.437 . S
C568 C572 1.413 . S
C569 C567 1.329 . S
C569 C568 1.437 . S
C569 H591 0.929 . S
N570 C564 1.369 . S
N570 C571 1.338 . S
N570 Gd575 2.622 . S
C571 N570 1.338 . S
C571 C573 1.378 . S
C571 H583 0.929 . S
C572 C568 1.413 . S
C572 C573 1.348 . S
C572 H588 0.931 . S
C573 C571 1.378 . S
C573 C572 1.348 . S
C573 H589 0.930 . S
Gd574 N594 2.622 . S
Gd574 N601 2.570 . S
Gd574 O608 2.353 . S
Gd574 O609 2.468 . S
Gd574 O610 2.427 . S
Gd574 O612 2.388 . S
Gd574 O613 2.386 . S
Gd574 O617 2.307 . S
Gd574 C627 2.805 . S
Gd575 N570 2.622 . S
Gd575 N576 2.570 . S
Gd575 O607 2.386 . S
Gd575 O611 2.307 . S
Gd575 O614 2.353 . S
Gd575 O615 2.468 . S
Gd575 O616 2.427 . S
Gd575 O618 2.388 . S
Gd575 C639 2.805 . S
N576 C566 1.359 . S
N576 Gd575 2.570 . S
N576 C578 1.343 . S
C577 C565 1.422 . S
C577 C579 1.321 . S
C577 H585 0.931 . S
C578 N576 1.343 . S
C578 C579 1.390 . S
C578 H580 0.931 . S
C579 C577 1.321 . S
C579 C578 1.390 . S
C579 H581 0.930 . S
H580 C578 0.931 . S
H581 C579 0.930 . S
H582 C605 0.931 . S
H583 C571 0.929 . S
H584 C606 0.930 . S
H585 C577 0.931 . S
H586 C567 0.930 . S
H587 C596 0.929 . S
H588 C572 0.931 . S
H589 C573 0.930 . S
H590 C628 0.930 . S
H591 C569 0.929 . S
H592 C597 0.931 . S
H593 C598 0.930 . S
N594 Gd574 2.622 . S
N594 C595 1.369 . S
N594 C596 1.338 . S
C595 N594 1.369 . S
C595 C599 1.415 . S
C595 C602 1.422 . S
C596 H587 0.929 . S
C596 N594 1.338 . S
C596 C598 1.378 . S
C597 H592 0.931 . S
C597 C598 1.348 . S
C597 C599 1.413 . S
C598 H593 0.930 . S
C598 C596 1.378 . S
C598 C597 1.348 . S
C599 C595 1.415 . S
C599 C597 1.413 . S
C599 C629 1.437 . S
H600 C629 0.929 . S
N601 Gd574 2.570 . S
N601 C602 1.359 . S
N601 C605 1.343 . S
C602 C595 1.422 . S
C602 N601 1.359 . S
C602 C604 1.421 . S
C603 C604 1.422 . S
C603 C606 1.321 . S
C603 H630 0.931 . S
C604 C602 1.421 . S
C604 C603 1.422 . S
C604 C628 1.417 . S
C605 H582 0.931 . S
C605 N601 1.343 . S
C605 C606 1.390 . S
C606 H584 0.930 . S
C606 C603 1.321 . S
C606 C605 1.390 . S
O607 Gd575 2.386 . S
O607 C619 1.265 . S
O608 Gd574 2.353 . S
O608 C619 1.242 . S
O609 Gd574 2.468 . S
O609 C627 1.263 . S
O610 Gd574 2.427 . S
O610 C627 1.252 . S
O611 Gd575 2.307 . S
O611 C620 1.261 . S
O612 Gd574 2.388 . S
O612 C620 1.252 . S
O613 Gd574 2.386 . S
O613 C631 1.265 . S
O614 Gd575 2.353 . S
O614 C631 1.242 . S
O615 Gd575 2.468 . S
O615 C639 1.263 . S
O616 Gd575 2.427 . S
O616 C639 1.252 . S
O617 Gd574 2.307 . S
O617 C632 1.261 . S
O618 Gd575 2.388 . S
O618 C632 1.252 . S
C619 O607 1.265 . S
C619 O608 1.242 . S
C620 O611 1.261 . S
C620 O612 1.252 . S
C621 C624 1.394 . S
C621 C626 1.370 . S
C621 C627 1.500 . S
C622 C625 1.383 . S
C622 C626 1.395 . S
C623 C624 1.396 . S
C623 C625 1.365 . S
C623 H640 0.929 . S
C624 C621 1.394 . S
C624 C623 1.396 . S
C624 H641 0.930 . S
C625 C622 1.383 . S
C625 C623 1.365 . S
C625 H642 0.931 . S
C626 C621 1.370 . S
C626 C622 1.395 . S
C626 H643 0.930 . S
C627 Gd574 2.805 . S
C627 O609 1.263 . S
C627 O610 1.252 . S
C627 C621 1.500 . S
C628 H590 0.930 . S
C628 C604 1.417 . S
C628 C629 1.329 . S
C629 C599 1.437 . S
C629 H600 0.929 . S
C629 C628 1.329 . S
H630 C603 0.931 . S
C631 O613 1.265 . S
C631 O614 1.242 . S
C632 O617 1.261 . S
C632 O618 1.252 . S
C633 C636 1.394 . S
C633 C638 1.370 . S
C633 C639 1.500 . S
C634 C637 1.383 . S
C634 C638 1.395 . S
C635 C636 1.396 . S
C635 C637 1.365 . S
C635 H644 0.929 . S
C636 C633 1.394 . S
C636 C635 1.396 . S
C636 H645 0.930 . S
C637 C634 1.383 . S
C637 C635 1.365 . S
C637 H646 0.931 . S
C638 C633 1.370 . S
C638 C634 1.395 . S
C638 H647 0.930 . S
C639 Gd575 2.805 . S
C639 O615 1.263 . S
C639 O616 1.252 . S
C639 C633 1.500 . S
H640 C623 0.929 . S
H641 C624 0.930 . S
H642 C625 0.931 . S
H643 C626 0.930 . S
H644 C635 0.929 . S
H645 C636 0.930 . S
H646 C637 0.931 . S
H647 C638 0.930 . S
C648 C649 1.387 . S
C648 H652 0.950 . S
C648 C657 1.390 . S
C649 C648 1.387 . S
C649 C651 1.387 . S
H650 C657 0.950 . S
C651 C649 1.387 . S
C651 C653 1.390 . S
C651 H655 0.950 1_545 S
H652 C648 0.950 . S
C653 C651 1.390 . S
C653 C654 1.387 . S
C653 H656 0.950 . S
C654 C653 1.387 . S
C654 C657 1.387 . S
H655 C651 0.950 1_565 S
H656 C653 0.950 . S
C657 C648 1.390 . S
C657 H650 0.950 . S
C657 C654 1.387 . S
C658 C659 1.387 . S
C658 H662 0.950 . S
C658 C667 1.390 . S
C659 C658 1.387 . S
C659 C661 1.387 . S
H660 C667 0.950 . S
C661 C659 1.387 . S
C661 C663 1.390 . S
C661 H665 0.950 . S
H662 C658 0.950 . S
C663 C661 1.390 . S
C663 C664 1.387 . S
C663 H666 0.950 . S
C664 C663 1.387 . S
C664 C667 1.387 . S
H665 C661 0.950 . S
H666 C663 0.950 . S
C667 C658 1.390 . S
C667 H660 0.950 . S
C667 C664 1.387 . S
C668 C669 1.387 . S
C668 H672 0.950 . S
C668 C677 1.390 . S
C669 C668 1.387 . S
C669 C671 1.387 . S
H670 C677 0.950 . S
C671 C669 1.387 . S
C671 C673 1.390 . S
C671 H675 0.950 . S
H672 C668 0.950 . S
C673 C671 1.390 . S
C673 C674 1.387 . S
C673 H676 0.950 . S
C674 C673 1.387 . S
C674 C677 1.387 . S
H675 C671 0.950 . S
H676 C673 0.950 . S
C677 C668 1.390 . S
C677 H670 0.950 . S
C677 C674 1.387 . S
C678 C679 1.387 . S
C678 H682 0.950 . S
C678 C687 1.390 . S
C679 C678 1.387 . S
C679 C681 1.387 . S
H680 C687 0.950 . S
C681 C679 1.387 . S
C681 C683 1.390 . S
C681 H685 0.950 . S
H682 C678 0.950 . S
C683 C681 1.390 . S
C683 C684 1.387 . S
C683 H686 0.950 . S
C684 C683 1.387 . S
C684 C687 1.387 . S
H685 C681 0.950 . S
H686 C683 0.950 . S
C687 C678 1.390 . S
C687 H680 0.950 . S
C687 C684 1.387 . S
C688 C689 1.387 . S
C688 H692 0.950 . S
C688 C697 1.390 . S
C689 C688 1.387 . S
C689 C691 1.387 . S
H690 C697 0.950 . S
C691 C689 1.387 . S
C691 C693 1.390 . S
C691 H695 0.967 . S
H692 C688 0.950 . S
C693 C691 1.390 . S
C693 C694 1.387 . S
C693 H696 0.950 1_655 S
C694 C693 1.387 . S
C694 C697 1.387 . S
H695 C691 0.967 . S
H696 C693 0.950 1_455 S
C697 C688 1.390 . S
C697 H690 0.950 . S
C697 C694 1.387 . S
C698 C699 1.387 . S
C698 H702 0.950 . S
C698 C707 1.390 . S
C699 C698 1.387 . S
C699 C701 1.387 . S
H700 C707 0.950 . S
C701 C699 1.387 . S
C701 C703 1.390 . S
C701 H705 0.950 . S
H702 C698 0.950 . S
C703 C701 1.390 . S
C703 C704 1.387 . S
C703 H706 0.950 . S
C704 C703 1.387 . S
C704 C707 1.387 . S
H705 C701 0.950 . S
H706 C703 0.950 . S
C707 C698 1.390 . S
C707 H700 0.950 . S
C707 C704 1.387 . S
C708 C709 1.387 . S
C708 H712 0.950 . S
C708 C717 1.390 . S
C709 C708 1.387 . S
C709 C711 1.387 . S
H710 C717 0.950 . S
C711 C709 1.387 . S
C711 C713 1.390 . S
C711 H715 0.950 . S
H712 C708 0.950 . S
C713 C711 1.390 . S
C713 C714 1.387 . S
C713 H716 0.950 . S
C714 C713 1.387 . S
C714 C717 1.387 . S
H715 C711 0.950 . S
H716 C713 0.950 . S
C717 C708 1.390 . S
C717 H710 0.950 . S
C717 C714 1.387 . S
C718 C719 1.387 . S
C718 H722 0.950 1_565 S
C718 C727 1.390 . S
C719 C718 1.387 . S
C719 C721 1.387 . S
H720 C727 0.950 . S
C721 C719 1.387 . S
C721 C723 1.390 . S
C721 H725 0.950 . S
H722 C718 0.950 1_545 S
C723 C721 1.390 . S
C723 C724 1.387 . S
C723 H726 0.950 . S
C724 C723 1.387 . S
C724 C727 1.387 . S
H725 C721 0.950 . S
H726 C723 0.950 . S
C727 C718 1.390 . S
C727 H720 0.950 . S
C727 C724 1.387 . S
C728 C729 1.387 . S
C728 H732 0.950 . S
C728 C737 1.390 . S
C729 C728 1.387 . S
C729 C731 1.387 . S
H730 C737 0.950 . S
C731 C729 1.387 . S
C731 C733 1.390 . S
C731 H735 0.950 . S
H732 C728 0.950 . S
C733 C731 1.390 . S
C733 C734 1.387 . S
C733 H736 0.950 . S
C734 C733 1.387 . S
C734 C737 1.387 . S
H735 C731 0.950 . S
H736 C733 0.950 . S
C737 C728 1.390 . S
C737 H730 0.950 . S
C737 C734 1.387 . S
C738 C739 1.387 . S
C738 H742 0.950 . S
C738 C747 1.390 . S
C739 C738 1.387 . S
C739 C741 1.387 . S
H740 C747 0.950 . S
C741 C739 1.387 . S
C741 C743 1.390 . S
C741 H745 0.950 . S
H742 C738 0.950 . S
C743 C741 1.390 . S
C743 C744 1.387 . S
C743 H746 0.950 . S
C744 C743 1.387 . S
C744 C747 1.387 . S
H745 C741 0.950 . S
H746 C743 0.950 . S
C747 C738 1.390 . S
C747 H740 0.950 . S
C747 C744 1.387 . S
C748 C749 1.387 . S
C748 H752 0.950 . S
C748 C757 1.390 . S
C749 C748 1.387 . S
C749 C751 1.387 . S
H750 C757 0.950 . S
C751 C749 1.387 . S
C751 C753 1.390 . S
C751 H755 0.950 . S
H752 C748 0.950 . S
C753 C751 1.390 . S
C753 C754 1.387 . S
C753 H756 0.950 . S
C754 C753 1.387 . S
C754 C757 1.387 . S
H755 C751 0.950 . S
H756 C753 0.950 . S
C757 C748 1.390 . S
C757 H750 0.950 . S
C757 C754 1.387 . S
C758 C759 1.387 . S
C758 H762 0.950 . S
C758 C767 1.390 . S
C759 C758 1.387 . S
C759 C761 1.387 . S
H760 C767 0.950 . S
C761 C759 1.387 . S
C761 C763 1.390 . S
C761 H765 0.950 . S
H762 C758 0.950 . S
C763 C761 1.390 . S
C763 C764 1.387 . S
C763 H766 0.950 . S
C764 C763 1.387 . S
C764 C767 1.387 . S
H765 C761 0.950 . S
H766 C763 0.950 . S
C767 C758 1.390 . S
C767 H760 0.950 . S
C767 C764 1.387 . S
C768 C769 1.387 . S
C768 H772 0.950 . S
C768 C777 1.390 . S
C769 C768 1.387 . S
C769 C771 1.387 . S
H770 C777 0.950 . S
C771 C769 1.387 . S
C771 C773 1.390 . S
C771 H775 0.950 . S
H772 C768 0.950 . S
C773 C771 1.390 . S
C773 C774 1.387 . S
C773 H776 0.950 . S
C774 C773 1.387 . S
C774 C777 1.387 . S
H775 C771 0.950 . S
H776 C773 0.950 . S
C777 C768 1.390 . S
C777 H770 0.950 . S
C777 C774 1.387 . S
C778 C779 1.387 . S
C778 H782 0.950 . S
C778 C787 1.390 . S
C779 C778 1.387 . S
C779 C781 1.387 . S
H780 C787 0.950 . S
C781 C779 1.387 . S
C781 C783 1.390 . S
C781 H785 0.950 . S
H782 C778 0.950 . S
C783 C781 1.390 . S
C783 C784 1.387 . S
C783 H786 0.950 . S
C784 C783 1.387 . S
C784 C787 1.387 . S
H785 C781 0.950 . S
H786 C783 0.950 . S
C787 C778 1.390 . S
C787 H780 0.950 . S
C787 C784 1.387 . S
C788 C789 1.387 . S
C788 H792 0.950 . S
C788 C797 1.390 . S
C789 C788 1.387 . S
C789 C791 1.387 . S
H790 C797 0.950 . S
C791 C789 1.387 . S
C791 C793 1.390 . S
C791 H795 0.950 . S
H792 C788 0.950 . S
C793 C791 1.390 . S
C793 C794 1.387 . S
C793 H796 0.950 . S
C794 C793 1.387 . S
C794 C797 1.387 . S
H795 C791 0.950 . S
H796 C793 0.950 . S
C797 C788 1.390 . S
C797 H790 0.950 . S
C797 C794 1.387 . S
C798 C799 1.387 . S
C798 H802 0.950 . S
C798 C807 1.390 . S
C799 C798 1.387 . S
C799 C801 1.387 . S
H800 C807 0.950 . S
C801 C799 1.387 . S
C801 C803 1.390 . S
C801 H805 0.950 . S
H802 C798 0.950 . S
C803 C801 1.390 . S
C803 C804 1.387 . S
C803 H806 0.950 . S
C804 C803 1.387 . S
C804 C807 1.387 . S
H805 C801 0.950 . S
H806 C803 0.950 . S
C807 C798 1.390 . S
C807 H800 0.950 . S
C807 C804 1.387 . S
C808 C809 1.387 . S
C808 H812 0.950 . S
C808 C817 1.390 . S
C809 C808 1.387 . S
C809 C811 1.387 . S
H810 C817 0.950 . S
C811 C809 1.387 . S
C811 C813 1.390 . S
C811 H815 0.950 . S
H812 C808 0.950 . S
C813 C811 1.390 . S
C813 C814 1.387 . S
C813 H816 0.959 . S
C814 C813 1.387 . S
C814 C817 1.387 . S
H815 C811 0.950 . S
H816 C813 0.959 . S
C817 C808 1.390 . S
C817 H810 0.950 . S
C817 C814 1.387 . S
C818 C819 1.387 . S
C818 H822 0.950 . S
C818 C827 1.390 . S
C819 C818 1.387 . S
C819 C821 1.387 . S
H820 C827 0.950 . S
C821 C819 1.387 . S
C821 C823 1.390 . S
C821 H825 0.950 . S
H822 C818 0.950 . S
C823 C821 1.390 . S
C823 C824 1.387 . S
C823 H826 0.950 . S
C824 C823 1.387 . S
C824 C827 1.387 . S
H825 C821 0.950 . S
H826 C823 0.950 . S
C827 C818 1.390 . S
C827 H820 0.950 . S
C827 C824 1.387 . S
C828 C829 1.387 . S
C828 H832 0.950 . S
C828 C837 1.390 . S
C829 C828 1.387 . S
C829 C831 1.387 . S
H830 C837 0.950 . S
C831 C829 1.387 . S
C831 C833 1.390 . S
C831 H835 0.950 . S
H832 C828 0.950 . S
C833 C831 1.390 . S
C833 C834 1.387 . S
C833 H836 0.950 . S
C834 C833 1.387 . S
C834 C837 1.387 . S
H835 C831 0.950 . S
H836 C833 0.950 . S
C837 C828 1.390 . S
C837 H830 0.950 . S
C837 C834 1.387 . S
C838 C839 1.387 . S
C838 H842 0.950 . S
C838 C847 1.390 . S
C839 C838 1.387 . S
C839 C841 1.387 . S
H840 C847 0.950 . S
C841 C839 1.387 . S
C841 C843 1.390 . S
C841 H845 0.950 . S
H842 C838 0.950 . S
C843 C841 1.390 . S
C843 C844 1.387 . S
C843 H846 0.950 . S
C844 C843 1.387 . S
C844 C847 1.387 . S
H845 C841 0.950 . S
H846 C843 0.950 . S
C847 C838 1.390 . S
C847 H840 0.950 . S
C847 C844 1.387 . S
C848 C849 1.387 . S
C848 H852 0.950 . S
C848 C857 1.390 . S
C849 C848 1.387 . S
C849 C851 1.387 . S
H850 C857 0.950 . S
C851 C849 1.387 . S
C851 C853 1.390 . S
C851 H855 0.950 . S
H852 C848 0.950 . S
C853 C851 1.390 . S
C853 C854 1.387 . S
C853 H856 0.950 . S
C854 C853 1.387 . S
C854 C857 1.387 . S
H855 C851 0.950 . S
H856 C853 0.950 . S
C857 C848 1.390 . S
C857 H850 0.950 . S
C857 C854 1.387 . S
C858 C859 1.387 . S
C858 H862 0.950 . S
C858 C867 1.390 . S
C859 C858 1.387 . S
C859 C861 1.387 . S
H860 C867 0.950 . S
C861 C859 1.387 . S
C861 C863 1.390 . S
C861 H865 0.950 . S
H862 C858 0.950 . S
C863 C861 1.390 . S
C863 C864 1.387 . S
C863 H866 0.950 . S
C864 C863 1.387 . S
C864 C867 1.387 . S
H865 C861 0.950 . S
H866 C863 0.950 . S
C867 C858 1.390 . S
C867 H860 0.950 . S
C867 C864 1.387 . S
C868 C869 1.387 . S
C868 H872 0.950 . S
C868 C877 1.390 . S
C869 C868 1.387 . S
C869 C871 1.387 . S
H870 C877 0.950 . S
C871 C869 1.387 . S
C871 C873 1.390 . S
C871 H875 0.950 . S
H872 C868 0.950 . S
C873 C871 1.390 . S
C873 C874 1.387 . S
C873 H876 0.950 . S
C874 C873 1.387 . S
C874 C877 1.387 . S
H875 C871 0.950 . S
H876 C873 0.950 . S
C877 C868 1.390 . S
C877 H870 0.950 . S
C877 C874 1.387 . S
C878 C879 1.387 . S
C878 H882 0.950 . S
C878 C887 1.390 . S
C879 C878 1.387 . S
C879 C881 1.387 . S
H880 C887 0.950 . S
C881 C879 1.387 . S
C881 C883 1.390 . S
C881 H885 0.950 . S
H882 C878 0.950 . S
C883 C881 1.390 . S
C883 C884 1.387 . S
C883 H886 0.950 . S
C884 C883 1.387 . S
C884 C887 1.387 . S
H885 C881 0.950 . S
H886 C883 0.950 . S
C887 C878 1.390 . S
C887 H880 0.950 . S
C887 C884 1.387 . S
C649 C235 1.486 1_545 S
C654 C368 1.475 . S
C664 C452 1.474 . S
C659 C289 1.485 . S
C674 C451 1.482 . S
C669 C157 1.480 . S
C679 C211 1.481 1_545 S
C684 C367 1.482 . S
C694 C548 1.475 . S
C689 C79 1.487 1_565 S
C704 C632 1.478 . S
C699 C118 1.491 . S
C709 C1 1.483 . S
C714 C631 1.481 . S
C719 C40 1.487 1_565 S
C724 C547 1.486 . S
C734 C370 1.315 . S
C729 C55 1.519 . S
C744 C454 1.317 . S
C739 C16 1.519 . S
C754 C466 1.396 . S
C749 C133 1.535 . S
C764 C382 1.396 . S
C759 C94 1.535 . S
C774 C550 1.316 . S
C769 C196 1.525 . S
C779 C172 1.523 . S
C784 C634 1.317 . S
C794 C622 1.403 . S
C789 C274 1.543 . S
C799 C250 1.540 . S
C804 C538 1.403 . S
C814 C379 1.578 . S
C809 C21 1.573 . S
C824 C463 1.582 . S
C819 C60 1.576 . S
C829 C99 1.560 . S
C834 C464 1.561 . S
C844 C380 1.565 . S
C839 C138 1.563 . S
C854 C535 1.585 . S
C849 C177 1.571 . S
C859 C216 1.574 . S
C864 C619 1.585 . S
C869 C255 1.561 . S
C874 C620 1.567 . S
C879 C294 1.561 . S
C884 C536 1.568 . S
