# Generated by pormake.
# Topology ant, (3,6)-cn, num edge types: 1
# Building blocks:
#     Node 0, Type 0, BuildingBlock: BELTOD_clean_linker_0, # of connection points: 3
#     Node 1, Type 0, BuildingBlock: BELTOD_clean_linker_0, # of connection points: 3
#     Node 2, Type 0, BuildingBlock: BELTOD_clean_linker_0, # of connection points: 3
#     Node 3, Type 0, BuildingBlock: BELTOD_clean_linker_0, # of connection points: 3
#     Node 4, Type 0, BuildingBlock: BELTOD_clean_linker_0, # of connection points: 3
#     Node 5, Type 0, BuildingBlock: BELTOD_clean_linker_0, # of connection points: 3
#     Node 6, Type 0, BuildingBlock: BELTOD_clean_linker_0, # of connection points: 3
#     Node 7, Type 0, BuildingBlock: BELTOD_clean_linker_0, # of connection points: 3
#     Node 8, Type 1, BuildingBlock: MIDCAF_clean_sbu_0, # of connection points: 6
#     Node 9, Type 1, BuildingBlock: MIDCAF_clean_sbu_0, # of connection points: 6
#     Node 10, Type 1, BuildingBlock: MIDCAF_clean_sbu_0, # of connection points: 6
#     Node 11, Type 1, BuildingBlock: MIDCAF_clean_sbu_0, # of connection points: 6
#     Edge 12, Type (0, 1), BuildingBlock: OJICUG_clean_linker_0, # of connection points: 2
#     Edge 13, Type (0, 1), BuildingBlock: OJICUG_clean_linker_0, # of connection points: 2
#     Edge 14, Type (0, 1), BuildingBlock: OJICUG_clean_linker_0, # of connection points: 2
#     Edge 15, Type (0, 1), BuildingBlock: OJICUG_clean_linker_0, # of connection points: 2
#     Edge 16, Type (0, 1), BuildingBlock: OJICUG_clean_linker_0, # of connection points: 2
#     Edge 17, Type (0, 1), BuildingBlock: OJICUG_clean_linker_0, # of connection points: 2
#     Edge 18, Type (0, 1), BuildingBlock: OJICUG_clean_linker_0, # of connection points: 2
#     Edge 19, Type (0, 1), BuildingBlock: OJICUG_clean_linker_0, # of connection points: 2
#     Edge 20, Type (0, 1), BuildingBlock: OJICUG_clean_linker_0, # of connection points: 2
#     Edge 21, Type (0, 1), BuildingBlock: OJICUG_clean_linker_0, # of connection points: 2
#     Edge 22, Type (0, 1), BuildingBlock: OJICUG_clean_linker_0, # of connection points: 2
#     Edge 23, Type (0, 1), BuildingBlock: OJICUG_clean_linker_0, # of connection points: 2
#     Edge 24, Type (0, 1), BuildingBlock: OJICUG_clean_linker_0, # of connection points: 2
#     Edge 25, Type (0, 1), BuildingBlock: OJICUG_clean_linker_0, # of connection points: 2
#     Edge 26, Type (0, 1), BuildingBlock: OJICUG_clean_linker_0, # of connection points: 2
#     Edge 27, Type (0, 1), BuildingBlock: OJICUG_clean_linker_0, # of connection points: 2
#     Edge 28, Type (0, 1), BuildingBlock: OJICUG_clean_linker_0, # of connection points: 2
#     Edge 29, Type (0, 1), BuildingBlock: OJICUG_clean_linker_0, # of connection points: 2
#     Edge 30, Type (0, 1), BuildingBlock: OJICUG_clean_linker_0, # of connection points: 2
#     Edge 31, Type (0, 1), BuildingBlock: OJICUG_clean_linker_0, # of connection points: 2
#     Edge 32, Type (0, 1), BuildingBlock: OJICUG_clean_linker_0, # of connection points: 2
#     Edge 33, Type (0, 1), BuildingBlock: OJICUG_clean_linker_0, # of connection points: 2
#     Edge 34, Type (0, 1), BuildingBlock: OJICUG_clean_linker_0, # of connection points: 2
#     Edge 35, Type (0, 1), BuildingBlock: OJICUG_clean_linker_0, # of connection points: 2
# Relax obj value: 0.095
# Max RMSD: 0.156
# Mean RMSD: 0.098
data_MOF--net-ant--node1-MIDCAF_clean_sbu_0--node2-BELTOD_clean_linker_0--edge1-OJICUG_clean_linker_0
_symmetry_space_group_name_H-M    P1
_symmetry_Int_Tables_number       1
_symmetry_cell_setting            triclinic
loop_
_symmetry_equiv_pos_as_xyz
'x, y, z'
_cell_length_a     24.241878
_cell_length_b     24.094387
_cell_length_c     64.906178
_cell_angle_alpha  90.520806
_cell_angle_beta   93.975154
_cell_angle_gamma 89.833443
loop_
_atom_site_label
_atom_site_type_symbol
_atom_site_fract_x
_atom_site_fract_y
_atom_site_fract_z
_atom_type_partial_charge
P0 P 0.30356 0.22115 0.05041 0.0
H1 H 0.30533 0.27037 0.09175 0.0
H2 H 0.27336 0.35926 0.1047 0.0
H3 H 0.20756 0.40178 0.04327 0.0
H4 H 0.24053 0.3127 0.03035 0.0
H5 H 0.38407 0.13304 0.06032 0.0
H6 H 0.38025 0.04907 0.08093 0.0
H7 H 0.2187 0.09862 0.09905 0.0
H8 H 0.2247 0.18358 0.07946 0.0
H9 H 0.32637 0.22676 0.00686 0.0
H10 H 0.1951 0.16798 0.0425 0.0
O11 O 0.36844 0.23541 0.0452 0.0
H12 H 0.27155 0.20441 0.97512 0.0
H13 H 0.14056 0.14325 0.01074 0.0
C14 C 0.27394 0.28407 0.06022 0.0
C15 C 0.28306 0.29826 0.08113 0.0
C16 C 0.2646 0.34923 0.08851 0.0
C17 C 0.23715 0.38757 0.07507 0.0
C18 C 0.22846 0.37334 0.05404 0.0
C19 C 0.24686 0.32211 0.04668 0.0
C20 C 0.30483 0.16476 0.0685 0.0
C21 C 0.34857 0.12646 0.06924 0.0
C22 C 0.34605 0.07806 0.08089 0.0
C23 C 0.29908 0.06643 0.09168 0.0
C24 C 0.25618 0.10619 0.09139 0.0
C25 C 0.2592 0.15486 0.08 0.0
C26 C 0.26514 0.19864 0.02708 0.0
C27 C 0.28626 0.20774 0.00788 0.0
C28 C 0.25491 0.19425 0.98967 0.0
C29 C 0.20162 0.17135 0.99028 0.0
C30 C 0.18127 0.1609 0.00965 0.0
C31 C 0.21261 0.17481 0.02787 0.0
P32 P 0.04191 0.72346 0.31634 0.0
H33 H 0.06413 0.75695 0.35934 0.0
H34 H 0.14752 0.79547 0.37737 0.0
H35 H 0.21333 0.82864 0.31847 0.0
H36 H 0.12968 0.79297 0.30084 0.0
H37 H 0.94657 0.65805 0.32513 0.0
H38 H 0.85293 0.68212 0.33245 0.0
H39 H 0.8876 0.85524 0.32167 0.0
H40 H 0.98333 0.83043 0.3155 0.0
H41 H 0.11981 0.657 0.29518 0.0
H42 H 0.99173 0.77642 0.27856 0.0
O43 O 0.05394 0.66168 0.32722 0.0
H44 H 0.14678 0.6557 0.25967 0.0
H45 H 0.01862 0.77486 0.24274 0.0
C46 C 0.09134 0.77063 0.32879 0.0
C47 C 0.09565 0.77474 0.35038 0.0
C48 C 0.14352 0.79652 0.36066 0.0
C49 C 0.18808 0.81362 0.34943 0.0
C50 C 0.18026 0.81589 0.32776 0.0
C51 C 0.13226 0.79462 0.31754 0.0
C52 C 0.97196 0.74263 0.32024 0.0
C53 C 0.93414 0.70122 0.32437 0.0
C54 C 0.88008 0.7151 0.32823 0.0
C55 C 0.86228 0.77075 0.32757 0.0
C56 C 0.90002 0.81209 0.3226 0.0
C57 C 0.95463 0.79806 0.31902 0.0
C58 C 0.05336 0.71618 0.28943 0.0
C59 C 0.09659 0.68191 0.28377 0.0
C60 C 0.11219 0.68146 0.26355 0.0
C61 C 0.08481 0.71536 0.24861 0.0
C62 C 0.03997 0.74811 0.25403 0.0
C63 C 0.02467 0.74897 0.27444 0.0
P64 P 0.8381 0.71498 0.55053 0.0
H65 H 0.85013 0.76369 0.59209 0.0
H66 H 0.82215 0.85302 0.60613 0.0
H67 H 0.73934 0.89416 0.5471 0.0
H68 H 0.76853 0.80514 0.5331 0.0
H69 H 0.91792 0.62472 0.55323 0.0
H70 H 0.91789 0.53474 0.5702 0.0
H71 H 0.77209 0.58311 0.60065 0.0
H72 H 0.77302 0.67361 0.58384 0.0
H73 H 0.85199 0.71711 0.50613 0.0
H74 H 0.72749 0.66571 0.54622 0.0
O75 O 0.90039 0.7314 0.54299 0.0
H76 H 0.79042 0.6946 0.47609 0.0
H77 H 0.66581 0.64106 0.51611 0.0
C78 C 0.81007 0.77689 0.56175 0.0
C79 C 0.82496 0.7914 0.5823 0.0
C80 C 0.80887 0.84265 0.59029 0.0
C81 C 0.77799 0.88084 0.57779 0.0
C82 C 0.7632 0.86603 0.55715 0.0
C83 C 0.77933 0.81469 0.5492 0.0
C84 C 0.84584 0.65614 0.56745 0.0
C85 C 0.88707 0.61678 0.56413 0.0
C86 C 0.88685 0.56514 0.57375 0.0
C87 C 0.84491 0.55158 0.58672 0.0
C88 C 0.80551 0.59246 0.59101 0.0
C89 C 0.80582 0.64422 0.58134 0.0
C90 C 0.79441 0.69297 0.52841 0.0
C91 C 0.81177 0.69982 0.50848 0.0
C92 C 0.77655 0.68621 0.49125 0.0
C93 C 0.7231 0.66541 0.4936 0.0
C94 C 0.70652 0.6571 0.5137 0.0
C95 C 0.74182 0.67102 0.53094 0.0
P96 P 0.52009 0.27328 0.80695 0.0
H97 H 0.5522 0.28874 0.85069 0.0
H98 H 0.64035 0.31389 0.86874 0.0
H99 H 0.70446 0.35585 0.81033 0.0
H100 H 0.61551 0.33402 0.7927 0.0
H101 H 0.41407 0.25745 0.78418 0.0
H102 H 0.32034 0.28085 0.79255 0.0
H103 H 0.38635 0.37728 0.84505 0.0
H104 H 0.47977 0.35622 0.83592 0.0
H105 H 0.58389 0.18905 0.78737 0.0
H106 H 0.48836 0.33328 0.76843 0.0
O107 O 0.51617 0.21108 0.81786 0.0
H108 H 0.6066 0.17288 0.75198 0.0
H109 H 0.50903 0.31605 0.73245 0.0
C110 C 0.57755 0.30856 0.82033 0.0
C111 C 0.58456 0.30556 0.8419 0.0
C112 C 0.63521 0.31956 0.85218 0.0
C113 C 0.68016 0.33551 0.84098 0.0
C114 C 0.67099 0.3439 0.81956 0.0
C115 C 0.61999 0.33074 0.80935 0.0
C116 C 0.45397 0.30534 0.80935 0.0
C117 C 0.40842 0.28564 0.79696 0.0
C118 C 0.35479 0.29847 0.8019 0.0
C119 C 0.34588 0.33008 0.81967 0.0
C120 C 0.39168 0.35317 0.83116 0.0
C121 C 0.44536 0.3408 0.82603 0.0
C122 C 0.53334 0.2614 0.78039 0.0
C123 C 0.56678 0.21656 0.77545 0.0
C124 C 0.57934 0.20715 0.75512 0.0
C125 C 0.5586 0.24245 0.73923 0.0
C126 C 0.52545 0.28796 0.74429 0.0
C127 C 0.51329 0.29762 0.76479 0.0
P128 P 0.09188 0.7252 0.92167 0.0
H129 H 0.07909 0.66071 0.88339 0.0
H130 H 0.01809 0.58486 0.87272 0.0
H131 H 0.9203 0.6181 0.92476 0.0
H132 H 0.98359 0.69286 0.93584 0.0
H133 H 0.16099 0.81992 0.9133 0.0
H134 H 0.14098 0.91757 0.90691 0.0
H135 H 0.96972 0.88945 0.91842 0.0
H136 H 0.98981 0.79111 0.9238 0.0
H137 H 0.17204 0.65103 0.9433 0.0
H138 H 0.04014 0.76071 0.95904 0.0
O139 O 0.14898 0.71119 0.90958 0.0
H140 H 0.1896 0.6271 0.97985 0.0
H141 H 0.05689 0.73652 0.99531 0.0
C142 C 0.0371 0.68122 0.91079 0.0
C143 C 0.04389 0.65256 0.89229 0.0
C144 C 0.00813 0.60938 0.88602 0.0
C145 C 0.9645 0.59422 0.8981 0.0
C146 C 0.95413 0.62761 0.91534 0.0
C147 C 0.99039 0.67051 0.92171 0.0
C148 C 0.07661 0.79793 0.91848 0.0
C149 C 0.11908 0.83473 0.91441 0.0
C150 C 0.10768 0.89091 0.91104 0.0
C151 C 0.05358 0.91163 0.912 0.0
C152 C 0.01163 0.87486 0.91712 0.0
C153 C 0.02304 0.81851 0.92025 0.0
C154 C 0.10541 0.70845 0.94851 0.0
C155 C 0.14694 0.67005 0.9546 0.0
C156 C 0.15679 0.65614 0.97543 0.0
C157 C 0.12428 0.67948 0.99037 0.0
C158 C 0.082 0.71707 0.98409 0.0
C159 C 0.07276 0.73147 0.96337 0.0
P160 P 0.70032 0.87832 0.19238 0.0
H161 H 0.80494 0.93171 0.18449 0.0
H162 H 0.89304 0.8964 0.17393 0.0
H163 H 0.82604 0.7304 0.17041 0.0
H164 H 0.73735 0.76631 0.18113 0.0
H165 H 0.58791 0.91571 0.19548 0.0
H166 H 0.5008 0.89314 0.17643 0.0
H167 H 0.58972 0.79969 0.13211 0.0
H168 H 0.67682 0.82107 0.15185 0.0
H169 H 0.7428 0.89887 0.23507 0.0
H170 H 0.63221 0.78324 0.20242 0.0
O171 O 0.70728 0.94625 0.19709 0.0
H172 H 0.71981 0.85926 0.26798 0.0
H173 H 0.60659 0.7457 0.235 0.0
C174 C 0.76415 0.85179 0.18327 0.0
C175 C 0.80891 0.88771 0.18141 0.0
C176 C 0.85968 0.86733 0.17561 0.0
C177 C 0.86684 0.81048 0.17147 0.0
C178 C 0.82185 0.77444 0.17341 0.0
C179 C 0.77109 0.7949 0.17942 0.0
C180 C 0.63885 0.86972 0.17523 0.0
C181 C 0.58874 0.89121 0.18142 0.0
C182 C 0.53877 0.87852 0.17037 0.0
C183 C 0.53771 0.84414 0.15271 0.0
C184 C 0.58862 0.8254 0.14584 0.0
C185 C 0.6387 0.8378 0.15707 0.0
C186 C 0.68807 0.84505 0.21637 0.0
C187 C 0.71351 0.865 0.235 0.0
C188 C 0.69999 0.84252 0.25381 0.0
C189 C 0.66059 0.79976 0.25428 0.0
C190 C 0.6374 0.77819 0.23539 0.0
C191 C 0.65151 0.80018 0.21664 0.0
P192 P 0.60299 0.21232 0.42491 0.0
H193 H 0.58795 0.15057 0.38604 0.0
H194 H 0.52611 0.07551 0.37526 0.0
H195 H 0.43029 0.10755 0.42792 0.0
H196 H 0.49445 0.18129 0.43913 0.0
H197 H 0.67169 0.30758 0.4167 0.0
H198 H 0.65152 0.40572 0.41158 0.0
H199 H 0.48244 0.37746 0.42605 0.0
H200 H 0.50248 0.27877 0.43012 0.0
H201 H 0.68271 0.13336 0.44408 0.0
H202 H 0.55416 0.24214 0.4635 0.0
O203 O 0.659 0.19961 0.41201 0.0
H204 H 0.70089 0.10197 0.47981 0.0
H205 H 0.57129 0.21032 0.49888 0.0
C206 C 0.54702 0.17033 0.41375 0.0
C207 C 0.55293 0.14243 0.39503 0.0
C208 C 0.51668 0.09971 0.3887 0.0
C209 C 0.47355 0.08427 0.40097 0.0
C210 C 0.46377 0.11728 0.41836 0.0
C211 C 0.50053 0.15965 0.4248 0.0
C212 C 0.58826 0.28554 0.42325 0.0
C213 C 0.63025 0.32248 0.41878 0.0
C214 C 0.61879 0.37893 0.41614 0.0
C215 C 0.56515 0.39973 0.41823 0.0
C216 C 0.52392 0.36283 0.42387 0.0
C217 C 0.53535 0.30624 0.42627 0.0
C218 C 0.61776 0.19092 0.45122 0.0
C219 C 0.65849 0.1506 0.45601 0.0
C220 C 0.6686 0.13231 0.47635 0.0
C221 C 0.637 0.15307 0.49204 0.0
C222 C 0.59557 0.19269 0.48703 0.0
C223 C 0.58617 0.21151 0.46684 0.0
P224 P 0.22177 0.38094 0.68963 0.0
H225 H 0.25378 0.36482 0.64754 0.0
H226 H 0.34114 0.33757 0.63357 0.0
H227 H 0.41065 0.30294 0.69513 0.0
H228 H 0.32348 0.33146 0.70913 0.0
H229 H 0.12262 0.44848 0.68442 0.0
H230 H 0.02908 0.42881 0.66969 0.0
H231 H 0.08436 0.27011 0.64755 0.0
H232 H 0.17801 0.28953 0.66275 0.0
H233 H 0.17414 0.43676 0.72393 0.0
H234 H 0.23339 0.27268 0.71025 0.0
O235 O 0.23504 0.44884 0.69099 0.0
H236 H 0.14113 0.40398 0.75608 0.0
H237 H 0.20416 0.23988 0.74329 0.0
C238 C 0.28128 0.34847 0.67931 0.0
C239 C 0.28715 0.34981 0.658 0.0
C240 C 0.33722 0.33463 0.65005 0.0
C241 C 0.38251 0.31796 0.66329 0.0
C242 C 0.37611 0.31479 0.68458 0.0
C243 C 0.32614 0.33081 0.69255 0.0
C244 C 0.15763 0.37102 0.67427 0.0
C245 C 0.11513 0.41013 0.67586 0.0
C246 C 0.06161 0.39882 0.66752 0.0
C247 C 0.0496 0.34815 0.65736 0.0
C248 C 0.09275 0.30992 0.65498 0.0
C249 C 0.14625 0.32098 0.66364 0.0
C250 C 0.20777 0.35761 0.715 0.0
C251 C 0.18185 0.39397 0.72824 0.0
C252 C 0.16315 0.37505 0.74677 0.0
C253 C 0.17019 0.31916 0.75257 0.0
C254 C 0.19734 0.28302 0.73934 0.0
C255 C 0.21502 0.30189 0.72056 0.0
Zn256 Zn 0.25188 0.66893 0.14353 0.0
Zn257 Zn 0.13068 0.79111 0.10254 0.0
Zn258 Zn 0.19411 0.73016 0.12267 0.0
C259 C 0.15692 0.70916 0.07541 0.0
C260 C 0.22015 0.85642 0.11431 0.0
O261 O 0.15595 0.72195 0.15252 0.0
O262 O 0.22925 0.69114 0.17102 0.0
C263 C 0.20832 0.5995 0.11406 0.0
O264 O 0.1763 0.68755 0.0925 0.0
O265 O 0.13856 0.75815 0.07511 0.0
O266 O 0.16919 0.86203 0.10944 0.0
O267 O 0.24052 0.80783 0.1181 0.0
O268 O 0.22589 0.59612 0.13274 0.0
O269 O 0.19883 0.6478 0.10608 0.0
O270 O 0.27834 0.76944 0.12755 0.0
O271 O 0.3256 0.69409 0.13629 0.0
C272 C 0.32519 0.74473 0.13151 0.0
O273 O 0.11575 0.74671 0.13926 0.0
O274 O 0.05907 0.77897 0.11405 0.0
C275 C 0.18049 0.70973 0.17015 0.0
C276 C 0.06682 0.76223 0.13234 0.0
Zn277 Zn 0.48229 0.68201 0.35077 0.0
Zn278 Zn 0.60053 0.81715 0.40006 0.0
Zn279 Zn 0.54137 0.74791 0.37718 0.0
C280 C 0.49896 0.86614 0.3953 0.0
C281 C 0.65789 0.8025 0.36552 0.0
O282 O 0.54191 0.66373 0.39111 0.0
O283 O 0.49535 0.61383 0.36694 0.0
C284 C 0.41131 0.76393 0.36497 0.0
O285 O 0.48897 0.82066 0.38512 0.0
O286 O 0.54668 0.87593 0.40343 0.0
O287 O 0.6624 0.82948 0.3823 0.0
O288 O 0.61474 0.77238 0.36104 0.0
O289 O 0.41115 0.72067 0.35387 0.0
O290 O 0.45637 0.78171 0.37441 0.0
O291 O 0.57508 0.74959 0.34631 0.0
O292 O 0.52269 0.69486 0.32558 0.0
C293 C 0.56248 0.72843 0.32827 0.0
O294 O 0.57281 0.7002 0.40482 0.0
O295 O 0.6143 0.76745 0.42349 0.0
C296 C 0.52174 0.61692 0.38438 0.0
C297 C 0.59948 0.7175 0.42152 0.0
Zn298 Zn 0.65744 0.28721 0.59437 0.0
Zn299 Zn 0.76354 0.16653 0.6497 0.0
Zn300 Zn 0.71193 0.22602 0.6204 0.0
C301 C 0.83391 0.25419 0.6417 0.0
C302 C 0.74484 0.09536 0.6157 0.0
O303 O 0.62947 0.25188 0.63221 0.0
O304 O 0.59325 0.31046 0.60903 0.0
C305 C 0.757 0.34034 0.60147 0.0
O306 O 0.79328 0.26608 0.62858 0.0
O307 O 0.83155 0.2124 0.65319 0.0
O308 O 0.76429 0.09592 0.63424 0.0
O309 O 0.72479 0.14027 0.60736 0.0
O310 O 0.71359 0.3435 0.58969 0.0
O311 O 0.76373 0.30011 0.61439 0.0
O312 O 0.69847 0.17431 0.59197 0.0
O313 O 0.64386 0.23039 0.57295 0.0
C314 C 0.66856 0.18455 0.57524 0.0
O315 O 0.66213 0.22482 0.64776 0.0
O316 O 0.70954 0.17282 0.67078 0.0
C317 C 0.58996 0.285 0.62577 0.0
C318 C 0.6679 0.20239 0.66575 0.0
Zn319 Zn 0.9771 0.19632 0.84457 0.0
Zn320 Zn 0.08865 0.32875 0.89689 0.0
Zn321 Zn 0.03227 0.26146 0.87216 0.0
C322 C 0.09047 0.22628 0.91618 0.0
C323 C 0.98541 0.37507 0.89245 0.0
O324 O 0.07025 0.26513 0.84201 0.0
O325 O 0.02047 0.21085 0.82028 0.0
C326 C 0.01303 0.12938 0.87792 0.0
O327 O 0.0614 0.21163 0.89964 0.0
O328 O 0.1075 0.27538 0.91863 0.0
O329 O 0.03129 0.38246 0.90242 0.0
O330 O 0.97811 0.33285 0.88021 0.0
O331 O 0.98833 0.12696 0.86016 0.0
O332 O 0.03212 0.17607 0.88523 0.0
O333 O 0.94718 0.29479 0.86814 0.0
O334 O 0.9051 0.23409 0.84656 0.0
C335 C 0.90343 0.27699 0.8578 0.0
O336 O 0.10635 0.29031 0.85756 0.0
O337 O 0.14819 0.3506 0.87929 0.0
C338 C 0.05989 0.24454 0.82372 0.0
C339 C 0.14654 0.32396 0.86244 0.0
C340 C 0.19866 0.44654 0.10269 0.0
C341 C 0.21982 0.44268 0.08313 0.0
H342 H 0.17749 0.49942 0.12754 0.0
C343 C 0.22836 0.49207 0.07229 0.0
H344 H 0.19009 0.4095 0.11124 0.0
C345 C 0.22009 0.5441 0.08158 0.0
C346 C 0.2035 0.54736 0.10186 0.0
H347 H 0.24466 0.49063 0.05718 0.0
H348 H 0.23053 0.58138 0.07351 0.0
C349 C 0.19092 0.49813 0.11196 0.0
C350 C 0.76192 0.74795 0.32974 0.0
C351 C 0.80607 0.78512 0.33378 0.0
H352 H 0.68196 0.72253 0.33749 0.0
C353 C 0.79768 0.83246 0.34602 0.0
H354 H 0.76631 0.71172 0.31999 0.0
C355 C 0.74774 0.84021 0.35518 0.0
C356 C 0.70545 0.8005 0.35249 0.0
H357 H 0.83075 0.8618 0.34965 0.0
H358 H 0.74342 0.87578 0.36528 0.0
C359 C 0.71275 0.75486 0.33938 0.0
C360 C 0.83908 0.45039 0.57805 0.0
C361 C 0.83678 0.493 0.59294 0.0
H362 H 0.81606 0.36719 0.56944 0.0
C363 C 0.81905 0.47993 0.61251 0.0
H364 H 0.8519 0.45901 0.56275 0.0
C365 C 0.79947 0.42659 0.61643 0.0
C366 C 0.79677 0.38601 0.60075 0.0
H367 H 0.81719 0.51177 0.62433 0.0
H368 H 0.78165 0.41876 0.63098 0.0
C369 C 0.81879 0.39761 0.58187 0.0
C370 C 0.78013 0.36593 0.84371 0.0
C371 C 0.73778 0.33206 0.85049 0.0
H372 H 0.86755 0.37518 0.84112 0.0
C373 C 0.7525 0.28743 0.86362 0.0
H374 H 0.77027 0.40104 0.83381 0.0
C375 C 0.80782 0.27334 0.86792 0.0
C376 C 0.84957 0.30375 0.85939 0.0
H377 H 0.72147 0.25984 0.86898 0.0
H378 H 0.81778 0.23575 0.87647 0.0
C379 C 0.83578 0.35169 0.84808 0.0
C380 C 0.93519 0.50474 0.91306 0.0
C381 C 0.93991 0.53765 0.89546 0.0
H382 H 0.94329 0.42325 0.92561 0.0
C383 C 0.93579 0.51132 0.87593 0.0
H384 H 0.93741 0.52297 0.9284 0.0
C385 C 0.93912 0.45339 0.87442 0.0
C386 C 0.94632 0.42169 0.89243 0.0
H387 H 0.93713 0.53542 0.86197 0.0
H388 H 0.94503 0.43471 0.85949 0.0
C389 C 0.9382 0.44705 0.91151 0.0
C390 C 0.91952 0.75404 0.1467 0.0
C391 C 0.91998 0.78999 0.16388 0.0
H392 H 0.96638 0.71671 0.12341 0.0
C393 C 0.97124 0.81013 0.1724 0.0
H394 H 0.88088 0.73823 0.13962 0.0
C395 C 0.0204 0.7973 0.16317 0.0
C396 C 0.01914 0.76408 0.14528 0.0
H397 H 0.97306 0.83747 0.18577 0.0
H398 H 0.05881 0.81595 0.16927 0.0
C399 C 0.96848 0.74167 0.13742 0.0
C400 C 0.58959 0.50149 0.41634 0.0
C401 C 0.55118 0.45814 0.41253 0.0
H402 H 0.6107 0.58577 0.41006 0.0
C403 C 0.50082 0.46996 0.40137 0.0
H404 H 0.6286 0.49411 0.42505 0.0
C405 C 0.49033 0.52268 0.39334 0.0
C406 C 0.52988 0.56505 0.39618 0.0
H407 H 0.4705 0.43775 0.3978 0.0
H408 H 0.45196 0.52966 0.38413 0.0
C409 C 0.57906 0.5544 0.40815 0.0
C410 C 0.95279 0.33452 0.66701 0.0
C411 C 0.99132 0.3322 0.65182 0.0
H412 H 0.87223 0.31132 0.67552 0.0
C413 C 0.97476 0.3103 0.6322 0.0
H414 H 0.96458 0.35065 0.68231 0.0
C415 C 0.92117 0.28913 0.62816 0.0
C416 C 0.88412 0.28845 0.64384 0.0
H417 H 0.00373 0.3081 0.62024 0.0
H418 H 0.90993 0.27016 0.61327 0.0
C419 C 0.89998 0.31219 0.66314 0.0
C420 C 0.45886 0.35084 0.64275 0.0
C421 C 0.43745 0.30948 0.65497 0.0
H422 H 0.52427 0.37599 0.62458 0.0
C423 C 0.46835 0.26067 0.65876 0.0
H424 H 0.4363 0.38917 0.63982 0.0
C425 C 0.51877 0.25259 0.64969 0.0
C426 C 0.53976 0.29391 0.63723 0.0
H427 H 0.45257 0.22807 0.6681 0.0
H428 H 0.54015 0.21337 0.65179 0.0
C429 C 0.50939 0.34328 0.63409 0.0
C430 C 0.43503 0.85507 0.14276 0.0
C431 C 0.48376 0.82269 0.14322 0.0
H432 H 0.34626 0.85611 0.13857 0.0
C433 C 0.47944 0.76696 0.13674 0.0
H434 H 0.43671 0.89843 0.14729 0.0
C435 C 0.4279 0.74326 0.13144 0.0
C436 C 0.37896 0.77435 0.13251 0.0
H437 H 0.51549 0.74029 0.13704 0.0
H438 H 0.42626 0.69944 0.12755 0.0
C439 C 0.38311 0.83111 0.13748 0.0
C440 C 0.27196 0.37935 0.83812 0.0
C441 C 0.29046 0.33175 0.82797 0.0
H442 H 0.21128 0.41421 0.85701 0.0
C443 C 0.25856 0.28305 0.82793 0.0
H444 H 0.29542 0.41756 0.8383 0.0
C445 C 0.21067 0.28124 0.83857 0.0
C446 C 0.19341 0.32814 0.84934 0.0
H447 H 0.27212 0.24526 0.82064 0.0
H448 H 0.18833 0.24244 0.83904 0.0
C449 C 0.22393 0.37747 0.84881 0.0
C450 C 0.28602 0.84961 0.3514 0.0
C451 C 0.24532 0.81579 0.35938 0.0
H452 H 0.3726 0.85974 0.34726 0.0
C453 C 0.2623 0.77447 0.37367 0.0
H454 H 0.27441 0.88245 0.34066 0.0
C455 C 0.31822 0.76218 0.37756 0.0
C456 C 0.35816 0.79127 0.36747 0.0
H457 H 0.23263 0.7472 0.38008 0.0
H458 H 0.32987 0.72629 0.38684 0.0
C459 C 0.34222 0.83713 0.35532 0.0
C460 C 0.7474 0.94064 0.60672 0.0
C461 C 0.76271 0.93617 0.5863 0.0
H462 H 0.72906 0.99431 0.63171 0.0
C463 C 0.76605 0.98514 0.57467 0.0
H464 H 0.74297 0.90397 0.61598 0.0
C465 C 0.75722 0.03741 0.5837 0.0
C466 C 0.74511 0.04152 0.60449 0.0
H467 H 0.77804 0.98331 0.55892 0.0
H468 H 0.76301 0.07447 0.57483 0.0
C469 C 0.73902 0.99251 0.61569 0.0
C470 C 0.25957 0.00586 0.11844 0.0
C471 C 0.29161 0.01105 0.10129 0.0
H472 H 0.21184 0.9516 0.13617 0.0
C473 C 0.31005 0.96217 0.09175 0.0
H474 H 0.24606 0.04222 0.12665 0.0
C475 C 0.29213 0.91001 0.09785 0.0
C476 C 0.25496 0.90597 0.11335 0.0
H477 H 0.33449 0.96411 0.07844 0.0
H478 H 0.30296 0.87351 0.08911 0.0
C479 C 0.24069 0.95392 0.12417 0.0
C480 C 0.44677 0.99441 0.41622 0.0
C481 C 0.44963 0.02741 0.39852 0.0
H482 H 0.45798 0.91321 0.42877 0.0
C483 C 0.44508 1.00098 0.37902 0.0
H484 H 0.44942 0.0127 0.43154 0.0
C485 C 0.4499 0.94318 0.37754 0.0
C486 C 0.45891 0.91174 0.39553 0.0
H487 H 0.4451 0.02511 0.36502 0.0
H488 H 0.45535 0.92455 0.36255 0.0
C489 C 0.45136 0.93686 0.41469 0.0
C490 C 0.99108 0.98167 0.894 0.0
C491 C 0.04028 0.96994 0.90593 0.0
H492 H 0.94379 0.04147 0.8762 0.0
C493 C 0.07829 0.01335 0.91032 0.0
H494 H 0.96117 0.9494 0.88996 0.0
C495 C 0.06851 0.0663 0.90206 0.0
C496 C 0.0204 0.07701 0.88948 0.0
H497 H 0.11641 0.00605 0.91961 0.0
H498 H 0.09997 0.09772 0.90448 0.0
C499 C 0.98129 0.03448 0.88592 0.0
C500 C 0.10995 0.18327 0.97033 0.0
C501 C 0.16545 0.16566 0.97086 0.0
H502 H 0.04058 0.21414 0.9516 0.0
C503 C 0.18826 0.15208 0.95209 0.0
H504 H 0.0909 0.19437 0.9844 0.0
C505 C 0.1592 0.1638 0.93327 0.0
C506 C 0.10645 0.18792 0.93292 0.0
H507 H 0.23038 0.13708 0.95193 0.0
H508 H 0.18033 0.1597 0.91916 0.0
C509 C 0.08072 0.19424 0.95149 0.0
C510 C 0.16298 0.73079 0.22671 0.0
C511 C 0.10668 0.71937 0.22804 0.0
H512 H 0.22992 0.73762 0.20721 0.0
C513 C 0.07317 0.70889 0.2099 0.0
H514 H 0.18944 0.73963 0.24049 0.0
C515 C 0.09659 0.70713 0.19075 0.0
C516 C 0.15335 0.71701 0.18959 0.0
H517 H 0.02965 0.69966 0.21064 0.0
H518 H 0.071 0.69557 0.17708 0.0
C519 C 0.18605 0.72966 0.20769 0.0
C520 C 0.62877 0.67972 0.47599 0.0
C521 C 0.68317 0.65964 0.4752 0.0
H522 H 0.55741 0.71182 0.45873 0.0
C523 C 0.70148 0.64334 0.45593 0.0
H524 H 0.61319 0.69298 0.49047 0.0
C525 C 0.66929 0.65444 0.43772 0.0
C526 C 0.61779 0.68073 0.43851 0.0
H527 H 0.74267 0.62656 0.4548 0.0
H528 H 0.68729 0.64815 0.42306 0.0
C529 C 0.59642 0.6902 0.45777 0.0
C530 C 0.58185 0.17855 0.71047 0.0
C531 C 0.57509 0.23303 0.71786 0.0
H532 H 0.6172 0.12633 0.68798 0.0
C533 C 0.59064 0.2777 0.7057 0.0
H534 H 0.56879 0.14326 0.71912 0.0
C535 C 0.61701 0.26779 0.68751 0.0
C536 C 0.62842 0.21322 0.68141 0.0
H537 H 0.5861 0.32016 0.71092 0.0
H538 H 0.63197 0.30262 0.67906 0.0
C539 C 0.60905 0.16875 0.69258 0.0
C540 C 0.09247 0.66007 0.0254 0.0
C541 C 0.13621 0.66851 0.01268 0.0
H542 H 0.06585 0.66447 0.05614 0.0
C543 C 0.19008 0.67536 0.02186 0.0
H544 H 0.05071 0.65391 0.01872 0.0
C545 C 0.19876 0.68065 0.04334 0.0
C546 C 0.15379 0.67862 0.05578 0.0
H547 H 0.22453 0.68209 0.01242 0.0
H548 H 0.23942 0.69217 0.04997 0.0
C549 C 0.10121 0.66526 0.0468 0.0
C550 C 0.63428 0.81746 0.29065 0.0
C551 C 0.64097 0.77998 0.27422 0.0
H552 H 0.60421 0.83041 0.32061 0.0
C553 C 0.6249 0.72438 0.27649 0.0
H554 H 0.64529 0.86075 0.28942 0.0
C555 C 0.60033 0.70742 0.29423 0.0
C556 C 0.59238 0.74531 0.3103 0.0
H557 H 0.63049 0.69397 0.26443 0.0
H558 H 0.58718 0.66467 0.29534 0.0
C559 C 0.6104 0.80024 0.30851 0.0
C560 C 0.60614 0.12799 0.52667 0.0
C561 C 0.64957 0.13807 0.51396 0.0
H562 H 0.5794 0.13222 0.55736 0.0
C563 C 0.70345 0.14468 0.52311 0.0
H564 H 0.56438 0.12184 0.51998 0.0
C565 C 0.71212 0.14975 0.5446 0.0
C566 C 0.66705 0.14812 0.55703 0.0
H567 H 0.7377 0.15245 0.51367 0.0
H568 H 0.75251 0.1625 0.55113 0.0
C569 C 0.61487 0.13298 0.54808 0.0
C570 C 0.14195 0.33321 0.78896 0.0
C571 C 0.14606 0.29834 0.77159 0.0
H572 H 0.10905 0.34469 0.81845 0.0
C573 C 0.12344 0.24462 0.77206 0.0
H574 H 0.15942 0.37453 0.78943 0.0
C575 C 0.09686 0.22671 0.78924 0.0
C576 C 0.09181 0.26212 0.80631 0.0
H577 H 0.12447 0.21682 0.7589 0.0
H578 H 0.07936 0.18537 0.789 0.0
C579 C 0.11411 0.31571 0.80588 0.0
loop_
_geom_bond_atom_site_label_1
_geom_bond_atom_site_label_2
_geom_bond_distance
_geom_bond_site_symmetry_2
_ccdc_geom_bond_type
P0 O11 1.490 . S
P0 C14 1.812 . S
P0 C20 1.803 . S
P0 C26 1.819 . S
H1 C15 0.941 . S
H2 C16 0.939 . S
H3 C18 0.940 . S
H4 C19 0.940 . S
H5 C21 0.939 . S
H6 C22 0.942 . S
H7 C24 0.940 . S
H8 C25 0.939 . S
H9 C27 0.941 . S
H10 C31 0.939 . S
O11 P0 1.490 . S
H12 C28 0.939 . S
H13 C30 0.940 . S
C14 P0 1.812 . S
C14 C15 1.389 . S
C14 C19 1.391 . S
C15 H1 0.941 . S
C15 C14 1.389 . S
C15 C16 1.397 . S
C16 H2 0.939 . S
C16 C15 1.397 . S
C16 C17 1.378 . S
C17 C16 1.378 . S
C17 C18 1.378 . S
C18 H3 0.940 . S
C18 C17 1.378 . S
C18 C19 1.396 . S
C19 H4 0.940 . S
C19 C14 1.391 . S
C19 C18 1.396 . S
C20 P0 1.803 . S
C20 C21 1.378 . S
C20 C25 1.400 . S
C21 H5 0.939 . S
C21 C20 1.378 . S
C21 C22 1.361 . S
C22 H6 0.942 . S
C22 C21 1.361 . S
C22 C23 1.369 . S
C23 C22 1.369 . S
C23 C24 1.404 . S
C24 H7 0.940 . S
C24 C23 1.404 . S
C24 C25 1.389 . S
C25 H8 0.939 . S
C25 C20 1.400 . S
C25 C24 1.389 . S
C26 P0 1.819 . S
C26 C27 1.391 . S
C26 C31 1.391 . S
C27 H9 0.941 . S
C27 C26 1.391 . S
C27 C28 1.396 . S
C28 H12 0.939 . S
C28 C27 1.396 . S
C28 C29 1.397 . S
C29 C28 1.397 . S
C29 C30 1.385 . S
C30 H13 0.940 . S
C30 C29 1.385 . S
C30 C31 1.388 . S
C31 H10 0.939 . S
C31 C26 1.391 . S
C31 C30 1.388 . S
P32 O43 1.490 . S
P32 C46 1.812 . S
P32 C52 1.803 . S
P32 C58 1.819 . S
H33 C47 0.941 . S
H34 C48 0.939 . S
H35 C50 0.940 . S
H36 C51 0.940 . S
H37 C53 0.939 . S
H38 C54 0.942 . S
H39 C56 0.940 . S
H40 C57 0.939 . S
H41 C59 0.941 . S
H42 C63 0.939 . S
O43 P32 1.490 . S
H44 C60 0.939 . S
H45 C62 0.940 . S
C46 P32 1.812 . S
C46 C47 1.389 . S
C46 C51 1.391 . S
C47 H33 0.941 . S
C47 C46 1.389 . S
C47 C48 1.397 . S
C48 H34 0.939 . S
C48 C47 1.397 . S
C48 C49 1.378 . S
C49 C48 1.378 . S
C49 C50 1.378 . S
C50 H35 0.940 . S
C50 C49 1.378 . S
C50 C51 1.396 . S
C51 H36 0.940 . S
C51 C46 1.391 . S
C51 C50 1.396 . S
C52 P32 1.803 . S
C52 C53 1.378 . S
C52 C57 1.400 . S
C53 H37 0.939 . S
C53 C52 1.378 . S
C53 C54 1.361 1_455 S
C54 H38 0.942 . S
C54 C53 1.361 1_655 S
C54 C55 1.369 . S
C55 C54 1.369 . S
C55 C56 1.404 1_655 S
C56 H39 0.940 . S
C56 C55 1.404 1_455 S
C56 C57 1.389 . S
C57 H40 0.939 . S
C57 C52 1.400 . S
C57 C56 1.389 . S
C58 P32 1.819 . S
C58 C59 1.391 . S
C58 C63 1.391 . S
C59 H41 0.941 . S
C59 C58 1.391 . S
C59 C60 1.396 . S
C60 H44 0.939 . S
C60 C59 1.396 . S
C60 C61 1.397 . S
C61 C60 1.397 . S
C61 C62 1.385 . S
C62 H45 0.940 . S
C62 C61 1.385 . S
C62 C63 1.388 . S
C63 H42 0.939 . S
C63 C58 1.391 . S
C63 C62 1.388 . S
P64 O75 1.490 . S
P64 C78 1.812 . S
P64 C84 1.803 . S
P64 C90 1.819 . S
H65 C79 0.941 . S
H66 C80 0.939 . S
H67 C82 0.940 . S
H68 C83 0.940 . S
H69 C85 0.939 . S
H70 C86 0.942 . S
H71 C88 0.940 . S
H72 C89 0.939 . S
H73 C91 0.941 . S
H74 C95 0.939 . S
O75 P64 1.490 . S
H76 C92 0.939 . S
H77 C94 0.940 . S
C78 P64 1.812 . S
C78 C79 1.389 . S
C78 C83 1.391 . S
C79 H65 0.941 . S
C79 C78 1.389 . S
C79 C80 1.397 . S
C80 H66 0.939 . S
C80 C79 1.397 . S
C80 C81 1.378 . S
C81 C80 1.378 . S
C81 C82 1.378 . S
C82 H67 0.940 . S
C82 C81 1.378 . S
C82 C83 1.396 . S
C83 H68 0.940 . S
C83 C78 1.391 . S
C83 C82 1.396 . S
C84 P64 1.803 . S
C84 C85 1.378 . S
C84 C89 1.400 . S
C85 H69 0.939 . S
C85 C84 1.378 . S
C85 C86 1.361 . S
C86 H70 0.942 . S
C86 C85 1.361 . S
C86 C87 1.369 . S
C87 C86 1.369 . S
C87 C88 1.404 . S
C88 H71 0.940 . S
C88 C87 1.404 . S
C88 C89 1.389 . S
C89 H72 0.939 . S
C89 C84 1.400 . S
C89 C88 1.389 . S
C90 P64 1.819 . S
C90 C91 1.391 . S
C90 C95 1.391 . S
C91 H73 0.941 . S
C91 C90 1.391 . S
C91 C92 1.396 . S
C92 H76 0.939 . S
C92 C91 1.396 . S
C92 C93 1.397 . S
C93 C92 1.397 . S
C93 C94 1.385 . S
C94 H77 0.940 . S
C94 C93 1.385 . S
C94 C95 1.388 . S
C95 H74 0.939 . S
C95 C90 1.391 . S
C95 C94 1.388 . S
P96 O107 1.490 . S
P96 C110 1.812 . S
P96 C116 1.803 . S
P96 C122 1.819 . S
H97 C111 0.941 . S
H98 C112 0.939 . S
H99 C114 0.940 . S
H100 C115 0.940 . S
H101 C117 0.939 . S
H102 C118 0.942 . S
H103 C120 0.940 . S
H104 C121 0.939 . S
H105 C123 0.941 . S
H106 C127 0.939 . S
O107 P96 1.490 . S
H108 C124 0.939 . S
H109 C126 0.940 . S
C110 P96 1.812 . S
C110 C111 1.389 . S
C110 C115 1.391 . S
C111 H97 0.941 . S
C111 C110 1.389 . S
C111 C112 1.397 . S
C112 H98 0.939 . S
C112 C111 1.397 . S
C112 C113 1.378 . S
C113 C112 1.378 . S
C113 C114 1.378 . S
C114 H99 0.940 . S
C114 C113 1.378 . S
C114 C115 1.396 . S
C115 H100 0.940 . S
C115 C110 1.391 . S
C115 C114 1.396 . S
C116 P96 1.803 . S
C116 C117 1.378 . S
C116 C121 1.400 . S
C117 H101 0.939 . S
C117 C116 1.378 . S
C117 C118 1.361 . S
C118 H102 0.942 . S
C118 C117 1.361 . S
C118 C119 1.369 . S
C119 C118 1.369 . S
C119 C120 1.404 . S
C120 H103 0.940 . S
C120 C119 1.404 . S
C120 C121 1.389 . S
C121 H104 0.939 . S
C121 C116 1.400 . S
C121 C120 1.389 . S
C122 P96 1.819 . S
C122 C123 1.391 . S
C122 C127 1.391 . S
C123 H105 0.941 . S
C123 C122 1.391 . S
C123 C124 1.396 . S
C124 H108 0.939 . S
C124 C123 1.396 . S
C124 C125 1.397 . S
C125 C124 1.397 . S
C125 C126 1.385 . S
C126 H109 0.940 . S
C126 C125 1.385 . S
C126 C127 1.388 . S
C127 H106 0.939 . S
C127 C122 1.391 . S
C127 C126 1.388 . S
P128 O139 1.490 . S
P128 C142 1.812 . S
P128 C148 1.803 . S
P128 C154 1.819 . S
H129 C143 0.941 . S
H130 C144 0.939 . S
H131 C146 0.940 1_655 S
H132 C147 0.940 . S
H133 C149 0.939 . S
H134 C150 0.942 . S
H135 C152 0.940 1_655 S
H136 C153 0.939 . S
H137 C155 0.941 . S
H138 C159 0.939 . S
O139 P128 1.490 . S
H140 C156 0.939 . S
H141 C158 0.940 . S
C142 P128 1.812 . S
C142 C143 1.389 . S
C142 C147 1.391 . S
C143 H129 0.941 . S
C143 C142 1.389 . S
C143 C144 1.397 . S
C144 H130 0.939 . S
C144 C143 1.397 . S
C144 C145 1.378 . S
C145 C144 1.378 . S
C145 C146 1.378 . S
C146 H131 0.940 1_455 S
C146 C145 1.378 . S
C146 C147 1.396 . S
C147 H132 0.940 . S
C147 C142 1.391 . S
C147 C146 1.396 . S
C148 P128 1.803 . S
C148 C149 1.378 . S
C148 C153 1.400 . S
C149 H133 0.939 . S
C149 C148 1.378 . S
C149 C150 1.361 . S
C150 H134 0.942 . S
C150 C149 1.361 . S
C150 C151 1.369 . S
C151 C150 1.369 . S
C151 C152 1.404 . S
C152 H135 0.940 1_455 S
C152 C151 1.404 . S
C152 C153 1.389 . S
C153 H136 0.939 . S
C153 C148 1.400 . S
C153 C152 1.389 . S
C154 P128 1.819 . S
C154 C155 1.391 . S
C154 C159 1.391 . S
C155 H137 0.941 . S
C155 C154 1.391 . S
C155 C156 1.396 . S
C156 H140 0.939 . S
C156 C155 1.396 . S
C156 C157 1.397 . S
C157 C156 1.397 . S
C157 C158 1.385 . S
C158 H141 0.940 . S
C158 C157 1.385 . S
C158 C159 1.388 . S
C159 H138 0.939 . S
C159 C154 1.391 . S
C159 C158 1.388 . S
P160 O171 1.490 . S
P160 C174 1.812 . S
P160 C180 1.803 . S
P160 C186 1.819 . S
H161 C175 0.941 . S
H162 C176 0.939 . S
H163 C178 0.940 . S
H164 C179 0.940 . S
H165 C181 0.939 . S
H166 C182 0.942 . S
H167 C184 0.940 . S
H168 C185 0.939 . S
H169 C187 0.941 . S
H170 C191 0.939 . S
O171 P160 1.490 . S
H172 C188 0.939 . S
H173 C190 0.940 . S
C174 P160 1.812 . S
C174 C175 1.389 . S
C174 C179 1.391 . S
C175 H161 0.941 . S
C175 C174 1.389 . S
C175 C176 1.397 . S
C176 H162 0.939 . S
C176 C175 1.397 . S
C176 C177 1.378 . S
C177 C176 1.378 . S
C177 C178 1.378 . S
C178 H163 0.940 . S
C178 C177 1.378 . S
C178 C179 1.396 . S
C179 H164 0.940 . S
C179 C174 1.391 . S
C179 C178 1.396 . S
C180 P160 1.803 . S
C180 C181 1.378 . S
C180 C185 1.400 . S
C181 H165 0.939 . S
C181 C180 1.378 . S
C181 C182 1.361 . S
C182 H166 0.942 . S
C182 C181 1.361 . S
C182 C183 1.369 . S
C183 C182 1.369 . S
C183 C184 1.404 . S
C184 H167 0.940 . S
C184 C183 1.404 . S
C184 C185 1.389 . S
C185 H168 0.939 . S
C185 C180 1.400 . S
C185 C184 1.389 . S
C186 P160 1.819 . S
C186 C187 1.391 . S
C186 C191 1.391 . S
C187 H169 0.941 . S
C187 C186 1.391 . S
C187 C188 1.396 . S
C188 H172 0.939 . S
C188 C187 1.396 . S
C188 C189 1.397 . S
C189 C188 1.397 . S
C189 C190 1.385 . S
C190 H173 0.940 . S
C190 C189 1.385 . S
C190 C191 1.388 . S
C191 H170 0.939 . S
C191 C186 1.391 . S
C191 C190 1.388 . S
P192 O203 1.490 . S
P192 C206 1.812 . S
P192 C212 1.803 . S
P192 C218 1.819 . S
H193 C207 0.941 . S
H194 C208 0.939 . S
H195 C210 0.940 . S
H196 C211 0.940 . S
H197 C213 0.939 . S
H198 C214 0.942 . S
H199 C216 0.940 . S
H200 C217 0.939 . S
H201 C219 0.941 . S
H202 C223 0.939 . S
O203 P192 1.490 . S
H204 C220 0.939 . S
H205 C222 0.940 . S
C206 P192 1.812 . S
C206 C207 1.389 . S
C206 C211 1.391 . S
C207 H193 0.941 . S
C207 C206 1.389 . S
C207 C208 1.397 . S
C208 H194 0.939 . S
C208 C207 1.397 . S
C208 C209 1.378 . S
C209 C208 1.378 . S
C209 C210 1.378 . S
C210 H195 0.940 . S
C210 C209 1.378 . S
C210 C211 1.396 . S
C211 H196 0.940 . S
C211 C206 1.391 . S
C211 C210 1.396 . S
C212 P192 1.803 . S
C212 C213 1.378 . S
C212 C217 1.400 . S
C213 H197 0.939 . S
C213 C212 1.378 . S
C213 C214 1.361 . S
C214 H198 0.942 . S
C214 C213 1.361 . S
C214 C215 1.369 . S
C215 C214 1.369 . S
C215 C216 1.404 . S
C216 H199 0.940 . S
C216 C215 1.404 . S
C216 C217 1.389 . S
C217 H200 0.939 . S
C217 C212 1.400 . S
C217 C216 1.389 . S
C218 P192 1.819 . S
C218 C219 1.391 . S
C218 C223 1.391 . S
C219 H201 0.941 . S
C219 C218 1.391 . S
C219 C220 1.396 . S
C220 H204 0.939 . S
C220 C219 1.396 . S
C220 C221 1.397 . S
C221 C220 1.397 . S
C221 C222 1.385 . S
C222 H205 0.940 . S
C222 C221 1.385 . S
C222 C223 1.388 . S
C223 H202 0.939 . S
C223 C218 1.391 . S
C223 C222 1.388 . S
P224 O235 1.490 . S
P224 C238 1.812 . S
P224 C244 1.803 . S
P224 C250 1.819 . S
H225 C239 0.941 . S
H226 C240 0.939 . S
H227 C242 0.940 . S
H228 C243 0.940 . S
H229 C245 0.939 . S
H230 C246 0.942 . S
H231 C248 0.940 . S
H232 C249 0.939 . S
H233 C251 0.941 . S
H234 C255 0.939 . S
O235 P224 1.490 . S
H236 C252 0.939 . S
H237 C254 0.940 . S
C238 P224 1.812 . S
C238 C239 1.389 . S
C238 C243 1.391 . S
C239 H225 0.941 . S
C239 C238 1.389 . S
C239 C240 1.397 . S
C240 H226 0.939 . S
C240 C239 1.397 . S
C240 C241 1.378 . S
C241 C240 1.378 . S
C241 C242 1.378 . S
C242 H227 0.940 . S
C242 C241 1.378 . S
C242 C243 1.396 . S
C243 H228 0.940 . S
C243 C238 1.391 . S
C243 C242 1.396 . S
C244 P224 1.803 . S
C244 C245 1.378 . S
C244 C249 1.400 . S
C245 H229 0.939 . S
C245 C244 1.378 . S
C245 C246 1.361 1_455 S
C246 H230 0.942 . S
C246 C245 1.361 1_655 S
C246 C247 1.369 . S
C247 C246 1.369 . S
C247 C248 1.404 1_655 S
C248 H231 0.940 . S
C248 C247 1.404 1_455 S
C248 C249 1.389 . S
C249 H232 0.939 . S
C249 C244 1.400 . S
C249 C248 1.389 . S
C250 P224 1.819 . S
C250 C251 1.391 . S
C250 C255 1.391 . S
C251 H233 0.941 . S
C251 C250 1.391 . S
C251 C252 1.396 . S
C252 H236 0.939 . S
C252 C251 1.396 . S
C252 C253 1.397 . S
C253 C252 1.397 . S
C253 C254 1.385 . S
C254 H237 0.940 . S
C254 C253 1.385 . S
C254 C255 1.388 . S
C255 H234 0.939 . S
C255 C250 1.391 . S
C255 C254 1.388 . S
Zn256 O262 1.920 . S
Zn256 O268 1.898 . S
Zn256 O271 1.905 . S
Zn257 O265 1.905 . S
Zn257 O266 1.898 . S
Zn257 O274 1.920 1_455 S
Zn258 O261 2.080 . S
Zn258 O264 2.114 . S
Zn258 O267 2.120 . S
Zn258 O269 2.120 . S
Zn258 O270 2.114 . S
Zn258 O273 2.080 . S
C259 O264 1.166 . S
C259 O265 1.182 . S
C260 O266 1.167 . S
C260 O267 1.299 . S
O261 Zn258 2.080 . S
O261 C275 1.305 . S
O262 Zn256 1.920 . S
O262 C275 1.234 . S
C263 O268 1.167 . S
C263 O269 1.299 . S
O264 Zn258 2.114 . S
O264 C259 1.166 . S
O265 Zn257 1.905 . S
O265 C259 1.182 . S
O266 Zn257 1.898 . S
O266 C260 1.167 . S
O267 Zn258 2.120 . S
O267 C260 1.299 . S
O268 Zn256 1.898 . S
O268 C263 1.167 . S
O269 Zn258 2.120 . S
O269 C263 1.299 . S
O270 Zn258 2.114 . S
O270 C272 1.166 . S
O271 Zn256 1.905 . S
O271 C272 1.182 . S
C272 O270 1.166 . S
C272 O271 1.182 . S
O273 Zn258 2.080 . S
O273 C276 1.305 1_455 S
O274 Zn257 1.920 1_655 S
O274 C276 1.234 . S
C275 O261 1.305 . S
C275 O262 1.234 . S
C276 O273 1.305 1_655 S
C276 O274 1.234 . S
Zn277 O283 1.920 . S
Zn277 O289 1.898 . S
Zn277 O292 1.905 . S
Zn278 O286 1.905 . S
Zn278 O287 1.898 . S
Zn278 O295 1.920 . S
Zn279 O282 2.080 . S
Zn279 O285 2.114 . S
Zn279 O288 2.120 . S
Zn279 O290 2.120 . S
Zn279 O291 2.114 . S
Zn279 O294 2.080 . S
C280 O285 1.166 . S
C280 O286 1.182 . S
C281 O287 1.167 . S
C281 O288 1.299 . S
O282 Zn279 2.080 . S
O282 C296 1.305 . S
O283 Zn277 1.920 . S
O283 C296 1.234 . S
C284 O289 1.167 . S
C284 O290 1.299 . S
O285 Zn279 2.114 . S
O285 C280 1.166 . S
O286 Zn278 1.905 . S
O286 C280 1.182 . S
O287 Zn278 1.898 . S
O287 C281 1.167 . S
O288 Zn279 2.120 . S
O288 C281 1.299 . S
O289 Zn277 1.898 . S
O289 C284 1.167 . S
O290 Zn279 2.120 . S
O290 C284 1.299 . S
O291 Zn279 2.114 . S
O291 C293 1.166 . S
O292 Zn277 1.905 . S
O292 C293 1.182 . S
C293 O291 1.166 . S
C293 O292 1.182 . S
O294 Zn279 2.080 . S
O294 C297 1.305 . S
O295 Zn278 1.920 . S
O295 C297 1.234 . S
C296 O282 1.305 . S
C296 O283 1.234 . S
C297 O294 1.305 . S
C297 O295 1.234 . S
Zn298 O304 1.920 . S
Zn298 O310 1.898 . S
Zn298 O313 1.905 . S
Zn299 O307 1.905 . S
Zn299 O308 1.898 . S
Zn299 O316 1.920 . S
Zn300 O303 2.080 . S
Zn300 O306 2.114 . S
Zn300 O309 2.120 . S
Zn300 O311 2.120 . S
Zn300 O312 2.114 . S
Zn300 O315 2.080 . S
C301 O306 1.166 . S
C301 O307 1.182 . S
C302 O308 1.167 . S
C302 O309 1.299 . S
O303 Zn300 2.080 . S
O303 C317 1.305 . S
O304 Zn298 1.920 . S
O304 C317 1.234 . S
C305 O310 1.167 . S
C305 O311 1.299 . S
O306 Zn300 2.114 . S
O306 C301 1.166 . S
O307 Zn299 1.905 . S
O307 C301 1.182 . S
O308 Zn299 1.898 . S
O308 C302 1.167 . S
O309 Zn300 2.120 . S
O309 C302 1.299 . S
O310 Zn298 1.898 . S
O310 C305 1.167 . S
O311 Zn300 2.120 . S
O311 C305 1.299 . S
O312 Zn300 2.114 . S
O312 C314 1.166 . S
O313 Zn298 1.905 . S
O313 C314 1.182 . S
C314 O312 1.166 . S
C314 O313 1.182 . S
O315 Zn300 2.080 . S
O315 C318 1.305 . S
O316 Zn299 1.920 . S
O316 C318 1.234 . S
C317 O303 1.305 . S
C317 O304 1.234 . S
C318 O315 1.305 . S
C318 O316 1.234 . S
Zn319 O325 1.920 . S
Zn319 O331 1.898 . S
Zn319 O334 1.905 1_455 S
Zn320 O328 1.905 . S
Zn320 O329 1.898 . S
Zn320 O337 1.920 . S
Zn321 O324 2.080 . S
Zn321 O327 2.114 . S
Zn321 O330 2.120 . S
Zn321 O332 2.120 . S
Zn321 O333 2.114 . S
Zn321 O336 2.080 . S
C322 O327 1.166 . S
C322 O328 1.182 . S
C323 O329 1.167 . S
C323 O330 1.299 . S
O324 Zn321 2.080 . S
O324 C338 1.305 . S
O325 Zn319 1.920 . S
O325 C338 1.234 . S
C326 O331 1.167 . S
C326 O332 1.299 . S
O327 Zn321 2.114 . S
O327 C322 1.166 . S
O328 Zn320 1.905 . S
O328 C322 1.182 . S
O329 Zn320 1.898 . S
O329 C323 1.167 . S
O330 Zn321 2.120 . S
O330 C323 1.299 . S
O331 Zn319 1.898 . S
O331 C326 1.167 . S
O332 Zn321 2.120 . S
O332 C326 1.299 . S
O333 Zn321 2.114 . S
O333 C335 1.166 1_455 S
O334 Zn319 1.905 1_655 S
O334 C335 1.182 . S
C335 O333 1.166 1_655 S
C335 O334 1.182 . S
O336 Zn321 2.080 . S
O336 C339 1.305 . S
O337 Zn320 1.920 . S
O337 C339 1.234 . S
C338 O324 1.305 . S
C338 O325 1.234 . S
C339 O336 1.305 . S
C339 O337 1.234 . S
C340 C341 1.387 . S
C340 H344 0.950 . S
C340 C349 1.390 . S
C341 C340 1.387 . S
C341 C343 1.387 . S
H342 C349 0.950 . S
C343 C341 1.387 . S
C343 C345 1.390 . S
C343 H347 0.950 . S
H344 C340 0.950 . S
C345 C343 1.390 . S
C345 C346 1.387 . S
C345 H348 0.950 . S
C346 C345 1.387 . S
C346 C349 1.387 . S
H347 C343 0.950 . S
H348 C345 0.950 . S
C349 C340 1.390 . S
C349 H342 0.950 . S
C349 C346 1.387 . S
C350 C351 1.387 . S
C350 H354 0.950 . S
C350 C359 1.390 . S
C351 C350 1.387 . S
C351 C353 1.387 . S
H352 C359 0.950 . S
C353 C351 1.387 . S
C353 C355 1.390 . S
C353 H357 0.950 . S
H354 C350 0.950 . S
C355 C353 1.390 . S
C355 C356 1.387 . S
C355 H358 0.950 . S
C356 C355 1.387 . S
C356 C359 1.387 . S
H357 C353 0.950 . S
H358 C355 0.950 . S
C359 C350 1.390 . S
C359 H352 0.950 . S
C359 C356 1.387 . S
C360 C361 1.387 . S
C360 H364 0.950 . S
C360 C369 1.390 . S
C361 C360 1.387 . S
C361 C363 1.387 . S
H362 C369 0.950 . S
C363 C361 1.387 . S
C363 C365 1.390 . S
C363 H367 0.950 . S
H364 C360 0.950 . S
C365 C363 1.390 . S
C365 C366 1.387 . S
C365 H368 0.950 . S
C366 C365 1.387 . S
C366 C369 1.387 . S
H367 C363 0.950 . S
H368 C365 0.950 . S
C369 C360 1.390 . S
C369 H362 0.950 . S
C369 C366 1.387 . S
C370 C371 1.387 . S
C370 H374 0.950 . S
C370 C379 1.390 . S
C371 C370 1.387 . S
C371 C373 1.387 . S
H372 C379 0.950 . S
C373 C371 1.387 . S
C373 C375 1.390 . S
C373 H377 0.950 . S
H374 C370 0.950 . S
C375 C373 1.390 . S
C375 C376 1.387 . S
C375 H378 0.950 . S
C376 C375 1.387 . S
C376 C379 1.387 . S
H377 C373 0.950 . S
H378 C375 0.950 . S
C379 C370 1.390 . S
C379 H372 0.950 . S
C379 C376 1.387 . S
C380 C381 1.387 . S
C380 H384 0.950 . S
C380 C389 1.390 . S
C381 C380 1.387 . S
C381 C383 1.387 . S
H382 C389 0.950 . S
C383 C381 1.387 . S
C383 C385 1.390 . S
C383 H387 0.950 . S
H384 C380 0.950 . S
C385 C383 1.390 . S
C385 C386 1.387 . S
C385 H388 0.950 . S
C386 C385 1.387 . S
C386 C389 1.387 . S
H387 C383 0.950 . S
H388 C385 0.950 . S
C389 C380 1.390 . S
C389 H382 0.950 . S
C389 C386 1.387 . S
C390 C391 1.387 . S
C390 H394 0.950 . S
C390 C399 1.390 . S
C391 C390 1.387 . S
C391 C393 1.387 . S
H392 C399 0.950 . S
C393 C391 1.387 . S
C393 C395 1.390 . S
C393 H397 0.950 . S
H394 C390 0.950 . S
C395 C393 1.390 . S
C395 C396 1.387 . S
C395 H398 0.950 . S
C396 C395 1.387 . S
C396 C399 1.387 . S
H397 C393 0.950 . S
H398 C395 0.950 . S
C399 C390 1.390 . S
C399 H392 0.950 . S
C399 C396 1.387 . S
C400 C401 1.387 . S
C400 H404 0.950 . S
C400 C409 1.390 . S
C401 C400 1.387 . S
C401 C403 1.387 . S
H402 C409 0.950 . S
C403 C401 1.387 . S
C403 C405 1.390 . S
C403 H407 0.950 . S
H404 C400 0.950 . S
C405 C403 1.390 . S
C405 C406 1.387 . S
C405 H408 0.950 . S
C406 C405 1.387 . S
C406 C409 1.387 . S
H407 C403 0.950 . S
H408 C405 0.950 . S
C409 C400 1.390 . S
C409 H402 0.950 . S
C409 C406 1.387 . S
C410 C411 1.387 . S
C410 H414 0.950 . S
C410 C419 1.390 . S
C411 C410 1.387 . S
C411 C413 1.387 . S
H412 C419 0.950 . S
C413 C411 1.387 . S
C413 C415 1.390 . S
C413 H417 0.950 . S
H414 C410 0.950 . S
C415 C413 1.390 . S
C415 C416 1.387 . S
C415 H418 0.950 . S
C416 C415 1.387 . S
C416 C419 1.387 . S
H417 C413 0.950 . S
H418 C415 0.950 . S
C419 C410 1.390 . S
C419 H412 0.950 . S
C419 C416 1.387 . S
C420 C421 1.387 . S
C420 H424 0.950 . S
C420 C429 1.390 . S
C421 C420 1.387 . S
C421 C423 1.387 . S
H422 C429 0.950 . S
C423 C421 1.387 . S
C423 C425 1.390 . S
C423 H427 0.950 . S
H424 C420 0.950 . S
C425 C423 1.390 . S
C425 C426 1.387 . S
C425 H428 0.950 . S
C426 C425 1.387 . S
C426 C429 1.387 . S
H427 C423 0.950 . S
H428 C425 0.950 . S
C429 C420 1.390 . S
C429 H422 0.950 . S
C429 C426 1.387 . S
C430 C431 1.387 . S
C430 H434 0.950 . S
C430 C439 1.390 . S
C431 C430 1.387 . S
C431 C433 1.387 . S
H432 C439 0.950 . S
C433 C431 1.387 . S
C433 C435 1.390 . S
C433 H437 0.950 . S
H434 C430 0.950 . S
C435 C433 1.390 . S
C435 C436 1.387 . S
C435 H438 0.950 . S
C436 C435 1.387 . S
C436 C439 1.387 . S
H437 C433 0.950 . S
H438 C435 0.950 . S
C439 C430 1.390 . S
C439 H432 0.950 . S
C439 C436 1.387 . S
C440 C441 1.387 . S
C440 H444 0.950 . S
C440 C449 1.390 . S
C441 C440 1.387 . S
C441 C443 1.387 . S
H442 C449 0.950 . S
C443 C441 1.387 . S
C443 C445 1.390 . S
C443 H447 0.950 . S
H444 C440 0.950 . S
C445 C443 1.390 . S
C445 C446 1.387 . S
C445 H448 0.950 . S
C446 C445 1.387 . S
C446 C449 1.387 . S
H447 C443 0.950 . S
H448 C445 0.950 . S
C449 C440 1.390 . S
C449 H442 0.950 . S
C449 C446 1.387 . S
C450 C451 1.387 . S
C450 H454 0.950 . S
C450 C459 1.390 . S
C451 C450 1.387 . S
C451 C453 1.387 . S
H452 C459 0.950 . S
C453 C451 1.387 . S
C453 C455 1.390 . S
C453 H457 0.950 . S
H454 C450 0.950 . S
C455 C453 1.390 . S
C455 C456 1.387 . S
C455 H458 0.950 . S
C456 C455 1.387 . S
C456 C459 1.387 . S
H457 C453 0.950 . S
H458 C455 0.950 . S
C459 C450 1.390 . S
C459 H452 0.950 . S
C459 C456 1.387 . S
C460 C461 1.387 . S
C460 H464 0.950 . S
C460 C469 1.390 1_565 S
C461 C460 1.387 . S
C461 C463 1.387 . S
H462 C469 0.950 . S
C463 C461 1.387 . S
C463 C465 1.390 1_565 S
C463 H467 0.950 . S
H464 C460 0.950 . S
C465 C463 1.390 1_545 S
C465 C466 1.387 . S
C465 H468 0.950 . S
C466 C465 1.387 . S
C466 C469 1.387 . S
H467 C463 0.950 . S
H468 C465 0.950 . S
C469 C460 1.390 1_545 S
C469 H462 0.950 . S
C469 C466 1.387 . S
C470 C471 1.387 . S
C470 H474 0.950 . S
C470 C479 1.390 1_545 S
C471 C470 1.387 . S
C471 C473 1.387 1_545 S
H472 C479 0.950 . S
C473 C471 1.387 1_565 S
C473 C475 1.390 . S
C473 H477 0.947 1_565 S
H474 C470 0.950 . S
C475 C473 1.390 . S
C475 C476 1.387 . S
C475 H478 0.950 . S
C476 C475 1.387 . S
C476 C479 1.387 . S
H477 C473 0.947 1_545 S
H478 C475 0.950 . S
C479 C470 1.390 1_565 S
C479 H472 0.950 . S
C479 C476 1.387 . S
C480 C481 1.387 1_565 S
C480 H484 0.950 1_565 S
C480 C489 1.390 . S
C481 C480 1.387 1_545 S
C481 C483 1.387 . S
H482 C489 0.950 . S
C483 C481 1.387 . S
C483 C485 1.390 1_545 S
C483 H487 0.950 . S
H484 C480 0.950 1_545 S
C485 C483 1.390 1_565 S
C485 C486 1.387 . S
C485 H488 0.950 . S
C486 C485 1.387 . S
C486 C489 1.387 . S
H487 C483 0.950 . S
H488 C485 0.950 . S
C489 C480 1.390 . S
C489 H482 0.950 . S
C489 C486 1.387 . S
C490 C491 1.387 . S
C490 H494 0.950 . S
C490 C499 1.390 1_565 S
C491 C490 1.387 . S
C491 C493 1.387 . S
H492 C499 0.950 . S
C493 C491 1.387 . S
C493 C495 1.390 1_565 S
C493 H497 0.950 . S
H494 C490 0.950 . S
C495 C493 1.390 1_545 S
C495 C496 1.387 . S
C495 H498 0.950 . S
C496 C495 1.387 . S
C496 C499 1.387 . S
H497 C493 0.950 . S
H498 C495 0.950 . S
C499 C490 1.390 1_545 S
C499 H492 0.950 . S
C499 C496 1.387 . S
C500 C501 1.387 . S
C500 H504 0.950 . S
C500 C509 1.390 . S
C501 C500 1.387 . S
C501 C503 1.387 . S
H502 C509 0.950 . S
C503 C501 1.387 . S
C503 C505 1.390 . S
C503 H507 0.950 . S
H504 C500 0.950 . S
C505 C503 1.390 . S
C505 C506 1.387 . S
C505 H508 0.950 . S
C506 C505 1.387 . S
C506 C509 1.387 . S
H507 C503 0.950 . S
H508 C505 0.950 . S
C509 C500 1.390 . S
C509 H502 0.950 . S
C509 C506 1.387 . S
C510 C511 1.387 . S
C510 H514 0.950 . S
C510 C519 1.390 . S
C511 C510 1.387 . S
C511 C513 1.387 . S
H512 C519 0.950 . S
C513 C511 1.387 . S
C513 C515 1.390 . S
C513 H517 0.950 . S
H514 C510 0.950 . S
C515 C513 1.390 . S
C515 C516 1.387 . S
C515 H518 0.950 . S
C516 C515 1.387 . S
C516 C519 1.387 . S
H517 C513 0.950 . S
H518 C515 0.950 . S
C519 C510 1.390 . S
C519 H512 0.950 . S
C519 C516 1.387 . S
C520 C521 1.387 . S
C520 H524 0.950 . S
C520 C529 1.390 . S
C521 C520 1.387 . S
C521 C523 1.387 . S
H522 C529 0.950 . S
C523 C521 1.387 . S
C523 C525 1.390 . S
C523 H527 0.950 . S
H524 C520 0.950 . S
C525 C523 1.390 . S
C525 C526 1.387 . S
C525 H528 0.950 . S
C526 C525 1.387 . S
C526 C529 1.387 . S
H527 C523 0.950 . S
H528 C525 0.950 . S
C529 C520 1.390 . S
C529 H522 0.950 . S
C529 C526 1.387 . S
C530 C531 1.387 . S
C530 H534 0.950 . S
C530 C539 1.390 . S
C531 C530 1.387 . S
C531 C533 1.387 . S
H532 C539 0.950 . S
C533 C531 1.387 . S
C533 C535 1.390 . S
C533 H537 0.950 . S
H534 C530 0.950 . S
C535 C533 1.390 . S
C535 C536 1.387 . S
C535 H538 0.950 . S
C536 C535 1.387 . S
C536 C539 1.387 . S
H537 C533 0.950 . S
H538 C535 0.950 . S
C539 C530 1.390 . S
C539 H532 0.950 . S
C539 C536 1.387 . S
C540 C541 1.387 . S
C540 H544 0.950 . S
C540 C549 1.390 . S
C541 C540 1.387 . S
C541 C543 1.387 . S
H542 C549 0.950 . S
C543 C541 1.387 . S
C543 C545 1.390 . S
C543 H547 0.950 . S
H544 C540 0.950 . S
C545 C543 1.390 . S
C545 C546 1.387 . S
C545 H548 0.950 . S
C546 C545 1.387 . S
C546 C549 1.387 . S
H547 C543 0.950 . S
H548 C545 0.950 . S
C549 C540 1.390 . S
C549 H542 0.950 . S
C549 C546 1.387 . S
C550 C551 1.387 . S
C550 H554 0.950 . S
C550 C559 1.390 . S
C551 C550 1.387 . S
C551 C553 1.387 . S
H552 C559 0.950 . S
C553 C551 1.387 . S
C553 C555 1.390 . S
C553 H557 0.950 . S
H554 C550 0.950 . S
C555 C553 1.390 . S
C555 C556 1.387 . S
C555 H558 0.950 . S
C556 C555 1.387 . S
C556 C559 1.387 . S
H557 C553 0.950 . S
H558 C555 0.950 . S
C559 C550 1.390 . S
C559 H552 0.950 . S
C559 C556 1.387 . S
C560 C561 1.387 . S
C560 H564 0.950 . S
C560 C569 1.390 . S
C561 C560 1.387 . S
C561 C563 1.387 . S
H562 C569 0.950 . S
C563 C561 1.387 . S
C563 C565 1.390 . S
C563 H567 0.950 . S
H564 C560 0.950 . S
C565 C563 1.390 . S
C565 C566 1.387 . S
C565 H568 0.950 . S
C566 C565 1.387 . S
C566 C569 1.387 . S
H567 C563 0.950 . S
H568 C565 0.950 . S
C569 C560 1.390 . S
C569 H562 0.950 . S
C569 C566 1.387 . S
C570 C571 1.387 . S
C570 H574 0.950 . S
C570 C579 1.390 . S
C571 C570 1.387 . S
C571 C573 1.387 . S
H572 C579 0.950 . S
C573 C571 1.387 . S
C573 C575 1.390 . S
C573 H577 0.950 . S
H574 C570 0.950 . S
C575 C573 1.390 . S
C575 C576 1.387 . S
C575 H578 0.950 . S
C576 C575 1.387 . S
C576 C579 1.387 . S
H577 C573 0.950 . S
H578 C575 0.950 . S
C579 C570 1.390 . S
C579 H572 0.950 . S
C579 C576 1.387 . S
C346 C263 1.457 . S
C341 C17 1.650 . S
C356 C281 1.316 . S
C351 C55 1.394 . S
C361 C87 1.475 . S
C366 C305 1.394 . S
C376 C335 1.362 . S
C371 C113 1.484 . S
C386 C323 1.386 . S
C381 C145 1.387 . S
C391 C177 1.453 . S
C396 C276 1.371 . S
C401 C215 1.555 . S
C406 C296 1.474 . S
C411 C247 1.461 . S
C416 C301 1.352 . S
C421 C241 1.450 . S
C426 C317 1.366 . S
C431 C183 1.460 . S
C436 C272 1.346 . S
C446 C339 1.336 . S
C441 C119 1.406 . S
C456 C284 1.350 . S
C451 C49 1.474 . S
C461 C81 1.646 . S
C466 C302 1.452 . S
C471 C23 1.482 . S
C476 C260 1.396 . S
C486 C280 1.386 . S
C481 C209 1.387 . S
C496 C326 1.467 . S
C491 C151 1.554 . S
C506 C322 1.320 . S
C501 C29 1.528 1_556 S
C516 C275 1.401 . S
C511 C61 1.418 . S
C521 C93 1.513 . S
C526 C297 1.299 . S
C531 C125 1.436 . S
C536 C318 1.415 . S
C546 C259 1.321 . S
C541 C157 1.446 1_554 S
C551 C189 1.528 . S
C556 C293 1.444 . S
C566 C314 1.334 . S
C561 C221 1.465 . S
C576 C338 1.427 . S
C571 C253 1.509 . S
