# Generated by pormake.
# Topology rtl, (3,6)-cn, num edge types: 1
# Building blocks:
#     Node 0, Type 0, BuildingBlock: PAMTOO_clean_linker_0, # of connection points: 3
#     Node 1, Type 0, BuildingBlock: PAMTOO_clean_linker_0, # of connection points: 3
#     Node 2, Type 0, BuildingBlock: PAMTOO_clean_linker_0, # of connection points: 3
#     Node 3, Type 0, BuildingBlock: PAMTOO_clean_linker_0, # of connection points: 3
#     Node 4, Type 1, BuildingBlock: VOLQOD_clean_sbu_1, # of connection points: 6
#     Node 5, Type 1, BuildingBlock: VOLQOD_clean_sbu_1, # of connection points: 6
#     Edge 6, Type (0, 1), BuildingBlock: ZUJKAS_clean_linker_0, # of connection points: 2
#     Edge 7, Type (0, 1), BuildingBlock: ZUJKAS_clean_linker_0, # of connection points: 2
#     Edge 8, Type (0, 1), BuildingBlock: ZUJKAS_clean_linker_0, # of connection points: 2
#     Edge 9, Type (0, 1), BuildingBlock: ZUJKAS_clean_linker_0, # of connection points: 2
#     Edge 10, Type (0, 1), BuildingBlock: ZUJKAS_clean_linker_0, # of connection points: 2
#     Edge 11, Type (0, 1), BuildingBlock: ZUJKAS_clean_linker_0, # of connection points: 2
#     Edge 12, Type (0, 1), BuildingBlock: ZUJKAS_clean_linker_0, # of connection points: 2
#     Edge 13, Type (0, 1), BuildingBlock: ZUJKAS_clean_linker_0, # of connection points: 2
#     Edge 14, Type (0, 1), BuildingBlock: ZUJKAS_clean_linker_0, # of connection points: 2
#     Edge 15, Type (0, 1), BuildingBlock: ZUJKAS_clean_linker_0, # of connection points: 2
#     Edge 16, Type (0, 1), BuildingBlock: ZUJKAS_clean_linker_0, # of connection points: 2
#     Edge 17, Type (0, 1), BuildingBlock: ZUJKAS_clean_linker_0, # of connection points: 2
# Relax obj value: 0.041
# Max RMSD: 0.144
# Mean RMSD: 0.098
data_MOF--net-rtl--node1-VOLQOD_clean_sbu_1--node2-PAMTOO_clean_linker_0--edge1-ZUJKAS_clean_linker_0
_symmetry_space_group_name_H-M    P1
_symmetry_Int_Tables_number       1
_symmetry_cell_setting            triclinic
loop_
_symmetry_equiv_pos_as_xyz
'x, y, z'
_cell_length_a     48.31422
_cell_length_b     49.120674
_cell_length_c     28.399051
_cell_angle_alpha  92.19065
_cell_angle_beta   90.373471
_cell_angle_gamma 90.09968
loop_
_atom_site_label
_atom_site_type_symbol
_atom_site_fract_x
_atom_site_fract_y
_atom_site_fract_z
_atom_type_partial_charge
H0 H 0.16763 0.86001 0.99357 0.0
H1 H 0.21839 0.80197 0.06371 0.0
H2 H 0.20693 0.79475 0.91371 0.0
H3 H 0.2066 0.74275 0.96036 0.0
C4 C 0.22037 0.74799 0.99097 0.0
O5 O 0.23099 0.77384 0.98676 0.0
H6 H 0.20778 0.74705 0.02359 0.0
C7 C 0.18092 0.84223 0.99201 0.0
C8 C 0.18567 0.8286 0.94847 0.0
C9 C 0.19252 0.83285 0.03378 0.0
C10 C 0.20939 0.80963 0.03178 0.0
C11 C 0.21471 0.79614 0.98843 0.0
C12 C 0.20303 0.80567 0.94686 0.0
H13 H 0.65945 0.65523 0.50218 0.0
H14 H 0.71016 0.71411 0.43439 0.0
H15 H 0.71062 0.71066 0.58533 0.0
H16 H 0.712 0.76656 0.54888 0.0
C17 C 0.72285 0.76208 0.51502 0.0
O18 O 0.73103 0.73519 0.51283 0.0
H19 H 0.7082 0.76608 0.48568 0.0
C20 C 0.67436 0.67177 0.50433 0.0
C21 C 0.68407 0.68127 0.54861 0.0
C22 C 0.68335 0.68358 0.46288 0.0
C23 C 0.70292 0.70473 0.46597 0.0
C24 C 0.71254 0.71455 0.51012 0.0
C25 C 0.70303 0.70295 0.55138 0.0
H26 H 0.84112 0.15177 0.00013 0.0
H27 H 0.78414 0.2052 0.93209 0.0
H28 H 0.7899 0.20637 0.08314 0.0
H29 H 0.7331 0.20943 0.04552 0.0
C30 C 0.73729 0.21997 0.01229 0.0
O31 O 0.76489 0.22703 0.01062 0.0
H32 H 0.73192 0.20571 0.98219 0.0
C33 C 0.82508 0.16718 0.00217 0.0
C34 C 0.81674 0.17758 0.04648 0.0
C35 C 0.81358 0.17692 0.96057 0.0
C36 C 0.79355 0.19757 0.96371 0.0
C37 C 0.78493 0.20795 0.00788 0.0
C38 C 0.79675 0.19824 0.04918 0.0
H39 H 0.3395 0.35499 0.49176 0.0
H40 H 0.28132 0.30185 0.55626 0.0
H41 H 0.27634 0.31432 0.40744 0.0
H42 H 0.22089 0.30768 0.4518 0.0
C43 C 0.22789 0.29705 0.48365 0.0
O44 O 0.2549 0.28867 0.47788 0.0
H45 H 0.22615 0.31163 0.51451 0.0
C46 C 0.32181 0.34138 0.48873 0.0
C47 C 0.30898 0.33654 0.44475 0.0
C48 C 0.31204 0.32898 0.529 0.0
C49 C 0.28913 0.31151 0.52533 0.0
C50 C 0.27644 0.30614 0.48143 0.0
C51 C 0.28643 0.3185 0.44114 0.0
O52 O 0.94211 0.97642 0.49262 0.0
Zn53 Zn 0.96352 0.01147 0.4946 0.0
O54 O 0.00324 0.00519 0.49793 0.0
Zn55 Zn 0.01802 0.02077 0.55787 0.0
Zn56 Zn 0.00998 0.96593 0.49348 0.0
Zn57 Zn 0.0209 0.02252 0.44502 0.0
O58 O 0.04621 0.05031 0.54623 0.0
O59 O 0.0477 0.0512 0.46821 0.0
O60 O 0.95072 0.03386 0.55044 0.0
O61 O 0.98763 0.03855 0.59707 0.0
O62 O 0.03683 0.99172 0.5954 0.0
O63 O 0.03132 0.95423 0.55002 0.0
O64 O 0.03333 0.95571 0.43715 0.0
O65 O 0.95298 0.03214 0.4378 0.0
O66 O 0.04206 0.99521 0.40475 0.0
O67 O 0.99304 0.04118 0.40401 0.0
C68 C 0.94896 0.9514 0.49036 0.0
C69 C 0.0557 0.06015 0.5087 0.0
C70 C 0.0406 0.96628 0.58736 0.0
C71 C 0.9621 0.04281 0.58848 0.0
C72 C 0.04497 0.96946 0.4057 0.0
C73 C 0.96678 0.04308 0.40553 0.0
O74 O 0.9743 0.94426 0.48973 0.0
O75 O 0.56096 0.47304 0.99238 0.0
Zn76 Zn 0.54063 0.50895 0.99353 0.0
O77 O 0.50048 0.50409 -0.00443 0.0
Zn78 Zn 0.48351 0.51967 0.93984 0.0
Zn79 Zn 0.49235 0.46521 -0.00402 0.0
Zn80 Zn 0.48558 0.52208 0.05278 0.0
O81 O 0.45467 0.54747 0.95851 0.0
O82 O 0.45683 0.55006 0.03664 0.0
O83 O 0.55178 0.52935 0.9367 0.0
O84 O 0.51208 0.53853 0.90086 0.0
O85 O 0.46449 0.49061 0.89895 0.0
O86 O 0.47076 0.45301 0.93859 0.0
O87 O 0.46977 0.45602 0.05214 0.0
O88 O 0.55395 0.53131 0.04989 0.0
O89 O 0.46641 0.49506 0.09365 0.0
O90 O 0.51595 0.54113 0.09064 0.0
C91 C 0.55268 0.4485 -0.00537 0.0
C92 C 0.44647 0.55763 -0.00209 0.0
C93 C 0.46108 0.46509 0.90327 0.0
C94 C 0.53836 0.54032 0.9037 0.0
C95 C 0.46127 0.46967 0.08817 0.0
C96 C 0.54204 0.54292 0.08509 0.0
O97 O 0.52703 0.44282 -0.00304 0.0
H98 H 0.21143 0.27608 0.56706 0.0
H99 H 0.18424 0.23454 0.57846 0.0
H100 H 0.17829 0.22094 0.42776 0.0
H101 H 0.20551 0.26236 0.41635 0.0
H102 H 0.12978 0.22149 0.54353 0.0
H103 H 0.2089 0.14848 0.476 0.0
H104 H 0.21705 0.18334 0.49341 0.0
H105 H 0.20137 0.17544 0.43693 0.0
C106 C 0.20407 0.26427 0.53649 0.0
C107 C 0.21006 0.27251 0.49083 0.0
C108 C 0.18868 0.24059 0.54301 0.0
C109 C 0.17954 0.22459 0.50396 0.0
C110 C 0.18549 0.23284 0.45834 0.0
H111 H 0.08064 0.08518 0.43596 0.0
H112 H 0.11152 0.12448 0.44013 0.0
C113 C 0.20079 0.25653 0.45182 0.0
C114 C 0.16339 0.19943 0.51065 0.0
H115 H 0.16326 0.13097 0.48525 0.0
C116 C 0.13717 0.20162 0.53137 0.0
C117 C 0.17323 0.1736 0.49491 0.0
C118 C 0.20179 0.16993 0.47446 0.0
C119 C 0.11992 0.17874 0.53472 0.0
C120 C 0.12944 0.15302 0.51759 0.0
C121 C 0.15602 0.15074 0.49825 0.0
C122 C 0.11142 0.1286 0.51623 0.0
C123 C 0.09122 0.18246 0.55461 0.0
C124 C 0.1015 0.11759 0.55778 0.0
C125 C 0.08371 0.09504 0.55558 0.0
C126 C 0.07567 0.0831 0.51175 0.0
C127 C 0.08627 0.09387 0.47033 0.0
C128 C 0.10398 0.11634 0.4726 0.0
H129 H 0.08518 0.20427 0.55758 0.0
H130 H 0.07571 0.17127 0.53224 0.0
H131 H 0.09057 0.17411 0.59034 0.0
H132 H 0.10741 0.1265 0.59185 0.0
H133 H 0.07604 0.08719 0.58816 0.0
H134 H 0.24774 0.73045 0.06881 0.0
H135 H 0.2871 0.69894 0.07151 0.0
H136 H 0.28538 0.68996 0.9198 0.0
H137 H 0.24622 0.72165 0.91707 0.0
H138 H 0.28984 0.64425 0.03624 0.0
H139 H 0.36631 0.71027 0.95017 0.0
H140 H 0.33409 0.72317 0.97381 0.0
H141 H 0.33464 0.70508 0.91759 0.0
C142 C 0.25576 0.72159 0.03616 0.0
C143 C 0.24382 0.72802 0.99277 0.0
C144 C 0.27819 0.7037 0.0377 0.0
C145 C 0.28927 0.69235 -0.00416 0.0
C146 C 0.27737 0.69882 0.95245 0.0
H147 H 0.41895 0.57813 0.92256 0.0
H148 H 0.38088 0.6108 0.9239 0.0
C149 C 0.25494 0.71668 0.95092 0.0
C150 C 0.31299 0.67337 -0.00244 0.0
H151 H 0.37977 0.6645 0.96162 0.0
C152 C 0.30958 0.64871 0.02022 0.0
C153 C 0.33867 0.67931 0.9766 0.0
C154 C 0.34384 0.70599 0.95352 0.0
C155 C 0.331 0.62946 0.02145 0.0
C156 C 0.35661 0.63532 0.00016 0.0
C157 C 0.36008 0.66008 0.97784 0.0
C158 C 0.37993 0.61579 -0.00013 0.0
C159 C 0.32578 0.60272 0.04435 0.0
C160 C 0.39229 0.60811 0.04218 0.0
C161 C 0.41406 0.58939 0.04161 0.0
C162 C 0.42398 0.57813 -0.00136 0.0
C163 C 0.41182 0.58631 0.95629 0.0
C164 C 0.39006 0.605 0.95694 0.0
H165 H 0.30331 0.59877 0.04879 0.0
H166 H 0.33489 0.58552 0.02326 0.0
H167 H 0.33563 0.60325 0.07978 0.0
H168 H 0.38512 0.61663 0.07565 0.0
H169 H 0.42302 0.58369 0.07486 0.0
H170 H 0.75514 0.76795 0.43769 0.0
H171 H 0.79602 0.79719 0.42982 0.0
H172 H 0.78695 0.8261 0.57429 0.0
H173 H 0.74655 0.79647 0.58244 0.0
H174 H 0.79983 0.85229 0.43903 0.0
H175 H 0.86799 0.80503 0.5703 0.0
H176 H 0.83661 0.78892 0.54838 0.0
H177 H 0.83516 0.81509 0.59441 0.0
C178 C 0.76207 0.78049 0.4677 0.0
C179 C 0.7478 0.78009 0.51058 0.0
C180 C 0.78534 0.79713 0.46324 0.0
C181 C 0.79478 0.8135 0.50168 0.0
C182 C 0.78042 0.81317 0.5445 0.0
H183 H 0.89334 0.9591 0.50122 0.0
H184 H 0.85702 0.92461 0.50085 0.0
C185 C 0.75724 0.79645 0.54903 0.0
C186 C 0.81894 0.83177 0.49649 0.0
H187 H 0.88174 0.84893 0.5449 0.0
C188 C 0.81786 0.8514 0.46189 0.0
C189 C 0.84266 0.83028 0.52576 0.0
C190 C 0.84587 0.80851 0.56147 0.0
C191 C 0.83944 0.87021 0.45686 0.0
C192 C 0.86241 0.86973 0.48798 0.0
C193 C 0.86396 0.84948 0.52144 0.0
C194 C 0.88462 0.89058 0.48742 0.0
C195 C 0.83743 0.89031 0.4181 0.0
C196 C 0.91238 0.88287 0.48135 0.0
C197 C 0.93334 0.90257 0.48211 0.0
C198 C 0.92691 0.93036 0.48905 0.0
C199 C 0.89906 0.93794 0.49533 0.0
C200 C 0.87819 0.91824 0.49483 0.0
H201 H 0.82363 0.88266 0.38904 0.0
H202 H 0.82856 0.90967 0.4326 0.0
H203 H 0.85811 0.89471 0.40331 0.0
H204 H 0.9178 0.86159 0.47592 0.0
H205 H 0.95456 0.89602 0.47723 0.0
H206 H 0.72967 0.25128 0.93611 0.0
H207 H 0.70112 0.29236 0.93031 0.0
H208 H 0.67706 0.28575 0.0755 0.0
H209 H 0.70602 0.24511 0.08157 0.0
H210 H 0.64544 0.2976 0.94205 0.0
H211 H 0.70111 0.36484 0.07202 0.0
H212 H 0.71559 0.33329 0.04876 0.0
H213 H 0.69086 0.33308 0.09586 0.0
C214 C 0.71835 0.2588 0.96672 0.0
C215 C 0.71986 0.24513 0.00918 0.0
C216 C 0.7021 0.28217 0.96344 0.0
C217 C 0.68729 0.29232 0.00267 0.0
C218 C 0.6888 0.27862 0.04512 0.0
H219 H 0.54298 0.39456 0.00833 0.0
H220 H 0.57652 0.35751 0.00782 0.0
C221 C 0.70513 0.25532 0.04846 0.0
C222 C 0.66931 0.31653 -0.00132 0.0
H223 H 0.65607 0.37948 0.04843 0.0
C224 C 0.6479 0.31561 0.96502 0.0
C225 C 0.67284 0.34018 0.02815 0.0
C226 C 0.69652 0.34309 0.0629 0.0
C227 C 0.62934 0.33734 0.96107 0.0
C228 C 0.63194 0.36035 0.99233 0.0
C229 C 0.65391 0.36168 0.0249 0.0
C230 C 0.61169 0.38297 0.99254 0.0
C231 C 0.60724 0.33549 0.92327 0.0
C232 C 0.62046 0.40976 0.98559 0.0
C233 C 0.60136 0.43113 0.9864 0.0
C234 C 0.57312 0.42605 -0.00572 0.0
C235 C 0.56451 0.39919 0.00173 0.0
C236 C 0.58363 0.37792 0.00115 0.0
H237 H 0.61316 0.32106 0.89399 0.0
H238 H 0.58777 0.32792 0.93868 0.0
H239 H 0.60312 0.35572 0.90856 0.0
H240 H 0.64208 0.41411 0.97922 0.0
H241 H 0.60871 0.45156 0.9806 0.0
H242 H 0.17383 0.80964 0.11347 0.0
H243 H 0.15335 0.8333 0.18246 0.0
H244 H 0.17398 0.91073 0.12505 0.0
H245 H 0.19428 0.88725 0.05602 0.0
H246 H 0.17226 0.87514 0.25095 0.0
H247 H 0.08828 0.91003 0.133 0.0
H248 H 0.11221 0.88343 0.11544 0.0
H249 H 0.12269 0.91853 0.11492 0.0
C250 C 0.17461 0.83169 0.11622 0.0
C251 C 0.18527 0.84667 0.07924 0.0
C252 C 0.16285 0.84515 0.15549 0.0
C253 C 0.16169 0.87371 0.15821 0.0
C254 C 0.17424 0.88866 0.12306 0.0
H255 H 0.07358 0.99191 0.33384 0.0
H256 H 0.10342 0.96857 0.27615 0.0
C257 C 0.18583 0.87526 0.08378 0.0
C258 C 0.14527 0.88786 0.19539 0.0
H259 H 0.0876 0.92699 0.21189 0.0
C260 C 0.15373 0.88646 0.24257 0.0
C261 C 0.12104 0.90245 0.18415 0.0
C262 C 0.1103 0.90358 0.13421 0.0
C263 C 0.13881 0.89984 0.27889 0.0
C264 C 0.11465 0.91452 0.26755 0.0
C265 C 0.10621 0.91581 0.22037 0.0
C266 C 0.09754 0.9286 0.30396 0.0
C267 C 0.14928 0.89859 0.32892 0.0
C268 C 0.0841 0.91376 0.33832 0.0
C269 C 0.06695 0.927 0.37131 0.0
C270 C 0.06282 0.95534 0.37034 0.0
C271 C 0.07627 0.97009 0.33564 0.0
C272 C 0.09339 0.95681 0.3027 0.0
H273 H 0.17141 0.89254 0.3303 0.0
H274 H 0.14683 0.91857 0.34805 0.0
H275 H 0.13707 0.88325 0.34764 0.0
H276 H 0.08654 0.89187 0.3392 0.0
H277 H 0.05688 0.91499 0.39743 0.0
H278 H 0.68303 0.62743 0.56696 0.0
H279 H 0.65944 0.60578 0.6317 0.0
H280 H 0.63668 0.68483 0.69044 0.0
H281 H 0.66087 0.70665 0.62598 0.0
H282 H 0.65156 0.6488 0.75879 0.0
H283 H 0.5754 0.60156 0.6338 0.0
H284 H 0.61044 0.59282 0.61932 0.0
H285 H 0.59929 0.62769 0.61702 0.0
C286 C 0.67327 0.64016 0.59404 0.0
C287 C 0.67347 0.66865 0.59137 0.0
C288 C 0.65969 0.6278 0.63079 0.0
C289 C 0.64567 0.64369 0.66507 0.0
C290 C 0.64718 0.67222 0.66404 0.0
H291 H 0.51713 0.57439 0.83846 0.0
H292 H 0.54275 0.60152 0.78289 0.0
C293 C 0.66105 0.68465 0.62742 0.0
C294 C 0.62856 0.63038 0.70069 0.0
H295 H 0.57526 0.58545 0.71186 0.0
C296 C 0.63475 0.63508 0.74864 0.0
C297 C 0.60624 0.61297 0.68736 0.0
C298 C 0.59722 0.60866 0.63661 0.0
C299 C 0.61979 0.62208 0.78362 0.0
C300 C 0.59852 0.60345 0.77009 0.0
C301 C 0.59179 0.59946 0.72219 0.0
C302 C 0.58314 0.58757 0.80482 0.0
C303 C 0.62671 0.62871 0.83467 0.0
C304 C 0.5973 0.5704 0.83508 0.0
C305 C 0.58275 0.555 0.86707 0.0
C306 C 0.55367 0.55614 0.86891 0.0
C307 C 0.5395 0.57299 0.83792 0.0
C308 C 0.55412 0.58857 0.80622 0.0
H309 H 0.63682 0.64899 0.83924 0.0
H310 H 0.6079 0.62852 0.8569 0.0
H311 H 0.64136 0.61326 0.84755 0.0
H312 H 0.61962 0.56866 0.83367 0.0
H313 H 0.59431 0.54206 0.89013 0.0
H314 H 0.84023 0.20577 0.12158 0.0
H315 H 0.86669 0.1866 0.18672 0.0
H316 H 0.84762 0.10542 0.13263 0.0
H317 H 0.82167 0.12439 0.06746 0.0
H318 H 0.85384 0.15058 0.25713 0.0
H319 H 0.93211 0.10639 0.13506 0.0
H320 H 0.90691 0.13108 0.11709 0.0
H321 H 0.89759 0.09568 0.11974 0.0
C322 C 0.84142 0.18385 0.12415 0.0
C323 C 0.82929 0.1665 0.08932 0.0
C324 C 0.85657 0.17295 0.16113 0.0
C325 C 0.85968 0.14462 0.16366 0.0
C326 C 0.84612 0.12734 0.1305 0.0
H327 H 0.9111 0.04452 0.38865 0.0
H328 H 0.88645 0.07157 0.33168 0.0
C329 C 0.83122 0.13817 0.09349 0.0
C330 C 0.87767 0.13288 0.19999 0.0
H331 H 0.93236 0.08995 0.21323 0.0
C332 C 0.87119 0.13754 0.24767 0.0
C333 C 0.90069 0.11642 0.18754 0.0
C334 C 0.90995 0.11231 0.13709 0.0
C335 C 0.88639 0.12509 0.28322 0.0
C336 C 0.90818 0.10708 0.2705 0.0
C337 C 0.9154 0.10345 0.22293 0.0
C338 C 0.92322 0.09108 0.30566 0.0
C339 C 0.87898 0.13146 0.33398 0.0
C340 C 0.95222 0.09224 0.30872 0.0
C341 C 0.96647 0.07637 0.34069 0.0
C342 C 0.95194 0.0591 0.37025 0.0
C343 C 0.92292 0.05779 0.36672 0.0
C344 C 0.90874 0.07346 0.33447 0.0
H345 H 0.86874 0.15163 0.33823 0.0
H346 H 0.86425 0.11584 0.34595 0.0
H347 H 0.89757 0.13135 0.35716 0.0
H348 H 0.96383 0.10551 0.28647 0.0
H349 H 0.98882 0.0779 0.3426 0.0
H350 H 0.36597 0.321 0.55104 0.0
H351 H 0.39083 0.33879 0.62103 0.0
H352 H 0.31428 0.37083 0.67759 0.0
H353 H 0.28927 0.3521 0.60821 0.0
H354 H 0.39511 0.39134 0.64178 0.0
H355 H 0.34891 0.34135 0.79416 0.0
H356 H 0.34354 0.32883 0.73421 0.0
H357 H 0.3234 0.3569 0.75778 0.0
C358 C 0.35442 0.33116 0.57918 0.0
C359 C 0.32581 0.33521 0.57462 0.0
C360 C 0.36858 0.34136 0.61899 0.0
C361 C 0.35442 0.35604 0.65469 0.0
C362 C 0.32556 0.35905 0.65108 0.0
H363 H 0.42976 0.48413 0.83088 0.0
H364 H 0.40354 0.45735 0.77149 0.0
C365 C 0.3113 0.34846 0.61145 0.0
C366 C 0.37031 0.37086 0.69244 0.0
H367 H 0.37588 0.38153 0.81159 0.0
C368 C 0.39105 0.38898 0.67893 0.0
C369 C 0.36514 0.36766 0.74087 0.0
C370 C 0.34423 0.34742 0.75768 0.0
C371 C 0.40655 0.40425 0.71241 0.0
C372 C 0.40057 0.40196 0.76076 0.0
C373 C 0.38016 0.38351 0.77443 0.0
C374 C 0.41563 0.41826 0.79766 0.0
C375 C 0.42949 0.42231 0.69558 0.0
C376 C 0.4304 0.40518 0.8329 0.0
C377 C 0.44512 0.42041 0.8672 0.0
C378 C 0.44538 0.44906 0.86686 0.0
C379 C 0.43026 0.46211 0.83182 0.0
C380 C 0.41534 0.44684 0.79775 0.0
H381 H 0.43654 0.41582 0.65973 0.0
H382 H 0.42177 0.44352 0.69398 0.0
H383 H 0.44756 0.42225 0.71994 0.0
H384 H 0.43081 0.38314 0.83352 0.0
H385 H 0.4565 0.40969 0.89374 0.0
H386 H 0.62914 0.67469 0.44122 0.0
H387 H 0.60973 0.6542 0.36858 0.0
H388 H 0.69123 0.65041 0.30765 0.0
H389 H 0.71099 0.67059 0.38101 0.0
H390 H 0.61274 0.67082 0.27288 0.0
H391 H 0.66259 0.57041 0.30068 0.0
H392 H 0.66009 0.59639 0.34715 0.0
H393 H 0.68484 0.59982 0.30091 0.0
C394 C 0.64294 0.66953 0.41233 0.0
C395 C 0.67161 0.67385 0.41693 0.0
C396 C 0.63181 0.658 0.3708 0.0
C397 C 0.6491 0.65047 0.33312 0.0
C398 C 0.67762 0.65577 0.33669 0.0
H399 H 0.59801 0.55177 0.08417 0.0
H400 H 0.6256 0.57955 0.14023 0.0
C401 C 0.68883 0.66745 0.37836 0.0
C402 C 0.63702 0.63603 0.29121 0.0
H403 H 0.63216 0.57316 0.23629 0.0
C404 C 0.61718 0.64955 0.26447 0.0
C405 C 0.64294 0.60831 0.28043 0.0
C406 C 0.66363 0.5927 0.30884 0.0
C407 C 0.6026 0.63589 0.22778 0.0
C408 C 0.60765 0.60786 0.21834 0.0
C409 C 0.62827 0.59462 0.24384 0.0
C410 C 0.59082 0.59157 0.18381 0.0
C411 C 0.58181 0.65153 0.19966 0.0
C412 C 0.56219 0.58878 0.19023 0.0
C413 C 0.54634 0.5729 0.15833 0.0
C414 C 0.55887 0.55934 0.11954 0.0
C415 C 0.58766 0.56195 0.11357 0.0
C416 C 0.60348 0.57784 0.14552 0.0
H417 H 0.58628 0.67375 0.20152 0.0
H418 H 0.58157 0.64435 0.1621 0.0
H419 H 0.56085 0.64844 0.21431 0.0
H420 H 0.55214 0.59869 0.22022 0.0
H421 H 0.52427 0.57125 0.16415 0.0
H422 H 0.82664 0.20422 0.8812 0.0
H423 H 0.847 0.18501 0.80832 0.0
H424 H 0.84339 0.10469 0.86443 0.0
H425 H 0.82214 0.12348 0.93604 0.0
H426 H 0.89608 0.15929 0.8015 0.0
H427 H 0.81407 0.08975 0.7333 0.0
H428 H 0.80762 0.11584 0.77837 0.0
H429 H 0.8219 0.08346 0.79369 0.0
C430 C 0.82953 0.18239 0.87737 0.0
C431 C 0.82294 0.16536 0.91439 0.0
C432 C 0.84131 0.17147 0.83591 0.0
C433 C 0.84642 0.14338 0.83073 0.0
C434 C 0.8391 0.12633 0.86715 0.0
H435 H 0.97438 0.05685 0.68065 0.0
H436 H 0.9459 0.08349 0.73635 0.0
C437 C 0.82728 0.13716 0.90835 0.0
C438 C 0.86161 0.13195 0.78941 0.0
H439 H 0.86059 0.07936 0.70748 0.0
C440 C 0.88815 0.1421 0.78037 0.0
C441 C 0.85111 0.10981 0.76138 0.0
C442 C 0.82198 0.0993 0.76686 0.0
C443 C 0.90501 0.12983 0.7456 0.0
C444 C 0.89532 0.10634 0.72017 0.0
C445 C 0.86824 0.09706 0.72758 0.0
C446 C 0.91297 0.09075 0.68625 0.0
C447 C 0.93301 0.14219 0.73657 0.0
C448 C 0.90356 0.08522 0.64006 0.0
C449 C 0.91949 0.06955 0.60852 0.0
C450 C 0.94528 0.05916 0.62245 0.0
C451 C 0.95472 0.06473 0.66874 0.0
C452 C 0.93857 0.08016 0.70048 0.0
H453 H 0.93344 0.16424 0.74686 0.0
H454 H 0.94886 0.13193 0.75806 0.0
H455 H 0.93879 0.1397 0.69888 0.0
H456 H 0.88382 0.09305 0.62837 0.0
H457 H 0.91165 0.06575 0.57306 0.0
H458 H 0.32139 0.31421 0.35757 0.0
H459 H 0.34512 0.33673 0.29332 0.0
H460 H 0.34425 0.4127 0.37461 0.0
H461 H 0.32077 0.3904 0.4387 0.0
H462 H 0.33223 0.38401 0.24041 0.0
H463 H 0.42708 0.39811 0.35015 0.0
H464 H 0.39941 0.37541 0.36545 0.0
H465 H 0.39622 0.41149 0.37717 0.0
C466 C 0.32587 0.33581 0.36127 0.0
C467 C 0.31965 0.35051 0.40327 0.0
C468 C 0.33948 0.34859 0.32473 0.0
C469 C 0.34695 0.37619 0.32981 0.0
C470 C 0.33923 0.39123 0.37054 0.0
H471 H 0.44054 0.4912 0.17118 0.0
H472 H 0.41193 0.46818 0.22836 0.0
C473 C 0.3258 0.37849 0.40701 0.0
C474 C 0.36389 0.38915 0.29368 0.0
H475 H 0.42605 0.42051 0.27762 0.0
C476 C 0.3528 0.39187 0.24834 0.0
C477 C 0.39075 0.39928 0.30427 0.0
C478 C 0.40423 0.39574 0.35175 0.0
C479 C 0.36764 0.40515 0.21355 0.0
C480 C 0.39434 0.41559 0.22441 0.0
C481 C 0.4055 0.41263 0.2696 0.0
C482 C 0.41121 0.4295 0.1893 0.0
C483 C 0.35443 0.40849 0.16585 0.0
C484 C 0.42059 0.41521 0.14887 0.0
C485 C 0.43701 0.42821 0.11623 0.0
C486 C 0.44444 0.4558 0.12352 0.0
C487 C 0.43519 0.46998 0.1644 0.0
C488 C 0.41882 0.45689 0.19709 0.0
H489 H 0.3317 0.40509 0.16665 0.0
H490 H 0.35849 0.42917 0.15291 0.0
H491 H 0.36347 0.39341 0.14026 0.0
H492 H 0.41539 0.39389 0.14273 0.0
H493 H 0.44381 0.41663 0.08525 0.0
H494 H 0.13196 0.84444 0.93928 0.0
H495 H 0.10978 0.86413 0.87129 0.0
H496 H 0.18498 0.85353 0.79168 0.0
H497 H 0.2078 0.83459 0.86065 0.0
H498 H 0.16344 0.90473 0.78552 0.0
H499 H 0.08113 0.82821 0.75018 0.0
H500 H 0.0811 0.8405 0.81045 0.0
H501 H 0.1105 0.82183 0.78779 0.0
C502 C 0.14383 0.84627 0.90732 0.0
C503 C 0.17172 0.83817 0.90543 0.0
C504 C 0.13098 0.8572 0.86826 0.0
C505 C 0.14559 0.85992 0.8262 0.0
C506 C 0.1733 0.8514 0.82376 0.0
H507 H 0.05853 0.9137 0.57608 0.0
H508 H 0.08599 0.88767 0.63092 0.0
C509 C 0.18624 0.84046 0.86302 0.0
C510 C 0.13224 0.87337 0.78615 0.0
H511 H 0.07383 0.87225 0.71793 0.0
C512 C 0.14404 0.89745 0.77024 0.0
C513 C 0.10714 0.86364 0.7658 0.0
C514 C 0.09439 0.83697 0.77909 0.0
C515 C 0.13078 0.9127 0.73593 0.0
C516 C 0.10475 0.90392 0.71793 0.0
C517 C 0.09357 0.87922 0.73234 0.0
C518 C 0.08859 0.92013 0.68444 0.0
C519 C 0.14484 0.93802 0.71931 0.0
C520 C 0.0806 0.94696 0.69656 0.0
C521 C 0.06499 0.96201 0.66514 0.0
C522 C 0.05676 0.95037 0.62125 0.0
C523 C 0.06446 0.92333 0.60958 0.0
C524 C 0.08021 0.90839 0.64086 0.0
H525 H 0.16759 0.93726 0.72514 0.0
H526 H 0.14077 0.94086 0.68128 0.0
H527 H 0.13678 0.95605 0.73954 0.0
H528 H 0.08621 0.95618 0.73053 0.0
H529 H 0.05925 0.9827 0.67539 0.0
loop_
_geom_bond_atom_site_label_1
_geom_bond_atom_site_label_2
_geom_bond_distance
_geom_bond_site_symmetry_2
_ccdc_geom_bond_type
H0 C7 0.931 . S
H1 C10 0.930 . S
H2 C12 0.929 . S
H3 C4 0.969 . S
C4 H3 0.969 . S
C4 O5 1.550 1_554 S
C4 H6 0.973 . S
O5 C4 1.550 1_556 S
O5 C11 1.412 . S
H6 C4 0.973 . S
C7 H0 0.931 . S
C7 C8 1.378 1_554 S
C7 C9 1.383 . S
C8 C7 1.378 1_556 S
C8 C12 1.377 . S
C9 C7 1.383 . S
C9 C10 1.374 . S
C10 H1 0.930 . S
C10 C9 1.374 . S
C10 C11 1.383 1_554 S
C11 O5 1.412 . S
C11 C10 1.383 1_556 S
C11 C12 1.394 . S
C12 H2 0.929 . S
C12 C8 1.377 . S
C12 C11 1.394 . S
H13 C20 0.929 . S
H14 C23 0.930 . S
H15 C25 0.929 . S
H16 C17 0.969 . S
C17 H16 0.969 . S
C17 O18 1.550 . S
C17 H19 0.973 . S
O18 C17 1.550 . S
O18 C24 1.412 . S
H19 C17 0.973 . S
C20 H13 0.929 . S
C20 C21 1.400 . S
C20 C22 1.364 . S
C21 C20 1.400 . S
C21 C25 1.377 . S
C22 C20 1.364 . S
C22 C23 1.374 . S
C23 H14 0.930 . S
C23 C22 1.374 . S
C23 C24 1.383 . S
C24 O18 1.412 . S
C24 C23 1.383 . S
C24 C25 1.394 . S
C25 H15 0.929 . S
C25 C21 1.377 . S
C25 C24 1.394 . S
H26 C33 0.929 . S
H27 C36 0.930 . S
H28 C38 0.929 . S
H29 C30 0.969 . S
C30 H29 0.969 . S
C30 O31 1.550 1_556 S
C30 H32 0.973 . S
O31 C30 1.550 1_554 S
O31 C37 1.412 . S
H32 C30 0.973 . S
C33 H26 0.929 . S
C33 C34 1.400 . S
C33 C35 1.364 1_554 S
C34 C33 1.400 . S
C34 C38 1.377 . S
C35 C33 1.364 1_556 S
C35 C36 1.374 . S
C36 H27 0.930 . S
C36 C35 1.374 . S
C36 C37 1.383 1_556 S
C37 O31 1.412 . S
C37 C36 1.383 1_554 S
C37 C38 1.394 . S
C38 H28 0.929 . S
C38 C34 1.377 . S
C38 C37 1.394 . S
H39 C46 0.929 . S
H40 C49 0.930 . S
H41 C51 0.929 . S
H42 C43 0.969 . S
C43 H42 0.969 . S
C43 O44 1.550 . S
C43 H45 0.973 . S
O44 C43 1.550 . S
O44 C50 1.412 . S
H45 C43 0.973 . S
C46 H39 0.929 . S
C46 C47 1.400 . S
C46 C48 1.364 . S
C47 C46 1.400 . S
C47 C51 1.377 . S
C48 C46 1.364 . S
C48 C49 1.374 . S
C49 H40 0.930 . S
C49 C48 1.374 . S
C49 C50 1.383 . S
C50 O44 1.412 . S
C50 C49 1.383 . S
C50 C51 1.394 . S
C51 H41 0.929 . S
C51 C47 1.377 . S
C51 C50 1.394 . S
O52 Zn53 1.953 1_565 S
O52 C68 1.225 . S
Zn53 O52 1.953 1_545 S
Zn53 O54 1.949 1_655 S
Zn53 O60 1.919 . S
Zn53 O65 1.924 . S
O54 Zn53 1.949 1_455 S
O54 Zn55 1.923 . S
O54 Zn56 1.950 1_545 S
O54 Zn57 1.945 . S
Zn55 O54 1.923 . S
Zn55 O58 1.933 . S
Zn55 O61 1.941 1_455 S
Zn55 O62 1.965 1_545 S
Zn56 O54 1.950 1_565 S
Zn56 O63 1.938 . S
Zn56 O64 1.906 . S
Zn56 O74 1.953 1_455 S
Zn57 O54 1.945 . S
Zn57 O59 1.932 . S
Zn57 O66 1.977 . S
Zn57 O67 1.910 1_455 S
O58 Zn55 1.933 . S
O58 C69 1.226 . S
O59 Zn57 1.932 . S
O59 C69 1.307 . S
O60 Zn53 1.919 . S
O60 C71 1.253 . S
O61 Zn55 1.941 1_655 S
O61 C71 1.283 . S
O62 Zn55 1.965 1_565 S
O62 C70 1.303 . S
O63 Zn56 1.938 . S
O63 C70 1.247 . S
O64 Zn56 1.906 . S
O64 C72 1.304 . S
O65 Zn53 1.924 . S
O65 C73 1.311 . S
O66 Zn57 1.977 . S
O66 C72 1.272 1_545 S
O67 Zn57 1.910 1_655 S
O67 C73 1.231 . S
C68 O52 1.225 . S
C68 O74 1.298 . S
C69 O58 1.226 . S
C69 O59 1.307 . S
C70 O62 1.303 . S
C70 O63 1.247 . S
C71 O60 1.253 . S
C71 O61 1.283 . S
C72 O64 1.304 . S
C72 O66 1.272 1_565 S
C73 O65 1.311 . S
C73 O67 1.231 . S
O74 Zn56 1.953 1_655 S
O74 C68 1.298 . S
O75 Zn76 1.953 . S
O75 C91 1.223 1_556 S
Zn76 O75 1.953 . S
Zn76 O77 1.949 1_556 S
Zn76 O83 1.919 . S
Zn76 O88 1.924 1_556 S
O77 Zn76 1.949 1_554 S
O77 Zn78 1.923 1_554 S
O77 Zn79 1.950 . S
O77 Zn80 1.945 . S
Zn78 O77 1.923 1_556 S
Zn78 O81 1.933 . S
Zn78 O84 1.941 . S
Zn78 O85 1.965 . S
Zn79 O77 1.950 . S
Zn79 O86 1.938 1_554 S
Zn79 O87 1.906 . S
Zn79 O97 1.953 . S
Zn80 O77 1.945 . S
Zn80 O82 1.932 . S
Zn80 O89 1.977 . S
Zn80 O90 1.910 . S
O81 Zn78 1.933 . S
O81 C92 1.226 1_556 S
O82 Zn80 1.932 . S
O82 C92 1.307 . S
O83 Zn76 1.919 . S
O83 C94 1.253 . S
O84 Zn78 1.941 . S
O84 C94 1.283 . S
O85 Zn78 1.965 . S
O85 C93 1.303 . S
O86 Zn79 1.938 1_556 S
O86 C93 1.247 . S
O87 Zn79 1.906 . S
O87 C95 1.304 . S
O88 Zn76 1.924 1_554 S
O88 C96 1.311 . S
O89 Zn80 1.977 . S
O89 C95 1.272 . S
O90 Zn80 1.910 . S
O90 C96 1.231 . S
C91 O75 1.223 1_554 S
C91 O97 1.301 . S
C92 O81 1.226 1_554 S
C92 O82 1.307 . S
C93 O85 1.303 . S
C93 O86 1.247 . S
C94 O83 1.253 . S
C94 O84 1.283 . S
C95 O87 1.304 . S
C95 O89 1.272 . S
C96 O88 1.311 . S
C96 O90 1.231 . S
O97 Zn79 1.953 . S
O97 C91 1.301 . S
H98 C106 0.929 . S
H99 C108 0.930 . S
H100 C110 0.930 . S
H101 C113 0.929 . S
H102 C116 0.930 . S
H103 C118 0.960 . S
H104 C118 0.960 . S
H105 C118 0.960 . S
C106 H98 0.929 . S
C106 C107 1.377 . S
C106 C108 1.384 . S
C107 C106 1.377 . S
C107 C113 1.390 . S
C108 H99 0.930 . S
C108 C106 1.384 . S
C108 C109 1.372 . S
C109 C108 1.372 . S
C109 C110 1.400 . S
C109 C114 1.490 . S
C110 H100 0.930 . S
C110 C109 1.400 . S
C110 C113 1.386 . S
H111 C127 0.930 . S
H112 C128 0.931 . S
C113 H101 0.929 . S
C113 C107 1.390 . S
C113 C110 1.386 . S
C114 C109 1.490 . S
C114 C116 1.395 . S
C114 C117 1.403 . S
H115 C121 0.930 . S
C116 H102 0.930 . S
C116 C114 1.395 . S
C116 C119 1.403 . S
C117 C114 1.403 . S
C117 C118 1.524 . S
C117 C121 1.400 . S
C118 H103 0.960 . S
C118 H104 0.960 . S
C118 H105 0.960 . S
C118 C117 1.524 . S
C119 C116 1.403 . S
C119 C120 1.392 . S
C119 C123 1.495 . S
C120 C119 1.392 . S
C120 C121 1.385 . S
C120 C122 1.478 . S
C121 H115 0.930 . S
C121 C117 1.400 . S
C121 C120 1.385 . S
C122 C120 1.478 . S
C122 C124 1.381 . S
C122 C128 1.383 . S
C123 C119 1.495 . S
C123 H129 0.959 . S
C123 H130 0.961 . S
C123 H131 0.960 . S
C124 C122 1.381 . S
C124 C125 1.394 . S
C124 H132 0.930 . S
C125 C124 1.394 . S
C125 C126 1.383 . S
C125 H133 0.929 . S
C126 C125 1.383 . S
C126 C127 1.377 . S
C127 H111 0.930 . S
C127 C126 1.377 . S
C127 C128 1.379 . S
C128 H112 0.931 . S
C128 C122 1.383 . S
C128 C127 1.379 . S
H129 C123 0.959 . S
H130 C123 0.961 . S
H131 C123 0.960 . S
H132 C124 0.930 . S
H133 C125 0.929 . S
H134 C142 0.929 . S
H135 C144 0.930 . S
H136 C146 0.930 . S
H137 C149 0.929 . S
H138 C152 0.930 . S
H139 C154 0.959 1_556 S
H140 C154 0.960 . S
H141 C154 0.960 1_556 S
C142 H134 0.929 . S
C142 C143 1.377 . S
C142 C144 1.384 . S
C143 C142 1.377 . S
C143 C149 1.390 1_554 S
C144 H135 0.930 . S
C144 C142 1.384 . S
C144 C145 1.372 . S
C145 C144 1.372 . S
C145 C146 1.400 1_554 S
C145 C150 1.490 . S
C146 H136 0.930 . S
C146 C145 1.400 1_556 S
C146 C149 1.386 . S
H147 C163 0.930 . S
H148 C164 0.931 . S
C149 H137 0.929 . S
C149 C143 1.390 1_556 S
C149 C146 1.386 . S
C150 C145 1.490 . S
C150 C152 1.395 . S
C150 C153 1.403 . S
H151 C157 0.933 . S
C152 H138 0.930 . S
C152 C150 1.395 . S
C152 C155 1.403 . S
C153 C150 1.403 . S
C153 C154 1.524 . S
C153 C157 1.400 . S
C154 H139 0.959 1_554 S
C154 H140 0.960 . S
C154 H141 0.960 1_554 S
C154 C153 1.524 . S
C155 C152 1.403 . S
C155 C156 1.392 . S
C155 C159 1.495 . S
C156 C155 1.392 . S
C156 C157 1.385 . S
C156 C158 1.478 . S
C157 H151 0.933 . S
C157 C153 1.400 . S
C157 C156 1.385 . S
C158 C156 1.478 . S
C158 C160 1.381 . S
C158 C164 1.383 1_554 S
C159 C155 1.495 . S
C159 H165 0.959 . S
C159 H166 0.961 1_554 S
C159 H167 0.960 . S
C160 C158 1.381 . S
C160 C161 1.394 . S
C160 H168 0.930 . S
C161 C160 1.394 . S
C161 C162 1.383 . S
C161 H169 0.929 . S
C162 C161 1.383 . S
C162 C163 1.377 1_554 S
C163 H147 0.930 . S
C163 C162 1.377 1_556 S
C163 C164 1.379 . S
C164 H148 0.931 . S
C164 C158 1.383 1_556 S
C164 C163 1.379 . S
H165 C159 0.959 . S
H166 C159 0.961 1_556 S
H167 C159 0.960 . S
H168 C160 0.930 . S
H169 C161 0.929 . S
H170 C178 0.929 . S
H171 C180 0.930 . S
H172 C182 0.930 . S
H173 C185 0.929 . S
H174 C188 0.930 . S
H175 C190 0.960 . S
H176 C190 0.960 . S
H177 C190 0.960 . S
C178 H170 0.929 . S
C178 C179 1.377 . S
C178 C180 1.384 . S
C179 C178 1.377 . S
C179 C185 1.390 . S
C180 H171 0.930 . S
C180 C178 1.384 . S
C180 C181 1.372 . S
C181 C180 1.372 . S
C181 C182 1.400 . S
C181 C186 1.490 . S
C182 H172 0.930 . S
C182 C181 1.400 . S
C182 C185 1.386 . S
H183 C199 0.930 . S
H184 C200 0.931 . S
C185 H173 0.929 . S
C185 C179 1.390 . S
C185 C182 1.386 . S
C186 C181 1.490 . S
C186 C188 1.395 . S
C186 C189 1.403 . S
H187 C193 0.930 . S
C188 H174 0.930 . S
C188 C186 1.395 . S
C188 C191 1.403 . S
C189 C186 1.403 . S
C189 C190 1.524 . S
C189 C193 1.400 . S
C190 H175 0.960 . S
C190 H176 0.960 . S
C190 H177 0.960 . S
C190 C189 1.524 . S
C191 C188 1.403 . S
C191 C192 1.392 . S
C191 C195 1.495 . S
C192 C191 1.392 . S
C192 C193 1.385 . S
C192 C194 1.478 . S
C193 H187 0.930 . S
C193 C189 1.400 . S
C193 C192 1.385 . S
C194 C192 1.478 . S
C194 C196 1.381 . S
C194 C200 1.383 . S
C195 C191 1.495 . S
C195 H201 0.959 . S
C195 H202 0.961 . S
C195 H203 0.960 . S
C196 C194 1.381 . S
C196 C197 1.394 . S
C196 H204 0.930 . S
C197 C196 1.394 . S
C197 C198 1.383 . S
C197 H205 0.929 . S
C198 C197 1.383 . S
C198 C199 1.377 . S
C199 H183 0.930 . S
C199 C198 1.377 . S
C199 C200 1.379 . S
C200 H184 0.931 . S
C200 C194 1.383 . S
C200 C199 1.379 . S
H201 C195 0.959 . S
H202 C195 0.961 . S
H203 C195 0.960 . S
H204 C196 0.930 . S
H205 C197 0.929 . S
H206 C214 0.929 . S
H207 C216 0.930 . S
H208 C218 0.930 . S
H209 C221 0.929 . S
H210 C224 0.930 . S
H211 C226 0.960 . S
H212 C226 0.960 . S
H213 C226 0.960 . S
C214 H206 0.929 . S
C214 C215 1.377 . S
C214 C216 1.384 . S
C215 C214 1.377 . S
C215 C221 1.390 1_556 S
C216 H207 0.930 . S
C216 C214 1.384 . S
C216 C217 1.372 . S
C217 C216 1.372 . S
C217 C218 1.400 1_556 S
C217 C222 1.490 . S
C218 H208 0.930 . S
C218 C217 1.400 1_554 S
C218 C221 1.386 . S
H219 C235 0.930 . S
H220 C236 0.931 . S
C221 H209 0.929 . S
C221 C215 1.390 1_554 S
C221 C218 1.386 . S
C222 C217 1.490 . S
C222 C224 1.395 . S
C222 C225 1.403 1_556 S
H223 C229 0.930 . S
C224 H210 0.930 . S
C224 C222 1.395 . S
C224 C227 1.403 . S
C225 C222 1.403 1_554 S
C225 C226 1.524 . S
C225 C229 1.400 . S
C226 H211 0.960 . S
C226 H212 0.960 . S
C226 H213 0.960 . S
C226 C225 1.524 . S
C227 C224 1.403 . S
C227 C228 1.392 . S
C227 C231 1.495 . S
C228 C227 1.392 . S
C228 C229 1.385 1_556 S
C228 C230 1.478 . S
C229 H223 0.930 . S
C229 C225 1.400 . S
C229 C228 1.385 1_554 S
C230 C228 1.478 . S
C230 C232 1.381 . S
C230 C236 1.383 1_556 S
C231 C227 1.495 . S
C231 H237 0.959 . S
C231 H238 0.961 . S
C231 H239 0.960 . S
C232 C230 1.381 . S
C232 C233 1.394 . S
C232 H240 0.930 . S
C233 C232 1.394 . S
C233 C234 1.402 . S
C233 H241 0.929 . S
C234 C233 1.402 . S
C234 C235 1.359 1_556 S
C235 H219 0.930 . S
C235 C234 1.359 1_554 S
C235 C236 1.379 . S
C236 H220 0.931 . S
C236 C230 1.383 1_554 S
C236 C235 1.379 . S
H237 C231 0.959 . S
H238 C231 0.961 . S
H239 C231 0.960 . S
H240 C232 0.930 . S
H241 C233 0.929 . S
H242 C250 0.929 . S
H243 C252 0.930 . S
H244 C254 0.930 . S
H245 C257 0.929 . S
H246 C260 0.930 . S
H247 C262 0.960 . S
H248 C262 0.960 . S
H249 C262 0.960 . S
C250 H242 0.929 . S
C250 C251 1.377 . S
C250 C252 1.384 . S
C251 C250 1.377 . S
C251 C257 1.390 . S
C252 H243 0.930 . S
C252 C250 1.384 . S
C252 C253 1.372 . S
C253 C252 1.372 . S
C253 C254 1.400 . S
C253 C258 1.490 . S
C254 H244 0.930 . S
C254 C253 1.400 . S
C254 C257 1.386 . S
H255 C271 0.930 . S
H256 C272 0.931 . S
C257 H245 0.929 . S
C257 C251 1.390 . S
C257 C254 1.386 . S
C258 C253 1.490 . S
C258 C260 1.395 . S
C258 C261 1.403 . S
H259 C265 0.930 . S
C260 H246 0.930 . S
C260 C258 1.395 . S
C260 C263 1.403 . S
C261 C258 1.403 . S
C261 C262 1.524 . S
C261 C265 1.400 . S
C262 H247 0.960 . S
C262 H248 0.960 . S
C262 H249 0.960 . S
C262 C261 1.524 . S
C263 C260 1.403 . S
C263 C264 1.392 . S
C263 C267 1.495 . S
C264 C263 1.392 . S
C264 C265 1.385 . S
C264 C266 1.478 . S
C265 H259 0.930 . S
C265 C261 1.400 . S
C265 C264 1.385 . S
C266 C264 1.478 . S
C266 C268 1.381 . S
C266 C272 1.383 . S
C267 C263 1.495 . S
C267 H273 0.959 . S
C267 H274 0.961 . S
C267 H275 0.960 . S
C268 C266 1.381 . S
C268 C269 1.394 . S
C268 H276 0.930 . S
C269 C268 1.394 . S
C269 C270 1.383 . S
C269 H277 0.929 . S
C270 C269 1.383 . S
C270 C271 1.377 . S
C271 H255 0.930 . S
C271 C270 1.377 . S
C271 C272 1.379 . S
C272 H256 0.931 . S
C272 C266 1.383 . S
C272 C271 1.379 . S
H273 C267 0.959 . S
H274 C267 0.961 . S
H275 C267 0.960 . S
H276 C268 0.930 . S
H277 C269 0.929 . S
H278 C286 0.929 . S
H279 C288 0.930 . S
H280 C290 0.930 . S
H281 C293 0.929 . S
H282 C296 0.930 . S
H283 C298 0.960 . S
H284 C298 0.960 . S
H285 C298 0.960 . S
C286 H278 0.929 . S
C286 C287 1.377 . S
C286 C288 1.384 . S
C287 C286 1.377 . S
C287 C293 1.390 . S
C288 H279 0.930 . S
C288 C286 1.384 . S
C288 C289 1.372 . S
C289 C288 1.372 . S
C289 C290 1.400 . S
C289 C294 1.490 . S
C290 H280 0.930 . S
C290 C289 1.400 . S
C290 C293 1.386 . S
H291 C307 0.930 . S
H292 C308 0.931 . S
C293 H281 0.929 . S
C293 C287 1.390 . S
C293 C290 1.386 . S
C294 C289 1.490 . S
C294 C296 1.395 . S
C294 C297 1.403 . S
H295 C301 0.930 . S
C296 H282 0.930 . S
C296 C294 1.395 . S
C296 C299 1.403 . S
C297 C294 1.403 . S
C297 C298 1.524 . S
C297 C301 1.400 . S
C298 H283 0.960 . S
C298 H284 0.960 . S
C298 H285 0.960 . S
C298 C297 1.524 . S
C299 C296 1.403 . S
C299 C300 1.392 . S
C299 C303 1.495 . S
C300 C299 1.392 . S
C300 C301 1.385 . S
C300 C302 1.478 . S
C301 H295 0.930 . S
C301 C297 1.400 . S
C301 C300 1.385 . S
C302 C300 1.478 . S
C302 C304 1.381 . S
C302 C308 1.383 . S
C303 C299 1.495 . S
C303 H309 0.959 . S
C303 H310 0.961 . S
C303 H311 0.960 . S
C304 C302 1.381 . S
C304 C305 1.394 . S
C304 H312 0.930 . S
C305 C304 1.394 . S
C305 C306 1.383 . S
C305 H313 0.929 . S
C306 C305 1.383 . S
C306 C307 1.377 . S
C307 H291 0.930 . S
C307 C306 1.377 . S
C307 C308 1.379 . S
C308 H292 0.931 . S
C308 C302 1.383 . S
C308 C307 1.379 . S
H309 C303 0.959 . S
H310 C303 0.961 . S
H311 C303 0.960 . S
H312 C304 0.930 . S
H313 C305 0.929 . S
H314 C322 0.929 . S
H315 C324 0.930 . S
H316 C326 0.930 . S
H317 C329 0.929 . S
H318 C332 0.930 . S
H319 C334 0.960 . S
H320 C334 0.960 . S
H321 C334 0.960 . S
C322 H314 0.929 . S
C322 C323 1.377 . S
C322 C324 1.384 . S
C323 C322 1.377 . S
C323 C329 1.390 . S
C324 H315 0.930 . S
C324 C322 1.384 . S
C324 C325 1.372 . S
C325 C324 1.372 . S
C325 C326 1.400 . S
C325 C330 1.490 . S
C326 H316 0.930 . S
C326 C325 1.400 . S
C326 C329 1.386 . S
H327 C343 0.930 . S
H328 C344 0.931 . S
C329 H317 0.929 . S
C329 C323 1.390 . S
C329 C326 1.386 . S
C330 C325 1.490 . S
C330 C332 1.395 . S
C330 C333 1.403 . S
H331 C337 0.930 . S
C332 H318 0.930 . S
C332 C330 1.395 . S
C332 C335 1.403 . S
C333 C330 1.403 . S
C333 C334 1.524 . S
C333 C337 1.400 . S
C334 H319 0.960 . S
C334 H320 0.960 . S
C334 H321 0.960 . S
C334 C333 1.524 . S
C335 C332 1.403 . S
C335 C336 1.392 . S
C335 C339 1.495 . S
C336 C335 1.392 . S
C336 C337 1.385 . S
C336 C338 1.478 . S
C337 H331 0.930 . S
C337 C333 1.400 . S
C337 C336 1.385 . S
C338 C336 1.478 . S
C338 C340 1.381 . S
C338 C344 1.383 . S
C339 C335 1.495 . S
C339 H345 0.959 . S
C339 H346 0.961 . S
C339 H347 0.960 . S
C340 C338 1.381 . S
C340 C341 1.394 . S
C340 H348 0.930 . S
C341 C340 1.394 . S
C341 C342 1.383 . S
C341 H349 0.929 . S
C342 C341 1.383 . S
C342 C343 1.377 . S
C343 H327 0.930 . S
C343 C342 1.377 . S
C343 C344 1.379 . S
C344 H328 0.931 . S
C344 C338 1.383 . S
C344 C343 1.379 . S
H345 C339 0.959 . S
H346 C339 0.961 . S
H347 C339 0.960 . S
H348 C340 0.930 . S
H349 C341 0.929 . S
H350 C358 0.929 . S
H351 C360 0.930 . S
H352 C362 0.930 . S
H353 C365 0.929 . S
H354 C368 0.930 . S
H355 C370 0.960 . S
H356 C370 0.960 . S
H357 C370 0.960 . S
C358 H350 0.929 . S
C358 C359 1.377 . S
C358 C360 1.384 . S
C359 C358 1.377 . S
C359 C365 1.390 . S
C360 H351 0.930 . S
C360 C358 1.384 . S
C360 C361 1.372 . S
C361 C360 1.372 . S
C361 C362 1.400 . S
C361 C366 1.490 . S
C362 H352 0.930 . S
C362 C361 1.400 . S
C362 C365 1.386 . S
H363 C379 0.930 . S
H364 C380 0.931 . S
C365 H353 0.929 . S
C365 C359 1.390 . S
C365 C362 1.386 . S
C366 C361 1.490 . S
C366 C368 1.395 . S
C366 C369 1.403 . S
H367 C373 0.930 . S
C368 H354 0.930 . S
C368 C366 1.395 . S
C368 C371 1.403 . S
C369 C366 1.403 . S
C369 C370 1.524 . S
C369 C373 1.400 . S
C370 H355 0.960 . S
C370 H356 0.960 . S
C370 H357 0.960 . S
C370 C369 1.524 . S
C371 C368 1.403 . S
C371 C372 1.392 . S
C371 C375 1.495 . S
C372 C371 1.392 . S
C372 C373 1.385 . S
C372 C374 1.478 . S
C373 H367 0.930 . S
C373 C369 1.400 . S
C373 C372 1.385 . S
C374 C372 1.478 . S
C374 C376 1.381 . S
C374 C380 1.383 . S
C375 C371 1.495 . S
C375 H381 0.959 . S
C375 H382 0.961 . S
C375 H383 0.960 . S
C376 C374 1.381 . S
C376 C377 1.394 . S
C376 H384 0.930 . S
C377 C376 1.394 . S
C377 C378 1.383 . S
C377 H385 0.929 . S
C378 C377 1.383 . S
C378 C379 1.377 . S
C379 H363 0.930 . S
C379 C378 1.377 . S
C379 C380 1.379 . S
C380 H364 0.931 . S
C380 C374 1.383 . S
C380 C379 1.379 . S
H381 C375 0.959 . S
H382 C375 0.961 . S
H383 C375 0.960 . S
H384 C376 0.930 . S
H385 C377 0.929 . S
H386 C394 0.929 . S
H387 C396 0.930 . S
H388 C398 0.930 . S
H389 C401 0.929 . S
H390 C404 0.930 . S
H391 C406 0.960 . S
H392 C406 0.960 . S
H393 C406 0.960 . S
C394 H386 0.929 . S
C394 C395 1.377 . S
C394 C396 1.384 . S
C395 C394 1.377 . S
C395 C401 1.390 . S
C396 H387 0.930 . S
C396 C394 1.384 . S
C396 C397 1.372 . S
C397 C396 1.372 . S
C397 C398 1.400 . S
C397 C402 1.490 . S
C398 H388 0.930 . S
C398 C397 1.400 . S
C398 C401 1.386 . S
H399 C415 0.930 . S
H400 C416 0.931 . S
C401 H389 0.929 . S
C401 C395 1.390 . S
C401 C398 1.386 . S
C402 C397 1.490 . S
C402 C404 1.395 . S
C402 C405 1.403 . S
H403 C409 0.930 . S
C404 H390 0.930 . S
C404 C402 1.395 . S
C404 C407 1.403 . S
C405 C402 1.403 . S
C405 C406 1.524 . S
C405 C409 1.400 . S
C406 H391 0.960 . S
C406 H392 0.960 . S
C406 H393 0.960 . S
C406 C405 1.524 . S
C407 C404 1.403 . S
C407 C408 1.392 . S
C407 C411 1.495 . S
C408 C407 1.392 . S
C408 C409 1.385 . S
C408 C410 1.478 . S
C409 H403 0.930 . S
C409 C405 1.400 . S
C409 C408 1.385 . S
C410 C408 1.478 . S
C410 C412 1.381 . S
C410 C416 1.383 . S
C411 C407 1.495 . S
C411 H417 0.959 . S
C411 H418 0.961 . S
C411 H419 0.960 . S
C412 C410 1.381 . S
C412 C413 1.394 . S
C412 H420 0.930 . S
C413 C412 1.394 . S
C413 C414 1.383 . S
C413 H421 0.929 . S
C414 C413 1.383 . S
C414 C415 1.377 . S
C415 H399 0.930 . S
C415 C414 1.377 . S
C415 C416 1.379 . S
C416 H400 0.931 . S
C416 C410 1.383 . S
C416 C415 1.379 . S
H417 C411 0.959 . S
H418 C411 0.961 . S
H419 C411 0.960 . S
H420 C412 0.930 . S
H421 C413 0.929 . S
H422 C430 0.929 . S
H423 C432 0.930 . S
H424 C434 0.930 . S
H425 C437 0.929 . S
H426 C440 0.930 . S
H427 C442 0.960 . S
H428 C442 0.960 . S
H429 C442 0.960 . S
C430 H422 0.929 . S
C430 C431 1.377 . S
C430 C432 1.384 . S
C431 C430 1.377 . S
C431 C437 1.390 . S
C432 H423 0.930 . S
C432 C430 1.384 . S
C432 C433 1.372 . S
C433 C432 1.372 . S
C433 C434 1.400 . S
C433 C438 1.490 . S
C434 H424 0.930 . S
C434 C433 1.400 . S
C434 C437 1.386 . S
H435 C451 0.930 . S
H436 C452 0.931 . S
C437 H425 0.929 . S
C437 C431 1.390 . S
C437 C434 1.386 . S
C438 C433 1.490 . S
C438 C440 1.395 . S
C438 C441 1.403 . S
H439 C445 0.930 . S
C440 H426 0.930 . S
C440 C438 1.395 . S
C440 C443 1.403 . S
C441 C438 1.403 . S
C441 C442 1.524 . S
C441 C445 1.400 . S
C442 H427 0.960 . S
C442 H428 0.960 . S
C442 H429 0.960 . S
C442 C441 1.524 . S
C443 C440 1.403 . S
C443 C444 1.392 . S
C443 C447 1.495 . S
C444 C443 1.392 . S
C444 C445 1.385 . S
C444 C446 1.478 . S
C445 H439 0.930 . S
C445 C441 1.400 . S
C445 C444 1.385 . S
C446 C444 1.478 . S
C446 C448 1.381 . S
C446 C452 1.383 . S
C447 C443 1.495 . S
C447 H453 0.959 . S
C447 H454 0.961 . S
C447 H455 0.960 . S
C448 C446 1.381 . S
C448 C449 1.394 . S
C448 H456 0.930 . S
C449 C448 1.394 . S
C449 C450 1.383 . S
C449 H457 0.929 . S
C450 C449 1.383 . S
C450 C451 1.377 . S
C451 H435 0.930 . S
C451 C450 1.377 . S
C451 C452 1.379 . S
C452 H436 0.931 . S
C452 C446 1.383 . S
C452 C451 1.379 . S
H453 C447 0.959 . S
H454 C447 0.961 . S
H455 C447 0.960 . S
H456 C448 0.930 . S
H457 C449 0.929 . S
H458 C466 0.929 . S
H459 C468 0.930 . S
H460 C470 0.930 . S
H461 C473 0.929 . S
H462 C476 0.930 . S
H463 C478 0.960 . S
H464 C478 0.960 . S
H465 C478 0.960 . S
C466 H458 0.929 . S
C466 C467 1.377 . S
C466 C468 1.384 . S
C467 C466 1.377 . S
C467 C473 1.390 . S
C468 H459 0.930 . S
C468 C466 1.384 . S
C468 C469 1.372 . S
C469 C468 1.372 . S
C469 C470 1.400 . S
C469 C474 1.490 . S
C470 H460 0.930 . S
C470 C469 1.400 . S
C470 C473 1.386 . S
H471 C487 0.930 . S
H472 C488 0.931 . S
C473 H461 0.929 . S
C473 C467 1.390 . S
C473 C470 1.386 . S
C474 C469 1.490 . S
C474 C476 1.395 . S
C474 C477 1.403 . S
H475 C481 0.930 . S
C476 H462 0.930 . S
C476 C474 1.395 . S
C476 C479 1.403 . S
C477 C474 1.403 . S
C477 C478 1.524 . S
C477 C481 1.400 . S
C478 H463 0.960 . S
C478 H464 0.960 . S
C478 H465 0.960 . S
C478 C477 1.524 . S
C479 C476 1.403 . S
C479 C480 1.392 . S
C479 C483 1.495 . S
C480 C479 1.392 . S
C480 C481 1.385 . S
C480 C482 1.478 . S
C481 H475 0.930 . S
C481 C477 1.400 . S
C481 C480 1.385 . S
C482 C480 1.478 . S
C482 C484 1.381 . S
C482 C488 1.383 . S
C483 C479 1.495 . S
C483 H489 0.959 . S
C483 H490 0.961 . S
C483 H491 0.960 . S
C484 C482 1.381 . S
C484 C485 1.394 . S
C484 H492 0.930 . S
C485 C484 1.394 . S
C485 C486 1.383 . S
C485 H493 0.929 . S
C486 C485 1.383 . S
C486 C487 1.377 . S
C487 H471 0.930 . S
C487 C486 1.377 . S
C487 C488 1.379 . S
C488 H472 0.931 . S
C488 C482 1.383 . S
C488 C487 1.379 . S
H489 C483 0.959 . S
H490 C483 0.961 . S
H491 C483 0.960 . S
H492 C484 0.930 . S
H493 C485 0.929 . S
H494 C502 0.929 . S
H495 C504 0.930 . S
H496 C506 0.930 . S
H497 C509 0.929 . S
H498 C512 0.930 . S
H499 C514 0.960 . S
H500 C514 0.960 . S
H501 C514 0.960 . S
C502 H494 0.929 . S
C502 C503 1.377 . S
C502 C504 1.384 . S
C503 C502 1.377 . S
C503 C509 1.390 . S
C504 H495 0.930 . S
C504 C502 1.384 . S
C504 C505 1.372 . S
C505 C504 1.372 . S
C505 C506 1.400 . S
C505 C510 1.490 . S
C506 H496 0.930 . S
C506 C505 1.400 . S
C506 C509 1.386 . S
H507 C523 0.930 . S
H508 C524 0.931 . S
C509 H497 0.929 . S
C509 C503 1.390 . S
C509 C506 1.386 . S
C510 C505 1.490 . S
C510 C512 1.395 . S
C510 C513 1.403 . S
H511 C517 0.930 . S
C512 H498 0.930 . S
C512 C510 1.395 . S
C512 C515 1.403 . S
C513 C510 1.403 . S
C513 C514 1.524 . S
C513 C517 1.400 . S
C514 H499 0.960 . S
C514 H500 0.960 . S
C514 H501 0.960 . S
C514 C513 1.524 . S
C515 C512 1.403 . S
C515 C516 1.392 . S
C515 C519 1.495 . S
C516 C515 1.392 . S
C516 C517 1.385 . S
C516 C518 1.478 . S
C517 H511 0.930 . S
C517 C513 1.400 . S
C517 C516 1.385 . S
C518 C516 1.478 . S
C518 C520 1.381 . S
C518 C524 1.383 . S
C519 C515 1.495 . S
C519 H525 0.959 . S
C519 H526 0.961 . S
C519 H527 0.960 . S
C520 C518 1.381 . S
C520 C521 1.394 . S
C520 H528 0.930 . S
C521 C520 1.394 . S
C521 C522 1.383 . S
C521 H529 0.929 . S
C522 C521 1.383 . S
C522 C523 1.377 . S
C523 H507 0.930 . S
C523 C522 1.377 . S
C523 C524 1.379 . S
C524 H508 0.931 . S
C524 C518 1.383 . S
C524 C523 1.379 . S
H525 C519 0.959 . S
H526 C519 0.961 . S
H527 C519 0.960 . S
H528 C520 0.930 . S
H529 C521 0.929 . S
C126 C69 1.479 . S
C107 C43 1.427 . S
C143 C4 1.432 . S
C162 C92 1.476 . S
C179 C17 1.473 . S
C198 C68 1.521 . S
C215 C30 1.474 . S
C234 C91 1.521 1_556 S
C270 C72 1.431 . S
C251 C9 1.431 . S
C306 C94 1.446 . S
C287 C21 1.502 . S
C323 C34 1.462 . S
C342 C73 1.414 . S
C359 C48 1.492 . S
C378 C93 1.471 . S
C414 C96 1.392 . S
C395 C22 1.436 . S
C450 C71 1.487 . S
C431 C35 1.502 . S
C486 C95 1.432 . S
C467 C47 1.453 . S
C503 C8 1.491 . S
C522 C70 1.441 . S
