# Generated by pormake.
# Topology anh, (6,3)-cn, num edge types: 1
# Building blocks:
#     Node 0, Type 0, BuildingBlock: BETDEL_clean_sbu_0, # of connection points: 6
#     Node 1, Type 0, BuildingBlock: BETDEL_clean_sbu_0, # of connection points: 6
#     Node 2, Type 0, BuildingBlock: BETDEL_clean_sbu_0, # of connection points: 6
#     Node 3, Type 1, BuildingBlock: BELTOD_clean_linker_0, # of connection points: 3
#     Node 4, Type 1, BuildingBlock: BELTOD_clean_linker_0, # of connection points: 3
#     Node 5, Type 1, BuildingBlock: BELTOD_clean_linker_0, # of connection points: 3
#     Node 6, Type 1, BuildingBlock: BELTOD_clean_linker_0, # of connection points: 3
#     Node 7, Type 1, BuildingBlock: BELTOD_clean_linker_0, # of connection points: 3
#     Node 8, Type 1, BuildingBlock: BELTOD_clean_linker_0, # of connection points: 3
#     Edge 9, Type (0, 1), BuildingBlock: UVAHIK_clean_linker_0, # of connection points: 2
#     Edge 10, Type (0, 1), BuildingBlock: UVAHIK_clean_linker_0, # of connection points: 2
#     Edge 11, Type (0, 1), BuildingBlock: UVAHIK_clean_linker_0, # of connection points: 2
#     Edge 12, Type (0, 1), BuildingBlock: UVAHIK_clean_linker_0, # of connection points: 2
#     Edge 13, Type (0, 1), BuildingBlock: UVAHIK_clean_linker_0, # of connection points: 2
#     Edge 14, Type (0, 1), BuildingBlock: UVAHIK_clean_linker_0, # of connection points: 2
#     Edge 15, Type (0, 1), BuildingBlock: UVAHIK_clean_linker_0, # of connection points: 2
#     Edge 16, Type (0, 1), BuildingBlock: UVAHIK_clean_linker_0, # of connection points: 2
#     Edge 17, Type (0, 1), BuildingBlock: UVAHIK_clean_linker_0, # of connection points: 2
#     Edge 18, Type (0, 1), BuildingBlock: UVAHIK_clean_linker_0, # of connection points: 2
#     Edge 19, Type (0, 1), BuildingBlock: UVAHIK_clean_linker_0, # of connection points: 2
#     Edge 20, Type (0, 1), BuildingBlock: UVAHIK_clean_linker_0, # of connection points: 2
#     Edge 21, Type (0, 1), BuildingBlock: UVAHIK_clean_linker_0, # of connection points: 2
#     Edge 22, Type (0, 1), BuildingBlock: UVAHIK_clean_linker_0, # of connection points: 2
#     Edge 23, Type (0, 1), BuildingBlock: UVAHIK_clean_linker_0, # of connection points: 2
#     Edge 24, Type (0, 1), BuildingBlock: UVAHIK_clean_linker_0, # of connection points: 2
#     Edge 25, Type (0, 1), BuildingBlock: UVAHIK_clean_linker_0, # of connection points: 2
#     Edge 26, Type (0, 1), BuildingBlock: UVAHIK_clean_linker_0, # of connection points: 2
# Relax obj value: 0.126
# Max RMSD: 0.159
# Mean RMSD: 0.122
data_MOF--net-anh--node1-BETDEL_clean_sbu_0--node2-BELTOD_clean_linker_0--edge1-UVAHIK_clean_linker_0
_symmetry_space_group_name_H-M    P1
_symmetry_Int_Tables_number       1
_symmetry_cell_setting            triclinic
loop_
_symmetry_equiv_pos_as_xyz
'x, y, z'
_cell_length_a     42.387974
_cell_length_b     42.359254
_cell_length_c     74.462249
_cell_angle_alpha  90.23198
_cell_angle_beta   90.033921
_cell_angle_gamma 120.02444
loop_
_atom_site_label
_atom_site_type_symbol
_atom_site_fract_x
_atom_site_fract_y
_atom_site_fract_z
_atom_type_partial_charge
Dy0 Dy 0.03955 0.48952 0.16234 0.0
C1 C 0.95345 0.55482 0.17806 0.0
C2 C 0.08642 0.4676 0.15023 0.0
Dy3 Dy 0.99998 0.53061 0.16838 0.0
O4 O 0.06644 0.45543 0.16451 0.0
O5 O 0.08026 0.49126 0.14233 0.0
O6 O 0.02038 0.46136 0.18862 0.0
O7 O 0.031 0.51527 0.18603 0.0
C8 C 0.01846 0.48792 0.19625 0.0
C9 C 0.02141 0.53093 0.13448 0.0
O10 O 0.05505 0.57546 0.17658 0.0
O11 O 0.08564 0.54805 0.16431 0.0
O12 O 0.97111 0.56192 0.16305 0.0
O13 O 0.96165 0.53485 0.18803 0.0
O14 O 0.02195 0.55874 0.14212 0.0
O15 O 0.00777 0.5039 0.14485 0.0
O16 O 0.98361 0.4442 0.15538 0.0
O17 O 0.95428 0.47208 0.16852 0.0
C18 C 0.08564 0.57691 0.17139 0.0
C19 C 0.95366 0.44282 0.16163 0.0
Dy20 Dy 0.46996 0.02566 0.49997 0.0
C21 C 0.62371 0.11439 0.51988 0.0
C22 C 0.39971 0.97773 0.49069 0.0
Dy23 Dy 0.556 0.07269 0.50556 0.0
O24 O 0.41419 0.9799 0.50633 0.0
O25 O 0.42371 0.00195 0.4799 0.0
O26 O 0.46366 0.04355 0.52768 0.0
O27 O 0.50882 0.03773 0.52168 0.0
C28 C 0.49454 0.04788 0.53346 0.0
C29 C 0.53902 0.06616 0.47031 0.0
O30 O 0.54638 0.0161 0.50925 0.0
O31 O 0.48749 0.98352 0.49735 0.0
O32 O 0.61447 0.08758 0.50862 0.0
O33 O 0.59558 0.11779 0.52365 0.0
O34 O 0.57216 0.08437 0.47639 0.0
O35 O 0.51791 0.0534 0.48349 0.0
O36 O 0.47895 0.08187 0.49554 0.0
O37 O 0.53708 0.11347 0.50836 0.0
C38 C 0.51793 0.98529 0.50338 0.0
C39 C 0.5072 0.11225 0.50194 0.0
Dy40 Dy 0.56369 0.58016 0.82963 0.0
C41 C 0.50372 0.42934 0.84663 0.0
C42 C 0.58554 0.64908 0.81791 0.0
Dy43 Dy 0.52433 0.49813 0.83509 0.0
O44 O 0.59525 0.64108 0.83296 0.0
O45 O 0.56426 0.61938 0.80907 0.0
O46 O 0.58778 0.58935 0.85731 0.0
O47 O 0.53613 0.54409 0.85229 0.0
C48 C 0.56132 0.55928 0.8637 0.0
C49 C 0.527 0.51903 0.80093 0.0
O50 O 0.47872 0.50807 0.84245 0.0
O51 O 0.50441 0.56482 0.82899 0.0
O52 O 0.48838 0.43709 0.83361 0.0
O53 O 0.52984 0.45922 0.85353 0.0
O54 O 0.5003 0.48932 0.80747 0.0
O55 O 0.55226 0.53406 0.81235 0.0
O56 O 0.6109 0.57175 0.82421 0.0
O57 O 0.58351 0.51316 0.83579 0.0
C58 C 0.47602 0.53589 0.83615 0.0
C59 C 0.6127 0.54306 0.82991 0.0
P60 P 0.54424 0.98649 0.22125 0.0
H61 H 0.52239 0.94724 0.18708 0.0
H62 H 0.46276 0.9017 0.17527 0.0
H63 H 0.41072 0.92414 0.21949 0.0
H64 H 0.46998 0.97033 0.23067 0.0
H65 H 0.62296 0.02136 0.2201 0.0
H66 H 0.67064 0.07883 0.20802 0.0
H67 H 0.58893 0.10198 0.18763 0.0
H68 H 0.54089 0.04385 0.20002 0.0
H69 H 0.51901 0.93991 0.25268 0.0
H70 H 0.55316 0.0518 0.24022 0.0
O71 O 0.56085 0.95813 0.22179 0.0
H72 H 0.50949 0.9505 0.28398 0.0
H73 H 0.54332 0.06257 0.2715 0.0
C74 C 0.50081 0.96199 0.20985 0.0
C75 C 0.49805 0.94311 0.19389 0.0
C76 C 0.46388 0.91669 0.1873 0.0
C77 C 0.43175 0.90851 0.19662 0.0
C78 C 0.43465 0.92959 0.21187 0.0
C79 C 0.4688 0.9561 0.21837 0.0
C80 C 0.57832 0.02788 0.2106 0.0
C81 C 0.61515 0.03842 0.21276 0.0
C82 C 0.6425 0.07139 0.2058 0.0
C83 C 0.63374 0.09498 0.19665 0.0
C84 C 0.59666 0.08449 0.19461 0.0
C85 C 0.56916 0.05118 0.20154 0.0
C86 C 0.53766 0.99528 0.24425 0.0
C87 C 0.52456 0.96682 0.25671 0.0
C88 C 0.51873 0.97281 0.27456 0.0
C89 C 0.52575 0.00742 0.28027 0.0
C90 C 0.53815 0.03573 0.2676 0.0
C91 C 0.54383 0.02963 0.2497 0.0
P92 P 0.57449 0.57479 0.54758 0.0
H93 H 0.58598 0.54146 0.51583 0.0
H94 H 0.56163 0.47805 0.50694 0.0
H95 H 0.48197 0.44434 0.54947 0.0
H96 H 0.50736 0.508 0.5586 0.0
H97 H 0.62093 0.65037 0.53735 0.0
H98 H 0.60889 0.69842 0.52864 0.0
H99 H 0.49306 0.62223 0.53057 0.0
H100 H 0.50564 0.5733 0.53851 0.0
H101 H 0.61707 0.56766 0.57647 0.0
H102 H 0.5204 0.57658 0.5718 0.0
O103 O 0.61832 0.58938 0.54325 0.0
H104 H 0.61079 0.56462 0.60911 0.0
H105 H 0.51413 0.57385 0.60446 0.0
C106 C 0.54905 0.52948 0.53811 0.0
C107 C 0.56276 0.5205 0.52301 0.0
C108 C 0.54862 0.48406 0.51788 0.0
C109 C 0.52018 0.45579 0.52768 0.0
C110 C 0.50449 0.46525 0.54189 0.0
C111 C 0.5188 0.50177 0.54705 0.0
C112 C 0.56421 0.6081 0.53847 0.0
C113 C 0.59289 0.64363 0.53556 0.0
C114 C 0.58591 0.67137 0.5308 0.0
C115 C 0.54996 0.66455 0.52923 0.0
C116 C 0.5211 0.62853 0.53159 0.0
C117 C 0.52822 0.60051 0.53617 0.0
C118 C 0.56966 0.57313 0.57168 0.0
C119 C 0.5947 0.56938 0.58246 0.0
C120 C 0.59116 0.56774 0.60114 0.0
C121 C 0.56215 0.56933 0.60939 0.0
C122 C 0.53673 0.57247 0.59851 0.0
C123 C 0.54045 0.57433 0.57982 0.0
P124 P 0.07186 0.59578 0.88409 0.0
H125 H 0.14185 0.63825 0.86593 0.0
H126 H 0.18682 0.62294 0.85548 0.0
H127 H 0.11201 0.50914 0.86643 0.0
H128 H 0.06716 0.52511 0.87743 0.0
H129 H 0.05251 0.63153 0.85645 0.0
H130 H 0.9944 0.61935 0.84388 0.0
H131 H 0.9398 0.5182 0.87342 0.0
H132 H 0.99863 0.52969 0.88497 0.0
H133 H 0.11797 0.583 0.90871 0.0
H134 H 0.01318 0.57667 0.91051 0.0
O135 O 0.09374 0.64117 0.88575 0.0
H136 H 0.11236 0.56673 0.94047 0.0
H137 H 0.00699 0.55899 0.94211 0.0
C138 C 0.10115 0.58284 0.87252 0.0
C139 C 0.13473 0.60989 0.8658 0.0
C140 C 0.16051 0.60101 0.85972 0.0
C141 C 0.15329 0.56476 0.86017 0.0
C142 C 0.11877 0.5374 0.86612 0.0
C143 C 0.09292 0.54639 0.87222 0.0
C144 C 0.02975 0.58218 0.87217 0.0
C145 C 0.02809 0.60643 0.85999 0.0
C146 C 0.99464 0.59957 0.85296 0.0
C147 C 0.96195 0.56835 0.85807 0.0
C148 C 0.96417 0.54264 0.86919 0.0
C149 C 0.99786 0.5493 0.87597 0.0
C150 C 0.06522 0.57939 0.9069 0.0
C151 C 0.09326 0.57706 0.91573 0.0
C152 C 0.09022 0.56803 0.93391 0.0
C153 C 0.05902 0.56111 0.9436 0.0
C154 C 0.03095 0.56343 0.9348 0.0
C155 C 0.03437 0.57323 0.91668 0.0
P156 P 0.05711 0.5114 0.44843 0.0
H157 H 0.11247 0.56068 0.47386 0.0
H158 H 0.13903 0.6259 0.47972 0.0
H159 H 0.06109 0.62908 0.44342 0.0
H160 H 0.03467 0.56373 0.4376 0.0
H161 H 0.04444 0.4494 0.47065 0.0
H162 H 0.99117 0.40396 0.48696 0.0
H163 H 0.9328 0.45945 0.47233 0.0
H164 H 0.9864 0.50493 0.45591 0.0
H165 H 0.09697 0.55356 0.41745 0.0
H166 H 0.99277 0.45789 0.42755 0.0
O167 O 0.0915 0.50327 0.45111 0.0
H168 H 0.08262 0.54891 0.38546 0.0
H169 H 0.97788 0.45353 0.3956 0.0
C170 C 0.07229 0.5577 0.45497 0.0
C171 C 0.10079 0.57532 0.46736 0.0
C172 C 0.11577 0.61255 0.47078 0.0
C173 C 0.10236 0.63268 0.46187 0.0
C174 C 0.07232 0.61437 0.45026 0.0
C175 C 0.0572 0.57706 0.44696 0.0
C176 C 0.01929 0.48047 0.46207 0.0
C177 C 0.02041 0.45215 0.47116 0.0
C178 C 0.98999 0.42629 0.48058 0.0
C179 C 0.95782 0.42816 0.48093 0.0
C180 C 0.95716 0.45722 0.4722 0.0
C181 C 0.98775 0.48326 0.46289 0.0
C182 C 0.04578 0.50645 0.42491 0.0
C183 C 0.07089 0.53168 0.41278 0.0
C184 C 0.06252 0.52915 0.39452 0.0
C185 C 0.02892 0.5011 0.38801 0.0
C186 C 0.00403 0.4754 0.40019 0.0
C187 C 0.01244 0.47801 0.4185 0.0
P188 P 0.6435 0.11676 0.7773 0.0
H189 H 0.6527 0.14453 0.81382 0.0
H190 H 0.6188 0.16546 0.83204 0.0
H191 H 0.5402 0.1362 0.78898 0.0
H192 H 0.57279 0.11294 0.77158 0.0
H193 H 0.6947 0.09207 0.7866 0.0
H194 H 0.68632 0.03178 0.79274 0.0
H195 H 0.56964 0.98516 0.78863 0.0
H196 H 0.57832 0.04578 0.78237 0.0
H197 H 0.63312 0.16663 0.75425 0.0
H198 H 0.63233 0.06486 0.7482 0.0
O199 O 0.68707 0.14873 0.78015 0.0
H200 H 0.61804 0.16473 0.72232 0.0
H201 H 0.61733 0.06288 0.71652 0.0
C202 C 0.61604 0.12854 0.7911 0.0
C203 C 0.62793 0.14233 0.80843 0.0
C204 C 0.60858 0.1545 0.81878 0.0
C205 C 0.57709 0.15342 0.81189 0.0
C206 C 0.56418 0.13748 0.79486 0.0
C207 C 0.58321 0.12468 0.78469 0.0
C208 C 0.63709 0.07336 0.78424 0.0
C209 C 0.66729 0.06901 0.78733 0.0
C210 C 0.66246 0.03452 0.79087 0.0
C211 C 0.62731 0.00372 0.79117 0.0
C212 C 0.59705 0.00834 0.78835 0.0
C213 C 0.60193 0.04293 0.78494 0.0
C214 C 0.63279 0.11539 0.75376 0.0
C215 C 0.62944 0.14378 0.74611 0.0
C216 C 0.6208 0.14266 0.7279 0.0
C217 C 0.61629 0.11354 0.71696 0.0
C218 C 0.62078 0.08574 0.72459 0.0
C219 C 0.62904 0.08671 0.7428 0.0
P220 P 0.50284 0.42141 0.10914 0.0
H221 H 0.53262 0.40179 0.1396 0.0
H222 H 0.58891 0.43503 0.15676 0.0
H223 H 0.61604 0.53283 0.12701 0.0
H224 H 0.56021 0.49893 0.10946 0.0
H225 H 0.42501 0.36965 0.10995 0.0
H226 H 0.37217 0.37588 0.11708 0.0
H227 H 0.44354 0.48935 0.13048 0.0
H228 H 0.4965 0.48284 0.12349 0.0
H229 H 0.51798 0.389 0.07788 0.0
H230 H 0.5083 0.48374 0.08932 0.0
O231 O 0.49125 0.37757 0.11056 0.0
H232 H 0.52869 0.40623 0.04618 0.0
H233 H 0.51962 0.50133 0.05776 0.0
C234 C 0.54258 0.4476 0.12295 0.0
C235 C 0.55061 0.43041 0.13679 0.0
C236 C 0.58271 0.44964 0.14676 0.0
C237 C 0.60726 0.48664 0.14321 0.0
C238 C 0.59815 0.50421 0.12987 0.0
C239 C 0.5661 0.48484 0.11984 0.0
C240 C 0.46469 0.42562 0.11647 0.0
C241 C 0.42938 0.39571 0.11476 0.0
C242 C 0.39918 0.39928 0.11883 0.0
C243 C 0.40378 0.43307 0.12438 0.0
C244 C 0.43924 0.46302 0.12617 0.0
C245 C 0.4695 0.45927 0.12229 0.0
C246 C 0.51207 0.43492 0.08596 0.0
C247 C 0.51821 0.41351 0.07361 0.0
C248 C 0.52427 0.42332 0.05551 0.0
C249 C 0.52492 0.45506 0.04954 0.0
C250 C 0.51952 0.47686 0.06203 0.0
C251 C 0.51293 0.46674 0.08006 0.0
C252 C 0.11914 0.43303 0.15461 0.0
C253 C 0.11563 0.45994 0.1454 0.0
C254 C 0.14916 0.42851 0.15157 0.0
C255 C 0.22693 0.45337 0.12052 0.0
H256 H 0.26947 0.43473 0.16242 0.0
C257 C 0.36937 0.46632 0.11995 0.0
C258 C 0.37149 0.43715 0.12758 0.0
C259 C 0.33795 0.46889 0.122 0.0
C260 C 0.25773 0.43967 0.15058 0.0
H261 H 0.14003 0.50261 0.12548 0.0
H262 H 0.19294 0.49541 0.12043 0.0
H263 H 0.21427 0.4385 0.16562 0.0
H264 H 0.34294 0.38839 0.14372 0.0
H265 H 0.28812 0.39306 0.14746 0.0
H266 H 0.27111 0.45532 0.10561 0.0
C267 C 0.17227 0.47725 0.12976 0.0
C268 C 0.22597 0.44165 0.15237 0.0
C269 C 0.14201 0.4815 0.13268 0.0
C270 C 0.34192 0.41104 0.13762 0.0
C271 C 0.31069 0.41383 0.13984 0.0
C272 C 0.25892 0.45174 0.11877 0.0
C273 C 0.17655 0.45111 0.13941 0.0
C274 C 0.21007 0.44842 0.13735 0.0
C275 C 0.30824 0.44257 0.1319 0.0
C276 C 0.27459 0.4448 0.13378 0.0
H277 H 0.09904 0.41594 0.16444 0.0
H278 H 0.1511 0.40755 0.15894 0.0
H279 H 0.21522 0.45811 0.10862 0.0
H280 H 0.39165 0.48665 0.11201 0.0
H281 H 0.33691 0.4915 0.11588 0.0
C282 C 0.66963 0.17554 0.53181 0.0
C283 C 0.66171 0.14232 0.52377 0.0
C284 C 0.70507 0.20538 0.53136 0.0
C285 C 0.78178 0.24009 0.5009 0.0
H286 H 0.83083 0.31812 0.5358 0.0
C287 C 0.8912 0.38278 0.47964 0.0
C288 C 0.92433 0.39821 0.48909 0.0
C289 C 0.86048 0.35192 0.48619 0.0
C290 C 0.81748 0.29639 0.52599 0.0
H291 H 0.68495 0.1129 0.51067 0.0
H292 H 0.74689 0.16482 0.51007 0.0
H293 H 0.7763 0.26111 0.54463 0.0
H294 H 0.95082 0.39454 0.51327 0.0
H295 H 0.89675 0.34041 0.52481 0.0
H296 H 0.82221 0.27529 0.48218 0.0
C297 C 0.72567 0.16809 0.51639 0.0
C298 C 0.78631 0.26391 0.53101 0.0
C299 C 0.69029 0.13833 0.51682 0.0
C300 C 0.92568 0.38301 0.50564 0.0
C301 C 0.89476 0.35225 0.5123 0.0
C302 C 0.81253 0.27252 0.49587 0.0
C303 C 0.73306 0.20236 0.52286 0.0
C304 C 0.76803 0.23553 0.51845 0.0
C305 C 0.86214 0.33593 0.5024 0.0
C306 C 0.83042 0.30116 0.50827 0.0
H307 H 0.64804 0.17927 0.53729 0.0
H308 H 0.70991 0.23143 0.53644 0.0
H309 H 0.76802 0.21901 0.49082 0.0
H310 H 0.88937 0.39365 0.46678 0.0
H311 H 0.83551 0.3401 0.4784 0.0
C312 C 0.6172 0.71605 0.82356 0.0
C313 C 0.59382 0.68601 0.81282 0.0
C314 C 0.62239 0.75063 0.81987 0.0
C315 C 0.57636 0.79473 0.7989 0.0
H316 H 0.67094 0.88233 0.80294 0.0
C317 C 0.59837 0.93768 0.78258 0.0
C318 C 0.62251 0.96682 0.79364 0.0
C319 C 0.59519 0.90336 0.78426 0.0
C320 C 0.64426 0.85817 0.80197 0.0
H321 H 0.55833 0.66851 0.78952 0.0
H322 H 0.56741 0.72911 0.78303 0.0
H323 H 0.66596 0.82277 0.80639 0.0
H324 H 0.66148 0.98259 0.81545 0.0
H325 H 0.65557 0.92258 0.81859 0.0
H326 H 0.55448 0.83001 0.79482 0.0
C327 C 0.58151 0.72586 0.79438 0.0
C328 C 0.64146 0.82405 0.80387 0.0
C329 C 0.57651 0.69128 0.79801 0.0
C330 C 0.643 0.96077 0.80659 0.0
C331 C 0.6397 0.92642 0.80833 0.0
C332 C 0.57912 0.82885 0.79708 0.0
C333 C 0.60412 0.7558 0.80543 0.0
C334 C 0.60745 0.79197 0.80245 0.0
C335 C 0.61597 0.89735 0.79709 0.0
C336 C 0.61308 0.861 0.7987 0.0
H337 H 0.63081 0.71269 0.8351 0.0
H338 H 0.63972 0.77307 0.82873 0.0
H339 H 0.54969 0.77052 0.79801 0.0
H340 H 0.58263 0.94164 0.77229 0.0
H341 H 0.57704 0.88175 0.77522 0.0
C342 C 0.91481 0.58058 0.16848 0.0
C343 C 0.92347 0.56216 0.18145 0.0
C344 C 0.88256 0.58174 0.16974 0.0
C345 C 0.79064 0.52583 0.18771 0.0
H346 H 0.77611 0.60065 0.16597 0.0
C347 C 0.64695 0.49855 0.1705 0.0
C348 C 0.64332 0.50579 0.15241 0.0
C349 C 0.68143 0.51271 0.17834 0.0
C350 C 0.77976 0.57961 0.17218 0.0
H351 H 0.90689 0.53301 0.20664 0.0
H352 H 0.85062 0.53553 0.20906 0.0
H353 H 0.83779 0.61361 0.17293 0.0
H354 H 0.67329 0.53504 0.12869 0.0
H355 H 0.73313 0.55997 0.14241 0.0
H356 H 0.73278 0.49145 0.18641 0.0
C357 C 0.86838 0.54846 0.19771 0.0
C358 C 0.81506 0.58698 0.17614 0.0
C359 C 0.90069 0.54721 0.19641 0.0
C360 C 0.67491 0.52924 0.14271 0.0
C361 C 0.70932 0.54357 0.15058 0.0
C362 C 0.75537 0.51857 0.18387 0.0
C363 C 0.8583 0.56459 0.18404 0.0
C364 C 0.82101 0.55971 0.18333 0.0
C365 C 0.71301 0.53466 0.16832 0.0
C366 C 0.74964 0.54493 0.17547 0.0
H367 H 0.93195 0.5924 0.15682 0.0
H368 H 0.87564 0.59406 0.15885 0.0
H369 H 0.79407 0.50398 0.19302 0.0
H370 H 0.62317 0.48121 0.17848 0.0
H371 H 0.68344 0.50574 0.19211 0.0
C372 C 0.33905 0.92656 0.49928 0.0
C373 C 0.36215 0.94991 0.48592 0.0
C374 C 0.30457 0.89785 0.49487 0.0
C375 C 0.25609 0.83691 0.45741 0.0
H376 H 0.17473 0.80057 0.49047 0.0
C377 C 0.13046 0.69472 0.44809 0.0
C378 C 0.1218 0.67297 0.46353 0.0
C379 C 0.15338 0.73247 0.44925 0.0
C380 C 0.19715 0.81047 0.48107 0.0
H381 H 0.367 0.96269 0.45757 0.0
H382 H 0.30627 0.91217 0.44975 0.0
H383 H 0.2274 0.86131 0.49503 0.0
H384 H 0.12832 0.67387 0.49243 0.0
H385 H 0.16854 0.73972 0.49447 0.0
H386 H 0.22647 0.78561 0.44383 0.0
C387 C 0.31503 0.916 0.46365 0.0
C388 C 0.2273 0.8452 0.48367 0.0
C389 C 0.34966 0.94494 0.4681 0.0
C390 C 0.13482 0.68993 0.48029 0.0
C391 C 0.15755 0.72768 0.48146 0.0
C392 C 0.22587 0.80225 0.45476 0.0
C393 C 0.29236 0.89177 0.47697 0.0
C394 C 0.25767 0.85827 0.47225 0.0
C395 C 0.1679 0.74922 0.46589 0.0
C396 C 0.19663 0.78819 0.46692 0.0
H397 H 0.34801 0.92981 0.51314 0.0
H398 H 0.28817 0.87942 0.50543 0.0
H399 H 0.27913 0.84595 0.44846 0.0
H400 H 0.12106 0.6824 0.43496 0.0
H401 H 0.16065 0.74842 0.43705 0.0
C402 C 0.52411 0.38871 0.85991 0.0
C403 C 0.49786 0.39264 0.85027 0.0
C404 C 0.5228 0.35511 0.86033 0.0
C405 C 0.48741 0.27193 0.83244 0.0
H406 H 0.53606 0.2458 0.86862 0.0
C407 C 0.52186 0.15822 0.82024 0.0
C408 C 0.55958 0.17143 0.82168 0.0
C409 C 0.50653 0.17808 0.82741 0.0
C410 C 0.52207 0.25258 0.8585 0.0
H411 H 0.44785 0.36413 0.8349 0.0
H412 H 0.44447 0.30494 0.8363 0.0
H413 H 0.52092 0.29322 0.87517 0.0
H414 H 0.61028 0.21545 0.83257 0.0
H415 H 0.58329 0.24908 0.84549 0.0
H416 H 0.48909 0.23159 0.81573 0.0
C417 C 0.46693 0.32801 0.84297 0.0
C418 C 0.5136 0.2799 0.86217 0.0
C419 C 0.46862 0.36182 0.84229 0.0
C420 C 0.58109 0.20389 0.83141 0.0
C421 C 0.56565 0.22335 0.83881 0.0
C422 C 0.49534 0.24425 0.82891 0.0
C423 C 0.49485 0.32456 0.85134 0.0
C424 C 0.49741 0.29092 0.84893 0.0
C425 C 0.52845 0.21118 0.83646 0.0
C426 C 0.51388 0.23521 0.84165 0.0
H427 H 0.54702 0.41211 0.86615 0.0
H428 H 0.54506 0.35388 0.86676 0.0
H429 H 0.47547 0.27983 0.82177 0.0
H430 H 0.50422 0.13295 0.81323 0.0
H431 H 0.47769 0.168 0.82552 0.0
C432 C 0.5493 0.95114 0.51295 0.0
C433 C 0.51975 0.95115 0.50437 0.0
C434 C 0.55085 0.91904 0.51438 0.0
C435 C 0.49358 0.81799 0.51228 0.0
H436 H 0.58774 0.82393 0.50962 0.0
C437 C 0.51471 0.6915 0.51462 0.0
C438 C 0.54321 0.69546 0.52586 0.0
C439 C 0.50989 0.72137 0.51107 0.0
C440 C 0.56124 0.82182 0.51048 0.0
H441 H 0.46868 0.91708 0.49041 0.0
H442 H 0.47176 0.86118 0.4926 0.0
H443 H 0.5834 0.87835 0.50462 0.0
H444 H 0.58756 0.7337 0.543 0.0
H445 H 0.57962 0.78543 0.53652 0.0
H446 H 0.47159 0.76112 0.51804 0.0
C447 C 0.49349 0.88597 0.4985 0.0
C448 C 0.55873 0.85309 0.50768 0.0
C449 C 0.49184 0.91814 0.49715 0.0
C450 C 0.56603 0.72974 0.53382 0.0
C451 C 0.56142 0.75948 0.53017 0.0
C452 C 0.49607 0.78653 0.51495 0.0
C453 C 0.52304 0.88598 0.50716 0.0
C454 C 0.52499 0.85184 0.50887 0.0
C455 C 0.53361 0.75583 0.5186 0.0
C456 C 0.53006 0.78828 0.5144 0.0
H457 H 0.57119 0.97588 0.51882 0.0
H458 H 0.57368 0.92012 0.52147 0.0
H459 H 0.46716 0.81595 0.51346 0.0
H460 H 0.49669 0.6656 0.5082 0.0
H461 H 0.48821 0.71773 0.50208 0.0
C462 C 0.68121 0.57758 0.82859 0.0
C463 C 0.64837 0.54429 0.83007 0.0
C464 C 0.71481 0.57888 0.83006 0.0
C465 C 0.7559 0.5248 0.84731 0.0
H466 H 0.84063 0.59622 0.82117 0.0
C467 C 0.89523 0.52939 0.84963 0.0
C468 C 0.92588 0.56404 0.85277 0.0
C469 C 0.86119 0.52569 0.84562 0.0
C470 C 0.81722 0.57619 0.82861 0.0
H471 H 0.62521 0.48603 0.83364 0.0
H472 H 0.68349 0.48809 0.8356 0.0
H473 H 0.78178 0.59201 0.81614 0.0
H474 H 0.94399 0.62192 0.85428 0.0
H475 H 0.88525 0.6154 0.84679 0.0
H476 H 0.7915 0.50883 0.85962 0.0
C477 C 0.6835 0.51345 0.83384 0.0
C478 C 0.78344 0.57386 0.8258 0.0
C479 C 0.64995 0.51222 0.83258 0.0
C480 C 0.92149 0.59482 0.85152 0.0
C481 C 0.88766 0.59113 0.8473 0.0
C482 C 0.7896 0.52687 0.84996 0.0
C483 C 0.71647 0.54685 0.83287 0.0
C484 C 0.7523 0.54837 0.83525 0.0
C485 C 0.85702 0.55654 0.84444 0.0
C486 C 0.82074 0.55285 0.84078 0.0
H487 H 0.68102 0.60285 0.82679 0.0
H488 H 0.73945 0.60522 0.8295 0.0
H489 H 0.73287 0.50526 0.85512 0.0
H490 H 0.89746 0.50505 0.85021 0.0
H491 H 0.83815 0.49867 0.84332 0.0
C492 C 0.15402 0.6128 0.16965 0.0
C493 C 0.12094 0.61143 0.17369 0.0
C494 C 0.18727 0.64532 0.17158 0.0
C495 C 0.22794 0.74556 0.17404 0.0
H496 H 0.31008 0.74264 0.1951 0.0
C497 C 0.36309 0.87645 0.19361 0.0
C498 C 0.39594 0.87612 0.19156 0.0
C499 C 0.32943 0.84482 0.1906 0.0
C500 C 0.28765 0.74399 0.18893 0.0
H501 H 0.09711 0.64354 0.1829 0.0
H502 H 0.15514 0.70022 0.18629 0.0
H503 H 0.25195 0.68647 0.19174 0.0
H504 H 0.41869 0.84189 0.18435 0.0
H505 H 0.36042 0.78747 0.1785 0.0
H506 H 0.26373 0.8031 0.17114 0.0
C507 C 0.15529 0.67612 0.18151 0.0
C508 C 0.25421 0.71169 0.18706 0.0
C509 C 0.122 0.64351 0.17968 0.0
C510 C 0.39415 0.84353 0.18586 0.0
C511 C 0.36056 0.812 0.18279 0.0
C512 C 0.26149 0.77791 0.17585 0.0
C513 C 0.18836 0.67743 0.17751 0.0
C514 C 0.2239 0.71201 0.17958 0.0
C515 C 0.32768 0.81197 0.18542 0.0
C516 C 0.29185 0.77757 0.1833 0.0
H517 H 0.15434 0.58873 0.16495 0.0
H518 H 0.21215 0.6454 0.16817 0.0
H519 H 0.2053 0.74676 0.16802 0.0
H520 H 0.36331 0.90108 0.19778 0.0
H521 H 0.30476 0.8459 0.19287 0.0
C522 C 0.4728 0.14641 0.49883 0.0
C523 C 0.50521 0.14632 0.50283 0.0
C524 C 0.47087 0.17838 0.50084 0.0
C525 C 0.51651 0.2669 0.52509 0.0
H526 H 0.46598 0.29552 0.49124 0.0
C527 C 0.50266 0.39301 0.5387 0.0
C528 C 0.50974 0.41694 0.52424 0.0
C529 C 0.49747 0.35807 0.53583 0.0
C530 C 0.48031 0.28797 0.50079 0.0
H531 H 0.5614 0.18037 0.51146 0.0
H532 H 0.55812 0.23563 0.5147 0.0
H533 H 0.46727 0.23904 0.48625 0.0
H534 H 0.51473 0.42166 0.49524 0.0
H535 H 0.50658 0.36105 0.49031 0.0
H536 H 0.53054 0.31605 0.53936 0.0
C537 C 0.5339 0.21093 0.5104 0.0
C538 C 0.48074 0.2554 0.49802 0.0
C539 C 0.53582 0.17914 0.50842 0.0
C540 C 0.50988 0.40426 0.50674 0.0
C541 C 0.50479 0.36927 0.50388 0.0
C542 C 0.51606 0.29931 0.52786 0.0
C543 C 0.5013 0.21092 0.50691 0.0
C544 C 0.49922 0.24467 0.51005 0.0
C545 C 0.49939 0.34604 0.51844 0.0
C546 C 0.49815 0.31046 0.51571 0.0
H547 H 0.44867 0.12166 0.49451 0.0
H548 H 0.44527 0.17733 0.49812 0.0
H549 H 0.53053 0.25928 0.5348 0.0
H550 H 0.50269 0.40175 0.55238 0.0
H551 H 0.49269 0.34073 0.54735 0.0
C552 C 0.41274 0.51054 0.84872 0.0
C553 C 0.44102 0.53578 0.83772 0.0
C554 C 0.38029 0.5115 0.85051 0.0
C555 C 0.34257 0.57341 0.8435 0.0
H556 H 0.24928 0.48484 0.84878 0.0
C557 C 0.20769 0.57535 0.84181 0.0
C558 C 0.18263 0.55634 0.8556 0.0
C559 C 0.23764 0.57058 0.83886 0.0
C560 C 0.27517 0.50981 0.84741 0.0
H561 H 0.45679 0.5811 0.81952 0.0
H562 H 0.40023 0.58213 0.82221 0.0
H563 H 0.30458 0.48101 0.84517 0.0
H564 H 0.16916 0.51641 0.8767 0.0
H565 H 0.22104 0.50764 0.87128 0.0
H566 H 0.31312 0.60214 0.84553 0.0
C567 C 0.40332 0.56223 0.82992 0.0
C568 C 0.30694 0.50767 0.84541 0.0
C569 C 0.4358 0.56149 0.82828 0.0
C570 C 0.18753 0.5312 0.86582 0.0
C571 C 0.21739 0.52624 0.86276 0.0
C572 C 0.31084 0.5755 0.84532 0.0
C573 C 0.3752 0.53753 0.84121 0.0
C574 C 0.34113 0.53947 0.84341 0.0
C575 C 0.24322 0.54646 0.8495 0.0
C576 C 0.27674 0.54377 0.84729 0.0
H577 H 0.41589 0.49044 0.85623 0.0
H578 H 0.35952 0.49229 0.85949 0.0
H579 H 0.36835 0.59858 0.84243 0.0
H580 H 0.20445 0.59435 0.83341 0.0
H581 H 0.25666 0.58606 0.82831 0.0
C582 C 0.88649 0.40608 0.16776 0.0
C583 C 0.9187 0.40747 0.16188 0.0
C584 C 0.85418 0.37269 0.16961 0.0
C585 C 0.8085 0.27428 0.15707 0.0
H586 H 0.75074 0.26261 0.19951 0.0
C587 C 0.69493 0.13329 0.18203 0.0
C588 C 0.66352 0.13072 0.18987 0.0
C589 C 0.72432 0.16712 0.17708 0.0
C590 C 0.76616 0.26548 0.18744 0.0
H591 H 0.94171 0.37452 0.15289 0.0
H592 H 0.88543 0.31623 0.15628 0.0
H593 H 0.80509 0.32099 0.1937 0.0
H594 H 0.63824 0.16197 0.1982 0.0
H595 H 0.68927 0.22097 0.18929 0.0
H596 H 0.7697 0.2185 0.15098 0.0
C597 C 0.88506 0.34108 0.15929 0.0
C598 C 0.79745 0.29907 0.18409 0.0
C599 C 0.91744 0.37456 0.15739 0.0
C600 C 0.66186 0.16285 0.19211 0.0
C601 C 0.69134 0.19676 0.18719 0.0
C602 C 0.77717 0.24063 0.16044 0.0
C603 C 0.85311 0.33965 0.16569 0.0
C604 C 0.81918 0.30395 0.1689 0.0
C605 C 0.72319 0.19942 0.17983 0.0
C606 C 0.75565 0.23571 0.17572 0.0
H607 H 0.88625 0.43081 0.17124 0.0
H608 H 0.83002 0.37281 0.17423 0.0
H609 H 0.8242 0.27711 0.14511 0.0
H610 H 0.69701 0.1091 0.17989 0.0
H611 H 0.7484 0.16802 0.17159 0.0
C612 C 0.01251 0.49624 0.10585 0.0
C613 C 0.02887 0.52952 0.11527 0.0
C614 C 0.01711 0.49568 0.08725 0.0
C615 C 0.07633 0.54421 0.04995 0.0
H616 H 0.98902 0.50902 0.02095 0.0
C617 C 0.08432 0.57778 0.97469 0.0
C618 C 0.05666 0.55347 0.96307 0.0
C619 C 0.08161 0.57161 0.99318 0.0
C620 C 0.01371 0.51821 0.02872 0.0
H621 H 0.06412 0.58795 0.11298 0.0
H622 H 0.07325 0.5868 0.08057 0.0
H623 H 0.98399 0.50282 0.05349 0.0
H624 H 0.00501 0.50316 0.96146 0.0
H625 H 0.0009 0.49118 0.99367 0.0
H626 H 0.10623 0.55891 0.0254 0.0
C627 C 0.05645 0.56132 0.08751 0.0
C628 C 0.01072 0.51478 0.0474 0.0
C629 C 0.05112 0.56198 0.10598 0.0
C630 C 0.02655 0.52243 0.97021 0.0
C631 C 0.02416 0.51579 0.98869 0.0
C632 C 0.07933 0.54693 0.03126 0.0
C633 C 0.03896 0.52827 0.07794 0.0
C634 C 0.04204 0.52837 0.05817 0.0
C635 C 0.05147 0.54051 0.0005 0.0
C636 C 0.0481 0.53471 0.02036 0.0
H637 H 0.99518 0.47085 0.11274 0.0
H638 H 0.00342 0.46988 0.08011 0.0
H639 H 0.10084 0.55467 0.05803 0.0
H640 H 0.10763 0.60214 0.96949 0.0
H641 H 0.10282 0.59181 0.00173 0.0
C642 C 0.49783 0.03133 0.44435 0.0
C643 C 0.52977 0.0614 0.45104 0.0
C644 C 0.49299 0.02499 0.42574 0.0
C645 C 0.54954 0.04685 0.38492 0.0
H646 H 0.45935 0.01252 0.35843 0.0
C647 C 0.54828 0.04605 0.3081 0.0
C648 C 0.52159 0.01421 0.29951 0.0
C649 C 0.54605 0.0513 0.32648 0.0
C650 C 0.48465 0.02186 0.36571 0.0
H651 H 0.58029 0.1097 0.44375 0.0
H652 H 0.57147 0.09944 0.41161 0.0
H653 H 0.46048 0.02242 0.39099 0.0
H654 H 0.4707 0.96364 0.30338 0.0
H655 H 0.46701 0.97275 0.33561 0.0
H656 H 0.57386 0.04654 0.35986 0.0
C657 C 0.55067 0.07999 0.42051 0.0
C658 C 0.48527 0.02746 0.38433 0.0
C659 C 0.5556 0.08604 0.43894 0.0
C660 C 0.49195 0.98827 0.30965 0.0
C661 C 0.48963 0.99363 0.32806 0.0
C662 C 0.54895 0.04144 0.36643 0.0
C663 C 0.51999 0.04877 0.41366 0.0
C664 C 0.51793 0.0406 0.39409 0.0
C665 C 0.51705 0.0249 0.33674 0.0
C666 C 0.51669 0.02938 0.35654 0.0
H667 H 0.47761 0.01187 0.45347 0.0
H668 H 0.46902 0.0007 0.42087 0.0
H669 H 0.57494 0.05595 0.39207 0.0
H670 H 0.57159 0.06645 0.30074 0.0
H671 H 0.56737 0.07593 0.33273 0.0
C672 C 0.5002 0.50946 0.77028 0.0
C673 C 0.53032 0.52851 0.78171 0.0
C674 C 0.50342 0.51628 0.75186 0.0
C675 C 0.56216 0.58221 0.71709 0.0
H676 H 0.51256 0.49779 0.68578 0.0
C677 C 0.58877 0.58655 0.64046 0.0
C678 C 0.55821 0.5671 0.62925 0.0
C679 C 0.58523 0.58363 0.65915 0.0
C680 C 0.52624 0.5217 0.69432 0.0
H681 H 0.58721 0.57047 0.78301 0.0
H682 H 0.59319 0.58199 0.75067 0.0
H683 H 0.50696 0.48982 0.71817 0.0
H684 H 0.49996 0.52944 0.6289 0.0
H685 H 0.49374 0.52448 0.6615 0.0
H686 H 0.58191 0.61393 0.69307 0.0
C687 C 0.56689 0.56204 0.75596 0.0
C688 C 0.52299 0.51717 0.71292 0.0
C689 C 0.56356 0.55534 0.77446 0.0
C690 C 0.52397 0.54498 0.63716 0.0
C691 C 0.52047 0.54187 0.65583 0.0
C692 C 0.56557 0.58672 0.69843 0.0
C693 C 0.53696 0.54216 0.74439 0.0
C694 C 0.54075 0.54736 0.72456 0.0
C695 C 0.55109 0.56098 0.66703 0.0
C696 C 0.54752 0.5565 0.68685 0.0
H697 H 0.47412 0.48891 0.77555 0.0
H698 H 0.47958 0.50108 0.74345 0.0
H699 H 0.57587 0.60611 0.72563 0.0
H700 H 0.61546 0.60411 0.63478 0.0
H701 H 0.60937 0.59849 0.66741 0.0
C702 C 0.54121 0.0596 0.55684 0.0
C703 C 0.50935 0.05961 0.55171 0.0
C704 C 0.55429 0.06851 0.57441 0.0
C705 C 0.55005 0.11404 0.61585 0.0
H706 H 0.57787 0.04946 0.63874 0.0
C707 C 0.57879 0.11851 0.69222 0.0
C708 C 0.60659 0.11175 0.6977 0.0
C709 C 0.56813 0.1145 0.67419 0.0
C710 C 0.57077 0.06814 0.6325 0.0
H711 H 0.46672 0.06995 0.56065 0.0
H712 H 0.48959 0.08554 0.59151 0.0
H713 H 0.55742 0.03873 0.60765 0.0
H714 H 0.64615 0.09719 0.68852 0.0
H715 H 0.62807 0.09079 0.65705 0.0
H716 H 0.56357 0.14356 0.64074 0.0
C717 C 0.5045 0.07876 0.58191 0.0
C718 C 0.55896 0.06191 0.61467 0.0
C719 C 0.49132 0.06968 0.56431 0.0
C720 C 0.62422 0.10197 0.68473 0.0
C721 C 0.61376 0.09821 0.66671 0.0
C722 C 0.56209 0.12042 0.6337 0.0
C723 C 0.53582 0.07771 0.5872 0.0
C724 C 0.54852 0.08479 0.60614 0.0
C725 C 0.58521 0.10387 0.66125 0.0
C726 C 0.57265 0.09755 0.64223 0.0
H727 H 0.55576 0.05212 0.54736 0.0
H728 H 0.57879 0.06801 0.57802 0.0
H729 H 0.54244 0.13229 0.60957 0.0
H730 H 0.56449 0.12576 0.70197 0.0
H731 H 0.54577 0.11868 0.6705 0.0
C732 C 0.58514 0.57037 0.89509 0.0
C733 C 0.55872 0.54761 0.88252 0.0
C734 C 0.58228 0.55991 0.91305 0.0
C735 C 0.54326 0.48084 0.94268 0.0
H736 H 0.55147 0.54964 0.97947 0.0
C737 C 0.51012 0.43915 0.01704 0.0
C738 C 0.5305 0.46511 0.03031 0.0
C739 C 0.51432 0.44894 -0.00107 0.0
C740 C 0.54972 0.53026 0.96943 0.0
H741 H 0.50896 0.49593 0.87869 0.0
H742 H 0.50436 0.47727 0.91011 0.0
H743 H 0.55789 0.56712 0.94799 0.0
H744 H 0.57198 0.5213 0.03509 0.0
H745 H 0.58031 0.53824 0.00346 0.0
H746 H 0.53592 0.4442 0.96403 0.0
C747 C 0.52715 0.50323 0.90606 0.0
C748 C 0.55324 0.54028 0.95138 0.0
C749 C 0.52972 0.51393 0.88813 0.0
C750 C 0.55563 0.50088 0.02512 0.0
C751 C 0.56021 0.51057 0.007 0.0
C752 C 0.54023 0.47096 0.96076 0.0
C753 C 0.55324 0.52628 0.91871 0.0
C754 C 0.5499 0.51563 0.93784 0.0
C755 C 0.53936 0.48482 0.99366 0.0
C756 C 0.54328 0.49549 0.97439 0.0
H757 H 0.60782 0.59645 0.8911 0.0
H758 H 0.60293 0.57804 0.92251 0.0
H759 H 0.54095 0.46147 0.93249 0.0
H760 H 0.49025 0.41148 0.02072 0.0
H761 H 0.49731 0.4285 0.98913 0.0
C762 C 0.02076 0.52124 0.22457 0.0
C763 C 0.01134 0.48849 0.21556 0.0
C764 C 0.01731 0.52165 0.24326 0.0
C765 C 0.01533 0.46872 0.28281 0.0
H766 H 0.98674 0.5302 0.30849 0.0
C767 C 0.00412 0.46444 0.3597 0.0
C768 C 0.02043 0.49838 0.36852 0.0
C769 C 0.99854 0.46223 0.34113 0.0
C770 C 0.99495 0.51303 0.30148 0.0
H771 H 0.98877 0.43028 0.2187 0.0
H772 H 0.98206 0.43081 0.25114 0.0
H773 H 0.9848 0.52839 0.27565 0.0
H774 H 0.04203 0.5564 0.36492 0.0
H775 H 0.03293 0.55261 0.33246 0.0
H776 H 0.02596 0.45368 0.30849 0.0
C777 C 0.99307 0.45634 0.24395 0.0
C778 C 0.99388 0.51203 0.28269 0.0
C779 C 0.99673 0.45599 0.22536 0.0
C780 C 0.02989 0.5299 0.35846 0.0
C781 C 0.02427 0.52769 0.3399 0.0
C782 C 0.01634 0.46967 0.30152 0.0
C783 C 0.00421 0.48927 0.25319 0.0
C784 C 0.00414 0.48989 0.27315 0.0
C785 C 0.00911 0.49389 0.33099 0.0
C786 C 0.00629 0.4919 0.31109 0.0
H787 H 0.03199 0.54666 0.21727 0.0
H788 H 0.02629 0.5475 0.24998 0.0
H789 H 0.02422 0.452 0.27589 0.0
H790 H 0.9967 0.43967 0.36704 0.0
H791 H 0.98636 0.43572 0.33468 0.0
loop_
_geom_bond_atom_site_label_1
_geom_bond_atom_site_label_2
_geom_bond_distance
_geom_bond_site_symmetry_2
_ccdc_geom_bond_type
Dy0 O4 2.398 . S
Dy0 O5 2.491 . S
Dy0 O6 2.403 . S
Dy0 O7 2.664 . S
Dy0 O11 2.326 . S
Dy0 O15 2.310 . S
Dy0 O16 2.344 1_455 S
C1 O12 1.185 . S
C1 O13 1.355 . S
C2 O4 1.185 . S
C2 O5 1.355 . S
Dy3 O7 2.310 . S
Dy3 O10 2.351 . S
Dy3 O12 2.398 1_455 S
Dy3 O13 2.491 1_455 S
Dy3 O14 2.403 . S
Dy3 O15 2.664 . S
Dy3 O17 2.326 1_455 S
O4 Dy0 2.398 . S
O4 C2 1.185 . S
O5 Dy0 2.491 . S
O5 C2 1.355 . S
O6 Dy0 2.403 . S
O6 C8 1.254 . S
O7 Dy0 2.664 . S
O7 Dy3 2.310 . S
O7 C8 1.268 . S
C8 O6 1.254 . S
C8 O7 1.268 . S
C9 O14 1.254 . S
C9 O15 1.268 . S
O10 Dy3 2.351 . S
O10 C18 1.249 . S
O11 Dy0 2.326 . S
O11 C18 1.267 . S
O12 C1 1.185 . S
O12 Dy3 2.398 1_655 S
O13 C1 1.355 . S
O13 Dy3 2.491 1_655 S
O14 Dy3 2.403 . S
O14 C9 1.254 . S
O15 Dy0 2.310 . S
O15 Dy3 2.664 . S
O15 C9 1.268 . S
O16 Dy0 2.344 1_655 S
O16 C19 1.259 . S
O17 Dy3 2.326 1_655 S
O17 C19 1.267 . S
C18 O10 1.249 . S
C18 O11 1.267 . S
C19 O16 1.259 . S
C19 O17 1.267 . S
Dy20 O24 2.398 1_545 S
Dy20 O25 2.491 1_545 S
Dy20 O26 2.403 . S
Dy20 O27 2.664 . S
Dy20 O31 2.326 1_545 S
Dy20 O35 2.310 . S
Dy20 O36 2.351 . S
C21 O32 1.185 . S
C21 O33 1.355 . S
C22 O24 1.185 . S
C22 O25 1.355 . S
Dy23 O27 2.310 . S
Dy23 O30 2.327 1_545 S
Dy23 O32 2.398 . S
Dy23 O33 2.491 . S
Dy23 O34 2.403 . S
Dy23 O35 2.664 . S
Dy23 O37 2.326 . S
O24 Dy20 2.398 1_565 S
O24 C22 1.185 . S
O25 Dy20 2.491 1_565 S
O25 C22 1.355 . S
O26 Dy20 2.403 . S
O26 C28 1.254 . S
O27 Dy20 2.664 . S
O27 Dy23 2.310 . S
O27 C28 1.268 . S
C28 O26 1.254 . S
C28 O27 1.268 . S
C29 O34 1.254 . S
C29 O35 1.268 . S
O30 Dy23 2.327 1_565 S
O30 C38 1.259 . S
O31 Dy20 2.326 1_565 S
O31 C38 1.267 . S
O32 C21 1.185 . S
O32 Dy23 2.398 . S
O33 C21 1.355 . S
O33 Dy23 2.491 . S
O34 Dy23 2.403 . S
O34 C29 1.254 . S
O35 Dy20 2.310 . S
O35 Dy23 2.664 . S
O35 C29 1.268 . S
O36 Dy20 2.351 . S
O36 C39 1.249 . S
O37 Dy23 2.326 . S
O37 C39 1.267 . S
C38 O30 1.259 . S
C38 O31 1.267 . S
C39 O36 1.249 . S
C39 O37 1.267 . S
Dy40 O44 2.398 . S
Dy40 O45 2.491 . S
Dy40 O46 2.403 . S
Dy40 O47 2.664 . S
Dy40 O51 2.326 . S
Dy40 O55 2.310 . S
Dy40 O56 2.351 . S
C41 O52 1.185 . S
C41 O53 1.355 . S
C42 O44 1.185 . S
C42 O45 1.355 . S
Dy43 O47 2.310 . S
Dy43 O50 2.351 . S
Dy43 O52 2.398 . S
Dy43 O53 2.491 . S
Dy43 O54 2.403 . S
Dy43 O55 2.664 . S
Dy43 O57 2.326 . S
O44 Dy40 2.398 . S
O44 C42 1.185 . S
O45 Dy40 2.491 . S
O45 C42 1.355 . S
O46 Dy40 2.403 . S
O46 C48 1.254 . S
O47 Dy40 2.664 . S
O47 Dy43 2.310 . S
O47 C48 1.268 . S
C48 O46 1.254 . S
C48 O47 1.268 . S
C49 O54 1.254 . S
C49 O55 1.268 . S
O50 Dy43 2.351 . S
O50 C58 1.249 . S
O51 Dy40 2.326 . S
O51 C58 1.267 . S
O52 C41 1.185 . S
O52 Dy43 2.398 . S
O53 C41 1.355 . S
O53 Dy43 2.491 . S
O54 Dy43 2.403 . S
O54 C49 1.254 . S
O55 Dy40 2.310 . S
O55 Dy43 2.664 . S
O55 C49 1.268 . S
O56 Dy40 2.351 . S
O56 C59 1.249 . S
O57 Dy43 2.326 . S
O57 C59 1.267 . S
C58 O50 1.249 . S
C58 O51 1.267 . S
C59 O56 1.249 . S
C59 O57 1.267 . S
P60 O71 1.490 . S
P60 C74 1.812 . S
P60 C80 1.803 1_565 S
P60 C86 1.819 . S
H61 C75 0.941 . S
H62 C76 0.939 . S
H63 C78 0.940 . S
H64 C79 0.940 . S
H65 C81 0.939 . S
H66 C82 0.942 . S
H67 C84 0.940 . S
H68 C85 0.939 . S
H69 C87 0.941 . S
H70 C91 0.939 . S
O71 P60 1.490 . S
H72 C88 0.939 . S
H73 C90 0.940 . S
C74 P60 1.812 . S
C74 C75 1.389 . S
C74 C79 1.391 . S
C75 H61 0.941 . S
C75 C74 1.389 . S
C75 C76 1.397 . S
C76 H62 0.939 . S
C76 C75 1.397 . S
C76 C77 1.378 . S
C77 C76 1.378 . S
C77 C78 1.378 . S
C78 H63 0.940 . S
C78 C77 1.378 . S
C78 C79 1.396 . S
C79 H64 0.940 . S
C79 C74 1.391 . S
C79 C78 1.396 . S
C80 P60 1.803 1_545 S
C80 C81 1.378 . S
C80 C85 1.400 . S
C81 H65 0.939 . S
C81 C80 1.378 . S
C81 C82 1.361 . S
C82 H66 0.942 . S
C82 C81 1.361 . S
C82 C83 1.369 . S
C83 C82 1.369 . S
C83 C84 1.404 . S
C84 H67 0.940 . S
C84 C83 1.404 . S
C84 C85 1.389 . S
C85 H68 0.939 . S
C85 C80 1.400 . S
C85 C84 1.389 . S
C86 P60 1.819 . S
C86 C87 1.391 . S
C86 C91 1.391 1_565 S
C87 H69 0.941 . S
C87 C86 1.391 . S
C87 C88 1.396 . S
C88 H72 0.939 . S
C88 C87 1.396 . S
C88 C89 1.397 1_565 S
C89 C88 1.397 1_545 S
C89 C90 1.385 . S
C90 H73 0.940 . S
C90 C89 1.385 . S
C90 C91 1.388 . S
C91 H70 0.939 . S
C91 C86 1.391 1_545 S
C91 C90 1.388 . S
P92 O103 1.490 . S
P92 C106 1.812 . S
P92 C112 1.803 . S
P92 C118 1.819 . S
H93 C107 0.941 . S
H94 C108 0.939 . S
H95 C110 0.940 . S
H96 C111 0.940 . S
H97 C113 0.939 . S
H98 C114 0.942 . S
H99 C116 0.940 . S
H100 C117 0.939 . S
H101 C119 0.941 . S
H102 C123 0.939 . S
O103 P92 1.490 . S
H104 C120 0.939 . S
H105 C122 0.940 . S
C106 P92 1.812 . S
C106 C107 1.389 . S
C106 C111 1.391 . S
C107 H93 0.941 . S
C107 C106 1.389 . S
C107 C108 1.397 . S
C108 H94 0.939 . S
C108 C107 1.397 . S
C108 C109 1.378 . S
C109 C108 1.378 . S
C109 C110 1.378 . S
C110 H95 0.940 . S
C110 C109 1.378 . S
C110 C111 1.396 . S
C111 H96 0.940 . S
C111 C106 1.391 . S
C111 C110 1.396 . S
C112 P92 1.803 . S
C112 C113 1.378 . S
C112 C117 1.400 . S
C113 H97 0.939 . S
C113 C112 1.378 . S
C113 C114 1.361 . S
C114 H98 0.942 . S
C114 C113 1.361 . S
C114 C115 1.369 . S
C115 C114 1.369 . S
C115 C116 1.404 . S
C116 H99 0.940 . S
C116 C115 1.404 . S
C116 C117 1.389 . S
C117 H100 0.939 . S
C117 C112 1.400 . S
C117 C116 1.389 . S
C118 P92 1.819 . S
C118 C119 1.391 . S
C118 C123 1.391 . S
C119 H101 0.941 . S
C119 C118 1.391 . S
C119 C120 1.396 . S
C120 H104 0.939 . S
C120 C119 1.396 . S
C120 C121 1.397 . S
C121 C120 1.397 . S
C121 C122 1.385 . S
C122 H105 0.940 . S
C122 C121 1.385 . S
C122 C123 1.388 . S
C123 H102 0.939 . S
C123 C118 1.391 . S
C123 C122 1.388 . S
P124 O135 1.490 . S
P124 C138 1.812 . S
P124 C144 1.803 . S
P124 C150 1.819 . S
H125 C139 0.941 . S
H126 C140 0.939 . S
H127 C142 0.940 . S
H128 C143 0.940 . S
H129 C145 0.939 . S
H130 C146 0.942 . S
H131 C148 0.940 . S
H132 C149 0.939 . S
H133 C151 0.941 . S
H134 C155 0.939 . S
O135 P124 1.490 . S
H136 C152 0.939 . S
H137 C154 0.940 . S
C138 P124 1.812 . S
C138 C139 1.389 . S
C138 C143 1.391 . S
C139 H125 0.941 . S
C139 C138 1.389 . S
C139 C140 1.397 . S
C140 H126 0.939 . S
C140 C139 1.397 . S
C140 C141 1.378 . S
C141 C140 1.378 . S
C141 C142 1.378 . S
C142 H127 0.940 . S
C142 C141 1.378 . S
C142 C143 1.396 . S
C143 H128 0.940 . S
C143 C138 1.391 . S
C143 C142 1.396 . S
C144 P124 1.803 . S
C144 C145 1.378 . S
C144 C149 1.400 . S
C145 H129 0.939 . S
C145 C144 1.378 . S
C145 C146 1.361 1_455 S
C146 H130 0.942 . S
C146 C145 1.361 1_655 S
C146 C147 1.369 . S
C147 C146 1.369 . S
C147 C148 1.404 . S
C148 H131 0.940 . S
C148 C147 1.404 . S
C148 C149 1.389 1_655 S
C149 H132 0.939 . S
C149 C144 1.400 . S
C149 C148 1.389 1_455 S
C150 P124 1.819 . S
C150 C151 1.391 . S
C150 C155 1.391 . S
C151 H133 0.941 . S
C151 C150 1.391 . S
C151 C152 1.396 . S
C152 H136 0.939 . S
C152 C151 1.396 . S
C152 C153 1.397 . S
C153 C152 1.397 . S
C153 C154 1.385 . S
C154 H137 0.940 . S
C154 C153 1.385 . S
C154 C155 1.388 . S
C155 H134 0.939 . S
C155 C150 1.391 . S
C155 C154 1.388 . S
P156 O167 1.490 . S
P156 C170 1.812 . S
P156 C176 1.803 1_455 S
P156 C182 1.819 . S
H157 C171 0.941 . S
H158 C172 0.939 . S
H159 C174 0.940 . S
H160 C175 0.940 . S
H161 C177 0.939 . S
H162 C178 0.942 . S
H163 C180 0.940 . S
H164 C181 0.939 . S
H165 C183 0.941 . S
H166 C187 0.939 . S
O167 P156 1.490 . S
H168 C184 0.939 . S
H169 C186 0.940 . S
C170 P156 1.812 . S
C170 C171 1.389 . S
C170 C175 1.391 . S
C171 H157 0.941 . S
C171 C170 1.389 . S
C171 C172 1.397 . S
C172 H158 0.939 . S
C172 C171 1.397 . S
C172 C173 1.378 . S
C173 C172 1.378 . S
C173 C174 1.378 . S
C174 H159 0.940 . S
C174 C173 1.378 . S
C174 C175 1.396 . S
C175 H160 0.940 . S
C175 C170 1.391 . S
C175 C174 1.396 . S
C176 P156 1.803 1_655 S
C176 C177 1.378 . S
C176 C181 1.400 . S
C177 H161 0.939 . S
C177 C176 1.378 . S
C177 C178 1.361 . S
C178 H162 0.942 . S
C178 C177 1.361 . S
C178 C179 1.369 . S
C179 C178 1.369 . S
C179 C180 1.404 . S
C180 H163 0.940 . S
C180 C179 1.404 . S
C180 C181 1.389 . S
C181 H164 0.939 . S
C181 C176 1.400 . S
C181 C180 1.389 . S
C182 P156 1.819 . S
C182 C183 1.391 . S
C182 C187 1.391 1_455 S
C183 H165 0.941 . S
C183 C182 1.391 . S
C183 C184 1.396 . S
C184 H168 0.939 . S
C184 C183 1.396 . S
C184 C185 1.397 . S
C185 C184 1.397 . S
C185 C186 1.385 1_455 S
C186 H169 0.940 . S
C186 C185 1.385 1_655 S
C186 C187 1.388 . S
C187 H166 0.939 . S
C187 C182 1.391 1_655 S
C187 C186 1.388 . S
P188 O199 1.490 . S
P188 C202 1.812 . S
P188 C208 1.803 . S
P188 C214 1.819 . S
H189 C203 0.941 . S
H190 C204 0.939 . S
H191 C206 0.940 . S
H192 C207 0.940 . S
H193 C209 0.939 . S
H194 C210 0.942 . S
H195 C212 0.940 . S
H196 C213 0.939 . S
H197 C215 0.941 . S
H198 C219 0.939 . S
O199 P188 1.490 . S
H200 C216 0.939 . S
H201 C218 0.940 . S
C202 P188 1.812 . S
C202 C203 1.389 . S
C202 C207 1.391 . S
C203 H189 0.941 . S
C203 C202 1.389 . S
C203 C204 1.397 . S
C204 H190 0.939 . S
C204 C203 1.397 . S
C204 C205 1.378 . S
C205 C204 1.378 . S
C205 C206 1.378 . S
C206 H191 0.940 . S
C206 C205 1.378 . S
C206 C207 1.396 . S
C207 H192 0.940 . S
C207 C202 1.391 . S
C207 C206 1.396 . S
C208 P188 1.803 . S
C208 C209 1.378 . S
C208 C213 1.400 . S
C209 H193 0.939 . S
C209 C208 1.378 . S
C209 C210 1.361 1_545 S
C210 H194 0.942 . S
C210 C209 1.361 1_565 S
C210 C211 1.369 . S
C211 C210 1.369 . S
C211 C212 1.404 . S
C212 H195 0.940 . S
C212 C211 1.404 . S
C212 C213 1.389 1_565 S
C213 H196 0.939 . S
C213 C208 1.400 . S
C213 C212 1.389 1_545 S
C214 P188 1.819 . S
C214 C215 1.391 . S
C214 C219 1.391 . S
C215 H197 0.941 . S
C215 C214 1.391 . S
C215 C216 1.396 . S
C216 H200 0.939 . S
C216 C215 1.396 . S
C216 C217 1.397 . S
C217 C216 1.397 . S
C217 C218 1.385 . S
C218 H201 0.940 . S
C218 C217 1.385 . S
C218 C219 1.388 . S
C219 H198 0.939 . S
C219 C214 1.391 . S
C219 C218 1.388 . S
P220 O231 1.490 . S
P220 C234 1.812 . S
P220 C240 1.803 . S
P220 C246 1.819 . S
H221 C235 0.941 . S
H222 C236 0.939 . S
H223 C238 0.940 . S
H224 C239 0.940 . S
H225 C241 0.939 . S
H226 C242 0.942 . S
H227 C244 0.940 . S
H228 C245 0.939 . S
H229 C247 0.941 . S
H230 C251 0.939 . S
O231 P220 1.490 . S
H232 C248 0.939 . S
H233 C250 0.940 . S
C234 P220 1.812 . S
C234 C235 1.389 . S
C234 C239 1.391 . S
C235 H221 0.941 . S
C235 C234 1.389 . S
C235 C236 1.397 . S
C236 H222 0.939 . S
C236 C235 1.397 . S
C236 C237 1.378 . S
C237 C236 1.378 . S
C237 C238 1.378 . S
C238 H223 0.940 . S
C238 C237 1.378 . S
C238 C239 1.396 . S
C239 H224 0.940 . S
C239 C234 1.391 . S
C239 C238 1.396 . S
C240 P220 1.803 . S
C240 C241 1.378 . S
C240 C245 1.400 . S
C241 H225 0.939 . S
C241 C240 1.378 . S
C241 C242 1.361 . S
C242 H226 0.942 . S
C242 C241 1.361 . S
C242 C243 1.369 . S
C243 C242 1.369 . S
C243 C244 1.404 . S
C244 H227 0.940 . S
C244 C243 1.404 . S
C244 C245 1.389 . S
C245 H228 0.939 . S
C245 C240 1.400 . S
C245 C244 1.389 . S
C246 P220 1.819 . S
C246 C247 1.391 . S
C246 C251 1.391 . S
C247 H229 0.941 . S
C247 C246 1.391 . S
C247 C248 1.396 . S
C248 H232 0.939 . S
C248 C247 1.396 . S
C248 C249 1.397 . S
C249 C248 1.397 . S
C249 C250 1.385 . S
C250 H233 0.940 . S
C250 C249 1.385 . S
C250 C251 1.388 . S
C251 H230 0.939 . S
C251 C246 1.391 . S
C251 C250 1.388 . S
C252 C253 1.349 . S
C252 C254 1.327 . S
C252 H277 0.950 . S
C253 C252 1.349 . S
C253 C269 1.349 . S
C254 C252 1.327 . S
C254 C273 1.429 . S
C254 H278 0.950 . S
C255 C272 1.574 . S
C255 C274 1.368 . S
C255 H279 0.949 . S
H256 C260 0.949 . S
C257 C258 1.349 . S
C257 C259 1.327 . S
C257 H280 0.950 . S
C258 C257 1.349 . S
C258 C270 1.349 . S
C259 C257 1.327 . S
C259 C275 1.429 . S
C259 H281 0.950 . S
C260 H256 0.949 . S
C260 C268 1.574 . S
C260 C276 1.368 . S
H261 C269 0.950 . S
H262 C267 0.950 . S
H263 C268 0.949 . S
H264 C270 0.950 . S
H265 C271 0.950 . S
H266 C272 0.949 . S
C267 H262 0.950 . S
C267 C269 1.327 . S
C267 C273 1.429 . S
C268 C260 1.574 . S
C268 H263 0.949 . S
C268 C274 1.368 . S
C269 C253 1.349 . S
C269 H261 0.950 . S
C269 C267 1.327 . S
C270 C258 1.349 . S
C270 H264 0.950 . S
C270 C271 1.327 . S
C271 H265 0.950 . S
C271 C270 1.327 . S
C271 C275 1.429 . S
C272 C255 1.574 . S
C272 H266 0.949 . S
C272 C276 1.368 . S
C273 C254 1.429 . S
C273 C267 1.429 . S
C273 C274 1.523 . S
C274 C255 1.368 . S
C274 C268 1.368 . S
C274 C273 1.523 . S
C275 C259 1.429 . S
C275 C271 1.429 . S
C275 C276 1.523 . S
C276 C260 1.368 . S
C276 C272 1.368 . S
C276 C275 1.523 . S
H277 C252 0.950 . S
H278 C254 0.950 . S
H279 C255 0.949 . S
H280 C257 0.950 . S
H281 C259 0.950 . S
C282 C283 1.349 . S
C282 C284 1.327 . S
C282 H307 0.950 . S
C283 C282 1.349 . S
C283 C299 1.349 . S
C284 C282 1.327 . S
C284 C303 1.429 . S
C284 H308 0.950 . S
C285 C302 1.574 . S
C285 C304 1.368 . S
C285 H309 0.949 . S
H286 C290 0.949 . S
C287 C288 1.349 . S
C287 C289 1.327 . S
C287 H310 0.950 . S
C288 C287 1.349 . S
C288 C300 1.349 . S
C289 C287 1.327 . S
C289 C305 1.429 . S
C289 H311 0.950 . S
C290 H286 0.949 . S
C290 C298 1.574 . S
C290 C306 1.368 . S
H291 C299 0.950 . S
H292 C297 0.950 . S
H293 C298 0.949 . S
H294 C300 0.950 . S
H295 C301 0.950 . S
H296 C302 0.949 . S
C297 H292 0.950 . S
C297 C299 1.327 . S
C297 C303 1.429 . S
C298 C290 1.574 . S
C298 H293 0.949 . S
C298 C304 1.368 . S
C299 C283 1.349 . S
C299 H291 0.950 . S
C299 C297 1.327 . S
C300 C288 1.349 . S
C300 H294 0.950 . S
C300 C301 1.327 . S
C301 H295 0.950 . S
C301 C300 1.327 . S
C301 C305 1.429 . S
C302 C285 1.574 . S
C302 H296 0.949 . S
C302 C306 1.368 . S
C303 C284 1.429 . S
C303 C297 1.429 . S
C303 C304 1.523 . S
C304 C285 1.368 . S
C304 C298 1.368 . S
C304 C303 1.523 . S
C305 C289 1.429 . S
C305 C301 1.429 . S
C305 C306 1.523 . S
C306 C290 1.368 . S
C306 C302 1.368 . S
C306 C305 1.523 . S
H307 C282 0.950 . S
H308 C284 0.950 . S
H309 C285 0.949 . S
H310 C287 0.950 . S
H311 C289 0.950 . S
C312 C313 1.349 . S
C312 C314 1.327 . S
C312 H337 0.950 . S
C313 C312 1.349 . S
C313 C329 1.349 . S
C314 C312 1.327 . S
C314 C333 1.429 . S
C314 H338 0.950 . S
C315 C332 1.574 . S
C315 C334 1.368 . S
C315 H339 0.949 . S
H316 C320 0.949 . S
C317 C318 1.349 . S
C317 C319 1.327 . S
C317 H340 0.950 . S
C318 C317 1.349 . S
C318 C330 1.349 . S
C319 C317 1.327 . S
C319 C335 1.429 . S
C319 H341 0.950 . S
C320 H316 0.949 . S
C320 C328 1.574 . S
C320 C336 1.368 . S
H321 C329 0.950 . S
H322 C327 0.950 . S
H323 C328 0.949 . S
H324 C330 0.950 . S
H325 C331 0.950 . S
H326 C332 0.949 . S
C327 H322 0.950 . S
C327 C329 1.327 . S
C327 C333 1.429 . S
C328 C320 1.574 . S
C328 H323 0.949 . S
C328 C334 1.368 . S
C329 C313 1.349 . S
C329 H321 0.950 . S
C329 C327 1.327 . S
C330 C318 1.349 . S
C330 H324 0.950 . S
C330 C331 1.327 . S
C331 H325 0.950 . S
C331 C330 1.327 . S
C331 C335 1.429 . S
C332 C315 1.574 . S
C332 H326 0.949 . S
C332 C336 1.368 . S
C333 C314 1.429 . S
C333 C327 1.429 . S
C333 C334 1.523 . S
C334 C315 1.368 . S
C334 C328 1.368 . S
C334 C333 1.523 . S
C335 C319 1.429 . S
C335 C331 1.429 . S
C335 C336 1.523 . S
C336 C320 1.368 . S
C336 C332 1.368 . S
C336 C335 1.523 . S
H337 C312 0.950 . S
H338 C314 0.950 . S
H339 C315 0.949 . S
H340 C317 0.950 . S
H341 C319 0.950 . S
C342 C343 1.349 . S
C342 C344 1.327 . S
C342 H367 0.950 . S
C343 C342 1.349 . S
C343 C359 1.349 . S
C344 C342 1.327 . S
C344 C363 1.429 . S
C344 H368 0.950 . S
C345 C362 1.574 . S
C345 C364 1.368 . S
C345 H369 0.949 . S
H346 C350 0.949 . S
C347 C348 1.349 . S
C347 C349 1.327 . S
C347 H370 0.950 . S
C348 C347 1.349 . S
C348 C360 1.349 . S
C349 C347 1.327 . S
C349 C365 1.429 . S
C349 H371 0.950 . S
C350 H346 0.949 . S
C350 C358 1.574 . S
C350 C366 1.368 . S
H351 C359 0.950 . S
H352 C357 0.950 . S
H353 C358 0.949 . S
H354 C360 0.950 . S
H355 C361 0.950 . S
H356 C362 0.949 . S
C357 H352 0.950 . S
C357 C359 1.327 . S
C357 C363 1.429 . S
C358 C350 1.574 . S
C358 H353 0.949 . S
C358 C364 1.368 . S
C359 C343 1.349 . S
C359 H351 0.950 . S
C359 C357 1.327 . S
C360 C348 1.349 . S
C360 H354 0.950 . S
C360 C361 1.327 . S
C361 H355 0.950 . S
C361 C360 1.327 . S
C361 C365 1.429 . S
C362 C345 1.574 . S
C362 H356 0.949 . S
C362 C366 1.368 . S
C363 C344 1.429 . S
C363 C357 1.429 . S
C363 C364 1.523 . S
C364 C345 1.368 . S
C364 C358 1.368 . S
C364 C363 1.523 . S
C365 C349 1.429 . S
C365 C361 1.429 . S
C365 C366 1.523 . S
C366 C350 1.368 . S
C366 C362 1.368 . S
C366 C365 1.523 . S
H367 C342 0.950 . S
H368 C344 0.950 . S
H369 C345 0.949 . S
H370 C347 0.950 . S
H371 C349 0.950 . S
C372 C373 1.349 . S
C372 C374 1.327 . S
C372 H397 0.950 . S
C373 C372 1.349 . S
C373 C389 1.349 . S
C374 C372 1.327 . S
C374 C393 1.429 . S
C374 H398 0.950 . S
C375 C392 1.574 . S
C375 C394 1.368 . S
C375 H399 0.949 . S
H376 C380 0.949 . S
C377 C378 1.349 . S
C377 C379 1.327 . S
C377 H400 0.950 . S
C378 C377 1.349 . S
C378 C390 1.349 . S
C379 C377 1.327 . S
C379 C395 1.429 . S
C379 H401 0.950 . S
C380 H376 0.949 . S
C380 C388 1.574 . S
C380 C396 1.368 . S
H381 C389 0.950 . S
H382 C387 0.950 . S
H383 C388 0.949 . S
H384 C390 0.950 . S
H385 C391 0.950 . S
H386 C392 0.949 . S
C387 H382 0.950 . S
C387 C389 1.327 . S
C387 C393 1.429 . S
C388 C380 1.574 . S
C388 H383 0.949 . S
C388 C394 1.368 . S
C389 C373 1.349 . S
C389 H381 0.950 . S
C389 C387 1.327 . S
C390 C378 1.349 . S
C390 H384 0.950 . S
C390 C391 1.327 . S
C391 H385 0.950 . S
C391 C390 1.327 . S
C391 C395 1.429 . S
C392 C375 1.574 . S
C392 H386 0.949 . S
C392 C396 1.368 . S
C393 C374 1.429 . S
C393 C387 1.429 . S
C393 C394 1.523 . S
C394 C375 1.368 . S
C394 C388 1.368 . S
C394 C393 1.523 . S
C395 C379 1.429 . S
C395 C391 1.429 . S
C395 C396 1.523 . S
C396 C380 1.368 . S
C396 C392 1.368 . S
C396 C395 1.523 . S
H397 C372 0.950 . S
H398 C374 0.950 . S
H399 C375 0.949 . S
H400 C377 0.950 . S
H401 C379 0.950 . S
C402 C403 1.349 . S
C402 C404 1.327 . S
C402 H427 0.950 . S
C403 C402 1.349 . S
C403 C419 1.349 . S
C404 C402 1.327 . S
C404 C423 1.429 . S
C404 H428 0.950 . S
C405 C422 1.574 . S
C405 C424 1.368 . S
C405 H429 0.949 . S
H406 C410 0.949 . S
C407 C408 1.349 . S
C407 C409 1.327 . S
C407 H430 0.950 . S
C408 C407 1.349 . S
C408 C420 1.349 . S
C409 C407 1.327 . S
C409 C425 1.429 . S
C409 H431 0.950 . S
C410 H406 0.949 . S
C410 C418 1.574 . S
C410 C426 1.368 . S
H411 C419 0.950 . S
H412 C417 0.950 . S
H413 C418 0.949 . S
H414 C420 0.950 . S
H415 C421 0.950 . S
H416 C422 0.949 . S
C417 H412 0.950 . S
C417 C419 1.327 . S
C417 C423 1.429 . S
C418 C410 1.574 . S
C418 H413 0.949 . S
C418 C424 1.368 . S
C419 C403 1.349 . S
C419 H411 0.950 . S
C419 C417 1.327 . S
C420 C408 1.349 . S
C420 H414 0.950 . S
C420 C421 1.327 . S
C421 H415 0.950 . S
C421 C420 1.327 . S
C421 C425 1.429 . S
C422 C405 1.574 . S
C422 H416 0.949 . S
C422 C426 1.368 . S
C423 C404 1.429 . S
C423 C417 1.429 . S
C423 C424 1.523 . S
C424 C405 1.368 . S
C424 C418 1.368 . S
C424 C423 1.523 . S
C425 C409 1.429 . S
C425 C421 1.429 . S
C425 C426 1.523 . S
C426 C410 1.368 . S
C426 C422 1.368 . S
C426 C425 1.523 . S
H427 C402 0.950 . S
H428 C404 0.950 . S
H429 C405 0.949 . S
H430 C407 0.950 . S
H431 C409 0.950 . S
C432 C433 1.349 . S
C432 C434 1.327 . S
C432 H457 0.950 . S
C433 C432 1.349 . S
C433 C449 1.349 . S
C434 C432 1.327 . S
C434 C453 1.429 . S
C434 H458 0.950 . S
C435 C452 1.574 . S
C435 C454 1.368 . S
C435 H459 0.949 . S
H436 C440 0.949 . S
C437 C438 1.349 . S
C437 C439 1.327 . S
C437 H460 0.950 . S
C438 C437 1.349 . S
C438 C450 1.349 . S
C439 C437 1.327 . S
C439 C455 1.429 . S
C439 H461 0.950 . S
C440 H436 0.949 . S
C440 C448 1.574 . S
C440 C456 1.368 . S
H441 C449 0.950 . S
H442 C447 0.950 . S
H443 C448 0.949 . S
H444 C450 0.950 . S
H445 C451 0.950 . S
H446 C452 0.949 . S
C447 H442 0.950 . S
C447 C449 1.327 . S
C447 C453 1.429 . S
C448 C440 1.574 . S
C448 H443 0.949 . S
C448 C454 1.368 . S
C449 C433 1.349 . S
C449 H441 0.950 . S
C449 C447 1.327 . S
C450 C438 1.349 . S
C450 H444 0.950 . S
C450 C451 1.327 . S
C451 H445 0.950 . S
C451 C450 1.327 . S
C451 C455 1.429 . S
C452 C435 1.574 . S
C452 H446 0.949 . S
C452 C456 1.368 . S
C453 C434 1.429 . S
C453 C447 1.429 . S
C453 C454 1.523 . S
C454 C435 1.368 . S
C454 C448 1.368 . S
C454 C453 1.523 . S
C455 C439 1.429 . S
C455 C451 1.429 . S
C455 C456 1.523 . S
C456 C440 1.368 . S
C456 C452 1.368 . S
C456 C455 1.523 . S
H457 C432 0.950 . S
H458 C434 0.950 . S
H459 C435 0.949 . S
H460 C437 0.950 . S
H461 C439 0.950 . S
C462 C463 1.349 . S
C462 C464 1.327 . S
C462 H487 0.950 . S
C463 C462 1.349 . S
C463 C479 1.349 . S
C464 C462 1.327 . S
C464 C483 1.429 . S
C464 H488 0.950 . S
C465 C482 1.574 . S
C465 C484 1.368 . S
C465 H489 0.949 . S
H466 C470 0.949 . S
C467 C468 1.349 . S
C467 C469 1.327 . S
C467 H490 0.950 . S
C468 C467 1.349 . S
C468 C480 1.349 . S
C469 C467 1.327 . S
C469 C485 1.429 . S
C469 H491 0.950 . S
C470 H466 0.949 . S
C470 C478 1.574 . S
C470 C486 1.368 . S
H471 C479 0.950 . S
H472 C477 0.950 . S
H473 C478 0.949 . S
H474 C480 0.950 . S
H475 C481 0.950 . S
H476 C482 0.949 . S
C477 H472 0.950 . S
C477 C479 1.327 . S
C477 C483 1.429 . S
C478 C470 1.574 . S
C478 H473 0.949 . S
C478 C484 1.368 . S
C479 C463 1.349 . S
C479 H471 0.950 . S
C479 C477 1.327 . S
C480 C468 1.349 . S
C480 H474 0.950 . S
C480 C481 1.327 . S
C481 H475 0.950 . S
C481 C480 1.327 . S
C481 C485 1.429 . S
C482 C465 1.574 . S
C482 H476 0.949 . S
C482 C486 1.368 . S
C483 C464 1.429 . S
C483 C477 1.429 . S
C483 C484 1.523 . S
C484 C465 1.368 . S
C484 C478 1.368 . S
C484 C483 1.523 . S
C485 C469 1.429 . S
C485 C481 1.429 . S
C485 C486 1.523 . S
C486 C470 1.368 . S
C486 C482 1.368 . S
C486 C485 1.523 . S
H487 C462 0.950 . S
H488 C464 0.950 . S
H489 C465 0.949 . S
H490 C467 0.950 . S
H491 C469 0.950 . S
C492 C493 1.349 . S
C492 C494 1.327 . S
C492 H517 0.950 . S
C493 C492 1.349 . S
C493 C509 1.349 . S
C494 C492 1.327 . S
C494 C513 1.429 . S
C494 H518 0.950 . S
C495 C512 1.574 . S
C495 C514 1.368 . S
C495 H519 0.949 . S
H496 C500 0.949 . S
C497 C498 1.349 . S
C497 C499 1.327 . S
C497 H520 0.950 . S
C498 C497 1.349 . S
C498 C510 1.349 . S
C499 C497 1.327 . S
C499 C515 1.429 . S
C499 H521 0.950 . S
C500 H496 0.949 . S
C500 C508 1.574 . S
C500 C516 1.368 . S
H501 C509 0.950 . S
H502 C507 0.950 . S
H503 C508 0.949 . S
H504 C510 0.950 . S
H505 C511 0.950 . S
H506 C512 0.949 . S
C507 H502 0.950 . S
C507 C509 1.327 . S
C507 C513 1.429 . S
C508 C500 1.574 . S
C508 H503 0.949 . S
C508 C514 1.368 . S
C509 C493 1.349 . S
C509 H501 0.950 . S
C509 C507 1.327 . S
C510 C498 1.349 . S
C510 H504 0.950 . S
C510 C511 1.327 . S
C511 H505 0.950 . S
C511 C510 1.327 . S
C511 C515 1.429 . S
C512 C495 1.574 . S
C512 H506 0.949 . S
C512 C516 1.368 . S
C513 C494 1.429 . S
C513 C507 1.429 . S
C513 C514 1.523 . S
C514 C495 1.368 . S
C514 C508 1.368 . S
C514 C513 1.523 . S
C515 C499 1.429 . S
C515 C511 1.429 . S
C515 C516 1.523 . S
C516 C500 1.368 . S
C516 C512 1.368 . S
C516 C515 1.523 . S
H517 C492 0.950 . S
H518 C494 0.950 . S
H519 C495 0.949 . S
H520 C497 0.950 . S
H521 C499 0.950 . S
C522 C523 1.349 . S
C522 C524 1.327 . S
C522 H547 0.950 . S
C523 C522 1.349 . S
C523 C539 1.349 . S
C524 C522 1.327 . S
C524 C543 1.429 . S
C524 H548 0.950 . S
C525 C542 1.574 . S
C525 C544 1.368 . S
C525 H549 0.949 . S
H526 C530 0.949 . S
C527 C528 1.349 . S
C527 C529 1.327 . S
C527 H550 0.950 . S
C528 C527 1.349 . S
C528 C540 1.349 . S
C529 C527 1.327 . S
C529 C545 1.429 . S
C529 H551 0.950 . S
C530 H526 0.949 . S
C530 C538 1.574 . S
C530 C546 1.368 . S
H531 C539 0.950 . S
H532 C537 0.950 . S
H533 C538 0.949 . S
H534 C540 0.950 . S
H535 C541 0.950 . S
H536 C542 0.949 . S
C537 H532 0.950 . S
C537 C539 1.327 . S
C537 C543 1.429 . S
C538 C530 1.574 . S
C538 H533 0.949 . S
C538 C544 1.368 . S
C539 C523 1.349 . S
C539 H531 0.950 . S
C539 C537 1.327 . S
C540 C528 1.349 . S
C540 H534 0.950 . S
C540 C541 1.327 . S
C541 H535 0.950 . S
C541 C540 1.327 . S
C541 C545 1.429 . S
C542 C525 1.574 . S
C542 H536 0.949 . S
C542 C546 1.368 . S
C543 C524 1.429 . S
C543 C537 1.429 . S
C543 C544 1.523 . S
C544 C525 1.368 . S
C544 C538 1.368 . S
C544 C543 1.523 . S
C545 C529 1.429 . S
C545 C541 1.429 . S
C545 C546 1.523 . S
C546 C530 1.368 . S
C546 C542 1.368 . S
C546 C545 1.523 . S
H547 C522 0.950 . S
H548 C524 0.950 . S
H549 C525 0.949 . S
H550 C527 0.950 . S
H551 C529 0.950 . S
C552 C553 1.349 . S
C552 C554 1.327 . S
C552 H577 0.950 . S
C553 C552 1.349 . S
C553 C569 1.349 . S
C554 C552 1.327 . S
C554 C573 1.429 . S
C554 H578 0.950 . S
C555 C572 1.574 . S
C555 C574 1.368 . S
C555 H579 0.949 . S
H556 C560 0.949 . S
C557 C558 1.349 . S
C557 C559 1.327 . S
C557 H580 0.950 . S
C558 C557 1.349 . S
C558 C570 1.349 . S
C559 C557 1.327 . S
C559 C575 1.429 . S
C559 H581 0.950 . S
C560 H556 0.949 . S
C560 C568 1.574 . S
C560 C576 1.368 . S
H561 C569 0.950 . S
H562 C567 0.950 . S
H563 C568 0.949 . S
H564 C570 0.950 . S
H565 C571 0.950 . S
H566 C572 0.949 . S
C567 H562 0.950 . S
C567 C569 1.327 . S
C567 C573 1.429 . S
C568 C560 1.574 . S
C568 H563 0.949 . S
C568 C574 1.368 . S
C569 C553 1.349 . S
C569 H561 0.950 . S
C569 C567 1.327 . S
C570 C558 1.349 . S
C570 H564 0.950 . S
C570 C571 1.327 . S
C571 H565 0.950 . S
C571 C570 1.327 . S
C571 C575 1.429 . S
C572 C555 1.574 . S
C572 H566 0.949 . S
C572 C576 1.368 . S
C573 C554 1.429 . S
C573 C567 1.429 . S
C573 C574 1.523 . S
C574 C555 1.368 . S
C574 C568 1.368 . S
C574 C573 1.523 . S
C575 C559 1.429 . S
C575 C571 1.429 . S
C575 C576 1.523 . S
C576 C560 1.368 . S
C576 C572 1.368 . S
C576 C575 1.523 . S
H577 C552 0.950 . S
H578 C554 0.950 . S
H579 C555 0.949 . S
H580 C557 0.950 . S
H581 C559 0.950 . S
C582 C583 1.349 . S
C582 C584 1.327 . S
C582 H607 0.950 . S
C583 C582 1.349 . S
C583 C599 1.349 . S
C584 C582 1.327 . S
C584 C603 1.429 . S
C584 H608 0.950 . S
C585 C602 1.574 . S
C585 C604 1.368 . S
C585 H609 0.949 . S
H586 C590 0.949 . S
C587 C588 1.349 . S
C587 C589 1.327 . S
C587 H610 0.950 . S
C588 C587 1.349 . S
C588 C600 1.349 . S
C589 C587 1.327 . S
C589 C605 1.429 . S
C589 H611 0.950 . S
C590 H586 0.949 . S
C590 C598 1.574 . S
C590 C606 1.368 . S
H591 C599 0.950 . S
H592 C597 0.950 . S
H593 C598 0.949 . S
H594 C600 0.950 . S
H595 C601 0.950 . S
H596 C602 0.949 . S
C597 H592 0.950 . S
C597 C599 1.327 . S
C597 C603 1.429 . S
C598 C590 1.574 . S
C598 H593 0.949 . S
C598 C604 1.368 . S
C599 C583 1.349 . S
C599 H591 0.950 . S
C599 C597 1.327 . S
C600 C588 1.349 . S
C600 H594 0.950 . S
C600 C601 1.327 . S
C601 H595 0.950 . S
C601 C600 1.327 . S
C601 C605 1.429 . S
C602 C585 1.574 . S
C602 H596 0.949 . S
C602 C606 1.368 . S
C603 C584 1.429 . S
C603 C597 1.429 . S
C603 C604 1.523 . S
C604 C585 1.368 . S
C604 C598 1.368 . S
C604 C603 1.523 . S
C605 C589 1.429 . S
C605 C601 1.429 . S
C605 C606 1.523 . S
C606 C590 1.368 . S
C606 C602 1.368 . S
C606 C605 1.523 . S
H607 C582 0.950 . S
H608 C584 0.950 . S
H609 C585 0.949 . S
H610 C587 0.950 . S
H611 C589 0.950 . S
C612 C613 1.349 . S
C612 C614 1.327 . S
C612 H637 0.950 1_455 S
C613 C612 1.349 . S
C613 C629 1.349 . S
C614 C612 1.327 . S
C614 C633 1.429 . S
C614 H638 0.950 1_455 S
C615 C632 1.574 . S
C615 C634 1.368 . S
C615 H639 0.949 . S
H616 C620 0.938 1_655 S
C617 C618 1.349 . S
C617 C619 1.327 . S
C617 H640 0.950 . S
C618 C617 1.349 . S
C618 C630 1.349 . S
C619 C617 1.327 . S
C619 C635 1.429 1_556 S
C619 H641 0.977 . S
C620 H616 0.938 1_455 S
C620 C628 1.574 . S
C620 C636 1.368 . S
H621 C629 0.950 . S
H622 C627 0.950 . S
H623 C628 0.949 1_655 S
H624 C630 0.950 . S
H625 C631 0.950 . S
H626 C632 0.949 . S
C627 H622 0.950 . S
C627 C629 1.327 . S
C627 C633 1.429 . S
C628 C620 1.574 . S
C628 H623 0.949 1_455 S
C628 C634 1.368 . S
C629 C613 1.349 . S
C629 H621 0.950 . S
C629 C627 1.327 . S
C630 C618 1.349 . S
C630 H624 0.950 . S
C630 C631 1.327 . S
C631 H625 0.950 . S
C631 C630 1.327 . S
C631 C635 1.429 1_556 S
C632 C615 1.574 . S
C632 H626 0.949 . S
C632 C636 1.368 . S
C633 C614 1.429 . S
C633 C627 1.429 . S
C633 C634 1.523 . S
C634 C615 1.368 . S
C634 C628 1.368 . S
C634 C633 1.523 . S
C635 C619 1.429 1_554 S
C635 C631 1.429 1_554 S
C635 C636 1.523 . S
C636 C620 1.368 . S
C636 C632 1.368 . S
C636 C635 1.523 . S
H637 C612 0.950 1_655 S
H638 C614 0.950 1_655 S
H639 C615 0.949 . S
H640 C617 0.950 . S
H641 C619 0.977 . S
C642 C643 1.349 . S
C642 C644 1.325 1_545 S
C642 H667 0.950 1_545 S
C643 C642 1.349 . S
C643 C659 1.349 . S
C644 C642 1.325 1_565 S
C644 C663 1.419 1_565 S
C644 H668 0.963 . S
C645 C662 1.574 . S
C645 C664 1.368 . S
C645 H669 0.949 . S
H646 C650 0.949 . S
C647 C648 1.349 . S
C647 C649 1.327 . S
C647 H670 0.950 . S
C648 C647 1.349 . S
C648 C660 1.349 1_545 S
C649 C647 1.327 . S
C649 C665 1.429 . S
C649 H671 0.950 . S
C650 H646 0.949 . S
C650 C658 1.574 . S
C650 C666 1.368 1_565 S
H651 C659 0.950 . S
H652 C657 0.950 . S
H653 C658 0.949 . S
H654 C660 0.950 . S
H655 C661 0.950 . S
H656 C662 0.949 . S
C657 H652 0.950 . S
C657 C659 1.327 . S
C657 C663 1.429 . S
C658 C650 1.574 . S
C658 H653 0.949 . S
C658 C664 1.368 1_565 S
C659 C643 1.349 . S
C659 H651 0.950 . S
C659 C657 1.327 . S
C660 C648 1.349 1_565 S
C660 H654 0.950 . S
C660 C661 1.327 . S
C661 H655 0.950 . S
C661 C660 1.327 . S
C661 C665 1.429 1_565 S
C662 C645 1.574 . S
C662 H656 0.949 . S
C662 C666 1.368 . S
C663 C644 1.419 1_545 S
C663 C657 1.429 . S
C663 C664 1.523 . S
C664 C645 1.368 . S
C664 C658 1.368 1_545 S
C664 C663 1.523 . S
C665 C649 1.429 . S
C665 C661 1.429 1_545 S
C665 C666 1.523 . S
C666 C650 1.368 1_545 S
C666 C662 1.368 . S
C666 C665 1.523 . S
H667 C642 0.950 1_565 S
H668 C644 0.963 . S
H669 C645 0.949 . S
H670 C647 0.950 . S
H671 C649 0.950 . S
C672 C673 1.349 . S
C672 C674 1.327 . S
C672 H697 0.950 . S
C673 C672 1.349 . S
C673 C689 1.349 . S
C674 C672 1.327 . S
C674 C693 1.429 . S
C674 H698 0.950 . S
C675 C692 1.574 . S
C675 C694 1.368 . S
C675 H699 0.949 . S
H676 C680 0.949 . S
C677 C678 1.349 . S
C677 C679 1.327 . S
C677 H700 0.950 . S
C678 C677 1.349 . S
C678 C690 1.349 . S
C679 C677 1.327 . S
C679 C695 1.429 . S
C679 H701 0.950 . S
C680 H676 0.949 . S
C680 C688 1.574 . S
C680 C696 1.368 . S
H681 C689 0.950 . S
H682 C687 0.950 . S
H683 C688 0.949 . S
H684 C690 0.950 . S
H685 C691 0.950 . S
H686 C692 0.949 . S
C687 H682 0.950 . S
C687 C689 1.327 . S
C687 C693 1.429 . S
C688 C680 1.574 . S
C688 H683 0.949 . S
C688 C694 1.368 . S
C689 C673 1.349 . S
C689 H681 0.950 . S
C689 C687 1.327 . S
C690 C678 1.349 . S
C690 H684 0.950 . S
C690 C691 1.327 . S
C691 H685 0.950 . S
C691 C690 1.327 . S
C691 C695 1.429 . S
C692 C675 1.574 . S
C692 H686 0.949 . S
C692 C696 1.368 . S
C693 C674 1.429 . S
C693 C687 1.429 . S
C693 C694 1.523 . S
C694 C675 1.368 . S
C694 C688 1.368 . S
C694 C693 1.523 . S
C695 C679 1.429 . S
C695 C691 1.429 . S
C695 C696 1.523 . S
C696 C680 1.368 . S
C696 C692 1.368 . S
C696 C695 1.523 . S
H697 C672 0.950 . S
H698 C674 0.950 . S
H699 C675 0.949 . S
H700 C677 0.950 . S
H701 C679 0.950 . S
C702 C703 1.349 . S
C702 C704 1.327 . S
C702 H727 0.950 1_545 S
C703 C702 1.349 . S
C703 C719 1.349 . S
C704 C702 1.327 . S
C704 C723 1.429 . S
C704 H728 0.950 1_545 S
C705 C722 1.574 . S
C705 C724 1.368 . S
C705 H729 0.949 . S
H706 C710 0.949 . S
C707 C708 1.349 . S
C707 C709 1.327 . S
C707 H730 0.950 . S
C708 C707 1.349 . S
C708 C720 1.349 . S
C709 C707 1.327 . S
C709 C725 1.429 . S
C709 H731 0.950 . S
C710 H706 0.949 . S
C710 C718 1.574 . S
C710 C726 1.368 . S
H711 C719 0.950 . S
H712 C717 0.950 . S
H713 C718 0.946 1_565 S
H714 C720 0.950 . S
H715 C721 0.950 . S
H716 C722 0.949 . S
C717 H712 0.950 . S
C717 C719 1.327 . S
C717 C723 1.429 . S
C718 C710 1.574 . S
C718 H713 0.946 1_545 S
C718 C724 1.368 . S
C719 C703 1.349 . S
C719 H711 0.950 . S
C719 C717 1.327 . S
C720 C708 1.349 . S
C720 H714 0.950 . S
C720 C721 1.327 . S
C721 H715 0.950 . S
C721 C720 1.327 . S
C721 C725 1.429 . S
C722 C705 1.574 . S
C722 H716 0.949 . S
C722 C726 1.368 . S
C723 C704 1.429 . S
C723 C717 1.429 . S
C723 C724 1.523 . S
C724 C705 1.368 . S
C724 C718 1.368 . S
C724 C723 1.523 . S
C725 C709 1.429 . S
C725 C721 1.429 . S
C725 C726 1.523 . S
C726 C710 1.368 . S
C726 C722 1.368 . S
C726 C725 1.523 . S
H727 C702 0.950 1_565 S
H728 C704 0.950 1_565 S
H729 C705 0.949 . S
H730 C707 0.950 . S
H731 C709 0.950 . S
C732 C733 1.349 . S
C732 C734 1.327 . S
C732 H757 0.950 . S
C733 C732 1.349 . S
C733 C749 1.349 . S
C734 C732 1.327 . S
C734 C753 1.429 . S
C734 H758 0.950 . S
C735 C752 1.574 . S
C735 C754 1.368 . S
C735 H759 0.949 . S
H736 C740 0.949 . S
C737 C738 1.349 . S
C737 C739 1.327 . S
C737 H760 0.950 . S
C738 C737 1.349 . S
C738 C750 1.349 . S
C739 C737 1.327 . S
C739 C755 1.449 . S
C739 H761 0.950 . S
C740 H736 0.949 . S
C740 C748 1.574 . S
C740 C756 1.368 . S
H741 C749 0.950 . S
H742 C747 0.950 . S
H743 C748 0.949 . S
H744 C750 0.950 . S
H745 C751 0.950 . S
H746 C752 0.949 . S
C747 H742 0.950 . S
C747 C749 1.327 . S
C747 C753 1.429 . S
C748 C740 1.574 . S
C748 H743 0.949 . S
C748 C754 1.368 . S
C749 C733 1.349 . S
C749 H741 0.950 . S
C749 C747 1.327 . S
C750 C738 1.349 . S
C750 H744 0.950 . S
C750 C751 1.327 . S
C751 H745 0.950 . S
C751 C750 1.327 . S
C751 C755 1.454 . S
C752 C735 1.574 . S
C752 H746 0.949 . S
C752 C756 1.368 . S
C753 C734 1.429 . S
C753 C747 1.429 . S
C753 C754 1.523 . S
C754 C735 1.368 . S
C754 C748 1.368 . S
C754 C753 1.523 . S
C755 C739 1.449 . S
C755 C751 1.454 . S
C755 C756 1.481 1_554 S
C756 C740 1.368 . S
C756 C752 1.368 . S
C756 C755 1.481 1_556 S
H757 C732 0.950 . S
H758 C734 0.950 . S
H759 C735 0.949 . S
H760 C737 0.950 . S
H761 C739 0.950 . S
C762 C763 1.349 . S
C762 C764 1.327 . S
C762 H787 0.950 . S
C763 C762 1.349 . S
C763 C779 1.349 . S
C764 C762 1.327 . S
C764 C783 1.429 . S
C764 H788 0.950 . S
C765 C782 1.574 . S
C765 C784 1.368 . S
C765 H789 0.949 . S
H766 C770 0.949 . S
C767 C768 1.349 . S
C767 C769 1.327 . S
C767 H790 0.950 . S
C768 C767 1.349 . S
C768 C780 1.349 . S
C769 C767 1.327 . S
C769 C785 1.429 . S
C769 H791 0.950 . S
C770 H766 0.949 . S
C770 C778 1.574 . S
C770 C786 1.368 . S
H771 C779 0.950 . S
H772 C777 0.950 . S
H773 C778 0.949 . S
H774 C780 0.950 . S
H775 C781 0.950 . S
H776 C782 0.949 . S
C777 H772 0.950 . S
C777 C779 1.327 . S
C777 C783 1.429 . S
C778 C770 1.574 . S
C778 H773 0.949 . S
C778 C784 1.368 . S
C779 C763 1.349 . S
C779 H771 0.950 . S
C779 C777 1.327 . S
C780 C768 1.349 . S
C780 H774 0.950 . S
C780 C781 1.327 . S
C781 H775 0.950 . S
C781 C780 1.327 . S
C781 C785 1.429 . S
C782 C765 1.574 . S
C782 H776 0.949 . S
C782 C786 1.368 . S
C783 C764 1.429 . S
C783 C777 1.429 . S
C783 C784 1.523 . S
C784 C765 1.368 . S
C784 C778 1.368 . S
C784 C783 1.523 . S
C785 C769 1.429 . S
C785 C781 1.429 . S
C785 C786 1.523 . S
C786 C770 1.368 . S
C786 C782 1.368 . S
C786 C785 1.523 . S
H787 C762 0.950 . S
H788 C764 0.950 . S
H789 C765 0.949 . S
H790 C767 0.950 . S
H791 C769 0.950 . S
C253 C2 0.994 . S
C258 C243 0.983 . S
C283 C21 0.953 . S
C288 C179 0.948 . S
C313 C42 1.024 . S
C318 C211 1.013 . S
C343 C1 0.957 . S
C348 C237 0.957 . S
C378 C173 0.990 . S
C373 C22 0.999 . S
C408 C205 0.927 . S
C403 C41 0.928 . S
C433 C38 1.803 . S
C438 C115 1.776 . S
C463 C59 1.857 . S
C468 C147 1.805 . S
C493 C18 1.779 . S
C498 C77 1.759 . S
C528 C109 1.823 . S
C523 C39 1.865 . S
C558 C141 1.790 . S
C553 C58 1.809 . S
C583 C19 1.889 . S
C588 C83 1.837 . S
C618 C153 1.534 . S
C613 C9 1.506 . S
C643 C29 1.506 . S
C648 C89 1.539 . S
C673 C49 1.505 . S
C678 C121 1.531 . S
C708 C217 1.371 . S
C703 C28 1.368 . S
C738 C249 1.365 . S
C733 C48 1.361 . S
C763 C8 1.361 . S
C768 C185 1.359 . S
