# Generated by pormake.
# Topology ssb, (4,4)-cn, num edge types: 1
# Building blocks:
#     Node 0, Type 0, BuildingBlock: GIZVER_clean_linker_0, # of connection points: 4
#     Node 1, Type 0, BuildingBlock: GIZVER_clean_linker_0, # of connection points: 4
#     Node 2, Type 0, BuildingBlock: GIZVER_clean_linker_0, # of connection points: 4
#     Node 3, Type 0, BuildingBlock: GIZVER_clean_linker_0, # of connection points: 4
#     Node 4, Type 0, BuildingBlock: GIZVER_clean_linker_0, # of connection points: 4
#     Node 5, Type 0, BuildingBlock: GIZVER_clean_linker_0, # of connection points: 4
#     Node 6, Type 0, BuildingBlock: GIZVER_clean_linker_0, # of connection points: 4
#     Node 7, Type 0, BuildingBlock: GIZVER_clean_linker_0, # of connection points: 4
#     Node 8, Type 1, BuildingBlock: NAWXER_clean_sbu_0, # of connection points: 4
#     Node 9, Type 1, BuildingBlock: NAWXER_clean_sbu_0, # of connection points: 4
#     Node 10, Type 1, BuildingBlock: NAWXER_clean_sbu_0, # of connection points: 4
#     Node 11, Type 1, BuildingBlock: NAWXER_clean_sbu_0, # of connection points: 4
#     Node 12, Type 1, BuildingBlock: NAWXER_clean_sbu_0, # of connection points: 4
#     Node 13, Type 1, BuildingBlock: NAWXER_clean_sbu_0, # of connection points: 4
#     Node 14, Type 1, BuildingBlock: NAWXER_clean_sbu_0, # of connection points: 4
#     Node 15, Type 1, BuildingBlock: NAWXER_clean_sbu_0, # of connection points: 4
#     Edge 16, Type (0, 1), BuildingBlock: XUDNAN_clean_linker_2, # of connection points: 2
#     Edge 17, Type (0, 1), BuildingBlock: XUDNAN_clean_linker_2, # of connection points: 2
#     Edge 18, Type (0, 1), BuildingBlock: XUDNAN_clean_linker_2, # of connection points: 2
#     Edge 19, Type (0, 1), BuildingBlock: XUDNAN_clean_linker_2, # of connection points: 2
#     Edge 20, Type (0, 1), BuildingBlock: XUDNAN_clean_linker_2, # of connection points: 2
#     Edge 21, Type (0, 1), BuildingBlock: XUDNAN_clean_linker_2, # of connection points: 2
#     Edge 22, Type (0, 1), BuildingBlock: XUDNAN_clean_linker_2, # of connection points: 2
#     Edge 23, Type (0, 1), BuildingBlock: XUDNAN_clean_linker_2, # of connection points: 2
#     Edge 24, Type (0, 1), BuildingBlock: XUDNAN_clean_linker_2, # of connection points: 2
#     Edge 25, Type (0, 1), BuildingBlock: XUDNAN_clean_linker_2, # of connection points: 2
#     Edge 26, Type (0, 1), BuildingBlock: XUDNAN_clean_linker_2, # of connection points: 2
#     Edge 27, Type (0, 1), BuildingBlock: XUDNAN_clean_linker_2, # of connection points: 2
#     Edge 28, Type (0, 1), BuildingBlock: XUDNAN_clean_linker_2, # of connection points: 2
#     Edge 29, Type (0, 1), BuildingBlock: XUDNAN_clean_linker_2, # of connection points: 2
#     Edge 30, Type (0, 1), BuildingBlock: XUDNAN_clean_linker_2, # of connection points: 2
#     Edge 31, Type (0, 1), BuildingBlock: XUDNAN_clean_linker_2, # of connection points: 2
#     Edge 32, Type (0, 1), BuildingBlock: XUDNAN_clean_linker_2, # of connection points: 2
#     Edge 33, Type (0, 1), BuildingBlock: XUDNAN_clean_linker_2, # of connection points: 2
#     Edge 34, Type (0, 1), BuildingBlock: XUDNAN_clean_linker_2, # of connection points: 2
#     Edge 35, Type (0, 1), BuildingBlock: XUDNAN_clean_linker_2, # of connection points: 2
#     Edge 36, Type (0, 1), BuildingBlock: XUDNAN_clean_linker_2, # of connection points: 2
#     Edge 37, Type (0, 1), BuildingBlock: XUDNAN_clean_linker_2, # of connection points: 2
#     Edge 38, Type (0, 1), BuildingBlock: XUDNAN_clean_linker_2, # of connection points: 2
#     Edge 39, Type (0, 1), BuildingBlock: XUDNAN_clean_linker_2, # of connection points: 2
#     Edge 40, Type (0, 1), BuildingBlock: XUDNAN_clean_linker_2, # of connection points: 2
#     Edge 41, Type (0, 1), BuildingBlock: XUDNAN_clean_linker_2, # of connection points: 2
#     Edge 42, Type (0, 1), BuildingBlock: XUDNAN_clean_linker_2, # of connection points: 2
#     Edge 43, Type (0, 1), BuildingBlock: XUDNAN_clean_linker_2, # of connection points: 2
#     Edge 44, Type (0, 1), BuildingBlock: XUDNAN_clean_linker_2, # of connection points: 2
#     Edge 45, Type (0, 1), BuildingBlock: XUDNAN_clean_linker_2, # of connection points: 2
#     Edge 46, Type (0, 1), BuildingBlock: XUDNAN_clean_linker_2, # of connection points: 2
#     Edge 47, Type (0, 1), BuildingBlock: XUDNAN_clean_linker_2, # of connection points: 2
# Relax obj value: 0.000
# Max RMSD: 0.030
# Mean RMSD: 0.015
data_MOF--net-ssb--node1-NAWXER_clean_sbu_0--node2-GIZVER_clean_linker_0--edge1-XUDNAN_clean_linker_2
_symmetry_space_group_name_H-M    P1
_symmetry_Int_Tables_number       1
_symmetry_cell_setting            triclinic
loop_
_symmetry_equiv_pos_as_xyz
'x, y, z'
_cell_length_a     46.298069
_cell_length_b     46.168424
_cell_length_c     39.78231
_cell_angle_alpha  89.895492
_cell_angle_beta   89.846644
_cell_angle_gamma 90.002528
loop_
_atom_site_label
_atom_site_type_symbol
_atom_site_fract_x
_atom_site_fract_y
_atom_site_fract_z
_atom_type_partial_charge
H0 H 0.23124 0.16615 0.24066 0.0
H1 H 0.16982 0.23599 0.24912 0.0
H2 H 0.19181 0.18475 0.33581 0.0
H3 H 0.20919 0.18682 0.19066 0.0
H4 H 0.18229 0.21423 0.19393 0.0
H5 H 0.26107 0.19945 0.19093 0.0
H6 H 0.28194 0.28733 0.16378 0.0
H7 H 0.19487 0.26449 0.19042 0.0
C8 C 0.21743 0.17981 0.25593 0.0
C9 C 0.21376 0.17345 0.29014 0.0
C10 C 0.20225 0.20295 0.2411 0.0
C11 C 0.18277 0.21924 0.26083 0.0
C12 C 0.17843 0.21237 0.29496 0.0
C13 C 0.19497 0.19026 0.30952 0.0
C14 C 0.20385 0.20754 0.20351 0.0
C15 C 0.2261 0.23008 0.19388 0.0
C16 C 0.25499 0.22195 0.18789 0.0
C17 C 0.2753 0.24226 0.1759 0.0
C18 C 0.26632 0.27115 0.17145 0.0
C19 C 0.23725 0.27936 0.17548 0.0
C20 C 0.21744 0.25877 0.18763 0.0
H21 H 0.79515 0.27251 0.28745 0.0
H22 H 0.72993 0.20736 0.28555 0.0
H23 H 0.78712 0.213 0.37036 0.0
H24 H 0.78208 0.24306 0.23373 0.0
H25 H 0.74827 0.22512 0.23369 0.0
H26 H 0.78542 0.29476 0.22567 0.0
H27 H 0.70878 0.33685 0.18967 0.0
H28 H 0.70266 0.25303 0.23616 0.0
C29 C 0.78446 0.25472 0.30007 0.0
C30 C 0.79313 0.24582 0.33244 0.0
C31 C 0.76277 0.23988 0.28261 0.0
C32 C 0.74741 0.21766 0.29895 0.0
C33 C 0.75539 0.20798 0.33131 0.0
C34 C 0.77892 0.22182 0.34714 0.0
C35 C 0.76004 0.24375 0.24493 0.0
C36 C 0.74543 0.2716 0.23429 0.0
C37 C 0.7621 0.29552 0.22359 0.0
C38 C 0.74898 0.319 0.20704 0.0
C39 C 0.71885 0.31906 0.20306 0.0
C40 C 0.70193 0.29537 0.2131 0.0
C41 C 0.71533 0.27188 0.22929 0.0
H42 H 0.81709 0.75326 0.27678 0.0
H43 H 0.75237 0.82024 0.28048 0.0
H44 H 0.84066 0.8401 0.30297 0.0
H45 H 0.76667 0.74091 0.28171 0.0
H46 H 0.74018 0.76817 0.28818 0.0
H47 H 0.76554 0.71534 0.2306 0.0
H48 H 0.70651 0.7418 0.15358 0.0
H49 H 0.72374 0.79888 0.23611 0.0
C50 C 0.81138 0.77593 0.27917 0.0
C51 C 0.83265 0.79608 0.28858 0.0
C52 C 0.78235 0.78463 0.2753 0.0
C53 C 0.77486 0.81378 0.28116 0.0
C54 C 0.79593 0.83405 0.29071 0.0
C55 C 0.82472 0.82506 0.29334 0.0
C56 C 0.75881 0.76209 0.27193 0.0
C57 C 0.74771 0.7585 0.23638 0.0
C58 C 0.75213 0.732 0.21942 0.0
C59 C 0.73699 0.72584 0.18977 0.0
C60 C 0.71859 0.74678 0.17619 0.0
C61 C 0.71381 0.77316 0.19256 0.0
C62 C 0.72865 0.77919 0.22249 0.0
H63 H 0.22745 0.73238 0.28832 0.0
H64 H 0.29647 0.79416 0.28844 0.0
H65 H 0.23921 0.78715 0.37399 0.0
H66 H 0.24731 0.74991 0.23568 0.0
H67 H 0.27364 0.77796 0.23515 0.0
H68 H 0.26162 0.69879 0.24096 0.0
H69 H 0.3489 0.68011 0.21136 0.0
H70 H 0.32505 0.76702 0.23728 0.0
C71 C 0.23982 0.74877 0.30142 0.0
C72 C 0.23154 0.75733 0.33384 0.0
C73 C 0.26273 0.76264 0.28478 0.0
C74 C 0.27845 0.7843 0.30149 0.0
C75 C 0.27032 0.79383 0.33389 0.0
C76 C 0.24665 0.77999 0.34963 0.0
C77 C 0.26768 0.75726 0.24778 0.0
C78 C 0.29103 0.73513 0.24143 0.0
C79 C 0.28381 0.70569 0.23752 0.0
C80 C 0.30475 0.68557 0.22703 0.0
C81 C 0.33313 0.69508 0.22157 0.0
C82 C 0.34069 0.72431 0.22511 0.0
C83 C 0.31961 0.74424 0.23548 0.0
H84 H 0.29961 0.77832 0.79758 0.0
H85 H 0.2312 0.71745 0.81504 0.0
H86 H 0.28838 0.73999 0.89562 0.0
H87 H 0.28139 0.74706 0.7523 0.0
H88 H 0.2522 0.72304 0.75957 0.0
H89 H 0.27166 0.80123 0.74852 0.0
H90 H 0.19735 0.81434 0.68601 0.0
H91 H 0.20417 0.73758 0.74657 0.0
C92 C 0.28757 0.7648 0.81492 0.0
C93 C 0.29681 0.76187 0.8485 0.0
C94 C 0.26411 0.74867 0.80264 0.0
C95 C 0.24851 0.73081 0.82478 0.0
C96 C 0.2571 0.72768 0.85843 0.0
C97 C 0.28109 0.74343 0.87008 0.0
C98 C 0.26007 0.7453 0.76515 0.0
C99 C 0.23988 0.76726 0.74958 0.0
C100 C 0.25045 0.79462 0.74005 0.0
C101 C 0.23482 0.81227 0.71766 0.0
C102 C 0.20807 0.80229 0.70569 0.0
C103 C 0.19635 0.77567 0.71613 0.0
C104 C 0.21229 0.75856 0.73882 0.0
H105 H 0.3032 0.23997 0.78515 0.0
H106 H 0.23827 0.30607 0.78246 0.0
H107 H 0.31463 0.31807 0.84194 0.0
H108 H 0.25254 0.22719 0.78026 0.0
H109 H 0.22543 0.25408 0.78148 0.0
H110 H 0.27712 0.21565 0.72696 0.0
H111 H 0.21559 0.22052 0.64604 0.0
H112 H 0.21039 0.27883 0.7301 0.0
C113 C 0.29623 0.26157 0.79197 0.0
C114 C 0.31337 0.27868 0.81335 0.0
C115 C 0.26874 0.271 0.78179 0.0
C116 C 0.25947 0.29901 0.79045 0.0
C117 C 0.27619 0.31663 0.81175 0.0
C118 C 0.30293 0.30601 0.82309 0.0
C119 C 0.24684 0.24895 0.77013 0.0
C120 C 0.24339 0.24667 0.73244 0.0
C121 C 0.25878 0.22547 0.71467 0.0
C122 C 0.24941 0.21583 0.68285 0.0
C123 C 0.22478 0.22927 0.66873 0.0
C124 C 0.21071 0.25272 0.68472 0.0
C125 C 0.22084 0.26149 0.7165 0.0
H126 H 0.70848 0.22866 0.79517 0.0
H127 H 0.7657 0.30185 0.79628 0.0
H128 H 0.7138 0.28311 0.8829 0.0
H129 H 0.72187 0.25835 0.74222 0.0
H130 H 0.75179 0.28224 0.74404 0.0
H131 H 0.7287 0.20551 0.74461 0.0
H132 H 0.80875 0.17829 0.69945 0.0
H133 H 0.80121 0.26375 0.73989 0.0
C134 C 0.71801 0.24658 0.80867 0.0
C135 C 0.70891 0.2529 0.8418 0.0
C136 C 0.73847 0.2642 0.79208 0.0
C137 C 0.75068 0.2877 0.8093 0.0
C138 C 0.74182 0.29456 0.84207 0.0
C139 C 0.72111 0.27705 0.85804 0.0
C140 C 0.74319 0.26159 0.75453 0.0
C141 C 0.76295 0.23698 0.74446 0.0
C142 C 0.75114 0.20941 0.73841 0.0
C143 C 0.76735 0.18785 0.72198 0.0
C144 C 0.7963 0.1938 0.71384 0.0
C145 C 0.80893 0.22067 0.72088 0.0
C146 C 0.79208 0.2424 0.736 0.0
H147 H 0.7666 0.67894 0.75348 0.0
H148 H 0.6928 0.73517 0.75765 0.0
H149 H 0.72713 0.69984 0.84878 0.0
H150 H 0.73157 0.68251 0.70593 0.0
H151 H 0.70312 0.70825 0.7071 0.0
H152 H 0.78042 0.69665 0.68997 0.0
H153 H 0.78595 0.77345 0.62901 0.0
H154 H 0.71212 0.75958 0.69301 0.0
C155 C 0.75081 0.69061 0.76832 0.0
C156 C 0.75032 0.68759 0.80368 0.0
C157 C 0.72996 0.70751 0.75156 0.0
C158 C 0.70936 0.72279 0.77048 0.0
C159 C 0.70841 0.72011 0.80559 0.0
C160 C 0.72886 0.70257 0.82184 0.0
C161 C 0.7262 0.70498 0.71391 0.0
C162 C 0.74452 0.72606 0.69402 0.0
C163 C 0.77171 0.71734 0.68205 0.0
C164 C 0.78697 0.73438 0.65869 0.0
C165 C 0.77501 0.76094 0.64828 0.0
C166 C 0.74813 0.77053 0.66058 0.0
C167 C 0.73313 0.75293 0.68377 0.0
C168 C 0.96714 0.24887 0.56262 0.0
C169 C 0.03152 0.25805 0.46514 0.0
O170 O 0.97096 0.27529 0.55367 0.0
Zn171 Zn 0.99598 0.29858 0.51677 0.0
O172 O 0.98003 0.22876 0.54677 0.0
Zn173 Zn 0.99948 0.25269 0.51378 0.0
O174 O 0.03209 0.27312 0.54319 0.0
O175 O 0.02304 0.32006 0.54492 0.0
O176 O 0.0225 0.23483 0.47887 0.0
O177 O 0.02333 0.28258 0.47692 0.0
O178 O 0.96656 0.31881 0.49106 0.0
O179 O 0.96456 0.27119 0.48561 0.0
C180 C 0.03865 0.29857 0.55329 0.0
C181 C 0.95458 0.29641 0.47884 0.0
C182 C 0.73697 0.03339 0.56395 0.0
C183 C 0.75869 0.97574 0.4643 0.0
O184 O 0.76187 0.02662 0.5529 0.0
Zn185 Zn 0.74909 0.00426 0.51476 0.0
O186 O 0.71435 0.02406 0.5489 0.0
Zn187 Zn 0.70382 0.99736 0.50667 0.0
O188 O 0.68529 0.96374 0.52764 0.0
O189 O 0.73188 0.96632 0.53845 0.0
O190 O 0.7317 0.97729 0.47109 0.0
O191 O 0.77691 0.98859 0.48294 0.0
O192 O 0.72848 0.03636 0.48434 0.0
O193 O 0.68282 0.02404 0.47716 0.0
C194 C 0.70763 0.95321 0.54171 0.0
C195 C 0.70366 0.04139 0.47147 0.0
C196 C 0.96694 0.7089 0.53101 0.0
C197 C 0.05406 0.71301 0.46013 0.0
O198 O 0.97744 0.73438 0.52715 0.0
Zn199 Zn 0.01266 0.7553 0.50243 0.0
O200 O 0.97923 0.68746 0.51682 0.0
Zn201 Zn 0.01027 0.70916 0.49513 0.0
O202 O 0.03541 0.72302 0.53723 0.0
O203 O 0.03457 0.77075 0.54006 0.0
O204 O 0.03966 0.69025 0.46706 0.0
O205 O 0.04579 0.7374 0.47198 0.0
O206 O 0.99378 0.78079 0.47047 0.0
O207 O 0.98696 0.73444 0.45915 0.0
C208 C 0.04312 0.74655 0.55176 0.0
C209 C 0.98259 0.76119 0.45221 0.0
C210 C 0.30287 0.04936 0.54286 0.0
C211 C 0.31089 0.96358 0.47091 0.0
O212 O 0.32593 0.03843 0.53097 0.0
Zn213 Zn 0.30801 0.00667 0.50676 0.0
O214 O 0.27846 0.03733 0.53698 0.0
Zn215 Zn 0.26261 0.99987 0.51091 0.0
O216 O 0.24706 0.97658 0.54712 0.0
O217 O 0.29468 0.97873 0.54717 0.0
O218 O 0.28521 0.96827 0.48161 0.0
O219 O 0.33116 0.98093 0.4786 0.0
O220 O 0.28244 0.02845 0.46964 0.0
O221 O 0.23682 0.01599 0.47769 0.0
C222 C 0.27107 0.96917 0.55998 0.0
C223 C 0.25583 0.02978 0.46102 0.0
C224 C 0.48717 0.76398 0.05829 0.0
C225 C 0.55334 0.77195 0.96367 0.0
O226 O 0.49 0.79038 0.04859 0.0
Zn227 Zn 0.51393 0.8135 1.00999 0.0
O228 O 0.50005 0.74384 0.04254 0.0
Zn229 Zn 0.51904 0.76784 1.01013 0.0
O230 O 0.54765 0.79106 0.04227 0.0
O231 O 0.53959 0.83796 0.03702 0.0
O232 O 0.54489 0.74939 0.9791 0.0
O233 O 0.54339 0.79679 0.97244 0.0
O234 O 0.48334 0.83096 0.98334 0.0
O235 O 0.48458 0.78326 0.97898 0.0
C236 C 0.55344 0.8172 0.05054 0.0
C237 C 0.47322 0.80766 0.97118 0.0
C238 C 0.26226 0.5317 0.07018 0.0
C239 C 0.24483 0.47449 0.96899 0.0
O240 O 0.28101 0.51891 0.05212 0.0
Zn241 Zn 0.25452 0.50332 0.01923 0.0
O242 O 0.23543 0.52993 0.0626 0.0
Zn243 Zn 0.20892 0.50944 0.02552 0.0
O244 O 0.18699 0.4818 0.05307 0.0
O245 O 0.23313 0.47067 0.04768 0.0
O246 O 0.22152 0.48346 0.98306 0.0
O247 O 0.26914 0.48154 0.98134 0.0
O248 O 0.23743 0.54129 0.99599 0.0
O249 O 0.19032 0.54275 1.00427 0.0
C250 C 0.20794 0.46471 0.05908 0.0
C251 C 0.21309 0.55402 0.9919 0.0
C252 C 0.54709 0.20964 0.98811 0.0
C253 C 0.46398 0.215 0.06484 0.0
O254 O 0.53729 0.23541 0.99174 0.0
Zn255 Zn 0.50341 0.2569 0.01901 0.0
O256 O 0.5356 0.18872 1.00412 0.0
Zn257 Zn 0.50663 0.2115 0.02789 0.0
O258 O 0.47882 0.22431 0.98709 0.0
O259 O 0.48009 0.27196 0.98259 0.0
O260 O 0.47948 0.19283 0.05885 0.0
O261 O 0.4708 0.23939 0.05157 0.0
O262 O 0.52389 0.2835 0.04796 0.0
O263 O 0.53226 0.23778 0.06081 0.0
C264 C 0.47064 0.24765 0.97236 0.0
C265 C 0.53671 0.26481 0.06605 0.0
C266 C 0.75966 0.55161 0.05184 0.0
C267 C 0.7735 0.47302 0.97129 0.0
O268 O 0.78645 0.54595 0.04685 0.0
Zn269 Zn 0.8116 0.51604 0.01762 0.0
O270 O 0.74056 0.53716 0.0363 0.0
Zn271 Zn 0.76592 0.51246 0.0108 0.0
O272 O 0.78368 0.48456 0.04792 0.0
O273 O 0.8305 0.49248 0.0526 0.0
O274 O 0.74967 0.48417 0.98067 0.0
O275 O 0.79735 0.48301 0.98291 0.0
O276 O 0.83367 0.54156 0.98776 0.0
O277 O 0.7869 0.54134 0.97671 0.0
C278 C 0.80798 0.47862 0.06156 0.0
C279 C 0.81243 0.5505 0.97037 0.0
H280 H 0.13987 0.18427 0.3353 0.0
H281 H 0.16346 0.2701 0.30023 0.0
H282 H 0.12628 0.29136 0.33796 0.0
H283 H 0.06288 0.19705 0.34532 0.0
H284 H 0.06058 0.17502 0.38269 0.0
H285 H 0.08721 0.16695 0.35095 0.0
H286 H 0.12769 0.17023 0.39567 0.0
H287 H 0.10125 0.17839 0.42751 0.0
H288 H 0.13115 0.20269 0.42047 0.0
H289 H 0.08864 0.30291 0.38291 0.0
H290 H 0.05348 0.30405 0.42965 0.0
H291 H 0.0559 0.21017 0.43539 0.0
C292 C 0.13725 0.20758 0.33545 0.0
C293 C 0.15477 0.22561 0.31508 0.0
C294 C 0.15021 0.25592 0.31555 0.0
C295 C 0.12924 0.26813 0.33698 0.0
C296 C 0.11294 0.24965 0.35745 0.0
C297 C 0.11666 0.22 0.35662 0.0
C298 C 0.09741 0.20478 0.38188 0.0
C299 C 0.07573 0.18477 0.36414 0.0
C300 C 0.11545 0.18805 0.40792 0.0
C301 C 0.08243 0.23052 0.39759 0.0
C302 C 0.09152 0.25622 0.38308 0.0
C303 C 0.08125 0.28289 0.39422 0.0
C304 C 0.06129 0.28329 0.42086 0.0
C305 C 0.05182 0.25718 0.43622 0.0
C306 C 0.06251 0.2305 0.42414 0.0
H307 H 0.75118 0.19431 0.3995 0.0
H308 H 0.72644 0.16194 0.30093 0.0
H309 H 0.70359 0.12003 0.32773 0.0
H310 H 0.77462 0.12581 0.42782 0.0
H311 H 0.76391 0.13181 0.47084 0.0
H312 H 0.77357 0.16205 0.44456 0.0
H313 H 0.72406 0.18588 0.45728 0.0
H314 H 0.71411 0.15547 0.48331 0.0
H315 H 0.69129 0.16614 0.4488 0.0
H316 H 0.68502 0.07955 0.36529 0.0
H317 H 0.67976 0.04133 0.40879 0.0
H318 H 0.72327 0.09638 0.48071 0.0
C319 C 0.74119 0.17858 0.38313 0.0
C320 C 0.74057 0.18242 0.34769 0.0
C321 C 0.72663 0.16082 0.32806 0.0
C322 C 0.71362 0.13651 0.3431 0.0
C323 C 0.7151 0.13344 0.37787 0.0
C324 C 0.72905 0.15365 0.39754 0.0
C325 C 0.73094 0.14357 0.43377 0.0
C326 C 0.76263 0.14063 0.44488 0.0
C327 C 0.71409 0.16399 0.45717 0.0
C328 C 0.7163 0.11429 0.43128 0.0
C329 C 0.70649 0.10919 0.39905 0.0
C330 C 0.69255 0.08337 0.39063 0.0
C331 C 0.68943 0.06188 0.4155 0.0
C332 C 0.70089 0.06609 0.44804 0.0
C333 C 0.71405 0.0928 0.45607 0.0
H334 H 0.84591 0.75246 0.33254 0.0
H335 H 0.88448 0.82124 0.27325 0.0
H336 H 0.92908 0.81762 0.30684 0.0
H337 H 0.8699 0.77375 0.40804 0.0
H338 H 0.87786 0.73861 0.4255 0.0
H339 H 0.85108 0.74211 0.39311 0.0
H340 H 0.87822 0.70509 0.35581 0.0
H341 H 0.90471 0.70068 0.38855 0.0
H342 H 0.916 0.71051 0.34666 0.0
H343 H 0.96435 0.81426 0.35452 0.0
H344 H 0.99254 0.80404 0.40612 0.0
H345 H 0.93303 0.73496 0.43183 0.0
C346 C 0.8643 0.76563 0.32544 0.0
C347 C 0.86177 0.78709 0.30024 0.0
C348 C 0.88603 0.80461 0.29242 0.0
C349 C 0.91139 0.80281 0.31146 0.0
C350 C 0.91244 0.78286 0.33773 0.0
C351 C 0.88994 0.76385 0.34399 0.0
C352 C 0.8958 0.74579 0.37511 0.0
C353 C 0.87226 0.75036 0.40201 0.0
C354 C 0.89888 0.7136 0.36598 0.0
C355 C 0.9244 0.75851 0.38612 0.0
C356 C 0.93359 0.77998 0.36434 0.0
C357 C 0.95786 0.7969 0.37122 0.0
C358 C 0.97353 0.79122 0.4007 0.0
C359 C 0.96503 0.76859 0.42257 0.0
C360 C 0.94022 0.75206 0.4151 0.0
H361 H 0.27404 0.80749 0.40207 0.0
H362 H 0.29911 0.8399 0.30333 0.0
H363 H 0.31983 0.88292 0.32975 0.0
H364 H 0.24658 0.87449 0.4278 0.0
H365 H 0.25644 0.86989 0.47129 0.0
H366 H 0.24927 0.83868 0.44567 0.0
H367 H 0.29974 0.818 0.46044 0.0
H368 H 0.30715 0.84937 0.48591 0.0
H369 H 0.33152 0.83952 0.45242 0.0
H370 H 0.335 0.92491 0.3666 0.0
H371 H 0.33644 0.9642 0.40904 0.0
H372 H 0.29433 0.90784 0.48118 0.0
C373 C 0.28372 0.82339 0.38556 0.0
C374 C 0.28491 0.81937 0.35021 0.0
C375 C 0.2985 0.84122 0.33043 0.0
C376 C 0.31028 0.86615 0.34524 0.0
C377 C 0.30795 0.86953 0.37991 0.0
C378 C 0.29454 0.84892 0.39971 0.0
C379 C 0.29105 0.85944 0.43556 0.0
C380 C 0.25894 0.86071 0.44565 0.0
C381 C 0.30841 0.84045 0.46002 0.0
C382 C 0.30403 0.88946 0.43265 0.0
C383 C 0.31453 0.89456 0.40062 0.0
C384 C 0.32698 0.92107 0.3918 0.0
C385 C 0.32789 0.94319 0.41604 0.0
C386 C 0.31572 0.93881 0.44827 0.0
C387 C 0.30407 0.9115 0.45675 0.0
H388 H 0.14932 0.80679 0.69281 0.0
H389 H 0.1833 0.71915 0.69946 0.0
H390 H 0.14352 0.70188 0.6642 0.0
H391 H 0.07148 0.78861 0.68531 0.0
H392 H 0.06555 0.8165 0.65433 0.0
H393 H 0.09282 0.82126 0.6861 0.0
H394 H 0.13117 0.83014 0.63966 0.0
H395 H 0.10414 0.82522 0.60779 0.0
H396 H 0.13635 0.80329 0.60736 0.0
H397 H 0.10415 0.69468 0.62279 0.0
H398 H 0.06866 0.69808 0.57716 0.0
H399 H 0.06279 0.79108 0.59221 0.0
C400 C 0.14834 0.78387 0.68731 0.0
C401 C 0.16968 0.76444 0.69941 0.0
C402 C 0.16708 0.73458 0.69157 0.0
C403 C 0.14458 0.7245 0.67119 0.0
C404 C 0.12486 0.74448 0.65852 0.0
C405 C 0.12649 0.77356 0.66624 0.0
C406 C 0.10478 0.79102 0.64609 0.0
C407 C 0.08232 0.80518 0.66935 0.0
C408 C 0.12003 0.81375 0.62391 0.0
C409 C 0.09129 0.76727 0.62507 0.0
C410 C 0.10281 0.74055 0.63322 0.0
C411 C 0.09475 0.71544 0.61643 0.0
C412 C 0.07456 0.71765 0.59043 0.0
C413 C 0.06286 0.74487 0.581 0.0
C414 C 0.0712 0.76996 0.59888 0.0
H415 H 0.24897 0.20058 0.61473 0.0
H416 H 0.28192 0.17128 0.71156 0.0
H417 H 0.30486 0.13021 0.68395 0.0
H418 H 0.22718 0.12985 0.59094 0.0
H419 H 0.23455 0.13529 0.54686 0.0
H420 H 0.22496 0.16564 0.57292 0.0
H421 H 0.27195 0.1919 0.55477 0.0
H422 H 0.28182 0.16144 0.52889 0.0
H423 H 0.3063 0.17425 0.56072 0.0
H424 H 0.32355 0.09073 0.64636 0.0
H425 H 0.32917 0.05219 0.60354 0.0
H426 H 0.27715 0.10202 0.53399 0.0
C427 C 0.26077 0.18572 0.63059 0.0
C428 C 0.26381 0.19044 0.66572 0.0
C429 C 0.27994 0.16979 0.68459 0.0
C430 C 0.29302 0.14586 0.66911 0.0
C431 C 0.2893 0.14201 0.63475 0.0
C432 C 0.27298 0.16099 0.61585 0.0
C433 C 0.26919 0.14989 0.58025 0.0
C434 C 0.23707 0.14486 0.57229 0.0
C435 C 0.28315 0.17061 0.55465 0.0
C436 C 0.28564 0.12153 0.5823 0.0
C437 C 0.29783 0.11785 0.6137 0.0
C438 C 0.31411 0.09337 0.62169 0.0
C439 C 0.31735 0.07171 0.59724 0.0
C440 C 0.30377 0.07441 0.56564 0.0
C441 C 0.28795 0.09971 0.55797 0.0
H442 H 0.82758 0.2645 0.6793 0.0
H443 H 0.85651 0.18746 0.73172 0.0
H444 H 0.90211 0.18834 0.69945 0.0
H445 H 0.85221 0.24559 0.60133 0.0
H446 H 0.8641 0.28098 0.58803 0.0
H447 H 0.83581 0.27762 0.61887 0.0
H448 H 0.86486 0.30902 0.66074 0.0
H449 H 0.89305 0.31305 0.62974 0.0
H450 H 0.90148 0.29913 0.67093 0.0
H451 H 0.94002 0.19224 0.65487 0.0
H452 H 0.97142 0.20318 0.60606 0.0
H453 H 0.91969 0.27917 0.58405 0.0
C454 C 0.8441 0.24865 0.68501 0.0
C455 C 0.83868 0.22605 0.70821 0.0
C456 C 0.86039 0.20505 0.71422 0.0
C457 C 0.88629 0.20533 0.69594 0.0
C458 C 0.89039 0.22699 0.672 0.0
C459 C 0.87024 0.2487 0.66702 0.0
C460 C 0.8792 0.26828 0.63812 0.0
C461 C 0.85648 0.26809 0.60994 0.0
C462 C 0.885 0.29921 0.65064 0.0
C463 C 0.90691 0.25358 0.62698 0.0
C464 C 0.91294 0.22976 0.64683 0.0
C465 C 0.93595 0.21125 0.63966 0.0
C466 C 0.95351 0.21747 0.61174 0.0
C467 C 0.94816 0.24215 0.59157 0.0
C468 C 0.92461 0.26046 0.59946 0.0
H469 H 0.77538 0.82197 0.64552 0.0
H470 H 0.69132 0.7804 0.64333 0.0
H471 H 0.6708 0.82367 0.61565 0.0
H472 H 0.7499 0.89596 0.65919 0.0
H473 H 0.77718 0.91138 0.63215 0.0
H474 H 0.78439 0.87825 0.6546 0.0
H475 H 0.79709 0.8528 0.59845 0.0
H476 H 0.78981 0.88579 0.57584 0.0
H477 H 0.77115 0.85292 0.56473 0.0
H478 H 0.66026 0.87077 0.58405 0.0
H479 H 0.66083 0.91726 0.55279 0.0
H480 H 0.7521 0.92671 0.5749 0.0
C481 C 0.75259 0.82196 0.63946 0.0
C482 C 0.73501 0.79767 0.64684 0.0
C483 C 0.70523 0.79882 0.63859 0.0
C484 C 0.69338 0.82328 0.6226 0.0
C485 C 0.71151 0.84653 0.61504 0.0
C486 C 0.74047 0.84608 0.62341 0.0
C487 C 0.75572 0.87318 0.61129 0.0
C488 C 0.76748 0.89073 0.64109 0.0
C489 C 0.77986 0.86571 0.58608 0.0
C490 C 0.73096 0.88879 0.59429 0.0
C491 C 0.70556 0.87325 0.59683 0.0
C492 C 0.68002 0.88319 0.58215 0.0
C493 C 0.68054 0.90962 0.56441 0.0
C494 C 0.70645 0.92576 0.56135 0.0
C495 C 0.73185 0.91507 0.57676 0.0
H496 H 0.83573 0.76546 0.64249 0.0
H497 H 0.79939 0.67888 0.63808 0.0
H498 H 0.84284 0.66181 0.60798 0.0
H499 H 0.86441 0.76544 0.56043 0.0
H500 H 0.89629 0.78582 0.5711 0.0
H501 H 0.86367 0.79042 0.5952 0.0
H502 H 0.89136 0.7777 0.64983 0.0
H503 H 0.92412 0.77313 0.62588 0.0
H504 H 0.91117 0.74415 0.65233 0.0
H505 H 0.8894 0.65499 0.57463 0.0
H506 H 0.93469 0.65935 0.54161 0.0
H507 H 0.93904 0.75065 0.56707 0.0
C508 C 0.83692 0.74285 0.6354 0.0
C509 C 0.81413 0.72352 0.64291 0.0
C510 C 0.81674 0.69405 0.63327 0.0
C511 C 0.8413 0.68416 0.61593 0.0
C512 C 0.86311 0.70395 0.60842 0.0
C513 C 0.86115 0.73267 0.61799 0.0
C514 C 0.88681 0.74993 0.60556 0.0
C515 C 0.87721 0.77433 0.58165 0.0
C516 C 0.90441 0.76192 0.63517 0.0
C517 C 0.90329 0.72658 0.58701 0.0
C518 C 0.88949 0.70013 0.58908 0.0
C519 C 0.90049 0.67559 0.57305 0.0
C520 C 0.9262 0.67825 0.55434 0.0
C521 C 0.94047 0.7053 0.55169 0.0
C522 C 0.92878 0.7296 0.56853 0.0
H523 H 0.20656 0.86189 0.69746 0.0
H524 H 0.29199 0.82305 0.70214 0.0
H525 H 0.31142 0.86341 0.66872 0.0
H526 H 0.2107 0.87738 0.61312 0.0
H527 H 0.19049 0.91072 0.61481 0.0
H528 H 0.18425 0.883 0.6458 0.0
H529 H 0.19513 0.91957 0.69347 0.0
H530 H 0.20116 0.94756 0.66259 0.0
H531 H 0.2287 0.93934 0.69308 0.0
H532 H 0.32057 0.90401 0.62857 0.0
H533 H 0.31858 0.94096 0.5839 0.0
H534 H 0.22631 0.95049 0.60029 0.0
C535 C 0.22948 0.86198 0.69199 0.0
C536 C 0.24764 0.8391 0.70278 0.0
C537 C 0.27756 0.84045 0.6951 0.0
C538 C 0.28884 0.86328 0.6758 0.0
C539 C 0.26999 0.88455 0.66416 0.0
C540 C 0.24092 0.88412 0.67199 0.0
C541 C 0.22458 0.90726 0.65278 0.0
C542 C 0.20114 0.89378 0.6303 0.0
C543 C 0.21163 0.92977 0.67693 0.0
C544 C 0.24886 0.92016 0.63205 0.0
C545 C 0.27497 0.90719 0.63959 0.0
C546 C 0.30032 0.91456 0.62274 0.0
C547 C 0.29893 0.93556 0.59733 0.0
C548 C 0.27227 0.94864 0.58856 0.0
C549 C 0.247 0.94096 0.60647 0.0
H550 H 0.19475 0.25585 0.61727 0.0
H551 H 0.16472 0.27986 0.71727 0.0
H552 H 0.12147 0.30131 0.69255 0.0
H553 H 0.16296 0.31481 0.5692 0.0
H554 H 0.15189 0.29143 0.53535 0.0
H555 H 0.18343 0.2826 0.55978 0.0
H556 H 0.16182 0.23222 0.57387 0.0
H557 H 0.13044 0.24077 0.54921 0.0
H558 H 0.12635 0.23001 0.59254 0.0
H559 H 0.07956 0.31851 0.65733 0.0
H560 H 0.03978 0.3224 0.61589 0.0
H561 H 0.0934 0.2803 0.54118 0.0
C562 C 0.17929 0.26546 0.63433 0.0
C563 C 0.18422 0.26642 0.66952 0.0
C564 C 0.16283 0.27964 0.69021 0.0
C565 C 0.13775 0.29181 0.6764 0.0
C566 C 0.13368 0.29016 0.64183 0.0
C567 C 0.15359 0.27675 0.62117 0.0
C568 C 0.14236 0.27436 0.58553 0.0
C569 C 0.16129 0.29185 0.56102 0.0
C570 C 0.1401 0.24245 0.57467 0.0
C571 C 0.11281 0.28805 0.58957 0.0
C572 C 0.10855 0.29788 0.62199 0.0
C573 C 0.0827 0.31099 0.63184 0.0
C574 C 0.06032 0.3133 0.60817 0.0
C575 C 0.06379 0.30188 0.57549 0.0
C576 C 0.09047 0.28949 0.566 0.0
H577 H 0.79207 0.13407 0.71144 0.0
H578 H 0.71138 0.18115 0.69946 0.0
H579 H 0.69218 0.14123 0.66582 0.0
H580 H 0.7973 0.11762 0.62879 0.0
H581 H 0.81384 0.08253 0.63379 0.0
H582 H 0.81854 0.10969 0.6656 0.0
H583 H 0.79808 0.07473 0.71077 0.0
H584 H 0.79363 0.0472 0.67911 0.0
H585 H 0.76326 0.05814 0.70452 0.0
H586 H 0.68441 0.10104 0.62555 0.0
H587 H 0.68923 0.06471 0.58064 0.0
H588 H 0.77724 0.04721 0.61205 0.0
C589 C 0.77015 0.13593 0.70234 0.0
C590 C 0.75342 0.1611 0.7084 0.0
C591 C 0.72466 0.16208 0.69619 0.0
C592 C 0.71352 0.13946 0.67668 0.0
C593 C 0.73138 0.11605 0.66926 0.0
C594 C 0.75912 0.1141 0.68175 0.0
C595 C 0.77562 0.08942 0.6655 0.0
C596 C 0.80292 0.10049 0.64734 0.0
C597 C 0.78308 0.06598 0.69153 0.0
C598 C 0.75326 0.07868 0.6408 0.0
C599 C 0.7276 0.09374 0.64418 0.0
C600 C 0.70423 0.0888 0.62301 0.0
C601 C 0.70723 0.06816 0.59751 0.0
C602 C 0.73364 0.05316 0.59285 0.0
C603 C 0.75679 0.0583 0.61508 0.0
H604 H 0.80462 0.24858 0.40112 0.0
H605 H 0.83994 0.27515 0.30426 0.0
H606 H 0.88075 0.29769 0.33298 0.0
H607 H 0.83107 0.30779 0.45258 0.0
H608 H 0.84079 0.28432 0.487 0.0
H609 H 0.81125 0.27473 0.45977 0.0
H610 H 0.83555 0.22537 0.44698 0.0
H611 H 0.86491 0.23469 0.47442 0.0
H612 H 0.87216 0.22471 0.43143 0.0
H613 H 0.91958 0.31574 0.37192 0.0
H614 H 0.95636 0.32065 0.41675 0.0
H615 H 0.89992 0.27553 0.48625 0.0
C616 C 0.82078 0.25892 0.38554 0.0
C617 C 0.81808 0.26022 0.35002 0.0
C618 C 0.84019 0.27453 0.33141 0.0
C619 C 0.86387 0.28734 0.34754 0.0
C620 C 0.86581 0.28526 0.38236 0.0
C621 C 0.84514 0.27086 0.40106 0.0
C622 C 0.85413 0.26835 0.43758 0.0
C623 C 0.83305 0.28478 0.46058 0.0
C624 C 0.85686 0.23639 0.44821 0.0
C625 C 0.88332 0.28315 0.43633 0.0
C626 C 0.88926 0.29357 0.40445 0.0
C627 C 0.91511 0.30778 0.397 0.0
C628 C 0.93577 0.31066 0.42258 0.0
C629 C 0.93064 0.29878 0.4548 0.0
C630 C 0.90402 0.28516 0.46185 0.0
H631 H 0.75207 0.84609 0.3346 0.0
H632 H 0.8234 0.8861 0.28101 0.0
H633 H 0.82021 0.92867 0.31831 0.0
H634 H 0.71191 0.9162 0.35256 0.0
H635 H 0.70042 0.90266 0.39296 0.0
H636 H 0.70528 0.87803 0.3583 0.0
H637 H 0.74022 0.84764 0.39488 0.0
H638 H 0.73633 0.87259 0.42923 0.0
H639 H 0.77172 0.86468 0.41263 0.0
H640 H 0.81584 0.96165 0.36866 0.0
H641 H 0.80388 0.98744 0.42159 0.0
H642 H 0.73354 0.92732 0.43947 0.0
C643 C 0.76603 0.8644 0.32952 0.0
C644 C 0.78804 0.86272 0.30496 0.0
C645 C 0.80646 0.88689 0.29982 0.0
C646 C 0.80486 0.91113 0.32093 0.0
C647 C 0.78424 0.91118 0.34646 0.0
C648 C 0.76448 0.8889 0.35008 0.0
C649 C 0.74561 0.89332 0.38076 0.0
C650 C 0.71393 0.89784 0.37053 0.0
C651 C 0.74868 0.86806 0.40583 0.0
C652 C 0.75863 0.92087 0.39456 0.0
C653 C 0.78096 0.93084 0.37458 0.0
C654 C 0.79787 0.9545 0.38403 0.0
C655 C 0.79121 0.96878 0.41425 0.0
C656 C 0.76771 0.95944 0.43428 0.0
C657 C 0.75136 0.93516 0.42427 0.0
H658 H 0.18812 0.78523 0.36758 0.0
H659 H 0.21642 0.69967 0.33696 0.0
H660 H 0.17345 0.67817 0.36474 0.0
H661 H 0.16228 0.76502 0.44898 0.0
H662 H 0.13225 0.78985 0.44779 0.0
H663 H 0.16477 0.79796 0.42474 0.0
H664 H 0.13499 0.80302 0.36991 0.0
H665 H 0.10238 0.79482 0.39279 0.0
H666 H 0.11225 0.7735 0.35663 0.0
H667 H 0.12685 0.6663 0.39771 0.0
H668 H 0.08191 0.66565 0.43198 0.0
H669 H 0.08616 0.7593 0.44023 0.0
C670 C 0.18552 0.76193 0.36695 0.0
C671 C 0.20578 0.74412 0.35032 0.0
C672 C 0.2011 0.71377 0.34945 0.0
C673 C 0.17682 0.70136 0.36525 0.0
C674 C 0.15737 0.71963 0.38167 0.0
C675 C 0.16155 0.74928 0.3825 0.0
C676 C 0.13782 0.76436 0.4018 0.0
C677 C 0.15001 0.78022 0.43266 0.0
C678 C 0.12086 0.78514 0.37891 0.0
C679 C 0.11966 0.7386 0.41202 0.0
C680 C 0.13106 0.71291 0.40021 0.0
C681 C 0.11775 0.68635 0.407 0.0
C682 C 0.09224 0.68615 0.42645 0.0
C683 C 0.08045 0.71236 0.43887 0.0
C684 C 0.09448 0.73879 0.43126 0.0
H685 H 0.25107 0.16859 0.34277 0.0
H686 H 0.19928 0.11854 0.27347 0.0
H687 H 0.20622 0.07488 0.30873 0.0
H688 H 0.30272 0.10794 0.3649 0.0
H689 H 0.30507 0.12014 0.40782 0.0
H690 H 0.29942 0.14596 0.37444 0.0
H691 H 0.25373 0.1646 0.40525 0.0
H692 H 0.25868 0.13837 0.43822 0.0
H693 H 0.22512 0.13954 0.41539 0.0
H694 H 0.21077 0.03988 0.35702 0.0
H695 H 0.22094 0.01285 0.40961 0.0
H696 H 0.27314 0.08437 0.44513 0.0
C697 C 0.24237 0.14807 0.33435 0.0
C698 C 0.2251 0.14658 0.30525 0.0
C699 C 0.21316 0.11976 0.29531 0.0
C700 C 0.21675 0.095 0.31534 0.0
C701 C 0.23281 0.09743 0.3448 0.0
C702 C 0.24623 0.12305 0.35373 0.0
C703 C 0.26121 0.12028 0.38738 0.0
C704 C 0.29406 0.12377 0.38338 0.0
C705 C 0.24894 0.14198 0.41306 0.0
C706 C 0.25323 0.08947 0.39654 0.0
C707 C 0.2366 0.07673 0.37183 0.0
C708 C 0.22441 0.04932 0.37613 0.0
C709 C 0.22999 0.03429 0.40613 0.0
C710 C 0.24794 0.04657 0.431 0.0
C711 C 0.25968 0.07444 0.42612 0.0
H712 H 0.67516 0.69448 0.85417 0.0
H713 H 0.68758 0.77569 0.80107 0.0
H714 H 0.64824 0.7978 0.83474 0.0
H715 H 0.59769 0.69864 0.86073 0.0
H716 H 0.59665 0.68265 0.90208 0.0
H717 H 0.62531 0.67337 0.87335 0.0
H718 H 0.6633 0.68895 0.91753 0.0
H719 H 0.63478 0.69821 0.94642 0.0
H720 H 0.66158 0.72485 0.93517 0.0
H721 H 0.60859 0.81127 0.87608 0.0
H722 H 0.57123 0.81474 0.9204 0.0
H723 H 0.58497 0.72424 0.94554 0.0
C724 C 0.66976 0.71699 0.84976 0.0
C725 C 0.68457 0.73349 0.82522 0.0
C726 C 0.67643 0.76268 0.8197 0.0
C727 C 0.6542 0.7754 0.83875 0.0
C728 C 0.64024 0.75854 0.86298 0.0
C729 C 0.64764 0.72992 0.86837 0.0
C730 C 0.62946 0.71643 0.89591 0.0
C731 C 0.61119 0.69129 0.88218 0.0
C732 C 0.64841 0.70654 0.9255 0.0
C733 C 0.61076 0.742 0.90548 0.0
C734 C 0.61727 0.76611 0.88624 0.0
C735 C 0.60323 0.79247 0.89114 0.0
C736 C 0.58206 0.79423 0.91641 0.0
C737 C 0.57507 0.76974 0.93639 0.0
C738 C 0.58961 0.74331 0.93057 0.0
H739 H 0.28482 0.68731 0.89677 0.0
H740 H 0.19927 0.71567 0.86728 0.0
H741 H 0.17775 0.6753 0.90011 0.0
H742 H 0.27149 0.61266 0.89013 0.0
H743 H 0.29359 0.60286 0.92561 0.0
H744 H 0.30171 0.63507 0.90187 0.0
H745 H 0.29865 0.66587 0.95621 0.0
H746 H 0.29069 0.63369 0.98019 0.0
H747 H 0.26649 0.66424 0.98181 0.0
H748 H 0.16606 0.63009 0.93557 0.0
H749 H 0.16566 0.58435 0.96847 0.0
H750 H 0.25928 0.58666 0.97284 0.0
C751 C 0.26151 0.68551 0.89782 0.0
C752 C 0.24369 0.7049 0.87989 0.0
C753 C 0.21331 0.7011 0.88099 0.0
C754 C 0.20093 0.6783 0.89962 0.0
C755 C 0.21923 0.65943 0.91686 0.0
C756 C 0.2489 0.66289 0.91603 0.0
C757 C 0.26408 0.63908 0.93516 0.0
C758 C 0.28387 0.62138 0.91179 0.0
C759 C 0.28097 0.65147 0.96512 0.0
C760 C 0.23841 0.62146 0.94677 0.0
C761 C 0.21265 0.63351 0.93629 0.0
C762 C 0.18615 0.62056 0.94395 0.0
C763 C 0.1861 0.5946 0.96264 0.0
C764 C 0.2124 0.58182 0.97314 0.0
C765 C 0.23875 0.5957 0.96512 0.0
H766 H 0.36236 0.3082 0.83347 0.0
H767 H 0.32397 0.22223 0.83271 0.0
H768 H 0.36382 0.20421 0.86744 0.0
H769 H 0.43932 0.28627 0.83866 0.0
H770 H 0.44769 0.31488 0.86782 0.0
H771 H 0.41962 0.31992 0.83704 0.0
H772 H 0.38337 0.33239 0.88459 0.0
H773 H 0.41119 0.32719 0.9155 0.0
H774 H 0.37795 0.307 0.91851 0.0
H775 H 0.40416 0.19643 0.90768 0.0
H776 H 0.44157 0.19962 0.95132 0.0
H777 H 0.45142 0.29154 0.93076 0.0
C778 C 0.36241 0.28546 0.84014 0.0
C779 C 0.33985 0.26673 0.82982 0.0
C780 C 0.34115 0.23708 0.83919 0.0
C781 C 0.36368 0.22658 0.8593 0.0
C782 C 0.38473 0.24595 0.87015 0.0
C783 C 0.38432 0.27478 0.8609 0.0
C784 C 0.40754 0.29177 0.87913 0.0
C785 C 0.42987 0.30392 0.85417 0.0
C786 C 0.39421 0.31601 0.90071 0.0
C787 C 0.42051 0.26811 0.9008 0.0
C788 C 0.40738 0.24176 0.89468 0.0
C789 C 0.41481 0.21687 0.91244 0.0
C790 C 0.43609 0.21896 0.93726 0.0
C791 C 0.4495 0.24585 0.94453 0.0
C792 C 0.44169 0.27067 0.92576 0.0
H793 H 0.71003 0.33455 0.87724 0.0
H794 H 0.79736 0.31528 0.84422 0.0
H795 H 0.81468 0.36 0.87181 0.0
H796 H 0.71376 0.4118 0.86714 0.0
H797 H 0.69252 0.41926 0.90417 0.0
H798 H 0.68697 0.38613 0.88122 0.0
H799 H 0.69618 0.35631 0.93543 0.0
H800 H 0.70158 0.38934 0.95857 0.0
H801 H 0.72917 0.3618 0.95855 0.0
H802 H 0.82253 0.40598 0.90445 0.0
H803 H 0.8206 0.44978 0.93978 0.0
H804 H 0.72797 0.43879 0.95156 0.0
C805 C 0.73286 0.33955 0.87604 0.0
C806 C 0.7524 0.32132 0.85872 0.0
C807 C 0.78199 0.32902 0.85717 0.0
C808 C 0.79202 0.3543 0.87283 0.0
C809 C 0.77215 0.37168 0.88981 0.0
C810 C 0.7432 0.36463 0.8915 0.0
C811 C 0.72634 0.38675 0.91166 0.0
C812 C 0.70356 0.40188 0.88973 0.0
C813 C 0.71251 0.37271 0.9429 0.0
C814 C 0.75038 0.40733 0.92124 0.0
C815 C 0.77662 0.39826 0.90836 0.0
C816 C 0.80208 0.41336 0.91454 0.0
C817 C 0.80074 0.43821 0.93467 0.0
C818 C 0.77411 0.44781 0.94836 0.0
C819 C 0.7486 0.43221 0.94121 0.0
H820 H 0.67547 0.24961 0.18215 0.0
H821 H 0.66051 0.33788 0.21499 0.0
H822 H 0.61444 0.33866 0.18378 0.0
H823 H 0.65172 0.25828 0.10138 0.0
H824 H 0.6345 0.22344 0.09741 0.0
H825 H 0.66402 0.22801 0.12621 0.0
H826 H 0.63226 0.20938 0.17542 0.0
H827 H 0.60272 0.20419 0.14663 0.0
H828 H 0.59782 0.22623 0.18357 0.0
H829 H 0.57406 0.33233 0.14205 0.0
H830 H 0.53966 0.31744 0.09779 0.0
H831 H 0.58 0.23269 0.09415 0.0
C832 C 0.66194 0.26868 0.18398 0.0
C833 C 0.67153 0.29364 0.2012 0.0
C834 C 0.65359 0.31851 0.20196 0.0
C835 C 0.62739 0.31916 0.18432 0.0
C836 C 0.61922 0.29462 0.16634 0.0
C837 C 0.63569 0.26963 0.1666 0.0
C838 C 0.62309 0.2469 0.14345 0.0
C839 C 0.64462 0.23869 0.11547 0.0
C840 C 0.61339 0.22009 0.16347 0.0
C841 C 0.59745 0.26327 0.12943 0.0
C842 C 0.59556 0.29077 0.14293 0.0
C843 C 0.57495 0.31064 0.13185 0.0
C844 C 0.55564 0.30207 0.10656 0.0
C845 C 0.55696 0.27384 0.09281 0.0
C846 C 0.5781 0.25425 0.10462 0.0
H847 H 0.78214 0.69424 0.1631 0.0
H848 H 0.69002 0.69174 0.18268 0.0
H849 H 0.68631 0.64537 0.15228 0.0
H850 H 0.77849 0.66816 0.08041 0.0
H851 H 0.81087 0.64655 0.08227 0.0
H852 H 0.80721 0.67791 0.10876 0.0
H853 H 0.81652 0.64632 0.16153 0.0
H854 H 0.82049 0.61487 0.13515 0.0
H855 H 0.79452 0.61473 0.16898 0.0
H856 H 0.69144 0.6022 0.11551 0.0
H857 H 0.70566 0.56316 0.07655 0.0
H858 H 0.79461 0.59281 0.08055 0.0
C859 C 0.76142 0.68345 0.16161 0.0
C860 C 0.73637 0.69635 0.17526 0.0
C861 C 0.70942 0.68206 0.17235 0.0
C862 C 0.70711 0.65575 0.15518 0.0
C863 C 0.73198 0.64392 0.14113 0.0
C864 C 0.75869 0.65708 0.14434 0.0
C865 C 0.78164 0.64045 0.12511 0.0
C866 C 0.79535 0.6594 0.09751 0.0
C867 C 0.80465 0.62837 0.14913 0.0
C868 C 0.76351 0.61634 0.11015 0.0
C869 C 0.73496 0.61872 0.11985 0.0
C870 C 0.71381 0.59984 0.10805 0.0
C871 C 0.72207 0.57782 0.08579 0.0
C872 C 0.75124 0.57481 0.07559 0.0
C873 C 0.77218 0.59433 0.08814 0.0
H874 H 0.35168 0.76814 0.18064 0.0
H875 H 0.39339 0.70035 0.23836 0.0
H876 H 0.43778 0.70659 0.20465 0.0
H877 H 0.37641 0.74847 0.10469 0.0
H878 H 0.38257 0.78408 0.08746 0.0
H879 H 0.35612 0.77905 0.1201 0.0
H880 H 0.38159 0.81716 0.15736 0.0
H881 H 0.40779 0.823 0.12443 0.0
H882 H 0.41959 0.81349 0.16616 0.0
H883 H 0.47277 0.71243 0.15762 0.0
H884 H 0.49982 0.72331 0.10545 0.0
H885 H 0.43715 0.7895 0.07987 0.0
C886 C 0.37065 0.75569 0.1873 0.0
C887 C 0.36921 0.73385 0.21218 0.0
C888 C 0.39415 0.71723 0.21943 0.0
C889 C 0.41941 0.72061 0.2004 0.0
C890 C 0.41955 0.74107 0.17464 0.0
C891 C 0.39614 0.75895 0.16864 0.0
C892 C 0.40102 0.77745 0.13761 0.0
C893 C 0.37764 0.77191 0.11091 0.0
C894 C 0.4026 0.80969 0.14696 0.0
C895 C 0.43017 0.76618 0.12625 0.0
C896 C 0.44046 0.74522 0.14799 0.0
C897 C 0.46539 0.7294 0.14092 0.0
C898 C 0.48041 0.73547 0.11111 0.0
C899 C 0.47061 0.75736 0.08898 0.0
C900 C 0.44532 0.77304 0.09679 0.0
H901 H 0.257 0.30939 0.12058 0.0
H902 H 0.19453 0.31495 0.20195 0.0
H903 H 0.17743 0.36189 0.17922 0.0
H904 H 0.27664 0.38427 0.12137 0.0
H905 H 0.28159 0.3858 0.07645 0.0
H906 H 0.28738 0.35229 0.0986 0.0
H907 H 0.25045 0.32689 0.05963 0.0
H908 H 0.24425 0.36042 0.03762 0.0
H909 H 0.21433 0.34117 0.05623 0.0
H910 H 0.16737 0.40921 0.14622 0.0
H911 H 0.16853 0.453 0.10969 0.0
H912 H 0.23974 0.41584 0.05343 0.0
C913 C 0.24005 0.32053 0.1342 0.0
C914 C 0.22732 0.30835 0.16331 0.0
C915 C 0.20455 0.32358 0.17945 0.0
C916 C 0.19473 0.35033 0.16675 0.0
C917 C 0.20792 0.36161 0.13798 0.0
C918 C 0.2303 0.34718 0.12221 0.0
C919 C 0.24179 0.36399 0.09245 0.0
C920 C 0.27373 0.37207 0.09754 0.0
C921 C 0.23743 0.34711 0.05954 0.0
C922 C 0.22253 0.39035 0.0939 0.0
C923 C 0.20281 0.38862 0.11997 0.0
C924 C 0.1828 0.41074 0.12581 0.0
C925 C 0.18347 0.43543 0.10489 0.0
C926 C 0.2043 0.43782 0.07891 0.0
C927 C 0.22368 0.41474 0.07326 0.0
H928 H 0.30754 0.26422 0.12342 0.0
H929 H 0.31061 0.19927 0.20253 0.0
H930 H 0.35871 0.18381 0.1821 0.0
H931 H 0.34304 0.22467 0.05968 0.0
H932 H 0.36263 0.2555 0.04366 0.0
H933 H 0.32819 0.26058 0.06393 0.0
H934 H 0.35132 0.29648 0.10601 0.0
H935 H 0.3858 0.29173 0.08571 0.0
H936 H 0.38223 0.28525 0.13023 0.0
H937 H 0.40691 0.17478 0.1509 0.0
H938 H 0.45112 0.17593 0.11534 0.0
H939 H 0.41677 0.24982 0.06121 0.0
C940 C 0.31833 0.24714 0.13717 0.0
C941 C 0.30497 0.23317 0.16489 0.0
C942 C 0.31997 0.21022 0.18103 0.0
C943 C 0.34744 0.20135 0.16969 0.0
C944 C 0.35987 0.2158 0.14239 0.0
C945 C 0.3458 0.23844 0.12669 0.0
C946 C 0.36379 0.25114 0.09849 0.0
C947 C 0.3485 0.24775 0.06444 0.0
C948 C 0.37123 0.28303 0.10555 0.0
C949 C 0.39027 0.23208 0.10059 0.0
C950 C 0.38762 0.21154 0.12574 0.0
C951 C 0.40924 0.19098 0.13138 0.0
C952 C 0.43421 0.1917 0.11103 0.0
C953 C 0.4375 0.21313 0.08578 0.0
C954 C 0.41511 0.23343 0.08063 0.0
H955 H 0.74196 0.33767 0.14288 0.0
H956 H 0.79526 0.35105 0.23088 0.0
H957 H 0.82065 0.39126 0.2013 0.0
H958 H 0.79622 0.35536 0.07921 0.0
H959 H 0.76998 0.37298 0.05275 0.0
H960 H 0.75913 0.34348 0.07967 0.0
H961 H 0.71991 0.37614 0.10679 0.0
H962 H 0.73061 0.40564 0.07999 0.0
H963 H 0.73028 0.41033 0.12496 0.0
H964 H 0.8374 0.43329 0.16172 0.0
H965 H 0.84187 0.47223 0.11855 0.0
H966 H 0.77547 0.4304 0.05943 0.0
C967 C 0.75905 0.34894 0.15602 0.0
C968 C 0.7664 0.3415 0.18935 0.0
C969 C 0.7893 0.35642 0.20531 0.0
C970 C 0.80379 0.37926 0.18868 0.0
C971 C 0.79527 0.3866 0.15604 0.0
C972 C 0.77343 0.37162 0.14 0.0
C973 C 0.7666 0.38443 0.10602 0.0
C974 C 0.7734 0.36277 0.07775 0.0
C975 C 0.73499 0.39475 0.10437 0.0
C976 C 0.78739 0.40957 0.10556 0.0
C977 C 0.80423 0.41043 0.13419 0.0
C978 C 0.8244 0.43259 0.13917 0.0
C979 C 0.8269 0.45456 0.11456 0.0
C980 C 0.80891 0.45433 0.08584 0.0
C981 C 0.7894 0.43123 0.08125 0.0
H982 H 0.65797 0.75786 0.18899 0.0
H983 H 0.71642 0.82827 0.16598 0.0
H984 H 0.6777 0.85255 0.1331 0.0
H985 H 0.63133 0.75116 0.11119 0.0
H986 H 0.59491 0.74183 0.12315 0.0
H987 H 0.62422 0.73418 0.15121 0.0
H988 H 0.59922 0.76381 0.19832 0.0
H989 H 0.5695 0.7713 0.17044 0.0
H990 H 0.5885 0.80071 0.1903 0.0
H991 H 0.63439 0.86451 0.09492 0.0
H992 H 0.59265 0.86216 0.05577 0.0
H993 H 0.5649 0.7823 0.10314 0.0
C994 C 0.66216 0.77901 0.17817 0.0
C995 C 0.68984 0.79152 0.18028 0.0
C996 C 0.69506 0.81874 0.16512 0.0
C997 C 0.67322 0.83255 0.14634 0.0
C998 C 0.64639 0.81884 0.14333 0.0
C999 C 0.64083 0.79274 0.15928 0.0
C1000 C 0.61212 0.78017 0.14882 0.0
C1001 C 0.6159 0.75008 0.13263 0.0
C1002 C 0.59109 0.77894 0.17876 0.0
C1003 C 0.60277 0.80252 0.12336 0.0
C1004 C 0.62231 0.82509 0.12091 0.0
C1005 C 0.61877 0.84717 0.09713 0.0
C1006 C 0.59504 0.84573 0.07502 0.0
C1007 C 0.57569 0.82203 0.07649 0.0
C1008 C 0.57938 0.80069 0.1015 0.0
H1009 H 0.25883 0.6697 0.18803 0.0
H1010 H 0.33406 0.635 0.2388 0.0
H1011 H 0.32905 0.58939 0.20705 0.0
H1012 H 0.21859 0.59813 0.18164 0.0
H1013 H 0.20455 0.60798 0.14097 0.0
H1014 H 0.21113 0.63557 0.17204 0.0
H1015 H 0.24349 0.66286 0.12926 0.0
H1016 H 0.23771 0.6351 0.09839 0.0
H1017 H 0.27396 0.64447 0.11071 0.0
H1018 H 0.322 0.55232 0.16163 0.0
H1019 H 0.3083 0.52285 0.11213 0.0
H1020 H 0.23584 0.58017 0.09379 0.0
C1021 C 0.27338 0.65201 0.19372 0.0
C1022 C 0.29684 0.65591 0.21588 0.0
C1023 C 0.31598 0.63249 0.22182 0.0
C1024 C 0.31332 0.60651 0.20391 0.0
C1025 C 0.29101 0.60404 0.18068 0.0
C1026 C 0.27083 0.62582 0.17627 0.0
C1027 C 0.2502 0.61862 0.14801 0.0
C1028 C 0.21928 0.61484 0.16148 0.0
C1029 C 0.25144 0.64163 0.11996 0.0
C1030 C 0.26268 0.59005 0.13632 0.0
C1031 C 0.28624 0.58198 0.15542 0.0
C1032 C 0.30308 0.55795 0.1471 0.0
C1033 C 0.29535 0.54151 0.11883 0.0
C1034 C 0.27085 0.54907 0.09956 0.0
C1035 C 0.25431 0.57355 0.1086 0.0
H1036 H 0.31146 0.78213 0.91189 0.0
H1037 H 0.3466 0.76967 0.8115 0.0
H1038 H 0.3939 0.78645 0.83105 0.0
H1039 H 0.35632 0.84491 0.93602 0.0
H1040 H 0.36095 0.83196 0.97844 0.0
H1041 H 0.32847 0.8234 0.95563 0.0
H1042 H 0.33728 0.7687 0.96609 0.0
H1043 H 0.3697 0.7771 0.98891 0.0
H1044 H 0.37119 0.75281 0.95353 0.0
H1045 H 0.43882 0.79911 0.86223 0.0
H1046 H 0.47813 0.80587 0.90359 0.0
H1047 H 0.41525 0.80808 0.9843 0.0
C1048 C 0.32894 0.78319 0.89383 0.0
C1049 C 0.32478 0.77488 0.85987 0.0
C1050 C 0.34856 0.7767 0.83732 0.0
C1051 C 0.37577 0.78603 0.84827 0.0
C1052 C 0.37916 0.79341 0.88193 0.0
C1053 C 0.35642 0.79209 0.90444 0.0
C1054 C 0.3665 0.79864 0.9399 0.0
C1055 C 0.35221 0.82639 0.95328 0.0
C1056 C 0.36084 0.77277 0.96349 0.0
C1057 C 0.39857 0.80311 0.93391 0.0
C1058 C 0.40532 0.80039 0.90017 0.0
C1059 C 0.43375 0.80182 0.8886 0.0
C1060 C 0.4559 0.80571 0.91216 0.0
C1061 C 0.44946 0.80815 0.94676 0.0
C1062 C 0.42048 0.8071 0.95777 0.0
H1063 H 0.30607 0.36557 0.83157 0.0
H1064 H 0.21944 0.32935 0.82764 0.0
H1065 H 0.20134 0.37049 0.86038 0.0
H1066 H 0.30236 0.38167 0.91584 0.0
H1067 H 0.32361 0.41434 0.91376 0.0
H1068 H 0.32898 0.38627 0.88311 0.0
H1069 H 0.3193 0.42292 0.83503 0.0
H1070 H 0.31408 0.45125 0.86558 0.0
H1071 H 0.28634 0.4437 0.83513 0.0
H1072 H 0.19337 0.41156 0.89985 0.0
H1073 H 0.19644 0.44829 0.94446 0.0
H1074 H 0.28899 0.45501 0.9282 0.0
C1075 C 0.28318 0.36635 0.83709 0.0
C1076 C 0.26431 0.34397 0.82653 0.0
C1077 C 0.23446 0.34632 0.83432 0.0
C1078 C 0.2239 0.36962 0.85328 0.0
C1079 C 0.24338 0.39039 0.8646 0.0
C1080 C 0.27242 0.38898 0.85682 0.0
C1081 C 0.28944 0.41173 0.87581 0.0
C1082 C 0.31244 0.39765 0.89847 0.0
C1083 C 0.30309 0.43371 0.85143 0.0
C1084 C 0.26555 0.42551 0.89637 0.0
C1085 C 0.23906 0.41333 0.88887 0.0
C1086 C 0.21393 0.4215 0.90564 0.0
C1087 C 0.21594 0.44239 0.93103 0.0
C1088 C 0.24297 0.45458 0.93988 0.0
C1089 C 0.268 0.44622 0.92193 0.0
H1090 H 0.70053 0.24262 0.90981 0.0
H1091 H 0.66146 0.22681 0.81229 0.0
H1092 H 0.61897 0.20586 0.8404 0.0
H1093 H 0.66811 0.1813 0.95671 0.0
H1094 H 0.66219 0.20316 0.99359 0.0
H1095 H 0.69228 0.21079 0.96611 0.0
H1096 H 0.67453 0.26371 0.95929 0.0
H1097 H 0.64453 0.25626 0.98674 0.0
H1098 H 0.63816 0.27037 0.94513 0.0
H1099 H 0.57789 0.19217 0.87896 0.0
H1100 H 0.54103 0.19053 0.92424 0.0
H1101 H 0.60452 0.22048 0.99586 0.0
C1102 C 0.68326 0.23462 0.8941 0.0
C1103 C 0.68482 0.23647 0.85853 0.0
C1104 C 0.66155 0.22517 0.83942 0.0
C1105 C 0.63706 0.21331 0.85523 0.0
C1106 C 0.63587 0.213 0.89026 0.0
C1107 C 0.65835 0.22352 0.90945 0.0
C1108 C 0.65029 0.22442 0.94641 0.0
C1109 C 0.66935 0.20367 0.96691 0.0
C1110 C 0.65197 0.25553 0.96018 0.0
C1111 C 0.6194 0.21369 0.94494 0.0
C1112 C 0.61174 0.20642 0.91243 0.0
C1113 C 0.58381 0.19736 0.90455 0.0
C1114 C 0.56306 0.19635 0.93037 0.0
C1115 C 0.57028 0.20476 0.96343 0.0
C1116 C 0.59882 0.21321 0.97087 0.0
H1117 H 0.77101 0.69056 0.86901 0.0
H1118 H 0.77304 0.63594 0.78011 0.0
H1119 H 0.79892 0.59864 0.8121 0.0
H1120 H 0.83889 0.66523 0.9094 0.0
H1121 H 0.82264 0.66557 0.95062 0.0
H1122 H 0.81088 0.69104 0.91908 0.0
H1123 H 0.75809 0.67337 0.92646 0.0
H1124 H 0.76966 0.64807 0.95803 0.0
H1125 H 0.75007 0.63538 0.92184 0.0
H1126 H 0.81794 0.56405 0.85536 0.0
H1127 H 0.82459 0.53436 0.90666 0.0
H1128 H 0.80543 0.609 0.96841 0.0
C1129 C 0.77703 0.67096 0.85591 0.0
C1130 C 0.76982 0.66666 0.82163 0.0
C1131 C 0.77874 0.64055 0.80589 0.0
C1132 C 0.79341 0.61896 0.82402 0.0
C1133 C 0.79896 0.62351 0.85803 0.0
C1134 C 0.79088 0.64885 0.87386 0.0
C1135 C 0.79528 0.64676 0.91157 0.0
C1136 C 0.8183 0.66844 0.92335 0.0
C1137 C 0.76658 0.65114 0.93057 0.0
C1138 C 0.80604 0.61587 0.91466 0.0
C1139 C 0.80886 0.60311 0.88337 0.0
C1140 C 0.81643 0.57401 0.87991 0.0
C1141 C 0.82034 0.55734 0.90911 0.0
C1142 C 0.8164 0.56974 0.94124 0.0
C1143 C 0.80964 0.59943 0.94404 0.0
loop_
_geom_bond_atom_site_label_1
_geom_bond_atom_site_label_2
_geom_bond_distance
_geom_bond_site_symmetry_2
_ccdc_geom_bond_type
H0 C8 0.930 . S
H1 C11 0.930 . S
H2 C13 0.930 . S
H3 C14 0.970 . S
H4 C14 0.970 . S
H5 C16 0.930 . S
H6 C18 0.930 . S
H7 C20 0.930 . S
C8 H0 0.930 . S
C8 C9 1.382 . S
C8 C10 1.426 . S
C9 C8 1.382 . S
C9 C13 1.389 . S
C10 C8 1.426 . S
C10 C11 1.375 . S
C10 C14 1.532 . S
C11 H1 0.930 . S
C11 C10 1.375 . S
C11 C12 1.416 . S
C12 C11 1.416 . S
C12 C13 1.371 . S
C13 H2 0.930 . S
C13 C9 1.389 . S
C13 C12 1.371 . S
C14 H3 0.970 . S
C14 H4 0.970 . S
C14 C10 1.532 . S
C14 C15 1.499 . S
C15 C14 1.499 . S
C15 C16 1.370 . S
C15 C20 1.415 . S
C16 H5 0.930 . S
C16 C15 1.370 . S
C16 C17 1.407 . S
C17 C16 1.407 . S
C17 C18 1.365 . S
C18 H6 0.930 . S
C18 C17 1.365 . S
C18 C19 1.393 . S
C19 C18 1.393 . S
C19 C20 1.387 . S
C20 H7 0.930 . S
C20 C15 1.415 . S
C20 C19 1.387 . S
H21 C29 0.930 . S
H22 C32 0.930 . S
H23 C34 0.930 . S
H24 C35 0.970 . S
H25 C35 0.970 . S
H26 C37 0.930 . S
H27 C39 0.930 . S
H28 C41 0.930 . S
C29 H21 0.930 . S
C29 C30 1.382 . S
C29 C31 1.426 . S
C30 C29 1.382 . S
C30 C34 1.389 . S
C31 C29 1.426 . S
C31 C32 1.375 . S
C31 C35 1.532 . S
C32 H22 0.930 . S
C32 C31 1.375 . S
C32 C33 1.416 . S
C33 C32 1.416 . S
C33 C34 1.371 . S
C34 H23 0.930 . S
C34 C30 1.389 . S
C34 C33 1.371 . S
C35 H24 0.970 . S
C35 H25 0.970 . S
C35 C31 1.532 . S
C35 C36 1.499 . S
C36 C35 1.499 . S
C36 C37 1.370 . S
C36 C41 1.415 . S
C37 H26 0.930 . S
C37 C36 1.370 . S
C37 C38 1.407 . S
C38 C37 1.407 . S
C38 C39 1.365 . S
C39 H27 0.930 . S
C39 C38 1.365 . S
C39 C40 1.393 . S
C40 C39 1.393 . S
C40 C41 1.387 . S
C41 H28 0.930 . S
C41 C36 1.415 . S
C41 C40 1.387 . S
H42 C50 0.930 . S
H43 C53 0.930 . S
H44 C55 0.930 . S
H45 C56 0.970 . S
H46 C56 0.970 . S
H47 C58 0.930 . S
H48 C60 0.930 . S
H49 C62 0.930 . S
C50 H42 0.930 . S
C50 C51 1.382 . S
C50 C52 1.426 . S
C51 C50 1.382 . S
C51 C55 1.389 . S
C52 C50 1.426 . S
C52 C53 1.375 . S
C52 C56 1.532 . S
C53 H43 0.930 . S
C53 C52 1.375 . S
C53 C54 1.416 . S
C54 C53 1.416 . S
C54 C55 1.371 . S
C55 H44 0.930 . S
C55 C51 1.389 . S
C55 C54 1.371 . S
C56 H45 0.970 . S
C56 H46 0.970 . S
C56 C52 1.532 . S
C56 C57 1.499 . S
C57 C56 1.499 . S
C57 C58 1.370 . S
C57 C62 1.415 . S
C58 H47 0.930 . S
C58 C57 1.370 . S
C58 C59 1.407 . S
C59 C58 1.407 . S
C59 C60 1.365 . S
C60 H48 0.930 . S
C60 C59 1.365 . S
C60 C61 1.393 . S
C61 C60 1.393 . S
C61 C62 1.387 . S
C62 H49 0.930 . S
C62 C57 1.415 . S
C62 C61 1.387 . S
H63 C71 0.930 . S
H64 C74 0.930 . S
H65 C76 0.930 . S
H66 C77 0.970 . S
H67 C77 0.970 . S
H68 C79 0.930 . S
H69 C81 0.930 . S
H70 C83 0.930 . S
C71 H63 0.930 . S
C71 C72 1.382 . S
C71 C73 1.426 . S
C72 C71 1.382 . S
C72 C76 1.389 . S
C73 C71 1.426 . S
C73 C74 1.375 . S
C73 C77 1.532 . S
C74 H64 0.930 . S
C74 C73 1.375 . S
C74 C75 1.416 . S
C75 C74 1.416 . S
C75 C76 1.371 . S
C76 H65 0.930 . S
C76 C72 1.389 . S
C76 C75 1.371 . S
C77 H66 0.970 . S
C77 H67 0.970 . S
C77 C73 1.532 . S
C77 C78 1.499 . S
C78 C77 1.499 . S
C78 C79 1.370 . S
C78 C83 1.415 . S
C79 H68 0.930 . S
C79 C78 1.370 . S
C79 C80 1.407 . S
C80 C79 1.407 . S
C80 C81 1.365 . S
C81 H69 0.930 . S
C81 C80 1.365 . S
C81 C82 1.393 . S
C82 C81 1.393 . S
C82 C83 1.387 . S
C83 H70 0.930 . S
C83 C78 1.415 . S
C83 C82 1.387 . S
H84 C92 0.930 . S
H85 C95 0.930 . S
H86 C97 0.930 . S
H87 C98 0.970 . S
H88 C98 0.970 . S
H89 C100 0.930 . S
H90 C102 0.930 . S
H91 C104 0.930 . S
C92 H84 0.930 . S
C92 C93 1.382 . S
C92 C94 1.426 . S
C93 C92 1.382 . S
C93 C97 1.389 . S
C94 C92 1.426 . S
C94 C95 1.375 . S
C94 C98 1.532 . S
C95 H85 0.930 . S
C95 C94 1.375 . S
C95 C96 1.416 . S
C96 C95 1.416 . S
C96 C97 1.371 . S
C97 H86 0.930 . S
C97 C93 1.389 . S
C97 C96 1.371 . S
C98 H87 0.970 . S
C98 H88 0.970 . S
C98 C94 1.532 . S
C98 C99 1.499 . S
C99 C98 1.499 . S
C99 C100 1.370 . S
C99 C104 1.415 . S
C100 H89 0.930 . S
C100 C99 1.370 . S
C100 C101 1.407 . S
C101 C100 1.407 . S
C101 C102 1.365 . S
C102 H90 0.930 . S
C102 C101 1.365 . S
C102 C103 1.393 . S
C103 C102 1.393 . S
C103 C104 1.387 . S
C104 H91 0.930 . S
C104 C99 1.415 . S
C104 C103 1.387 . S
H105 C113 0.930 . S
H106 C116 0.930 . S
H107 C118 0.930 . S
H108 C119 0.970 . S
H109 C119 0.970 . S
H110 C121 0.930 . S
H111 C123 0.930 . S
H112 C125 0.930 . S
C113 H105 0.930 . S
C113 C114 1.382 . S
C113 C115 1.426 . S
C114 C113 1.382 . S
C114 C118 1.389 . S
C115 C113 1.426 . S
C115 C116 1.375 . S
C115 C119 1.532 . S
C116 H106 0.930 . S
C116 C115 1.375 . S
C116 C117 1.416 . S
C117 C116 1.416 . S
C117 C118 1.371 . S
C118 H107 0.930 . S
C118 C114 1.389 . S
C118 C117 1.371 . S
C119 H108 0.970 . S
C119 H109 0.970 . S
C119 C115 1.532 . S
C119 C120 1.499 . S
C120 C119 1.499 . S
C120 C121 1.370 . S
C120 C125 1.415 . S
C121 H110 0.930 . S
C121 C120 1.370 . S
C121 C122 1.407 . S
C122 C121 1.407 . S
C122 C123 1.365 . S
C123 H111 0.930 . S
C123 C122 1.365 . S
C123 C124 1.393 . S
C124 C123 1.393 . S
C124 C125 1.387 . S
C125 H112 0.930 . S
C125 C120 1.415 . S
C125 C124 1.387 . S
H126 C134 0.930 . S
H127 C137 0.930 . S
H128 C139 0.930 . S
H129 C140 0.970 . S
H130 C140 0.970 . S
H131 C142 0.930 . S
H132 C144 0.930 . S
H133 C146 0.930 . S
C134 H126 0.930 . S
C134 C135 1.382 . S
C134 C136 1.426 . S
C135 C134 1.382 . S
C135 C139 1.389 . S
C136 C134 1.426 . S
C136 C137 1.375 . S
C136 C140 1.532 . S
C137 H127 0.930 . S
C137 C136 1.375 . S
C137 C138 1.416 . S
C138 C137 1.416 . S
C138 C139 1.371 . S
C139 H128 0.930 . S
C139 C135 1.389 . S
C139 C138 1.371 . S
C140 H129 0.970 . S
C140 H130 0.970 . S
C140 C136 1.532 . S
C140 C141 1.499 . S
C141 C140 1.499 . S
C141 C142 1.370 . S
C141 C146 1.415 . S
C142 H131 0.930 . S
C142 C141 1.370 . S
C142 C143 1.407 . S
C143 C142 1.407 . S
C143 C144 1.365 . S
C144 H132 0.930 . S
C144 C143 1.365 . S
C144 C145 1.393 . S
C145 C144 1.393 . S
C145 C146 1.387 . S
C146 H133 0.930 . S
C146 C141 1.415 . S
C146 C145 1.387 . S
H147 C155 0.930 . S
H148 C158 0.930 . S
H149 C160 0.930 . S
H150 C161 0.970 . S
H151 C161 0.970 . S
H152 C163 0.930 . S
H153 C165 0.930 . S
H154 C167 0.930 . S
C155 H147 0.930 . S
C155 C156 1.382 . S
C155 C157 1.426 . S
C156 C155 1.382 . S
C156 C160 1.389 . S
C157 C155 1.426 . S
C157 C158 1.375 . S
C157 C161 1.532 . S
C158 H148 0.930 . S
C158 C157 1.375 . S
C158 C159 1.416 . S
C159 C158 1.416 . S
C159 C160 1.371 . S
C160 H149 0.930 . S
C160 C156 1.389 . S
C160 C159 1.371 . S
C161 H150 0.970 . S
C161 H151 0.970 . S
C161 C157 1.532 . S
C161 C162 1.499 . S
C162 C161 1.499 . S
C162 C163 1.370 . S
C162 C167 1.415 . S
C163 H152 0.930 . S
C163 C162 1.370 . S
C163 C164 1.407 . S
C164 C163 1.407 . S
C164 C165 1.365 . S
C165 H153 0.930 . S
C165 C164 1.365 . S
C165 C166 1.393 . S
C166 C165 1.393 . S
C166 C167 1.387 . S
C167 H154 0.930 . S
C167 C162 1.415 . S
C167 C166 1.387 . S
C168 O170 1.247 . S
C168 O172 1.258 . S
C169 O176 1.247 . S
C169 O177 1.258 . S
O170 C168 1.247 . S
O170 Zn171 2.028 1_655 S
Zn171 O170 2.028 1_455 S
Zn171 O175 2.035 . S
Zn171 O177 2.035 . S
Zn171 O178 2.028 1_455 S
O172 C168 1.258 . S
O172 Zn173 2.035 1_655 S
Zn173 O172 2.035 1_455 S
Zn173 O174 2.028 . S
Zn173 O176 2.028 . S
Zn173 O179 2.035 1_455 S
O174 Zn173 2.028 . S
O174 C180 1.247 . S
O175 Zn171 2.035 . S
O175 C180 1.258 . S
O176 C169 1.247 . S
O176 Zn173 2.028 . S
O177 C169 1.258 . S
O177 Zn171 2.035 . S
O178 Zn171 2.028 1_655 S
O178 C181 1.247 . S
O179 Zn173 2.035 1_655 S
O179 C181 1.258 . S
C180 O174 1.247 . S
C180 O175 1.258 . S
C181 O178 1.247 . S
C181 O179 1.258 . S
C182 O184 1.247 . S
C182 O186 1.258 . S
C183 O190 1.247 . S
C183 O191 1.258 . S
O184 C182 1.247 . S
O184 Zn185 2.028 . S
Zn185 O184 2.028 . S
Zn185 O189 2.035 1_545 S
Zn185 O191 2.035 1_545 S
Zn185 O192 2.028 . S
O186 C182 1.258 . S
O186 Zn187 2.035 . S
Zn187 O186 2.035 . S
Zn187 O188 2.028 1_545 S
Zn187 O190 2.028 1_545 S
Zn187 O193 2.035 . S
O188 Zn187 2.028 1_565 S
O188 C194 1.247 . S
O189 Zn185 2.035 1_565 S
O189 C194 1.258 . S
O190 C183 1.247 . S
O190 Zn187 2.028 1_565 S
O191 C183 1.258 . S
O191 Zn185 2.035 1_565 S
O192 Zn185 2.028 . S
O192 C195 1.247 . S
O193 Zn187 2.035 . S
O193 C195 1.258 . S
C194 O188 1.247 . S
C194 O189 1.258 . S
C195 O192 1.247 . S
C195 O193 1.258 . S
C196 O198 1.247 . S
C196 O200 1.258 . S
C197 O204 1.247 . S
C197 O205 1.258 . S
O198 C196 1.247 . S
O198 Zn199 2.028 1_655 S
Zn199 O198 2.028 1_455 S
Zn199 O203 2.035 . S
Zn199 O205 2.035 . S
Zn199 O206 2.028 1_455 S
O200 C196 1.258 . S
O200 Zn201 2.035 1_655 S
Zn201 O200 2.035 1_455 S
Zn201 O202 2.028 . S
Zn201 O204 2.028 . S
Zn201 O207 2.035 1_455 S
O202 Zn201 2.028 . S
O202 C208 1.247 . S
O203 Zn199 2.035 . S
O203 C208 1.258 . S
O204 C197 1.247 . S
O204 Zn201 2.028 . S
O205 C197 1.258 . S
O205 Zn199 2.035 . S
O206 Zn199 2.028 1_655 S
O206 C209 1.247 . S
O207 Zn201 2.035 1_655 S
O207 C209 1.258 . S
C208 O202 1.247 . S
C208 O203 1.258 . S
C209 O206 1.247 . S
C209 O207 1.258 . S
C210 O212 1.247 . S
C210 O214 1.258 . S
C211 O218 1.247 . S
C211 O219 1.258 . S
O212 C210 1.247 . S
O212 Zn213 2.028 . S
Zn213 O212 2.028 . S
Zn213 O217 2.035 1_545 S
Zn213 O219 2.035 1_545 S
Zn213 O220 2.028 . S
O214 C210 1.258 . S
O214 Zn215 2.035 . S
Zn215 O214 2.035 . S
Zn215 O216 2.028 1_545 S
Zn215 O218 2.028 1_545 S
Zn215 O221 2.035 . S
O216 Zn215 2.028 1_565 S
O216 C222 1.247 . S
O217 Zn213 2.035 1_565 S
O217 C222 1.258 . S
O218 C211 1.247 . S
O218 Zn215 2.028 1_565 S
O219 C211 1.258 . S
O219 Zn213 2.035 1_565 S
O220 Zn213 2.028 . S
O220 C223 1.247 . S
O221 Zn215 2.035 . S
O221 C223 1.258 . S
C222 O216 1.247 . S
C222 O217 1.258 . S
C223 O220 1.247 . S
C223 O221 1.258 . S
C224 O226 1.247 . S
C224 O228 1.258 . S
C225 O232 1.247 . S
C225 O233 1.258 . S
O226 C224 1.247 . S
O226 Zn227 2.037 . S
Zn227 O226 2.037 . S
Zn227 O231 2.045 . S
Zn227 O233 2.026 1_554 S
Zn227 O234 2.018 1_554 S
O228 C224 1.258 . S
O228 Zn229 2.036 . S
Zn229 O228 2.036 . S
Zn229 O230 2.028 . S
Zn229 O232 2.027 1_554 S
Zn229 O235 2.035 1_554 S
O230 Zn229 2.028 . S
O230 C236 1.247 . S
O231 Zn227 2.045 . S
O231 C236 1.258 . S
O232 C225 1.247 . S
O232 Zn229 2.027 1_556 S
O233 C225 1.258 . S
O233 Zn227 2.026 1_556 S
O234 Zn227 2.018 1_556 S
O234 C237 1.247 . S
O235 Zn229 2.035 1_556 S
O235 C237 1.258 . S
C236 O230 1.247 . S
C236 O231 1.258 . S
C237 O234 1.247 . S
C237 O235 1.258 . S
C238 O240 1.247 . S
C238 O242 1.258 . S
C239 O246 1.247 . S
C239 O247 1.258 . S
O240 C238 1.247 . S
O240 Zn241 2.043 . S
Zn241 O240 2.043 . S
Zn241 O245 2.050 . S
Zn241 O247 2.020 1_554 S
Zn241 O248 2.013 1_554 S
O242 C238 1.258 . S
O242 Zn243 2.059 . S
Zn243 O242 2.059 . S
Zn243 O244 2.052 . S
Zn243 O246 2.004 1_554 S
Zn243 O249 2.012 1_554 S
O244 Zn243 2.052 . S
O244 C250 1.247 . S
O245 Zn241 2.050 . S
O245 C250 1.258 . S
O246 C239 1.247 . S
O246 Zn243 2.004 1_556 S
O247 C239 1.258 . S
O247 Zn241 2.020 1_556 S
O248 Zn241 2.013 1_556 S
O248 C251 1.247 . S
O249 Zn243 2.012 1_556 S
O249 C251 1.258 . S
C250 O244 1.247 . S
C250 O245 1.258 . S
C251 O248 1.247 . S
C251 O249 1.258 . S
C252 O254 1.247 . S
C252 O256 1.258 . S
C253 O260 1.247 . S
C253 O261 1.258 . S
O254 C252 1.247 . S
O254 Zn255 2.028 1_556 S
Zn255 O254 2.028 1_554 S
Zn255 O259 2.035 1_554 S
Zn255 O261 2.035 . S
Zn255 O262 2.028 . S
O256 C252 1.258 . S
O256 Zn257 2.035 1_556 S
Zn257 O256 2.035 1_554 S
Zn257 O258 2.028 1_554 S
Zn257 O260 2.028 . S
Zn257 O263 2.035 . S
O258 Zn257 2.028 1_556 S
O258 C264 1.247 . S
O259 Zn255 2.035 1_556 S
O259 C264 1.258 . S
O260 C253 1.247 . S
O260 Zn257 2.028 . S
O261 C253 1.258 . S
O261 Zn255 2.035 . S
O262 Zn255 2.028 . S
O262 C265 1.247 . S
O263 Zn257 2.035 . S
O263 C265 1.258 . S
C264 O258 1.247 . S
C264 O259 1.258 . S
C265 O262 1.247 . S
C265 O263 1.258 . S
C266 O268 1.247 . S
C266 O270 1.258 . S
C267 O274 1.247 . S
C267 O275 1.258 . S
O268 C266 1.247 . S
O268 Zn269 2.028 . S
Zn269 O268 2.028 . S
Zn269 O273 2.035 . S
Zn269 O275 2.035 1_554 S
Zn269 O276 2.028 1_554 S
O270 C266 1.258 . S
O270 Zn271 2.035 . S
Zn271 O270 2.035 . S
Zn271 O272 2.028 . S
Zn271 O274 2.028 1_554 S
Zn271 O277 2.035 1_554 S
O272 Zn271 2.028 . S
O272 C278 1.247 . S
O273 Zn269 2.035 . S
O273 C278 1.258 . S
O274 C267 1.247 . S
O274 Zn271 2.028 1_556 S
O275 C267 1.258 . S
O275 Zn269 2.035 1_556 S
O276 Zn269 2.028 1_556 S
O276 C279 1.247 . S
O277 Zn271 2.035 1_556 S
O277 C279 1.258 . S
C278 O272 1.247 . S
C278 O273 1.258 . S
C279 O276 1.247 . S
C279 O277 1.258 . S
H280 C292 0.930 . S
H281 C294 0.930 . S
H282 C295 0.930 . S
H283 C299 0.959 . S
H284 C299 0.959 . S
H285 C299 0.961 . S
H286 C300 0.960 . S
H287 C300 0.961 . S
H288 C300 0.959 . S
H289 C303 0.929 . S
H290 C304 0.931 . S
H291 C306 0.930 . S
C292 H280 0.930 . S
C292 C293 1.399 . S
C292 C297 1.399 . S
C293 C292 1.399 . S
C293 C294 1.376 . S
C294 H281 0.930 . S
C294 C293 1.376 . S
C294 C295 1.388 . S
C295 H282 0.930 . S
C295 C294 1.388 . S
C295 C296 1.390 . S
C296 C295 1.390 . S
C296 C297 1.394 . S
C296 C302 1.465 . S
C297 C292 1.399 . S
C297 C296 1.394 . S
C297 C298 1.516 . S
C298 C297 1.516 . S
C298 C299 1.502 . S
C298 C300 1.561 . S
C298 C301 1.526 . S
C299 H283 0.959 . S
C299 H284 0.959 . S
C299 H285 0.961 . S
C299 C298 1.502 . S
C300 H286 0.960 . S
C300 H287 0.961 . S
C300 H288 0.959 . S
C300 C298 1.561 . S
C301 C298 1.526 . S
C301 C302 1.396 . S
C301 C306 1.390 . S
C302 C296 1.465 . S
C302 C301 1.396 . S
C302 C303 1.399 . S
C303 H289 0.929 . S
C303 C302 1.399 . S
C303 C304 1.385 . S
C304 H290 0.931 . S
C304 C303 1.385 . S
C304 C305 1.389 . S
C305 C304 1.389 . S
C305 C306 1.387 . S
C306 H291 0.930 . S
C306 C301 1.390 . S
C306 C305 1.387 . S
H307 C319 0.930 . S
H308 C321 0.930 . S
H309 C322 0.930 . S
H310 C326 0.959 . S
H311 C326 0.959 . S
H312 C326 0.961 . S
H313 C327 0.960 . S
H314 C327 0.961 . S
H315 C327 0.959 . S
H316 C330 0.929 . S
H317 C331 0.931 . S
H318 C333 0.930 . S
C319 H307 0.930 . S
C319 C320 1.399 . S
C319 C324 1.399 . S
C320 C319 1.399 . S
C320 C321 1.376 . S
C321 H308 0.930 . S
C321 C320 1.376 . S
C321 C322 1.388 . S
C322 H309 0.930 . S
C322 C321 1.388 . S
C322 C323 1.390 . S
C323 C322 1.390 . S
C323 C324 1.394 . S
C323 C329 1.465 . S
C324 C319 1.399 . S
C324 C323 1.394 . S
C324 C325 1.516 . S
C325 C324 1.516 . S
C325 C326 1.502 . S
C325 C327 1.561 . S
C325 C328 1.526 . S
C326 H310 0.959 . S
C326 H311 0.959 . S
C326 H312 0.961 . S
C326 C325 1.502 . S
C327 H313 0.960 . S
C327 H314 0.961 . S
C327 H315 0.959 . S
C327 C325 1.561 . S
C328 C325 1.526 . S
C328 C329 1.396 . S
C328 C333 1.390 . S
C329 C323 1.465 . S
C329 C328 1.396 . S
C329 C330 1.399 . S
C330 H316 0.929 . S
C330 C329 1.399 . S
C330 C331 1.385 . S
C331 H317 0.931 . S
C331 C330 1.385 . S
C331 C332 1.389 . S
C332 C331 1.389 . S
C332 C333 1.387 . S
C333 H318 0.930 . S
C333 C328 1.390 . S
C333 C332 1.387 . S
H334 C346 0.930 . S
H335 C348 0.930 . S
H336 C349 0.930 . S
H337 C353 0.959 . S
H338 C353 0.959 . S
H339 C353 0.961 . S
H340 C354 0.960 . S
H341 C354 0.961 . S
H342 C354 0.959 . S
H343 C357 0.929 . S
H344 C358 0.931 . S
H345 C360 0.930 . S
C346 H334 0.930 . S
C346 C347 1.399 . S
C346 C351 1.399 . S
C347 C346 1.399 . S
C347 C348 1.376 . S
C348 H335 0.930 . S
C348 C347 1.376 . S
C348 C349 1.388 . S
C349 H336 0.930 . S
C349 C348 1.388 . S
C349 C350 1.390 . S
C350 C349 1.390 . S
C350 C351 1.394 . S
C350 C356 1.465 . S
C351 C346 1.399 . S
C351 C350 1.394 . S
C351 C352 1.516 . S
C352 C351 1.516 . S
C352 C353 1.502 . S
C352 C354 1.561 . S
C352 C355 1.526 . S
C353 H337 0.959 . S
C353 H338 0.959 . S
C353 H339 0.961 . S
C353 C352 1.502 . S
C354 H340 0.960 . S
C354 H341 0.961 . S
C354 H342 0.959 . S
C354 C352 1.561 . S
C355 C352 1.526 . S
C355 C356 1.396 . S
C355 C360 1.390 . S
C356 C350 1.465 . S
C356 C355 1.396 . S
C356 C357 1.399 . S
C357 H343 0.929 . S
C357 C356 1.399 . S
C357 C358 1.385 . S
C358 H344 0.931 . S
C358 C357 1.385 . S
C358 C359 1.389 . S
C359 C358 1.389 . S
C359 C360 1.387 . S
C360 H345 0.930 . S
C360 C355 1.390 . S
C360 C359 1.387 . S
H361 C373 0.930 . S
H362 C375 0.930 . S
H363 C376 0.930 . S
H364 C380 0.959 . S
H365 C380 0.959 . S
H366 C380 0.961 . S
H367 C381 0.960 . S
H368 C381 0.961 . S
H369 C381 0.959 . S
H370 C384 0.929 . S
H371 C385 0.931 . S
H372 C387 0.930 . S
C373 H361 0.930 . S
C373 C374 1.399 . S
C373 C378 1.399 . S
C374 C373 1.399 . S
C374 C375 1.376 . S
C375 H362 0.930 . S
C375 C374 1.376 . S
C375 C376 1.388 . S
C376 H363 0.930 . S
C376 C375 1.388 . S
C376 C377 1.390 . S
C377 C376 1.390 . S
C377 C378 1.394 . S
C377 C383 1.465 . S
C378 C373 1.399 . S
C378 C377 1.394 . S
C378 C379 1.516 . S
C379 C378 1.516 . S
C379 C380 1.502 . S
C379 C381 1.561 . S
C379 C382 1.526 . S
C380 H364 0.959 . S
C380 H365 0.959 . S
C380 H366 0.961 . S
C380 C379 1.502 . S
C381 H367 0.960 . S
C381 H368 0.961 . S
C381 H369 0.959 . S
C381 C379 1.561 . S
C382 C379 1.526 . S
C382 C383 1.396 . S
C382 C387 1.390 . S
C383 C377 1.465 . S
C383 C382 1.396 . S
C383 C384 1.399 . S
C384 H370 0.929 . S
C384 C383 1.399 . S
C384 C385 1.385 . S
C385 H371 0.931 . S
C385 C384 1.385 . S
C385 C386 1.389 . S
C386 C385 1.389 . S
C386 C387 1.387 . S
C387 H372 0.930 . S
C387 C382 1.390 . S
C387 C386 1.387 . S
H388 C400 0.930 . S
H389 C402 0.930 . S
H390 C403 0.930 . S
H391 C407 0.959 . S
H392 C407 0.959 . S
H393 C407 0.961 . S
H394 C408 0.960 . S
H395 C408 0.961 . S
H396 C408 0.959 . S
H397 C411 0.929 . S
H398 C412 0.931 . S
H399 C414 0.930 . S
C400 H388 0.930 . S
C400 C401 1.399 . S
C400 C405 1.399 . S
C401 C400 1.399 . S
C401 C402 1.376 . S
C402 H389 0.930 . S
C402 C401 1.376 . S
C402 C403 1.388 . S
C403 H390 0.930 . S
C403 C402 1.388 . S
C403 C404 1.390 . S
C404 C403 1.390 . S
C404 C405 1.394 . S
C404 C410 1.465 . S
C405 C400 1.399 . S
C405 C404 1.394 . S
C405 C406 1.516 . S
C406 C405 1.516 . S
C406 C407 1.502 . S
C406 C408 1.561 . S
C406 C409 1.526 . S
C407 H391 0.959 . S
C407 H392 0.959 . S
C407 H393 0.961 . S
C407 C406 1.502 . S
C408 H394 0.960 . S
C408 H395 0.961 . S
C408 H396 0.959 . S
C408 C406 1.561 . S
C409 C406 1.526 . S
C409 C410 1.396 . S
C409 C414 1.390 . S
C410 C404 1.465 . S
C410 C409 1.396 . S
C410 C411 1.399 . S
C411 H397 0.929 . S
C411 C410 1.399 . S
C411 C412 1.385 . S
C412 H398 0.931 . S
C412 C411 1.385 . S
C412 C413 1.389 . S
C413 C412 1.389 . S
C413 C414 1.387 . S
C414 H399 0.930 . S
C414 C409 1.390 . S
C414 C413 1.387 . S
H415 C427 0.930 . S
H416 C429 0.930 . S
H417 C430 0.930 . S
H418 C434 0.959 . S
H419 C434 0.959 . S
H420 C434 0.961 . S
H421 C435 0.960 . S
H422 C435 0.961 . S
H423 C435 0.959 . S
H424 C438 0.929 . S
H425 C439 0.931 . S
H426 C441 0.930 . S
C427 H415 0.930 . S
C427 C428 1.399 . S
C427 C432 1.399 . S
C428 C427 1.399 . S
C428 C429 1.376 . S
C429 H416 0.930 . S
C429 C428 1.376 . S
C429 C430 1.388 . S
C430 H417 0.930 . S
C430 C429 1.388 . S
C430 C431 1.390 . S
C431 C430 1.390 . S
C431 C432 1.394 . S
C431 C437 1.465 . S
C432 C427 1.399 . S
C432 C431 1.394 . S
C432 C433 1.516 . S
C433 C432 1.516 . S
C433 C434 1.502 . S
C433 C435 1.561 . S
C433 C436 1.526 . S
C434 H418 0.959 . S
C434 H419 0.959 . S
C434 H420 0.961 . S
C434 C433 1.502 . S
C435 H421 0.960 . S
C435 H422 0.961 . S
C435 H423 0.959 . S
C435 C433 1.561 . S
C436 C433 1.526 . S
C436 C437 1.396 . S
C436 C441 1.390 . S
C437 C431 1.465 . S
C437 C436 1.396 . S
C437 C438 1.399 . S
C438 H424 0.929 . S
C438 C437 1.399 . S
C438 C439 1.385 . S
C439 H425 0.931 . S
C439 C438 1.385 . S
C439 C440 1.389 . S
C440 C439 1.389 . S
C440 C441 1.387 . S
C441 H426 0.930 . S
C441 C436 1.390 . S
C441 C440 1.387 . S
H442 C454 0.930 . S
H443 C456 0.930 . S
H444 C457 0.930 . S
H445 C461 0.959 . S
H446 C461 0.959 . S
H447 C461 0.961 . S
H448 C462 0.960 . S
H449 C462 0.961 . S
H450 C462 0.959 . S
H451 C465 0.929 . S
H452 C466 0.931 . S
H453 C468 0.930 . S
C454 H442 0.930 . S
C454 C455 1.399 . S
C454 C459 1.399 . S
C455 C454 1.399 . S
C455 C456 1.376 . S
C456 H443 0.930 . S
C456 C455 1.376 . S
C456 C457 1.388 . S
C457 H444 0.930 . S
C457 C456 1.388 . S
C457 C458 1.390 . S
C458 C457 1.390 . S
C458 C459 1.394 . S
C458 C464 1.465 . S
C459 C454 1.399 . S
C459 C458 1.394 . S
C459 C460 1.516 . S
C460 C459 1.516 . S
C460 C461 1.502 . S
C460 C462 1.561 . S
C460 C463 1.526 . S
C461 H445 0.959 . S
C461 H446 0.959 . S
C461 H447 0.961 . S
C461 C460 1.502 . S
C462 H448 0.960 . S
C462 H449 0.961 . S
C462 H450 0.959 . S
C462 C460 1.561 . S
C463 C460 1.526 . S
C463 C464 1.396 . S
C463 C468 1.390 . S
C464 C458 1.465 . S
C464 C463 1.396 . S
C464 C465 1.399 . S
C465 H451 0.929 . S
C465 C464 1.399 . S
C465 C466 1.385 . S
C466 H452 0.931 . S
C466 C465 1.385 . S
C466 C467 1.389 . S
C467 C466 1.389 . S
C467 C468 1.387 . S
C468 H453 0.930 . S
C468 C463 1.390 . S
C468 C467 1.387 . S
H469 C481 0.930 . S
H470 C483 0.930 . S
H471 C484 0.930 . S
H472 C488 0.959 . S
H473 C488 0.959 . S
H474 C488 0.961 . S
H475 C489 0.960 . S
H476 C489 0.961 . S
H477 C489 0.959 . S
H478 C492 0.929 . S
H479 C493 0.931 . S
H480 C495 0.930 . S
C481 H469 0.930 . S
C481 C482 1.399 . S
C481 C486 1.399 . S
C482 C481 1.399 . S
C482 C483 1.376 . S
C483 H470 0.930 . S
C483 C482 1.376 . S
C483 C484 1.388 . S
C484 H471 0.930 . S
C484 C483 1.388 . S
C484 C485 1.390 . S
C485 C484 1.390 . S
C485 C486 1.394 . S
C485 C491 1.465 . S
C486 C481 1.399 . S
C486 C485 1.394 . S
C486 C487 1.516 . S
C487 C486 1.516 . S
C487 C488 1.502 . S
C487 C489 1.561 . S
C487 C490 1.526 . S
C488 H472 0.959 . S
C488 H473 0.959 . S
C488 H474 0.961 . S
C488 C487 1.502 . S
C489 H475 0.960 . S
C489 H476 0.961 . S
C489 H477 0.959 . S
C489 C487 1.561 . S
C490 C487 1.526 . S
C490 C491 1.396 . S
C490 C495 1.390 . S
C491 C485 1.465 . S
C491 C490 1.396 . S
C491 C492 1.399 . S
C492 H478 0.929 . S
C492 C491 1.399 . S
C492 C493 1.385 . S
C493 H479 0.931 . S
C493 C492 1.385 . S
C493 C494 1.389 . S
C494 C493 1.389 . S
C494 C495 1.387 . S
C495 H480 0.930 . S
C495 C490 1.390 . S
C495 C494 1.387 . S
H496 C508 0.930 . S
H497 C510 0.930 . S
H498 C511 0.930 . S
H499 C515 0.959 . S
H500 C515 0.959 . S
H501 C515 0.961 . S
H502 C516 0.960 . S
H503 C516 0.961 . S
H504 C516 0.959 . S
H505 C519 0.929 . S
H506 C520 0.931 . S
H507 C522 0.930 . S
C508 H496 0.930 . S
C508 C509 1.399 . S
C508 C513 1.399 . S
C509 C508 1.399 . S
C509 C510 1.376 . S
C510 H497 0.930 . S
C510 C509 1.376 . S
C510 C511 1.388 . S
C511 H498 0.930 . S
C511 C510 1.388 . S
C511 C512 1.390 . S
C512 C511 1.390 . S
C512 C513 1.394 . S
C512 C518 1.465 . S
C513 C508 1.399 . S
C513 C512 1.394 . S
C513 C514 1.516 . S
C514 C513 1.516 . S
C514 C515 1.502 . S
C514 C516 1.561 . S
C514 C517 1.526 . S
C515 H499 0.959 . S
C515 H500 0.959 . S
C515 H501 0.961 . S
C515 C514 1.502 . S
C516 H502 0.960 . S
C516 H503 0.961 . S
C516 H504 0.959 . S
C516 C514 1.561 . S
C517 C514 1.526 . S
C517 C518 1.396 . S
C517 C522 1.390 . S
C518 C512 1.465 . S
C518 C517 1.396 . S
C518 C519 1.399 . S
C519 H505 0.929 . S
C519 C518 1.399 . S
C519 C520 1.385 . S
C520 H506 0.931 . S
C520 C519 1.385 . S
C520 C521 1.389 . S
C521 C520 1.389 . S
C521 C522 1.387 . S
C522 H507 0.930 . S
C522 C517 1.390 . S
C522 C521 1.387 . S
H523 C535 0.930 . S
H524 C537 0.930 . S
H525 C538 0.930 . S
H526 C542 0.959 . S
H527 C542 0.959 . S
H528 C542 0.961 . S
H529 C543 0.960 . S
H530 C543 0.961 . S
H531 C543 0.959 . S
H532 C546 0.929 . S
H533 C547 0.931 . S
H534 C549 0.930 . S
C535 H523 0.930 . S
C535 C536 1.399 . S
C535 C540 1.399 . S
C536 C535 1.399 . S
C536 C537 1.376 . S
C537 H524 0.930 . S
C537 C536 1.376 . S
C537 C538 1.388 . S
C538 H525 0.930 . S
C538 C537 1.388 . S
C538 C539 1.390 . S
C539 C538 1.390 . S
C539 C540 1.394 . S
C539 C545 1.465 . S
C540 C535 1.399 . S
C540 C539 1.394 . S
C540 C541 1.516 . S
C541 C540 1.516 . S
C541 C542 1.502 . S
C541 C543 1.561 . S
C541 C544 1.526 . S
C542 H526 0.959 . S
C542 H527 0.959 . S
C542 H528 0.961 . S
C542 C541 1.502 . S
C543 H529 0.960 . S
C543 H530 0.961 . S
C543 H531 0.959 . S
C543 C541 1.561 . S
C544 C541 1.526 . S
C544 C545 1.396 . S
C544 C549 1.390 . S
C545 C539 1.465 . S
C545 C544 1.396 . S
C545 C546 1.399 . S
C546 H532 0.929 . S
C546 C545 1.399 . S
C546 C547 1.385 . S
C547 H533 0.931 . S
C547 C546 1.385 . S
C547 C548 1.389 . S
C548 C547 1.389 . S
C548 C549 1.387 . S
C549 H534 0.930 . S
C549 C544 1.390 . S
C549 C548 1.387 . S
H550 C562 0.930 . S
H551 C564 0.930 . S
H552 C565 0.930 . S
H553 C569 0.959 . S
H554 C569 0.959 . S
H555 C569 0.961 . S
H556 C570 0.960 . S
H557 C570 0.961 . S
H558 C570 0.959 . S
H559 C573 0.929 . S
H560 C574 0.931 . S
H561 C576 0.930 . S
C562 H550 0.930 . S
C562 C563 1.399 . S
C562 C567 1.399 . S
C563 C562 1.399 . S
C563 C564 1.376 . S
C564 H551 0.930 . S
C564 C563 1.376 . S
C564 C565 1.388 . S
C565 H552 0.930 . S
C565 C564 1.388 . S
C565 C566 1.390 . S
C566 C565 1.390 . S
C566 C567 1.394 . S
C566 C572 1.465 . S
C567 C562 1.399 . S
C567 C566 1.394 . S
C567 C568 1.516 . S
C568 C567 1.516 . S
C568 C569 1.502 . S
C568 C570 1.561 . S
C568 C571 1.526 . S
C569 H553 0.959 . S
C569 H554 0.959 . S
C569 H555 0.961 . S
C569 C568 1.502 . S
C570 H556 0.960 . S
C570 H557 0.961 . S
C570 H558 0.959 . S
C570 C568 1.561 . S
C571 C568 1.526 . S
C571 C572 1.396 . S
C571 C576 1.390 . S
C572 C566 1.465 . S
C572 C571 1.396 . S
C572 C573 1.399 . S
C573 H559 0.929 . S
C573 C572 1.399 . S
C573 C574 1.385 . S
C574 H560 0.931 . S
C574 C573 1.385 . S
C574 C575 1.389 . S
C575 C574 1.389 . S
C575 C576 1.387 . S
C576 H561 0.930 . S
C576 C571 1.390 . S
C576 C575 1.387 . S
H577 C589 0.930 . S
H578 C591 0.930 . S
H579 C592 0.930 . S
H580 C596 0.959 . S
H581 C596 0.959 . S
H582 C596 0.961 . S
H583 C597 0.960 . S
H584 C597 0.961 . S
H585 C597 0.959 . S
H586 C600 0.929 . S
H587 C601 0.931 . S
H588 C603 0.930 . S
C589 H577 0.930 . S
C589 C590 1.399 . S
C589 C594 1.399 . S
C590 C589 1.399 . S
C590 C591 1.376 . S
C591 H578 0.930 . S
C591 C590 1.376 . S
C591 C592 1.388 . S
C592 H579 0.930 . S
C592 C591 1.388 . S
C592 C593 1.390 . S
C593 C592 1.390 . S
C593 C594 1.394 . S
C593 C599 1.465 . S
C594 C589 1.399 . S
C594 C593 1.394 . S
C594 C595 1.516 . S
C595 C594 1.516 . S
C595 C596 1.502 . S
C595 C597 1.561 . S
C595 C598 1.526 . S
C596 H580 0.959 . S
C596 H581 0.959 . S
C596 H582 0.961 . S
C596 C595 1.502 . S
C597 H583 0.960 . S
C597 H584 0.961 . S
C597 H585 0.959 . S
C597 C595 1.561 . S
C598 C595 1.526 . S
C598 C599 1.396 . S
C598 C603 1.390 . S
C599 C593 1.465 . S
C599 C598 1.396 . S
C599 C600 1.399 . S
C600 H586 0.929 . S
C600 C599 1.399 . S
C600 C601 1.385 . S
C601 H587 0.931 . S
C601 C600 1.385 . S
C601 C602 1.389 . S
C602 C601 1.389 . S
C602 C603 1.387 . S
C603 H588 0.930 . S
C603 C598 1.390 . S
C603 C602 1.387 . S
H604 C616 0.930 . S
H605 C618 0.930 . S
H606 C619 0.930 . S
H607 C623 0.959 . S
H608 C623 0.959 . S
H609 C623 0.961 . S
H610 C624 0.960 . S
H611 C624 0.961 . S
H612 C624 0.959 . S
H613 C627 0.929 . S
H614 C628 0.931 . S
H615 C630 0.930 . S
C616 H604 0.930 . S
C616 C617 1.399 . S
C616 C621 1.399 . S
C617 C616 1.399 . S
C617 C618 1.376 . S
C618 H605 0.930 . S
C618 C617 1.376 . S
C618 C619 1.388 . S
C619 H606 0.930 . S
C619 C618 1.388 . S
C619 C620 1.390 . S
C620 C619 1.390 . S
C620 C621 1.394 . S
C620 C626 1.465 . S
C621 C616 1.399 . S
C621 C620 1.394 . S
C621 C622 1.516 . S
C622 C621 1.516 . S
C622 C623 1.502 . S
C622 C624 1.561 . S
C622 C625 1.526 . S
C623 H607 0.959 . S
C623 H608 0.959 . S
C623 H609 0.961 . S
C623 C622 1.502 . S
C624 H610 0.960 . S
C624 H611 0.961 . S
C624 H612 0.959 . S
C624 C622 1.561 . S
C625 C622 1.526 . S
C625 C626 1.396 . S
C625 C630 1.390 . S
C626 C620 1.465 . S
C626 C625 1.396 . S
C626 C627 1.399 . S
C627 H613 0.929 . S
C627 C626 1.399 . S
C627 C628 1.385 . S
C628 H614 0.931 . S
C628 C627 1.385 . S
C628 C629 1.389 . S
C629 C628 1.389 . S
C629 C630 1.387 . S
C630 H615 0.930 . S
C630 C625 1.390 . S
C630 C629 1.387 . S
H631 C643 0.930 . S
H632 C645 0.930 . S
H633 C646 0.930 . S
H634 C650 0.959 . S
H635 C650 0.959 . S
H636 C650 0.961 . S
H637 C651 0.960 . S
H638 C651 0.961 . S
H639 C651 0.959 . S
H640 C654 0.929 . S
H641 C655 0.931 . S
H642 C657 0.930 . S
C643 H631 0.930 . S
C643 C644 1.399 . S
C643 C648 1.399 . S
C644 C643 1.399 . S
C644 C645 1.376 . S
C645 H632 0.930 . S
C645 C644 1.376 . S
C645 C646 1.388 . S
C646 H633 0.930 . S
C646 C645 1.388 . S
C646 C647 1.390 . S
C647 C646 1.390 . S
C647 C648 1.394 . S
C647 C653 1.465 . S
C648 C643 1.399 . S
C648 C647 1.394 . S
C648 C649 1.516 . S
C649 C648 1.516 . S
C649 C650 1.502 . S
C649 C651 1.561 . S
C649 C652 1.526 . S
C650 H634 0.959 . S
C650 H635 0.959 . S
C650 H636 0.961 . S
C650 C649 1.502 . S
C651 H637 0.960 . S
C651 H638 0.961 . S
C651 H639 0.959 . S
C651 C649 1.561 . S
C652 C649 1.526 . S
C652 C653 1.396 . S
C652 C657 1.390 . S
C653 C647 1.465 . S
C653 C652 1.396 . S
C653 C654 1.399 . S
C654 H640 0.929 . S
C654 C653 1.399 . S
C654 C655 1.385 . S
C655 H641 0.931 . S
C655 C654 1.385 . S
C655 C656 1.389 . S
C656 C655 1.389 . S
C656 C657 1.387 . S
C657 H642 0.930 . S
C657 C652 1.390 . S
C657 C656 1.387 . S
H658 C670 0.930 . S
H659 C672 0.930 . S
H660 C673 0.930 . S
H661 C677 0.959 . S
H662 C677 0.959 . S
H663 C677 0.961 . S
H664 C678 0.960 . S
H665 C678 0.961 . S
H666 C678 0.959 . S
H667 C681 0.929 . S
H668 C682 0.931 . S
H669 C684 0.930 . S
C670 H658 0.930 . S
C670 C671 1.399 . S
C670 C675 1.399 . S
C671 C670 1.399 . S
C671 C672 1.376 . S
C672 H659 0.930 . S
C672 C671 1.376 . S
C672 C673 1.388 . S
C673 H660 0.930 . S
C673 C672 1.388 . S
C673 C674 1.390 . S
C674 C673 1.390 . S
C674 C675 1.394 . S
C674 C680 1.465 . S
C675 C670 1.399 . S
C675 C674 1.394 . S
C675 C676 1.516 . S
C676 C675 1.516 . S
C676 C677 1.502 . S
C676 C678 1.561 . S
C676 C679 1.526 . S
C677 H661 0.959 . S
C677 H662 0.959 . S
C677 H663 0.961 . S
C677 C676 1.502 . S
C678 H664 0.960 . S
C678 H665 0.961 . S
C678 H666 0.959 . S
C678 C676 1.561 . S
C679 C676 1.526 . S
C679 C680 1.396 . S
C679 C684 1.390 . S
C680 C674 1.465 . S
C680 C679 1.396 . S
C680 C681 1.399 . S
C681 H667 0.929 . S
C681 C680 1.399 . S
C681 C682 1.385 . S
C682 H668 0.931 . S
C682 C681 1.385 . S
C682 C683 1.389 . S
C683 C682 1.389 . S
C683 C684 1.387 . S
C684 H669 0.930 . S
C684 C679 1.390 . S
C684 C683 1.387 . S
H685 C697 0.930 . S
H686 C699 0.930 . S
H687 C700 0.930 . S
H688 C704 0.959 . S
H689 C704 0.959 . S
H690 C704 0.961 . S
H691 C705 0.960 . S
H692 C705 0.961 . S
H693 C705 0.959 . S
H694 C708 0.929 . S
H695 C709 0.931 . S
H696 C711 0.930 . S
C697 H685 0.930 . S
C697 C698 1.399 . S
C697 C702 1.399 . S
C698 C697 1.399 . S
C698 C699 1.376 . S
C699 H686 0.930 . S
C699 C698 1.376 . S
C699 C700 1.388 . S
C700 H687 0.930 . S
C700 C699 1.388 . S
C700 C701 1.390 . S
C701 C700 1.390 . S
C701 C702 1.394 . S
C701 C707 1.465 . S
C702 C697 1.399 . S
C702 C701 1.394 . S
C702 C703 1.516 . S
C703 C702 1.516 . S
C703 C704 1.502 . S
C703 C705 1.561 . S
C703 C706 1.526 . S
C704 H688 0.959 . S
C704 H689 0.959 . S
C704 H690 0.961 . S
C704 C703 1.502 . S
C705 H691 0.960 . S
C705 H692 0.961 . S
C705 H693 0.959 . S
C705 C703 1.561 . S
C706 C703 1.526 . S
C706 C707 1.396 . S
C706 C711 1.390 . S
C707 C701 1.465 . S
C707 C706 1.396 . S
C707 C708 1.399 . S
C708 H694 0.929 . S
C708 C707 1.399 . S
C708 C709 1.385 . S
C709 H695 0.931 . S
C709 C708 1.385 . S
C709 C710 1.389 . S
C710 C709 1.389 . S
C710 C711 1.387 . S
C711 H696 0.930 . S
C711 C706 1.390 . S
C711 C710 1.387 . S
H712 C724 0.930 . S
H713 C726 0.930 . S
H714 C727 0.930 . S
H715 C731 0.959 . S
H716 C731 0.959 . S
H717 C731 0.961 . S
H718 C732 0.960 . S
H719 C732 0.961 . S
H720 C732 0.959 . S
H721 C735 0.929 . S
H722 C736 0.931 . S
H723 C738 0.930 . S
C724 H712 0.930 . S
C724 C725 1.399 . S
C724 C729 1.399 . S
C725 C724 1.399 . S
C725 C726 1.376 . S
C726 H713 0.930 . S
C726 C725 1.376 . S
C726 C727 1.388 . S
C727 H714 0.930 . S
C727 C726 1.388 . S
C727 C728 1.390 . S
C728 C727 1.390 . S
C728 C729 1.394 . S
C728 C734 1.465 . S
C729 C724 1.399 . S
C729 C728 1.394 . S
C729 C730 1.516 . S
C730 C729 1.516 . S
C730 C731 1.502 . S
C730 C732 1.561 . S
C730 C733 1.526 . S
C731 H715 0.959 . S
C731 H716 0.959 . S
C731 H717 0.961 . S
C731 C730 1.502 . S
C732 H718 0.960 . S
C732 H719 0.961 . S
C732 H720 0.959 . S
C732 C730 1.561 . S
C733 C730 1.526 . S
C733 C734 1.396 . S
C733 C738 1.390 . S
C734 C728 1.465 . S
C734 C733 1.396 . S
C734 C735 1.399 . S
C735 H721 0.929 . S
C735 C734 1.399 . S
C735 C736 1.385 . S
C736 H722 0.931 . S
C736 C735 1.385 . S
C736 C737 1.389 . S
C737 C736 1.389 . S
C737 C738 1.387 . S
C738 H723 0.930 . S
C738 C733 1.390 . S
C738 C737 1.387 . S
H739 C751 0.930 . S
H740 C753 0.930 . S
H741 C754 0.930 . S
H742 C758 0.959 . S
H743 C758 0.959 . S
H744 C758 0.961 . S
H745 C759 0.960 . S
H746 C759 0.961 . S
H747 C759 0.959 . S
H748 C762 0.929 . S
H749 C763 0.931 . S
H750 C765 0.930 . S
C751 H739 0.930 . S
C751 C752 1.399 . S
C751 C756 1.399 . S
C752 C751 1.399 . S
C752 C753 1.376 . S
C753 H740 0.930 . S
C753 C752 1.376 . S
C753 C754 1.388 . S
C754 H741 0.930 . S
C754 C753 1.388 . S
C754 C755 1.390 . S
C755 C754 1.390 . S
C755 C756 1.394 . S
C755 C761 1.465 . S
C756 C751 1.399 . S
C756 C755 1.394 . S
C756 C757 1.516 . S
C757 C756 1.516 . S
C757 C758 1.502 . S
C757 C759 1.561 . S
C757 C760 1.526 . S
C758 H742 0.959 . S
C758 H743 0.959 . S
C758 H744 0.961 . S
C758 C757 1.502 . S
C759 H745 0.960 . S
C759 H746 0.961 . S
C759 H747 0.959 . S
C759 C757 1.561 . S
C760 C757 1.526 . S
C760 C761 1.396 . S
C760 C765 1.390 . S
C761 C755 1.465 . S
C761 C760 1.396 . S
C761 C762 1.399 . S
C762 H748 0.929 . S
C762 C761 1.399 . S
C762 C763 1.385 . S
C763 H749 0.931 . S
C763 C762 1.385 . S
C763 C764 1.389 . S
C764 C763 1.389 . S
C764 C765 1.387 . S
C765 H750 0.930 . S
C765 C760 1.390 . S
C765 C764 1.387 . S
H766 C778 0.930 . S
H767 C780 0.930 . S
H768 C781 0.930 . S
H769 C785 0.959 . S
H770 C785 0.959 . S
H771 C785 0.961 . S
H772 C786 0.960 . S
H773 C786 0.961 . S
H774 C786 0.959 . S
H775 C789 0.929 . S
H776 C790 0.931 . S
H777 C792 0.930 . S
C778 H766 0.930 . S
C778 C779 1.399 . S
C778 C783 1.399 . S
C779 C778 1.399 . S
C779 C780 1.376 . S
C780 H767 0.930 . S
C780 C779 1.376 . S
C780 C781 1.388 . S
C781 H768 0.930 . S
C781 C780 1.388 . S
C781 C782 1.390 . S
C782 C781 1.390 . S
C782 C783 1.394 . S
C782 C788 1.465 . S
C783 C778 1.399 . S
C783 C782 1.394 . S
C783 C784 1.516 . S
C784 C783 1.516 . S
C784 C785 1.502 . S
C784 C786 1.561 . S
C784 C787 1.526 . S
C785 H769 0.959 . S
C785 H770 0.959 . S
C785 H771 0.961 . S
C785 C784 1.502 . S
C786 H772 0.960 . S
C786 H773 0.961 . S
C786 H774 0.959 . S
C786 C784 1.561 . S
C787 C784 1.526 . S
C787 C788 1.396 . S
C787 C792 1.390 . S
C788 C782 1.465 . S
C788 C787 1.396 . S
C788 C789 1.399 . S
C789 H775 0.929 . S
C789 C788 1.399 . S
C789 C790 1.385 . S
C790 H776 0.931 . S
C790 C789 1.385 . S
C790 C791 1.389 . S
C791 C790 1.389 . S
C791 C792 1.387 . S
C792 H777 0.930 . S
C792 C787 1.390 . S
C792 C791 1.387 . S
H793 C805 0.930 . S
H794 C807 0.930 . S
H795 C808 0.930 . S
H796 C812 0.959 . S
H797 C812 0.959 . S
H798 C812 0.961 . S
H799 C813 0.960 . S
H800 C813 0.961 . S
H801 C813 0.959 . S
H802 C816 0.929 . S
H803 C817 0.931 . S
H804 C819 0.930 . S
C805 H793 0.930 . S
C805 C806 1.399 . S
C805 C810 1.399 . S
C806 C805 1.399 . S
C806 C807 1.376 . S
C807 H794 0.930 . S
C807 C806 1.376 . S
C807 C808 1.388 . S
C808 H795 0.930 . S
C808 C807 1.388 . S
C808 C809 1.390 . S
C809 C808 1.390 . S
C809 C810 1.394 . S
C809 C815 1.465 . S
C810 C805 1.399 . S
C810 C809 1.394 . S
C810 C811 1.516 . S
C811 C810 1.516 . S
C811 C812 1.502 . S
C811 C813 1.561 . S
C811 C814 1.526 . S
C812 H796 0.959 . S
C812 H797 0.959 . S
C812 H798 0.961 . S
C812 C811 1.502 . S
C813 H799 0.960 . S
C813 H800 0.961 . S
C813 H801 0.959 . S
C813 C811 1.561 . S
C814 C811 1.526 . S
C814 C815 1.396 . S
C814 C819 1.390 . S
C815 C809 1.465 . S
C815 C814 1.396 . S
C815 C816 1.399 . S
C816 H802 0.929 . S
C816 C815 1.399 . S
C816 C817 1.385 . S
C817 H803 0.931 . S
C817 C816 1.385 . S
C817 C818 1.389 . S
C818 C817 1.389 . S
C818 C819 1.387 . S
C819 H804 0.930 . S
C819 C814 1.390 . S
C819 C818 1.387 . S
H820 C832 0.930 . S
H821 C834 0.930 . S
H822 C835 0.930 . S
H823 C839 0.959 . S
H824 C839 0.959 . S
H825 C839 0.961 . S
H826 C840 0.960 . S
H827 C840 0.961 . S
H828 C840 0.959 . S
H829 C843 0.929 . S
H830 C844 0.931 . S
H831 C846 0.930 . S
C832 H820 0.930 . S
C832 C833 1.399 . S
C832 C837 1.399 . S
C833 C832 1.399 . S
C833 C834 1.376 . S
C834 H821 0.930 . S
C834 C833 1.376 . S
C834 C835 1.388 . S
C835 H822 0.930 . S
C835 C834 1.388 . S
C835 C836 1.390 . S
C836 C835 1.390 . S
C836 C837 1.394 . S
C836 C842 1.465 . S
C837 C832 1.399 . S
C837 C836 1.394 . S
C837 C838 1.516 . S
C838 C837 1.516 . S
C838 C839 1.502 . S
C838 C840 1.561 . S
C838 C841 1.526 . S
C839 H823 0.959 . S
C839 H824 0.959 . S
C839 H825 0.961 . S
C839 C838 1.502 . S
C840 H826 0.960 . S
C840 H827 0.961 . S
C840 H828 0.959 . S
C840 C838 1.561 . S
C841 C838 1.526 . S
C841 C842 1.396 . S
C841 C846 1.390 . S
C842 C836 1.465 . S
C842 C841 1.396 . S
C842 C843 1.399 . S
C843 H829 0.929 . S
C843 C842 1.399 . S
C843 C844 1.385 . S
C844 H830 0.931 . S
C844 C843 1.385 . S
C844 C845 1.389 . S
C845 C844 1.389 . S
C845 C846 1.387 . S
C846 H831 0.930 . S
C846 C841 1.390 . S
C846 C845 1.387 . S
H847 C859 0.930 . S
H848 C861 0.930 . S
H849 C862 0.930 . S
H850 C866 0.959 . S
H851 C866 0.959 . S
H852 C866 0.961 . S
H853 C867 0.960 . S
H854 C867 0.961 . S
H855 C867 0.959 . S
H856 C870 0.929 . S
H857 C871 0.931 . S
H858 C873 0.930 . S
C859 H847 0.930 . S
C859 C860 1.399 . S
C859 C864 1.399 . S
C860 C859 1.399 . S
C860 C861 1.376 . S
C861 H848 0.930 . S
C861 C860 1.376 . S
C861 C862 1.388 . S
C862 H849 0.930 . S
C862 C861 1.388 . S
C862 C863 1.390 . S
C863 C862 1.390 . S
C863 C864 1.394 . S
C863 C869 1.465 . S
C864 C859 1.399 . S
C864 C863 1.394 . S
C864 C865 1.516 . S
C865 C864 1.516 . S
C865 C866 1.502 . S
C865 C867 1.561 . S
C865 C868 1.526 . S
C866 H850 0.959 . S
C866 H851 0.959 . S
C866 H852 0.961 . S
C866 C865 1.502 . S
C867 H853 0.960 . S
C867 H854 0.961 . S
C867 H855 0.959 . S
C867 C865 1.561 . S
C868 C865 1.526 . S
C868 C869 1.396 . S
C868 C873 1.390 . S
C869 C863 1.465 . S
C869 C868 1.396 . S
C869 C870 1.399 . S
C870 H856 0.929 . S
C870 C869 1.399 . S
C870 C871 1.385 . S
C871 H857 0.931 . S
C871 C870 1.385 . S
C871 C872 1.389 . S
C872 C871 1.389 . S
C872 C873 1.387 . S
C873 H858 0.930 . S
C873 C868 1.390 . S
C873 C872 1.387 . S
H874 C886 0.930 . S
H875 C888 0.930 . S
H876 C889 0.930 . S
H877 C893 0.959 . S
H878 C893 0.959 . S
H879 C893 0.961 . S
H880 C894 0.960 . S
H881 C894 0.961 . S
H882 C894 0.959 . S
H883 C897 0.929 . S
H884 C898 0.931 . S
H885 C900 0.930 . S
C886 H874 0.930 . S
C886 C887 1.399 . S
C886 C891 1.399 . S
C887 C886 1.399 . S
C887 C888 1.376 . S
C888 H875 0.930 . S
C888 C887 1.376 . S
C888 C889 1.388 . S
C889 H876 0.930 . S
C889 C888 1.388 . S
C889 C890 1.390 . S
C890 C889 1.390 . S
C890 C891 1.394 . S
C890 C896 1.465 . S
C891 C886 1.399 . S
C891 C890 1.394 . S
C891 C892 1.516 . S
C892 C891 1.516 . S
C892 C893 1.502 . S
C892 C894 1.561 . S
C892 C895 1.526 . S
C893 H877 0.959 . S
C893 H878 0.959 . S
C893 H879 0.961 . S
C893 C892 1.502 . S
C894 H880 0.960 . S
C894 H881 0.961 . S
C894 H882 0.959 . S
C894 C892 1.561 . S
C895 C892 1.526 . S
C895 C896 1.396 . S
C895 C900 1.390 . S
C896 C890 1.465 . S
C896 C895 1.396 . S
C896 C897 1.399 . S
C897 H883 0.929 . S
C897 C896 1.399 . S
C897 C898 1.385 . S
C898 H884 0.931 . S
C898 C897 1.385 . S
C898 C899 1.389 . S
C899 C898 1.389 . S
C899 C900 1.387 . S
C900 H885 0.930 . S
C900 C895 1.390 . S
C900 C899 1.387 . S
H901 C913 0.930 . S
H902 C915 0.930 . S
H903 C916 0.930 . S
H904 C920 0.959 . S
H905 C920 0.959 . S
H906 C920 0.961 . S
H907 C921 0.960 . S
H908 C921 0.961 . S
H909 C921 0.959 . S
H910 C924 0.929 . S
H911 C925 0.931 . S
H912 C927 0.930 . S
C913 H901 0.930 . S
C913 C914 1.399 . S
C913 C918 1.399 . S
C914 C913 1.399 . S
C914 C915 1.376 . S
C915 H902 0.930 . S
C915 C914 1.376 . S
C915 C916 1.388 . S
C916 H903 0.930 . S
C916 C915 1.388 . S
C916 C917 1.390 . S
C917 C916 1.390 . S
C917 C918 1.394 . S
C917 C923 1.465 . S
C918 C913 1.399 . S
C918 C917 1.394 . S
C918 C919 1.516 . S
C919 C918 1.516 . S
C919 C920 1.502 . S
C919 C921 1.561 . S
C919 C922 1.526 . S
C920 H904 0.959 . S
C920 H905 0.959 . S
C920 H906 0.961 . S
C920 C919 1.502 . S
C921 H907 0.960 . S
C921 H908 0.961 . S
C921 H909 0.959 . S
C921 C919 1.561 . S
C922 C919 1.526 . S
C922 C923 1.396 . S
C922 C927 1.390 . S
C923 C917 1.465 . S
C923 C922 1.396 . S
C923 C924 1.399 . S
C924 H910 0.929 . S
C924 C923 1.399 . S
C924 C925 1.385 . S
C925 H911 0.931 . S
C925 C924 1.385 . S
C925 C926 1.389 . S
C926 C925 1.389 . S
C926 C927 1.387 . S
C927 H912 0.930 . S
C927 C922 1.390 . S
C927 C926 1.387 . S
H928 C940 0.930 . S
H929 C942 0.930 . S
H930 C943 0.930 . S
H931 C947 0.959 . S
H932 C947 0.959 . S
H933 C947 0.961 . S
H934 C948 0.960 . S
H935 C948 0.961 . S
H936 C948 0.959 . S
H937 C951 0.929 . S
H938 C952 0.931 . S
H939 C954 0.930 . S
C940 H928 0.930 . S
C940 C941 1.399 . S
C940 C945 1.399 . S
C941 C940 1.399 . S
C941 C942 1.376 . S
C942 H929 0.930 . S
C942 C941 1.376 . S
C942 C943 1.388 . S
C943 H930 0.930 . S
C943 C942 1.388 . S
C943 C944 1.390 . S
C944 C943 1.390 . S
C944 C945 1.394 . S
C944 C950 1.465 . S
C945 C940 1.399 . S
C945 C944 1.394 . S
C945 C946 1.516 . S
C946 C945 1.516 . S
C946 C947 1.502 . S
C946 C948 1.561 . S
C946 C949 1.526 . S
C947 H931 0.959 . S
C947 H932 0.959 . S
C947 H933 0.961 . S
C947 C946 1.502 . S
C948 H934 0.960 . S
C948 H935 0.961 . S
C948 H936 0.959 . S
C948 C946 1.561 . S
C949 C946 1.526 . S
C949 C950 1.396 . S
C949 C954 1.390 . S
C950 C944 1.465 . S
C950 C949 1.396 . S
C950 C951 1.399 . S
C951 H937 0.929 . S
C951 C950 1.399 . S
C951 C952 1.385 . S
C952 H938 0.931 . S
C952 C951 1.385 . S
C952 C953 1.389 . S
C953 C952 1.389 . S
C953 C954 1.387 . S
C954 H939 0.930 . S
C954 C949 1.390 . S
C954 C953 1.387 . S
H955 C967 0.930 . S
H956 C969 0.930 . S
H957 C970 0.930 . S
H958 C974 0.959 . S
H959 C974 0.959 . S
H960 C974 0.961 . S
H961 C975 0.960 . S
H962 C975 0.961 . S
H963 C975 0.959 . S
H964 C978 0.929 . S
H965 C979 0.931 . S
H966 C981 0.930 . S
C967 H955 0.930 . S
C967 C968 1.399 . S
C967 C972 1.399 . S
C968 C967 1.399 . S
C968 C969 1.376 . S
C969 H956 0.930 . S
C969 C968 1.376 . S
C969 C970 1.388 . S
C970 H957 0.930 . S
C970 C969 1.388 . S
C970 C971 1.390 . S
C971 C970 1.390 . S
C971 C972 1.394 . S
C971 C977 1.465 . S
C972 C967 1.399 . S
C972 C971 1.394 . S
C972 C973 1.516 . S
C973 C972 1.516 . S
C973 C974 1.502 . S
C973 C975 1.561 . S
C973 C976 1.526 . S
C974 H958 0.959 . S
C974 H959 0.959 . S
C974 H960 0.961 . S
C974 C973 1.502 . S
C975 H961 0.960 . S
C975 H962 0.961 . S
C975 H963 0.959 . S
C975 C973 1.561 . S
C976 C973 1.526 . S
C976 C977 1.396 . S
C976 C981 1.390 . S
C977 C971 1.465 . S
C977 C976 1.396 . S
C977 C978 1.399 . S
C978 H964 0.929 . S
C978 C977 1.399 . S
C978 C979 1.385 . S
C979 H965 0.931 . S
C979 C978 1.385 . S
C979 C980 1.389 . S
C980 C979 1.389 . S
C980 C981 1.387 . S
C981 H966 0.930 . S
C981 C976 1.390 . S
C981 C980 1.387 . S
H982 C994 0.930 . S
H983 C996 0.930 . S
H984 C997 0.930 . S
H985 C1001 0.959 . S
H986 C1001 0.959 . S
H987 C1001 0.961 . S
H988 C1002 0.960 . S
H989 C1002 0.961 . S
H990 C1002 0.959 . S
H991 C1005 0.929 . S
H992 C1006 0.931 . S
H993 C1008 0.930 . S
C994 H982 0.930 . S
C994 C995 1.399 . S
C994 C999 1.399 . S
C995 C994 1.399 . S
C995 C996 1.376 . S
C996 H983 0.930 . S
C996 C995 1.376 . S
C996 C997 1.388 . S
C997 H984 0.930 . S
C997 C996 1.388 . S
C997 C998 1.390 . S
C998 C997 1.390 . S
C998 C999 1.394 . S
C998 C1004 1.465 . S
C999 C994 1.399 . S
C999 C998 1.394 . S
C999 C1000 1.516 . S
C1000 C999 1.516 . S
C1000 C1001 1.502 . S
C1000 C1002 1.561 . S
C1000 C1003 1.526 . S
C1001 H985 0.959 . S
C1001 H986 0.959 . S
C1001 H987 0.961 . S
C1001 C1000 1.502 . S
C1002 H988 0.960 . S
C1002 H989 0.961 . S
C1002 H990 0.959 . S
C1002 C1000 1.561 . S
C1003 C1000 1.526 . S
C1003 C1004 1.396 . S
C1003 C1008 1.390 . S
C1004 C998 1.465 . S
C1004 C1003 1.396 . S
C1004 C1005 1.399 . S
C1005 H991 0.929 . S
C1005 C1004 1.399 . S
C1005 C1006 1.385 . S
C1006 H992 0.931 . S
C1006 C1005 1.385 . S
C1006 C1007 1.389 . S
C1007 C1006 1.389 . S
C1007 C1008 1.387 . S
C1008 H993 0.930 . S
C1008 C1003 1.390 . S
C1008 C1007 1.387 . S
H1009 C1021 0.930 . S
H1010 C1023 0.930 . S
H1011 C1024 0.930 . S
H1012 C1028 0.959 . S
H1013 C1028 0.959 . S
H1014 C1028 0.961 . S
H1015 C1029 0.960 . S
H1016 C1029 0.961 . S
H1017 C1029 0.959 . S
H1018 C1032 0.929 . S
H1019 C1033 0.931 . S
H1020 C1035 0.930 . S
C1021 H1009 0.930 . S
C1021 C1022 1.399 . S
C1021 C1026 1.399 . S
C1022 C1021 1.399 . S
C1022 C1023 1.376 . S
C1023 H1010 0.930 . S
C1023 C1022 1.376 . S
C1023 C1024 1.388 . S
C1024 H1011 0.930 . S
C1024 C1023 1.388 . S
C1024 C1025 1.390 . S
C1025 C1024 1.390 . S
C1025 C1026 1.394 . S
C1025 C1031 1.465 . S
C1026 C1021 1.399 . S
C1026 C1025 1.394 . S
C1026 C1027 1.516 . S
C1027 C1026 1.516 . S
C1027 C1028 1.502 . S
C1027 C1029 1.561 . S
C1027 C1030 1.526 . S
C1028 H1012 0.959 . S
C1028 H1013 0.959 . S
C1028 H1014 0.961 . S
C1028 C1027 1.502 . S
C1029 H1015 0.960 . S
C1029 H1016 0.961 . S
C1029 H1017 0.959 . S
C1029 C1027 1.561 . S
C1030 C1027 1.526 . S
C1030 C1031 1.396 . S
C1030 C1035 1.390 . S
C1031 C1025 1.465 . S
C1031 C1030 1.396 . S
C1031 C1032 1.399 . S
C1032 H1018 0.929 . S
C1032 C1031 1.399 . S
C1032 C1033 1.385 . S
C1033 H1019 0.931 . S
C1033 C1032 1.385 . S
C1033 C1034 1.389 . S
C1034 C1033 1.389 . S
C1034 C1035 1.387 . S
C1035 H1020 0.930 . S
C1035 C1030 1.390 . S
C1035 C1034 1.387 . S
H1036 C1048 0.930 . S
H1037 C1050 0.930 . S
H1038 C1051 0.930 . S
H1039 C1055 0.959 . S
H1040 C1055 0.959 . S
H1041 C1055 0.961 . S
H1042 C1056 0.960 . S
H1043 C1056 0.961 . S
H1044 C1056 0.959 . S
H1045 C1059 0.929 . S
H1046 C1060 0.931 . S
H1047 C1062 0.930 . S
C1048 H1036 0.930 . S
C1048 C1049 1.399 . S
C1048 C1053 1.399 . S
C1049 C1048 1.399 . S
C1049 C1050 1.376 . S
C1050 H1037 0.930 . S
C1050 C1049 1.376 . S
C1050 C1051 1.388 . S
C1051 H1038 0.930 . S
C1051 C1050 1.388 . S
C1051 C1052 1.390 . S
C1052 C1051 1.390 . S
C1052 C1053 1.394 . S
C1052 C1058 1.465 . S
C1053 C1048 1.399 . S
C1053 C1052 1.394 . S
C1053 C1054 1.516 . S
C1054 C1053 1.516 . S
C1054 C1055 1.502 . S
C1054 C1056 1.561 . S
C1054 C1057 1.526 . S
C1055 H1039 0.959 . S
C1055 H1040 0.959 . S
C1055 H1041 0.961 . S
C1055 C1054 1.502 . S
C1056 H1042 0.960 . S
C1056 H1043 0.961 . S
C1056 H1044 0.959 . S
C1056 C1054 1.561 . S
C1057 C1054 1.526 . S
C1057 C1058 1.396 . S
C1057 C1062 1.390 . S
C1058 C1052 1.465 . S
C1058 C1057 1.396 . S
C1058 C1059 1.399 . S
C1059 H1045 0.929 . S
C1059 C1058 1.399 . S
C1059 C1060 1.385 . S
C1060 H1046 0.931 . S
C1060 C1059 1.385 . S
C1060 C1061 1.389 . S
C1061 C1060 1.389 . S
C1061 C1062 1.387 . S
C1062 H1047 0.930 . S
C1062 C1057 1.390 . S
C1062 C1061 1.387 . S
H1063 C1075 0.930 . S
H1064 C1077 0.930 . S
H1065 C1078 0.930 . S
H1066 C1082 0.959 . S
H1067 C1082 0.959 . S
H1068 C1082 0.961 . S
H1069 C1083 0.960 . S
H1070 C1083 0.961 . S
H1071 C1083 0.959 . S
H1072 C1086 0.929 . S
H1073 C1087 0.931 . S
H1074 C1089 0.930 . S
C1075 H1063 0.930 . S
C1075 C1076 1.399 . S
C1075 C1080 1.399 . S
C1076 C1075 1.399 . S
C1076 C1077 1.376 . S
C1077 H1064 0.930 . S
C1077 C1076 1.376 . S
C1077 C1078 1.388 . S
C1078 H1065 0.930 . S
C1078 C1077 1.388 . S
C1078 C1079 1.390 . S
C1079 C1078 1.390 . S
C1079 C1080 1.394 . S
C1079 C1085 1.465 . S
C1080 C1075 1.399 . S
C1080 C1079 1.394 . S
C1080 C1081 1.516 . S
C1081 C1080 1.516 . S
C1081 C1082 1.502 . S
C1081 C1083 1.561 . S
C1081 C1084 1.526 . S
C1082 H1066 0.959 . S
C1082 H1067 0.959 . S
C1082 H1068 0.961 . S
C1082 C1081 1.502 . S
C1083 H1069 0.960 . S
C1083 H1070 0.961 . S
C1083 H1071 0.959 . S
C1083 C1081 1.561 . S
C1084 C1081 1.526 . S
C1084 C1085 1.396 . S
C1084 C1089 1.390 . S
C1085 C1079 1.465 . S
C1085 C1084 1.396 . S
C1085 C1086 1.399 . S
C1086 H1072 0.929 . S
C1086 C1085 1.399 . S
C1086 C1087 1.385 . S
C1087 H1073 0.931 . S
C1087 C1086 1.385 . S
C1087 C1088 1.389 . S
C1088 C1087 1.389 . S
C1088 C1089 1.387 . S
C1089 H1074 0.930 . S
C1089 C1084 1.390 . S
C1089 C1088 1.387 . S
H1090 C1102 0.930 . S
H1091 C1104 0.930 . S
H1092 C1105 0.930 . S
H1093 C1109 0.959 . S
H1094 C1109 0.959 . S
H1095 C1109 0.961 . S
H1096 C1110 0.960 . S
H1097 C1110 0.961 . S
H1098 C1110 0.959 . S
H1099 C1113 0.929 . S
H1100 C1114 0.931 . S
H1101 C1116 0.930 . S
C1102 H1090 0.930 . S
C1102 C1103 1.399 . S
C1102 C1107 1.399 . S
C1103 C1102 1.399 . S
C1103 C1104 1.376 . S
C1104 H1091 0.930 . S
C1104 C1103 1.376 . S
C1104 C1105 1.388 . S
C1105 H1092 0.930 . S
C1105 C1104 1.388 . S
C1105 C1106 1.390 . S
C1106 C1105 1.390 . S
C1106 C1107 1.394 . S
C1106 C1112 1.465 . S
C1107 C1102 1.399 . S
C1107 C1106 1.394 . S
C1107 C1108 1.516 . S
C1108 C1107 1.516 . S
C1108 C1109 1.502 . S
C1108 C1110 1.561 . S
C1108 C1111 1.526 . S
C1109 H1093 0.959 . S
C1109 H1094 0.959 . S
C1109 H1095 0.961 . S
C1109 C1108 1.502 . S
C1110 H1096 0.960 . S
C1110 H1097 0.961 . S
C1110 H1098 0.959 . S
C1110 C1108 1.561 . S
C1111 C1108 1.526 . S
C1111 C1112 1.396 . S
C1111 C1116 1.390 . S
C1112 C1106 1.465 . S
C1112 C1111 1.396 . S
C1112 C1113 1.399 . S
C1113 H1099 0.929 . S
C1113 C1112 1.399 . S
C1113 C1114 1.385 . S
C1114 H1100 0.931 . S
C1114 C1113 1.385 . S
C1114 C1115 1.389 . S
C1115 C1114 1.389 . S
C1115 C1116 1.387 . S
C1116 H1101 0.930 . S
C1116 C1111 1.390 . S
C1116 C1115 1.387 . S
H1117 C1129 0.930 . S
H1118 C1131 0.930 . S
H1119 C1132 0.930 . S
H1120 C1136 0.959 . S
H1121 C1136 0.959 . S
H1122 C1136 0.961 . S
H1123 C1137 0.960 . S
H1124 C1137 0.961 . S
H1125 C1137 0.959 . S
H1126 C1140 0.929 . S
H1127 C1141 0.931 . S
H1128 C1143 0.930 . S
C1129 H1117 0.930 . S
C1129 C1130 1.399 . S
C1129 C1134 1.399 . S
C1130 C1129 1.399 . S
C1130 C1131 1.376 . S
C1131 H1118 0.930 . S
C1131 C1130 1.376 . S
C1131 C1132 1.388 . S
C1132 H1119 0.930 . S
C1132 C1131 1.388 . S
C1132 C1133 1.390 . S
C1133 C1132 1.390 . S
C1133 C1134 1.394 . S
C1133 C1139 1.465 . S
C1134 C1129 1.399 . S
C1134 C1133 1.394 . S
C1134 C1135 1.516 . S
C1135 C1134 1.516 . S
C1135 C1136 1.502 . S
C1135 C1137 1.561 . S
C1135 C1138 1.526 . S
C1136 H1120 0.959 . S
C1136 H1121 0.959 . S
C1136 H1122 0.961 . S
C1136 C1135 1.502 . S
C1137 H1123 0.960 . S
C1137 H1124 0.961 . S
C1137 H1125 0.959 . S
C1137 C1135 1.561 . S
C1138 C1135 1.526 . S
C1138 C1139 1.396 . S
C1138 C1143 1.390 . S
C1139 C1133 1.465 . S
C1139 C1138 1.396 . S
C1139 C1140 1.399 . S
C1140 H1126 0.929 . S
C1140 C1139 1.399 . S
C1140 C1141 1.385 . S
C1141 H1127 0.931 . S
C1141 C1140 1.385 . S
C1141 C1142 1.389 . S
C1142 C1141 1.389 . S
C1142 C1143 1.387 . S
C1143 H1128 0.930 . S
C1143 C1138 1.390 . S
C1143 C1142 1.387 . S
C305 C169 1.498 . S
C293 C12 1.429 . S
C332 C195 1.498 . S
C320 C33 1.431 . S
C359 C209 1.500 . S
C347 C51 1.429 . S
C386 C211 1.495 . S
C374 C75 1.435 . S
C401 C103 1.420 . S
C413 C208 1.491 . S
C440 C210 1.495 . S
C428 C122 1.428 . S
C467 C168 1.490 . S
C455 C145 1.434 . S
C494 C194 1.499 . S
C482 C166 1.373 . S
C521 C196 1.513 . S
C509 C164 1.351 . S
C548 C222 1.515 . S
C536 C101 1.369 . S
C575 C180 1.501 . S
C563 C124 1.373 . S
C602 C182 1.505 . S
C590 C143 1.381 . S
C629 C181 1.503 . S
C617 C30 1.358 . S
C656 C183 1.500 . S
C644 C54 1.411 . S
C683 C197 1.486 . S
C671 C72 1.447 . S
C710 C223 1.495 . S
C698 C9 1.385 . S
C737 C225 1.496 . S
C725 C159 1.436 . S
C752 C96 1.360 . S
C764 C251 1.514 . S
C779 C114 1.417 . S
C791 C264 1.492 . S
C806 C138 1.441 . S
C818 C267 1.500 . S
C833 C40 1.453 . S
C845 C265 1.495 . S
C860 C59 1.344 . S
C872 C266 1.510 . S
C887 C82 1.425 . S
C899 C224 1.492 . S
C926 C250 1.486 . S
C914 C19 1.430 . S
C953 C253 1.495 . S
C941 C17 1.456 . S
C968 C38 1.408 . S
C980 C278 1.506 . S
C995 C61 1.396 . S
C1007 C236 1.503 . S
C1022 C80 1.436 . S
C1034 C238 1.492 . S
C1061 C237 1.506 . S
C1049 C93 1.366 . S
C1088 C239 1.505 . S
C1076 C117 1.384 . S
C1103 C135 1.359 . S
C1115 C252 1.501 . S
C1142 C279 1.509 . S
C1130 C156 1.377 . S
