# Generated by pormake.
# Topology eea, (3,6)-cn, num edge types: 1
# Building blocks:
#     Node 0, Type 0, BuildingBlock: CUQRIR_clean_linker_1, # of connection points: 3
#     Node 1, Type 0, BuildingBlock: CUQRIR_clean_linker_1, # of connection points: 3
#     Node 2, Type 0, BuildingBlock: CUQRIR_clean_linker_1, # of connection points: 3
#     Node 3, Type 0, BuildingBlock: CUQRIR_clean_linker_1, # of connection points: 3
#     Node 4, Type 0, BuildingBlock: CUQRIR_clean_linker_1, # of connection points: 3
#     Node 5, Type 0, BuildingBlock: CUQRIR_clean_linker_1, # of connection points: 3
#     Node 6, Type 0, BuildingBlock: CUQRIR_clean_linker_1, # of connection points: 3
#     Node 7, Type 0, BuildingBlock: CUQRIR_clean_linker_1, # of connection points: 3
#     Node 8, Type 0, BuildingBlock: CUQRIR_clean_linker_1, # of connection points: 3
#     Node 9, Type 0, BuildingBlock: CUQRIR_clean_linker_1, # of connection points: 3
#     Node 10, Type 0, BuildingBlock: CUQRIR_clean_linker_1, # of connection points: 3
#     Node 11, Type 0, BuildingBlock: CUQRIR_clean_linker_1, # of connection points: 3
#     Node 12, Type 0, BuildingBlock: CUQRIR_clean_linker_1, # of connection points: 3
#     Node 13, Type 0, BuildingBlock: CUQRIR_clean_linker_1, # of connection points: 3
#     Node 14, Type 0, BuildingBlock: CUQRIR_clean_linker_1, # of connection points: 3
#     Node 15, Type 0, BuildingBlock: CUQRIR_clean_linker_1, # of connection points: 3
#     Node 16, Type 0, BuildingBlock: CUQRIR_clean_linker_1, # of connection points: 3
#     Node 17, Type 0, BuildingBlock: CUQRIR_clean_linker_1, # of connection points: 3
#     Node 18, Type 1, BuildingBlock: KUMJIN_clean_sbu_0, # of connection points: 6
#     Node 19, Type 1, BuildingBlock: KUMJIN_clean_sbu_0, # of connection points: 6
#     Node 20, Type 1, BuildingBlock: KUMJIN_clean_sbu_0, # of connection points: 6
#     Node 21, Type 1, BuildingBlock: KUMJIN_clean_sbu_0, # of connection points: 6
#     Node 22, Type 1, BuildingBlock: KUMJIN_clean_sbu_0, # of connection points: 6
#     Node 23, Type 1, BuildingBlock: KUMJIN_clean_sbu_0, # of connection points: 6
#     Node 24, Type 1, BuildingBlock: KUMJIN_clean_sbu_0, # of connection points: 6
#     Node 25, Type 1, BuildingBlock: KUMJIN_clean_sbu_0, # of connection points: 6
#     Node 26, Type 1, BuildingBlock: KUMJIN_clean_sbu_0, # of connection points: 6
#     Edge 27, Type (0, 1), None
#     Edge 28, Type (0, 1), None
#     Edge 29, Type (0, 1), None
#     Edge 30, Type (0, 1), None
#     Edge 31, Type (0, 1), None
#     Edge 32, Type (0, 1), None
#     Edge 33, Type (0, 1), None
#     Edge 34, Type (0, 1), None
#     Edge 35, Type (0, 1), None
#     Edge 36, Type (0, 1), None
#     Edge 37, Type (0, 1), None
#     Edge 38, Type (0, 1), None
#     Edge 39, Type (0, 1), None
#     Edge 40, Type (0, 1), None
#     Edge 41, Type (0, 1), None
#     Edge 42, Type (0, 1), None
#     Edge 43, Type (0, 1), None
#     Edge 44, Type (0, 1), None
#     Edge 45, Type (0, 1), None
#     Edge 46, Type (0, 1), None
#     Edge 47, Type (0, 1), None
#     Edge 48, Type (0, 1), None
#     Edge 49, Type (0, 1), None
#     Edge 50, Type (0, 1), None
#     Edge 51, Type (0, 1), None
#     Edge 52, Type (0, 1), None
#     Edge 53, Type (0, 1), None
#     Edge 54, Type (0, 1), None
#     Edge 55, Type (0, 1), None
#     Edge 56, Type (0, 1), None
#     Edge 57, Type (0, 1), None
#     Edge 58, Type (0, 1), None
#     Edge 59, Type (0, 1), None
#     Edge 60, Type (0, 1), None
#     Edge 61, Type (0, 1), None
#     Edge 62, Type (0, 1), None
#     Edge 63, Type (0, 1), None
#     Edge 64, Type (0, 1), None
#     Edge 65, Type (0, 1), None
#     Edge 66, Type (0, 1), None
#     Edge 67, Type (0, 1), None
#     Edge 68, Type (0, 1), None
#     Edge 69, Type (0, 1), None
#     Edge 70, Type (0, 1), None
#     Edge 71, Type (0, 1), None
#     Edge 72, Type (0, 1), None
#     Edge 73, Type (0, 1), None
#     Edge 74, Type (0, 1), None
#     Edge 75, Type (0, 1), None
#     Edge 76, Type (0, 1), None
#     Edge 77, Type (0, 1), None
#     Edge 78, Type (0, 1), None
#     Edge 79, Type (0, 1), None
#     Edge 80, Type (0, 1), None
# Relax obj value: 0.042
# Max RMSD: 0.309
# Mean RMSD: 0.215
data_MOF--net-eea--node1-KUMJIN_clean_sbu_0--node2-CUQRIR_clean_linker_1--edge1-none
_symmetry_space_group_name_H-M    P1
_symmetry_Int_Tables_number       1
_symmetry_cell_setting            triclinic
loop_
_symmetry_equiv_pos_as_xyz
'x, y, z'
_cell_length_a     16.955181
_cell_length_b     20.470738
_cell_length_c     33.235136
_cell_angle_alpha  85.112568
_cell_angle_beta   91.363406
_cell_angle_gamma 118.54558
loop_
_atom_site_label
_atom_site_type_symbol
_atom_site_fract_x
_atom_site_fract_y
_atom_site_fract_z
_atom_type_partial_charge
C0 C 0.23549 0.08784 0.38868 0.0
N1 N 0.2053 0.12854 0.40754 0.0
N2 N 0.22831 0.02834 0.41338 0.0
C3 C 0.30882 0.1226 0.35689 0.0
C4 C 0.20442 0.04065 0.44953 0.0
N5 N 0.19918 0.10488 0.44698 0.0
C6 C 0.18657 0.99229 0.48867 0.0
H7 H 0.29362 0.08707 0.33157 0.0
H8 H 0.37125 0.12657 0.37045 0.0
H9 H 0.32408 0.17973 0.3464 0.0
H10 H 0.2427 0.02059 0.50931 0.0
H11 H 0.17805 0.93648 0.48593 0.0
H12 H 0.12465 0.98548 0.50329 0.0
C13 C 0.91338 0.11533 0.38412 0.0
N14 N 0.95842 0.17637 0.4056 0.0
N15 N 0.85679 0.05277 0.4077 0.0
C16 C 0.89571 0.12552 0.34123 0.0
C17 C 0.8681 0.0792 0.44501 0.0
N18 N 0.92442 0.1547 0.4437 0.0
C19 C 0.83988 0.02989 0.48387 0.0
H20 H 0.83326 0.07954 0.33089 0.0
H21 H 0.95473 0.1334 0.32439 0.0
H22 H 0.88472 0.17441 0.33786 0.0
H23 H 0.90097 0.03965 0.50098 0.0
H24 H 0.80417 0.97001 0.47972 0.0
H25 H 0.79814 0.04416 0.50246 0.0
C26 C 0.91931 0.82499 0.39932 0.0
N27 N 0.96607 0.78713 0.40831 0.0
N28 N 0.83174 0.77579 0.39214 0.0
C29 C 0.94594 0.89723 0.41752 0.0
C30 C 0.82883 0.70899 0.4015 0.0
N31 N 0.90756 0.71553 0.41446 0.0
C32 C 0.74677 0.6356 0.40299 0.0
H33 H 0.91295 0.92758 0.40269 0.0
H34 H 0.01988 0.93268 0.4172 0.0
H35 H 0.92314 0.88428 0.44964 0.0
H36 H 0.76289 0.59302 0.39273 0.0
H37 H 0.69159 0.63633 0.38469 0.0
H38 H 0.72892 0.62211 0.4353 0.0
C39 C 0.11941 0.20009 0.67485 0.0
N40 N 0.20448 0.24509 0.65932 0.0
N41 N 0.07398 0.24003 0.67604 0.0
C42 C 0.07062 0.12107 0.66443 0.0
C43 C 0.13138 0.30667 0.65578 0.0
N44 N 0.20667 0.30755 0.64316 0.0
C45 C 0.11662 0.37429 0.64927 0.0
H46 H 0.05185 0.12069 0.63219 0.0
H47 H 1.00751 0.08872 0.6821 0.0
H48 H 0.11539 0.09588 0.66743 0.0
H49 H 0.08171 0.37893 0.6757 0.0
H50 H 0.07621 0.36974 0.62184 0.0
H51 H 0.18057 0.42701 0.64563 0.0
C52 C 0.77927 0.88033 0.69282 0.0
N53 N 0.77511 0.8288 0.66778 0.0
N54 N 0.79212 0.9448 0.67125 0.0
C55 C 0.73947 0.85774 0.7351 0.0
C56 C 0.79153 0.92761 0.63217 0.0
N57 N 0.77425 0.8557 0.62965 0.0
C58 C 0.82116 0.9841 0.5961 0.0
H59 H 0.6976 0.79622 0.73999 0.0
H60 H 0.69664 0.88363 0.74013 0.0
H61 H 0.79152 0.87564 0.75823 0.0
H62 H 0.88244 0.0353 0.60341 0.0
H63 H 0.76759 -0.00151 0.58757 0.0
H64 H 0.83894 0.96376 0.56993 0.0
C65 C 0.09022 0.89524 0.67189 0.0
N66 N 0.0688 0.8275 0.65694 0.0
N67 N 0.17707 0.95194 0.65996 0.0
C68 C 1.01465 0.91264 0.6748 0.0
C69 C 0.19645 0.91784 0.63132 0.0
N70 N 0.13514 0.84489 0.63034 0.0
C71 C 0.26537 0.95921 0.59904 0.0
H72 H 0.03816 0.97297 0.6715 0.0
H73 H 0.97586 0.88519 0.7028 0.0
H74 H 0.96778 0.88894 0.64968 0.0
H75 H 0.26334 0.92359 0.57552 0.0
H76 H 0.33077 0.98352 0.61371 0.0
H77 H 0.25357 0.00445 0.5845 0.0
C78 C 0.90216 0.42118 0.72202 0.0
N79 N 0.87196 0.46188 0.74088 0.0
N80 N 0.89498 0.36169 0.74673 0.0
C81 C 0.97549 0.45594 0.69023 0.0
C82 C 0.87107 0.37399 0.78287 0.0
N83 N 0.86582 0.43822 0.78032 0.0
C84 C 0.85322 0.32563 0.82201 0.0
H85 H 0.9603 0.42042 0.66491 0.0
H86 H 0.03793 0.45993 0.70379 0.0
H87 H 0.99074 0.51307 0.67974 0.0
H88 H 0.90936 0.35392 0.84265 0.0
H89 H 0.84469 0.26981 0.81927 0.0
H90 H 0.79131 0.31882 0.83663 0.0
C91 C 0.58005 0.44866 0.71746 0.0
N92 N 0.62509 0.5097 0.73894 0.0
N93 N 0.52346 0.3861 0.74104 0.0
C94 C 0.56237 0.45885 0.67457 0.0
C95 C 0.53477 0.41253 0.77835 0.0
N96 N 0.59109 0.48803 0.77704 0.0
C97 C 0.50657 0.36322 0.81721 0.0
H98 H 0.49992 0.41287 0.66424 0.0
H99 H 0.62139 0.46673 0.65773 0.0
H100 H 0.55138 0.50773 0.6712 0.0
H101 H 0.56766 0.37299 0.83432 0.0
H102 H 0.47087 0.30333 0.81306 0.0
H103 H 0.46482 0.37748 0.8358 0.0
C104 C 0.58598 0.15832 0.73266 0.0
N105 N 0.63275 0.12047 0.74164 0.0
N106 N 0.49841 0.10912 0.72548 0.0
C107 C 0.61262 0.23056 0.75086 0.0
C108 C 0.49551 0.04232 0.73484 0.0
N109 N 0.57425 0.04886 0.74779 0.0
C110 C 0.41345 0.96893 0.73633 0.0
H111 H 0.57963 0.26091 0.73603 0.0
H112 H 0.68656 0.26601 0.75054 0.0
H113 H 0.58983 0.21761 0.78298 0.0
H114 H 0.42957 0.92635 0.72607 0.0
H115 H 0.35826 0.96966 0.71803 0.0
H116 H 0.39561 0.95543 0.76864 0.0
C117 C 0.78613 0.53347 1.00818 0.0
N118 N 0.87123 0.5785 0.99268 0.0
N119 N 0.74066 0.57337 1.00934 0.0
C120 C 0.73739 0.45443 0.9978 0.0
C121 C 0.79808 0.64004 0.9891 0.0
N122 N 0.87342 0.64095 0.97652 0.0
C123 C 0.78337 0.70768 0.98265 0.0
H124 H 0.71858 0.45399 0.96556 0.0
H125 H 0.67429 0.42208 1.01549 0.0
H126 H 0.78218 0.42926 1.00081 0.0
H127 H 0.7484 0.71224 1.00909 0.0
H128 H 0.74302 0.70323 0.95521 0.0
H129 H 0.84735 0.76039 0.97907 0.0
C130 C 0.44595 0.21367 0.02615 0.0
N131 N 0.44179 0.16214 1.00112 0.0
N132 N 0.4588 0.27814 1.00459 0.0
C133 C 0.40614 0.19107 0.06843 0.0
C134 C 0.45819 0.26094 0.96551 0.0
N135 N 0.44092 0.18904 0.96299 0.0
C136 C 0.48782 0.31744 0.92943 0.0
H137 H 0.36409 0.12957 0.07328 0.0
H138 H 0.36348 0.2171 0.0735 0.0
H139 H 0.45817 0.20878 0.09157 0.0
H140 H 0.5491 0.36864 0.93675 0.0
H141 H 0.43424 0.33181 0.9209 0.0
H142 H 0.50561 0.2971 0.90327 0.0
C143 C 0.75687 0.22857 1.00521 0.0
N144 N 0.73547 0.16083 0.99027 0.0
N145 N 0.84372 0.28528 0.99328 0.0
C146 C 0.6813 0.24596 1.0081 0.0
C147 C 0.86311 0.25118 0.96464 0.0
N148 N 0.80181 0.17822 0.96367 0.0
C149 C 0.93202 0.29254 0.93236 0.0
H150 H 0.70479 0.3063 1.0048 0.0
H151 H 0.64248 0.21849 0.03609 0.0
H152 H 0.63445 0.22227 0.98297 0.0
H153 H 0.93 0.25692 0.90884 0.0
H154 H 0.99742 0.31686 0.94703 0.0
H155 H 0.92021 0.33778 0.91782 0.0
C156 C 0.56888 0.75453 0.05534 0.0
N157 N 0.53866 0.79521 0.0742 0.0
N158 N 0.56174 0.69505 0.08005 0.0
C159 C 0.64218 0.78929 0.02354 0.0
C160 C 0.53784 0.70734 0.11619 0.0
N161 N 0.53255 0.77156 0.11365 0.0
C162 C 0.52006 0.659 0.15534 0.0
H163 H 0.62699 0.75375 0.99823 0.0
H164 H 0.70464 0.7933 0.03709 0.0
H165 H 0.6574 0.84641 1.01304 0.0
H166 H 0.57618 0.68733 0.17598 0.0
H167 H 0.51161 0.60322 0.1526 0.0
H168 H 0.45812 0.65214 0.16996 0.0
C169 C 0.24665 0.782 0.05077 0.0
N170 N 0.29174 0.84302 0.07226 0.0
N171 N 0.19013 0.71943 0.07435 0.0
C172 C 0.22889 0.7922 1.00789 0.0
C173 C 0.20153 0.74581 0.11168 0.0
N174 N 0.25781 0.82132 0.11037 0.0
C175 C 0.17375 0.69643 0.15052 0.0
H176 H 0.16643 0.74623 0.99757 0.0
H177 H 0.28788 0.80007 0.99103 0.0
H178 H 0.2179 0.8411 1.00455 0.0
H179 H 0.235 0.70649 0.16758 0.0
H180 H 0.13847 0.63656 0.1463 0.0
H181 H 0.13175 0.7103 0.1692 0.0
C182 C 0.25273 0.49166 0.066 0.0
N183 N 0.29951 0.45382 0.075 0.0
N184 N 0.16517 0.44244 0.05881 0.0
C185 C 0.27933 0.5639 0.0842 0.0
C186 C 0.16228 0.37566 0.06817 0.0
N187 N 0.24102 0.38221 0.08113 0.0
C188 C 0.08023 0.30225 0.06966 0.0
H189 H 0.24631 0.59423 0.06936 0.0
H190 H 0.35326 0.59937 0.08388 0.0
H191 H 0.25652 0.55094 0.11631 0.0
H192 H 0.09637 0.25968 0.0594 0.0
H193 H 0.02504 0.30297 0.05136 0.0
H194 H 0.06237 0.28874 0.10196 0.0
C195 C 0.45272 0.86675 0.34151 0.0
N196 N 0.53779 0.91176 0.32598 0.0
N197 N 0.40728 0.90668 0.34271 0.0
C198 C 0.40394 0.78773 0.33109 0.0
C199 C 0.46468 0.97333 0.32244 0.0
N200 N 0.53998 0.97421 0.30983 0.0
C201 C 0.44991 0.04094 0.31593 0.0
H202 H 0.38516 0.78735 0.29885 0.0
H203 H 0.34083 0.75537 0.34877 0.0
H204 H 0.44872 0.76255 0.3341 0.0
H205 H 0.41498 0.04556 0.34237 0.0
H206 H 0.40952 0.0364 0.2885 0.0
H207 H 0.51386 0.09367 0.31231 0.0
C208 C 0.11257 0.54697 0.35949 0.0
N209 N 0.10841 0.49543 0.33446 0.0
N210 N 0.1254 0.61143 0.33793 0.0
C211 C 0.07279 0.52438 0.40178 0.0
C212 C 0.1248 0.59424 0.29885 0.0
N213 N 0.10754 0.52234 0.29633 0.0
C214 C 0.15438 0.65072 0.26277 0.0
H215 H 0.03096 0.46286 0.40668 0.0
H216 H 0.02992 0.55024 0.40681 0.0
H217 H 0.12484 0.54232 0.4249 0.0
H218 H 0.21572 0.7019 0.27006 0.0
H219 H 0.10084 0.66516 0.25429 0.0
H220 H 0.17204 0.63037 0.23658 0.0
C221 C 0.42355 0.56192 0.33855 0.0
N222 N 0.40214 0.49418 0.32361 0.0
N223 N 0.51039 0.61863 0.32662 0.0
C224 C 0.34797 0.5793 0.34147 0.0
C225 C 0.52976 0.58454 0.29798 0.0
N226 N 0.46848 0.51158 0.29701 0.0
C227 C 0.59864 0.62593 0.26567 0.0
H228 H 0.37146 0.63964 0.33817 0.0
H229 H 0.30918 0.55185 0.36947 0.0
H230 H 0.3011 0.5556 0.31635 0.0
H231 H 0.5966 0.59034 0.24213 0.0
H232 H 0.66405 0.65024 0.28033 0.0
H233 H 0.58681 0.67117 0.25116 0.0
Eu234 Eu 0.4937 0.96347 0.97632 0.0
C235 C 0.73404 0.14397 0.0981 0.0
C236 C 0.84292 0.10542 0.08175 0.0
C237 C 0.88905 0.21525 0.11786 0.0
C238 C 0.75389 0.09407 0.08169 0.0
C239 C 0.80138 0.20438 0.11704 0.0
C240 C 0.90934 0.1648 0.10068 0.0
C241 C 0.6888 0.23387 0.13811 0.0
N242 N 0.64836 0.13204 0.09718 0.0
C243 C 0.62593 0.17801 0.11536 0.0
C244 C 0.77726 0.248 0.13809 0.0
Eu245 Eu 0.53637 0.0161 0.07788 0.0
N246 N 0.68622 0.03366 0.06632 0.0
C247 C 0.70798 0.99003 0.04491 0.0
C248 C 0.8616 0.05387 0.06524 0.0
C249 C 0.79354 0.996 0.0463 0.0
H250 H 0.55741 0.16782 0.11517 0.0
H251 H 0.80798 0.95842 0.03078 0.0
H252 H 0.97444 0.16793 0.10484 0.0
H253 H 0.6693 0.26689 0.15501 0.0
H254 H 0.6623 0.95324 0.02474 0.0
H255 H 0.15153 0.91151 0.93759 0.0
H256 H 0.92861 0.05972 0.06572 0.0
H257 H 0.59315 0.86193 0.95996 0.0
H258 H 0.29407 0.9671 0.97294 0.0
H259 H 0.56797 0.74527 0.9358 0.0
H260 H 0.93913 0.25881 0.13479 0.0
H261 H 0.13157 0.85233 0.87625 0.0
H262 H 0.1436 0.76055 0.83583 0.0
H263 H 0.82628 0.29109 0.15518 0.0
H264 H 0.20544 0.65542 0.83346 0.0
N265 N 0.35081 0.91332 0.94247 0.0
C266 C 0.28804 0.93517 0.94783 0.0
C267 C 0.19388 0.86954 0.89189 0.0
C268 C 0.24771 0.83907 0.8835 0.0
C269 C 0.20729 0.90647 0.92653 0.0
C270 C 0.33312 0.85911 0.91713 0.0
H271 H 0.43208 0.65951 0.90892 0.0
N272 N 0.46147 0.84478 0.95236 0.0
C273 C 0.51347 0.75868 0.93471 0.0
C274 C 0.3894 0.81223 0.92838 0.0
C275 C 0.52669 0.82414 0.95058 0.0
C276 C 0.43387 0.70997 0.91715 0.0
C277 C 0.36668 0.73188 0.90695 0.0
O278 O 0.59218 0.98715 0.92921 0.0
O279 O 0.58209 0.06595 1.01294 0.0
O280 O 0.48837 0.09664 0.04845 0.0
O281 O 0.44794 0.05446 0.98391 0.0
O282 O 0.64477 0.03745 0.9712 0.0
O283 O 0.47892 0.00539 0.91396 0.0
O284 O 0.47972 0.03324 0.13304 0.0
O285 O 0.43422 0.92368 0.04078 0.0
O286 O 0.51127 0.86805 0.01902 0.0
O287 O 0.53218 0.90338 0.08451 0.0
O288 O 0.38667 0.96829 0.08012 0.0
O289 O 0.54921 0.96971 0.13866 0.0
C290 C 0.65732 0.08941 0.99392 0.0
C291 C 0.55178 0.97961 0.85902 0.0
C292 C 0.57365 0.00582 0.78469 0.0
C293 C 0.5552 0.02341 0.82294 0.0
C294 C 0.58387 0.94266 0.78253 0.0
C295 C 0.56483 0.91748 0.85512 0.0
C296 C 0.58108 0.89954 0.81766 0.0
C297 C 0.45479 0.1007 1.01203 0.0
C298 C 0.55089 0.00549 0.90026 0.0
C299 C 0.23556 0.69987 0.8537 0.0
C300 C 0.20121 0.76712 0.85285 0.0
C301 C 0.36113 0.91364 0.05777 0.0
C302 C 0.54448 0.02723 0.1987 0.0
C303 C 0.53857 0.9807 0.23421 0.0
C304 C 0.57986 0.01234 0.27088 0.0
C305 C 0.63528 0.0895 0.26957 0.0
C306 C 0.57818 0.10299 0.20389 0.0
C307 C 0.62936 0.13475 0.23727 0.0
C308 C 0.52691 0.85611 0.05868 0.0
C309 C 0.50763 0.99681 0.15835 0.0
H310 H 0.54733 0.07262 0.82454 0.0
H311 H 0.59509 0.92763 0.75363 0.0
H312 H 0.56718 0.88421 0.88107 0.0
H313 H 0.59263 0.85218 0.81599 0.0
H314 H 0.49614 0.92095 0.23435 0.0
H315 H 0.66854 0.11489 0.29665 0.0
H316 H 0.55969 0.13679 0.18384 0.0
H317 H 0.65974 0.19435 0.2393 0.0
Eu318 Eu 0.07788 0.53732 0.97667 0.0
C319 C 0.7695 0.46992 0.10249 0.0
C320 C 0.80898 0.64065 0.15405 0.0
C321 C 0.6191 0.51176 0.1472 0.0
C322 C 0.85578 0.54867 0.11487 0.0
C323 C 0.6561 0.44525 0.11222 0.0
C324 C 0.69456 0.60019 0.16338 0.0
C325 C 0.64221 0.33364 0.08208 0.0
N326 N 0.79568 0.42842 0.08389 0.0
C327 C 0.73326 0.35878 0.07694 0.0
C328 C 0.60661 0.37151 0.10109 0.0
Eu329 Eu 0.95826 0.48634 0.07647 0.0
N330 N 0.92539 0.59287 0.07998 0.0
C331 C 0.96403 0.68127 0.06389 0.0
C332 C 0.86815 0.73173 0.12817 0.0
C333 C 0.94022 0.74898 0.08518 0.0
H334 H 0.7522 0.3186 0.06947 0.0
H335 H 0.97181 0.8049 0.07041 0.0
H336 H 0.6689 0.63088 0.1784 0.0
H337 H 0.59714 0.27885 0.07383 0.0
H338 H 1.01259 0.70385 0.03926 0.0
H339 H 0.29925 0.32957 0.92011 0.0
H340 H 0.85212 0.77465 0.13532 0.0
H341 H 0.19681 0.73956 0.93447 0.0
H342 H 0.13464 0.34937 0.9939 0.0
H343 H 0.38243 0.86326 0.84676 0.0
H344 H 0.56749 0.49495 0.16822 0.0
H345 H 0.3697 0.4256 0.8664 0.0
H346 H 0.38518 0.52299 0.82274 0.0
H347 H 0.53942 0.33574 0.11048 0.0
H348 H 0.40689 0.64241 0.80203 0.0
N349 N 0.1774 0.45474 0.95516 0.0
C350 C 0.17859 0.38453 0.96897 0.0
C351 C 0.32535 0.4331 0.88611 0.0
C352 C 0.31338 0.50341 0.87856 0.0
C353 C 0.27836 0.37213 0.92115 0.0
C354 C 0.25451 0.52475 0.90665 0.0
H355 H 0.43147 0.77071 0.80987 0.0
N356 N 0.21469 0.64347 0.91687 0.0
C357 C 0.35559 0.80523 0.85888 0.0
C358 C 0.26546 0.60658 0.89134 0.0
C359 C 0.23759 0.72665 0.91521 0.0
C360 C 0.38687 0.74852 0.83593 0.0
C361 C 0.34099 0.65501 0.85158 0.0
O362 O 0.02594 0.59292 0.93351 0.0
O363 O 0.95164 0.51368 1.01193 0.0
O364 O 0.88342 0.3817 0.03848 0.0
O365 O 0.97899 0.40527 0.98352 0.0
O366 O 0.02529 0.61999 0.98247 0.0
O367 O 0.95329 0.47295 0.93941 0.0
O368 O 0.89864 0.4261 0.13474 0.0
O369 O 0.08696 0.51023 0.04294 0.0
O370 O 0.13666 0.62768 0.02652 0.0
O371 O 0.05837 0.60527 0.08568 0.0
O372 O 0.019 0.40932 0.07853 0.0
O373 O 0.04011 0.50678 0.13228 0.0
C374 C 0.94856 0.57291 1.00023 0.0
C375 C 0.95225 0.54009 0.8754 0.0
C376 C 0.91657 0.49087 0.80924 0.0
C377 C 0.89599 0.48192 0.85135 0.0
C378 C 0.99786 0.55031 0.79503 0.0
C379 C 1.01315 0.60857 0.8554 0.0
C380 C 0.03945 0.61183 0.81617 0.0
C381 C 0.90166 0.35919 1.00488 0.0
C382 C 0.95832 0.53359 0.92029 0.0
C383 C 0.36849 0.61557 0.82969 0.0
C384 C 0.3555 0.54528 0.84244 0.0
C385 C 0.09066 0.45251 0.05717 0.0
C386 C 0.97463 0.44393 0.20009 0.0
C387 C 0.05005 0.48477 0.22494 0.0
C388 C 0.04013 0.47603 0.2683 0.0
C389 C 0.95541 0.42687 0.28513 0.0
C390 C 0.89337 0.39264 0.21948 0.0
C391 C 0.88429 0.38555 0.26124 0.0
C392 C 0.12788 0.64931 0.06228 0.0
C393 C 0.97169 0.46087 0.15513 0.0
H394 H 0.84051 0.43167 0.86511 0.0
H395 H 0.02457 0.55092 0.76588 0.0
H396 H 0.04585 0.65802 0.87136 0.0
H397 H 0.09347 0.66097 0.80218 0.0
H398 H 0.11374 0.52355 0.21058 0.0
H399 H 0.94315 0.42123 0.3174 0.0
H400 H 0.83322 0.36237 0.20263 0.0
H401 H 0.81944 0.34951 0.27549 0.0
Eu402 Eu 0.53819 0.46099 0.10059 0.0
C403 C 0.31306 0.54075 0.97378 0.0
C404 C 0.16861 0.39752 0.90336 0.0
C405 C 0.11989 0.51631 0.92457 0.0
C406 C 0.31277 0.47239 0.95242 0.0
C407 C 0.22787 0.56763 0.96737 0.0
C408 C 0.09988 0.4388 0.8979 0.0
C409 C 0.34781 0.66993 1.00437 0.0
N410 N 0.38601 0.57236 0.99589 0.0
C411 C 0.40759 0.64159 1.00536 0.0
C412 C 0.26386 0.63521 0.98692 0.0
Eu413 Eu 0.48191 0.50846 0.99635 0.0
N414 N 0.32854 0.41764 0.98293 0.0
C415 C 0.26769 0.32741 0.98975 0.0
C416 C 0.12312 0.29968 0.91977 0.0
C417 C 0.17069 0.26907 0.96155 0.0
H418 H 0.47489 0.6812 1.00668 0.0
H419 H 0.13534 0.2112 0.97273 0.0
H420 H 0.04617 0.41868 0.87654 0.0
H421 H 0.37191 0.72577 1.01348 0.0
H422 H 0.28842 0.2983 1.01258 0.0
H423 H 1.01232 0.70684 0.13193 0.0
H424 H 0.06151 0.2586 0.90784 0.0
H425 H 0.49241 0.27746 0.17014 0.0
H426 H 0.80287 0.65701 0.06323 0.0
H427 H 0.53715 0.23272 0.23139 0.0
H428 H 0.09437 0.54248 0.90365 0.0
H429 H 0.99173 0.62897 0.19261 0.0
H430 H 0.90852 0.54141 0.24469 0.0
H431 H 0.23882 0.67338 0.98213 0.0
H432 H 0.78067 0.44135 0.27801 0.0
N433 N 0.7382 0.5627 0.11077 0.0
C434 C 0.81527 0.62905 0.08973 0.0
C435 C 0.93296 0.61363 0.17431 0.0
C436 C 0.84427 0.54658 0.189 0.0
C437 C 0.94318 0.6609 0.13445 0.0
C438 C 0.75254 0.51385 0.16476 0.0
H439 H 0.66019 0.31958 0.27097 0.0
N440 N 0.59027 0.39304 0.17378 0.0
C441 C 0.57484 0.29098 0.22047 0.0
C442 C 0.67983 0.43895 0.18828 0.0
C443 C 0.5492 0.31776 0.1858 0.0
C444 C 0.64482 0.3404 0.24242 0.0
C445 C 0.6995 0.41358 0.226 0.0
O446 O 0.4479 0.36437 0.14203 0.0
O447 O 0.42807 0.45056 0.05563 0.0
O448 O 0.53689 0.61286 0.03161 0.0
O449 O 0.57605 0.58756 0.09636 0.0
O450 O 0.4374 0.50542 0.10562 0.0
O451 O 0.4398 0.46489 0.14409 0.0
O452 O 0.5038 0.57769 0.93934 0.0
O453 O 0.58922 0.4907 0.03364 0.0
O454 O 0.48103 0.35877 0.05665 0.0
O455 O 0.46942 0.39543 0.99007 0.0
O456 O 0.62028 0.59389 1.00218 0.0
O457 O 0.53287 0.48577 0.94049 0.0
C458 C 0.39052 0.48061 0.0738 0.0
C459 C 0.42691 0.3975 0.20772 0.0
C460 C 0.47196 0.46096 0.27019 0.0
C461 C 0.44476 0.45963 0.22959 0.0
C462 C 0.48888 0.40433 0.28679 0.0
C463 C 0.4203 0.3334 0.22984 0.0
C464 C 0.45563 0.33792 0.26845 0.0
C465 C 0.56294 0.63215 0.06873 0.0
C466 C 0.4186 0.40012 0.16249 0.0
C467 C 0.77395 0.45828 0.24691 0.0
C468 C 0.84703 0.51748 0.22784 0.0
C469 C 0.65344 0.55461 0.01995 0.0
C470 C 0.56279 0.56506 0.87528 0.0
C471 C 0.5793 0.52051 0.84932 0.0
C472 C 0.58528 0.53658 0.80607 0.0
C473 C 0.57345 0.59767 0.79105 0.0
C474 C 0.5682 0.63216 0.85822 0.0
C475 C 0.57364 0.64825 0.81655 0.0
C476 C 0.46941 0.34517 1.01756 0.0
C477 C 0.53364 0.54213 0.91913 0.0
H478 H 0.4376 0.50612 0.21548 0.0
H479 H 0.52058 0.41012 0.3155 0.0
H480 H 0.39446 0.2811 0.2163 0.0
H481 H 0.45815 0.29025 0.28391 0.0
H482 H 0.58566 0.47381 0.86319 0.0
H483 H 0.56605 0.60765 0.75903 0.0
H484 H 0.56273 0.67057 0.87691 0.0
H485 H 0.57204 0.6981 0.80386 0.0
Eu486 Eu 0.16037 0.29681 0.30966 0.0
C487 C 0.40068 0.47731 0.43145 0.0
C488 C 0.50957 0.43878 0.41511 0.0
C489 C 0.55566 0.5486 0.45123 0.0
C490 C 0.42054 0.42742 0.41505 0.0
C491 C 0.468 0.53773 0.45039 0.0
C492 C 0.57597 0.49815 0.43405 0.0
C493 C 0.35541 0.56725 0.47142 0.0
N494 N 0.315 0.46539 0.43052 0.0
C495 C 0.29255 0.51137 0.44867 0.0
C496 C 0.44387 0.58138 0.47141 0.0
Eu497 Eu 0.20304 0.34944 0.41122 0.0
N498 N 0.35289 0.36701 0.39966 0.0
C499 C 0.37467 0.32339 0.37826 0.0
C500 C 0.52828 0.38724 0.3986 0.0
C501 C 0.46023 0.32937 0.37966 0.0
H502 H 0.22403 0.50118 0.44848 0.0
H503 H 0.47469 0.29179 0.36414 0.0
H504 H 0.64108 0.50129 0.43822 0.0
H505 H 0.33591 0.60029 0.4883 0.0
H506 H 0.32899 0.28659 0.35809 0.0
H507 H 0.81821 0.24484 0.27092 0.0
H508 H 0.59529 0.3931 0.39909 0.0
H509 H 0.25981 0.19523 0.29331 0.0
H510 H 0.96075 0.30043 0.30626 0.0
H511 H 0.23463 0.07858 0.26914 0.0
H512 H 0.60574 0.59216 0.46816 0.0
H513 H 0.79824 0.18564 0.20958 0.0
H514 H 0.8103 0.0939 0.16915 0.0
H515 H 0.49288 0.62447 0.4885 0.0
H516 H 0.87212 0.98876 0.16678 0.0
N517 N 0.01749 0.24666 0.2758 0.0
C518 C 0.95472 0.26851 0.28116 0.0
C519 C 0.86056 0.20287 0.22522 0.0
C520 C 0.9144 0.17242 0.21682 0.0
C521 C 0.87397 0.2398 0.25986 0.0
C522 C 0.99981 0.19245 0.25045 0.0
H523 H 0.09875 0.99284 0.24224 0.0
N524 N 0.12814 0.1781 0.2857 0.0
C525 C 0.18014 0.09199 0.26805 0.0
C526 C 0.05608 0.14556 0.2617 0.0
C527 C 0.19336 0.15746 0.28392 0.0
C528 C 0.10054 0.0433 0.25048 0.0
C529 C 0.03336 0.06521 0.24027 0.0
O530 O 0.25887 0.32048 0.26255 0.0
O531 O 0.24876 0.39929 0.34628 0.0
O532 O 0.15502 0.42997 0.38179 0.0
O533 O 0.11459 0.38778 0.31724 0.0
O534 O 0.31145 0.3708 0.30454 0.0
O535 O 0.14562 0.33873 0.2473 0.0
O536 O 0.1464 0.36658 0.46638 0.0
O537 O 0.1009 0.25702 0.37412 0.0
O538 O 0.17794 0.20139 0.35235 0.0
O539 O 0.19885 0.23672 0.41784 0.0
O540 O 0.05334 0.30164 0.41345 0.0
O541 O 0.21588 0.30304 0.47199 0.0
C542 C 0.32399 0.42276 0.32727 0.0
C543 C 0.21849 0.31295 0.19236 0.0
C544 C 0.2404 0.33917 0.11804 0.0
C545 C 0.22194 0.35676 0.15628 0.0
C546 C 0.25061 0.276 0.11588 0.0
C547 C 0.23152 0.25081 0.18846 0.0
C548 C 0.24779 0.23287 0.15101 0.0
C549 C 0.12144 0.43402 0.34536 0.0
C550 C 0.21759 0.33883 0.2336 0.0
C551 C 0.90225 0.03322 0.18702 0.0
C552 C 0.86791 0.10047 0.18617 0.0
C553 C 0.02782 0.24699 0.39111 0.0
C554 C 0.21118 0.36056 0.53203 0.0
C555 C 0.20526 0.31403 0.56755 0.0
C556 C 0.24655 0.34567 0.60421 0.0
C557 C 0.30199 0.42283 0.6029 0.0
C558 C 0.2449 0.43633 0.53722 0.0
C559 C 0.29607 0.46808 0.5706 0.0
C560 C 0.19358 0.18944 0.39201 0.0
C561 C 0.17431 0.33014 0.49169 0.0
H562 H 0.21409 0.40598 0.15788 0.0
H563 H 0.26183 0.26096 0.08698 0.0
H564 H 0.23384 0.21753 0.21442 0.0
H565 H 0.25931 0.1855 0.14935 0.0
H566 H 0.16283 0.25429 0.56768 0.0
H567 H 0.33525 0.44822 0.62998 0.0
H568 H 0.22643 0.47013 0.51717 0.0
H569 H 0.32646 0.52768 0.57263 0.0
Eu570 Eu 0.74454 0.87065 0.30999 0.0
C571 C 0.4361 0.80345 0.43578 0.0
C572 C 0.47511 0.97394 0.48746 0.0
C573 C 0.28562 0.845 0.48052 0.0
C574 C 0.52229 0.88222 0.44817 0.0
C575 C 0.32274 0.77871 0.44551 0.0
C576 C 0.36078 0.9333 0.49678 0.0
C577 C 0.30889 0.6671 0.41539 0.0
N578 N 0.46232 0.76193 0.4172 0.0
C579 C 0.39994 0.69226 0.41027 0.0
C580 C 0.27328 0.70497 0.43438 0.0
Eu581 Eu 0.62485 0.81973 0.4098 0.0
N582 N 0.59181 0.92618 0.41329 0.0
C583 C 0.63062 0.01437 0.39692 0.0
C584 C 0.5336 0.06584 0.46188 0.0
C585 C 0.60838 0.08351 0.41734 0.0
H586 H 0.4189 0.65209 0.40283 0.0
H587 H 0.57126 0.08235 0.44003 0.0
H588 H 0.33498 0.96388 0.51181 0.0
H589 H 0.26385 0.61228 0.40715 0.0
H590 H 0.67923 0.03637 0.37232 0.0
H591 H 0.96581 0.66284 0.25343 0.0
H592 H 0.50986 0.10523 0.47502 0.0
H593 H 0.86349 0.0729 0.26779 0.0
H594 H 0.80126 0.68271 0.32722 0.0
H595 H 0.04913 0.1966 0.18009 0.0
H596 H 0.23399 0.82812 0.50153 0.0
H597 H 0.03626 0.75884 0.1997 0.0
H598 H 0.05183 0.85631 0.15605 0.0
H599 H 0.20612 0.66917 0.44379 0.0
H600 H 0.07355 0.97573 0.13535 0.0
N601 N 0.84403 0.78806 0.28847 0.0
C602 C 0.84521 0.71785 0.30229 0.0
C603 C 0.99195 0.76639 0.21942 0.0
C604 C 0.98001 0.83671 0.21187 0.0
C605 C 0.94495 0.70543 0.25446 0.0
C606 C 0.92115 0.85807 0.23997 0.0
H607 H 0.09816 0.10405 0.14319 0.0
N608 N 0.88136 0.97681 0.25019 0.0
C609 C 0.02228 0.13857 0.19221 0.0
C610 C 0.93213 0.93991 0.22466 0.0
C611 C 0.90427 0.05999 0.24853 0.0
C612 C 0.05356 0.08185 0.16926 0.0
C613 C 1.00767 0.98835 0.1849 0.0
O614 O 0.69265 0.92628 0.26682 0.0
O615 O 0.61826 0.84697 0.34524 0.0
O616 O 0.55007 0.71507 0.37181 0.0
O617 O 0.64566 0.73861 0.31685 0.0
O618 O 0.69185 0.95327 0.31574 0.0
O619 O 0.61996 0.80631 0.27272 0.0
O620 O 0.56523 0.75952 0.46807 0.0
O621 O 0.75355 0.8436 0.37627 0.0
O622 O 0.80334 0.961 0.35986 0.0
O623 O 0.72498 0.93864 0.419 0.0
O624 O 0.68558 0.74269 0.41188 0.0
O625 O 0.70672 0.84015 0.4656 0.0
C626 C 0.61514 0.90617 0.33351 0.0
C627 C 0.61893 0.87346 0.20871 0.0
C628 C 0.58328 0.82421 0.14256 0.0
C629 C 0.56269 0.81527 0.18467 0.0
C630 C 0.66456 0.88367 0.12835 0.0
C631 C 0.67982 0.94194 0.18872 0.0
C632 C 0.70614 0.94519 0.14948 0.0
C633 C 0.56832 0.69254 0.33822 0.0
C634 C 0.62501 0.86696 0.2536 0.0
C635 C 0.03515 0.9489 0.16301 0.0
C636 C 0.02214 0.87859 0.17575 0.0
C637 C 0.75724 0.78588 0.39052 0.0
C638 C 0.64129 0.77732 0.53341 0.0
C639 C 0.71672 0.81817 0.55826 0.0
C640 C 0.70683 0.8094 0.60162 0.0
C641 C 0.62213 0.76022 0.61846 0.0
C642 C 0.56006 0.726 0.55281 0.0
C643 C 0.55101 0.71889 0.59457 0.0
C644 C 0.79455 0.98265 0.39562 0.0
C645 C 0.63831 0.79426 0.48846 0.0
H646 H 0.50722 0.76502 0.19843 0.0
H647 H 0.69128 0.88427 0.09921 0.0
H648 H 0.71251 0.99139 0.20467 0.0
H649 H 0.76016 0.99433 0.13549 0.0
H650 H 0.7804 0.85698 0.54389 0.0
H651 H 0.60988 0.75457 0.65072 0.0
H652 H 0.49991 0.69571 0.53597 0.0
H653 H 0.48617 0.68285 0.60883 0.0
Eu654 Eu 0.20473 0.79427 0.43391 0.0
C655 C 0.9797 0.87406 0.30709 0.0
C656 C 0.83523 0.73084 0.23667 0.0
C657 C 0.78655 0.84965 0.25789 0.0
C658 C 0.9794 0.80569 0.28573 0.0
C659 C 0.89452 0.90095 0.30069 0.0
C660 C 0.76652 0.77214 0.23121 0.0
C661 C 1.01446 0.00324 0.33769 0.0
N662 N 0.05264 0.90566 0.32921 0.0
C663 C 0.07422 0.97489 0.33869 0.0
C664 C 0.9305 0.96852 0.32024 0.0
Eu665 Eu 0.14852 0.84176 0.32968 0.0
N666 N 0.99515 0.75094 0.31624 0.0
C667 C 0.93429 0.66071 0.32306 0.0
C668 C 0.78971 0.63299 0.25309 0.0
C669 C 0.83727 0.60238 0.29487 0.0
H670 H 0.14153 0.0145 0.34001 0.0
H671 H 0.8019 0.54452 0.30606 0.0
H672 H 0.71281 0.75203 0.20985 0.0
H673 H 0.03856 0.05908 0.3468 0.0
H674 H 0.955 0.6316 0.3459 0.0
H675 H 0.67847 0.04077 0.465 0.0
H676 H 0.72809 0.59192 0.24116 0.0
H677 H 0.15918 0.61078 0.50349 0.0
H678 H 0.46963 0.99073 0.39657 0.0
H679 H 0.20402 0.56614 0.56476 0.0
H680 H 0.76105 0.87583 0.23696 0.0
H681 H 0.65838 0.96295 0.5257 0.0
H682 H 0.57548 0.87502 0.57785 0.0
H683 H 0.90546 0.00669 0.31545 0.0
H684 H 0.4477 0.77489 0.61124 0.0
N685 N 0.40474 0.89622 0.44407 0.0
C686 C 0.482 0.96282 0.42308 0.0
C687 C 0.59953 0.94749 0.50746 0.0
C688 C 0.511 0.88018 0.52225 0.0
C689 C 0.6094 0.99475 0.46754 0.0
C690 C 0.41915 0.84726 0.49806 0.0
H691 H 0.32714 0.65308 0.60428 0.0
N692 N 0.25702 0.72636 0.50708 0.0
C693 C 0.24169 0.6244 0.55381 0.0
C694 C 0.34657 0.77233 0.52158 0.0
C695 C 0.21598 0.6511 0.51914 0.0
C696 C 0.31172 0.67386 0.57573 0.0
C697 C 0.36636 0.74703 0.55928 0.0
O698 O 0.11452 0.69765 0.47537 0.0
O699 O 0.09463 0.78385 0.38895 0.0
O700 O 0.20353 0.94618 0.36493 0.0
O701 O 0.24254 0.92083 0.42971 0.0
O702 O 0.10394 0.8387 0.43894 0.0
O703 O 0.10629 0.7981 0.47742 0.0
O704 O 0.17043 0.91098 0.27267 0.0
O705 O 0.25582 0.82399 0.36698 0.0
O706 O 0.14752 0.69203 0.39 0.0
O707 O 0.13609 0.72875 0.32341 0.0
O708 O 0.28688 0.92719 0.33554 0.0
O709 O 0.19947 0.81904 0.27382 0.0
C710 C 0.05708 0.81391 0.40712 0.0
C711 C 0.09352 0.73077 0.54106 0.0
C712 C 0.13861 0.79425 0.60353 0.0
C713 C 0.11138 0.79291 0.56293 0.0
C714 C 0.15555 0.73764 0.62012 0.0
C715 C 0.08699 0.66669 0.56317 0.0
C716 C 0.12234 0.67124 0.60179 0.0
C717 C 0.2295 0.96544 0.40207 0.0
C718 C 0.08516 0.73336 0.49583 0.0
C719 C 0.4409 0.79178 0.58015 0.0
C720 C 0.51393 0.85104 0.56105 0.0
C721 C 0.32005 0.88791 0.3533 0.0
C722 C 0.22938 0.89831 0.2086 0.0
C723 C 0.24586 0.85373 0.18265 0.0
C724 C 0.25191 0.86983 0.1394 0.0
C725 C 0.24008 0.93092 0.12438 0.0
C726 C 0.23483 0.96542 0.19154 0.0
C727 C 0.24027 0.98151 0.14988 0.0
C728 C 0.136 0.67845 0.3509 0.0
C729 C 0.20024 0.8754 0.25246 0.0
H730 H 0.1042 0.83939 0.54882 0.0
H731 H 0.18727 0.74344 0.64883 0.0
H732 H 0.06117 0.61439 0.54964 0.0
H733 H 0.12491 0.62358 0.61723 0.0
H734 H 0.25217 0.80702 0.19652 0.0
H735 H 0.23269 0.9409 0.09235 0.0
H736 H 0.22937 0.00384 0.21023 0.0
H737 H 0.23868 0.03136 0.13718 0.0
Eu738 Eu 0.82703 0.63014 0.64299 0.0
C739 C 0.06735 0.81066 0.76479 0.0
C740 C 0.17624 0.7721 0.74844 0.0
C741 C 0.22234 0.88193 0.78456 0.0
C742 C 0.08721 0.76075 0.74838 0.0
C743 C 0.13468 0.87107 0.78372 0.0
C744 C 0.24264 0.83148 0.76738 0.0
C745 C 0.0221 0.9006 0.80475 0.0
N746 N 0.98167 0.79874 0.76385 0.0
C747 C 0.95923 0.84472 0.78201 0.0
C748 C 0.11056 0.91472 0.80475 0.0
Eu749 Eu 0.86971 0.68279 0.74456 0.0
N750 N 0.01956 0.70035 0.733 0.0
C751 C 0.04132 0.65672 0.7116 0.0
C752 C 0.19494 0.72056 0.73194 0.0
C753 C 0.12688 0.66269 0.71299 0.0
H754 H 0.89072 0.83453 0.78182 0.0
H755 H 0.14133 0.62512 0.69747 0.0
H756 H 0.30775 0.83462 0.77156 0.0
H757 H 1.00261 0.93364 0.82164 0.0
H758 H 0.99565 0.61992 0.69143 0.0
H759 H 0.48486 0.57817 0.60425 0.0
H760 H 0.26195 0.72642 0.73242 0.0
H761 H 0.92649 0.52859 0.62665 0.0
H762 H 0.6274 0.63376 0.6396 0.0
H763 H 0.90131 0.41195 0.60247 0.0
H764 H 0.27242 0.92549 0.80149 0.0
H765 H 0.46491 0.51899 0.54291 0.0
H766 H 0.47694 0.42721 0.5025 0.0
H767 H 0.15957 0.95781 0.82183 0.0
H768 H 0.53878 0.32208 0.50012 0.0
N769 N 0.68414 0.57998 0.60914 0.0
C770 C 0.62137 0.60183 0.6145 0.0
C771 C 0.52722 0.5362 0.55856 0.0
C772 C 0.58105 0.50573 0.55017 0.0
C773 C 0.54062 0.57313 0.59319 0.0
C774 C 0.66646 0.52577 0.5838 0.0
H775 H 0.76544 0.32618 0.57558 0.0
N776 N 0.79481 0.51145 0.61903 0.0
C777 C 0.84682 0.42535 0.60138 0.0
C778 C 0.72274 0.47889 0.59505 0.0
C779 C 0.86003 0.49081 0.61725 0.0
C780 C 0.76722 0.37664 0.58382 0.0
C781 C 0.70003 0.39854 0.57362 0.0
O782 O 0.92551 0.65382 0.59588 0.0
O783 O 0.91542 0.73262 0.67961 0.0
O784 O 0.8217 0.76332 0.71512 0.0
O785 O 0.78126 0.72112 0.65058 0.0
O786 O 0.97811 0.70412 0.63788 0.0
O787 O 0.81226 0.67206 0.58064 0.0
O788 O 0.81309 0.69994 0.79972 0.0
O789 O 0.76756 0.59036 0.70746 0.0
O790 O 0.8446 0.53472 0.68569 0.0
O791 O 0.86551 0.57006 0.75118 0.0
O792 O 0.72001 0.63497 0.7468 0.0
O793 O 0.88257 0.63641 0.80534 0.0
C794 C 0.99065 0.75608 0.6606 0.0
C795 C 0.88511 0.64628 0.52569 0.0
C796 C 0.90696 0.67249 0.45136 0.0
C797 C 0.88851 0.69008 0.48961 0.0
C798 C 0.91719 0.60933 0.4492 0.0
C799 C 0.89817 0.58416 0.52179 0.0
C800 C 0.91441 0.56621 0.48433 0.0
C801 C 0.78812 0.76737 0.67869 0.0
C802 C 0.88423 0.67217 0.56693 0.0
C803 C 0.56891 0.36654 0.52037 0.0
C804 C 0.53456 0.43378 0.51952 0.0
C805 C 0.69448 0.58032 0.72445 0.0
C806 C 0.87789 0.69394 0.86538 0.0
C807 C 0.87199 0.64742 0.9009 0.0
C808 C 0.91329 0.67906 0.93756 0.0
C809 C 0.96869 0.75623 0.93625 0.0
C810 C 0.9116 0.76971 0.87057 0.0
C811 C 0.96276 0.80147 0.90395 0.0
C812 C 0.86023 0.52278 0.72535 0.0
C813 C 0.84102 0.66351 0.82503 0.0
H814 H 0.88064 0.73929 0.49121 0.0
H815 H 0.92842 0.5943 0.42031 0.0
H816 H 0.90052 0.55089 0.54774 0.0
H817 H 0.92596 0.51886 0.48267 0.0
H818 H 0.82956 0.58767 0.90104 0.0
H819 H 1.00195 0.78163 0.96333 0.0
H820 H 0.89312 0.8035 0.85051 0.0
H821 H 0.99314 0.86107 0.90598 0.0
Eu822 Eu 0.41121 0.20397 0.64334 0.0
C823 C 0.10278 0.13679 0.76911 0.0
C824 C 0.14179 0.30727 0.8208 0.0
C825 C 0.95229 0.17834 0.81385 0.0
C826 C 0.18897 0.21555 0.78151 0.0
C827 C 0.98942 0.11205 0.77885 0.0
C828 C 0.02746 0.26663 0.83012 0.0
C829 C 0.97556 0.00044 0.74872 0.0
N830 N 0.12899 0.09526 0.75054 0.0
C831 C 0.06661 0.0256 0.7436 0.0
C832 C 0.93995 0.03831 0.76772 0.0
Eu833 Eu 0.29152 0.15306 0.74314 0.0
N834 N 0.25849 0.25951 0.74663 0.0
C835 C 0.2973 0.3477 0.73026 0.0
C836 C 0.20029 0.39918 0.79522 0.0
C837 C 0.27507 0.41685 0.75068 0.0
H838 H 0.08557 0.98542 0.73616 0.0
H839 H 0.23795 0.41569 0.77337 0.0
H840 H 1.00166 0.29722 0.84514 0.0
H841 H 0.93052 0.94562 0.74049 0.0
H842 H 0.34592 0.3697 0.70566 0.0
H843 H 0.63259 0.99624 0.58678 0.0
H844 H 0.17655 0.43856 0.80836 0.0
H845 H 0.53015 0.40622 0.60114 0.0
H846 H 0.46798 0.01603 0.66057 0.0
H847 H 0.71578 0.52992 0.51343 0.0
H848 H 0.90066 0.16146 0.83486 0.0
H849 H 0.70304 0.09226 0.53307 0.0
H850 H 0.71853 0.18966 0.48941 0.0
H851 H 0.87279 0.00251 0.77713 0.0
H852 H 0.74023 0.30907 0.4687 0.0
N853 N 0.51074 0.1214 0.62182 0.0
C854 C 0.51193 0.05119 0.63564 0.0
C855 C 0.6587 0.09977 0.55278 0.0
C856 C 0.64672 0.17007 0.54522 0.0
C857 C 0.6117 0.0388 0.58781 0.0
C858 C 0.58785 0.19141 0.57332 0.0
H859 H 0.76481 0.43738 0.47654 0.0
N860 N 0.54803 0.31013 0.58354 0.0
C861 C 0.68893 0.47189 0.52555 0.0
C862 C 0.59881 0.27324 0.55801 0.0
C863 C 0.57093 0.39331 0.58188 0.0
C864 C 0.72022 0.41518 0.5026 0.0
C865 C 0.67434 0.32168 0.51825 0.0
O866 O 0.35932 0.25959 0.60016 0.0
O867 O 0.28493 0.1803 0.67859 0.0
O868 O 0.21674 0.04839 0.70515 0.0
O869 O 0.31234 0.07193 0.6502 0.0
O870 O 0.35854 0.28659 0.64908 0.0
O871 O 0.28664 0.13962 0.60606 0.0
O872 O 0.23189 0.09284 0.80141 0.0
O873 O 0.42022 0.17692 0.70962 0.0
O874 O 0.47002 0.29432 0.6932 0.0
O875 O 0.39166 0.27197 0.75234 0.0
O876 O 0.35225 0.07602 0.74523 0.0
O877 O 0.37338 0.17347 0.79894 0.0
C878 C 0.28182 0.2395 0.66685 0.0
C879 C 0.28561 0.20676 0.54205 0.0
C880 C 0.24993 0.15753 0.47589 0.0
C881 C 0.22935 0.14858 0.51801 0.0
C882 C 0.33121 0.21698 0.46169 0.0
C883 C 0.3465 0.27524 0.52206 0.0
C884 C 0.37281 0.27849 0.48282 0.0
C885 C 0.235 0.02586 0.67156 0.0
C886 C 0.29169 0.20027 0.58694 0.0
C887 C 0.70184 0.28224 0.49636 0.0
C888 C 0.68884 0.21194 0.50911 0.0
C889 C 0.42392 0.11921 0.72386 0.0
C890 C 0.30795 0.11065 0.86675 0.0
C891 C 0.38338 0.15151 0.8916 0.0
C892 C 0.3735 0.14274 0.93496 0.0
C893 C 0.2888 0.09355 0.9518 0.0
C894 C 0.22673 0.05933 0.88616 0.0
C895 C 0.21768 0.05223 0.92791 0.0
C896 C 0.46122 0.31598 0.72896 0.0
C897 C 0.30497 0.12758 0.8218 0.0
H898 H 0.17387 0.09834 0.53177 0.0
H899 H 0.35792 0.21758 0.43254 0.0
H900 H 0.37919 0.3247 0.53801 0.0
H901 H 0.42682 0.32763 0.46883 0.0
H902 H 0.44706 0.19031 0.87723 0.0
H903 H 0.27655 0.08791 0.98407 0.0
H904 H 0.16657 0.02904 0.86931 0.0
H905 H 0.15283 0.01619 0.94217 0.0
Eu906 Eu 0.87141 0.12762 0.76725 0.0
C907 C 0.6464 0.20741 0.64044 0.0
C908 C 0.50196 0.06418 0.57003 0.0
C909 C 0.45323 0.18297 0.59124 0.0
C910 C 0.64611 0.13905 0.61909 0.0
C911 C 0.5612 0.23428 0.63404 0.0
C912 C 0.43322 0.10546 0.56457 0.0
C913 C 0.68115 0.33659 0.67104 0.0
N914 N 0.71934 0.23902 0.66256 0.0
C915 C 0.74092 0.30825 0.67203 0.0
C916 C 0.59719 0.30186 0.65359 0.0
Eu917 Eu 0.81524 0.17513 0.66302 0.0
N918 N 0.66188 0.0843 0.6496 0.0
C919 C 0.60103 0.99406 0.65641 0.0
C920 C 0.45646 0.96634 0.58644 0.0
C921 C 0.50403 0.93573 0.62821 0.0
H922 H 0.80823 0.34787 0.67334 0.0
H923 H 0.46868 0.87786 0.63939 0.0
H924 H 0.37951 0.08534 0.54321 0.0
H925 H 0.70524 0.39243 0.68014 0.0
H926 H 0.62176 0.96496 0.67925 0.0
H927 H 0.34515 0.3741 0.79834 0.0
H928 H 0.39485 0.92526 0.57451 0.0
H929 H 0.82586 0.94412 0.83682 0.0
H930 H 0.13632 0.32407 0.7299 0.0
H931 H 0.87069 0.89948 0.89809 0.0
H932 H 0.42773 0.20914 0.57031 0.0
H933 H 0.32505 0.29628 0.85905 0.0
H934 H 0.24215 0.20835 0.9112 0.0
H935 H 0.57214 0.34003 0.6488 0.0
H936 H 0.11436 0.10822 0.94458 0.0
N937 N 0.07142 0.22955 0.77741 0.0
C938 C 0.14869 0.29615 0.75642 0.0
C939 C 0.2662 0.28082 0.8408 0.0
C940 C 0.17767 0.21351 0.85559 0.0
C941 C 0.27608 0.32808 0.80088 0.0
C942 C 0.08583 0.18059 0.8314 0.0
H943 H 0.9938 0.98642 0.93762 0.0
N944 N 0.92369 0.0597 0.84042 0.0
C945 C 0.90836 0.95773 0.88715 0.0
C946 C 1.01324 0.10566 0.85491 0.0
C947 C 0.88265 0.98444 0.85247 0.0
C948 C 0.97838 0.00719 0.90906 0.0
C949 C 0.03303 0.08037 0.89262 0.0
O950 O 0.7812 0.03098 0.8087 0.0
O951 O 0.76132 0.1172 0.72228 0.0
O952 O 0.87024 0.27954 0.69827 0.0
O953 O 0.90921 0.25417 0.76305 0.0
O954 O 0.77062 0.17204 0.77228 0.0
O955 O 0.77296 0.13144 0.81075 0.0
O956 O 0.83714 0.24436 0.60601 0.0
O957 O 0.92253 0.15735 0.70031 0.0
O958 O 0.81422 0.02538 0.72333 0.0
O959 O 0.80283 0.06212 0.65673 0.0
O960 O 0.9536 0.26056 0.66889 0.0
O961 O 0.86622 0.15245 0.60715 0.0
C962 C 0.72376 0.14725 0.74045 0.0
C963 C 0.76019 0.06409 0.87439 0.0
C964 C 0.80528 0.12758 0.93685 0.0
C965 C 0.77805 0.12624 0.89626 0.0
C966 C 0.82223 0.07098 0.95345 0.0
C967 C 0.75365 1e-05 0.8965 0.0
C968 C 0.78901 0.00457 0.93511 0.0
C969 C 0.89618 0.2988 0.73541 0.0
C970 C 0.75183 0.06669 0.82915 0.0
C971 C 0.10757 0.12512 0.91349 0.0
C972 C 0.1806 0.18437 0.89439 0.0
C973 C 0.98676 0.22127 0.68665 0.0
C974 C 0.89613 0.23173 0.54194 0.0
C975 C 0.91264 0.18718 0.51599 0.0
C976 C 0.91862 0.20325 0.47273 0.0
C977 C 0.9068 0.26435 0.45772 0.0
C978 C 0.90155 0.29884 0.52489 0.0
C979 C 0.907 0.31493 0.48322 0.0
C980 C 0.80272 0.01182 0.68422 0.0
C981 C 0.86698 0.2088 0.5858 0.0
H982 H 0.77086 0.17272 0.88215 0.0
H983 H 0.85395 0.07678 0.98215 0.0
H984 H 0.72784 0.94772 0.88296 0.0
H985 H 0.79158 0.95691 0.95056 0.0
H986 H 0.919 0.14048 0.52985 0.0
H987 H 0.8994 0.27433 0.42569 0.0
H988 H 0.89609 0.33725 0.54357 0.0
H989 H 0.9054 0.36478 0.47053 0.0
loop_
_geom_bond_atom_site_label_1
_geom_bond_atom_site_label_2
_geom_bond_distance
_geom_bond_site_symmetry_2
_ccdc_geom_bond_type
C0 N1 1.317 . S
C0 N2 1.348 . S
C0 C3 1.485 . S
N1 C0 1.317 . S
N1 N5 1.370 . S
N2 C0 1.348 . S
N2 C4 1.346 . S
C3 C0 1.485 . S
C3 H7 0.960 . S
C3 H8 0.961 . S
C3 H9 0.960 . S
C4 N2 1.346 . S
C4 N5 1.307 . S
C4 C6 1.486 . S
N5 N1 1.370 . S
N5 C4 1.307 . S
C6 C4 1.486 . S
C6 H10 0.960 1_545 S
C6 H11 0.960 1_545 S
C6 H12 0.959 . S
H7 C3 0.960 . S
H8 C3 0.961 . S
H9 C3 0.960 . S
H10 C6 0.960 1_565 S
H11 C6 0.960 1_565 S
H12 C6 0.959 . S
C13 N14 1.317 . S
C13 N15 1.348 . S
C13 C16 1.485 . S
N14 C13 1.317 . S
N14 N18 1.370 . S
N15 C13 1.348 . S
N15 C17 1.346 . S
C16 C13 1.485 . S
C16 H20 0.960 . S
C16 H21 0.961 . S
C16 H22 0.960 . S
C17 N15 1.346 . S
C17 N18 1.307 . S
C17 C19 1.486 . S
N18 N14 1.370 . S
N18 C17 1.307 . S
C19 C17 1.486 . S
C19 H23 0.960 1_545 S
C19 H24 0.960 . S
C19 H25 0.959 . S
H20 C16 0.960 . S
H21 C16 0.961 . S
H22 C16 0.960 . S
H23 C19 0.960 1_565 S
H24 C19 0.960 . S
H25 C19 0.959 . S
C26 N27 1.317 . S
C26 N28 1.348 . S
C26 C29 1.485 . S
N27 C26 1.317 . S
N27 N31 1.370 . S
N28 C26 1.348 . S
N28 C30 1.346 . S
C29 C26 1.485 . S
C29 H33 0.960 . S
C29 H34 0.961 . S
C29 H35 0.946 1_655 S
C30 N28 1.346 . S
C30 N31 1.307 . S
C30 C32 1.486 . S
N31 N27 1.370 . S
N31 C30 1.307 . S
C32 C30 1.486 . S
C32 H36 0.960 . S
C32 H37 0.960 . S
C32 H38 0.959 . S
H33 C29 0.960 . S
H34 C29 0.961 . S
H35 C29 0.946 1_455 S
H36 C32 0.960 . S
H37 C32 0.960 . S
H38 C32 0.959 . S
C39 N40 1.317 . S
C39 N41 1.348 1_455 S
C39 C42 1.485 . S
N40 C39 1.317 . S
N40 N44 1.370 . S
N41 C39 1.348 1_655 S
N41 C43 1.346 . S
C42 C39 1.485 . S
C42 H46 0.960 . S
C42 H47 0.961 . S
C42 H48 0.960 . S
C43 N41 1.346 . S
C43 N44 1.307 1_655 S
C43 C45 1.486 . S
N44 N40 1.370 . S
N44 C43 1.307 1_455 S
C45 C43 1.486 . S
C45 H49 0.960 . S
C45 H50 0.960 . S
C45 H51 0.959 . S
H46 C42 0.960 . S
H47 C42 0.961 . S
H48 C42 0.960 . S
H49 C45 0.960 . S
H50 C45 0.960 . S
H51 C45 0.959 . S
C52 N53 1.317 . S
C52 N54 1.348 . S
C52 C55 1.485 . S
N53 C52 1.317 . S
N53 N57 1.370 . S
N54 C52 1.348 . S
N54 C56 1.346 . S
C55 C52 1.485 . S
C55 H59 0.960 . S
C55 H60 0.961 . S
C55 H61 0.960 . S
C56 N54 1.346 . S
C56 N57 1.307 . S
C56 C58 1.486 . S
N57 N53 1.370 . S
N57 C56 1.307 . S
C58 C56 1.486 . S
C58 H62 0.960 1_565 S
C58 H63 0.960 . S
C58 H64 0.959 . S
H59 C55 0.960 . S
H60 C55 0.961 . S
H61 C55 0.960 . S
H62 C58 0.960 1_545 S
H63 C58 0.960 . S
H64 C58 0.959 . S
C65 N66 1.317 . S
C65 N67 1.348 . S
C65 C68 1.485 . S
N66 C65 1.317 . S
N66 N70 1.370 . S
N67 C65 1.348 . S
N67 C69 1.346 . S
C68 C65 1.485 . S
C68 H72 0.960 . S
C68 H73 0.961 . S
C68 H74 0.960 . S
C69 N67 1.346 . S
C69 N70 1.307 . S
C69 C71 1.486 1_565 S
N70 N66 1.370 . S
N70 C69 1.307 . S
C71 C69 1.486 1_545 S
C71 H75 0.960 . S
C71 H76 0.960 . S
C71 H77 0.959 1_545 S
H72 C68 0.960 . S
H73 C68 0.961 . S
H74 C68 0.960 . S
H75 C71 0.960 . S
H76 C71 0.960 . S
H77 C71 0.959 1_565 S
C78 N79 1.317 . S
C78 N80 1.348 . S
C78 C81 1.485 . S
N79 C78 1.317 . S
N79 N83 1.370 . S
N80 C78 1.348 . S
N80 C82 1.346 . S
C81 C78 1.485 . S
C81 H85 0.960 . S
C81 H86 0.961 . S
C81 H87 0.960 . S
C82 N80 1.346 . S
C82 N83 1.307 . S
C82 C84 1.486 . S
N83 N79 1.370 . S
N83 C82 1.307 . S
C84 C82 1.486 . S
C84 H88 0.960 . S
C84 H89 0.960 . S
C84 H90 0.959 . S
H85 C81 0.960 . S
H86 C81 0.961 . S
H87 C81 0.960 . S
H88 C84 0.960 . S
H89 C84 0.960 . S
H90 C84 0.959 . S
C91 N92 1.317 . S
C91 N93 1.348 . S
C91 C94 1.485 . S
N92 C91 1.317 . S
N92 N96 1.370 . S
N93 C91 1.348 . S
N93 C95 1.346 . S
C94 C91 1.485 . S
C94 H98 0.960 . S
C94 H99 0.961 . S
C94 H100 0.960 . S
C95 N93 1.346 . S
C95 N96 1.307 . S
C95 C97 1.486 . S
N96 N92 1.370 . S
N96 C95 1.307 . S
C97 C95 1.486 . S
C97 H101 0.960 . S
C97 H102 0.960 . S
C97 H103 0.959 . S
H98 C94 0.960 . S
H99 C94 0.961 . S
H100 C94 0.960 . S
H101 C97 0.960 . S
H102 C97 0.960 . S
H103 C97 0.959 . S
C104 N105 1.317 . S
C104 N106 1.348 . S
C104 C107 1.485 . S
N105 C104 1.317 . S
N105 N109 1.370 . S
N106 C104 1.348 . S
N106 C108 1.346 . S
C107 C104 1.485 . S
C107 H111 0.960 . S
C107 H112 0.961 . S
C107 H113 0.960 . S
C108 N106 1.346 . S
C108 N109 1.307 . S
C108 C110 1.486 . S
N109 N105 1.370 . S
N109 C108 1.307 . S
C110 C108 1.486 . S
C110 H114 0.960 . S
C110 H115 0.960 . S
C110 H116 0.959 . S
H111 C107 0.960 . S
H112 C107 0.961 . S
H113 C107 0.960 . S
H114 C110 0.960 . S
H115 C110 0.960 . S
H116 C110 0.959 . S
C117 N118 1.317 1_554 S
C117 N119 1.348 1_554 S
C117 C120 1.485 . S
N118 C117 1.317 1_556 S
N118 N122 1.370 . S
N119 C117 1.348 1_556 S
N119 C121 1.346 . S
C120 C117 1.485 . S
C120 H124 0.960 . S
C120 H125 0.961 . S
C120 H126 0.960 . S
C121 N119 1.346 . S
C121 N122 1.307 . S
C121 C123 1.486 . S
N122 N118 1.370 . S
N122 C121 1.307 . S
C123 C121 1.486 . S
C123 H127 0.960 . S
C123 H128 0.960 . S
C123 H129 0.959 . S
H124 C120 0.960 . S
H125 C120 0.961 . S
H126 C120 0.960 . S
H127 C123 0.960 . S
H128 C123 0.960 . S
H129 C123 0.959 . S
C130 N131 1.317 1_554 S
C130 N132 1.348 1_554 S
C130 C133 1.485 . S
N131 C130 1.317 1_556 S
N131 N135 1.370 . S
N132 C130 1.348 1_556 S
N132 C134 1.346 . S
C133 C130 1.485 . S
C133 H137 0.960 . S
C133 H138 0.961 . S
C133 H139 0.960 . S
C134 N132 1.346 . S
C134 N135 1.307 . S
C134 C136 1.486 . S
N135 N131 1.370 . S
N135 C134 1.307 . S
C136 C134 1.486 . S
C136 H140 0.960 . S
C136 H141 0.960 . S
C136 H142 0.959 . S
H137 C133 0.960 . S
H138 C133 0.961 . S
H139 C133 0.960 . S
H140 C136 0.960 . S
H141 C136 0.960 . S
H142 C136 0.959 . S
C143 N144 1.317 1_554 S
C143 N145 1.348 1_554 S
C143 C146 1.485 . S
N144 C143 1.317 1_556 S
N144 N148 1.370 . S
N145 C143 1.348 1_556 S
N145 C147 1.346 . S
C146 C143 1.485 . S
C146 H150 0.960 . S
C146 H151 0.961 . S
C146 H152 0.960 . S
C147 N145 1.346 . S
C147 N148 1.307 . S
C147 C149 1.486 . S
N148 N144 1.370 . S
N148 C147 1.307 . S
C149 C147 1.486 . S
C149 H153 0.960 . S
C149 H154 0.960 . S
C149 H155 0.959 . S
H150 C146 0.960 . S
H151 C146 0.961 . S
H152 C146 0.960 . S
H153 C149 0.960 . S
H154 C149 0.960 . S
H155 C149 0.959 . S
C156 N157 1.317 . S
C156 N158 1.348 . S
C156 C159 1.485 1_554 S
N157 C156 1.317 . S
N157 N161 1.370 . S
N158 C156 1.348 . S
N158 C160 1.346 . S
C159 C156 1.485 1_556 S
C159 H163 0.960 . S
C159 H164 0.961 . S
C159 H165 0.960 . S
C160 N158 1.346 . S
C160 N161 1.307 . S
C160 C162 1.486 . S
N161 N157 1.370 . S
N161 C160 1.307 . S
C162 C160 1.486 . S
C162 H166 0.960 . S
C162 H167 0.960 . S
C162 H168 0.959 . S
H163 C159 0.960 . S
H164 C159 0.961 . S
H165 C159 0.960 . S
H166 C162 0.960 . S
H167 C162 0.960 . S
H168 C162 0.959 . S
C169 N170 1.317 . S
C169 N171 1.348 . S
C169 C172 1.485 1_554 S
N170 C169 1.317 . S
N170 N174 1.370 . S
N171 C169 1.348 . S
N171 C173 1.346 . S
C172 C169 1.485 1_556 S
C172 H176 0.960 . S
C172 H177 0.961 . S
C172 H178 0.960 . S
C173 N171 1.346 . S
C173 N174 1.307 . S
C173 C175 1.486 . S
N174 N170 1.370 . S
N174 C173 1.307 . S
C175 C173 1.486 . S
C175 H179 0.960 . S
C175 H180 0.960 . S
C175 H181 0.959 . S
H176 C172 0.960 . S
H177 C172 0.961 . S
H178 C172 0.960 . S
H179 C175 0.960 . S
H180 C175 0.960 . S
H181 C175 0.959 . S
C182 N183 1.317 . S
C182 N184 1.348 . S
C182 C185 1.485 1_554 S
N183 C182 1.317 . S
N183 N187 1.370 . S
N184 C182 1.348 . S
N184 C186 1.346 . S
C185 C182 1.485 1_556 S
C185 H189 0.960 . S
C185 H190 0.961 . S
C185 H191 0.960 . S
C186 N184 1.346 . S
C186 N187 1.307 . S
C186 C188 1.486 . S
N187 N183 1.370 . S
N187 C186 1.307 . S
C188 C186 1.486 . S
C188 H192 0.960 . S
C188 H193 0.960 . S
C188 H194 0.959 . S
H189 C185 0.960 . S
H190 C185 0.961 . S
H191 C185 0.960 . S
H192 C188 0.960 . S
H193 C188 0.960 . S
H194 C188 0.959 . S
C195 N196 1.317 . S
C195 N197 1.348 . S
C195 C198 1.485 . S
N196 C195 1.317 . S
N196 N200 1.370 . S
N197 C195 1.348 . S
N197 C199 1.346 . S
C198 C195 1.485 . S
C198 H202 0.960 . S
C198 H203 0.961 . S
C198 H204 0.960 . S
C199 N197 1.346 . S
C199 N200 1.307 . S
C199 C201 1.486 . S
N200 N196 1.370 . S
N200 C199 1.307 . S
C201 C199 1.486 . S
C201 H205 0.960 . S
C201 H206 0.960 . S
C201 H207 0.959 . S
H202 C198 0.960 . S
H203 C198 0.961 . S
H204 C198 0.960 . S
H205 C201 0.960 . S
H206 C201 0.960 . S
H207 C201 0.959 . S
C208 N209 1.317 . S
C208 N210 1.348 . S
C208 C211 1.485 . S
N209 C208 1.317 . S
N209 N213 1.370 . S
N210 C208 1.348 . S
N210 C212 1.346 . S
C211 C208 1.485 . S
C211 H215 0.960 . S
C211 H216 0.961 . S
C211 H217 0.960 . S
C212 N210 1.346 . S
C212 N213 1.307 . S
C212 C214 1.486 . S
N213 N209 1.370 . S
N213 C212 1.307 . S
C214 C212 1.486 . S
C214 H218 0.960 . S
C214 H219 0.960 1_455 S
C214 H220 0.959 . S
H215 C211 0.960 . S
H216 C211 0.961 . S
H217 C211 0.960 . S
H218 C214 0.960 . S
H219 C214 0.960 1_655 S
H220 C214 0.959 . S
C221 N222 1.317 . S
C221 N223 1.348 . S
C221 C224 1.485 . S
N222 C221 1.317 . S
N222 N226 1.370 . S
N223 C221 1.348 . S
N223 C225 1.346 . S
C224 C221 1.485 . S
C224 H228 0.960 . S
C224 H229 0.961 . S
C224 H230 0.960 . S
C225 N223 1.346 . S
C225 N226 1.307 . S
C225 C227 1.486 . S
N226 N222 1.370 . S
N226 C225 1.307 . S
C227 C225 1.486 . S
C227 H231 0.960 . S
C227 H232 0.960 . S
C227 H233 0.959 . S
H228 C224 0.960 . S
H229 C224 0.961 . S
H230 C224 0.960 . S
H231 C227 0.960 . S
H232 C227 0.960 . S
H233 C227 0.959 . S
Eu234 N265 2.657 . S
Eu234 N272 2.609 . S
Eu234 O278 2.558 . S
Eu234 O279 2.612 1_566 S
Eu234 O281 2.339 1_565 S
Eu234 O282 2.563 1_565 S
Eu234 O283 2.419 1_565 S
Eu234 O285 2.380 1_556 S
Eu234 O286 2.432 . S
Eu234 C298 2.848 1_565 S
C235 C238 1.429 . S
C235 C239 1.411 . S
C235 N242 1.377 . S
C236 C238 1.420 . S
C236 C240 1.423 . S
C236 C248 1.392 . S
C237 C239 1.420 . S
C237 C240 1.351 . S
C237 H260 0.931 . S
C238 C235 1.429 . S
C238 C236 1.420 . S
C238 N246 1.362 . S
C239 C235 1.411 . S
C239 C237 1.420 . S
C239 C244 1.395 . S
C240 C236 1.423 . S
C240 C237 1.351 . S
C240 H252 0.930 . S
C241 C243 1.400 . S
C241 C244 1.386 . S
C241 H253 0.930 . S
N242 C235 1.377 . S
N242 C243 1.321 . S
N242 Eu245 2.609 . S
C243 C241 1.400 . S
C243 N242 1.321 . S
C243 H250 0.930 . S
C244 C239 1.395 . S
C244 C241 1.386 . S
C244 H263 0.930 . S
Eu245 N242 2.609 . S
Eu245 N246 2.657 . S
Eu245 O279 2.380 . S
Eu245 O280 2.432 . S
Eu245 O284 2.558 . S
Eu245 O285 2.612 1_545 S
Eu245 O287 2.339 1_545 S
Eu245 O288 2.563 1_545 S
Eu245 O289 2.419 1_545 S
Eu245 C309 2.848 1_545 S
N246 C238 1.362 . S
N246 Eu245 2.657 . S
N246 C247 1.334 . S
C247 N246 1.334 . S
C247 C249 1.413 . S
C247 H254 0.929 . S
C248 C236 1.392 . S
C248 C249 1.367 . S
C248 H256 0.930 . S
C249 C247 1.413 . S
C249 C248 1.367 . S
C249 H251 0.930 . S
H250 C243 0.930 . S
H251 C249 0.930 . S
H252 C240 0.930 . S
H253 C241 0.930 . S
H254 C247 0.929 . S
H255 C269 0.930 . S
H256 C248 0.930 . S
H257 C275 0.930 . S
H258 C266 0.929 . S
H259 C273 0.930 . S
H260 C237 0.931 . S
H261 C267 0.930 . S
H262 C300 0.930 . S
H263 C244 0.930 . S
H264 C299 0.931 . S
N265 Eu234 2.657 . S
N265 C266 1.334 . S
N265 C270 1.362 . S
C266 H258 0.929 . S
C266 N265 1.334 . S
C266 C269 1.413 . S
C267 H261 0.930 . S
C267 C268 1.392 . S
C267 C269 1.367 . S
C268 C267 1.392 . S
C268 C270 1.420 . S
C268 C300 1.423 . S
C269 H255 0.930 . S
C269 C266 1.413 . S
C269 C267 1.367 . S
C270 N265 1.362 . S
C270 C268 1.420 . S
C270 C274 1.429 . S
H271 C276 0.930 . S
N272 Eu234 2.609 . S
N272 C274 1.377 . S
N272 C275 1.321 . S
C273 H259 0.930 . S
C273 C275 1.400 . S
C273 C276 1.386 . S
C274 C270 1.429 . S
C274 N272 1.377 . S
C274 C277 1.411 . S
C275 H257 0.930 . S
C275 N272 1.321 . S
C275 C273 1.400 . S
C276 H271 0.930 . S
C276 C273 1.386 . S
C276 C277 1.395 . S
C277 C274 1.411 . S
C277 C276 1.395 . S
C277 C299 1.420 . S
O278 Eu234 2.558 . S
O278 C298 1.257 1_565 S
O279 Eu234 2.612 1_544 S
O279 Eu245 2.380 . S
O279 C290 1.276 1_554 S
O280 Eu245 2.432 . S
O280 C297 1.264 1_554 S
O281 Eu234 2.339 1_545 S
O281 C297 1.254 . S
O282 Eu234 2.563 1_545 S
O282 C290 1.235 . S
O283 Eu234 2.419 1_545 S
O283 C298 1.249 . S
O284 Eu245 2.558 . S
O284 C309 1.257 1_545 S
O285 Eu234 2.380 1_554 S
O285 Eu245 2.612 1_565 S
O285 C301 1.276 . S
O286 Eu234 2.432 . S
O286 C308 1.264 1_556 S
O287 Eu245 2.339 1_565 S
O287 C308 1.254 . S
O288 Eu245 2.563 1_565 S
O288 C301 1.235 . S
O289 Eu245 2.419 1_565 S
O289 C309 1.249 . S
C290 O279 1.276 1_556 S
C290 O282 1.235 . S
C291 C293 1.393 . S
C291 C295 1.395 1_545 S
C291 C298 1.492 . S
C292 C293 1.392 . S
C292 C294 1.386 . S
C293 C291 1.393 . S
C293 C292 1.392 . S
C293 H310 0.930 . S
C294 C292 1.386 . S
C294 C296 1.395 . S
C294 H311 0.930 . S
C295 C291 1.395 1_565 S
C295 C296 1.379 1_565 S
C295 H312 0.930 . S
C296 C294 1.395 . S
C296 C295 1.379 1_545 S
C296 H313 0.930 1_545 S
C297 O280 1.264 1_556 S
C297 O281 1.254 . S
C298 Eu234 2.848 1_545 S
C298 O278 1.257 1_545 S
C298 O283 1.249 . S
C298 C291 1.492 . S
C299 H264 0.931 . S
C299 C277 1.420 . S
C299 C300 1.351 . S
C300 H262 0.930 . S
C300 C268 1.423 . S
C300 C299 1.351 . S
C301 O285 1.276 . S
C301 O288 1.235 . S
C302 C303 1.393 . S
C302 C306 1.395 1_565 S
C302 C309 1.492 . S
C303 C302 1.393 . S
C303 C304 1.392 . S
C303 H314 0.930 . S
C304 C303 1.392 . S
C304 C305 1.386 . S
C305 C304 1.386 . S
C305 C307 1.395 . S
C305 H315 0.930 . S
C306 C302 1.395 1_545 S
C306 C307 1.379 1_545 S
C306 H316 0.930 . S
C307 C305 1.395 . S
C307 C306 1.379 1_565 S
C307 H317 0.930 1_565 S
C308 O286 1.264 1_554 S
C308 O287 1.254 . S
C309 Eu245 2.848 1_565 S
C309 O284 1.257 1_565 S
C309 O289 1.249 . S
C309 C302 1.492 . S
H310 C293 0.930 . S
H311 C294 0.930 . S
H312 C295 0.930 . S
H313 C296 0.930 1_565 S
H314 C303 0.930 . S
H315 C305 0.930 . S
H316 C306 0.930 . S
H317 C307 0.930 1_545 S
Eu318 N349 2.657 . S
Eu318 N356 2.609 . S
Eu318 O362 2.558 . S
Eu318 O363 2.612 1_455 S
Eu318 O365 2.339 1_455 S
Eu318 O366 2.563 1_455 S
Eu318 O367 2.419 . S
Eu318 O369 2.380 1_556 S
Eu318 O370 2.432 . S
Eu318 C382 2.848 . S
C319 C322 1.429 . S
C319 C323 1.411 . S
C319 N326 1.377 . S
C320 C322 1.420 . S
C320 C324 1.423 . S
C320 C332 1.392 . S
C321 C323 1.420 . S
C321 C324 1.351 . S
C321 H344 0.931 . S
C322 C319 1.429 . S
C322 C320 1.420 . S
C322 N330 1.362 . S
C323 C319 1.411 . S
C323 C321 1.420 . S
C323 C328 1.395 . S
C324 C320 1.423 . S
C324 C321 1.351 . S
C324 H336 0.930 . S
C325 C327 1.400 . S
C325 C328 1.386 . S
C325 H337 0.930 . S
N326 C319 1.377 . S
N326 C327 1.321 . S
N326 Eu329 2.609 . S
C327 C325 1.400 . S
C327 N326 1.321 . S
C327 H334 0.930 . S
C328 C323 1.395 . S
C328 C325 1.386 . S
C328 H347 0.930 . S
Eu329 N326 2.609 . S
Eu329 N330 2.657 . S
Eu329 O363 2.380 1_554 S
Eu329 O364 2.432 . S
Eu329 O368 2.558 . S
Eu329 O369 2.612 1_655 S
Eu329 O371 2.339 1_655 S
Eu329 O372 2.563 1_655 S
Eu329 O373 2.419 . S
Eu329 C393 2.848 . S
N330 C322 1.362 . S
N330 Eu329 2.657 . S
N330 C331 1.334 . S
C331 N330 1.334 . S
C331 C333 1.413 . S
C331 H338 0.929 . S
C332 C320 1.392 . S
C332 C333 1.367 . S
C332 H340 0.930 . S
C333 C331 1.413 . S
C333 C332 1.367 . S
C333 H335 0.930 . S
H334 C327 0.930 . S
H335 C333 0.930 . S
H336 C324 0.930 . S
H337 C325 0.930 . S
H338 C331 0.929 . S
H339 C353 0.930 . S
H340 C332 0.930 . S
H341 C359 0.930 . S
H342 C350 0.929 . S
H343 C357 0.930 . S
H344 C321 0.931 . S
H345 C351 0.930 . S
H346 C384 0.930 . S
H347 C328 0.930 . S
H348 C383 0.931 . S
N349 Eu318 2.657 . S
N349 C350 1.334 . S
N349 C354 1.362 . S
C350 H342 0.929 . S
C350 N349 1.334 . S
C350 C353 1.413 . S
C351 H345 0.930 . S
C351 C352 1.392 . S
C351 C353 1.367 . S
C352 C351 1.392 . S
C352 C354 1.420 . S
C352 C384 1.423 . S
C353 H339 0.930 . S
C353 C350 1.413 . S
C353 C351 1.367 . S
C354 N349 1.362 . S
C354 C352 1.420 . S
C354 C358 1.429 . S
H355 C360 0.930 . S
N356 Eu318 2.609 . S
N356 C358 1.377 . S
N356 C359 1.321 . S
C357 H343 0.930 . S
C357 C359 1.400 . S
C357 C360 1.386 . S
C358 C354 1.429 . S
C358 N356 1.377 . S
C358 C361 1.411 . S
C359 H341 0.930 . S
C359 N356 1.321 . S
C359 C357 1.400 . S
C360 H355 0.930 . S
C360 C357 1.386 . S
C360 C361 1.395 . S
C361 C358 1.411 . S
C361 C360 1.395 . S
C361 C383 1.420 . S
O362 Eu318 2.558 . S
O362 C382 1.257 . S
O363 Eu318 2.612 1_655 S
O363 Eu329 2.380 1_556 S
O363 C374 1.276 . S
O364 Eu329 2.432 . S
O364 C381 1.264 1_554 S
O365 Eu318 2.339 1_655 S
O365 C381 1.254 . S
O366 Eu318 2.563 1_655 S
O366 C374 1.235 . S
O367 Eu318 2.419 . S
O367 C382 1.249 . S
O368 Eu329 2.558 . S
O368 C393 1.257 . S
O369 Eu318 2.380 1_554 S
O369 Eu329 2.612 1_455 S
O369 C385 1.276 . S
O370 Eu318 2.432 . S
O370 C392 1.264 1_556 S
O371 Eu329 2.339 1_455 S
O371 C392 1.254 . S
O372 Eu329 2.563 1_455 S
O372 C385 1.235 . S
O373 Eu329 2.419 . S
O373 C393 1.249 . S
C374 O363 1.276 . S
C374 O366 1.235 . S
C375 C377 1.393 1_455 S
C375 C379 1.395 . S
C375 C382 1.492 . S
C376 C377 1.392 . S
C376 C378 1.386 1_655 S
C377 C375 1.393 1_655 S
C377 C376 1.392 . S
C377 H394 0.930 . S
C378 C376 1.386 1_455 S
C378 C380 1.395 . S
C378 H395 0.930 . S
C379 C375 1.395 . S
C379 C380 1.379 . S
C379 H396 0.930 . S
C380 C378 1.395 . S
C380 C379 1.379 . S
C380 H397 0.930 . S
C381 O364 1.264 1_556 S
C381 O365 1.254 . S
C382 Eu318 2.848 . S
C382 O362 1.257 . S
C382 O367 1.249 . S
C382 C375 1.492 . S
C383 H348 0.931 . S
C383 C361 1.420 . S
C383 C384 1.351 . S
C384 H346 0.930 . S
C384 C352 1.423 . S
C384 C383 1.351 . S
C385 O369 1.276 . S
C385 O372 1.235 . S
C386 C387 1.393 1_655 S
C386 C390 1.395 . S
C386 C393 1.492 . S
C387 C386 1.393 1_455 S
C387 C388 1.392 . S
C387 H398 0.930 . S
C388 C387 1.392 . S
C388 C389 1.386 1_455 S
C389 C388 1.386 1_655 S
C389 C391 1.395 . S
C389 H399 0.930 . S
C390 C386 1.395 . S
C390 C391 1.379 . S
C390 H400 0.930 . S
C391 C389 1.395 . S
C391 C390 1.379 . S
C391 H401 0.930 . S
C392 O370 1.264 1_554 S
C392 O371 1.254 . S
C393 Eu329 2.848 . S
C393 O368 1.257 . S
C393 O373 1.249 . S
C393 C386 1.492 . S
H394 C377 0.930 . S
H395 C378 0.930 . S
H396 C379 0.930 . S
H397 C380 0.930 . S
H398 C387 0.930 . S
H399 C389 0.930 . S
H400 C390 0.930 . S
H401 C391 0.930 . S
Eu402 N433 2.657 . S
Eu402 N440 2.609 . S
Eu402 O446 2.558 . S
Eu402 O447 2.612 . S
Eu402 O449 2.339 . S
Eu402 O450 2.563 . S
Eu402 O451 2.419 . S
Eu402 O453 2.380 . S
Eu402 O454 2.432 . S
Eu402 C466 2.848 . S
C403 C406 1.429 . S
C403 C407 1.411 . S
C403 N410 1.377 . S
C404 C406 1.420 . S
C404 C408 1.423 . S
C404 C416 1.392 . S
C405 C407 1.420 . S
C405 C408 1.351 . S
C405 H428 0.931 . S
C406 C403 1.429 . S
C406 C404 1.420 . S
C406 N414 1.362 . S
C407 C403 1.411 . S
C407 C405 1.420 . S
C407 C412 1.395 . S
C408 C404 1.423 . S
C408 C405 1.351 . S
C408 H420 0.930 . S
C409 C411 1.400 . S
C409 C412 1.386 . S
C409 H421 0.930 . S
N410 C403 1.377 . S
N410 C411 1.321 . S
N410 Eu413 2.609 . S
C411 C409 1.400 . S
C411 N410 1.321 . S
C411 H418 0.930 . S
C412 C407 1.395 . S
C412 C409 1.386 . S
C412 H431 0.930 . S
Eu413 N410 2.609 . S
Eu413 N414 2.657 . S
Eu413 O447 2.380 1_556 S
Eu413 O448 2.432 . S
Eu413 O452 2.558 . S
Eu413 O453 2.612 1_556 S
Eu413 O455 2.339 . S
Eu413 O456 2.563 . S
Eu413 O457 2.419 . S
Eu413 C477 2.848 . S
N414 C406 1.362 . S
N414 Eu413 2.657 . S
N414 C415 1.334 . S
C415 N414 1.334 . S
C415 C417 1.413 . S
C415 H422 0.929 . S
C416 C404 1.392 . S
C416 C417 1.367 . S
C416 H424 0.930 . S
C417 C415 1.413 . S
C417 C416 1.367 . S
C417 H419 0.930 . S
H418 C411 0.930 . S
H419 C417 0.930 . S
H420 C408 0.930 . S
H421 C409 0.930 . S
H422 C415 0.929 . S
H423 C437 0.930 . S
H424 C416 0.930 . S
H425 C443 0.930 . S
H426 C434 0.929 . S
H427 C441 0.930 . S
H428 C405 0.931 . S
H429 C435 0.930 . S
H430 C468 0.930 . S
H431 C412 0.930 . S
H432 C467 0.931 . S
N433 Eu402 2.657 . S
N433 C434 1.334 . S
N433 C438 1.362 . S
C434 H426 0.929 . S
C434 N433 1.334 . S
C434 C437 1.413 . S
C435 H429 0.930 . S
C435 C436 1.392 . S
C435 C437 1.367 . S
C436 C435 1.392 . S
C436 C438 1.420 . S
C436 C468 1.423 . S
C437 H423 0.930 . S
C437 C434 1.413 . S
C437 C435 1.367 . S
C438 N433 1.362 . S
C438 C436 1.420 . S
C438 C442 1.429 . S
H439 C444 0.930 . S
N440 Eu402 2.609 . S
N440 C442 1.377 . S
N440 C443 1.321 . S
C441 H427 0.930 . S
C441 C443 1.400 . S
C441 C444 1.386 . S
C442 C438 1.429 . S
C442 N440 1.377 . S
C442 C445 1.411 . S
C443 H425 0.930 . S
C443 N440 1.321 . S
C443 C441 1.400 . S
C444 H439 0.930 . S
C444 C441 1.386 . S
C444 C445 1.395 . S
C445 C442 1.411 . S
C445 C444 1.395 . S
C445 C467 1.420 . S
O446 Eu402 2.558 . S
O446 C466 1.257 . S
O447 Eu402 2.612 . S
O447 Eu413 2.380 1_554 S
O447 C458 1.276 . S
O448 Eu413 2.432 . S
O448 C465 1.264 1_556 S
O449 Eu402 2.339 . S
O449 C465 1.254 . S
O450 Eu402 2.563 . S
O450 C458 1.235 . S
O451 Eu402 2.419 . S
O451 C466 1.249 . S
O452 Eu413 2.558 . S
O452 C477 1.257 . S
O453 Eu402 2.380 . S
O453 Eu413 2.612 1_554 S
O453 C469 1.276 1_554 S
O454 Eu402 2.432 . S
O454 C476 1.264 . S
O455 Eu413 2.339 . S
O455 C476 1.254 1_556 S
O456 Eu413 2.563 . S
O456 C469 1.235 . S
O457 Eu413 2.419 . S
O457 C477 1.249 . S
C458 O447 1.276 . S
C458 O450 1.235 . S
C459 C461 1.393 . S
C459 C463 1.395 . S
C459 C466 1.492 . S
C460 C461 1.392 . S
C460 C462 1.386 . S
C461 C459 1.393 . S
C461 C460 1.392 . S
C461 H478 0.930 . S
C462 C460 1.386 . S
C462 C464 1.395 . S
C462 H479 0.930 . S
C463 C459 1.395 . S
C463 C464 1.379 . S
C463 H480 0.930 . S
C464 C462 1.395 . S
C464 C463 1.379 . S
C464 H481 0.930 . S
C465 O448 1.264 1_554 S
C465 O449 1.254 . S
C466 Eu402 2.848 . S
C466 O446 1.257 . S
C466 O451 1.249 . S
C466 C459 1.492 . S
C467 H432 0.931 . S
C467 C445 1.420 . S
C467 C468 1.351 . S
C468 H430 0.930 . S
C468 C436 1.423 . S
C468 C467 1.351 . S
C469 O453 1.276 1_556 S
C469 O456 1.235 . S
C470 C471 1.393 . S
C470 C474 1.395 . S
C470 C477 1.492 . S
C471 C470 1.393 . S
C471 C472 1.392 . S
C471 H482 0.930 . S
C472 C471 1.392 . S
C472 C473 1.386 . S
C473 C472 1.386 . S
C473 C475 1.395 . S
C473 H483 0.930 . S
C474 C470 1.395 . S
C474 C475 1.379 . S
C474 H484 0.930 . S
C475 C473 1.395 . S
C475 C474 1.379 . S
C475 H485 0.930 . S
C476 O454 1.264 . S
C476 O455 1.254 1_554 S
C477 Eu413 2.848 . S
C477 O452 1.257 . S
C477 O457 1.249 . S
C477 C470 1.492 . S
H478 C461 0.930 . S
H479 C462 0.930 . S
H480 C463 0.930 . S
H481 C464 0.930 . S
H482 C471 0.930 . S
H483 C473 0.930 . S
H484 C474 0.930 . S
H485 C475 0.930 . S
Eu486 N517 2.657 . S
Eu486 N524 2.609 . S
Eu486 O530 2.558 . S
Eu486 O531 2.612 . S
Eu486 O533 2.339 . S
Eu486 O534 2.563 . S
Eu486 O535 2.419 . S
Eu486 O537 2.380 . S
Eu486 O538 2.432 . S
Eu486 C550 2.848 . S
C487 C490 1.429 . S
C487 C491 1.411 . S
C487 N494 1.377 . S
C488 C490 1.420 . S
C488 C492 1.423 . S
C488 C500 1.392 . S
C489 C491 1.420 . S
C489 C492 1.351 . S
C489 H512 0.931 . S
C490 C487 1.429 . S
C490 C488 1.420 . S
C490 N498 1.362 . S
C491 C487 1.411 . S
C491 C489 1.420 . S
C491 C496 1.395 . S
C492 C488 1.423 . S
C492 C489 1.351 . S
C492 H504 0.930 . S
C493 C495 1.400 . S
C493 C496 1.386 . S
C493 H505 0.930 . S
N494 C487 1.377 . S
N494 C495 1.321 . S
N494 Eu497 2.609 . S
C495 C493 1.400 . S
C495 N494 1.321 . S
C495 H502 0.930 . S
C496 C491 1.395 . S
C496 C493 1.386 . S
C496 H515 0.930 . S
Eu497 N494 2.609 . S
Eu497 N498 2.657 . S
Eu497 O531 2.380 . S
Eu497 O532 2.432 . S
Eu497 O536 2.558 . S
Eu497 O537 2.612 . S
Eu497 O539 2.339 . S
Eu497 O540 2.563 . S
Eu497 O541 2.419 . S
Eu497 C561 2.848 . S
N498 C490 1.362 . S
N498 Eu497 2.657 . S
N498 C499 1.334 . S
C499 N498 1.334 . S
C499 C501 1.413 . S
C499 H506 0.929 . S
C500 C488 1.392 . S
C500 C501 1.367 . S
C500 H508 0.930 . S
C501 C499 1.413 . S
C501 C500 1.367 . S
C501 H503 0.930 . S
H502 C495 0.930 . S
H503 C501 0.930 . S
H504 C492 0.930 . S
H505 C493 0.930 . S
H506 C499 0.929 . S
H507 C521 0.930 . S
H508 C500 0.930 . S
H509 C527 0.930 . S
H510 C518 0.929 . S
H511 C525 0.930 . S
H512 C489 0.931 . S
H513 C519 0.930 . S
H514 C552 0.930 . S
H515 C496 0.930 . S
H516 C551 0.931 1_565 S
N517 Eu486 2.657 . S
N517 C518 1.334 1_455 S
N517 C522 1.362 1_455 S
C518 H510 0.929 . S
C518 N517 1.334 1_655 S
C518 C521 1.413 . S
C519 H513 0.930 . S
C519 C520 1.392 . S
C519 C521 1.367 . S
C520 C519 1.392 . S
C520 C522 1.420 . S
C520 C552 1.423 . S
C521 H507 0.930 . S
C521 C518 1.413 . S
C521 C519 1.367 . S
C522 N517 1.362 1_655 S
C522 C520 1.420 . S
C522 C526 1.429 1_655 S
H523 C528 0.930 . S
N524 Eu486 2.609 . S
N524 C526 1.377 . S
N524 C527 1.321 . S
C525 H511 0.930 . S
C525 C527 1.400 . S
C525 C528 1.386 . S
C526 C522 1.429 1_455 S
C526 N524 1.377 . S
C526 C529 1.411 1_455 S
C527 H509 0.930 . S
C527 N524 1.321 . S
C527 C525 1.400 . S
C528 H523 0.930 . S
C528 C525 1.386 . S
C528 C529 1.395 1_455 S
C529 C526 1.411 1_655 S
C529 C528 1.395 1_655 S
C529 C551 1.420 . S
O530 Eu486 2.558 . S
O530 C550 1.257 . S
O531 Eu486 2.612 . S
O531 Eu497 2.380 . S
O531 C542 1.276 . S
O532 Eu497 2.432 . S
O532 C549 1.264 . S
O533 Eu486 2.339 . S
O533 C549 1.254 . S
O534 Eu486 2.563 . S
O534 C542 1.235 . S
O535 Eu486 2.419 . S
O535 C550 1.249 . S
O536 Eu497 2.558 . S
O536 C561 1.257 . S
O537 Eu486 2.380 . S
O537 Eu497 2.612 . S
O537 C553 1.276 . S
O538 Eu486 2.432 . S
O538 C560 1.264 . S
O539 Eu497 2.339 . S
O539 C560 1.254 . S
O540 Eu497 2.563 . S
O540 C553 1.235 . S
O541 Eu497 2.419 . S
O541 C561 1.249 . S
C542 O531 1.276 . S
C542 O534 1.235 . S
C543 C545 1.393 . S
C543 C547 1.395 . S
C543 C550 1.492 . S
C544 C545 1.392 . S
C544 C546 1.386 . S
C545 C543 1.393 . S
C545 C544 1.392 . S
C545 H562 0.930 . S
C546 C544 1.386 . S
C546 C548 1.395 . S
C546 H563 0.930 . S
C547 C543 1.395 . S
C547 C548 1.379 . S
C547 H564 0.930 . S
C548 C546 1.395 . S
C548 C547 1.379 . S
C548 H565 0.930 . S
C549 O532 1.264 . S
C549 O533 1.254 . S
C550 Eu486 2.848 . S
C550 O530 1.257 . S
C550 O535 1.249 . S
C550 C543 1.492 . S
C551 H516 0.931 1_545 S
C551 C529 1.420 . S
C551 C552 1.351 . S
C552 H514 0.930 . S
C552 C520 1.423 . S
C552 C551 1.351 . S
C553 O537 1.276 . S
C553 O540 1.235 . S
C554 C555 1.393 . S
C554 C558 1.395 . S
C554 C561 1.492 . S
C555 C554 1.393 . S
C555 C556 1.392 . S
C555 H566 0.930 . S
C556 C555 1.392 . S
C556 C557 1.386 . S
C557 C556 1.386 . S
C557 C559 1.395 . S
C557 H567 0.930 . S
C558 C554 1.395 . S
C558 C559 1.379 . S
C558 H568 0.930 . S
C559 C557 1.395 . S
C559 C558 1.379 . S
C559 H569 0.930 . S
C560 O538 1.264 . S
C560 O539 1.254 . S
C561 Eu497 2.848 . S
C561 O536 1.257 . S
C561 O541 1.249 . S
C561 C554 1.492 . S
H562 C545 0.930 . S
H563 C546 0.930 . S
H564 C547 0.930 . S
H565 C548 0.930 . S
H566 C555 0.930 . S
H567 C557 0.930 . S
H568 C558 0.930 . S
H569 C559 0.930 . S
Eu570 N601 2.657 . S
Eu570 N608 2.609 . S
Eu570 O614 2.558 . S
Eu570 O615 2.612 . S
Eu570 O617 2.339 . S
Eu570 O618 2.563 . S
Eu570 O619 2.419 . S
Eu570 O621 2.380 . S
Eu570 O622 2.432 1_565 S
Eu570 C634 2.848 . S
C571 C574 1.429 . S
C571 C575 1.411 . S
C571 N578 1.377 . S
C572 C574 1.420 . S
C572 C576 1.423 . S
C572 C584 1.392 . S
C573 C575 1.420 . S
C573 C576 1.351 . S
C573 H596 0.931 . S
C574 C571 1.429 . S
C574 C572 1.420 . S
C574 N582 1.362 . S
C575 C571 1.411 . S
C575 C573 1.420 . S
C575 C580 1.395 . S
C576 C572 1.423 . S
C576 C573 1.351 . S
C576 H588 0.930 . S
C577 C579 1.400 . S
C577 C580 1.386 . S
C577 H589 0.930 . S
N578 C571 1.377 . S
N578 C579 1.321 . S
N578 Eu581 2.609 . S
C579 C577 1.400 . S
C579 N578 1.321 . S
C579 H586 0.930 . S
C580 C575 1.395 . S
C580 C577 1.386 . S
C580 H599 0.930 . S
Eu581 N578 2.609 . S
Eu581 N582 2.657 . S
Eu581 O615 2.380 . S
Eu581 O616 2.432 . S
Eu581 O620 2.558 . S
Eu581 O621 2.612 . S
Eu581 O623 2.339 . S
Eu581 O624 2.563 . S
Eu581 O625 2.419 . S
Eu581 C645 2.848 . S
N582 C574 1.362 . S
N582 Eu581 2.657 . S
N582 C583 1.334 . S
C583 N582 1.334 . S
C583 C585 1.413 . S
C583 H590 0.929 . S
C584 C572 1.392 . S
C584 C585 1.367 . S
C584 H592 0.930 . S
C585 C583 1.413 . S
C585 C584 1.367 . S
C585 H587 0.930 1_565 S
H586 C579 0.930 . S
H587 C585 0.930 1_545 S
H588 C576 0.930 . S
H589 C577 0.930 . S
H590 C583 0.929 . S
H591 C605 0.930 . S
H592 C584 0.930 . S
H593 C611 0.930 . S
H594 C602 0.929 . S
H595 C609 0.930 . S
H596 C573 0.931 . S
H597 C603 0.930 1_455 S
H598 C636 0.930 . S
H599 C580 0.930 . S
H600 C635 0.931 . S
N601 Eu570 2.657 . S
N601 C602 1.334 . S
N601 C606 1.362 . S
C602 H594 0.929 . S
C602 N601 1.334 . S
C602 C605 1.413 . S
C603 H597 0.930 1_655 S
C603 C604 1.392 . S
C603 C605 1.367 . S
C604 C603 1.392 . S
C604 C606 1.420 . S
C604 C636 1.423 1_655 S
C605 H591 0.930 . S
C605 C602 1.413 . S
C605 C603 1.367 . S
C606 N601 1.362 . S
C606 C604 1.420 . S
C606 C610 1.429 . S
H607 C612 0.930 . S
N608 Eu570 2.609 . S
N608 C610 1.377 . S
N608 C611 1.321 1_565 S
C609 H595 0.930 . S
C609 C611 1.400 . S
C609 C612 1.386 1_655 S
C610 C606 1.429 . S
C610 N608 1.377 . S
C610 C613 1.411 1_665 S
C611 H593 0.930 . S
C611 N608 1.321 1_545 S
C611 C609 1.400 . S
C612 H607 0.930 . S
C612 C609 1.386 1_455 S
C612 C613 1.395 . S
C613 C610 1.411 1_445 S
C613 C612 1.395 . S
C613 C635 1.420 . S
O614 Eu570 2.558 . S
O614 C634 1.257 . S
O615 Eu570 2.612 . S
O615 Eu581 2.380 . S
O615 C626 1.276 . S
O616 Eu581 2.432 . S
O616 C633 1.264 . S
O617 Eu570 2.339 . S
O617 C633 1.254 . S
O618 Eu570 2.563 . S
O618 C626 1.235 . S
O619 Eu570 2.419 . S
O619 C634 1.249 . S
O620 Eu581 2.558 . S
O620 C645 1.257 . S
O621 Eu570 2.380 . S
O621 Eu581 2.612 . S
O621 C637 1.276 . S
O622 Eu570 2.432 1_545 S
O622 C644 1.264 . S
O623 Eu581 2.339 . S
O623 C644 1.254 1_565 S
O624 Eu581 2.563 . S
O624 C637 1.235 . S
O625 Eu581 2.419 . S
O625 C645 1.249 . S
C626 O615 1.276 . S
C626 O618 1.235 . S
C627 C629 1.393 . S
C627 C631 1.395 . S
C627 C634 1.492 . S
C628 C629 1.392 . S
C628 C630 1.386 . S
C629 C627 1.393 . S
C629 C628 1.392 . S
C629 H646 0.930 . S
C630 C628 1.386 . S
C630 C632 1.395 . S
C630 H647 0.930 . S
C631 C627 1.395 . S
C631 C632 1.379 . S
C631 H648 0.930 1_565 S
C632 C630 1.395 . S
C632 C631 1.379 . S
C632 H649 0.930 1_565 S
C633 O616 1.264 . S
C633 O617 1.254 . S
C634 Eu570 2.848 . S
C634 O614 1.257 . S
C634 O619 1.249 . S
C634 C627 1.492 . S
C635 H600 0.931 . S
C635 C613 1.420 . S
C635 C636 1.351 1_545 S
C636 H598 0.930 . S
C636 C604 1.423 1_455 S
C636 C635 1.351 1_565 S
C637 O621 1.276 . S
C637 O624 1.235 . S
C638 C639 1.393 . S
C638 C642 1.395 . S
C638 C645 1.492 . S
C639 C638 1.393 . S
C639 C640 1.392 . S
C639 H650 0.930 . S
C640 C639 1.392 . S
C640 C641 1.386 . S
C641 C640 1.386 . S
C641 C643 1.395 . S
C641 H651 0.930 . S
C642 C638 1.395 . S
C642 C643 1.379 . S
C642 H652 0.930 . S
C643 C641 1.395 . S
C643 C642 1.379 . S
C643 H653 0.930 . S
C644 O622 1.264 . S
C644 O623 1.254 1_545 S
C645 Eu581 2.848 . S
C645 O620 1.257 . S
C645 O625 1.249 . S
C645 C638 1.492 . S
H646 C629 0.930 . S
H647 C630 0.930 . S
H648 C631 0.930 1_545 S
H649 C632 0.930 1_545 S
H650 C639 0.930 . S
H651 C641 0.930 . S
H652 C642 0.930 . S
H653 C643 0.930 . S
Eu654 N685 2.657 . S
Eu654 N692 2.609 . S
Eu654 O698 2.558 . S
Eu654 O699 2.612 . S
Eu654 O701 2.339 . S
Eu654 O702 2.563 . S
Eu654 O703 2.419 . S
Eu654 O705 2.380 . S
Eu654 O706 2.432 . S
Eu654 C718 2.848 . S
C655 C658 1.429 . S
C655 C659 1.411 . S
C655 N662 1.377 1_655 S
C656 C658 1.420 . S
C656 C660 1.423 . S
C656 C668 1.392 . S
C657 C659 1.420 . S
C657 C660 1.351 . S
C657 H680 0.931 . S
C658 C655 1.429 . S
C658 C656 1.420 . S
C658 N666 1.362 . S
C659 C655 1.411 . S
C659 C657 1.420 . S
C659 C664 1.395 1_665 S
C660 C656 1.423 . S
C660 C657 1.351 . S
C660 H672 0.930 . S
C661 C663 1.400 . S
C661 C664 1.386 . S
C661 H673 0.930 . S
N662 C655 1.377 1_455 S
N662 C663 1.321 1_565 S
N662 Eu665 2.609 . S
C663 C661 1.400 . S
C663 N662 1.321 1_545 S
C663 H670 0.930 . S
C664 C659 1.395 1_445 S
C664 C661 1.386 . S
C664 H683 0.930 . S
Eu665 N662 2.609 . S
Eu665 N666 2.657 1_455 S
Eu665 O699 2.380 . S
Eu665 O700 2.432 . S
Eu665 O704 2.558 . S
Eu665 O705 2.612 . S
Eu665 O707 2.339 . S
Eu665 O708 2.563 . S
Eu665 O709 2.419 . S
Eu665 C729 2.848 . S
N666 C658 1.362 . S
N666 Eu665 2.657 1_655 S
N666 C667 1.334 . S
C667 N666 1.334 . S
C667 C669 1.413 . S
C667 H674 0.929 . S
C668 C656 1.392 . S
C668 C669 1.367 . S
C668 H676 0.930 . S
C669 C667 1.413 . S
C669 C668 1.367 . S
C669 H671 0.930 . S
H670 C663 0.930 . S
H671 C669 0.930 . S
H672 C660 0.930 . S
H673 C661 0.930 . S
H674 C667 0.929 . S
H675 C689 0.930 . S
H676 C668 0.930 . S
H677 C695 0.930 . S
H678 C686 0.929 . S
H679 C693 0.930 . S
H680 C657 0.931 . S
H681 C687 0.930 . S
H682 C720 0.930 . S
H683 C664 0.930 . S
H684 C719 0.931 . S
N685 Eu654 2.657 . S
N685 C686 1.334 . S
N685 C690 1.362 . S
C686 H678 0.929 . S
C686 N685 1.334 . S
C686 C689 1.413 . S
C687 H681 0.930 . S
C687 C688 1.392 . S
C687 C689 1.367 . S
C688 C687 1.392 . S
C688 C690 1.420 . S
C688 C720 1.423 . S
C689 H675 0.930 . S
C689 C686 1.413 . S
C689 C687 1.367 . S
C690 N685 1.362 . S
C690 C688 1.420 . S
C690 C694 1.429 . S
H691 C696 0.930 . S
N692 Eu654 2.609 . S
N692 C694 1.377 . S
N692 C695 1.321 . S
C693 H679 0.930 . S
C693 C695 1.400 . S
C693 C696 1.386 . S
C694 C690 1.429 . S
C694 N692 1.377 . S
C694 C697 1.411 . S
C695 H677 0.930 . S
C695 N692 1.321 . S
C695 C693 1.400 . S
C696 H691 0.930 . S
C696 C693 1.386 . S
C696 C697 1.395 . S
C697 C694 1.411 . S
C697 C696 1.395 . S
C697 C719 1.420 . S
O698 Eu654 2.558 . S
O698 C718 1.257 . S
O699 Eu654 2.612 . S
O699 Eu665 2.380 . S
O699 C710 1.276 . S
O700 Eu665 2.432 . S
O700 C717 1.264 . S
O701 Eu654 2.339 . S
O701 C717 1.254 . S
O702 Eu654 2.563 . S
O702 C710 1.235 . S
O703 Eu654 2.419 . S
O703 C718 1.249 . S
O704 Eu665 2.558 . S
O704 C729 1.257 . S
O705 Eu654 2.380 . S
O705 Eu665 2.612 . S
O705 C721 1.276 . S
O706 Eu654 2.432 . S
O706 C728 1.264 . S
O707 Eu665 2.339 . S
O707 C728 1.254 . S
O708 Eu665 2.563 . S
O708 C721 1.235 . S
O709 Eu665 2.419 . S
O709 C729 1.249 . S
C710 O699 1.276 . S
C710 O702 1.235 . S
C711 C713 1.393 . S
C711 C715 1.395 . S
C711 C718 1.492 . S
C712 C713 1.392 . S
C712 C714 1.386 . S
C713 C711 1.393 . S
C713 C712 1.392 . S
C713 H730 0.930 . S
C714 C712 1.386 . S
C714 C716 1.395 . S
C714 H731 0.930 . S
C715 C711 1.395 . S
C715 C716 1.379 . S
C715 H732 0.930 . S
C716 C714 1.395 . S
C716 C715 1.379 . S
C716 H733 0.930 . S
C717 O700 1.264 . S
C717 O701 1.254 . S
C718 Eu654 2.848 . S
C718 O698 1.257 . S
C718 O703 1.249 . S
C718 C711 1.492 . S
C719 H684 0.931 . S
C719 C697 1.420 . S
C719 C720 1.351 . S
C720 H682 0.930 . S
C720 C688 1.423 . S
C720 C719 1.351 . S
C721 O705 1.276 . S
C721 O708 1.235 . S
C722 C723 1.393 . S
C722 C726 1.395 . S
C722 C729 1.492 . S
C723 C722 1.393 . S
C723 C724 1.392 . S
C723 H734 0.930 . S
C724 C723 1.392 . S
C724 C725 1.386 . S
C725 C724 1.386 . S
C725 C727 1.395 . S
C725 H735 0.930 . S
C726 C722 1.395 . S
C726 C727 1.379 . S
C726 H736 0.930 . S
C727 C725 1.395 . S
C727 C726 1.379 . S
C727 H737 0.930 . S
C728 O706 1.264 . S
C728 O707 1.254 . S
C729 Eu665 2.848 . S
C729 O704 1.257 . S
C729 O709 1.249 . S
C729 C722 1.492 . S
H730 C713 0.930 . S
H731 C714 0.930 . S
H732 C715 0.930 . S
H733 C716 0.930 . S
H734 C723 0.930 . S
H735 C725 0.930 . S
H736 C726 0.930 . S
H737 C727 0.930 . S
Eu738 N769 2.657 . S
Eu738 N776 2.609 . S
Eu738 O782 2.558 . S
Eu738 O783 2.612 . S
Eu738 O785 2.339 . S
Eu738 O786 2.563 1_655 S
Eu738 O787 2.419 . S
Eu738 O789 2.380 . S
Eu738 O790 2.432 . S
Eu738 C802 2.848 . S
C739 C742 1.429 . S
C739 C743 1.411 . S
C739 N746 1.377 1_455 S
C740 C742 1.420 . S
C740 C744 1.423 . S
C740 C752 1.392 . S
C741 C743 1.420 . S
C741 C744 1.351 . S
C741 H764 0.931 1_565 S
C742 C739 1.429 . S
C742 C740 1.420 . S
C742 N750 1.362 . S
C743 C739 1.411 . S
C743 C741 1.420 . S
C743 C748 1.395 . S
C744 C740 1.423 . S
C744 C741 1.351 . S
C744 H756 0.930 . S
C745 C747 1.400 . S
C745 C748 1.386 1_655 S
C745 H757 0.930 . S
N746 C739 1.377 1_655 S
N746 C747 1.321 . S
N746 Eu749 2.609 . S
C747 C745 1.400 . S
C747 N746 1.321 . S
C747 H754 0.930 . S
C748 C743 1.395 . S
C748 C745 1.386 1_455 S
C748 H767 0.930 1_565 S
Eu749 N746 2.609 . S
Eu749 N750 2.657 1_655 S
Eu749 O783 2.380 . S
Eu749 O784 2.432 . S
Eu749 O788 2.558 . S
Eu749 O789 2.612 . S
Eu749 O791 2.339 . S
Eu749 O792 2.563 . S
Eu749 O793 2.419 . S
Eu749 C813 2.848 . S
N750 C742 1.362 . S
N750 Eu749 2.657 1_455 S
N750 C751 1.334 . S
C751 N750 1.334 . S
C751 C753 1.413 . S
C751 H758 0.929 . S
C752 C740 1.392 . S
C752 C753 1.367 . S
C752 H760 0.930 . S
C753 C751 1.413 . S
C753 C752 1.367 . S
C753 H755 0.930 . S
H754 C747 0.930 . S
H755 C753 0.930 . S
H756 C744 0.930 . S
H757 C745 0.930 . S
H758 C751 0.929 . S
H759 C773 0.930 . S
H760 C752 0.930 . S
H761 C779 0.930 . S
H762 C770 0.929 . S
H763 C777 0.930 . S
H764 C741 0.931 1_545 S
H765 C771 0.930 . S
H766 C804 0.930 . S
H767 C748 0.930 1_545 S
H768 C803 0.931 . S
N769 Eu738 2.657 . S
N769 C770 1.334 . S
N769 C774 1.362 . S
C770 H762 0.929 . S
C770 N769 1.334 . S
C770 C773 1.413 . S
C771 H765 0.930 . S
C771 C772 1.392 . S
C771 C773 1.367 . S
C772 C771 1.392 . S
C772 C774 1.420 . S
C772 C804 1.423 . S
C773 H759 0.930 . S
C773 C770 1.413 . S
C773 C771 1.367 . S
C774 N769 1.362 . S
C774 C772 1.420 . S
C774 C778 1.429 . S
H775 C780 0.930 . S
N776 Eu738 2.609 . S
N776 C778 1.377 . S
N776 C779 1.321 . S
C777 H763 0.930 . S
C777 C779 1.400 . S
C777 C780 1.386 . S
C778 C774 1.429 . S
C778 N776 1.377 . S
C778 C781 1.411 . S
C779 H761 0.930 . S
C779 N776 1.321 . S
C779 C777 1.400 . S
C780 H775 0.930 . S
C780 C777 1.386 . S
C780 C781 1.395 . S
C781 C778 1.411 . S
C781 C780 1.395 . S
C781 C803 1.420 . S
O782 Eu738 2.558 . S
O782 C802 1.257 . S
O783 Eu738 2.612 . S
O783 Eu749 2.380 . S
O783 C794 1.276 1_655 S
O784 Eu749 2.432 . S
O784 C801 1.264 . S
O785 Eu738 2.339 . S
O785 C801 1.254 . S
O786 Eu738 2.563 1_455 S
O786 C794 1.235 . S
O787 Eu738 2.419 . S
O787 C802 1.249 . S
O788 Eu749 2.558 . S
O788 C813 1.257 . S
O789 Eu738 2.380 . S
O789 Eu749 2.612 . S
O789 C805 1.276 . S
O790 Eu738 2.432 . S
O790 C812 1.264 . S
O791 Eu749 2.339 . S
O791 C812 1.254 . S
O792 Eu749 2.563 . S
O792 C805 1.235 . S
O793 Eu749 2.419 . S
O793 C813 1.249 . S
C794 O783 1.276 1_455 S
C794 O786 1.235 . S
C795 C797 1.393 . S
C795 C799 1.395 . S
C795 C802 1.492 . S
C796 C797 1.392 . S
C796 C798 1.386 . S
C797 C795 1.393 . S
C797 C796 1.392 . S
C797 H814 0.930 . S
C798 C796 1.386 . S
C798 C800 1.395 . S
C798 H815 0.930 . S
C799 C795 1.395 . S
C799 C800 1.379 . S
C799 H816 0.930 . S
C800 C798 1.395 . S
C800 C799 1.379 . S
C800 H817 0.930 . S
C801 O784 1.264 . S
C801 O785 1.254 . S
C802 Eu738 2.848 . S
C802 O782 1.257 . S
C802 O787 1.249 . S
C802 C795 1.492 . S
C803 H768 0.931 . S
C803 C781 1.420 . S
C803 C804 1.351 . S
C804 H766 0.930 . S
C804 C772 1.423 . S
C804 C803 1.351 . S
C805 O789 1.276 . S
C805 O792 1.235 . S
C806 C807 1.393 . S
C806 C810 1.395 . S
C806 C813 1.492 . S
C807 C806 1.393 . S
C807 C808 1.392 . S
C807 H818 0.930 . S
C808 C807 1.392 . S
C808 C809 1.386 . S
C809 C808 1.386 . S
C809 C811 1.395 . S
C809 H819 0.930 . S
C810 C806 1.395 . S
C810 C811 1.379 . S
C810 H820 0.930 . S
C811 C809 1.395 . S
C811 C810 1.379 . S
C811 H821 0.930 . S
C812 O790 1.264 . S
C812 O791 1.254 . S
C813 Eu749 2.848 . S
C813 O788 1.257 . S
C813 O793 1.249 . S
C813 C806 1.492 . S
H814 C797 0.930 . S
H815 C798 0.930 . S
H816 C799 0.930 . S
H817 C800 0.930 . S
H818 C807 0.930 . S
H819 C809 0.930 . S
H820 C810 0.930 . S
H821 C811 0.930 . S
Eu822 N853 2.657 . S
Eu822 N860 2.609 . S
Eu822 O866 2.558 . S
Eu822 O867 2.612 . S
Eu822 O869 2.339 . S
Eu822 O870 2.563 . S
Eu822 O871 2.419 . S
Eu822 O873 2.380 . S
Eu822 O874 2.432 . S
Eu822 C886 2.848 . S
C823 C826 1.429 . S
C823 C827 1.411 1_455 S
C823 N830 1.377 . S
C824 C826 1.420 . S
C824 C828 1.423 1_455 S
C824 C836 1.392 . S
C825 C827 1.420 . S
C825 C828 1.351 . S
C825 H848 0.931 . S
C826 C823 1.429 . S
C826 C824 1.420 . S
C826 N834 1.362 . S
C827 C823 1.411 1_655 S
C827 C825 1.420 . S
C827 C832 1.395 1_545 S
C828 C824 1.423 1_655 S
C828 C825 1.351 . S
C828 H840 0.930 . S
C829 C831 1.400 . S
C829 C832 1.386 1_455 S
C829 H841 0.930 . S
N830 C823 1.377 . S
N830 C831 1.321 1_545 S
N830 Eu833 2.609 . S
C831 C829 1.400 . S
C831 N830 1.321 1_565 S
C831 H838 0.930 . S
C832 C827 1.395 1_565 S
C832 C829 1.386 1_655 S
C832 H851 0.930 . S
Eu833 N830 2.609 . S
Eu833 N834 2.657 . S
Eu833 O867 2.380 . S
Eu833 O868 2.432 . S
Eu833 O872 2.558 . S
Eu833 O873 2.612 . S
Eu833 O875 2.339 . S
Eu833 O876 2.563 . S
Eu833 O877 2.419 . S
Eu833 C897 2.848 . S
N834 C826 1.362 . S
N834 Eu833 2.657 . S
N834 C835 1.334 . S
C835 N834 1.334 . S
C835 C837 1.413 . S
C835 H842 0.929 . S
C836 C824 1.392 . S
C836 C837 1.367 . S
C836 H844 0.930 1_455 S
C837 C835 1.413 . S
C837 C836 1.367 . S
C837 H839 0.930 . S
H838 C831 0.930 . S
H839 C837 0.930 . S
H840 C828 0.930 . S
H841 C829 0.930 . S
H842 C835 0.929 . S
H843 C857 0.930 . S
H844 C836 0.930 1_655 S
H845 C863 0.930 . S
H846 C854 0.929 . S
H847 C861 0.930 . S
H848 C825 0.931 . S
H849 C855 0.930 . S
H850 C888 0.930 . S
H851 C832 0.930 . S
H852 C887 0.931 . S
N853 Eu822 2.657 . S
N853 C854 1.334 . S
N853 C858 1.362 . S
C854 H846 0.929 . S
C854 N853 1.334 . S
C854 C857 1.413 . S
C855 H849 0.930 . S
C855 C856 1.392 . S
C855 C857 1.367 . S
C856 C855 1.392 . S
C856 C858 1.420 . S
C856 C888 1.423 . S
C857 H843 0.930 . S
C857 C854 1.413 . S
C857 C855 1.367 . S
C858 N853 1.362 . S
C858 C856 1.420 . S
C858 C862 1.429 . S
H859 C864 0.930 . S
N860 Eu822 2.609 . S
N860 C862 1.377 . S
N860 C863 1.321 . S
C861 H847 0.930 . S
C861 C863 1.400 . S
C861 C864 1.386 . S
C862 C858 1.429 . S
C862 N860 1.377 . S
C862 C865 1.411 . S
C863 H845 0.930 . S
C863 N860 1.321 . S
C863 C861 1.400 . S
C864 H859 0.930 . S
C864 C861 1.386 . S
C864 C865 1.395 . S
C865 C862 1.411 . S
C865 C864 1.395 . S
C865 C887 1.420 . S
O866 Eu822 2.558 . S
O866 C886 1.257 . S
O867 Eu822 2.612 . S
O867 Eu833 2.380 . S
O867 C878 1.276 . S
O868 Eu833 2.432 . S
O868 C885 1.264 . S
O869 Eu822 2.339 . S
O869 C885 1.254 . S
O870 Eu822 2.563 . S
O870 C878 1.235 . S
O871 Eu822 2.419 . S
O871 C886 1.249 . S
O872 Eu833 2.558 . S
O872 C897 1.257 . S
O873 Eu822 2.380 . S
O873 Eu833 2.612 . S
O873 C889 1.276 . S
O874 Eu822 2.432 . S
O874 C896 1.264 . S
O875 Eu833 2.339 . S
O875 C896 1.254 . S
O876 Eu833 2.563 . S
O876 C889 1.235 . S
O877 Eu833 2.419 . S
O877 C897 1.249 . S
C878 O867 1.276 . S
C878 O870 1.235 . S
C879 C881 1.393 . S
C879 C883 1.395 . S
C879 C886 1.492 . S
C880 C881 1.392 . S
C880 C882 1.386 . S
C881 C879 1.393 . S
C881 C880 1.392 . S
C881 H898 0.930 . S
C882 C880 1.386 . S
C882 C884 1.395 . S
C882 H899 0.930 . S
C883 C879 1.395 . S
C883 C884 1.379 . S
C883 H900 0.930 . S
C884 C882 1.395 . S
C884 C883 1.379 . S
C884 H901 0.930 . S
C885 O868 1.264 . S
C885 O869 1.254 . S
C886 Eu822 2.848 . S
C886 O866 1.257 . S
C886 O871 1.249 . S
C886 C879 1.492 . S
C887 H852 0.931 . S
C887 C865 1.420 . S
C887 C888 1.351 . S
C888 H850 0.930 . S
C888 C856 1.423 . S
C888 C887 1.351 . S
C889 O873 1.276 . S
C889 O876 1.235 . S
C890 C891 1.393 . S
C890 C894 1.395 . S
C890 C897 1.492 . S
C891 C890 1.393 . S
C891 C892 1.392 . S
C891 H902 0.930 . S
C892 C891 1.392 . S
C892 C893 1.386 . S
C893 C892 1.386 . S
C893 C895 1.395 . S
C893 H903 0.930 . S
C894 C890 1.395 . S
C894 C895 1.379 . S
C894 H904 0.930 . S
C895 C893 1.395 . S
C895 C894 1.379 . S
C895 H905 0.930 . S
C896 O874 1.264 . S
C896 O875 1.254 . S
C897 Eu833 2.848 . S
C897 O872 1.257 . S
C897 O877 1.249 . S
C897 C890 1.492 . S
H898 C881 0.930 . S
H899 C882 0.930 . S
H900 C883 0.930 . S
H901 C884 0.930 . S
H902 C891 0.930 . S
H903 C893 0.930 . S
H904 C894 0.930 . S
H905 C895 0.930 . S
Eu906 N937 2.657 . S
Eu906 N944 2.609 . S
Eu906 O950 2.558 . S
Eu906 O951 2.612 . S
Eu906 O953 2.339 . S
Eu906 O954 2.563 . S
Eu906 O955 2.419 . S
Eu906 O957 2.380 . S
Eu906 O958 2.432 . S
Eu906 C970 2.848 . S
C907 C910 1.429 . S
C907 C911 1.411 . S
C907 N914 1.377 . S
C908 C910 1.420 . S
C908 C912 1.423 . S
C908 C920 1.392 . S
C909 C911 1.420 . S
C909 C912 1.351 . S
C909 H932 0.931 . S
C910 C907 1.429 . S
C910 C908 1.420 . S
C910 N918 1.362 . S
C911 C907 1.411 . S
C911 C909 1.420 . S
C911 C916 1.395 . S
C912 C908 1.423 . S
C912 C909 1.351 . S
C912 H924 0.930 . S
C913 C915 1.400 . S
C913 C916 1.386 . S
C913 H925 0.930 . S
N914 C907 1.377 . S
N914 C915 1.321 . S
N914 Eu917 2.609 . S
C915 C913 1.400 . S
C915 N914 1.321 . S
C915 H922 0.930 . S
C916 C911 1.395 . S
C916 C913 1.386 . S
C916 H935 0.930 . S
Eu917 N914 2.609 . S
Eu917 N918 2.657 . S
Eu917 O951 2.380 . S
Eu917 O952 2.432 . S
Eu917 O956 2.558 . S
Eu917 O957 2.612 . S
Eu917 O959 2.339 . S
Eu917 O960 2.563 . S
Eu917 O961 2.419 . S
Eu917 C981 2.848 . S
N918 C910 1.362 . S
N918 Eu917 2.657 . S
N918 C919 1.334 . S
C919 N918 1.334 . S
C919 C921 1.413 . S
C919 H926 0.929 . S
C920 C908 1.392 . S
C920 C921 1.367 . S
C920 H928 0.930 . S
C921 C919 1.413 . S
C921 C920 1.367 . S
C921 H923 0.930 1_545 S
H922 C915 0.930 . S
H923 C921 0.930 1_565 S
H924 C912 0.930 . S
H925 C913 0.930 . S
H926 C919 0.929 . S
H927 C941 0.930 . S
H928 C920 0.930 . S
H929 C947 0.930 . S
H930 C938 0.929 . S
H931 C945 0.930 . S
H932 C909 0.931 . S
H933 C939 0.930 . S
H934 C972 0.930 . S
H935 C916 0.930 . S
H936 C971 0.930 1_565 S
N937 Eu906 2.657 . S
N937 C938 1.334 1_655 S
N937 C942 1.362 1_655 S
C938 H930 0.929 . S
C938 N937 1.334 1_455 S
C938 C941 1.413 . S
C939 H933 0.930 . S
C939 C940 1.392 . S
C939 C941 1.367 . S
C940 C939 1.392 . S
C940 C942 1.420 . S
C940 C972 1.423 . S
C941 H927 0.930 . S
C941 C938 1.413 . S
C941 C939 1.367 . S
C942 N937 1.362 1_455 S
C942 C940 1.420 . S
C942 C946 1.429 1_455 S
H943 C948 0.930 . S
N944 Eu906 2.609 . S
N944 C946 1.377 . S
N944 C947 1.321 1_545 S
C945 H931 0.930 . S
C945 C947 1.400 . S
C945 C948 1.386 . S
C946 C942 1.429 1_655 S
C946 N944 1.377 . S
C946 C949 1.411 1_545 S
C947 H929 0.930 . S
C947 N944 1.321 1_565 S
C947 C945 1.400 . S
C948 H943 0.930 . S
C948 C945 1.386 . S
C948 C949 1.395 . S
C949 C946 1.411 1_565 S
C949 C948 1.395 . S
C949 C971 1.420 1_665 S
O950 Eu906 2.558 . S
O950 C970 1.257 . S
O951 Eu906 2.612 . S
O951 Eu917 2.380 . S
O951 C962 1.276 . S
O952 Eu917 2.432 . S
O952 C969 1.264 . S
O953 Eu906 2.339 . S
O953 C969 1.254 . S
O954 Eu906 2.563 . S
O954 C962 1.235 . S
O955 Eu906 2.419 . S
O955 C970 1.249 . S
O956 Eu917 2.558 . S
O956 C981 1.257 . S
O957 Eu906 2.380 . S
O957 Eu917 2.612 . S
O957 C973 1.276 . S
O958 Eu906 2.432 . S
O958 C980 1.267 . S
O959 Eu917 2.339 . S
O959 C980 1.267 . S
O960 Eu917 2.563 . S
O960 C973 1.235 . S
O961 Eu917 2.419 . S
O961 C981 1.249 . S
C962 O951 1.276 . S
C962 O954 1.235 . S
C963 C965 1.393 . S
C963 C967 1.395 . S
C963 C970 1.492 . S
C964 C965 1.392 . S
C964 C966 1.386 . S
C965 C963 1.393 . S
C965 C964 1.392 . S
C965 H982 0.930 . S
C966 C964 1.386 . S
C966 C968 1.395 . S
C966 H983 0.930 . S
C967 C963 1.395 . S
C967 C968 1.379 . S
C967 H984 0.930 1_545 S
C968 C966 1.395 . S
C968 C967 1.379 . S
C968 H985 0.930 1_545 S
C969 O952 1.264 . S
C969 O953 1.254 . S
C970 Eu906 2.848 . S
C970 O950 1.257 . S
C970 O955 1.249 . S
C970 C963 1.492 . S
C971 H936 0.930 1_545 S
C971 C949 1.420 1_445 S
C971 C972 1.352 . S
C972 H934 0.930 . S
C972 C940 1.423 . S
C972 C971 1.352 . S
C973 O957 1.276 . S
C973 O960 1.235 . S
C974 C975 1.393 . S
C974 C978 1.395 . S
C974 C981 1.492 . S
C975 C974 1.393 . S
C975 C976 1.392 . S
C975 H986 0.930 . S
C976 C975 1.392 . S
C976 C977 1.386 . S
C977 C976 1.386 . S
C977 C979 1.395 . S
C977 H987 0.930 . S
C978 C974 1.395 . S
C978 C979 1.379 . S
C978 H988 0.930 . S
C979 C977 1.395 . S
C979 C978 1.379 . S
C979 H989 0.930 . S
C980 O958 1.267 . S
C980 O959 1.267 . S
C981 Eu917 2.848 . S
C981 O956 1.257 . S
C981 O961 1.249 . S
C981 C974 1.492 . S
H982 C965 0.930 . S
H983 C966 0.930 . S
H984 C967 0.930 1_565 S
H985 C968 0.930 1_565 S
H986 C975 0.930 . S
H987 C977 0.930 . S
H988 C978 0.930 . S
H989 C979 0.930 . S
N170 C301 2.055 . S
N184 C385 1.081 . S
N158 C465 1.555 . S
N145 C381 1.533 . S
C469 N119 1.015 . S
N131 C297 1.959 . S
C290 N144 1.735 . S
C374 N118 1.669 . S
N132 C476 1.546 1_556 S
N171 C392 1.546 . S
N183 C458 1.617 . S
C308 N157 1.616 . S
C553 N14 2.055 1_455 S
N28 C637 1.081 . S
N2 C717 1.555 1_545 S
N223 C633 1.533 . S
N197 C721 1.016 . S
N209 C549 1.959 . S
N222 C542 1.735 . S
N196 C626 1.669 . S
C728 N210 1.546 . S
N15 C644 1.546 . S
C710 N27 1.617 1_455 S
N1 C560 1.616 . S
C805 N92 2.055 . S
N106 C889 1.081 . S
C969 N80 1.556 . S
C885 N67 1.533 1_545 S
C973 N41 1.016 . S
N53 C801 1.959 . S
N66 C794 1.735 . S
N40 C878 1.670 . S
C980 N54 1.530 1_545 S
N93 C896 1.547 . S
N105 C962 1.617 . S
N79 C812 1.616 . S
N200 C304 1.162 . S
C388 N213 1.464 . S
N226 C460 1.728 . S
N83 C376 1.771 . S
N96 C472 1.463 . S
C292 N109 1.405 . S
N44 C556 1.162 . S
N57 C640 1.464 . S
N70 C712 1.728 . S
N161 C628 1.772 . S
C724 N174 1.463 . S
N187 C544 1.405 . S
N122 C808 1.162 . S
N135 C892 1.465 . S
C964 N148 1.728 . S
N5 C880 1.771 . S
N18 C976 1.463 . S
N31 C796 1.405 . S
