# Generated by pormake.
# Topology nom, (4,4)-cn, num edge types: 1
# Building blocks:
#     Node 0, Type 0, BuildingBlock: MIFKUJ_clean_linker_1, # of connection points: 4
#     Node 1, Type 0, BuildingBlock: MIFKUJ_clean_linker_1, # of connection points: 4
#     Node 2, Type 0, BuildingBlock: MIFKUJ_clean_linker_1, # of connection points: 4
#     Node 3, Type 0, BuildingBlock: MIFKUJ_clean_linker_1, # of connection points: 4
#     Node 4, Type 0, BuildingBlock: MIFKUJ_clean_linker_1, # of connection points: 4
#     Node 5, Type 0, BuildingBlock: MIFKUJ_clean_linker_1, # of connection points: 4
#     Node 6, Type 1, BuildingBlock: KUFVIS_clean_sbu_0, # of connection points: 4
#     Node 7, Type 1, BuildingBlock: KUFVIS_clean_sbu_0, # of connection points: 4
#     Node 8, Type 1, BuildingBlock: KUFVIS_clean_sbu_0, # of connection points: 4
#     Node 9, Type 1, BuildingBlock: KUFVIS_clean_sbu_0, # of connection points: 4
#     Node 10, Type 1, BuildingBlock: KUFVIS_clean_sbu_0, # of connection points: 4
#     Node 11, Type 1, BuildingBlock: KUFVIS_clean_sbu_0, # of connection points: 4
#     Edge 12, Type (0, 1), BuildingBlock: MIFKUJ_clean_linker_0, # of connection points: 2
#     Edge 13, Type (0, 1), BuildingBlock: MIFKUJ_clean_linker_0, # of connection points: 2
#     Edge 14, Type (0, 1), BuildingBlock: MIFKUJ_clean_linker_0, # of connection points: 2
#     Edge 15, Type (0, 1), BuildingBlock: MIFKUJ_clean_linker_0, # of connection points: 2
#     Edge 16, Type (0, 1), BuildingBlock: MIFKUJ_clean_linker_0, # of connection points: 2
#     Edge 17, Type (0, 1), BuildingBlock: MIFKUJ_clean_linker_0, # of connection points: 2
#     Edge 18, Type (0, 1), BuildingBlock: MIFKUJ_clean_linker_0, # of connection points: 2
#     Edge 19, Type (0, 1), BuildingBlock: MIFKUJ_clean_linker_0, # of connection points: 2
#     Edge 20, Type (0, 1), BuildingBlock: MIFKUJ_clean_linker_0, # of connection points: 2
#     Edge 21, Type (0, 1), BuildingBlock: MIFKUJ_clean_linker_0, # of connection points: 2
#     Edge 22, Type (0, 1), BuildingBlock: MIFKUJ_clean_linker_0, # of connection points: 2
#     Edge 23, Type (0, 1), BuildingBlock: MIFKUJ_clean_linker_0, # of connection points: 2
#     Edge 24, Type (0, 1), BuildingBlock: MIFKUJ_clean_linker_0, # of connection points: 2
#     Edge 25, Type (0, 1), BuildingBlock: MIFKUJ_clean_linker_0, # of connection points: 2
#     Edge 26, Type (0, 1), BuildingBlock: MIFKUJ_clean_linker_0, # of connection points: 2
#     Edge 27, Type (0, 1), BuildingBlock: MIFKUJ_clean_linker_0, # of connection points: 2
#     Edge 28, Type (0, 1), BuildingBlock: MIFKUJ_clean_linker_0, # of connection points: 2
#     Edge 29, Type (0, 1), BuildingBlock: MIFKUJ_clean_linker_0, # of connection points: 2
#     Edge 30, Type (0, 1), BuildingBlock: MIFKUJ_clean_linker_0, # of connection points: 2
#     Edge 31, Type (0, 1), BuildingBlock: MIFKUJ_clean_linker_0, # of connection points: 2
#     Edge 32, Type (0, 1), BuildingBlock: MIFKUJ_clean_linker_0, # of connection points: 2
#     Edge 33, Type (0, 1), BuildingBlock: MIFKUJ_clean_linker_0, # of connection points: 2
#     Edge 34, Type (0, 1), BuildingBlock: MIFKUJ_clean_linker_0, # of connection points: 2
#     Edge 35, Type (0, 1), BuildingBlock: MIFKUJ_clean_linker_0, # of connection points: 2
# Relax obj value: 0.001
# Max RMSD: 0.099
# Mean RMSD: 0.062
data_MOF--net-nom--node1-KUFVIS_clean_sbu_0--node2-MIFKUJ_clean_linker_1--edge1-MIFKUJ_clean_linker_0
_symmetry_space_group_name_H-M    P1
_symmetry_Int_Tables_number       1
_symmetry_cell_setting            triclinic
loop_
_symmetry_equiv_pos_as_xyz
'x, y, z'
_cell_length_a     65.889876
_cell_length_b     66.504194
_cell_length_c     70.492551
_cell_angle_alpha  90.575069
_cell_angle_beta   90.674821
_cell_angle_gamma 120.02804
loop_
_atom_site_label
_atom_site_type_symbol
_atom_site_fract_x
_atom_site_fract_y
_atom_site_fract_z
_atom_type_partial_charge
H0 H 0.98992 0.50531 0.28589 0.0
H1 H 0.96247 0.48839 0.25915 0.0
H2 H 0.92764 0.52572 0.27686 0.0
H3 H 0.95607 0.54359 0.3031 0.0
H4 H 0.02144 0.54921 0.29389 0.0
H5 H 0.95023 0.48995 0.3232 0.0
H6 H 0.9087 0.47191 0.33078 0.0
H7 H 0.9227 0.53424 0.3616 0.0
H8 H 0.96379 0.55256 0.35302 0.0
H9 H 0.02821 0.58292 0.37254 0.0
H10 H 0.05617 0.59677 0.3994 0.0
H11 H 0.09227 0.56421 0.37447 0.0
H12 H 0.06369 0.5493 0.34821 0.0
H13 H 0.99717 0.54299 0.36089 0.0
H14 H 0.06344 0.60433 0.32911 0.0
H15 H 0.1044 0.62719 0.31941 0.0
H16 H 0.09998 0.56551 0.29452 0.0
H17 H 0.05892 0.54276 0.30404 0.0
C18 C 0.97494 0.52553 0.29665 0.0
C19 C 0.97643 0.50994 0.28399 0.0
C20 C 0.96051 0.50005 0.2688 0.0
C21 C 0.94261 0.50546 0.26593 0.0
C22 C 0.94125 0.52126 0.27856 0.0
C23 C 0.95735 0.53131 0.29369 0.0
C24 C 0.99211 0.53589 0.31269 0.0
C25 C 0.0161 0.54762 0.30856 0.0
C26 C 0.98517 0.53454 0.33181 0.0
C27 C 0.96011 0.5228 0.33723 0.0
C28 C 0.94429 0.4998 0.33142 0.0
C29 C 0.92055 0.4894 0.33596 0.0
C30 C 0.91221 0.50166 0.34668 0.0
C31 C 0.9283 0.52443 0.35296 0.0
C32 C 0.95192 0.53487 0.34825 0.0
C33 C 0.04399 0.56537 0.35808 0.0
C34 C 0.04207 0.57866 0.37285 0.0
C35 C 0.05805 0.58662 0.38816 0.0
C36 C 0.07644 0.58171 0.38885 0.0
C37 C 0.07846 0.56854 0.37409 0.0
C38 C 0.0622 0.56016 0.35901 0.0
C39 C 0.02651 0.55625 0.3421 0.0
C40 C 1.00249 0.54466 0.34622 0.0
C41 C 0.03333 0.55813 0.32293 0.0
C42 C 0.0582 0.57186 0.31734 0.0
C43 C 0.07132 0.59575 0.3216 0.0
C44 C 0.09463 0.60878 0.31599 0.0
C45 C 0.10529 0.59807 0.30624 0.0
C46 C 0.0922 0.57412 0.30214 0.0
C47 C 0.06877 0.56117 0.30747 0.0
H48 H 0.4308 0.97072 0.51766 0.0
H49 H 0.41004 0.92987 0.52637 0.0
H50 H 0.46132 0.91947 0.49695 0.0
H51 H 0.48201 0.96046 0.48821 0.0
H52 H 0.47475 0.00454 0.52643 0.0
H53 H 0.43161 0.96366 0.46933 0.0
H54 H 0.42077 0.93647 0.44256 0.0
H55 H 0.49138 0.9761 0.42168 0.0
H56 H 0.5025 1.00185 0.44927 0.0
H57 H 0.5312 0.06499 0.46522 0.0
H58 H 0.54953 0.10563 0.45582 0.0
H59 H 0.50339 0.11571 0.49267 0.0
H60 H 0.4845 0.0749 0.50155 0.0
H61 H 0.49016 0.0308 0.45993 0.0
H62 H 0.5358 0.06724 0.51632 0.0
H63 H 0.55097 0.09331 0.54404 0.0
H64 H 0.48053 0.06409 0.56499 0.0
H65 H 0.46558 0.03781 0.53739 0.0
C66 C 0.45786 0.96864 0.50214 0.0
C67 C 0.43762 0.95966 0.51312 0.0
C68 C 0.42581 0.9363 0.51815 0.0
C69 C 0.43402 0.92137 0.51239 0.0
C70 C 0.45435 0.93041 0.50141 0.0
C71 C 0.46622 0.95385 0.49642 0.0
C72 C 0.47031 0.9936 0.49708 0.0
C73 C 0.47791 0.01028 0.51186 0.0
C74 C 0.47515 1.00111 0.47808 0.0
C75 C 0.46803 0.98461 0.4616 0.0
C76 C 0.44488 0.96619 0.4592 0.0
C77 C 0.4386 0.95083 0.44365 0.0
C78 C 0.45518 0.95389 0.42987 0.0
C79 C 0.4782 0.9727 0.43215 0.0
C80 C 0.48455 0.98772 0.44786 0.0
C81 C 0.50659 0.06681 0.4843 0.0
C82 C 0.52495 0.07589 0.47127 0.0
C83 C 0.53543 0.09912 0.46589 0.0
C84 C 0.52793 0.11383 0.47357 0.0
C85 C 0.50973 0.10484 0.48673 0.0
C86 C 0.499 0.08152 0.49187 0.0
C87 C 0.49478 0.04176 0.48927 0.0
C88 C 0.48715 0.02506 0.4745 0.0
C89 C 0.4904 0.0342 0.50827 0.0
C90 C 0.49953 0.05067 0.52472 0.0
C91 C 0.52362 0.06661 0.52681 0.0
C92 C 0.53225 0.08155 0.54265 0.0
C93 C 0.51698 0.08082 0.55678 0.0
C94 C 0.49284 0.0649 0.55456 0.0
C95 C 0.48424 0.04993 0.53874 0.0
H96 H 0.5207 0.54952 0.70103 0.0
H97 H 0.50974 0.5655 0.72779 0.0
H98 H 0.43649 0.51925 0.71373 0.0
H99 H 0.4477 0.50387 0.68668 0.0
H100 H 0.50878 0.50308 0.69379 0.0
H101 H 0.49413 0.56158 0.66632 0.0
H102 H 0.46984 0.57884 0.65902 0.0
H103 H 0.42176 0.51684 0.62702 0.0
H104 H 0.44526 0.49923 0.63536 0.0
H105 H 0.47769 0.46668 0.61744 0.0
H106 H 0.49008 0.45254 0.59034 0.0
H107 H 0.56229 0.49436 0.60935 0.0
H108 H 0.54964 0.50788 0.63668 0.0
H109 H 0.4879 0.50983 0.62727 0.0
H110 H 0.49741 0.45024 0.65304 0.0
H111 H 0.51498 0.42684 0.66194 0.0
H112 H 0.56586 0.48326 0.69752 0.0
H113 H 0.54878 0.50706 0.68804 0.0
C114 C 0.48503 0.52565 0.69181 0.0
C115 C 0.50229 0.54286 0.70375 0.0
C116 C 0.49596 0.55189 0.7191 0.0
C117 C 0.4722 0.54369 0.72297 0.0
C118 C 0.45494 0.52629 0.71101 0.0
C119 C 0.4613 0.51736 0.69559 0.0
C120 C 0.49194 0.51629 0.6755 0.0
C121 C 0.50461 0.50488 0.67919 0.0
C122 C 0.48543 0.51775 0.65657 0.0
C123 C 0.47134 0.5289 0.65169 0.0
C124 C 0.47816 0.55157 0.65797 0.0
C125 C 0.46438 0.56155 0.65358 0.0
C126 C 0.44366 0.5492 0.64255 0.0
C127 C 0.43725 0.52671 0.63591 0.0
C128 C 0.45086 0.51668 0.64048 0.0
C129 C 0.51272 0.48823 0.62914 0.0
C130 C 0.49619 0.47277 0.61575 0.0
C131 C 0.50333 0.46479 0.60021 0.0
C132 C 0.52722 0.47231 0.59759 0.0
C133 C 0.54373 0.48787 0.61105 0.0
C134 C 0.53655 0.49571 0.62666 0.0
C135 C 0.50508 0.49688 0.6455 0.0
C136 C 0.49227 0.50815 0.64184 0.0
C137 C 0.51087 0.4947 0.6645 0.0
C138 C 0.522 0.48066 0.66955 0.0
C139 C 0.5127 0.45786 0.66239 0.0
C140 C 0.52267 0.44442 0.66756 0.0
C141 C 0.54183 0.45327 0.68036 0.0
C142 C 0.55103 0.47597 0.68769 0.0
C143 C 0.54128 0.48957 0.68227 0.0
H144 H 0.02798 0.55506 0.78311 0.0
H145 H 0.05518 0.56872 0.75669 0.0
H146 H 0.08496 0.52745 0.77628 0.0
H147 H 0.05709 0.51316 0.80211 0.0
H148 H 0.99384 0.51095 0.79226 0.0
H149 H 0.0674 0.57168 0.8215 0.0
H150 H 0.10945 0.5891 0.82866 0.0
H151 H 0.09591 0.52678 0.8577 0.0
H152 H 0.05421 0.5093 0.85004 0.0
H153 H 0.98802 0.47581 0.86707 0.0
H154 H 0.96078 0.46087 0.89329 0.0
H155 H 0.93193 0.50405 0.87658 0.0
H156 H 0.95857 0.51802 0.84988 0.0
H157 H 0.02208 0.52083 0.85914 0.0
H158 H 0.95582 0.45836 0.82993 0.0
H159 H 0.9147 0.43272 0.82104 0.0
H160 H 0.91398 0.4891 0.7917 0.0
H161 H 0.95521 0.51492 0.80102 0.0
C162 C 0.04069 0.53333 0.79474 0.0
C163 C 0.04031 0.54889 0.78163 0.0
C164 C 0.05602 0.55684 0.76664 0.0
C165 C 0.07238 0.5493 0.76439 0.0
C166 C 0.07248 0.53347 0.77744 0.0
C167 C 0.05671 0.52546 0.79236 0.0
C168 C 0.02428 0.52525 0.81086 0.0
C169 C 1.00003 0.51358 0.8069 0.0
C170 C 0.03234 0.52773 0.82993 0.0
C171 C 0.05768 0.53909 0.83506 0.0
C172 C 0.07354 0.56178 0.82936 0.0
C173 C 0.09753 0.57177 0.83357 0.0
C174 C 0.10604 0.55923 0.84358 0.0
C175 C 0.09 0.53674 0.84964 0.0
C176 C 0.0661 0.52681 0.84545 0.0
C177 C 0.97528 0.49797 0.85653 0.0
C178 C 0.97579 0.48201 0.86909 0.0
C179 C 0.96026 0.4736 0.88416 0.0
C180 C 0.94412 0.4813 0.88721 0.0
C181 C 0.94377 0.49739 0.87456 0.0
C182 C 0.95911 0.50554 0.85934 0.0
C183 C 0.99176 0.50682 0.84052 0.0
C184 C 0.01594 0.51862 0.8445 0.0
C185 C 0.98369 0.50383 0.82146 0.0
C186 C 0.95853 0.48863 0.81631 0.0
C187 C 0.94675 0.46531 0.82178 0.0
C188 C 0.92331 0.45061 0.81653 0.0
C189 C 0.91111 0.45887 0.80561 0.0
C190 C 0.92285 0.48229 0.80026 0.0
C191 C 0.94642 0.49701 0.80547 0.0
H192 H 0.56942 0.06306 0.01975 0.0
H193 H 0.5931 0.10431 0.02759 0.0
H194 H 0.54647 0.11794 0.9935 0.0
H195 H 0.52213 0.07629 0.98643 0.0
H196 H 0.52544 0.03171 0.02667 0.0
H197 H 0.57074 0.06612 0.9702 0.0
H198 H 0.58395 0.09357 0.94416 0.0
H199 H 0.51252 0.06263 0.92304 0.0
H200 H 0.49935 0.03581 0.94954 0.0
H201 H 0.47026 0.96693 0.96424 0.0
H202 H 0.45309 0.92556 0.95612 0.0
H203 H 0.50106 0.92084 0.99553 0.0
H204 H 0.519 0.96233 0.00295 0.0
H205 H 0.51074 1.00277 0.95997 0.0
H206 H 0.46572 0.96567 0.01486 0.0
H207 H 0.45255 0.93865 0.04119 0.0
H208 H 0.52252 0.97505 0.06583 0.0
H209 H 0.53577 1.0013 0.03905 0.0
C210 C 0.54413 0.06655 0.00232 0.0
C211 C 0.56414 0.07488 0.01409 0.0
C212 C 0.57783 0.09855 0.01839 0.0
C213 C 0.57189 0.11454 0.01097 0.0
C214 C 0.55151 0.10612 0.99952 0.0
C215 C 0.5377 0.08233 0.99531 0.0
C216 C 0.53039 0.04137 0.99732 0.0
C217 C 0.52235 0.02534 0.01209 0.0
C218 C 0.52572 0.0331 0.97827 0.0
C219 C 0.53401 0.04911 0.96198 0.0
C220 C 0.55792 0.06535 0.96002 0.0
C221 C 0.56547 0.0809 0.94501 0.0
C222 C 0.54929 0.0804 0.93152 0.0
C223 C 0.52541 0.06378 0.93333 0.0
C224 C 0.51787 0.04828 0.94837 0.0
C225 C 0.49567 0.96778 0.98449 0.0
C226 C 0.47721 0.95706 0.97106 0.0
C227 C 0.46737 0.93344 0.96645 0.0
C228 C 0.47561 0.92003 0.97537 0.0
C229 C 0.49414 0.93073 0.9887 0.0
C230 C 0.50431 0.95443 0.993 0.0
C231 C 0.50622 0.99296 0.98937 0.0
C232 C 0.51358 0.00902 0.97457 0.0
C233 C 0.51019 1.00128 0.00843 0.0
C234 C 0.50181 0.98538 0.02482 0.0
C235 C 0.47825 0.96772 0.02587 0.0
C236 C 0.4707 0.95241 0.04105 0.0
C237 C 0.48649 0.95458 0.05563 0.0
C238 C 0.50996 0.97258 0.05471 0.0
C239 C 0.51752 0.98779 0.03949 0.0
H240 H 0.51059 0.50256 0.2006 0.0
H241 H 0.52103 0.4865 0.22759 0.0
H242 H 0.59325 0.52216 0.21038 0.0
H243 H 0.5829 0.53879 0.18367 0.0
H244 H 0.52314 0.54542 0.19213 0.0
H245 H 0.53379 0.48483 0.16158 0.0
H246 H 0.55599 0.46576 0.15272 0.0
H247 H 0.60839 0.52929 0.12729 0.0
H248 H 0.58603 0.54809 0.136 0.0
H249 H 0.54994 0.57801 0.1148 0.0
H250 H 0.53544 0.59123 0.08832 0.0
H251 H 0.46523 0.5525 0.10985 0.0
H252 H 0.4797 0.53908 0.13608 0.0
H253 H 0.54159 0.53695 0.12555 0.0
H254 H 0.53034 0.59629 0.15145 0.0
H255 H 0.50955 0.61719 0.15884 0.0
H256 H 0.46278 0.56132 0.1947 0.0
H257 H 0.48267 0.53969 0.18645 0.0
C258 C 0.54587 0.5217 0.18992 0.0
C259 C 0.5287 0.50703 0.20265 0.0
C260 C 0.53467 0.49784 0.21807 0.0
C261 C 0.55793 0.503 0.22103 0.0
C262 C 0.57512 0.51763 0.20828 0.0
C263 C 0.5692 0.5271 0.19299 0.0
C264 C 0.53922 0.53157 0.17373 0.0
C265 C 0.52685 0.54328 0.17753 0.0
C266 C 0.54503 0.52972 0.15475 0.0
C267 C 0.55833 0.51794 0.14956 0.0
C268 C 0.55013 0.49465 0.15418 0.0
C269 C 0.56287 0.4838 0.14914 0.0
C270 C 0.58397 0.49598 0.13926 0.0
C271 C 0.59205 0.51928 0.13462 0.0
C272 C 0.57933 0.53009 0.13966 0.0
C273 C 0.51598 0.55779 0.12759 0.0
C274 C 0.5314 0.57226 0.11375 0.0
C275 C 0.52311 0.57982 0.09864 0.0
C276 C 0.49924 0.57308 0.09712 0.0
C277 C 0.48379 0.55835 0.11084 0.0
C278 C 0.49204 0.55063 0.12583 0.0
C279 C 0.52485 0.55016 0.14389 0.0
C280 C 0.53777 0.53905 0.14013 0.0
C281 C 0.51982 0.55287 0.16294 0.0
C282 C 0.50783 0.56611 0.16805 0.0
C283 C 0.51534 0.58825 0.16061 0.0
C284 C 0.50354 0.60025 0.16489 0.0
C285 C 0.48451 0.59073 0.1772 0.0
C286 C 0.47741 0.56896 0.18513 0.0
C287 C 0.48884 0.55668 0.18049 0.0
Mn288 Mn 0.62614 0.38904 0.41365 0.0
Mn289 Mn 0.65329 0.44652 0.42378 0.0
C290 C 0.61038 0.4035 0.43535 0.0
C291 C 0.6195 0.35165 0.41928 0.0
C292 C 0.62305 0.42531 0.38875 0.0
O293 O 0.65885 0.40004 0.40377 0.0
O294 O 0.67393 0.43835 0.40917 0.0
C295 C 0.68957 0.44787 0.44987 0.0
N296 N 0.67161 0.45204 0.44652 0.0
C297 C 0.67628 0.46907 0.47768 0.0
C298 C 0.69484 0.46499 0.48145 0.0
C299 C 0.70147 0.45429 0.46749 0.0
C300 C 0.66499 0.46218 0.4599 0.0
H301 H 0.69486 0.43979 0.43917 0.0
C302 C 0.67537 0.42106 0.40264 0.0
O303 O 0.61442 0.35706 0.40294 0.0
O304 O 0.62916 0.36814 0.432 0.0
N305 N 0.63604 0.4574 0.43808 0.0
C306 C 0.61767 0.45996 0.43229 0.0
C307 C 0.60876 0.47019 0.4447 0.0
C308 C 0.61911 0.47811 0.46278 0.0
C309 C 0.6383 0.47573 0.46828 0.0
C310 C 0.64633 0.46526 0.45536 0.0
H311 H 0.60972 0.45399 0.41841 0.0
O312 O 0.59718 0.38381 0.42661 0.0
O313 O 0.63252 0.41427 0.43121 0.0
O314 O 0.61943 0.40476 0.39126 0.0
O315 O 0.63447 0.44216 0.40052 0.0
C316 C 0.64974 0.48326 0.48611 0.0
C317 C 0.66858 0.47976 0.49087 0.0
H318 H 0.70412 0.46999 0.495 0.0
H319 H 0.7158 0.4511 0.47027 0.0
H320 H 0.59396 0.472 0.44033 0.0
H321 H 0.61215 0.48594 0.47232 0.0
H322 H 0.64412 0.49167 0.49633 0.0
H323 H 0.67707 0.48541 0.5047 0.0
Mn324 Mn 0.25737 0.64756 0.57506 0.0
Mn325 Mn 0.22671 0.58958 0.56796 0.0
C326 C 0.22556 0.6312 0.55396 0.0
C327 C 0.28862 0.68415 0.56775 0.0
C328 C 0.223 0.61368 0.60345 0.0
O329 O 0.27927 0.63671 0.5857 0.0
O330 O 0.25892 0.59883 0.57697 0.0
C331 C 0.25226 0.58418 0.53588 0.0
N332 N 0.23202 0.58145 0.5432 0.0
C333 C 0.20989 0.56026 0.51536 0.0
C334 C 0.23048 0.56277 0.50752 0.0
C335 C 0.25179 0.57498 0.51775 0.0
C336 C 0.21154 0.57032 0.53325 0.0
H337 H 0.26857 0.59313 0.54389 0.0
C338 C 0.27712 0.61654 0.58421 0.0
O339 O 0.27868 0.68008 0.58415 0.0
O340 O 0.28086 0.66678 0.55581 0.0
N341 N 0.1952 0.57843 0.55922 0.0
C342 C 0.17678 0.5769 0.56903 0.0
C343 C 0.15427 0.56566 0.5606 0.0
C344 C 0.15084 0.55564 0.54237 0.0
C345 C 0.16995 0.55691 0.53277 0.0
C346 C 0.19204 0.56866 0.54175 0.0
H347 H 0.17919 0.58418 0.58318 0.0
O348 O 0.23308 0.65181 0.56118 0.0
O349 O 0.23705 0.621 0.5592 0.0
O350 O 0.236 0.63445 0.59798 0.0
O351 O 0.21944 0.59593 0.59365 0.0
C352 C 0.16782 0.5464 0.51487 0.0
C353 C 0.1877 0.54779 0.50631 0.0
H354 H 0.23013 0.55534 0.49369 0.0
H355 H 0.26776 0.577 0.51179 0.0
H356 H 0.13958 0.56455 0.5682 0.0
H357 H 0.13341 0.54677 0.53598 0.0
H358 H 0.1509 0.53689 0.50768 0.0
H359 H 0.18561 0.53895 0.49286 0.0
Mn360 Mn 0.62565 0.26348 0.74225 0.0
Mn361 Mn 0.65419 0.23419 0.73335 0.0
C362 C 0.60941 0.23194 0.72141 0.0
C363 C 0.61894 0.294 0.73551 0.0
C364 C 0.6276 0.22897 0.76957 0.0
O365 O 0.65891 0.28579 0.75195 0.0
O366 O 0.67678 0.26587 0.74331 0.0
C367 C 0.68354 0.26219 0.70171 0.0
N368 N 0.66714 0.24131 0.70857 0.0
C369 C 0.66495 0.2219 0.67898 0.0
C370 C 0.6819 0.24318 0.67162 0.0
C371 C 0.69118 0.26343 0.68302 0.0
C372 C 0.65798 0.22176 0.69769 0.0
H373 H 0.69075 0.27778 0.71044 0.0
C374 C 0.67717 0.28388 0.75043 0.0
O375 O 0.61433 0.28435 0.75203 0.0
O376 O 0.62789 0.28625 0.72314 0.0
N377 N 0.63446 0.20335 0.72347 0.0
C378 C 0.61752 0.18441 0.73244 0.0
C379 C 0.60605 0.16284 0.72282 0.0
C380 C 0.61232 0.16091 0.70419 0.0
C381 C 0.63001 0.18058 0.69535 0.0
C382 C 0.64079 0.20162 0.70563 0.0
H383 H 0.61272 0.18575 0.74679 0.0
O384 O 0.59628 0.23893 0.72933 0.0
O385 O 0.63161 0.24376 0.7258 0.0
O386 O 0.6198 0.24245 0.76509 0.0
O387 O 0.64103 0.22527 0.75896 0.0
C388 C 0.63722 0.18019 0.67669 0.0
C389 C 0.65455 0.20086 0.66845 0.0
H390 H 0.68783 0.24421 0.65721 0.0
H391 H 0.70423 0.27993 0.67742 0.0
H392 H 0.59243 0.14773 0.72974 0.0
H393 H 0.60337 0.14426 0.69678 0.0
H394 H 0.62933 0.16412 0.66845 0.0
H395 H 0.65963 0.20039 0.65397 0.0
Mn396 Mn 0.38809 0.64444 0.91498 0.0
Mn397 Mn 0.35573 0.58619 0.91819 0.0
C398 C 0.39944 0.62482 0.93578 0.0
C399 C 0.39615 0.68173 0.92374 0.0
C400 C 0.38819 0.61026 0.88561 0.0
O401 O 0.35685 0.63701 0.90254 0.0
O402 O 0.33632 0.59841 0.90719 0.0
C403 C 0.3219 0.58292 0.94692 0.0
N404 N 0.33877 0.57817 0.94124 0.0
C405 C 0.333 0.55448 0.9684 0.0
C406 C 0.31551 0.55903 0.97456 0.0
C407 C 0.31009 0.5735 0.96386 0.0
C408 C 0.34458 0.56483 0.95169 0.0
H409 H 0.31738 0.59366 0.93852 0.0
C410 C 0.33799 0.61733 0.9013 0.0
O411 O 0.40263 0.67754 0.90757 0.0
O412 O 0.38473 0.66419 0.93477 0.0
N413 N 0.37226 0.57195 0.92863 0.0
C414 C 0.38953 0.56924 0.9207 0.0
C415 C 0.39748 0.55578 0.92993 0.0
C416 C 0.38715 0.54475 0.94692 0.0
C417 C 0.36906 0.54741 0.95457 0.0
C418 C 0.36225 0.56146 0.94498 0.0
H419 H 0.39718 0.57727 0.90743 0.0
O420 O 0.41455 0.64541 0.93005 0.0
O421 O 0.3781 0.61651 0.92941 0.0
O422 O 0.39619 0.63099 0.89184 0.0
O423 O 0.37273 0.59247 0.8942 0.0
C424 C 0.35708 0.53616 0.97104 0.0
C425 C 0.33905 0.53969 0.97794 0.0
H426 H 0.30611 0.55148 0.98746 0.0
H427 H 0.29662 0.5771 0.96851 0.0
H428 H 0.41132 0.55367 0.92383 0.0
H429 H 0.3931 0.53413 0.95388 0.0
H430 H 0.36141 0.52451 0.97833 0.0
H431 H 0.32965 0.53067 0.99043 0.0
Mn432 Mn 0.763 0.39669 0.07914 0.0
Mn433 Mn 0.78946 0.36483 0.08494 0.0
C434 C 0.79451 0.40936 0.10024 0.0
C435 C 0.73396 0.4057 0.08654 0.0
C436 C 0.79941 0.39689 0.052 0.0
O437 O 0.73885 0.36545 0.06753 0.0
O438 O 0.75898 0.34667 0.07115 0.0
C439 C 0.75478 0.33043 0.11101 0.0
N440 N 0.77733 0.34664 0.10715 0.0
C441 C 0.7913 0.33947 0.13656 0.0
C442 C 0.76823 0.32266 0.14084 0.0
C443 C 0.74989 0.31817 0.12802 0.0
C444 C 0.79507 0.35116 0.11941 0.0
H445 H 0.74062 0.32682 0.10118 0.0
C446 C 0.74099 0.34757 0.06534 0.0
O447 O 0.74437 0.41104 0.07032 0.0
O448 O 0.74015 0.39477 0.09831 0.0
N449 N 0.81899 0.37945 0.09811 0.0
C450 C 0.84014 0.39654 0.09204 0.0
C451 C 0.86035 0.40294 0.10313 0.0
C452 C 0.85857 0.39153 0.12021 0.0
C453 C 0.83665 0.37414 0.12624 0.0
C454 C 0.81717 0.3683 0.11449 0.0
H455 H 0.84158 0.40515 0.07881 0.0
O456 O 0.78867 0.42374 0.0932 0.0
O457 O 0.78139 0.38761 0.09503 0.0
O458 O 0.7844 0.40293 0.05626 0.0
O459 O 0.80322 0.38319 0.06204 0.0
C460 C 0.83336 0.3624 0.14346 0.0
C461 C 0.81067 0.34515 0.14866 0.0
H462 H 0.7644 0.31316 0.15394 0.0
H463 H 0.73205 0.30523 0.13122 0.0
H464 H 0.87727 0.4164 0.09842 0.0
H465 H 0.87411 0.39599 0.1285 0.0
H466 H 0.84814 0.36665 0.15287 0.0
H467 H 0.80832 0.33638 0.16201 0.0
Mn468 Mn 0.38261 0.77238 0.24446 0.0
Mn469 Mn 0.44076 0.79809 0.25362 0.0
C470 C 0.40011 0.8038 0.26553 0.0
C471 C 0.34437 0.74327 0.2505 0.0
C472 C 0.41992 0.80574 0.21754 0.0
O473 O 0.3912 0.74893 0.23392 0.0
O474 O 0.42885 0.7659 0.24396 0.0
C475 C 0.43961 0.76901 0.28558 0.0
N476 N 0.4465 0.79034 0.27835 0.0
C477 C 0.46761 0.8094 0.30717 0.0
C478 C 0.46098 0.78765 0.31486 0.0
C479 C 0.44681 0.76736 0.30405 0.0
C480 C 0.45983 0.80994 0.28872 0.0
H481 H 0.42867 0.7534 0.27732 0.0
C482 C 0.4105 0.74903 0.23615 0.0
O483 O 0.3499 0.75366 0.23432 0.0
O484 O 0.36113 0.7494 0.26301 0.0
N485 N 0.45503 0.82928 0.26325 0.0
C486 C 0.4588 0.84878 0.25411 0.0
C487 C 0.47282 0.8706 0.26291 0.0
C488 C 0.48284 0.8721 0.28094 0.0
C489 C 0.47827 0.85179 0.29024 0.0
C490 C 0.46457 0.83058 0.28062 0.0
H491 H 0.45154 0.84775 0.24009 0.0
O492 O 0.37987 0.79755 0.25767 0.0
O493 O 0.40929 0.79096 0.2613 0.0
O494 O 0.39848 0.79374 0.22215 0.0
O495 O 0.43688 0.80765 0.22791 0.0
C496 C 0.48682 0.85176 0.30865 0.0
C497 C 0.48133 0.83056 0.31718 0.0
H498 H 0.46648 0.78631 0.32911 0.0
H499 H 0.44146 0.7505 0.30994 0.0
H500 H 0.47619 0.88623 0.25569 0.0
H501 H 0.49423 0.88892 0.28747 0.0
H502 H 0.4974 0.86792 0.31646 0.0
H503 H 0.48768 0.83072 0.33145 0.0
H504 H 0.14085 0.58881 0.31198 0.0
H505 H 0.1817 0.61198 0.30196 0.0
H506 H 0.16591 0.66136 0.27645 0.0
H507 H 0.12517 0.63847 0.28668 0.0
H508 H 0.19223 0.64539 0.25306 0.0
H509 H 0.19263 0.67673 0.3157 0.0
H510 H 0.18508 0.67332 0.35003 0.0
H511 H 0.23045 0.64488 0.35753 0.0
H512 H 0.23799 0.64779 0.32318 0.0
H513 H 0.30468 0.7397 0.23493 0.0
H514 H 0.26424 0.71352 0.24394 0.0
H515 H 0.28816 0.6813 0.28452 0.0
H516 H 0.32881 0.70861 0.27635 0.0
H517 H 0.25715 0.68614 0.3003 0.0
H518 H 0.25863 0.6548 0.23959 0.0
H519 H 0.26572 0.65483 0.20532 0.0
H520 H 0.217 0.67844 0.19378 0.0
H521 H 0.20984 0.67884 0.22801 0.0
C522 C 0.14613 0.60459 0.30419 0.0
C523 C 0.12993 0.61192 0.30013 0.0
C524 C 0.16941 0.6178 0.29853 0.0
C525 C 0.17675 0.63836 0.2885 0.0
C526 C 0.16053 0.64553 0.28417 0.0
C527 C 0.13736 0.63254 0.29011 0.0
C528 C 0.20145 0.6526 0.2827 0.0
C529 C 0.20648 0.65453 0.26332 0.0
C530 C 0.21999 0.66374 0.29617 0.0
C531 C 0.21567 0.66225 0.31685 0.0
C532 C 0.20084 0.66956 0.32465 0.0
C533 C 0.19659 0.66775 0.34411 0.0
C534 C 0.20722 0.65882 0.35595 0.0
C535 C 0.22219 0.65176 0.34835 0.0
C536 C 0.22647 0.6535 0.32888 0.0
C537 C 0.30127 0.72688 0.24565 0.0
C538 C 0.31985 0.7261 0.25489 0.0
C539 C 0.27809 0.71178 0.25073 0.0
C540 C 0.27293 0.695 0.26469 0.0
C541 C 0.29156 0.69403 0.27372 0.0
C542 C 0.3148 0.70957 0.26899 0.0
C543 C 0.24824 0.67922 0.27045 0.0
C544 C 0.2431 0.67695 0.28989 0.0
C545 C 0.22964 0.66731 0.25701 0.0
C546 C 0.23385 0.66704 0.23639 0.0
C547 C 0.24955 0.66015 0.22976 0.0
C548 C 0.25356 0.66007 0.21033 0.0
C549 C 0.24186 0.66668 0.19738 0.0
C550 C 0.22607 0.67334 0.20383 0.0
C551 C 0.22201 0.67347 0.22324 0.0
H552 H 0.24499 0.66661 0.18235 0.0
H553 H 0.2039 0.65743 0.37102 0.0
H554 H 0.54392 0.15265 0.49614 0.0
H555 H 0.56107 0.19299 0.48623 0.0
H556 H 0.5528 0.17065 0.42755 0.0
H557 H 0.53638 0.13035 0.43748 0.0
H558 H 0.59275 0.20835 0.43179 0.0
H559 H 0.51467 0.18601 0.44984 0.0
H560 H 0.48043 0.17027 0.47064 0.0
H561 H 0.5203 0.22381 0.51227 0.0
H562 H 0.5549 0.23969 0.49182 0.0
H563 H 0.60219 0.31372 0.39519 0.0
H564 H 0.58841 0.27326 0.40368 0.0
H565 H 0.60758 0.29444 0.46223 0.0
H566 H 0.62154 0.33479 0.45389 0.0
H567 H 0.56174 0.25735 0.45709 0.0
H568 H 0.63997 0.27943 0.43748 0.0
H569 H 0.67286 0.29487 0.4153 0.0
H570 H 0.6303 0.24119 0.37457 0.0
H571 H 0.59703 0.22561 0.39642 0.0
C572 C 0.54575 0.15638 0.48113 0.0
C573 C 0.53872 0.13837 0.46758 0.0
C574 C 0.55548 0.17943 0.47546 0.0
C575 C 0.55785 0.18491 0.4561 0.0
C576 C 0.55116 0.16693 0.44256 0.0
C577 C 0.54177 0.14391 0.44824 0.0
C578 C 0.56716 0.20933 0.44997 0.0
C579 C 0.58572 0.21892 0.43715 0.0
C580 C 0.55825 0.22335 0.45707 0.0
C581 C 0.53744 0.21391 0.46937 0.0
C582 C 0.51619 0.19433 0.46349 0.0
C583 C 0.49671 0.1854 0.47521 0.0
C584 C 0.49821 0.196 0.49279 0.0
C585 C 0.51918 0.2156 0.49866 0.0
C586 C 0.53872 0.22459 0.48701 0.0
C587 C 0.60372 0.30978 0.40983 0.0
C588 C 0.61296 0.32747 0.42386 0.0
C589 C 0.59586 0.28667 0.41465 0.0
C590 C 0.59698 0.28086 0.4336 0.0
C591 C 0.60652 0.29854 0.44754 0.0
C592 C 0.61459 0.32162 0.44272 0.0
C593 C 0.58736 0.25628 0.43909 0.0
C594 C 0.5687 0.24669 0.45176 0.0
C595 C 0.59594 0.2422 0.43163 0.0
C596 C 0.61594 0.25151 0.41851 0.0
C597 C 0.63756 0.27104 0.42373 0.0
C598 C 0.65628 0.27979 0.41123 0.0
C599 C 0.65365 0.26906 0.39351 0.0
C600 C 0.6323 0.24951 0.38829 0.0
C601 C 0.61351 0.2407 0.40073 0.0
H602 H 0.66817 0.27586 0.38386 0.0
H603 H 0.48311 0.18906 0.50184 0.0
H604 H 0.39571 0.52726 0.64045 0.0
H605 H 0.37125 0.54333 0.63049 0.0
H606 H 0.43274 0.61076 0.62485 0.0
H607 H 0.45762 0.59465 0.63413 0.0
H608 H 0.39261 0.6101 0.64364 0.0
H609 H 0.41193 0.58411 0.58647 0.0
H610 H 0.41633 0.55622 0.56612 0.0
H611 H 0.34258 0.5077 0.5696 0.0
H612 H 0.3378 0.53517 0.59024 0.0
H613 H 0.32281 0.64946 0.59357 0.0
H614 H 0.35453 0.64251 0.60366 0.0
H615 H 0.3065 0.56859 0.60091 0.0
H616 H 0.27517 0.57528 0.59048 0.0
H617 H 0.3451 0.57772 0.58444 0.0
H618 H 0.32573 0.60081 0.64364 0.0
H619 H 0.32033 0.62709 0.66526 0.0
H620 H 0.39253 0.67942 0.6591 0.0
H621 H 0.39827 0.65353 0.63724 0.0
C622 C 0.40416 0.54547 0.63694 0.0
C623 C 0.42873 0.55954 0.63785 0.0
C624 C 0.3901 0.55467 0.63141 0.0
C625 C 0.40022 0.57817 0.6268 0.0
C626 C 0.42462 0.59257 0.62839 0.0
C627 C 0.43878 0.58332 0.63375 0.0
C628 C 0.38516 0.58718 0.61953 0.0
C629 C 0.3825 0.60339 0.63053 0.0
C630 C 0.37177 0.57813 0.60258 0.0
C631 C 0.37455 0.56164 0.59003 0.0
C632 C 0.39668 0.56742 0.58302 0.0
C633 C 0.39924 0.5517 0.57141 0.0
C634 C 0.37976 0.53018 0.5666 0.0
C635 C 0.35766 0.52437 0.57335 0.0
C636 C 0.35501 0.54002 0.58499 0.0
C637 C 0.31903 0.63175 0.5952 0.0
C638 C 0.29643 0.61295 0.59111 0.0
C639 C 0.33716 0.6278 0.60102 0.0
C640 C 0.33292 0.605 0.60311 0.0
C641 C 0.3103 0.58632 0.59928 0.0
C642 C 0.29234 0.59022 0.59333 0.0
C643 C 0.35186 0.60017 0.60883 0.0
C644 C 0.35535 0.58473 0.59746 0.0
C645 C 0.36579 0.60979 0.62552 0.0
C646 C 0.36235 0.62536 0.63863 0.0
C647 C 0.3404 0.618 0.64677 0.0
C648 C 0.33729 0.6328 0.65909 0.0
C649 C 0.35606 0.65494 0.66349 0.0
C650 C 0.378 0.66229 0.65563 0.0
C651 C 0.38119 0.64756 0.64329 0.0
H652 H 0.35362 0.66637 0.67304 0.0
H653 H 0.38178 0.51803 0.55761 0.0
H654 H 0.87405 0.46681 0.80582 0.0
H655 H 0.83326 0.4398 0.79606 0.0
H656 H 0.85172 0.38777 0.78203 0.0
H657 H 0.89243 0.4147 0.79141 0.0
H658 H 0.82411 0.39098 0.75459 0.0
H659 H 0.82457 0.38521 0.82286 0.0
H660 H 0.83143 0.40056 0.85573 0.0
H661 H 0.7832 0.42532 0.84653 0.0
H662 H 0.7763 0.41038 0.8135 0.0
H663 H 0.71927 0.28518 0.75154 0.0
H664 H 0.7575 0.31757 0.76074 0.0
H665 H 0.72636 0.35983 0.77277 0.0
H666 H 0.68762 0.32719 0.76379 0.0
H667 H 0.75905 0.36548 0.79995 0.0
H668 H 0.75573 0.36781 0.73245 0.0
H669 H 0.74847 0.3517 0.69982 0.0
H670 H 0.80202 0.33353 0.70741 0.0
H671 H 0.80936 0.34919 0.7402 0.0
C672 C 0.86941 0.44967 0.80051 0.0
C673 C 0.88642 0.44283 0.79948 0.0
C674 C 0.84609 0.43422 0.79507 0.0
C675 C 0.83942 0.41171 0.78846 0.0
C676 C 0.85646 0.40503 0.78712 0.0
C677 C 0.87968 0.42038 0.79263 0.0
C678 C 0.81472 0.39492 0.78297 0.0
C679 C 0.80991 0.3853 0.76454 0.0
C680 C 0.79608 0.38803 0.79578 0.0
C681 C 0.80014 0.39693 0.81565 0.0
C682 C 0.81558 0.3941 0.8278 0.0
C683 C 0.81945 0.4027 0.84647 0.0
C684 C 0.80781 0.41398 0.8532 0.0
C685 C 0.79223 0.41662 0.84129 0.0
C686 C 0.78833 0.40809 0.8226 0.0
C687 C 0.72039 0.30129 0.75617 0.0
C688 C 0.70028 0.30355 0.75678 0.0
C689 C 0.74236 0.31986 0.76137 0.0
C690 C 0.74486 0.34125 0.76713 0.0
C691 C 0.72482 0.3435 0.76827 0.0
C692 C 0.70271 0.32483 0.7631 0.0
C693 C 0.76857 0.36116 0.7717 0.0
C694 C 0.77319 0.37139 0.78992 0.0
C695 C 0.78708 0.36867 0.75868 0.0
C696 C 0.78298 0.35955 0.73884 0.0
C697 C 0.76587 0.36025 0.72721 0.0
C698 C 0.76174 0.35121 0.70868 0.0
C699 C 0.77475 0.34156 0.70156 0.0
C700 C 0.79196 0.341 0.71294 0.0
C701 C 0.79612 0.34998 0.7315 0.0
H702 H 0.77152 0.33455 0.68721 0.0
H703 H 0.81083 0.42061 0.86766 0.0
H704 H 0.45851 0.88377 0.9997 0.0
H705 H 0.44221 0.84251 0.99184 0.0
H706 H 0.4541 0.8589 0.93244 0.0
H707 H 0.46931 0.9 0.94027 0.0
H708 H 0.41463 0.8215 0.93529 0.0
H709 H 0.49137 0.84733 0.96259 0.0
H710 H 0.52259 0.86503 0.98722 0.0
H711 H 0.4783 0.81322 0.02666 0.0
H712 H 0.44667 0.79545 0.00236 0.0
H713 H 0.41523 0.7205 0.902 0.0
H714 H 0.42611 0.7601 0.91169 0.0
H715 H 0.4016 0.73666 0.96809 0.0
H716 H 0.3906 0.69691 0.95848 0.0
H717 H 0.4455 0.77636 0.96801 0.0
H718 H 0.36963 0.74947 0.93948 0.0
H719 H 0.33922 0.7317 0.91424 0.0
H720 H 0.38332 0.78562 0.87621 0.0
H721 H 0.41415 0.80353 0.90115 0.0
C722 C 0.45755 0.87847 0.98498 0.0
C723 C 0.46524 0.89501 0.97058 0.0
C724 C 0.44836 0.85492 0.98049 0.0
C725 C 0.44735 0.84753 0.96156 0.0
C726 C 0.45469 0.86408 0.94715 0.0
C727 C 0.46341 0.88756 0.95161 0.0
C728 C 0.43885 0.82266 0.9567 0.0
C729 C 0.42163 0.81177 0.94232 0.0
C730 C 0.44748 0.80963 0.96614 0.0
C731 C 0.46657 0.82021 0.98071 0.0
C732 C 0.48824 0.83981 0.97656 0.0
C733 C 0.50601 0.84986 0.99046 0.0
C734 C 0.5024 0.84032 0.00853 0.0
C735 C 0.48105 0.82065 0.01269 0.0
C736 C 0.4632 0.81058 0.99886 0.0
C737 C 0.41204 0.72373 0.91644 0.0
C738 C 0.40202 0.70556 0.92947 0.0
C739 C 0.4182 0.74637 0.92194 0.0
C740 C 0.41452 0.7513 0.94058 0.0
C741 C 0.40456 0.73321 0.95363 0.0
C742 C 0.39821 0.71051 0.9481 0.0
C743 C 0.4216 0.77546 0.9465 0.0
C744 C 0.43851 0.78616 0.96107 0.0
C745 C 0.41286 0.78837 0.93713 0.0
C746 C 0.39428 0.77772 0.92214 0.0
C747 C 0.37292 0.75744 0.92569 0.0
C748 C 0.35559 0.74736 0.91145 0.0
C749 C 0.35936 0.7575 0.89362 0.0
C750 C 0.38044 0.77777 0.89002 0.0
C751 C 0.39783 0.78791 0.90421 0.0
H752 H 0.34593 0.74966 0.88261 0.0
H753 H 0.51617 0.84813 0.01928 0.0
H754 H 0.5924 0.46622 0.16015 0.0
H755 H 0.61563 0.44831 0.15124 0.0
H756 H 0.63018 0.48253 0.09735 0.0
H757 H 0.6063 0.49977 0.10585 0.0
H758 H 0.62041 0.43862 0.09284 0.0
H759 H 0.67065 0.50335 0.13406 0.0
H760 H 0.68141 0.52703 0.16354 0.0
H761 H 0.67464 0.46933 0.19537 0.0
H762 H 0.66352 0.44521 0.16609 0.0
H763 H 0.7197 0.43096 0.06564 0.0
H764 H 0.69228 0.44381 0.07479 0.0
H765 H 0.6811 0.40865 0.12803 0.0
H766 H 0.70887 0.39609 0.11911 0.0
H767 H 0.68776 0.45111 0.13363 0.0
H768 H 0.63933 0.38686 0.092 0.0
H769 H 0.62877 0.3634 0.06242 0.0
H770 H 0.63219 0.42013 0.03126 0.0
H771 H 0.6431 0.44407 0.06062 0.0
C772 C 0.6003 0.4697 0.14631 0.0
C773 C 0.5976 0.48456 0.13376 0.0
C774 C 0.61376 0.45962 0.1413 0.0
C775 C 0.62493 0.46433 0.12372 0.0
C776 C 0.62183 0.47872 0.11102 0.0
C777 C 0.60834 0.48875 0.11598 0.0
C778 C 0.64013 0.45455 0.1186 0.0
C779 C 0.63528 0.44154 0.10166 0.0
C780 C 0.65921 0.45789 0.13033 0.0
C781 C 0.66602 0.47241 0.14792 0.0
C782 C 0.67129 0.49566 0.14737 0.0
C783 C 0.67748 0.50917 0.16403 0.0
C784 C 0.67864 0.49967 0.18132 0.0
C785 C 0.67369 0.47666 0.18197 0.0
C786 C 0.66746 0.46306 0.16534 0.0
C787 C 0.71129 0.42582 0.07925 0.0
C788 C 0.71643 0.41247 0.09164 0.0
C789 C 0.69553 0.43311 0.08443 0.0
C790 C 0.68441 0.427 0.10203 0.0
C791 C 0.68944 0.41356 0.11438 0.0
C792 C 0.70526 0.40633 0.10923 0.0
C793 C 0.66814 0.43527 0.10778 0.0
C794 C 0.6728 0.44803 0.12485 0.0
C795 C 0.6489 0.43172 0.09616 0.0
C796 C 0.64224 0.41733 0.07849 0.0
C797 C 0.638 0.3944 0.07882 0.0
C798 C 0.63192 0.381 0.06209 0.0
C799 C 0.62986 0.39028 0.04497 0.0
C800 C 0.63382 0.41297 0.04454 0.0
C801 C 0.63993 0.42645 0.06122 0.0
H802 H 0.62515 0.37988 0.03204 0.0
H803 H 0.68343 0.51015 0.19421 0.0
H804 H 0.41493 0.90338 0.54673 0.0
H805 H 0.39297 0.8626 0.55551 0.0
H806 H 0.40301 0.84224 0.49968 0.0
H807 H 0.42443 0.88308 0.49058 0.0
H808 H 0.35838 0.81597 0.51034 0.0
H809 H 0.43376 0.83976 0.53813 0.0
H810 H 0.4693 0.86446 0.55752 0.0
H811 H 0.42757 0.84953 0.60733 0.0
H812 H 0.39172 0.82499 0.58818 0.0
H813 H 0.31213 0.69785 0.53435 0.0
H814 H 0.33969 0.73747 0.52466 0.0
H815 H 0.33339 0.76377 0.57914 0.0
H816 H 0.30617 0.72418 0.58905 0.0
H817 H 0.37802 0.78637 0.56794 0.0
H818 H 0.30267 0.76496 0.53996 0.0
H819 H 0.26688 0.74053 0.52074 0.0
H820 H 0.30852 0.75135 0.47141 0.0
H821 H 0.3446 0.7756 0.49041 0.0
C822 C 0.41239 0.89024 0.53627 0.0
C823 C 0.42142 0.89653 0.51793 0.0
C824 C 0.40003 0.86692 0.54138 0.0
C825 C 0.39656 0.84933 0.52834 0.0
C826 C 0.40556 0.85551 0.51002 0.0
C827 C 0.41796 0.87888 0.50488 0.0
C828 C 0.38288 0.82449 0.53369 0.0
C829 C 0.36293 0.8094 0.52274 0.0
C830 C 0.38849 0.816 0.55011 0.0
C831 C 0.41003 0.83068 0.56168 0.0
C832 C 0.43214 0.84188 0.55319 0.0
C833 C 0.45234 0.85583 0.56414 0.0
C834 C 0.45069 0.8586 0.58364 0.0
C835 C 0.42882 0.84738 0.59222 0.0
C836 C 0.40856 0.83343 0.58133 0.0
C837 C 0.31679 0.71204 0.54435 0.0
C838 C 0.30685 0.70787 0.56244 0.0
C839 C 0.33247 0.73471 0.53875 0.0
C840 C 0.33833 0.75367 0.55106 0.0
C841 C 0.32909 0.74945 0.56938 0.0
C842 C 0.31348 0.72679 0.57501 0.0
C843 C 0.35343 0.77793 0.54468 0.0
C844 C 0.37361 0.79291 0.55545 0.0
C845 C 0.34801 0.78635 0.52812 0.0
C846 C 0.32634 0.77188 0.51665 0.0
C847 C 0.3042 0.76198 0.52505 0.0
C848 C 0.28386 0.74819 0.51419 0.0
C849 C 0.28543 0.74433 0.49488 0.0
C850 C 0.30734 0.75432 0.48637 0.0
C851 C 0.32773 0.76809 0.49718 0.0
H852 H 0.26966 0.73365 0.4865 0.0
H853 H 0.46635 0.86941 0.59209 0.0
H854 H 0.55401 0.42751 0.65785 0.0
H855 H 0.5688 0.402 0.6678 0.0
H856 H 0.56607 0.41974 0.72642 0.0
H857 H 0.55199 0.44587 0.71643 0.0
H858 H 0.60386 0.41748 0.72174 0.0
H859 H 0.5231 0.36737 0.70494 0.0
H860 H 0.48748 0.35115 0.68463 0.0
H861 H 0.52059 0.33052 0.64272 0.0
H862 H 0.55655 0.3469 0.66268 0.0
H863 H 0.60521 0.31771 0.75926 0.0
H864 H 0.5939 0.34642 0.75047 0.0
H865 H 0.60796 0.33972 0.69186 0.0
H866 H 0.61947 0.31126 0.70051 0.0
H867 H 0.56415 0.33608 0.69744 0.0
H868 H 0.64519 0.38662 0.71573 0.0
H869 H 0.67956 0.40192 0.7374 0.0
H870 H 0.64371 0.42029 0.77849 0.0
H871 H 0.60897 0.40478 0.75715 0.0
C872 C 0.55661 0.42596 0.67285 0.0
C873 C 0.55173 0.43855 0.68637 0.0
C874 C 0.56498 0.41132 0.67854 0.0
C875 C 0.56811 0.40852 0.69791 0.0
C876 C 0.56376 0.42153 0.71141 0.0
C877 C 0.55572 0.43646 0.7057 0.0
C878 C 0.57563 0.39184 0.70406 0.0
C879 C 0.59495 0.3996 0.71661 0.0
C880 C 0.56424 0.36852 0.69724 0.0
C881 C 0.5426 0.35856 0.68523 0.0
C882 C 0.52285 0.35952 0.69133 0.0
C883 C 0.50258 0.35028 0.67989 0.0
C884 C 0.50179 0.33986 0.66237 0.0
C885 C 0.52124 0.33861 0.65629 0.0
C886 C 0.54156 0.34786 0.66766 0.0
C887 C 0.60606 0.3225 0.74453 0.0
C888 C 0.61324 0.31223 0.73058 0.0
C889 C 0.59964 0.33892 0.73954 0.0
C890 C 0.60015 0.34522 0.72052 0.0
C891 C 0.60744 0.33509 0.70661 0.0
C892 C 0.61409 0.31889 0.7116 0.0
C893 C 0.59239 0.36181 0.71494 0.0
C894 C 0.573 0.35397 0.70255 0.0
C895 C 0.60349 0.3849 0.72212 0.0
C896 C 0.62439 0.39431 0.73492 0.0
C897 C 0.64455 0.39373 0.72945 0.0
C898 C 0.66412 0.40248 0.74166 0.0
C899 C 0.66379 0.41201 0.75933 0.0
C900 C 0.64392 0.41287 0.76481 0.0
C901 C 0.6243 0.40412 0.75266 0.0
H902 H 0.67896 0.41878 0.76877 0.0
H903 H 0.48609 0.33272 0.65354 0.0
H904 H 0.13175 0.53756 0.84058 0.0
H905 H 0.17273 0.55269 0.84979 0.0
H906 H 0.17934 0.61877 0.86471 0.0
H907 H 0.13804 0.60363 0.85564 0.0
H908 H 0.21905 0.62275 0.84585 0.0
H909 H 0.17197 0.58402 0.8992 0.0
H910 H 0.13921 0.55195 0.91578 0.0
H911 H 0.16562 0.50651 0.90136 0.0
H912 H 0.19836 0.53822 0.88442 0.0
H913 H 0.32646 0.65176 0.89844 0.0
H914 H 0.28859 0.64703 0.88791 0.0
H915 H 0.2634 0.5747 0.87489 0.0
H916 H 0.3006 0.57912 0.88567 0.0
H917 H 0.23316 0.57904 0.89593 0.0
H918 H 0.27806 0.61663 0.8401 0.0
H919 H 0.3106 0.64842 0.82306 0.0
H920 H 0.28865 0.69595 0.84222 0.0
H921 H 0.25612 0.66446 0.85956 0.0
C922 C 0.14187 0.55531 0.84584 0.0
C923 C 0.13153 0.56927 0.84767 0.0
C924 C 0.16533 0.56397 0.85101 0.0
C925 C 0.17896 0.58673 0.85819 0.0
C926 C 0.16908 0.60114 0.85922 0.0
C927 C 0.14551 0.59246 0.85403 0.0
C928 C 0.20303 0.59474 0.86558 0.0
C929 C 0.2222 0.61348 0.85701 0.0
C930 C 0.20708 0.58255 0.88008 0.0
C931 C 0.18754 0.56348 0.89043 0.0
C932 C 0.17071 0.56715 0.89945 0.0
C933 C 0.15215 0.54904 0.90893 0.0
C934 C 0.15031 0.52719 0.9096 0.0
C935 C 0.16706 0.52344 0.90082 0.0
C936 C 0.18564 0.54148 0.8913 0.0
C937 C 0.31291 0.63495 0.89309 0.0
C938 C 0.31645 0.61576 0.89307 0.0
C939 C 0.2913 0.63228 0.88706 0.0
C940 C 0.27309 0.61046 0.88067 0.0
C941 C 0.27705 0.59163 0.87994 0.0
C942 C 0.29839 0.59421 0.88611 0.0
C943 C 0.24936 0.60647 0.87568 0.0
C944 C 0.23013 0.58852 0.88487 0.0
C945 C 0.24537 0.6194 0.86177 0.0
C946 C 0.26484 0.63827 0.8513 0.0
C947 C 0.28029 0.6339 0.8408 0.0
C948 C 0.2987 0.65185 0.83106 0.0
C949 C 0.30173 0.67421 0.83161 0.0
C950 C 0.2863 0.67863 0.84184 0.0
C951 C 0.26787 0.66074 0.85161 0.0
H952 H 0.316 0.68808 0.82406 0.0
H953 H 0.13592 0.51319 0.91694 0.0
H954 H 0.55869 0.14699 0.01878 0.0
H955 H 0.58424 0.18829 0.02676 0.0
H956 H 0.645 0.18047 0.02078 0.0
H957 H 0.61979 0.13952 0.01241 0.0
H958 H 0.6459 0.20269 0.05415 0.0
H959 H 0.63077 0.20675 0.98726 0.0
H960 H 0.60547 0.19993 0.95906 0.0
H961 H 0.57755 0.23937 0.98505 0.0
H962 H 0.60243 0.24614 0.01355 0.0
H963 H 0.74346 0.3113 0.04985 0.0
H964 H 0.71122 0.27378 0.0393 0.0
H965 H 0.662 0.29706 0.05048 0.0
H966 H 0.6945 0.33517 0.06099 0.0
H967 H 0.65076 0.26801 0.0171 0.0
H968 H 0.66797 0.26683 0.0828 0.0
H969 H 0.69415 0.27496 0.1106 0.0
H970 H 0.71747 0.2302 0.08741 0.0
H971 H 0.69174 0.22214 0.05926 0.0
C972 C 0.5775 0.15414 0.0189 0.0
C973 C 0.58716 0.13985 0.0151 0.0
C974 C 0.59206 0.17772 0.02352 0.0
C975 C 0.61651 0.18742 0.0244 0.0
C976 C 0.62617 0.17329 0.02035 0.0
C977 C 0.6117 0.14983 0.01565 0.0
C978 C 0.63224 0.21211 0.03004 0.0
C979 C 0.64702 0.21695 0.04599 0.0
C980 C 0.63313 0.23072 0.01977 0.0
C981 C 0.61824 0.22671 0.00263 0.0
C982 C 0.61908 0.21379 0.98704 0.0
C983 C 0.60485 0.20997 0.97098 0.0
C984 C 0.58987 0.21915 0.97028 0.0
C985 C 0.58913 0.23223 0.98562 0.0
C986 C 0.60329 0.23607 1.00173 0.0
C987 C 0.72584 0.30864 0.04989 0.0
C988 C 0.72152 0.32613 0.05655 0.0
C989 C 0.70742 0.28716 0.04381 0.0
C990 C 0.68421 0.28251 0.04445 0.0
C991 C 0.67982 0.30031 0.04997 0.0
C992 C 0.69838 0.32203 0.05598 0.0
C993 C 0.6648 0.25844 0.04083 0.0
C994 C 0.64934 0.25372 0.0254 0.0
C995 C 0.66309 0.23984 0.05164 0.0
C996 C 0.67801 0.24399 0.06885 0.0
C997 C 0.67876 0.25879 0.08358 0.0
C998 C 0.69353 0.26341 0.0994 0.0
C999 C 0.70751 0.25314 0.10076 0.0
C1000 C 0.70665 0.23815 0.08633 0.0
C1001 C 0.69195 0.23353 0.07044 0.0
H1002 H 0.71898 0.25678 0.113 0.0
H1003 H 0.57888 0.21618 0.95784 0.0
H1004 H 0.46377 0.60698 0.15293 0.0
H1005 H 0.44479 0.62953 0.1609 0.0
H1006 H 0.46039 0.62734 0.22028 0.0
H1007 H 0.4781 0.60367 0.21232 0.0
H1008 H 0.42017 0.62333 0.21808 0.0
H1009 H 0.494 0.67607 0.18998 0.0
H1010 H 0.52392 0.69046 0.16518 0.0
H1011 H 0.47516 0.69353 0.12603 0.0
H1012 H 0.44485 0.67887 0.15055 0.0
H1013 H 0.43739 0.73275 0.25142 0.0
H1014 H 0.44299 0.70135 0.23935 0.0
H1015 H 0.39444 0.68889 0.19314 0.0
H1016 H 0.38807 0.72002 0.20556 0.0
H1017 H 0.44561 0.69789 0.18567 0.0
H1018 H 0.37352 0.64937 0.21796 0.0
H1019 H 0.34715 0.63812 0.24522 0.0
H1020 H 0.39739 0.63077 0.27934 0.0
H1021 H 0.42423 0.64235 0.25235 0.0
C1022 C 0.46296 0.61125 0.16767 0.0
C1023 C 0.47245 0.60375 0.18203 0.0
C1024 C 0.45224 0.62423 0.17223 0.0
C1025 C 0.45153 0.63063 0.19119 0.0
C1026 C 0.46065 0.62268 0.20555 0.0
C1027 C 0.47084 0.60923 0.20103 0.0
C1028 C 0.44189 0.64604 0.19614 0.0
C1029 C 0.42586 0.63965 0.21099 0.0
C1030 C 0.44888 0.66724 0.18675 0.0
C1031 C 0.46708 0.67611 0.17202 0.0
C1032 C 0.48961 0.67966 0.17604 0.0
C1033 C 0.50664 0.68788 0.16204 0.0
C1034 C 0.50142 0.69283 0.14402 0.0
C1035 C 0.47916 0.68964 0.13998 0.0
C1036 C 0.46206 0.68138 0.15392 0.0
C1037 C 0.42765 0.72317 0.23882 0.0
C1038 C 0.41227 0.72883 0.22943 0.0
C1039 C 0.43086 0.70523 0.23197 0.0
C1040 C 0.41912 0.69287 0.2154 0.0
C1041 C 0.40357 0.69825 0.20601 0.0
C1042 C 0.3999 0.71591 0.21314 0.0
C1043 C 0.4243 0.67521 0.20764 0.0
C1044 C 0.43962 0.68129 0.1924 0.0
C1045 C 0.41713 0.65405 0.21694 0.0
C1046 C 0.40096 0.64691 0.23316 0.0
C1047 C 0.37904 0.64557 0.23132 0.0
C1048 C 0.36399 0.63908 0.24672 0.0
C1049 C 0.37061 0.63378 0.26402 0.0
C1050 C 0.39229 0.6349 0.26594 0.0
C1051 C 0.40741 0.64139 0.25058 0.0
H1052 H 0.35894 0.62877 0.27592 0.0
H1053 H 0.51462 0.6992 0.1332 0.0
H1054 H 0.88122 0.4563 0.35579 0.0
H1055 H 0.83985 0.43933 0.36385 0.0
H1056 H 0.8446 0.50581 0.35643 0.0
H1057 H 0.88559 0.52274 0.34776 0.0
H1058 H 0.82408 0.48489 0.3904 0.0
H1059 H 0.81736 0.46504 0.32367 0.0
H1060 H 0.82405 0.44759 0.29511 0.0
H1061 H 0.78885 0.38043 0.32058 0.0
H1062 H 0.78222 0.39756 0.34941 0.0
H1063 H 0.70953 0.46254 0.3896 0.0
H1064 H 0.7483 0.4724 0.37877 0.0
H1065 H 0.73165 0.40144 0.38583 0.0
H1066 H 0.6923 0.39121 0.39645 0.0
H1067 H 0.75802 0.42107 0.3538 0.0
H1068 H 0.76225 0.44021 0.41968 0.0
H1069 H 0.7546 0.4574 0.44791 0.0
H1070 H 0.79473 0.52543 0.42461 0.0
H1071 H 0.80224 0.5086 0.39604 0.0
C1072 C 0.8734 0.46725 0.35558 0.0
C1073 C 0.88687 0.49097 0.35121 0.0
C1074 C 0.84977 0.45753 0.36028 0.0
C1075 C 0.83918 0.47133 0.36075 0.0
C1076 C 0.85249 0.4949 0.35628 0.0
C1077 C 0.87599 0.50457 0.35144 0.0
C1078 C 0.8144 0.4615 0.36633 0.0
C1079 C 0.80963 0.47107 0.38231 0.0
C1080 C 0.79562 0.44295 0.35611 0.0
C1081 C 0.79954 0.43263 0.33878 0.0
C1082 C 0.81124 0.44659 0.32325 0.0
C1083 C 0.81497 0.43675 0.307 0.0
C1084 C 0.80695 0.41293 0.30606 0.0
C1085 C 0.7951 0.39889 0.32135 0.0
C1086 C 0.79133 0.40865 0.33764 0.0
C1087 C 0.71395 0.44891 0.38873 0.0
C1088 C 0.69789 0.42613 0.39416 0.0
C1089 C 0.73617 0.45461 0.38253 0.0
C1090 C 0.74304 0.43778 0.38188 0.0
C1091 C 0.72672 0.41472 0.38633 0.0
C1092 C 0.70428 0.40892 0.39242 0.0
C1093 C 0.76772 0.44484 0.37762 0.0
C1094 C 0.77249 0.43473 0.36199 0.0
C1095 C 0.78659 0.46282 0.38823 0.0
C1096 C 0.78268 0.47311 0.40564 0.0
C1097 C 0.76935 0.45883 0.42052 0.0
C1098 C 0.76503 0.4685 0.43659 0.0
C1099 C 0.77414 0.49248 0.43804 0.0
C1100 C 0.78767 0.50685 0.42346 0.0
C1101 C 0.79198 0.49725 0.40733 0.0
H1102 H 0.77075 0.49994 0.45048 0.0
H1103 H 0.80985 0.40534 0.29346 0.0
H1104 H 0.06624 0.57471 0.42635 0.0
H1105 H 0.09376 0.58561 0.45323 0.0
H1106 H 0.15182 0.61825 0.415 0.0
H1107 H 0.12418 0.60626 0.38803 0.0
H1108 H 0.16136 0.59586 0.43805 0.0
H1109 H 0.13527 0.64982 0.44662 0.0
H1110 H 0.10711 0.66378 0.44966 0.0
H1111 H 0.07939 0.62337 0.49971 0.0
H1112 H 0.10717 0.6089 0.49683 0.0
H1113 H 0.24099 0.63481 0.51837 0.0
H1114 H 0.2196 0.63093 0.4891 0.0
H1115 H 0.15577 0.60632 0.52067 0.0
H1116 H 0.17862 0.61499 0.55015 0.0
H1117 H 0.1531 0.63028 0.49801 0.0
H1118 H 0.17443 0.56655 0.47435 0.0
H1119 H 0.20464 0.55646 0.46537 0.0
H1120 H 0.24593 0.62351 0.44098 0.0
H1121 H 0.21568 0.63357 0.44906 0.0
C1122 C 0.08489 0.58441 0.42376 0.0
C1123 C 0.09315 0.5897 0.40518 0.0
C1124 C 0.10064 0.59076 0.43913 0.0
C1125 C 0.12497 0.60312 0.43626 0.0
C1126 C 0.13318 0.60872 0.41765 0.0
C1127 C 0.11742 0.60192 0.40225 0.0
C1128 C 0.14178 0.6091 0.45255 0.0
C1129 C 0.15954 0.60342 0.45118 0.0
C1130 C 0.1399 0.61941 0.46958 0.0
C1131 C 0.1232 0.62814 0.47141 0.0
C1132 C 0.12307 0.64379 0.4582 0.0
C1133 C 0.10718 0.65181 0.45991 0.0
C1134 C 0.09144 0.64443 0.47484 0.0
C1135 C 0.09158 0.62905 0.48814 0.0
C1136 C 0.10741 0.62096 0.48649 0.0
C1137 C 0.22229 0.62827 0.5189 0.0
C1138 C 0.2112 0.62439 0.53641 0.0
C1139 C 0.20978 0.6255 0.50197 0.0
C1140 C 0.1855 0.61734 0.50205 0.0
C1141 C 0.17441 0.61273 0.5198 0.0
C1142 C 0.18731 0.61716 0.53677 0.0
C1143 C 0.17172 0.61529 0.48424 0.0
C1144 C 0.15466 0.62216 0.48513 0.0
C1145 C 0.17469 0.60669 0.46655 0.0
C1146 C 0.19333 0.60108 0.46297 0.0
C1147 C 0.19021 0.57923 0.46743 0.0
C1148 C 0.20718 0.57346 0.46237 0.0
C1149 C 0.22737 0.58951 0.45307 0.0
C1150 C 0.23044 0.6112 0.4484 0.0
C1151 C 0.21332 0.61686 0.45306 0.0
H1152 H 0.24049 0.585 0.44926 0.0
H1153 H 0.07916 0.65066 0.47614 0.0
H1154 H 0.55184 0.12653 0.55881 0.0
H1155 H 0.56743 0.1516 0.58708 0.0
H1156 H 0.51849 0.09554 0.62173 0.0
H1157 H 0.50308 0.07021 0.59361 0.0
H1158 H 0.52039 0.13654 0.63074 0.0
H1159 H 0.57488 0.10964 0.62114 0.0
H1160 H 0.60288 0.10261 0.60349 0.0
H1161 H 0.64711 0.17595 0.59586 0.0
H1162 H 0.61917 0.18341 0.6132 0.0
H1163 H 0.57148 0.18829 0.72019 0.0
H1164 H 0.55554 0.16201 0.69246 0.0
H1165 H 0.60964 0.2141 0.6579 0.0
H1166 H 0.626 0.23982 0.68579 0.0
H1167 H 0.60476 0.17488 0.64853 0.0
H1168 H 0.55067 0.20197 0.65732 0.0
H1169 H 0.52305 0.20986 0.67469 0.0
H1170 H 0.47852 0.1369 0.68393 0.0
H1171 H 0.50604 0.12859 0.66683 0.0
C1172 C 0.54453 0.11944 0.57246 0.0
C1173 C 0.52623 0.0963 0.57391 0.0
C1174 C 0.55342 0.13382 0.58861 0.0
C1175 C 0.54425 0.12538 0.60654 0.0
C1176 C 0.52579 0.10243 0.60802 0.0
C1177 C 0.51694 0.08801 0.5919 0.0
C1178 C 0.5539 0.14048 0.62376 0.0
C1179 C 0.53877 0.1446 0.63487 0.0
C1180 C 0.578 0.15151 0.62882 0.0
C1181 C 0.59476 0.14705 0.61826 0.0
C1182 C 0.59044 0.12426 0.61552 0.0
C1183 C 0.60633 0.1202 0.6056 0.0
C1184 C 0.62672 0.13881 0.5985 0.0
C1185 C 0.63128 0.16154 0.60133 0.0
C1186 C 0.61543 0.16569 0.6112 0.0
C1187 C 0.57996 0.19392 0.70665 0.0
C1188 C 0.60023 0.2157 0.70509 0.0
C1189 C 0.57078 0.17904 0.69079 0.0
C1190 C 0.58117 0.18614 0.67295 0.0
C1191 C 0.60132 0.20813 0.67145 0.0
C1192 C 0.6107 0.22279 0.68737 0.0
C1193 C 0.57126 0.1707 0.65587 0.0
C1194 C 0.58634 0.16661 0.64466 0.0
C1195 C 0.54715 0.15976 0.65071 0.0
C1196 C 0.53053 0.16468 0.66096 0.0
C1197 C 0.53507 0.18762 0.66318 0.0
C1198 C 0.51942 0.19217 0.67296 0.0
C1199 C 0.49907 0.1739 0.68045 0.0
C1200 C 0.4943 0.15103 0.67814 0.0
C1201 C 0.50991 0.14639 0.66839 0.0
H1202 H 0.48698 0.17745 0.68802 0.0
H1203 H 0.63901 0.13564 0.59084 0.0
H1204 H 0.43601 0.55286 0.72521 0.0
H1205 H 0.42436 0.56705 0.75269 0.0
H1206 H 0.48203 0.57104 0.78546 0.0
H1207 H 0.49302 0.55564 0.75837 0.0
H1208 H 0.44504 0.55277 0.8059 0.0
H1209 H 0.48276 0.62042 0.76826 0.0
H1210 H 0.49101 0.64372 0.7394 0.0
H1211 H 0.42061 0.63167 0.73848 0.0
H1212 H 0.41183 0.60803 0.7672 0.0
H1213 H 0.42691 0.64143 0.86593 0.0
H1214 H 0.4438 0.63333 0.83809 0.0
H1215 H 0.38749 0.56213 0.83716 0.0
H1216 H 0.37081 0.56983 0.86501 0.0
H1217 H 0.42907 0.61809 0.80215 0.0
H1218 H 0.40817 0.52656 0.82652 0.0
H1219 H 0.40298 0.50588 0.85653 0.0
H1220 H 0.44695 0.57071 0.88586 0.0
H1221 H 0.45277 0.59174 0.85598 0.0
C1222 C 0.44611 0.55654 0.7383 0.0
C1223 C 0.46548 0.55307 0.73952 0.0
C1224 C 0.43961 0.56498 0.75395 0.0
C1225 C 0.45251 0.57046 0.7711 0.0
C1226 C 0.47185 0.56705 0.77237 0.0
C1227 C 0.47825 0.55844 0.75678 0.0
C1228 C 0.44533 0.57894 0.78792 0.0
C1229 C 0.44164 0.56711 0.80505 0.0
C1230 C 0.44136 0.59798 0.78702 0.0
C1231 C 0.44659 0.6123 0.7698 0.0
C1232 C 0.46899 0.62261 0.76183 0.0
C1233 C 0.47377 0.63589 0.7455 0.0
C1234 C 0.45633 0.63913 0.73709 0.0
C1235 C 0.4341 0.62913 0.74501 0.0
C1236 C 0.42922 0.61581 0.76132 0.0
C1237 C 0.41804 0.62409 0.85972 0.0
C1238 C 0.39764 0.60623 0.86787 0.0
C1239 C 0.4277 0.61951 0.84378 0.0
C1240 C 0.41713 0.59703 0.83575 0.0
C1241 C 0.39622 0.57948 0.84335 0.0
C1242 C 0.38668 0.58397 0.85929 0.0
C1243 C 0.42821 0.59149 0.81985 0.0
C1244 C 0.43263 0.60386 0.80295 0.0
C1245 C 0.43344 0.57332 0.82109 0.0
C1246 C 0.43073 0.56073 0.83902 0.0
C1247 C 0.41688 0.53639 0.83934 0.0
C1248 C 0.41381 0.52461 0.85634 0.0
C1249 C 0.42458 0.53698 0.8731 0.0
C1250 C 0.43857 0.56115 0.87288 0.0
C1251 C 0.44176 0.57301 0.85592 0.0
H1252 H 0.4221 0.52784 0.88625 0.0
H1253 H 0.46007 0.64942 0.72445 0.0
H1254 H 0.95301 0.47114 0.92297 0.0
H1255 H 0.92632 0.45631 0.94954 0.0
H1256 H 0.87235 0.45835 0.91592 0.0
H1257 H 0.89851 0.47215 0.88884 0.0
H1258 H 0.88007 0.47848 0.95448 0.0
H1259 H 0.86547 0.40871 0.92133 0.0
H1260 H 0.87686 0.38245 0.90595 0.0
H1261 H 0.90803 0.37772 0.95832 0.0
H1262 H 0.89713 0.40425 0.97395 0.0
H1263 H 0.79003 0.41641 0.0214 0.0
H1264 H 0.81272 0.43061 0.99245 0.0
H1265 H 0.86332 0.41333 0.01464 0.0
H1266 H 0.84031 0.39828 0.04312 0.0
H1267 H 0.85509 0.40033 0.97987 0.0
H1268 H 0.8729 0.47094 0.01298 0.0
H1269 H 0.86418 0.4987 0.02922 0.0
H1270 H 0.83022 0.50376 0.9786 0.0
H1271 H 0.83848 0.47578 0.96213 0.0
C1272 C 0.93537 0.46812 0.92103 0.0
C1273 C 0.92796 0.47275 0.90361 0.0
C1274 C 0.9202 0.45982 0.93632 0.0
C1275 C 0.89738 0.45619 0.93464 0.0
C1276 C 0.88996 0.46115 0.91749 0.0
C1277 C 0.90502 0.46916 0.90206 0.0
C1278 C 0.88127 0.44694 0.95082 0.0
C1279 C 0.87425 0.46126 0.95991 0.0
C1280 C 0.87424 0.42472 0.9581 0.0
C1281 C 0.88067 0.40864 0.94876 0.0
C1282 C 0.87493 0.40223 0.92953 0.0
C1283 C 0.88126 0.38727 0.92077 0.0
C1284 C 0.89321 0.37847 0.93114 0.0
C1285 C 0.89879 0.38457 0.9503 0.0
C1286 C 0.89252 0.39955 0.95912 0.0
C1287 C 0.80604 0.41571 0.02012 0.0
C1288 C 0.81335 0.40622 0.03461 0.0
C1289 C 0.81906 0.42394 0.00358 0.0
C1290 C 0.83994 0.42333 1.00139 0.0
C1291 C 0.84727 0.41395 0.0159 0.0
C1292 C 0.83409 0.4054 0.03226 0.0
C1293 C 0.85405 0.432 0.98391 0.0
C1294 C 0.86072 0.41753 0.97449 0.0
C1295 C 0.86105 0.45425 0.97653 0.0
C1296 C 0.85608 0.47107 0.9864 0.0
C1297 C 0.86341 0.47783 0.00536 0.0
C1298 C 0.85858 0.49363 0.0146 0.0
C1299 C 0.84659 0.50293 0.00496 0.0
C1300 C 0.83947 0.4965 0.98606 0.0
C1301 C 0.84423 0.48069 0.97676 0.0
H1302 H 0.84288 0.51516 0.01214 0.0
H1303 H 0.89809 0.36689 0.92434 0.0
H1304 H 0.51018 0.93555 0.07308 0.0
H1305 H 0.49767 0.90921 0.09978 0.0
H1306 H 0.43214 0.90905 0.10085 0.0
H1307 H 0.445 0.93631 0.07465 0.0
H1308 H 0.44905 0.91299 0.13579 0.0
H1309 H 0.43578 0.86276 0.08234 0.0
H1310 H 0.44615 0.84985 0.05295 0.0
H1311 H 0.49977 0.84393 0.08327 0.0
H1312 H 0.48995 0.85714 0.11281 0.0
H1313 H 0.39132 0.81562 0.19587 0.0
H1314 H 0.40158 0.83937 0.16748 0.0
H1315 H 0.47148 0.84943 0.17023 0.0
H1316 H 0.4615 0.82586 0.19872 0.0
H1317 H 0.45093 0.83933 0.13298 0.0
H1318 H 0.46452 0.89087 0.18615 0.0
H1319 H 0.45362 0.90349 0.21541 0.0
H1320 H 0.39819 0.90624 0.18507 0.0
H1321 H 0.40852 0.89323 0.15568 0.0
C1322 C 0.4932 0.93013 0.07909 0.0
C1323 C 0.47861 0.9381 0.07168 0.0
C1324 C 0.48594 0.91482 0.09424 0.0
C1325 C 0.46381 0.90686 0.10218 0.0
C1326 C 0.44925 0.91486 0.0949 0.0
C1327 C 0.45654 0.93028 0.0798 0.0
C1328 C 0.45606 0.8905 0.11826 0.0
C1329 C 0.44911 0.89671 0.13504 0.0
C1330 C 0.45654 0.86943 0.11745 0.0
C1331 C 0.46226 0.86115 0.09976 0.0
C1332 C 0.44989 0.85885 0.08273 0.0
C1333 C 0.45565 0.85146 0.06604 0.0
C1334 C 0.47365 0.84613 0.06624 0.0
C1335 C 0.48585 0.84809 0.08314 0.0
C1336 C 0.48018 0.8555 0.09986 0.0
C1337 C 0.40883 0.82269 0.19037 0.0
C1338 C 0.42561 0.81889 0.19964 0.0
C1339 C 0.41467 0.83632 0.17417 0.0
C1340 C 0.43732 0.84625 0.16684 0.0
C1341 C 0.45389 0.8419 0.17567 0.0
C1342 C 0.44817 0.82851 0.192 0.0
C1343 C 0.444 0.86191 0.1504 0.0
C1344 C 0.45076 0.85556 0.13361 0.0
C1345 C 0.44323 0.88278 0.15115 0.0
C1346 C 0.43713 0.89083 0.16876 0.0
C1347 C 0.44988 0.89397 0.18575 0.0
C1348 C 0.44382 0.90122 0.20235 0.0
C1349 C 0.42518 0.9056 0.20211 0.0
C1350 C 0.4126 0.9028 0.18524 0.0
C1351 C 0.41855 0.8955 0.1686 0.0
H1352 H 0.42052 0.91122 0.21498 0.0
H1353 H 0.47812 0.84047 0.0533 0.0
H1354 H 0.5455 0.50269 0.25784 0.0
H1355 H 0.55627 0.48761 0.28537 0.0
H1356 H 0.59524 0.4668 0.24937 0.0
H1357 H 0.58459 0.482 0.22169 0.0
H1358 H 0.5647 0.43227 0.27674 0.0
H1359 H 0.62553 0.51281 0.27378 0.0
H1360 H 0.64034 0.55488 0.27176 0.0
H1361 H 0.60629 0.55341 0.32372 0.0
H1362 H 0.59098 0.51123 0.3259 0.0
H1363 H 0.62258 0.40931 0.35282 0.0
H1364 H 0.61146 0.42089 0.32338 0.0
H1365 H 0.59122 0.46329 0.35581 0.0
H1366 H 0.6039 0.45303 0.38494 0.0
H1367 H 0.61353 0.48674 0.32854 0.0
H1368 H 0.5509 0.40758 0.33203 0.0
H1369 H 0.5331 0.36511 0.33454 0.0
H1370 H 0.56619 0.36289 0.28307 0.0
H1371 H 0.58443 0.4054 0.28038 0.0
C1372 C 0.55623 0.49476 0.25577 0.0
C1373 C 0.56425 0.49354 0.23763 0.0
C1374 C 0.56243 0.48624 0.2715 0.0
C1375 C 0.57659 0.47616 0.26939 0.0
C1376 C 0.58428 0.47451 0.25126 0.0
C1377 C 0.57834 0.48332 0.23553 0.0
C1378 C 0.58382 0.46796 0.28626 0.0
C1379 C 0.57563 0.44413 0.28801 0.0
C1380 C 0.59754 0.48342 0.3011 0.0
C1381 C 0.60695 0.50883 0.29991 0.0
C1382 C 0.62105 0.52142 0.28469 0.0
C1383 C 0.62956 0.54529 0.28354 0.0
C1384 C 0.62422 0.5568 0.29758 0.0
C1385 C 0.6104 0.54447 0.31284 0.0
C1386 C 0.60182 0.52059 0.31405 0.0
C1387 C 0.61553 0.42091 0.3536 0.0
C1388 C 0.61407 0.43026 0.37115 0.0
C1389 C 0.60904 0.42745 0.33677 0.0
C1390 C 0.60016 0.44281 0.33725 0.0
C1391 C 0.59813 0.45156 0.35492 0.0
C1392 C 0.60527 0.4456 0.37163 0.0
C1393 C 0.59403 0.45075 0.31946 0.0
C1394 C 0.60255 0.47466 0.31741 0.0
C1395 C 0.58019 0.43525 0.30454 0.0
C1396 C 0.56922 0.40969 0.30611 0.0
C1397 C 0.55451 0.39805 0.32132 0.0
C1398 C 0.54432 0.37397 0.32276 0.0
C1399 C 0.54856 0.36132 0.309 0.0
C1400 C 0.56295 0.37271 0.29373 0.0
C1401 C 0.5732 0.3968 0.29223 0.0
H1402 H 0.54066 0.34268 0.31014 0.0
H1403 H 0.63082 0.57529 0.29666 0.0
H1404 H 0.41304 0.93157 0.40998 0.0
H1405 H 0.403 0.90593 0.38207 0.0
H1406 H 0.4725 0.91509 0.38296 0.0
H1407 H 0.48237 0.93944 0.41151 0.0
H1408 H 0.44929 0.92397 0.34541 0.0
H1409 H 0.44299 0.86979 0.39523 0.0
H1410 H 0.42679 0.84954 0.42519 0.0
H1411 H 0.35689 0.8211 0.40228 0.0
H1412 H 0.37272 0.8415 0.37227 0.0
H1413 H 0.41711 0.80156 0.30031 0.0
H1414 H 0.4285 0.82935 0.32672 0.0
H1415 H 0.40724 0.87016 0.2935 0.0
H1416 H 0.3994 0.8442 0.26632 0.0
H1417 H 0.40446 0.83794 0.34743 0.0
H1418 H 0.4187 0.91592 0.30942 0.0
H1419 H 0.43485 0.9387 0.28043 0.0
H1420 H 0.48999 0.92216 0.28078 0.0
H1421 H 0.47374 0.89885 0.30973 0.0
C1422 C 0.4261 0.92781 0.40455 0.0
C1423 C 0.44862 0.93779 0.41309 0.0
C1424 C 0.42035 0.9133 0.38848 0.0
C1425 C 0.43706 0.90878 0.38051 0.0
C1426 C 0.45944 0.91856 0.38891 0.0
C1427 C 0.46508 0.93265 0.40516 0.0
C1428 C 0.43148 0.89419 0.36314 0.0
C1429 C 0.43954 0.90513 0.34577 0.0
C1430 C 0.41849 0.86975 0.36368 0.0
C1431 C 0.40901 0.8574 0.38163 0.0
C1432 C 0.42416 0.85943 0.39667 0.0
C1433 C 0.41506 0.84787 0.41363 0.0
C1434 C 0.39082 0.83411 0.41566 0.0
C1435 C 0.37566 0.83181 0.4007 0.0
C1436 C 0.38469 0.84335 0.38371 0.0
C1437 C 0.41648 0.81735 0.29831 0.0
C1438 C 0.40894 0.82157 0.28091 0.0
C1439 C 0.42234 0.83297 0.31359 0.0
C1440 C 0.41941 0.8525 0.31221 0.0
C1441 C 0.41103 0.8562 0.2949 0.0
C1442 C 0.40617 0.84109 0.27937 0.0
C1443 C 0.4233 0.86755 0.32936 0.0
C1444 C 0.41448 0.85674 0.34684 0.0
C1445 C 0.4355 0.8922 0.3289 0.0
C1446 C 0.44479 0.90527 0.3113 0.0
C1447 C 0.43414 0.91698 0.30316 0.0
C1448 C 0.44324 0.9299 0.28677 0.0
C1449 C 0.46326 0.93159 0.27864 0.0
C1450 C 0.47424 0.92041 0.28693 0.0
C1451 C 0.46501 0.90722 0.30321 0.0
H1452 H 0.47039 0.94171 0.26601 0.0
H1453 H 0.3838 0.82517 0.42881 0.0
H1454 H 0.56214 0.46126 0.59599 0.0
H1455 H 0.57541 0.4491 0.56819 0.0
H1456 H 0.5227 0.4521 0.53349 0.0
H1457 H 0.50972 0.46492 0.56106 0.0
H1458 H 0.52522 0.41206 0.52675 0.0
H1459 H 0.57728 0.49445 0.53154 0.0
H1460 H 0.60576 0.53163 0.54699 0.0
H1461 H 0.65374 0.50644 0.5555 0.0
H1462 H 0.62537 0.46894 0.54039 0.0
H1463 H 0.57047 0.40596 0.43682 0.0
H1464 H 0.5551 0.41654 0.46436 0.0
H1465 H 0.61335 0.42409 0.49865 0.0
H1466 H 0.62899 0.41428 0.47095 0.0
H1467 H 0.60723 0.45869 0.50561 0.0
H1468 H 0.55581 0.37644 0.50172 0.0
H1469 H 0.52784 0.33892 0.48642 0.0
H1470 H 0.47949 0.36332 0.47629 0.0
H1471 H 0.50731 0.40112 0.49131 0.0
C1472 C 0.5535 0.45959 0.58242 0.0
C1473 C 0.5349 0.46421 0.5808 0.0
C1474 C 0.56104 0.45252 0.56657 0.0
C1475 C 0.55013 0.44985 0.54876 0.0
C1476 C 0.5313 0.45398 0.54712 0.0
C1477 C 0.52385 0.46122 0.56294 0.0
C1478 C 0.55858 0.44302 0.53181 0.0
C1479 C 0.54308 0.42241 0.52193 0.0
C1480 C 0.58202 0.45626 0.52582 0.0
C1481 C 0.59903 0.47875 0.53507 0.0
C1482 C 0.59378 0.49673 0.53691 0.0
C1483 C 0.60993 0.51789 0.54557 0.0
C1484 C 0.63151 0.52136 0.55229 0.0
C1485 C 0.637 0.5037 0.55034 0.0
C1486 C 0.62088 0.48249 0.54173 0.0
C1487 C 0.57992 0.40997 0.45027 0.0
C1488 C 0.60122 0.41006 0.45175 0.0
C1489 C 0.57108 0.41581 0.46603 0.0
C1490 C 0.58295 0.42095 0.48368 0.0
C1491 C 0.60392 0.42033 0.4852 0.0
C1492 C 0.61291 0.41484 0.46939 0.0
C1493 C 0.57401 0.42769 0.50045 0.0
C1494 C 0.5894 0.44833 0.51032 0.0
C1495 C 0.55054 0.41441 0.50646 0.0
C1496 C 0.53375 0.39169 0.49748 0.0
C1497 C 0.53929 0.37387 0.4961 0.0
C1498 C 0.52345 0.35254 0.4875 0.0
C1499 C 0.50193 0.34876 0.48034 0.0
C1500 C 0.49618 0.36629 0.48182 0.0
C1501 C 0.51197 0.38765 0.49039 0.0
H1502 H 0.48969 0.33224 0.47369 0.0
H1503 H 0.64401 0.53777 0.55897 0.0
H1504 H 0.08659 0.5245 0.74247 0.0
H1505 H 0.11469 0.53858 0.7168 0.0
H1506 H 0.12412 0.6072 0.72421 0.0
H1507 H 0.09625 0.59335 0.75019 0.0
H1508 H 0.11901 0.5941 0.68684 0.0
H1509 H 0.16579 0.59643 0.73998 0.0
H1510 H 0.17598 0.58119 0.76804 0.0
H1511 H 0.17729 0.52845 0.73331 0.0
H1512 H 0.16675 0.54315 0.70508 0.0
H1513 H 0.21707 0.6448 0.62528 0.0
H1514 H 0.19393 0.63678 0.65406 0.0
H1515 H 0.17743 0.56535 0.65145 0.0
H1516 H 0.20043 0.57311 0.62283 0.0
H1517 H 0.18843 0.58353 0.68779 0.0
H1518 H 0.13871 0.57925 0.63538 0.0
H1519 H 0.12826 0.5941 0.60721 0.0
H1520 H 0.13242 0.6504 0.64068 0.0
H1521 H 0.14328 0.63608 0.66901 0.0
C1522 C 0.09482 0.54266 0.73883 0.0
C1523 C 0.08922 0.55781 0.7485 0.0
C1524 C 0.11085 0.55067 0.72409 0.0
C1525 C 0.12171 0.57401 0.71873 0.0
C1526 C 0.11594 0.58913 0.72813 0.0
C1527 C 0.09993 0.58114 0.74292 0.0
C1528 C 0.13891 0.58247 0.70317 0.0
C1529 C 0.13443 0.59219 0.6872 0.0
C1530 C 0.15882 0.57962 0.7035 0.0
C1531 C 0.16528 0.57078 0.72043 0.0
C1532 C 0.16807 0.58147 0.73835 0.0
C1533 C 0.17394 0.57294 0.75428 0.0
C1534 C 0.17723 0.55383 0.75247 0.0
C1535 C 0.17472 0.54324 0.7347 0.0
C1536 C 0.16882 0.55168 0.71872 0.0
C1537 C 0.20872 0.62744 0.63093 0.0
C1538 C 0.21053 0.60958 0.62165 0.0
C1539 C 0.19543 0.62287 0.64734 0.0
C1540 C 0.18381 0.60041 0.6548 0.0
C1541 C 0.18625 0.58279 0.64594 0.0
C1542 C 0.19934 0.58727 0.62951 0.0
C1543 C 0.16836 0.59489 0.67141 0.0
C1544 C 0.17316 0.5857 0.68755 0.0
C1545 C 0.14875 0.59821 0.67123 0.0
C1546 C 0.14208 0.60676 0.65426 0.0
C1547 C 0.1376 0.59492 0.63669 0.0
C1548 C 0.13157 0.60321 0.62071 0.0
C1549 C 0.12974 0.62322 0.62214 0.0
C1550 C 0.13389 0.63493 0.63959 0.0
C1551 C 0.13998 0.62673 0.65561 0.0
H1552 H 0.12506 0.62961 0.60975 0.0
H1553 H 0.18178 0.54726 0.76482 0.0
H1554 H 0.58862 0.09518 0.91017 0.0
H1555 H 0.60174 0.12265 0.88418 0.0
H1556 H 0.54118 0.13073 0.8906 0.0
H1557 H 0.52803 0.10341 0.91678 0.0
H1558 H 0.54831 0.12544 0.85378 0.0
H1559 H 0.59459 0.17293 0.90614 0.0
H1560 H 0.62132 0.18387 0.93394 0.0
H1561 H 0.67488 0.18537 0.89889 0.0
H1562 H 0.64834 0.17403 0.87091 0.0
H1563 H 0.59151 0.22274 0.79248 0.0
H1564 H 0.57816 0.19961 0.82125 0.0
H1565 H 0.63352 0.18329 0.8164 0.0
H1566 H 0.64694 0.20621 0.78768 0.0
H1567 H 0.62811 0.19469 0.85349 0.0
H1568 H 0.58059 0.14475 0.80171 0.0
H1569 H 0.55382 0.13399 0.77395 0.0
H1570 H 0.5024 0.13769 0.80837 0.0
H1571 H 0.52906 0.14886 0.83629 0.0
C1572 C 0.5782 0.10298 0.90622 0.0
C1573 C 0.55729 0.09711 0.91563 0.0
C1574 C 0.58572 0.11867 0.89132 0.0
C1575 C 0.57258 0.12896 0.88556 0.0
C1576 C 0.55159 0.123 0.89479 0.0
C1577 C 0.54406 0.10731 0.90971 0.0
C1578 C 0.5806 0.14564 0.8697 0.0
C1579 C 0.56561 0.1408 0.85387 0.0
C1580 C 0.60331 0.1655 0.86966 0.0
C1581 C 0.61939 0.17242 0.88645 0.0
C1582 C 0.612 0.17541 0.90438 0.0
C1583 C 0.62713 0.18172 0.92017 0.0
C1584 C 0.64977 0.18528 0.91819 0.0
C1585 C 0.65734 0.18258 0.9004 0.0
C1586 C 0.64226 0.17623 0.88457 0.0
C1587 C 0.60098 0.2144 0.79761 0.0
C1588 C 0.62024 0.21627 0.78769 0.0
C1589 C 0.59327 0.20113 0.81402 0.0
C1590 C 0.60476 0.18961 0.82088 0.0
C1591 C 0.62441 0.19204 0.81136 0.0
C1592 C 0.63198 0.20508 0.79488 0.0
C1593 C 0.5959 0.17434 0.83757 0.0
C1594 C 0.61074 0.17944 0.85352 0.0
C1595 C 0.57303 0.15477 0.83776 0.0
C1596 C 0.55693 0.1479 0.82103 0.0
C1597 C 0.56366 0.14347 0.80332 0.0
C1598 C 0.54849 0.13726 0.78757 0.0
C1599 C 0.52644 0.13522 0.78939 0.0
C1600 C 0.5195 0.13932 0.80698 0.0
C1601 C 0.53463 0.14559 0.82277 0.0
H1602 H 0.51472 0.13041 0.77718 0.0
H1603 H 0.66145 0.19017 0.93043 0.0
H1604 H 0.50941 0.57454 0.05945 0.0
H1605 H 0.49238 0.58502 0.03299 0.0
H1606 H 0.45194 0.60027 0.07228 0.0
H1607 H 0.46871 0.58954 0.09874 0.0
H1608 H 0.42496 0.57375 0.045 0.0
H1609 H 0.49861 0.64367 0.04779 0.0
H1610 H 0.54169 0.66803 0.0488 0.0
H1611 H 0.54537 0.64127 0.99405 0.0
H1612 H 0.50232 0.61648 0.99283 0.0
H1613 H 0.38048 0.61642 0.97066 0.0
H1614 H 0.39589 0.60826 0.99927 0.0
H1615 H 0.44671 0.60136 0.96589 0.0
H1616 H 0.43308 0.61259 0.93768 0.0
H1617 H 0.46839 0.62653 0.99278 0.0
H1618 H 0.39601 0.54181 0.00723 0.0
H1619 H 0.35458 0.51486 0.01476 0.0
H1620 H 0.34917 0.57119 0.03951 0.0
H1621 H 0.39093 0.5981 0.03312 0.0
C1622 C 0.49717 0.58049 0.06245 0.0
C1623 C 0.49029 0.58108 0.08116 0.0
C1624 C 0.48749 0.58655 0.04732 0.0
C1625 C 0.47098 0.59362 0.05062 0.0
C1626 C 0.46458 0.59481 0.06936 0.0
C1627 C 0.47411 0.5886 0.08446 0.0
C1628 C 0.45899 0.59796 0.0345 0.0
C1629 C 0.43447 0.58548 0.03362 0.0
C1630 C 0.47132 0.61313 0.01964 0.0
C1631 C 0.49723 0.62806 0.0203 0.0
C1632 C 0.50861 0.64283 0.03603 0.0
C1633 C 0.53303 0.65675 0.03663 0.0
C1634 C 0.54626 0.65616 0.02152 0.0
C1635 C 0.5351 0.64169 0.00575 0.0
C1636 C 0.51068 0.62772 0.00509 0.0
C1637 C 0.39463 0.61265 0.96947 0.0
C1638 C 0.40546 0.61484 0.952 0.0
C1639 C 0.40323 0.60751 0.98588 0.0
C1640 C 0.42226 0.6035 0.98505 0.0
C1641 C 0.43213 0.60444 0.96719 0.0
C1642 C 0.42426 0.61069 0.95098 0.0
C1643 C 0.43403 0.60141 0.00265 0.0
C1644 C 0.45873 0.61459 0.00397 0.0
C1645 C 0.42185 0.58701 0.01809 0.0
C1646 C 0.39614 0.57216 0.01874 0.0
C1647 C 0.38578 0.5485 0.01386 0.0
C1648 C 0.36242 0.53314 0.01834 0.0
C1649 C 0.34917 0.54136 0.0274 0.0
C1650 C 0.35935 0.56489 0.03226 0.0
C1651 C 0.38289 0.58016 0.02833 0.0
H1652 H 0.33104 0.52947 0.03071 0.0
H1653 H 0.56517 0.66695 0.022 0.0
H1654 H 0.92428 0.52591 0.24296 0.0
H1655 H 0.89876 0.50896 0.21489 0.0
H1656 H 0.898 0.4445 0.22345 0.0
H1657 H 0.92279 0.46093 0.25182 0.0
H1658 H 0.91035 0.46167 0.18699 0.0
H1659 H 0.85042 0.4464 0.23218 0.0
H1660 H 0.83117 0.45687 0.25705 0.0
H1661 H 0.82401 0.50293 0.21886 0.0
H1662 H 0.84351 0.49296 0.19382 0.0
H1663 H 0.79206 0.3888 0.13409 0.0
H1664 H 0.82023 0.4045 0.1608 0.0
H1665 H 0.86246 0.46676 0.12948 0.0
H1666 H 0.83576 0.45 0.10208 0.0
H1667 H 0.83127 0.45166 0.17653 0.0
H1668 H 0.8981 0.47028 0.13295 0.0
H1669 H 0.92194 0.46212 0.11102 0.0
H1670 H 0.92045 0.41153 0.14919 0.0
H1671 H 0.89509 0.41824 0.17071 0.0
C1672 C 0.91831 0.50797 0.23913 0.0
C1673 C 0.9258 0.49486 0.2496 0.0
C1674 C 0.90379 0.49835 0.22303 0.0
C1675 C 0.89656 0.47551 0.21709 0.0
C1676 C 0.90353 0.46222 0.22774 0.0
C1677 C 0.91784 0.47172 0.24389 0.0
C1678 C 0.88289 0.46578 0.19918 0.0
C1679 C 0.89298 0.45933 0.1847 0.0
C1680 C 0.86046 0.46318 0.19618 0.0
C1681 C 0.84865 0.46912 0.21119 0.0
C1682 C 0.84493 0.45892 0.22913 0.0
C1683 C 0.83393 0.46473 0.24325 0.0
C1684 C 0.82644 0.48061 0.23956 0.0
C1685 C 0.82986 0.49066 0.22171 0.0
C1686 C 0.84086 0.48492 0.20754 0.0
C1687 C 0.80814 0.40518 0.13252 0.0
C1688 C 0.81246 0.41756 0.11563 0.0
C1689 C 0.82411 0.41427 0.14783 0.0
C1690 C 0.84425 0.43633 0.14681 0.0
C1691 C 0.8481 0.44908 0.13018 0.0
C1692 C 0.83254 0.43966 0.11465 0.0
C1693 C 0.8587 0.44739 0.16421 0.0
C1694 C 0.84868 0.45406 0.17872 0.0
C1695 C 0.88132 0.45027 0.16722 0.0
C1696 C 0.89356 0.44389 0.15295 0.0
C1697 C 0.90169 0.45651 0.13618 0.0
C1698 C 0.91579 0.45237 0.12393 0.0
C1699 C 0.92249 0.43612 0.12859 0.0
C1700 C 0.91509 0.42397 0.1455 0.0
C1701 C 0.90055 0.42769 0.15758 0.0
H1702 H 0.93359 0.43311 0.11917 0.0
H1703 H 0.81793 0.48509 0.2505 0.0
loop_
_geom_bond_atom_site_label_1
_geom_bond_atom_site_label_2
_geom_bond_distance
_geom_bond_site_symmetry_2
_ccdc_geom_bond_type
H0 C19 0.949 . S
H1 C20 0.950 . S
H2 C22 0.950 . S
H3 C23 0.950 . S
H4 C25 0.950 . S
H5 C28 0.950 . S
H6 C29 0.950 . S
H7 C31 0.951 . S
H8 C32 0.949 . S
H9 C34 0.949 . S
H10 C35 0.950 . S
H11 C37 0.950 . S
H12 C38 0.950 . S
H13 C40 0.950 . S
H14 C43 0.950 . S
H15 C44 0.950 . S
H16 C46 0.951 . S
H17 C47 0.949 . S
C18 C19 1.376 . S
C18 C23 1.386 . S
C18 C24 1.483 . S
C19 H0 0.949 . S
C19 C18 1.376 . S
C19 C20 1.397 . S
C20 H1 0.950 . S
C20 C19 1.397 . S
C20 C21 1.391 . S
C21 C20 1.391 . S
C21 C22 1.405 . S
C22 H2 0.950 . S
C22 C21 1.405 . S
C22 C23 1.367 . S
C23 H3 0.950 . S
C23 C18 1.386 . S
C23 C22 1.367 . S
C24 C18 1.483 . S
C24 C25 1.382 1_655 S
C24 C26 1.403 . S
C25 H4 0.950 . S
C25 C24 1.382 1_455 S
C25 C41 1.411 . S
C26 C24 1.403 . S
C26 C27 1.489 . S
C26 C40 1.411 . S
C27 C26 1.489 . S
C27 C28 1.383 . S
C27 C32 1.382 . S
C28 H5 0.950 . S
C28 C27 1.383 . S
C28 C29 1.395 . S
C29 H6 0.950 . S
C29 C28 1.395 . S
C29 C30 1.288 . S
C30 C29 1.288 . S
C30 C31 1.392 . S
C31 H7 0.951 . S
C31 C30 1.392 . S
C31 C32 1.392 . S
C32 H8 0.949 . S
C32 C27 1.382 . S
C32 C31 1.392 . S
C33 C34 1.376 . S
C33 C38 1.386 . S
C33 C39 1.483 . S
C34 H9 0.949 . S
C34 C33 1.376 . S
C34 C35 1.397 . S
C35 H10 0.950 . S
C35 C34 1.397 . S
C35 C36 1.391 . S
C36 C35 1.391 . S
C36 C37 1.405 . S
C37 H11 0.950 . S
C37 C36 1.405 . S
C37 C38 1.367 . S
C38 H12 0.950 . S
C38 C33 1.386 . S
C38 C37 1.367 . S
C39 C33 1.483 . S
C39 C40 1.382 1_455 S
C39 C41 1.403 . S
C40 H13 0.950 . S
C40 C26 1.411 . S
C40 C39 1.382 1_655 S
C41 C25 1.411 . S
C41 C39 1.403 . S
C41 C42 1.489 . S
C42 C41 1.489 . S
C42 C43 1.383 . S
C42 C47 1.382 . S
C43 H14 0.950 . S
C43 C42 1.383 . S
C43 C44 1.395 . S
C44 H15 0.950 . S
C44 C43 1.395 . S
C44 C45 1.288 . S
C45 C44 1.288 . S
C45 C46 1.392 . S
C46 H16 0.951 . S
C46 C45 1.392 . S
C46 C47 1.392 . S
C47 H17 0.949 . S
C47 C42 1.382 . S
C47 C46 1.392 . S
H48 C67 0.949 . S
H49 C68 0.950 . S
H50 C70 0.950 . S
H51 C71 0.950 . S
H52 C73 0.950 . S
H53 C76 0.950 . S
H54 C77 0.950 . S
H55 C79 0.951 . S
H56 C80 0.949 . S
H57 C82 0.949 . S
H58 C83 0.950 . S
H59 C85 0.950 . S
H60 C86 0.950 . S
H61 C88 0.950 . S
H62 C91 0.950 . S
H63 C92 0.950 . S
H64 C94 0.951 . S
H65 C95 0.949 . S
C66 C67 1.376 . S
C66 C71 1.386 . S
C66 C72 1.483 . S
C67 H48 0.949 . S
C67 C66 1.376 . S
C67 C68 1.397 . S
C68 H49 0.950 . S
C68 C67 1.397 . S
C68 C69 1.391 . S
C69 C68 1.391 . S
C69 C70 1.405 . S
C70 H50 0.950 . S
C70 C69 1.405 . S
C70 C71 1.367 . S
C71 H51 0.950 . S
C71 C66 1.386 . S
C71 C70 1.367 . S
C72 C66 1.483 . S
C72 C73 1.382 1_565 S
C72 C74 1.400 1_565 S
C73 H52 0.950 . S
C73 C72 1.382 1_545 S
C73 C89 1.411 . S
C74 C72 1.400 1_545 S
C74 C75 1.483 1_545 S
C74 C88 1.420 . S
C75 C74 1.483 1_565 S
C75 C76 1.383 . S
C75 C80 1.382 . S
C76 H53 0.950 . S
C76 C75 1.383 . S
C76 C77 1.395 . S
C77 H54 0.950 . S
C77 C76 1.395 . S
C77 C78 1.288 . S
C78 C77 1.288 . S
C78 C79 1.392 . S
C79 H55 0.951 . S
C79 C78 1.392 . S
C79 C80 1.392 . S
C80 H56 0.949 . S
C80 C75 1.382 . S
C80 C79 1.392 . S
C81 C82 1.376 . S
C81 C86 1.386 . S
C81 C87 1.483 . S
C82 H57 0.949 . S
C82 C81 1.376 . S
C82 C83 1.397 . S
C83 H58 0.950 . S
C83 C82 1.397 . S
C83 C84 1.391 . S
C84 C83 1.391 . S
C84 C85 1.405 . S
C85 H59 0.950 . S
C85 C84 1.405 . S
C85 C86 1.367 . S
C86 H60 0.950 . S
C86 C81 1.386 . S
C86 C85 1.367 . S
C87 C81 1.483 . S
C87 C88 1.382 . S
C87 C89 1.403 . S
C88 H61 0.950 . S
C88 C74 1.420 . S
C88 C87 1.382 . S
C89 C73 1.411 . S
C89 C87 1.403 . S
C89 C90 1.489 . S
C90 C89 1.489 . S
C90 C91 1.383 . S
C90 C95 1.382 . S
C91 H62 0.950 . S
C91 C90 1.383 . S
C91 C92 1.395 . S
C92 H63 0.950 . S
C92 C91 1.395 . S
C92 C93 1.288 . S
C93 C92 1.288 . S
C93 C94 1.392 . S
C94 H64 0.951 . S
C94 C93 1.392 . S
C94 C95 1.392 . S
C95 H65 0.949 . S
C95 C90 1.382 . S
C95 C94 1.392 . S
H96 C115 0.949 . S
H97 C116 0.950 . S
H98 C118 0.950 . S
H99 C119 0.950 . S
H100 C121 0.950 . S
H101 C124 0.950 . S
H102 C125 0.950 . S
H103 C127 0.951 . S
H104 C128 0.949 . S
H105 C130 0.949 . S
H106 C131 0.950 . S
H107 C133 0.950 . S
H108 C134 0.950 . S
H109 C136 0.950 . S
H110 C139 0.950 . S
H111 C140 0.950 . S
H112 C142 0.951 . S
H113 C143 0.949 . S
C114 C115 1.376 . S
C114 C119 1.386 . S
C114 C120 1.483 . S
C115 H96 0.949 . S
C115 C114 1.376 . S
C115 C116 1.397 . S
C116 H97 0.950 . S
C116 C115 1.397 . S
C116 C117 1.391 . S
C117 C116 1.391 . S
C117 C118 1.405 . S
C118 H98 0.950 . S
C118 C117 1.405 . S
C118 C119 1.367 . S
C119 H99 0.950 . S
C119 C114 1.386 . S
C119 C118 1.367 . S
C120 C114 1.483 . S
C120 C121 1.382 . S
C120 C122 1.403 . S
C121 H100 0.950 . S
C121 C120 1.382 . S
C121 C137 1.411 . S
C122 C120 1.403 . S
C122 C123 1.489 . S
C122 C136 1.411 . S
C123 C122 1.489 . S
C123 C124 1.383 . S
C123 C128 1.382 . S
C124 H101 0.950 . S
C124 C123 1.383 . S
C124 C125 1.395 . S
C125 H102 0.950 . S
C125 C124 1.395 . S
C125 C126 1.288 . S
C126 C125 1.288 . S
C126 C127 1.392 . S
C127 H103 0.951 . S
C127 C126 1.392 . S
C127 C128 1.392 . S
C128 H104 0.949 . S
C128 C123 1.382 . S
C128 C127 1.392 . S
C129 C130 1.376 . S
C129 C134 1.386 . S
C129 C135 1.483 . S
C130 H105 0.949 . S
C130 C129 1.376 . S
C130 C131 1.397 . S
C131 H106 0.950 . S
C131 C130 1.397 . S
C131 C132 1.391 . S
C132 C131 1.391 . S
C132 C133 1.405 . S
C133 H107 0.950 . S
C133 C132 1.405 . S
C133 C134 1.367 . S
C134 H108 0.950 . S
C134 C129 1.386 . S
C134 C133 1.367 . S
C135 C129 1.483 . S
C135 C136 1.382 . S
C135 C137 1.403 . S
C136 H109 0.950 . S
C136 C122 1.411 . S
C136 C135 1.382 . S
C137 C121 1.411 . S
C137 C135 1.403 . S
C137 C138 1.489 . S
C138 C137 1.489 . S
C138 C139 1.383 . S
C138 C143 1.382 . S
C139 H110 0.950 . S
C139 C138 1.383 . S
C139 C140 1.395 . S
C140 H111 0.950 . S
C140 C139 1.395 . S
C140 C141 1.288 . S
C141 C140 1.288 . S
C141 C142 1.392 . S
C142 H112 0.951 . S
C142 C141 1.392 . S
C142 C143 1.392 . S
C143 H113 0.949 . S
C143 C138 1.382 . S
C143 C142 1.392 . S
H144 C163 0.949 . S
H145 C164 0.950 . S
H146 C166 0.950 . S
H147 C167 0.950 . S
H148 C169 0.950 . S
H149 C172 0.950 . S
H150 C173 0.950 . S
H151 C175 0.951 . S
H152 C176 0.949 . S
H153 C178 0.949 . S
H154 C179 0.950 . S
H155 C181 0.950 . S
H156 C182 0.950 . S
H157 C184 0.950 . S
H158 C187 0.950 . S
H159 C188 0.950 . S
H160 C190 0.951 . S
H161 C191 0.949 . S
C162 C163 1.376 . S
C162 C167 1.386 . S
C162 C168 1.483 . S
C163 H144 0.949 . S
C163 C162 1.376 . S
C163 C164 1.397 . S
C164 H145 0.950 . S
C164 C163 1.397 . S
C164 C165 1.391 . S
C165 C164 1.391 . S
C165 C166 1.405 . S
C166 H146 0.950 . S
C166 C165 1.405 . S
C166 C167 1.367 . S
C167 H147 0.950 . S
C167 C162 1.386 . S
C167 C166 1.367 . S
C168 C162 1.483 . S
C168 C169 1.382 1_455 S
C168 C170 1.403 . S
C169 H148 0.950 . S
C169 C168 1.382 1_655 S
C169 C185 1.411 . S
C170 C168 1.403 . S
C170 C171 1.489 . S
C170 C184 1.411 . S
C171 C170 1.489 . S
C171 C172 1.383 . S
C171 C176 1.382 . S
C172 H149 0.950 . S
C172 C171 1.383 . S
C172 C173 1.395 . S
C173 H150 0.950 . S
C173 C172 1.395 . S
C173 C174 1.288 . S
C174 C173 1.288 . S
C174 C175 1.392 . S
C175 H151 0.951 . S
C175 C174 1.392 . S
C175 C176 1.392 . S
C176 H152 0.949 . S
C176 C171 1.382 . S
C176 C175 1.392 . S
C177 C178 1.376 . S
C177 C182 1.386 . S
C177 C183 1.483 . S
C178 H153 0.949 . S
C178 C177 1.376 . S
C178 C179 1.397 . S
C179 H154 0.950 . S
C179 C178 1.397 . S
C179 C180 1.391 . S
C180 C179 1.391 . S
C180 C181 1.405 . S
C181 H155 0.950 . S
C181 C180 1.405 . S
C181 C182 1.367 . S
C182 H156 0.950 . S
C182 C177 1.386 . S
C182 C181 1.367 . S
C183 C177 1.483 . S
C183 C184 1.382 1_655 S
C183 C185 1.403 . S
C184 H157 0.950 . S
C184 C170 1.411 . S
C184 C183 1.382 1_455 S
C185 C169 1.411 . S
C185 C183 1.403 . S
C185 C186 1.489 . S
C186 C185 1.489 . S
C186 C187 1.383 . S
C186 C191 1.382 . S
C187 H158 0.950 . S
C187 C186 1.383 . S
C187 C188 1.395 . S
C188 H159 0.950 . S
C188 C187 1.395 . S
C188 C189 1.288 . S
C189 C188 1.288 . S
C189 C190 1.392 . S
C190 H160 0.951 . S
C190 C189 1.392 . S
C190 C191 1.392 . S
C191 H161 0.949 . S
C191 C186 1.382 . S
C191 C190 1.392 . S
H192 C211 0.949 . S
H193 C212 0.950 . S
H194 C214 0.950 . S
H195 C215 0.950 . S
H196 C217 0.950 . S
H197 C220 0.950 . S
H198 C221 0.950 . S
H199 C223 0.951 . S
H200 C224 0.949 . S
H201 C226 0.949 . S
H202 C227 0.950 . S
H203 C229 0.950 . S
H204 C230 0.950 . S
H205 C232 0.950 . S
H206 C235 0.950 . S
H207 C236 0.950 . S
H208 C238 0.951 . S
H209 C239 0.949 1_545 S
C210 C211 1.376 . S
C210 C215 1.386 1_554 S
C210 C216 1.483 1_554 S
C211 H192 0.949 . S
C211 C210 1.376 . S
C211 C212 1.397 . S
C212 H193 0.950 . S
C212 C211 1.397 . S
C212 C213 1.391 . S
C213 C212 1.391 . S
C213 C214 1.405 . S
C214 H194 0.950 . S
C214 C213 1.405 . S
C214 C215 1.367 1_554 S
C215 H195 0.950 . S
C215 C210 1.386 1_556 S
C215 C214 1.367 1_556 S
C216 C210 1.483 1_556 S
C216 C217 1.382 1_556 S
C216 C218 1.403 . S
C217 H196 0.950 . S
C217 C216 1.382 1_554 S
C217 C233 1.411 . S
C218 C216 1.403 . S
C218 C219 1.489 . S
C218 C232 1.411 . S
C219 C218 1.489 . S
C219 C220 1.383 . S
C219 C224 1.382 . S
C220 H197 0.950 . S
C220 C219 1.383 . S
C220 C221 1.395 . S
C221 H198 0.950 . S
C221 C220 1.395 . S
C221 C222 1.288 . S
C222 C221 1.288 . S
C222 C223 1.392 . S
C223 H199 0.951 . S
C223 C222 1.392 . S
C223 C224 1.392 . S
C224 H200 0.949 . S
C224 C219 1.382 . S
C224 C223 1.392 . S
C225 C226 1.376 . S
C225 C230 1.386 . S
C225 C231 1.483 . S
C226 H201 0.949 . S
C226 C225 1.376 . S
C226 C227 1.397 . S
C227 H202 0.950 . S
C227 C226 1.397 . S
C227 C228 1.391 . S
C228 C227 1.391 . S
C228 C229 1.405 . S
C229 H203 0.950 . S
C229 C228 1.405 . S
C229 C230 1.367 . S
C230 H204 0.950 . S
C230 C225 1.386 . S
C230 C229 1.367 . S
C231 C225 1.483 . S
C231 C232 1.382 1_565 S
C231 C233 1.403 1_566 S
C232 H205 0.950 . S
C232 C218 1.411 . S
C232 C231 1.382 1_545 S
C233 C217 1.411 . S
C233 C231 1.403 1_544 S
C233 C234 1.489 1_545 S
C234 C233 1.489 1_565 S
C234 C235 1.383 . S
C234 C239 1.382 . S
C235 H206 0.950 . S
C235 C234 1.383 . S
C235 C236 1.395 . S
C236 H207 0.950 . S
C236 C235 1.395 . S
C236 C237 1.288 . S
C237 C236 1.288 . S
C237 C238 1.392 . S
C238 H208 0.951 . S
C238 C237 1.392 . S
C238 C239 1.392 . S
C239 H209 0.949 1_565 S
C239 C234 1.382 . S
C239 C238 1.392 . S
H240 C259 0.949 . S
H241 C260 0.950 . S
H242 C262 0.950 . S
H243 C263 0.950 . S
H244 C265 0.950 . S
H245 C268 0.950 . S
H246 C269 0.950 . S
H247 C271 0.951 . S
H248 C272 0.949 . S
H249 C274 0.949 . S
H250 C275 0.950 . S
H251 C277 0.950 . S
H252 C278 0.950 . S
H253 C280 0.950 . S
H254 C283 0.950 . S
H255 C284 0.950 . S
H256 C286 0.951 . S
H257 C287 0.949 . S
C258 C259 1.376 . S
C258 C263 1.386 . S
C258 C264 1.483 . S
C259 H240 0.949 . S
C259 C258 1.376 . S
C259 C260 1.397 . S
C260 H241 0.950 . S
C260 C259 1.397 . S
C260 C261 1.391 . S
C261 C260 1.391 . S
C261 C262 1.405 . S
C262 H242 0.950 . S
C262 C261 1.405 . S
C262 C263 1.367 . S
C263 H243 0.950 . S
C263 C258 1.386 . S
C263 C262 1.367 . S
C264 C258 1.483 . S
C264 C265 1.382 . S
C264 C266 1.403 . S
C265 H244 0.950 . S
C265 C264 1.382 . S
C265 C281 1.411 . S
C266 C264 1.403 . S
C266 C267 1.489 . S
C266 C280 1.411 . S
C267 C266 1.489 . S
C267 C268 1.383 . S
C267 C272 1.382 . S
C268 H245 0.950 . S
C268 C267 1.383 . S
C268 C269 1.395 . S
C269 H246 0.950 . S
C269 C268 1.395 . S
C269 C270 1.288 . S
C270 C269 1.288 . S
C270 C271 1.392 . S
C271 H247 0.951 . S
C271 C270 1.392 . S
C271 C272 1.392 . S
C272 H248 0.949 . S
C272 C267 1.382 . S
C272 C271 1.392 . S
C273 C274 1.376 . S
C273 C278 1.386 . S
C273 C279 1.483 . S
C274 H249 0.949 . S
C274 C273 1.376 . S
C274 C275 1.397 . S
C275 H250 0.950 . S
C275 C274 1.397 . S
C275 C276 1.391 . S
C276 C275 1.391 . S
C276 C277 1.405 . S
C277 H251 0.950 . S
C277 C276 1.405 . S
C277 C278 1.367 . S
C278 H252 0.950 . S
C278 C273 1.386 . S
C278 C277 1.367 . S
C279 C273 1.483 . S
C279 C280 1.382 . S
C279 C281 1.403 . S
C280 H253 0.950 . S
C280 C266 1.411 . S
C280 C279 1.382 . S
C281 C265 1.411 . S
C281 C279 1.403 . S
C281 C282 1.489 . S
C282 C281 1.489 . S
C282 C283 1.383 . S
C282 C287 1.382 . S
C283 H254 0.950 . S
C283 C282 1.383 . S
C283 C284 1.395 . S
C284 H255 0.950 . S
C284 C283 1.395 . S
C284 C285 1.288 . S
C285 C284 1.288 . S
C285 C286 1.392 . S
C286 H256 0.951 . S
C286 C285 1.392 . S
C286 C287 1.392 . S
C287 H257 0.949 . S
C287 C282 1.382 . S
C287 C286 1.392 . S
Mn288 O293 2.095 . S
Mn288 O303 2.162 . S
Mn288 O304 2.297 . S
Mn288 O312 2.385 . S
Mn288 O313 2.209 . S
Mn288 O314 2.094 . S
Mn289 O294 2.121 . S
Mn289 N296 2.257 . S
Mn289 N305 2.282 . S
Mn289 O313 2.215 . S
Mn289 O315 2.117 . S
C290 O312 1.234 . S
C290 O313 1.283 . S
C291 O303 1.281 . S
C291 O304 1.236 . S
C292 O314 1.240 . S
C292 O315 1.264 . S
O293 Mn288 2.095 . S
O293 C302 1.250 . S
O294 Mn289 2.121 . S
O294 C302 1.258 . S
C295 N296 1.326 . S
C295 C299 1.460 . S
C295 H301 0.929 . S
N296 Mn289 2.257 . S
N296 C295 1.326 . S
N296 C300 1.362 . S
C297 C298 1.258 . S
C297 C300 1.431 . S
C297 C317 1.449 . S
C298 C297 1.258 . S
C298 C299 1.477 . S
C298 H318 0.931 . S
C299 C295 1.460 . S
C299 C298 1.477 . S
C299 H319 0.930 . S
C300 N296 1.362 . S
C300 C297 1.431 . S
C300 C310 1.476 . S
H301 C295 0.929 . S
C302 O293 1.250 . S
C302 O294 1.258 . S
O303 Mn288 2.162 . S
O303 C291 1.281 . S
O304 Mn288 2.297 . S
O304 C291 1.236 . S
N305 Mn289 2.282 . S
N305 C306 1.328 . S
N305 C310 1.318 . S
C306 N305 1.328 . S
C306 C307 1.457 . S
C306 H311 0.929 . S
C307 C306 1.457 . S
C307 C308 1.291 . S
C307 H320 0.931 . S
C308 C307 1.291 . S
C308 C309 1.373 . S
C308 H321 0.929 . S
C309 C308 1.373 . S
C309 C310 1.396 . S
C309 C316 1.403 . S
C310 C300 1.476 . S
C310 N305 1.318 . S
C310 C309 1.396 . S
H311 C306 0.929 . S
O312 Mn288 2.385 . S
O312 C290 1.234 . S
O313 Mn288 2.209 . S
O313 Mn289 2.215 . S
O313 C290 1.283 . S
O314 Mn288 2.094 . S
O314 C292 1.240 . S
O315 Mn289 2.117 . S
O315 C292 1.264 . S
C316 C309 1.403 . S
C316 C317 1.399 . S
C316 H322 0.929 . S
C317 C297 1.449 . S
C317 C316 1.399 . S
C317 H323 0.930 . S
H318 C298 0.931 . S
H319 C299 0.930 . S
H320 C307 0.931 . S
H321 C308 0.929 . S
H322 C316 0.929 . S
H323 C317 0.930 . S
Mn324 O329 2.095 . S
Mn324 O339 2.162 . S
Mn324 O340 2.297 . S
Mn324 O348 2.385 . S
Mn324 O349 2.209 . S
Mn324 O350 2.094 . S
Mn325 O330 2.121 . S
Mn325 N332 2.257 . S
Mn325 N341 2.282 . S
Mn325 O349 2.215 . S
Mn325 O351 2.117 . S
C326 O348 1.234 . S
C326 O349 1.283 . S
C327 O339 1.281 . S
C327 O340 1.236 . S
C328 O350 1.240 . S
C328 O351 1.264 . S
O329 Mn324 2.095 . S
O329 C338 1.250 . S
O330 Mn325 2.121 . S
O330 C338 1.258 . S
C331 N332 1.326 . S
C331 C335 1.460 . S
C331 H337 0.929 . S
N332 Mn325 2.257 . S
N332 C331 1.326 . S
N332 C336 1.362 . S
C333 C334 1.258 . S
C333 C336 1.431 . S
C333 C353 1.449 . S
C334 C333 1.258 . S
C334 C335 1.477 . S
C334 H354 0.931 . S
C335 C331 1.460 . S
C335 C334 1.477 . S
C335 H355 0.930 . S
C336 N332 1.362 . S
C336 C333 1.431 . S
C336 C346 1.476 . S
H337 C331 0.929 . S
C338 O329 1.250 . S
C338 O330 1.258 . S
O339 Mn324 2.162 . S
O339 C327 1.281 . S
O340 Mn324 2.297 . S
O340 C327 1.236 . S
N341 Mn325 2.282 . S
N341 C342 1.328 . S
N341 C346 1.318 . S
C342 N341 1.328 . S
C342 C343 1.457 . S
C342 H347 0.929 . S
C343 C342 1.457 . S
C343 C344 1.291 . S
C343 H356 0.931 . S
C344 C343 1.291 . S
C344 C345 1.373 . S
C344 H357 0.929 . S
C345 C344 1.373 . S
C345 C346 1.396 . S
C345 C352 1.403 . S
C346 C336 1.476 . S
C346 N341 1.318 . S
C346 C345 1.396 . S
H347 C342 0.929 . S
O348 Mn324 2.385 . S
O348 C326 1.234 . S
O349 Mn324 2.209 . S
O349 Mn325 2.215 . S
O349 C326 1.283 . S
O350 Mn324 2.094 . S
O350 C328 1.240 . S
O351 Mn325 2.117 . S
O351 C328 1.264 . S
C352 C345 1.403 . S
C352 C353 1.399 . S
C352 H358 0.929 . S
C353 C333 1.449 . S
C353 C352 1.399 . S
C353 H359 0.930 . S
H354 C334 0.931 . S
H355 C335 0.930 . S
H356 C343 0.931 . S
H357 C344 0.929 . S
H358 C352 0.929 . S
H359 C353 0.930 . S
Mn360 O365 2.095 . S
Mn360 O375 2.162 . S
Mn360 O376 2.297 . S
Mn360 O384 2.385 . S
Mn360 O385 2.209 . S
Mn360 O386 2.094 . S
Mn361 O366 2.121 . S
Mn361 N368 2.257 . S
Mn361 N377 2.282 . S
Mn361 O385 2.215 . S
Mn361 O387 2.117 . S
C362 O384 1.234 . S
C362 O385 1.283 . S
C363 O375 1.281 . S
C363 O376 1.236 . S
C364 O386 1.240 . S
C364 O387 1.264 . S
O365 Mn360 2.095 . S
O365 C374 1.250 . S
O366 Mn361 2.121 . S
O366 C374 1.258 . S
C367 N368 1.326 . S
C367 C371 1.460 . S
C367 H373 0.929 . S
N368 Mn361 2.257 . S
N368 C367 1.326 . S
N368 C372 1.362 . S
C369 C370 1.258 . S
C369 C372 1.431 . S
C369 C389 1.449 . S
C370 C369 1.258 . S
C370 C371 1.477 . S
C370 H390 0.931 . S
C371 C367 1.460 . S
C371 C370 1.477 . S
C371 H391 0.930 . S
C372 N368 1.362 . S
C372 C369 1.431 . S
C372 C382 1.476 . S
H373 C367 0.929 . S
C374 O365 1.250 . S
C374 O366 1.258 . S
O375 Mn360 2.162 . S
O375 C363 1.281 . S
O376 Mn360 2.297 . S
O376 C363 1.236 . S
N377 Mn361 2.282 . S
N377 C378 1.328 . S
N377 C382 1.318 . S
C378 N377 1.328 . S
C378 C379 1.457 . S
C378 H383 0.929 . S
C379 C378 1.457 . S
C379 C380 1.291 . S
C379 H392 0.931 . S
C380 C379 1.291 . S
C380 C381 1.373 . S
C380 H393 0.929 . S
C381 C380 1.373 . S
C381 C382 1.396 . S
C381 C388 1.403 . S
C382 C372 1.476 . S
C382 N377 1.318 . S
C382 C381 1.396 . S
H383 C378 0.929 . S
O384 Mn360 2.385 . S
O384 C362 1.234 . S
O385 Mn360 2.209 . S
O385 Mn361 2.215 . S
O385 C362 1.283 . S
O386 Mn360 2.094 . S
O386 C364 1.240 . S
O387 Mn361 2.117 . S
O387 C364 1.264 . S
C388 C381 1.403 . S
C388 C389 1.399 . S
C388 H394 0.929 . S
C389 C369 1.449 . S
C389 C388 1.399 . S
C389 H395 0.930 . S
H390 C370 0.931 . S
H391 C371 0.930 . S
H392 C379 0.931 . S
H393 C380 0.929 . S
H394 C388 0.929 . S
H395 C389 0.930 . S
Mn396 O401 2.095 . S
Mn396 O411 2.162 . S
Mn396 O412 2.297 . S
Mn396 O420 2.385 . S
Mn396 O421 2.209 . S
Mn396 O422 2.094 . S
Mn397 O402 2.121 . S
Mn397 N404 2.257 . S
Mn397 N413 2.282 . S
Mn397 O421 2.215 . S
Mn397 O423 2.117 . S
C398 O420 1.234 . S
C398 O421 1.283 . S
C399 O411 1.281 . S
C399 O412 1.236 . S
C400 O422 1.240 . S
C400 O423 1.264 . S
O401 Mn396 2.095 . S
O401 C410 1.250 . S
O402 Mn397 2.121 . S
O402 C410 1.258 . S
C403 N404 1.326 . S
C403 C407 1.460 . S
C403 H409 0.929 . S
N404 Mn397 2.257 . S
N404 C403 1.326 . S
N404 C408 1.362 . S
C405 C406 1.258 . S
C405 C408 1.431 . S
C405 C425 1.449 . S
C406 C405 1.258 . S
C406 C407 1.477 . S
C406 H426 0.931 . S
C407 C403 1.460 . S
C407 C406 1.477 . S
C407 H427 0.930 . S
C408 N404 1.362 . S
C408 C405 1.431 . S
C408 C418 1.476 . S
H409 C403 0.929 . S
C410 O401 1.250 . S
C410 O402 1.258 . S
O411 Mn396 2.162 . S
O411 C399 1.281 . S
O412 Mn396 2.297 . S
O412 C399 1.236 . S
N413 Mn397 2.282 . S
N413 C414 1.328 . S
N413 C418 1.318 . S
C414 N413 1.328 . S
C414 C415 1.457 . S
C414 H419 0.929 . S
C415 C414 1.457 . S
C415 C416 1.291 . S
C415 H428 0.931 . S
C416 C415 1.291 . S
C416 C417 1.373 . S
C416 H429 0.929 . S
C417 C416 1.373 . S
C417 C418 1.396 . S
C417 C424 1.403 . S
C418 C408 1.476 . S
C418 N413 1.318 . S
C418 C417 1.396 . S
H419 C414 0.929 . S
O420 Mn396 2.385 . S
O420 C398 1.234 . S
O421 Mn396 2.209 . S
O421 Mn397 2.215 . S
O421 C398 1.283 . S
O422 Mn396 2.094 . S
O422 C400 1.240 . S
O423 Mn397 2.117 . S
O423 C400 1.264 . S
C424 C417 1.403 . S
C424 C425 1.399 . S
C424 H430 0.929 . S
C425 C405 1.449 . S
C425 C424 1.399 . S
C425 H431 0.930 . S
H426 C406 0.931 . S
H427 C407 0.930 . S
H428 C415 0.931 . S
H429 C416 0.929 . S
H430 C424 0.929 . S
H431 C425 0.930 . S
Mn432 O437 2.095 . S
Mn432 O447 2.162 . S
Mn432 O448 2.297 . S
Mn432 O456 2.385 . S
Mn432 O457 2.209 . S
Mn432 O458 2.094 . S
Mn433 O438 2.121 . S
Mn433 N440 2.257 . S
Mn433 N449 2.282 . S
Mn433 O457 2.215 . S
Mn433 O459 2.117 . S
C434 O456 1.234 . S
C434 O457 1.283 . S
C435 O447 1.281 . S
C435 O448 1.236 . S
C436 O458 1.240 . S
C436 O459 1.264 . S
O437 Mn432 2.095 . S
O437 C446 1.250 . S
O438 Mn433 2.121 . S
O438 C446 1.258 . S
C439 N440 1.326 . S
C439 C443 1.460 . S
C439 H445 0.929 . S
N440 Mn433 2.257 . S
N440 C439 1.326 . S
N440 C444 1.362 . S
C441 C442 1.258 . S
C441 C444 1.431 . S
C441 C461 1.449 . S
C442 C441 1.258 . S
C442 C443 1.477 . S
C442 H462 0.931 . S
C443 C439 1.460 . S
C443 C442 1.477 . S
C443 H463 0.930 . S
C444 N440 1.362 . S
C444 C441 1.431 . S
C444 C454 1.476 . S
H445 C439 0.929 . S
C446 O437 1.250 . S
C446 O438 1.258 . S
O447 Mn432 2.162 . S
O447 C435 1.281 . S
O448 Mn432 2.297 . S
O448 C435 1.236 . S
N449 Mn433 2.282 . S
N449 C450 1.328 . S
N449 C454 1.318 . S
C450 N449 1.328 . S
C450 C451 1.457 . S
C450 H455 0.929 . S
C451 C450 1.457 . S
C451 C452 1.291 . S
C451 H464 0.931 . S
C452 C451 1.291 . S
C452 C453 1.373 . S
C452 H465 0.929 . S
C453 C452 1.373 . S
C453 C454 1.396 . S
C453 C460 1.403 . S
C454 C444 1.476 . S
C454 N449 1.318 . S
C454 C453 1.396 . S
H455 C450 0.929 . S
O456 Mn432 2.385 . S
O456 C434 1.234 . S
O457 Mn432 2.209 . S
O457 Mn433 2.215 . S
O457 C434 1.283 . S
O458 Mn432 2.094 . S
O458 C436 1.240 . S
O459 Mn433 2.117 . S
O459 C436 1.264 . S
C460 C453 1.403 . S
C460 C461 1.399 . S
C460 H466 0.929 . S
C461 C441 1.449 . S
C461 C460 1.399 . S
C461 H467 0.930 . S
H462 C442 0.931 . S
H463 C443 0.930 . S
H464 C451 0.931 . S
H465 C452 0.929 . S
H466 C460 0.929 . S
H467 C461 0.930 . S
Mn468 O473 2.095 . S
Mn468 O483 2.162 . S
Mn468 O484 2.297 . S
Mn468 O492 2.385 . S
Mn468 O493 2.209 . S
Mn468 O494 2.094 . S
Mn469 O474 2.121 . S
Mn469 N476 2.257 . S
Mn469 N485 2.282 . S
Mn469 O493 2.215 . S
Mn469 O495 2.117 . S
C470 O492 1.234 . S
C470 O493 1.283 . S
C471 O483 1.281 . S
C471 O484 1.236 . S
C472 O494 1.240 . S
C472 O495 1.264 . S
O473 Mn468 2.095 . S
O473 C482 1.250 . S
O474 Mn469 2.121 . S
O474 C482 1.258 . S
C475 N476 1.326 . S
C475 C479 1.460 . S
C475 H481 0.929 . S
N476 Mn469 2.257 . S
N476 C475 1.326 . S
N476 C480 1.362 . S
C477 C478 1.258 . S
C477 C480 1.431 . S
C477 C497 1.449 . S
C478 C477 1.258 . S
C478 C479 1.477 . S
C478 H498 0.931 . S
C479 C475 1.460 . S
C479 C478 1.477 . S
C479 H499 0.930 . S
C480 N476 1.362 . S
C480 C477 1.431 . S
C480 C490 1.476 . S
H481 C475 0.929 . S
C482 O473 1.250 . S
C482 O474 1.258 . S
O483 Mn468 2.162 . S
O483 C471 1.281 . S
O484 Mn468 2.297 . S
O484 C471 1.236 . S
N485 Mn469 2.282 . S
N485 C486 1.328 . S
N485 C490 1.318 . S
C486 N485 1.328 . S
C486 C487 1.457 . S
C486 H491 0.929 . S
C487 C486 1.457 . S
C487 C488 1.291 . S
C487 H500 0.931 . S
C488 C487 1.291 . S
C488 C489 1.373 . S
C488 H501 0.929 . S
C489 C488 1.373 . S
C489 C490 1.396 . S
C489 C496 1.403 . S
C490 C480 1.476 . S
C490 N485 1.318 . S
C490 C489 1.396 . S
H491 C486 0.929 . S
O492 Mn468 2.385 . S
O492 C470 1.234 . S
O493 Mn468 2.209 . S
O493 Mn469 2.215 . S
O493 C470 1.283 . S
O494 Mn468 2.094 . S
O494 C472 1.240 . S
O495 Mn469 2.117 . S
O495 C472 1.264 . S
C496 C489 1.403 . S
C496 C497 1.399 . S
C496 H502 0.929 . S
C497 C477 1.449 . S
C497 C496 1.399 . S
C497 H503 0.930 . S
H498 C478 0.931 . S
H499 C479 0.930 . S
H500 C487 0.931 . S
H501 C488 0.929 . S
H502 C496 0.929 . S
H503 C497 0.930 . S
H504 C522 0.951 . S
H505 C524 0.951 . S
H506 C526 0.950 . S
H507 C527 0.950 . S
H508 C529 0.950 . S
H509 C532 0.950 . S
H510 C533 0.950 . S
H511 C535 0.950 . S
H512 C536 0.950 . S
H513 C537 0.951 . S
H514 C539 0.951 . S
H515 C541 0.950 . S
H516 C542 0.950 . S
H517 C544 0.950 . S
H518 C547 0.950 . S
H519 C548 0.950 . S
H520 C550 0.950 . S
H521 C551 0.950 . S
C522 H504 0.951 . S
C522 C523 1.366 . S
C522 C524 1.388 . S
C523 C522 1.366 . S
C523 C527 1.385 . S
C524 H505 0.951 . S
C524 C522 1.388 . S
C524 C525 1.366 . S
C525 C524 1.366 . S
C525 C526 1.414 . S
C525 C528 1.499 . S
C526 H506 0.950 . S
C526 C525 1.414 . S
C526 C527 1.374 . S
C527 H507 0.950 . S
C527 C523 1.385 . S
C527 C526 1.374 . S
C528 C525 1.499 . S
C528 C529 1.373 . S
C528 C530 1.389 . S
C529 H508 0.950 . S
C529 C528 1.373 . S
C529 C545 1.377 . S
C530 C528 1.389 . S
C530 C531 1.524 . S
C530 C544 1.377 . S
C531 C530 1.524 . S
C531 C532 1.397 . S
C531 C536 1.363 . S
C532 H509 0.950 . S
C532 C531 1.397 . S
C532 C533 1.334 . S
C533 H510 0.950 . S
C533 C532 1.334 . S
C533 C534 1.287 . S
C534 C533 1.287 . S
C534 C535 1.524 . S
C534 H553 0.913 . S
C535 H511 0.950 . S
C535 C534 1.524 . S
C535 C536 1.415 . S
C536 H512 0.950 . S
C536 C531 1.363 . S
C536 C535 1.415 . S
C537 H513 0.951 . S
C537 C538 1.366 . S
C537 C539 1.388 . S
C538 C537 1.366 . S
C538 C542 1.385 . S
C539 H514 0.951 . S
C539 C537 1.388 . S
C539 C540 1.366 . S
C540 C539 1.366 . S
C540 C541 1.414 . S
C540 C543 1.499 . S
C541 H515 0.950 . S
C541 C540 1.414 . S
C541 C542 1.374 . S
C542 H516 0.950 . S
C542 C538 1.385 . S
C542 C541 1.374 . S
C543 C540 1.499 . S
C543 C544 1.373 . S
C543 C545 1.389 . S
C544 H517 0.950 . S
C544 C530 1.377 . S
C544 C543 1.373 . S
C545 C529 1.377 . S
C545 C543 1.389 . S
C545 C546 1.524 . S
C546 C545 1.524 . S
C546 C547 1.397 . S
C546 C551 1.363 . S
C547 H518 0.950 . S
C547 C546 1.397 . S
C547 C548 1.334 . S
C548 H519 0.950 . S
C548 C547 1.334 . S
C548 C549 1.287 . S
C549 C548 1.287 . S
C549 C550 1.524 . S
C549 H552 0.999 . S
C550 H520 0.950 . S
C550 C549 1.524 . S
C550 C551 1.415 . S
C551 H521 0.950 . S
C551 C546 1.363 . S
C551 C550 1.415 . S
H552 C549 0.999 . S
H553 C534 0.913 . S
H554 C572 0.951 . S
H555 C574 0.951 . S
H556 C576 0.950 . S
H557 C577 0.950 . S
H558 C579 0.950 . S
H559 C582 0.950 . S
H560 C583 0.950 . S
H561 C585 0.950 . S
H562 C586 0.950 . S
H563 C587 0.951 . S
H564 C589 0.951 . S
H565 C591 0.950 . S
H566 C592 0.950 . S
H567 C594 0.950 . S
H568 C597 0.950 . S
H569 C598 0.950 . S
H570 C600 0.950 . S
H571 C601 0.950 . S
C572 H554 0.951 . S
C572 C573 1.366 . S
C572 C574 1.388 . S
C573 C572 1.366 . S
C573 C577 1.385 . S
C574 H555 0.951 . S
C574 C572 1.388 . S
C574 C575 1.366 . S
C575 C574 1.366 . S
C575 C576 1.414 . S
C575 C578 1.499 . S
C576 H556 0.950 . S
C576 C575 1.414 . S
C576 C577 1.374 . S
C577 H557 0.950 . S
C577 C573 1.385 . S
C577 C576 1.374 . S
C578 C575 1.499 . S
C578 C579 1.373 . S
C578 C580 1.389 . S
C579 H558 0.950 . S
C579 C578 1.373 . S
C579 C595 1.377 . S
C580 C578 1.389 . S
C580 C581 1.524 . S
C580 C594 1.377 . S
C581 C580 1.524 . S
C581 C582 1.397 . S
C581 C586 1.363 . S
C582 H559 0.950 . S
C582 C581 1.397 . S
C582 C583 1.334 . S
C583 H560 0.950 . S
C583 C582 1.334 . S
C583 C584 1.287 . S
C584 C583 1.287 . S
C584 C585 1.524 . S
C584 H603 0.913 . S
C585 H561 0.950 . S
C585 C584 1.524 . S
C585 C586 1.415 . S
C586 H562 0.950 . S
C586 C581 1.363 . S
C586 C585 1.415 . S
C587 H563 0.951 . S
C587 C588 1.366 . S
C587 C589 1.388 . S
C588 C587 1.366 . S
C588 C592 1.385 . S
C589 H564 0.951 . S
C589 C587 1.388 . S
C589 C590 1.366 . S
C590 C589 1.366 . S
C590 C591 1.414 . S
C590 C593 1.499 . S
C591 H565 0.950 . S
C591 C590 1.414 . S
C591 C592 1.374 . S
C592 H566 0.950 . S
C592 C588 1.385 . S
C592 C591 1.374 . S
C593 C590 1.499 . S
C593 C594 1.373 . S
C593 C595 1.389 . S
C594 H567 0.950 . S
C594 C580 1.377 . S
C594 C593 1.373 . S
C595 C579 1.377 . S
C595 C593 1.389 . S
C595 C596 1.524 . S
C596 C595 1.524 . S
C596 C597 1.397 . S
C596 C601 1.363 . S
C597 H568 0.950 . S
C597 C596 1.397 . S
C597 C598 1.334 . S
C598 H569 0.950 . S
C598 C597 1.334 . S
C598 C599 1.287 . S
C599 C598 1.287 . S
C599 C600 1.524 . S
C599 H602 0.999 . S
C600 H570 0.950 . S
C600 C599 1.524 . S
C600 C601 1.415 . S
C601 H571 0.950 . S
C601 C596 1.363 . S
C601 C600 1.415 . S
H602 C599 0.999 . S
H603 C584 0.913 . S
H604 C622 0.951 . S
H605 C624 0.951 . S
H606 C626 0.950 . S
H607 C627 0.950 . S
H608 C629 0.950 . S
H609 C632 0.950 . S
H610 C633 0.950 . S
H611 C635 0.950 . S
H612 C636 0.950 . S
H613 C637 0.951 . S
H614 C639 0.951 . S
H615 C641 0.950 . S
H616 C642 0.950 . S
H617 C644 0.950 . S
H618 C647 0.950 . S
H619 C648 0.950 . S
H620 C650 0.950 . S
H621 C651 0.950 . S
C622 H604 0.951 . S
C622 C623 1.366 . S
C622 C624 1.388 . S
C623 C622 1.366 . S
C623 C627 1.385 . S
C624 H605 0.951 . S
C624 C622 1.388 . S
C624 C625 1.366 . S
C625 C624 1.366 . S
C625 C626 1.414 . S
C625 C628 1.499 . S
C626 H606 0.950 . S
C626 C625 1.414 . S
C626 C627 1.374 . S
C627 H607 0.950 . S
C627 C623 1.385 . S
C627 C626 1.374 . S
C628 C625 1.499 . S
C628 C629 1.373 . S
C628 C630 1.389 . S
C629 H608 0.950 . S
C629 C628 1.373 . S
C629 C645 1.377 . S
C630 C628 1.389 . S
C630 C631 1.524 . S
C630 C644 1.377 . S
C631 C630 1.524 . S
C631 C632 1.397 . S
C631 C636 1.363 . S
C632 H609 0.950 . S
C632 C631 1.397 . S
C632 C633 1.334 . S
C633 H610 0.950 . S
C633 C632 1.334 . S
C633 C634 1.287 . S
C634 C633 1.287 . S
C634 C635 1.524 . S
C634 H653 0.913 . S
C635 H611 0.950 . S
C635 C634 1.524 . S
C635 C636 1.415 . S
C636 H612 0.950 . S
C636 C631 1.363 . S
C636 C635 1.415 . S
C637 H613 0.951 . S
C637 C638 1.366 . S
C637 C639 1.388 . S
C638 C637 1.366 . S
C638 C642 1.385 . S
C639 H614 0.951 . S
C639 C637 1.388 . S
C639 C640 1.366 . S
C640 C639 1.366 . S
C640 C641 1.414 . S
C640 C643 1.499 . S
C641 H615 0.950 . S
C641 C640 1.414 . S
C641 C642 1.374 . S
C642 H616 0.950 . S
C642 C638 1.385 . S
C642 C641 1.374 . S
C643 C640 1.499 . S
C643 C644 1.373 . S
C643 C645 1.389 . S
C644 H617 0.950 . S
C644 C630 1.377 . S
C644 C643 1.373 . S
C645 C629 1.377 . S
C645 C643 1.389 . S
C645 C646 1.524 . S
C646 C645 1.524 . S
C646 C647 1.397 . S
C646 C651 1.363 . S
C647 H618 0.950 . S
C647 C646 1.397 . S
C647 C648 1.334 . S
C648 H619 0.950 . S
C648 C647 1.334 . S
C648 C649 1.287 . S
C649 C648 1.287 . S
C649 C650 1.524 . S
C649 H652 0.999 . S
C650 H620 0.950 . S
C650 C649 1.524 . S
C650 C651 1.415 . S
C651 H621 0.950 . S
C651 C646 1.363 . S
C651 C650 1.415 . S
H652 C649 0.999 . S
H653 C634 0.913 . S
H654 C672 0.951 . S
H655 C674 0.951 . S
H656 C676 0.950 . S
H657 C677 0.950 . S
H658 C679 0.950 . S
H659 C682 0.950 . S
H660 C683 0.950 . S
H661 C685 0.950 . S
H662 C686 0.950 . S
H663 C687 0.951 . S
H664 C689 0.951 . S
H665 C691 0.950 . S
H666 C692 0.950 . S
H667 C694 0.950 . S
H668 C697 0.950 . S
H669 C698 0.950 . S
H670 C700 0.950 . S
H671 C701 0.950 . S
C672 H654 0.951 . S
C672 C673 1.366 . S
C672 C674 1.388 . S
C673 C672 1.366 . S
C673 C677 1.385 . S
C674 H655 0.951 . S
C674 C672 1.388 . S
C674 C675 1.366 . S
C675 C674 1.366 . S
C675 C676 1.414 . S
C675 C678 1.499 . S
C676 H656 0.950 . S
C676 C675 1.414 . S
C676 C677 1.374 . S
C677 H657 0.950 . S
C677 C673 1.385 . S
C677 C676 1.374 . S
C678 C675 1.499 . S
C678 C679 1.373 . S
C678 C680 1.389 . S
C679 H658 0.950 . S
C679 C678 1.373 . S
C679 C695 1.377 . S
C680 C678 1.389 . S
C680 C681 1.524 . S
C680 C694 1.377 . S
C681 C680 1.524 . S
C681 C682 1.397 . S
C681 C686 1.363 . S
C682 H659 0.950 . S
C682 C681 1.397 . S
C682 C683 1.334 . S
C683 H660 0.950 . S
C683 C682 1.334 . S
C683 C684 1.287 . S
C684 C683 1.287 . S
C684 C685 1.524 . S
C684 H703 0.913 . S
C685 H661 0.950 . S
C685 C684 1.524 . S
C685 C686 1.415 . S
C686 H662 0.950 . S
C686 C681 1.363 . S
C686 C685 1.415 . S
C687 H663 0.951 . S
C687 C688 1.366 . S
C687 C689 1.388 . S
C688 C687 1.366 . S
C688 C692 1.385 . S
C689 H664 0.951 . S
C689 C687 1.388 . S
C689 C690 1.366 . S
C690 C689 1.366 . S
C690 C691 1.414 . S
C690 C693 1.499 . S
C691 H665 0.950 . S
C691 C690 1.414 . S
C691 C692 1.374 . S
C692 H666 0.950 . S
C692 C688 1.385 . S
C692 C691 1.374 . S
C693 C690 1.499 . S
C693 C694 1.373 . S
C693 C695 1.389 . S
C694 H667 0.950 . S
C694 C680 1.377 . S
C694 C693 1.373 . S
C695 C679 1.377 . S
C695 C693 1.389 . S
C695 C696 1.524 . S
C696 C695 1.524 . S
C696 C697 1.397 . S
C696 C701 1.363 . S
C697 H668 0.950 . S
C697 C696 1.397 . S
C697 C698 1.334 . S
C698 H669 0.950 . S
C698 C697 1.334 . S
C698 C699 1.287 . S
C699 C698 1.287 . S
C699 C700 1.524 . S
C699 H702 0.999 . S
C700 H670 0.950 . S
C700 C699 1.524 . S
C700 C701 1.415 . S
C701 H671 0.950 . S
C701 C696 1.363 . S
C701 C700 1.415 . S
H702 C699 0.999 . S
H703 C684 0.913 . S
H704 C722 0.951 . S
H705 C724 0.951 . S
H706 C726 0.950 . S
H707 C727 0.950 . S
H708 C729 0.950 . S
H709 C732 0.950 . S
H710 C733 0.950 . S
H711 C735 0.950 1_554 S
H712 C736 0.950 . S
H713 C737 0.951 . S
H714 C739 0.951 . S
H715 C741 0.950 . S
H716 C742 0.950 . S
H717 C744 0.950 . S
H718 C747 0.950 . S
H719 C748 0.950 . S
H720 C750 0.950 . S
H721 C751 0.950 . S
C722 H704 0.951 . S
C722 C723 1.366 . S
C722 C724 1.388 . S
C723 C722 1.366 . S
C723 C727 1.385 . S
C724 H705 0.951 . S
C724 C722 1.388 . S
C724 C725 1.366 . S
C725 C724 1.366 . S
C725 C726 1.414 . S
C725 C728 1.499 . S
C726 H706 0.950 . S
C726 C725 1.414 . S
C726 C727 1.374 . S
C727 H707 0.950 . S
C727 C723 1.385 . S
C727 C726 1.374 . S
C728 C725 1.499 . S
C728 C729 1.373 . S
C728 C730 1.389 . S
C729 H708 0.950 . S
C729 C728 1.373 . S
C729 C745 1.377 . S
C730 C728 1.389 . S
C730 C731 1.524 . S
C730 C744 1.377 . S
C731 C730 1.524 . S
C731 C732 1.397 . S
C731 C736 1.363 . S
C732 H709 0.950 . S
C732 C731 1.397 . S
C732 C733 1.334 . S
C733 H710 0.950 . S
C733 C732 1.334 . S
C733 C734 1.287 . S
C734 C733 1.287 . S
C734 C735 1.524 . S
C734 H753 0.913 . S
C735 H711 0.950 1_556 S
C735 C734 1.524 . S
C735 C736 1.415 . S
C736 H712 0.950 . S
C736 C731 1.363 . S
C736 C735 1.415 . S
C737 H713 0.951 . S
C737 C738 1.366 . S
C737 C739 1.388 . S
C738 C737 1.366 . S
C738 C742 1.385 . S
C739 H714 0.951 . S
C739 C737 1.388 . S
C739 C740 1.366 . S
C740 C739 1.366 . S
C740 C741 1.414 . S
C740 C743 1.499 . S
C741 H715 0.950 . S
C741 C740 1.414 . S
C741 C742 1.374 . S
C742 H716 0.950 . S
C742 C738 1.385 . S
C742 C741 1.374 . S
C743 C740 1.499 . S
C743 C744 1.373 . S
C743 C745 1.389 . S
C744 H717 0.950 . S
C744 C730 1.377 . S
C744 C743 1.373 . S
C745 C729 1.377 . S
C745 C743 1.389 . S
C745 C746 1.524 . S
C746 C745 1.524 . S
C746 C747 1.397 . S
C746 C751 1.363 . S
C747 H718 0.950 . S
C747 C746 1.397 . S
C747 C748 1.334 . S
C748 H719 0.950 . S
C748 C747 1.334 . S
C748 C749 1.287 . S
C749 C748 1.287 . S
C749 C750 1.524 . S
C749 H752 0.999 . S
C750 H720 0.950 . S
C750 C749 1.524 . S
C750 C751 1.415 . S
C751 H721 0.950 . S
C751 C746 1.363 . S
C751 C750 1.415 . S
H752 C749 0.999 . S
H753 C734 0.913 . S
H754 C772 0.951 . S
H755 C774 0.951 . S
H756 C776 0.950 . S
H757 C777 0.950 . S
H758 C779 0.950 . S
H759 C782 0.950 . S
H760 C783 0.950 . S
H761 C785 0.950 . S
H762 C786 0.950 . S
H763 C787 0.951 . S
H764 C789 0.951 . S
H765 C791 0.950 . S
H766 C792 0.950 . S
H767 C794 0.950 . S
H768 C797 0.950 . S
H769 C798 0.950 . S
H770 C800 0.950 . S
H771 C801 0.950 . S
C772 H754 0.951 . S
C772 C773 1.366 . S
C772 C774 1.388 . S
C773 C772 1.366 . S
C773 C777 1.385 . S
C774 H755 0.951 . S
C774 C772 1.388 . S
C774 C775 1.366 . S
C775 C774 1.366 . S
C775 C776 1.414 . S
C775 C778 1.499 . S
C776 H756 0.950 . S
C776 C775 1.414 . S
C776 C777 1.374 . S
C777 H757 0.950 . S
C777 C773 1.385 . S
C777 C776 1.374 . S
C778 C775 1.499 . S
C778 C779 1.373 . S
C778 C780 1.389 . S
C779 H758 0.950 . S
C779 C778 1.373 . S
C779 C795 1.377 . S
C780 C778 1.389 . S
C780 C781 1.524 . S
C780 C794 1.377 . S
C781 C780 1.524 . S
C781 C782 1.397 . S
C781 C786 1.363 . S
C782 H759 0.950 . S
C782 C781 1.397 . S
C782 C783 1.334 . S
C783 H760 0.950 . S
C783 C782 1.334 . S
C783 C784 1.287 . S
C784 C783 1.287 . S
C784 C785 1.524 . S
C784 H803 0.913 . S
C785 H761 0.950 . S
C785 C784 1.524 . S
C785 C786 1.415 . S
C786 H762 0.950 . S
C786 C781 1.363 . S
C786 C785 1.415 . S
C787 H763 0.951 . S
C787 C788 1.366 . S
C787 C789 1.388 . S
C788 C787 1.366 . S
C788 C792 1.385 . S
C789 H764 0.951 . S
C789 C787 1.388 . S
C789 C790 1.366 . S
C790 C789 1.366 . S
C790 C791 1.414 . S
C790 C793 1.499 . S
C791 H765 0.950 . S
C791 C790 1.414 . S
C791 C792 1.374 . S
C792 H766 0.950 . S
C792 C788 1.385 . S
C792 C791 1.374 . S
C793 C790 1.499 . S
C793 C794 1.373 . S
C793 C795 1.389 . S
C794 H767 0.950 . S
C794 C780 1.377 . S
C794 C793 1.373 . S
C795 C779 1.377 . S
C795 C793 1.389 . S
C795 C796 1.524 . S
C796 C795 1.524 . S
C796 C797 1.397 . S
C796 C801 1.363 . S
C797 H768 0.950 . S
C797 C796 1.397 . S
C797 C798 1.334 . S
C798 H769 0.950 . S
C798 C797 1.334 . S
C798 C799 1.287 . S
C799 C798 1.287 . S
C799 C800 1.524 . S
C799 H802 0.999 . S
C800 H770 0.950 . S
C800 C799 1.524 . S
C800 C801 1.415 . S
C801 H771 0.950 . S
C801 C796 1.363 . S
C801 C800 1.415 . S
H802 C799 0.999 . S
H803 C784 0.913 . S
H804 C822 0.951 . S
H805 C824 0.951 . S
H806 C826 0.950 . S
H807 C827 0.950 . S
H808 C829 0.950 . S
H809 C832 0.950 . S
H810 C833 0.950 . S
H811 C835 0.950 . S
H812 C836 0.950 . S
H813 C837 0.951 . S
H814 C839 0.951 . S
H815 C841 0.950 . S
H816 C842 0.950 . S
H817 C844 0.950 . S
H818 C847 0.950 . S
H819 C848 0.950 . S
H820 C850 0.950 . S
H821 C851 0.950 . S
C822 H804 0.951 . S
C822 C823 1.366 . S
C822 C824 1.388 . S
C823 C822 1.366 . S
C823 C827 1.385 . S
C824 H805 0.951 . S
C824 C822 1.388 . S
C824 C825 1.366 . S
C825 C824 1.366 . S
C825 C826 1.414 . S
C825 C828 1.499 . S
C826 H806 0.950 . S
C826 C825 1.414 . S
C826 C827 1.374 . S
C827 H807 0.950 . S
C827 C823 1.385 . S
C827 C826 1.374 . S
C828 C825 1.499 . S
C828 C829 1.373 . S
C828 C830 1.389 . S
C829 H808 0.950 . S
C829 C828 1.373 . S
C829 C845 1.377 . S
C830 C828 1.389 . S
C830 C831 1.524 . S
C830 C844 1.377 . S
C831 C830 1.524 . S
C831 C832 1.397 . S
C831 C836 1.363 . S
C832 H809 0.950 . S
C832 C831 1.397 . S
C832 C833 1.334 . S
C833 H810 0.950 . S
C833 C832 1.334 . S
C833 C834 1.287 . S
C834 C833 1.287 . S
C834 C835 1.524 . S
C834 H853 0.913 . S
C835 H811 0.950 . S
C835 C834 1.524 . S
C835 C836 1.415 . S
C836 H812 0.950 . S
C836 C831 1.363 . S
C836 C835 1.415 . S
C837 H813 0.951 . S
C837 C838 1.366 . S
C837 C839 1.388 . S
C838 C837 1.366 . S
C838 C842 1.385 . S
C839 H814 0.951 . S
C839 C837 1.388 . S
C839 C840 1.366 . S
C840 C839 1.366 . S
C840 C841 1.414 . S
C840 C843 1.499 . S
C841 H815 0.950 . S
C841 C840 1.414 . S
C841 C842 1.374 . S
C842 H816 0.950 . S
C842 C838 1.385 . S
C842 C841 1.374 . S
C843 C840 1.499 . S
C843 C844 1.373 . S
C843 C845 1.389 . S
C844 H817 0.950 . S
C844 C830 1.377 . S
C844 C843 1.373 . S
C845 C829 1.377 . S
C845 C843 1.389 . S
C845 C846 1.524 . S
C846 C845 1.524 . S
C846 C847 1.397 . S
C846 C851 1.363 . S
C847 H818 0.950 . S
C847 C846 1.397 . S
C847 C848 1.334 . S
C848 H819 0.950 . S
C848 C847 1.334 . S
C848 C849 1.287 . S
C849 C848 1.287 . S
C849 C850 1.524 . S
C849 H852 0.999 . S
C850 H820 0.950 . S
C850 C849 1.524 . S
C850 C851 1.415 . S
C851 H821 0.950 . S
C851 C846 1.363 . S
C851 C850 1.415 . S
H852 C849 0.999 . S
H853 C834 0.913 . S
H854 C872 0.951 . S
H855 C874 0.951 . S
H856 C876 0.950 . S
H857 C877 0.950 . S
H858 C879 0.950 . S
H859 C882 0.950 . S
H860 C883 0.950 . S
H861 C885 0.950 . S
H862 C886 0.950 . S
H863 C887 0.951 . S
H864 C889 0.951 . S
H865 C891 0.950 . S
H866 C892 0.950 . S
H867 C894 0.950 . S
H868 C897 0.950 . S
H869 C898 0.950 . S
H870 C900 0.950 . S
H871 C901 0.950 . S
C872 H854 0.951 . S
C872 C873 1.366 . S
C872 C874 1.388 . S
C873 C872 1.366 . S
C873 C877 1.385 . S
C874 H855 0.951 . S
C874 C872 1.388 . S
C874 C875 1.366 . S
C875 C874 1.366 . S
C875 C876 1.414 . S
C875 C878 1.499 . S
C876 H856 0.950 . S
C876 C875 1.414 . S
C876 C877 1.374 . S
C877 H857 0.950 . S
C877 C873 1.385 . S
C877 C876 1.374 . S
C878 C875 1.499 . S
C878 C879 1.373 . S
C878 C880 1.389 . S
C879 H858 0.950 . S
C879 C878 1.373 . S
C879 C895 1.377 . S
C880 C878 1.389 . S
C880 C881 1.524 . S
C880 C894 1.377 . S
C881 C880 1.524 . S
C881 C882 1.397 . S
C881 C886 1.363 . S
C882 H859 0.950 . S
C882 C881 1.397 . S
C882 C883 1.334 . S
C883 H860 0.950 . S
C883 C882 1.334 . S
C883 C884 1.287 . S
C884 C883 1.287 . S
C884 C885 1.524 . S
C884 H903 0.913 . S
C885 H861 0.950 . S
C885 C884 1.524 . S
C885 C886 1.415 . S
C886 H862 0.950 . S
C886 C881 1.363 . S
C886 C885 1.415 . S
C887 H863 0.951 . S
C887 C888 1.366 . S
C887 C889 1.388 . S
C888 C887 1.366 . S
C888 C892 1.385 . S
C889 H864 0.951 . S
C889 C887 1.388 . S
C889 C890 1.366 . S
C890 C889 1.366 . S
C890 C891 1.414 . S
C890 C893 1.499 . S
C891 H865 0.950 . S
C891 C890 1.414 . S
C891 C892 1.374 . S
C892 H866 0.950 . S
C892 C888 1.385 . S
C892 C891 1.374 . S
C893 C890 1.499 . S
C893 C894 1.373 . S
C893 C895 1.389 . S
C894 H867 0.950 . S
C894 C880 1.377 . S
C894 C893 1.373 . S
C895 C879 1.377 . S
C895 C893 1.389 . S
C895 C896 1.524 . S
C896 C895 1.524 . S
C896 C897 1.397 . S
C896 C901 1.363 . S
C897 H868 0.950 . S
C897 C896 1.397 . S
C897 C898 1.334 . S
C898 H869 0.950 . S
C898 C897 1.334 . S
C898 C899 1.287 . S
C899 C898 1.287 . S
C899 C900 1.524 . S
C899 H902 0.999 . S
C900 H870 0.950 . S
C900 C899 1.524 . S
C900 C901 1.415 . S
C901 H871 0.950 . S
C901 C896 1.363 . S
C901 C900 1.415 . S
H902 C899 0.999 . S
H903 C884 0.913 . S
H904 C922 0.951 . S
H905 C924 0.951 . S
H906 C926 0.950 . S
H907 C927 0.950 . S
H908 C929 0.950 . S
H909 C932 0.950 . S
H910 C933 0.950 . S
H911 C935 0.950 . S
H912 C936 0.950 . S
H913 C937 0.951 . S
H914 C939 0.951 . S
H915 C941 0.950 . S
H916 C942 0.950 . S
H917 C944 0.950 . S
H918 C947 0.950 . S
H919 C948 0.950 . S
H920 C950 0.950 . S
H921 C951 0.950 . S
C922 H904 0.951 . S
C922 C923 1.366 . S
C922 C924 1.388 . S
C923 C922 1.366 . S
C923 C927 1.385 . S
C924 H905 0.951 . S
C924 C922 1.388 . S
C924 C925 1.366 . S
C925 C924 1.366 . S
C925 C926 1.414 . S
C925 C928 1.499 . S
C926 H906 0.950 . S
C926 C925 1.414 . S
C926 C927 1.374 . S
C927 H907 0.950 . S
C927 C923 1.385 . S
C927 C926 1.374 . S
C928 C925 1.499 . S
C928 C929 1.373 . S
C928 C930 1.389 . S
C929 H908 0.950 . S
C929 C928 1.373 . S
C929 C945 1.377 . S
C930 C928 1.389 . S
C930 C931 1.524 . S
C930 C944 1.377 . S
C931 C930 1.524 . S
C931 C932 1.397 . S
C931 C936 1.363 . S
C932 H909 0.950 . S
C932 C931 1.397 . S
C932 C933 1.334 . S
C933 H910 0.950 . S
C933 C932 1.334 . S
C933 C934 1.287 . S
C934 C933 1.287 . S
C934 C935 1.524 . S
C934 H953 0.913 . S
C935 H911 0.950 . S
C935 C934 1.524 . S
C935 C936 1.415 . S
C936 H912 0.950 . S
C936 C931 1.363 . S
C936 C935 1.415 . S
C937 H913 0.951 . S
C937 C938 1.366 . S
C937 C939 1.388 . S
C938 C937 1.366 . S
C938 C942 1.385 . S
C939 H914 0.951 . S
C939 C937 1.388 . S
C939 C940 1.366 . S
C940 C939 1.366 . S
C940 C941 1.414 . S
C940 C943 1.499 . S
C941 H915 0.950 . S
C941 C940 1.414 . S
C941 C942 1.374 . S
C942 H916 0.950 . S
C942 C938 1.385 . S
C942 C941 1.374 . S
C943 C940 1.499 . S
C943 C944 1.373 . S
C943 C945 1.389 . S
C944 H917 0.950 . S
C944 C930 1.377 . S
C944 C943 1.373 . S
C945 C929 1.377 . S
C945 C943 1.389 . S
C945 C946 1.524 . S
C946 C945 1.524 . S
C946 C947 1.397 . S
C946 C951 1.363 . S
C947 H918 0.950 . S
C947 C946 1.397 . S
C947 C948 1.334 . S
C948 H919 0.950 . S
C948 C947 1.334 . S
C948 C949 1.287 . S
C949 C948 1.287 . S
C949 C950 1.524 . S
C949 H952 0.999 . S
C950 H920 0.950 . S
C950 C949 1.524 . S
C950 C951 1.415 . S
C951 H921 0.950 . S
C951 C946 1.363 . S
C951 C950 1.415 . S
H952 C949 0.999 . S
H953 C934 0.913 . S
H954 C972 0.951 . S
H955 C974 0.951 . S
H956 C976 0.950 . S
H957 C977 0.950 . S
H958 C979 0.950 . S
H959 C982 0.950 . S
H960 C983 0.950 . S
H961 C985 0.949 1_554 S
H962 C986 0.950 . S
H963 C987 0.951 . S
H964 C989 0.951 . S
H965 C991 0.950 . S
H966 C992 0.950 . S
H967 C994 0.950 . S
H968 C997 0.950 . S
H969 C998 0.950 . S
H970 C1000 0.950 . S
H971 C1001 0.950 . S
C972 H954 0.951 . S
C972 C973 1.366 . S
C972 C974 1.388 . S
C973 C972 1.366 . S
C973 C977 1.385 . S
C974 H955 0.951 . S
C974 C972 1.388 . S
C974 C975 1.366 . S
C975 C974 1.366 . S
C975 C976 1.414 . S
C975 C978 1.499 . S
C976 H956 0.950 . S
C976 C975 1.414 . S
C976 C977 1.374 . S
C977 H957 0.950 . S
C977 C973 1.385 . S
C977 C976 1.374 . S
C978 C975 1.499 . S
C978 C979 1.373 . S
C978 C980 1.389 . S
C979 H958 0.950 . S
C979 C978 1.373 . S
C979 C995 1.377 . S
C980 C978 1.389 . S
C980 C981 1.524 . S
C980 C994 1.377 . S
C981 C980 1.524 . S
C981 C982 1.397 1_554 S
C981 C986 1.363 . S
C982 H959 0.950 . S
C982 C981 1.397 1_556 S
C982 C983 1.334 . S
C983 H960 0.950 . S
C983 C982 1.334 . S
C983 C984 1.287 . S
C984 C983 1.287 . S
C984 C985 1.522 . S
C984 H1003 0.913 . S
C985 H961 0.949 1_556 S
C985 C984 1.522 . S
C985 C986 1.417 1_556 S
C986 H962 0.950 . S
C986 C981 1.363 . S
C986 C985 1.417 1_554 S
C987 H963 0.951 . S
C987 C988 1.366 . S
C987 C989 1.388 . S
C988 C987 1.366 . S
C988 C992 1.385 . S
C989 H964 0.951 . S
C989 C987 1.388 . S
C989 C990 1.366 . S
C990 C989 1.366 . S
C990 C991 1.414 . S
C990 C993 1.499 . S
C991 H965 0.950 . S
C991 C990 1.414 . S
C991 C992 1.374 . S
C992 H966 0.950 . S
C992 C988 1.385 . S
C992 C991 1.374 . S
C993 C990 1.499 . S
C993 C994 1.373 . S
C993 C995 1.389 . S
C994 H967 0.950 . S
C994 C980 1.377 . S
C994 C993 1.373 . S
C995 C979 1.377 . S
C995 C993 1.389 . S
C995 C996 1.524 . S
C996 C995 1.524 . S
C996 C997 1.397 . S
C996 C1001 1.363 . S
C997 H968 0.950 . S
C997 C996 1.397 . S
C997 C998 1.334 . S
C998 H969 0.950 . S
C998 C997 1.334 . S
C998 C999 1.287 . S
C999 C998 1.287 . S
C999 C1000 1.524 . S
C999 H1002 0.999 . S
C1000 H970 0.950 . S
C1000 C999 1.524 . S
C1000 C1001 1.415 . S
C1001 H971 0.950 . S
C1001 C996 1.363 . S
C1001 C1000 1.415 . S
H1002 C999 0.999 . S
H1003 C984 0.913 . S
H1004 C1022 0.951 . S
H1005 C1024 0.951 . S
H1006 C1026 0.950 . S
H1007 C1027 0.950 . S
H1008 C1029 0.950 . S
H1009 C1032 0.950 . S
H1010 C1033 0.950 . S
H1011 C1035 0.950 . S
H1012 C1036 0.950 . S
H1013 C1037 0.951 . S
H1014 C1039 0.951 . S
H1015 C1041 0.950 . S
H1016 C1042 0.950 . S
H1017 C1044 0.950 . S
H1018 C1047 0.950 . S
H1019 C1048 0.950 . S
H1020 C1050 0.950 . S
H1021 C1051 0.950 . S
C1022 H1004 0.951 . S
C1022 C1023 1.366 . S
C1022 C1024 1.388 . S
C1023 C1022 1.366 . S
C1023 C1027 1.385 . S
C1024 H1005 0.951 . S
C1024 C1022 1.388 . S
C1024 C1025 1.366 . S
C1025 C1024 1.366 . S
C1025 C1026 1.414 . S
C1025 C1028 1.499 . S
C1026 H1006 0.950 . S
C1026 C1025 1.414 . S
C1026 C1027 1.374 . S
C1027 H1007 0.950 . S
C1027 C1023 1.385 . S
C1027 C1026 1.374 . S
C1028 C1025 1.499 . S
C1028 C1029 1.373 . S
C1028 C1030 1.389 . S
C1029 H1008 0.950 . S
C1029 C1028 1.373 . S
C1029 C1045 1.377 . S
C1030 C1028 1.389 . S
C1030 C1031 1.524 . S
C1030 C1044 1.377 . S
C1031 C1030 1.524 . S
C1031 C1032 1.397 . S
C1031 C1036 1.363 . S
C1032 H1009 0.950 . S
C1032 C1031 1.397 . S
C1032 C1033 1.334 . S
C1033 H1010 0.950 . S
C1033 C1032 1.334 . S
C1033 C1034 1.287 . S
C1034 C1033 1.287 . S
C1034 C1035 1.524 . S
C1034 H1053 0.913 . S
C1035 H1011 0.950 . S
C1035 C1034 1.524 . S
C1035 C1036 1.415 . S
C1036 H1012 0.950 . S
C1036 C1031 1.363 . S
C1036 C1035 1.415 . S
C1037 H1013 0.951 . S
C1037 C1038 1.366 . S
C1037 C1039 1.388 . S
C1038 C1037 1.366 . S
C1038 C1042 1.385 . S
C1039 H1014 0.951 . S
C1039 C1037 1.388 . S
C1039 C1040 1.366 . S
C1040 C1039 1.366 . S
C1040 C1041 1.414 . S
C1040 C1043 1.499 . S
C1041 H1015 0.950 . S
C1041 C1040 1.414 . S
C1041 C1042 1.374 . S
C1042 H1016 0.950 . S
C1042 C1038 1.385 . S
C1042 C1041 1.374 . S
C1043 C1040 1.499 . S
C1043 C1044 1.373 . S
C1043 C1045 1.389 . S
C1044 H1017 0.950 . S
C1044 C1030 1.377 . S
C1044 C1043 1.373 . S
C1045 C1029 1.377 . S
C1045 C1043 1.389 . S
C1045 C1046 1.524 . S
C1046 C1045 1.524 . S
C1046 C1047 1.397 . S
C1046 C1051 1.363 . S
C1047 H1018 0.950 . S
C1047 C1046 1.397 . S
C1047 C1048 1.334 . S
C1048 H1019 0.950 . S
C1048 C1047 1.334 . S
C1048 C1049 1.287 . S
C1049 C1048 1.287 . S
C1049 C1050 1.524 . S
C1049 H1052 0.999 . S
C1050 H1020 0.950 . S
C1050 C1049 1.524 . S
C1050 C1051 1.415 . S
C1051 H1021 0.950 . S
C1051 C1046 1.363 . S
C1051 C1050 1.415 . S
H1052 C1049 0.999 . S
H1053 C1034 0.913 . S
H1054 C1072 0.951 . S
H1055 C1074 0.951 . S
H1056 C1076 0.950 . S
H1057 C1077 0.950 . S
H1058 C1079 0.950 . S
H1059 C1082 0.950 . S
H1060 C1083 0.950 . S
H1061 C1085 0.950 . S
H1062 C1086 0.950 . S
H1063 C1087 0.951 . S
H1064 C1089 0.951 . S
H1065 C1091 0.950 . S
H1066 C1092 0.950 . S
H1067 C1094 0.950 . S
H1068 C1097 0.950 . S
H1069 C1098 0.950 . S
H1070 C1100 0.950 . S
H1071 C1101 0.950 . S
C1072 H1054 0.951 . S
C1072 C1073 1.366 . S
C1072 C1074 1.388 . S
C1073 C1072 1.366 . S
C1073 C1077 1.385 . S
C1074 H1055 0.951 . S
C1074 C1072 1.388 . S
C1074 C1075 1.366 . S
C1075 C1074 1.366 . S
C1075 C1076 1.414 . S
C1075 C1078 1.499 . S
C1076 H1056 0.950 . S
C1076 C1075 1.414 . S
C1076 C1077 1.374 . S
C1077 H1057 0.950 . S
C1077 C1073 1.385 . S
C1077 C1076 1.374 . S
C1078 C1075 1.499 . S
C1078 C1079 1.373 . S
C1078 C1080 1.389 . S
C1079 H1058 0.950 . S
C1079 C1078 1.373 . S
C1079 C1095 1.377 . S
C1080 C1078 1.389 . S
C1080 C1081 1.524 . S
C1080 C1094 1.377 . S
C1081 C1080 1.524 . S
C1081 C1082 1.397 . S
C1081 C1086 1.363 . S
C1082 H1059 0.950 . S
C1082 C1081 1.397 . S
C1082 C1083 1.334 . S
C1083 H1060 0.950 . S
C1083 C1082 1.334 . S
C1083 C1084 1.287 . S
C1084 C1083 1.287 . S
C1084 C1085 1.524 . S
C1084 H1103 0.913 . S
C1085 H1061 0.950 . S
C1085 C1084 1.524 . S
C1085 C1086 1.415 . S
C1086 H1062 0.950 . S
C1086 C1081 1.363 . S
C1086 C1085 1.415 . S
C1087 H1063 0.951 . S
C1087 C1088 1.366 . S
C1087 C1089 1.388 . S
C1088 C1087 1.366 . S
C1088 C1092 1.385 . S
C1089 H1064 0.951 . S
C1089 C1087 1.388 . S
C1089 C1090 1.366 . S
C1090 C1089 1.366 . S
C1090 C1091 1.414 . S
C1090 C1093 1.499 . S
C1091 H1065 0.950 . S
C1091 C1090 1.414 . S
C1091 C1092 1.374 . S
C1092 H1066 0.950 . S
C1092 C1088 1.385 . S
C1092 C1091 1.374 . S
C1093 C1090 1.499 . S
C1093 C1094 1.373 . S
C1093 C1095 1.389 . S
C1094 H1067 0.950 . S
C1094 C1080 1.377 . S
C1094 C1093 1.373 . S
C1095 C1079 1.377 . S
C1095 C1093 1.389 . S
C1095 C1096 1.524 . S
C1096 C1095 1.524 . S
C1096 C1097 1.397 . S
C1096 C1101 1.363 . S
C1097 H1068 0.950 . S
C1097 C1096 1.397 . S
C1097 C1098 1.334 . S
C1098 H1069 0.950 . S
C1098 C1097 1.334 . S
C1098 C1099 1.287 . S
C1099 C1098 1.287 . S
C1099 C1100 1.524 . S
C1099 H1102 0.999 . S
C1100 H1070 0.950 . S
C1100 C1099 1.524 . S
C1100 C1101 1.415 . S
C1101 H1071 0.950 . S
C1101 C1096 1.363 . S
C1101 C1100 1.415 . S
H1102 C1099 0.999 . S
H1103 C1084 0.913 . S
H1104 C1122 0.951 . S
H1105 C1124 0.951 . S
H1106 C1126 0.950 . S
H1107 C1127 0.950 . S
H1108 C1129 0.950 . S
H1109 C1132 0.950 . S
H1110 C1133 0.950 . S
H1111 C1135 0.950 . S
H1112 C1136 0.950 . S
H1113 C1137 0.951 . S
H1114 C1139 0.951 . S
H1115 C1141 0.950 . S
H1116 C1142 0.950 . S
H1117 C1144 0.950 . S
H1118 C1147 0.950 . S
H1119 C1148 0.950 . S
H1120 C1150 0.950 . S
H1121 C1151 0.950 . S
C1122 H1104 0.951 . S
C1122 C1123 1.366 . S
C1122 C1124 1.388 . S
C1123 C1122 1.366 . S
C1123 C1127 1.385 . S
C1124 H1105 0.951 . S
C1124 C1122 1.388 . S
C1124 C1125 1.366 . S
C1125 C1124 1.366 . S
C1125 C1126 1.414 . S
C1125 C1128 1.499 . S
C1126 H1106 0.950 . S
C1126 C1125 1.414 . S
C1126 C1127 1.374 . S
C1127 H1107 0.950 . S
C1127 C1123 1.385 . S
C1127 C1126 1.374 . S
C1128 C1125 1.499 . S
C1128 C1129 1.373 . S
C1128 C1130 1.389 . S
C1129 H1108 0.950 . S
C1129 C1128 1.373 . S
C1129 C1145 1.377 . S
C1130 C1128 1.389 . S
C1130 C1131 1.524 . S
C1130 C1144 1.377 . S
C1131 C1130 1.524 . S
C1131 C1132 1.397 . S
C1131 C1136 1.363 . S
C1132 H1109 0.950 . S
C1132 C1131 1.397 . S
C1132 C1133 1.334 . S
C1133 H1110 0.950 . S
C1133 C1132 1.334 . S
C1133 C1134 1.287 . S
C1134 C1133 1.287 . S
C1134 C1135 1.524 . S
C1134 H1153 0.913 . S
C1135 H1111 0.950 . S
C1135 C1134 1.524 . S
C1135 C1136 1.415 . S
C1136 H1112 0.950 . S
C1136 C1131 1.363 . S
C1136 C1135 1.415 . S
C1137 H1113 0.951 . S
C1137 C1138 1.366 . S
C1137 C1139 1.388 . S
C1138 C1137 1.366 . S
C1138 C1142 1.385 . S
C1139 H1114 0.951 . S
C1139 C1137 1.388 . S
C1139 C1140 1.366 . S
C1140 C1139 1.366 . S
C1140 C1141 1.414 . S
C1140 C1143 1.499 . S
C1141 H1115 0.950 . S
C1141 C1140 1.414 . S
C1141 C1142 1.374 . S
C1142 H1116 0.950 . S
C1142 C1138 1.385 . S
C1142 C1141 1.374 . S
C1143 C1140 1.499 . S
C1143 C1144 1.373 . S
C1143 C1145 1.389 . S
C1144 H1117 0.950 . S
C1144 C1130 1.377 . S
C1144 C1143 1.373 . S
C1145 C1129 1.377 . S
C1145 C1143 1.389 . S
C1145 C1146 1.524 . S
C1146 C1145 1.524 . S
C1146 C1147 1.397 . S
C1146 C1151 1.363 . S
C1147 H1118 0.950 . S
C1147 C1146 1.397 . S
C1147 C1148 1.334 . S
C1148 H1119 0.950 . S
C1148 C1147 1.334 . S
C1148 C1149 1.287 . S
C1149 C1148 1.287 . S
C1149 C1150 1.524 . S
C1149 H1152 0.999 . S
C1150 H1120 0.950 . S
C1150 C1149 1.524 . S
C1150 C1151 1.415 . S
C1151 H1121 0.950 . S
C1151 C1146 1.363 . S
C1151 C1150 1.415 . S
H1152 C1149 0.999 . S
H1153 C1134 0.913 . S
H1154 C1172 0.951 . S
H1155 C1174 0.951 . S
H1156 C1176 0.950 . S
H1157 C1177 0.950 . S
H1158 C1179 0.950 . S
H1159 C1182 0.950 . S
H1160 C1183 0.950 . S
H1161 C1185 0.950 . S
H1162 C1186 0.950 . S
H1163 C1187 0.951 . S
H1164 C1189 0.951 . S
H1165 C1191 0.950 . S
H1166 C1192 0.950 . S
H1167 C1194 0.950 . S
H1168 C1197 0.950 . S
H1169 C1198 0.950 . S
H1170 C1200 0.950 . S
H1171 C1201 0.950 . S
C1172 H1154 0.951 . S
C1172 C1173 1.366 . S
C1172 C1174 1.388 . S
C1173 C1172 1.366 . S
C1173 C1177 1.385 . S
C1174 H1155 0.951 . S
C1174 C1172 1.388 . S
C1174 C1175 1.366 . S
C1175 C1174 1.366 . S
C1175 C1176 1.414 . S
C1175 C1178 1.499 . S
C1176 H1156 0.950 . S
C1176 C1175 1.414 . S
C1176 C1177 1.374 . S
C1177 H1157 0.950 . S
C1177 C1173 1.385 . S
C1177 C1176 1.374 . S
C1178 C1175 1.499 . S
C1178 C1179 1.373 . S
C1178 C1180 1.389 . S
C1179 H1158 0.950 . S
C1179 C1178 1.373 . S
C1179 C1195 1.377 . S
C1180 C1178 1.389 . S
C1180 C1181 1.524 . S
C1180 C1194 1.377 . S
C1181 C1180 1.524 . S
C1181 C1182 1.397 . S
C1181 C1186 1.363 . S
C1182 H1159 0.950 . S
C1182 C1181 1.397 . S
C1182 C1183 1.334 . S
C1183 H1160 0.950 . S
C1183 C1182 1.334 . S
C1183 C1184 1.287 . S
C1184 C1183 1.287 . S
C1184 C1185 1.524 . S
C1184 H1203 0.913 . S
C1185 H1161 0.950 . S
C1185 C1184 1.524 . S
C1185 C1186 1.415 . S
C1186 H1162 0.950 . S
C1186 C1181 1.363 . S
C1186 C1185 1.415 . S
C1187 H1163 0.951 . S
C1187 C1188 1.366 . S
C1187 C1189 1.388 . S
C1188 C1187 1.366 . S
C1188 C1192 1.385 . S
C1189 H1164 0.951 . S
C1189 C1187 1.388 . S
C1189 C1190 1.366 . S
C1190 C1189 1.366 . S
C1190 C1191 1.414 . S
C1190 C1193 1.499 . S
C1191 H1165 0.950 . S
C1191 C1190 1.414 . S
C1191 C1192 1.374 . S
C1192 H1166 0.950 . S
C1192 C1188 1.385 . S
C1192 C1191 1.374 . S
C1193 C1190 1.499 . S
C1193 C1194 1.373 . S
C1193 C1195 1.389 . S
C1194 H1167 0.950 . S
C1194 C1180 1.377 . S
C1194 C1193 1.373 . S
C1195 C1179 1.377 . S
C1195 C1193 1.389 . S
C1195 C1196 1.524 . S
C1196 C1195 1.524 . S
C1196 C1197 1.397 . S
C1196 C1201 1.363 . S
C1197 H1168 0.950 . S
C1197 C1196 1.397 . S
C1197 C1198 1.334 . S
C1198 H1169 0.950 . S
C1198 C1197 1.334 . S
C1198 C1199 1.287 . S
C1199 C1198 1.287 . S
C1199 C1200 1.524 . S
C1199 H1202 0.999 . S
C1200 H1170 0.950 . S
C1200 C1199 1.524 . S
C1200 C1201 1.415 . S
C1201 H1171 0.950 . S
C1201 C1196 1.363 . S
C1201 C1200 1.415 . S
H1202 C1199 0.999 . S
H1203 C1184 0.913 . S
H1204 C1222 0.951 . S
H1205 C1224 0.951 . S
H1206 C1226 0.950 . S
H1207 C1227 0.950 . S
H1208 C1229 0.950 . S
H1209 C1232 0.950 . S
H1210 C1233 0.950 . S
H1211 C1235 0.950 . S
H1212 C1236 0.950 . S
H1213 C1237 0.951 . S
H1214 C1239 0.951 . S
H1215 C1241 0.950 . S
H1216 C1242 0.950 . S
H1217 C1244 0.950 . S
H1218 C1247 0.950 . S
H1219 C1248 0.950 . S
H1220 C1250 0.950 . S
H1221 C1251 0.950 . S
C1222 H1204 0.951 . S
C1222 C1223 1.366 . S
C1222 C1224 1.388 . S
C1223 C1222 1.366 . S
C1223 C1227 1.385 . S
C1224 H1205 0.951 . S
C1224 C1222 1.388 . S
C1224 C1225 1.366 . S
C1225 C1224 1.366 . S
C1225 C1226 1.414 . S
C1225 C1228 1.499 . S
C1226 H1206 0.950 . S
C1226 C1225 1.414 . S
C1226 C1227 1.374 . S
C1227 H1207 0.950 . S
C1227 C1223 1.385 . S
C1227 C1226 1.374 . S
C1228 C1225 1.499 . S
C1228 C1229 1.373 . S
C1228 C1230 1.389 . S
C1229 H1208 0.950 . S
C1229 C1228 1.373 . S
C1229 C1245 1.377 . S
C1230 C1228 1.389 . S
C1230 C1231 1.524 . S
C1230 C1244 1.377 . S
C1231 C1230 1.524 . S
C1231 C1232 1.397 . S
C1231 C1236 1.363 . S
C1232 H1209 0.950 . S
C1232 C1231 1.397 . S
C1232 C1233 1.334 . S
C1233 H1210 0.950 . S
C1233 C1232 1.334 . S
C1233 C1234 1.287 . S
C1234 C1233 1.287 . S
C1234 C1235 1.524 . S
C1234 H1253 0.913 . S
C1235 H1211 0.950 . S
C1235 C1234 1.524 . S
C1235 C1236 1.415 . S
C1236 H1212 0.950 . S
C1236 C1231 1.363 . S
C1236 C1235 1.415 . S
C1237 H1213 0.951 . S
C1237 C1238 1.366 . S
C1237 C1239 1.388 . S
C1238 C1237 1.366 . S
C1238 C1242 1.385 . S
C1239 H1214 0.951 . S
C1239 C1237 1.388 . S
C1239 C1240 1.366 . S
C1240 C1239 1.366 . S
C1240 C1241 1.414 . S
C1240 C1243 1.499 . S
C1241 H1215 0.950 . S
C1241 C1240 1.414 . S
C1241 C1242 1.374 . S
C1242 H1216 0.950 . S
C1242 C1238 1.385 . S
C1242 C1241 1.374 . S
C1243 C1240 1.499 . S
C1243 C1244 1.373 . S
C1243 C1245 1.389 . S
C1244 H1217 0.950 . S
C1244 C1230 1.377 . S
C1244 C1243 1.373 . S
C1245 C1229 1.377 . S
C1245 C1243 1.389 . S
C1245 C1246 1.524 . S
C1246 C1245 1.524 . S
C1246 C1247 1.397 . S
C1246 C1251 1.363 . S
C1247 H1218 0.950 . S
C1247 C1246 1.397 . S
C1247 C1248 1.334 . S
C1248 H1219 0.950 . S
C1248 C1247 1.334 . S
C1248 C1249 1.287 . S
C1249 C1248 1.287 . S
C1249 C1250 1.524 . S
C1249 H1252 0.999 . S
C1250 H1220 0.950 . S
C1250 C1249 1.524 . S
C1250 C1251 1.415 . S
C1251 H1221 0.950 . S
C1251 C1246 1.363 . S
C1251 C1250 1.415 . S
H1252 C1249 0.999 . S
H1253 C1234 0.913 . S
H1254 C1272 0.951 . S
H1255 C1274 0.951 . S
H1256 C1276 0.950 . S
H1257 C1277 0.950 . S
H1258 C1279 0.950 . S
H1259 C1282 0.950 . S
H1260 C1283 0.950 . S
H1261 C1285 0.950 . S
H1262 C1286 0.950 . S
H1263 C1287 0.951 . S
H1264 C1289 0.951 . S
H1265 C1291 0.950 . S
H1266 C1292 0.950 . S
H1267 C1294 0.950 . S
H1268 C1297 0.950 . S
H1269 C1298 0.950 . S
H1270 C1300 0.950 . S
H1271 C1301 0.950 . S
C1272 H1254 0.951 . S
C1272 C1273 1.366 . S
C1272 C1274 1.388 . S
C1273 C1272 1.366 . S
C1273 C1277 1.385 . S
C1274 H1255 0.951 . S
C1274 C1272 1.388 . S
C1274 C1275 1.366 . S
C1275 C1274 1.366 . S
C1275 C1276 1.414 . S
C1275 C1278 1.499 . S
C1276 H1256 0.950 . S
C1276 C1275 1.414 . S
C1276 C1277 1.374 . S
C1277 H1257 0.950 . S
C1277 C1273 1.385 . S
C1277 C1276 1.374 . S
C1278 C1275 1.499 . S
C1278 C1279 1.373 . S
C1278 C1280 1.389 . S
C1279 H1258 0.950 . S
C1279 C1278 1.373 . S
C1279 C1295 1.377 . S
C1280 C1278 1.389 . S
C1280 C1281 1.524 . S
C1280 C1294 1.377 . S
C1281 C1280 1.524 . S
C1281 C1282 1.397 . S
C1281 C1286 1.363 . S
C1282 H1259 0.950 . S
C1282 C1281 1.397 . S
C1282 C1283 1.334 . S
C1283 H1260 0.950 . S
C1283 C1282 1.334 . S
C1283 C1284 1.287 . S
C1284 C1283 1.287 . S
C1284 C1285 1.524 . S
C1284 H1303 0.913 . S
C1285 H1261 0.950 . S
C1285 C1284 1.524 . S
C1285 C1286 1.415 . S
C1286 H1262 0.950 . S
C1286 C1281 1.363 . S
C1286 C1285 1.415 . S
C1287 H1263 0.951 . S
C1287 C1288 1.366 . S
C1287 C1289 1.388 1_554 S
C1288 C1287 1.366 . S
C1288 C1292 1.385 . S
C1289 H1264 0.951 . S
C1289 C1287 1.388 1_556 S
C1289 C1290 1.366 . S
C1290 C1289 1.366 . S
C1290 C1291 1.414 1_556 S
C1290 C1293 1.499 . S
C1291 H1265 0.950 . S
C1291 C1290 1.414 1_554 S
C1291 C1292 1.374 . S
C1292 H1266 0.950 . S
C1292 C1288 1.385 . S
C1292 C1291 1.374 . S
C1293 C1290 1.499 . S
C1293 C1294 1.373 . S
C1293 C1295 1.389 . S
C1294 H1267 0.950 . S
C1294 C1280 1.377 . S
C1294 C1293 1.373 . S
C1295 C1279 1.377 . S
C1295 C1293 1.389 . S
C1295 C1296 1.524 . S
C1296 C1295 1.524 . S
C1296 C1297 1.397 . S
C1296 C1301 1.363 . S
C1297 H1268 0.950 . S
C1297 C1296 1.397 . S
C1297 C1298 1.334 . S
C1298 H1269 0.950 . S
C1298 C1297 1.334 . S
C1298 C1299 1.287 . S
C1299 C1298 1.287 . S
C1299 C1300 1.524 . S
C1299 H1302 0.999 . S
C1300 H1270 0.950 . S
C1300 C1299 1.524 . S
C1300 C1301 1.415 . S
C1301 H1271 0.950 . S
C1301 C1296 1.363 . S
C1301 C1300 1.415 . S
H1302 C1299 0.999 . S
H1303 C1284 0.913 . S
H1304 C1322 0.951 . S
H1305 C1324 0.951 . S
H1306 C1326 0.950 . S
H1307 C1327 0.950 . S
H1308 C1329 0.950 . S
H1309 C1332 0.950 . S
H1310 C1333 0.950 . S
H1311 C1335 0.950 . S
H1312 C1336 0.950 . S
H1313 C1337 0.951 . S
H1314 C1339 0.951 . S
H1315 C1341 0.950 . S
H1316 C1342 0.950 . S
H1317 C1344 0.950 . S
H1318 C1347 0.950 . S
H1319 C1348 0.950 . S
H1320 C1350 0.950 . S
H1321 C1351 0.950 . S
C1322 H1304 0.951 . S
C1322 C1323 1.366 . S
C1322 C1324 1.388 . S
C1323 C1322 1.366 . S
C1323 C1327 1.385 . S
C1324 H1305 0.951 . S
C1324 C1322 1.388 . S
C1324 C1325 1.366 . S
C1325 C1324 1.366 . S
C1325 C1326 1.414 . S
C1325 C1328 1.499 . S
C1326 H1306 0.950 . S
C1326 C1325 1.414 . S
C1326 C1327 1.374 . S
C1327 H1307 0.950 . S
C1327 C1323 1.385 . S
C1327 C1326 1.374 . S
C1328 C1325 1.499 . S
C1328 C1329 1.373 . S
C1328 C1330 1.389 . S
C1329 H1308 0.950 . S
C1329 C1328 1.373 . S
C1329 C1345 1.377 . S
C1330 C1328 1.389 . S
C1330 C1331 1.524 . S
C1330 C1344 1.377 . S
C1331 C1330 1.524 . S
C1331 C1332 1.397 . S
C1331 C1336 1.363 . S
C1332 H1309 0.950 . S
C1332 C1331 1.397 . S
C1332 C1333 1.334 . S
C1333 H1310 0.950 . S
C1333 C1332 1.334 . S
C1333 C1334 1.287 . S
C1334 C1333 1.287 . S
C1334 C1335 1.524 . S
C1334 H1353 0.913 . S
C1335 H1311 0.950 . S
C1335 C1334 1.524 . S
C1335 C1336 1.415 . S
C1336 H1312 0.950 . S
C1336 C1331 1.363 . S
C1336 C1335 1.415 . S
C1337 H1313 0.951 . S
C1337 C1338 1.366 . S
C1337 C1339 1.388 . S
C1338 C1337 1.366 . S
C1338 C1342 1.385 . S
C1339 H1314 0.951 . S
C1339 C1337 1.388 . S
C1339 C1340 1.366 . S
C1340 C1339 1.366 . S
C1340 C1341 1.414 . S
C1340 C1343 1.499 . S
C1341 H1315 0.950 . S
C1341 C1340 1.414 . S
C1341 C1342 1.374 . S
C1342 H1316 0.950 . S
C1342 C1338 1.385 . S
C1342 C1341 1.374 . S
C1343 C1340 1.499 . S
C1343 C1344 1.373 . S
C1343 C1345 1.389 . S
C1344 H1317 0.950 . S
C1344 C1330 1.377 . S
C1344 C1343 1.373 . S
C1345 C1329 1.377 . S
C1345 C1343 1.389 . S
C1345 C1346 1.524 . S
C1346 C1345 1.524 . S
C1346 C1347 1.397 . S
C1346 C1351 1.363 . S
C1347 H1318 0.950 . S
C1347 C1346 1.397 . S
C1347 C1348 1.334 . S
C1348 H1319 0.950 . S
C1348 C1347 1.334 . S
C1348 C1349 1.287 . S
C1349 C1348 1.287 . S
C1349 C1350 1.524 . S
C1349 H1352 0.999 . S
C1350 H1320 0.950 . S
C1350 C1349 1.524 . S
C1350 C1351 1.415 . S
C1351 H1321 0.950 . S
C1351 C1346 1.363 . S
C1351 C1350 1.415 . S
H1352 C1349 0.999 . S
H1353 C1334 0.913 . S
H1354 C1372 0.951 . S
H1355 C1374 0.951 . S
H1356 C1376 0.950 . S
H1357 C1377 0.950 . S
H1358 C1379 0.950 . S
H1359 C1382 0.950 . S
H1360 C1383 0.950 . S
H1361 C1385 0.950 . S
H1362 C1386 0.950 . S
H1363 C1387 0.951 . S
H1364 C1389 0.951 . S
H1365 C1391 0.950 . S
H1366 C1392 0.950 . S
H1367 C1394 0.950 . S
H1368 C1397 0.950 . S
H1369 C1398 0.950 . S
H1370 C1400 0.950 . S
H1371 C1401 0.950 . S
C1372 H1354 0.951 . S
C1372 C1373 1.366 . S
C1372 C1374 1.388 . S
C1373 C1372 1.366 . S
C1373 C1377 1.385 . S
C1374 H1355 0.951 . S
C1374 C1372 1.388 . S
C1374 C1375 1.366 . S
C1375 C1374 1.366 . S
C1375 C1376 1.414 . S
C1375 C1378 1.499 . S
C1376 H1356 0.950 . S
C1376 C1375 1.414 . S
C1376 C1377 1.374 . S
C1377 H1357 0.950 . S
C1377 C1373 1.385 . S
C1377 C1376 1.374 . S
C1378 C1375 1.499 . S
C1378 C1379 1.373 . S
C1378 C1380 1.389 . S
C1379 H1358 0.950 . S
C1379 C1378 1.373 . S
C1379 C1395 1.377 . S
C1380 C1378 1.389 . S
C1380 C1381 1.524 . S
C1380 C1394 1.377 . S
C1381 C1380 1.524 . S
C1381 C1382 1.397 . S
C1381 C1386 1.363 . S
C1382 H1359 0.950 . S
C1382 C1381 1.397 . S
C1382 C1383 1.334 . S
C1383 H1360 0.950 . S
C1383 C1382 1.334 . S
C1383 C1384 1.287 . S
C1384 C1383 1.287 . S
C1384 C1385 1.524 . S
C1384 H1403 0.913 . S
C1385 H1361 0.950 . S
C1385 C1384 1.524 . S
C1385 C1386 1.415 . S
C1386 H1362 0.950 . S
C1386 C1381 1.363 . S
C1386 C1385 1.415 . S
C1387 H1363 0.951 . S
C1387 C1388 1.366 . S
C1387 C1389 1.388 . S
C1388 C1387 1.366 . S
C1388 C1392 1.385 . S
C1389 H1364 0.951 . S
C1389 C1387 1.388 . S
C1389 C1390 1.366 . S
C1390 C1389 1.366 . S
C1390 C1391 1.414 . S
C1390 C1393 1.499 . S
C1391 H1365 0.950 . S
C1391 C1390 1.414 . S
C1391 C1392 1.374 . S
C1392 H1366 0.950 . S
C1392 C1388 1.385 . S
C1392 C1391 1.374 . S
C1393 C1390 1.499 . S
C1393 C1394 1.373 . S
C1393 C1395 1.389 . S
C1394 H1367 0.950 . S
C1394 C1380 1.377 . S
C1394 C1393 1.373 . S
C1395 C1379 1.377 . S
C1395 C1393 1.389 . S
C1395 C1396 1.524 . S
C1396 C1395 1.524 . S
C1396 C1397 1.397 . S
C1396 C1401 1.363 . S
C1397 H1368 0.950 . S
C1397 C1396 1.397 . S
C1397 C1398 1.334 . S
C1398 H1369 0.950 . S
C1398 C1397 1.334 . S
C1398 C1399 1.287 . S
C1399 C1398 1.287 . S
C1399 C1400 1.524 . S
C1399 H1402 0.999 . S
C1400 H1370 0.950 . S
C1400 C1399 1.524 . S
C1400 C1401 1.415 . S
C1401 H1371 0.950 . S
C1401 C1396 1.363 . S
C1401 C1400 1.415 . S
H1402 C1399 0.999 . S
H1403 C1384 0.913 . S
H1404 C1422 0.951 . S
H1405 C1424 0.951 . S
H1406 C1426 0.950 . S
H1407 C1427 0.950 . S
H1408 C1429 0.950 . S
H1409 C1432 0.950 . S
H1410 C1433 0.950 . S
H1411 C1435 0.950 . S
H1412 C1436 0.950 . S
H1413 C1437 0.951 . S
H1414 C1439 0.951 . S
H1415 C1441 0.950 . S
H1416 C1442 0.950 . S
H1417 C1444 0.950 . S
H1418 C1447 0.950 . S
H1419 C1448 0.950 . S
H1420 C1450 0.950 . S
H1421 C1451 0.950 . S
C1422 H1404 0.951 . S
C1422 C1423 1.366 . S
C1422 C1424 1.388 . S
C1423 C1422 1.366 . S
C1423 C1427 1.385 . S
C1424 H1405 0.951 . S
C1424 C1422 1.388 . S
C1424 C1425 1.366 . S
C1425 C1424 1.366 . S
C1425 C1426 1.414 . S
C1425 C1428 1.499 . S
C1426 H1406 0.950 . S
C1426 C1425 1.414 . S
C1426 C1427 1.374 . S
C1427 H1407 0.950 . S
C1427 C1423 1.385 . S
C1427 C1426 1.374 . S
C1428 C1425 1.499 . S
C1428 C1429 1.373 . S
C1428 C1430 1.389 . S
C1429 H1408 0.950 . S
C1429 C1428 1.373 . S
C1429 C1445 1.377 . S
C1430 C1428 1.389 . S
C1430 C1431 1.524 . S
C1430 C1444 1.377 . S
C1431 C1430 1.524 . S
C1431 C1432 1.397 . S
C1431 C1436 1.363 . S
C1432 H1409 0.950 . S
C1432 C1431 1.397 . S
C1432 C1433 1.334 . S
C1433 H1410 0.950 . S
C1433 C1432 1.334 . S
C1433 C1434 1.287 . S
C1434 C1433 1.287 . S
C1434 C1435 1.524 . S
C1434 H1453 0.913 . S
C1435 H1411 0.950 . S
C1435 C1434 1.524 . S
C1435 C1436 1.415 . S
C1436 H1412 0.950 . S
C1436 C1431 1.363 . S
C1436 C1435 1.415 . S
C1437 H1413 0.951 . S
C1437 C1438 1.366 . S
C1437 C1439 1.388 . S
C1438 C1437 1.366 . S
C1438 C1442 1.385 . S
C1439 H1414 0.951 . S
C1439 C1437 1.388 . S
C1439 C1440 1.366 . S
C1440 C1439 1.366 . S
C1440 C1441 1.414 . S
C1440 C1443 1.499 . S
C1441 H1415 0.950 . S
C1441 C1440 1.414 . S
C1441 C1442 1.374 . S
C1442 H1416 0.950 . S
C1442 C1438 1.385 . S
C1442 C1441 1.374 . S
C1443 C1440 1.499 . S
C1443 C1444 1.373 . S
C1443 C1445 1.389 . S
C1444 H1417 0.950 . S
C1444 C1430 1.377 . S
C1444 C1443 1.373 . S
C1445 C1429 1.377 . S
C1445 C1443 1.389 . S
C1445 C1446 1.524 . S
C1446 C1445 1.524 . S
C1446 C1447 1.397 . S
C1446 C1451 1.363 . S
C1447 H1418 0.950 . S
C1447 C1446 1.397 . S
C1447 C1448 1.334 . S
C1448 H1419 0.950 . S
C1448 C1447 1.334 . S
C1448 C1449 1.287 . S
C1449 C1448 1.287 . S
C1449 C1450 1.524 . S
C1449 H1452 0.999 . S
C1450 H1420 0.950 . S
C1450 C1449 1.524 . S
C1450 C1451 1.415 . S
C1451 H1421 0.950 . S
C1451 C1446 1.363 . S
C1451 C1450 1.415 . S
H1452 C1449 0.999 . S
H1453 C1434 0.913 . S
H1454 C1472 0.951 . S
H1455 C1474 0.951 . S
H1456 C1476 0.950 . S
H1457 C1477 0.950 . S
H1458 C1479 0.950 . S
H1459 C1482 0.950 . S
H1460 C1483 0.950 . S
H1461 C1485 0.950 . S
H1462 C1486 0.950 . S
H1463 C1487 0.951 . S
H1464 C1489 0.951 . S
H1465 C1491 0.950 . S
H1466 C1492 0.950 . S
H1467 C1494 0.950 . S
H1468 C1497 0.950 . S
H1469 C1498 0.950 . S
H1470 C1500 0.950 . S
H1471 C1501 0.950 . S
C1472 H1454 0.951 . S
C1472 C1473 1.366 . S
C1472 C1474 1.388 . S
C1473 C1472 1.366 . S
C1473 C1477 1.385 . S
C1474 H1455 0.951 . S
C1474 C1472 1.388 . S
C1474 C1475 1.366 . S
C1475 C1474 1.366 . S
C1475 C1476 1.414 . S
C1475 C1478 1.499 . S
C1476 H1456 0.950 . S
C1476 C1475 1.414 . S
C1476 C1477 1.374 . S
C1477 H1457 0.950 . S
C1477 C1473 1.385 . S
C1477 C1476 1.374 . S
C1478 C1475 1.499 . S
C1478 C1479 1.373 . S
C1478 C1480 1.389 . S
C1479 H1458 0.950 . S
C1479 C1478 1.373 . S
C1479 C1495 1.377 . S
C1480 C1478 1.389 . S
C1480 C1481 1.524 . S
C1480 C1494 1.377 . S
C1481 C1480 1.524 . S
C1481 C1482 1.397 . S
C1481 C1486 1.363 . S
C1482 H1459 0.950 . S
C1482 C1481 1.397 . S
C1482 C1483 1.334 . S
C1483 H1460 0.950 . S
C1483 C1482 1.334 . S
C1483 C1484 1.287 . S
C1484 C1483 1.287 . S
C1484 C1485 1.524 . S
C1484 H1503 0.913 . S
C1485 H1461 0.950 . S
C1485 C1484 1.524 . S
C1485 C1486 1.415 . S
C1486 H1462 0.950 . S
C1486 C1481 1.363 . S
C1486 C1485 1.415 . S
C1487 H1463 0.951 . S
C1487 C1488 1.366 . S
C1487 C1489 1.388 . S
C1488 C1487 1.366 . S
C1488 C1492 1.385 . S
C1489 H1464 0.951 . S
C1489 C1487 1.388 . S
C1489 C1490 1.366 . S
C1490 C1489 1.366 . S
C1490 C1491 1.414 . S
C1490 C1493 1.499 . S
C1491 H1465 0.950 . S
C1491 C1490 1.414 . S
C1491 C1492 1.374 . S
C1492 H1466 0.950 . S
C1492 C1488 1.385 . S
C1492 C1491 1.374 . S
C1493 C1490 1.499 . S
C1493 C1494 1.373 . S
C1493 C1495 1.389 . S
C1494 H1467 0.950 . S
C1494 C1480 1.377 . S
C1494 C1493 1.373 . S
C1495 C1479 1.377 . S
C1495 C1493 1.389 . S
C1495 C1496 1.524 . S
C1496 C1495 1.524 . S
C1496 C1497 1.397 . S
C1496 C1501 1.363 . S
C1497 H1468 0.950 . S
C1497 C1496 1.397 . S
C1497 C1498 1.334 . S
C1498 H1469 0.950 . S
C1498 C1497 1.334 . S
C1498 C1499 1.287 . S
C1499 C1498 1.287 . S
C1499 C1500 1.524 . S
C1499 H1502 0.999 . S
C1500 H1470 0.950 . S
C1500 C1499 1.524 . S
C1500 C1501 1.415 . S
C1501 H1471 0.950 . S
C1501 C1496 1.363 . S
C1501 C1500 1.415 . S
H1502 C1499 0.999 . S
H1503 C1484 0.913 . S
H1504 C1522 0.951 . S
H1505 C1524 0.951 . S
H1506 C1526 0.950 . S
H1507 C1527 0.950 . S
H1508 C1529 0.950 . S
H1509 C1532 0.950 . S
H1510 C1533 0.950 . S
H1511 C1535 0.950 . S
H1512 C1536 0.950 . S
H1513 C1537 0.951 . S
H1514 C1539 0.951 . S
H1515 C1541 0.950 . S
H1516 C1542 0.950 . S
H1517 C1544 0.950 . S
H1518 C1547 0.950 . S
H1519 C1548 0.950 . S
H1520 C1550 0.950 . S
H1521 C1551 0.950 . S
C1522 H1504 0.951 . S
C1522 C1523 1.366 . S
C1522 C1524 1.388 . S
C1523 C1522 1.366 . S
C1523 C1527 1.385 . S
C1524 H1505 0.951 . S
C1524 C1522 1.388 . S
C1524 C1525 1.366 . S
C1525 C1524 1.366 . S
C1525 C1526 1.414 . S
C1525 C1528 1.499 . S
C1526 H1506 0.950 . S
C1526 C1525 1.414 . S
C1526 C1527 1.374 . S
C1527 H1507 0.950 . S
C1527 C1523 1.385 . S
C1527 C1526 1.374 . S
C1528 C1525 1.499 . S
C1528 C1529 1.373 . S
C1528 C1530 1.389 . S
C1529 H1508 0.950 . S
C1529 C1528 1.373 . S
C1529 C1545 1.377 . S
C1530 C1528 1.389 . S
C1530 C1531 1.524 . S
C1530 C1544 1.377 . S
C1531 C1530 1.524 . S
C1531 C1532 1.397 . S
C1531 C1536 1.363 . S
C1532 H1509 0.950 . S
C1532 C1531 1.397 . S
C1532 C1533 1.334 . S
C1533 H1510 0.950 . S
C1533 C1532 1.334 . S
C1533 C1534 1.287 . S
C1534 C1533 1.287 . S
C1534 C1535 1.524 . S
C1534 H1553 0.913 . S
C1535 H1511 0.950 . S
C1535 C1534 1.524 . S
C1535 C1536 1.415 . S
C1536 H1512 0.950 . S
C1536 C1531 1.363 . S
C1536 C1535 1.415 . S
C1537 H1513 0.951 . S
C1537 C1538 1.366 . S
C1537 C1539 1.388 . S
C1538 C1537 1.366 . S
C1538 C1542 1.385 . S
C1539 H1514 0.951 . S
C1539 C1537 1.388 . S
C1539 C1540 1.366 . S
C1540 C1539 1.366 . S
C1540 C1541 1.414 . S
C1540 C1543 1.499 . S
C1541 H1515 0.950 . S
C1541 C1540 1.414 . S
C1541 C1542 1.374 . S
C1542 H1516 0.950 . S
C1542 C1538 1.385 . S
C1542 C1541 1.374 . S
C1543 C1540 1.499 . S
C1543 C1544 1.373 . S
C1543 C1545 1.389 . S
C1544 H1517 0.950 . S
C1544 C1530 1.377 . S
C1544 C1543 1.373 . S
C1545 C1529 1.377 . S
C1545 C1543 1.389 . S
C1545 C1546 1.524 . S
C1546 C1545 1.524 . S
C1546 C1547 1.397 . S
C1546 C1551 1.363 . S
C1547 H1518 0.950 . S
C1547 C1546 1.397 . S
C1547 C1548 1.334 . S
C1548 H1519 0.950 . S
C1548 C1547 1.334 . S
C1548 C1549 1.287 . S
C1549 C1548 1.287 . S
C1549 C1550 1.524 . S
C1549 H1552 0.999 . S
C1550 H1520 0.950 . S
C1550 C1549 1.524 . S
C1550 C1551 1.415 . S
C1551 H1521 0.950 . S
C1551 C1546 1.363 . S
C1551 C1550 1.415 . S
H1552 C1549 0.999 . S
H1553 C1534 0.913 . S
H1554 C1572 0.951 . S
H1555 C1574 0.951 . S
H1556 C1576 0.950 . S
H1557 C1577 0.950 . S
H1558 C1579 0.950 . S
H1559 C1582 0.950 . S
H1560 C1583 0.950 . S
H1561 C1585 0.950 . S
H1562 C1586 0.950 . S
H1563 C1587 0.951 . S
H1564 C1589 0.951 . S
H1565 C1591 0.950 . S
H1566 C1592 0.950 . S
H1567 C1594 0.950 . S
H1568 C1597 0.950 . S
H1569 C1598 0.950 . S
H1570 C1600 0.950 . S
H1571 C1601 0.950 . S
C1572 H1554 0.951 . S
C1572 C1573 1.366 . S
C1572 C1574 1.388 . S
C1573 C1572 1.366 . S
C1573 C1577 1.385 . S
C1574 H1555 0.951 . S
C1574 C1572 1.388 . S
C1574 C1575 1.366 . S
C1575 C1574 1.366 . S
C1575 C1576 1.414 . S
C1575 C1578 1.499 . S
C1576 H1556 0.950 . S
C1576 C1575 1.414 . S
C1576 C1577 1.374 . S
C1577 H1557 0.950 . S
C1577 C1573 1.385 . S
C1577 C1576 1.374 . S
C1578 C1575 1.499 . S
C1578 C1579 1.373 . S
C1578 C1580 1.389 . S
C1579 H1558 0.950 . S
C1579 C1578 1.373 . S
C1579 C1595 1.377 . S
C1580 C1578 1.389 . S
C1580 C1581 1.524 . S
C1580 C1594 1.377 . S
C1581 C1580 1.524 . S
C1581 C1582 1.397 . S
C1581 C1586 1.363 . S
C1582 H1559 0.950 . S
C1582 C1581 1.397 . S
C1582 C1583 1.334 . S
C1583 H1560 0.950 . S
C1583 C1582 1.334 . S
C1583 C1584 1.287 . S
C1584 C1583 1.287 . S
C1584 C1585 1.524 . S
C1584 H1603 0.913 . S
C1585 H1561 0.950 . S
C1585 C1584 1.524 . S
C1585 C1586 1.415 . S
C1586 H1562 0.950 . S
C1586 C1581 1.363 . S
C1586 C1585 1.415 . S
C1587 H1563 0.951 . S
C1587 C1588 1.366 . S
C1587 C1589 1.388 . S
C1588 C1587 1.366 . S
C1588 C1592 1.385 . S
C1589 H1564 0.951 . S
C1589 C1587 1.388 . S
C1589 C1590 1.366 . S
C1590 C1589 1.366 . S
C1590 C1591 1.414 . S
C1590 C1593 1.499 . S
C1591 H1565 0.950 . S
C1591 C1590 1.414 . S
C1591 C1592 1.374 . S
C1592 H1566 0.950 . S
C1592 C1588 1.385 . S
C1592 C1591 1.374 . S
C1593 C1590 1.499 . S
C1593 C1594 1.373 . S
C1593 C1595 1.389 . S
C1594 H1567 0.950 . S
C1594 C1580 1.377 . S
C1594 C1593 1.373 . S
C1595 C1579 1.377 . S
C1595 C1593 1.389 . S
C1595 C1596 1.524 . S
C1596 C1595 1.524 . S
C1596 C1597 1.397 . S
C1596 C1601 1.363 . S
C1597 H1568 0.950 . S
C1597 C1596 1.397 . S
C1597 C1598 1.334 . S
C1598 H1569 0.950 . S
C1598 C1597 1.334 . S
C1598 C1599 1.287 . S
C1599 C1598 1.287 . S
C1599 C1600 1.524 . S
C1599 H1602 0.999 . S
C1600 H1570 0.950 . S
C1600 C1599 1.524 . S
C1600 C1601 1.415 . S
C1601 H1571 0.950 . S
C1601 C1596 1.363 . S
C1601 C1600 1.415 . S
H1602 C1599 0.999 . S
H1603 C1584 0.913 . S
H1604 C1622 0.951 . S
H1605 C1624 0.951 . S
H1606 C1626 0.950 . S
H1607 C1627 0.950 . S
H1608 C1629 0.950 . S
H1609 C1632 0.950 . S
H1610 C1633 0.950 . S
H1611 C1635 0.950 . S
H1612 C1636 0.950 1_556 S
H1613 C1637 0.951 . S
H1614 C1639 0.951 . S
H1615 C1641 0.950 . S
H1616 C1642 0.950 . S
H1617 C1644 0.950 1_556 S
H1618 C1647 0.950 . S
H1619 C1648 0.950 . S
H1620 C1650 0.950 . S
H1621 C1651 0.950 . S
C1622 H1604 0.951 . S
C1622 C1623 1.366 . S
C1622 C1624 1.388 . S
C1623 C1622 1.366 . S
C1623 C1627 1.385 . S
C1624 H1605 0.951 . S
C1624 C1622 1.388 . S
C1624 C1625 1.366 . S
C1625 C1624 1.366 . S
C1625 C1626 1.414 . S
C1625 C1628 1.499 . S
C1626 H1606 0.950 . S
C1626 C1625 1.414 . S
C1626 C1627 1.374 . S
C1627 H1607 0.950 . S
C1627 C1623 1.385 . S
C1627 C1626 1.374 . S
C1628 C1625 1.499 . S
C1628 C1629 1.373 . S
C1628 C1630 1.389 . S
C1629 H1608 0.950 . S
C1629 C1628 1.373 . S
C1629 C1645 1.377 . S
C1630 C1628 1.389 . S
C1630 C1631 1.524 . S
C1630 C1644 1.377 . S
C1631 C1630 1.524 . S
C1631 C1632 1.397 . S
C1631 C1636 1.363 . S
C1632 H1609 0.950 . S
C1632 C1631 1.397 . S
C1632 C1633 1.334 . S
C1633 H1610 0.950 . S
C1633 C1632 1.334 . S
C1633 C1634 1.287 . S
C1634 C1633 1.287 . S
C1634 C1635 1.524 . S
C1634 H1653 0.913 . S
C1635 H1611 0.950 . S
C1635 C1634 1.524 . S
C1635 C1636 1.415 . S
C1636 H1612 0.950 1_554 S
C1636 C1631 1.363 . S
C1636 C1635 1.415 . S
C1637 H1613 0.951 . S
C1637 C1638 1.366 . S
C1637 C1639 1.388 . S
C1638 C1637 1.366 . S
C1638 C1642 1.385 . S
C1639 H1614 0.951 . S
C1639 C1637 1.388 . S
C1639 C1640 1.366 . S
C1640 C1639 1.366 . S
C1640 C1641 1.414 . S
C1640 C1643 1.499 . S
C1641 H1615 0.950 . S
C1641 C1640 1.414 . S
C1641 C1642 1.374 . S
C1642 H1616 0.950 . S
C1642 C1638 1.385 . S
C1642 C1641 1.374 . S
C1643 C1640 1.499 . S
C1643 C1644 1.373 1_556 S
C1643 C1645 1.389 1_556 S
C1644 H1617 0.950 1_554 S
C1644 C1630 1.377 . S
C1644 C1643 1.373 1_554 S
C1645 C1629 1.377 . S
C1645 C1643 1.389 1_554 S
C1645 C1646 1.524 . S
C1646 C1645 1.524 . S
C1646 C1647 1.397 1_554 S
C1646 C1651 1.363 . S
C1647 H1618 0.950 . S
C1647 C1646 1.397 1_556 S
C1647 C1648 1.334 . S
C1648 H1619 0.950 . S
C1648 C1647 1.334 . S
C1648 C1649 1.287 . S
C1649 C1648 1.287 . S
C1649 C1650 1.524 1_556 S
C1649 H1652 0.999 . S
C1650 H1620 0.950 . S
C1650 C1649 1.524 1_554 S
C1650 C1651 1.415 . S
C1651 H1621 0.950 . S
C1651 C1646 1.363 . S
C1651 C1650 1.415 . S
H1652 C1649 0.999 . S
H1653 C1634 0.913 . S
H1654 C1672 0.951 . S
H1655 C1674 0.951 . S
H1656 C1676 0.950 . S
H1657 C1677 0.950 . S
H1658 C1679 0.950 . S
H1659 C1682 0.950 . S
H1660 C1683 0.950 . S
H1661 C1685 0.950 . S
H1662 C1686 0.950 . S
H1663 C1687 0.951 . S
H1664 C1689 0.951 . S
H1665 C1691 0.950 . S
H1666 C1692 0.950 . S
H1667 C1694 0.950 . S
H1668 C1697 0.950 . S
H1669 C1698 0.950 . S
H1670 C1700 0.950 . S
H1671 C1701 0.950 . S
C1672 H1654 0.951 . S
C1672 C1673 1.366 . S
C1672 C1674 1.388 . S
C1673 C1672 1.366 . S
C1673 C1677 1.385 . S
C1674 H1655 0.951 . S
C1674 C1672 1.388 . S
C1674 C1675 1.366 . S
C1675 C1674 1.366 . S
C1675 C1676 1.414 . S
C1675 C1678 1.499 . S
C1676 H1656 0.950 . S
C1676 C1675 1.414 . S
C1676 C1677 1.374 . S
C1677 H1657 0.950 . S
C1677 C1673 1.385 . S
C1677 C1676 1.374 . S
C1678 C1675 1.499 . S
C1678 C1679 1.373 . S
C1678 C1680 1.389 . S
C1679 H1658 0.950 . S
C1679 C1678 1.373 . S
C1679 C1695 1.377 . S
C1680 C1678 1.389 . S
C1680 C1681 1.524 . S
C1680 C1694 1.377 . S
C1681 C1680 1.524 . S
C1681 C1682 1.397 . S
C1681 C1686 1.363 . S
C1682 H1659 0.950 . S
C1682 C1681 1.397 . S
C1682 C1683 1.334 . S
C1683 H1660 0.950 . S
C1683 C1682 1.334 . S
C1683 C1684 1.287 . S
C1684 C1683 1.287 . S
C1684 C1685 1.524 . S
C1684 H1703 0.913 . S
C1685 H1661 0.950 . S
C1685 C1684 1.524 . S
C1685 C1686 1.415 . S
C1686 H1662 0.950 . S
C1686 C1681 1.363 . S
C1686 C1685 1.415 . S
C1687 H1663 0.951 . S
C1687 C1688 1.366 . S
C1687 C1689 1.388 . S
C1688 C1687 1.366 . S
C1688 C1692 1.385 . S
C1689 H1664 0.951 . S
C1689 C1687 1.388 . S
C1689 C1690 1.366 . S
C1690 C1689 1.366 . S
C1690 C1691 1.414 . S
C1690 C1693 1.499 . S
C1691 H1665 0.950 . S
C1691 C1690 1.414 . S
C1691 C1692 1.374 . S
C1692 H1666 0.950 . S
C1692 C1688 1.385 . S
C1692 C1691 1.374 . S
C1693 C1690 1.499 . S
C1693 C1694 1.373 . S
C1693 C1695 1.389 . S
C1694 H1667 0.950 . S
C1694 C1680 1.377 . S
C1694 C1693 1.373 . S
C1695 C1679 1.377 . S
C1695 C1693 1.389 . S
C1695 C1696 1.524 . S
C1696 C1695 1.524 . S
C1696 C1697 1.397 . S
C1696 C1701 1.363 . S
C1697 H1668 0.950 . S
C1697 C1696 1.397 . S
C1697 C1698 1.334 . S
C1698 H1669 0.950 . S
C1698 C1697 1.334 . S
C1698 C1699 1.287 . S
C1699 C1698 1.287 . S
C1699 C1700 1.524 . S
C1699 H1702 0.999 . S
C1700 H1670 0.950 . S
C1700 C1699 1.524 . S
C1700 C1701 1.415 . S
C1701 H1671 0.950 . S
C1701 C1696 1.363 . S
C1701 C1700 1.415 . S
H1702 C1699 0.999 . S
H1703 C1684 0.913 . S
C538 C471 1.608 . S
C523 C45 1.610 . S
C573 C84 1.644 . S
C588 C291 1.650 . S
C623 C126 1.585 . S
C638 C338 1.585 . S
C673 C189 1.555 . S
C688 C374 1.521 . S
C738 C399 1.588 . S
C723 C228 1.583 . S
C773 C270 1.568 . S
C788 C435 1.597 . S
C823 C69 1.621 . S
C838 C327 1.640 . S
C873 C141 1.589 . S
C888 C363 1.587 . S
C923 C174 1.519 . S
C938 C410 1.512 . S
C988 C446 1.560 . S
C973 C213 1.574 . S
C1038 C482 1.567 . S
C1023 C285 1.599 . S
C1088 C302 1.585 . S
C1073 C30 1.584 . S
C1123 C36 1.487 . S
C1138 C326 1.475 . S
C1173 C93 1.501 . S
C1188 C362 1.493 . S
C1238 C400 1.498 . S
C1223 C117 1.502 . S
C1273 C180 1.505 . S
C1288 C436 1.499 . S
C1338 C472 1.466 . S
C1323 C237 1.471 . S
C1388 C292 1.452 . S
C1373 C261 1.456 . S
C1438 C470 1.470 . S
C1423 C78 1.477 . S
C1473 C132 1.483 . S
C1488 C290 1.471 . S
C1538 C328 1.477 . S
C1523 C165 1.480 . S
C1573 C222 1.491 . S
C1588 C364 1.493 . S
C1623 C276 1.533 . S
C1638 C398 1.522 . S
C1673 C21 1.509 . S
C1688 C434 1.500 . S
