# Generated by pormake.
# Topology ctn, (3,4)-cn, num edge types: 1
# Building blocks:
#     Node 0, Type 0, BuildingBlock: BETDIP_clean_linker_0, # of connection points: 3
#     Node 1, Type 0, BuildingBlock: BETDIP_clean_linker_0, # of connection points: 3
#     Node 2, Type 0, BuildingBlock: BETDIP_clean_linker_0, # of connection points: 3
#     Node 3, Type 0, BuildingBlock: BETDIP_clean_linker_0, # of connection points: 3
#     Node 4, Type 0, BuildingBlock: BETDIP_clean_linker_0, # of connection points: 3
#     Node 5, Type 0, BuildingBlock: BETDIP_clean_linker_0, # of connection points: 3
#     Node 6, Type 0, BuildingBlock: BETDIP_clean_linker_0, # of connection points: 3
#     Node 7, Type 0, BuildingBlock: BETDIP_clean_linker_0, # of connection points: 3
#     Node 8, Type 0, BuildingBlock: BETDIP_clean_linker_0, # of connection points: 3
#     Node 9, Type 0, BuildingBlock: BETDIP_clean_linker_0, # of connection points: 3
#     Node 10, Type 0, BuildingBlock: BETDIP_clean_linker_0, # of connection points: 3
#     Node 11, Type 0, BuildingBlock: BETDIP_clean_linker_0, # of connection points: 3
#     Node 12, Type 0, BuildingBlock: BETDIP_clean_linker_0, # of connection points: 3
#     Node 13, Type 0, BuildingBlock: BETDIP_clean_linker_0, # of connection points: 3
#     Node 14, Type 0, BuildingBlock: BETDIP_clean_linker_0, # of connection points: 3
#     Node 15, Type 0, BuildingBlock: BETDIP_clean_linker_0, # of connection points: 3
#     Node 16, Type 1, BuildingBlock: KUFVIS_clean_sbu_0, # of connection points: 4
#     Node 17, Type 1, BuildingBlock: KUFVIS_clean_sbu_0, # of connection points: 4
#     Node 18, Type 1, BuildingBlock: KUFVIS_clean_sbu_0, # of connection points: 4
#     Node 19, Type 1, BuildingBlock: KUFVIS_clean_sbu_0, # of connection points: 4
#     Node 20, Type 1, BuildingBlock: KUFVIS_clean_sbu_0, # of connection points: 4
#     Node 21, Type 1, BuildingBlock: KUFVIS_clean_sbu_0, # of connection points: 4
#     Node 22, Type 1, BuildingBlock: KUFVIS_clean_sbu_0, # of connection points: 4
#     Node 23, Type 1, BuildingBlock: KUFVIS_clean_sbu_0, # of connection points: 4
#     Node 24, Type 1, BuildingBlock: KUFVIS_clean_sbu_0, # of connection points: 4
#     Node 25, Type 1, BuildingBlock: KUFVIS_clean_sbu_0, # of connection points: 4
#     Node 26, Type 1, BuildingBlock: KUFVIS_clean_sbu_0, # of connection points: 4
#     Node 27, Type 1, BuildingBlock: KUFVIS_clean_sbu_0, # of connection points: 4
#     Edge 28, Type (0, 1), BuildingBlock: KIFKEQ_clean_linker_1, # of connection points: 2
#     Edge 29, Type (0, 1), BuildingBlock: KIFKEQ_clean_linker_1, # of connection points: 2
#     Edge 30, Type (0, 1), BuildingBlock: KIFKEQ_clean_linker_1, # of connection points: 2
#     Edge 31, Type (0, 1), BuildingBlock: KIFKEQ_clean_linker_1, # of connection points: 2
#     Edge 32, Type (0, 1), BuildingBlock: KIFKEQ_clean_linker_1, # of connection points: 2
#     Edge 33, Type (0, 1), BuildingBlock: KIFKEQ_clean_linker_1, # of connection points: 2
#     Edge 34, Type (0, 1), BuildingBlock: KIFKEQ_clean_linker_1, # of connection points: 2
#     Edge 35, Type (0, 1), BuildingBlock: KIFKEQ_clean_linker_1, # of connection points: 2
#     Edge 36, Type (0, 1), BuildingBlock: KIFKEQ_clean_linker_1, # of connection points: 2
#     Edge 37, Type (0, 1), BuildingBlock: KIFKEQ_clean_linker_1, # of connection points: 2
#     Edge 38, Type (0, 1), BuildingBlock: KIFKEQ_clean_linker_1, # of connection points: 2
#     Edge 39, Type (0, 1), BuildingBlock: KIFKEQ_clean_linker_1, # of connection points: 2
#     Edge 40, Type (0, 1), BuildingBlock: KIFKEQ_clean_linker_1, # of connection points: 2
#     Edge 41, Type (0, 1), BuildingBlock: KIFKEQ_clean_linker_1, # of connection points: 2
#     Edge 42, Type (0, 1), BuildingBlock: KIFKEQ_clean_linker_1, # of connection points: 2
#     Edge 43, Type (0, 1), BuildingBlock: KIFKEQ_clean_linker_1, # of connection points: 2
#     Edge 44, Type (0, 1), BuildingBlock: KIFKEQ_clean_linker_1, # of connection points: 2
#     Edge 45, Type (0, 1), BuildingBlock: KIFKEQ_clean_linker_1, # of connection points: 2
#     Edge 46, Type (0, 1), BuildingBlock: KIFKEQ_clean_linker_1, # of connection points: 2
#     Edge 47, Type (0, 1), BuildingBlock: KIFKEQ_clean_linker_1, # of connection points: 2
#     Edge 48, Type (0, 1), BuildingBlock: KIFKEQ_clean_linker_1, # of connection points: 2
#     Edge 49, Type (0, 1), BuildingBlock: KIFKEQ_clean_linker_1, # of connection points: 2
#     Edge 50, Type (0, 1), BuildingBlock: KIFKEQ_clean_linker_1, # of connection points: 2
#     Edge 51, Type (0, 1), BuildingBlock: KIFKEQ_clean_linker_1, # of connection points: 2
#     Edge 52, Type (0, 1), BuildingBlock: KIFKEQ_clean_linker_1, # of connection points: 2
#     Edge 53, Type (0, 1), BuildingBlock: KIFKEQ_clean_linker_1, # of connection points: 2
#     Edge 54, Type (0, 1), BuildingBlock: KIFKEQ_clean_linker_1, # of connection points: 2
#     Edge 55, Type (0, 1), BuildingBlock: KIFKEQ_clean_linker_1, # of connection points: 2
#     Edge 56, Type (0, 1), BuildingBlock: KIFKEQ_clean_linker_1, # of connection points: 2
#     Edge 57, Type (0, 1), BuildingBlock: KIFKEQ_clean_linker_1, # of connection points: 2
#     Edge 58, Type (0, 1), BuildingBlock: KIFKEQ_clean_linker_1, # of connection points: 2
#     Edge 59, Type (0, 1), BuildingBlock: KIFKEQ_clean_linker_1, # of connection points: 2
#     Edge 60, Type (0, 1), BuildingBlock: KIFKEQ_clean_linker_1, # of connection points: 2
#     Edge 61, Type (0, 1), BuildingBlock: KIFKEQ_clean_linker_1, # of connection points: 2
#     Edge 62, Type (0, 1), BuildingBlock: KIFKEQ_clean_linker_1, # of connection points: 2
#     Edge 63, Type (0, 1), BuildingBlock: KIFKEQ_clean_linker_1, # of connection points: 2
#     Edge 64, Type (0, 1), BuildingBlock: KIFKEQ_clean_linker_1, # of connection points: 2
#     Edge 65, Type (0, 1), BuildingBlock: KIFKEQ_clean_linker_1, # of connection points: 2
#     Edge 66, Type (0, 1), BuildingBlock: KIFKEQ_clean_linker_1, # of connection points: 2
#     Edge 67, Type (0, 1), BuildingBlock: KIFKEQ_clean_linker_1, # of connection points: 2
#     Edge 68, Type (0, 1), BuildingBlock: KIFKEQ_clean_linker_1, # of connection points: 2
#     Edge 69, Type (0, 1), BuildingBlock: KIFKEQ_clean_linker_1, # of connection points: 2
#     Edge 70, Type (0, 1), BuildingBlock: KIFKEQ_clean_linker_1, # of connection points: 2
#     Edge 71, Type (0, 1), BuildingBlock: KIFKEQ_clean_linker_1, # of connection points: 2
#     Edge 72, Type (0, 1), BuildingBlock: KIFKEQ_clean_linker_1, # of connection points: 2
#     Edge 73, Type (0, 1), BuildingBlock: KIFKEQ_clean_linker_1, # of connection points: 2
#     Edge 74, Type (0, 1), BuildingBlock: KIFKEQ_clean_linker_1, # of connection points: 2
#     Edge 75, Type (0, 1), BuildingBlock: KIFKEQ_clean_linker_1, # of connection points: 2
# Relax obj value: 0.079
# Max RMSD: 0.188
# Mean RMSD: 0.122
data_MOF--net-ctn--node1-KUFVIS_clean_sbu_0--node2-BETDIP_clean_linker_0--edge1-KIFKEQ_clean_linker_1
_symmetry_space_group_name_H-M    P1
_symmetry_Int_Tables_number       1
_symmetry_cell_setting            triclinic
loop_
_symmetry_equiv_pos_as_xyz
'x, y, z'
_cell_length_a     52.302345
_cell_length_b     52.535374
_cell_length_c     57.942193
_cell_angle_alpha  94.446612
_cell_angle_beta   94.015098
_cell_angle_gamma 94.40564
loop_
_atom_site_label
_atom_site_type_symbol
_atom_site_fract_x
_atom_site_fract_y
_atom_site_fract_z
_atom_type_partial_charge
H0 H 0.03707 0.06588 0.07479 0.0
H1 H 0.0928 0.0426 0.02821 0.0
H2 H 0.08506 0.00563 0.09124 0.0
H3 H 0.06828 0.05942 1.00211 0.0
C4 C 0.06007 0.07542 0.01102 0.0
C5 C 0.05225 0.05378 0.07058 0.0
C6 C 0.05954 0.03539 0.08565 0.0
C7 C 0.06371 0.05624 0.04965 0.0
C8 C 0.08343 0.04057 0.04406 0.0
C9 C 0.09128 0.02213 0.05886 0.0
C10 C 0.079 0.01952 0.07955 0.0
N11 N 0.05525 0.07492 0.03488 0.0
H12 H 0.30223 0.67525 0.17339 0.0
H13 H 0.37498 0.7159 0.19582 0.0
H14 H 0.34004 0.66269 0.23935 0.0
H15 H 0.37424 0.7266 0.15889 0.0
C16 C 0.35402 0.7285 0.15438 0.0
C17 C 0.31827 0.6791 0.18639 0.0
C18 C 0.31908 0.66582 0.20654 0.0
C19 C 0.33805 0.69743 0.18258 0.0
C20 C 0.35948 0.70209 0.19887 0.0
C21 C 0.36073 0.6892 0.21934 0.0
C22 C 0.34011 0.67154 0.2231 0.0
N23 N 0.3348 0.71187 0.16295 0.0
H24 H 0.96289 0.50229 0.01129 0.0
H25 H 0.02029 0.47707 0.05864 0.0
H26 H 0.98274 0.54435 0.07806 0.0
H27 H 0.03616 0.46166 0.02525 0.0
C28 C 0.01874 0.45446 0.0147 0.0
C29 C 0.9743 0.50543 0.02772 0.0
C30 C 0.97032 0.52605 0.04382 0.0
C31 C 0.99283 0.4883 0.03257 0.0
C32 C 1.00667 0.49079 0.05438 0.0
C33 C 1.00279 0.51073 0.07101 0.0
C34 C 0.98513 0.52865 0.06538 0.0
N35 N 0.99628 0.46809 0.01553 0.0
H36 H 0.70163 0.79439 0.18878 0.0
H37 H 0.72723 0.8647 0.2289 0.0
H38 H 0.76796 0.83931 0.17028 0.0
H39 H 0.71445 0.84192 0.25851 0.0
C40 C 0.69654 0.83183 0.25095 0.0
C41 C 0.71519 0.81118 0.19195 0.0
C42 C 0.73447 0.81559 0.17669 0.0
C43 C 0.7133 0.82828 0.21138 0.0
C44 C 0.7302 0.85061 0.21497 0.0
C45 C 0.75043 0.85499 0.20052 0.0
C46 C 0.7523 0.8371 0.1814 0.0
N47 N 0.69426 0.82262 0.22706 0.0
H48 H 0.03386 0.96773 0.45616 0.0
H49 H 0.09921 0.98866 0.50526 0.0
H50 H 0.09279 0.02516 0.44179 0.0
H51 H 0.09372 0.94631 0.51019 0.0
C52 C 0.07303 0.9431 0.51096 0.0
C53 C 0.0517 0.97931 0.46124 0.0
C54 C 0.06142 0.99715 0.44638 0.0
C55 C 0.0656 0.97538 0.48214 0.0
C56 C 0.08867 0.99061 0.48882 0.0
C57 C 0.09858 0.00827 0.47417 0.0
C58 C 0.08506 0.01131 0.45296 0.0
N59 N 0.0564 0.95575 0.49591 0.0
H60 H 0.21052 0.72654 0.83783 0.0
H61 H 0.24347 0.67265 0.79143 0.0
H62 H 0.28469 0.70083 0.85656 0.0
H63 H 0.2198 0.69291 0.76427 0.0
C64 C 0.20225 0.69666 0.77245 0.0
C65 C 0.22609 0.71481 0.83391 0.0
C66 C 0.24781 0.71553 0.84962 0.0
C67 C 0.22472 0.70011 0.81265 0.0
C68 C 0.24477 0.68469 0.80756 0.0
C69 C 0.26649 0.68455 0.82341 0.0
C70 C 0.2681 0.70058 0.84421 0.0
N71 N 0.20278 0.70131 0.79697 0.0
H72 H 0.02116 0.57508 0.47685 0.0
H73 H 0.97376 0.50472 0.46047 0.0
H74 H 0.95957 0.55503 0.51933 0.0
H75 H 0.99864 0.49724 0.4321 0.0
C76 C 0.01223 0.51357 0.43063 0.0
C77 C 1.00565 0.56181 0.48113 0.0
C78 C 0.99135 0.5679 0.50015 0.0
C79 C 0.99972 0.53912 0.46682 0.0
C80 C 0.97884 0.5222 0.47145 0.0
C81 C 0.96414 0.52792 0.49037 0.0
C82 C 0.97083 0.55059 0.50477 0.0
N83 N 0.01479 0.53489 0.44757 0.0
H84 H 0.82395 0.85289 0.79496 0.0
H85 H 0.85291 0.79832 0.83946 0.0
H86 H 0.78291 0.83299 0.85348 0.0
H87 H 0.86387 0.85631 0.78355 0.0
C88 C 0.87121 0.83773 0.78528 0.0
C89 C 0.82265 0.8425 0.81028 0.0
C90 C 0.80133 0.84503 0.82356 0.0
C91 C 0.8415 0.82593 0.81624 0.0
C92 C 0.83869 0.8116 0.83544 0.0
C93 C 0.81758 0.81376 0.84903 0.0
C94 C 0.79899 0.83063 0.84291 0.0
N95 N 0.86279 0.82207 0.80271 0.0
H96 H 0.31829 0.3539 0.29052 0.0
H97 H 0.35001 0.29787 0.33176 0.0
H98 H 0.28176 0.3327 0.35118 0.0
H99 H 0.3877 0.31255 0.31518 0.0
C100 C 0.38022 0.31478 0.29756 0.0
C101 C 0.31768 0.34297 0.30563 0.0
C102 C 0.29778 0.34548 0.32045 0.0
C103 C 0.33679 0.32636 0.30979 0.0
C104 C 0.33587 0.31154 0.329 0.0
C105 C 0.31582 0.31336 0.34396 0.0
C106 C 0.29692 0.33055 0.33954 0.0
N107 N 0.35562 0.32401 0.29339 0.0
H108 H 0.46317 1.00019 0.51165 0.0
H109 H 0.51835 0.97358 0.56043 0.0
H110 H 0.4813 0.04191 0.57856 0.0
H111 H 0.53415 0.95651 0.52781 0.0
C112 C 0.51679 0.94991 0.51693 0.0
C113 C 0.47379 1.00254 0.52853 0.0
C114 C 0.46979 0.02317 0.54449 0.0
C115 C 0.49181 0.98512 0.53383 0.0
C116 C 0.50553 0.98785 0.55571 0.0
C117 C 0.50206 0.00832 0.57202 0.0
C118 C 0.48418 0.02603 0.56619 0.0
N119 N 0.49496 0.9645 0.51711 0.0
H120 H 0.20784 0.28987 0.68806 0.0
H121 H 0.23719 0.35721 0.73138 0.0
H122 H 0.26502 0.34257 0.66396 0.0
H123 H 0.22337 0.33394 0.75963 0.0
C124 C 0.20536 0.32415 0.75201 0.0
C125 C 0.22031 0.30746 0.69062 0.0
C126 C 0.23713 0.31396 0.67371 0.0
C127 C 0.22016 0.32295 0.71143 0.0
C128 C 0.23699 0.34538 0.71527 0.0
C129 C 0.25369 0.35253 0.69839 0.0
C130 C 0.25306 0.33689 0.6775 0.0
N131 N 0.2027 0.31557 0.72798 0.0
H132 H 0.80155 0.17866 0.67869 0.0
H133 H 0.87327 0.21926 0.70522 0.0
H134 H 0.84347 0.15317 0.73758 0.0
H135 H 0.85583 0.25194 0.6892 0.0
C136 C 0.84552 0.24338 0.67322 0.0
C137 C 0.81837 0.18063 0.69093 0.0
C138 C 0.82031 0.16404 0.70865 0.0
C139 C 0.83727 0.20076 0.68974 0.0
C140 C 0.85878 0.20365 0.70607 0.0
C141 C 0.86149 0.18663 0.7236 0.0
C142 C 0.84201 0.16676 0.72453 0.0
N143 N 0.83388 0.21788 0.6721 0.0
H144 H 0.53682 0.56599 0.57709 0.0
H145 H 0.59102 0.54149 0.52963 0.0
H146 H 0.57975 0.50095 0.59027 0.0
H147 H 0.59375 0.58538 0.52493 0.0
C148 C 0.57336 0.58818 0.52323 0.0
C149 C 0.55078 0.55273 0.57225 0.0
C150 C 0.55665 0.5331 0.58652 0.0
C151 C 0.5633 0.55611 0.552 0.0
C152 C 0.58162 0.53926 0.5455 0.0
C153 C 0.58779 0.51936 0.55925 0.0
C154 C 0.57538 0.51655 0.57986 0.0
N155 N 0.55653 0.57615 0.53812 0.0
H156 H 0.52819 0.46769 0.96139 0.0
H157 H 0.59482 0.49016 0.0085 0.0
H158 H 0.58473 0.52669 0.94534 0.0
H159 H 0.59061 0.44814 0.01434 0.0
C160 C 0.57002 0.44418 0.01523 0.0
C161 C 0.54599 0.47957 0.96578 0.0
C162 C 0.55424 0.49804 0.95085 0.0
C163 C 0.56081 0.47597 0.98626 0.0
C164 C 0.58354 0.4919 0.99239 0.0
C165 C 0.59214 0.51006 0.97762 0.0
C166 C 0.57761 0.51294 0.95687 0.0
N167 N 0.55268 0.45612 1.00025 0.0
H168 H 0.71228 0.22469 0.34066 0.0
H169 H 0.74613 0.17142 0.29434 0.0
H170 H 0.78643 0.19918 0.35997 0.0
H171 H 0.7228 0.19163 0.26711 0.0
C172 C 0.70509 0.19526 0.27505 0.0
C173 C 0.72798 0.21307 0.33685 0.0
C174 C 0.74949 0.21374 0.35279 0.0
C175 C 0.72696 0.1986 0.31549 0.0
C176 C 0.74716 0.18332 0.31053 0.0
C177 C 0.76869 0.18314 0.32657 0.0
C178 C 0.76997 0.19897 0.34748 0.0
N179 N 0.70523 0.19986 0.29956 0.0
H180 H 0.52774 0.07244 0.97872 0.0
H181 H 0.47499 1.00552 0.96115 0.0
H182 H 0.46113 0.06054 0.01694 0.0
H183 H 0.49935 0.99656 0.93235 0.0
C184 C 0.51481 0.01141 0.93175 0.0
C185 C 0.51052 0.06075 0.98186 0.0
C186 C 0.49521 0.06893 0.99937 0.0
C187 C 0.50347 0.03806 0.96781 0.0
C188 C 0.48093 0.02301 0.97187 0.0
C189 C 0.46545 0.03101 0.98962 0.0
C190 C 0.47277 0.05411 1.0032 0.0
N191 N 0.51919 0.03198 0.9494 0.0
Mn192 Mn 0.27106 0.87523 0.01676 0.0
Mn193 Mn 0.26144 0.89709 0.96392 0.0
C194 C 0.25188 0.84835 0.98558 0.0
C195 C 0.29518 0.85543 0.0446 0.0
C196 C 0.22994 0.91153 1.00432 0.0
O197 O 0.29663 0.90704 0.01862 0.0
O198 O 0.29004 0.91851 0.98196 0.0
C199 C 0.31042 0.88488 0.94459 0.0
N200 N 0.28423 0.88217 0.94333 0.0
C201 C 0.28265 0.85422 0.90824 0.0
C202 C 0.30959 0.85681 0.9091 0.0
C203 C 0.32352 0.87216 0.92739 0.0
C204 C 0.27064 0.86734 0.92587 0.0
H205 H 0.32122 0.89658 0.95866 0.0
C206 C 0.30191 0.9212 1.00225 0.0
O207 O 0.27761 0.87038 0.05027 0.0
O208 O 0.29961 0.8529 0.0228 0.0
N209 N 0.23449 0.87728 0.94487 0.0
C210 C 0.2087 0.87566 0.94726 0.0
C211 C 0.19204 0.86058 0.93064 0.0
C212 C 0.20205 0.8474 0.91172 0.0
C213 C 0.22865 0.84942 0.90959 0.0
C214 C 0.24429 0.86488 0.9266 0.0
H215 H 0.20089 0.88574 0.96176 0.0
O216 O 0.24759 0.84349 1.00666 0.0
O217 O 0.26627 0.86912 0.98367 0.0
O218 O 0.24064 0.89745 0.01843 0.0
O219 O 0.23658 0.91322 0.98365 0.0
C220 C 0.24029 0.83637 0.89147 0.0
C221 C 0.26727 0.83877 0.89079 0.0
H222 H 0.31978 0.84695 0.89593 0.0
H223 H 0.34433 0.87416 0.92825 0.0
H224 H 0.17153 0.85906 0.93243 0.0
H225 H 0.18915 0.83562 0.89904 0.0
H226 H 0.22871 0.82417 0.87813 0.0
H227 H 0.27602 0.82842 0.87692 0.0
Mn228 Mn 0.15182 0.50521 0.25651 0.0
Mn229 Mn 0.13629 0.56651 0.2597 0.0
C230 C 0.1777 0.5364 0.2412 0.0
C231 C 0.17292 0.47282 0.27364 0.0
C232 C 0.1099 0.52507 0.2246 0.0
O233 O 0.12534 0.50568 0.28079 0.0
O234 O 0.11903 0.54769 0.28353 0.0
C235 C 0.16261 0.5836 0.30583 0.0
N236 N 0.15913 0.58634 0.28267 0.0
C237 C 0.1908 0.62242 0.28577 0.0
C238 C 0.19461 0.62008 0.30968 0.0
C239 C 0.18049 0.60055 0.31974 0.0
C240 C 0.17272 0.60497 0.27279 0.0
H241 H 0.15187 0.56855 0.31361 0.0
C242 C 0.11523 0.525 0.28998 0.0
O243 O 0.15418 0.46735 0.25763 0.0
O244 O 0.17872 0.49686 0.27999 0.0
N245 N 0.15181 0.58716 0.23782 0.0
C246 C 0.14618 0.58652 0.21445 0.0
C247 C 0.15865 0.60482 0.20174 0.0
C248 C 0.1766 0.62368 0.2132 0.0
C249 C 0.18189 0.62412 0.23729 0.0
C250 C 0.16863 0.60558 0.24908 0.0
H251 H 0.13231 0.57217 0.20553 0.0
O252 O 0.17894 0.5124 0.23459 0.0
O253 O 0.16175 0.54132 0.25682 0.0
O254 O 0.12343 0.50691 0.23029 0.0
O255 O 0.11256 0.54753 0.23514 0.0
C256 C 0.19992 0.64209 0.25005 0.0
C257 C 0.20446 0.64117 0.27425 0.0
H258 H 0.20843 0.63308 0.32046 0.0
H259 H 0.18341 0.59855 0.33816 0.0
H260 H 0.15444 0.60438 0.18315 0.0
H261 H 0.1862 0.63772 0.20332 0.0
H262 H 0.2106 0.65654 0.24138 0.0
H263 H 0.21858 0.65492 0.28383 0.0
Mn264 Mn 0.78735 0.65925 0.01027 0.0
Mn265 Mn 0.72985 0.6749 0.98716 0.0
C266 C 0.75079 0.63122 0.01004 0.0
C267 C 0.82639 0.64045 0.00955 0.0
C268 C 0.75332 0.69683 0.03431 0.0
O269 O 0.79813 0.68803 0.98989 0.0
O270 O 0.75846 0.69626 0.97592 0.0
C271 C 0.73555 0.65709 0.93818 0.0
N272 N 0.72201 0.65658 0.9574 0.0
C273 C 0.6885 0.62764 0.9371 0.0
C274 C 0.70202 0.62795 0.91705 0.0
C275 C 0.72569 0.64267 0.91762 0.0
C276 C 0.6993 0.64237 0.95708 0.0
H277 H 0.75373 0.66841 0.93855 0.0
C278 C 0.783 0.70044 0.97745 0.0
O279 O 0.82261 0.65847 0.02518 0.0
O280 O 0.80809 0.63429 0.99328 0.0
N281 N 0.70022 0.65572 0.99638 0.0
C282 C 0.69018 0.65661 0.01748 0.0
C283 C 0.6667 0.64261 0.01998 0.0
C284 C 0.65365 0.62812 1.00073 0.0
C285 C 0.66422 0.6277 0.97914 0.0
C286 C 0.6876 0.64216 0.97767 0.0
H287 H 0.70004 0.66788 0.03231 0.0
O288 O 0.77007 0.63005 0.02514 0.0
O289 O 0.75321 0.64885 0.99562 0.0
O290 O 0.77366 0.68502 0.03371 0.0
O291 O 0.73561 0.69448 0.01782 0.0
C292 C 0.65273 0.61312 0.95913 0.0
C293 C 0.66491 0.61302 0.93815 0.0
H294 H 0.6945 0.61683 0.90117 0.0
H295 H 0.73628 0.64293 0.90224 0.0
H296 H 0.65868 0.64301 0.03671 0.0
H297 H 0.6356 0.61726 1.00275 0.0
H298 H 0.63475 0.6016 0.95978 0.0
H299 H 0.65609 0.60144 0.92297 0.0
Mn300 Mn 0.92055 0.02858 0.26139 0.0
Mn301 Mn 0.93835 0.96808 0.25454 0.0
C302 C 0.89317 0.99646 0.24106 0.0
C303 C 0.89991 0.06042 0.28176 0.0
C304 C 0.95944 0.01108 0.2273 0.0
O305 O 0.94951 0.02834 0.28707 0.0
O306 O 0.9586 0.98702 0.28168 0.0
C307 C 0.92034 0.9481 0.29751 0.0
N308 N 0.91999 0.94645 0.27391 0.0
C309 C 0.89085 0.90837 0.27059 0.0
C310 C 0.89102 0.90958 0.29486 0.0
C311 C 0.90579 0.92956 0.30837 0.0
C312 C 0.90593 0.92725 0.26075 0.0
H313 H 0.9316 0.96346 0.30796 0.0
C314 C 0.96179 0.0093 0.29273 0.0
O315 O 0.91733 0.0662 0.26769 0.0
O316 O 0.89551 0.03634 0.28483 0.0
N317 N 0.91969 0.94773 0.22907 0.0
C318 C 0.91987 0.95061 0.20591 0.0
C319 C 0.90501 0.93294 0.19 0.0
C320 C 0.89021 0.91247 0.19805 0.0
C321 C 0.89043 0.90983 0.22195 0.0
C322 C 0.90573 0.92795 0.23699 0.0
H323 H 0.93111 0.96638 0.19964 0.0
O324 O 0.89101 0.02027 0.23733 0.0
O325 O 0.91161 0.9922 0.25611 0.0
O326 O 0.94637 0.02851 0.23601 0.0
O327 O 0.95809 0.98824 0.23345 0.0
C328 C 0.87553 0.89035 0.23148 0.0
C329 C 0.87577 0.88959 0.25578 0.0
H330 H 0.87964 0.89545 0.30331 0.0
H331 H 0.9059 0.9307 0.3271 0.0
H332 H 0.90486 0.93516 0.17158 0.0
H333 H 0.87856 0.89904 0.18573 0.0
H334 H 0.86344 0.87613 0.22028 0.0
H335 H 0.86388 0.87478 0.2629 0.0
Mn336 Mn 0.29186 0.15907 0.50646 0.0
Mn337 Mn 0.23367 0.17307 0.48355 0.0
C338 C 0.25584 0.13054 0.50718 0.0
C339 C 0.33139 0.14093 0.50587 0.0
C340 C 0.25715 0.19629 0.53022 0.0
O341 O 0.3018 0.18723 0.4852 0.0
O342 O 0.26174 0.19495 0.47194 0.0
C343 C 0.23957 0.15485 0.43469 0.0
N344 N 0.22613 0.15427 0.45397 0.0
C345 C 0.1932 0.12435 0.43405 0.0
C346 C 0.20663 0.12473 0.41395 0.0
C347 C 0.22995 0.13998 0.4143 0.0
C348 C 0.20375 0.13953 0.45386 0.0
H349 H 0.25748 0.16658 0.43488 0.0
C350 C 0.28624 0.19936 0.47294 0.0
O351 O 0.32751 0.15952 0.52093 0.0
O352 O 0.31281 0.13394 0.49002 0.0
N353 N 0.20451 0.15338 0.49305 0.0
C354 C 0.19451 0.15435 0.51416 0.0
C355 C 0.17132 0.13992 0.51685 0.0
C356 C 0.15853 0.12491 0.49776 0.0
C357 C 0.16907 0.1244 0.47616 0.0
C358 C 0.19214 0.13931 0.47449 0.0
H359 H 0.20415 0.16601 0.52885 0.0
O360 O 0.27532 0.13016 0.52226 0.0
O361 O 0.25772 0.14774 0.49231 0.0
O362 O 0.27797 0.18528 0.52937 0.0
O363 O 0.23909 0.19301 0.51405 0.0
C364 C 0.15784 0.10934 0.45632 0.0
C365 C 0.16995 0.10924 0.43531 0.0
H366 H 0.1993 0.11326 0.39819 0.0
H367 H 0.24047 0.1403 0.39888 0.0
H368 H 0.16332 0.14039 0.53358 0.0
H369 H 0.1407 0.11374 0.49993 0.0
H370 H 0.1401 0.09746 0.45713 0.0
H371 H 0.16133 0.0973 0.42026 0.0
Mn372 Mn 0.41837 0.52789 0.76198 0.0
Mn373 Mn 0.43563 0.46719 0.75654 0.0
C374 C 0.39165 0.49579 0.74078 0.0
C375 C 0.39725 0.5601 0.78128 0.0
C376 C 0.45829 0.50943 0.72929 0.0
O377 O 0.44638 0.52784 0.7886 0.0
O378 O 0.45499 0.4864 0.78393 0.0
C379 C 0.41469 0.4492 0.79915 0.0
N380 N 0.41565 0.44669 0.77566 0.0
C381 C 0.38527 0.40954 0.77212 0.0
C382 C 0.38407 0.41164 0.79629 0.0
C383 C 0.39879 0.43161 0.80985 0.0
C384 C 0.40141 0.42766 0.76244 0.0
H385 H 0.42594 0.46453 0.80966 0.0
C386 C 0.4582 0.50873 0.79482 0.0
O387 O 0.41532 0.5656 0.76776 0.0
O388 O 0.39243 0.53609 0.78441 0.0
N389 N 0.41797 0.4463 0.73089 0.0
C390 C 0.4207 0.44742 0.70777 0.0
C391 C 0.40713 0.42887 0.69179 0.0
C392 C 0.39108 0.40927 0.69975 0.0
C393 C 0.38869 0.40842 0.72364 0.0
C394 C 0.40283 0.42731 0.73875 0.0
H395 H 0.43313 0.46233 0.70154 0.0
O396 O 0.3897 0.5196 0.73698 0.0
O397 O 0.40924 0.49158 0.75661 0.0
O398 O 0.44519 0.52711 0.73755 0.0
O399 O 0.45661 0.48667 0.7357 0.0
C400 C 0.37272 0.38967 0.73304 0.0
C401 C 0.37088 0.39032 0.75725 0.0
H402 H 0.37181 0.39813 0.8046 0.0
H403 H 0.39789 0.43343 0.8285 0.0
H404 H 0.40907 0.42966 0.67338 0.0
H405 H 0.38065 0.39502 0.68736 0.0
H406 H 0.36158 0.37478 0.72179 0.0
H407 H 0.35827 0.37601 0.76423 0.0
Mn408 Mn 0.76892 0.374 0.51946 0.0
Mn409 Mn 0.75974 0.3946 0.46604 0.0
C410 C 0.75035 0.34634 0.48852 0.0
C411 C 0.79276 0.35535 0.54823 0.0
C412 C 0.72752 0.40954 0.50575 0.0
O413 O 0.79434 0.40591 0.521 0.0
O414 O 0.78788 0.41661 0.4841 0.0
C415 C 0.80926 0.3826 0.44767 0.0
N416 N 0.78308 0.37958 0.44606 0.0
C417 C 0.78236 0.35122 0.41131 0.0
C418 C 0.8093 0.35413 0.41253 0.0
C419 C 0.8228 0.36984 0.43082 0.0
C420 C 0.7699 0.36438 0.42861 0.0
H421 H 0.81974 0.39461 0.46172 0.0
C422 C 0.79961 0.41979 0.50444 0.0
O423 O 0.77502 0.37037 0.5532 0.0
O424 O 0.79745 0.35193 0.52653 0.0
N425 N 0.73327 0.37418 0.44693 0.0
C426 C 0.7074 0.37236 0.44893 0.0
C427 C 0.69114 0.35695 0.43223 0.0
C428 C 0.70161 0.34365 0.41364 0.0
C429 C 0.72828 0.34589 0.4119 0.0
C430 C 0.74352 0.36166 0.42898 0.0
H431 H 0.69924 0.38256 0.46316 0.0
O432 O 0.74576 0.34194 0.50965 0.0
O433 O 0.76461 0.36713 0.4864 0.0
O434 O 0.73835 0.39601 0.52026 0.0
O435 O 0.73431 0.41081 0.48508 0.0
C436 C 0.74037 0.33279 0.39411 0.0
C437 C 0.76739 0.33546 0.3938 0.0
H438 H 0.81982 0.34425 0.39961 0.0
H439 H 0.84361 0.37209 0.43194 0.0
H440 H 0.67058 0.35527 0.43372 0.0
H441 H 0.68902 0.33163 0.4009 0.0
H442 H 0.7291 0.32037 0.38072 0.0
H443 H 0.77648 0.32509 0.38017 0.0
Mn444 Mn 0.65296 1.00205 0.75633 0.0
Mn445 Mn 0.63713 0.06324 0.75973 0.0
C446 C 0.67843 0.0334 0.74075 0.0
C447 C 0.67479 0.96992 0.77318 0.0
C448 C 0.61046 0.02171 0.72484 0.0
O449 O 0.62687 1.00235 0.78101 0.0
O450 O 0.62018 0.04427 0.78364 0.0
C451 C 0.66365 0.08035 0.80576 0.0
N452 N 0.66002 0.08311 0.78261 0.0
C453 C 0.6914 0.11942 0.78565 0.0
C454 C 0.69535 0.11708 0.80955 0.0
C455 C 0.68146 0.09741 0.81963 0.0
C456 C 0.67341 0.10185 0.77271 0.0
H457 H 0.65306 0.06523 0.81357 0.0
C458 C 0.61669 0.02161 0.79025 0.0
O459 O 0.65582 0.96422 0.75744 0.0
O460 O 0.68034 0.994 0.77947 0.0
N461 N 0.65241 0.08398 0.73779 0.0
C462 C 0.64682 0.08323 0.7144 0.0
C463 C 0.65931 0.10146 0.70164 0.0
C464 C 0.67722 0.1204 0.71306 0.0
C465 C 0.68236 0.12102 0.73718 0.0
C466 C 0.6692 0.10247 0.74901 0.0
H467 H 0.63301 0.06878 0.70552 0.0
O468 O 0.67967 0.00944 0.73404 0.0
O469 O 0.66266 0.03819 0.75657 0.0
O470 O 0.6241 1.00359 0.73044 0.0
O471 O 0.61326 0.04423 0.73528 0.0
C472 C 0.70022 0.13918 0.74991 0.0
C473 C 0.70482 0.13831 0.77411 0.0
H474 H 0.70912 0.13016 0.8203 0.0
H475 H 0.68449 0.09541 0.83805 0.0
H476 H 0.65519 0.10088 0.68303 0.0
H477 H 0.68696 0.1343 0.70313 0.0
H478 H 0.71075 0.15371 0.74122 0.0
H479 H 0.71886 0.15217 0.78366 0.0
Mn480 Mn 0.03381 0.25387 0.87529 0.0
Mn481 Mn 0.97294 0.24761 0.89126 0.0
C482 C 1.00167 0.23037 0.85126 0.0
C483 C 0.06667 0.27477 0.85677 0.0
C484 C 0.0155 0.21793 0.91128 0.0
O485 O 0.03378 0.28311 0.90077 0.0
O486 O 0.9924 0.27749 0.9092 0.0
C487 C 0.95517 0.2951 0.87348 0.0
N488 N 0.9525 0.26914 0.87382 0.0
C489 C 0.91507 0.26588 0.84682 0.0
C490 C 0.91733 0.29259 0.84626 0.0
C491 C 0.93752 0.30725 0.8596 0.0
C492 C 0.93329 0.25484 0.86089 0.0
H493 H 0.97065 0.30645 0.8837 0.0
C494 C 0.01477 0.28959 0.91202 0.0
O495 O 0.07161 0.25989 0.87311 0.0
O496 O 0.04269 0.27839 0.85191 0.0
N497 N 0.95179 0.21964 0.87496 0.0
C498 C 0.95275 0.19405 0.87693 0.0
C499 C 0.93398 0.17669 0.86454 0.0
C500 C 0.91431 0.18583 0.85048 0.0
C501 C 0.9136 0.21226 0.84886 0.0
C502 C 0.93277 0.22864 0.86167 0.0
H503 H 0.96771 0.18693 0.88785 0.0
O504 O 0.02559 0.22615 0.84941 0.0
O505 O 0.99736 0.24794 0.86718 0.0
O506 O 0.03301 0.22741 0.89946 0.0
O507 O 0.99237 0.22426 0.90972 0.0
C508 C 0.89469 0.22301 0.83501 0.0
C509 C 0.89555 0.24978 0.83384 0.0
H510 H 0.90375 0.30204 0.83559 0.0
H511 H 0.93945 0.32786 0.8592 0.0
H512 H 0.93465 0.15632 0.86588 0.0
H513 H 0.89987 0.17236 0.84096 0.0
H514 H 0.87948 0.21087 0.82506 0.0
H515 H 0.88111 0.25777 0.82288 0.0
Mn516 Mn 0.53114 0.75206 0.37537 0.0
Mn517 Mn 0.47079 0.74238 0.39191 0.0
C518 C 0.49942 0.72933 0.3505 0.0
C519 C 0.56267 0.77556 0.35746 0.0
C520 C 0.51538 0.71417 0.41043 0.0
O521 O 0.53024 0.77956 0.4022 0.0
O522 O 0.48872 0.77295 0.41026 0.0
C523 C 0.44853 0.78878 0.37614 0.0
N524 N 0.44812 0.76279 0.37551 0.0
C525 C 0.41043 0.75762 0.34872 0.0
C526 C 0.41038 0.78434 0.34918 0.0
C527 C 0.42954 0.79998 0.36293 0.0
C528 C 0.42969 0.74755 0.36244 0.0
H529 H 0.46328 0.80089 0.38661 0.0
C530 C 0.51095 0.78542 0.41338 0.0
O531 O 0.56865 0.7599 0.37286 0.0
O532 O 0.53842 0.77848 0.35331 0.0
N533 N 0.45162 0.71359 0.37486 0.0
C534 C 0.45567 0.68827 0.37484 0.0
C535 C 0.43893 0.67009 0.36107 0.0
C536 C 0.4182 0.6781 0.3475 0.0
C537 C 0.41438 0.70425 0.34784 0.0
C538 C 0.43158 0.72148 0.36204 0.0
H539 H 0.47168 0.68203 0.38512 0.0
O540 O 0.52345 0.72587 0.34823 0.0
O541 O 0.49481 0.74537 0.3676 0.0
O542 O 0.53208 0.72403 0.39803 0.0
O543 O 0.49212 0.72005 0.40977 0.0
C544 C 0.39457 0.71394 0.33421 0.0
C545 C 0.39256 0.7406 0.33468 0.0
H546 H 0.39592 0.79306 0.33884 0.0
H547 H 0.4297 0.82062 0.36328 0.0
H548 H 0.44207 0.64995 0.36081 0.0
H549 H 0.40549 0.66405 0.33669 0.0
H550 H 0.38104 0.70108 0.32299 0.0
H551 H 0.37751 0.74783 0.32383 0.0
Mn552 Mn 0.02557 0.76617 0.63268 0.0
Mn553 Mn 0.99543 0.7111 0.64739 0.0
C554 C 0.02523 0.7287 0.60866 0.0
C555 C 0.02599 0.80467 0.61488 0.0
C556 C 0.04771 0.73287 0.66917 0.0
O557 O 1.00268 0.77881 0.65778 0.0
O558 O 0.98229 0.741 0.66427 0.0
C559 C 0.94333 0.71798 0.62661 0.0
N560 N 0.96394 0.70372 0.62846 0.0
C561 C 0.94257 0.66993 0.60197 0.0
C562 C 0.92106 0.6842 0.59985 0.0
C563 C 0.9215 0.70838 0.61214 0.0
C564 C 0.96388 0.68063 0.61642 0.0
H565 H 0.94355 0.73651 0.63613 0.0
C566 C 0.98599 0.76541 0.66781 0.0
O567 O 0.04281 0.8011 0.63161 0.0
O568 O 0.0082 0.7862 0.60906 0.0
N569 N 1.00593 0.6803 0.63237 0.0
C570 C 0.02825 0.66898 0.6363 0.0
C571 C 0.03095 0.64466 0.62529 0.0
C572 C 0.01052 0.63202 0.61072 0.0
C573 C 0.98754 0.6438 0.60736 0.0
C574 C 0.98599 0.66807 0.61874 0.0
H575 H 0.0439 0.67842 0.64774 0.0
O576 O 0.04256 0.74743 0.60725 0.0
O577 O 0.00847 0.73251 0.62379 0.0
O578 O 0.04963 0.75221 0.65721 0.0
O579 O 0.02798 0.71672 0.66734 0.0
C580 C 0.9661 0.63238 0.59318 0.0
C581 C 0.94371 0.64554 0.59031 0.0
H582 H 0.90414 0.6768 0.58881 0.0
H583 H 0.905 0.71953 0.61055 0.0
H584 H 0.0487 0.63565 0.62809 0.0
H585 H 0.01269 0.6133 0.60222 0.0
H586 H 0.96671 0.61359 0.58421 0.0
H587 H 0.92749 0.63671 0.5791 0.0
Mn588 Mn 0.52876 0.26355 0.13416 0.0
Mn589 Mn 0.49964 0.20735 0.14737 0.0
C590 C 0.52876 0.22714 0.10888 0.0
C591 C 0.52799 0.30275 0.1176 0.0
C592 C 0.55156 0.22984 0.16973 0.0
O593 O 0.50616 0.2745 0.16007 0.0
O594 O 0.48504 0.2363 0.16455 0.0
C595 C 0.4474 0.21253 0.12598 0.0
N596 N 0.4685 0.199 0.12811 0.0
C597 C 0.44868 0.16489 0.10107 0.0
C598 C 0.42661 0.17833 0.0988 0.0
C599 C 0.42602 0.2023 0.11123 0.0
C600 C 0.46939 0.17605 0.11603 0.0
H601 H 0.44695 0.23101 0.13542 0.0
C602 C 0.48905 0.26059 0.16915 0.0
O603 O 0.54521 0.29897 0.13395 0.0
O604 O 0.51046 0.2841 0.11157 0.0
N605 N 0.51164 0.17753 0.13191 0.0
C606 C 0.5349 0.16773 0.13503 0.0
C607 C 0.53891 0.14408 0.12339 0.0
C608 C 0.51891 0.13063 0.10887 0.0
C609 C 0.49509 0.141 0.10604 0.0
C610 C 0.49216 0.16455 0.11822 0.0
H611 H 0.55029 0.17786 0.14632 0.0
O612 O 0.5457 0.24632 0.10791 0.0
O613 O 0.51218 0.22991 0.12438 0.0
O614 O 0.55353 0.24916 0.15777 0.0
O615 O 0.53182 0.2137 0.16785 0.0
C616 C 0.47429 0.12912 0.0913 0.0
C617 C 0.45114 0.1411 0.08874 0.0
H618 H 0.41011 0.17054 0.08738 0.0
H619 H 0.40913 0.21288 0.10942 0.0
H620 H 0.55736 0.13621 0.12564 0.0
H621 H 0.52209 0.11242 0.09989 0.0
H622 H 0.47605 0.11098 0.08154 0.0
H623 H 0.43544 0.132 0.07705 0.0
H624 H 0.21455 0.7157 0.88378 0.0
H625 H 0.28398 0.75455 0.86352 0.0
H626 H 0.21547 0.74585 0.91813 0.0
H627 H 0.28431 0.78576 0.89677 0.0
H628 H 0.2919 0.82913 0.96605 0.0
H629 H 0.29163 0.79494 0.93544 0.0
H630 H 0.20839 0.78645 0.93232 0.0
H631 H 0.20925 0.81953 0.96462 0.0
C632 C 0.23001 0.7308 0.88678 0.0
C633 C 0.24934 0.73274 0.87123 0.0
C634 C 0.23043 0.74831 0.90631 0.0
C635 C 0.24989 0.76856 0.91046 0.0
C636 C 0.26926 0.77027 0.89471 0.0
C637 C 0.26911 0.75243 0.87551 0.0
C638 C 0.27358 0.81974 0.95885 0.0
C639 C 0.25055 0.8272 0.96723 0.0
C640 C 0.27334 0.80024 0.94109 0.0
C641 C 0.24997 0.788 0.9308 0.0
C642 C 0.22685 0.79506 0.93982 0.0
C643 C 0.22721 0.8142 0.95817 0.0
H644 H 0.01106 0.47717 0.39433 0.0
H645 H 0.04883 0.55063 0.42096 0.0
H646 H 0.03546 0.47842 0.35973 0.0
H647 H 0.07328 0.55169 0.38688 0.0
H648 H 0.08899 0.56113 0.31247 0.0
H649 H 0.06418 0.55697 0.34594 0.0
H650 H 0.07966 0.47744 0.34646 0.0
H651 H 0.10443 0.48142 0.31242 0.0
C652 C 0.02467 0.49346 0.39284 0.0
C653 C 0.02786 0.51385 0.41025 0.0
C654 C 0.03871 0.49413 0.37312 0.0
C655 C 0.05613 0.51527 0.37044 0.0
C656 C 0.05966 0.53535 0.38817 0.0
C657 C 0.0457 0.53467 0.40781 0.0
C658 C 0.08712 0.54265 0.31955 0.0
C659 C 0.09892 0.52164 0.30972 0.0
C660 C 0.07297 0.54034 0.33891 0.0
C661 C 0.0702 0.51697 0.34908 0.0
C662 C 0.08137 0.49569 0.33897 0.0
C663 C 0.09563 0.49801 0.3195 0.0
H664 H 0.77345 0.79005 0.86285 0.0
H665 H 0.8553 0.80152 0.88102 0.0
H666 H 0.76845 0.76474 0.89586 0.0
H667 H 0.85024 0.77567 0.91402 0.0
H668 H 0.82701 0.70162 0.95371 0.0
H669 H 0.83757 0.73025 0.92346 0.0
H670 H 0.7721 0.77236 0.93834 0.0
H671 H 0.76153 0.74391 0.96799 0.0
C672 C 0.79037 0.78743 0.87401 0.0
C673 C 0.81474 0.7981 0.86929 0.0
C674 C 0.78752 0.77283 0.89295 0.0
C675 C 0.80893 0.76837 0.90774 0.0
C676 C 0.8334 0.77863 0.9029 0.0
C677 C 0.83626 0.79342 0.88395 0.0
C678 C 0.81535 0.71741 0.95085 0.0
C679 C 0.7933 0.72035 0.96302 0.0
C680 C 0.8213 0.73373 0.9335 0.0
C681 C 0.80528 0.7532 0.92813 0.0
C682 C 0.78441 0.75715 0.94157 0.0
C683 C 0.77847 0.74094 0.9587 0.0
H684 H 0.00995 1.00219 0.43717 0.0
H685 H 0.08144 1.0002 0.40431 0.0
H686 H 0.98739 0.00833 0.39974 0.0
H687 H 0.05905 0.00667 0.36714 0.0
H688 H 1.00251 0.98167 0.3025 0.0
H689 H 0.02704 0.98058 0.33962 0.0
H690 H 0.98461 0.04069 0.36939 0.0
H691 H 0.95985 0.04181 0.33196 0.0
C692 C 0.02082 1.00304 0.42197 0.0
C693 C 0.04746 1.00067 0.4237 0.0
C694 C 0.00797 0.00687 0.40061 0.0
C695 C 0.02146 0.00808 0.38049 0.0
C696 C 0.0481 0.00572 0.38228 0.0
C697 C 0.06094 1.00215 0.40361 0.0
C698 C 0.99865 0.99497 0.31684 0.0
C699 C 0.97922 0.01184 0.31426 0.0
C700 C 0.01277 0.99437 0.33812 0.0
C701 C 0.00767 0.01043 0.35749 0.0
C702 C 0.98879 0.0279 0.35481 0.0
C703 C 0.97484 0.02875 0.33333 0.0
H704 H 0.28083 0.30245 0.65341 0.0
H705 H 0.19837 0.28539 0.64627 0.0
H706 H 0.28488 0.27468 0.61868 0.0
H707 H 0.2026 0.25628 0.61199 0.0
H708 H 0.2183 0.22765 0.53747 0.0
H709 H 0.21287 0.25574 0.572 0.0
H710 H 0.28185 0.23062 0.60548 0.0
H711 H 0.28774 0.20326 0.57085 0.0
C712 C 0.2635 0.29281 0.64439 0.0
C713 C 0.23922 0.29639 0.65258 0.0
C714 C 0.26588 0.27653 0.6246 0.0
C715 C 0.24409 0.26309 0.61252 0.0
C716 C 0.21977 0.26653 0.62072 0.0
C717 C 0.21736 0.28299 0.64053 0.0
C718 C 0.23235 0.22816 0.55218 0.0
C719 C 0.25359 0.21331 0.55124 0.0
C720 C 0.22911 0.24415 0.57206 0.0
C721 C 0.24697 0.24557 0.59154 0.0
C722 C 0.26798 0.23043 0.59068 0.0
C723 C 0.27131 0.21461 0.57079 0.0
H724 H 0.50605 0.53965 0.59361 0.0
H725 H 0.57633 0.51942 0.62877 0.0
H726 H 0.4842 0.53579 0.62906 0.0
H727 H 0.55412 0.51492 0.66412 0.0
H728 H 0.49489 0.4801 0.71211 0.0
H729 H 0.51939 0.48653 0.67849 0.0
H730 H 0.48415 0.55702 0.66904 0.0
H731 H 0.45947 0.55061 0.70271 0.0
C732 C 0.51698 0.5346 0.60891 0.0
C733 C 0.54311 0.52999 0.6082 0.0
C734 C 0.50437 0.53236 0.62928 0.0
C735 C 0.51742 0.52518 0.64949 0.0
C736 C 0.54344 0.52029 0.6488 0.0
C737 C 0.55615 0.52276 0.62846 0.0
C738 C 0.49249 0.49713 0.70305 0.0
C739 C 0.47508 0.5148 0.71019 0.0
C740 C 0.50667 0.50086 0.68379 0.0
C741 C 0.50366 0.52221 0.67097 0.0
C742 C 0.48671 0.5402 0.67838 0.0
C743 C 0.47271 0.53662 0.69781 0.0
H744 H 0.85743 0.29452 0.67406 0.0
H745 H 0.82306 0.22959 0.62923 0.0
H746 H 0.84824 0.32283 0.64346 0.0
H747 H 0.81386 0.25787 0.59865 0.0
H748 H 0.82055 0.31361 0.54212 0.0
H749 H 0.83607 0.28676 0.57195 0.0
H750 H 0.80784 0.33749 0.62483 0.0
H751 H 0.79233 0.36423 0.59514 0.0
C752 C 0.84803 0.28632 0.65761 0.0
C753 C 0.84079 0.25994 0.65408 0.0
C754 C 0.84272 0.3025 0.64014 0.0
C755 C 0.83031 0.29257 0.61868 0.0
C756 C 0.82368 0.26604 0.61494 0.0
C757 C 0.82876 0.24988 0.63251 0.0
C758 C 0.81804 0.31923 0.56015 0.0
C759 C 0.80516 0.34099 0.56629 0.0
C760 C 0.82674 0.30375 0.57719 0.0
C761 C 0.82304 0.30995 0.6007 0.0
C762 C 0.81114 0.33231 0.60689 0.0
C763 C 0.80218 0.34758 0.58986 0.0
H764 H 0.55263 0.99997 0.58146 0.0
H765 H 0.48545 0.02177 0.61501 0.0
H766 H 0.57658 1.00116 0.61913 0.0
H767 H 0.50968 0.02333 0.65282 0.0
H768 H 0.57309 0.05245 0.71156 0.0
H769 H 0.54601 0.04868 0.67538 0.0
H770 H 0.57809 0.9779 0.65459 0.0
H771 H 0.60554 0.98175 0.6908 0.0
C772 C 0.54288 1.00487 0.59688 0.0
C773 C 0.517 0.01063 0.59513 0.0
C774 C 0.55664 1.00549 0.61851 0.0
C775 C 0.545 0.01207 0.63904 0.0
C776 C 0.51927 0.0183 0.63734 0.0
C777 C 0.50541 0.01754 0.61565 0.0
C778 C 0.57423 0.03588 0.69944 0.0
C779 C 0.59168 0.01746 0.70412 0.0
C780 C 0.55856 0.0337 0.67869 0.0
C781 C 0.56001 0.01312 0.66198 0.0
C782 C 0.57678 0.9942 0.66697 0.0
C783 C 0.59235 0.99628 0.68783 0.0
H784 H 0.86342 0.17438 0.76926 0.0
H785 H 0.91114 0.20695 0.71894 0.0
H786 H 0.89959 0.18096 0.79822 0.0
H787 H 0.94618 0.21617 0.74916 0.0
H788 H 0.97462 0.26054 0.82507 0.0
H789 H 0.94261 0.2474 0.79261 0.0
H790 H 0.95351 0.16806 0.80141 0.0
H791 H 0.98639 0.18133 0.83361 0.0
C792 C 0.88149 0.18269 0.7641 0.0
C793 C 0.88396 0.19015 0.74142 0.0
C794 C 0.90214 0.18674 0.78095 0.0
C795 C 0.9254 0.1993 0.77591 0.0
C796 C 0.92825 0.20655 0.75341 0.0
C797 C 0.90794 0.2016 0.73622 0.0
C798 C 0.97019 0.2403 0.82 0.0
C799 C 0.98239 0.22185 0.83201 0.0
C800 C 0.95211 0.23284 0.80139 0.0
C801 C 0.94578 0.20679 0.79463 0.0
C802 C 0.95821 0.18826 0.80641 0.0
C803 C 0.97685 0.19579 0.82473 0.0
H804 H 0.55584 0.91927 0.51231 0.0
H805 H 0.47746 0.9268 0.48678 0.0
H806 H 0.55577 0.87904 0.48796 0.0
H807 H 0.47747 0.88699 0.46224 0.0
H808 H 0.47545 0.80204 0.44222 0.0
H809 H 0.4778 0.84151 0.46718 0.0
H810 H 0.55423 0.86167 0.44707 0.0
H811 H 0.55213 0.82171 0.42213 0.0
C812 C 0.53867 0.91237 0.50137 0.0
C813 C 0.51667 0.92609 0.50149 0.0
C814 C 0.53867 0.88943 0.48736 0.0
C815 C 0.51657 0.87972 0.47325 0.0
C816 C 0.49467 0.89371 0.47319 0.0
C817 C 0.49471 0.91663 0.48716 0.0
C818 C 0.49289 0.81472 0.44313 0.0
C819 C 0.51357 0.80864 0.43 0.0
C820 C 0.49413 0.83751 0.45737 0.0
C821 C 0.51606 0.85492 0.4589 0.0
C822 C 0.53709 0.84859 0.44635 0.0
C823 C 0.53586 0.8257 0.43202 0.0
H824 H 0.20776 0.33323 0.79878 0.0
H825 H 0.15641 0.3017 0.74022 0.0
H826 H 0.17432 0.32352 0.825 0.0
H827 H 0.12304 0.29183 0.76639 0.0
H828 H 0.06116 0.30039 0.81765 0.0
H829 H 0.09456 0.31364 0.79262 0.0
H830 H 0.15191 0.28525 0.83909 0.0
H831 H 0.11857 0.27215 0.8642 0.0
C832 C 0.18932 0.3242 0.79155 0.0
C833 C 0.18474 0.31813 0.76751 0.0
C834 C 0.17021 0.31856 0.80654 0.0
C835 C 0.14601 0.30691 0.79779 0.0
C836 C 0.14137 0.30108 0.77367 0.0
C837 C 0.16056 0.30656 0.75868 0.0
C838 C 0.08094 0.29725 0.82268 0.0
C839 C 0.0872 0.28518 0.84291 0.0
C840 C 0.10004 0.30465 0.80823 0.0
C841 C 0.12587 0.30033 0.81377 0.0
C842 C 0.13223 0.28902 0.8344 0.0
C843 C 0.1131 0.28145 0.84876 0.0
H844 H 0.6026 0.62155 0.50085 0.0
H845 H 0.52357 0.59583 0.5086 0.0
H846 H 0.58852 0.65195 0.47391 0.0
H847 H 0.5093 0.62529 0.48077 0.0
H848 H 0.49101 0.69844 0.44779 0.0
H849 H 0.50477 0.66839 0.47509 0.0
H850 H 0.571 0.65571 0.43633 0.0
H851 H 0.55781 0.6867 0.40971 0.0
C852 C 0.58217 0.62233 0.49662 0.0
C853 C 0.56421 0.60646 0.50689 0.0
C854 C 0.57405 0.6396 0.481 0.0
C855 C 0.54769 0.64115 0.47495 0.0
C856 C 0.52972 0.62506 0.48523 0.0
C857 C 0.53788 0.60802 0.50112 0.0
C858 C 0.5085 0.68922 0.44508 0.0
C859 C 0.52335 0.69511 0.42659 0.0
C860 C 0.51635 0.6718 0.4607 0.0
C861 C 0.53909 0.6595 0.45808 0.0
C862 C 0.55369 0.66513 0.43931 0.0
C863 C 0.54603 0.68282 0.42389 0.0
H864 H 0.88953 0.8622 0.74939 0.0
H865 H 0.89558 0.79331 0.78481 0.0
H866 H 0.91848 0.84653 0.72097 0.0
H867 H 0.92466 0.77795 0.75687 0.0
H868 H 0.94507 0.74334 0.6876 0.0
H869 H 0.91913 0.76231 0.71612 0.0
H870 H 0.96339 0.83504 0.71531 0.0
H871 H 0.98966 0.81596 0.68611 0.0
C872 C 0.89726 0.84385 0.75121 0.0
C873 C 0.89009 0.82889 0.76915 0.0
C874 C 0.91393 0.83496 0.73504 0.0
C875 C 0.92367 0.81088 0.73652 0.0
C876 C 0.91712 0.79637 0.75498 0.0
C877 C 0.9005 0.80523 0.77107 0.0
C878 C 0.9495 0.7634 0.69341 0.0
C879 C 0.96976 0.77803 0.68463 0.0
C880 C 0.9346 0.77424 0.70994 0.0
C881 C 0.93943 0.80007 0.71831 0.0
C882 C 0.95921 0.81505 0.70919 0.0
C883 C 0.97428 0.80411 0.69252 0.0
H884 H 0.10191 0.91725 0.5397 0.0
H885 H 0.02279 0.92635 0.51782 0.0
H886 H 0.08804 0.88577 0.56579 0.0
H887 H 0.00865 0.89486 0.54445 0.0
H888 H 0.99958 0.81373 0.57412 0.0
H889 H 0.00878 0.84874 0.54968 0.0
H890 H 0.06753 0.88266 0.60147 0.0
H891 H 0.05878 0.84749 0.62552 0.0
C892 C 0.08148 0.91259 0.54062 0.0
C893 C 0.06347 0.92425 0.52675 0.0
C894 C 0.07349 0.89467 0.55573 0.0
C895 C 0.04719 0.88792 0.55745 0.0
C896 C 0.02906 0.89955 0.54348 0.0
C897 C 0.03712 0.91763 0.5283 0.0
C898 C 0.01419 0.82889 0.58042 0.0
C899 C 0.02865 0.82767 0.60165 0.0
C900 C 0.01941 0.849 0.56643 0.0
C901 C 0.03918 0.86833 0.57342 0.0
C902 C 0.05259 0.86779 0.59528 0.0
C903 C 0.04745 0.84769 0.60916 0.0
H904 H 0.15349 0.70284 0.78552 0.0
H905 H 0.19877 0.70076 0.72599 0.0
H906 H 0.11594 0.71186 0.7609 0.0
H907 H 0.16116 0.70984 0.70133 0.0
H908 H 0.0967 0.75605 0.67188 0.0
H909 H 0.1337 0.7469 0.69699 0.0
H910 H 0.08633 0.68984 0.72785 0.0
H911 H 0.04923 0.69889 0.70277 0.0
C912 C 0.15541 0.70427 0.76716 0.0
C913 C 0.17908 0.7012 0.75763 0.0
C914 C 0.13387 0.70932 0.75306 0.0
C915 C 0.13564 0.71167 0.72922 0.0
C916 C 0.1593 0.70843 0.7197 0.0
C917 C 0.18075 0.70309 0.73375 0.0
C918 C 0.09407 0.74166 0.6841 0.0
C919 C 0.06992 0.72823 0.68528 0.0
C920 C 0.11534 0.73629 0.69836 0.0
C921 C 0.11293 0.71759 0.71432 0.0
C922 C 0.08873 0.70448 0.71582 0.0
C923 C 0.0675 0.70962 0.70138 0.0
H924 H 0.95735 0.59875 0.51977 0.0
H925 H 0.03861 0.59389 0.51292 0.0
H926 H 0.9665 0.63813 0.54398 0.0
H927 H 0.04781 0.63475 0.53546 0.0
H928 H 0.05941 0.69386 0.5981 0.0
H929 H 0.05203 0.65602 0.5707 0.0
H930 H 0.97714 0.67997 0.54915 0.0
H931 H 0.98396 0.71608 0.57831 0.0
C932 C 0.97726 0.60605 0.52345 0.0
C933 C 0.99721 0.59274 0.51457 0.0
C934 C 0.98259 0.62917 0.5371 0.0
C935 C 0.00805 0.64003 0.54211 0.0
C936 C 0.02798 0.62698 0.53268 0.0
C937 C 0.02266 0.60358 0.51931 0.0
C938 C 0.04141 0.69075 0.58744 0.0
C939 C 0.02186 0.7071 0.59076 0.0
C940 C 0.03718 0.66921 0.57144 0.0
C941 C 0.01367 0.66426 0.55769 0.0
C942 C 0.99504 0.68216 0.55992 0.0
C943 C 0.99896 0.7031 0.57649 0.0
H944 H 0.78069 0.88037 0.17045 0.0
H945 H 0.76516 0.88175 0.24298 0.0
H946 H 0.81456 0.914 0.17998 0.0
H947 H 0.7955 0.91815 0.25161 0.0
H948 H 0.87009 0.96495 0.26907 0.0
H949 H 0.83602 0.93159 0.25899 0.0
H950 H 0.82927 0.95498 0.18881 0.0
H951 H 0.86581 0.98663 0.19886 0.0
C952 C 0.78414 0.8878 0.18842 0.0
C953 C 0.7699 0.87762 0.20585 0.0
C954 C 0.80337 0.90784 0.19383 0.0
C955 C 0.80832 0.91917 0.21671 0.0
C956 C 0.79326 0.90974 0.23389 0.0
C957 C 0.77495 0.88898 0.2287 0.0
C958 C 0.86168 0.96241 0.25133 0.0
C959 C 0.87141 0.97726 0.23441 0.0
C960 C 0.84151 0.94363 0.24556 0.0
C961 C 0.82951 0.94001 0.22286 0.0
C962 C 0.83835 0.95626 0.20625 0.0
C963 C 0.85914 0.97466 0.21198 0.0
H964 H 0.76291 0.13293 0.30969 0.0
H965 H 0.82113 0.1942 0.33239 0.0
H966 H 0.79625 0.10449 0.30098 0.0
H967 H 0.85471 0.16547 0.32395 0.0
H968 H 0.90251 0.11217 0.27692 0.0
H969 H 0.87199 0.14257 0.28942 0.0
H970 H 0.82994 0.08272 0.32166 0.0
H971 H 0.86019 0.05242 0.30914 0.0
C972 C 0.78287 0.14035 0.31278 0.0
C973 C 0.78934 0.16588 0.32164 0.0
C974 C 0.802 0.12396 0.30802 0.0
C975 C 0.82818 0.13265 0.31187 0.0
C976 C 0.83473 0.15821 0.32069 0.0
C977 C 0.81551 0.1746 0.32568 0.0
C978 C 0.88697 0.10561 0.28698 0.0
C979 C 0.88372 0.0798 0.2919 0.0
C980 C 0.86951 0.12305 0.29418 0.0
C981 C 0.84834 0.115 0.3063 0.0
C982 C 0.84577 0.08945 0.31201 0.0
C983 C 0.86325 0.07211 0.30496 0.0
H984 H 0.41861 0.04855 0.99683 0.0
H985 H 0.45771 0.97908 0.992 0.0
H986 H 0.37895 0.02388 1.00403 0.0
H987 H 0.41776 0.95426 0.99879 0.0
H988 H 0.34634 0.91982 0.0301 0.0
H989 H 0.38629 0.94737 0.02941 0.0
H990 H 0.3484 0.99248 0.98021 0.0
H991 H 0.30877 0.9652 0.98093 0.0
C992 C 0.41877 0.028 0.99744 0.0
C993 C 0.4413 0.01575 0.9938 0.0
C994 C 0.39601 0.01387 1.00145 0.0
C995 C 0.39523 0.98713 1.00204 0.0
C996 C 0.41784 0.97487 0.99872 0.0
C997 C 0.4406 0.98902 0.99452 0.0
C998 C 0.34643 0.93602 0.01962 0.0
C999 C 0.32443 0.94034 1.00557 0.0
C1000 C 0.36935 0.95158 0.019 0.0
C1001 C 0.37054 0.97196 1.00461 0.0
C1002 C 0.34811 0.97706 0.99158 0.0
C1003 C 0.3254 0.96138 0.99197 0.0
H1004 H 0.24523 0.33743 0.32031 0.0
H1005 H 0.3059 0.39492 0.30988 0.0
H1006 H 0.21308 0.36744 0.31081 0.0
H1007 H 0.27402 0.42462 0.3002 0.0
H1008 H 0.21327 0.48027 0.30637 0.0
H1009 H 0.24183 0.44905 0.31951 0.0
H1010 H 0.19686 0.38925 0.2757 0.0
H1011 H 0.16794 0.42067 0.2625 0.0
C1012 C 0.25168 0.35652 0.31617 0.0
C1013 C 0.27809 0.36382 0.31581 0.0
C1014 C 0.2333 0.37359 0.31054 0.0
C1015 C 0.241 0.39842 0.30479 0.0
C1016 C 0.26743 0.40575 0.3048 0.0
C1017 C 0.28571 0.38866 0.31016 0.0
C1018 C 0.20923 0.46044 0.29965 0.0
C1019 C 0.18841 0.45302 0.28322 0.0
C1020 C 0.22572 0.44256 0.30713 0.0
C1021 C 0.22181 0.41672 0.29846 0.0
C1022 C 0.20033 0.40901 0.28278 0.0
C1023 C 0.18382 0.42701 0.27516 0.0
H1024 H 0.10988 0.04464 0.51019 0.0
H1025 H 0.14293 1.00527 0.45294 0.0
H1026 H 0.15017 0.07115 0.51968 0.0
H1027 H 0.1839 0.03035 0.4631 0.0
H1028 H 0.2397 0.10217 0.46733 0.0
H1029 H 0.20361 0.06997 0.46062 0.0
H1030 H 0.19263 0.07616 0.53418 0.0
H1031 H 0.22819 0.10966 0.54034 0.0
C1032 C 0.12605 0.04147 0.49991 0.0
C1033 C 0.12342 0.02323 0.48076 0.0
C1034 C 0.14927 0.05644 0.50543 0.0
C1035 C 0.17054 0.05313 0.49215 0.0
C1036 C 0.16794 0.03405 0.47344 0.0
C1037 C 0.14454 0.01951 0.46765 0.0
C1038 C 0.22941 0.09663 0.48199 0.0
C1039 C 0.23572 0.10914 0.50411 0.0
C1040 C 0.20894 0.07778 0.47828 0.0
C1041 C 0.19459 0.07062 0.49677 0.0
C1042 C 0.20253 0.08173 0.51934 0.0
C1043 C 0.223 0.10077 0.52298 0.0
H1044 H 0.79156 0.16325 0.74547 0.0
H1045 H 0.80078 0.12263 0.67947 0.0
H1046 H 0.75671 0.13216 0.75233 0.0
H1047 H 0.76677 0.09022 0.68669 0.0
H1048 H 0.68993 0.04711 0.69803 0.0
H1049 H 0.7235 0.0792 0.68927 0.0
H1050 H 0.74787 0.0916 0.76254 0.0
H1051 H 0.71319 0.06105 0.77099 0.0
C1052 C 0.78611 0.14741 0.73251 0.0
C1053 C 0.79877 0.14516 0.71202 0.0
C1054 C 0.76625 0.12939 0.73647 0.0
C1055 C 0.75888 0.10829 0.72023 0.0
C1056 C 0.77152 0.10629 0.69951 0.0
C1057 C 0.79113 0.12471 0.69537 0.0
C1058 C 0.70243 0.05704 0.71213 0.0
C1059 C 0.69858 0.05248 0.73518 0.0
C1060 C 0.72187 0.07521 0.70717 0.0
C1061 C 0.73841 0.08845 0.72518 0.0
C1062 C 0.73512 0.08265 0.74819 0.0
C1063 C 0.71534 0.06501 0.75311 0.0
H1064 H 0.47487 0.0757 0.55069 0.0
H1065 H 0.42109 0.01205 0.52406 0.0
H1066 H 0.44366 0.10554 0.53919 0.0
H1067 H 0.3897 0.04166 0.51305 0.0
H1068 H 0.34442 0.09952 0.47858 0.0
H1069 H 0.3792 0.07226 0.48668 0.0
H1070 H 0.40427 0.12117 0.54884 0.0
H1071 H 0.37023 0.14876 0.54027 0.0
C1072 C 0.45627 0.06809 0.54259 0.0
C1073 C 0.45051 0.04149 0.53826 0.0
C1074 C 0.43834 0.08519 0.53597 0.0
C1075 C 0.41407 0.07613 0.52502 0.0
C1076 C 0.40832 0.04948 0.5209 0.0
C1077 C 0.4263 0.03243 0.52736 0.0
C1078 C 0.35766 0.10468 0.49373 0.0
C1079 C 0.35447 0.12631 0.50877 0.0
C1080 C 0.37747 0.08889 0.49855 0.0
C1081 C 0.39448 0.09422 0.51862 0.0
C1082 C 0.39182 0.11647 0.53312 0.0
C1083 C 0.37215 0.13231 0.52822 0.0
H1084 H 0.62763 0.50247 0.58571 0.0
H1085 H 0.59177 0.49612 0.5159 0.0
H1086 H 0.66088 0.47563 0.57283 0.0
H1087 H 0.62458 0.46891 0.50304 0.0
H1088 H 0.70256 0.44514 0.4824 0.0
H1089 H 0.66871 0.47079 0.49559 0.0
H1090 H 0.66973 0.43347 0.55949 0.0
H1091 H 0.70409 0.40841 0.54663 0.0
C1092 C 0.62666 0.49504 0.56767 0.0
C1093 C 0.60715 0.50159 0.55182 0.0
C1094 C 0.64571 0.4796 0.56025 0.0
C1095 C 0.64563 0.47014 0.5368 0.0
C1096 C 0.6257 0.47625 0.5211 0.0
C1097 C 0.60679 0.4918 0.52849 0.0
C1098 C 0.69556 0.44235 0.49925 0.0
C1099 C 0.70622 0.42469 0.51343 0.0
C1100 C 0.67598 0.45699 0.50679 0.0
C1101 C 0.66636 0.45429 0.52866 0.0
C1102 C 0.67686 0.43644 0.54272 0.0
C1103 C 0.69653 0.42191 0.53525 0.0
H1104 H 0.78562 0.25249 0.36775 0.0
H1105 H 0.71537 0.21361 0.38626 0.0
H1106 H 0.78526 0.28336 0.40114 0.0
H1107 H 0.71555 0.24342 0.42074 0.0
H1108 H 0.70822 0.31699 0.46715 0.0
H1109 H 0.70821 0.28378 0.43507 0.0
H1110 H 0.79149 0.29264 0.43978 0.0
H1111 H 0.79094 0.32698 0.47011 0.0
C1112 C 0.77042 0.25027 0.37939 0.0
C1113 C 0.75061 0.23069 0.37455 0.0
C1114 C 0.77016 0.26793 0.39869 0.0
C1115 C 0.75033 0.26615 0.41397 0.0
C1116 C 0.73086 0.24596 0.40929 0.0
C1117 C 0.73086 0.22864 0.38967 0.0
C1118 C 0.72638 0.31169 0.46112 0.0
C1119 C 0.74951 0.32486 0.47052 0.0
C1120 C 0.72651 0.29247 0.44289 0.0
C1121 C 0.74988 0.2855 0.43433 0.0
C1122 C 0.77302 0.29787 0.44503 0.0
C1123 C 0.77278 0.31744 0.46266 0.0
H1124 H 0.51095 0.97615 0.89429 0.0
H1125 H 0.55449 0.04584 0.92336 0.0
H1126 H 0.53534 0.97688 0.85961 0.0
H1127 H 0.57878 0.04642 0.88915 0.0
H1128 H 0.59309 0.05841 0.81468 0.0
H1129 H 0.56885 0.05424 0.84849 0.0
H1130 H 0.57973 0.97346 0.84578 0.0
H1131 H 0.60407 0.97748 0.81142 0.0
C1132 C 0.52584 0.99147 0.89334 0.0
C1133 C 0.53063 0.011 0.91145 0.0
C1134 C 0.53985 0.99183 0.87357 0.0
C1135 C 0.55881 0.01185 0.87153 0.0
C1136 C 0.56399 0.03098 0.88998 0.0
C1137 C 0.55011 0.03057 0.90968 0.0
C1138 C 0.59034 0.03965 0.8211 0.0
C1139 C 0.60074 0.01829 0.81026 0.0
C1140 C 0.57652 0.03733 0.84066 0.0
C1141 C 0.57261 0.01359 0.85002 0.0
C1142 C 0.58236 0.99201 0.83893 0.0
C1143 C 0.59637 0.99434 0.81929 0.0
H1144 H 0.27267 0.2889 0.35865 0.0
H1145 H 0.35498 0.30007 0.37402 0.0
H1146 H 0.26905 0.26323 0.39152 0.0
H1147 H 0.35129 0.27393 0.40708 0.0
H1148 H 0.32942 0.20036 0.44808 0.0
H1149 H 0.33902 0.22878 0.41741 0.0
H1150 H 0.27406 0.27102 0.43378 0.0
H1151 H 0.26439 0.24271 0.46376 0.0
C1152 C 0.29001 0.28611 0.36917 0.0
C1153 C 0.31406 0.29692 0.3638 0.0
C1154 C 0.28794 0.27132 0.38806 0.0
C1155 C 0.30985 0.26682 0.40218 0.0
C1156 C 0.33406 0.27699 0.39653 0.0
C1157 C 0.33614 0.29195 0.37757 0.0
C1158 C 0.31766 0.21613 0.44542 0.0
C1159 C 0.29599 0.21914 0.45812 0.0
C1160 C 0.32307 0.23234 0.42784 0.0
C1161 C 0.3069 0.25178 0.42278 0.0
C1162 C 0.28646 0.25581 0.43674 0.0
C1163 C 0.28103 0.23968 0.45407 0.0
H1164 H 0.52978 0.46052 0.91976 0.0
H1165 H 0.54487 0.5427 0.93122 0.0
H1166 H 0.50734 0.46543 0.88233 0.0
H1167 H 0.52322 0.54755 0.89325 0.0
H1168 H 0.45832 0.5441 0.83258 0.0
H1169 H 0.48121 0.54274 0.8708 0.0
H1170 H 0.51877 0.47718 0.84471 0.0
H1171 H 0.49581 0.47826 0.80699 0.0
C1172 C 0.52815 0.47966 0.9144 0.0
C1173 C 0.53924 0.50119 0.92852 0.0
C1174 C 0.51558 0.48248 0.89275 0.0
C1175 C 0.51377 0.50689 0.88459 0.0
C1176 C 0.52422 0.52849 0.89898 0.0
C1177 C 0.53684 0.52567 0.92066 0.0
C1178 C 0.47182 0.52972 0.83494 0.0
C1179 C 0.47502 0.51116 0.81676 0.0
C1180 C 0.48489 0.52888 0.85686 0.0
C1181 C 0.50143 0.5095 0.86098 0.0
C1182 C 0.50564 0.49191 0.84238 0.0
C1183 C 0.4926 0.49268 0.82064 0.0
H1184 H 0.73911 0.82768 0.13225 0.0
H1185 H 0.73395 0.7633 0.17416 0.0
H1186 H 0.74299 0.79858 0.09784 0.0
H1187 H 0.73793 0.73414 0.1397 0.0
H1188 H 0.77875 0.69783 0.07735 0.0
H1189 H 0.77323 0.72606 0.11186 0.0
H1190 H 0.7149 0.76281 0.07338 0.0
H1191 H 0.72018 0.73451 0.03885 0.0
C1192 C 0.73883 0.80729 0.13406 0.0
C1193 C 0.73626 0.79772 0.15584 0.0
C1194 C 0.74087 0.79065 0.11438 0.0
C1195 C 0.74077 0.76412 0.11612 0.0
C1196 C 0.73822 0.75453 0.13791 0.0
C1197 C 0.73577 0.77116 0.15756 0.0
C1198 C 0.76474 0.71193 0.07621 0.0
C1199 C 0.74996 0.71395 0.05529 0.0
C1200 C 0.76148 0.72795 0.09603 0.0
C1201 C 0.74365 0.7466 0.09528 0.0
C1202 C 0.72891 0.7487 0.0744 0.0
C1203 C 0.73188 0.73242 0.05466 0.0
H1204 H 0.04186 0.99114 0.10341 0.0
H1205 H 0.04729 0.07336 0.11722 0.0
H1206 H 0.01878 0.98651 0.13812 0.0
H1207 H 0.02468 0.06883 0.15231 0.0
H1208 H 0.9589 0.05126 0.19945 0.0
H1209 H 0.98375 0.05765 0.1659 0.0
H1210 H 0.02325 0.99031 0.17896 0.0
H1211 H 0.99792 0.9835 0.2118 0.0
C1212 C 0.03845 0.00823 0.11407 0.0
C1213 C 0.04644 0.0326 0.1075 0.0
C1214 C 0.02523 0.00561 0.13406 0.0
C1215 C 0.01981 0.0273 0.14821 0.0
C1216 C 0.02807 0.05169 0.14173 0.0
C1217 C 0.04113 0.0543 0.12162 0.0
C1218 C 0.97306 0.03797 0.19526 0.0
C1219 C 0.97622 0.01678 0.20829 0.0
C1220 C 0.9874 0.04165 0.17602 0.0
C1221 C 1.00543 0.02435 0.16944 0.0
C1222 C 0.00916 1.0037 0.18303 0.0
C1223 C 0.99471 0.9999 0.20206 0.0
H1224 H 0.30584 0.74311 0.14307 0.0
H1225 H 0.38566 0.75783 0.12992 0.0
H1226 H 0.29414 0.77559 0.11735 0.0
H1227 H 0.37386 0.79051 0.10398 0.0
H1228 H 0.33262 0.82237 0.03814 0.0
H1229 H 0.34842 0.79264 0.06526 0.0
H1230 H 0.30086 0.82327 0.11688 0.0
H1231 H 0.28507 0.8529 0.08992 0.0
C1232 C 0.3209 0.75324 0.13464 0.0
C1233 C 0.34669 0.74788 0.13843 0.0
C1234 C 0.31421 0.772 0.12003 0.0
C1235 C 0.3331 0.7857 0.10875 0.0
C1236 C 0.35888 0.78018 0.11236 0.0
C1237 C 0.36563 0.76156 0.12721 0.0
C1238 C 0.32585 0.82302 0.0554 0.0
C1239 C 0.30748 0.83989 0.06183 0.0
C1240 C 0.33494 0.80603 0.07093 0.0
C1241 C 0.32564 0.80543 0.09309 0.0
C1242 C 0.30806 0.82302 0.0998 0.0
C1243 C 0.29916 0.84012 0.08438 0.0
H1244 H 0.01067 0.47185 0.09881 0.0
H1245 H 0.02697 0.55333 0.0961 0.0
H1246 H 0.03466 0.47413 0.13664 0.0
H1247 H 0.05122 0.55564 0.13384 0.0
H1248 H 0.07349 0.5564 0.21045 0.0
H1249 H 0.04643 0.5523 0.17434 0.0
H1250 H 0.07791 0.48088 0.15445 0.0
H1251 H 0.10468 0.48466 0.19097 0.0
C1252 C 0.01954 0.49024 0.10624 0.0
C1253 C 0.01697 0.51241 0.09438 0.0
C1254 C 0.03333 0.49154 0.12794 0.0
C1255 C 0.04495 0.51505 0.13836 0.0
C1256 C 0.04219 0.53726 0.12656 0.0
C1257 C 0.02832 0.53596 0.10488 0.0
C1258 C 0.07452 0.53964 0.19853 0.0
C1259 C 0.09142 0.5209 0.20368 0.0
C1260 C 0.05909 0.53742 0.17767 0.0
C1261 C 0.06016 0.51644 0.16127 0.0
C1262 C 0.07641 0.49722 0.16672 0.0
C1263 C 0.09182 0.4994 0.18769 0.0
H1264 H 0.3818 0.65596 0.24846 0.0
H1265 H 0.39074 0.73456 0.2309 0.0
H1266 H 0.41524 0.66548 0.27958 0.0
H1267 H 0.42641 0.7431 0.25992 0.0
H1268 H 0.46838 0.76108 0.33041 0.0
H1269 H 0.43588 0.75107 0.29849 0.0
H1270 H 0.45813 0.67328 0.29124 0.0
H1271 H 0.48936 0.68328 0.3248 0.0
C1272 C 0.39094 0.67527 0.25104 0.0
C1273 C 0.38303 0.69453 0.23715 0.0
C1274 C 0.41068 0.68059 0.26869 0.0
C1275 C 0.42373 0.70514 0.27255 0.0
C1276 C 0.41653 0.72411 0.25803 0.0
C1277 C 0.39627 0.71901 0.24087 0.0
C1278 C 0.46586 0.7417 0.32224 0.0
C1279 C 0.48037 0.72261 0.33065 0.0
C1280 C 0.44759 0.73602 0.30352 0.0
C1281 C 0.44402 0.71123 0.2921 0.0
C1282 C 0.45966 0.6924 0.2999 0.0
C1283 C 0.47771 0.69808 0.31899 0.0
H1284 H 0.97941 0.42988 0.98543 0.0
H1285 H 0.05908 0.42571 0.00879 0.0
H1286 H 0.98027 0.3902 0.96088 0.0
H1287 H 0.05989 0.38561 0.98438 0.0
H1288 H 0.05519 0.32709 0.91871 0.0
H1289 H 0.05714 0.36744 0.94326 0.0
H1290 H 0.98286 0.3451 0.96693 0.0
H1291 H 0.98069 0.30534 0.94251 0.0
C1292 C 0.99713 0.4205 0.98531 0.0
C1293 C 0.01918 0.43083 0.99909 0.0
C1294 C 0.9976 0.39766 0.97133 0.0
C1295 C 0.0201 0.38461 0.97081 0.0
C1296 C 0.04232 0.39526 0.98426 0.0
C1297 C 0.04182 0.41812 0.9983 0.0
C1298 C 0.03941 0.33072 0.92933 0.0
C1299 C 0.01771 0.313 0.92842 0.0
C1300 C 0.04053 0.35382 0.9434 0.0
C1301 C 0.01996 0.35965 0.95677 0.0
C1302 C 0.99875 0.34152 0.95643 0.0
C1303 C 0.99763 0.31857 0.94248 0.0
H1304 H 0.69946 0.8412 0.29762 0.0
H1305 H 0.648 0.80807 0.23972 0.0
H1306 H 0.66702 0.83012 0.32437 0.0
H1307 H 0.61557 0.79686 0.26646 0.0
H1308 H 0.55486 0.80224 0.31929 0.0
H1309 H 0.58692 0.81749 0.29377 0.0
H1310 H 0.64691 0.79028 0.33821 0.0
H1311 H 0.61491 0.77511 0.36378 0.0
C1312 C 0.68117 0.83157 0.29064 0.0
C1313 C 0.67629 0.82539 0.26665 0.0
C1314 C 0.66266 0.82515 0.30594 0.0
C1315 C 0.63875 0.81259 0.29754 0.0
C1316 C 0.63371 0.80677 0.27345 0.0
C1317 C 0.65234 0.81303 0.25814 0.0
C1318 C 0.57493 0.79982 0.32379 0.0
C1319 C 0.58235 0.78743 0.34356 0.0
C1320 C 0.59326 0.80836 0.30906 0.0
C1321 C 0.61942 0.80492 0.31388 0.0
C1322 C 0.62693 0.79337 0.3341 0.0
C1323 C 0.60858 0.78462 0.34873 0.0
H1324 H 0.03463 0.11761 0.02451 0.0
H1325 H 0.06999 0.08175 0.96665 0.0
H1326 H 0.02397 0.1528 1.00115 0.0
H1327 H 0.05928 0.11672 0.94331 0.0
H1328 H 0.06129 0.19625 0.91708 0.0
H1329 H 0.0719 0.16273 0.94198 0.0
H1330 H 0.99567 0.16067 0.96629 0.0
H1331 H 0.98495 0.19442 0.94147 0.0
C1332 C 0.04011 0.11724 1.00682 0.0
C1333 C 0.0532 0.09697 0.99737 0.0
C1334 C 0.0339 0.13732 0.99341 0.0
C1335 C 0.04088 0.13761 0.9704 0.0
C1336 C 0.05395 0.11727 0.96106 0.0
C1337 C 0.05996 0.09718 0.97437 0.0
C1338 C 0.04676 0.18879 0.92777 0.0
C1339 C 0.02221 0.19809 0.92715 0.0
C1340 C 0.05283 0.16944 0.94197 0.0
C1341 C 0.0346 0.15893 0.95604 0.0
C1342 C 0.01021 0.16851 0.9558 0.0
C1343 C 1.00405 0.18779 0.94146 0.0
H1344 H 0.43122 0.30732 0.30017 0.0
H1345 H 0.36616 0.31182 0.25091 0.0
H1346 H 0.45813 0.29798 0.268 0.0
H1347 H 0.39289 0.30226 0.21898 0.0
H1348 H 0.44 0.24493 0.17692 0.0
H1349 H 0.41423 0.26116 0.20728 0.0
H1350 H 0.47568 0.31867 0.23133 0.0
H1351 H 0.50161 0.3026 0.20037 0.0
C1352 C 0.42277 0.30649 0.28249 0.0
C1353 C 0.39663 0.31021 0.27806 0.0
C1354 C 0.43817 0.30135 0.26413 0.0
C1355 C 0.42757 0.29944 0.24103 0.0
C1356 C 0.40152 0.30357 0.23662 0.0
C1357 C 0.38625 0.30906 0.25493 0.0
C1358 C 0.44796 0.26126 0.18844 0.0
C1359 C 0.47285 0.2725 0.18624 0.0
C1360 C 0.43313 0.2706 0.2058 0.0
C1361 C 0.44297 0.29113 0.22167 0.0
C1362 C 0.46771 0.30273 0.21933 0.0
C1363 C 0.48243 0.29368 0.20156 0.0
H1364 H 0.52037 0.42605 0.02264 0.0
H1365 H 0.60018 0.41877 0.04336 0.0
H1366 H 0.50755 0.3939 0.04909 0.0
H1367 H 0.5876 0.38654 0.06924 0.0
H1368 H 0.56038 0.34587 0.12852 0.0
H1369 H 0.56802 0.38175 0.105 0.0
H1370 H 0.50865 0.34806 0.05369 0.0
H1371 H 0.50054 0.3124 0.0776 0.0
C1372 C 0.53515 0.41758 0.03282 0.0
C1373 C 0.5613 0.42491 0.03099 0.0
C1374 C 0.52783 0.39911 0.04791 0.0
C1375 C 0.54653 0.38774 0.06148 0.0
C1376 C 0.57263 0.39522 0.0595 0.0
C1377 C 0.57988 0.41356 0.0445 0.0
C1378 C 0.54867 0.34629 0.11239 0.0
C1379 C 0.53 0.32616 0.10485 0.0
C1380 C 0.55318 0.36679 0.0988 0.0
C1381 C 0.53927 0.36762 0.07722 0.0
C1382 C 0.51965 0.34813 0.07024 0.0
C1383 C 0.51505 0.32763 0.08393 0.0
H1384 H 0.70226 0.19896 0.22856 0.0
H1385 H 0.65604 0.20131 0.28746 0.0
H1386 H 0.66491 0.20755 0.20334 0.0
H1387 H 0.61874 0.20984 0.26229 0.0
H1388 H 0.55283 0.19604 0.20348 0.0
H1389 H 0.58968 0.18738 0.22906 0.0
H1390 H 0.63728 0.24431 0.19828 0.0
H1391 H 0.60054 0.25307 0.17267 0.0
C1392 C 0.68409 0.20125 0.23607 0.0
C1393 C 0.68208 0.19957 0.25994 0.0
C1394 C 0.66278 0.20631 0.22169 0.0
C1395 C 0.63893 0.20947 0.23087 0.0
C1396 C 0.63682 0.20734 0.25471 0.0
C1397 C 0.65822 0.20257 0.26913 0.0
C1398 C 0.57111 0.20681 0.2022 0.0
C1399 C 0.57366 0.22529 0.18599 0.0
C1400 C 0.59219 0.20189 0.21693 0.0
C1401 C 0.61638 0.2151 0.21561 0.0
C1402 C 0.61894 0.23364 0.19952 0.0
C1403 C 0.59781 0.23877 0.18497 0.0
H1404 H 0.4757 0.11439 0.99333 0.0
H1405 H 0.53032 0.07829 0.0364 0.0
H1406 H 0.48627 0.15502 0.01677 0.0
H1407 H 0.54034 0.11846 0.06065 0.0
H1408 H 0.56545 0.19713 0.09384 0.0
H1409 H 0.55952 0.16065 0.06444 0.0
H1410 H 0.47928 0.17443 0.05286 0.0
H1411 H 0.48581 0.21124 0.08143 0.0
C1412 C 0.48996 0.1153 0.00793 0.0
C1413 C 0.50221 0.09347 0.01325 0.0
C1414 C 0.49595 0.13846 0.02146 0.0
C1415 C 0.51407 0.14012 0.04081 0.0
C1416 C 0.52657 0.11813 0.04578 0.0
C1417 C 0.52074 0.09505 0.03206 0.0
C1418 C 0.54668 0.1923 0.08476 0.0
C1419 C 0.52579 0.20609 0.09043 0.0
C1420 C 0.54318 0.17137 0.06804 0.0
C1421 C 0.51877 0.16414 0.05651 0.0
C1422 C 0.49838 0.17931 0.06119 0.0
C1423 C 0.50195 0.20018 0.07784 0.0
H1424 H 0.24816 0.39837 0.72371 0.0
H1425 H 0.30233 0.35947 0.6833 0.0
H1426 H 0.28034 0.43453 0.733 0.0
H1427 H 0.33319 0.39658 0.69102 0.0
H1428 H 0.37248 0.48026 0.69641 0.0
H1429 H 0.33721 0.44704 0.68443 0.0
H1430 H 0.3267 0.43651 0.75641 0.0
H1431 H 0.36217 0.46905 0.76822 0.0
C1432 C 0.26673 0.39741 0.7167 0.0
C1433 C 0.27246 0.37566 0.70281 0.0
C1434 C 0.28503 0.4183 0.72184 0.0
C1435 C 0.30917 0.41826 0.71269 0.0
C1436 C 0.31464 0.39713 0.69815 0.0
C1437 C 0.29672 0.37592 0.69358 0.0
C1438 C 0.36252 0.47077 0.70953 0.0
C1439 C 0.37029 0.47652 0.73313 0.0
C1440 C 0.34244 0.4519 0.70275 0.0
C1441 C 0.3293 0.43933 0.71955 0.0
C1442 C 0.3364 0.44605 0.74316 0.0
C1443 C 0.35678 0.46443 0.74988 0.0
H1444 H 0.26032 0.6343 0.80656 0.0
H1445 H 0.31898 0.69519 0.82919 0.0
H1446 H 0.29342 0.60546 0.79825 0.0
H1447 H 0.3523 0.66603 0.82123 0.0
H1448 H 0.40047 0.61173 0.77586 0.0
H1449 H 0.36996 0.64256 0.78739 0.0
H1450 H 0.32645 0.58351 0.8194 0.0
H1451 H 0.35667 0.55278 0.80781 0.0
C1452 C 0.28031 0.64156 0.8097 0.0
C1453 C 0.28698 0.66709 0.81846 0.0
C1454 C 0.29932 0.62493 0.80518 0.0
C1455 C 0.32555 0.63337 0.8092 0.0
C1456 C 0.33228 0.65896 0.81785 0.0
C1457 C 0.31321 0.67559 0.82258 0.0
C1458 C 0.38459 0.60544 0.78565 0.0
C1459 C 0.38095 0.57974 0.79078 0.0
C1460 C 0.36713 0.62313 0.7923 0.0
C1461 C 0.34557 0.61543 0.80408 0.0
C1462 C 0.34257 0.58997 0.80999 0.0
C1463 C 0.36004 0.57238 0.80347 0.0
H1464 H 0.94763 0.51327 0.5318 0.0
H1465 H 0.92742 0.50517 0.45787 0.0
H1466 H 0.90714 0.48925 0.53817 0.0
H1467 H 0.88766 0.48044 0.46414 0.0
H1468 H 0.80724 0.46237 0.48125 0.0
H1469 H 0.84718 0.48883 0.47976 0.0
H1470 H 0.88373 0.44638 0.53194 0.0
H1471 H 0.8433 0.42004 0.53376 0.0
C1472 C 0.93463 0.50625 0.5169 0.0
C1473 C 0.94074 0.51126 0.49431 0.0
C1474 C 0.91153 0.49233 0.52056 0.0
C1475 C 0.89399 0.48321 0.50171 0.0
C1476 C 0.90048 0.48763 0.47911 0.0
C1477 C 0.9235 0.50149 0.47546 0.0
C1478 C 0.82364 0.45895 0.49274 0.0
C1479 C 0.82215 0.43895 0.50748 0.0
C1480 C 0.84663 0.47397 0.49172 0.0
C1481 C 0.86885 0.4693 0.50528 0.0
C1482 C 0.86697 0.45044 0.52122 0.0
C1483 C 0.84379 0.43542 0.52234 0.0
H1484 H 0.74871 0.83632 0.82141 0.0
H1485 H 0.80935 0.89387 0.81101 0.0
H1486 H 0.71654 0.86562 0.81037 0.0
H1487 H 0.77738 0.92285 0.79968 0.0
H1488 H 0.71571 0.97807 0.80525 0.0
H1489 H 0.74493 0.94738 0.81824 0.0
H1490 H 0.70016 0.88679 0.7752 0.0
H1491 H 0.67057 0.91771 0.76215 0.0
C1492 C 0.75516 0.85524 0.81687 0.0
C1493 C 0.7816 0.86278 0.81711 0.0
C1494 C 0.73674 0.87192 0.81035 0.0
C1495 C 0.74438 0.8966 0.80422 0.0
C1496 C 0.77082 0.90409 0.80456 0.0
C1497 C 0.78917 0.8874 0.81085 0.0
C1498 C 0.71188 0.95818 0.79864 0.0
C1499 C 0.69085 0.95039 0.78252 0.0
C1500 C 0.72877 0.9406 0.80602 0.0
C1501 C 0.72508 0.91469 0.79756 0.0
C1502 C 0.70349 0.90662 0.7821 0.0
C1503 C 0.68657 0.92432 0.77459 0.0
H1504 H 0.63601 0.50741 0.95559 0.0
H1505 H 0.60357 0.54713 0.01299 0.0
H1506 H 0.677 0.53268 0.9652 0.0
H1507 H 0.64386 0.57379 0.02195 0.0
H1508 H 0.72259 0.61061 0.04288 0.0
H1509 H 0.68638 0.57787 0.03645 0.0
H1510 H 0.69717 0.57228 0.96286 0.0
H1511 H 0.73394 0.60376 0.96983 0.0
C1512 C 0.63774 0.5218 0.97018 0.0
C1513 C 0.61682 0.52552 0.98353 0.0
C1514 C 0.66115 0.53644 0.97566 0.0
C1515 C 0.66395 0.55555 0.99434 0.0
C1516 C 0.64281 0.55901 0.00775 0.0
C1517 C 0.61958 0.54397 1.00252 0.0
C1518 C 0.71719 0.60205 0.02544 0.0
C1519 C 0.73009 0.61039 1.00666 0.0
C1520 C 0.69635 0.58345 0.02165 0.0
C1521 C 0.6882 0.57273 0.999 0.0
C1522 C 0.70265 0.57984 0.98056 0.0
C1523 C 0.72351 0.59827 0.98442 0.0
H1524 H 0.32307 0.62133 0.22803 0.0
H1525 H 0.26711 0.66546 0.19413 0.0
H1526 H 0.28856 0.59026 0.23623 0.0
H1527 H 0.23301 0.63321 0.20109 0.0
H1528 H 0.18881 0.54942 0.19823 0.0
H1529 H 0.22306 0.58094 0.1889 0.0
H1530 H 0.24697 0.59571 0.26183 0.0
H1531 H 0.21239 0.56485 0.27111 0.0
C1532 C 0.3035 0.62455 0.22236 0.0
C1533 C 0.29801 0.6462 0.21057 0.0
C1534 C 0.2838 0.60658 0.22692 0.0
C1535 C 0.25824 0.60945 0.21929 0.0
C1536 C 0.25264 0.63057 0.20701 0.0
C1537 C 0.27227 0.64892 0.20291 0.0
C1538 C 0.20133 0.55964 0.21217 0.0
C1539 C 0.19769 0.55547 0.23537 0.0
C1540 C 0.2208 0.57756 0.20688 0.0
C1541 C 0.23745 0.59072 0.22469 0.0
C1542 C 0.23433 0.58578 0.24784 0.0
C1543 C 0.21453 0.56834 0.25313 0.0
H1544 H 0.94147 0.55283 0.0741 0.0
H1545 H 0.95324 0.54116 1.00099 0.0
H1546 H 0.90948 0.58196 0.06545 0.0
H1547 H 0.91867 0.56769 0.99208 0.0
H1548 H 0.86655 0.63246 0.9823 0.0
H1549 H 0.90266 0.60664 0.99056 0.0
H1550 H 0.86845 0.58445 0.05274 0.0
H1551 H 0.83417 0.61191 0.04527 0.0
C1552 C 0.93736 0.55633 0.05612 0.0
C1553 C 0.95031 0.54426 0.03835 0.0
C1554 C 0.9183 0.57276 0.05103 0.0
C1555 C 0.91073 0.57709 0.02792 0.0
C1556 C 0.92382 0.56523 0.01013 0.0
C1557 C 0.94349 0.54939 0.01528 0.0
C1558 C 0.8671 0.6221 0.99776 0.0
C1559 C 0.84787 0.62426 0.01329 0.0
C1560 C 0.88766 0.60709 1.0025 0.0
C1561 C 0.88898 0.59337 0.02256 0.0
C1562 C 0.86901 0.59522 0.03759 0.0
C1563 C 0.84905 0.61076 0.0332 0.0
H1564 H 0.09423 0.97067 0.06367 0.0
H1565 H 0.13598 0.0363 0.03937 0.0
H1566 H 0.12739 0.94357 0.05087 0.0
H1567 H 0.16872 0.00918 0.02629 0.0
H1568 H 0.2059 0.94837 0.98196 0.0
H1569 H 0.17267 0.97452 0.99582 0.0
H1570 H 0.17335 0.93618 0.05909 0.0
H1571 H 0.2065 0.90986 0.04524 0.0
C1572 C 0.11057 0.9794 0.05583 0.0
C1573 C 0.11222 0.00569 0.05238 0.0
C1574 C 0.12955 0.96383 0.04843 0.0
C1575 C 0.15059 0.97414 0.03731 0.0
C1576 C 0.15251 1.00049 0.03433 0.0
C1577 C 0.13368 0.01605 0.04184 0.0
C1578 C 0.19896 0.94541 0.9988 0.0
C1579 C 0.20905 0.92699 0.01247 0.0
C1580 C 0.17998 0.96054 1.00682 0.0
C1581 C 0.17041 0.95756 0.02864 0.0
C1582 C 0.18015 0.93886 0.04214 0.0
C1583 C 0.19929 0.92385 0.03422 0.0
loop_
_geom_bond_atom_site_label_1
_geom_bond_atom_site_label_2
_geom_bond_distance
_geom_bond_site_symmetry_2
_ccdc_geom_bond_type
H0 C5 0.930 . S
H1 C8 0.930 . S
H2 C10 0.930 . S
H3 C4 1.016 . S
C4 H3 1.016 . S
C4 N11 1.286 1_556 S
C5 H0 0.930 . S
C5 C6 1.397 . S
C5 C7 1.361 . S
C6 C5 1.397 . S
C6 C10 1.390 . S
C7 C5 1.361 . S
C7 C8 1.393 . S
C7 N11 1.413 . S
C8 H1 0.930 . S
C8 C7 1.393 . S
C8 C9 1.399 . S
C9 C8 1.399 . S
C9 C10 1.381 . S
C10 H2 0.930 . S
C10 C6 1.390 . S
C10 C9 1.381 . S
N11 C4 1.286 1_554 S
N11 C7 1.413 . S
H12 C17 0.930 . S
H13 C20 0.930 . S
H14 C22 0.930 . S
H15 C16 1.016 . S
C16 H15 1.016 . S
C16 N23 1.286 . S
C17 H12 0.930 . S
C17 C18 1.397 . S
C17 C19 1.361 . S
C18 C17 1.397 . S
C18 C22 1.390 . S
C19 C17 1.361 . S
C19 C20 1.393 . S
C19 N23 1.413 . S
C20 H13 0.930 . S
C20 C19 1.393 . S
C20 C21 1.399 . S
C21 C20 1.399 . S
C21 C22 1.381 . S
C22 H14 0.930 . S
C22 C18 1.390 . S
C22 C21 1.381 . S
N23 C16 1.286 . S
N23 C19 1.413 . S
H24 C29 0.930 . S
H25 C32 0.939 . S
H26 C34 0.930 . S
H27 C28 1.031 1_455 S
C28 H27 1.031 1_655 S
C28 N35 1.296 . S
C29 H24 0.930 . S
C29 C30 1.397 . S
C29 C31 1.361 . S
C30 C29 1.397 . S
C30 C34 1.390 . S
C31 C29 1.361 . S
C31 C32 1.393 . S
C31 N35 1.413 . S
C32 H25 0.939 . S
C32 C31 1.393 . S
C32 C33 1.399 . S
C33 C32 1.399 . S
C33 C34 1.381 . S
C34 H26 0.930 . S
C34 C30 1.390 . S
C34 C33 1.381 . S
N35 C28 1.296 . S
N35 C31 1.413 . S
H36 C41 0.930 . S
H37 C44 0.930 . S
H38 C46 0.930 . S
H39 C40 1.016 . S
C40 H39 1.016 . S
C40 N47 1.286 . S
C41 H36 0.930 . S
C41 C42 1.397 . S
C41 C43 1.361 . S
C42 C41 1.397 . S
C42 C46 1.390 . S
C43 C41 1.361 . S
C43 C44 1.393 . S
C43 N47 1.413 . S
C44 H37 0.930 . S
C44 C43 1.393 . S
C44 C45 1.399 . S
C45 C44 1.399 . S
C45 C46 1.381 . S
C46 H38 0.930 . S
C46 C42 1.390 . S
C46 C45 1.381 . S
N47 C40 1.286 . S
N47 C43 1.413 . S
H48 C53 0.930 . S
H49 C56 0.930 . S
H50 C58 0.930 . S
H51 C52 1.016 . S
C52 H51 1.016 . S
C52 N59 1.286 . S
C53 H48 0.930 . S
C53 C54 1.397 . S
C53 C55 1.361 . S
C54 C53 1.397 . S
C54 C58 1.390 1_565 S
C55 C53 1.361 . S
C55 C56 1.393 . S
C55 N59 1.413 . S
C56 H49 0.930 . S
C56 C55 1.393 . S
C56 C57 1.399 1_565 S
C57 C56 1.399 1_545 S
C57 C58 1.381 . S
C58 H50 0.930 . S
C58 C54 1.390 1_545 S
C58 C57 1.381 . S
N59 C52 1.286 . S
N59 C55 1.413 . S
H60 C65 0.930 . S
H61 C68 0.930 . S
H62 C70 0.930 . S
H63 C64 1.016 . S
C64 H63 1.016 . S
C64 N71 1.286 . S
C65 H60 0.930 . S
C65 C66 1.397 . S
C65 C67 1.361 . S
C66 C65 1.397 . S
C66 C70 1.390 . S
C67 C65 1.361 . S
C67 C68 1.393 . S
C67 N71 1.413 . S
C68 H61 0.930 . S
C68 C67 1.393 . S
C68 C69 1.399 . S
C69 C68 1.399 . S
C69 C70 1.381 . S
C70 H62 0.930 . S
C70 C66 1.390 . S
C70 C69 1.381 . S
N71 C64 1.286 . S
N71 C67 1.413 . S
H72 C77 0.930 . S
H73 C80 0.930 . S
H74 C82 0.930 . S
H75 C76 1.016 . S
C76 H75 1.016 . S
C76 N83 1.286 . S
C77 H72 0.930 . S
C77 C78 1.397 1_455 S
C77 C79 1.363 . S
C78 C77 1.397 1_655 S
C78 C82 1.390 . S
C79 C77 1.363 . S
C79 C80 1.378 1_455 S
C79 N83 1.428 . S
C80 H73 0.930 . S
C80 C79 1.378 1_655 S
C80 C81 1.399 . S
C81 C80 1.399 . S
C81 C82 1.381 . S
C82 H74 0.930 . S
C82 C78 1.390 . S
C82 C81 1.381 . S
N83 C76 1.286 . S
N83 C79 1.428 . S
H84 C89 0.930 . S
H85 C92 0.930 . S
H86 C94 0.930 . S
H87 C88 1.016 . S
C88 H87 1.016 . S
C88 N95 1.286 . S
C89 H84 0.930 . S
C89 C90 1.397 . S
C89 C91 1.361 . S
C90 C89 1.397 . S
C90 C94 1.390 . S
C91 C89 1.361 . S
C91 C92 1.393 . S
C91 N95 1.413 . S
C92 H85 0.930 . S
C92 C91 1.393 . S
C92 C93 1.399 . S
C93 C92 1.399 . S
C93 C94 1.381 . S
C94 H86 0.930 . S
C94 C90 1.390 . S
C94 C93 1.381 . S
N95 C88 1.286 . S
N95 C91 1.413 . S
H96 C101 0.930 . S
H97 C104 0.930 . S
H98 C106 0.930 . S
H99 C100 1.016 . S
C100 H99 1.016 . S
C100 N107 1.286 . S
C101 H96 0.930 . S
C101 C102 1.397 . S
C101 C103 1.361 . S
C102 C101 1.397 . S
C102 C106 1.390 . S
C103 C101 1.361 . S
C103 C104 1.393 . S
C103 N107 1.413 . S
C104 H97 0.930 . S
C104 C103 1.393 . S
C104 C105 1.399 . S
C105 C104 1.399 . S
C105 C106 1.381 . S
C106 H98 0.930 . S
C106 C102 1.390 . S
C106 C105 1.381 . S
N107 C100 1.286 . S
N107 C103 1.413 . S
H108 C113 0.930 . S
H109 C116 0.930 . S
H110 C118 0.930 . S
H111 C112 1.016 . S
C112 H111 1.016 . S
C112 N119 1.286 . S
C113 H108 0.930 . S
C113 C114 1.397 1_565 S
C113 C115 1.361 . S
C114 C113 1.397 1_545 S
C114 C118 1.390 . S
C115 C113 1.361 . S
C115 C116 1.393 . S
C115 N119 1.413 . S
C116 H109 0.930 . S
C116 C115 1.393 . S
C116 C117 1.399 . S
C117 C116 1.399 . S
C117 C118 1.381 1_565 S
C118 H110 0.930 . S
C118 C114 1.390 . S
C118 C117 1.381 1_545 S
N119 C112 1.286 . S
N119 C115 1.413 . S
H120 C125 0.930 . S
H121 C128 0.930 . S
H122 C130 0.930 . S
H123 C124 1.016 . S
C124 H123 1.016 . S
C124 N131 1.286 . S
C125 H120 0.930 . S
C125 C126 1.397 . S
C125 C127 1.361 . S
C126 C125 1.397 . S
C126 C130 1.390 . S
C127 C125 1.361 . S
C127 C128 1.393 . S
C127 N131 1.413 . S
C128 H121 0.930 . S
C128 C127 1.393 . S
C128 C129 1.399 . S
C129 C128 1.399 . S
C129 C130 1.381 . S
C130 H122 0.930 . S
C130 C126 1.390 . S
C130 C129 1.381 . S
N131 C124 1.286 . S
N131 C127 1.413 . S
H132 C137 0.930 . S
H133 C140 0.930 . S
H134 C142 0.930 . S
H135 C136 1.016 . S
C136 H135 1.016 . S
C136 N143 1.286 . S
C137 H132 0.930 . S
C137 C138 1.397 . S
C137 C139 1.361 . S
C138 C137 1.397 . S
C138 C142 1.390 . S
C139 C137 1.361 . S
C139 C140 1.393 . S
C139 N143 1.413 . S
C140 H133 0.930 . S
C140 C139 1.393 . S
C140 C141 1.399 . S
C141 C140 1.399 . S
C141 C142 1.381 . S
C142 H134 0.930 . S
C142 C138 1.390 . S
C142 C141 1.381 . S
N143 C136 1.286 . S
N143 C139 1.413 . S
H144 C149 0.930 . S
H145 C152 0.930 . S
H146 C154 0.930 . S
H147 C148 1.016 . S
C148 H147 1.016 . S
C148 N155 1.286 . S
C149 H144 0.930 . S
C149 C150 1.397 . S
C149 C151 1.361 . S
C150 C149 1.397 . S
C150 C154 1.390 . S
C151 C149 1.361 . S
C151 C152 1.393 . S
C151 N155 1.413 . S
C152 H145 0.930 . S
C152 C151 1.393 . S
C152 C153 1.399 . S
C153 C152 1.399 . S
C153 C154 1.381 . S
C154 H146 0.930 . S
C154 C150 1.390 . S
C154 C153 1.381 . S
N155 C148 1.286 . S
N155 C151 1.413 . S
H156 C161 0.930 . S
H157 C164 0.939 . S
H158 C166 0.930 . S
H159 C160 1.016 . S
C160 H159 1.016 . S
C160 N167 1.286 1_554 S
C161 H156 0.930 . S
C161 C162 1.397 . S
C161 C163 1.361 . S
C162 C161 1.397 . S
C162 C166 1.390 . S
C163 C161 1.361 . S
C163 C164 1.393 . S
C163 N167 1.413 . S
C164 H157 0.939 . S
C164 C163 1.393 . S
C164 C165 1.399 . S
C165 C164 1.399 . S
C165 C166 1.381 . S
C166 H158 0.930 . S
C166 C162 1.390 . S
C166 C165 1.381 . S
N167 C160 1.286 1_556 S
N167 C163 1.413 . S
H168 C173 0.930 . S
H169 C176 0.930 . S
H170 C178 0.930 . S
H171 C172 1.016 . S
C172 H171 1.016 . S
C172 N179 1.286 . S
C173 H168 0.930 . S
C173 C174 1.397 . S
C173 C175 1.361 . S
C174 C173 1.397 . S
C174 C178 1.390 . S
C175 C173 1.361 . S
C175 C176 1.393 . S
C175 N179 1.413 . S
C176 H169 0.930 . S
C176 C175 1.393 . S
C176 C177 1.399 . S
C177 C176 1.399 . S
C177 C178 1.381 . S
C178 H170 0.930 . S
C178 C174 1.390 . S
C178 C177 1.381 . S
N179 C172 1.286 . S
N179 C175 1.413 . S
H180 C185 0.930 . S
H181 C188 0.930 . S
H182 C190 0.930 1_554 S
H183 C184 1.016 . S
C184 H183 1.016 . S
C184 N191 1.286 . S
C185 H180 0.930 . S
C185 C186 1.397 . S
C185 C187 1.361 . S
C186 C185 1.397 . S
C186 C190 1.390 . S
C187 C185 1.361 . S
C187 C188 1.393 . S
C187 N191 1.413 . S
C188 H181 0.930 . S
C188 C187 1.393 . S
C188 C189 1.399 . S
C189 C188 1.399 . S
C189 C190 1.381 . S
C190 H182 0.930 1_556 S
C190 C186 1.390 . S
C190 C189 1.381 . S
N191 C184 1.286 . S
N191 C187 1.413 . S
Mn192 O197 2.095 . S
Mn192 O207 2.162 . S
Mn192 O208 2.297 . S
Mn192 O216 2.385 . S
Mn192 O217 2.209 1_554 S
Mn192 O218 2.094 . S
Mn193 O198 2.121 . S
Mn193 N200 2.257 . S
Mn193 N209 2.282 . S
Mn193 O217 2.215 . S
Mn193 O219 2.117 . S
C194 O216 1.234 1_556 S
C194 O217 1.283 . S
C195 O207 1.281 . S
C195 O208 1.236 . S
C196 O218 1.240 . S
C196 O219 1.264 1_554 S
O197 Mn192 2.095 . S
O197 C206 1.250 . S
O198 Mn193 2.121 . S
O198 C206 1.258 1_556 S
C199 N200 1.326 . S
C199 C203 1.460 . S
C199 H205 0.929 . S
N200 Mn193 2.257 . S
N200 C199 1.326 . S
N200 C204 1.362 . S
C201 C202 1.258 . S
C201 C204 1.431 . S
C201 C221 1.449 . S
C202 C201 1.258 . S
C202 C203 1.477 . S
C202 H222 0.931 . S
C203 C199 1.460 . S
C203 C202 1.477 . S
C203 H223 0.930 . S
C204 N200 1.362 . S
C204 C201 1.431 . S
C204 C214 1.476 . S
H205 C199 0.929 . S
C206 O197 1.250 . S
C206 O198 1.258 1_554 S
O207 Mn192 2.162 . S
O207 C195 1.281 . S
O208 Mn192 2.297 . S
O208 C195 1.236 . S
N209 Mn193 2.282 . S
N209 C210 1.328 . S
N209 C214 1.318 . S
C210 N209 1.328 . S
C210 C211 1.457 . S
C210 H215 0.929 . S
C211 C210 1.457 . S
C211 C212 1.291 . S
C211 H224 0.931 . S
C212 C211 1.291 . S
C212 C213 1.373 . S
C212 H225 0.929 . S
C213 C212 1.373 . S
C213 C214 1.396 . S
C213 C220 1.403 . S
C214 C204 1.476 . S
C214 N209 1.318 . S
C214 C213 1.396 . S
H215 C210 0.929 . S
O216 Mn192 2.385 . S
O216 C194 1.234 1_554 S
O217 Mn192 2.209 1_556 S
O217 Mn193 2.215 . S
O217 C194 1.283 . S
O218 Mn192 2.094 . S
O218 C196 1.240 . S
O219 Mn193 2.117 . S
O219 C196 1.264 1_556 S
C220 C213 1.403 . S
C220 C221 1.399 . S
C220 H226 0.929 . S
C221 C201 1.449 . S
C221 C220 1.399 . S
C221 H227 0.930 . S
H222 C202 0.931 . S
H223 C203 0.930 . S
H224 C211 0.931 . S
H225 C212 0.929 . S
H226 C220 0.929 . S
H227 C221 0.930 . S
Mn228 O233 2.095 . S
Mn228 O243 2.162 . S
Mn228 O244 2.297 . S
Mn228 O252 2.385 . S
Mn228 O253 2.209 . S
Mn228 O254 2.094 . S
Mn229 O234 2.121 . S
Mn229 N236 2.257 . S
Mn229 N245 2.282 . S
Mn229 O253 2.215 . S
Mn229 O255 2.117 . S
C230 O252 1.234 . S
C230 O253 1.283 . S
C231 O243 1.281 . S
C231 O244 1.236 . S
C232 O254 1.240 . S
C232 O255 1.264 . S
O233 Mn228 2.095 . S
O233 C242 1.250 . S
O234 Mn229 2.121 . S
O234 C242 1.258 . S
C235 N236 1.326 . S
C235 C239 1.460 . S
C235 H241 0.929 . S
N236 Mn229 2.257 . S
N236 C235 1.326 . S
N236 C240 1.362 . S
C237 C238 1.258 . S
C237 C240 1.431 . S
C237 C257 1.449 . S
C238 C237 1.258 . S
C238 C239 1.477 . S
C238 H258 0.931 . S
C239 C235 1.460 . S
C239 C238 1.477 . S
C239 H259 0.930 . S
C240 N236 1.362 . S
C240 C237 1.431 . S
C240 C250 1.476 . S
H241 C235 0.929 . S
C242 O233 1.250 . S
C242 O234 1.258 . S
O243 Mn228 2.162 . S
O243 C231 1.281 . S
O244 Mn228 2.297 . S
O244 C231 1.236 . S
N245 Mn229 2.282 . S
N245 C246 1.328 . S
N245 C250 1.318 . S
C246 N245 1.328 . S
C246 C247 1.457 . S
C246 H251 0.929 . S
C247 C246 1.457 . S
C247 C248 1.291 . S
C247 H260 0.931 . S
C248 C247 1.291 . S
C248 C249 1.373 . S
C248 H261 0.929 . S
C249 C248 1.373 . S
C249 C250 1.396 . S
C249 C256 1.403 . S
C250 C240 1.476 . S
C250 N245 1.318 . S
C250 C249 1.396 . S
H251 C246 0.929 . S
O252 Mn228 2.385 . S
O252 C230 1.234 . S
O253 Mn228 2.209 . S
O253 Mn229 2.215 . S
O253 C230 1.283 . S
O254 Mn228 2.094 . S
O254 C232 1.240 . S
O255 Mn229 2.117 . S
O255 C232 1.264 . S
C256 C249 1.403 . S
C256 C257 1.399 . S
C256 H262 0.929 . S
C257 C237 1.449 . S
C257 C256 1.399 . S
C257 H263 0.930 . S
H258 C238 0.931 . S
H259 C239 0.930 . S
H260 C247 0.931 . S
H261 C248 0.929 . S
H262 C256 0.929 . S
H263 C257 0.930 . S
Mn264 O269 2.095 1_554 S
Mn264 O279 2.162 . S
Mn264 O280 2.297 1_554 S
Mn264 O288 2.385 . S
Mn264 O289 2.209 1_554 S
Mn264 O290 2.094 . S
Mn265 O270 2.121 . S
Mn265 N272 2.257 . S
Mn265 N281 2.273 1_556 S
Mn265 O289 2.215 . S
Mn265 O291 2.117 1_556 S
C266 O288 1.234 . S
C266 O289 1.283 1_554 S
C267 O279 1.281 . S
C267 O280 1.236 1_554 S
C268 O290 1.240 . S
C268 O291 1.264 . S
O269 Mn264 2.095 1_556 S
O269 C278 1.250 . S
O270 Mn265 2.121 . S
O270 C278 1.258 . S
C271 N272 1.326 . S
C271 C275 1.460 . S
C271 H277 0.929 . S
N272 Mn265 2.257 . S
N272 C271 1.326 . S
N272 C276 1.362 . S
C273 C274 1.258 . S
C273 C276 1.431 . S
C273 C293 1.449 . S
C274 C273 1.258 . S
C274 C275 1.477 . S
C274 H294 0.931 . S
C275 C271 1.460 . S
C275 C274 1.477 . S
C275 H295 0.930 . S
C276 N272 1.362 . S
C276 C273 1.431 . S
C276 C286 1.476 . S
H277 C271 0.929 . S
C278 O269 1.250 . S
C278 O270 1.258 . S
O279 Mn264 2.162 . S
O279 C267 1.281 . S
O280 Mn264 2.297 1_556 S
O280 C267 1.236 1_556 S
N281 Mn265 2.273 1_554 S
N281 C282 1.348 . S
N281 C286 1.306 1_554 S
C282 N281 1.348 . S
C282 C283 1.457 . S
C282 H287 0.929 . S
C283 C282 1.457 . S
C283 C284 1.291 . S
C283 H296 0.931 . S
C284 C283 1.291 . S
C284 C285 1.373 1_554 S
C284 H297 0.929 . S
C285 C284 1.373 1_556 S
C285 C286 1.396 . S
C285 C292 1.403 . S
C286 C276 1.476 . S
C286 N281 1.306 1_556 S
C286 C285 1.396 . S
H287 C282 0.929 . S
O288 Mn264 2.385 . S
O288 C266 1.234 . S
O289 Mn264 2.209 1_556 S
O289 Mn265 2.215 . S
O289 C266 1.283 1_556 S
O290 Mn264 2.094 . S
O290 C268 1.240 . S
O291 Mn265 2.117 1_554 S
O291 C268 1.264 . S
C292 C285 1.403 . S
C292 C293 1.399 . S
C292 H298 0.929 . S
C293 C273 1.449 . S
C293 C292 1.399 . S
C293 H299 0.930 . S
H294 C274 0.931 . S
H295 C275 0.930 . S
H296 C283 0.931 . S
H297 C284 0.929 . S
H298 C292 0.929 . S
H299 C293 0.930 . S
Mn300 O305 2.095 . S
Mn300 O315 2.162 . S
Mn300 O316 2.297 . S
Mn300 O324 2.385 . S
Mn300 O325 2.209 1_545 S
Mn300 O326 2.094 . S
Mn301 O306 2.121 . S
Mn301 N308 2.257 . S
Mn301 N317 2.282 . S
Mn301 O325 2.215 . S
Mn301 O327 2.117 1_565 S
C302 O324 1.234 1_565 S
C302 O325 1.283 . S
C303 O315 1.281 . S
C303 O316 1.236 . S
C304 O326 1.240 . S
C304 O327 1.264 . S
O305 Mn300 2.095 . S
O305 C314 1.250 . S
O306 Mn301 2.121 . S
O306 C314 1.258 1_565 S
C307 N308 1.326 . S
C307 C311 1.460 . S
C307 H313 0.929 . S
N308 Mn301 2.257 . S
N308 C307 1.326 . S
N308 C312 1.362 . S
C309 C310 1.258 . S
C309 C312 1.431 . S
C309 C329 1.449 . S
C310 C309 1.258 . S
C310 C311 1.477 . S
C310 H330 0.931 . S
C311 C307 1.460 . S
C311 C310 1.477 . S
C311 H331 0.930 . S
C312 N308 1.362 . S
C312 C309 1.431 . S
C312 C322 1.476 . S
H313 C307 0.929 . S
C314 O305 1.250 . S
C314 O306 1.258 1_545 S
O315 Mn300 2.162 . S
O315 C303 1.281 . S
O316 Mn300 2.297 . S
O316 C303 1.236 . S
N317 Mn301 2.282 . S
N317 C318 1.328 . S
N317 C322 1.318 . S
C318 N317 1.328 . S
C318 C319 1.457 . S
C318 H323 0.929 . S
C319 C318 1.457 . S
C319 C320 1.291 . S
C319 H332 0.931 . S
C320 C319 1.291 . S
C320 C321 1.373 . S
C320 H333 0.929 . S
C321 C320 1.373 . S
C321 C322 1.396 . S
C321 C328 1.403 . S
C322 C312 1.476 . S
C322 N317 1.318 . S
C322 C321 1.396 . S
H323 C318 0.929 . S
O324 Mn300 2.385 . S
O324 C302 1.234 1_545 S
O325 Mn300 2.209 1_565 S
O325 Mn301 2.215 . S
O325 C302 1.283 . S
O326 Mn300 2.094 . S
O326 C304 1.240 . S
O327 Mn301 2.117 1_545 S
O327 C304 1.264 . S
C328 C321 1.403 . S
C328 C329 1.399 . S
C328 H334 0.929 . S
C329 C309 1.449 . S
C329 C328 1.399 . S
C329 H335 0.930 . S
H330 C310 0.931 . S
H331 C311 0.930 . S
H332 C319 0.931 . S
H333 C320 0.929 . S
H334 C328 0.929 . S
H335 C329 0.930 . S
Mn336 O341 2.095 . S
Mn336 O351 2.162 . S
Mn336 O352 2.297 . S
Mn336 O360 2.385 . S
Mn336 O361 2.209 . S
Mn336 O362 2.094 . S
Mn337 O342 2.121 . S
Mn337 N344 2.257 . S
Mn337 N353 2.282 . S
Mn337 O361 2.215 . S
Mn337 O363 2.117 . S
C338 O360 1.234 . S
C338 O361 1.283 . S
C339 O351 1.281 . S
C339 O352 1.236 . S
C340 O362 1.240 . S
C340 O363 1.264 . S
O341 Mn336 2.095 . S
O341 C350 1.250 . S
O342 Mn337 2.121 . S
O342 C350 1.258 . S
C343 N344 1.326 . S
C343 C347 1.460 . S
C343 H349 0.929 . S
N344 Mn337 2.257 . S
N344 C343 1.326 . S
N344 C348 1.362 . S
C345 C346 1.258 . S
C345 C348 1.431 . S
C345 C365 1.449 . S
C346 C345 1.258 . S
C346 C347 1.477 . S
C346 H366 0.931 . S
C347 C343 1.460 . S
C347 C346 1.477 . S
C347 H367 0.930 . S
C348 N344 1.362 . S
C348 C345 1.431 . S
C348 C358 1.476 . S
H349 C343 0.929 . S
C350 O341 1.250 . S
C350 O342 1.258 . S
O351 Mn336 2.162 . S
O351 C339 1.281 . S
O352 Mn336 2.297 . S
O352 C339 1.236 . S
N353 Mn337 2.282 . S
N353 C354 1.328 . S
N353 C358 1.318 . S
C354 N353 1.328 . S
C354 C355 1.457 . S
C354 H359 0.929 . S
C355 C354 1.457 . S
C355 C356 1.291 . S
C355 H368 0.931 . S
C356 C355 1.291 . S
C356 C357 1.373 . S
C356 H369 0.929 . S
C357 C356 1.373 . S
C357 C358 1.396 . S
C357 C364 1.403 . S
C358 C348 1.476 . S
C358 N353 1.318 . S
C358 C357 1.396 . S
H359 C354 0.929 . S
O360 Mn336 2.385 . S
O360 C338 1.234 . S
O361 Mn336 2.209 . S
O361 Mn337 2.215 . S
O361 C338 1.283 . S
O362 Mn336 2.094 . S
O362 C340 1.240 . S
O363 Mn337 2.117 . S
O363 C340 1.264 . S
C364 C357 1.403 . S
C364 C365 1.399 . S
C364 H370 0.929 . S
C365 C345 1.449 . S
C365 C364 1.399 . S
C365 H371 0.930 . S
H366 C346 0.931 . S
H367 C347 0.930 . S
H368 C355 0.931 . S
H369 C356 0.929 . S
H370 C364 0.929 . S
H371 C365 0.930 . S
Mn372 O377 2.095 . S
Mn372 O387 2.162 . S
Mn372 O388 2.297 . S
Mn372 O396 2.385 . S
Mn372 O397 2.209 . S
Mn372 O398 2.094 . S
Mn373 O378 2.121 . S
Mn373 N380 2.257 . S
Mn373 N389 2.282 . S
Mn373 O397 2.215 . S
Mn373 O399 2.117 . S
C374 O396 1.234 . S
C374 O397 1.283 . S
C375 O387 1.281 . S
C375 O388 1.236 . S
C376 O398 1.240 . S
C376 O399 1.264 . S
O377 Mn372 2.095 . S
O377 C386 1.250 . S
O378 Mn373 2.121 . S
O378 C386 1.258 . S
C379 N380 1.326 . S
C379 C383 1.460 . S
C379 H385 0.929 . S
N380 Mn373 2.257 . S
N380 C379 1.326 . S
N380 C384 1.362 . S
C381 C382 1.258 . S
C381 C384 1.431 . S
C381 C401 1.449 . S
C382 C381 1.258 . S
C382 C383 1.477 . S
C382 H402 0.931 . S
C383 C379 1.460 . S
C383 C382 1.477 . S
C383 H403 0.930 . S
C384 N380 1.362 . S
C384 C381 1.431 . S
C384 C394 1.476 . S
H385 C379 0.929 . S
C386 O377 1.250 . S
C386 O378 1.258 . S
O387 Mn372 2.162 . S
O387 C375 1.281 . S
O388 Mn372 2.297 . S
O388 C375 1.236 . S
N389 Mn373 2.282 . S
N389 C390 1.328 . S
N389 C394 1.318 . S
C390 N389 1.328 . S
C390 C391 1.457 . S
C390 H395 0.929 . S
C391 C390 1.457 . S
C391 C392 1.291 . S
C391 H404 0.931 . S
C392 C391 1.291 . S
C392 C393 1.373 . S
C392 H405 0.929 . S
C393 C392 1.373 . S
C393 C394 1.396 . S
C393 C400 1.403 . S
C394 C384 1.476 . S
C394 N389 1.318 . S
C394 C393 1.396 . S
H395 C390 0.929 . S
O396 Mn372 2.385 . S
O396 C374 1.234 . S
O397 Mn372 2.209 . S
O397 Mn373 2.215 . S
O397 C374 1.283 . S
O398 Mn372 2.094 . S
O398 C376 1.240 . S
O399 Mn373 2.117 . S
O399 C376 1.264 . S
C400 C393 1.403 . S
C400 C401 1.399 . S
C400 H406 0.929 . S
C401 C381 1.449 . S
C401 C400 1.399 . S
C401 H407 0.930 . S
H402 C382 0.931 . S
H403 C383 0.930 . S
H404 C391 0.931 . S
H405 C392 0.929 . S
H406 C400 0.929 . S
H407 C401 0.930 . S
Mn408 O413 2.095 . S
Mn408 O423 2.162 . S
Mn408 O424 2.297 . S
Mn408 O432 2.385 . S
Mn408 O433 2.209 . S
Mn408 O434 2.094 . S
Mn409 O414 2.121 . S
Mn409 N416 2.257 . S
Mn409 N425 2.282 . S
Mn409 O433 2.215 . S
Mn409 O435 2.117 . S
C410 O432 1.234 . S
C410 O433 1.283 . S
C411 O423 1.281 . S
C411 O424 1.236 . S
C412 O434 1.240 . S
C412 O435 1.264 . S
O413 Mn408 2.095 . S
O413 C422 1.250 . S
O414 Mn409 2.121 . S
O414 C422 1.258 . S
C415 N416 1.326 . S
C415 C419 1.460 . S
C415 H421 0.929 . S
N416 Mn409 2.257 . S
N416 C415 1.326 . S
N416 C420 1.362 . S
C417 C418 1.258 . S
C417 C420 1.431 . S
C417 C437 1.449 . S
C418 C417 1.258 . S
C418 C419 1.477 . S
C418 H438 0.931 . S
C419 C415 1.460 . S
C419 C418 1.477 . S
C419 H439 0.930 . S
C420 N416 1.362 . S
C420 C417 1.431 . S
C420 C430 1.476 . S
H421 C415 0.929 . S
C422 O413 1.250 . S
C422 O414 1.258 . S
O423 Mn408 2.162 . S
O423 C411 1.281 . S
O424 Mn408 2.297 . S
O424 C411 1.236 . S
N425 Mn409 2.282 . S
N425 C426 1.328 . S
N425 C430 1.318 . S
C426 N425 1.328 . S
C426 C427 1.457 . S
C426 H431 0.929 . S
C427 C426 1.457 . S
C427 C428 1.291 . S
C427 H440 0.931 . S
C428 C427 1.291 . S
C428 C429 1.373 . S
C428 H441 0.929 . S
C429 C428 1.373 . S
C429 C430 1.396 . S
C429 C436 1.403 . S
C430 C420 1.476 . S
C430 N425 1.318 . S
C430 C429 1.396 . S
H431 C426 0.929 . S
O432 Mn408 2.385 . S
O432 C410 1.234 . S
O433 Mn408 2.209 . S
O433 Mn409 2.215 . S
O433 C410 1.283 . S
O434 Mn408 2.094 . S
O434 C412 1.240 . S
O435 Mn409 2.117 . S
O435 C412 1.264 . S
C436 C429 1.403 . S
C436 C437 1.399 . S
C436 H442 0.929 . S
C437 C417 1.449 . S
C437 C436 1.399 . S
C437 H443 0.930 . S
H438 C418 0.931 . S
H439 C419 0.930 . S
H440 C427 0.931 . S
H441 C428 0.929 . S
H442 C436 0.929 . S
H443 C437 0.930 . S
Mn444 O449 2.095 . S
Mn444 O459 2.162 . S
Mn444 O460 2.297 . S
Mn444 O468 2.385 1_565 S
Mn444 O469 2.209 1_565 S
Mn444 O470 2.094 . S
Mn445 O450 2.121 . S
Mn445 N452 2.257 . S
Mn445 N461 2.282 . S
Mn445 O469 2.215 . S
Mn445 O471 2.117 . S
C446 O468 1.234 . S
C446 O469 1.283 . S
C447 O459 1.281 . S
C447 O460 1.236 . S
C448 O470 1.240 . S
C448 O471 1.264 1_565 S
O449 Mn444 2.095 . S
O449 C458 1.250 1_565 S
O450 Mn445 2.121 . S
O450 C458 1.258 . S
C451 N452 1.326 . S
C451 C455 1.460 . S
C451 H457 0.929 . S
N452 Mn445 2.257 . S
N452 C451 1.326 . S
N452 C456 1.362 . S
C453 C454 1.258 . S
C453 C456 1.431 . S
C453 C473 1.449 . S
C454 C453 1.258 . S
C454 C455 1.477 . S
C454 H474 0.931 . S
C455 C451 1.460 . S
C455 C454 1.477 . S
C455 H475 0.930 . S
C456 N452 1.362 . S
C456 C453 1.431 . S
C456 C466 1.476 . S
H457 C451 0.929 . S
C458 O449 1.250 1_545 S
C458 O450 1.258 . S
O459 Mn444 2.162 . S
O459 C447 1.281 . S
O460 Mn444 2.297 . S
O460 C447 1.236 . S
N461 Mn445 2.282 . S
N461 C462 1.328 . S
N461 C466 1.318 . S
C462 N461 1.328 . S
C462 C463 1.457 . S
C462 H467 0.929 . S
C463 C462 1.457 . S
C463 C464 1.291 . S
C463 H476 0.931 . S
C464 C463 1.291 . S
C464 C465 1.373 . S
C464 H477 0.929 . S
C465 C464 1.373 . S
C465 C466 1.396 . S
C465 C472 1.403 . S
C466 C456 1.476 . S
C466 N461 1.318 . S
C466 C465 1.396 . S
H467 C462 0.929 . S
O468 Mn444 2.385 1_545 S
O468 C446 1.234 . S
O469 Mn444 2.209 1_545 S
O469 Mn445 2.215 . S
O469 C446 1.283 . S
O470 Mn444 2.094 . S
O470 C448 1.240 . S
O471 Mn445 2.117 . S
O471 C448 1.264 1_545 S
C472 C465 1.403 . S
C472 C473 1.399 . S
C472 H478 0.929 . S
C473 C453 1.449 . S
C473 C472 1.399 . S
C473 H479 0.930 . S
H474 C454 0.931 . S
H475 C455 0.930 . S
H476 C463 0.931 . S
H477 C464 0.929 . S
H478 C472 0.929 . S
H479 C473 0.930 . S
Mn480 O485 2.095 . S
Mn480 O495 2.162 . S
Mn480 O496 2.297 . S
Mn480 O504 2.385 1_455 S
Mn480 O505 2.209 1_455 S
Mn480 O506 2.094 . S
Mn481 O486 2.121 . S
Mn481 N488 2.257 . S
Mn481 N497 2.282 . S
Mn481 O505 2.215 . S
Mn481 O507 2.117 . S
C482 O504 1.234 . S
C482 O505 1.283 . S
C483 O495 1.281 . S
C483 O496 1.236 . S
C484 O506 1.240 . S
C484 O507 1.264 1_455 S
O485 Mn480 2.095 . S
O485 C494 1.283 . S
O486 Mn481 2.121 . S
O486 C494 1.220 1_655 S
C487 N488 1.326 . S
C487 C491 1.460 . S
C487 H493 0.929 . S
N488 Mn481 2.257 . S
N488 C487 1.326 . S
N488 C492 1.362 . S
C489 C490 1.258 . S
C489 C492 1.431 . S
C489 C509 1.449 . S
C490 C489 1.258 . S
C490 C491 1.477 . S
C490 H510 0.931 . S
C491 C487 1.460 . S
C491 C490 1.477 . S
C491 H511 0.930 . S
C492 N488 1.362 . S
C492 C489 1.431 . S
C492 C502 1.476 . S
H493 C487 0.929 . S
C494 O485 1.283 . S
C494 O486 1.220 1_455 S
O495 Mn480 2.162 . S
O495 C483 1.281 . S
O496 Mn480 2.297 . S
O496 C483 1.236 . S
N497 Mn481 2.282 . S
N497 C498 1.328 . S
N497 C502 1.318 . S
C498 N497 1.328 . S
C498 C499 1.457 . S
C498 H503 0.929 . S
C499 C498 1.457 . S
C499 C500 1.291 . S
C499 H512 0.931 . S
C500 C499 1.291 . S
C500 C501 1.373 . S
C500 H513 0.929 . S
C501 C500 1.373 . S
C501 C502 1.396 . S
C501 C508 1.403 . S
C502 C492 1.476 . S
C502 N497 1.318 . S
C502 C501 1.396 . S
H503 C498 0.929 . S
O504 Mn480 2.385 1_655 S
O504 C482 1.234 . S
O505 Mn480 2.209 1_655 S
O505 Mn481 2.215 . S
O505 C482 1.283 . S
O506 Mn480 2.094 . S
O506 C484 1.240 . S
O507 Mn481 2.117 . S
O507 C484 1.264 1_655 S
C508 C501 1.403 . S
C508 C509 1.399 . S
C508 H514 0.929 . S
C509 C489 1.449 . S
C509 C508 1.399 . S
C509 H515 0.930 . S
H510 C490 0.931 . S
H511 C491 0.930 . S
H512 C499 0.931 . S
H513 C500 0.929 . S
H514 C508 0.929 . S
H515 C509 0.930 . S
Mn516 O521 2.095 . S
Mn516 O531 2.162 . S
Mn516 O532 2.297 . S
Mn516 O540 2.385 . S
Mn516 O541 2.209 . S
Mn516 O542 2.094 . S
Mn517 O522 2.121 . S
Mn517 N524 2.257 . S
Mn517 N533 2.282 . S
Mn517 O541 2.215 . S
Mn517 O543 2.117 . S
C518 O540 1.234 . S
C518 O541 1.283 . S
C519 O531 1.281 . S
C519 O532 1.236 . S
C520 O542 1.240 . S
C520 O543 1.264 . S
O521 Mn516 2.095 . S
O521 C530 1.250 . S
O522 Mn517 2.121 . S
O522 C530 1.258 . S
C523 N524 1.326 . S
C523 C527 1.460 . S
C523 H529 0.929 . S
N524 Mn517 2.257 . S
N524 C523 1.326 . S
N524 C528 1.362 . S
C525 C526 1.258 . S
C525 C528 1.431 . S
C525 C545 1.449 . S
C526 C525 1.258 . S
C526 C527 1.477 . S
C526 H546 0.931 . S
C527 C523 1.460 . S
C527 C526 1.477 . S
C527 H547 0.930 . S
C528 N524 1.362 . S
C528 C525 1.431 . S
C528 C538 1.476 . S
H529 C523 0.929 . S
C530 O521 1.250 . S
C530 O522 1.258 . S
O531 Mn516 2.162 . S
O531 C519 1.281 . S
O532 Mn516 2.297 . S
O532 C519 1.236 . S
N533 Mn517 2.282 . S
N533 C534 1.328 . S
N533 C538 1.318 . S
C534 N533 1.328 . S
C534 C535 1.457 . S
C534 H539 0.929 . S
C535 C534 1.457 . S
C535 C536 1.291 . S
C535 H548 0.931 . S
C536 C535 1.291 . S
C536 C537 1.373 . S
C536 H549 0.929 . S
C537 C536 1.373 . S
C537 C538 1.396 . S
C537 C544 1.403 . S
C538 C528 1.476 . S
C538 N533 1.318 . S
C538 C537 1.396 . S
H539 C534 0.929 . S
O540 Mn516 2.385 . S
O540 C518 1.234 . S
O541 Mn516 2.209 . S
O541 Mn517 2.215 . S
O541 C518 1.283 . S
O542 Mn516 2.094 . S
O542 C520 1.240 . S
O543 Mn517 2.117 . S
O543 C520 1.264 . S
C544 C537 1.403 . S
C544 C545 1.399 . S
C544 H550 0.929 . S
C545 C525 1.449 . S
C545 C544 1.399 . S
C545 H551 0.930 . S
H546 C526 0.931 . S
H547 C527 0.930 . S
H548 C535 0.931 . S
H549 C536 0.929 . S
H550 C544 0.929 . S
H551 C545 0.930 . S
Mn552 O557 2.095 . S
Mn552 O567 2.162 . S
Mn552 O568 2.297 . S
Mn552 O576 2.385 . S
Mn552 O577 2.208 . S
Mn552 O578 2.094 . S
Mn553 O558 2.121 . S
Mn553 N560 2.257 . S
Mn553 N569 2.282 1_655 S
Mn553 O577 2.215 1_655 S
Mn553 O579 2.117 1_655 S
C554 O576 1.234 . S
C554 O577 1.282 . S
C555 O567 1.281 . S
C555 O568 1.236 . S
C556 O578 1.240 . S
C556 O579 1.264 . S
O557 Mn552 2.095 . S
O557 C566 1.250 1_455 S
O558 Mn553 2.121 . S
O558 C566 1.258 . S
C559 N560 1.326 . S
C559 C563 1.460 . S
C559 H565 0.929 . S
N560 Mn553 2.257 . S
N560 C559 1.326 . S
N560 C564 1.362 . S
C561 C562 1.258 . S
C561 C564 1.431 . S
C561 C581 1.449 . S
C562 C561 1.258 . S
C562 C563 1.477 . S
C562 H582 0.931 . S
C563 C559 1.460 . S
C563 C562 1.477 . S
C563 H583 0.930 . S
C564 N560 1.362 . S
C564 C561 1.431 . S
C564 C574 1.476 . S
H565 C559 0.929 . S
C566 O557 1.250 1_655 S
C566 O558 1.258 . S
O567 Mn552 2.162 . S
O567 C555 1.281 . S
O568 Mn552 2.297 . S
O568 C555 1.236 . S
N569 Mn553 2.282 1_455 S
N569 C570 1.328 . S
N569 C574 1.318 1_455 S
C570 N569 1.328 . S
C570 C571 1.457 . S
C570 H575 0.929 . S
C571 C570 1.457 . S
C571 C572 1.291 . S
C571 H584 0.931 . S
C572 C571 1.291 . S
C572 C573 1.373 1_455 S
C572 H585 0.929 . S
C573 C572 1.373 1_655 S
C573 C574 1.396 . S
C573 C580 1.403 . S
C574 C564 1.476 . S
C574 N569 1.318 1_655 S
C574 C573 1.396 . S
H575 C570 0.929 . S
O576 Mn552 2.385 . S
O576 C554 1.234 . S
O577 Mn552 2.208 . S
O577 Mn553 2.215 1_455 S
O577 C554 1.282 . S
O578 Mn552 2.094 . S
O578 C556 1.240 . S
O579 Mn553 2.117 1_455 S
O579 C556 1.264 . S
C580 C573 1.403 . S
C580 C581 1.399 . S
C580 H586 0.929 . S
C581 C561 1.449 . S
C581 C580 1.399 . S
C581 H587 0.930 . S
H582 C562 0.931 . S
H583 C563 0.930 . S
H584 C571 0.931 . S
H585 C572 0.929 . S
H586 C580 0.929 . S
H587 C581 0.930 . S
Mn588 O593 2.095 . S
Mn588 O603 2.162 . S
Mn588 O604 2.297 . S
Mn588 O612 2.385 . S
Mn588 O613 2.209 . S
Mn588 O614 2.094 . S
Mn589 O594 2.121 . S
Mn589 N596 2.257 . S
Mn589 N605 2.282 . S
Mn589 O613 2.215 . S
Mn589 O615 2.117 . S
C590 O612 1.234 . S
C590 O613 1.283 . S
C591 O603 1.281 . S
C591 O604 1.236 . S
C592 O614 1.240 . S
C592 O615 1.264 . S
O593 Mn588 2.095 . S
O593 C602 1.250 . S
O594 Mn589 2.121 . S
O594 C602 1.258 . S
C595 N596 1.326 . S
C595 C599 1.460 . S
C595 H601 0.929 . S
N596 Mn589 2.257 . S
N596 C595 1.326 . S
N596 C600 1.362 . S
C597 C598 1.258 . S
C597 C600 1.431 . S
C597 C617 1.449 . S
C598 C597 1.258 . S
C598 C599 1.477 . S
C598 H618 0.931 . S
C599 C595 1.460 . S
C599 C598 1.477 . S
C599 H619 0.930 . S
C600 N596 1.362 . S
C600 C597 1.431 . S
C600 C610 1.476 . S
H601 C595 0.929 . S
C602 O593 1.250 . S
C602 O594 1.258 . S
O603 Mn588 2.162 . S
O603 C591 1.281 . S
O604 Mn588 2.297 . S
O604 C591 1.236 . S
N605 Mn589 2.282 . S
N605 C606 1.328 . S
N605 C610 1.318 . S
C606 N605 1.328 . S
C606 C607 1.457 . S
C606 H611 0.929 . S
C607 C606 1.457 . S
C607 C608 1.291 . S
C607 H620 0.931 . S
C608 C607 1.291 . S
C608 C609 1.373 . S
C608 H621 0.929 . S
C609 C608 1.373 . S
C609 C610 1.396 . S
C609 C616 1.403 . S
C610 C600 1.476 . S
C610 N605 1.318 . S
C610 C609 1.396 . S
H611 C606 0.929 . S
O612 Mn588 2.385 . S
O612 C590 1.234 . S
O613 Mn588 2.209 . S
O613 Mn589 2.215 . S
O613 C590 1.283 . S
O614 Mn588 2.094 . S
O614 C592 1.240 . S
O615 Mn589 2.117 . S
O615 C592 1.264 . S
C616 C609 1.403 . S
C616 C617 1.399 . S
C616 H622 0.929 . S
C617 C597 1.449 . S
C617 C616 1.399 . S
C617 H623 0.930 . S
H618 C598 0.931 . S
H619 C599 0.930 . S
H620 C607 0.931 . S
H621 C608 0.929 . S
H622 C616 0.929 . S
H623 C617 0.930 . S
H624 C632 0.950 . S
H625 C637 0.950 . S
H626 C634 0.950 . S
H627 C636 0.950 . S
H628 C638 0.950 . S
H629 C640 0.950 . S
H630 C642 0.950 . S
H631 C643 0.950 . S
C632 H624 0.950 . S
C632 C633 1.386 . S
C632 C634 1.391 . S
C633 C632 1.386 . S
C633 C637 1.393 . S
C634 H626 0.950 . S
C634 C632 1.391 . S
C634 C635 1.400 . S
C635 C634 1.400 . S
C635 C636 1.398 . S
C635 C641 1.491 . S
C636 H627 0.950 . S
C636 C635 1.398 . S
C636 C637 1.391 . S
C637 H625 0.950 . S
C637 C633 1.393 . S
C637 C636 1.391 . S
C638 H628 0.950 . S
C638 C639 1.386 . S
C638 C640 1.391 . S
C639 C638 1.386 . S
C639 C643 1.393 . S
C640 H629 0.950 . S
C640 C638 1.391 . S
C640 C641 1.400 . S
C641 C635 1.491 . S
C641 C640 1.400 . S
C641 C642 1.398 . S
C642 H630 0.950 . S
C642 C641 1.398 . S
C642 C643 1.391 . S
C643 H631 0.950 . S
C643 C639 1.393 . S
C643 C642 1.391 . S
H644 C652 0.950 . S
H645 C657 0.950 . S
H646 C654 0.950 . S
H647 C656 0.950 . S
H648 C658 0.950 . S
H649 C660 0.950 . S
H650 C662 0.950 . S
H651 C663 0.950 . S
C652 H644 0.950 . S
C652 C653 1.386 . S
C652 C654 1.391 . S
C653 C652 1.386 . S
C653 C657 1.393 . S
C654 H646 0.950 . S
C654 C652 1.391 . S
C654 C655 1.400 . S
C655 C654 1.400 . S
C655 C656 1.398 . S
C655 C661 1.491 . S
C656 H647 0.950 . S
C656 C655 1.398 . S
C656 C657 1.391 . S
C657 H645 0.950 . S
C657 C653 1.393 . S
C657 C656 1.391 . S
C658 H648 0.950 . S
C658 C659 1.386 . S
C658 C660 1.391 . S
C659 C658 1.386 . S
C659 C663 1.393 . S
C660 H649 0.950 . S
C660 C658 1.391 . S
C660 C661 1.400 . S
C661 C655 1.491 . S
C661 C660 1.400 . S
C661 C662 1.398 . S
C662 H650 0.950 . S
C662 C661 1.398 . S
C662 C663 1.391 . S
C663 H651 0.950 . S
C663 C659 1.393 . S
C663 C662 1.391 . S
H664 C672 0.950 . S
H665 C677 0.950 . S
H666 C674 0.950 . S
H667 C676 0.950 . S
H668 C678 0.950 . S
H669 C680 0.950 . S
H670 C682 0.950 . S
H671 C683 0.950 . S
C672 H664 0.950 . S
C672 C673 1.386 . S
C672 C674 1.391 . S
C673 C672 1.386 . S
C673 C677 1.393 . S
C674 H666 0.950 . S
C674 C672 1.391 . S
C674 C675 1.400 . S
C675 C674 1.400 . S
C675 C676 1.398 . S
C675 C681 1.491 . S
C676 H667 0.950 . S
C676 C675 1.398 . S
C676 C677 1.391 . S
C677 H665 0.950 . S
C677 C673 1.393 . S
C677 C676 1.391 . S
C678 H668 0.950 . S
C678 C679 1.386 . S
C678 C680 1.391 . S
C679 C678 1.386 . S
C679 C683 1.393 . S
C680 H669 0.950 . S
C680 C678 1.391 . S
C680 C681 1.400 . S
C681 C675 1.491 . S
C681 C680 1.400 . S
C681 C682 1.398 . S
C682 H670 0.950 . S
C682 C681 1.398 . S
C682 C683 1.391 . S
C683 H671 0.950 . S
C683 C679 1.393 . S
C683 C682 1.391 . S
H684 C692 0.950 . S
H685 C697 0.950 . S
H686 C694 0.950 1_655 S
H687 C696 0.950 . S
H688 C698 0.950 1_455 S
H689 C700 0.960 . S
H690 C702 0.950 . S
H691 C703 0.950 . S
C692 H684 0.950 . S
C692 C693 1.386 1_545 S
C692 C694 1.391 . S
C693 C692 1.386 1_565 S
C693 C697 1.393 . S
C694 H686 0.950 1_455 S
C694 C692 1.391 . S
C694 C695 1.400 . S
C695 C694 1.400 . S
C695 C696 1.398 1_545 S
C695 C701 1.491 1_455 S
C696 H687 0.950 . S
C696 C695 1.398 1_565 S
C696 C697 1.391 . S
C697 H685 0.950 . S
C697 C693 1.393 . S
C697 C696 1.391 . S
C698 H688 0.950 1_655 S
C698 C699 1.386 . S
C698 C700 1.391 1_655 S
C699 C698 1.386 . S
C699 C703 1.393 . S
C700 H689 0.960 . S
C700 C698 1.391 1_455 S
C700 C701 1.400 1_455 S
C701 C695 1.491 1_655 S
C701 C700 1.400 1_655 S
C701 C702 1.398 . S
C702 H690 0.950 . S
C702 C701 1.398 . S
C702 C703 1.391 . S
C703 H691 0.950 . S
C703 C699 1.393 . S
C703 C702 1.391 . S
H704 C712 0.950 . S
H705 C717 0.950 . S
H706 C714 0.950 . S
H707 C716 0.950 . S
H708 C718 0.950 . S
H709 C720 0.950 . S
H710 C722 0.950 . S
H711 C723 0.950 . S
C712 H704 0.950 . S
C712 C713 1.386 . S
C712 C714 1.391 . S
C713 C712 1.386 . S
C713 C717 1.393 . S
C714 H706 0.950 . S
C714 C712 1.391 . S
C714 C715 1.400 . S
C715 C714 1.400 . S
C715 C716 1.398 . S
C715 C721 1.491 . S
C716 H707 0.950 . S
C716 C715 1.398 . S
C716 C717 1.391 . S
C717 H705 0.950 . S
C717 C713 1.393 . S
C717 C716 1.391 . S
C718 H708 0.950 . S
C718 C719 1.386 . S
C718 C720 1.391 . S
C719 C718 1.386 . S
C719 C723 1.393 . S
C720 H709 0.950 . S
C720 C718 1.391 . S
C720 C721 1.400 . S
C721 C715 1.491 . S
C721 C720 1.400 . S
C721 C722 1.398 . S
C722 H710 0.950 . S
C722 C721 1.398 . S
C722 C723 1.391 . S
C723 H711 0.950 . S
C723 C719 1.393 . S
C723 C722 1.391 . S
H724 C732 0.950 . S
H725 C737 0.950 . S
H726 C734 0.950 . S
H727 C736 0.950 . S
H728 C738 0.950 . S
H729 C740 0.950 . S
H730 C742 0.950 . S
H731 C743 0.950 . S
C732 H724 0.950 . S
C732 C733 1.386 . S
C732 C734 1.391 . S
C733 C732 1.386 . S
C733 C737 1.393 . S
C734 H726 0.950 . S
C734 C732 1.391 . S
C734 C735 1.400 . S
C735 C734 1.400 . S
C735 C736 1.398 . S
C735 C741 1.491 . S
C736 H727 0.950 . S
C736 C735 1.398 . S
C736 C737 1.391 . S
C737 H725 0.950 . S
C737 C733 1.393 . S
C737 C736 1.391 . S
C738 H728 0.950 . S
C738 C739 1.386 . S
C738 C740 1.391 . S
C739 C738 1.386 . S
C739 C743 1.393 . S
C740 H729 0.950 . S
C740 C738 1.391 . S
C740 C741 1.400 . S
C741 C735 1.491 . S
C741 C740 1.400 . S
C741 C742 1.398 . S
C742 H730 0.950 . S
C742 C741 1.398 . S
C742 C743 1.391 . S
C743 H731 0.950 . S
C743 C739 1.393 . S
C743 C742 1.391 . S
H744 C752 0.950 . S
H745 C757 0.950 . S
H746 C754 0.950 . S
H747 C756 0.950 . S
H748 C758 0.950 . S
H749 C760 0.950 . S
H750 C762 0.950 . S
H751 C763 0.950 . S
C752 H744 0.950 . S
C752 C753 1.386 . S
C752 C754 1.391 . S
C753 C752 1.386 . S
C753 C757 1.393 . S
C754 H746 0.950 . S
C754 C752 1.391 . S
C754 C755 1.400 . S
C755 C754 1.400 . S
C755 C756 1.398 . S
C755 C761 1.491 . S
C756 H747 0.950 . S
C756 C755 1.398 . S
C756 C757 1.391 . S
C757 H745 0.950 . S
C757 C753 1.393 . S
C757 C756 1.391 . S
C758 H748 0.950 . S
C758 C759 1.386 . S
C758 C760 1.391 . S
C759 C758 1.386 . S
C759 C763 1.393 . S
C760 H749 0.950 . S
C760 C758 1.391 . S
C760 C761 1.400 . S
C761 C755 1.491 . S
C761 C760 1.400 . S
C761 C762 1.398 . S
C762 H750 0.950 . S
C762 C761 1.398 . S
C762 C763 1.391 . S
C763 H751 0.950 . S
C763 C759 1.393 . S
C763 C762 1.391 . S
H764 C772 0.950 . S
H765 C777 0.950 . S
H766 C774 0.950 . S
H767 C776 0.950 . S
H768 C778 0.950 . S
H769 C780 0.950 . S
H770 C782 0.950 . S
H771 C783 0.950 . S
C772 H764 0.950 . S
C772 C773 1.386 . S
C772 C774 1.391 . S
C773 C772 1.386 . S
C773 C777 1.393 . S
C774 H766 0.950 . S
C774 C772 1.391 . S
C774 C775 1.400 . S
C775 C774 1.400 . S
C775 C776 1.398 . S
C775 C781 1.491 . S
C776 H767 0.950 . S
C776 C775 1.398 . S
C776 C777 1.391 . S
C777 H765 0.950 . S
C777 C773 1.393 . S
C777 C776 1.391 . S
C778 H768 0.950 . S
C778 C779 1.386 . S
C778 C780 1.391 . S
C779 C778 1.386 . S
C779 C783 1.393 . S
C780 H769 0.950 . S
C780 C778 1.391 . S
C780 C781 1.400 . S
C781 C775 1.491 . S
C781 C780 1.400 . S
C781 C782 1.398 . S
C782 H770 0.950 . S
C782 C781 1.398 . S
C782 C783 1.391 . S
C783 H771 0.950 . S
C783 C779 1.393 . S
C783 C782 1.391 . S
H784 C792 0.950 . S
H785 C797 0.950 . S
H786 C794 0.950 . S
H787 C796 0.950 . S
H788 C798 0.950 . S
H789 C800 0.950 . S
H790 C802 0.950 . S
H791 C803 0.950 . S
C792 H784 0.950 . S
C792 C793 1.386 . S
C792 C794 1.391 . S
C793 C792 1.386 . S
C793 C797 1.393 . S
C794 H786 0.950 . S
C794 C792 1.391 . S
C794 C795 1.400 . S
C795 C794 1.400 . S
C795 C796 1.398 . S
C795 C801 1.491 . S
C796 H787 0.950 . S
C796 C795 1.398 . S
C796 C797 1.391 . S
C797 H785 0.950 . S
C797 C793 1.393 . S
C797 C796 1.391 . S
C798 H788 0.950 . S
C798 C799 1.386 . S
C798 C800 1.391 . S
C799 C798 1.386 . S
C799 C803 1.393 . S
C800 H789 0.950 . S
C800 C798 1.391 . S
C800 C801 1.400 . S
C801 C795 1.491 . S
C801 C800 1.400 . S
C801 C802 1.398 . S
C802 H790 0.950 . S
C802 C801 1.398 . S
C802 C803 1.391 . S
C803 H791 0.950 . S
C803 C799 1.393 . S
C803 C802 1.391 . S
H804 C812 0.950 . S
H805 C817 0.950 . S
H806 C814 0.950 . S
H807 C816 0.950 . S
H808 C818 0.950 . S
H809 C820 0.950 . S
H810 C822 0.950 . S
H811 C823 0.950 . S
C812 H804 0.950 . S
C812 C813 1.386 . S
C812 C814 1.391 . S
C813 C812 1.386 . S
C813 C817 1.393 . S
C814 H806 0.950 . S
C814 C812 1.391 . S
C814 C815 1.400 . S
C815 C814 1.400 . S
C815 C816 1.398 . S
C815 C821 1.491 . S
C816 H807 0.950 . S
C816 C815 1.398 . S
C816 C817 1.391 . S
C817 H805 0.950 . S
C817 C813 1.393 . S
C817 C816 1.391 . S
C818 H808 0.950 . S
C818 C819 1.386 . S
C818 C820 1.391 . S
C819 C818 1.386 . S
C819 C823 1.393 . S
C820 H809 0.950 . S
C820 C818 1.391 . S
C820 C821 1.400 . S
C821 C815 1.491 . S
C821 C820 1.400 . S
C821 C822 1.398 . S
C822 H810 0.950 . S
C822 C821 1.398 . S
C822 C823 1.391 . S
C823 H811 0.950 . S
C823 C819 1.393 . S
C823 C822 1.391 . S
H824 C832 0.950 . S
H825 C837 0.950 . S
H826 C834 0.950 . S
H827 C836 0.950 . S
H828 C838 0.950 . S
H829 C840 0.950 . S
H830 C842 0.950 . S
H831 C843 0.950 . S
C832 H824 0.950 . S
C832 C833 1.386 . S
C832 C834 1.391 . S
C833 C832 1.386 . S
C833 C837 1.393 . S
C834 H826 0.950 . S
C834 C832 1.391 . S
C834 C835 1.400 . S
C835 C834 1.400 . S
C835 C836 1.398 . S
C835 C841 1.491 . S
C836 H827 0.950 . S
C836 C835 1.398 . S
C836 C837 1.391 . S
C837 H825 0.950 . S
C837 C833 1.393 . S
C837 C836 1.391 . S
C838 H828 0.950 . S
C838 C839 1.386 . S
C838 C840 1.391 . S
C839 C838 1.386 . S
C839 C843 1.393 . S
C840 H829 0.950 . S
C840 C838 1.391 . S
C840 C841 1.400 . S
C841 C835 1.491 . S
C841 C840 1.400 . S
C841 C842 1.398 . S
C842 H830 0.950 . S
C842 C841 1.398 . S
C842 C843 1.391 . S
C843 H831 0.950 . S
C843 C839 1.393 . S
C843 C842 1.391 . S
H844 C852 0.950 . S
H845 C857 0.950 . S
H846 C854 0.950 . S
H847 C856 0.950 . S
H848 C858 0.950 . S
H849 C860 0.950 . S
H850 C862 0.950 . S
H851 C863 0.950 . S
C852 H844 0.950 . S
C852 C853 1.386 . S
C852 C854 1.391 . S
C853 C852 1.386 . S
C853 C857 1.393 . S
C854 H846 0.950 . S
C854 C852 1.391 . S
C854 C855 1.400 . S
C855 C854 1.400 . S
C855 C856 1.398 . S
C855 C861 1.491 . S
C856 H847 0.950 . S
C856 C855 1.398 . S
C856 C857 1.391 . S
C857 H845 0.950 . S
C857 C853 1.393 . S
C857 C856 1.391 . S
C858 H848 0.950 . S
C858 C859 1.386 . S
C858 C860 1.391 . S
C859 C858 1.386 . S
C859 C863 1.393 . S
C860 H849 0.950 . S
C860 C858 1.391 . S
C860 C861 1.400 . S
C861 C855 1.491 . S
C861 C860 1.400 . S
C861 C862 1.398 . S
C862 H850 0.950 . S
C862 C861 1.398 . S
C862 C863 1.391 . S
C863 H851 0.950 . S
C863 C859 1.393 . S
C863 C862 1.391 . S
H864 C872 0.950 . S
H865 C877 0.950 . S
H866 C874 0.950 . S
H867 C876 0.950 . S
H868 C878 0.950 . S
H869 C880 0.950 . S
H870 C882 0.950 . S
H871 C883 0.950 . S
C872 H864 0.950 . S
C872 C873 1.386 . S
C872 C874 1.391 . S
C873 C872 1.386 . S
C873 C877 1.393 . S
C874 H866 0.950 . S
C874 C872 1.391 . S
C874 C875 1.400 . S
C875 C874 1.400 . S
C875 C876 1.398 . S
C875 C881 1.491 . S
C876 H867 0.950 . S
C876 C875 1.398 . S
C876 C877 1.391 . S
C877 H865 0.950 . S
C877 C873 1.393 . S
C877 C876 1.391 . S
C878 H868 0.950 . S
C878 C879 1.386 . S
C878 C880 1.391 . S
C879 C878 1.386 . S
C879 C883 1.393 . S
C880 H869 0.950 . S
C880 C878 1.391 . S
C880 C881 1.400 . S
C881 C875 1.491 . S
C881 C880 1.400 . S
C881 C882 1.398 . S
C882 H870 0.950 . S
C882 C881 1.398 . S
C882 C883 1.391 . S
C883 H871 0.950 . S
C883 C879 1.393 . S
C883 C882 1.391 . S
H884 C892 0.950 . S
H885 C897 0.950 . S
H886 C894 0.950 . S
H887 C896 0.950 . S
H888 C898 0.950 1_655 S
H889 C900 0.918 1_655 S
H890 C902 0.950 . S
H891 C903 0.950 . S
C892 H884 0.950 . S
C892 C893 1.386 . S
C892 C894 1.391 . S
C893 C892 1.386 . S
C893 C897 1.393 . S
C894 H886 0.950 . S
C894 C892 1.391 . S
C894 C895 1.400 . S
C895 C894 1.400 . S
C895 C896 1.398 . S
C895 C901 1.491 . S
C896 H887 0.950 . S
C896 C895 1.398 . S
C896 C897 1.391 . S
C897 H885 0.950 . S
C897 C893 1.393 . S
C897 C896 1.391 . S
C898 H888 0.950 1_455 S
C898 C899 1.386 . S
C898 C900 1.391 . S
C899 C898 1.386 . S
C899 C903 1.393 . S
C900 H889 0.918 1_455 S
C900 C898 1.391 . S
C900 C901 1.400 . S
C901 C895 1.491 . S
C901 C900 1.400 . S
C901 C902 1.398 . S
C902 H890 0.950 . S
C902 C901 1.398 . S
C902 C903 1.391 . S
C903 H891 0.950 . S
C903 C899 1.393 . S
C903 C902 1.391 . S
H904 C912 0.950 . S
H905 C917 0.950 . S
H906 C914 0.950 . S
H907 C916 0.950 . S
H908 C918 0.950 . S
H909 C920 0.950 . S
H910 C922 0.950 . S
H911 C923 0.950 . S
C912 H904 0.950 . S
C912 C913 1.386 . S
C912 C914 1.391 . S
C913 C912 1.386 . S
C913 C917 1.393 . S
C914 H906 0.950 . S
C914 C912 1.391 . S
C914 C915 1.400 . S
C915 C914 1.400 . S
C915 C916 1.398 . S
C915 C921 1.491 . S
C916 H907 0.950 . S
C916 C915 1.398 . S
C916 C917 1.391 . S
C917 H905 0.950 . S
C917 C913 1.393 . S
C917 C916 1.391 . S
C918 H908 0.950 . S
C918 C919 1.386 . S
C918 C920 1.391 . S
C919 C918 1.386 . S
C919 C923 1.393 . S
C920 H909 0.950 . S
C920 C918 1.391 . S
C920 C921 1.400 . S
C921 C915 1.491 . S
C921 C920 1.400 . S
C921 C922 1.398 . S
C922 H910 0.950 . S
C922 C921 1.398 . S
C922 C923 1.391 . S
C923 H911 0.950 . S
C923 C919 1.393 . S
C923 C922 1.391 . S
H924 C932 0.950 . S
H925 C937 0.950 . S
H926 C934 0.950 . S
H927 C936 0.950 . S
H928 C938 0.950 . S
H929 C940 0.950 . S
H930 C942 0.950 . S
H931 C943 0.950 . S
C932 H924 0.950 . S
C932 C933 1.386 . S
C932 C934 1.391 . S
C933 C932 1.386 . S
C933 C937 1.393 1_655 S
C934 H926 0.950 . S
C934 C932 1.391 . S
C934 C935 1.400 1_655 S
C935 C934 1.400 1_455 S
C935 C936 1.398 . S
C935 C941 1.491 . S
C936 H927 0.950 . S
C936 C935 1.398 . S
C936 C937 1.391 . S
C937 H925 0.950 . S
C937 C933 1.393 1_455 S
C937 C936 1.391 . S
C938 H928 0.950 . S
C938 C939 1.386 . S
C938 C940 1.391 . S
C939 C938 1.386 . S
C939 C943 1.393 1_455 S
C940 H929 0.950 . S
C940 C938 1.391 . S
C940 C941 1.400 . S
C941 C935 1.491 . S
C941 C940 1.400 . S
C941 C942 1.398 1_455 S
C942 H930 0.950 . S
C942 C941 1.398 1_655 S
C942 C943 1.391 . S
C943 H931 0.950 . S
C943 C939 1.393 1_655 S
C943 C942 1.391 . S
H944 C952 0.950 . S
H945 C957 0.950 . S
H946 C954 0.950 . S
H947 C956 0.950 . S
H948 C958 0.950 . S
H949 C960 0.950 . S
H950 C962 0.950 . S
H951 C963 0.950 . S
C952 H944 0.950 . S
C952 C953 1.386 . S
C952 C954 1.391 . S
C953 C952 1.386 . S
C953 C957 1.393 . S
C954 H946 0.950 . S
C954 C952 1.391 . S
C954 C955 1.400 . S
C955 C954 1.400 . S
C955 C956 1.398 . S
C955 C961 1.491 . S
C956 H947 0.950 . S
C956 C955 1.398 . S
C956 C957 1.391 . S
C957 H945 0.950 . S
C957 C953 1.393 . S
C957 C956 1.391 . S
C958 H948 0.950 . S
C958 C959 1.386 . S
C958 C960 1.391 . S
C959 C958 1.386 . S
C959 C963 1.393 . S
C960 H949 0.950 . S
C960 C958 1.391 . S
C960 C961 1.400 . S
C961 C955 1.491 . S
C961 C960 1.400 . S
C961 C962 1.398 . S
C962 H950 0.950 . S
C962 C961 1.398 . S
C962 C963 1.391 . S
C963 H951 0.950 . S
C963 C959 1.393 . S
C963 C962 1.391 . S
H964 C972 0.950 . S
H965 C977 0.950 . S
H966 C974 0.950 . S
H967 C976 0.950 . S
H968 C978 0.950 . S
H969 C980 0.950 . S
H970 C982 0.950 . S
H971 C983 0.950 . S
C972 H964 0.950 . S
C972 C973 1.386 . S
C972 C974 1.391 . S
C973 C972 1.386 . S
C973 C977 1.393 . S
C974 H966 0.950 . S
C974 C972 1.391 . S
C974 C975 1.400 . S
C975 C974 1.400 . S
C975 C976 1.398 . S
C975 C981 1.491 . S
C976 H967 0.950 . S
C976 C975 1.398 . S
C976 C977 1.391 . S
C977 H965 0.950 . S
C977 C973 1.393 . S
C977 C976 1.391 . S
C978 H968 0.950 . S
C978 C979 1.386 . S
C978 C980 1.391 . S
C979 C978 1.386 . S
C979 C983 1.393 . S
C980 H969 0.950 . S
C980 C978 1.391 . S
C980 C981 1.400 . S
C981 C975 1.491 . S
C981 C980 1.400 . S
C981 C982 1.398 . S
C982 H970 0.950 . S
C982 C981 1.398 . S
C982 C983 1.391 . S
C983 H971 0.950 . S
C983 C979 1.393 . S
C983 C982 1.391 . S
H984 C992 0.950 . S
H985 C997 0.952 1_545 S
H986 C994 0.950 . S
H987 C996 0.950 . S
H988 C998 0.950 . S
H989 C1000 0.950 . S
H990 C1002 0.950 . S
H991 C1003 0.950 . S
C992 H984 0.950 . S
C992 C993 1.402 . S
C992 C994 1.391 . S
C993 C992 1.402 . S
C993 C997 1.395 1_556 S
C994 H986 0.950 . S
C994 C992 1.391 . S
C994 C995 1.400 . S
C995 C994 1.400 . S
C995 C996 1.398 1_556 S
C995 C1001 1.491 1_556 S
C996 H987 0.950 . S
C996 C995 1.398 1_554 S
C996 C997 1.388 . S
C997 H985 0.952 1_565 S
C997 C993 1.395 1_554 S
C997 C996 1.388 . S
C998 H988 0.950 . S
C998 C999 1.386 . S
C998 C1000 1.391 . S
C999 C998 1.386 . S
C999 C1003 1.393 1_554 S
C1000 H989 0.950 . S
C1000 C998 1.391 . S
C1000 C1001 1.400 . S
C1001 C995 1.491 1_554 S
C1001 C1000 1.400 . S
C1001 C1002 1.398 1_554 S
C1002 H990 0.950 . S
C1002 C1001 1.398 1_556 S
C1002 C1003 1.391 . S
C1003 H991 0.950 . S
C1003 C999 1.393 1_556 S
C1003 C1002 1.391 . S
H1004 C1012 0.950 . S
H1005 C1017 0.950 . S
H1006 C1014 0.950 . S
H1007 C1016 0.950 . S
H1008 C1018 0.950 . S
H1009 C1020 0.950 . S
H1010 C1022 0.950 . S
H1011 C1023 0.950 . S
C1012 H1004 0.950 . S
C1012 C1013 1.386 . S
C1012 C1014 1.391 . S
C1013 C1012 1.386 . S
C1013 C1017 1.393 . S
C1014 H1006 0.950 . S
C1014 C1012 1.391 . S
C1014 C1015 1.400 . S
C1015 C1014 1.400 . S
C1015 C1016 1.398 . S
C1015 C1021 1.491 . S
C1016 H1007 0.950 . S
C1016 C1015 1.398 . S
C1016 C1017 1.391 . S
C1017 H1005 0.950 . S
C1017 C1013 1.393 . S
C1017 C1016 1.391 . S
C1018 H1008 0.950 . S
C1018 C1019 1.386 . S
C1018 C1020 1.391 . S
C1019 C1018 1.386 . S
C1019 C1023 1.393 . S
C1020 H1009 0.950 . S
C1020 C1018 1.391 . S
C1020 C1021 1.400 . S
C1021 C1015 1.491 . S
C1021 C1020 1.400 . S
C1021 C1022 1.398 . S
C1022 H1010 0.950 . S
C1022 C1021 1.398 . S
C1022 C1023 1.391 . S
C1023 H1011 0.950 . S
C1023 C1019 1.393 . S
C1023 C1022 1.391 . S
H1024 C1032 0.950 . S
H1025 C1037 0.950 . S
H1026 C1034 0.950 . S
H1027 C1036 0.950 . S
H1028 C1038 0.950 . S
H1029 C1040 0.950 . S
H1030 C1042 0.950 . S
H1031 C1043 0.950 . S
C1032 H1024 0.950 . S
C1032 C1033 1.386 . S
C1032 C1034 1.391 . S
C1033 C1032 1.386 . S
C1033 C1037 1.393 . S
C1034 H1026 0.950 . S
C1034 C1032 1.391 . S
C1034 C1035 1.400 . S
C1035 C1034 1.400 . S
C1035 C1036 1.398 . S
C1035 C1041 1.491 . S
C1036 H1027 0.950 . S
C1036 C1035 1.398 . S
C1036 C1037 1.391 . S
C1037 H1025 0.950 . S
C1037 C1033 1.393 . S
C1037 C1036 1.391 . S
C1038 H1028 0.950 . S
C1038 C1039 1.386 . S
C1038 C1040 1.391 . S
C1039 C1038 1.386 . S
C1039 C1043 1.393 . S
C1040 H1029 0.950 . S
C1040 C1038 1.391 . S
C1040 C1041 1.400 . S
C1041 C1035 1.491 . S
C1041 C1040 1.400 . S
C1041 C1042 1.398 . S
C1042 H1030 0.950 . S
C1042 C1041 1.398 . S
C1042 C1043 1.391 . S
C1043 H1031 0.950 . S
C1043 C1039 1.393 . S
C1043 C1042 1.391 . S
H1044 C1052 0.950 . S
H1045 C1057 0.950 . S
H1046 C1054 0.950 . S
H1047 C1056 0.950 . S
H1048 C1058 0.950 . S
H1049 C1060 0.950 . S
H1050 C1062 0.950 . S
H1051 C1063 0.950 . S
C1052 H1044 0.950 . S
C1052 C1053 1.386 . S
C1052 C1054 1.391 . S
C1053 C1052 1.386 . S
C1053 C1057 1.393 . S
C1054 H1046 0.950 . S
C1054 C1052 1.391 . S
C1054 C1055 1.400 . S
C1055 C1054 1.400 . S
C1055 C1056 1.398 . S
C1055 C1061 1.491 . S
C1056 H1047 0.950 . S
C1056 C1055 1.398 . S
C1056 C1057 1.391 . S
C1057 H1045 0.950 . S
C1057 C1053 1.393 . S
C1057 C1056 1.391 . S
C1058 H1048 0.950 . S
C1058 C1059 1.386 . S
C1058 C1060 1.391 . S
C1059 C1058 1.386 . S
C1059 C1063 1.393 . S
C1060 H1049 0.950 . S
C1060 C1058 1.391 . S
C1060 C1061 1.400 . S
C1061 C1055 1.491 . S
C1061 C1060 1.400 . S
C1061 C1062 1.398 . S
C1062 H1050 0.950 . S
C1062 C1061 1.398 . S
C1062 C1063 1.391 . S
C1063 H1051 0.950 . S
C1063 C1059 1.393 . S
C1063 C1062 1.391 . S
H1064 C1072 0.950 . S
H1065 C1077 0.950 . S
H1066 C1074 0.950 . S
H1067 C1076 0.950 . S
H1068 C1078 0.950 . S
H1069 C1080 0.950 . S
H1070 C1082 0.950 . S
H1071 C1083 0.950 . S
C1072 H1064 0.950 . S
C1072 C1073 1.386 . S
C1072 C1074 1.391 . S
C1073 C1072 1.386 . S
C1073 C1077 1.393 . S
C1074 H1066 0.950 . S
C1074 C1072 1.391 . S
C1074 C1075 1.400 . S
C1075 C1074 1.400 . S
C1075 C1076 1.398 . S
C1075 C1081 1.491 . S
C1076 H1067 0.950 . S
C1076 C1075 1.398 . S
C1076 C1077 1.391 . S
C1077 H1065 0.950 . S
C1077 C1073 1.393 . S
C1077 C1076 1.391 . S
C1078 H1068 0.950 . S
C1078 C1079 1.386 . S
C1078 C1080 1.391 . S
C1079 C1078 1.386 . S
C1079 C1083 1.393 . S
C1080 H1069 0.950 . S
C1080 C1078 1.391 . S
C1080 C1081 1.400 . S
C1081 C1075 1.491 . S
C1081 C1080 1.400 . S
C1081 C1082 1.398 . S
C1082 H1070 0.950 . S
C1082 C1081 1.398 . S
C1082 C1083 1.391 . S
C1083 H1071 0.950 . S
C1083 C1079 1.393 . S
C1083 C1082 1.391 . S
H1084 C1092 0.950 . S
H1085 C1097 0.950 . S
H1086 C1094 0.950 . S
H1087 C1096 0.950 . S
H1088 C1098 0.950 . S
H1089 C1100 0.950 . S
H1090 C1102 0.950 . S
H1091 C1103 0.950 . S
C1092 H1084 0.950 . S
C1092 C1093 1.386 . S
C1092 C1094 1.391 . S
C1093 C1092 1.386 . S
C1093 C1097 1.393 . S
C1094 H1086 0.950 . S
C1094 C1092 1.391 . S
C1094 C1095 1.400 . S
C1095 C1094 1.400 . S
C1095 C1096 1.398 . S
C1095 C1101 1.491 . S
C1096 H1087 0.950 . S
C1096 C1095 1.398 . S
C1096 C1097 1.391 . S
C1097 H1085 0.950 . S
C1097 C1093 1.393 . S
C1097 C1096 1.391 . S
C1098 H1088 0.950 . S
C1098 C1099 1.386 . S
C1098 C1100 1.391 . S
C1099 C1098 1.386 . S
C1099 C1103 1.393 . S
C1100 H1089 0.950 . S
C1100 C1098 1.391 . S
C1100 C1101 1.400 . S
C1101 C1095 1.491 . S
C1101 C1100 1.400 . S
C1101 C1102 1.398 . S
C1102 H1090 0.950 . S
C1102 C1101 1.398 . S
C1102 C1103 1.391 . S
C1103 H1091 0.950 . S
C1103 C1099 1.393 . S
C1103 C1102 1.391 . S
H1104 C1112 0.950 . S
H1105 C1117 0.950 . S
H1106 C1114 0.950 . S
H1107 C1116 0.950 . S
H1108 C1118 0.950 . S
H1109 C1120 0.950 . S
H1110 C1122 0.950 . S
H1111 C1123 0.950 . S
C1112 H1104 0.950 . S
C1112 C1113 1.386 . S
C1112 C1114 1.391 . S
C1113 C1112 1.386 . S
C1113 C1117 1.393 . S
C1114 H1106 0.950 . S
C1114 C1112 1.391 . S
C1114 C1115 1.400 . S
C1115 C1114 1.400 . S
C1115 C1116 1.398 . S
C1115 C1121 1.491 . S
C1116 H1107 0.950 . S
C1116 C1115 1.398 . S
C1116 C1117 1.391 . S
C1117 H1105 0.950 . S
C1117 C1113 1.393 . S
C1117 C1116 1.391 . S
C1118 H1108 0.950 . S
C1118 C1119 1.386 . S
C1118 C1120 1.391 . S
C1119 C1118 1.386 . S
C1119 C1123 1.393 . S
C1120 H1109 0.950 . S
C1120 C1118 1.391 . S
C1120 C1121 1.400 . S
C1121 C1115 1.491 . S
C1121 C1120 1.400 . S
C1121 C1122 1.398 . S
C1122 H1110 0.950 . S
C1122 C1121 1.398 . S
C1122 C1123 1.391 . S
C1123 H1111 0.950 . S
C1123 C1119 1.393 . S
C1123 C1122 1.391 . S
H1124 C1132 0.950 . S
H1125 C1137 0.950 . S
H1126 C1134 0.950 . S
H1127 C1136 0.950 . S
H1128 C1138 0.950 . S
H1129 C1140 0.950 . S
H1130 C1142 0.950 . S
H1131 C1143 0.961 . S
C1132 H1124 0.950 . S
C1132 C1133 1.386 . S
C1132 C1134 1.391 . S
C1133 C1132 1.386 . S
C1133 C1137 1.393 . S
C1134 H1126 0.950 . S
C1134 C1132 1.391 . S
C1134 C1135 1.400 . S
C1135 C1134 1.400 . S
C1135 C1136 1.398 . S
C1135 C1141 1.491 . S
C1136 H1127 0.950 . S
C1136 C1135 1.398 . S
C1136 C1137 1.391 . S
C1137 H1125 0.950 . S
C1137 C1133 1.393 . S
C1137 C1136 1.391 . S
C1138 H1128 0.950 . S
C1138 C1139 1.386 . S
C1138 C1140 1.391 . S
C1139 C1138 1.386 . S
C1139 C1143 1.393 . S
C1140 H1129 0.950 . S
C1140 C1138 1.391 . S
C1140 C1141 1.400 . S
C1141 C1135 1.491 . S
C1141 C1140 1.400 . S
C1141 C1142 1.398 . S
C1142 H1130 0.950 . S
C1142 C1141 1.398 . S
C1142 C1143 1.391 . S
C1143 H1131 0.961 . S
C1143 C1139 1.393 . S
C1143 C1142 1.391 . S
H1144 C1152 0.950 . S
H1145 C1157 0.950 . S
H1146 C1154 0.950 . S
H1147 C1156 0.950 . S
H1148 C1158 0.950 . S
H1149 C1160 0.950 . S
H1150 C1162 0.950 . S
H1151 C1163 0.950 . S
C1152 H1144 0.950 . S
C1152 C1153 1.386 . S
C1152 C1154 1.391 . S
C1153 C1152 1.386 . S
C1153 C1157 1.393 . S
C1154 H1146 0.950 . S
C1154 C1152 1.391 . S
C1154 C1155 1.400 . S
C1155 C1154 1.400 . S
C1155 C1156 1.398 . S
C1155 C1161 1.491 . S
C1156 H1147 0.950 . S
C1156 C1155 1.398 . S
C1156 C1157 1.391 . S
C1157 H1145 0.950 . S
C1157 C1153 1.393 . S
C1157 C1156 1.391 . S
C1158 H1148 0.950 . S
C1158 C1159 1.386 . S
C1158 C1160 1.391 . S
C1159 C1158 1.386 . S
C1159 C1163 1.393 . S
C1160 H1149 0.950 . S
C1160 C1158 1.391 . S
C1160 C1161 1.400 . S
C1161 C1155 1.491 . S
C1161 C1160 1.400 . S
C1161 C1162 1.398 . S
C1162 H1150 0.950 . S
C1162 C1161 1.398 . S
C1162 C1163 1.391 . S
C1163 H1151 0.950 . S
C1163 C1159 1.393 . S
C1163 C1162 1.391 . S
H1164 C1172 0.950 . S
H1165 C1177 0.950 . S
H1166 C1174 0.950 . S
H1167 C1176 0.950 . S
H1168 C1178 0.950 . S
H1169 C1180 0.950 . S
H1170 C1182 0.950 . S
H1171 C1183 0.950 . S
C1172 H1164 0.950 . S
C1172 C1173 1.386 . S
C1172 C1174 1.391 . S
C1173 C1172 1.386 . S
C1173 C1177 1.393 . S
C1174 H1166 0.950 . S
C1174 C1172 1.391 . S
C1174 C1175 1.400 . S
C1175 C1174 1.400 . S
C1175 C1176 1.398 . S
C1175 C1181 1.491 . S
C1176 H1167 0.950 . S
C1176 C1175 1.398 . S
C1176 C1177 1.391 . S
C1177 H1165 0.950 . S
C1177 C1173 1.393 . S
C1177 C1176 1.391 . S
C1178 H1168 0.950 . S
C1178 C1179 1.386 . S
C1178 C1180 1.391 . S
C1179 C1178 1.386 . S
C1179 C1183 1.393 . S
C1180 H1169 0.950 . S
C1180 C1178 1.391 . S
C1180 C1181 1.400 . S
C1181 C1175 1.491 . S
C1181 C1180 1.400 . S
C1181 C1182 1.398 . S
C1182 H1170 0.950 . S
C1182 C1181 1.398 . S
C1182 C1183 1.391 . S
C1183 H1171 0.950 . S
C1183 C1179 1.393 . S
C1183 C1182 1.391 . S
H1184 C1192 0.950 . S
H1185 C1197 0.950 . S
H1186 C1194 0.950 . S
H1187 C1196 0.950 . S
H1188 C1198 0.950 . S
H1189 C1200 0.950 . S
H1190 C1202 0.950 . S
H1191 C1203 0.950 . S
C1192 H1184 0.950 . S
C1192 C1193 1.386 . S
C1192 C1194 1.391 . S
C1193 C1192 1.386 . S
C1193 C1197 1.393 . S
C1194 H1186 0.950 . S
C1194 C1192 1.391 . S
C1194 C1195 1.400 . S
C1195 C1194 1.400 . S
C1195 C1196 1.398 . S
C1195 C1201 1.491 . S
C1196 H1187 0.950 . S
C1196 C1195 1.398 . S
C1196 C1197 1.391 . S
C1197 H1185 0.950 . S
C1197 C1193 1.393 . S
C1197 C1196 1.391 . S
C1198 H1188 0.950 . S
C1198 C1199 1.386 . S
C1198 C1200 1.391 . S
C1199 C1198 1.386 . S
C1199 C1203 1.393 . S
C1200 H1189 0.950 . S
C1200 C1198 1.391 . S
C1200 C1201 1.400 . S
C1201 C1195 1.491 . S
C1201 C1200 1.400 . S
C1201 C1202 1.398 . S
C1202 H1190 0.950 . S
C1202 C1201 1.398 . S
C1202 C1203 1.391 . S
C1203 H1191 0.950 . S
C1203 C1199 1.393 . S
C1203 C1202 1.391 . S
H1204 C1212 0.950 1_565 S
H1205 C1217 0.950 . S
H1206 C1214 0.950 1_665 S
H1207 C1216 0.950 . S
H1208 C1218 0.950 . S
H1209 C1220 0.950 1_455 S
H1210 C1222 0.950 1_565 S
H1211 C1223 0.950 1_565 S
C1212 H1204 0.950 1_545 S
C1212 C1213 1.386 . S
C1212 C1214 1.391 . S
C1213 C1212 1.386 . S
C1213 C1217 1.393 . S
C1214 H1206 0.950 1_445 S
C1214 C1212 1.391 . S
C1214 C1215 1.400 . S
C1215 C1214 1.400 . S
C1215 C1216 1.398 . S
C1215 C1221 1.491 1_455 S
C1216 H1207 0.950 . S
C1216 C1215 1.398 . S
C1216 C1217 1.391 . S
C1217 H1205 0.950 . S
C1217 C1213 1.393 . S
C1217 C1216 1.391 . S
C1218 H1208 0.950 . S
C1218 C1219 1.386 . S
C1218 C1220 1.391 . S
C1219 C1218 1.386 . S
C1219 C1223 1.393 . S
C1220 H1209 0.950 1_655 S
C1220 C1218 1.391 . S
C1220 C1221 1.400 . S
C1221 C1215 1.491 1_655 S
C1221 C1220 1.400 . S
C1221 C1222 1.398 . S
C1222 H1210 0.950 1_545 S
C1222 C1221 1.398 . S
C1222 C1223 1.391 . S
C1223 H1211 0.950 1_545 S
C1223 C1219 1.393 . S
C1223 C1222 1.391 . S
H1224 C1232 0.950 . S
H1225 C1237 0.950 . S
H1226 C1234 0.950 . S
H1227 C1236 0.950 . S
H1228 C1238 0.950 . S
H1229 C1240 0.950 . S
H1230 C1242 0.950 . S
H1231 C1243 0.950 . S
C1232 H1224 0.950 . S
C1232 C1233 1.386 . S
C1232 C1234 1.391 . S
C1233 C1232 1.386 . S
C1233 C1237 1.393 . S
C1234 H1226 0.950 . S
C1234 C1232 1.391 . S
C1234 C1235 1.400 . S
C1235 C1234 1.400 . S
C1235 C1236 1.398 . S
C1235 C1241 1.491 . S
C1236 H1227 0.950 . S
C1236 C1235 1.398 . S
C1236 C1237 1.391 . S
C1237 H1225 0.950 . S
C1237 C1233 1.393 . S
C1237 C1236 1.391 . S
C1238 H1228 0.950 . S
C1238 C1239 1.386 . S
C1238 C1240 1.391 . S
C1239 C1238 1.386 . S
C1239 C1243 1.393 . S
C1240 H1229 0.950 . S
C1240 C1238 1.391 . S
C1240 C1241 1.400 . S
C1241 C1235 1.491 . S
C1241 C1240 1.400 . S
C1241 C1242 1.398 . S
C1242 H1230 0.950 . S
C1242 C1241 1.398 . S
C1242 C1243 1.391 . S
C1243 H1231 0.950 . S
C1243 C1239 1.393 . S
C1243 C1242 1.391 . S
H1244 C1252 0.950 . S
H1245 C1257 0.950 . S
H1246 C1254 0.950 . S
H1247 C1256 0.950 . S
H1248 C1258 0.950 . S
H1249 C1260 0.950 . S
H1250 C1262 0.950 . S
H1251 C1263 0.950 . S
C1252 H1244 0.950 . S
C1252 C1253 1.386 . S
C1252 C1254 1.391 . S
C1253 C1252 1.386 . S
C1253 C1257 1.393 . S
C1254 H1246 0.950 . S
C1254 C1252 1.391 . S
C1254 C1255 1.400 . S
C1255 C1254 1.400 . S
C1255 C1256 1.398 . S
C1255 C1261 1.491 . S
C1256 H1247 0.950 . S
C1256 C1255 1.398 . S
C1256 C1257 1.391 . S
C1257 H1245 0.950 . S
C1257 C1253 1.393 . S
C1257 C1256 1.391 . S
C1258 H1248 0.950 . S
C1258 C1259 1.386 . S
C1258 C1260 1.391 . S
C1259 C1258 1.386 . S
C1259 C1263 1.393 . S
C1260 H1249 0.950 . S
C1260 C1258 1.391 . S
C1260 C1261 1.400 . S
C1261 C1255 1.491 . S
C1261 C1260 1.400 . S
C1261 C1262 1.398 . S
C1262 H1250 0.950 . S
C1262 C1261 1.398 . S
C1262 C1263 1.391 . S
C1263 H1251 0.950 . S
C1263 C1259 1.393 . S
C1263 C1262 1.391 . S
H1264 C1272 0.950 . S
H1265 C1277 0.950 . S
H1266 C1274 0.950 . S
H1267 C1276 0.950 . S
H1268 C1278 0.950 . S
H1269 C1280 0.950 . S
H1270 C1282 0.950 . S
H1271 C1283 0.950 . S
C1272 H1264 0.950 . S
C1272 C1273 1.386 . S
C1272 C1274 1.391 . S
C1273 C1272 1.386 . S
C1273 C1277 1.393 . S
C1274 H1266 0.950 . S
C1274 C1272 1.391 . S
C1274 C1275 1.400 . S
C1275 C1274 1.400 . S
C1275 C1276 1.398 . S
C1275 C1281 1.491 . S
C1276 H1267 0.950 . S
C1276 C1275 1.398 . S
C1276 C1277 1.391 . S
C1277 H1265 0.950 . S
C1277 C1273 1.393 . S
C1277 C1276 1.391 . S
C1278 H1268 0.950 . S
C1278 C1279 1.386 . S
C1278 C1280 1.391 . S
C1279 C1278 1.386 . S
C1279 C1283 1.393 . S
C1280 H1269 0.950 . S
C1280 C1278 1.391 . S
C1280 C1281 1.400 . S
C1281 C1275 1.491 . S
C1281 C1280 1.400 . S
C1281 C1282 1.398 . S
C1282 H1270 0.950 . S
C1282 C1281 1.398 . S
C1282 C1283 1.391 . S
C1283 H1271 0.950 . S
C1283 C1279 1.393 . S
C1283 C1282 1.391 . S
H1284 C1292 0.950 . S
H1285 C1297 0.950 . S
H1286 C1294 0.950 . S
H1287 C1296 0.950 . S
H1288 C1298 0.950 . S
H1289 C1300 0.950 . S
H1290 C1302 0.950 . S
H1291 C1303 0.950 . S
C1292 H1284 0.950 . S
C1292 C1293 1.386 . S
C1292 C1294 1.391 . S
C1293 C1292 1.386 . S
C1293 C1297 1.393 1_655 S
C1294 H1286 0.950 . S
C1294 C1292 1.391 . S
C1294 C1295 1.400 . S
C1295 C1294 1.400 . S
C1295 C1296 1.398 1_655 S
C1295 C1301 1.491 . S
C1296 H1287 0.950 . S
C1296 C1295 1.398 1_455 S
C1296 C1297 1.391 . S
C1297 H1285 0.950 . S
C1297 C1293 1.393 1_455 S
C1297 C1296 1.391 . S
C1298 H1288 0.950 . S
C1298 C1299 1.386 . S
C1298 C1300 1.391 . S
C1299 C1298 1.386 . S
C1299 C1303 1.393 1_455 S
C1300 H1289 0.950 . S
C1300 C1298 1.391 . S
C1300 C1301 1.400 1_455 S
C1301 C1295 1.491 . S
C1301 C1300 1.400 1_655 S
C1301 C1302 1.398 . S
C1302 H1290 0.950 . S
C1302 C1301 1.398 . S
C1302 C1303 1.391 . S
C1303 H1291 0.950 . S
C1303 C1299 1.393 1_655 S
C1303 C1302 1.391 . S
H1304 C1312 0.950 . S
H1305 C1317 0.950 . S
H1306 C1314 0.950 . S
H1307 C1316 0.950 . S
H1308 C1318 0.950 . S
H1309 C1320 0.950 . S
H1310 C1322 0.950 . S
H1311 C1323 0.950 . S
C1312 H1304 0.950 . S
C1312 C1313 1.386 . S
C1312 C1314 1.391 . S
C1313 C1312 1.386 . S
C1313 C1317 1.393 . S
C1314 H1306 0.950 . S
C1314 C1312 1.391 . S
C1314 C1315 1.400 . S
C1315 C1314 1.400 . S
C1315 C1316 1.398 . S
C1315 C1321 1.491 . S
C1316 H1307 0.950 . S
C1316 C1315 1.398 . S
C1316 C1317 1.391 . S
C1317 H1305 0.950 . S
C1317 C1313 1.393 . S
C1317 C1316 1.391 . S
C1318 H1308 0.950 . S
C1318 C1319 1.386 . S
C1318 C1320 1.391 . S
C1319 C1318 1.386 . S
C1319 C1323 1.393 . S
C1320 H1309 0.950 . S
C1320 C1318 1.391 . S
C1320 C1321 1.400 . S
C1321 C1315 1.491 . S
C1321 C1320 1.400 . S
C1321 C1322 1.398 . S
C1322 H1310 0.950 . S
C1322 C1321 1.398 . S
C1322 C1323 1.391 . S
C1323 H1311 0.950 . S
C1323 C1319 1.393 . S
C1323 C1322 1.391 . S
H1324 C1332 0.964 . S
H1325 C1337 0.950 . S
H1326 C1334 0.950 . S
H1327 C1336 0.950 . S
H1328 C1338 0.950 . S
H1329 C1340 0.950 . S
H1330 C1342 0.950 1_655 S
H1331 C1343 0.950 1_655 S
C1332 H1324 0.964 . S
C1332 C1333 1.386 . S
C1332 C1334 1.391 . S
C1333 C1332 1.386 . S
C1333 C1337 1.393 . S
C1334 H1326 0.950 . S
C1334 C1332 1.391 . S
C1334 C1335 1.400 . S
C1335 C1334 1.400 . S
C1335 C1336 1.398 . S
C1335 C1341 1.491 . S
C1336 H1327 0.950 . S
C1336 C1335 1.398 . S
C1336 C1337 1.391 . S
C1337 H1325 0.950 . S
C1337 C1333 1.393 . S
C1337 C1336 1.391 . S
C1338 H1328 0.950 . S
C1338 C1339 1.386 . S
C1338 C1340 1.391 . S
C1339 C1338 1.386 . S
C1339 C1343 1.393 . S
C1340 H1329 0.950 . S
C1340 C1338 1.391 . S
C1340 C1341 1.400 . S
C1341 C1335 1.491 . S
C1341 C1340 1.400 . S
C1341 C1342 1.398 . S
C1342 H1330 0.950 1_455 S
C1342 C1341 1.398 . S
C1342 C1343 1.391 . S
C1343 H1331 0.950 1_455 S
C1343 C1339 1.393 . S
C1343 C1342 1.391 . S
H1344 C1352 0.950 . S
H1345 C1357 0.950 . S
H1346 C1354 0.950 . S
H1347 C1356 0.950 . S
H1348 C1358 0.950 . S
H1349 C1360 0.950 . S
H1350 C1362 0.950 . S
H1351 C1363 0.950 . S
C1352 H1344 0.950 . S
C1352 C1353 1.386 . S
C1352 C1354 1.391 . S
C1353 C1352 1.386 . S
C1353 C1357 1.393 . S
C1354 H1346 0.950 . S
C1354 C1352 1.391 . S
C1354 C1355 1.400 . S
C1355 C1354 1.400 . S
C1355 C1356 1.398 . S
C1355 C1361 1.491 . S
C1356 H1347 0.950 . S
C1356 C1355 1.398 . S
C1356 C1357 1.391 . S
C1357 H1345 0.950 . S
C1357 C1353 1.393 . S
C1357 C1356 1.391 . S
C1358 H1348 0.950 . S
C1358 C1359 1.386 . S
C1358 C1360 1.391 . S
C1359 C1358 1.386 . S
C1359 C1363 1.393 . S
C1360 H1349 0.950 . S
C1360 C1358 1.391 . S
C1360 C1361 1.400 . S
C1361 C1355 1.491 . S
C1361 C1360 1.400 . S
C1361 C1362 1.398 . S
C1362 H1350 0.950 . S
C1362 C1361 1.398 . S
C1362 C1363 1.391 . S
C1363 H1351 0.950 . S
C1363 C1359 1.393 . S
C1363 C1362 1.391 . S
H1364 C1372 0.950 . S
H1365 C1377 0.950 . S
H1366 C1374 0.950 . S
H1367 C1376 0.950 . S
H1368 C1378 0.950 . S
H1369 C1380 0.950 . S
H1370 C1382 0.950 . S
H1371 C1383 0.950 . S
C1372 H1364 0.950 . S
C1372 C1373 1.386 . S
C1372 C1374 1.391 . S
C1373 C1372 1.386 . S
C1373 C1377 1.393 . S
C1374 H1366 0.950 . S
C1374 C1372 1.391 . S
C1374 C1375 1.400 . S
C1375 C1374 1.400 . S
C1375 C1376 1.398 . S
C1375 C1381 1.491 . S
C1376 H1367 0.950 . S
C1376 C1375 1.398 . S
C1376 C1377 1.391 . S
C1377 H1365 0.950 . S
C1377 C1373 1.393 . S
C1377 C1376 1.391 . S
C1378 H1368 0.950 . S
C1378 C1379 1.386 . S
C1378 C1380 1.391 . S
C1379 C1378 1.386 . S
C1379 C1383 1.393 . S
C1380 H1369 0.950 . S
C1380 C1378 1.391 . S
C1380 C1381 1.400 . S
C1381 C1375 1.491 . S
C1381 C1380 1.400 . S
C1381 C1382 1.398 . S
C1382 H1370 0.950 . S
C1382 C1381 1.398 . S
C1382 C1383 1.391 . S
C1383 H1371 0.950 . S
C1383 C1379 1.393 . S
C1383 C1382 1.391 . S
H1384 C1392 0.950 . S
H1385 C1397 0.950 . S
H1386 C1394 0.950 . S
H1387 C1396 0.950 . S
H1388 C1398 0.950 . S
H1389 C1400 0.950 . S
H1390 C1402 0.950 . S
H1391 C1403 0.950 . S
C1392 H1384 0.950 . S
C1392 C1393 1.386 . S
C1392 C1394 1.391 . S
C1393 C1392 1.386 . S
C1393 C1397 1.393 . S
C1394 H1386 0.950 . S
C1394 C1392 1.391 . S
C1394 C1395 1.400 . S
C1395 C1394 1.400 . S
C1395 C1396 1.398 . S
C1395 C1401 1.491 . S
C1396 H1387 0.950 . S
C1396 C1395 1.398 . S
C1396 C1397 1.391 . S
C1397 H1385 0.950 . S
C1397 C1393 1.393 . S
C1397 C1396 1.391 . S
C1398 H1388 0.950 . S
C1398 C1399 1.386 . S
C1398 C1400 1.391 . S
C1399 C1398 1.386 . S
C1399 C1403 1.393 . S
C1400 H1389 0.950 . S
C1400 C1398 1.391 . S
C1400 C1401 1.400 . S
C1401 C1395 1.491 . S
C1401 C1400 1.400 . S
C1401 C1402 1.398 . S
C1402 H1390 0.950 . S
C1402 C1401 1.398 . S
C1402 C1403 1.391 . S
C1403 H1391 0.950 . S
C1403 C1399 1.393 . S
C1403 C1402 1.391 . S
H1404 C1412 0.950 1_556 S
H1405 C1417 0.950 . S
H1406 C1414 0.950 . S
H1407 C1416 0.950 . S
H1408 C1418 0.950 . S
H1409 C1420 0.950 . S
H1410 C1422 0.950 . S
H1411 C1423 0.950 . S
C1412 H1404 0.950 1_554 S
C1412 C1413 1.386 . S
C1412 C1414 1.391 . S
C1413 C1412 1.386 . S
C1413 C1417 1.393 . S
C1414 H1406 0.950 . S
C1414 C1412 1.391 . S
C1414 C1415 1.400 . S
C1415 C1414 1.400 . S
C1415 C1416 1.398 . S
C1415 C1421 1.491 . S
C1416 H1407 0.950 . S
C1416 C1415 1.398 . S
C1416 C1417 1.391 . S
C1417 H1405 0.950 . S
C1417 C1413 1.393 . S
C1417 C1416 1.391 . S
C1418 H1408 0.950 . S
C1418 C1419 1.386 . S
C1418 C1420 1.391 . S
C1419 C1418 1.386 . S
C1419 C1423 1.393 . S
C1420 H1409 0.950 . S
C1420 C1418 1.391 . S
C1420 C1421 1.400 . S
C1421 C1415 1.491 . S
C1421 C1420 1.400 . S
C1421 C1422 1.398 . S
C1422 H1410 0.950 . S
C1422 C1421 1.398 . S
C1422 C1423 1.391 . S
C1423 H1411 0.950 . S
C1423 C1419 1.393 . S
C1423 C1422 1.391 . S
H1424 C1432 0.950 . S
H1425 C1437 0.950 . S
H1426 C1434 0.950 . S
H1427 C1436 0.950 . S
H1428 C1438 0.950 . S
H1429 C1440 0.950 . S
H1430 C1442 0.950 . S
H1431 C1443 0.950 . S
C1432 H1424 0.950 . S
C1432 C1433 1.386 . S
C1432 C1434 1.391 . S
C1433 C1432 1.386 . S
C1433 C1437 1.393 . S
C1434 H1426 0.950 . S
C1434 C1432 1.391 . S
C1434 C1435 1.400 . S
C1435 C1434 1.400 . S
C1435 C1436 1.398 . S
C1435 C1441 1.491 . S
C1436 H1427 0.950 . S
C1436 C1435 1.398 . S
C1436 C1437 1.391 . S
C1437 H1425 0.950 . S
C1437 C1433 1.393 . S
C1437 C1436 1.391 . S
C1438 H1428 0.950 . S
C1438 C1439 1.386 . S
C1438 C1440 1.391 . S
C1439 C1438 1.386 . S
C1439 C1443 1.393 . S
C1440 H1429 0.950 . S
C1440 C1438 1.391 . S
C1440 C1441 1.400 . S
C1441 C1435 1.491 . S
C1441 C1440 1.400 . S
C1441 C1442 1.398 . S
C1442 H1430 0.950 . S
C1442 C1441 1.398 . S
C1442 C1443 1.391 . S
C1443 H1431 0.950 . S
C1443 C1439 1.393 . S
C1443 C1442 1.391 . S
H1444 C1452 0.950 . S
H1445 C1457 0.950 . S
H1446 C1454 0.950 . S
H1447 C1456 0.950 . S
H1448 C1458 0.950 . S
H1449 C1460 0.950 . S
H1450 C1462 0.950 . S
H1451 C1463 0.950 . S
C1452 H1444 0.950 . S
C1452 C1453 1.386 . S
C1452 C1454 1.391 . S
C1453 C1452 1.386 . S
C1453 C1457 1.393 . S
C1454 H1446 0.950 . S
C1454 C1452 1.391 . S
C1454 C1455 1.400 . S
C1455 C1454 1.400 . S
C1455 C1456 1.398 . S
C1455 C1461 1.491 . S
C1456 H1447 0.950 . S
C1456 C1455 1.398 . S
C1456 C1457 1.391 . S
C1457 H1445 0.950 . S
C1457 C1453 1.393 . S
C1457 C1456 1.391 . S
C1458 H1448 0.950 . S
C1458 C1459 1.386 . S
C1458 C1460 1.391 . S
C1459 C1458 1.386 . S
C1459 C1463 1.393 . S
C1460 H1449 0.950 . S
C1460 C1458 1.391 . S
C1460 C1461 1.400 . S
C1461 C1455 1.491 . S
C1461 C1460 1.400 . S
C1461 C1462 1.398 . S
C1462 H1450 0.950 . S
C1462 C1461 1.398 . S
C1462 C1463 1.391 . S
C1463 H1451 0.950 . S
C1463 C1459 1.393 . S
C1463 C1462 1.391 . S
H1464 C1472 0.950 . S
H1465 C1477 0.950 . S
H1466 C1474 0.950 . S
H1467 C1476 0.950 . S
H1468 C1478 0.950 . S
H1469 C1480 0.950 . S
H1470 C1482 0.950 . S
H1471 C1483 0.950 . S
C1472 H1464 0.950 . S
C1472 C1473 1.386 . S
C1472 C1474 1.391 . S
C1473 C1472 1.386 . S
C1473 C1477 1.393 . S
C1474 H1466 0.950 . S
C1474 C1472 1.391 . S
C1474 C1475 1.400 . S
C1475 C1474 1.400 . S
C1475 C1476 1.398 . S
C1475 C1481 1.491 . S
C1476 H1467 0.950 . S
C1476 C1475 1.398 . S
C1476 C1477 1.391 . S
C1477 H1465 0.950 . S
C1477 C1473 1.393 . S
C1477 C1476 1.391 . S
C1478 H1468 0.950 . S
C1478 C1479 1.386 . S
C1478 C1480 1.391 . S
C1479 C1478 1.386 . S
C1479 C1483 1.393 . S
C1480 H1469 0.950 . S
C1480 C1478 1.391 . S
C1480 C1481 1.400 . S
C1481 C1475 1.491 . S
C1481 C1480 1.400 . S
C1481 C1482 1.398 . S
C1482 H1470 0.950 . S
C1482 C1481 1.398 . S
C1482 C1483 1.391 . S
C1483 H1471 0.950 . S
C1483 C1479 1.393 . S
C1483 C1482 1.391 . S
H1484 C1492 0.950 . S
H1485 C1497 0.950 . S
H1486 C1494 0.950 . S
H1487 C1496 0.950 . S
H1488 C1498 0.950 . S
H1489 C1500 0.950 . S
H1490 C1502 0.950 . S
H1491 C1503 0.950 . S
C1492 H1484 0.950 . S
C1492 C1493 1.386 . S
C1492 C1494 1.391 . S
C1493 C1492 1.386 . S
C1493 C1497 1.393 . S
C1494 H1486 0.950 . S
C1494 C1492 1.391 . S
C1494 C1495 1.400 . S
C1495 C1494 1.400 . S
C1495 C1496 1.398 . S
C1495 C1501 1.491 . S
C1496 H1487 0.950 . S
C1496 C1495 1.398 . S
C1496 C1497 1.391 . S
C1497 H1485 0.950 . S
C1497 C1493 1.393 . S
C1497 C1496 1.391 . S
C1498 H1488 0.950 . S
C1498 C1499 1.386 . S
C1498 C1500 1.391 . S
C1499 C1498 1.386 . S
C1499 C1503 1.393 . S
C1500 H1489 0.950 . S
C1500 C1498 1.391 . S
C1500 C1501 1.400 . S
C1501 C1495 1.491 . S
C1501 C1500 1.400 . S
C1501 C1502 1.398 . S
C1502 H1490 0.950 . S
C1502 C1501 1.398 . S
C1502 C1503 1.391 . S
C1503 H1491 0.950 . S
C1503 C1499 1.393 . S
C1503 C1502 1.391 . S
H1504 C1512 0.950 . S
H1505 C1517 0.950 . S
H1506 C1514 0.950 . S
H1507 C1516 0.950 . S
H1508 C1518 0.955 . S
H1509 C1520 0.960 . S
H1510 C1522 0.950 . S
H1511 C1523 0.950 . S
C1512 H1504 0.950 . S
C1512 C1513 1.386 . S
C1512 C1514 1.391 . S
C1513 C1512 1.386 . S
C1513 C1517 1.393 . S
C1514 H1506 0.950 . S
C1514 C1512 1.391 . S
C1514 C1515 1.400 . S
C1515 C1514 1.400 . S
C1515 C1516 1.398 . S
C1515 C1521 1.491 . S
C1516 H1507 0.950 . S
C1516 C1515 1.398 . S
C1516 C1517 1.391 . S
C1517 H1505 0.950 . S
C1517 C1513 1.393 . S
C1517 C1516 1.391 . S
C1518 H1508 0.955 . S
C1518 C1519 1.382 1_554 S
C1518 C1520 1.391 1_554 S
C1519 C1518 1.382 1_556 S
C1519 C1523 1.393 . S
C1520 H1509 0.960 . S
C1520 C1518 1.391 1_556 S
C1520 C1521 1.400 . S
C1521 C1515 1.491 . S
C1521 C1520 1.400 . S
C1521 C1522 1.398 . S
C1522 H1510 0.950 . S
C1522 C1521 1.398 . S
C1522 C1523 1.391 . S
C1523 H1511 0.950 . S
C1523 C1519 1.393 . S
C1523 C1522 1.391 . S
H1524 C1532 0.950 . S
H1525 C1537 0.950 . S
H1526 C1534 0.950 . S
H1527 C1536 0.950 . S
H1528 C1538 0.950 . S
H1529 C1540 0.950 . S
H1530 C1542 0.950 . S
H1531 C1543 0.950 . S
C1532 H1524 0.950 . S
C1532 C1533 1.386 . S
C1532 C1534 1.391 . S
C1533 C1532 1.386 . S
C1533 C1537 1.393 . S
C1534 H1526 0.950 . S
C1534 C1532 1.391 . S
C1534 C1535 1.400 . S
C1535 C1534 1.400 . S
C1535 C1536 1.398 . S
C1535 C1541 1.491 . S
C1536 H1527 0.950 . S
C1536 C1535 1.398 . S
C1536 C1537 1.391 . S
C1537 H1525 0.950 . S
C1537 C1533 1.393 . S
C1537 C1536 1.391 . S
C1538 H1528 0.950 . S
C1538 C1539 1.386 . S
C1538 C1540 1.391 . S
C1539 C1538 1.386 . S
C1539 C1543 1.393 . S
C1540 H1529 0.950 . S
C1540 C1538 1.391 . S
C1540 C1541 1.400 . S
C1541 C1535 1.491 . S
C1541 C1540 1.400 . S
C1541 C1542 1.398 . S
C1542 H1530 0.950 . S
C1542 C1541 1.398 . S
C1542 C1543 1.391 . S
C1543 H1531 0.950 . S
C1543 C1539 1.393 . S
C1543 C1542 1.391 . S
H1544 C1552 0.950 . S
H1545 C1557 0.950 . S
H1546 C1554 0.950 . S
H1547 C1556 0.946 1_556 S
H1548 C1558 0.950 . S
H1549 C1560 0.950 1_556 S
H1550 C1562 0.950 . S
H1551 C1563 0.950 . S
C1552 H1544 0.950 . S
C1552 C1553 1.386 . S
C1552 C1554 1.391 . S
C1553 C1552 1.386 . S
C1553 C1557 1.393 . S
C1554 H1546 0.950 . S
C1554 C1552 1.391 . S
C1554 C1555 1.400 . S
C1555 C1554 1.400 . S
C1555 C1556 1.398 . S
C1555 C1561 1.491 . S
C1556 H1547 0.946 1_554 S
C1556 C1555 1.398 . S
C1556 C1557 1.391 . S
C1557 H1545 0.950 . S
C1557 C1553 1.393 . S
C1557 C1556 1.391 . S
C1558 H1548 0.950 . S
C1558 C1559 1.386 1_556 S
C1558 C1560 1.391 1_556 S
C1559 C1558 1.386 1_554 S
C1559 C1563 1.393 . S
C1560 H1549 0.950 1_554 S
C1560 C1558 1.391 1_554 S
C1560 C1561 1.400 . S
C1561 C1555 1.491 . S
C1561 C1560 1.400 . S
C1561 C1562 1.398 . S
C1562 H1550 0.950 . S
C1562 C1561 1.398 . S
C1562 C1563 1.391 . S
C1563 H1551 0.950 . S
C1563 C1559 1.393 . S
C1563 C1562 1.391 . S
H1564 C1572 0.950 . S
H1565 C1577 0.950 . S
H1566 C1574 0.950 . S
H1567 C1576 0.950 1_545 S
H1568 C1578 0.950 . S
H1569 C1580 0.950 . S
H1570 C1582 0.950 . S
H1571 C1583 0.950 . S
C1572 H1564 0.950 . S
C1572 C1573 1.386 . S
C1572 C1574 1.391 . S
C1573 C1572 1.386 . S
C1573 C1577 1.393 1_565 S
C1574 H1566 0.950 . S
C1574 C1572 1.391 . S
C1574 C1575 1.400 . S
C1575 C1574 1.400 . S
C1575 C1576 1.398 . S
C1575 C1581 1.491 . S
C1576 H1567 0.950 1_565 S
C1576 C1575 1.398 . S
C1576 C1577 1.391 1_565 S
C1577 H1565 0.950 . S
C1577 C1573 1.393 1_545 S
C1577 C1576 1.391 1_545 S
C1578 H1568 0.950 . S
C1578 C1579 1.386 . S
C1578 C1580 1.391 . S
C1579 C1578 1.386 . S
C1579 C1583 1.393 . S
C1580 H1569 0.950 . S
C1580 C1578 1.391 . S
C1580 C1581 1.400 . S
C1581 C1575 1.491 . S
C1581 C1580 1.400 . S
C1581 C1582 1.398 . S
C1582 H1570 0.950 . S
C1582 C1581 1.398 . S
C1582 C1583 1.391 . S
C1583 H1571 0.950 . S
C1583 C1579 1.393 . S
C1583 C1582 1.391 . S
C639 C194 1.687 . S
C633 C66 1.687 . S
C659 C242 1.267 . S
C653 C76 1.284 . S
C673 C93 1.736 . S
C679 C278 1.663 . S
C699 C314 1.538 . S
C693 C54 1.595 . S
C719 C340 1.447 . S
C713 C126 1.450 . S
C739 C376 1.869 . S
C733 C150 1.886 . S
C753 C136 1.193 . S
C759 C411 1.212 . S
C779 C448 1.821 . S
C773 C117 1.831 . S
C793 C141 1.237 . S
C799 C482 1.237 . S
C819 C530 1.354 . S
C813 C112 1.384 . S
C833 C124 1.485 . S
C839 C483 1.501 . S
C859 C520 1.416 . S
C853 C148 1.411 . S
C873 C88 1.266 . S
C879 C566 1.224 . S
C893 C52 1.684 . S
C899 C555 1.684 . S
C913 C64 1.244 . S
C919 C556 1.252 . S
C933 C78 1.330 . S
C939 C554 1.321 . S
C953 C45 1.625 . S
C959 C302 1.621 . S
C973 C177 1.788 . S
C979 C303 1.792 . S
C999 C206 1.484 . S
C993 C189 1.548 1_565 S
C1019 C231 1.556 . S
C1013 C102 1.554 . S
C1033 C57 1.818 . S
C1039 C338 1.816 . S
C1059 C446 1.411 . S
C1053 C138 1.436 . S
C1079 C339 1.790 . S
C1073 C114 1.793 . S
C1099 C412 1.820 . S
C1093 C153 1.822 . S
C1119 C410 1.684 . S
C1113 C174 1.681 . S
C1133 C184 1.277 . S
C1139 C458 1.250 . S
C1153 C105 1.735 . S
C1159 C350 1.666 . S
C1179 C386 1.543 . S
C1173 C162 1.597 . S
C1193 C42 1.451 . S
C1199 C268 1.442 . S
C1219 C304 1.860 . S
C1213 C6 1.884 . S
C1239 C195 1.212 . S
C1233 C16 1.184 . S
C1259 C232 1.819 . S
C1253 C33 1.834 1_455 S
C1273 C21 1.240 . S
C1279 C518 1.239 . S
C1293 C28 1.372 1_556 S
C1299 C494 1.347 . S
C1313 C40 1.482 . S
C1319 C519 1.501 . S
C1333 C4 1.410 . S
C1339 C484 1.417 . S
C1359 C602 1.225 . S
C1353 C100 1.265 . S
C1379 C591 1.679 . S
C1373 C160 1.684 . S
C1399 C592 1.261 . S
C1393 C172 1.250 . S
C1413 C186 1.328 1_554 S
C1419 C590 1.316 . S
C1433 C129 1.615 . S
C1439 C374 1.606 . S
C1459 C375 1.791 . S
C1453 C69 1.787 . S
C1479 C422 1.489 . S
C1473 C81 1.559 . S
C1499 C447 1.556 . S
C1493 C90 1.554 . S
C1513 C165 1.811 . S
C1519 C266 1.809 1_556 S
C1539 C230 1.408 . S
C1533 C18 1.436 . S
C1553 C30 1.797 . S
C1559 C267 1.794 . S
C1579 C196 1.818 . S
C1573 C9 1.822 1_565 S
