# Generated by pormake.
# Topology zzz, (3,6)-cn, num edge types: 1
# Building blocks:
#     Node 0, Type 0, BuildingBlock: QEWDON_clean_linker_0, # of connection points: 3
#     Node 1, Type 0, BuildingBlock: QEWDON_clean_linker_0, # of connection points: 3
#     Node 2, Type 0, BuildingBlock: QEWDON_clean_linker_0, # of connection points: 3
#     Node 3, Type 0, BuildingBlock: QEWDON_clean_linker_0, # of connection points: 3
#     Node 4, Type 0, BuildingBlock: QEWDON_clean_linker_0, # of connection points: 3
#     Node 5, Type 0, BuildingBlock: QEWDON_clean_linker_0, # of connection points: 3
#     Node 6, Type 0, BuildingBlock: QEWDON_clean_linker_0, # of connection points: 3
#     Node 7, Type 0, BuildingBlock: QEWDON_clean_linker_0, # of connection points: 3
#     Node 8, Type 1, BuildingBlock: NUHQIS_clean_sbu_0, # of connection points: 6
#     Node 9, Type 1, BuildingBlock: NUHQIS_clean_sbu_0, # of connection points: 6
#     Node 10, Type 1, BuildingBlock: NUHQIS_clean_sbu_0, # of connection points: 6
#     Node 11, Type 1, BuildingBlock: NUHQIS_clean_sbu_0, # of connection points: 6
#     Edge 12, Type (0, 1), BuildingBlock: EZIPEK_clean_linker_0, # of connection points: 2
#     Edge 13, Type (0, 1), BuildingBlock: EZIPEK_clean_linker_0, # of connection points: 2
#     Edge 14, Type (0, 1), BuildingBlock: EZIPEK_clean_linker_0, # of connection points: 2
#     Edge 15, Type (0, 1), BuildingBlock: EZIPEK_clean_linker_0, # of connection points: 2
#     Edge 16, Type (0, 1), BuildingBlock: EZIPEK_clean_linker_0, # of connection points: 2
#     Edge 17, Type (0, 1), BuildingBlock: EZIPEK_clean_linker_0, # of connection points: 2
#     Edge 18, Type (0, 1), BuildingBlock: EZIPEK_clean_linker_0, # of connection points: 2
#     Edge 19, Type (0, 1), BuildingBlock: EZIPEK_clean_linker_0, # of connection points: 2
#     Edge 20, Type (0, 1), BuildingBlock: EZIPEK_clean_linker_0, # of connection points: 2
#     Edge 21, Type (0, 1), BuildingBlock: EZIPEK_clean_linker_0, # of connection points: 2
#     Edge 22, Type (0, 1), BuildingBlock: EZIPEK_clean_linker_0, # of connection points: 2
#     Edge 23, Type (0, 1), BuildingBlock: EZIPEK_clean_linker_0, # of connection points: 2
#     Edge 24, Type (0, 1), BuildingBlock: EZIPEK_clean_linker_0, # of connection points: 2
#     Edge 25, Type (0, 1), BuildingBlock: EZIPEK_clean_linker_0, # of connection points: 2
#     Edge 26, Type (0, 1), BuildingBlock: EZIPEK_clean_linker_0, # of connection points: 2
#     Edge 27, Type (0, 1), BuildingBlock: EZIPEK_clean_linker_0, # of connection points: 2
#     Edge 28, Type (0, 1), BuildingBlock: EZIPEK_clean_linker_0, # of connection points: 2
#     Edge 29, Type (0, 1), BuildingBlock: EZIPEK_clean_linker_0, # of connection points: 2
#     Edge 30, Type (0, 1), BuildingBlock: EZIPEK_clean_linker_0, # of connection points: 2
#     Edge 31, Type (0, 1), BuildingBlock: EZIPEK_clean_linker_0, # of connection points: 2
#     Edge 32, Type (0, 1), BuildingBlock: EZIPEK_clean_linker_0, # of connection points: 2
#     Edge 33, Type (0, 1), BuildingBlock: EZIPEK_clean_linker_0, # of connection points: 2
#     Edge 34, Type (0, 1), BuildingBlock: EZIPEK_clean_linker_0, # of connection points: 2
#     Edge 35, Type (0, 1), BuildingBlock: EZIPEK_clean_linker_0, # of connection points: 2
# Relax obj value: 0.224
# Max RMSD: 0.158
# Mean RMSD: 0.099
data_MOF--net-zzz--node1-NUHQIS_clean_sbu_0--node2-QEWDON_clean_linker_0--edge1-EZIPEK_clean_linker_0
_symmetry_space_group_name_H-M    P1
_symmetry_Int_Tables_number       1
_symmetry_cell_setting            triclinic
loop_
_symmetry_equiv_pos_as_xyz
'x, y, z'
_cell_length_a     41.902784
_cell_length_b     42.062591
_cell_length_c     10.31222
_cell_angle_alpha  89.720984
_cell_angle_beta   90.071122
_cell_angle_gamma 90.222638
loop_
_atom_site_label
_atom_site_type_symbol
_atom_site_fract_x
_atom_site_fract_y
_atom_site_fract_z
_atom_type_partial_charge
H0 H 0.761 0.47935 0.27224 0.0
C1 C 0.77952 0.48867 0.335 0.0
C2 C 0.80984 0.47533 0.32812 0.0
C3 C 0.77279 0.51293 0.42418 0.0
H4 H 0.85774 0.47553 0.40165 0.0
C5 C 0.83426 0.48599 0.41 0.0
C6 C 0.82926 0.50933 0.50335 0.0
C7 C 0.79803 0.523 0.5106 0.0
C8 C 0.73854 0.52454 0.4319 0.0
H9 H 0.79348 0.541 0.5828 0.0
C10 C 0.71778 0.52591 0.32073 0.0
C11 C 0.68438 0.53189 0.33347 0.0
C12 C 0.72518 0.53072 0.55393 0.0
H13 H 0.7396 0.52944 0.64096 0.0
C14 C 0.69263 0.53695 0.56688 0.0
H15 H 0.72735 0.52187 0.22477 0.0
C16 C 0.6725 0.53714 0.45887 0.0
H17 H 0.64737 0.5417 0.47329 0.0
H18 H 0.68274 0.54111 0.66223 0.0
H19 H 0.06839 0.76349 0.23652 0.0
C20 C 0.05965 0.78104 0.30315 0.0
C21 C 0.07748 0.80896 0.31611 0.0
C22 C 0.03021 0.7769 0.36735 0.0
H23 H 0.07982 0.85539 0.40172 0.0
C24 C 0.06656 0.83325 0.39715 0.0
C25 C 0.03869 0.83025 0.47032 0.0
C26 C 1.02054 0.8016 0.45596 0.0
C27 C 1.00895 0.7486 0.33008 0.0
H28 H 0.99899 0.79912 0.51256 0.0
C29 C 1.02043 0.72132 0.26008 0.0
C30 C 0.99925 0.69746 0.21244 0.0
C31 C 0.97586 0.74996 0.35374 0.0
H32 H 0.96521 0.76997 0.40224 0.0
C33 C 0.95525 0.72605 0.31063 0.0
H34 H 0.04553 0.71818 0.24091 0.0
C35 C 0.96669 0.70031 0.24009 0.0
H36 H 0.94993 0.68251 0.20607 0.0
H37 H 0.92993 0.72786 0.32982 0.0
H38 H 0.78154 0.06542 0.22268 0.0
C39 C 0.76195 0.05599 0.2796 0.0
C40 C 0.73189 0.06926 0.26209 0.0
C41 C 0.7669 0.03157 0.37101 0.0
H42 H 0.68272 0.06923 0.31962 0.0
C43 C 0.70597 0.05866 0.33607 0.0
C44 C 0.70947 0.03582 0.4339 0.0
C45 C 0.74033 0.02195 0.45102 0.0
C46 C 0.80058 0.01897 0.38631 0.0
H47 H 0.74351 1.00411 0.52583 0.0
C48 C 0.82269 1.01836 0.28025 0.0
C49 C 0.85559 1.01162 0.29988 0.0
C50 C 0.81206 1.01072 0.51001 0.0
H51 H 0.79653 1.01125 0.59373 0.0
C52 C 0.84422 1.00324 0.52908 0.0
H53 H 0.81472 0.0239 0.18287 0.0
C54 C 0.86581 1.00412 0.42593 0.0
H55 H 0.89071 0.99896 0.44461 0.0
H56 H 0.85267 0.99744 0.62554 0.0
H57 H 0.48154 0.78948 0.26269 0.0
C58 C 0.49165 0.77096 0.32252 0.0
C59 C 0.47483 0.74217 0.33219 0.0
C60 C 0.52189 0.77488 0.38117 0.0
H61 H 0.473 0.69602 0.42308 0.0
C62 C 0.48654 0.71784 0.41231 0.0
C63 C 0.51542 0.72049 0.47848 0.0
C64 C 0.53323 0.74926 0.4628 0.0
C65 C 0.54231 0.80395 0.34481 0.0
H66 H 0.55564 0.75126 0.51409 0.0
C67 C 0.52962 0.83249 0.2864 0.0
C68 C 0.55003 0.8571 0.23762 0.0
C69 C 0.57577 0.80209 0.35686 0.0
H70 H 0.58724 0.78119 0.39595 0.0
C71 C 0.59563 0.8266 0.31318 0.0
H72 H 0.50419 0.83578 0.27618 0.0
C73 C 0.58303 0.85352 0.25322 0.0
H74 H 0.59926 0.87168 0.21758 0.0
H75 H 0.62124 0.82432 0.32305 0.0
H76 H 0.27477 0.47865 0.37016 0.0
C77 C 0.25904 0.48598 0.29244 0.0
C78 C 0.23065 0.4689 0.27126 0.0
C79 C 0.2651 0.51489 0.22759 0.0
H80 H 0.18835 0.46596 0.15213 0.0
C81 C 0.2101 0.47894 0.17143 0.0
C82 C 0.21437 0.50745 0.10423 0.0
C83 C 0.24247 0.52552 0.1319 0.0
C84 C 0.29006 0.53663 0.28634 0.0
H85 H 0.24611 0.54815 0.08354 0.0
C86 C 0.32107 0.52606 0.32757 0.0
C87 C 0.34091 0.54549 0.40855 0.0
C88 C 0.28023 0.56713 0.32337 0.0
H89 H 0.25685 0.57588 0.29651 0.0
C90 C 0.29916 0.58587 0.40387 0.0
H91 H 0.3294 0.50281 0.29871 0.0
C92 C 0.32858 0.57497 0.44831 0.0
H93 H 0.34234 0.59021 0.51198 0.0
H94 H 0.29063 0.60892 0.43431 0.0
H95 H 0.97265 0.27991 0.32892 0.0
C96 C 0.98324 0.26091 0.27353 0.0
C97 C 0.96669 0.23215 0.2657 0.0
C98 C 1.01294 0.26512 0.21159 0.0
H99 H 0.96605 0.18492 0.18827 0.0
C100 C 0.97889 0.2073 0.19119 0.0
C101 C 1.00701 0.2104 0.11972 0.0
C102 C 0.02444 0.23957 0.13133 0.0
C103 C 0.03035 0.29673 0.2289 0.0
H104 H 0.04666 0.24204 0.079 0.0
C105 C 0.02568 0.31666 0.34018 0.0
C106 C 0.03943 0.34764 0.34774 0.0
C107 C 0.05031 0.30839 0.12977 0.0
H108 H 0.0543 0.29483 0.04248 0.0
C109 C 0.06459 0.3384 0.13879 0.0
H110 H 1.01111 0.30862 0.42047 0.0
C111 C 0.05902 0.35789 0.24554 0.0
H112 H 0.06983 0.38133 0.24788 0.0
H113 H 0.07963 0.34693 0.06064 0.0
H114 H 0.25804 0.9724 0.30732 0.0
C115 C 0.27789 0.98379 0.25827 0.0
C116 C 0.30756 0.96871 0.25984 0.0
C117 C 0.27376 1.0132 0.19472 0.0
H118 H 0.35581 0.96958 0.1898 0.0
C119 C 0.33304 0.98166 0.18908 0.0
C120 C 0.33025 1.01027 0.12046 0.0
C121 C 0.30042 0.02642 0.12519 0.0
C122 C 0.24109 0.02853 0.19717 0.0
H123 H 0.2982 0.04907 0.07586 0.0
C124 C 0.21963 0.02499 0.30451 0.0
C125 C 0.18764 0.03624 0.29767 0.0
C126 C 0.23003 0.04475 0.08654 0.0
H127 H 0.24507 0.04758 1.00197 0.0
C128 C 0.1989 0.05639 0.08062 0.0
H129 H 0.22743 1.01315 0.39238 0.0
C130 C 0.17788 0.05196 0.18408 0.0
H131 H 0.15372 0.06081 0.17531 0.0
H132 H 0.19078 0.0685 0.99385 0.0
H133 H 0.55499 0.26931 0.35473 0.0
C134 C 0.54607 0.28801 0.29191 0.0
C135 C 0.55678 0.31901 0.31208 0.0
C136 C 0.52645 0.28069 0.18541 0.0
H137 H 0.55542 0.36766 0.24925 0.0
C138 C 0.54675 0.34375 0.23081 0.0
C139 C 0.52796 0.33818 0.12113 0.0
C140 C 0.51778 0.30615 0.09791 0.0
C141 C 0.52053 0.24577 0.15785 0.0
H142 H 0.50403 0.30106 0.01153 0.0
C143 C 0.5159 0.22245 0.25868 0.0
C144 C 0.51748 0.18905 0.23282 0.0
C145 C 0.52472 0.23488 0.03073 0.0
H146 H 0.5288 0.25144 0.9517 0.0
C147 C 0.52602 0.20245 0.00447 0.0
H148 H 0.51194 0.23025 0.35725 0.0
C149 C 0.5232 0.17999 0.10375 0.0
H150 H 0.52517 0.15516 0.07876 0.0
H151 H 0.53013 0.19463 0.90627 0.0
Tb152 Tb 0.04075 1.01212 0.91795 0.0
Eu153 Eu 0.99965 0.02991 0.66065 0.0
C154 C 0.07683 0.02522 0.64406 0.0
C155 C 1.01983 0.08576 0.864 0.0
C156 C 0.09669 0.97376 0.14407 0.0
C157 C 0.13193 0.93214 0.06739 0.0
C158 C 0.11936 0.96274 0.05432 0.0
C159 C 0.08954 0.95536 0.25376 0.0
C160 C 0.10176 0.92482 0.26597 0.0
C161 C 0.12146 0.91243 0.16896 0.0
C162 C 0.0754 1.00033 0.11266 0.0
O163 O 0.99162 1.00503 0.98662 0.0
O164 O 0.96376 0.03079 0.82644 0.0
O165 O 1.01053 0.97712 0.63848 0.0
O166 O 0.03417 0.96433 0.83285 0.0
C167 C 0.96491 1.01709 0.94126 0.0
O168 O 0.95414 0.02381 0.55928 0.0
O169 O 0.99291 0.04928 0.46696 0.0
O170 O 0.05044 0.03559 0.58994 0.0
O171 O 0.07703 1.013 0.7622 0.0
O172 O 0.03005 0.06323 0.94338 0.0
O173 O 1.00981 0.07884 0.74607 0.0
C174 C 0.02316 0.95592 0.71762 0.0
O175 O 0.08391 0.01938 0.01886 0.0
O176 O 0.0455 0.99226 0.10323 0.0
C177 C 0.9417 0.06894 0.42985 0.0
C178 C 0.91702 0.13034 0.40453 0.0
C179 C 0.90517 0.11005 0.50173 0.0
C180 C 0.91768 0.07937 0.51497 0.0
C181 C 0.95007 0.08787 0.32322 0.0
C182 C 0.93771 0.1183 0.31027 0.0
C183 C 0.96263 0.04213 0.46285 0.0
H184 H 0.14687 0.92271 0.99119 0.0
H185 H 0.12516 0.97647 0.96836 0.0
H186 H 0.0721 0.96342 0.32374 0.0
H187 H 0.09348 0.90991 0.34507 0.0
H188 H 0.88925 0.11908 0.57541 0.0
H189 H 0.91068 0.06513 0.59804 0.0
H190 H 0.96847 0.08027 0.25652 0.0
H191 H 0.94686 0.1335 0.23383 0.0
Tb192 Tb 0.52956 0.04885 0.87817 0.0
Eu193 Eu 0.50535 1.00418 0.64998 0.0
C194 C 0.51336 0.07937 0.60362 0.0
C195 C 0.45482 0.02659 0.86628 0.0
C196 C 0.57315 0.10756 0.07117 0.0
C197 C 0.61795 0.13455 0.96878 0.0
C198 C 0.58613 0.1246 0.96568 0.0
C199 C 0.59086 0.10443 0.18555 0.0
C200 C 0.62281 0.11348 0.18712 0.0
C201 C 0.63709 0.12612 0.07485 0.0
C202 C 0.54486 0.08735 0.05459 0.0
O203 O 0.53968 1.00036 0.95237 0.0
O204 O 0.50583 0.97161 0.82578 0.0
O205 O 0.55909 1.01156 0.61071 0.0
O206 O 0.57588 0.04094 0.78568 0.0
C207 C 0.52477 0.97339 0.92683 0.0
O208 O 0.50942 0.95886 0.5495 0.0
O209 O 0.47888 0.99581 0.47143 0.0
O210 O 0.49395 0.05509 0.58674 0.0
O211 O 0.53401 0.07786 0.69965 0.0
O212 O 0.47731 0.04601 0.90856 0.0
O213 O 0.46049 1.00673 0.77129 0.0
C214 C 0.58207 0.02597 0.67659 0.0
O215 O 0.52584 0.09444 0.95896 0.0
O216 O 0.55057 0.05696 0.05978 0.0
C217 C 0.46107 0.94328 0.44797 0.0
C218 C 0.40099 0.91365 0.43815 0.0
C219 C 0.42195 0.90691 0.54102 0.0
C220 C 0.4516 0.92234 0.54768 0.0
C221 C 0.44237 0.94581 0.33625 0.0
C222 C 0.41251 0.93138 0.33173 0.0
C223 C 0.48736 0.96604 0.46509 0.0
H224 H 0.62856 0.14482 0.88237 0.0
H225 H 0.57284 0.12756 0.87655 0.0
H226 H 0.58107 0.09183 0.26852 0.0
H227 H 0.63714 0.10748 0.27124 0.0
H228 H 0.4147 0.8915 0.62004 0.0
H229 H 0.46614 0.91934 0.63377 0.0
H230 H 0.44975 0.96101 0.25659 0.0
H231 H 0.39749 0.93616 0.2486 0.0
Tb232 Tb 0.50548 0.53961 0.91552 0.0
Eu233 Eu 0.54504 0.5198 0.66422 0.0
C234 C 0.46814 0.52903 0.64773 0.0
C235 C 0.52149 0.46519 0.87364 0.0
C236 C 0.45525 0.59079 0.11513 0.0
C237 C 0.41256 0.62764 0.05663 0.0
C238 C 0.42692 0.59764 0.04625 0.0
C239 C 0.46873 0.61422 0.19428 0.0
C240 C 0.45474 0.64395 0.2029 0.0
C241 C 0.42651 0.65097 0.13534 0.0
C242 C 0.47259 0.56058 0.09973 0.0
O243 O 0.55177 0.52659 1.00046 0.0
O244 O 0.5822 0.53319 0.81901 0.0
O245 O 0.53084 0.57082 0.62411 0.0
O246 O 0.52478 0.58498 0.83518 0.0
C247 C 0.57994 0.52999 0.94591 0.0
O248 O 0.58899 0.52581 0.55252 0.0
O249 O 0.5513 0.49562 0.47999 0.0
O250 O 0.493 0.51397 0.6003 0.0
O251 O 0.47043 0.54466 0.7575 0.0
O252 O 0.50359 0.48699 0.93011 0.0
O253 O 0.54081 0.47301 0.77719 0.0
C254 C 0.528 0.5931 0.7118 0.0
O255 O 0.46161 0.54048 0.01466 0.0
O256 O 0.50353 0.56335 0.09297 0.0
C257 C 0.60314 0.47785 0.44875 0.0
C258 C 0.61999 0.41395 0.46516 0.0
C259 C 0.63097 0.4351 0.55995 0.0
C260 C 0.62225 0.4671 0.55229 0.0
C261 C 0.59806 0.45799 0.34219 0.0
C262 C 0.60634 0.42604 0.35062 0.0
C263 C 0.58101 0.50438 0.46752 0.0
H264 H 0.39099 0.63271 1.00261 0.0
H265 H 0.41611 0.58007 0.9834 0.0
H266 H 0.49054 0.60977 0.24793 0.0
H267 H 0.46641 0.66178 0.26104 0.0
H268 H 0.64233 0.42625 0.64731 0.0
H269 H 0.62727 0.48237 0.63386 0.0
H270 H 0.58394 0.46602 0.26024 0.0
H271 H 0.59851 0.41015 0.27442 0.0
Tb272 Tb 1.0157 0.50282 0.93745 0.0
Eu273 Eu 0.03181 0.53423 0.6616 0.0
C274 C 0.0257 0.45736 0.69117 0.0
C275 C 0.08762 0.51808 0.86899 0.0
C276 C 0.97532 0.45325 0.17303 0.0
C277 C 0.92431 0.4486 0.27963 0.0
C278 C 0.95548 0.45997 0.27808 0.0
C279 C 0.96485 0.43199 0.07664 0.0
C280 C 0.9335 0.42056 0.07823 0.0
C281 C 0.9126 0.43069 0.17543 0.0
C282 C 1.00163 0.47525 0.14676 0.0
O283 O 1.01138 0.55366 0.9814 0.0
O284 O 0.02898 0.57781 0.79365 0.0
O285 O 0.97756 0.53746 0.66674 0.0
O286 O 0.96854 0.50354 0.83776 0.0
C287 C 1.01941 0.57945 0.91573 0.0
O288 O 0.06494 0.56093 0.5379 0.0
O289 O 0.02381 0.53828 0.45204 0.0
O290 O 0.0231 0.48242 0.61684 0.0
O291 O 0.02643 0.46047 0.81812 0.0
O292 O 0.06558 0.51871 0.95944 0.0
O293 O 0.079 0.5165 0.74652 0.0
C294 C 0.95769 0.52013 0.73729 0.0
O295 O 0.02406 0.46542 0.06962 0.0
O296 O 0.99209 0.50368 0.11582 0.0
C297 C 0.07467 0.5256 0.36802 0.0
C298 C 0.12535 0.48176 0.36977 0.0
C299 C 0.13045 0.51359 0.3313 0.0
C300 C 0.10546 0.53554 0.33346 0.0
C301 C 0.06877 0.49274 0.38249 0.0
C302 C 0.09404 0.47129 0.39108 0.0
C303 C 0.05299 0.54816 0.43329 0.0
H304 H 0.90852 0.4564 0.35599 0.0
H305 H 0.963 0.47663 0.35209 0.0
H306 H 0.97965 0.42689 0.99327 0.0
H307 H 0.92465 0.40695 0.99674 0.0
H308 H 0.15447 0.52217 0.31382 0.0
H309 H 0.11086 0.56058 0.3214 0.0
H310 H 0.04499 0.48395 0.4011 0.0
H311 H 0.08918 0.44712 0.4221 0.0
C312 C 0.14995 1.00179 0.43549 0.0
C313 C 0.16333 0.03216 0.40596 0.0
C314 C 0.12168 0.05755 0.54076 0.0
C315 C 0.1077 0.02735 0.56772 0.0
N316 N 0.10997 0.97044 0.55183 0.0
N317 N 0.16696 0.08774 0.45697 0.0
C318 C 0.12271 0.99936 0.52005 0.0
C319 C 0.15058 0.05966 0.46669 0.0
N320 N 0.16233 0.97541 0.37739 0.0
N321 N 0.10702 0.08442 0.58457 0.0
H322 H 0.18847 0.08982 0.40672 0.0
H323 H 0.1611 0.10817 0.50808 0.0
H324 H 0.08724 0.08387 0.64589 0.0
H325 H 0.1133 0.1073 0.55525 0.0
H326 H 0.15393 0.9524 0.39101 0.0
H327 H 0.18112 0.97633 0.31147 0.0
H328 H 0.12101 0.94875 0.53538 0.0
H329 H 0.08795 0.96816 0.59742 0.0
C330 C 0.49535 0.13503 0.30921 0.0
C331 C 0.51398 0.16275 0.33591 0.0
C332 C 0.52555 0.13857 0.54996 0.0
C333 C 0.51283 0.10836 0.51165 0.0
N334 N 0.49432 0.07786 0.32618 0.0
N335 N 0.55427 0.18537 0.47671 0.0
C336 C 0.50007 0.10654 0.38322 0.0
C337 C 0.53129 0.16296 0.45486 0.0
N338 N 0.4726 0.13577 0.21445 0.0
N339 N 0.53053 0.14517 0.67759 0.0
H340 H 0.56103 0.20217 0.4074 0.0
H341 H 0.56913 0.18464 0.5579 0.0
H342 H 0.52223 0.13051 0.75181 0.0
H343 H 0.53832 0.1674 0.70895 0.0
H344 H 0.45707 0.11677 0.19787 0.0
H345 H 0.46683 0.15656 0.16418 0.0
H346 H 0.48685 0.07595 0.23 0.0
H347 H 0.50157 0.05631 0.36609 0.0
C348 C 0.38233 0.51015 0.52868 0.0
C349 C 0.37503 0.53738 0.45125 0.0
C350 C 0.42905 0.55883 0.50159 0.0
C351 C 0.43702 0.53079 0.57179 0.0
N352 N 0.42307 0.47709 0.63036 0.0
N353 N 0.39476 0.584 0.34129 0.0
C354 C 0.41426 0.50555 0.57743 0.0
C355 C 0.39958 0.56049 0.43082 0.0
N356 N 0.35842 0.48972 0.56386 0.0
N357 N 0.44952 0.5842 0.50355 0.0
H358 H 0.37518 0.58423 0.27866 0.0
H359 H 0.4111 0.60192 0.3219 0.0
H360 H 0.47192 0.5833 0.54715 0.0
H361 H 0.44353 0.60683 0.47058 0.0
H362 H 0.36139 0.47153 0.63161 0.0
H363 H 0.33483 0.49261 0.53433 0.0
H364 H 0.40889 0.45672 0.6263 0.0
H365 H 0.44582 0.47317 0.6682 0.0
C366 C 0.05767 0.37879 0.5469 0.0
C367 C 0.03291 0.37074 0.45776 0.0
C368 C 1.00076 0.41519 0.54453 0.0
C369 C 0.02657 0.42492 0.62556 0.0
N370 N 0.07539 0.40988 0.73231 0.0
N371 N 0.98034 0.38077 0.37348 0.0
C372 C 0.05374 0.40479 0.6355 0.0
C373 C 1.00399 0.38838 0.45959 0.0
N374 N 0.08559 0.36212 0.54339 0.0
N375 N 0.97255 0.43116 0.55235 0.0
H376 H 0.98171 0.36153 0.31048 0.0
H377 H 0.95958 0.39379 0.36044 0.0
H378 H 0.97019 0.45222 0.60372 0.0
H379 H 0.95103 0.42263 0.51599 0.0
H380 H 0.10636 0.36911 0.59094 0.0
H381 H 0.08845 0.34177 0.48716 0.0
H382 H 0.09428 0.39472 0.75326 0.0
H383 H 0.07268 0.42767 0.80104 0.0
C384 C 0.89164 0.04285 0.14481 0.0
C385 C 0.88028 1.01298 0.192 0.0
C386 C 0.92168 0.98585 0.06119 0.0
C387 C 0.93503 1.0157 0.02441 0.0
N388 N 0.93327 0.07271 0.03148 0.0
N389 N 0.88471 0.95593 0.19726 0.0
C390 C 0.91974 0.04422 0.06473 0.0
C391 C 0.89535 0.98449 0.15003 0.0
N392 N 0.87634 0.07003 0.18174 0.0
N393 N 0.93327 0.95874 0.00601 0.0
H394 H 0.86403 0.95368 0.25284 0.0
H395 H 0.89693 0.93463 0.18641 0.0
H396 H 0.95207 0.95881 0.93979 0.0
H397 H 0.92276 0.93643 0.01671 0.0
H398 H 0.88167 0.09268 0.14749 0.0
H399 H 0.85713 0.07012 0.24573 0.0
H400 H 0.92363 0.09488 0.05066 0.0
H401 H 0.95586 0.07428 0.99025 0.0
C402 C 0.53096 0.88469 0.03109 0.0
C403 C 0.53848 0.88662 0.16522 0.0
C404 C 0.53448 0.94556 0.14788 0.0
C405 C 0.52996 0.94363 0.01065 0.0
N406 N 0.5348 0.9103 0.82112 0.0
N407 N 0.55121 0.91945 0.34865 0.0
C408 C 0.53082 0.91287 0.95223 0.0
C409 C 0.54157 0.91733 0.22233 0.0
N410 N 0.52475 0.85574 0.97706 0.0
N411 N 0.53102 0.97417 0.20835 0.0
H412 H 0.55354 0.89958 0.40887 0.0
H413 H 0.55867 0.94049 0.39198 0.0
H414 H 0.52117 0.99403 0.16329 0.0
H415 H 0.53559 0.97804 0.30592 0.0
H416 H 0.51566 0.85315 0.88357 0.0
H417 H 0.52588 0.83449 0.02921 0.0
H418 H 0.53845 0.88871 0.77444 0.0
H419 H 0.53915 0.92977 0.76083 0.0
C420 C 0.65587 0.50624 0.13732 0.0
C421 C 0.66088 0.53292 0.21966 0.0
C422 C 0.61325 0.5582 0.11946 0.0
C423 C 0.60947 0.53231 0.03219 0.0
N424 N 0.63426 0.48673 0.93426 0.0
N425 N 0.64887 0.58798 0.26041 0.0
C426 C 0.63309 0.50801 0.03332 0.0
C427 C 0.64082 0.55998 0.20204 0.0
N428 N 0.67125 0.47832 0.16252 0.0
N429 N 0.59056 0.58141 0.12353 0.0
H430 H 0.66957 0.59066 0.31573 0.0
H431 H 0.63708 0.60932 0.24266 0.0
H432 H 0.57152 0.58253 0.05846 0.0
H433 H 0.58969 0.59855 0.19605 0.0
H434 H 0.66579 0.45721 0.11468 0.0
H435 H 0.68702 0.47539 0.23978 0.0
H436 H 0.65268 0.47035 0.92368 0.0
H437 H 0.61859 0.48763 0.85598 0.0
C438 C 0.02404 0.64227 0.18942 0.0
C439 C 1.00984 0.66936 0.13086 0.0
C440 C 1.00219 0.6382 0.92916 0.0
C441 C 1.01774 0.61134 0.98571 0.0
N442 N 0.05058 0.59179 0.16167 0.0
N443 N 0.99221 0.69518 0.9352 0.0
C444 C 0.03071 0.6146 0.11341 0.0
C445 C 1.00119 0.6679 0.99744 0.0
N446 N 0.0299 0.64223 0.3198 0.0
N447 N 0.98648 0.63503 0.81374 0.0
H448 H 0.99132 0.71711 0.98193 0.0
H449 H 0.98877 0.69668 0.83531 0.0
H450 H 0.9857 0.61389 0.76188 0.0
H451 H 0.97169 0.65252 0.77506 0.0
H452 H 0.03629 0.62188 0.37148 0.0
H453 H 0.02614 0.66204 0.37816 0.0
H454 H 0.0645 0.59531 0.24409 0.0
H455 H 0.05584 0.57085 0.11305 0.0
C456 C 0.91135 0.21301 0.28398 0.0
C457 C 0.93859 0.2251 0.34802 0.0
C458 C 0.93857 0.1807 0.49677 0.0
C459 C 0.91549 0.16529 0.41704 0.0
N460 N 0.87427 0.16966 0.25494 0.0
N461 N 0.96435 0.23046 0.55369 0.0
C462 C 0.8992 0.1829 0.32044 0.0
C463 C 0.94643 0.21277 0.47047 0.0
N464 N 0.89928 0.22822 0.1785 0.0
N465 N 0.95622 0.16381 0.58408 0.0
H466 H 0.97068 0.2539 0.53191 0.0
H467 H 0.96986 0.22295 0.64751 0.0
H468 H 0.95221 0.13987 0.60372 0.0
H469 H 0.97658 0.17302 0.62854 0.0
H470 H 0.9083 0.25002 0.14579 0.0
H471 H 0.9083 0.25002 0.14579 0.0
H472 H 0.86253 0.1816 0.17987 0.0
H473 H 0.86516 0.14729 0.27968 0.0
C474 C 0.32127 0.9448 0.47354 0.0
C475 C 0.31401 0.94016 0.34096 0.0
C476 C 0.35113 0.89583 0.33378 0.0
C477 C 0.36586 0.90806 0.44622 0.0
N478 N 0.35833 0.93459 0.65045 0.0
N479 N 0.31395 0.90385 0.16052 0.0
C480 C 0.34805 0.92866 0.52732 0.0
C481 C 0.32539 0.9126 0.27845 0.0
N482 N 0.30325 0.96518 0.54504 0.0
N483 N 0.36449 0.87077 0.27127 0.0
H484 H 0.29523 0.91575 0.11445 0.0
H485 H 0.29523 0.91575 0.11445 0.0
H486 H 0.38421 0.8589 0.31009 0.0
H487 H 0.35527 0.86188 0.1845 0.0
H488 H 0.30579 0.9684 0.64436 0.0
H489 H 0.28357 0.97692 0.50638 0.0
H490 H 0.34901 0.95206 0.71023 0.0
H491 H 0.37587 0.92097 0.69516 0.0
C492 C 0.57075 0.34239 0.52178 0.0
C493 C 0.5813 0.32662 0.41009 0.0
C494 C 0.63024 0.35794 0.40977 0.0
C495 C 0.61518 0.3797 0.49318 0.0
N496 N 0.57352 0.39046 0.6489 0.0
N497 N 0.6256 0.31253 0.27264 0.0
C498 C 0.58687 0.37053 0.56037 0.0
C499 C 0.61286 0.33138 0.36572 0.0
N500 N 0.54426 0.33132 0.58428 0.0
N501 N 0.65988 0.36447 0.36225 0.0
H502 H 0.61369 0.29275 0.23507 0.0
H503 H 0.61369 0.29275 0.23507 0.0
H504 H 0.67287 0.38431 0.39296 0.0
H505 H 0.67132 0.34959 0.29634 0.0
H506 H 0.53605 0.34033 0.67195 0.0
H507 H 0.5323 0.31097 0.55228 0.0
H508 H 0.55056 0.38753 0.68542 0.0
H509 H 0.58524 0.41049 0.68406 0.0
C510 C 0.19454 0.42506 0.33172 0.0
C511 C 0.21711 0.44759 0.37455 0.0
C512 C 0.17616 0.47479 0.49428 0.0
C513 C 0.1535 0.46189 0.40534 0.0
N514 N 0.13975 0.4188 0.25894 0.0
N515 N 0.23125 0.47335 0.57195 0.0
C516 C 0.16167 0.43389 0.33505 0.0
C517 C 0.20835 0.46472 0.4852 0.0
N518 N 0.20516 0.39849 0.27122 0.0
N519 N 0.16727 0.49795 0.57885 0.0
H520 H 0.25448 0.46468 0.564 0.0
H521 H 0.2269 0.48693 0.65395 0.0
H522 H 0.14346 0.50458 0.59014 0.0
H523 H 0.18337 0.5108 0.63512 0.0
H524 H 0.19016 0.38028 0.23982 0.0
H525 H 0.22963 0.39431 0.2621 0.0
H526 H 0.14549 0.40024 0.19689 0.0
H527 H 0.11598 0.42565 0.25325 0.0
C528 C 0.13196 0.82964 0.28788 0.0
C529 C 0.10461 0.81639 0.22851 0.0
C530 C 0.10045 0.86112 0.08313 0.0
C531 C 0.12352 0.87752 0.15942 0.0
N532 N 0.16684 0.8749 0.31328 0.0
N533 N 0.07871 0.80983 0.02308 0.0
C534 C 0.1419 0.86056 0.25173 0.0
C535 C 0.09527 0.82849 0.1073 0.0
N536 N 0.14601 0.81472 0.3899 0.0
N537 N 0.08057 0.87718 1.00126 0.0
H538 H 0.07484 0.78574 0.04171 0.0
H539 H 0.07229 0.81746 0.93035 0.0
H540 H 0.08162 0.9017 0.98851 0.0
H541 H 0.06108 0.86648 0.95593 0.0
H542 H 0.13849 0.79238 0.42272 0.0
H543 H 0.13849 0.79238 0.42272 0.0
H544 H 0.18009 0.86333 0.38505 0.0
H545 H 0.17444 0.89782 0.28858 0.0
C546 C 0.71757 0.12465 0.20983 0.0
C547 C 0.72598 0.09423 0.16417 0.0
C548 C 0.6847 0.09583 1.0008 0.0
C549 C 0.67212 0.12324 0.06291 0.0
N550 N 0.68196 0.17002 0.18868 0.0
N551 N 0.7295 0.05972 0.98153 0.0
C552 C 0.69107 0.14028 0.15252 0.0
C553 C 0.7141 0.08352 0.04487 0.0
N554 N 0.73293 0.1365 0.31584 0.0
N555 N 0.66696 0.07924 0.91284 0.0
H556 H 0.75071 0.05013 0.01746 0.0
H557 H 0.72307 0.05207 0.88907 0.0
H558 H 0.64532 0.08724 0.87631 0.0
H559 H 0.67315 0.05671 0.88009 0.0
H560 H 0.72617 0.15714 0.36361 0.0
H561 H 0.75251 0.12475 0.35638 0.0
H562 H 0.69517 0.18441 0.25084 0.0
H563 H 0.66202 0.18095 0.14727 0.0
C564 C 0.41945 0.72151 0.32125 0.0
C565 C 0.44571 0.73505 0.25373 0.0
C566 C 0.42889 0.7058 0.06178 0.0
C567 C 0.41405 0.68377 0.14459 0.0
N568 N 0.38509 0.67481 0.34046 0.0
N569 N 0.47128 0.74451 0.04548 0.0
C570 C 0.40471 0.6939 0.26892 0.0
C571 C 0.44838 0.72969 0.11785 0.0
N572 N 0.41132 0.73326 0.43956 0.0
N573 N 0.42605 0.70216 0.93134 0.0
H574 H 0.48586 0.76253 0.08062 0.0
H575 H 0.47632 0.73814 0.95024 0.0
H576 H 0.41245 0.68363 0.89249 0.0
H577 H 0.43409 0.71917 0.86516 0.0
H578 H 0.39191 0.72507 0.49328 0.0
H579 H 0.42311 0.753 0.47818 0.0
H580 H 0.37964 0.67874 0.43751 0.0
H581 H 0.37483 0.65444 0.3 0.0
C582 C 0.83127 0.46323 0.11647 0.0
C583 C 0.81804 0.45097 0.23112 0.0
C584 C 0.85918 0.41024 0.2387 0.0
C585 C 0.87772 0.42993 0.15632 0.0
N586 N 0.88105 0.47515 0.01051 0.0
N587 N 0.8122 0.40731 0.37775 0.0
C588 C 0.86326 0.4556 0.08812 0.0
C589 C 0.82902 0.42163 0.28052 0.0
N590 N 0.81443 0.48468 0.04476 0.0
N591 N 0.8716 0.38228 0.28278 0.0
H592 H 0.79024 0.41641 0.40765 0.0
H593 H 0.81984 0.38725 0.42821 0.0
H594 H 0.894 0.37441 0.25265 0.0
H595 H 0.85916 0.36622 0.34102 0.0
H596 H 0.82229 0.49344 0.95556 0.0
H597 H 0.79119 0.49096 0.07012 0.0
H598 H 0.87246 0.49643 0.97221 0.0
H599 H 0.90509 0.47122 0.99149 0.0
C600 C 0.04195 0.16236 0.05455 0.0
C601 C 1.0152 0.18239 0.03155 0.0
C602 C 0.99143 0.13959 0.89665 0.0
C603 C 1.01902 0.12014 0.91286 0.0
N604 N 0.07414 0.11802 0.98046 0.0
N605 N 0.96854 0.19261 0.90213 0.0
C606 C 0.04535 0.1331 0.98375 0.0
C607 C 0.99149 0.17175 0.94237 0.0
N608 N 0.06341 0.17027 0.14878 0.0
N609 N 0.96414 0.12705 0.84527 0.0
H610 H 0.96869 0.2165 0.92916 0.0
H611 H 0.95123 0.18718 0.83318 0.0
H612 H 0.9625 0.10428 0.80699 0.0
H613 H 0.94214 0.13846 0.84997 0.0
H614 H 0.08119 0.15488 0.18096 0.0
H615 H 0.06195 0.19127 0.2016 0.0
H616 H 0.09489 0.12766 0.02007 0.0
H617 H 0.07807 0.09764 0.9256 0.0
C618 C 0.36301 0.02153 0.91412 0.0
C619 C 0.36014 0.02235 0.05162 0.0
C620 C 0.41898 0.02663 0.06806 0.0
C621 C 0.42201 0.02686 0.93016 0.0
N622 N 0.39544 0.03341 0.72407 0.0
N623 N 0.38489 0.03513 0.25532 0.0
C624 C 0.39353 0.02698 0.85385 0.0
C625 C 0.38805 0.02821 0.12667 0.0
N626 N 0.33686 1.01436 0.84068 0.0
N627 N 0.4454 0.02261 0.1442 0.0
H628 H 0.36264 0.03668 0.30028 0.0
H629 H 0.40382 0.04262 0.31336 0.0
H630 H 0.46814 1.01875 0.10712 0.0
H631 H 0.44436 0.01966 0.2444 0.0
H632 H 0.33792 1.01029 0.74132 0.0
H633 H 0.31428 1.01064 0.88038 0.0
H634 H 0.37554 0.03682 0.66512 0.0
H635 H 0.4169 0.03878 0.67771 0.0
C636 C 0.49408 0.38329 0.01967 0.0
C637 C 0.52353 0.36663 0.02968 0.0
C638 C 0.55102 0.41479 0.94714 0.0
C639 C 0.52158 0.43088 0.92594 0.0
N640 N 0.46415 0.42649 0.91948 0.0
N641 N 0.57861 0.36437 0.96536 0.0
C642 C 0.4928 0.41391 0.95555 0.0
C643 C 0.55137 0.38169 0.9796 0.0
N644 N 0.46747 0.37056 0.07591 0.0
N645 N 0.57888 0.43162 0.94759 0.0
H646 H 0.57954 0.34011 0.9869 0.0
H647 H 0.59893 0.37328 0.91937 0.0
H648 H 0.57927 0.45625 0.93961 0.0
H649 H 0.60077 0.42177 0.97363 0.0
H650 H 0.44618 0.38302 0.08608 0.0
H651 H 0.46739 0.34815 0.11966 0.0
H652 H 0.44266 0.41408 0.92687 0.0
H653 H 0.46221 0.44814 0.87069 0.0
C654 C 0.17613 0.49368 0.92167 0.0
C655 C 0.1867 0.51661 0.01429 0.0
C656 C 0.1354 0.5446 0.98145 0.0
C657 C 0.12282 0.51897 0.907 0.0
N658 N 0.13191 0.4677 0.81124 0.0
N659 N 0.17392 0.56579 0.1267 0.0
C660 C 0.14359 0.4933 0.87718 0.0
C661 C 0.16594 0.54254 0.04125 0.0
N662 N 0.19755 0.47191 0.87705 0.0
N663 N 0.11867 0.57192 0.99796 0.0
H664 H 0.19526 0.56644 0.17863 0.0
H665 H 0.19526 0.56644 0.17863 0.0
H666 H 0.09695 0.57655 0.95214 0.0
H667 H 0.09695 0.57655 0.95214 0.0
H668 H 0.19255 0.45565 0.804 0.0
H669 H 0.22152 0.47228 0.9048 0.0
H670 H 0.1441 0.44634 0.80134 0.0
H671 H 0.10917 0.46727 0.77078 0.0
C672 C 1.0029 0.87778 0.53425 0.0
C673 C 0.03027 0.85851 0.55728 0.0
C674 C 0.05293 0.90252 0.6895 0.0
C675 C 0.02493 0.92127 0.67217 0.0
N676 N 0.9694 0.92099 0.60927 0.0
N677 N 0.07854 0.85186 0.68473 0.0
C678 C 0.99878 0.90712 0.60386 0.0
C679 C 0.0539 0.87049 0.64445 0.0
N680 N 0.98155 0.86931 0.44038 0.0
N681 N 0.07965 0.91507 0.74559 0.0
H682 H 0.0807 0.82781 0.66193 0.0
H683 H 0.0807 0.82781 0.66193 0.0
H684 H 0.08126 0.93814 0.78059 0.0
H685 H 0.10092 0.90234 0.75349 0.0
H686 H 0.96338 0.88428 0.40849 0.0
H687 H 0.98352 0.8485 0.3867 0.0
H688 H 0.94888 0.91039 0.57174 0.0
H689 H 0.96482 0.94113 0.66475 0.0
C690 C 0.66634 0.05659 0.58232 0.0
C691 C 0.68021 0.02997 0.51927 0.0
C692 C 0.63171 0.99892 0.57825 0.0
C693 C 0.61608 0.02696 0.62295 0.0
N694 N 0.61768 0.08433 0.63582 0.0
N695 N 0.67358 0.9763 0.44368 0.0
C696 C 0.63328 0.05626 0.61714 0.0
C697 C 0.66225 1.00117 0.51426 0.0
N698 N 0.68491 0.0826 0.60791 0.0
N699 N 0.61798 0.9699 0.60028 0.0
H700 H 0.69576 0.97685 0.39803 0.0
H701 H 0.66005 0.95611 0.42309 0.0
H702 H 0.59643 0.9671 0.64951 0.0
H703 H 0.62946 0.94851 0.58122 0.0
H704 H 0.677 0.10198 0.66133 0.0
H705 H 0.70929 0.08325 0.58721 0.0
H706 H 0.62821 0.10646 0.61948 0.0
H707 H 0.59329 0.0857 0.65337 0.0
C708 C 0.50566 0.6822 0.66655 0.0
C709 C 0.52526 0.69166 0.56007 0.0
C710 C 0.55152 0.63884 0.57519 0.0
C711 C 0.52862 0.62796 0.66831 0.0
N712 N 0.48257 0.64089 0.79958 0.0
N713 N 0.56509 0.67666 0.40421 0.0
C714 C 0.50567 0.65019 0.71391 0.0
C715 C 0.54796 0.6694 0.51302 0.0
N716 N 0.48532 0.70322 0.72218 0.0
N717 N 0.57761 0.62053 0.54964 0.0
H718 H 0.56394 0.6988 0.35859 0.0
H719 H 0.57879 0.66008 0.3545 0.0
H720 H 0.58203 0.59909 0.59748 0.0
H721 H 0.59661 0.62818 0.49228 0.0
H722 H 0.48394 0.72719 0.69604 0.0
H723 H 0.48394 0.72719 0.69604 0.0
H724 H 0.46555 0.65656 0.83547 0.0
H725 H 0.4792 0.61748 0.8298 0.0
C726 C 0.87644 0.54425 0.58104 0.0
C727 C 0.85765 0.51618 0.59302 0.0
C728 C 0.90318 0.49052 0.70699 0.0
C729 C 0.92197 0.51908 0.69952 0.0
N730 N 0.9201 0.57597 0.66703 0.0
N731 N 0.85031 0.46633 0.70319 0.0
C732 C 0.90663 0.54678 0.64761 0.0
C733 C 0.8702 0.49072 0.66834 0.0
N734 N 0.86617 0.56826 0.50219 0.0
N735 N 0.91671 0.4624 0.74384 0.0
H736 H 0.82617 0.46602 0.67791 0.0
H737 H 0.85678 0.44846 0.76833 0.0
H738 H 0.93981 0.46008 0.77857 0.0
H739 H 0.90533 0.44052 0.7323 0.0
H740 H 0.88045 0.58766 0.47695 0.0
H741 H 0.84411 0.56765 0.45534 0.0
H742 H 0.90892 0.59715 0.64112 0.0
H743 H 0.9404 0.57918 0.72401 0.0
loop_
_geom_bond_atom_site_label_1
_geom_bond_atom_site_label_2
_geom_bond_distance
_geom_bond_site_symmetry_2
_ccdc_geom_bond_type
H0 C1 0.949 . S
C1 H0 0.949 . S
C1 C2 1.395 . S
C1 C3 1.391 . S
C2 C1 1.395 . S
C2 C5 1.390 . S
C3 C1 1.391 . S
C3 C7 1.387 . S
C3 C8 1.491 . S
H4 C5 0.950 . S
C5 C2 1.390 . S
C5 H4 0.950 . S
C5 C6 1.378 . S
C6 C5 1.378 . S
C6 C7 1.409 . S
C7 C3 1.387 . S
C7 C6 1.409 . S
C7 H9 0.951 . S
C8 C3 1.491 . S
C8 C10 1.382 . S
C8 C12 1.404 . S
H9 C7 0.951 . S
C10 C8 1.382 . S
C10 C11 1.390 . S
C10 H15 0.949 . S
C11 C10 1.390 . S
C11 C16 1.399 . S
C12 C8 1.404 . S
C12 H13 0.950 . S
C12 C14 1.375 . S
H13 C12 0.950 . S
C14 C12 1.375 . S
C14 C16 1.382 . S
C14 H18 0.950 . S
H15 C10 0.949 . S
C16 C11 1.399 . S
C16 C14 1.382 . S
C16 H17 0.952 . S
H17 C16 0.952 . S
H18 C14 0.950 . S
H19 C20 0.949 . S
C20 H19 0.949 . S
C20 C21 1.395 . S
C20 C22 1.391 . S
C21 C20 1.395 . S
C21 C24 1.390 1_655 S
C22 C20 1.391 . S
C22 C26 1.387 . S
C22 C27 1.491 . S
H23 C24 0.950 . S
C24 C21 1.390 1_455 S
C24 H23 0.950 . S
C24 C25 1.377 1_455 S
C25 C24 1.377 1_655 S
C25 C26 1.413 . S
C26 C22 1.387 . S
C26 C25 1.413 . S
C26 H28 0.951 . S
C27 C22 1.491 . S
C27 C29 1.382 . S
C27 C31 1.404 . S
H28 C26 0.951 . S
C29 C27 1.382 . S
C29 C30 1.390 . S
C29 H34 0.949 1_655 S
C30 C29 1.390 . S
C30 C35 1.399 . S
C31 C27 1.404 . S
C31 H32 0.950 . S
C31 C33 1.375 . S
H32 C31 0.950 . S
C33 C31 1.375 . S
C33 C35 1.382 . S
C33 H37 0.950 . S
H34 C29 0.949 1_455 S
C35 C30 1.399 . S
C35 C33 1.382 . S
C35 H36 0.952 . S
H36 C35 0.952 . S
H37 C33 0.950 . S
H38 C39 0.949 . S
C39 H38 0.949 . S
C39 C40 1.395 . S
C39 C41 1.391 . S
C40 C39 1.395 . S
C40 C43 1.390 1_565 S
C41 C39 1.391 . S
C41 C45 1.387 . S
C41 C46 1.491 . S
H42 C43 0.950 . S
C43 C40 1.390 1_545 S
C43 H42 0.950 . S
C43 C44 1.377 1_545 S
C44 C43 1.377 1_565 S
C44 C45 1.413 . S
C45 C41 1.387 . S
C45 C44 1.413 . S
C45 H47 0.951 . S
C46 C41 1.491 . S
C46 C48 1.382 . S
C46 C50 1.404 . S
H47 C45 0.951 . S
C48 C46 1.382 . S
C48 C49 1.390 . S
C48 H53 0.949 1_565 S
C49 C48 1.390 . S
C49 C54 1.399 . S
C50 C46 1.404 . S
C50 H51 0.950 . S
C50 C52 1.375 . S
H51 C50 0.950 . S
C52 C50 1.375 . S
C52 C54 1.382 . S
C52 H56 0.950 . S
H53 C48 0.949 1_545 S
C54 C49 1.399 . S
C54 C52 1.382 . S
C54 H55 0.952 . S
H55 C54 0.952 . S
H56 C52 0.950 . S
H57 C58 0.949 . S
C58 H57 0.949 . S
C58 C59 1.395 . S
C58 C60 1.391 . S
C59 C58 1.395 . S
C59 C62 1.390 . S
C60 C58 1.391 . S
C60 C64 1.387 . S
C60 C65 1.491 . S
H61 C62 0.950 . S
C62 C59 1.390 . S
C62 H61 0.950 . S
C62 C63 1.378 . S
C63 C62 1.378 . S
C63 C64 1.409 . S
C64 C60 1.387 . S
C64 C63 1.409 . S
C64 H66 0.951 . S
C65 C60 1.491 . S
C65 C67 1.382 . S
C65 C69 1.404 . S
H66 C64 0.951 . S
C67 C65 1.382 . S
C67 C68 1.390 . S
C67 H72 0.949 . S
C68 C67 1.390 . S
C68 C73 1.399 . S
C69 C65 1.404 . S
C69 H70 0.950 . S
C69 C71 1.375 . S
H70 C69 0.950 . S
C71 C69 1.375 . S
C71 C73 1.382 . S
C71 H75 0.950 . S
H72 C67 0.949 . S
C73 C68 1.399 . S
C73 C71 1.382 . S
C73 H74 0.952 . S
H74 C73 0.952 . S
H75 C71 0.950 . S
H76 C77 0.949 . S
C77 H76 0.949 . S
C77 C78 1.395 . S
C77 C79 1.391 1_554 S
C78 C77 1.395 . S
C78 C81 1.390 1_554 S
C79 C77 1.391 1_556 S
C79 C83 1.387 . S
C79 C84 1.491 . S
H80 C81 0.950 . S
C81 C78 1.390 1_556 S
C81 H80 0.950 . S
C81 C82 1.378 . S
C82 C81 1.378 . S
C82 C83 1.409 . S
C83 C79 1.387 . S
C83 C82 1.409 . S
C83 H85 0.951 . S
C84 C79 1.491 . S
C84 C86 1.380 1_556 S
C84 C88 1.406 . S
H85 C83 0.951 . S
C86 C84 1.380 1_554 S
C86 C87 1.390 . S
C86 H91 0.949 . S
C87 C86 1.390 . S
C87 C92 1.399 . S
C88 C84 1.406 . S
C88 H89 0.950 . S
C88 C90 1.375 . S
H89 C88 0.950 . S
C90 C88 1.375 . S
C90 C92 1.382 1_556 S
C90 H94 0.950 . S
H91 C86 0.949 . S
C92 C87 1.399 . S
C92 C90 1.382 1_554 S
C92 H93 0.952 . S
H93 C92 0.952 . S
H94 C90 0.950 . S
H95 C96 0.949 . S
C96 H95 0.949 . S
C96 C97 1.394 . S
C96 C98 1.394 . S
C97 C96 1.394 . S
C97 C100 1.390 1_654 S
C98 C96 1.394 . S
C98 C102 1.384 1_554 S
C98 C103 1.491 . S
H99 C100 0.950 . S
C100 C97 1.390 1_456 S
C100 H99 0.950 . S
C100 C101 1.377 1_455 S
C101 C100 1.377 1_655 S
C101 C102 1.411 . S
C102 C98 1.384 1_556 S
C102 C101 1.411 . S
C102 H104 0.951 . S
C103 C98 1.491 . S
C103 C105 1.382 . S
C103 C107 1.404 1_554 S
H104 C102 0.951 . S
C105 C103 1.382 . S
C105 C106 1.390 . S
C105 H110 0.949 1_655 S
C106 C105 1.390 . S
C106 C111 1.399 . S
C107 C103 1.404 1_556 S
C107 H108 0.950 . S
C107 C109 1.375 . S
H108 C107 0.950 . S
C109 C107 1.375 . S
C109 C111 1.382 1_556 S
C109 H113 0.950 . S
H110 C105 0.949 1_455 S
C111 C106 1.399 . S
C111 C109 1.382 1_554 S
C111 H112 0.952 . S
H112 C111 0.952 . S
H113 C109 0.950 . S
H114 C115 0.949 . S
C115 H114 0.949 . S
C115 C116 1.394 . S
C115 C117 1.391 1_554 S
C116 C115 1.394 . S
C116 C119 1.390 1_564 S
C117 C115 1.391 1_556 S
C117 C121 1.387 . S
C117 C122 1.491 1_556 S
H118 C119 0.950 . S
C119 C116 1.390 1_546 S
C119 H118 0.950 . S
C119 C120 1.377 1_545 S
C120 C119 1.377 1_565 S
C120 C121 1.411 . S
C121 C117 1.387 . S
C121 C120 1.411 . S
C121 H123 0.951 . S
C122 C117 1.491 1_554 S
C122 C124 1.382 . S
C122 C126 1.404 1_554 S
H123 C121 0.951 . S
C124 C122 1.382 . S
C124 C125 1.390 . S
C124 H129 0.949 1_565 S
C125 C124 1.390 . S
C125 C130 1.399 . S
C126 C122 1.404 1_556 S
C126 H127 0.950 . S
C126 C128 1.375 . S
H127 C126 0.950 . S
C128 C126 1.375 . S
C128 C130 1.382 1_556 S
C128 H132 0.950 . S
H129 C124 0.949 1_545 S
C130 C125 1.399 . S
C130 C128 1.382 1_554 S
C130 H131 0.952 . S
H131 C130 0.952 . S
H132 C128 0.950 . S
H133 C134 0.949 . S
C134 H133 0.949 . S
C134 C135 1.395 . S
C134 C136 1.391 1_554 S
C135 C134 1.395 . S
C135 C138 1.390 1_554 S
C136 C134 1.391 1_556 S
C136 C140 1.387 . S
C136 C141 1.491 . S
H137 C138 0.950 . S
C138 C135 1.390 1_556 S
C138 H137 0.950 . S
C138 C139 1.378 . S
C139 C138 1.378 . S
C139 C140 1.409 . S
C140 C136 1.387 . S
C140 C139 1.409 . S
C140 H142 0.951 . S
C141 C136 1.491 . S
C141 C143 1.382 1_556 S
C141 C145 1.404 . S
H142 C140 0.951 . S
C143 C141 1.382 1_554 S
C143 C144 1.390 . S
C143 H148 0.949 . S
C144 C143 1.390 . S
C144 C149 1.399 . S
C145 C141 1.404 . S
C145 H146 0.950 . S
C145 C147 1.375 . S
H146 C145 0.950 . S
C147 C145 1.375 . S
C147 C149 1.382 1_556 S
C147 H151 0.950 . S
H148 C143 0.949 . S
C149 C144 1.399 . S
C149 C147 1.382 1_554 S
C149 H150 0.952 . S
H150 C149 0.952 . S
H151 C147 0.950 . S
Tb152 C162 2.825 1_556 S
Tb152 O163 2.347 1_455 S
Tb152 O166 2.366 . S
Tb152 O171 2.418 . S
Tb152 O172 2.384 1_565 S
Tb152 O175 2.479 1_556 S
Tb152 O176 2.471 1_556 S
Eu153 O164 2.418 . S
Eu153 O165 2.384 1_545 S
Eu153 O168 2.479 . S
Eu153 O169 2.471 . S
Eu153 O170 2.347 1_655 S
Eu153 O173 2.366 . S
Eu153 C183 2.825 . S
C154 O170 1.259 1_565 S
C154 O171 1.265 . S
C155 O172 1.255 . S
C155 O173 1.265 1_455 S
C156 C158 1.380 . S
C156 C159 1.374 . S
C156 C162 1.507 . S
C157 C158 1.384 . S
C157 C161 1.387 . S
C157 H184 0.930 . S
C158 C156 1.380 . S
C158 C157 1.384 . S
C158 H185 0.931 . S
C159 C156 1.374 . S
C159 C160 1.390 . S
C159 H186 0.930 1_455 S
C160 C159 1.390 . S
C160 C161 1.391 . S
C160 H187 0.930 1_455 S
C161 C157 1.387 . S
C161 C160 1.391 . S
C162 Tb152 2.825 1_554 S
C162 C156 1.507 . S
C162 O175 1.238 . S
C162 O176 1.247 . S
O163 Tb152 2.347 1_655 S
O163 C167 1.259 1_565 S
O164 Eu153 2.418 . S
O164 C167 1.265 . S
O165 Eu153 2.384 1_565 S
O165 C174 1.255 . S
O166 Tb152 2.366 . S
O166 C174 1.265 1_455 S
C167 O163 1.259 1_545 S
C167 O164 1.265 . S
O168 Eu153 2.479 . S
O168 C183 1.238 . S
O169 Eu153 2.471 . S
O169 C183 1.247 . S
O170 Eu153 2.347 1_455 S
O170 C154 1.259 1_545 S
O171 Tb152 2.418 . S
O171 C154 1.265 . S
O172 Tb152 2.384 1_545 S
O172 C155 1.255 . S
O173 Eu153 2.366 . S
O173 C155 1.265 1_655 S
C174 O165 1.255 . S
C174 O166 1.265 1_655 S
O175 Tb152 2.479 1_554 S
O175 C162 1.238 . S
O176 Tb152 2.471 1_554 S
O176 C162 1.247 . S
C177 C180 1.380 . S
C177 C181 1.374 . S
C177 C183 1.507 . S
C178 C179 1.387 . S
C178 C182 1.391 . S
C179 C178 1.387 . S
C179 C180 1.384 . S
C179 H188 0.930 . S
C180 C177 1.380 . S
C180 C179 1.384 . S
C180 H189 0.931 . S
C181 C177 1.374 . S
C181 C182 1.390 . S
C181 H190 0.930 1_655 S
C182 C178 1.391 . S
C182 C181 1.390 . S
C182 H191 0.930 1_655 S
C183 Eu153 2.825 . S
C183 O168 1.238 . S
C183 O169 1.247 . S
C183 C177 1.507 . S
H184 C157 0.930 . S
H185 C158 0.931 . S
H186 C159 0.930 1_655 S
H187 C160 0.930 1_655 S
H188 C179 0.930 . S
H189 C180 0.931 . S
H190 C181 0.930 1_455 S
H191 C182 0.930 1_455 S
Tb192 C202 2.825 1_556 S
Tb192 O203 2.347 1_545 S
Tb192 O206 2.366 . S
Tb192 O211 2.418 . S
Tb192 O212 2.384 . S
Tb192 O215 2.479 1_556 S
Tb192 O216 2.471 1_556 S
Eu193 O204 2.418 . S
Eu193 O205 2.384 . S
Eu193 O208 2.479 . S
Eu193 O209 2.471 . S
Eu193 O210 2.347 1_565 S
Eu193 O213 2.366 . S
Eu193 C223 2.825 . S
C194 O210 1.259 . S
C194 O211 1.265 . S
C195 O212 1.255 . S
C195 O213 1.265 1_545 S
C196 C198 1.380 . S
C196 C199 1.374 . S
C196 C202 1.507 . S
C197 C198 1.384 . S
C197 C201 1.387 . S
C197 H224 0.930 . S
C198 C196 1.380 . S
C198 C197 1.384 . S
C198 H225 0.931 . S
C199 C196 1.374 . S
C199 C200 1.390 . S
C199 H226 0.930 1_545 S
C200 C199 1.390 . S
C200 C201 1.391 . S
C200 H227 0.930 1_545 S
C201 C197 1.387 . S
C201 C200 1.391 . S
C202 Tb192 2.825 1_554 S
C202 C196 1.507 . S
C202 O215 1.238 . S
C202 O216 1.247 . S
O203 Tb192 2.347 1_565 S
O203 C207 1.259 . S
O204 Eu193 2.418 . S
O204 C207 1.265 . S
O205 Eu193 2.384 . S
O205 C214 1.255 . S
O206 Tb192 2.366 . S
O206 C214 1.265 1_545 S
C207 O203 1.259 . S
C207 O204 1.265 . S
O208 Eu193 2.479 . S
O208 C223 1.238 . S
O209 Eu193 2.471 . S
O209 C223 1.247 . S
O210 Eu193 2.347 1_545 S
O210 C194 1.259 . S
O211 Tb192 2.418 . S
O211 C194 1.265 . S
O212 Tb192 2.384 . S
O212 C195 1.255 . S
O213 Eu193 2.366 . S
O213 C195 1.265 1_565 S
C214 O205 1.255 . S
C214 O206 1.265 1_565 S
O215 Tb192 2.479 1_554 S
O215 C202 1.238 . S
O216 Tb192 2.471 1_554 S
O216 C202 1.247 . S
C217 C220 1.380 . S
C217 C221 1.374 . S
C217 C223 1.507 . S
C218 C219 1.387 . S
C218 C222 1.391 . S
C219 C218 1.387 . S
C219 C220 1.384 . S
C219 H228 0.930 . S
C220 C217 1.380 . S
C220 C219 1.384 . S
C220 H229 0.931 . S
C221 C217 1.374 . S
C221 C222 1.390 . S
C221 H230 0.930 1_565 S
C222 C218 1.391 . S
C222 C221 1.390 . S
C222 H231 0.930 1_565 S
C223 Eu193 2.825 . S
C223 O208 1.238 . S
C223 O209 1.247 . S
C223 C217 1.507 . S
H224 C197 0.930 . S
H225 C198 0.931 . S
H226 C199 0.930 1_565 S
H227 C200 0.930 1_565 S
H228 C219 0.930 . S
H229 C220 0.931 . S
H230 C221 0.930 1_545 S
H231 C222 0.930 1_545 S
Tb232 C242 2.825 1_556 S
Tb232 O243 2.347 . S
Tb232 O246 2.366 . S
Tb232 O251 2.418 . S
Tb232 O252 2.384 . S
Tb232 O255 2.479 1_556 S
Tb232 O256 2.471 1_556 S
Eu233 O244 2.418 . S
Eu233 O245 2.384 . S
Eu233 O248 2.479 . S
Eu233 O249 2.471 . S
Eu233 O250 2.347 . S
Eu233 O253 2.366 . S
Eu233 C263 2.825 . S
C234 O250 1.259 . S
C234 O251 1.265 . S
C235 O252 1.255 . S
C235 O253 1.265 . S
C236 C238 1.380 . S
C236 C239 1.374 . S
C236 C242 1.507 . S
C237 C238 1.384 . S
C237 C241 1.387 . S
C237 H264 0.930 . S
C238 C236 1.380 . S
C238 C237 1.384 . S
C238 H265 0.931 . S
C239 C236 1.374 . S
C239 C240 1.390 . S
C239 H266 0.930 . S
C240 C239 1.390 . S
C240 C241 1.391 . S
C240 H267 0.930 . S
C241 C237 1.387 . S
C241 C240 1.391 . S
C242 Tb232 2.825 1_554 S
C242 C236 1.507 . S
C242 O255 1.238 . S
C242 O256 1.247 . S
O243 Tb232 2.347 . S
O243 C247 1.259 . S
O244 Eu233 2.418 . S
O244 C247 1.265 . S
O245 Eu233 2.384 . S
O245 C254 1.255 . S
O246 Tb232 2.366 . S
O246 C254 1.265 . S
C247 O243 1.259 . S
C247 O244 1.265 . S
O248 Eu233 2.479 . S
O248 C263 1.238 . S
O249 Eu233 2.471 . S
O249 C263 1.247 . S
O250 Eu233 2.347 . S
O250 C234 1.259 . S
O251 Tb232 2.418 . S
O251 C234 1.265 . S
O252 Tb232 2.384 . S
O252 C235 1.255 . S
O253 Eu233 2.366 . S
O253 C235 1.265 . S
C254 O245 1.255 . S
C254 O246 1.265 . S
O255 Tb232 2.479 1_554 S
O255 C242 1.238 . S
O256 Tb232 2.471 1_554 S
O256 C242 1.247 . S
C257 C260 1.380 . S
C257 C261 1.374 . S
C257 C263 1.507 . S
C258 C259 1.387 . S
C258 C262 1.391 . S
C259 C258 1.387 . S
C259 C260 1.384 . S
C259 H268 0.930 . S
C260 C257 1.380 . S
C260 C259 1.384 . S
C260 H269 0.931 . S
C261 C257 1.374 . S
C261 C262 1.390 . S
C261 H270 0.930 . S
C262 C258 1.391 . S
C262 C261 1.390 . S
C262 H271 0.930 . S
C263 Eu233 2.825 . S
C263 O248 1.238 . S
C263 O249 1.247 . S
C263 C257 1.507 . S
H264 C237 0.930 . S
H265 C238 0.931 . S
H266 C239 0.930 . S
H267 C240 0.930 . S
H268 C259 0.930 . S
H269 C260 0.931 . S
H270 C261 0.930 . S
H271 C262 0.930 . S
Tb272 C282 2.825 1_556 S
Tb272 O283 2.347 . S
Tb272 O286 2.366 . S
Tb272 O291 2.418 . S
Tb272 O292 2.384 1_655 S
Tb272 O295 2.479 1_556 S
Tb272 O296 2.471 1_556 S
Eu273 O284 2.418 . S
Eu273 O285 2.384 1_455 S
Eu273 O288 2.479 . S
Eu273 O289 2.471 . S
Eu273 O290 2.347 . S
Eu273 O293 2.366 . S
Eu273 C303 2.825 . S
C274 O290 1.259 1_655 S
C274 O291 1.265 . S
C275 O292 1.255 . S
C275 O293 1.265 . S
C276 C278 1.380 . S
C276 C279 1.374 . S
C276 C282 1.507 . S
C277 C278 1.384 . S
C277 C281 1.387 . S
C277 H304 0.930 . S
C278 C276 1.380 . S
C278 C277 1.384 . S
C278 H305 0.931 . S
C279 C276 1.374 . S
C279 C280 1.390 . S
C279 H306 0.930 . S
C280 C279 1.390 . S
C280 C281 1.391 . S
C280 H307 0.930 . S
C281 C277 1.387 . S
C281 C280 1.391 . S
C282 Tb272 2.825 1_554 S
C282 C276 1.507 . S
C282 O295 1.238 . S
C282 O296 1.247 . S
O283 Tb272 2.347 . S
O283 C287 1.259 1_655 S
O284 Eu273 2.418 . S
O284 C287 1.265 . S
O285 Eu273 2.384 1_655 S
O285 C294 1.255 . S
O286 Tb272 2.366 . S
O286 C294 1.265 . S
C287 O283 1.259 1_455 S
C287 O284 1.265 . S
O288 Eu273 2.479 . S
O288 C303 1.238 . S
O289 Eu273 2.471 . S
O289 C303 1.247 . S
O290 Eu273 2.347 . S
O290 C274 1.259 1_455 S
O291 Tb272 2.418 . S
O291 C274 1.265 . S
O292 Tb272 2.384 1_455 S
O292 C275 1.255 . S
O293 Eu273 2.366 . S
O293 C275 1.265 . S
C294 O285 1.255 . S
C294 O286 1.265 . S
O295 Tb272 2.479 1_554 S
O295 C282 1.238 . S
O296 Tb272 2.471 1_554 S
O296 C282 1.247 . S
C297 C300 1.380 . S
C297 C301 1.374 . S
C297 C303 1.507 . S
C298 C299 1.387 . S
C298 C302 1.391 . S
C299 C298 1.387 . S
C299 C300 1.384 . S
C299 H308 0.930 . S
C300 C297 1.380 . S
C300 C299 1.384 . S
C300 H309 0.931 . S
C301 C297 1.374 . S
C301 C302 1.390 . S
C301 H310 0.930 . S
C302 C298 1.391 . S
C302 C301 1.390 . S
C302 H311 0.930 . S
C303 Eu273 2.825 . S
C303 O288 1.238 . S
C303 O289 1.247 . S
C303 C297 1.507 . S
H304 C277 0.930 . S
H305 C278 0.931 . S
H306 C279 0.930 . S
H307 C280 0.930 . S
H308 C299 0.930 . S
H309 C300 0.931 . S
H310 C301 0.930 . S
H311 C302 0.930 . S
C312 C313 1.365 1_565 S
C312 C318 1.379 . S
C312 N320 1.356 . S
C313 C312 1.365 1_545 S
C313 C319 1.361 . S
C314 C315 1.364 1_545 S
C314 C319 1.379 . S
C314 N321 1.356 . S
C315 C314 1.364 1_565 S
C315 C318 1.362 . S
N316 C318 1.356 . S
N316 H328 0.984 . S
N316 H329 0.985 . S
N317 C319 1.356 . S
N317 H322 0.984 . S
N317 H323 0.985 . S
C318 C312 1.379 . S
C318 C315 1.362 . S
C318 N316 1.356 . S
C319 C313 1.361 . S
C319 C314 1.379 . S
C319 N317 1.356 . S
N320 C312 1.356 . S
N320 H326 0.984 . S
N320 H327 0.984 . S
N321 C314 1.356 . S
N321 H324 0.984 . S
N321 H325 0.985 . S
H322 N317 0.984 . S
H323 N317 0.985 . S
H324 N321 0.984 . S
H325 N321 0.985 . S
H326 N320 0.984 . S
H327 N320 0.984 . S
H328 N316 0.984 . S
H329 N316 0.985 . S
C330 C331 1.363 . S
C330 C336 1.379 . S
C330 N338 1.356 . S
C331 C330 1.363 . S
C331 C337 1.363 . S
C332 C333 1.363 . S
C332 C337 1.379 . S
C332 N339 1.356 . S
C333 C332 1.363 . S
C333 C336 1.363 . S
N334 C336 1.356 . S
N334 H346 0.984 . S
N334 H347 0.985 . S
N335 C337 1.356 . S
N335 H340 0.984 . S
N335 H341 0.985 . S
C336 C330 1.379 . S
C336 C333 1.363 . S
C336 N334 1.356 . S
C337 C331 1.363 . S
C337 C332 1.379 . S
C337 N335 1.356 . S
N338 C330 1.356 . S
N338 H344 0.984 . S
N338 H345 0.984 . S
N339 C332 1.356 . S
N339 H342 0.984 . S
N339 H343 0.985 . S
H340 N335 0.984 . S
H341 N335 0.985 . S
H342 N339 0.984 . S
H343 N339 0.985 . S
H344 N338 0.984 . S
H345 N338 0.984 . S
H346 N334 0.984 . S
H347 N334 0.985 . S
C348 C349 1.363 . S
C348 C354 1.379 . S
C348 N356 1.356 . S
C349 C348 1.363 . S
C349 C355 1.363 . S
C350 C351 1.363 . S
C350 C355 1.379 . S
C350 N357 1.356 . S
C351 C350 1.363 . S
C351 C354 1.363 . S
N352 C354 1.356 . S
N352 H364 0.984 . S
N352 H365 0.985 . S
N353 C355 1.356 . S
N353 H358 0.984 . S
N353 H359 0.985 . S
C354 C348 1.379 . S
C354 C351 1.363 . S
C354 N352 1.356 . S
C355 C349 1.363 . S
C355 C350 1.379 . S
C355 N353 1.356 . S
N356 C348 1.356 . S
N356 H362 0.984 . S
N356 H363 0.984 . S
N357 C350 1.356 . S
N357 H360 0.984 . S
N357 H361 0.985 . S
H358 N353 0.984 . S
H359 N353 0.985 . S
H360 N357 0.984 . S
H361 N357 0.985 . S
H362 N356 0.984 . S
H363 N356 0.984 . S
H364 N352 0.984 . S
H365 N352 0.985 . S
C366 C367 1.372 . S
C366 C372 1.379 . S
C366 N374 1.356 . S
C367 C366 1.372 . S
C367 C373 1.354 1_455 S
C368 C369 1.337 1_655 S
C368 C373 1.379 . S
C368 N375 1.356 . S
C369 C368 1.337 1_455 S
C369 C372 1.389 . S
N370 C372 1.356 . S
N370 H382 0.984 . S
N370 H383 0.985 . S
N371 C373 1.356 . S
N371 H376 0.984 . S
N371 H377 0.985 . S
C372 C366 1.379 . S
C372 C369 1.389 . S
C372 N370 1.356 . S
C373 C367 1.354 1_655 S
C373 C368 1.379 . S
C373 N371 1.356 . S
N374 C366 1.356 . S
N374 H380 0.984 . S
N374 H381 0.984 . S
N375 C368 1.356 . S
N375 H378 0.984 . S
N375 H379 0.985 . S
H376 N371 0.984 . S
H377 N371 0.985 . S
H378 N375 0.984 . S
H379 N375 0.985 . S
H380 N374 0.984 . S
H381 N374 0.984 . S
H382 N370 0.984 . S
H383 N370 0.985 . S
C384 C385 1.365 . S
C384 C390 1.379 . S
C384 N392 1.356 . S
C385 C384 1.365 . S
C385 C391 1.361 1_545 S
C386 C387 1.358 1_565 S
C386 C391 1.379 . S
C386 N393 1.356 . S
C387 C386 1.358 1_545 S
C387 C390 1.368 . S
N388 C390 1.356 1_556 S
N388 H400 0.984 . S
N388 H401 0.985 . S
N389 C391 1.356 . S
N389 H394 0.984 . S
N389 H395 0.985 . S
C390 C384 1.379 . S
C390 C387 1.368 . S
C390 N388 1.356 1_554 S
C391 C385 1.361 1_565 S
C391 C386 1.379 . S
C391 N389 1.356 . S
N392 C384 1.356 . S
N392 H398 0.984 . S
N392 H399 0.984 . S
N393 C386 1.356 . S
N393 H396 0.984 . S
N393 H397 0.985 . S
H394 N389 0.984 . S
H395 N389 0.985 . S
H396 N393 0.984 . S
H397 N393 0.985 . S
H398 N392 0.984 . S
H399 N392 0.984 . S
H400 N388 0.984 . S
H401 N388 0.985 . S
C402 C403 1.363 . S
C402 C408 1.379 . S
C402 N410 1.356 . S
C403 C402 1.363 . S
C403 C409 1.363 . S
C404 C405 1.363 . S
C404 C409 1.379 . S
C404 N411 1.356 . S
C405 C404 1.363 . S
C405 C408 1.363 . S
N406 C408 1.356 1_556 S
N406 H418 0.984 . S
N406 H419 0.985 . S
N407 C409 1.356 . S
N407 H412 0.984 . S
N407 H413 0.985 . S
C408 C402 1.379 . S
C408 C405 1.363 . S
C408 N406 1.356 1_554 S
C409 C403 1.363 . S
C409 C404 1.379 . S
C409 N407 1.356 . S
N410 C402 1.356 . S
N410 H416 0.984 . S
N410 H417 0.984 . S
N411 C404 1.356 . S
N411 H414 0.984 . S
N411 H415 0.985 . S
H412 N407 0.984 . S
H413 N407 0.985 . S
H414 N411 0.984 . S
H415 N411 0.985 . S
H416 N410 0.984 . S
H417 N410 0.984 . S
H418 N406 0.984 . S
H419 N406 0.985 . S
C420 C421 1.363 . S
C420 C426 1.379 . S
C420 N428 1.356 . S
C421 C420 1.363 . S
C421 C427 1.363 . S
C422 C423 1.363 . S
C422 C427 1.379 . S
C422 N429 1.356 . S
C423 C422 1.363 . S
C423 C426 1.363 . S
N424 C426 1.356 1_556 S
N424 H436 0.984 . S
N424 H437 0.985 . S
N425 C427 1.356 . S
N425 H430 0.984 . S
N425 H431 0.985 . S
C426 C420 1.379 . S
C426 C423 1.363 . S
C426 N424 1.356 1_554 S
C427 C421 1.363 . S
C427 C422 1.379 . S
C427 N425 1.356 . S
N428 C420 1.356 . S
N428 H434 0.984 . S
N428 H435 0.984 . S
N429 C422 1.356 . S
N429 H432 0.984 . S
N429 H433 0.985 . S
H430 N425 0.984 . S
H431 N425 0.985 . S
H432 N429 0.984 . S
H433 N429 0.985 . S
H434 N428 0.984 . S
H435 N428 0.984 . S
H436 N424 0.984 . S
H437 N424 0.985 . S
C438 C439 1.358 1_455 S
C438 C444 1.379 . S
C438 N446 1.356 . S
C439 C438 1.358 1_655 S
C439 C445 1.368 . S
C440 C441 1.377 . S
C440 C445 1.379 . S
C440 N447 1.356 1_554 S
C441 C440 1.377 . S
C441 C444 1.349 1_655 S
N442 C444 1.356 . S
N442 H454 0.984 . S
N442 H455 0.985 . S
N443 C445 1.356 . S
N443 H448 0.984 . S
N443 H449 0.985 . S
C444 C438 1.379 . S
C444 C441 1.349 1_455 S
C444 N442 1.356 . S
C445 C439 1.368 . S
C445 C440 1.379 . S
C445 N443 1.356 . S
N446 C438 1.356 . S
N446 H452 0.984 . S
N446 H453 0.984 . S
N447 C440 1.356 1_556 S
N447 H450 0.984 . S
N447 H451 0.985 . S
H448 N443 0.984 . S
H449 N443 0.985 . S
H450 N447 0.984 . S
H451 N447 0.985 . S
H452 N446 0.984 . S
H453 N446 0.984 . S
H454 N442 0.984 . S
H455 N442 0.985 . S
C456 C457 1.365 1_655 S
C456 C462 1.379 . S
C456 N464 1.356 . S
C457 C456 1.365 1_455 S
C457 C463 1.362 . S
C458 C459 1.363 . S
C458 C463 1.379 1_655 S
C458 N465 1.356 . S
C459 C458 1.363 . S
C459 C462 1.363 . S
N460 C462 1.356 . S
N460 H472 0.984 . S
N460 H473 0.985 . S
N461 C463 1.356 . S
N461 H466 0.984 . S
N461 H467 0.985 . S
C462 C456 1.379 . S
C462 C459 1.363 . S
C462 N460 1.356 . S
C463 C457 1.362 . S
C463 C458 1.379 1_455 S
C463 N461 1.356 . S
N464 C456 1.356 . S
N464 H470 0.984 1_554 S
N464 H471 0.984 . S
N465 C458 1.356 . S
N465 H468 0.984 . S
N465 H469 0.985 1_655 S
H466 N461 0.984 . S
H467 N461 0.985 . S
H468 N465 0.984 . S
H469 N465 0.985 1_455 S
H470 N464 0.984 1_556 S
H471 N464 0.984 . S
H472 N460 0.984 . S
H473 N460 0.985 . S
C474 C475 1.364 1_545 S
C474 C480 1.379 1_545 S
C474 N482 1.356 . S
C475 C474 1.364 1_565 S
C475 C481 1.360 . S
C476 C477 1.363 . S
C476 C481 1.379 . S
C476 N483 1.356 . S
C477 C476 1.363 . S
C477 C480 1.363 . S
N478 C480 1.356 . S
N478 H490 0.984 1_565 S
N478 H491 0.985 . S
N479 C481 1.356 . S
N479 H484 0.984 . S
N479 H485 0.985 . S
C480 C474 1.379 1_565 S
C480 C477 1.363 . S
C480 N478 1.356 . S
C481 C475 1.360 . S
C481 C476 1.379 . S
C481 N479 1.356 . S
N482 C474 1.356 . S
N482 H488 0.984 . S
N482 H489 0.984 . S
N483 C476 1.356 . S
N483 H486 0.984 . S
N483 H487 0.985 . S
H484 N479 0.984 . S
H485 N479 0.985 . S
H486 N483 0.984 . S
H487 N483 0.985 . S
H488 N482 0.984 . S
H489 N482 0.984 . S
H490 N478 0.984 1_545 S
H491 N478 0.985 . S
C492 C493 1.363 . S
C492 C498 1.379 . S
C492 N500 1.356 . S
C493 C492 1.363 . S
C493 C499 1.363 . S
C494 C495 1.363 . S
C494 C499 1.379 . S
C494 N501 1.356 . S
C495 C494 1.363 . S
C495 C498 1.363 . S
N496 C498 1.356 . S
N496 H508 0.984 . S
N496 H509 0.985 . S
N497 C499 1.356 . S
N497 H502 0.984 . S
N497 H503 0.985 . S
C498 C492 1.379 . S
C498 C495 1.363 . S
C498 N496 1.356 . S
C499 C493 1.363 . S
C499 C494 1.379 . S
C499 N497 1.356 . S
N500 C492 1.356 . S
N500 H506 0.984 . S
N500 H507 0.984 . S
N501 C494 1.356 . S
N501 H504 0.984 . S
N501 H505 0.985 . S
H502 N497 0.984 . S
H503 N497 0.985 . S
H504 N501 0.984 . S
H505 N501 0.985 . S
H506 N500 0.984 . S
H507 N500 0.984 . S
H508 N496 0.984 . S
H509 N496 0.985 . S
C510 C511 1.363 . S
C510 C516 1.379 . S
C510 N518 1.356 . S
C511 C510 1.363 . S
C511 C517 1.363 . S
C512 C513 1.363 . S
C512 C517 1.379 . S
C512 N519 1.356 . S
C513 C512 1.363 . S
C513 C516 1.363 . S
N514 C516 1.356 . S
N514 H526 0.984 . S
N514 H527 0.985 . S
N515 C517 1.356 . S
N515 H520 0.984 . S
N515 H521 0.985 . S
C516 C510 1.379 . S
C516 C513 1.363 . S
C516 N514 1.356 . S
C517 C511 1.363 . S
C517 C512 1.379 . S
C517 N515 1.356 . S
N518 C510 1.356 . S
N518 H524 0.984 . S
N518 H525 0.984 . S
N519 C512 1.356 . S
N519 H522 0.984 . S
N519 H523 0.985 . S
H520 N515 0.984 . S
H521 N515 0.985 . S
H522 N519 0.984 . S
H523 N519 0.985 . S
H524 N518 0.984 . S
H525 N518 0.984 . S
H526 N514 0.984 . S
H527 N514 0.985 . S
C528 C529 1.365 1_455 S
C528 C534 1.379 . S
C528 N536 1.356 . S
C529 C528 1.365 1_655 S
C529 C535 1.363 . S
C530 C531 1.363 . S
C530 C535 1.380 1_455 S
C530 N537 1.356 . S
C531 C530 1.363 . S
C531 C534 1.363 . S
N532 C534 1.356 . S
N532 H544 0.984 . S
N532 H545 0.985 . S
N533 C535 1.355 . S
N533 H538 0.984 . S
N533 H539 0.985 . S
C534 C528 1.379 . S
C534 C531 1.363 . S
C534 N532 1.356 . S
C535 C529 1.363 . S
C535 C530 1.380 1_655 S
C535 N533 1.355 . S
N536 C528 1.356 . S
N536 H542 0.984 . S
N536 H543 0.984 1_455 S
N537 C530 1.356 . S
N537 H540 0.984 . S
N537 H541 0.985 . S
H538 N533 0.984 . S
H539 N533 0.985 . S
H540 N537 0.984 . S
H541 N537 0.985 . S
H542 N536 0.984 . S
H543 N536 0.984 1_655 S
H544 N532 0.984 . S
H545 N532 0.985 . S
C546 C547 1.368 . S
C546 C552 1.379 . S
C546 N554 1.356 . S
C547 C546 1.368 . S
C547 C553 1.361 1_545 S
C548 C549 1.363 . S
C548 C553 1.379 1_545 S
C548 N555 1.351 1_545 S
C549 C548 1.363 . S
C549 C552 1.363 . S
N550 C552 1.356 . S
N550 H562 0.984 . S
N550 H563 0.985 . S
N551 C553 1.356 . S
N551 H556 0.984 . S
N551 H557 0.985 . S
C552 C546 1.379 . S
C552 C549 1.363 . S
C552 N550 1.356 . S
C553 C547 1.361 1_565 S
C553 C548 1.379 1_565 S
C553 N551 1.356 . S
N554 C546 1.356 . S
N554 H560 0.984 . S
N554 H561 0.984 . S
N555 C548 1.351 1_565 S
N555 H558 0.960 1_565 S
N555 H559 1.014 . S
H556 N551 0.984 . S
H557 N551 0.985 . S
H558 N555 0.960 1_545 S
H559 N555 1.014 . S
H560 N554 0.984 . S
H561 N554 0.984 . S
H562 N550 0.984 . S
H563 N550 0.985 . S
C564 C565 1.363 . S
C564 C570 1.379 . S
C564 N572 1.356 . S
C565 C564 1.363 . S
C565 C571 1.363 . S
C566 C567 1.363 . S
C566 C571 1.379 . S
C566 N573 1.356 . S
C567 C566 1.363 . S
C567 C570 1.363 . S
N568 C570 1.356 . S
N568 H580 0.984 . S
N568 H581 0.985 . S
N569 C571 1.356 . S
N569 H574 0.984 . S
N569 H575 0.985 . S
C570 C564 1.379 . S
C570 C567 1.363 . S
C570 N568 1.356 . S
C571 C565 1.363 . S
C571 C566 1.379 . S
C571 N569 1.356 . S
N572 C564 1.356 . S
N572 H578 0.984 . S
N572 H579 0.984 . S
N573 C566 1.356 . S
N573 H576 0.984 . S
N573 H577 0.985 . S
H574 N569 0.984 . S
H575 N569 0.985 . S
H576 N573 0.984 . S
H577 N573 0.985 . S
H578 N572 0.984 . S
H579 N572 0.984 . S
H580 N568 0.984 . S
H581 N568 0.985 . S
C582 C583 1.363 . S
C582 C588 1.379 . S
C582 N590 1.356 . S
C583 C582 1.363 . S
C583 C589 1.363 . S
C584 C585 1.363 . S
C584 C589 1.379 . S
C584 N591 1.356 . S
C585 C584 1.363 . S
C585 C588 1.363 . S
N586 C588 1.356 . S
N586 H598 0.984 . S
N586 H599 0.985 . S
N587 C589 1.356 . S
N587 H592 0.984 . S
N587 H593 0.985 . S
C588 C582 1.379 . S
C588 C585 1.363 . S
C588 N586 1.356 . S
C589 C583 1.363 . S
C589 C584 1.379 . S
C589 N587 1.356 . S
N590 C582 1.356 . S
N590 H596 0.984 . S
N590 H597 0.984 . S
N591 C584 1.356 . S
N591 H594 0.984 . S
N591 H595 0.985 . S
H592 N587 0.984 . S
H593 N587 0.985 . S
H594 N591 0.984 . S
H595 N591 0.985 . S
H596 N590 0.984 . S
H597 N590 0.984 . S
H598 N586 0.984 . S
H599 N586 0.985 . S
C600 C601 1.363 . S
C600 C606 1.379 . S
C600 N608 1.356 . S
C601 C600 1.363 . S
C601 C607 1.363 1_455 S
C602 C603 1.363 1_655 S
C602 C607 1.379 . S
C602 N609 1.356 . S
C603 C602 1.363 1_455 S
C603 C606 1.363 . S
N604 C606 1.356 1_554 S
N604 H616 0.984 . S
N604 H617 0.985 1_554 S
N605 C607 1.356 . S
N605 H610 0.984 . S
N605 H611 0.985 . S
C606 C600 1.379 . S
C606 C603 1.363 . S
C606 N604 1.356 1_556 S
C607 C601 1.363 1_655 S
C607 C602 1.379 . S
C607 N605 1.356 . S
N608 C600 1.356 . S
N608 H614 0.984 1_556 S
N608 H615 0.984 . S
N609 C602 1.356 . S
N609 H612 0.984 . S
N609 H613 0.985 . S
H610 N605 0.984 . S
H611 N605 0.985 . S
H612 N609 0.984 . S
H613 N609 0.985 . S
H614 N608 0.984 1_554 S
H615 N608 0.984 . S
H616 N604 0.984 . S
H617 N604 0.985 1_556 S
C618 C619 1.363 . S
C618 C624 1.379 . S
C618 N626 1.356 1_545 S
C619 C618 1.363 . S
C619 C625 1.363 . S
C620 C621 1.363 . S
C620 C625 1.379 . S
C620 N627 1.356 1_556 S
C621 C620 1.363 . S
C621 C624 1.363 . S
N622 C624 1.356 . S
N622 H634 0.984 1_545 S
N622 H635 0.985 . S
N623 C625 1.356 1_554 S
N623 H628 0.984 1_554 S
N623 H629 0.985 . S
C624 C618 1.379 . S
C624 C621 1.363 . S
C624 N622 1.356 . S
C625 C619 1.363 . S
C625 C620 1.379 . S
C625 N623 1.356 1_556 S
N626 C618 1.356 1_565 S
N626 H632 0.984 . S
N626 H633 0.984 . S
N627 C620 1.356 1_554 S
N627 H630 0.984 . S
N627 H631 0.985 . S
H628 N623 0.984 1_556 S
H629 N623 0.985 . S
H630 N627 0.984 . S
H631 N627 0.985 . S
H632 N626 0.984 . S
H633 N626 0.984 . S
H634 N622 0.984 1_565 S
H635 N622 0.985 . S
C636 C637 1.363 . S
C636 C642 1.379 . S
C636 N644 1.356 . S
C637 C636 1.363 . S
C637 C643 1.363 . S
C638 C639 1.363 . S
C638 C643 1.379 . S
C638 N645 1.356 . S
C639 C638 1.363 . S
C639 C642 1.363 . S
N640 C642 1.356 1_554 S
N640 H652 0.984 . S
N640 H653 0.985 . S
N641 C643 1.356 . S
N641 H646 0.984 . S
N641 H647 0.985 . S
C642 C636 1.379 . S
C642 C639 1.363 . S
C642 N640 1.356 1_556 S
C643 C637 1.363 . S
C643 C638 1.379 . S
C643 N641 1.356 . S
N644 C636 1.356 . S
N644 H650 0.984 1_556 S
N644 H651 0.984 . S
N645 C638 1.356 . S
N645 H648 0.984 . S
N645 H649 0.985 . S
H646 N641 0.984 . S
H647 N641 0.985 . S
H648 N645 0.984 . S
H649 N645 0.985 . S
H650 N644 0.984 1_554 S
H651 N644 0.984 . S
H652 N640 0.984 . S
H653 N640 0.985 . S
C654 C655 1.363 . S
C654 C660 1.379 . S
C654 N662 1.356 . S
C655 C654 1.363 . S
C655 C661 1.363 . S
C656 C657 1.363 . S
C656 C661 1.379 . S
C656 N663 1.356 1_556 S
C657 C656 1.363 . S
C657 C660 1.363 . S
N658 C660 1.356 . S
N658 H670 0.984 . S
N658 H671 0.985 . S
N659 C661 1.356 1_554 S
N659 H664 0.984 1_554 S
N659 H665 0.985 . S
C660 C654 1.379 . S
C660 C657 1.363 . S
C660 N658 1.356 . S
C661 C655 1.363 . S
C661 C656 1.379 . S
C661 N659 1.356 1_556 S
N662 C654 1.356 . S
N662 H668 0.984 . S
N662 H669 0.984 . S
N663 C656 1.356 1_554 S
N663 H666 0.984 . S
N663 H667 0.985 . S
H664 N659 0.984 1_556 S
H665 N659 0.985 . S
H666 N663 0.984 . S
H667 N663 0.985 . S
H668 N662 0.984 . S
H669 N662 0.984 . S
H670 N658 0.984 . S
H671 N658 0.985 . S
C672 C673 1.363 . S
C672 C678 1.379 . S
C672 N680 1.356 . S
C673 C672 1.363 . S
C673 C679 1.363 1_655 S
C674 C675 1.363 1_455 S
C674 C679 1.379 . S
C674 N681 1.356 . S
C675 C674 1.363 1_655 S
C675 C678 1.363 . S
N676 C678 1.356 . S
N676 H688 0.984 . S
N676 H689 0.985 . S
N677 C679 1.356 . S
N677 H682 0.984 . S
N677 H683 0.985 . S
C678 C672 1.379 . S
C678 C675 1.363 . S
C678 N676 1.356 . S
C679 C673 1.363 1_455 S
C679 C674 1.379 . S
C679 N677 1.356 . S
N680 C672 1.356 . S
N680 H686 0.984 . S
N680 H687 0.984 . S
N681 C674 1.356 . S
N681 H684 0.984 . S
N681 H685 0.985 . S
H682 N677 0.984 . S
H683 N677 0.985 . S
H684 N681 0.984 . S
H685 N681 0.985 . S
H686 N680 0.984 . S
H687 N680 0.984 . S
H688 N676 0.984 . S
H689 N676 0.985 . S
C690 C691 1.363 1_545 S
C690 C696 1.379 . S
C690 N698 1.356 . S
C691 C690 1.363 1_565 S
C691 C697 1.363 . S
C692 C693 1.363 . S
C692 C697 1.379 . S
C692 N699 1.356 . S
C693 C692 1.363 . S
C693 C696 1.363 1_565 S
N694 C696 1.356 . S
N694 H706 0.984 . S
N694 H707 0.985 . S
N695 C697 1.356 . S
N695 H700 0.984 . S
N695 H701 0.985 . S
C696 C690 1.379 . S
C696 C693 1.363 1_545 S
C696 N694 1.356 . S
C697 C691 1.363 . S
C697 C692 1.379 . S
C697 N695 1.356 . S
N698 C690 1.356 . S
N698 H704 0.984 . S
N698 H705 0.984 . S
N699 C692 1.356 . S
N699 H702 0.984 . S
N699 H703 0.985 . S
H700 N695 0.984 . S
H701 N695 0.985 . S
H702 N699 0.984 . S
H703 N699 0.985 . S
H704 N698 0.984 . S
H705 N698 0.984 . S
H706 N694 0.984 . S
H707 N694 0.985 . S
C708 C709 1.363 . S
C708 C714 1.379 . S
C708 N716 1.356 . S
C709 C708 1.363 . S
C709 C715 1.363 . S
C710 C711 1.363 . S
C710 C715 1.379 . S
C710 N717 1.356 . S
C711 C710 1.363 . S
C711 C714 1.363 . S
N712 C714 1.356 . S
N712 H724 0.984 . S
N712 H725 0.985 . S
N713 C715 1.356 . S
N713 H718 0.984 . S
N713 H719 0.985 . S
C714 C708 1.379 . S
C714 C711 1.363 . S
C714 N712 1.356 . S
C715 C709 1.363 . S
C715 C710 1.379 . S
C715 N713 1.356 . S
N716 C708 1.356 . S
N716 H722 0.984 . S
N716 H723 0.984 . S
N717 C710 1.356 . S
N717 H720 0.984 . S
N717 H721 0.985 . S
H718 N713 0.984 . S
H719 N713 0.985 . S
H720 N717 0.984 . S
H721 N717 0.985 . S
H722 N716 0.984 . S
H723 N716 0.984 . S
H724 N712 0.984 . S
H725 N712 0.985 . S
C726 C727 1.363 . S
C726 C732 1.379 . S
C726 N734 1.356 . S
C727 C726 1.363 . S
C727 C733 1.363 . S
C728 C729 1.363 . S
C728 C733 1.379 . S
C728 N735 1.356 . S
C729 C728 1.363 . S
C729 C732 1.363 . S
N730 C732 1.356 . S
N730 H742 0.984 . S
N730 H743 0.985 . S
N731 C733 1.356 . S
N731 H736 0.984 . S
N731 H737 0.985 . S
C732 C726 1.379 . S
C732 C729 1.363 . S
C732 N730 1.356 . S
C733 C727 1.363 . S
C733 C728 1.379 . S
C733 N731 1.356 . S
N734 C726 1.356 . S
N734 H740 0.984 . S
N734 H741 0.984 . S
N735 C728 1.356 . S
N735 H738 0.984 . S
N735 H739 0.985 . S
H736 N731 0.984 . S
H737 N731 0.985 . S
H738 N735 0.984 . S
H739 N735 0.985 . S
H740 N734 0.984 . S
H741 N734 0.984 . S
H742 N730 0.984 . S
H743 N730 0.985 . S
C313 C125 2.111 1_545 S
C315 C154 2.163 . S
C333 C194 2.178 . S
C331 C144 2.138 . S
C351 C234 2.186 . S
C349 C87 2.152 . S
C369 C274 2.172 1_455 S
C367 C106 2.120 1_455 S
C387 C167 2.165 1_554 S
C385 C49 2.115 1_545 S
C403 C68 2.112 . S
C405 C207 2.180 1_554 S
C421 C11 2.120 . S
C423 C247 2.186 1_554 S
C439 C30 2.121 . S
C441 C287 2.172 1_654 S
C459 C178 0.753 . S
C457 C97 0.751 1_455 S
C477 C218 0.758 . S
C475 C116 0.757 . S
C495 C258 0.755 . S
C493 C135 0.754 . S
C511 C78 0.748 . S
C513 C298 0.744 . S
C529 C21 0.753 . S
C531 C161 0.757 . S
C549 C201 0.759 . S
C547 C40 0.757 1_545 S
C567 C241 0.755 . S
C565 C59 0.754 . S
C583 C2 0.748 . S
C585 C281 0.752 . S
C601 C101 2.236 1_455 S
C603 C155 2.540 . S
C619 C120 2.203 1_545 S
C621 C195 2.513 . S
C639 C235 2.502 . S
C637 C139 2.193 . S
C657 C275 2.534 . S
C655 C82 2.221 . S
C673 C25 2.236 . S
C675 C174 2.549 . S
C693 C214 2.513 . S
C691 C44 2.202 . S
C711 C254 2.502 . S
C709 C63 2.188 . S
C727 C6 2.221 . S
C729 C294 2.538 . S
