# Generated by pormake.
# Topology zzz, (3,6)-cn, num edge types: 1
# Building blocks:
#     Node 0, Type 0, BuildingBlock: ESEHIV_clean_linker_0, # of connection points: 3
#     Node 1, Type 0, BuildingBlock: ESEHIV_clean_linker_0, # of connection points: 3
#     Node 2, Type 0, BuildingBlock: ESEHIV_clean_linker_0, # of connection points: 3
#     Node 3, Type 0, BuildingBlock: ESEHIV_clean_linker_0, # of connection points: 3
#     Node 4, Type 0, BuildingBlock: ESEHIV_clean_linker_0, # of connection points: 3
#     Node 5, Type 0, BuildingBlock: ESEHIV_clean_linker_0, # of connection points: 3
#     Node 6, Type 0, BuildingBlock: ESEHIV_clean_linker_0, # of connection points: 3
#     Node 7, Type 0, BuildingBlock: ESEHIV_clean_linker_0, # of connection points: 3
#     Node 8, Type 1, BuildingBlock: VOLQOD_clean_sbu_1, # of connection points: 6
#     Node 9, Type 1, BuildingBlock: VOLQOD_clean_sbu_1, # of connection points: 6
#     Node 10, Type 1, BuildingBlock: VOLQOD_clean_sbu_1, # of connection points: 6
#     Node 11, Type 1, BuildingBlock: VOLQOD_clean_sbu_1, # of connection points: 6
#     Edge 12, Type (0, 1), BuildingBlock: OJICUG_clean_linker_0, # of connection points: 2
#     Edge 13, Type (0, 1), BuildingBlock: OJICUG_clean_linker_0, # of connection points: 2
#     Edge 14, Type (0, 1), BuildingBlock: OJICUG_clean_linker_0, # of connection points: 2
#     Edge 15, Type (0, 1), BuildingBlock: OJICUG_clean_linker_0, # of connection points: 2
#     Edge 16, Type (0, 1), BuildingBlock: OJICUG_clean_linker_0, # of connection points: 2
#     Edge 17, Type (0, 1), BuildingBlock: OJICUG_clean_linker_0, # of connection points: 2
#     Edge 18, Type (0, 1), BuildingBlock: OJICUG_clean_linker_0, # of connection points: 2
#     Edge 19, Type (0, 1), BuildingBlock: OJICUG_clean_linker_0, # of connection points: 2
#     Edge 20, Type (0, 1), BuildingBlock: OJICUG_clean_linker_0, # of connection points: 2
#     Edge 21, Type (0, 1), BuildingBlock: OJICUG_clean_linker_0, # of connection points: 2
#     Edge 22, Type (0, 1), BuildingBlock: OJICUG_clean_linker_0, # of connection points: 2
#     Edge 23, Type (0, 1), BuildingBlock: OJICUG_clean_linker_0, # of connection points: 2
#     Edge 24, Type (0, 1), BuildingBlock: OJICUG_clean_linker_0, # of connection points: 2
#     Edge 25, Type (0, 1), BuildingBlock: OJICUG_clean_linker_0, # of connection points: 2
#     Edge 26, Type (0, 1), BuildingBlock: OJICUG_clean_linker_0, # of connection points: 2
#     Edge 27, Type (0, 1), BuildingBlock: OJICUG_clean_linker_0, # of connection points: 2
#     Edge 28, Type (0, 1), BuildingBlock: OJICUG_clean_linker_0, # of connection points: 2
#     Edge 29, Type (0, 1), BuildingBlock: OJICUG_clean_linker_0, # of connection points: 2
#     Edge 30, Type (0, 1), BuildingBlock: OJICUG_clean_linker_0, # of connection points: 2
#     Edge 31, Type (0, 1), BuildingBlock: OJICUG_clean_linker_0, # of connection points: 2
#     Edge 32, Type (0, 1), BuildingBlock: OJICUG_clean_linker_0, # of connection points: 2
#     Edge 33, Type (0, 1), BuildingBlock: OJICUG_clean_linker_0, # of connection points: 2
#     Edge 34, Type (0, 1), BuildingBlock: OJICUG_clean_linker_0, # of connection points: 2
#     Edge 35, Type (0, 1), BuildingBlock: OJICUG_clean_linker_0, # of connection points: 2
# Relax obj value: 0.358
# Max RMSD: 0.258
# Mean RMSD: 0.208
data_MOF--net-zzz--node1-VOLQOD_clean_sbu_1--node2-ESEHIV_clean_linker_0--edge1-OJICUG_clean_linker_0
_symmetry_space_group_name_H-M    P1
_symmetry_Int_Tables_number       1
_symmetry_cell_setting            triclinic
loop_
_symmetry_equiv_pos_as_xyz
'x, y, z'
_cell_length_a     32.288811
_cell_length_b     31.846631
_cell_length_c     12.824193
_cell_angle_alpha  90.227758
_cell_angle_beta   89.993541
_cell_angle_gamma 92.390561
loop_
_atom_site_label
_atom_site_type_symbol
_atom_site_fract_x
_atom_site_fract_y
_atom_site_fract_z
_atom_type_partial_charge
H0 H 0.88055 0.49294 0.22287 0.0
H1 H 0.77903 0.44596 0.03383 0.0
H2 H 0.76126 0.54593 0.25496 0.0
C3 C 0.84815 0.49258 0.20092 0.0
C4 C 0.82254 0.52089 0.25059 0.0
C5 C 0.83318 0.46552 0.12193 0.0
C6 C 0.79119 0.46658 0.09483 0.0
C7 C 0.76526 0.49624 0.13937 0.0
C8 C 0.78095 0.52328 0.21895 0.0
H9 H 0.06722 0.84672 0.30014 0.0
H10 H 0.07938 0.78128 0.00898 0.0
H11 H 0.00698 0.72527 0.25773 0.0
C12 C 0.06178 0.81892 0.25214 0.0
C13 C 0.03565 0.78632 0.29034 0.0
C14 C 0.07513 0.81913 0.14825 0.0
C15 C 0.0686 0.78218 0.08881 0.0
C16 C 0.04571 0.74715 0.12901 0.0
C17 C 0.02798 0.75007 0.22933 0.0
H18 H 0.67387 0.05021 0.26721 0.0
H19 H 0.74124 0.06175 0.97842 0.0
H20 H 0.78536 0.98399 0.22407 0.0
C21 C 0.70004 0.04331 0.21817 0.0
C22 C 0.7281 0.01442 0.25462 0.0
C23 C 0.70224 0.05847 0.11581 0.0
C24 C 0.73833 0.0508 0.05788 0.0
C25 C 0.76993 0.02618 0.09831 0.0
C26 C 0.76341 0.00598 0.19517 0.0
H27 H 0.50463 0.64594 0.21983 0.0
H28 H 0.55112 0.77353 0.24561 0.0
H29 H 0.45487 0.74061 0.02377 0.0
C30 C 0.50232 0.67847 0.19706 0.0
C31 C 0.47623 0.68906 0.11464 0.0
C32 C 0.52864 0.7087 0.24587 0.0
C33 C 0.52932 0.75056 0.21169 0.0
C34 C 0.50262 0.76213 0.1307 0.0
C35 C 0.475 0.7316 0.08661 0.0
H36 H 0.19592 0.54592 0.1452 0.0
H37 H 0.29686 0.57344 0.35726 0.0
H38 H 0.30682 0.47731 0.12321 0.0
C39 C 0.22754 0.5422 0.17057 0.0
C40 C 0.25049 0.51164 0.12027 0.0
C41 C 0.24291 0.56395 0.25876 0.0
C42 C 0.28367 0.55673 0.29061 0.0
C43 C 0.30649 0.52495 0.24426 0.0
C44 C 0.29013 0.50281 0.15729 0.0
H45 H 0.99687 0.1746 0.05245 0.0
H46 H 0.98652 0.24545 0.33652 0.0
H47 H 0.06524 0.29216 0.08843 0.0
C48 C 0.00498 0.20181 0.10038 0.0
C49 C 0.03399 0.23169 0.06172 0.0
C50 C 0.98923 0.20472 0.2015 0.0
C51 C 0.99812 0.24199 0.25789 0.0
C52 C 0.02386 0.27459 0.21605 0.0
C53 C 0.04353 0.26849 0.11921 0.0
H54 H 0.33848 0.946 0.06097 0.0
H55 H 0.27319 0.94513 0.35344 0.0
H56 H 0.23338 0.02225 0.1011 0.0
C57 C 0.31359 0.95622 0.11031 0.0
C58 C 0.28754 0.98647 0.07131 0.0
C59 C 0.311 0.94309 0.2143 0.0
C60 C 0.27665 0.95521 0.2734 0.0
C61 C 0.24722 0.982 0.23171 0.0
C62 C 0.25372 0.99894 0.13117 0.0
H63 H 0.57619 0.32239 0.06208 0.0
H64 H 0.49182 0.2161 0.09809 0.0
H65 H 0.57119 0.25498 0.35245 0.0
C66 C 0.56391 0.29718 0.11083 0.0
C67 C 0.57678 0.29401 0.21484 0.0
C68 C 0.53181 0.27097 0.07064 0.0
C69 C 0.51649 0.2366 0.12919 0.0
C70 C 0.53253 0.22966 0.22957 0.0
C71 C 0.56161 0.25907 0.27253 0.0
O72 O 0.10977 0.01622 0.59286 0.0
Zn73 Zn 0.06978 0.0219 0.71464 0.0
O74 O 0.01186 0.00725 0.67043 0.0
Zn75 Zn 0.97719 0.055 0.69117 0.0
Zn76 Zn 0.01095 0.99205 0.52311 0.0
Zn77 Zn 0.98741 0.96017 0.75022 0.0
O78 O 0.92979 0.04201 0.78947 0.0
O79 O 0.93358 0.97425 0.82576 0.0
O80 O 0.07521 0.0826 0.76949 0.0
O81 O 0.01092 0.1034 0.74914 0.0
O82 O 0.95545 0.07676 0.55699 0.0
O83 O 0.97893 0.03253 0.43942 0.0
O84 O 0.98972 0.93251 0.50073 0.0
O85 O 0.08737 0.98221 0.82974 0.0
O86 O 0.98055 0.90723 0.66074 0.0
O87 O 0.02798 0.94584 0.85895 0.0
C88 C 0.10465 0.00532 0.49767 0.0
C89 C 0.9158 0.00911 0.83603 0.0
C90 C 0.95942 0.06521 0.4627 0.0
C91 C 0.04849 0.11098 0.77522 0.0
C92 C 0.98123 0.90204 0.56216 0.0
C93 C 0.06575 0.95483 0.88056 0.0
O94 O 0.06873 0.99525 0.46231 0.0
O95 O 0.49584 0.08873 0.58782 0.0
Zn96 Zn 0.49374 0.04875 0.7115 0.0
O97 O 0.50963 0.99184 0.66475 0.0
Zn98 Zn 0.46447 0.95138 0.69413 0.0
Zn99 Zn 0.52046 0.99091 0.51578 0.0
Zn100 Zn 0.55946 0.97362 0.73539 0.0
O101 O 0.48023 0.9108 0.80473 0.0
O102 O 0.54758 0.92342 0.83098 0.0
O103 O 0.43481 0.04751 0.7745 0.0
O104 O 0.41597 0.98042 0.75008 0.0
O105 O 0.44212 0.92157 0.56662 0.0
O106 O 0.47852 0.95378 0.44191 0.0
O107 O 0.57813 0.97311 0.48229 0.0
O108 O 0.53524 0.07232 0.81978 0.0
O109 O 0.60762 0.96436 0.63659 0.0
O110 O 0.57918 0.02022 0.82667 0.0
C111 C 0.50522 0.0842 0.49179 0.0
C112 C 0.51369 0.9032 0.85225 0.0
C113 C 0.44961 0.92795 0.47051 0.0
C114 C 0.40763 0.01724 0.77948 0.0
C115 C 0.60955 0.96488 0.5374 0.0
C116 C 0.56823 0.0565 0.85388 0.0
O117 O 0.5154 0.04877 0.45571 0.0
O118 O 0.4462 0.48078 0.58533 0.0
Zn119 Zn 0.48529 0.47857 0.70971 0.0
O120 O 0.54259 0.49506 0.66391 0.0
Zn121 Zn 0.57983 0.45066 0.69698 0.0
Zn122 Zn 0.54417 0.50413 0.51457 0.0
Zn123 Zn 0.56341 0.54683 0.73134 0.0
O124 O 0.61955 0.46874 0.8112 0.0
O125 O 0.61031 0.53694 0.83355 0.0
O126 O 0.48212 0.41906 0.77254 0.0
O127 O 0.54737 0.4013 0.75185 0.0
O128 O 0.60887 0.42761 0.57108 0.0
O129 O 0.57717 0.46097 0.44466 0.0
O130 O 0.56758 0.56121 0.47784 0.0
O131 O 0.46412 0.52119 0.81497 0.0
O132 O 0.57814 0.59385 0.62915 0.0
O133 O 0.51715 0.56826 0.81319 0.0
C134 C 0.45104 0.49062 0.48949 0.0
C135 C 0.62809 0.50336 0.85823 0.0
C136 C 0.60193 0.4334 0.47459 0.0
C137 C 0.51026 0.39215 0.77908 0.0
C138 C 0.57841 0.59393 0.52985 0.0
C139 C 0.48091 0.55648 0.84225 0.0
O140 O 0.48678 0.50036 0.45285 0.0
O141 O 0.97334 0.57143 0.55567 0.0
Zn142 Zn 0.0284 0.56623 0.6353 0.0
O143 O 0.03621 0.50768 0.68365 0.0
Zn144 Zn 0.04029 0.50558 0.83552 0.0
Zn145 Zn 0.9892 0.47255 0.63965 0.0
Zn146 Zn 0.08586 0.48363 0.62432 0.0
O147 O 0.09503 0.48417 0.88087 0.0
O148 O 0.12788 0.46861 0.73453 0.0
O149 O 0.02757 0.60539 0.76128 0.0
O150 O 0.03635 0.56384 0.89765 0.0
O151 O 0.99437 0.46898 0.89715 0.0
O152 O 0.96107 0.44337 0.75818 0.0
O153 O 1.00474 0.43 0.53334 0.0
O154 O 0.07735 0.58645 0.54418 0.0
O155 O 0.07329 0.43457 0.52333 0.0
O156 O 0.11475 0.52917 0.54622 0.0
C157 C 0.9431 0.54456 0.54542 0.0
C158 C 0.12673 0.47115 0.83361 0.0
C159 C 0.96553 0.44588 0.85641 0.0
C160 C 0.03131 0.60018 0.85949 0.0
C161 C 0.0385 0.41787 0.49456 0.0
C162 C 0.10981 0.56707 0.52004 0.0
O163 O 0.94586 0.50694 0.57638 0.0
C164 C 0.21599 0.00439 0.40156 0.0
C165 C 0.21082 0.99292 0.29615 0.0
H166 H 0.18687 0.0175 0.54739 0.0
C167 C 0.17046 0.9882 0.25576 0.0
H168 H 0.24675 0.00866 0.43468 0.0
C169 C 0.136 0.99301 0.32059 0.0
C170 C 0.14115 0.00304 0.42715 0.0
H171 H 0.16551 0.97906 0.17509 0.0
H172 H 0.10532 0.98798 0.2875 0.0
C173 C 0.18162 0.0095 0.46617 0.0
C174 C 0.508 0.19706 0.39753 0.0
C175 C 0.51897 0.19242 0.2921 0.0
H176 H 0.49472 0.16671 0.54303 0.0
C177 C 0.52151 0.1518 0.25043 0.0
H178 H 0.50542 0.22806 0.43141 0.0
C179 C 0.51562 0.11655 0.3145 0.0
C180 C 0.50675 0.12123 0.42147 0.0
H181 H 0.53016 0.14733 0.16963 0.0
H182 H 0.51936 0.08571 0.28074 0.0
C183 C 0.50183 0.16188 0.46143 0.0
C184 C 0.3832 0.51436 0.25556 0.0
C185 C 0.34356 0.51088 0.30005 0.0
H186 H 0.4486 0.51072 0.28071 0.0
C187 C 0.33929 0.49715 0.40363 0.0
H188 H 0.38717 0.52505 0.17595 0.0
C189 C 0.37406 0.48877 0.46345 0.0
C190 C 0.41408 0.49424 0.42137 0.0
H191 H 0.3089 0.49407 0.43936 0.0
H192 H 0.36953 0.47946 0.54392 0.0
C193 C 0.41824 0.50626 0.31586 0.0
C194 C 0.06846 0.33108 0.30569 0.0
C195 C 0.02917 0.31438 0.27618 0.0
H196 H 0.10254 0.37691 0.39915 0.0
C197 C 0.99373 0.33375 0.31289 0.0
H198 H 0.09626 0.31656 0.27866 0.0
C199 C 0.99717 0.36778 0.38128 0.0
C200 C 0.03624 0.38351 0.4155 0.0
H201 H 0.96308 0.32179 0.2905 0.0
H202 H 0.96889 0.38117 0.40901 0.0
C203 C 0.07198 0.36537 0.37512 0.0
C204 C 0.82652 0.98176 0.02348 0.0
C205 C 0.80843 0.02097 0.03548 0.0
H206 H 0.87433 0.94691 0.95044 0.0
C207 C 0.82655 0.05585 0.98326 0.0
H208 H 0.81323 0.95416 0.06198 0.0
C209 C 0.86107 0.0517 0.91909 0.0
C210 C 0.87886 0.01249 0.90508 0.0
H211 H 0.81396 0.08668 0.99196 0.0
H212 H 0.87378 0.07951 0.8803 0.0
C213 C 0.86135 0.97755 0.95883 0.0
C214 C 0.54567 0.81901 0.04227 0.0
C215 C 0.50686 0.8038 0.07917 0.0
H216 H 0.57845 0.86232 0.94064 0.0
C217 C 0.4712 0.82453 0.0495 0.0
H218 H 0.57365 0.80337 0.06297 0.0
C219 C 0.47382 0.8575 0.97819 0.0
C220 C 0.51223 0.87087 0.93534 0.0
H221 H 0.44093 0.81378 0.07746 0.0
H222 H 0.44544 0.87174 0.95448 0.0
C223 C 0.54836 0.8524 0.9712 0.0
C224 C 0.71359 0.53932 0.04643 0.0
C225 C 0.7239 0.50087 0.09107 0.0
H226 H 0.67509 0.5704 0.93672 0.0
C227 C 0.69896 0.46475 0.06872 0.0
H228 H 0.73255 0.56756 0.06147 0.0
C229 C 0.667 0.4661 0.99577 0.0
C230 C 0.65877 0.50377 0.94441 0.0
H231 H 0.70601 0.43475 0.10259 0.0
H232 H 0.64964 0.43721 0.97698 0.0
C233 C 0.68108 0.5408 0.97399 0.0
C234 C 0.02897 0.71308 0.9557 0.0
C235 C 0.03819 0.70907 0.06241 0.0
H236 H 0.01945 0.68227 0.80858 0.0
C237 C 0.0424 0.66858 0.10326 0.0
H238 H 0.02458 0.7437 0.92198 0.0
C239 C 0.03921 0.63314 0.03804 0.0
C240 C 0.03159 0.63735 0.93043 0.0
H241 H 0.04962 0.66441 0.18497 0.0
H242 H 0.04371 0.60253 0.07171 0.0
C243 C 0.0258 0.67775 0.89061 0.0
C244 C 0.94381 0.17004 0.34055 0.0
C245 C 0.96945 0.16668 0.25231 0.0
H246 H 0.91943 0.13966 0.47741 0.0
C247 C 0.98101 0.12619 0.22144 0.0
H248 H 0.93243 0.20004 0.36464 0.0
C249 C 0.97166 0.09133 0.28325 0.0
C250 C 0.9521 0.09615 0.37984 0.0
H251 H 1.00082 0.12123 0.15501 0.0
H252 H 0.98431 0.06163 0.26076 0.0
C253 C 0.93557 0.13515 0.40442 0.0
C254 C 0.38807 0.93415 0.22747 0.0
C255 C 0.34772 0.92431 0.26525 0.0
H256 H 0.45257 0.94025 0.26101 0.0
C257 C 0.344 0.9029 0.361 0.0
H258 H 0.39355 0.95035 0.15465 0.0
C259 C 0.37876 0.89852 0.42468 0.0
C260 C 0.41789 0.91469 0.39253 0.0
H261 H 0.314 0.89246 0.39092 0.0
H262 H 0.37417 0.88634 0.50276 0.0
C263 C 0.42268 0.92862 0.28959 0.0
C264 C 0.59448 0.3718 0.22947 0.0
C265 C 0.599 0.33067 0.26755 0.0
H266 H 0.59474 0.43722 0.264 0.0
C267 C 0.61832 0.32638 0.36544 0.0
H268 H 0.58054 0.37794 0.15488 0.0
C269 C 0.62501 0.36137 0.43067 0.0
C270 C 0.61359 0.40128 0.3977 0.0
H271 H 0.62516 0.29581 0.39581 0.0
H272 H 0.63504 0.35636 0.51009 0.0
C273 C 0.60245 0.40661 0.29315 0.0
C274 C 0.21824 0.58094 0.43894 0.0
C275 C 0.21321 0.58478 0.3303 0.0
H276 H 0.1881 0.57431 0.58619 0.0
C277 C 0.17487 0.59865 0.29314 0.0
H278 H 0.24681 0.57103 0.47307 0.0
C279 C 0.14037 0.59924 0.35949 0.0
C280 C 0.14454 0.58774 0.46407 0.0
H281 H 0.17018 0.60448 0.21098 0.0
H282 H 0.10999 0.60375 0.32654 0.0
C283 C 0.18423 0.58272 0.505 0.0
C284 C 0.11042 0.86202 0.00485 0.0
C285 C 0.08622 0.86009 0.09635 0.0
H286 H 0.12376 0.89554 0.86289 0.0
C287 C 0.06567 0.89643 0.127 0.0
H288 H 0.12764 0.83532 0.97992 0.0
C289 C 0.06464 0.93109 0.06158 0.0
C290 C 0.08385 0.93029 0.96402 0.0
H291 H 0.04623 0.89686 0.19564 0.0
H292 H 0.04472 0.95644 0.082 0.0
C293 C 0.10899 0.89686 0.93862 0.0
C294 C 0.62426 0.06037 0.09948 0.0
C295 C 0.66405 0.07422 0.06417 0.0
H296 H 0.56086 0.0469 0.05971 0.0
C297 C 0.66644 0.09622 0.96892 0.0
H298 H 0.61973 0.04321 0.1713 0.0
C299 C 0.63185 0.09709 0.90317 0.0
C300 C 0.59405 0.07757 0.93351 0.0
H301 H 0.69566 0.10945 0.94037 0.0
H302 H 0.6359 0.10872 0.82437 0.0
C303 C 0.58966 0.0626 0.03523 0.0
C304 C 0.45113 0.61365 0.08111 0.0
C305 C 0.45848 0.65513 0.04453 0.0
H306 H 0.45244 0.54792 0.04291 0.0
C307 C 0.45817 0.66174 0.93597 0.0
H308 H 0.44898 0.60719 0.16379 0.0
C309 C 0.45804 0.62783 0.8674 0.0
C310 C 0.45886 0.58675 0.90553 0.0
H311 H 0.46338 0.69263 0.90264 0.0
H312 H 0.46303 0.63399 0.78514 0.0
C313 C 0.45211 0.57951 0.01193 0.0
C314 C 0.85694 0.43937 0.94814 0.0
C315 C 0.8631 0.44247 0.05662 0.0
H316 H 0.88515 0.43571 0.79868 0.0
C317 C 0.9019 0.43191 0.09724 0.0
H318 H 0.82777 0.44658 0.9124 0.0
C319 C 0.93572 0.42768 0.03066 0.0
C320 C 0.93052 0.43171 0.9227 0.0
H321 H 0.90731 0.43125 0.18051 0.0
H322 H 0.96636 0.4252 0.06394 0.0
C323 C 0.89028 0.43326 0.8819 0.0
C324 C 0.08617 0.18993 0.9754 0.0
C325 C 0.05535 0.21965 0.96519 0.0
H326 H 0.10799 0.13083 0.9223 0.0
C327 C 0.03215 0.22002 0.87284 0.0
H328 H 0.10423 0.18884 0.04649 0.0
C329 C 0.03367 0.18641 0.80279 0.0
C330 C 0.05892 0.15243 0.82349 0.0
H331 H 0.00808 0.24241 0.86333 0.0
H332 H 0.01174 0.18483 0.73879 0.0
C333 C 0.08782 0.15624 0.90508 0.0
C334 C 0.33116 0.04254 0.98938 0.0
C335 C 0.30228 0.00857 0.97636 0.0
H336 H 0.38808 0.07234 0.93572 0.0
C337 C 0.30225 0.9859 0.88248 0.0
H338 H 0.33221 0.06003 0.06206 0.0
C339 C 0.33441 0.99261 0.81076 0.0
C340 C 0.36712 0.02209 0.83187 0.0
H341 H 0.28072 0.95925 0.87121 0.0
H342 H 0.33595 0.97163 0.74427 0.0
C343 C 0.36351 0.04928 0.91751 0.0
C344 C 0.53387 0.28603 0.88213 0.0
C345 C 0.5114 0.28592 0.97558 0.0
H346 H 0.55031 0.32012 0.74405 0.0
C347 C 0.4798 0.31466 0.98812 0.0
H348 H 0.5587 0.26456 0.87131 0.0
C349 C 0.47536 0.34717 0.91605 0.0
C350 C 0.50253 0.35106 0.83087 0.0
H351 H 0.46252 0.31554 0.0605 0.0
H352 H 0.45426 0.37177 0.93383 0.0
C353 C 0.52943 0.31834 0.8102 0.0
C354 C 0.19381 0.46125 0.06919 0.0
C355 C 0.22874 0.4861 0.03912 0.0
H356 H 0.13344 0.43678 0.02598 0.0
C357 C 0.23396 0.49659 0.93366 0.0
H358 H 0.18898 0.45326 0.15048 0.0
C359 C 0.20232 0.48655 0.86169 0.0
C360 C 0.16491 0.46678 0.89535 0.0
H361 H 0.26029 0.51634 0.90922 0.0
H362 H 0.20523 0.49857 0.78299 0.0
C363 C 0.16193 0.45206 -0.00186 0.0
C364 C 0.02781 0.80258 0.47873 0.0
C365 C 0.00945 0.79728 0.38005 0.0
H366 H 0.03142 0.83997 0.61806 0.0
C367 C 0.97336 0.81873 0.35758 0.0
H368 H 0.05616 0.78708 0.49688 0.0
C369 C 0.96022 0.85019 0.4248 0.0
C370 C 0.98201 0.85937 0.51727 0.0
H371 H 0.95914 0.81576 0.28119 0.0
H372 H 0.93592 0.87024 0.39926 0.0
C373 C 0.01375 0.83312 0.54773 0.0
C374 C 0.68549 0.95446 0.31937 0.0
C375 C 0.71355 0.98809 0.34301 0.0
H376 H 0.62929 0.9209 0.36341 0.0
C377 C 0.71314 0.00566 0.44361 0.0
H378 H 0.68462 0.94105 0.24154 0.0
C379 C 0.68189 0.9934 0.51452 0.0
C380 C 0.65012 0.96434 0.48429 0.0
H381 H 0.73376 0.03229 0.46273 0.0
H382 H 0.67969 0.01049 0.5874 0.0
C383 C 0.65352 0.94322 0.38868 0.0
C384 C 0.54564 0.69743 0.43239 0.0
C385 C 0.5568 0.69368 0.32711 0.0
H386 H 0.54548 0.66838 0.5829 0.0
C387 C 0.5856 0.66385 0.29846 0.0
H388 H 0.52306 0.71985 0.45583 0.0
C389 C 0.59777 0.63394 0.37027 0.0
C390 C 0.58184 0.63392 0.47211 0.0
H391 H 0.59435 0.66025 0.21742 0.0
H392 H 0.61585 0.60816 0.34304 0.0
C393 C 0.55845 0.66784 0.505 0.0
C394 C 0.87611 0.572 0.3189 0.0
C395 C 0.8412 0.54515 0.33854 0.0
H396 H 0.93656 0.59342 0.37127 0.0
C397 C 0.83567 0.52857 0.43883 0.0
H398 H 0.8813 0.58465 0.24146 0.0
C399 C 0.86757 0.53287 0.51225 0.0
C400 C 0.9052 0.55434 0.48688 0.0
H401 H 0.80937 0.50739 0.45555 0.0
H402 H 0.86446 0.51573 0.58485 0.0
C403 C 0.90797 0.57668 0.3929 0.0
loop_
_geom_bond_atom_site_label_1
_geom_bond_atom_site_label_2
_geom_bond_distance
_geom_bond_site_symmetry_2
_ccdc_geom_bond_type
H0 C3 0.931 . S
H1 C6 0.928 . S
H2 C8 0.930 . S
C3 H0 0.931 . S
C3 C4 1.413 . S
C3 C5 1.360 1_554 S
C4 C3 1.413 . S
C4 C8 1.429 . S
C5 C3 1.360 1_556 S
C5 C6 1.372 . S
C6 H1 0.928 . S
C6 C5 1.372 . S
C6 C7 1.404 1_556 S
C7 C6 1.404 1_554 S
C7 C8 1.391 . S
C8 H2 0.930 . S
C8 C4 1.429 . S
C8 C7 1.391 . S
H9 C12 0.931 . S
H10 C15 0.928 . S
H11 C17 0.930 . S
C12 H9 0.931 . S
C12 C13 1.413 . S
C12 C14 1.360 . S
C13 C12 1.413 . S
C13 C17 1.429 . S
C14 C12 1.360 . S
C14 C15 1.372 1_554 S
C15 H10 0.928 . S
C15 C14 1.372 1_556 S
C15 C16 1.404 1_556 S
C16 C15 1.404 1_554 S
C16 C17 1.391 . S
C17 H11 0.930 . S
C17 C13 1.429 . S
C17 C16 1.391 . S
H18 C21 0.931 . S
H19 C24 0.928 . S
H20 C26 0.931 . S
C21 H18 0.931 . S
C21 C22 1.413 . S
C21 C23 1.360 1_554 S
C22 C21 1.413 . S
C22 C26 1.429 1_565 S
C23 C21 1.360 1_556 S
C23 C24 1.373 . S
C24 H19 0.928 . S
C24 C23 1.373 . S
C24 C25 1.404 1_556 S
C25 C24 1.404 1_554 S
C25 C26 1.390 1_565 S
C26 H20 0.931 . S
C26 C22 1.429 1_545 S
C26 C25 1.390 1_545 S
H27 C30 0.931 . S
H28 C33 0.928 . S
H29 C35 0.930 . S
C30 H27 0.931 . S
C30 C31 1.413 1_554 S
C30 C32 1.360 . S
C31 C30 1.413 1_556 S
C31 C35 1.429 . S
C32 C30 1.360 . S
C32 C33 1.372 . S
C33 H28 0.928 . S
C33 C32 1.372 . S
C33 C34 1.404 . S
C34 C33 1.404 . S
C34 C35 1.391 1_554 S
C35 H29 0.930 . S
C35 C31 1.429 . S
C35 C34 1.391 1_556 S
H36 C39 0.931 . S
H37 C42 0.928 . S
H38 C44 0.930 . S
C39 H36 0.931 . S
C39 C40 1.413 . S
C39 C41 1.360 . S
C40 C39 1.413 . S
C40 C44 1.429 . S
C41 C39 1.360 . S
C41 C42 1.372 . S
C42 H37 0.928 . S
C42 C41 1.372 . S
C42 C43 1.404 . S
C43 C42 1.404 . S
C43 C44 1.391 . S
C44 H38 0.930 . S
C44 C40 1.429 . S
C44 C43 1.391 . S
H45 C48 0.931 . S
H46 C51 0.928 . S
H47 C53 0.930 . S
C48 H45 0.931 . S
C48 C49 1.413 . S
C48 C50 1.360 . S
C49 C48 1.413 . S
C49 C53 1.429 . S
C50 C48 1.360 . S
C50 C51 1.372 . S
C51 H46 0.928 . S
C51 C50 1.372 . S
C51 C52 1.404 . S
C52 C51 1.404 . S
C52 C53 1.391 . S
C53 H47 0.930 . S
C53 C49 1.429 . S
C53 C52 1.391 . S
H54 C57 0.931 . S
H55 C60 0.928 . S
H56 C62 0.930 . S
C57 H54 0.931 . S
C57 C58 1.413 . S
C57 C59 1.360 . S
C58 C57 1.413 . S
C58 C62 1.429 1_565 S
C59 C57 1.360 . S
C59 C60 1.372 . S
C60 H55 0.928 . S
C60 C59 1.372 . S
C60 C61 1.405 . S
C61 C60 1.405 . S
C61 C62 1.391 1_565 S
C62 H56 0.930 . S
C62 C58 1.429 1_545 S
C62 C61 1.391 1_545 S
H63 C66 0.931 . S
H64 C69 0.928 . S
H65 C71 0.930 . S
C66 H63 0.931 . S
C66 C67 1.413 . S
C66 C68 1.360 . S
C67 C66 1.413 . S
C67 C71 1.429 . S
C68 C66 1.360 . S
C68 C69 1.372 . S
C69 H64 0.928 . S
C69 C68 1.372 . S
C69 C70 1.404 . S
C70 C69 1.404 . S
C70 C71 1.391 . S
C71 H65 0.930 . S
C71 C67 1.429 . S
C71 C70 1.391 . S
O72 Zn73 1.953 . S
O72 C88 1.225 . S
Zn73 O72 1.953 . S
Zn73 O74 1.950 . S
Zn73 O80 1.919 1_565 S
Zn73 O85 1.924 . S
O74 Zn73 1.950 . S
O74 Zn75 1.898 1_565 S
O74 Zn76 1.953 . S
O74 Zn77 1.966 1_455 S
Zn75 O74 1.898 1_545 S
Zn75 O78 1.933 1_455 S
Zn75 O81 1.941 . S
Zn75 O82 1.965 . S
Zn76 O74 1.953 . S
Zn76 O83 1.938 1_565 S
Zn76 O84 1.906 . S
Zn76 O94 1.953 . S
Zn77 O74 1.966 1_655 S
Zn77 O79 1.932 . S
Zn77 O86 1.977 . S
Zn77 O87 1.910 1_655 S
O78 Zn75 1.933 1_655 S
O78 C89 1.226 . S
O79 Zn77 1.932 . S
O79 C89 1.307 1_565 S
O80 Zn73 1.919 1_545 S
O80 C91 1.253 . S
O81 Zn75 1.941 . S
O81 C91 1.283 . S
O82 Zn75 1.965 . S
O82 C90 1.303 . S
O83 Zn76 1.938 1_545 S
O83 C90 1.247 . S
O84 Zn76 1.906 . S
O84 C92 1.304 1_455 S
O85 Zn73 1.924 . S
O85 C93 1.311 . S
O86 Zn77 1.977 . S
O86 C92 1.272 . S
O87 Zn77 1.910 1_455 S
O87 C93 1.231 . S
C88 O72 1.225 . S
C88 O94 1.298 . S
C89 O78 1.226 . S
C89 O79 1.307 1_545 S
C90 O82 1.303 . S
C90 O83 1.247 . S
C91 O80 1.253 . S
C91 O81 1.283 . S
C92 O84 1.304 1_655 S
C92 O86 1.272 . S
C93 O85 1.311 . S
C93 O87 1.231 . S
O94 Zn76 1.953 . S
O94 C88 1.298 . S
O95 Zn96 1.953 . S
O95 C111 1.225 . S
Zn96 O95 1.953 . S
Zn96 O97 1.949 . S
Zn96 O103 1.919 . S
Zn96 O108 1.924 . S
O97 Zn96 1.949 . S
O97 Zn98 1.923 1_545 S
O97 Zn99 1.950 . S
O97 Zn100 1.945 1_545 S
Zn98 O97 1.923 1_565 S
Zn98 O101 1.933 . S
Zn98 O104 1.941 . S
Zn98 O105 1.965 . S
Zn99 O97 1.950 . S
Zn99 O106 1.938 . S
Zn99 O107 1.906 1_545 S
Zn99 O117 1.953 . S
Zn100 O97 1.945 1_565 S
Zn100 O102 1.932 . S
Zn100 O109 1.977 . S
Zn100 O110 1.910 1_565 S
O101 Zn98 1.933 . S
O101 C112 1.226 . S
O102 Zn100 1.932 . S
O102 C112 1.307 . S
O103 Zn96 1.919 . S
O103 C114 1.253 . S
O104 Zn98 1.941 . S
O104 C114 1.283 1_565 S
O105 Zn98 1.965 . S
O105 C113 1.303 . S
O106 Zn99 1.938 . S
O106 C113 1.247 1_545 S
O107 Zn99 1.906 1_565 S
O107 C115 1.304 . S
O108 Zn96 1.924 . S
O108 C116 1.311 . S
O109 Zn100 1.977 . S
O109 C115 1.272 . S
O110 Zn100 1.910 1_545 S
O110 C116 1.231 . S
C111 O95 1.225 . S
C111 O117 1.298 . S
C112 O101 1.226 . S
C112 O102 1.307 . S
C113 O105 1.303 . S
C113 O106 1.247 1_565 S
C114 O103 1.253 . S
C114 O104 1.283 1_545 S
C115 O107 1.304 . S
C115 O109 1.272 . S
C116 O108 1.311 . S
C116 O110 1.231 . S
O117 Zn99 1.953 . S
O117 C111 1.298 . S
O118 Zn119 1.953 . S
O118 C134 1.225 . S
Zn119 O118 1.953 . S
Zn119 O120 1.949 . S
Zn119 O126 1.919 . S
Zn119 O131 1.924 . S
O120 Zn119 1.949 . S
O120 Zn121 1.923 . S
O120 Zn122 1.950 . S
O120 Zn123 1.945 . S
Zn121 O120 1.923 . S
Zn121 O124 1.933 . S
Zn121 O127 1.941 . S
Zn121 O128 1.965 . S
Zn122 O120 1.950 . S
Zn122 O129 1.938 . S
Zn122 O130 1.906 . S
Zn122 O140 1.953 . S
Zn123 O120 1.945 . S
Zn123 O125 1.932 . S
Zn123 O132 1.977 . S
Zn123 O133 1.910 . S
O124 Zn121 1.933 . S
O124 C135 1.226 . S
O125 Zn123 1.932 . S
O125 C135 1.307 . S
O126 Zn119 1.919 . S
O126 C137 1.253 . S
O127 Zn121 1.941 . S
O127 C137 1.283 . S
O128 Zn121 1.965 . S
O128 C136 1.303 . S
O129 Zn122 1.938 . S
O129 C136 1.247 . S
O130 Zn122 1.906 . S
O130 C138 1.304 . S
O131 Zn119 1.924 . S
O131 C139 1.311 . S
O132 Zn123 1.977 . S
O132 C138 1.272 . S
O133 Zn123 1.910 . S
O133 C139 1.231 . S
C134 O118 1.225 . S
C134 O140 1.298 . S
C135 O124 1.226 . S
C135 O125 1.307 . S
C136 O128 1.303 . S
C136 O129 1.247 . S
C137 O126 1.253 . S
C137 O127 1.283 . S
C138 O130 1.304 . S
C138 O132 1.272 . S
C139 O131 1.311 . S
C139 O133 1.231 . S
O140 Zn122 1.953 . S
O140 C134 1.298 . S
O141 Zn142 1.953 1_655 S
O141 C157 1.225 . S
Zn142 O141 1.953 1_455 S
Zn142 O143 1.949 . S
Zn142 O149 1.919 . S
Zn142 O154 1.924 . S
O143 Zn142 1.949 . S
O143 Zn144 1.923 . S
O143 Zn145 1.950 1_455 S
O143 Zn146 1.945 . S
Zn144 O143 1.923 . S
Zn144 O147 1.933 . S
Zn144 O150 1.941 1_455 S
Zn144 O151 1.965 1_455 S
Zn145 O143 1.950 1_655 S
Zn145 O152 1.938 . S
Zn145 O153 1.906 . S
Zn145 O163 1.953 . S
Zn146 O143 1.945 . S
Zn146 O148 1.932 . S
Zn146 O155 1.977 . S
Zn146 O156 1.910 . S
O147 Zn144 1.933 . S
O147 C158 1.226 . S
O148 Zn146 1.932 . S
O148 C158 1.307 . S
O149 Zn142 1.919 . S
O149 C160 1.253 . S
O150 Zn144 1.941 1_655 S
O150 C160 1.283 1_655 S
O151 Zn144 1.965 1_655 S
O151 C159 1.303 . S
O152 Zn145 1.938 . S
O152 C159 1.247 . S
O153 Zn145 1.906 . S
O153 C161 1.304 1_655 S
O154 Zn142 1.924 . S
O154 C162 1.311 . S
O155 Zn146 1.977 . S
O155 C161 1.272 . S
O156 Zn146 1.910 . S
O156 C162 1.231 . S
C157 O141 1.225 . S
C157 O163 1.298 . S
C158 O147 1.226 . S
C158 O148 1.307 . S
C159 O151 1.303 . S
C159 O152 1.247 . S
C160 O149 1.253 . S
C160 O150 1.283 1_455 S
C161 O153 1.304 1_455 S
C161 O155 1.272 . S
C162 O154 1.311 . S
C162 O156 1.231 . S
O163 Zn145 1.953 . S
O163 C157 1.298 . S
C164 C165 1.387 1_545 S
C164 H168 0.950 . S
C164 C173 1.390 . S
C165 C164 1.387 1_565 S
C165 C167 1.387 . S
H166 C173 0.950 . S
C167 C165 1.387 . S
C167 C169 1.390 . S
C167 H171 0.950 . S
H168 C164 0.950 . S
C169 C167 1.390 . S
C169 C170 1.387 . S
C169 H172 0.950 . S
C170 C169 1.387 . S
C170 C173 1.387 1_565 S
H171 C167 0.950 . S
H172 C169 0.950 . S
C173 C164 1.390 . S
C173 H166 0.950 . S
C173 C170 1.387 1_545 S
C174 C175 1.387 . S
C174 H178 0.950 . S
C174 C183 1.390 . S
C175 C174 1.387 . S
C175 C177 1.387 . S
H176 C183 0.950 . S
C177 C175 1.387 . S
C177 C179 1.390 . S
C177 H181 0.950 . S
H178 C174 0.950 . S
C179 C177 1.390 . S
C179 C180 1.387 . S
C179 H182 0.950 . S
C180 C179 1.387 . S
C180 C183 1.387 . S
H181 C177 0.950 . S
H182 C179 0.950 . S
C183 C174 1.390 . S
C183 H176 0.950 . S
C183 C180 1.387 . S
C184 C185 1.387 . S
C184 H188 0.950 . S
C184 C193 1.390 . S
C185 C184 1.387 . S
C185 C187 1.387 . S
H186 C193 0.950 . S
C187 C185 1.387 . S
C187 C189 1.390 . S
C187 H191 0.950 . S
H188 C184 0.950 . S
C189 C187 1.390 . S
C189 C190 1.387 . S
C189 H192 0.950 . S
C190 C189 1.387 . S
C190 C193 1.387 . S
H191 C187 0.950 . S
H192 C189 0.950 . S
C193 C184 1.390 . S
C193 H186 0.950 . S
C193 C190 1.387 . S
C194 C195 1.387 . S
C194 H198 0.950 . S
C194 C203 1.390 . S
C195 C194 1.387 . S
C195 C197 1.387 . S
H196 C203 0.950 . S
C197 C195 1.387 . S
C197 C199 1.390 . S
C197 H201 0.950 . S
H198 C194 0.950 . S
C199 C197 1.390 . S
C199 C200 1.387 . S
C199 H202 0.950 . S
C200 C199 1.387 . S
C200 C203 1.387 . S
H201 C197 0.950 . S
H202 C199 0.950 . S
C203 C194 1.390 . S
C203 H196 0.950 . S
C203 C200 1.387 . S
C204 C205 1.387 1_565 S
C204 H208 0.950 . S
C204 C213 1.390 . S
C205 C204 1.387 1_545 S
C205 C207 1.387 . S
H206 C213 0.950 . S
C207 C205 1.387 . S
C207 C209 1.390 . S
C207 H211 0.950 . S
H208 C204 0.950 . S
C209 C207 1.390 . S
C209 C210 1.387 . S
C209 H212 0.950 . S
C210 C209 1.387 . S
C210 C213 1.387 1_545 S
H211 C207 0.950 . S
H212 C209 0.950 . S
C213 C204 1.390 . S
C213 H206 0.950 . S
C213 C210 1.387 1_565 S
C214 C215 1.387 . S
C214 H218 0.950 1_556 S
C214 C223 1.390 . S
C215 C214 1.387 . S
C215 C217 1.387 . S
H216 C223 0.950 . S
C217 C215 1.387 . S
C217 C219 1.390 . S
C217 H221 0.950 . S
H218 C214 0.950 1_554 S
C219 C217 1.390 . S
C219 C220 1.387 . S
C219 H222 0.950 . S
C220 C219 1.387 . S
C220 C223 1.387 . S
H221 C217 0.950 . S
H222 C219 0.950 . S
C223 C214 1.390 . S
C223 H216 0.950 . S
C223 C220 1.387 . S
C224 C225 1.387 . S
C224 H228 0.950 . S
C224 C233 1.390 . S
C225 C224 1.387 . S
C225 C227 1.387 . S
H226 C233 0.950 . S
C227 C225 1.387 . S
C227 C229 1.390 . S
C227 H231 0.950 . S
H228 C224 0.950 . S
C229 C227 1.390 . S
C229 C230 1.387 . S
C229 H232 0.950 . S
C230 C229 1.387 . S
C230 C233 1.387 . S
H231 C227 0.950 . S
H232 C229 0.950 . S
C233 C224 1.390 . S
C233 H226 0.950 . S
C233 C230 1.387 . S
C234 C235 1.387 . S
C234 H238 0.950 . S
C234 C243 1.390 1_554 S
C235 C234 1.387 . S
C235 C237 1.387 1_654 S
H236 C243 0.950 . S
C237 C235 1.387 1_456 S
C237 C239 1.390 . S
C237 H241 0.950 . S
H238 C234 0.950 . S
C239 C237 1.390 . S
C239 C240 1.387 . S
C239 H242 0.950 . S
C240 C239 1.387 . S
C240 C243 1.387 1_455 S
H241 C237 0.950 . S
H242 C239 0.950 . S
C243 C234 1.390 1_556 S
C243 H236 0.950 . S
C243 C240 1.387 1_655 S
C244 C245 1.387 . S
C244 H248 0.950 . S
C244 C253 1.390 . S
C245 C244 1.387 . S
C245 C247 1.387 . S
H246 C253 0.950 . S
C247 C245 1.387 . S
C247 C249 1.390 . S
C247 H251 0.950 . S
H248 C244 0.950 . S
C249 C247 1.390 . S
C249 C250 1.387 . S
C249 H252 0.950 . S
C250 C249 1.387 . S
C250 C253 1.387 . S
H251 C247 0.950 . S
H252 C249 0.950 . S
C253 C244 1.390 . S
C253 H246 0.950 . S
C253 C250 1.387 . S
C254 C255 1.404 . S
C254 H258 0.950 . S
C254 C263 1.390 . S
C255 C254 1.404 . S
C255 C257 1.369 1_545 S
H256 C263 0.950 . S
C257 C255 1.369 1_565 S
C257 C259 1.390 . S
C257 H261 0.950 . S
H258 C254 0.950 . S
C259 C257 1.390 . S
C259 C260 1.387 . S
C259 H262 0.950 . S
C260 C259 1.387 . S
C260 C263 1.387 1_565 S
H261 C257 0.950 . S
H262 C259 0.950 . S
C263 C254 1.390 . S
C263 H256 0.950 . S
C263 C260 1.387 1_545 S
C264 C265 1.387 . S
C264 H268 0.950 . S
C264 C273 1.390 . S
C265 C264 1.387 . S
C265 C267 1.387 . S
H266 C273 0.950 . S
C267 C265 1.387 . S
C267 C269 1.390 . S
C267 H271 0.950 . S
H268 C264 0.950 . S
C269 C267 1.390 . S
C269 C270 1.387 . S
C269 H272 0.950 . S
C270 C269 1.387 . S
C270 C273 1.387 . S
H271 C267 0.950 . S
H272 C269 0.950 . S
C273 C264 1.390 . S
C273 H266 0.950 . S
C273 C270 1.387 . S
C274 C275 1.387 . S
C274 H278 0.950 . S
C274 C283 1.390 . S
C275 C274 1.387 . S
C275 C277 1.387 . S
H276 C283 0.950 . S
C277 C275 1.387 . S
C277 C279 1.390 . S
C277 H281 0.950 . S
H278 C274 0.950 . S
C279 C277 1.390 . S
C279 C280 1.387 . S
C279 H282 0.950 . S
C280 C279 1.387 . S
C280 C283 1.387 . S
H281 C277 0.950 . S
H282 C279 0.950 . S
C283 C274 1.390 . S
C283 H276 0.950 . S
C283 C280 1.387 . S
C284 C285 1.387 1_455 S
C284 H288 0.950 . S
C284 C293 1.390 . S
C285 C284 1.387 1_655 S
C285 C287 1.387 1_656 S
H286 C293 0.950 . S
C287 C285 1.387 1_454 S
C287 C289 1.390 1_554 S
C287 H291 0.950 1_455 S
H288 C284 0.950 . S
C289 C287 1.390 1_556 S
C289 C290 1.387 . S
C289 H292 0.950 1_556 S
C290 C289 1.387 . S
C290 C293 1.387 . S
H291 C287 0.950 1_655 S
H292 C289 0.950 1_554 S
C293 C284 1.390 . S
C293 H286 0.950 . S
C293 C290 1.387 . S
C294 C295 1.387 1_565 S
C294 H298 0.950 . S
C294 C303 1.390 1_565 S
C295 C294 1.387 1_545 S
C295 C297 1.387 . S
H296 C303 0.950 1_565 S
C297 C295 1.387 . S
C297 C299 1.390 . S
C297 H301 0.950 . S
H298 C294 0.950 . S
C299 C297 1.390 . S
C299 C300 1.387 . S
C299 H302 0.950 . S
C300 C299 1.387 . S
C300 C303 1.387 . S
H301 C297 0.950 . S
H302 C299 0.950 . S
C303 C294 1.390 1_545 S
C303 H296 0.950 1_545 S
C303 C300 1.387 . S
C304 C305 1.387 . S
C304 H308 0.950 1_556 S
C304 C313 1.390 . S
C305 C304 1.387 . S
C305 C307 1.387 . S
H306 C313 0.950 . S
C307 C305 1.387 . S
C307 C309 1.390 . S
C307 H311 0.950 . S
H308 C304 0.950 1_554 S
C309 C307 1.390 . S
C309 C310 1.387 . S
C309 H312 0.950 . S
C310 C309 1.387 . S
C310 C313 1.387 . S
H311 C307 0.950 . S
H312 C309 0.950 . S
C313 C304 1.390 . S
C313 H306 0.950 . S
C313 C310 1.387 . S
C314 C315 1.387 . S
C314 H318 0.950 . S
C314 C323 1.390 . S
C315 C314 1.387 . S
C315 C317 1.387 . S
H316 C323 0.950 . S
C317 C315 1.387 . S
C317 C319 1.390 . S
C317 H321 0.950 . S
H318 C314 0.950 . S
C319 C317 1.390 . S
C319 C320 1.387 . S
C319 H322 0.950 . S
C320 C319 1.387 . S
C320 C323 1.387 . S
H321 C317 0.950 . S
H322 C319 0.950 . S
C323 C314 1.390 . S
C323 H316 0.950 . S
C323 C320 1.387 . S
C324 C325 1.387 . S
C324 H328 0.950 . S
C324 C333 1.390 1_554 S
C325 C324 1.387 . S
C325 C327 1.387 . S
H326 C333 0.950 . S
C327 C325 1.387 . S
C327 C329 1.390 . S
C327 H331 0.950 . S
H328 C324 0.950 . S
C329 C327 1.390 . S
C329 C330 1.387 . S
C329 H332 0.950 . S
C330 C329 1.387 . S
C330 C333 1.387 1_554 S
H331 C327 0.950 . S
H332 C329 0.950 . S
C333 C324 1.390 1_556 S
C333 H326 0.950 . S
C333 C330 1.387 1_556 S
C334 C335 1.385 1_545 S
C334 H338 0.950 . S
C334 C343 1.390 1_554 S
C335 C334 1.385 1_565 S
C335 C337 1.390 . S
H336 C343 0.950 . S
C337 C335 1.390 . S
C337 C339 1.390 . S
C337 H341 0.950 . S
H338 C334 0.950 . S
C339 C337 1.390 . S
C339 C340 1.387 1_554 S
C339 H342 0.950 1_554 S
C340 C339 1.387 1_556 S
C340 C343 1.387 1_565 S
H341 C337 0.950 . S
H342 C339 0.950 1_556 S
C343 C334 1.390 1_556 S
C343 H336 0.950 . S
C343 C340 1.387 1_545 S
C344 C345 1.387 . S
C344 H348 0.950 . S
C344 C353 1.390 . S
C345 C344 1.387 . S
C345 C347 1.387 1_554 S
H346 C353 0.950 . S
C347 C345 1.387 1_556 S
C347 C349 1.390 . S
C347 H351 0.950 . S
H348 C344 0.950 . S
C349 C347 1.390 . S
C349 C350 1.387 . S
C349 H352 0.950 . S
C350 C349 1.387 . S
C350 C353 1.387 1_556 S
H351 C347 0.950 . S
H352 C349 0.950 . S
C353 C344 1.390 . S
C353 H346 0.950 . S
C353 C350 1.387 1_554 S
C354 C355 1.387 . S
C354 H358 0.950 . S
C354 C363 1.390 . S
C355 C354 1.387 . S
C355 C357 1.387 . S
H356 C363 0.950 . S
C357 C355 1.387 . S
C357 C359 1.390 1_554 S
C357 H361 0.950 . S
H358 C354 0.950 . S
C359 C357 1.390 1_556 S
C359 C360 1.387 . S
C359 H362 0.950 . S
C360 C359 1.387 . S
C360 C363 1.387 1_556 S
H361 C357 0.950 . S
H362 C359 0.950 . S
C363 C354 1.390 . S
C363 H356 0.950 . S
C363 C360 1.387 1_554 S
C364 C365 1.387 . S
C364 H368 0.950 . S
C364 C373 1.390 . S
C365 C364 1.387 . S
C365 C367 1.387 . S
H366 C373 0.950 . S
C367 C365 1.387 . S
C367 C369 1.390 . S
C367 H371 0.950 . S
H368 C364 0.950 . S
C369 C367 1.390 . S
C369 C370 1.387 . S
C369 H372 0.950 . S
C370 C369 1.387 . S
C370 C373 1.387 . S
H371 C367 0.950 . S
H372 C369 0.950 . S
C373 C364 1.390 . S
C373 H366 0.950 . S
C373 C370 1.387 . S
C374 C375 1.387 . S
C374 H378 0.950 . S
C374 C383 1.390 . S
C375 C374 1.387 . S
C375 C377 1.387 1_565 S
H376 C383 0.950 . S
C377 C375 1.387 1_545 S
C377 C379 1.390 . S
C377 H381 0.950 . S
H378 C374 0.950 . S
C379 C377 1.390 . S
C379 C380 1.387 1_545 S
C379 H382 0.950 . S
C380 C379 1.387 1_565 S
C380 C383 1.387 . S
H381 C377 0.950 . S
H382 C379 0.950 . S
C383 C374 1.390 . S
C383 H376 0.950 . S
C383 C380 1.387 . S
C384 C385 1.387 . S
C384 H388 0.950 . S
C384 C393 1.390 . S
C385 C384 1.387 . S
C385 C387 1.387 . S
H386 C393 0.950 . S
C387 C385 1.387 . S
C387 C389 1.390 . S
C387 H391 0.950 . S
H388 C384 0.950 . S
C389 C387 1.390 . S
C389 C390 1.387 . S
C389 H392 0.950 . S
C390 C389 1.387 . S
C390 C393 1.387 . S
H391 C387 0.950 . S
H392 C389 0.950 . S
C393 C384 1.390 . S
C393 H386 0.950 . S
C393 C390 1.387 . S
C394 C395 1.387 . S
C394 H398 0.950 . S
C394 C403 1.390 . S
C395 C394 1.387 . S
C395 C397 1.387 . S
H396 C403 0.950 . S
C397 C395 1.387 . S
C397 C399 1.390 . S
C397 H401 0.950 . S
H398 C394 0.950 . S
C399 C397 1.390 . S
C399 C400 1.387 . S
C399 H402 0.950 . S
C400 C399 1.387 . S
C400 C403 1.387 . S
H401 C397 0.950 . S
H402 C399 0.950 . S
C403 C394 1.390 . S
C403 H396 0.950 . S
C403 C400 1.387 . S
C165 C61 1.600 . S
C170 C88 1.613 . S
C180 C111 1.701 . S
C175 C70 1.690 . S
C190 C134 1.637 . S
C185 C43 1.616 . S
C200 C161 1.535 . S
C195 C52 1.620 . S
C210 C89 1.556 . S
C205 C25 1.537 1_546 S
C215 C34 1.533 1_556 S
C220 C112 1.563 . S
C225 C7 1.473 1_556 S
C230 C135 1.494 . S
C235 C16 1.552 . S
C240 C160 1.573 . S
C250 C90 0.659 . S
C245 C50 0.689 . S
C260 C113 0.527 . S
C255 C59 0.548 1_545 S
C270 C136 0.638 . S
C265 C67 0.652 . S
C275 C41 0.785 . S
C280 C162 0.775 . S
C285 C14 0.936 1_556 S
C290 C93 0.870 . S
C300 C116 0.851 . S
C295 C23 0.932 1_545 S
C310 C139 0.882 . S
C305 C31 0.947 . S
C315 C5 0.610 . S
C320 C159 0.608 . S
C325 C49 1.609 . S
C330 C91 1.616 1_554 S
C335 C58 1.546 . S
C340 C114 1.570 1_565 S
C350 C137 1.581 . S
C345 C68 1.548 . S
C360 C158 1.468 . S
C355 C40 1.402 . S
C365 C13 1.686 . S
C370 C92 1.615 . S
C380 C115 1.554 . S
C375 C22 1.621 . S
C390 C138 1.549 . S
C385 C32 1.622 . S
C395 C4 1.627 . S
C400 C157 1.697 . S
