# Generated by pormake.
# Topology eea, (3,6)-cn, num edge types: 1
# Building blocks:
#     Node 0, Type 0, BuildingBlock: VETTIZ_charged_linker_0, # of connection points: 3
#     Node 1, Type 0, BuildingBlock: VETTIZ_charged_linker_0, # of connection points: 3
#     Node 2, Type 0, BuildingBlock: VETTIZ_charged_linker_0, # of connection points: 3
#     Node 3, Type 0, BuildingBlock: VETTIZ_charged_linker_0, # of connection points: 3
#     Node 4, Type 0, BuildingBlock: VETTIZ_charged_linker_0, # of connection points: 3
#     Node 5, Type 0, BuildingBlock: VETTIZ_charged_linker_0, # of connection points: 3
#     Node 6, Type 0, BuildingBlock: VETTIZ_charged_linker_0, # of connection points: 3
#     Node 7, Type 0, BuildingBlock: VETTIZ_charged_linker_0, # of connection points: 3
#     Node 8, Type 0, BuildingBlock: VETTIZ_charged_linker_0, # of connection points: 3
#     Node 9, Type 0, BuildingBlock: VETTIZ_charged_linker_0, # of connection points: 3
#     Node 10, Type 0, BuildingBlock: VETTIZ_charged_linker_0, # of connection points: 3
#     Node 11, Type 0, BuildingBlock: VETTIZ_charged_linker_0, # of connection points: 3
#     Node 12, Type 0, BuildingBlock: VETTIZ_charged_linker_0, # of connection points: 3
#     Node 13, Type 0, BuildingBlock: VETTIZ_charged_linker_0, # of connection points: 3
#     Node 14, Type 0, BuildingBlock: VETTIZ_charged_linker_0, # of connection points: 3
#     Node 15, Type 0, BuildingBlock: VETTIZ_charged_linker_0, # of connection points: 3
#     Node 16, Type 0, BuildingBlock: VETTIZ_charged_linker_0, # of connection points: 3
#     Node 17, Type 0, BuildingBlock: VETTIZ_charged_linker_0, # of connection points: 3
#     Node 18, Type 1, BuildingBlock: KUMBUR_clean_sbu_0, # of connection points: 6
#     Node 19, Type 1, BuildingBlock: KUMBUR_clean_sbu_0, # of connection points: 6
#     Node 20, Type 1, BuildingBlock: KUMBUR_clean_sbu_0, # of connection points: 6
#     Node 21, Type 1, BuildingBlock: KUMBUR_clean_sbu_0, # of connection points: 6
#     Node 22, Type 1, BuildingBlock: KUMBUR_clean_sbu_0, # of connection points: 6
#     Node 23, Type 1, BuildingBlock: KUMBUR_clean_sbu_0, # of connection points: 6
#     Node 24, Type 1, BuildingBlock: KUMBUR_clean_sbu_0, # of connection points: 6
#     Node 25, Type 1, BuildingBlock: KUMBUR_clean_sbu_0, # of connection points: 6
#     Node 26, Type 1, BuildingBlock: KUMBUR_clean_sbu_0, # of connection points: 6
#     Edge 27, Type (0, 1), BuildingBlock: XUDNAN_clean_linker_2, # of connection points: 2
#     Edge 28, Type (0, 1), BuildingBlock: XUDNAN_clean_linker_2, # of connection points: 2
#     Edge 29, Type (0, 1), BuildingBlock: XUDNAN_clean_linker_2, # of connection points: 2
#     Edge 30, Type (0, 1), BuildingBlock: XUDNAN_clean_linker_2, # of connection points: 2
#     Edge 31, Type (0, 1), BuildingBlock: XUDNAN_clean_linker_2, # of connection points: 2
#     Edge 32, Type (0, 1), BuildingBlock: XUDNAN_clean_linker_2, # of connection points: 2
#     Edge 33, Type (0, 1), BuildingBlock: XUDNAN_clean_linker_2, # of connection points: 2
#     Edge 34, Type (0, 1), BuildingBlock: XUDNAN_clean_linker_2, # of connection points: 2
#     Edge 35, Type (0, 1), BuildingBlock: XUDNAN_clean_linker_2, # of connection points: 2
#     Edge 36, Type (0, 1), BuildingBlock: XUDNAN_clean_linker_2, # of connection points: 2
#     Edge 37, Type (0, 1), BuildingBlock: XUDNAN_clean_linker_2, # of connection points: 2
#     Edge 38, Type (0, 1), BuildingBlock: XUDNAN_clean_linker_2, # of connection points: 2
#     Edge 39, Type (0, 1), BuildingBlock: XUDNAN_clean_linker_2, # of connection points: 2
#     Edge 40, Type (0, 1), BuildingBlock: XUDNAN_clean_linker_2, # of connection points: 2
#     Edge 41, Type (0, 1), BuildingBlock: XUDNAN_clean_linker_2, # of connection points: 2
#     Edge 42, Type (0, 1), BuildingBlock: XUDNAN_clean_linker_2, # of connection points: 2
#     Edge 43, Type (0, 1), BuildingBlock: XUDNAN_clean_linker_2, # of connection points: 2
#     Edge 44, Type (0, 1), BuildingBlock: XUDNAN_clean_linker_2, # of connection points: 2
#     Edge 45, Type (0, 1), BuildingBlock: XUDNAN_clean_linker_2, # of connection points: 2
#     Edge 46, Type (0, 1), BuildingBlock: XUDNAN_clean_linker_2, # of connection points: 2
#     Edge 47, Type (0, 1), BuildingBlock: XUDNAN_clean_linker_2, # of connection points: 2
#     Edge 48, Type (0, 1), BuildingBlock: XUDNAN_clean_linker_2, # of connection points: 2
#     Edge 49, Type (0, 1), BuildingBlock: XUDNAN_clean_linker_2, # of connection points: 2
#     Edge 50, Type (0, 1), BuildingBlock: XUDNAN_clean_linker_2, # of connection points: 2
#     Edge 51, Type (0, 1), BuildingBlock: XUDNAN_clean_linker_2, # of connection points: 2
#     Edge 52, Type (0, 1), BuildingBlock: XUDNAN_clean_linker_2, # of connection points: 2
#     Edge 53, Type (0, 1), BuildingBlock: XUDNAN_clean_linker_2, # of connection points: 2
#     Edge 54, Type (0, 1), BuildingBlock: XUDNAN_clean_linker_2, # of connection points: 2
#     Edge 55, Type (0, 1), BuildingBlock: XUDNAN_clean_linker_2, # of connection points: 2
#     Edge 56, Type (0, 1), BuildingBlock: XUDNAN_clean_linker_2, # of connection points: 2
#     Edge 57, Type (0, 1), BuildingBlock: XUDNAN_clean_linker_2, # of connection points: 2
#     Edge 58, Type (0, 1), BuildingBlock: XUDNAN_clean_linker_2, # of connection points: 2
#     Edge 59, Type (0, 1), BuildingBlock: XUDNAN_clean_linker_2, # of connection points: 2
#     Edge 60, Type (0, 1), BuildingBlock: XUDNAN_clean_linker_2, # of connection points: 2
#     Edge 61, Type (0, 1), BuildingBlock: XUDNAN_clean_linker_2, # of connection points: 2
#     Edge 62, Type (0, 1), BuildingBlock: XUDNAN_clean_linker_2, # of connection points: 2
#     Edge 63, Type (0, 1), BuildingBlock: XUDNAN_clean_linker_2, # of connection points: 2
#     Edge 64, Type (0, 1), BuildingBlock: XUDNAN_clean_linker_2, # of connection points: 2
#     Edge 65, Type (0, 1), BuildingBlock: XUDNAN_clean_linker_2, # of connection points: 2
#     Edge 66, Type (0, 1), BuildingBlock: XUDNAN_clean_linker_2, # of connection points: 2
#     Edge 67, Type (0, 1), BuildingBlock: XUDNAN_clean_linker_2, # of connection points: 2
#     Edge 68, Type (0, 1), BuildingBlock: XUDNAN_clean_linker_2, # of connection points: 2
#     Edge 69, Type (0, 1), BuildingBlock: XUDNAN_clean_linker_2, # of connection points: 2
#     Edge 70, Type (0, 1), BuildingBlock: XUDNAN_clean_linker_2, # of connection points: 2
#     Edge 71, Type (0, 1), BuildingBlock: XUDNAN_clean_linker_2, # of connection points: 2
#     Edge 72, Type (0, 1), BuildingBlock: XUDNAN_clean_linker_2, # of connection points: 2
#     Edge 73, Type (0, 1), BuildingBlock: XUDNAN_clean_linker_2, # of connection points: 2
#     Edge 74, Type (0, 1), BuildingBlock: XUDNAN_clean_linker_2, # of connection points: 2
#     Edge 75, Type (0, 1), BuildingBlock: XUDNAN_clean_linker_2, # of connection points: 2
#     Edge 76, Type (0, 1), BuildingBlock: XUDNAN_clean_linker_2, # of connection points: 2
#     Edge 77, Type (0, 1), BuildingBlock: XUDNAN_clean_linker_2, # of connection points: 2
#     Edge 78, Type (0, 1), BuildingBlock: XUDNAN_clean_linker_2, # of connection points: 2
#     Edge 79, Type (0, 1), BuildingBlock: XUDNAN_clean_linker_2, # of connection points: 2
#     Edge 80, Type (0, 1), BuildingBlock: XUDNAN_clean_linker_2, # of connection points: 2
# Relax obj value: 0.009
# Max RMSD: 0.096
# Mean RMSD: 0.061
data_MOF--net-eea--node1-KUMBUR_clean_sbu_0--node2-VETTIZ_charged_linker_0--edge1-XUDNAN_clean_linker_2
_symmetry_space_group_name_H-M    P1
_symmetry_Int_Tables_number       1
_symmetry_cell_setting            triclinic
loop_
_symmetry_equiv_pos_as_xyz
'x, y, z'
_cell_length_a     61.795946
_cell_length_b     63.157771
_cell_length_c     88.104376
_cell_angle_alpha  90.203171
_cell_angle_beta   90.113142
_cell_angle_gamma 119.87136
loop_
_atom_site_label
_atom_site_type_symbol
_atom_site_fract_x
_atom_site_fract_y
_atom_site_fract_z
_atom_type_partial_charge
C0 C 0.23219 0.16955 0.3904 0.0
C1 C 0.23556 0.19192 0.39585 0.0
C2 C 0.24256 0.19838 0.41116 0.0
C3 C 0.24289 0.16056 0.41517 0.0
C4 C 0.23585 0.15424 0.40019 0.0
C5 C 0.23274 0.12978 0.39611 0.0
H6 H 0.24353 0.03215 0.41536 0.0
C7 C 0.24518 0.14052 0.42222 0.0
C8 C 0.23913 0.12242 0.41109 0.0
H9 H 0.22038 0.04714 0.37231 0.0
H10 H 0.22305 0.08373 0.38274 0.0
H11 H 0.28683 0.0876 0.42274 0.0
H12 H 0.20961 0.04568 0.43555 0.0
H13 H 0.22538 0.06461 0.4511 0.0
H14 H 0.23332 0.04202 0.44492 0.0
H15 H 0.27493 0.06194 0.43532 0.0
H16 H 0.28462 0.09221 0.44226 0.0
C17 C 0.25199 0.13374 0.38359 0.0
C18 C 0.20512 0.11256 0.39148 0.0
C19 C 0.27333 0.1471 0.47727 0.0
C20 C 0.27709 0.13133 0.48681 0.0
C21 C 0.27239 0.10859 0.48094 0.0
C22 C 0.2645 0.10184 0.4659 0.0
C23 C 0.26113 0.1179 0.45651 0.0
C24 C 0.26528 0.13999 0.46226 0.0
C25 C 0.26008 0.15441 0.45068 0.0
C26 C 0.25227 0.13736 0.43704 0.0
C27 C 0.25311 0.11608 0.44051 0.0
C28 C 0.28466 0.17858 0.44778 0.0
C29 C 0.23842 0.15782 0.45661 0.0
C30 C 0.23915 0.04342 0.40819 0.0
C31 C 0.23201 0.03696 0.39295 0.0
C32 C 0.22587 0.05173 0.38408 0.0
C33 C 0.2276 0.07306 0.39015 0.0
C34 C 0.23551 0.07969 0.40527 0.0
C35 C 0.24067 0.06473 0.41411 0.0
C36 C 0.24812 0.07435 0.43005 0.0
C37 C 0.2472 0.0979 0.42919 0.0
C38 C 0.24 0.10098 0.41462 0.0
C39 C 0.27497 0.0792 0.4329 0.0
C40 C 0.22829 0.05575 0.44108 0.0
H41 H 0.25169 0.18883 0.43234 0.0
H42 H 0.22638 0.16384 0.37878 0.0
H43 H 0.19242 0.11734 0.39764 0.0
H44 H 0.19841 0.09329 0.39448 0.0
H45 H 0.20225 0.11375 0.37913 0.0
H46 H 0.26998 0.15082 0.38574 0.0
H47 H 0.2451 0.13535 0.37224 0.0
H48 H 0.2569 0.11919 0.38316 0.0
H49 H 0.27688 0.16477 0.4813 0.0
H50 H 0.27453 0.0958 0.48805 0.0
H51 H 0.26133 0.08434 0.46217 0.0
H52 H 0.30083 0.17541 0.44758 0.0
H53 H 0.28819 0.19221 0.45685 0.0
H54 H 0.28498 0.18673 0.43667 0.0
H55 H 0.22466 0.14145 0.46299 0.0
H56 H 0.22749 0.15989 0.44739 0.0
H57 H 0.24543 0.1738 0.46439 0.0
H58 H 0.2454 0.2156 0.41562 0.0
C59 C 0.24628 0.18286 0.42084 0.0
C60 C 0.96347 0.1655 0.39306 0.0
C61 C 0.98131 0.18952 0.39714 0.0
C62 C 0.97801 0.19951 0.41069 0.0
C63 C 0.94012 0.16141 0.41611 0.0
C64 C 0.94302 0.15194 0.40258 0.0
C65 C 0.92214 0.12635 0.3997 0.0
H66 H 0.81453 0.02837 0.42261 0.0
C67 C 0.91718 0.14229 0.42352 0.0
C68 C 0.90648 0.1218 0.41385 0.0
H69 H 0.85558 0.03655 0.38124 0.0
H70 H 0.8862 0.07747 0.38865 0.0
H71 H 0.86203 0.05155 0.444 0.0
H72 H 0.82132 0.08267 0.4231 0.0
H73 H 0.82795 0.0934 0.44193 0.0
H74 H 0.80895 0.0611 0.43834 0.0
H75 H 0.83247 0.04598 0.45111 0.0
H76 H 0.86143 0.07207 0.45722 0.0
C77 C 0.93345 0.1093 0.39885 0.0
C78 C 0.90808 0.12653 0.38515 0.0
C79 C 0.89269 0.15705 0.47612 0.0
C80 C 0.87267 0.14253 0.48587 0.0
C81 C 0.85482 0.11878 0.48106 0.0
C82 C 0.85675 0.10972 0.46688 0.0
C83 C 0.87678 0.12446 0.45728 0.0
C84 C 0.89437 0.14769 0.46196 0.0
C85 C 0.91432 0.16075 0.45019 0.0
C86 C 0.90588 0.14145 0.43775 0.0
C87 C 0.88384 0.12025 0.44198 0.0
C88 C 0.93966 0.16643 0.45718 0.0
C89 C 0.91325 0.1836 0.44494 0.0
C90 C 0.83019 0.03884 0.41517 0.0
C91 C 0.83247 0.02902 0.40127 0.0
C92 C 0.85303 0.04364 0.39188 0.0
C93 C 0.87096 0.06742 0.39627 0.0
C94 C 0.86849 0.07681 0.41025 0.0
C95 C 0.84835 0.06256 0.41943 0.0
C96 C 0.84902 0.07534 0.43403 0.0
C97 C 0.87275 0.09974 0.43202 0.0
C98 C 0.88403 0.1005 0.41806 0.0
C99 C 0.85117 0.06053 0.44737 0.0
C100 C 0.82557 0.07823 0.43454 0.0
H101 H 0.95631 0.1941 0.43047 0.0
H102 H 0.96532 0.15745 0.38261 0.0
H103 H 0.90791 0.14401 0.38414 0.0
H104 H 0.88818 0.11228 0.38515 0.0
H105 H 0.9171 0.12445 0.3748 0.0
H106 H 0.94901 0.1151 0.40715 0.0
H107 H 0.94102 0.10965 0.38737 0.0
H108 H 0.92 0.09022 0.40185 0.0
H109 H 0.90685 0.17531 0.47944 0.0
H110 H 0.83897 0.10731 0.48815 0.0
H111 H 0.84242 0.0916 0.4639 0.0
H112 H 0.93761 0.15054 0.46377 0.0
H113 H 0.94687 0.18234 0.46503 0.0
H114 H 0.95402 0.17001 0.44859 0.0
H115 H 0.89379 0.18026 0.44523 0.0
H116 H 0.91919 0.18854 0.43304 0.0
H117 H 0.9248 0.19955 0.4524 0.0
H118 H 0.99158 0.21796 0.41409 0.0
C119 C 0.9576 0.18558 0.42022 0.0
C120 C 0.96393 0.80288 0.39655 0.0
C121 C 0.98262 0.79791 0.40159 0.0
C122 C 0.97936 0.78604 0.41563 0.0
C123 C 0.9396 0.78441 0.41937 0.0
C124 C 0.94252 0.79573 0.4055 0.0
C125 C 0.92025 0.79846 0.40155 0.0
H126 H 0.80188 0.7723 0.41771 0.0
C127 C 0.91522 0.77912 0.42583 0.0
C128 C 0.90363 0.78709 0.41534 0.0
H129 H 0.84595 0.8106 0.37868 0.0
H130 H 0.8814 0.80874 0.38904 0.0
H131 H 0.81997 0.73284 0.42125 0.0
H132 H 0.84599 0.80351 0.44168 0.0
H133 H 0.84897 0.78525 0.45554 0.0
H134 H 0.81841 0.77692 0.44822 0.0
H135 H 0.802 0.73921 0.43462 0.0
H136 H 0.82435 0.73066 0.44084 0.0
C137 C 0.90829 0.78361 0.38687 0.0
C138 C 0.92909 0.82602 0.40023 0.0
C139 C 0.88963 0.74123 0.47851 0.0
C140 C 0.86829 0.73423 0.48755 0.0
C141 C 0.84859 0.73683 0.48145 0.0
C142 C 0.85018 0.7464 0.46686 0.0
C143 C 0.87172 0.75358 0.45809 0.0
C144 C 0.89094 0.75082 0.46393 0.0
C145 C 0.9123 0.7592 0.45292 0.0
C146 C 0.90309 0.76818 0.43973 0.0
C147 C 0.87924 0.76473 0.44279 0.0
C148 C 0.91489 0.73682 0.44841 0.0
C149 C 0.93588 0.78028 0.46047 0.0
C150 C 0.81923 0.78036 0.41145 0.0
C151 C 0.82112 0.79142 0.3973 0.0
C152 C 0.8441 0.80204 0.3896 0.0
C153 C 0.86456 0.80073 0.39558 0.0
C154 C 0.86212 0.78882 0.4095 0.0
C155 C 0.83992 0.77952 0.41738 0.0
C156 C 0.84106 0.76878 0.4324 0.0
C157 C 0.86717 0.7721 0.43196 0.0
C158 C 0.87941 0.78362 0.41843 0.0
C159 C 0.82073 0.74145 0.43243 0.0
C160 C 0.83831 0.78418 0.4452 0.0
H161 H 0.95697 0.77062 0.43514 0.0
H162 H 0.96572 0.81173 0.38575 0.0
H163 H 0.9439 0.83678 0.40876 0.0
H164 H 0.9141 0.83023 0.40261 0.0
H165 H 0.93691 0.83302 0.38881 0.0
H166 H 0.90785 0.76579 0.38721 0.0
H167 H 0.91911 0.79364 0.37671 0.0
H168 H 0.88871 0.77895 0.38529 0.0
H169 H 0.90498 0.73916 0.48263 0.0
H170 H 0.83205 0.73193 0.48811 0.0
H171 H 0.83456 0.74795 0.46298 0.0
H172 H 0.89661 0.71959 0.44896 0.0
H173 H 0.92801 0.7348 0.4561 0.0
H174 H 0.92104 0.73764 0.43654 0.0
H175 H 0.93122 0.79307 0.46642 0.0
H176 H 0.95053 0.79157 0.45225 0.0
H177 H 0.9439 0.77317 0.46899 0.0
H178 H 0.99351 0.78218 0.41985 0.0
C179 C 0.95813 0.77941 0.42454 0.0
C180 C 0.16787 0.2063 0.62043 0.0
C181 C 0.19099 0.21136 0.61438 0.0
C182 C 0.19807 0.2227 0.60007 0.0
C183 C 0.15874 0.22258 0.59784 0.0
C184 C 0.15224 0.21215 0.61208 0.0
C185 C 0.12717 0.20795 0.61704 0.0
H186 H 0.02281 0.21429 0.60302 0.0
C187 C 0.13788 0.2257 0.59209 0.0
C188 C 0.11947 0.21734 0.60341 0.0
H189 H 0.04098 0.18635 0.64282 0.0
H190 H 0.08056 0.19598 0.63192 0.0
H191 H 0.0787 0.26189 0.59786 0.0
H192 H 0.04153 0.18885 0.57958 0.0
H193 H 0.05892 0.2084 0.56478 0.0
H194 H 0.03416 0.21155 0.57334 0.0
H195 H 0.05311 0.25113 0.5847 0.0
H196 H 0.08485 0.26378 0.57827 0.0
C197 C 0.13104 0.2237 0.63142 0.0
C198 C 0.10976 0.18012 0.6193 0.0
C199 C 0.13971 0.25638 0.53823 0.0
C200 C 0.12242 0.25991 0.5297 0.0
C201 C 0.10035 0.25608 0.53687 0.0
C202 C 0.09522 0.24831 0.55198 0.0
C203 C 0.11226 0.24418 0.56019 0.0
C204 C 0.13421 0.24845 0.55338 0.0
C205 C 0.15008 0.24308 0.56397 0.0
C206 C 0.13378 0.2344 0.57808 0.0
C207 C 0.11161 0.23512 0.57578 0.0
C208 C 0.17481 0.26715 0.56693 0.0
C209 C 0.1535 0.22255 0.55679 0.0
C210 C 0.03551 0.21055 0.60941 0.0
C211 C 0.0288 0.1996 0.62383 0.0
C212 C 0.04564 0.19462 0.63168 0.0
C213 C 0.06868 0.2003 0.62533 0.0
C214 C 0.07503 0.21092 0.61085 0.0
C215 C 0.05856 0.21583 0.60311 0.0
C216 C 0.06813 0.22618 0.58757 0.0
C217 C 0.09321 0.22706 0.5874 0.0
C218 C 0.09713 0.21815 0.60109 0.0
C219 C 0.07127 0.25206 0.58691 0.0
C220 C 0.04978 0.20803 0.5756 0.0
H221 H 0.18835 0.23655 0.58084 0.0
H222 H 0.16202 0.19796 0.63149 0.0
H223 H 0.11414 0.16944 0.61103 0.0
H224 H 0.08989 0.17414 0.61724 0.0
H225 H 0.11188 0.17446 0.63088 0.0
H226 H 0.14893 0.24133 0.63081 0.0
H227 H 0.13167 0.21413 0.64182 0.0
H228 H 0.11659 0.22897 0.63277 0.0
H229 H 0.15683 0.2591 0.53312 0.0
H230 H 0.08693 0.25914 0.53076 0.0
H231 H 0.07803 0.24565 0.55665 0.0
H232 H 0.17164 0.28302 0.5672 0.0
H233 H 0.18865 0.27054 0.55789 0.0
H234 H 0.18316 0.26749 0.57809 0.0
H235 H 0.13561 0.20809 0.55181 0.0
H236 H 0.1591 0.21312 0.56508 0.0
H237 H 0.16756 0.2298 0.54756 0.0
H238 H 0.21575 0.22672 0.59513 0.0
C239 C 0.18207 0.22826 0.59176 0.0
C240 C 0.78002 0.82505 0.62139 0.0
C241 C 0.77417 0.80252 0.6148 0.0
C242 C 0.76651 0.79797 0.59949 0.0
C243 C 0.76927 0.83748 0.59779 0.0
C244 C 0.77726 0.84214 0.61272 0.0
C245 C 0.7812 0.86642 0.61816 0.0
H246 H 0.77097 0.96667 0.60555 0.0
C247 C 0.76719 0.8584 0.59219 0.0
C248 C 0.77412 0.87543 0.60405 0.0
H249 H 0.7967 0.94722 0.64606 0.0
H250 H 0.79218 0.91133 0.63362 0.0
H251 H 0.80334 0.95289 0.58228 0.0
H252 H 0.72677 0.91252 0.59704 0.0
H253 H 0.72757 0.90899 0.57726 0.0
H254 H 0.7383 0.93896 0.58513 0.0
H255 H 0.78022 0.96008 0.57576 0.0
H256 H 0.78484 0.93711 0.56648 0.0
C257 C 0.80917 0.88275 0.62231 0.0
C258 C 0.76294 0.86166 0.63146 0.0
C259 C 0.73718 0.85673 0.53841 0.0
C260 C 0.73312 0.87311 0.52977 0.0
C261 C 0.73719 0.89504 0.53662 0.0
C262 C 0.74544 0.90061 0.55174 0.0
C263 C 0.74963 0.88407 0.56015 0.0
C264 C 0.74548 0.86258 0.5534 0.0
C265 C 0.7509 0.8471 0.56389 0.0
C266 C 0.75929 0.86293 0.57804 0.0
C267 C 0.7584 0.88451 0.57586 0.0
C268 C 0.7723 0.84419 0.55692 0.0
C269 C 0.72623 0.82275 0.56644 0.0
C270 C 0.77581 0.95476 0.61168 0.0
C271 C 0.78379 0.95961 0.62691 0.0
C272 C 0.78991 0.94362 0.63446 0.0
C273 C 0.7874 0.92281 0.62719 0.0
C274 C 0.77865 0.91777 0.61216 0.0
C275 C 0.7734 0.93379 0.60455 0.0
C276 C 0.7648 0.92556 0.5885 0.0
C277 C 0.76526 0.90174 0.5879 0.0
C278 C 0.77327 0.89727 0.60185 0.0
C279 C 0.78409 0.94488 0.57758 0.0
C280 C 0.73801 0.92138 0.58674 0.0
H281 H 0.75798 0.81063 0.57941 0.0
H282 H 0.78577 0.82895 0.63317 0.0
H283 H 0.74477 0.84474 0.6294 0.0
H284 H 0.7581 0.87617 0.63288 0.0
H285 H 0.77064 0.85934 0.64233 0.0
H286 H 0.82116 0.87864 0.61488 0.0
H287 H 0.81287 0.87981 0.63424 0.0
H288 H 0.81596 0.9024 0.62057 0.0
H289 H 0.73378 0.8395 0.53365 0.0
H290 H 0.73439 0.90808 0.5302 0.0
H291 H 0.74831 0.91761 0.5563 0.0
H292 H 0.78602 0.86121 0.55106 0.0
H293 H 0.765 0.82913 0.54844 0.0
H294 H 0.78337 0.84099 0.56552 0.0
H295 H 0.70983 0.82556 0.56604 0.0
H296 H 0.72522 0.81481 0.57775 0.0
H297 H 0.72343 0.80906 0.55758 0.0
H298 H 0.76223 0.78085 0.59412 0.0
C299 C 0.7641 0.81532 0.59095 0.0
C300 C 0.03692 0.83909 0.61872 0.0
C301 C 0.01918 0.81675 0.61231 0.0
C302 C 0.02387 0.80992 0.59796 0.0
C303 C 0.06344 0.84791 0.59658 0.0
C304 C 0.05888 0.85412 0.61081 0.0
C305 C 0.08016 0.87768 0.61661 0.0
H306 H 0.19677 0.97271 0.60811 0.0
C307 C 0.08827 0.86765 0.5916 0.0
C308 C 0.09818 0.88491 0.60344 0.0
H309 H 0.14681 0.95588 0.64624 0.0
H310 H 0.11515 0.9208 0.63306 0.0
H311 H 0.18319 0.91729 0.60016 0.0
H312 H 0.15576 0.96337 0.58341 0.0
H313 H 0.15434 0.9451 0.56798 0.0
H314 H 0.18419 0.96584 0.57651 0.0
H315 H 0.20133 0.94389 0.58877 0.0
H316 H 0.18116 0.91452 0.58023 0.0
C317 C 0.09061 0.87208 0.63116 0.0
C318 C 0.07057 0.89595 0.61893 0.0
C319 C 0.12057 0.86741 0.53831 0.0
C320 C 0.14238 0.88424 0.53061 0.0
C321 C 0.16067 0.90485 0.53857 0.0
C322 C 0.15717 0.90903 0.55373 0.0
C323 C 0.1351 0.89249 0.56115 0.0
C324 C 0.11726 0.87198 0.55353 0.0
C325 C 0.09494 0.85656 0.56339 0.0
C326 C 0.10206 0.87167 0.57795 0.0
C327 C 0.12573 0.8926 0.57655 0.0
C328 C 0.09331 0.83154 0.56581 0.0
C329 C 0.07158 0.85491 0.55577 0.0
C330 C 0.17896 0.96154 0.61358 0.0
C331 C 0.1746 0.96691 0.62842 0.0
C332 C 0.15105 0.95186 0.63503 0.0
C333 C 0.13252 0.9315 0.62729 0.0
C334 C 0.13736 0.92599 0.61268 0.0
C335 C 0.16009 0.94108 0.60594 0.0
C336 C 0.16139 0.93268 0.59011 0.0
C337 C 0.13601 0.90963 0.58874 0.0
C338 C 0.12216 0.90585 0.60202 0.0
C339 C 0.18296 0.92688 0.58964 0.0
C340 C 0.16424 0.95272 0.57884 0.0
H341 H 0.04833 0.81944 0.57908 0.0
H342 H 0.03402 0.84452 0.62987 0.0
H343 H 0.05654 0.89334 0.6101 0.0
H344 H 0.08541 0.91521 0.61778 0.0
H345 H 0.06152 0.89343 0.63017 0.0
H346 H 0.0883 0.85346 0.63065 0.0
H347 H 0.08077 0.87302 0.64145 0.0
H348 H 0.11089 0.88433 0.63268 0.0
H349 H 0.10616 0.8514 0.53252 0.0
H350 H 0.17787 0.91781 0.53306 0.0
H351 H 0.1718 0.92511 0.55906 0.0
H352 H 0.11225 0.83356 0.56631 0.0
H353 H 0.08292 0.8187 0.55639 0.0
H354 H 0.08457 0.82305 0.57672 0.0
H355 H 0.0757 0.87315 0.55161 0.0
H356 H 0.05571 0.8489 0.56359 0.0
H357 H 0.06547 0.84223 0.54589 0.0
H358 H 0.01039 0.79267 0.59287 0.0
C359 C 0.04584 0.82548 0.59001 0.0
C360 C 0.89299 0.50526 0.72935 0.0
C361 C 0.90045 0.52828 0.7358 0.0
C362 C 0.90979 0.53314 0.75079 0.0
C363 C 0.90457 0.49264 0.75258 0.0
C364 C 0.89538 0.48783 0.73788 0.0
C365 C 0.88918 0.46272 0.73262 0.0
H366 H 0.88216 0.3547 0.74863 0.0
C367 C 0.90492 0.47087 0.75829 0.0
C368 C 0.89605 0.45329 0.7466 0.0
H369 H 0.86127 0.37533 0.70675 0.0
H370 H 0.87475 0.41571 0.71706 0.0
H371 H 0.93348 0.40563 0.75404 0.0
H372 H 0.85823 0.3755 0.76986 0.0
H373 H 0.87714 0.39255 0.78514 0.0
H374 H 0.87942 0.36695 0.77792 0.0
H375 H 0.91977 0.3815 0.7677 0.0
H376 H 0.93542 0.41319 0.77339 0.0
C377 C 0.90607 0.46548 0.71893 0.0
C378 C 0.86087 0.44796 0.72913 0.0
C379 C 0.93213 0.46886 0.81273 0.0
C380 C 0.9329 0.45042 0.82124 0.0
C381 C 0.92662 0.42806 0.81414 0.0
C382 C 0.9193 0.42389 0.7989 0.0
C383 C 0.91802 0.44217 0.79061 0.0
C384 C 0.92446 0.46425 0.79748 0.0
C385 C 0.92142 0.48125 0.78685 0.0
C386 C 0.91197 0.46561 0.77255 0.0
C387 C 0.91013 0.44283 0.77488 0.0
C388 C 0.94742 0.5041 0.78448 0.0
C389 C 0.90162 0.48674 0.79364 0.0
C390 C 0.88036 0.36784 0.74167 0.0
C391 C 0.87033 0.36175 0.72694 0.0
C392 C 0.86892 0.37962 0.71814 0.0
C393 C 0.87661 0.40296 0.72419 0.0
C394 C 0.88586 0.40845 0.73917 0.0
C395 C 0.88781 0.39102 0.74753 0.0
C396 C 0.89766 0.39959 0.76326 0.0
C397 C 0.90131 0.42512 0.76308 0.0
C398 C 0.89438 0.43029 0.74898 0.0
C399 C 0.92282 0.3999 0.76484 0.0
C400 C 0.87728 0.38281 0.77473 0.0
H401 H 0.91915 0.52035 0.77052 0.0
H402 H 0.88601 0.50112 0.7178 0.0
H403 H 0.85015 0.45204 0.73765 0.0
H404 H 0.85318 0.42804 0.72973 0.0
H405 H 0.85668 0.45261 0.71776 0.0
H406 H 0.92496 0.48173 0.7204 0.0
H407 H 0.89806 0.46781 0.70819 0.0
H408 H 0.90939 0.44993 0.71767 0.0
H409 H 0.93676 0.48618 0.81793 0.0
H410 H 0.92744 0.41375 0.82041 0.0
H411 H 0.91472 0.40644 0.79424 0.0
H412 H 0.96236 0.49915 0.7846 0.0
H413 H 0.95174 0.51784 0.7936 0.0
H414 H 0.94924 0.51279 0.77333 0.0
H415 H 0.88632 0.47017 0.79908 0.0
H416 H 0.89225 0.49204 0.78502 0.0
H417 H 0.90999 0.5013 0.80244 0.0
H418 H 0.91541 0.55067 0.75605 0.0
C419 C 0.91187 0.51548 0.75919 0.0
C420 C 0.63538 0.50231 0.73001 0.0
C421 C 0.65166 0.52627 0.73485 0.0
C422 C 0.64836 0.53388 0.74929 0.0
C423 C 0.612 0.49407 0.75354 0.0
C424 C 0.61557 0.48669 0.73941 0.0
C425 C 0.59497 0.4616 0.73522 0.0
H426 H 0.48056 0.36574 0.74851 0.0
C427 C 0.58851 0.47403 0.75989 0.0
C428 C 0.5784 0.45509 0.74912 0.0
H429 H 0.52905 0.379 0.71005 0.0
H430 H 0.56137 0.41498 0.72208 0.0
H431 H 0.52599 0.38058 0.77386 0.0
H432 H 0.4939 0.42147 0.75449 0.0
H433 H 0.49668 0.42602 0.77432 0.0
H434 H 0.47682 0.39583 0.76682 0.0
H435 H 0.49573 0.37527 0.77932 0.0
H436 H 0.52386 0.39872 0.78827 0.0
C437 C 0.60645 0.44478 0.73346 0.0
C438 C 0.58189 0.46388 0.72074 0.0
C439 C 0.55971 0.48267 0.81244 0.0
C440 C 0.53877 0.46743 0.82133 0.0
C441 C 0.52032 0.44499 0.81508 0.0
C442 C 0.52291 0.43772 0.80041 0.0
C443 C 0.54415 0.45303 0.79179 0.0
C444 C 0.56204 0.47515 0.79783 0.0
C445 C 0.58323 0.48928 0.78702 0.0
C446 C 0.57563 0.47162 0.77372 0.0
C447 C 0.55259 0.45044 0.77649 0.0
C448 C 0.60767 0.49339 0.79457 0.0
C449 C 0.58332 0.51313 0.78275 0.0
C450 C 0.49825 0.37637 0.74279 0.0
C451 C 0.50198 0.36988 0.72809 0.0
C452 C 0.52539 0.38399 0.72114 0.0
C453 C 0.54424 0.4049 0.72818 0.0
C454 C 0.53983 0.41204 0.7424 0.0
C455 C 0.51748 0.39757 0.74973 0.0
C456 C 0.5169 0.40793 0.76511 0.0
C457 C 0.54206 0.43148 0.76536 0.0
C458 C 0.55519 0.43373 0.75192 0.0
C459 C 0.51537 0.38973 0.77737 0.0
C460 C 0.49487 0.41302 0.76535 0.0
H461 H 0.62707 0.52474 0.76954 0.0
H462 H 0.63723 0.49628 0.7188 0.0
H463 H 0.58194 0.48152 0.72066 0.0
H464 H 0.56197 0.44989 0.71996 0.0
H465 H 0.59151 0.4631 0.7103 0.0
H466 H 0.62257 0.45044 0.7413 0.0
H467 H 0.61329 0.44542 0.72173 0.0
H468 H 0.59328 0.4256 0.7365 0.0
H469 H 0.57402 0.50023 0.81672 0.0
H470 H 0.50408 0.43279 0.82167 0.0
H471 H 0.5083 0.42041 0.79635 0.0
H472 H 0.60463 0.47645 0.80029 0.0
H473 H 0.61433 0.5081 0.80328 0.0
H474 H 0.62282 0.49799 0.78636 0.0
H475 H 0.5642 0.51065 0.78323 0.0
H476 H 0.58945 0.51889 0.77096 0.0
H477 H 0.5953 0.52828 0.79063 0.0
H478 H 0.66069 0.55243 0.75311 0.0
C479 C 0.62877 0.51784 0.75873 0.0
C480 C 0.62624 0.13345 0.72775 0.0
C481 C 0.64474 0.12814 0.73259 0.0
C482 C 0.6421 0.11702 0.74685 0.0
C483 C 0.60327 0.11697 0.75121 0.0
C484 C 0.60567 0.12753 0.73713 0.0
C485 C 0.58389 0.1311 0.73344 0.0
H486 H 0.46861 0.111 0.75136 0.0
C487 C 0.57967 0.11304 0.75809 0.0
C488 C 0.56814 0.12114 0.74765 0.0
H489 H 0.51132 0.14538 0.71111 0.0
H490 H 0.54638 0.14272 0.72125 0.0
H491 H 0.48443 0.0701 0.75538 0.0
H492 H 0.51404 0.14219 0.77434 0.0
H493 H 0.51731 0.12443 0.78844 0.0
H494 H 0.4865 0.11656 0.7818 0.0
H495 H 0.46793 0.07818 0.76885 0.0
H496 H 0.48959 0.06868 0.77493 0.0
C497 C 0.57059 0.11548 0.71922 0.0
C498 C 0.59373 0.15879 0.73151 0.0
C499 C 0.55543 0.07785 0.81144 0.0
C500 C 0.53469 0.07213 0.82075 0.0
C501 C 0.51549 0.07577 0.81493 0.0
C502 C 0.51693 0.08499 0.80027 0.0
C503 C 0.5378 0.09074 0.79118 0.0
C504 C 0.55659 0.0871 0.79679 0.0
C505 C 0.57728 0.09412 0.78544 0.0
C506 C 0.56811 0.10319 0.77229 0.0
C507 C 0.5449 0.10103 0.7757 0.0
C508 C 0.57842 0.07087 0.78114 0.0
C509 C 0.60169 0.11485 0.79246 0.0
C510 C 0.4856 0.11802 0.74479 0.0
C511 C 0.48721 0.12816 0.73037 0.0
C512 C 0.50972 0.13752 0.72225 0.0
C513 C 0.52993 0.13574 0.72811 0.0
C514 C 0.52767 0.12462 0.7423 0.0
C515 C 0.50602 0.11664 0.75057 0.0
C516 C 0.50734 0.10644 0.76574 0.0
C517 C 0.53291 0.10857 0.76495 0.0
C518 C 0.54464 0.11897 0.75113 0.0
C519 C 0.48618 0.07946 0.76642 0.0
C520 C 0.50607 0.12304 0.77831 0.0
H521 H 0.62079 0.10326 0.76693 0.0
H522 H 0.62757 0.14172 0.71679 0.0
H523 H 0.60969 0.16971 0.73933 0.0
H524 H 0.57968 0.16405 0.73447 0.0
H525 H 0.60031 0.16475 0.71975 0.0
H526 H 0.56976 0.09749 0.71976 0.0
H527 H 0.5807 0.12474 0.7087 0.0
H528 H 0.55101 0.11108 0.71814 0.0
H529 H 0.57038 0.075 0.8154 0.0
H530 H 0.49946 0.07188 0.82183 0.0
H531 H 0.50171 0.08734 0.7966 0.0
H532 H 0.55962 0.05428 0.78175 0.0
H533 H 0.59095 0.06814 0.78894 0.0
H534 H 0.58448 0.07115 0.76931 0.0
H535 H 0.5981 0.12835 0.79842 0.0
H536 H 0.61606 0.12543 0.78392 0.0
H537 H 0.60964 0.10751 0.80088 0.0
H538 H 0.65618 0.11294 0.7509 0.0
C539 C 0.62158 0.11152 0.75618 0.0
C540 C 0.83271 0.54033 0.95422 0.0
C541 C 0.85574 0.54477 0.9484 0.0
C542 C 0.86367 0.55664 0.93427 0.0
C543 C 0.82546 0.55859 0.93188 0.0
C544 C 0.8181 0.54754 0.94591 0.0
C545 C 0.79352 0.54466 0.95081 0.0
H546 H 0.69262 0.557 0.93689 0.0
C547 C 0.80563 0.56338 0.92617 0.0
C548 C 0.78705 0.55547 0.93737 0.0
H549 H 0.70862 0.52672 0.97639 0.0
H550 H 0.74802 0.53545 0.96573 0.0
H551 H 0.75018 0.60373 0.93225 0.0
H552 H 0.71034 0.53122 0.91321 0.0
H553 H 0.72854 0.55083 0.89865 0.0
H554 H 0.70442 0.55499 0.90723 0.0
H555 H 0.72467 0.59425 0.91915 0.0
H556 H 0.7562 0.60576 0.91263 0.0
C557 C 0.79797 0.55997 0.96549 0.0
C558 C 0.77479 0.51698 0.95256 0.0
C559 C 0.81064 0.59717 0.8728 0.0
C560 C 0.79415 0.60186 0.86426 0.0
C561 C 0.77218 0.59859 0.87128 0.0
C562 C 0.76639 0.59033 0.88628 0.0
C563 C 0.78261 0.58506 0.89451 0.0
C564 C 0.80443 0.58866 0.88782 0.0
C565 C 0.81924 0.58181 0.89836 0.0
C566 C 0.80252 0.57315 0.91229 0.0
C567 C 0.78107 0.57519 0.90997 0.0
C568 C 0.84452 0.60505 0.90176 0.0
C569 C 0.82163 0.5609 0.89084 0.0
C570 C 0.70489 0.55266 0.94328 0.0
C571 C 0.69758 0.54123 0.95753 0.0
C572 C 0.71381 0.53544 0.96539 0.0
C573 C 0.73672 0.54053 0.95916 0.0
C574 C 0.74357 0.55136 0.94476 0.0
C575 C 0.72785 0.55735 0.93707 0.0
C576 C 0.73801 0.5679 0.92164 0.0
C577 C 0.7625 0.56755 0.92149 0.0
C578 C 0.76556 0.5578 0.93508 0.0
C579 C 0.74241 0.59426 0.92124 0.0
C580 C 0.71942 0.55057 0.90946 0.0
H581 H 0.85558 0.57218 0.91523 0.0
H582 H 0.82628 0.53167 0.96515 0.0
H583 H 0.77809 0.50618 0.94379 0.0
H584 H 0.75518 0.51226 0.95084 0.0
H585 H 0.77668 0.51031 0.96385 0.0
H586 H 0.81688 0.57648 0.96554 0.0
H587 H 0.79652 0.54921 0.97576 0.0
H588 H 0.78505 0.56723 0.96657 0.0
H589 H 0.82762 0.59938 0.86778 0.0
H590 H 0.75935 0.60244 0.86512 0.0
H591 H 0.74933 0.58815 0.89084 0.0
H592 H 0.84227 0.62145 0.90241 0.0
H593 H 0.85834 0.6083 0.89273 0.0
H594 H 0.85244 0.60435 0.91287 0.0
H595 H 0.80356 0.54723 0.88562 0.0
H596 H 0.82635 0.55059 0.89898 0.0
H597 H 0.83592 0.56801 0.88174 0.0
H598 H 0.88133 0.56024 0.92952 0.0
C599 C 0.84863 0.56346 0.92597 0.0
C600 C 0.45509 0.16379 0.95528 0.0
C601 C 0.44667 0.13953 0.95079 0.0
C602 C 0.43572 0.1316 0.93634 0.0
C603 C 0.4405 0.17137 0.93133 0.0
C604 C 0.45159 0.1793 0.94544 0.0
C605 C 0.45782 0.20515 0.94873 0.0
H606 H 0.45143 0.30477 0.92726 0.0
C607 C 0.43854 0.19145 0.92415 0.0
C608 C 0.4486 0.21132 0.93431 0.0
H609 H 0.48438 0.29562 0.96833 0.0
H610 H 0.47399 0.25506 0.96017 0.0
H611 H 0.47667 0.28471 0.90568 0.0
H612 H 0.40365 0.25027 0.92566 0.0
H613 H 0.40018 0.24158 0.90641 0.0
H614 H 0.41368 0.27338 0.91133 0.0
H615 H 0.45194 0.2884 0.89788 0.0
H616 H 0.45665 0.26349 0.89218 0.0
C617 C 0.48647 0.22103 0.9506 0.0
C618 C 0.44275 0.20488 0.96283 0.0
C619 C 0.39809 0.17902 0.87197 0.0
C620 C 0.39343 0.19428 0.86256 0.0
C621 C 0.40116 0.2183 0.86744 0.0
C622 C 0.41295 0.22686 0.88153 0.0
C623 C 0.41719 0.21132 0.89089 0.0
C624 C 0.41007 0.18793 0.886 0.0
C625 C 0.41638 0.17414 0.89743 0.0
C626 C 0.42844 0.19313 0.90998 0.0
C627 C 0.42864 0.21475 0.90612 0.0
C628 C 0.43521 0.16783 0.89004 0.0
C629 C 0.39169 0.15168 0.90266 0.0
C630 C 0.45671 0.29425 0.93449 0.0
C631 C 0.46882 0.30362 0.94848 0.0
C632 C 0.47478 0.28886 0.95759 0.0
C633 C 0.46888 0.26533 0.95277 0.0
C634 C 0.4569 0.2564 0.93869 0.0
C635 C 0.45123 0.27094 0.92979 0.0
C636 C 0.43934 0.25903 0.91495 0.0
C637 C 0.43844 0.23471 0.91645 0.0
C638 C 0.44854 0.23312 0.93042 0.0
C639 C 0.45683 0.27466 0.90192 0.0
C640 C 0.41286 0.25595 0.9144 0.0
H641 H 0.42407 0.14014 0.91578 0.0
H642 H 0.46334 0.17025 0.9664 0.0
H643 H 0.42366 0.18865 0.96257 0.0
H644 H 0.43984 0.22073 0.96342 0.0
H645 H 0.45198 0.20409 0.97348 0.0
H646 H 0.49628 0.21491 0.94268 0.0
H647 H 0.49239 0.21981 0.96233 0.0
H648 H 0.49355 0.2404 0.94778 0.0
H649 H 0.39257 0.16053 0.8685 0.0
H650 H 0.39753 0.23034 0.86051 0.0
H651 H 0.41805 0.2452 0.88464 0.0
H652 H 0.44865 0.18308 0.88275 0.0
H653 H 0.42548 0.15126 0.88277 0.0
H654 H 0.44692 0.16515 0.89842 0.0
H655 H 0.37614 0.15578 0.90273 0.0
H656 H 0.39259 0.1462 0.91443 0.0
H657 H 0.38619 0.13582 0.89497 0.0
H658 H 0.42927 0.11301 0.93264 0.0
C659 C 0.43272 0.14738 0.92657 0.0
C660 C 0.70918 0.16887 0.95437 0.0
C661 C 0.69094 0.14647 0.94823 0.0
C662 C 0.69479 0.13949 0.9337 0.0
C663 C 0.7342 0.17754 0.93151 0.0
C664 C 0.7306 0.18389 0.94595 0.0
C665 C 0.75208 0.20777 0.95123 0.0
H666 H 0.86622 0.30528 0.93903 0.0
C667 C 0.75838 0.19757 0.92583 0.0
C668 C 0.76895 0.21515 0.93747 0.0
H669 H 0.82087 0.2868 0.97947 0.0
H670 H 0.78836 0.25121 0.96708 0.0
H671 H 0.85374 0.25016 0.93055 0.0
H672 H 0.82228 0.29409 0.91626 0.0
H673 H 0.81926 0.27551 0.90064 0.0
H674 H 0.84998 0.29713 0.90772 0.0
H675 H 0.86995 0.27706 0.91912 0.0
H676 H 0.85 0.24758 0.91068 0.0
C677 C 0.76406 0.20274 0.96527 0.0
C678 C 0.74218 0.22564 0.95421 0.0
C679 C 0.78679 0.19658 0.87148 0.0
C680 C 0.80724 0.21395 0.86301 0.0
C681 C 0.82521 0.23559 0.87022 0.0
C682 C 0.82284 0.24012 0.88551 0.0
C683 C 0.80213 0.22293 0.89378 0.0
C684 C 0.78446 0.20159 0.88679 0.0
C685 C 0.76321 0.18602 0.89734 0.0
C686 C 0.77097 0.20168 0.91167 0.0
C687 C 0.79398 0.22318 0.90951 0.0
C688 C 0.76284 0.1616 0.8998 0.0
C689 C 0.73885 0.18313 0.8904 0.0
C690 C 0.8492 0.29364 0.94516 0.0
C691 C 0.84639 0.29872 0.96038 0.0
C692 C 0.82387 0.28305 0.9679 0.0
C693 C 0.80488 0.26237 0.96064 0.0
C694 C 0.80823 0.25711 0.94562 0.0
C695 C 0.82995 0.27275 0.93805 0.0
C696 C 0.82987 0.26427 0.92202 0.0
C697 C 0.80492 0.24058 0.92147 0.0
C698 C 0.79239 0.23657 0.93533 0.0
C699 C 0.8521 0.25961 0.92035 0.0
C700 C 0.83055 0.28371 0.91101 0.0
H701 H 0.71804 0.14877 0.91424 0.0
H702 H 0.70698 0.17449 0.96562 0.0
H703 H 0.72788 0.22312 0.9456 0.0
H704 H 0.75679 0.24501 0.95328 0.0
H705 H 0.73336 0.22255 0.96557 0.0
H706 H 0.76158 0.18404 0.96482 0.0
H707 H 0.75551 0.20429 0.97598 0.0
H708 H 0.7845 0.21495 0.9659 0.0
H709 H 0.77259 0.17988 0.86618 0.0
H710 H 0.8412 0.24911 0.86397 0.0
H711 H 0.83717 0.25696 0.89027 0.0
H712 H 0.78216 0.16459 0.90033 0.0
H713 H 0.75293 0.14859 0.89036 0.0
H714 H 0.75424 0.15286 0.91067 0.0
H715 H 0.74207 0.20081 0.88574 0.0
H716 H 0.7238 0.17766 0.89879 0.0
H717 H 0.732 0.16956 0.88099 0.0
H718 H 0.68096 0.12226 0.92876 0.0
C719 C 0.71626 0.15495 0.92528 0.0
C720 C 0.55308 0.82886 0.06399 0.0
C721 C 0.5604 0.85308 0.06814 0.0
C722 C 0.57241 0.86202 0.08227 0.0
C723 C 0.56993 0.82318 0.08757 0.0
C724 C 0.55813 0.8144 0.07376 0.0
C725 C 0.55221 0.78857 0.07079 0.0
H726 H 0.55869 0.68945 0.09316 0.0
C727 C 0.57265 0.80358 0.09492 0.0
C728 C 0.56234 0.78327 0.08512 0.0
H729 H 0.5256 0.69838 0.05208 0.0
H730 H 0.53659 0.73912 0.05987 0.0
H731 H 0.60727 0.74412 0.09403 0.0
H732 H 0.5349 0.71238 0.11499 0.0
H733 H 0.5566 0.73273 0.12824 0.0
H734 H 0.55881 0.70664 0.12192 0.0
H735 H 0.59742 0.72158 0.10872 0.0
H736 H 0.61136 0.7536 0.11314 0.0
C737 C 0.56677 0.78858 0.05648 0.0
C738 C 0.5235 0.77223 0.06947 0.0
C739 C 0.61482 0.81871 0.14656 0.0
C740 C 0.62022 0.80423 0.15622 0.0
C741 C 0.6126 0.78001 0.15182 0.0
C742 C 0.60028 0.77055 0.13794 0.0
C743 C 0.59539 0.7854 0.12831 0.0
C744 C 0.60241 0.80897 0.13278 0.0
C745 C 0.59548 0.82206 0.1212 0.0
C746 C 0.58323 0.80251 0.10902 0.0
C747 C 0.58335 0.78112 0.11319 0.0
C748 C 0.61981 0.84445 0.1155 0.0
C749 C 0.57669 0.82841 0.12861 0.0
C750 C 0.5536 0.70004 0.08586 0.0
C751 C 0.54129 0.6905 0.0719 0.0
C752 C 0.53543 0.70526 0.06274 0.0
C753 C 0.54168 0.72893 0.06735 0.0
C754 C 0.55391 0.7381 0.08132 0.0
C755 C 0.55955 0.72366 0.09035 0.0
C756 C 0.57203 0.7362 0.105 0.0
C757 C 0.5732 0.76066 0.10319 0.0
C758 C 0.56267 0.7617 0.08926 0.0
C759 C 0.59838 0.73898 0.10541 0.0
C760 C 0.55493 0.72126 0.11831 0.0
H761 H 0.58646 0.85519 0.10251 0.0
H762 H 0.5435 0.82118 0.05335 0.0
H763 H 0.51385 0.77867 0.0773 0.0
H764 H 0.51681 0.75312 0.0728 0.0
H765 H 0.51694 0.77252 0.05777 0.0
H766 H 0.58546 0.80534 0.05611 0.0
H767 H 0.5566 0.78806 0.04595 0.0
H768 H 0.57067 0.77333 0.05623 0.0
H769 H 0.62013 0.83729 0.14967 0.0
H770 H 0.61674 0.76853 0.15896 0.0
H771 H 0.59527 0.7521 0.13517 0.0
H772 H 0.63539 0.84039 0.11511 0.0
H773 H 0.62565 0.86047 0.1231 0.0
H774 H 0.61824 0.84965 0.10377 0.0
H775 H 0.56374 0.81353 0.13629 0.0
H776 H 0.56444 0.83035 0.12027 0.0
H777 H 0.5865 0.84543 0.13548 0.0
H778 H 0.57861 0.88066 0.08572 0.0
C779 C 0.57714 0.84723 0.09198 0.0
C780 C 0.30092 0.82872 0.06601 0.0
C781 C 0.31985 0.8513 0.07151 0.0
C782 C 0.3169 0.85971 0.08578 0.0
C783 C 0.27652 0.82315 0.08878 0.0
C784 C 0.27945 0.81517 0.07471 0.0
C785 C 0.25697 0.79162 0.06999 0.0
H786 H 0.13854 0.70225 0.08242 0.0
C787 C 0.2517 0.80488 0.09466 0.0
C788 C 0.24012 0.78655 0.08361 0.0
H789 H 0.18543 0.71381 0.04337 0.0
H790 H 0.21945 0.74822 0.05557 0.0
H791 H 0.18367 0.71391 0.10762 0.0
H792 H 0.15596 0.759 0.08887 0.0
H793 H 0.1596 0.76366 0.10866 0.0
H794 H 0.13766 0.73388 0.10132 0.0
H795 H 0.1537 0.70986 0.11266 0.0
H796 H 0.18185 0.73189 0.12229 0.0
C797 C 0.26509 0.77212 0.06819 0.0
C798 C 0.246 0.79647 0.05539 0.0
C799 C 0.22519 0.81524 0.14743 0.0
C800 C 0.20368 0.80129 0.15618 0.0
C801 C 0.18373 0.78004 0.14967 0.0
C802 C 0.18539 0.77262 0.13486 0.0
C803 C 0.20722 0.7866 0.12638 0.0
C804 C 0.22659 0.8076 0.1327 0.0
C805 C 0.24833 0.82036 0.12208 0.0
C806 C 0.23916 0.80326 0.10849 0.0
C807 C 0.21498 0.78351 0.11099 0.0
C808 C 0.27142 0.82125 0.12962 0.0
C809 C 0.25164 0.84576 0.11827 0.0
C810 C 0.15624 0.7122 0.07661 0.0
C811 C 0.15913 0.70563 0.06175 0.0
C812 C 0.1825 0.71887 0.05462 0.0
C813 C 0.20234 0.73887 0.06177 0.0
C814 C 0.19899 0.74594 0.07628 0.0
C815 C 0.17645 0.73251 0.08364 0.0
C816 C 0.17687 0.74291 0.09919 0.0
C817 C 0.20301 0.76519 0.09958 0.0
C818 C 0.21572 0.76671 0.08608 0.0
C819 C 0.1737 0.72371 0.11116 0.0
C820 C 0.15639 0.75017 0.09969 0.0
H821 H 0.29428 0.85302 0.10527 0.0
H822 H 0.30248 0.82204 0.05495 0.0
H823 H 0.24998 0.8157 0.05497 0.0
H824 H 0.22544 0.78545 0.05476 0.0
H825 H 0.25408 0.79315 0.04501 0.0
H826 H 0.27952 0.77491 0.07678 0.0
H827 H 0.27318 0.77309 0.0568 0.0
H828 H 0.2497 0.75333 0.07015 0.0
H829 H 0.24069 0.83191 0.15192 0.0
H830 H 0.16699 0.76885 0.15616 0.0
H831 H 0.16967 0.75622 0.1306 0.0
H832 H 0.26616 0.80356 0.13521 0.0
H833 H 0.27958 0.8358 0.13844 0.0
H834 H 0.28613 0.82418 0.12144 0.0
H835 H 0.23345 0.84539 0.11853 0.0
H836 H 0.25876 0.85181 0.10667 0.0
H837 H 0.26426 0.85983 0.12656 0.0
H838 H 0.33132 0.87708 0.09023 0.0
C839 C 0.29541 0.8457 0.09448 0.0
C840 C 0.29643 0.46087 0.06091 0.0
C841 C 0.31164 0.45171 0.06616 0.0
C842 C 0.30674 0.44042 0.08049 0.0
C843 C 0.27141 0.44681 0.08394 0.0
C844 C 0.27634 0.458 0.06988 0.0
C845 C 0.25703 0.46472 0.06541 0.0
H846 H 0.14805 0.46214 0.08008 0.0
C847 C 0.24854 0.44579 0.09007 0.0
C848 C 0.24002 0.45623 0.07918 0.0
H849 H 0.19452 0.49032 0.04036 0.0
H850 H 0.22455 0.48085 0.05134 0.0
H851 H 0.15577 0.41396 0.08595 0.0
H852 H 0.19033 0.48754 0.10293 0.0
H853 H 0.19459 0.47074 0.1173 0.0
H854 H 0.16336 0.46346 0.11193 0.0
H855 H 0.14039 0.42663 0.09691 0.0
H856 H 0.15729 0.4139 0.106 0.0
C857 C 0.24356 0.45003 0.05091 0.0
C858 C 0.27024 0.49279 0.06355 0.0
C859 C 0.21345 0.40709 0.14182 0.0
C860 C 0.19341 0.40513 0.15065 0.0
C861 C 0.17982 0.416 0.14497 0.0
C862 C 0.18488 0.42709 0.13069 0.0
C863 C 0.20419 0.42805 0.12187 0.0
C864 C 0.21868 0.41891 0.12763 0.0
C865 C 0.2398 0.42363 0.11702 0.0
C866 C 0.23514 0.43659 0.10391 0.0
C867 C 0.21384 0.43857 0.10673 0.0
C868 C 0.23664 0.39871 0.11206 0.0
C869 C 0.26472 0.44053 0.1253 0.0
C870 C 0.16455 0.46593 0.07369 0.0
C871 C 0.16877 0.47667 0.05925 0.0
C872 C 0.19084 0.48202 0.05149 0.0
C873 C 0.20822 0.47644 0.05788 0.0
C874 C 0.20365 0.46548 0.07227 0.0
C875 C 0.18227 0.46073 0.08002 0.0
C876 C 0.18118 0.4503 0.09553 0.0
C877 C 0.20483 0.44847 0.09552 0.0
C878 C 0.21789 0.45732 0.08185 0.0
C879 C 0.15738 0.42487 0.09627 0.0
C880 C 0.18226 0.46877 0.1076 0.0
H881 H 0.284 0.42907 0.10016 0.0
H882 H 0.2994 0.46905 0.04977 0.0
H883 H 0.28505 0.50211 0.07232 0.0
H884 H 0.25753 0.50019 0.06514 0.0
H885 H 0.27921 0.4984 0.05224 0.0
H886 H 0.2419 0.43166 0.051 0.0
H887 H 0.25396 0.45957 0.04052 0.0
H888 H 0.22416 0.44629 0.04991 0.0
H889 H 0.22466 0.39936 0.14566 0.0
H890 H 0.16516 0.41617 0.15156 0.0
H891 H 0.17348 0.43451 0.12707 0.0
H892 H 0.21661 0.38517 0.11007 0.0
H893 H 0.24375 0.39124 0.12093 0.0
H894 H 0.24599 0.39963 0.10122 0.0
H895 H 0.26318 0.45445 0.13227 0.0
H896 H 0.28029 0.45114 0.11744 0.0
H897 H 0.26995 0.42993 0.13303 0.0
H898 H 0.31809 0.43298 0.08463 0.0
C899 C 0.28688 0.43808 0.08944 0.0
C900 C 0.50113 0.86689 0.28948 0.0
C901 C 0.52426 0.87099 0.28392 0.0
C902 C 0.53015 0.87721 0.26857 0.0
C903 C 0.49126 0.87725 0.26478 0.0
C904 C 0.48487 0.87006 0.27968 0.0
C905 C 0.45983 0.86737 0.28364 0.0
H906 H 0.36452 0.88738 0.26537 0.0
C907 C 0.47163 0.88128 0.25798 0.0
C908 C 0.45303 0.87542 0.26892 0.0
H909 H 0.37212 0.85237 0.30543 0.0
H910 H 0.41039 0.85601 0.2956 0.0
H911 H 0.42351 0.92851 0.26151 0.0
H912 H 0.38006 0.85653 0.24171 0.0
H913 H 0.39877 0.87715 0.22758 0.0
H914 H 0.37508 0.88133 0.23671 0.0
H915 H 0.39917 0.92142 0.24786 0.0
H916 H 0.43035 0.92981 0.24203 0.0
C917 C 0.46363 0.88494 0.29695 0.0
C918 C 0.44147 0.84013 0.28714 0.0
C919 C 0.48539 0.91772 0.20515 0.0
C920 C 0.47321 0.9272 0.19626 0.0
C921 C 0.45072 0.92496 0.20183 0.0
C922 C 0.44114 0.91425 0.21608 0.0
C923 C 0.45414 0.90569 0.225 0.0
C924 C 0.47584 0.90747 0.21937 0.0
C925 C 0.48811 0.89873 0.2305 0.0
C926 C 0.47009 0.89099 0.24372 0.0
C927 C 0.45007 0.89494 0.2405 0.0
C928 C 0.51412 0.92069 0.23464 0.0
C929 C 0.48883 0.87666 0.22331 0.0
C930 C 0.3745 0.88053 0.272 0.0
C931 C 0.3654 0.86973 0.28626 0.0
C932 C 0.37869 0.86068 0.29442 0.0
C933 C 0.40095 0.86289 0.28871 0.0
C934 C 0.41003 0.87404 0.27456 0.0
C935 C 0.39654 0.88214 0.26628 0.0
C936 C 0.40828 0.89213 0.25104 0.0
C937 C 0.43108 0.88888 0.2516 0.0
C938 C 0.43229 0.87871 0.26558 0.0
C939 C 0.41564 0.91938 0.25042 0.0
C940 C 0.38964 0.87616 0.23851 0.0
H941 H 0.51968 0.88544 0.24749 0.0
H942 H 0.49627 0.86224 0.30128 0.0
H943 H 0.44683 0.82793 0.2811 0.0
H944 H 0.42228 0.83416 0.28315 0.0
H945 H 0.44108 0.83638 0.29947 0.0
H946 H 0.47993 0.90333 0.29476 0.0
H947 H 0.46719 0.87811 0.30773 0.0
H948 H 0.44758 0.88777 0.29865 0.0
H949 H 0.50243 0.9186 0.20127 0.0
H950 H 0.44092 0.93218 0.1954 0.0
H951 H 0.42421 0.9135 0.21976 0.0
H952 H 0.51421 0.93831 0.23379 0.0
H953 H 0.5288 0.92174 0.22692 0.0
H954 H 0.51968 0.92026 0.24651 0.0
H955 H 0.47148 0.86502 0.2167 0.0
H956 H 0.48969 0.86434 0.23185 0.0
H957 H 0.50486 0.88279 0.21544 0.0
H958 H 0.54794 0.88059 0.26414 0.0
C959 C 0.51379 0.88022 0.25898 0.0
C960 C 0.11967 0.50155 0.28927 0.0
C961 C 0.12264 0.48356 0.28174 0.0
C962 C 0.11637 0.47917 0.26618 0.0
C963 C 0.10612 0.51167 0.26588 0.0
C964 C 0.11173 0.5154 0.28119 0.0
C965 C 0.10939 0.53618 0.28758 0.0
H966 H 0.08989 0.63094 0.27721 0.0
C967 C 0.09965 0.53025 0.26086 0.0
C968 C 0.10171 0.54463 0.27358 0.0
H969 H 0.10931 0.60746 0.31861 0.0
H970 H 0.10767 0.5734 0.30546 0.0
H971 H 0.12623 0.62341 0.25612 0.0
H972 H 0.0484 0.57609 0.26565 0.0
H973 H 0.05243 0.57415 0.24606 0.0
H974 H 0.05966 0.60311 0.25434 0.0
H975 H 0.1024 0.62816 0.24792 0.0
H976 H 0.11224 0.60859 0.239 0.0
C977 C 0.13546 0.55579 0.29359 0.0
C978 C 0.08849 0.52578 0.29971 0.0
C979 C 0.07644 0.53408 0.20572 0.0
C980 C 0.07156 0.55068 0.19793 0.0
C981 C 0.07205 0.57023 0.20595 0.0
C982 C 0.07722 0.57326 0.22151 0.0
C983 C 0.08225 0.55672 0.22918 0.0
C984 C 0.08201 0.53761 0.22131 0.0
C985 C 0.08915 0.52271 0.23132 0.0
C986 C 0.09295 0.53563 0.24651 0.0
C987 C 0.08879 0.5555 0.24514 0.0
C988 C 0.11371 0.52503 0.2252 0.0
C989 C 0.06704 0.49623 0.23172 0.0
C990 C 0.09382 0.61845 0.28342 0.0
C991 C 0.09966 0.62193 0.29902 0.0
C992 C 0.10435 0.60506 0.30668 0.0
C993 C 0.10362 0.58534 0.29897 0.0
C994 C 0.09833 0.58241 0.28335 0.0
C995 C 0.09325 0.59862 0.27585 0.0
C996 C 0.08799 0.59248 0.25923 0.0
C997 C 0.09104 0.57007 0.25802 0.0
C998 C 0.0972 0.56444 0.27217 0.0
C999 C 0.10804 0.61424 0.24998 0.0
C1000 C 0.06079 0.58626 0.256 0.0
H1001 H 0.10383 0.48913 0.24637 0.0
H1002 H 0.1237 0.50508 0.30128 0.0
H1003 H 0.07357 0.50698 0.29665 0.0
H1004 H 0.07869 0.53635 0.30071 0.0
H1005 H 0.09596 0.52487 0.31102 0.0
H1006 H 0.15066 0.55614 0.28664 0.0
H1007 H 0.13838 0.55205 0.3055 0.0
H1008 H 0.13863 0.57457 0.29286 0.0
H1009 H 0.07647 0.51908 0.19975 0.0
H1010 H 0.06822 0.58311 0.20014 0.0
H1011 H 0.07725 0.5885 0.22694 0.0
H1012 H 0.12607 0.54358 0.22053 0.0
H1013 H 0.10993 0.5116 0.21595 0.0
H1014 H 0.12497 0.52279 0.23411 0.0
H1015 H 0.04908 0.49613 0.233 0.0
H1016 H 0.06802 0.48573 0.24142 0.0
H1017 H 0.066 0.48632 0.22106 0.0
H1018 H 0.11848 0.46539 0.26007 0.0
C1019 C 0.10807 0.4931 0.25821 0.0
C1020 C 0.3833 0.49114 0.28832 0.0
C1021 C 0.36706 0.46796 0.28219 0.0
C1022 C 0.37113 0.46251 0.2673 0.0
C1023 C 0.4072 0.50304 0.2649 0.0
C1024 C 0.40329 0.50822 0.27958 0.0
C1025 C 0.42311 0.53315 0.28474 0.0
H1026 H 0.52975 0.63876 0.27051 0.0
C1027 C 0.42978 0.5247 0.25901 0.0
C1028 C 0.43923 0.54232 0.27065 0.0
H1029 H 0.48843 0.61548 0.31245 0.0
H1030 H 0.45739 0.5782 0.30046 0.0
H1031 H 0.52509 0.58774 0.26267 0.0
H1032 H 0.48157 0.62009 0.24829 0.0
H1033 H 0.48415 0.60451 0.23249 0.0
H1034 H 0.51197 0.62949 0.24077 0.0
H1035 H 0.53655 0.61264 0.24954 0.0
H1036 H 0.51888 0.58134 0.24323 0.0
C1037 C 0.43728 0.53003 0.29834 0.0
C1038 C 0.41038 0.54839 0.28836 0.0
C1039 C 0.45854 0.52577 0.2046 0.0
C1040 C 0.47829 0.54379 0.19599 0.0
C1041 C 0.49474 0.56638 0.20294 0.0
C1042 C 0.49155 0.57107 0.21806 0.0
C1043 C 0.47168 0.55303 0.22647 0.0
C1044 C 0.45552 0.53083 0.21975 0.0
C1045 C 0.43528 0.51404 0.23048 0.0
C1046 C 0.44195 0.5299 0.24468 0.0
C1047 C 0.46339 0.55267 0.24225 0.0
C1048 C 0.43788 0.49115 0.233 0.0
C1049 C 0.40983 0.50852 0.22373 0.0
C1050 C 0.5138 0.62572 0.277 0.0
C1051 C 0.51148 0.62998 0.29243 0.0
C1052 C 0.49068 0.61247 0.30058 0.0
C1053 C 0.47269 0.59082 0.2936 0.0
C1054 C 0.47561 0.58643 0.2783 0.0
C1055 C 0.49581 0.60379 0.27023 0.0
C1056 C 0.4962 0.5956 0.25422 0.0
C1057 C 0.47311 0.57036 0.2541 0.0
C1058 C 0.46109 0.56518 0.26821 0.0
C1059 C 0.52046 0.59436 0.25215 0.0
C1060 C 0.49352 0.61333 0.24327 0.0
H1061 H 0.39307 0.4747 0.24733 0.0
H1062 H 0.38087 0.49568 0.29983 0.0
H1063 H 0.39581 0.54498 0.27973 0.0
H1064 H 0.42341 0.56826 0.28808 0.0
H1065 H 0.40119 0.54351 0.29963 0.0
H1066 H 0.4368 0.51219 0.29779 0.0
H1067 H 0.42891 0.53078 0.30933 0.0
H1068 H 0.45738 0.54377 0.29845 0.0
H1069 H 0.44547 0.50829 0.19958 0.0
H1070 H 0.51032 0.58044 0.19668 0.0
H1071 H 0.50475 0.58862 0.22262 0.0
H1072 H 0.45783 0.496 0.23289 0.0
H1073 H 0.42807 0.4773 0.22395 0.0
H1074 H 0.43091 0.48264 0.24418 0.0
H1075 H 0.4112 0.52525 0.21865 0.0
H1076 H 0.39498 0.50252 0.23231 0.0
H1077 H 0.40366 0.49442 0.21465 0.0
H1078 H 0.35876 0.44476 0.26233 0.0
C1079 C 0.39101 0.47993 0.2586 0.0
Tb1080 Tb 0.49331 0.98211 0.99073 0.0
C1081 C 0.54508 0.07058 0.0326 0.0
C1082 C 0.58889 0.08409 0.02932 0.0
C1083 C 0.57576 0.11366 0.03515 0.0
C1084 C 0.56372 0.06532 0.02948 0.0
C1085 C 0.55084 0.09469 0.03587 0.0
C1086 C 0.59477 0.10836 0.03185 0.0
C1087 C 0.5073 0.07908 0.0417 0.0
N1088 N 0.52133 0.05173 0.03326 0.0
C1089 C 0.5026 0.05545 0.03847 0.0
C1090 C 0.53148 0.09885 0.04019 0.0
Tb1091 Tb 0.51524 0.01392 0.02693 0.0
N1092 N 0.55721 0.04164 0.02713 0.0
C1093 C 0.57529 0.03531 0.02558 0.0
C1094 C 0.60735 0.07781 0.02689 0.0
C1095 C 0.60053 0.05328 0.02521 0.0
H1096 H 0.48384 0.04024 0.03957 0.0
H1097 H 0.61469 0.04818 0.02355 0.0
H1098 H 0.61397 0.12308 0.03163 0.0
H1099 H 0.4923 0.08202 0.04537 0.0
H1100 H 0.57046 0.0165 0.02414 0.0
H1101 H 0.39286 0.94007 0.99583 0.0
H1102 H 0.6269 0.09168 0.02659 0.0
H1103 H 0.52669 0.96164 0.97328 0.0
H1104 H 0.43588 0.9741 0.99511 0.0
H1105 H 0.52124 0.92229 0.9643 0.0
H1106 H 0.58059 0.13236 0.03747 0.0
H1107 H 0.38397 0.89786 0.99104 0.0
H1108 H 0.40002 0.86979 0.98327 0.0
H1109 H 0.5351 0.11712 0.04277 0.0
H1110 H 0.43515 0.8649 0.97455 0.0
N1111 N 0.45204 0.95173 0.99067 0.0
C1112 C 0.43261 0.95597 0.99301 0.0
C1113 C 0.40305 0.91281 0.99079 0.0
C1114 C 0.42274 0.90877 0.98722 0.0
C1115 C 0.40799 0.9366 0.99343 0.0
C1116 C 0.44723 0.92888 0.98717 0.0
H1117 H 0.48043 0.88452 0.9671 0.0
N1118 N 0.48958 0.94635 0.98164 0.0
C1119 C 0.50578 0.92305 0.96949 0.0
C1120 C 0.46678 0.92609 0.9824 0.0
C1121 C 0.50878 0.94536 0.97461 0.0
C1122 C 0.48275 0.90176 0.97114 0.0
C1123 C 0.46272 0.90318 0.97738 0.0
O1124 O 0.51133 0.99537 0.96972 0.0
O1125 O 0.52175 0.01326 1.003 0.0
O1126 O 0.50627 0.03646 0.01223 0.0
O1127 O 0.47801 0.00629 0.99575 0.0
O1128 O 0.53341 0.99842 0.98672 0.0
O1129 O 0.47478 0.99023 0.97357 0.0
O1130 O 0.49717 0.00577 0.04814 0.0
O1131 O 0.48712 0.9824 0.01487 0.0
O1132 O 0.50403 0.95954 1.00386 0.0
O1133 O 0.52714 0.98639 0.02378 0.0
O1134 O 0.47523 0.99769 0.03092 0.0
O1135 O 0.53166 0.00574 0.04537 0.0
C1136 C 0.54104 0.01599 0.99638 0.0
C1137 C 0.48513 0.98563 0.94833 0.0
C1138 C 0.48944 0.99094 0.92072 0.0
C1139 C 0.49607 0.00058 0.93558 0.0
C1140 C 0.47171 0.96602 0.91893 0.0
C1141 C 0.46752 0.96089 0.94621 0.0
C1142 C 0.46089 0.95118 0.93158 0.0
C1143 C 0.48792 0.02821 1.00214 0.0
C1144 C 0.49254 0.99612 0.96373 0.0
C1145 C 0.43864 0.88274 0.97819 0.0
C1146 C 0.41865 0.88553 0.98314 0.0
C1147 C 0.46792 0.97964 0.02163 0.0
C1148 C 0.52267 0.01495 0.06991 0.0
C1149 C 0.51686 0.00083 0.08329 0.0
C1150 C 0.52514 0.01234 0.09758 0.0
C1151 C 0.53868 0.038 0.09828 0.0
C1152 C 0.53633 0.04048 0.071 0.0
C1153 C 0.54412 0.0519 0.08511 0.0
C1154 C 0.51933 0.96594 0.01572 0.0
C1155 C 0.51434 0.00302 0.0549 0.0
H1156 H 0.50953 0.01975 0.93726 0.0
H1157 H 0.46646 0.95783 0.90774 0.0
H1158 H 0.45889 0.94908 0.95584 0.0
H1159 H 0.44736 0.93203 0.93003 0.0
H1160 H 0.50654 0.98107 0.08254 0.0
H1161 H 0.5452 0.04734 0.10908 0.0
H1162 H 0.54105 0.05162 0.06097 0.0
H1163 H 0.55463 0.07163 0.08582 0.0
Tb1164 Tb 0.0207 0.5079 0.99106 0.0
C1165 C 0.93089 0.47161 0.03351 0.0
C1166 C 0.91542 0.49928 0.0284 0.0
C1167 C 0.88673 0.45775 0.03644 0.0
C1168 C 0.93518 0.49419 0.02899 0.0
C1169 C 0.90679 0.45332 0.03778 0.0
C1170 C 0.89104 0.48071 0.03172 0.0
C1171 C 0.9248 0.42904 0.04614 0.0
N1172 N 0.95082 0.46827 0.03485 0.0
C1173 C 0.94836 0.44789 0.04186 0.0
C1174 C 0.90383 0.43158 0.04384 0.0
Tb1175 Tb 0.98854 0.49957 0.02697 0.0
N1176 N 0.95905 0.51163 0.02611 0.0
C1177 C 0.96467 0.53526 0.02384 0.0
C1178 C 0.9209 0.52305 0.02499 0.0
C1179 C 0.9457 0.54121 0.02296 0.0
H1180 H 0.96451 0.44584 0.04369 0.0
H1181 H 0.95023 0.55979 0.02064 0.0
H1182 H 0.87555 0.48416 0.03115 0.0
H1183 H 0.92284 0.41261 0.05123 0.0
H1184 H 0.98366 0.54959 0.02215 0.0
H1185 H 0.05489 0.44424 0.99731 0.0
H1186 H 0.90626 0.52771 0.02434 0.0
H1187 H 0.04731 0.56228 0.97507 0.0
H1188 H 0.02296 0.45638 0.996 0.0
H1189 H 0.08972 0.59443 0.9679 0.0
H1190 H 0.86799 0.44384 0.03948 0.0
H1191 H 0.09936 0.47487 0.99357 0.0
H1192 H 0.13159 0.51801 0.98699 0.0
H1193 H 0.88563 0.41705 0.04727 0.0
H1194 H 0.1412 0.55916 0.97906 0.0
N1195 N 0.04882 0.49404 0.99185 0.0
C1196 C 0.04214 0.47012 0.9942 0.0
C1197 C 0.08536 0.48038 0.99292 0.0
C1198 C 0.09195 0.50447 0.98957 0.0
C1199 C 0.06028 0.46305 0.99499 0.0
C1200 C 0.07298 0.51069 0.989 0.0
H1201 H 0.12561 0.58778 0.97167 0.0
N1202 N 0.05924 0.53822 0.98351 0.0
C1203 C 0.08686 0.5775 0.97275 0.0
C1204 C 0.07842 0.53373 0.98475 0.0
C1205 C 0.06287 0.55926 0.97682 0.0
C1206 C 0.10707 0.57371 0.97493 0.0
C1207 C 0.10291 0.55137 0.98068 0.0
O1208 O 0.01135 0.51536 0.96952 0.0
O1209 O 0.98872 0.50518 1.00275 0.0
O1210 O 0.96544 0.46626 0.01406 0.0
O1211 O 0.99291 0.46906 0.99478 0.0
O1212 O 0.00474 0.53123 0.98634 0.0
O1213 O 0.01137 0.48181 0.97368 0.0
O1214 O 0.99952 0.49374 0.04845 0.0
O1215 O 0.02032 0.50255 0.01513 0.0
O1216 O 0.0436 0.54113 1.00424 0.0
O1217 O 0.0154 0.53846 0.02299 0.0
O1218 O 0.00626 0.47765 0.03211 0.0
O1219 O 0.99603 0.52546 0.04426 0.0
C1220 C 0.98642 0.52134 0.99568 0.0
C1221 C 0.01973 0.49724 0.94871 0.0
C1222 C 0.01431 0.49117 0.92129 0.0
C1223 C 1.00424 0.48932 0.93586 0.0
C1224 C 0.04027 0.50139 0.91979 0.0
C1225 C 0.04554 0.50714 0.94704 0.0
C1226 C 0.05574 0.50928 0.93261 0.0
C1227 C 0.97206 0.4569 1.00274 0.0
C1228 C 0.00837 0.4952 0.96363 0.0
C1229 C 0.12218 0.54577 0.98195 0.0
C1230 C 0.1167 0.52233 0.98642 0.0
C1231 C 0.02403 0.48749 0.02238 0.0
C1232 C 0.98933 0.51022 0.06933 0.0
C1233 C 0.00481 0.51782 0.0822 0.0
C1234 C 0.99459 0.51451 0.09684 0.0
C1235 C 0.96853 0.50331 0.09839 0.0
C1236 C 0.96342 0.49935 0.07106 0.0
C1237 C 0.9531 0.49586 0.08555 0.0
C1238 C 0.03661 0.55053 0.0154 0.0
C1239 C 1.00072 0.5132 0.05431 0.0
H1240 H 0.98432 0.48188 0.93722 0.0
H1241 H 0.04858 0.50285 0.90875 0.0
H1242 H 0.05775 0.51317 0.95681 0.0
H1243 H 0.07568 0.51694 0.93137 0.0
H1244 H 0.02483 0.52605 0.08081 0.0
H1245 H 0.96012 0.50072 0.1095 0.0
H1246 H 0.95121 0.49355 0.06128 0.0
H1247 H 0.93308 0.48743 0.08684 0.0
Tb1248 Tb 0.5099 0.48667 0.02623 0.0
C1249 C 0.46165 0.53387 0.98849 0.0
C1250 C 0.41778 0.50372 0.98796 0.0
C1251 C 0.43078 0.54688 0.98664 0.0
C1252 C 0.44301 0.50986 0.98909 0.0
C1253 C 0.45589 0.5527 0.9869 0.0
C1254 C 0.41174 0.5224 0.98716 0.0
C1255 C 0.50001 0.58112 0.98436 0.0
N1256 N 0.48558 0.53861 0.98863 0.0
C1257 C 0.50473 0.56175 0.98596 0.0
C1258 C 0.4755 0.57665 0.98509 0.0
Tb1259 Tb 0.49162 0.50595 0.99198 0.0
N1260 N 0.44974 0.49247 0.98959 0.0
C1261 C 0.43213 0.46847 0.98748 0.0
C1262 C 0.39953 0.47905 0.98704 0.0
C1263 C 0.40679 0.46137 0.98649 0.0
H1264 H 0.52376 0.56544 0.98555 0.0
H1265 H 0.39289 0.44226 0.98534 0.0
H1266 H 0.39245 0.51807 0.98648 0.0
H1267 H 0.51529 0.5995 0.98267 0.0
H1268 H 0.43737 0.45454 0.98709 0.0
H1269 H 0.60831 0.55402 0.02883 0.0
H1270 H 0.37992 0.47352 0.98623 0.0
H1271 H 0.48053 0.42762 0.03411 0.0
H1272 H 0.56349 0.53991 0.02797 0.0
H1273 H 0.49108 0.39515 0.03782 0.0
H1274 H 0.42592 0.5611 0.98559 0.0
H1275 H 0.62307 0.52413 0.02984 0.0
H1276 H 0.61251 0.48023 0.03171 0.0
H1277 H 0.4719 0.59168 0.98384 0.0
H1278 H 0.58053 0.43684 0.03416 0.0
N1279 N 0.55232 0.50201 0.028 0.0
C1280 C 0.56935 0.52646 0.02847 0.0
C1281 C 0.60323 0.51775 0.02947 0.0
C1282 C 0.58575 0.49282 0.02996 0.0
C1283 C 0.59497 0.53465 0.02894 0.0
C1284 C 0.56017 0.48553 0.02933 0.0
H1285 H 0.53511 0.40491 0.03663 0.0
N1286 N 0.51814 0.45554 0.03044 0.0
C1287 C 0.50572 0.4137 0.03571 0.0
C1288 C 0.54238 0.46134 0.03056 0.0
C1289 C 0.49982 0.4322 0.03362 0.0
C1290 C 0.53058 0.41926 0.035 0.0
C1291 C 0.54934 0.44342 0.03265 0.0
O1292 O 0.48926 0.47209 0.04626 0.0
O1293 O 0.48112 0.49018 0.01437 0.0
O1294 O 0.494 0.53084 0.01013 0.0
O1295 O 0.51985 0.52537 0.02714 0.0
O1296 O 0.47034 0.45945 0.02702 0.0
O1297 O 0.52212 0.50767 0.04624 0.0
O1298 O 0.51151 0.52106 0.97176 0.0
O1299 O 0.51952 0.5014 1.00371 0.0
O1300 O 0.50505 0.46005 0.00873 0.0
O1301 O 0.48134 0.46709 0.99066 0.0
O1302 O 0.53214 0.53127 0.99051 0.0
O1303 O 0.47897 0.48515 0.97193 0.0
C1304 C 0.46225 0.47055 0.01858 0.0
C1305 C 0.51098 0.48659 0.06951 0.0
C1306 C 0.51167 0.49291 0.09695 0.0
C1307 C 0.50532 0.49644 0.08218 0.0
C1308 C 0.52359 0.47902 0.09878 0.0
C1309 C 0.52297 0.47294 0.07154 0.0
C1310 C 0.52916 0.46914 0.08615 0.0
C1311 C 0.50848 0.53722 0.02233 0.0
C1312 C 0.50417 0.49108 0.05437 0.0
C1313 C 0.57476 0.45034 0.03272 0.0
C1314 C 0.59296 0.47504 0.03135 0.0
C1315 C 0.53934 0.51917 0.99876 0.0
C1316 C 0.48919 0.50639 0.94866 0.0
C1317 C 0.49967 0.50218 0.93565 0.0
C1318 C 0.49284 0.50572 0.921 0.0
C1319 C 0.47518 0.51351 0.91965 0.0
C1320 C 0.47171 0.51421 0.94707 0.0
C1321 C 0.46476 0.51773 0.9326 0.0
C1322 C 0.49133 0.45429 0.99619 0.0
C1323 C 0.49654 0.50198 0.96368 0.0
H1324 H 0.49578 0.50675 0.08049 0.0
H1325 H 0.52905 0.47618 0.10994 0.0
H1326 H 0.52756 0.4653 0.06189 0.0
H1327 H 0.53848 0.45862 0.08768 0.0
H1328 H 0.51291 0.49578 0.93698 0.0
H1329 H 0.4697 0.51673 0.9086 0.0
H1330 H 0.46341 0.51748 0.95696 0.0
H1331 H 0.45127 0.52381 0.93142 0.0
Tb1332 Tb 0.16392 0.32007 0.32003 0.0
C1333 C 0.21581 0.40024 0.36538 0.0
C1334 C 0.25822 0.40854 0.36245 0.0
C1335 C 0.25035 0.44136 0.3695 0.0
C1336 C 0.23229 0.39228 0.36189 0.0
C1337 C 0.22459 0.42466 0.36976 0.0
C1338 C 0.26716 0.43331 0.36583 0.0
C1339 C 0.18217 0.41335 0.37619 0.0
N1340 N 0.19117 0.38345 0.36567 0.0
C1341 C 0.17444 0.3893 0.37179 0.0
C1342 C 0.20731 0.43123 0.37491 0.0
Tb1343 Tb 0.18032 0.34467 0.35804 0.0
N1344 N 0.22286 0.36817 0.35903 0.0
C1345 C 0.23843 0.35872 0.35774 0.0
C1346 C 0.27431 0.39922 0.36018 0.0
C1347 C 0.26435 0.37412 0.35811 0.0
H1348 H 0.15499 0.37551 0.37274 0.0
H1349 H 0.27661 0.36662 0.35669 0.0
H1350 H 0.28702 0.44618 0.36613 0.0
H1351 H 0.16877 0.41808 0.38057 0.0
H1352 H 0.23096 0.3394 0.35606 0.0
H1353 H 0.06814 0.30295 0.31741 0.0
H1354 H 0.29437 0.41111 0.36045 0.0
H1355 H 0.18413 0.28126 0.30934 0.0
H1356 H 0.11303 0.32799 0.31613 0.0
H1357 H 0.16733 0.23704 0.30811 0.0
H1358 H 0.2575 0.46031 0.37263 0.0
H1359 H 0.04835 0.25817 0.31952 0.0
H1360 H 0.05302 0.22111 0.3199 0.0
H1361 H 0.21328 0.44981 0.37841 0.0
H1362 H 0.08011 0.20306 0.31772 0.0
N1363 N 0.12057 0.29846 0.31851 0.0
C1364 C 0.10561 0.30877 0.31739 0.0
C1365 C 0.0685 0.26921 0.31908 0.0
C1366 C 0.08351 0.25848 0.31908 0.0
C1367 C 0.07961 0.29444 0.31792 0.0
C1368 C 0.10975 0.27373 0.31861 0.0
H1369 H 0.12265 0.2088 0.31315 0.0
N1370 N 0.14988 0.2788 0.31652 0.0
C1371 C 0.1552 0.24418 0.31109 0.0
C1372 C 0.12493 0.26358 0.3177 0.0
C1373 C 0.16466 0.26937 0.31196 0.0
C1374 C 0.13002 0.22834 0.31393 0.0
C1375 C 0.11438 0.23794 0.3168 0.0
O1376 O 0.18685 0.32176 0.30199 0.0
O1377 O 0.1941 0.34305 0.33566 0.0
O1378 O 0.17477 0.37087 0.34478 0.0
O1379 O 0.15354 0.34846 0.32311 0.0
O1380 O 0.19316 0.35716 0.31505 0.0
O1381 O 0.154 0.32474 0.29774 0.0
O1382 O 0.15976 0.33547 0.37844 0.0
O1383 O 0.1529 0.31616 0.34362 0.0
O1384 O 0.18601 0.30547 0.33082 0.0
O1385 O 0.18322 0.31173 0.35658 0.0
O1386 O 0.1406 0.33272 0.35857 0.0
O1387 O 0.19405 0.33492 0.37708 0.0
C1388 C 0.20612 0.36143 0.32721 0.0
C1389 C 0.17205 0.31534 0.27633 0.0
C1390 C 0.17356 0.32182 0.24883 0.0
C1391 C 0.17101 0.32856 0.26371 0.0
C1392 C 0.17657 0.30143 0.24664 0.0
C1393 C 0.17487 0.29488 0.27379 0.0
C1394 C 0.17695 0.28793 0.25904 0.0
C1395 C 0.16175 0.36781 0.33218 0.0
C1396 C 0.17358 0.32523 0.29182 0.0
C1397 C 0.08847 0.22275 0.31812 0.0
C1398 C 0.07305 0.23302 0.31929 0.0
C1399 C 0.13341 0.31508 0.34894 0.0
C1400 C 0.18254 0.34226 0.4013 0.0
C1401 C 0.1713 0.32709 0.41393 0.0
C1402 C 0.17742 0.33647 0.4289 0.0
C1403 C 0.19506 0.36139 0.43087 0.0
C1404 C 0.20019 0.36692 0.40364 0.0
C1405 C 0.20634 0.37639 0.41835 0.0
C1406 C 0.18771 0.30074 0.34528 0.0
C1407 C 0.17584 0.33188 0.38583 0.0
H1408 H 0.16916 0.34458 0.26549 0.0
H1409 H 0.17841 0.29584 0.2353 0.0
H1410 H 0.17612 0.28459 0.28314 0.0
H1411 H 0.17927 0.27222 0.25723 0.0
H1412 H 0.15801 0.30793 0.41206 0.0
H1413 H 0.19991 0.36947 0.4421 0.0
H1414 H 0.20927 0.37882 0.39414 0.0
H1415 H 0.21986 0.39551 0.42006 0.0
Tb1416 Tb 0.69153 0.8389 0.32579 0.0
C1417 C 0.59434 0.80431 0.36202 0.0
C1418 C 0.58525 0.83728 0.36064 0.0
C1419 C 0.55142 0.79558 0.36381 0.0
C1420 C 0.60241 0.82872 0.36019 0.0
C1421 C 0.56881 0.78742 0.36412 0.0
C1422 C 0.55966 0.82052 0.36218 0.0
C1423 C 0.57997 0.75638 0.36857 0.0
N1424 N 0.61183 0.7974 0.36282 0.0
C1425 C 0.6051 0.77396 0.36674 0.0
C1426 C 0.56168 0.76306 0.36707 0.0
Tb1427 Tb 0.65256 0.82714 0.35909 0.0
N1428 N 0.62732 0.84428 0.35922 0.0
C1429 C 0.6364 0.86894 0.35983 0.0
C1430 C 0.59442 0.86245 0.36016 0.0
C1431 C 0.62014 0.87835 0.36003 0.0
H1432 H 0.61906 0.76863 0.36817 0.0
H1433 H 0.62749 0.8979 0.36006 0.0
H1434 H 0.54617 0.82672 0.36244 0.0
H1435 H 0.57475 0.73773 0.37127 0.0
H1436 H 0.6562 0.88159 0.35975 0.0
H1437 H 0.7188 0.76972 0.32534 0.0
H1438 H 0.58187 0.86978 0.3604 0.0
H1439 H 0.72411 0.89798 0.3177 0.0
H1440 H 0.68929 0.78505 0.32555 0.0
H1441 H 0.76811 0.92938 0.31429 0.0
H1442 H 0.53169 0.7829 0.36531 0.0
H1443 H 0.76423 0.79863 0.32459 0.0
H1444 H 0.79918 0.84196 0.32214 0.0
H1445 H 0.54224 0.74949 0.36871 0.0
H1446 H 0.81269 0.88557 0.31934 0.0
N1447 N 0.71752 0.82263 0.32585 0.0
C1448 C 0.709 0.79805 0.3254 0.0
C1449 C 0.75133 0.80554 0.32487 0.0
C1450 C 0.75993 0.83061 0.32427 0.0
C1451 C 0.72572 0.78919 0.32525 0.0
C1452 C 0.74235 0.83864 0.32485 0.0
H1453 H 0.80123 0.91838 0.31635 0.0
N1454 N 0.73203 0.86942 0.32238 0.0
C1455 C 0.76327 0.91077 0.31679 0.0
C1456 C 0.7499 0.86297 0.32302 0.0
C1457 C 0.73828 0.89284 0.31872 0.0
C1458 C 0.78191 0.90452 0.31802 0.0
C1459 C 0.77529 0.88025 0.32084 0.0
O1460 O 0.68848 0.85184 0.30433 0.0
O1461 O 0.65963 0.83891 0.33586 0.0
O1462 O 0.6296 0.8005 0.34179 0.0
O1463 O 0.66091 0.80052 0.32687 0.0
O1464 O 0.68093 0.86682 0.3216 0.0
O1465 O 0.68247 0.81545 0.30689 0.0
O1466 O 0.65511 0.81398 0.38053 0.0
O1467 O 0.68407 0.82656 0.34896 0.0
O1468 O 0.71498 0.8647 0.34346 0.0
O1469 O 0.68388 0.86508 0.35833 0.0
O1470 O 0.66285 0.79913 0.36358 0.0
O1471 O 0.66288 0.85105 0.37777 0.0
C1472 C 0.66131 0.85774 0.32987 0.0
C1473 C 0.69886 0.83522 0.28352 0.0
C1474 C 0.70277 0.83927 0.25597 0.0
C1475 C 0.6885 0.83486 0.26923 0.0
C1476 C 0.72739 0.84375 0.25716 0.0
C1477 C 0.72336 0.83943 0.28443 0.0
C1478 C 0.73752 0.84367 0.27132 0.0
C1479 C 0.63748 0.7904 0.33163 0.0
C1480 C 0.6842 0.83192 0.29735 0.0
C1481 C 0.79307 0.87258 0.32094 0.0
C1482 C 0.78537 0.84776 0.32253 0.0
C1483 C 0.68237 0.80784 0.35521 0.0
C1484 C 0.64868 0.83296 0.40174 0.0
C1485 C 0.66249 0.83731 0.41514 0.0
C1486 C 0.65145 0.83539 0.4294 0.0
C1487 C 0.6263 0.8295 0.42995 0.0
C1488 C 0.62364 0.82705 0.40245 0.0
C1489 C 0.61256 0.82543 0.41654 0.0
C1490 C 0.70753 0.87427 0.35425 0.0
C1491 C 0.66106 0.83454 0.38729 0.0
H1492 H 0.6696 0.83169 0.26845 0.0
H1493 H 0.7387 0.84707 0.24712 0.0
H1494 H 0.73159 0.83952 0.29523 0.0
H1495 H 0.75643 0.84698 0.27213 0.0
H1496 H 0.68198 0.84233 0.4144 0.0
H1497 H 0.61711 0.82761 0.44072 0.0
H1498 H 0.61273 0.82368 0.3922 0.0
H1499 H 0.59319 0.82079 0.41708 0.0
Tb1500 Tb 0.18611 0.82866 0.36285 0.0
C1501 C 0.13414 0.86564 0.32289 0.0
C1502 C 0.08993 0.83754 0.3265 0.0
C1503 C 0.10448 0.88033 0.32155 0.0
C1504 C 0.11476 0.84213 0.32584 0.0
C1505 C 0.12899 0.88472 0.32018 0.0
C1506 C 0.08502 0.85683 0.32474 0.0
C1507 C 0.1721 0.91054 0.31314 0.0
N1508 N 0.15774 0.86947 0.32165 0.0
C1509 C 0.17636 0.89113 0.31585 0.0
C1510 C 0.14844 0.90747 0.31561 0.0
Tb1511 Tb 0.16192 0.83609 0.3271 0.0
N1512 N 0.12002 0.82371 0.32754 0.0
C1513 C 0.10086 0.80004 0.32871 0.0
C1514 C 0.07062 0.81361 0.32867 0.0
C1515 C 0.07609 0.79478 0.32953 0.0
H1516 H 0.19493 0.8939 0.3142 0.0
H1517 H 0.06119 0.77611 0.33086 0.0
H1518 H 0.06612 0.85362 0.32542 0.0
H1519 H 0.18712 0.92788 0.30922 0.0
H1520 H 0.104 0.78478 0.32923 0.0
H1521 H 0.28594 0.87152 0.35461 0.0
H1522 H 0.05138 0.80941 0.32935 0.0
H1523 H 0.14898 0.77795 0.3824 0.0
H1524 H 0.24579 0.87029 0.35687 0.0
H1525 H 0.14876 0.74058 0.39016 0.0
H1526 H 0.10027 0.89486 0.31973 0.0
H1527 H 0.28837 0.83401 0.35843 0.0
H1528 H 0.2667 0.78957 0.36536 0.0
H1529 H 0.14519 0.92254 0.31346 0.0
H1530 H 0.22903 0.7536 0.37505 0.0
N1531 N 0.22478 0.83192 0.36087 0.0
C1532 C 0.24621 0.85357 0.35826 0.0
C1533 C 0.27048 0.8332 0.35909 0.0
C1534 C 0.24885 0.81147 0.36279 0.0
C1535 C 0.26921 0.85443 0.35705 0.0
C1536 C 0.22611 0.81155 0.36381 0.0
H1537 H 0.18502 0.73531 0.38465 0.0
N1538 N 0.1844 0.79341 0.3714 0.0
C1539 C 0.16465 0.75465 0.38414 0.0
C1540 C 0.20515 0.79154 0.36936 0.0
C1541 C 0.16482 0.77593 0.37959 0.0
C1542 C 0.18512 0.75171 0.38099 0.0
C1543 C 0.20602 0.77058 0.37388 0.0
O1544 O 0.1724 0.83786 0.38234 0.0
O1545 O 0.15723 0.83236 0.35123 0.0
O1546 O 0.177 0.87017 0.34057 0.0
O1547 O 0.20578 0.86681 0.35559 0.0
O1548 O 0.14641 0.80891 0.36899 0.0
O1549 O 0.21052 0.84744 0.38101 0.0
O1550 O 0.18284 0.85124 0.30723 0.0
O1551 O 0.19486 0.84078 0.33952 0.0
O1552 O 0.16991 0.7936 0.35082 0.0
O1553 O 0.14506 0.79717 0.33184 0.0
O1554 O 0.18744 0.82367 0.31932 0.0
O1555 O 0.14533 0.81949 0.30642 0.0
C1556 C 0.13834 0.81786 0.35884 0.0
C1557 C 0.19183 0.83747 0.40526 0.0
C1558 C 0.18236 0.83844 0.43219 0.0
C1559 C 0.18324 0.84635 0.4171 0.0
C1560 C 0.18985 0.82111 0.43508 0.0
C1561 C 0.19918 0.82021 0.40849 0.0
C1562 C 0.19804 0.81202 0.4233 0.0
C1563 C 0.19615 0.87974 0.35008 0.0
C1564 C 0.19323 0.84659 0.38968 0.0
C1565 C 0.22807 0.76965 0.37183 0.0
C1566 C 0.2495 0.79012 0.3663 0.0
C1567 C 0.2033 0.83156 0.33015 0.0
C1568 C 0.16018 0.84304 0.28395 0.0
C1569 C 0.17049 0.83902 0.2708 0.0
C1570 C 0.16525 0.8449 0.25634 0.0
C1571 C 0.14971 0.85523 0.25532 0.0
C1572 C 0.14455 0.85312 0.28267 0.0
C1573 C 0.13952 0.85935 0.26841 0.0
C1574 C 0.15254 0.78448 0.34007 0.0
C1575 C 0.1649 0.83497 0.29862 0.0
H1576 H 0.17727 0.85942 0.4145 0.0
H1577 H 0.19001 0.81494 0.44651 0.0
H1578 H 0.20601 0.8132 0.39962 0.0
H1579 H 0.20388 0.79882 0.4257 0.0
H1580 H 0.18202 0.83061 0.27182 0.0
H1581 H 0.14553 0.86027 0.24442 0.0
H1582 H 0.13597 0.85587 0.29258 0.0
H1583 H 0.1275 0.8672 0.26748 0.0
Tb1584 Tb 0.82778 0.64745 0.65874 0.0
C1585 C 0.87008 0.74226 0.69744 0.0
C1586 C 0.91477 0.76175 0.6944 0.0
C1587 C 0.89531 0.78649 0.69881 0.0
C1588 C 0.89105 0.74056 0.69482 0.0
C1589 C 0.87187 0.76518 0.6997 0.0
C1590 C 0.91675 0.78477 0.69616 0.0
C1591 C 0.82754 0.7441 0.70446 0.0
N1592 N 0.84792 0.72125 0.69821 0.0
C1593 C 0.82681 0.72181 0.70223 0.0
C1594 C 0.85014 0.76592 0.70304 0.0
Tb1595 Tb 0.84809 0.68562 0.69321 0.0
N1596 N 0.88821 0.71799 0.69312 0.0
C1597 C 0.90877 0.71528 0.69201 0.0
C1598 C 0.93575 0.75909 0.69246 0.0
C1599 C 0.93274 0.73571 0.69144 0.0
H1600 H 0.80916 0.70513 0.70321 0.0
H1601 H 0.94885 0.7334 0.69013 0.0
H1602 H 0.93478 0.80129 0.69574 0.0
H1603 H 0.81066 0.74444 0.70725 0.0
H1604 H 0.90687 0.69744 0.69106 0.0
H1605 H 0.72705 0.5989 0.65423 0.0
H1606 H 0.95432 0.77489 0.692 0.0
H1607 H 0.86801 0.62811 0.65161 0.0
H1608 H 0.76896 0.63504 0.65477 0.0
H1609 H 0.86728 0.58889 0.64946 0.0
H1610 H 0.89709 0.80431 0.70039 0.0
H1611 H 0.72198 0.55755 0.6555 0.0
H1612 H 0.74217 0.53136 0.65573 0.0
H1613 H 0.85067 0.78316 0.7048 0.0
H1614 H 0.78053 0.52861 0.65421 0.0
N1615 N 0.78787 0.6148 0.65707 0.0
C1616 C 0.76723 0.61726 0.65541 0.0
C1617 C 0.74051 0.57343 0.65581 0.0
C1618 C 0.76175 0.57094 0.65632 0.0
C1619 C 0.7433 0.59672 0.65505 0.0
C1620 C 0.78539 0.59225 0.65674 0.0
H1621 H 0.82733 0.55003 0.65153 0.0
N1622 N 0.82881 0.61184 0.65519 0.0
C1623 C 0.85008 0.58913 0.65124 0.0
C1624 C 0.80671 0.5907 0.6557 0.0
C1625 C 0.85037 0.61137 0.65239 0.0
C1626 C 0.82751 0.56723 0.65247 0.0
C1627 C 0.80537 0.56782 0.65449 0.0
O1628 O 0.84596 0.65505 0.63756 0.0
O1629 O 0.85455 0.68122 0.66964 0.0
O1630 O 0.83588 0.70332 0.67666 0.0
O1631 O 0.80953 0.66974 0.66126 0.0
O1632 O 0.86809 0.66636 0.6546 0.0
O1633 O 0.81116 0.65463 0.64002 0.0
O1634 O 0.83091 0.67595 0.71466 0.0
O1635 O 0.82054 0.65308 0.68178 0.0
O1636 O 0.83641 0.62859 0.67656 0.0
O1637 O 0.86528 0.66261 0.69032 0.0
O1638 O 0.80833 0.66665 0.69878 0.0
O1639 O 0.86741 0.68043 0.71127 0.0
C1640 C 0.8743 0.68502 0.66316 0.0
C1641 C 0.82137 0.64698 0.61539 0.0
C1642 C 0.82485 0.6523 0.5877 0.0
C1643 C 0.83158 0.662 0.60256 0.0
C1644 C 0.80762 0.62721 0.58603 0.0
C1645 C 0.80435 0.62207 0.61339 0.0
C1646 C 0.79751 0.6123 0.59876 0.0
C1647 C 0.81775 0.69235 0.66643 0.0
C1648 C 0.82884 0.65776 0.63071 0.0
C1649 C 0.78198 0.54641 0.65495 0.0
C1650 C 0.76016 0.54797 0.65584 0.0
C1651 C 0.8014 0.64923 0.6891 0.0
C1652 C 0.85669 0.68593 0.73635 0.0
C1653 C 0.8458 0.67078 0.74904 0.0
C1654 C 0.85163 0.68028 0.76398 0.0
C1655 C 0.86888 0.70533 0.76588 0.0
C1656 C 0.87369 0.71079 0.73858 0.0
C1657 C 0.87978 0.72036 0.75329 0.0
C1658 C 0.85535 0.63939 0.68622 0.0
C1659 C 0.84959 0.67531 0.72098 0.0
H1660 H 0.84458 0.6813 0.60419 0.0
H1661 H 0.80226 0.61893 0.57487 0.0
H1662 H 0.79639 0.61024 0.6231 0.0
H1663 H 0.7844 0.59303 0.59727 0.0
H1664 H 0.83283 0.65152 0.74721 0.0
H1665 H 0.87357 0.71349 0.77709 0.0
H1666 H 0.88214 0.72276 0.72897 0.0
H1667 H 0.89286 0.73961 0.75495 0.0
Tb1668 Tb 0.3538 0.17149 0.65899 0.0
C1669 C 0.2641 0.1491 0.69871 0.0
C1670 C 0.25593 0.18141 0.69172 0.0
C1671 C 0.22176 0.14214 0.69972 0.0
C1672 C 0.27257 0.17243 0.6936 0.0
C1673 C 0.23876 0.13388 0.70235 0.0
C1674 C 0.23034 0.16589 0.69437 0.0
C1675 C 0.24961 0.10498 0.71265 0.0
N1676 N 0.28119 0.14205 0.70126 0.0
C1677 C 0.27458 0.1209 0.70894 0.0
C1678 C 0.23151 0.11129 0.70909 0.0
Tb1679 Tb 0.32149 0.16855 0.69418 0.0
N1680 N 0.29745 0.18682 0.6914 0.0
C1681 C 0.30713 0.21118 0.6885 0.0
C1682 C 0.26561 0.20588 0.68771 0.0
C1683 C 0.29138 0.22093 0.68637 0.0
H1684 H 0.2885 0.11596 0.71178 0.0
H1685 H 0.29913 0.24003 0.68359 0.0
H1686 H 0.21719 0.17232 0.6928 0.0
H1687 H 0.24436 0.08791 0.71829 0.0
H1688 H 0.32694 0.22315 0.68727 0.0
H1689 H 0.37967 0.10143 0.66298 0.0
H1690 H 0.25346 0.21347 0.68606 0.0
H1691 H 0.38407 0.22583 0.64303 0.0
H1692 H 0.35074 0.11745 0.66263 0.0
H1693 H 0.42722 0.25538 0.63552 0.0
H1694 H 0.20212 0.13061 0.70225 0.0
H1695 H 0.42486 0.12924 0.65926 0.0
H1696 H 0.45955 0.17124 0.65268 0.0
H1697 H 0.21222 0.09904 0.71208 0.0
H1698 H 0.47269 0.21352 0.64537 0.0
N1699 N 0.37923 0.15456 0.65971 0.0
C1700 C 0.37038 0.13003 0.66115 0.0
C1701 C 0.41225 0.1365 0.65927 0.0
C1702 C 0.42097 0.16123 0.65654 0.0
C1703 C 0.38676 0.12075 0.66132 0.0
C1704 C 0.40377 0.16976 0.65682 0.0
H1705 H 0.46068 0.24505 0.63875 0.0
N1706 N 0.39328 0.19975 0.65149 0.0
C1707 C 0.423 0.23805 0.64041 0.0
C1708 C 0.41109 0.1933 0.65255 0.0
C1709 C 0.39858 0.22128 0.64472 0.0
C1710 C 0.44185 0.2322 0.64231 0.0
C1711 C 0.43588 0.2093 0.64805 0.0
O1712 O 0.34606 0.17947 0.63713 0.0
O1713 O 0.32358 0.17317 0.66995 0.0
O1714 O 0.29631 0.13548 0.68155 0.0
O1715 O 0.32329 0.13394 0.66332 0.0
O1716 O 0.34122 0.19737 0.65301 0.0
O1717 O 0.34229 0.14443 0.64201 0.0
O1718 O 0.32914 0.16105 0.7162 0.0
O1719 O 0.35137 0.16574 0.68328 0.0
O1720 O 0.37994 0.20312 0.67248 0.0
O1721 O 0.35298 0.20555 0.69022 0.0
O1722 O 0.33213 0.14162 0.70039 0.0
O1723 O 0.33146 0.19538 0.71118 0.0
C1724 C 0.32273 0.18947 0.66221 0.0
C1725 C 0.35326 0.1594 0.61695 0.0
C1726 C 0.35156 0.15945 0.58921 0.0
C1727 C 0.34044 0.15782 0.60344 0.0
C1728 C 0.3758 0.16267 0.58881 0.0
C1729 C 0.37729 0.16241 0.61628 0.0
C1730 C 0.38847 0.16405 0.60226 0.0
C1731 C 0.30187 0.12414 0.67086 0.0
C1732 C 0.34139 0.15852 0.63157 0.0
C1733 C 0.4535 0.20145 0.64867 0.0
C1734 C 0.44601 0.17738 0.65282 0.0
C1735 C 0.3501 0.14821 0.6909 0.0
C1736 C 0.31797 0.17899 0.73573 0.0
C1737 C 0.32748 0.17689 0.7498 0.0
C1738 C 0.31338 0.17264 0.76311 0.0
C1739 C 0.28978 0.17074 0.76221 0.0
C1740 C 0.29454 0.17746 0.7351 0.0
C1741 C 0.28053 0.17333 0.74829 0.0
C1742 C 0.37467 0.21473 0.68311 0.0
C1743 C 0.33208 0.18137 0.72178 0.0
H1744 H 0.32171 0.1551 0.60406 0.0
H1745 H 0.38515 0.16445 0.57812 0.0
H1746 H 0.38741 0.16355 0.62653 0.0
H1747 H 0.4071 0.16654 0.60181 0.0
H1748 H 0.34554 0.17796 0.75035 0.0
H1749 H 0.27863 0.16754 0.77232 0.0
H1750 H 0.28697 0.17932 0.72445 0.0
H1751 H 0.26241 0.17203 0.7477 0.0
Tb1752 Tb 0.84504 0.16072 0.69248 0.0
C1753 C 0.79368 0.19647 0.64866 0.0
C1754 C 0.74983 0.16706 0.65148 0.0
C1755 C 0.76278 0.20908 0.64492 0.0
C1756 C 0.77507 0.1731 0.65193 0.0
C1757 C 0.78782 0.21468 0.64483 0.0
C1758 C 0.74381 0.1853 0.64826 0.0
C1759 C 0.83165 0.2419 0.64001 0.0
N1760 N 0.81758 0.20109 0.64869 0.0
C1761 C 0.83647 0.22315 0.6438 0.0
C1762 C 0.80725 0.23775 0.6407 0.0
Tb1763 Tb 0.82373 0.16957 0.6557 0.0
N1764 N 0.78171 0.15602 0.65488 0.0
C1765 C 0.76373 0.13204 0.65646 0.0
C1766 C 0.73143 0.1428 0.65396 0.0
C1767 C 0.73842 0.12517 0.65627 0.0
H1768 H 0.8554 0.22653 0.64334 0.0
H1769 H 0.72433 0.10627 0.65796 0.0
H1770 H 0.72454 0.18109 0.648 0.0
H1771 H 0.84674 0.25955 0.63658 0.0
H1772 H 0.76869 0.11814 0.65834 0.0
H1773 H 0.94457 0.22333 0.68851 0.0
H1774 H 0.71182 0.13742 0.65381 0.0
H1775 H 0.81487 0.10682 0.70897 0.0
H1776 H 0.90035 0.21181 0.68883 0.0
H1777 H 0.82346 0.07431 0.71709 0.0
H1778 H 0.75787 0.22285 0.64214 0.0
H1779 H 0.95699 0.1922 0.69296 0.0
H1780 H 0.94428 0.1489 0.69992 0.0
H1781 H 0.80355 0.25228 0.63771 0.0
H1782 H 0.91114 0.10805 0.70768 0.0
N1783 N 0.88715 0.17401 0.6929 0.0
C1784 C 0.9052 0.19787 0.69085 0.0
C1785 C 0.93742 0.18696 0.69311 0.0
C1786 C 0.91904 0.16296 0.69627 0.0
C1787 C 0.93048 0.20458 0.69064 0.0
C1788 C 0.89384 0.1571 0.69618 0.0
H1789 H 0.86595 0.08011 0.71437 0.0
N1790 N 0.85173 0.13018 0.70097 0.0
C1791 C 0.83822 0.09101 0.71226 0.0
C1792 C 0.87538 0.13425 0.70035 0.0
C1793 C 0.83341 0.10945 0.70764 0.0
C1794 C 0.8622 0.09432 0.71068 0.0
C1795 C 0.88131 0.1164 0.70498 0.0
O1796 O 0.8261 0.15431 0.71331 0.0
O1797 O 0.8162 0.16228 0.67956 0.0
O1798 O 0.82916 0.19975 0.67032 0.0
O1799 O 0.85714 0.19938 0.68796 0.0
O1800 O 0.80492 0.13699 0.69629 0.0
O1801 O 0.86172 0.18649 0.71017 0.0
O1802 O 0.8419 0.17876 0.63454 0.0
O1803 O 0.8521 0.16693 0.66843 0.0
O1804 O 0.83529 0.12771 0.67956 0.0
O1805 O 0.81224 0.13073 0.65918 0.0
O1806 O 0.86394 0.19311 0.65218 0.0
O1807 O 0.80783 0.14464 0.63758 0.0
C1808 C 0.79697 0.14617 0.68621 0.0
C1809 C 0.85099 0.17092 0.73514 0.0
C1810 C 0.84799 0.17494 0.76262 0.0
C1811 C 0.84183 0.17793 0.74765 0.0
C1812 C 0.86334 0.1646 0.7648 0.0
C1813 C 0.86639 0.16083 0.73761 0.0
C1814 C 0.87244 0.15763 0.75238 0.0
C1815 C 0.84537 0.20978 0.68156 0.0
C1816 C 0.8438 0.17386 0.71968 0.0
C1817 C 0.9062 0.1216 0.70435 0.0
C1818 C 0.92506 0.14486 0.69996 0.0
C1819 C 0.87142 0.18295 0.66186 0.0
C1820 C 0.81536 0.16296 0.61326 0.0
C1821 C 0.82803 0.16417 0.59972 0.0
C1822 C 0.82026 0.16927 0.58583 0.0
C1823 C 0.7996 0.17289 0.58563 0.0
C1824 C 0.79452 0.16623 0.61271 0.0
C1825 C 0.78673 0.17119 0.59898 0.0
C1826 C 0.82008 0.11853 0.66772 0.0
C1827 C 0.82457 0.15916 0.62789 0.0
H1828 H 0.82974 0.18552 0.74568 0.0
H1829 H 0.86879 0.16236 0.77611 0.0
H1830 H 0.87374 0.15546 0.72816 0.0
H1831 H 0.88438 0.14986 0.7542 0.0
H1832 H 0.84417 0.16169 0.60002 0.0
H1833 H 0.79326 0.1768 0.57508 0.0
H1834 H 0.78426 0.16501 0.62287 0.0
H1835 H 0.77071 0.17381 0.59868 0.0
H1836 H 0.33992 0.89941 0.06409 0.0
H1837 H 0.35001 0.83678 0.05778 0.0
H1838 H 0.38767 0.86194 0.04232 0.0
H1839 H 0.36018 0.92437 0.02588 0.0
H1840 H 0.37513 0.95553 0.03252 0.0
H1841 H 0.34842 0.9322 0.04242 0.0
H1842 H 0.37403 0.94386 0.0675 0.0
H1843 H 0.40069 0.96723 0.05766 0.0
H1844 H 0.40328 0.94402 0.06802 0.0
H1845 H 0.42638 0.89521 0.02941 0.0
H1846 H 0.46207 0.93346 0.01983 0.0
H1847 H 0.42485 0.97329 0.03327 0.0
C1848 C 0.35008 0.89103 0.05944 0.0
C1849 C 0.34226 0.86626 0.06217 0.0
C1850 C 0.35577 0.85577 0.05576 0.0
C1851 C 0.37711 0.86989 0.04696 0.0
C1852 C 0.38439 0.89433 0.04449 0.0
C1853 C 0.37113 0.90473 0.05045 0.0
C1854 C 0.38304 0.93145 0.04639 0.0
C1855 C 0.36565 0.93615 0.0362 0.0
C1856 C 0.39072 0.94758 0.06075 0.0
C1857 C 0.40554 0.9347 0.03768 0.0
C1858 C 0.40598 0.91309 0.03659 0.0
C1859 C 0.42594 0.91212 0.02992 0.0
C1860 C 0.44607 0.93387 0.02442 0.0
C1861 C 0.44579 0.95611 0.02542 0.0
C1862 C 0.42518 0.95638 0.03204 0.0
H1863 H 0.118 0.44701 0.05626 0.0
H1864 H 0.17841 0.52003 0.04672 0.0
H1865 H 0.14818 0.53063 0.03569 0.0
H1866 H 0.08294 0.44093 0.02155 0.0
H1867 H 0.05298 0.42382 0.03058 0.0
H1868 H 0.07931 0.42183 0.03761 0.0
H1869 H 0.07296 0.43488 0.0644 0.0
H1870 H 0.04657 0.43682 0.05749 0.0
H1871 H 0.07215 0.46286 0.06664 0.0
H1872 H 0.11096 0.53402 0.02721 0.0
H1873 H 0.06998 0.52905 0.02032 0.0
H1874 H 0.03388 0.45318 0.0339 0.0
C1875 C 0.12481 0.46523 0.05187 0.0
C1876 C 0.15053 0.48276 0.0524 0.0
C1877 C 0.1588 0.50631 0.04636 0.0
C1878 C 0.14177 0.51251 0.04011 0.0
C1879 C 0.11654 0.49484 0.0398 0.0
C1880 C 0.1081 0.4716 0.04536 0.0
C1881 C 0.08004 0.45592 0.04346 0.0
C1882 C 0.07344 0.43435 0.03266 0.0
C1883 C 0.06718 0.44711 0.05892 0.0
C1884 C 0.07395 0.47415 0.03634 0.0
C1885 C 0.09526 0.49649 0.03431 0.0
C1886 C 0.09422 0.51646 0.02849 0.0
C1887 C 0.07084 0.51343 0.02449 0.0
C1888 C 0.04885 0.49048 0.026 0.0
C1889 C 0.05049 0.47076 0.03224 0.0
H1890 H 0.54173 0.6736 0.04295 0.0
H1891 H 0.52468 0.64983 0.08979 0.0
H1892 H 0.51401 0.60824 0.08201 0.0
H1893 H 0.49097 0.61792 0.02626 0.0
H1894 H 0.50912 0.61877 0.01005 0.0
H1895 H 0.51539 0.64678 0.01927 0.0
H1896 H 0.56163 0.65829 0.023 0.0
H1897 H 0.55536 0.63025 0.01384 0.0
H1898 H 0.56875 0.63734 0.03264 0.0
H1899 H 0.50647 0.56958 0.06944 0.0
H1900 H 0.50135 0.53603 0.05264 0.0
H1901 H 0.52157 0.58406 0.01384 0.0
C1902 C 0.53544 0.65963 0.05157 0.0
C1903 C 0.53427 0.6652 0.06704 0.0
C1904 C 0.52628 0.6463 0.07793 0.0
C1905 C 0.51995 0.62251 0.07361 0.0
C1906 C 0.52142 0.61774 0.05832 0.0
C1907 C 0.52881 0.63569 0.04743 0.0
C1908 C 0.52887 0.62565 0.03176 0.0
C1909 C 0.50996 0.62738 0.02121 0.0
C1910 C 0.55522 0.63866 0.02491 0.0
C1911 C 0.52061 0.59932 0.03558 0.0
C1912 C 0.51645 0.5952 0.05098 0.0
C1913 C 0.50952 0.57257 0.05736 0.0
C1914 C 0.50682 0.55367 0.04775 0.0
C1915 C 0.5109 0.55745 0.03195 0.0
C1916 C 0.51774 0.58053 0.02579 0.0
H1917 H 0.87734 0.3457 0.95007 0.0
H1918 H 0.86169 0.29941 0.98957 0.0
H1919 H 0.89327 0.33455 1.00424 0.0
H1920 H 0.94506 0.38302 0.95681 0.0
H1921 H 0.94648 0.41073 0.95034 0.0
H1922 H 0.92338 0.38167 0.9426 0.0
H1923 H 0.88844 0.39092 0.95024 0.0
H1924 H 0.91143 0.41991 0.95805 0.0
H1925 H 0.88612 0.39839 0.96971 0.0
H1926 H 0.92429 0.37475 0.0152 0.0
H1927 H 0.95453 0.41777 0.02142 0.0
H1928 H 0.95164 0.43833 0.97492 0.0
C1929 C 0.88086 0.34288 0.96173 0.0
C1930 C 0.8668 0.31979 0.9687 0.0
C1931 C 0.87183 0.31698 0.98405 0.0
C1932 C 0.88987 0.33679 0.99246 0.0
C1933 C 0.90302 0.35934 0.98536 0.0
C1934 C 0.89897 0.36252 0.97031 0.0
C1935 C 0.91532 0.38896 0.96561 0.0
C1936 C 0.93365 0.39122 0.9531 0.0
C1937 C 0.89937 0.4002 0.96061 0.0
C1938 C 0.92885 0.4001 0.98043 0.0
C1939 C 0.92141 0.38264 0.99166 0.0
C1940 C 0.93037 0.38858 1.00649 0.0
C1941 C 0.94731 0.41304 0.00997 0.0
C1942 C 0.9551 0.43119 0.99869 0.0
C1943 C 0.94604 0.42462 0.98369 0.0
H1944 H 0.6758 0.5696 0.96306 0.0
H1945 H 0.6631 0.49581 0.96668 0.0
H1946 H 0.62201 0.48254 0.9783 0.0
H1947 H 0.64695 0.56914 0.99917 0.0
H1948 H 0.63354 0.58697 0.99236 0.0
H1949 H 0.66196 0.59086 0.98411 0.0
H1950 H 0.64142 0.58166 0.9574 0.0
H1951 H 0.61303 0.57785 0.96561 0.0
H1952 H 0.61237 0.55372 0.95428 0.0
H1953 H 0.58186 0.47673 0.98843 0.0
H1954 H 0.54546 0.47887 0.99717 0.0
H1955 H 0.58413 0.55682 0.98905 0.0
C1956 C 0.66422 0.55065 0.96623 0.0
C1957 C 0.67255 0.53367 0.96395 0.0
C1958 C 0.65708 0.50908 0.96838 0.0
C1959 C 0.63373 0.50138 0.97498 0.0
C1960 C 0.62614 0.51855 0.97725 0.0
C1961 C 0.64089 0.54269 0.9731 0.0
C1962 C 0.62823 0.55735 0.97707 0.0
C1963 C 0.6436 0.57726 0.98888 0.0
C1964 C 0.62348 0.56829 0.96273 0.0
C1965 C 0.60396 0.53757 0.98383 0.0
C1966 C 0.60323 0.51536 0.98379 0.0
C1967 C 0.58241 0.49412 0.98878 0.0
C1968 C 0.56174 0.49556 0.9939 0.0
C1969 C 0.56209 0.51814 0.99444 0.0
C1970 C 0.58354 0.53939 0.98921 0.0
H1971 H 0.48768 0.14332 0.96574 0.0
H1972 H 0.40814 0.09567 0.95908 0.0
H1973 H 0.40966 0.064 0.97458 0.0
H1974 H 0.50397 0.09825 0.96168 0.0
H1975 H 0.52824 0.10983 0.97591 0.0
H1976 H 0.52061 0.13036 0.96629 0.0
H1977 H 0.51277 0.14491 0.99218 0.0
H1978 H 0.52037 0.12434 1.00189 0.0
H1979 H 0.49086 0.12279 1.00528 0.0
H1980 H 0.42002 0.03604 0.98781 0.0
H1981 H 0.4389 0.0127 0.99799 0.0
H1982 H 0.51207 0.07759 0.99667 0.0
C1983 C 0.47056 0.12643 0.96792 0.0
C1984 C 0.44775 0.12186 0.96131 0.0
C1985 C 0.42576 0.0994 0.96405 0.0
C1986 C 0.42642 0.08141 0.97291 0.0
C1987 C 0.44922 0.08616 0.97899 0.0
C1988 C 0.47093 0.1081 0.97671 0.0
C1989 C 0.49328 0.10744 0.9834 0.0
C1990 C 0.51266 0.11172 0.97108 0.0
C1991 C 0.50501 0.12598 0.99646 0.0
C1992 C 0.48081 0.08144 0.98927 0.0
C1993 C 0.45532 0.0697 0.98677 0.0
C1994 C 0.43988 0.0451 0.99004 0.0
C1995 C 0.45079 0.03195 0.99572 0.0
C1996 C 0.47686 0.04339 0.99809 0.0
C1997 C 0.49201 0.06859 0.9952 0.0
H1998 H 0.67047 0.0977 0.95476 0.0
H1999 H 0.65972 0.15986 0.96155 0.0
H2000 H 0.62147 0.13402 0.9763 0.0
H2001 H 0.60672 0.0526 0.95014 0.0
H2002 H 0.60923 0.02927 0.96039 0.0
H2003 H 0.63603 0.05289 0.95079 0.0
H2004 H 0.66117 0.06413 0.97603 0.0
H2005 H 0.6343 0.04057 0.98569 0.0
H2006 H 0.64904 0.07161 0.99254 0.0
H2007 H 0.58249 0.10045 0.98854 0.0
H2008 H 0.54681 0.06219 0.99786 0.0
H2009 H 0.58454 0.02264 0.98493 0.0
C2010 C 0.66001 0.10581 0.95935 0.0
C2011 C 0.66793 0.13072 0.95698 0.0
C2012 C 0.65397 0.14081 0.9633 0.0
C2013 C 0.63225 0.12629 0.97169 0.0
C2014 C 0.62495 0.10179 0.97388 0.0
C2015 C 0.63852 0.09167 0.96799 0.0
C2016 C 0.62656 0.06483 0.97191 0.0
C2017 C 0.6192 0.04897 0.95745 0.0
C2018 C 0.6438 0.06001 0.98215 0.0
C2019 C 0.6038 0.06128 0.98051 0.0
C2020 C 0.60321 0.08281 0.98158 0.0
C2021 C 0.58307 0.08362 0.98809 0.0
C2022 C 0.56294 0.0618 0.9935 0.0
C2023 C 0.56336 0.03962 0.99271 0.0
C2024 C 0.58412 0.0395 0.98614 0.0
H2025 H 0.90593 0.57139 0.95491 0.0
H2026 H 0.8405 0.50024 0.96138 0.0
H2027 H 0.86609 0.48672 0.97553 0.0
H2028 H 0.94969 0.55128 0.94919 0.0
H2029 H 0.97459 0.57626 0.9595 0.0
H2030 H 0.9509 0.58036 0.95033 0.0
H2031 H 0.94121 0.59424 0.97595 0.0
H2032 H 0.96487 0.59008 0.98518 0.0
H2033 H 0.93337 0.5746 0.99226 0.0
H2034 H 0.89988 0.48017 0.98754 0.0
H2035 H 0.93857 0.4819 0.99693 0.0
H2036 H 0.9811 0.55794 0.9839 0.0
C2037 C 0.89702 0.55296 0.95929 0.0
C2038 C 0.87124 0.53683 0.957 0.0
C2039 C 0.8602 0.51294 0.96308 0.0
C2040 C 0.87459 0.50509 0.97111 0.0
C2041 C 0.89997 0.52145 0.97318 0.0
C2042 C 0.91103 0.54496 0.96754 0.0
C2043 C 0.93864 0.55896 0.97126 0.0
C2044 C 0.95438 0.56719 0.9567 0.0
C2045 C 0.94488 0.58076 0.98179 0.0
C2046 C 0.94155 0.53951 0.97949 0.0
C2047 C 0.91905 0.51798 0.98056 0.0
C2048 C 0.91749 0.49709 0.98701 0.0
C2049 C 0.93951 0.49825 0.99242 0.0
C2050 C 0.96264 0.52027 0.9916 0.0
C2051 C 0.96353 0.54105 0.98502 0.0
H2052 H 0.46786 0.32041 0.97743 0.0
H2053 H 0.48481 0.34401 0.93053 0.0
H2054 H 0.49205 0.38461 0.93785 0.0
H2055 H 0.43658 0.35253 0.98703 0.0
H2056 H 0.44974 0.36125 1.00583 0.0
H2057 H 0.44619 0.33382 0.99717 0.0
H2058 H 0.49339 0.34941 1.00106 0.0
H2059 H 0.4969 0.37672 0.0099 0.0
H2060 H 0.51596 0.37897 0.99386 0.0
H2061 H 0.49464 0.4215 0.9496 0.0
H2062 H 0.49667 0.45436 0.96577 0.0
H2063 H 0.48112 0.4086 1.00543 0.0
C2064 C 0.47351 0.3342 0.96873 0.0
C2065 C 0.47529 0.32873 0.95333 0.0
C2066 C 0.48257 0.34739 0.94232 0.0
C2067 C 0.48695 0.37063 0.94637 0.0
C2068 C 0.48446 0.3752 0.96153 0.0
C2069 C 0.47836 0.35772 0.97261 0.0
C2070 C 0.47712 0.36764 0.98811 0.0
C2071 C 0.45084 0.35293 0.99493 0.0
C2072 C 0.49703 0.36822 0.99886 0.0
C2073 C 0.48303 0.39323 0.9839 0.0
C2074 C 0.48705 0.39707 0.96848 0.0
C2075 C 0.49176 0.41882 0.96171 0.0
C2076 C 0.49263 0.43727 0.97096 0.0
C2077 C 0.48903 0.43395 0.98681 0.0
C2078 C 0.48426 0.41168 0.99337 0.0
H2079 H 0.12572 0.65898 0.07145 0.0
H2080 H 0.14552 0.70708 0.03259 0.0
H2081 H 0.11485 0.67292 0.01687 0.0
H2082 H 0.11877 0.60768 0.05177 0.0
H2083 H 0.09221 0.58537 0.06228 0.0
H2084 H 0.11403 0.61395 0.07109 0.0
H2085 H 0.07811 0.62257 0.07713 0.0
H2086 H 0.05614 0.59384 0.06847 0.0
H2087 H 0.058 0.62175 0.06201 0.0
H2088 H 0.08588 0.63323 1.00461 0.0
H2089 H 0.05695 0.59041 0.99714 0.0
H2090 H 0.05409 0.56774 0.0438 0.0
C2091 C 0.1231 0.66239 0.05974 0.0
C2092 C 0.13814 0.68563 0.0532 0.0
C2093 C 0.13444 0.68934 0.03777 0.0
C2094 C 0.117 0.67009 0.02876 0.0
C2095 C 0.1031 0.64723 0.03536 0.0
C2096 C 0.10559 0.64329 0.05054 0.0
C2097 C 0.08892 0.61659 0.05456 0.0
C2098 C 0.10442 0.60524 0.06026 0.0
C2099 C 0.06912 0.61351 0.06623 0.0
C2100 C 0.0772 0.60621 0.0392 0.0
C2101 C 0.08572 0.62423 0.0283 0.0
C2102 C 0.07882 0.61898 0.01307 0.0
C2103 C 0.06265 0.59463 0.00889 0.0
C2104 C 0.05353 0.57599 0.01989 0.0
C2105 C 0.06069 0.58185 0.03524 0.0
H2106 H 0.35609 0.49046 0.05595 0.0
H2107 H 0.31005 0.41166 0.05411 0.0
H2108 H 0.34166 0.40923 0.03826 0.0
H2109 H 0.38321 0.49861 0.01706 0.0
H2110 H 0.41382 0.52217 0.02297 0.0
H2111 H 0.38648 0.5187 0.03256 0.0
H2112 H 0.40398 0.5143 0.05834 0.0
H2113 H 0.43153 0.51821 0.04891 0.0
H2114 H 0.41328 0.49155 0.06036 0.0
H2115 H 0.37897 0.41437 0.02516 0.0
H2116 H 0.42152 0.42653 0.01664 0.0
H2117 H 0.44518 0.50227 0.02652 0.0
C2118 C 0.35261 0.47282 0.05192 0.0
C2119 C 0.3306 0.45118 0.0561 0.0
C2120 C 0.32677 0.42835 0.05096 0.0
C2121 C 0.34453 0.42684 0.04188 0.0
C2122 C 0.36615 0.44836 0.03805 0.0
C2123 C 0.37044 0.47096 0.04292 0.0
C2124 C 0.39642 0.49092 0.0383 0.0
C2125 C 0.39488 0.50866 0.02705 0.0
C2126 C 0.41223 0.50454 0.05231 0.0
C2127 C 0.40628 0.47584 0.03059 0.0
C2128 C 0.3882 0.45139 0.03035 0.0
C2129 C 0.39313 0.43348 0.02499 0.0
C2130 C 0.41732 0.44054 0.02016 0.0
C2131 C 0.43633 0.46533 0.02051 0.0
C2132 C 0.43068 0.48332 0.02557 0.0
H2133 H 0.5469 0.8875 0.07545 0.0
H2134 H 0.56402 0.85504 0.03707 0.0
H2135 H 0.55577 0.88063 0.01963 0.0
H2136 H 0.49768 0.8927 0.05793 0.0
H2137 H 0.50623 0.92181 0.06649 0.0
H2138 H 0.51338 0.90089 0.07607 0.0
H2139 H 0.56005 0.93429 0.0774 0.0
H2140 H 0.55299 0.9553 0.06783 0.0
H2141 H 0.57622 0.94897 0.06019 0.0
H2142 H 0.54474 0.90889 1.00625 0.0
H2143 H 0.53281 0.93895 0.99797 0.0
H2144 H 0.52455 0.95443 0.04487 0.0
C2145 C 0.54923 0.88594 0.0634 0.0
C2146 C 0.55594 0.86902 0.05768 0.0
C2147 C 0.5584 0.86742 0.04177 0.0
C2148 C 0.55396 0.88204 0.03175 0.0
C2149 C 0.54728 0.89838 0.03778 0.0
C2150 C 0.54506 0.90055 0.05323 0.0
C2151 C 0.53762 0.91958 0.05672 0.0
C2152 C 0.51222 0.90805 0.06477 0.0
C2153 C 0.55794 0.94079 0.06609 0.0
C2154 C 0.53589 0.92766 0.04081 0.0
C2155 C 0.54143 0.91511 0.03006 0.0
C2156 C 0.54039 0.91885 0.01457 0.0
C2157 C 0.53337 0.93579 0.00994 0.0
C2158 C 0.52759 0.94883 0.02074 0.0
C2159 C 0.52913 0.94486 0.03637 0.0
H2160 H 1.00026 0.23643 0.38679 0.0
H2161 H 0.01299 0.17484 0.38613 0.0
H2162 H 0.05175 0.19917 0.3715 0.0
H2163 H 0.0247 0.25816 0.34806 0.0
H2164 H 0.03826 0.28981 0.35343 0.0
H2165 H 0.01055 0.26698 0.36283 0.0
H2166 H 0.03287 0.28145 0.38891 0.0
H2167 H 0.06052 0.3043 0.37959 0.0
H2168 H 0.06225 0.28247 0.39191 0.0
H2169 H 0.09161 0.23179 0.35985 0.0
H2170 H 0.12824 0.26952 0.35066 0.0
H2171 H 0.0883 0.30903 0.35705 0.0
C2172 C 0.01113 0.22804 0.38342 0.0
C2173 C 1.0037 0.20379 0.38759 0.0
C2174 C 0.01829 0.19334 0.38294 0.0
C2175 C 0.04031 0.20702 0.37465 0.0
C2176 C 0.04726 0.23097 0.37084 0.0
C2177 C 0.03293 0.2413 0.3749 0.0
C2178 C 0.04493 0.26762 0.36975 0.0
C2179 C 0.02863 0.27082 0.35781 0.0
C2180 C 0.05047 0.28498 0.38335 0.0
C2181 C 0.06872 0.27078 0.36275 0.0
C2182 C 0.06966 0.24939 0.36341 0.0
C2183 C 0.09075 0.24843 0.35886 0.0
C2184 C 0.11142 0.2699 0.35356 0.0
C2185 C 0.1106 0.29186 0.3525 0.0
C2186 C 0.08898 0.29222 0.35719 0.0
H2187 H 0.81371 0.82905 0.38747 0.0
H2188 H 0.7776 0.75024 0.39092 0.0
H2189 H 0.73984 0.74636 0.37861 0.0
H2190 H 0.75763 0.83231 0.39611 0.0
H2191 H 0.7654 0.85737 0.38339 0.0
H2192 H 0.78984 0.85389 0.39209 0.0
H2193 H 0.80738 0.85477 0.36567 0.0
H2194 H 0.78227 0.85629 0.35626 0.0
H2195 H 0.78856 0.83189 0.35185 0.0
H2196 H 0.7057 0.75063 0.36697 0.0
H2197 H 0.67584 0.76281 0.35766 0.0
H2198 H 0.73281 0.83906 0.36136 0.0
C2199 C 0.79783 0.81103 0.38555 0.0
C2200 C 0.79856 0.78987 0.39007 0.0
C2201 C 0.77737 0.76661 0.38757 0.0
C2202 C 0.7559 0.76425 0.38053 0.0
C2203 C 0.7557 0.78536 0.37619 0.0
C2204 C 0.77591 0.80834 0.37877 0.0
C2205 C 0.7701 0.82798 0.37361 0.0
C2206 C 0.77078 0.84382 0.3871 0.0
C2207 C 0.78814 0.84369 0.36109 0.0
C2208 C 0.74363 0.8124 0.36754 0.0
C2209 C 0.73581 0.78785 0.3692 0.0
C2210 C 0.71168 0.76976 0.36542 0.0
C2211 C 0.69487 0.77684 0.36011 0.0
C2212 C 0.70221 0.80177 0.35835 0.0
C2213 C 0.727 0.81984 0.36203 0.0
H2214 H 0.1957 0.00089 0.37509 0.0
H2215 H 0.26816 0.02451 0.3956 0.0
H2216 H 0.26827 0.9885 0.38474 0.0
H2217 H 0.17072 0.93787 0.38203 0.0
H2218 H 0.15355 0.92774 0.36443 0.0
H2219 H 0.15994 0.95635 0.37277 0.0
H2220 H 0.18104 0.97863 0.34779 0.0
H2221 H 0.17468 0.94998 0.33945 0.0
H2222 H 0.20617 0.97533 0.34001 0.0
H2223 H 0.25984 0.94943 0.37305 0.0
H2224 H 0.24247 0.90818 0.36218 0.0
H2225 H 0.17519 0.90921 0.34912 0.0
C2226 C 0.21172 0.99861 0.37709 0.0
C2227 C 0.23195 0.01544 0.38617 0.0
C2228 C 0.25239 0.01169 0.38879 0.0
C2229 C 0.25272 0.99144 0.38256 0.0
C2230 C 0.23247 0.97513 0.37373 0.0
C2231 C 0.21228 0.97838 0.37101 0.0
C2232 C 0.19225 0.95722 0.3619 0.0
C2233 C 0.16767 0.94402 0.37082 0.0
C2234 C 0.18832 0.96581 0.34637 0.0
C2235 C 0.20418 0.9414 0.36021 0.0
C2236 C 0.2275 0.95228 0.36698 0.0
C2237 C 0.24171 0.9408 0.36759 0.0
C2238 C 0.23164 0.91734 0.36141 0.0
C2239 C 0.20755 0.90556 0.35473 0.0
C2240 C 0.19385 0.91796 0.35389 0.0
H2241 H 0.53324 0.67802 0.28356 0.0
H2242 H 0.5344 0.63113 0.31904 0.0
H2243 H 0.56748 0.66716 0.33247 0.0
H2244 H 0.59964 0.72134 0.28344 0.0
H2245 H 0.59584 0.74753 0.28052 0.0
H2246 H 0.57269 0.71803 0.27338 0.0
H2247 H 0.53834 0.72145 0.28818 0.0
H2248 H 0.56139 0.75095 0.29535 0.0
H2249 H 0.54183 0.72709 0.30836 0.0
H2250 H 0.60067 0.70771 0.34182 0.0
H2251 H 0.63053 0.75114 0.34739 0.0
H2252 H 0.60683 0.77248 0.30675 0.0
C2253 C 0.54061 0.67542 0.29411 0.0
C2254 C 0.53132 0.65184 0.3003 0.0
C2255 C 0.54115 0.64908 0.3142 0.0
C2256 C 0.56001 0.66939 0.32186 0.0
C2257 C 0.56871 0.69238 0.31551 0.0
C2258 C 0.55927 0.69559 0.30203 0.0
C2259 C 0.57146 0.72245 0.29799 0.0
C2260 C 0.58576 0.72764 0.28294 0.0
C2261 C 0.5521 0.73098 0.29744 0.0
C2262 C 0.58917 0.73376 0.31132 0.0
C2263 C 0.5874 0.71601 0.3212 0.0
C2264 C 0.60208 0.72179 0.33424 0.0
C2265 C 0.61887 0.74641 0.33735 0.0
C2266 C 0.62048 0.76484 0.32761 0.0
C2267 C 0.60566 0.75853 0.31438 0.0
H2268 H 0.32294 0.82948 0.29697 0.0
H2269 H 0.35669 0.90762 0.29066 0.0
H2270 H 0.3201 0.90671 0.30277 0.0
H2271 H 0.25964 0.81587 0.28828 0.0
H2272 H 0.24556 0.79141 0.30184 0.0
H2273 H 0.2747 0.79858 0.29305 0.0
H2274 H 0.29376 0.80298 0.31952 0.0
H2275 H 0.26573 0.79789 0.32897 0.0
H2276 H 0.29494 0.82548 0.33257 0.0
H2277 H 0.27983 0.89733 0.31572 0.0
H2278 H 0.23725 0.87964 0.32634 0.0
H2279 H 0.22848 0.8073 0.32335 0.0
C2280 C 0.32257 0.84637 0.29817 0.0
C2281 C 0.34272 0.86869 0.29294 0.0
C2282 C 0.34145 0.89036 0.29453 0.0
C2283 C 0.3208 0.89001 0.30147 0.0
C2284 C 0.30132 0.86778 0.3066 0.0
C2285 C 0.30181 0.84627 0.30479 0.0
C2286 C 0.27787 0.82466 0.31061 0.0
C2287 C 0.2636 0.80657 0.29767 0.0
C2288 C 0.28337 0.81199 0.32371 0.0
C2289 C 0.26395 0.83739 0.31612 0.0
C2290 C 0.27792 0.8623 0.3138 0.0
C2291 C 0.26882 0.87788 0.31766 0.0
C2292 C 0.2447 0.86772 0.32377 0.0
C2293 C 0.22993 0.84223 0.32602 0.0
C2294 C 0.23968 0.82691 0.32208 0.0
H2295 H 0.10815 0.43458 0.27991 0.0
H2296 H 0.16038 0.50214 0.30274 0.0
H2297 H 0.17513 0.47974 0.31851 0.0
H2298 H 0.09202 0.39566 0.31197 0.0
H2299 H 0.09089 0.37033 0.30178 0.0
H2300 H 0.08435 0.39154 0.29202 0.0
H2301 H 0.11892 0.40003 0.2724 0.0
H2302 H 0.12533 0.37859 0.28199 0.0
H2303 H 0.1501 0.40946 0.27896 0.0
H2304 H 0.18332 0.45 0.33247 0.0
H2305 H 0.18669 0.41526 0.34221 0.0
H2306 H 0.13063 0.36744 0.30958 0.0
C2307 C 0.12292 0.44472 0.28807 0.0
C2308 C 0.1328 0.47008 0.29022 0.0
C2309 C 0.15205 0.48262 0.30112 0.0
C2310 C 0.16068 0.47009 0.31009 0.0
C2311 C 0.15013 0.44505 0.30794 0.0
C2312 C 0.13194 0.43252 0.29707 0.0
C2313 C 0.12398 0.40563 0.297 0.0
C2314 C 0.09616 0.38987 0.30093 0.0
C2315 C 0.12995 0.39798 0.28168 0.0
C2316 C 0.14041 0.40506 0.30959 0.0
C2317 C 0.15523 0.42795 0.31581 0.0
C2318 C 0.17176 0.43195 0.3277 0.0
C2319 C 0.17335 0.41201 0.33327 0.0
C2320 C 0.15854 0.38836 0.32695 0.0
C2321 C 0.14194 0.38503 0.31491 0.0
H2322 H 0.33148 0.47313 0.29764 0.0
H2323 H 0.35523 0.42076 0.28701 0.0
H2324 H 0.31926 0.38901 0.30121 0.0
H2325 H 0.30499 0.4488 0.33606 0.0
H2326 H 0.27933 0.45431 0.33319 0.0
H2327 H 0.309 0.47384 0.32433 0.0
H2328 H 0.28706 0.46478 0.29802 0.0
H2329 H 0.25752 0.44532 0.30689 0.0
H2330 H 0.26824 0.43352 0.29181 0.0
H2331 H 0.27898 0.36216 0.3142 0.0
H2332 H 0.23545 0.34129 0.32334 0.0
H2333 H 0.23685 0.41047 0.32509 0.0
C2334 C 0.32936 0.45511 0.29863 0.0
C2335 C 0.34616 0.44936 0.29135 0.0
C2336 C 0.3425 0.42546 0.29251 0.0
C2337 C 0.32229 0.40741 0.30066 0.0
C2338 C 0.30587 0.41355 0.30757 0.0
C2339 C 0.30909 0.43679 0.3066 0.0
C2340 C 0.28727 0.43788 0.31362 0.0
C2341 C 0.29566 0.45471 0.32763 0.0
C2342 C 0.27426 0.44583 0.30188 0.0
C2343 C 0.27085 0.41144 0.31815 0.0
C2344 C 0.28225 0.39786 0.31492 0.0
C2345 C 0.2701 0.37268 0.31709 0.0
C2346 C 0.24546 0.361 0.32235 0.0
C2347 C 0.23333 0.37451 0.32542 0.0
C2348 C 0.24621 0.40001 0.32337 0.0
H2349 H 0.53146 0.83345 0.29408 0.0
H2350 H 0.5622 0.91183 0.29601 0.0
H2351 H 0.59882 0.91628 0.31016 0.0
H2352 H 0.55318 0.82789 0.33178 0.0
H2353 H 0.56174 0.80532 0.32667 0.0
H2354 H 0.53644 0.80614 0.31695 0.0
H2355 H 0.55642 0.81098 0.29085 0.0
H2356 H 0.58123 0.80829 0.2997 0.0
H2357 H 0.58843 0.83434 0.288 0.0
H2358 H 0.63447 0.91315 0.32035 0.0
H2359 H 0.66589 0.90224 0.32853 0.0
H2360 H 0.61192 0.82552 0.32239 0.0
C2361 C 0.54565 0.85141 0.29788 0.0
C2362 C 0.54396 0.87235 0.29421 0.0
C2363 C 0.56309 0.89564 0.29894 0.0
C2364 C 0.58395 0.89831 0.30693 0.0
C2365 C 0.58539 0.87747 0.31019 0.0
C2366 C 0.5667 0.8544 0.30599 0.0
C2367 C 0.57362 0.83524 0.31045 0.0
C2368 C 0.55516 0.81757 0.32217 0.0
C2369 C 0.57501 0.8214 0.29641 0.0
C2370 C 0.59934 0.85124 0.31743 0.0
C2371 C 0.60571 0.87556 0.31704 0.0
C2372 C 0.62945 0.89415 0.32116 0.0
C2373 C 0.64719 0.88782 0.32576 0.0
C2374 C 0.64101 0.86309 0.32669 0.0
C2375 C 0.61672 0.84452 0.32249 0.0
H2376 H 0.12108 0.66908 0.28879 0.0
H2377 H 0.08431 0.62385 0.32794 0.0
H2378 H 0.09269 0.66059 0.34255 0.0
H2379 H 0.16918 0.71815 0.30845 0.0
H2380 H 0.16952 0.74161 0.29669 0.0
H2381 H 0.15924 0.71168 0.28891 0.0
H2382 H 0.11716 0.70812 0.2809 0.0
H2383 H 0.12743 0.73818 0.28852 0.0
H2384 H 0.09855 0.71259 0.2949 0.0
H2385 H 0.10805 0.70244 0.35352 0.0
H2386 H 0.1269 0.74653 0.3594 0.0
H2387 H 0.15205 0.76409 0.31293 0.0
C2388 C 0.11421 0.66679 0.30031 0.0
C2389 C 0.10213 0.64358 0.30723 0.0
C2390 C 0.09393 0.64149 0.32246 0.0
C2391 C 0.09847 0.66222 0.33083 0.0
C2392 C 0.11097 0.68486 0.32376 0.0
C2393 C 0.11844 0.68725 0.30879 0.0
C2394 C 0.13219 0.71377 0.30402 0.0
C2395 C 0.15912 0.72176 0.29924 0.0
C2396 C 0.11797 0.71843 0.29133 0.0
C2397 C 0.13164 0.72591 0.31872 0.0
C2398 C 0.11937 0.70894 0.32999 0.0
C2399 C 0.11754 0.71589 0.34476 0.0
C2400 C 0.12852 0.74088 0.34806 0.0
C2401 C 0.14102 0.7584 0.33664 0.0
C2402 C 0.14238 0.75085 0.32179 0.0
H2403 H 0.81377 0.01117 0.37261 0.0
H2404 H 0.80894 0.98887 0.41966 0.0
H2405 H 0.77734 0.94692 0.41248 0.0
H2406 H 0.74954 0.97423 0.36334 0.0
H2407 H 0.75485 0.96662 0.34449 0.0
H2408 H 0.77744 0.99499 0.3532 0.0
H2409 H 0.81197 0.98365 0.34903 0.0
H2410 H 0.78942 0.95527 0.34028 0.0
H2411 H 0.8076 0.95511 0.35625 0.0
H2412 H 0.74514 0.90784 0.40056 0.0
H2413 H 0.71504 0.87377 0.38434 0.0
H2414 H 0.74179 0.92052 0.34488 0.0
C2415 C 0.80636 0.99743 0.38139 0.0
C2416 C 0.81381 0.00351 0.39675 0.0
C2417 C 0.80326 0.98493 0.40788 0.0
C2418 C 0.78543 0.96094 0.4039 0.0
C2419 C 0.77846 0.95566 0.38871 0.0
C2420 C 0.78867 0.9733 0.3776 0.0
C2421 C 0.77767 0.96275 0.36212 0.0
C2422 C 0.76407 0.9754 0.3554 0.0
C2423 C 0.79787 0.96429 0.35128 0.0
C2424 C 0.75947 0.93652 0.36632 0.0
C2425 C 0.76025 0.93286 0.38174 0.0
C2426 C 0.74451 0.91043 0.38846 0.0
C2427 C 0.72744 0.89126 0.37921 0.0
C2428 C 0.72639 0.89459 0.36342 0.0
C2429 C 0.74269 0.91742 0.35687 0.0
H2430 H 1.00362 0.7698 0.39421 0.0
H2431 H 0.01378 0.84233 0.38855 0.0
H2432 H 0.05379 0.85518 0.37531 0.0
H2433 H 0.06588 0.78693 0.4019 0.0
H2434 H 0.06553 0.7622 0.39141 0.0
H2435 H 0.03709 0.75849 0.39943 0.0
H2436 H 0.01608 0.74709 0.37286 0.0
H2437 H 0.04452 0.75079 0.36476 0.0
H2438 H 0.03056 0.76769 0.35721 0.0
H2439 H 0.09542 0.8611 0.36514 0.0
H2440 H 0.13261 0.85841 0.35746 0.0
H2441 H 0.09373 0.78147 0.36843 0.0
C2442 C 0.01416 0.78833 0.39006 0.0
C2443 C 0.0056 0.8051 0.39246 0.0
C2444 C 0.01987 0.82913 0.38675 0.0
C2445 C 0.04267 0.8366 0.37926 0.0
C2446 C 0.05078 0.81971 0.3773 0.0
C2447 C 0.0367 0.79595 0.38235 0.0
C2448 C 0.04961 0.78136 0.37908 0.0
C2449 C 0.05483 0.77169 0.39383 0.0
C2450 C 0.03427 0.7605 0.36781 0.0
C2451 C 0.07354 0.80078 0.37189 0.0
C2452 C 0.07393 0.82281 0.37088 0.0
C2453 C 0.09496 0.84376 0.36554 0.0
C2454 C 0.11595 0.84206 0.36109 0.0
C2455 C 0.11557 0.81949 0.36171 0.0
C2456 C 0.09414 0.79874 0.36732 0.0
H2457 H 0.21026 0.21621 0.40218 0.0
H2458 H 0.25101 0.20397 0.36642 0.0
H2459 H 0.24257 0.22981 0.34912 0.0
H2460 H 0.16246 0.2147 0.37843 0.0
H2461 H 0.16055 0.23832 0.38885 0.0
H2462 H 0.17001 0.21906 0.39839 0.0
H2463 H 0.21085 0.25729 0.40734 0.0
H2464 H 0.2014 0.27664 0.39791 0.0
H2465 H 0.23105 0.27914 0.39351 0.0
H2466 H 0.22988 0.25762 0.33582 0.0
H2467 H 0.21434 0.28525 0.32789 0.0
H2468 H 0.18131 0.27797 0.37236 0.0
C2469 C 0.21765 0.21918 0.39077 0.0
C2470 C 0.23132 0.20813 0.38564 0.0
C2471 C 0.24031 0.21212 0.37053 0.0
C2472 C 0.23568 0.22681 0.36065 0.0
C2473 C 0.22196 0.23729 0.36604 0.0
C2474 C 0.21311 0.23366 0.38076 0.0
C2475 C 0.19872 0.2468 0.38377 0.0
C2476 C 0.17131 0.22863 0.38758 0.0
C2477 C 0.21126 0.26611 0.39637 0.0
C2478 C 0.20099 0.25852 0.36849 0.0
C2479 C 0.21441 0.25286 0.35837 0.0
C2480 C 0.21917 0.26202 0.34362 0.0
C2481 C 0.21009 0.27752 0.33916 0.0
C2482 C 0.19636 0.28353 0.34942 0.0
C2483 C 0.19175 0.27374 0.36422 0.0
H2484 H 0.69496 0.52897 0.7246 0.0
H2485 H 0.64987 0.56375 0.72153 0.0
H2486 H 0.68079 0.59478 0.70428 0.0
H2487 H 0.7518 0.58257 0.7275 0.0
H2488 H 0.76955 0.57234 0.71658 0.0
H2489 H 0.7419 0.55049 0.72634 0.0
H2490 H 0.72413 0.52738 0.70097 0.0
H2491 H 0.75152 0.54964 0.69102 0.0
H2492 H 0.72098 0.5433 0.68494 0.0
H2493 H 0.71816 0.62477 0.69089 0.0
H2494 H 0.76153 0.65414 0.6839 0.0
H2495 H 0.78378 0.60096 0.69492 0.0
C2496 C 0.69151 0.54288 0.71997 0.0
C2497 C 0.67011 0.54408 0.72421 0.0
C2498 C 0.66622 0.56268 0.71832 0.0
C2499 C 0.68353 0.58017 0.70842 0.0
C2500 C 0.70464 0.57878 0.70452 0.0
C2501 C 0.70885 0.56073 0.71016 0.0
C2502 C 0.7346 0.56536 0.70572 0.0
C2503 C 0.75039 0.56785 0.71988 0.0
C2504 C 0.73268 0.54522 0.69503 0.0
C2505 C 0.74463 0.58946 0.69742 0.0
C2506 C 0.72668 0.59644 0.69653 0.0
C2507 C 0.73214 0.61923 0.69108 0.0
C2508 C 0.75677 0.63575 0.68707 0.0
C2509 C 0.77555 0.6293 0.68825 0.0
C2510 C 0.76935 0.60569 0.69313 0.0
H2511 H 0.48179 0.16578 0.71848 0.0
H2512 H 0.44204 0.08772 0.72651 0.0
H2513 H 0.40414 0.08447 0.71488 0.0
H2514 H 0.42973 0.17456 0.72764 0.0
H2515 H 0.43725 0.19776 0.71351 0.0
H2516 H 0.46163 0.19378 0.72181 0.0
H2517 H 0.47495 0.18904 0.69508 0.0
H2518 H 0.44974 0.19111 0.68623 0.0
H2519 H 0.45332 0.16476 0.68289 0.0
H2520 H 0.37026 0.08952 0.70414 0.0
H2521 H 0.341 0.10279 0.69542 0.0
H2522 H 0.40151 0.17774 0.69361 0.0
C2523 C 0.4651 0.14804 0.71765 0.0
C2524 C 0.46477 0.12693 0.72334 0.0
C2525 C 0.44258 0.10406 0.72227 0.0
C2526 C 0.42104 0.10203 0.71562 0.0
C2527 C 0.42188 0.1231 0.71015 0.0
C2528 C 0.44316 0.14573 0.71122 0.0
C2529 C 0.43833 0.16556 0.7052 0.0
C2530 C 0.44195 0.184 0.71779 0.0
C2531 C 0.45506 0.1784 0.69152 0.0
C2532 C 0.41103 0.15047 0.70056 0.0
C2533 C 0.40207 0.126 0.70356 0.0
C2534 C 0.37709 0.10852 0.70148 0.0
C2535 C 0.36064 0.11621 0.69652 0.0
C2536 C 0.36918 0.14107 0.69338 0.0
C2537 C 0.39476 0.15848 0.69532 0.0
H2538 H 0.8775 0.34673 0.69883 0.0
H2539 H 0.84168 0.31973 0.74239 0.0
H2540 H 0.82996 0.27788 0.73472 0.0
H2541 H 0.83111 0.29242 0.67635 0.0
H2542 H 0.85469 0.29343 0.66389 0.0
H2543 H 0.85843 0.32125 0.67211 0.0
H2544 H 0.90131 0.33092 0.68317 0.0
H2545 H 0.89759 0.30306 0.67511 0.0
H2546 H 0.9032 0.30884 0.69519 0.0
H2547 H 0.82626 0.24031 0.72399 0.0
H2548 H 0.82735 0.20743 0.70942 0.0
H2549 H 0.86338 0.2571 0.67205 0.0
C2550 C 0.86665 0.3319 0.70657 0.0
C2551 C 0.86075 0.33649 0.72128 0.0
C2552 C 0.8468 0.31667 0.73118 0.0
C2553 C 0.83991 0.29282 0.7269 0.0
C2554 C 0.84674 0.28898 0.71257 0.0
C2555 C 0.8594 0.30779 0.70241 0.0
C2556 C 0.8652 0.29849 0.68793 0.0
C2557 C 0.85154 0.30158 0.67426 0.0
C2558 C 0.8935 0.31108 0.6852 0.0
C2559 C 0.85454 0.27175 0.69182 0.0
C2560 C 0.84395 0.26677 0.70611 0.0
C2561 C 0.83418 0.24385 0.71271 0.0
C2562 C 0.83511 0.22541 0.70446 0.0
C2563 C 0.84562 0.23001 0.68979 0.0
C2564 C 0.85521 0.25332 0.68327 0.0
H2565 H 0.20881 0.01283 0.61801 0.0
H2566 H 0.18522 0.96841 0.65872 0.0
H2567 H 0.21563 0.00365 0.6738 0.0
H2568 H 0.27528 0.047 0.62817 0.0
H2569 H 0.27976 0.07505 0.62004 0.0
H2570 H 0.25645 0.04613 0.61226 0.0
H2571 H 0.22275 0.05863 0.61616 0.0
H2572 H 0.24592 0.0875 0.62403 0.0
H2573 H 0.21837 0.0678 0.63478 0.0
H2574 H 0.24658 0.04399 0.6848 0.0
H2575 H 0.27847 0.08665 0.69067 0.0
H2576 H 0.28384 0.10463 0.64291 0.0
C2577 C 0.21031 0.01037 0.63005 0.0
C2578 C 0.19432 0.98786 0.63718 0.0
C2579 C 0.19678 0.98558 0.65302 0.0
C2580 C 0.21416 0.00544 0.66169 0.0
C2581 C 0.22923 0.02744 0.65436 0.0
C2582 C 0.22776 0.03 0.63888 0.0
C2583 C 0.24611 0.05579 0.63389 0.0
C2584 C 0.26556 0.056 0.62294 0.0
C2585 C 0.23247 0.06815 0.6268 0.0
C2586 C 0.25783 0.06734 0.64902 0.0
C2587 C 0.24771 0.05066 0.66068 0.0
C2588 C 0.25474 0.0572 0.67577 0.0
C2589 C 0.27262 0.08147 0.67903 0.0
C2590 C 0.28326 0.09876 0.66726 0.0
C2591 C 0.27599 0.09158 0.65207 0.0
H2592 H 0.00655 0.22782 0.62696 0.0
H2593 H 0.99542 0.15564 0.63606 0.0
H2594 H 0.9545 0.14373 0.64761 0.0
H2595 H 0.9783 0.23285 0.66207 0.0
H2596 H 0.96453 0.24912 0.65333 0.0
H2597 H 0.993 0.25202 0.64586 0.0
H2598 H 0.97226 0.23826 0.61931 0.0
H2599 H 0.94379 0.23541 0.62673 0.0
H2600 H 0.94339 0.20974 0.61744 0.0
H2601 H 0.91372 0.13902 0.657 0.0
H2602 H 0.87705 0.14252 0.66431 0.0
H2603 H 0.91556 0.21836 0.65052 0.0
C2604 C 0.99542 0.20949 0.63134 0.0
C2605 C 1.0041 0.19261 0.63059 0.0
C2606 C 0.98916 0.16888 0.6366 0.0
C2607 C 0.96589 0.16195 0.64316 0.0
C2608 C 0.9579 0.17903 0.64379 0.0
C2609 C 0.97228 0.20238 0.63814 0.0
C2610 C 0.95945 0.2173 0.64038 0.0
C2611 C 0.97474 0.23911 0.65104 0.0
C2612 C 0.95442 0.22566 0.62505 0.0
C2613 C 0.93541 0.19856 0.64783 0.0
C2614 C 0.93488 0.1766 0.64973 0.0
C2615 C 0.91413 0.15626 0.6558 0.0
C2616 C 0.89342 0.15845 0.66002 0.0
C2617 C 0.89381 0.18094 0.65848 0.0
C2618 C 0.91504 0.20112 0.65218 0.0
H2619 H 0.81186 0.80681 0.63355 0.0
H2620 H 0.73829 0.75473 0.61633 0.0
H2621 H 0.74011 0.7216 0.62992 0.0
H2622 H 0.83792 0.76908 0.62953 0.0
H2623 H 0.8565 0.77893 0.64663 0.0
H2624 H 0.84852 0.79927 0.63708 0.0
H2625 H 0.82886 0.80424 0.66186 0.0
H2626 H 0.83691 0.78392 0.67147 0.0
H2627 H 0.80503 0.77748 0.67129 0.0
H2628 H 0.75098 0.69385 0.64311 0.0
H2629 H 0.77055 0.67251 0.65515 0.0
H2630 H 0.83729 0.74197 0.66429 0.0
C2631 C 0.79596 0.7885 0.63294 0.0
C2632 C 0.77494 0.78324 0.62389 0.0
C2633 C 0.75465 0.75904 0.62309 0.0
C2634 C 0.75542 0.74017 0.63087 0.0
C2635 C 0.77657 0.74581 0.63945 0.0
C2636 C 0.79647 0.76935 0.64062 0.0
C2637 C 0.81767 0.76997 0.64973 0.0
C2638 C 0.84156 0.77989 0.64017 0.0
C2639 C 0.82239 0.78479 0.66446 0.0
C2640 C 0.80679 0.74303 0.65306 0.0
C2641 C 0.78295 0.72954 0.64716 0.0
C2642 C 0.76953 0.70419 0.64792 0.0
C2643 C 0.7809 0.69222 0.65469 0.0
C2644 C 0.80546 0.70556 0.66059 0.0
C2645 C 0.81837 0.73134 0.66003 0.0
H2646 H 1.0014 0.76904 0.62019 0.0
H2647 H 0.9856 0.82845 0.62392 0.0
H2648 H 0.9478 0.80209 0.63896 0.0
H2649 H 0.93868 0.72044 0.61647 0.0
H2650 H 0.94334 0.69938 0.62785 0.0
H2651 H 0.96908 0.7231 0.61755 0.0
H2652 H 0.99456 0.73828 0.64261 0.0
H2653 H 0.96874 0.71467 0.65297 0.0
H2654 H 0.98163 0.74618 0.65853 0.0
H2655 H 0.91017 0.76815 0.65209 0.0
H2656 H 0.87641 0.72969 0.66265 0.0
H2657 H 0.9187 0.69365 0.65226 0.0
C2658 C 0.98985 0.77638 0.62411 0.0
C2659 C 0.99615 0.80062 0.62082 0.0
C2660 C 0.98093 0.80984 0.62633 0.0
C2661 C 0.95953 0.79506 0.6349 0.0
C2662 C 0.95388 0.77124 0.63806 0.0
C2663 C 0.9687 0.76202 0.63292 0.0
C2664 C 0.95856 0.73586 0.63791 0.0
C2665 C 0.95202 0.71869 0.62412 0.0
C2666 C 0.97698 0.73363 0.64864 0.0
C2667 C 0.93539 0.73159 0.6463 0.0
C2668 C 0.933 0.75221 0.6463 0.0
C2669 C 0.91215 0.75207 0.65246 0.0
C2670 C 0.89313 0.73018 0.65857 0.0
C2671 C 0.8954 0.70897 0.65881 0.0
C2672 C 0.91688 0.70984 0.65264 0.0
H2673 H 0.24172 0.23841 0.61976 0.0
H2674 H 0.17663 0.16761 0.62801 0.0
H2675 H 0.20287 0.1548 0.64195 0.0
H2676 H 0.28521 0.21761 0.61378 0.0
H2677 H 0.3107 0.24296 0.62348 0.0
H2678 H 0.28674 0.24686 0.61448 0.0
H2679 H 0.2784 0.26218 0.63998 0.0
H2680 H 0.30233 0.25825 0.64904 0.0
H2681 H 0.27116 0.24336 0.65664 0.0
H2682 H 0.23646 0.14879 0.65375 0.0
H2683 H 0.27483 0.15064 0.66336 0.0
H2684 H 0.31817 0.22576 0.64857 0.0
C2685 C 0.23304 0.22021 0.62448 0.0
C2686 C 0.2071 0.204 0.6228 0.0
C2687 C 0.19639 0.18041 0.62928 0.0
C2688 C 0.21116 0.17294 0.63718 0.0
C2689 C 0.23662 0.18933 0.63866 0.0
C2690 C 0.24749 0.21253 0.63259 0.0
C2691 C 0.27532 0.22655 0.63584 0.0
C2692 C 0.29038 0.23392 0.62101 0.0
C2693 C 0.2822 0.24891 0.64597 0.0
C2694 C 0.27847 0.20741 0.64433 0.0
C2695 C 0.25589 0.1861 0.64588 0.0
C2696 C 0.25418 0.16553 0.65282 0.0
C2697 C 0.2761 0.1668 0.65835 0.0
C2698 C 0.29937 0.18862 0.65722 0.0
C2699 C 0.30052 0.20905 0.64993 0.0
H2700 H 0.80153 0.00645 0.6164 0.0
H2701 H 0.76944 0.9608 0.65607 0.0
H2702 H 0.77396 0.99632 0.67042 0.0
H2703 H 0.84659 0.05928 0.6359 0.0
H2704 H 0.84345 0.08066 0.62391 0.0
H2705 H 0.83682 0.05147 0.61641 0.0
H2706 H 0.79261 0.04232 0.60836 0.0
H2707 H 0.79916 0.07155 0.6158 0.0
H2708 H 0.77223 0.04403 0.62232 0.0
H2709 H 0.78384 0.03674 0.68092 0.0
H2710 H 0.79741 0.07988 0.68666 0.0
H2711 H 0.82196 0.09949 0.64022 0.0
C2712 C 0.79509 0.00385 0.62802 0.0
C2713 C 0.78532 0.98087 0.63514 0.0
C2714 C 0.77741 0.97831 0.65045 0.0
C2715 C 0.77971 0.99833 0.65867 0.0
C2716 C 0.78975 0.02076 0.6514 0.0
C2717 C 0.79715 0.02367 0.6364 0.0
C2718 C 0.80789 0.04998 0.63146 0.0
C2719 C 0.83531 0.06099 0.62664 0.0
C2720 C 0.79202 0.05209 0.61873 0.0
C2721 C 0.80563 0.0614 0.64609 0.0
C2722 C 0.79512 0.04418 0.65743 0.0
C2723 C 0.79201 0.05039 0.67213 0.0
C2724 C 0.80001 0.07491 0.67534 0.0
C2725 C 0.81092 0.09281 0.66393 0.0
C2726 C 0.81346 0.08597 0.64908 0.0
H2727 H 0.46878 0.32312 0.73798 0.0
H2728 H 0.48932 0.37025 0.69857 0.0
H2729 H 0.45879 0.33577 0.68303 0.0
H2730 H 0.46066 0.27022 0.71869 0.0
H2731 H 0.43388 0.24878 0.72942 0.0
H2732 H 0.45649 0.27735 0.73792 0.0
H2733 H 0.42165 0.2876 0.7438 0.0
H2734 H 0.39889 0.25893 0.73545 0.0
H2735 H 0.40175 0.2871 0.72865 0.0
H2736 H 0.42823 0.29626 0.67129 0.0
H2737 H 0.39671 0.25396 0.66448 0.0
H2738 H 0.39464 0.23185 0.71118 0.0
C2739 C 0.46651 0.32622 0.72615 0.0
C2740 C 0.48166 0.34932 0.71944 0.0
C2741 C 0.47826 0.35261 0.70389 0.0
C2742 C 0.46089 0.33318 0.69496 0.0
C2743 C 0.44679 0.31052 0.70176 0.0
C2744 C 0.4491 0.30691 0.71702 0.0
C2745 C 0.43176 0.28046 0.72132 0.0
C2746 C 0.44659 0.2685 0.72718 0.0
C2747 C 0.41236 0.27841 0.733 0.0
C2748 C 0.41968 0.26985 0.70607 0.0
C2749 C 0.42874 0.28756 0.69496 0.0
C2750 C 0.42098 0.2822 0.67988 0.0
C2751 C 0.40338 0.25809 0.67605 0.0
C2752 C 0.39381 0.23973 0.68722 0.0
C2753 C 0.40187 0.24569 0.70244 0.0
H2754 H 0.66539 0.09952 0.72564 0.0
H2755 H 0.67444 0.17129 0.71802 0.0
H2756 H 0.71279 0.18289 0.70331 0.0
H2757 H 0.72865 0.11808 0.73112 0.0
H2758 H 0.72755 0.09245 0.72133 0.0
H2759 H 0.69991 0.08926 0.73023 0.0
H2760 H 0.67602 0.07485 0.70461 0.0
H2761 H 0.70368 0.07802 0.69566 0.0
H2762 H 0.68852 0.09377 0.68804 0.0
H2763 H 0.75271 0.18811 0.69199 0.0
H2764 H 0.78955 0.18577 0.68391 0.0
H2765 H 0.75338 0.10983 0.69727 0.0
C2766 C 0.67536 0.11761 0.72078 0.0
C2767 C 0.66695 0.13453 0.72299 0.0
C2768 C 0.68042 0.15798 0.71636 0.0
C2769 C 0.70224 0.16474 0.70801 0.0
C2770 C 0.71016 0.14772 0.70617 0.0
C2771 C 0.69697 0.12453 0.71222 0.0
C2772 C 0.70983 0.1099 0.70897 0.0
C2773 C 0.7169 0.10197 0.72379 0.0
C2774 C 0.69353 0.08783 0.69871 0.0
C2775 C 0.73275 0.12872 0.70061 0.0
C2776 C 0.73256 0.15039 0.69904 0.0
C2777 C 0.7527 0.17101 0.69277 0.0
C2778 C 0.77357 0.16947 0.68807 0.0
C2779 C 0.77398 0.14732 0.68931 0.0
C2780 C 0.75323 0.12676 0.69569 0.0
H2781 H 0.86122 0.52429 0.71867 0.0
H2782 H 0.93676 0.57581 0.73322 0.0
H2783 H 0.93418 0.60899 0.72023 0.0
H2784 H 0.86458 0.55281 0.68104 0.0
H2785 H 0.83283 0.54659 0.68235 0.0
H2786 H 0.84178 0.52649 0.69132 0.0
H2787 H 0.82475 0.53273 0.71689 0.0
H2788 H 0.81641 0.55321 0.70788 0.0
H2789 H 0.83669 0.56324 0.72425 0.0
H2790 H 0.92265 0.6369 0.70795 0.0
H2791 H 0.90292 0.65855 0.6966 0.0
H2792 H 0.83463 0.58956 0.6893 0.0
C2793 C 0.87736 0.54248 0.71881 0.0
C2794 C 0.8992 0.54756 0.72696 0.0
C2795 C 0.9198 0.57162 0.72716 0.0
C2796 C 0.91857 0.59053 0.71974 0.0
C2797 C 0.89666 0.58506 0.71208 0.0
C2798 C 0.87642 0.56166 0.71146 0.0
C2799 C 0.85458 0.56124 0.70323 0.0
C2800 C 0.84808 0.54587 0.68861 0.0
C2801 C 0.83177 0.55207 0.71369 0.0
C2802 C 0.86558 0.58814 0.69967 0.0
C2803 C 0.88994 0.60142 0.70481 0.0
C2804 C 0.9037 0.62671 0.70371 0.0
C2805 C 0.89224 0.63885 0.69731 0.0
C2806 C 0.86724 0.62576 0.69206 0.0
C2807 C 0.85387 0.6 0.69306 0.0
H2808 H 0.45039 0.92858 0.16909 0.0
H2809 H 0.52299 0.95719 0.19072 0.0
H2810 H 0.5433 0.97868 0.1673 0.0
H2811 H 0.46905 0.92101 0.13116 0.0
H2812 H 0.45011 0.93116 0.12153 0.0
H2813 H 0.44065 0.91659 0.13977 0.0
H2814 H 0.43877 0.95391 0.15037 0.0
H2815 H 0.44803 0.9685 0.13214 0.0
H2816 H 0.46582 0.98393 0.14887 0.0
H2817 H 0.55634 0.99818 0.14216 0.0
H2818 H 0.56118 0.01666 0.1169 0.0
H2819 H 0.48084 0.97723 0.11077 0.0
C2820 C 0.47055 0.93937 0.16893 0.0
C2821 C 0.48498 0.94059 0.18183 0.0
C2822 C 0.51136 0.95512 0.18099 0.0
C2823 C 0.52317 0.96762 0.16771 0.0
C2824 C 0.50851 0.96576 0.15522 0.0
C2825 C 0.48278 0.95221 0.15567 0.0
C2826 C 0.4716 0.95429 0.14069 0.0
C2827 C 0.45699 0.92927 0.13282 0.0
C2828 C 0.45508 0.96585 0.14317 0.0
C2829 C 0.49511 0.97129 0.13188 0.0
C2830 C 0.51613 0.97746 0.14054 0.0
C2831 C 0.54004 0.99342 0.13525 0.0
C2832 C 0.54261 0.00382 0.12088 0.0
C2833 C 0.52146 0.99832 0.11185 0.0
C2834 C 0.49736 0.98147 0.11733 0.0
H2835 H 0.03456 0.51117 0.18285 0.0
H2836 H 0.09572 0.58482 0.17617 0.0
H2837 H 0.08433 0.58246 0.14904 0.0
H2838 H 0.03739 0.48653 0.14516 0.0
H2839 H 1.00391 0.46837 0.14358 0.0
H2840 H 0.01865 0.47482 0.162 0.0
H2841 H 0.99121 0.49295 0.17074 0.0
H2842 H 0.97655 0.48676 0.15234 0.0
H2843 H 0.99148 0.51733 0.16 0.0
H2844 H 0.06479 0.57321 0.12323 0.0
H2845 H 0.03786 0.55805 0.10047 0.0
H2846 H 0.98852 0.49068 0.12394 0.0
C2847 C 0.04584 0.52651 0.17554 0.0
C2848 C 0.06614 0.54809 0.18146 0.0
C2849 C 0.08016 0.56812 0.17175 0.0
C2850 C 0.07387 0.56692 0.15636 0.0
C2851 C 0.05342 0.54559 0.1509 0.0
C2852 C 0.0396 0.52572 0.16017 0.0
C2853 C 0.01741 0.50571 0.15169 0.0
C2854 C 0.01947 0.48248 0.15054 0.0
C2855 C 0.99271 0.50039 0.15914 0.0
C2856 C 0.02067 0.51761 0.13632 0.0
C2857 C 0.04174 0.54048 0.13606 0.0
C2858 C 0.04836 0.55524 0.12324 0.0
C2859 C 0.03299 0.54644 0.11036 0.0
C2860 C 0.01113 0.52317 0.11041 0.0
C2861 C 0.00503 0.5086 0.12359 0.0
H2862 H 0.47557 0.50265 0.18311 0.0
H2863 H 0.48937 0.57533 0.1723 0.0
H2864 H 0.49827 0.56973 0.14577 0.0
H2865 H 0.5236 0.50446 0.16031 0.0
H2866 H 0.50605 0.47305 0.1542 0.0
H2867 H 0.49935 0.48206 0.17221 0.0
H2868 H 0.45308 0.46421 0.16426 0.0
H2869 H 0.4596 0.45497 0.14626 0.0
H2870 H 0.44569 0.47417 0.14684 0.0
H2871 H 0.50767 0.55723 0.12081 0.0
H2872 H 0.51625 0.53833 0.09884 0.0
H2873 H 0.49538 0.47319 0.12543 0.0
C2874 C 0.48007 0.51722 0.1751 0.0
C2875 C 0.48188 0.53949 0.17981 0.0
C2876 C 0.48819 0.55824 0.16901 0.0
C2877 C 0.49315 0.55519 0.15389 0.0
C2878 C 0.49165 0.53323 0.14968 0.0
C2879 C 0.48514 0.51449 0.15992 0.0
C2880 C 0.48558 0.493 0.1525 0.0
C2881 C 0.50479 0.48785 0.16027 0.0
C2882 C 0.45943 0.47024 0.15246 0.0
C2883 C 0.49369 0.50275 0.13657 0.0
C2884 C 0.49696 0.52594 0.13519 0.0
C2885 C 0.50491 0.53896 0.12169 0.0
C2886 C 0.50962 0.52799 0.10924 0.0
C2887 C 0.50635 0.50416 0.1103 0.0
C2888 C 0.49824 0.49146 0.12422 0.0
H2889 H 0.97338 0.48924 0.83479 0.0
H2890 H 0.90806 0.41922 0.84434 0.0
H2891 H 0.92089 0.42301 0.87122 0.0
H2892 H 0.01506 0.48117 0.85813 0.0
H2893 H 0.03237 0.51241 0.86461 0.0
H2894 H 0.01708 0.5054 0.84638 0.0
H2895 H 0.99297 0.52754 0.85413 0.0
H2896 H 0.00835 0.5348 0.87236 0.0
H2897 H 0.97475 0.5187 0.87128 0.0
H2898 H 0.94181 0.43303 0.89653 0.0
H2899 H 0.96953 0.44881 0.91888 0.0
H2900 H 0.02148 0.5125 0.89315 0.0
C2901 C 0.96158 0.47498 0.84264 0.0
C2902 C 0.93974 0.45394 0.83754 0.0
C2903 C 0.92496 0.4354 0.84804 0.0
C2904 C 0.93203 0.43743 0.86332 0.0
C2905 C 0.95392 0.45813 0.86793 0.0
C2906 C 0.96847 0.47664 0.85795 0.0
C2907 C 0.99177 0.49636 0.86573 0.0
C2908 C 0.01547 0.49897 0.85827 0.0
C2909 C 0.99196 0.52079 0.86588 0.0
C2910 C 0.98822 0.4858 0.88155 0.0
C2911 C 0.96615 0.46385 0.88258 0.0
C2912 C 0.95902 0.45033 0.89592 0.0
C2913 C 0.97485 0.4595 0.90857 0.0
C2914 C 0.99762 0.48195 0.90781 0.0
C2915 C 1.00428 0.49523 0.89408 0.0
H2916 H 0.49672 0.46221 0.8358 0.0
H2917 H 0.57577 0.48905 0.84276 0.0
H2918 H 0.5726 0.50164 0.86882 0.0
H2919 H 0.49381 0.50955 0.85677 0.0
H2920 H 0.46351 0.48952 0.86471 0.0
H2921 H 0.47185 0.4824 0.8466 0.0
H2922 H 0.46201 0.44001 0.85661 0.0
H2923 H 0.45357 0.44697 0.87474 0.0
H2924 H 0.47715 0.43817 0.87366 0.0
H2925 H 0.56096 0.5114 0.89418 0.0
H2926 H 0.54174 0.51803 0.91689 0.0
H2927 H 0.47004 0.48423 0.89377 0.0
C2928 C 0.51333 0.47055 0.84284 0.0
C2929 C 0.53654 0.47471 0.83714 0.0
C2930 C 0.55786 0.48598 0.84672 0.0
C2931 C 0.55622 0.49307 0.8616 0.0
C2932 C 0.53313 0.4888 0.86681 0.0
C2933 C 0.51204 0.47781 0.85773 0.0
C2934 C 0.48953 0.47552 0.86609 0.0
C2935 C 0.47906 0.49012 0.85806 0.0
C2936 C 0.46937 0.44856 0.86788 0.0
C2937 C 0.50126 0.48696 0.88126 0.0
C2938 C 0.52641 0.49444 0.88144 0.0
C2939 C 0.54125 0.50553 0.89419 0.0
C2940 C 0.53011 0.50908 0.90709 0.0
C2941 C 0.50433 0.5016 0.90721 0.0
C2942 C 0.48982 0.49039 0.89405 0.0
H2943 H 0.49327 0.03634 0.83546 0.0
H2944 H 0.57242 0.0867 0.84185 0.0
H2945 H 0.56959 0.07181 0.86807 0.0
H2946 H 0.47424 0.04295 0.87297 0.0
H2947 H 0.45053 0.01127 0.8744 0.0
H2948 H 0.45894 0.02569 0.85609 0.0
H2949 H 0.46852 0.99236 0.84658 0.0
H2950 H 0.46014 0.97783 0.86486 0.0
H2951 H 0.49038 0.98683 0.85697 0.0
H2952 H 0.55782 0.05154 0.89395 0.0
H2953 H 0.53843 0.02672 0.91681 0.0
H2954 H 0.46682 0.99048 0.8936 0.0
C2955 C 0.51001 0.0444 0.84238 0.0
C2956 C 0.5331 0.06275 0.8365 0.0
C2957 C 0.55459 0.07243 0.84595 0.0
C2958 C 0.55313 0.06421 0.86092 0.0
C2959 C 0.53005 0.04623 0.86635 0.0
C2960 C 0.5089 0.0364 0.85733 0.0
C2961 C 0.48637 0.01719 0.86583 0.0
C2962 C 0.46634 0.02474 0.86742 0.0
C2963 C 0.47573 0.99207 0.8581 0.0
C2964 C 0.49812 0.01771 0.88105 0.0
C2965 C 0.52332 0.03462 0.88116 0.0
C2966 C 0.53808 0.03829 0.89398 0.0
C2967 C 0.52685 0.02421 0.90697 0.0
C2968 C 0.50106 0.00657 0.90709 0.0
C2969 C 0.48662 0.00353 0.8939 0.0
H2970 H 0.16625 0.29383 0.51577 0.0
H2971 H 0.08833 0.24195 0.50649 0.0
H2972 H 0.09426 0.25477 0.47971 0.0
H2973 H 0.17069 0.34114 0.49202 0.0
H2974 H 0.20185 0.3507 0.48551 0.0
H2975 H 0.19194 0.33671 0.50385 0.0
H2976 H 0.20347 0.30386 0.49639 0.0
H2977 H 0.21353 0.31782 0.47803 0.0
H2978 H 0.19029 0.28597 0.47939 0.0
H2979 H 0.10801 0.27446 0.45412 0.0
H2980 H 0.12869 0.29949 0.43163 0.0
H2981 H 0.19817 0.3377 0.45704 0.0
C2982 C 0.15053 0.28492 0.50806 0.0
C2983 C 0.12675 0.26696 0.51334 0.0
C2984 C 0.10662 0.25601 0.50285 0.0
C2985 C 0.10983 0.26306 0.48756 0.0
C2986 C 0.13335 0.28104 0.4828 0.0
C2987 C 0.1534 0.29176 0.4927 0.0
C2988 C 0.17654 0.31114 0.4847 0.0
C2989 C 0.18579 0.33641 0.49196 0.0
C2990 C 0.19718 0.30428 0.48462 0.0
C2991 C 0.16626 0.30982 0.46884 0.0
C2992 C 0.14134 0.29225 0.46797 0.0
C2993 C 0.12761 0.2881 0.45462 0.0
C2994 C 0.13961 0.30235 0.44184 0.0
C2995 C 0.16517 0.32062 0.4424 0.0
C2996 C 0.17858 0.32412 0.45615 0.0
H2997 H 0.69836 0.88044 0.51451 0.0
H2998 H 0.74925 0.85235 0.50861 0.0
H2999 H 0.73366 0.83959 0.48253 0.0
H3000 H 0.64743 0.83408 0.4937 0.0
H3001 H 0.63831 0.85429 0.48505 0.0
H3002 H 0.65376 0.8619 0.50325 0.0
H3003 H 0.68803 0.90346 0.49278 0.0
H3004 H 0.67254 0.89609 0.47458 0.0
H3005 H 0.70485 0.90409 0.47593 0.0
H3006 H 0.71138 0.82802 0.45774 0.0
H3007 H 0.68554 0.82059 0.43491 0.0
H3008 H 0.6506 0.85826 0.45603 0.0
C3009 C 0.70649 0.87194 0.50766 0.0
C3010 C 0.72486 0.86717 0.5137 0.0
C3011 C 0.73481 0.85576 0.50438 0.0
C3012 C 0.72619 0.84856 0.48951 0.0
C3013 C 0.70776 0.85309 0.48403 0.0
C3014 C 0.69818 0.86474 0.49272 0.0
C3015 C 0.67841 0.8673 0.48402 0.0
C3016 C 0.65298 0.85357 0.49198 0.0
C3017 C 0.68645 0.89434 0.48169 0.0
C3018 C 0.67824 0.85504 0.46915 0.0
C3019 C 0.69529 0.84696 0.46946 0.0
C3020 C 0.69821 0.83457 0.45726 0.0
C3021 C 0.68351 0.83057 0.4443 0.0
C3022 C 0.66622 0.83912 0.44352 0.0
C3023 C 0.66352 0.85139 0.45623 0.0
H3024 H 0.13382 0.84207 0.51587 0.0
H3025 H 0.16011 0.91901 0.5085 0.0
H3026 H 0.17046 0.91494 0.48204 0.0
H3027 H 0.18022 0.839 0.49482 0.0
H3028 H 0.16015 0.80912 0.48684 0.0
H3029 H 0.15261 0.81735 0.50484 0.0
H3030 H 0.10912 0.80697 0.49452 0.0
H3031 H 0.11646 0.79853 0.47649 0.0
H3032 H 0.10695 0.82125 0.47735 0.0
H3033 H 0.1815 0.90362 0.45721 0.0
H3034 H 0.19169 0.8856 0.4355 0.0
H3035 H 0.15637 0.81535 0.45822 0.0
C3036 C 0.14125 0.85792 0.50858 0.0
C3037 C 0.14629 0.8809 0.5143 0.0
C3038 C 0.15641 0.90129 0.50445 0.0
C3039 C 0.1622 0.89914 0.48936 0.0
C3040 C 0.15758 0.87641 0.48418 0.0
C3041 C 0.14714 0.85609 0.49343 0.0
C3042 C 0.14522 0.83407 0.48519 0.0
C3043 C 0.16047 0.82433 0.49341 0.0
C3044 C 0.11781 0.81402 0.48327 0.0
C3045 C 0.15679 0.84538 0.47005 0.0
C3046 C 0.16361 0.86977 0.46969 0.0
C3047 C 0.17583 0.88441 0.45725 0.0
C3048 C 0.1814 0.87392 0.44489 0.0
C3049 C 0.17473 0.84893 0.44497 0.0
C3050 C 0.16195 0.83452 0.45773 0.0
H3051 H 0.61163 0.78274 0.1844 0.0
H3052 H 0.66157 0.84914 0.16024 0.0
H3053 H 0.68657 0.86619 0.18358 0.0
H3054 H 0.61367 0.81211 0.22065 0.0
H3055 H 0.61301 0.78789 0.23177 0.0
H3056 H 0.59822 0.78129 0.21336 0.0
H3057 H 0.62463 0.76191 0.20485 0.0
H3058 H 0.63945 0.76841 0.22322 0.0
H3059 H 0.65817 0.77949 0.20633 0.0
H3060 H 0.70785 0.87491 0.20886 0.0
H3061 H 0.72333 0.87519 0.2348 0.0
H3062 H 0.65926 0.80373 0.24296 0.0
C3063 C 0.62779 0.80089 0.18405 0.0
C3064 C 0.6346 0.81465 0.17049 0.0
C3065 C 0.65579 0.8384 0.17052 0.0
C3066 C 0.67016 0.84821 0.18371 0.0
C3067 C 0.66303 0.83413 0.19683 0.0
C3068 C 0.64227 0.81105 0.19716 0.0
C3069 C 0.63903 0.79958 0.21269 0.0
C3070 C 0.61453 0.79495 0.22005 0.0
C3071 C 0.64041 0.77595 0.21171 0.0
C3072 C 0.6615 0.81963 0.22095 0.0
C3073 C 0.67506 0.8394 0.21157 0.0
C3074 C 0.69725 0.85966 0.21635 0.0
C3075 C 0.70593 0.85964 0.23106 0.0
C3076 C 0.69238 0.83958 0.24085 0.0
C3077 C 0.66973 0.81946 0.23577 0.0
H3078 H 0.16378 0.80059 0.17073 0.0
H3079 H 0.24071 0.81875 0.1777 0.0
H3080 H 0.23932 0.83204 0.20386 0.0
H3081 H 0.16725 0.85067 0.19201 0.0
H3082 H 0.13643 0.83322 0.19992 0.0
H3083 H 0.14327 0.82486 0.18174 0.0
H3084 H 0.1285 0.78111 0.19149 0.0
H3085 H 0.12149 0.7893 0.20969 0.0
H3086 H 0.14224 0.77701 0.2085 0.0
H3087 H 0.22973 0.84351 0.22929 0.0
H3088 H 0.21253 0.85236 0.25216 0.0
H3089 H 0.14161 0.82617 0.22894 0.0
C3090 C 0.18026 0.80715 0.1778 0.0
C3091 C 0.20241 0.80872 0.17209 0.0
C3092 C 0.22365 0.81771 0.1817 0.0
C3093 C 0.22301 0.82518 0.19662 0.0
C3094 C 0.20098 0.82357 0.20184 0.0
C3095 C 0.17997 0.81475 0.19275 0.0
C3096 C 0.15872 0.81507 0.20113 0.0
C3097 C 0.15097 0.83196 0.19323 0.0
C3098 C 0.13642 0.78908 0.2028 0.0
C3099 C 0.1711 0.82549 0.21634 0.0
C3100 C 0.19545 0.83021 0.21651 0.0
C3101 C 0.21064 0.83982 0.2293 0.0
C3102 C 0.20066 0.84467 0.24227 0.0
C3103 C 0.1757 0.83996 0.2424 0.0
C3104 C 0.16084 0.83027 0.22918 0.0
H3105 H 0.22325 0.39805 0.17172 0.0
H3106 H 0.14659 0.38046 0.16355 0.0
H3107 H 0.13464 0.36085 0.18838 0.0
H3108 H 0.20565 0.33963 0.1888 0.0
H3109 H 0.23118 0.35215 0.20219 0.0
H3110 H 0.23449 0.36681 0.18417 0.0
H3111 H 0.24629 0.40737 0.19807 0.0
H3112 H 0.24276 0.39276 0.21614 0.0
H3113 H 0.22536 0.40803 0.21205 0.0
H3114 H 0.13057 0.34371 0.21453 0.0
H3115 H 0.13381 0.32502 0.23851 0.0
H3116 H 0.21127 0.34884 0.22875 0.0
C3117 C 0.20389 0.38999 0.175 0.0
C3118 C 0.18619 0.3918 0.16558 0.0
C3119 C 0.16102 0.38064 0.1706 0.0
C3120 C 0.15385 0.36912 0.18474 0.0
C3121 C 0.1718 0.36816 0.19377 0.0
C3122 C 0.19619 0.3778 0.189 0.0
C3123 C 0.21133 0.37271 0.20053 0.0
C3124 C 0.22124 0.35688 0.1935 0.0
C3125 C 0.2327 0.39664 0.20708 0.0
C3126 C 0.19161 0.35872 0.21247 0.0
C3127 C 0.16905 0.35673 0.20846 0.0
C3128 C 0.1481 0.34502 0.21776 0.0
C3129 C 0.1501 0.33459 0.23137 0.0
C3130 C 0.17273 0.33556 0.23542 0.0
C3131 C 0.19377 0.34792 0.22588 0.0
H3132 H 0.8384 0.63626 0.85089 0.0
H3133 H 0.76085 0.58436 0.84071 0.0
H3134 H 0.76751 0.59772 0.81402 0.0
H3135 H 0.84293 0.68403 0.82731 0.0
H3136 H 0.87436 0.69409 0.82112 0.0
H3137 H 0.86404 0.67966 0.83932 0.0
H3138 H 0.87634 0.64738 0.83185 0.0
H3139 H 0.88682 0.66178 0.81364 0.0
H3140 H 0.86384 0.6298 0.81467 0.0
H3141 H 0.7819 0.61775 0.78864 0.0
H3142 H 0.803 0.64309 0.76636 0.0
H3143 H 0.87172 0.68171 0.79246 0.0
C3144 C 0.82293 0.62749 0.84299 0.0
C3145 C 0.79903 0.60931 0.84797 0.0
C3146 C 0.77922 0.59854 0.83727 0.0
C3147 C 0.78285 0.60591 0.82204 0.0
C3148 C 0.80646 0.62411 0.81755 0.0
C3149 C 0.82621 0.63474 0.82768 0.0
C3150 C 0.84947 0.65448 0.81994 0.0
C3151 C 0.85821 0.67955 0.82737 0.0
C3152 C 0.87035 0.64796 0.82003 0.0
C3153 C 0.83962 0.6534 0.80396 0.0
C3154 C 0.81479 0.63565 0.80284 0.0
C3155 C 0.80143 0.63154 0.78935 0.0
C3156 C 0.81368 0.64598 0.77668 0.0
C3157 C 0.83917 0.66442 0.77747 0.0
C3158 C 0.85222 0.66797 0.79139 0.0
H3159 H 0.40412 0.21772 0.83506 0.0
H3160 H 0.35139 0.15029 0.85722 0.0
H3161 H 0.32657 0.13619 0.83356 0.0
H3162 H 0.36 0.22589 0.81445 0.0
H3163 H 0.37889 0.23777 0.79769 0.0
H3164 H 0.39356 0.24172 0.81595 0.0
H3165 H 0.41777 0.22088 0.80588 0.0
H3166 H 0.40319 0.21691 0.78756 0.0
H3167 H 0.40081 0.19089 0.79743 0.0
H3168 H 0.30534 0.13125 0.80839 0.0
H3169 H 0.29049 0.13485 0.78293 0.0
H3170 H 0.3576 0.20481 0.77681 0.0
C3171 C 0.38745 0.1999 0.83488 0.0
C3172 C 0.37969 0.18507 0.84798 0.0
C3173 C 0.35785 0.16182 0.84728 0.0
C3174 C 0.34358 0.15371 0.83391 0.0
C3175 C 0.35154 0.16894 0.82129 0.0
C3176 C 0.37311 0.19144 0.8216 0.0
C3177 C 0.37714 0.20462 0.80663 0.0
C3178 C 0.3774 0.22893 0.80882 0.0
C3179 C 0.40115 0.20855 0.79892 0.0
C3180 C 0.35416 0.18625 0.79795 0.0
C3181 C 0.33964 0.1658 0.80662 0.0
C3182 C 0.31673 0.14701 0.80141 0.0
C3183 C 0.30841 0.14923 0.787 0.0
C3184 C 0.32304 0.16998 0.77794 0.0
C3185 C 0.34631 0.18857 0.78344 0.0
H3186 H 0.80691 0.1747 0.84901 0.0
H3187 H 0.81431 0.24547 0.8401 0.0
H3188 H 0.82257 0.24181 0.81308 0.0
H3189 H 0.85642 0.18264 0.82551 0.0
H3190 H 0.8417 0.15151 0.81882 0.0
H3191 H 0.83364 0.1583 0.83711 0.0
H3192 H 0.78702 0.13662 0.82925 0.0
H3193 H 0.79492 0.12962 0.81094 0.0
H3194 H 0.77794 0.14592 0.81219 0.0
H3195 H 0.83278 0.23188 0.78748 0.0
H3196 H 0.84505 0.21674 0.76513 0.0
H3197 H 0.83149 0.15238 0.79039 0.0
C3198 C 0.80974 0.18913 0.84126 0.0
C3199 C 0.80984 0.21032 0.84659 0.0
C3200 C 0.81418 0.22911 0.83622 0.0
C3201 C 0.8188 0.22715 0.82086 0.0
C3202 C 0.8191 0.20629 0.81599 0.0
C3203 C 0.81467 0.18757 0.82586 0.0
C3204 C 0.81772 0.16789 0.81786 0.0
C3205 C 0.83861 0.16492 0.82527 0.0
C3206 C 0.79292 0.14357 0.81754 0.0
C3207 C 0.825 0.17871 0.80208 0.0
C3208 C 0.8254 0.20072 0.80122 0.0
C3209 C 0.83227 0.21452 0.78797 0.0
C3210 C 0.8391 0.20569 0.77529 0.0
C3211 C 0.83918 0.1833 0.77591 0.0
C3212 C 0.8318 0.16962 0.78952 0.0
H3213 H 0.3098 0.12215 0.50284 0.0
H3214 H 0.2642 0.15648 0.50708 0.0
H3215 H 0.27872 0.16801 0.53353 0.0
H3216 H 0.29774 0.09654 0.54036 0.0
H3217 H 0.32883 0.10132 0.54285 0.0
H3218 H 0.31543 0.09653 0.52411 0.0
H3219 H 0.35331 0.13721 0.51527 0.0
H3220 H 0.36678 0.14218 0.53399 0.0
H3221 H 0.36143 0.16505 0.52542 0.0
H3222 H 0.2983 0.17572 0.55968 0.0
H3223 H 0.32092 0.17858 0.5834 0.0
H3224 H 0.35154 0.13695 0.56236 0.0
C3225 C 0.30262 0.13188 0.50933 0.0
C3226 C 0.28585 0.13842 0.50278 0.0
C3227 C 0.27735 0.15157 0.51169 0.0
C3228 C 0.28536 0.15807 0.52678 0.0
C3229 C 0.3018 0.15122 0.53285 0.0
C3230 C 0.31026 0.13835 0.52441 0.0
C3231 C 0.32757 0.13287 0.53364 0.0
C3232 C 0.31674 0.10517 0.53534 0.0
C3233 C 0.35383 0.14506 0.52666 0.0
C3234 C 0.32756 0.14468 0.54862 0.0
C3235 C 0.31265 0.15523 0.54793 0.0
C3236 C 0.3099 0.16738 0.56036 0.0
C3237 C 0.32271 0.16875 0.57384 0.0
C3238 C 0.338 0.15791 0.57485 0.0
C3239 C 0.34031 0.14571 0.56199 0.0
H3240 H 0.85712 0.11834 0.51321 0.0
H3241 H 0.88105 0.1886 0.49216 0.0
H3242 H 0.87383 0.2041 0.51624 0.0
H3243 H 0.80754 0.11626 0.53417 0.0
H3244 H 0.81197 0.10189 0.5506 0.0
H3245 H 0.82121 0.09698 0.53216 0.0
H3246 H 0.86601 0.11218 0.54224 0.0
H3247 H 0.8569 0.11719 0.56074 0.0
H3248 H 0.88298 0.14182 0.55115 0.0
H3249 H 0.86021 0.21081 0.54173 0.0
H3250 H 0.84195 0.20843 0.56706 0.0
H3251 H 0.82739 0.13423 0.57195 0.0
C3252 C 0.86099 0.13704 0.51367 0.0
C3253 C 0.86978 0.15226 0.50074 0.0
C3254 C 0.87473 0.17667 0.50192 0.0
C3255 C 0.87057 0.18562 0.51556 0.0
C3256 C 0.86161 0.17004 0.52799 0.0
C3257 C 0.85701 0.1463 0.52722 0.0
C3258 C 0.84636 0.13301 0.54205 0.0
C3259 C 0.82022 0.11073 0.53959 0.0
C3260 C 0.86413 0.12562 0.54948 0.0
C3261 C 0.84515 0.15281 0.55116 0.0
C3262 C 0.85414 0.17406 0.54284 0.0
C3263 C 0.85348 0.19441 0.54843 0.0
C3264 C 0.84307 0.1929 0.56279 0.0
C3265 C 0.83361 0.17129 0.57147 0.0
C3266 C 0.83502 0.15113 0.56566 0.0
H3267 H 0.82726 0.69726 0.50217 0.0
H3268 H 0.90573 0.74993 0.50895 0.0
H3269 H 0.90321 0.73506 0.53512 0.0
H3270 H 0.80709 0.70249 0.53972 0.0
H3271 H 0.78435 0.67047 0.54106 0.0
H3272 H 0.79241 0.68506 0.52278 0.0
H3273 H 0.80387 0.65304 0.51327 0.0
H3274 H 0.79585 0.63836 0.53151 0.0
H3275 H 0.82641 0.64858 0.5237 0.0
H3276 H 0.89196 0.71456 0.56091 0.0
H3277 H 0.87325 0.68942 0.58372 0.0
H3278 H 0.80185 0.6508 0.56039 0.0
C3279 C 0.84391 0.70582 0.50916 0.0
C3280 C 0.86675 0.72481 0.50335 0.0
C3281 C 0.88811 0.73515 0.51293 0.0
C3282 C 0.88682 0.72693 0.5279 0.0
C3283 C 0.86403 0.70829 0.53324 0.0
C3284 C 0.84297 0.69782 0.52413 0.0
C3285 C 0.82078 0.67796 0.53259 0.0
C3286 C 0.79993 0.68439 0.53413 0.0
C3287 C 0.81117 0.65301 0.5248 0.0
C3288 C 0.83263 0.67888 0.54787 0.0
C3289 C 0.85758 0.69654 0.54803 0.0
C3290 C 0.87241 0.70073 0.5609 0.0
C3291 C 0.86153 0.68643 0.57387 0.0
C3292 C 0.83599 0.66804 0.57399 0.0
C3293 C 0.82146 0.66444 0.56073 0.0
loop_
_geom_bond_atom_site_label_1
_geom_bond_atom_site_label_2
_geom_bond_distance
_geom_bond_site_symmetry_2
_ccdc_geom_bond_type
C0 C1 1.391 . S
C0 C4 1.391 . S
C0 H42 0.948 . S
C1 C0 1.391 . S
C1 C2 1.391 . S
C2 C1 1.391 . S
C2 H58 0.947 . S
C2 C59 1.392 . S
C3 C4 1.391 . S
C3 C7 1.397 . S
C3 C59 1.419 . S
C4 C0 1.391 . S
C4 C3 1.391 . S
C4 C5 1.399 . S
C5 C4 1.399 . S
C5 C8 1.396 . S
C5 C17 1.453 . S
C5 C18 1.684 . S
H6 C30 0.948 . S
C7 C3 1.397 . S
C7 C8 1.394 . S
C7 C26 1.723 . S
C8 C5 1.396 . S
C8 C7 1.394 . S
C8 C38 1.723 . S
H9 C32 0.947 . S
H10 C33 0.948 . S
H11 C39 0.982 . S
H12 C40 0.979 . S
H13 C40 0.980 . S
H14 C40 0.983 . S
H15 C39 0.979 . S
H16 C39 0.977 . S
C17 C5 1.453 . S
C17 H46 0.982 . S
C17 H47 0.979 . S
C17 H48 0.977 . S
C18 C5 1.684 . S
C18 H43 0.979 . S
C18 H44 0.980 . S
C18 H45 0.983 . S
C19 C20 1.391 . S
C19 C24 1.391 . S
C19 H49 0.948 . S
C20 C19 1.391 . S
C20 C21 1.391 . S
C21 C20 1.391 . S
C21 C22 1.392 . S
C21 H50 0.947 . S
C22 C21 1.392 . S
C22 C23 1.419 . S
C22 H51 0.948 . S
C23 C22 1.419 . S
C23 C24 1.391 . S
C23 C27 1.397 . S
C24 C19 1.391 . S
C24 C23 1.391 . S
C24 C25 1.399 . S
C25 C24 1.399 . S
C25 C26 1.396 . S
C25 C28 1.453 . S
C25 C29 1.684 . S
C26 C7 1.723 . S
C26 C25 1.396 . S
C26 C27 1.394 . S
C27 C23 1.397 . S
C27 C26 1.394 . S
C27 C37 1.723 . S
C28 C25 1.453 . S
C28 H52 0.982 . S
C28 H53 0.979 . S
C28 H54 0.977 . S
C29 C25 1.684 . S
C29 H55 0.979 . S
C29 H56 0.980 . S
C29 H57 0.983 . S
C30 H6 0.948 . S
C30 C31 1.391 . S
C30 C35 1.391 . S
C31 C30 1.391 . S
C31 C32 1.391 . S
C32 H9 0.947 . S
C32 C31 1.391 . S
C32 C33 1.392 . S
C33 H10 0.948 . S
C33 C32 1.392 . S
C33 C34 1.419 . S
C34 C33 1.419 . S
C34 C35 1.391 . S
C34 C38 1.397 . S
C35 C30 1.391 . S
C35 C34 1.391 . S
C35 C36 1.399 . S
C36 C35 1.399 . S
C36 C37 1.396 . S
C36 C39 1.453 . S
C36 C40 1.684 . S
C37 C27 1.723 . S
C37 C36 1.396 . S
C37 C38 1.394 . S
C38 C8 1.723 . S
C38 C34 1.397 . S
C38 C37 1.394 . S
C39 H11 0.982 . S
C39 H15 0.979 . S
C39 H16 0.977 . S
C39 C36 1.453 . S
C40 H12 0.979 . S
C40 H13 0.980 . S
C40 H14 0.983 . S
C40 C36 1.684 . S
H41 C59 0.948 . S
H42 C0 0.948 . S
H43 C18 0.979 . S
H44 C18 0.980 . S
H45 C18 0.983 . S
H46 C17 0.982 . S
H47 C17 0.979 . S
H48 C17 0.977 . S
H49 C19 0.948 . S
H50 C21 0.947 . S
H51 C22 0.948 . S
H52 C28 0.982 . S
H53 C28 0.979 . S
H54 C28 0.977 . S
H55 C29 0.979 . S
H56 C29 0.980 . S
H57 C29 0.983 . S
H58 C2 0.947 . S
C59 C2 1.392 . S
C59 C3 1.419 . S
C59 H41 0.948 . S
C60 C61 1.391 . S
C60 C64 1.391 . S
C60 H102 0.948 . S
C61 C60 1.391 . S
C61 C62 1.391 . S
C62 C61 1.391 . S
C62 H118 0.947 . S
C62 C119 1.392 . S
C63 C64 1.391 . S
C63 C67 1.397 . S
C63 C119 1.419 . S
C64 C60 1.391 . S
C64 C63 1.391 . S
C64 C65 1.399 . S
C65 C64 1.399 . S
C65 C68 1.396 . S
C65 C77 1.453 . S
C65 C78 1.684 . S
H66 C90 0.948 . S
C67 C63 1.397 . S
C67 C68 1.394 . S
C67 C86 1.723 . S
C68 C65 1.396 . S
C68 C67 1.394 . S
C68 C98 1.723 . S
H69 C92 0.947 . S
H70 C93 0.948 . S
H71 C99 0.982 . S
H72 C100 0.979 . S
H73 C100 0.980 . S
H74 C100 0.983 . S
H75 C99 0.979 . S
H76 C99 0.977 . S
C77 C65 1.453 . S
C77 H106 0.982 . S
C77 H107 0.979 . S
C77 H108 0.977 . S
C78 C65 1.684 . S
C78 H103 0.979 . S
C78 H104 0.980 . S
C78 H105 0.983 . S
C79 C80 1.391 . S
C79 C84 1.391 . S
C79 H109 0.948 . S
C80 C79 1.391 . S
C80 C81 1.391 . S
C81 C80 1.391 . S
C81 C82 1.392 . S
C81 H110 0.947 . S
C82 C81 1.392 . S
C82 C83 1.419 . S
C82 H111 0.948 . S
C83 C82 1.419 . S
C83 C84 1.391 . S
C83 C87 1.397 . S
C84 C79 1.391 . S
C84 C83 1.391 . S
C84 C85 1.399 . S
C85 C84 1.399 . S
C85 C86 1.396 . S
C85 C88 1.453 . S
C85 C89 1.684 . S
C86 C67 1.723 . S
C86 C85 1.396 . S
C86 C87 1.394 . S
C87 C83 1.397 . S
C87 C86 1.394 . S
C87 C97 1.723 . S
C88 C85 1.453 . S
C88 H112 0.982 . S
C88 H113 0.979 . S
C88 H114 0.977 . S
C89 C85 1.684 . S
C89 H115 0.979 . S
C89 H116 0.980 . S
C89 H117 0.983 . S
C90 H66 0.948 . S
C90 C91 1.391 . S
C90 C95 1.391 . S
C91 C90 1.391 . S
C91 C92 1.391 . S
C92 H69 0.947 . S
C92 C91 1.391 . S
C92 C93 1.392 . S
C93 H70 0.948 . S
C93 C92 1.392 . S
C93 C94 1.419 . S
C94 C93 1.419 . S
C94 C95 1.391 . S
C94 C98 1.397 . S
C95 C90 1.391 . S
C95 C94 1.391 . S
C95 C96 1.399 . S
C96 C95 1.399 . S
C96 C97 1.396 . S
C96 C99 1.453 . S
C96 C100 1.684 . S
C97 C87 1.723 . S
C97 C96 1.396 . S
C97 C98 1.394 . S
C98 C68 1.723 . S
C98 C94 1.397 . S
C98 C97 1.394 . S
C99 H71 0.982 . S
C99 H75 0.979 . S
C99 H76 0.977 . S
C99 C96 1.453 . S
C100 H72 0.979 . S
C100 H73 0.980 . S
C100 H74 0.983 . S
C100 C96 1.684 . S
H101 C119 0.948 . S
H102 C60 0.948 . S
H103 C78 0.979 . S
H104 C78 0.980 . S
H105 C78 0.983 . S
H106 C77 0.982 . S
H107 C77 0.979 . S
H108 C77 0.977 . S
H109 C79 0.948 . S
H110 C81 0.947 . S
H111 C82 0.948 . S
H112 C88 0.982 . S
H113 C88 0.979 . S
H114 C88 0.977 . S
H115 C89 0.979 . S
H116 C89 0.980 . S
H117 C89 0.983 . S
H118 C62 0.947 . S
C119 C62 1.392 . S
C119 C63 1.419 . S
C119 H101 0.948 . S
C120 C121 1.391 . S
C120 C124 1.391 . S
C120 H162 0.948 . S
C121 C120 1.391 . S
C121 C122 1.391 . S
C122 C121 1.391 . S
C122 H178 0.947 . S
C122 C179 1.392 . S
C123 C124 1.391 . S
C123 C127 1.397 . S
C123 C179 1.419 . S
C124 C120 1.391 . S
C124 C123 1.391 . S
C124 C125 1.399 . S
C125 C124 1.399 . S
C125 C128 1.396 . S
C125 C137 1.453 . S
C125 C138 1.684 . S
H126 C150 0.948 . S
C127 C123 1.397 . S
C127 C128 1.394 . S
C127 C146 1.723 . S
C128 C125 1.396 . S
C128 C127 1.394 . S
C128 C158 1.723 . S
H129 C152 0.947 . S
H130 C153 0.948 . S
H131 C159 0.982 . S
H132 C160 0.979 . S
H133 C160 0.980 . S
H134 C160 0.983 . S
H135 C159 0.979 . S
H136 C159 0.977 . S
C137 C125 1.453 . S
C137 H166 0.982 . S
C137 H167 0.979 . S
C137 H168 0.977 . S
C138 C125 1.684 . S
C138 H163 0.979 . S
C138 H164 0.980 . S
C138 H165 0.983 . S
C139 C140 1.391 . S
C139 C144 1.391 . S
C139 H169 0.948 . S
C140 C139 1.391 . S
C140 C141 1.391 . S
C141 C140 1.391 . S
C141 C142 1.392 . S
C141 H170 0.947 . S
C142 C141 1.392 . S
C142 C143 1.419 . S
C142 H171 0.948 . S
C143 C142 1.419 . S
C143 C144 1.391 . S
C143 C147 1.397 . S
C144 C139 1.391 . S
C144 C143 1.391 . S
C144 C145 1.399 . S
C145 C144 1.399 . S
C145 C146 1.396 . S
C145 C148 1.453 . S
C145 C149 1.684 . S
C146 C127 1.723 . S
C146 C145 1.396 . S
C146 C147 1.394 . S
C147 C143 1.397 . S
C147 C146 1.394 . S
C147 C157 1.723 . S
C148 C145 1.453 . S
C148 H172 0.982 . S
C148 H173 0.979 . S
C148 H174 0.977 . S
C149 C145 1.684 . S
C149 H175 0.979 . S
C149 H176 0.980 . S
C149 H177 0.983 . S
C150 H126 0.948 . S
C150 C151 1.391 . S
C150 C155 1.391 . S
C151 C150 1.391 . S
C151 C152 1.391 . S
C152 H129 0.947 . S
C152 C151 1.391 . S
C152 C153 1.392 . S
C153 H130 0.948 . S
C153 C152 1.392 . S
C153 C154 1.419 . S
C154 C153 1.419 . S
C154 C155 1.391 . S
C154 C158 1.397 . S
C155 C150 1.391 . S
C155 C154 1.391 . S
C155 C156 1.399 . S
C156 C155 1.399 . S
C156 C157 1.396 . S
C156 C159 1.453 . S
C156 C160 1.684 . S
C157 C147 1.723 . S
C157 C156 1.396 . S
C157 C158 1.394 . S
C158 C128 1.723 . S
C158 C154 1.397 . S
C158 C157 1.394 . S
C159 H131 0.982 . S
C159 H135 0.979 . S
C159 H136 0.977 . S
C159 C156 1.453 . S
C160 H132 0.979 . S
C160 H133 0.980 . S
C160 H134 0.983 . S
C160 C156 1.684 . S
H161 C179 0.948 . S
H162 C120 0.948 . S
H163 C138 0.979 . S
H164 C138 0.980 . S
H165 C138 0.983 . S
H166 C137 0.982 . S
H167 C137 0.979 . S
H168 C137 0.977 . S
H169 C139 0.948 . S
H170 C141 0.947 . S
H171 C142 0.948 . S
H172 C148 0.982 . S
H173 C148 0.979 . S
H174 C148 0.977 . S
H175 C149 0.979 . S
H176 C149 0.980 . S
H177 C149 0.983 . S
H178 C122 0.947 . S
C179 C122 1.392 . S
C179 C123 1.419 . S
C179 H161 0.948 . S
C180 C181 1.391 . S
C180 C184 1.391 . S
C180 H222 0.948 . S
C181 C180 1.391 . S
C181 C182 1.391 . S
C182 C181 1.391 . S
C182 H238 0.947 . S
C182 C239 1.392 . S
C183 C184 1.391 . S
C183 C187 1.397 . S
C183 C239 1.419 . S
C184 C180 1.391 . S
C184 C183 1.391 . S
C184 C185 1.399 . S
C185 C184 1.399 . S
C185 C188 1.396 . S
C185 C197 1.453 . S
C185 C198 1.684 . S
H186 C210 0.948 . S
C187 C183 1.397 . S
C187 C188 1.394 . S
C187 C206 1.723 . S
C188 C185 1.396 . S
C188 C187 1.394 . S
C188 C218 1.723 . S
H189 C212 0.947 . S
H190 C213 0.948 . S
H191 C219 0.982 . S
H192 C220 0.979 . S
H193 C220 0.980 . S
H194 C220 0.983 . S
H195 C219 0.979 . S
H196 C219 0.977 . S
C197 C185 1.453 . S
C197 H226 0.982 . S
C197 H227 0.979 . S
C197 H228 0.977 . S
C198 C185 1.684 . S
C198 H223 0.979 . S
C198 H224 0.980 . S
C198 H225 0.983 . S
C199 C200 1.391 . S
C199 C204 1.391 . S
C199 H229 0.948 . S
C200 C199 1.391 . S
C200 C201 1.391 . S
C201 C200 1.391 . S
C201 C202 1.392 . S
C201 H230 0.947 . S
C202 C201 1.392 . S
C202 C203 1.419 . S
C202 H231 0.948 . S
C203 C202 1.419 . S
C203 C204 1.391 . S
C203 C207 1.397 . S
C204 C199 1.391 . S
C204 C203 1.391 . S
C204 C205 1.399 . S
C205 C204 1.399 . S
C205 C206 1.396 . S
C205 C208 1.453 . S
C205 C209 1.684 . S
C206 C187 1.723 . S
C206 C205 1.396 . S
C206 C207 1.394 . S
C207 C203 1.397 . S
C207 C206 1.394 . S
C207 C217 1.723 . S
C208 C205 1.453 . S
C208 H232 0.982 . S
C208 H233 0.979 . S
C208 H234 0.977 . S
C209 C205 1.684 . S
C209 H235 0.979 . S
C209 H236 0.980 . S
C209 H237 0.983 . S
C210 H186 0.948 . S
C210 C211 1.391 . S
C210 C215 1.391 . S
C211 C210 1.391 . S
C211 C212 1.391 . S
C212 H189 0.947 . S
C212 C211 1.391 . S
C212 C213 1.392 . S
C213 H190 0.948 . S
C213 C212 1.392 . S
C213 C214 1.419 . S
C214 C213 1.419 . S
C214 C215 1.391 . S
C214 C218 1.397 . S
C215 C210 1.391 . S
C215 C214 1.391 . S
C215 C216 1.399 . S
C216 C215 1.399 . S
C216 C217 1.396 . S
C216 C219 1.453 . S
C216 C220 1.684 . S
C217 C207 1.723 . S
C217 C216 1.396 . S
C217 C218 1.394 . S
C218 C188 1.723 . S
C218 C214 1.397 . S
C218 C217 1.394 . S
C219 H191 0.982 . S
C219 H195 0.979 . S
C219 H196 0.977 . S
C219 C216 1.453 . S
C220 H192 0.979 . S
C220 H193 0.980 . S
C220 H194 0.983 . S
C220 C216 1.684 . S
H221 C239 0.948 . S
H222 C180 0.948 . S
H223 C198 0.979 . S
H224 C198 0.980 . S
H225 C198 0.983 . S
H226 C197 0.982 . S
H227 C197 0.979 . S
H228 C197 0.977 . S
H229 C199 0.948 . S
H230 C201 0.947 . S
H231 C202 0.948 . S
H232 C208 0.982 . S
H233 C208 0.979 . S
H234 C208 0.977 . S
H235 C209 0.979 . S
H236 C209 0.980 . S
H237 C209 0.983 . S
H238 C182 0.947 . S
C239 C182 1.392 . S
C239 C183 1.419 . S
C239 H221 0.948 . S
C240 C241 1.391 . S
C240 C244 1.391 . S
C240 H282 0.948 . S
C241 C240 1.391 . S
C241 C242 1.391 . S
C242 C241 1.391 . S
C242 H298 0.947 . S
C242 C299 1.392 . S
C243 C244 1.391 . S
C243 C247 1.397 . S
C243 C299 1.419 . S
C244 C240 1.391 . S
C244 C243 1.391 . S
C244 C245 1.399 . S
C245 C244 1.399 . S
C245 C248 1.396 . S
C245 C257 1.453 . S
C245 C258 1.684 . S
H246 C270 0.948 . S
C247 C243 1.397 . S
C247 C248 1.394 . S
C247 C266 1.723 . S
C248 C245 1.396 . S
C248 C247 1.394 . S
C248 C278 1.723 . S
H249 C272 0.947 . S
H250 C273 0.948 . S
H251 C279 0.982 . S
H252 C280 0.979 . S
H253 C280 0.980 . S
H254 C280 0.983 . S
H255 C279 0.979 . S
H256 C279 0.977 . S
C257 C245 1.453 . S
C257 H286 0.982 . S
C257 H287 0.979 . S
C257 H288 0.977 . S
C258 C245 1.684 . S
C258 H283 0.979 . S
C258 H284 0.980 . S
C258 H285 0.983 . S
C259 C260 1.391 . S
C259 C264 1.391 . S
C259 H289 0.948 . S
C260 C259 1.391 . S
C260 C261 1.391 . S
C261 C260 1.391 . S
C261 C262 1.392 . S
C261 H290 0.947 . S
C262 C261 1.392 . S
C262 C263 1.419 . S
C262 H291 0.948 . S
C263 C262 1.419 . S
C263 C264 1.391 . S
C263 C267 1.397 . S
C264 C259 1.391 . S
C264 C263 1.391 . S
C264 C265 1.399 . S
C265 C264 1.399 . S
C265 C266 1.396 . S
C265 C268 1.453 . S
C265 C269 1.684 . S
C266 C247 1.723 . S
C266 C265 1.396 . S
C266 C267 1.394 . S
C267 C263 1.397 . S
C267 C266 1.394 . S
C267 C277 1.723 . S
C268 C265 1.453 . S
C268 H292 0.982 . S
C268 H293 0.979 . S
C268 H294 0.977 . S
C269 C265 1.684 . S
C269 H295 0.979 . S
C269 H296 0.980 . S
C269 H297 0.983 . S
C270 H246 0.948 . S
C270 C271 1.391 . S
C270 C275 1.391 . S
C271 C270 1.391 . S
C271 C272 1.391 . S
C272 H249 0.947 . S
C272 C271 1.391 . S
C272 C273 1.392 . S
C273 H250 0.948 . S
C273 C272 1.392 . S
C273 C274 1.419 . S
C274 C273 1.419 . S
C274 C275 1.391 . S
C274 C278 1.397 . S
C275 C270 1.391 . S
C275 C274 1.391 . S
C275 C276 1.399 . S
C276 C275 1.399 . S
C276 C277 1.396 . S
C276 C279 1.453 . S
C276 C280 1.684 . S
C277 C267 1.723 . S
C277 C276 1.396 . S
C277 C278 1.394 . S
C278 C248 1.723 . S
C278 C274 1.397 . S
C278 C277 1.394 . S
C279 H251 0.982 . S
C279 H255 0.979 . S
C279 H256 0.977 . S
C279 C276 1.453 . S
C280 H252 0.979 . S
C280 H253 0.980 . S
C280 H254 0.983 . S
C280 C276 1.684 . S
H281 C299 0.948 . S
H282 C240 0.948 . S
H283 C258 0.979 . S
H284 C258 0.980 . S
H285 C258 0.983 . S
H286 C257 0.982 . S
H287 C257 0.979 . S
H288 C257 0.977 . S
H289 C259 0.948 . S
H290 C261 0.947 . S
H291 C262 0.948 . S
H292 C268 0.982 . S
H293 C268 0.979 . S
H294 C268 0.977 . S
H295 C269 0.979 . S
H296 C269 0.980 . S
H297 C269 0.983 . S
H298 C242 0.947 . S
C299 C242 1.392 . S
C299 C243 1.419 . S
C299 H281 0.948 . S
C300 C301 1.391 . S
C300 C304 1.391 . S
C300 H342 0.948 . S
C301 C300 1.391 . S
C301 C302 1.391 . S
C302 C301 1.391 . S
C302 H358 0.947 . S
C302 C359 1.392 . S
C303 C304 1.391 . S
C303 C307 1.397 . S
C303 C359 1.419 . S
C304 C300 1.391 . S
C304 C303 1.391 . S
C304 C305 1.399 . S
C305 C304 1.399 . S
C305 C308 1.396 . S
C305 C317 1.453 . S
C305 C318 1.684 . S
H306 C330 0.948 . S
C307 C303 1.397 . S
C307 C308 1.394 . S
C307 C326 1.723 . S
C308 C305 1.396 . S
C308 C307 1.394 . S
C308 C338 1.723 . S
H309 C332 0.947 . S
H310 C333 0.948 . S
H311 C339 0.982 . S
H312 C340 0.979 . S
H313 C340 0.980 . S
H314 C340 0.983 . S
H315 C339 0.979 . S
H316 C339 0.977 . S
C317 C305 1.453 . S
C317 H346 0.982 . S
C317 H347 0.979 . S
C317 H348 0.977 . S
C318 C305 1.684 . S
C318 H343 0.979 . S
C318 H344 0.980 . S
C318 H345 0.983 . S
C319 C320 1.391 . S
C319 C324 1.391 . S
C319 H349 0.948 . S
C320 C319 1.391 . S
C320 C321 1.391 . S
C321 C320 1.391 . S
C321 C322 1.392 . S
C321 H350 0.947 . S
C322 C321 1.392 . S
C322 C323 1.419 . S
C322 H351 0.948 . S
C323 C322 1.419 . S
C323 C324 1.391 . S
C323 C327 1.397 . S
C324 C319 1.391 . S
C324 C323 1.391 . S
C324 C325 1.399 . S
C325 C324 1.399 . S
C325 C326 1.396 . S
C325 C328 1.453 . S
C325 C329 1.684 . S
C326 C307 1.723 . S
C326 C325 1.396 . S
C326 C327 1.394 . S
C327 C323 1.397 . S
C327 C326 1.394 . S
C327 C337 1.723 . S
C328 C325 1.453 . S
C328 H352 0.982 . S
C328 H353 0.979 . S
C328 H354 0.977 . S
C329 C325 1.684 . S
C329 H355 0.979 . S
C329 H356 0.980 . S
C329 H357 0.983 . S
C330 H306 0.948 . S
C330 C331 1.391 . S
C330 C335 1.391 . S
C331 C330 1.391 . S
C331 C332 1.391 . S
C332 H309 0.947 . S
C332 C331 1.391 . S
C332 C333 1.392 . S
C333 H310 0.948 . S
C333 C332 1.392 . S
C333 C334 1.419 . S
C334 C333 1.419 . S
C334 C335 1.391 . S
C334 C338 1.397 . S
C335 C330 1.391 . S
C335 C334 1.391 . S
C335 C336 1.399 . S
C336 C335 1.399 . S
C336 C337 1.396 . S
C336 C339 1.453 . S
C336 C340 1.684 . S
C337 C327 1.723 . S
C337 C336 1.396 . S
C337 C338 1.394 . S
C338 C308 1.723 . S
C338 C334 1.397 . S
C338 C337 1.394 . S
C339 H311 0.982 . S
C339 H315 0.979 . S
C339 H316 0.977 . S
C339 C336 1.453 . S
C340 H312 0.979 . S
C340 H313 0.980 . S
C340 H314 0.983 . S
C340 C336 1.684 . S
H341 C359 0.948 . S
H342 C300 0.948 . S
H343 C318 0.979 . S
H344 C318 0.980 . S
H345 C318 0.983 . S
H346 C317 0.982 . S
H347 C317 0.979 . S
H348 C317 0.977 . S
H349 C319 0.948 . S
H350 C321 0.947 . S
H351 C322 0.948 . S
H352 C328 0.982 . S
H353 C328 0.979 . S
H354 C328 0.977 . S
H355 C329 0.979 . S
H356 C329 0.980 . S
H357 C329 0.983 . S
H358 C302 0.947 . S
C359 C302 1.392 . S
C359 C303 1.419 . S
C359 H341 0.948 . S
C360 C361 1.391 . S
C360 C364 1.391 . S
C360 H402 0.948 . S
C361 C360 1.391 . S
C361 C362 1.391 . S
C362 C361 1.391 . S
C362 H418 0.947 . S
C362 C419 1.392 . S
C363 C364 1.391 . S
C363 C367 1.397 . S
C363 C419 1.419 . S
C364 C360 1.391 . S
C364 C363 1.391 . S
C364 C365 1.399 . S
C365 C364 1.399 . S
C365 C368 1.396 . S
C365 C377 1.453 . S
C365 C378 1.684 . S
H366 C390 0.948 . S
C367 C363 1.397 . S
C367 C368 1.394 . S
C367 C386 1.723 . S
C368 C365 1.396 . S
C368 C367 1.394 . S
C368 C398 1.723 . S
H369 C392 0.947 . S
H370 C393 0.948 . S
H371 C399 0.982 . S
H372 C400 0.979 . S
H373 C400 0.980 . S
H374 C400 0.983 . S
H375 C399 0.979 . S
H376 C399 0.977 . S
C377 C365 1.453 . S
C377 H406 0.982 . S
C377 H407 0.979 . S
C377 H408 0.977 . S
C378 C365 1.684 . S
C378 H403 0.979 . S
C378 H404 0.980 . S
C378 H405 0.983 . S
C379 C380 1.391 . S
C379 C384 1.391 . S
C379 H409 0.948 . S
C380 C379 1.391 . S
C380 C381 1.391 . S
C381 C380 1.391 . S
C381 C382 1.392 . S
C381 H410 0.947 . S
C382 C381 1.392 . S
C382 C383 1.419 . S
C382 H411 0.948 . S
C383 C382 1.419 . S
C383 C384 1.391 . S
C383 C387 1.397 . S
C384 C379 1.391 . S
C384 C383 1.391 . S
C384 C385 1.399 . S
C385 C384 1.399 . S
C385 C386 1.396 . S
C385 C388 1.453 . S
C385 C389 1.684 . S
C386 C367 1.723 . S
C386 C385 1.396 . S
C386 C387 1.394 . S
C387 C383 1.397 . S
C387 C386 1.394 . S
C387 C397 1.723 . S
C388 C385 1.453 . S
C388 H412 0.982 . S
C388 H413 0.979 . S
C388 H414 0.977 . S
C389 C385 1.684 . S
C389 H415 0.979 . S
C389 H416 0.980 . S
C389 H417 0.983 . S
C390 H366 0.948 . S
C390 C391 1.391 . S
C390 C395 1.391 . S
C391 C390 1.391 . S
C391 C392 1.391 . S
C392 H369 0.947 . S
C392 C391 1.391 . S
C392 C393 1.392 . S
C393 H370 0.948 . S
C393 C392 1.392 . S
C393 C394 1.419 . S
C394 C393 1.419 . S
C394 C395 1.391 . S
C394 C398 1.397 . S
C395 C390 1.391 . S
C395 C394 1.391 . S
C395 C396 1.399 . S
C396 C395 1.399 . S
C396 C397 1.396 . S
C396 C399 1.453 . S
C396 C400 1.684 . S
C397 C387 1.723 . S
C397 C396 1.396 . S
C397 C398 1.394 . S
C398 C368 1.723 . S
C398 C394 1.397 . S
C398 C397 1.394 . S
C399 H371 0.982 . S
C399 H375 0.979 . S
C399 H376 0.977 . S
C399 C396 1.453 . S
C400 H372 0.979 . S
C400 H373 0.980 . S
C400 H374 0.983 . S
C400 C396 1.684 . S
H401 C419 0.948 . S
H402 C360 0.948 . S
H403 C378 0.979 . S
H404 C378 0.980 . S
H405 C378 0.983 . S
H406 C377 0.982 . S
H407 C377 0.979 . S
H408 C377 0.977 . S
H409 C379 0.948 . S
H410 C381 0.947 . S
H411 C382 0.948 . S
H412 C388 0.982 . S
H413 C388 0.979 . S
H414 C388 0.977 . S
H415 C389 0.979 . S
H416 C389 0.980 . S
H417 C389 0.983 . S
H418 C362 0.947 . S
C419 C362 1.392 . S
C419 C363 1.419 . S
C419 H401 0.948 . S
C420 C421 1.391 . S
C420 C424 1.391 . S
C420 H462 0.948 . S
C421 C420 1.391 . S
C421 C422 1.391 . S
C422 C421 1.391 . S
C422 H478 0.947 . S
C422 C479 1.392 . S
C423 C424 1.391 . S
C423 C427 1.397 . S
C423 C479 1.419 . S
C424 C420 1.391 . S
C424 C423 1.391 . S
C424 C425 1.399 . S
C425 C424 1.399 . S
C425 C428 1.396 . S
C425 C437 1.453 . S
C425 C438 1.684 . S
H426 C450 0.948 . S
C427 C423 1.397 . S
C427 C428 1.394 . S
C427 C446 1.723 . S
C428 C425 1.396 . S
C428 C427 1.394 . S
C428 C458 1.723 . S
H429 C452 0.947 . S
H430 C453 0.948 . S
H431 C459 0.982 . S
H432 C460 0.979 . S
H433 C460 0.980 . S
H434 C460 0.983 . S
H435 C459 0.979 . S
H436 C459 0.977 . S
C437 C425 1.453 . S
C437 H466 0.982 . S
C437 H467 0.979 . S
C437 H468 0.977 . S
C438 C425 1.684 . S
C438 H463 0.979 . S
C438 H464 0.980 . S
C438 H465 0.983 . S
C439 C440 1.391 . S
C439 C444 1.391 . S
C439 H469 0.948 . S
C440 C439 1.391 . S
C440 C441 1.391 . S
C441 C440 1.391 . S
C441 C442 1.392 . S
C441 H470 0.947 . S
C442 C441 1.392 . S
C442 C443 1.419 . S
C442 H471 0.948 . S
C443 C442 1.419 . S
C443 C444 1.391 . S
C443 C447 1.397 . S
C444 C439 1.391 . S
C444 C443 1.391 . S
C444 C445 1.399 . S
C445 C444 1.399 . S
C445 C446 1.396 . S
C445 C448 1.453 . S
C445 C449 1.684 . S
C446 C427 1.723 . S
C446 C445 1.396 . S
C446 C447 1.394 . S
C447 C443 1.397 . S
C447 C446 1.394 . S
C447 C457 1.723 . S
C448 C445 1.453 . S
C448 H472 0.982 . S
C448 H473 0.979 . S
C448 H474 0.977 . S
C449 C445 1.684 . S
C449 H475 0.979 . S
C449 H476 0.980 . S
C449 H477 0.983 . S
C450 H426 0.948 . S
C450 C451 1.391 . S
C450 C455 1.391 . S
C451 C450 1.391 . S
C451 C452 1.391 . S
C452 H429 0.947 . S
C452 C451 1.391 . S
C452 C453 1.392 . S
C453 H430 0.948 . S
C453 C452 1.392 . S
C453 C454 1.419 . S
C454 C453 1.419 . S
C454 C455 1.391 . S
C454 C458 1.397 . S
C455 C450 1.391 . S
C455 C454 1.391 . S
C455 C456 1.399 . S
C456 C455 1.399 . S
C456 C457 1.396 . S
C456 C459 1.453 . S
C456 C460 1.684 . S
C457 C447 1.723 . S
C457 C456 1.396 . S
C457 C458 1.394 . S
C458 C428 1.723 . S
C458 C454 1.397 . S
C458 C457 1.394 . S
C459 H431 0.982 . S
C459 H435 0.979 . S
C459 H436 0.977 . S
C459 C456 1.453 . S
C460 H432 0.979 . S
C460 H433 0.980 . S
C460 H434 0.983 . S
C460 C456 1.684 . S
H461 C479 0.948 . S
H462 C420 0.948 . S
H463 C438 0.979 . S
H464 C438 0.980 . S
H465 C438 0.983 . S
H466 C437 0.982 . S
H467 C437 0.979 . S
H468 C437 0.977 . S
H469 C439 0.948 . S
H470 C441 0.947 . S
H471 C442 0.948 . S
H472 C448 0.982 . S
H473 C448 0.979 . S
H474 C448 0.977 . S
H475 C449 0.979 . S
H476 C449 0.980 . S
H477 C449 0.983 . S
H478 C422 0.947 . S
C479 C422 1.392 . S
C479 C423 1.419 . S
C479 H461 0.948 . S
C480 C481 1.391 . S
C480 C484 1.391 . S
C480 H522 0.948 . S
C481 C480 1.391 . S
C481 C482 1.391 . S
C482 C481 1.391 . S
C482 H538 0.947 . S
C482 C539 1.392 . S
C483 C484 1.391 . S
C483 C487 1.397 . S
C483 C539 1.419 . S
C484 C480 1.391 . S
C484 C483 1.391 . S
C484 C485 1.399 . S
C485 C484 1.399 . S
C485 C488 1.396 . S
C485 C497 1.453 . S
C485 C498 1.684 . S
H486 C510 0.948 . S
C487 C483 1.397 . S
C487 C488 1.394 . S
C487 C506 1.723 . S
C488 C485 1.396 . S
C488 C487 1.394 . S
C488 C518 1.723 . S
H489 C512 0.947 . S
H490 C513 0.948 . S
H491 C519 0.982 . S
H492 C520 0.979 . S
H493 C520 0.980 . S
H494 C520 0.983 . S
H495 C519 0.979 . S
H496 C519 0.977 . S
C497 C485 1.453 . S
C497 H526 0.982 . S
C497 H527 0.979 . S
C497 H528 0.977 . S
C498 C485 1.684 . S
C498 H523 0.979 . S
C498 H524 0.980 . S
C498 H525 0.983 . S
C499 C500 1.391 . S
C499 C504 1.391 . S
C499 H529 0.948 . S
C500 C499 1.391 . S
C500 C501 1.391 . S
C501 C500 1.391 . S
C501 C502 1.392 . S
C501 H530 0.947 . S
C502 C501 1.392 . S
C502 C503 1.419 . S
C502 H531 0.948 . S
C503 C502 1.419 . S
C503 C504 1.391 . S
C503 C507 1.397 . S
C504 C499 1.391 . S
C504 C503 1.391 . S
C504 C505 1.399 . S
C505 C504 1.399 . S
C505 C506 1.396 . S
C505 C508 1.453 . S
C505 C509 1.684 . S
C506 C487 1.723 . S
C506 C505 1.396 . S
C506 C507 1.394 . S
C507 C503 1.397 . S
C507 C506 1.394 . S
C507 C517 1.723 . S
C508 C505 1.453 . S
C508 H532 0.982 . S
C508 H533 0.979 . S
C508 H534 0.977 . S
C509 C505 1.684 . S
C509 H535 0.979 . S
C509 H536 0.980 . S
C509 H537 0.983 . S
C510 H486 0.948 . S
C510 C511 1.391 . S
C510 C515 1.391 . S
C511 C510 1.391 . S
C511 C512 1.391 . S
C512 H489 0.947 . S
C512 C511 1.391 . S
C512 C513 1.392 . S
C513 H490 0.948 . S
C513 C512 1.392 . S
C513 C514 1.419 . S
C514 C513 1.419 . S
C514 C515 1.391 . S
C514 C518 1.397 . S
C515 C510 1.391 . S
C515 C514 1.391 . S
C515 C516 1.399 . S
C516 C515 1.399 . S
C516 C517 1.396 . S
C516 C519 1.453 . S
C516 C520 1.684 . S
C517 C507 1.723 . S
C517 C516 1.396 . S
C517 C518 1.394 . S
C518 C488 1.723 . S
C518 C514 1.397 . S
C518 C517 1.394 . S
C519 H491 0.982 . S
C519 H495 0.979 . S
C519 H496 0.977 . S
C519 C516 1.453 . S
C520 H492 0.979 . S
C520 H493 0.980 . S
C520 H494 0.983 . S
C520 C516 1.684 . S
H521 C539 0.948 . S
H522 C480 0.948 . S
H523 C498 0.979 . S
H524 C498 0.980 . S
H525 C498 0.983 . S
H526 C497 0.982 . S
H527 C497 0.979 . S
H528 C497 0.977 . S
H529 C499 0.948 . S
H530 C501 0.947 . S
H531 C502 0.948 . S
H532 C508 0.982 . S
H533 C508 0.979 . S
H534 C508 0.977 . S
H535 C509 0.979 . S
H536 C509 0.980 . S
H537 C509 0.983 . S
H538 C482 0.947 . S
C539 C482 1.392 . S
C539 C483 1.419 . S
C539 H521 0.948 . S
C540 C541 1.391 . S
C540 C544 1.391 . S
C540 H582 0.948 . S
C541 C540 1.391 . S
C541 C542 1.391 . S
C542 C541 1.391 . S
C542 H598 0.947 . S
C542 C599 1.392 . S
C543 C544 1.391 . S
C543 C547 1.397 . S
C543 C599 1.419 . S
C544 C540 1.391 . S
C544 C543 1.391 . S
C544 C545 1.399 . S
C545 C544 1.399 . S
C545 C548 1.396 . S
C545 C557 1.453 . S
C545 C558 1.684 . S
H546 C570 0.948 . S
C547 C543 1.397 . S
C547 C548 1.394 . S
C547 C566 1.723 . S
C548 C545 1.396 . S
C548 C547 1.394 . S
C548 C578 1.723 . S
H549 C572 0.947 . S
H550 C573 0.948 . S
H551 C579 0.982 . S
H552 C580 0.979 . S
H553 C580 0.980 . S
H554 C580 0.983 . S
H555 C579 0.979 . S
H556 C579 0.977 . S
C557 C545 1.453 . S
C557 H586 0.982 . S
C557 H587 0.979 . S
C557 H588 0.977 . S
C558 C545 1.684 . S
C558 H583 0.979 . S
C558 H584 0.980 . S
C558 H585 0.983 . S
C559 C560 1.391 . S
C559 C564 1.391 . S
C559 H589 0.948 . S
C560 C559 1.391 . S
C560 C561 1.391 . S
C561 C560 1.391 . S
C561 C562 1.392 . S
C561 H590 0.947 . S
C562 C561 1.392 . S
C562 C563 1.419 . S
C562 H591 0.948 . S
C563 C562 1.419 . S
C563 C564 1.391 . S
C563 C567 1.397 . S
C564 C559 1.391 . S
C564 C563 1.391 . S
C564 C565 1.399 . S
C565 C564 1.399 . S
C565 C566 1.396 . S
C565 C568 1.453 . S
C565 C569 1.684 . S
C566 C547 1.723 . S
C566 C565 1.396 . S
C566 C567 1.394 . S
C567 C563 1.397 . S
C567 C566 1.394 . S
C567 C577 1.723 . S
C568 C565 1.453 . S
C568 H592 0.982 . S
C568 H593 0.979 . S
C568 H594 0.977 . S
C569 C565 1.684 . S
C569 H595 0.979 . S
C569 H596 0.980 . S
C569 H597 0.983 . S
C570 H546 0.948 . S
C570 C571 1.391 . S
C570 C575 1.391 . S
C571 C570 1.391 . S
C571 C572 1.391 . S
C572 H549 0.947 . S
C572 C571 1.391 . S
C572 C573 1.392 . S
C573 H550 0.948 . S
C573 C572 1.392 . S
C573 C574 1.419 . S
C574 C573 1.419 . S
C574 C575 1.391 . S
C574 C578 1.397 . S
C575 C570 1.391 . S
C575 C574 1.391 . S
C575 C576 1.399 . S
C576 C575 1.399 . S
C576 C577 1.396 . S
C576 C579 1.453 . S
C576 C580 1.684 . S
C577 C567 1.723 . S
C577 C576 1.396 . S
C577 C578 1.394 . S
C578 C548 1.723 . S
C578 C574 1.397 . S
C578 C577 1.394 . S
C579 H551 0.982 . S
C579 H555 0.979 . S
C579 H556 0.977 . S
C579 C576 1.453 . S
C580 H552 0.979 . S
C580 H553 0.980 . S
C580 H554 0.983 . S
C580 C576 1.684 . S
H581 C599 0.948 . S
H582 C540 0.948 . S
H583 C558 0.979 . S
H584 C558 0.980 . S
H585 C558 0.983 . S
H586 C557 0.982 . S
H587 C557 0.979 . S
H588 C557 0.977 . S
H589 C559 0.948 . S
H590 C561 0.947 . S
H591 C562 0.948 . S
H592 C568 0.982 . S
H593 C568 0.979 . S
H594 C568 0.977 . S
H595 C569 0.979 . S
H596 C569 0.980 . S
H597 C569 0.983 . S
H598 C542 0.947 . S
C599 C542 1.392 . S
C599 C543 1.419 . S
C599 H581 0.948 . S
C600 C601 1.391 . S
C600 C604 1.391 . S
C600 H642 0.948 . S
C601 C600 1.391 . S
C601 C602 1.391 . S
C602 C601 1.391 . S
C602 H658 0.947 . S
C602 C659 1.392 . S
C603 C604 1.391 . S
C603 C607 1.397 . S
C603 C659 1.419 . S
C604 C600 1.391 . S
C604 C603 1.391 . S
C604 C605 1.399 . S
C605 C604 1.399 . S
C605 C608 1.396 . S
C605 C617 1.453 . S
C605 C618 1.684 . S
H606 C630 0.948 . S
C607 C603 1.397 . S
C607 C608 1.394 . S
C607 C626 1.723 . S
C608 C605 1.396 . S
C608 C607 1.394 . S
C608 C638 1.723 . S
H609 C632 0.947 . S
H610 C633 0.948 . S
H611 C639 0.982 . S
H612 C640 0.979 . S
H613 C640 0.980 . S
H614 C640 0.983 . S
H615 C639 0.979 . S
H616 C639 0.977 . S
C617 C605 1.453 . S
C617 H646 0.982 . S
C617 H647 0.979 . S
C617 H648 0.977 . S
C618 C605 1.684 . S
C618 H643 0.979 . S
C618 H644 0.980 . S
C618 H645 0.983 . S
C619 C620 1.391 . S
C619 C624 1.391 . S
C619 H649 0.948 . S
C620 C619 1.391 . S
C620 C621 1.391 . S
C621 C620 1.391 . S
C621 C622 1.392 . S
C621 H650 0.947 . S
C622 C621 1.392 . S
C622 C623 1.419 . S
C622 H651 0.948 . S
C623 C622 1.419 . S
C623 C624 1.391 . S
C623 C627 1.397 . S
C624 C619 1.391 . S
C624 C623 1.391 . S
C624 C625 1.399 . S
C625 C624 1.399 . S
C625 C626 1.396 . S
C625 C628 1.453 . S
C625 C629 1.684 . S
C626 C607 1.723 . S
C626 C625 1.396 . S
C626 C627 1.394 . S
C627 C623 1.397 . S
C627 C626 1.394 . S
C627 C637 1.723 . S
C628 C625 1.453 . S
C628 H652 0.982 . S
C628 H653 0.979 . S
C628 H654 0.977 . S
C629 C625 1.684 . S
C629 H655 0.979 . S
C629 H656 0.980 . S
C629 H657 0.983 . S
C630 H606 0.948 . S
C630 C631 1.391 . S
C630 C635 1.391 . S
C631 C630 1.391 . S
C631 C632 1.391 . S
C632 H609 0.947 . S
C632 C631 1.391 . S
C632 C633 1.392 . S
C633 H610 0.948 . S
C633 C632 1.392 . S
C633 C634 1.419 . S
C634 C633 1.419 . S
C634 C635 1.391 . S
C634 C638 1.397 . S
C635 C630 1.391 . S
C635 C634 1.391 . S
C635 C636 1.399 . S
C636 C635 1.399 . S
C636 C637 1.396 . S
C636 C639 1.453 . S
C636 C640 1.684 . S
C637 C627 1.723 . S
C637 C636 1.396 . S
C637 C638 1.394 . S
C638 C608 1.723 . S
C638 C634 1.397 . S
C638 C637 1.394 . S
C639 H611 0.982 . S
C639 H615 0.979 . S
C639 H616 0.977 . S
C639 C636 1.453 . S
C640 H612 0.979 . S
C640 H613 0.980 . S
C640 H614 0.983 . S
C640 C636 1.684 . S
H641 C659 0.948 . S
H642 C600 0.948 . S
H643 C618 0.979 . S
H644 C618 0.980 . S
H645 C618 0.983 . S
H646 C617 0.982 . S
H647 C617 0.979 . S
H648 C617 0.977 . S
H649 C619 0.948 . S
H650 C621 0.947 . S
H651 C622 0.948 . S
H652 C628 0.982 . S
H653 C628 0.979 . S
H654 C628 0.977 . S
H655 C629 0.979 . S
H656 C629 0.980 . S
H657 C629 0.983 . S
H658 C602 0.947 . S
C659 C602 1.392 . S
C659 C603 1.419 . S
C659 H641 0.948 . S
C660 C661 1.391 . S
C660 C664 1.391 . S
C660 H702 0.948 . S
C661 C660 1.391 . S
C661 C662 1.391 . S
C662 C661 1.391 . S
C662 H718 0.947 . S
C662 C719 1.392 . S
C663 C664 1.391 . S
C663 C667 1.397 . S
C663 C719 1.419 . S
C664 C660 1.391 . S
C664 C663 1.391 . S
C664 C665 1.399 . S
C665 C664 1.399 . S
C665 C668 1.396 . S
C665 C677 1.453 . S
C665 C678 1.684 . S
H666 C690 0.948 . S
C667 C663 1.397 . S
C667 C668 1.394 . S
C667 C686 1.723 . S
C668 C665 1.396 . S
C668 C667 1.394 . S
C668 C698 1.723 . S
H669 C692 0.947 . S
H670 C693 0.948 . S
H671 C699 0.982 . S
H672 C700 0.979 . S
H673 C700 0.980 . S
H674 C700 0.983 . S
H675 C699 0.979 . S
H676 C699 0.977 . S
C677 C665 1.453 . S
C677 H706 0.982 . S
C677 H707 0.979 . S
C677 H708 0.977 . S
C678 C665 1.684 . S
C678 H703 0.979 . S
C678 H704 0.980 . S
C678 H705 0.983 . S
C679 C680 1.391 . S
C679 C684 1.391 . S
C679 H709 0.948 . S
C680 C679 1.391 . S
C680 C681 1.391 . S
C681 C680 1.391 . S
C681 C682 1.392 . S
C681 H710 0.947 . S
C682 C681 1.392 . S
C682 C683 1.419 . S
C682 H711 0.948 . S
C683 C682 1.419 . S
C683 C684 1.391 . S
C683 C687 1.397 . S
C684 C679 1.391 . S
C684 C683 1.391 . S
C684 C685 1.399 . S
C685 C684 1.399 . S
C685 C686 1.396 . S
C685 C688 1.453 . S
C685 C689 1.684 . S
C686 C667 1.723 . S
C686 C685 1.396 . S
C686 C687 1.394 . S
C687 C683 1.397 . S
C687 C686 1.394 . S
C687 C697 1.723 . S
C688 C685 1.453 . S
C688 H712 0.982 . S
C688 H713 0.979 . S
C688 H714 0.977 . S
C689 C685 1.684 . S
C689 H715 0.979 . S
C689 H716 0.980 . S
C689 H717 0.983 . S
C690 H666 0.948 . S
C690 C691 1.391 . S
C690 C695 1.391 . S
C691 C690 1.391 . S
C691 C692 1.391 . S
C692 H669 0.947 . S
C692 C691 1.391 . S
C692 C693 1.392 . S
C693 H670 0.948 . S
C693 C692 1.392 . S
C693 C694 1.419 . S
C694 C693 1.419 . S
C694 C695 1.391 . S
C694 C698 1.397 . S
C695 C690 1.391 . S
C695 C694 1.391 . S
C695 C696 1.399 . S
C696 C695 1.399 . S
C696 C697 1.396 . S
C696 C699 1.453 . S
C696 C700 1.684 . S
C697 C687 1.723 . S
C697 C696 1.396 . S
C697 C698 1.394 . S
C698 C668 1.723 . S
C698 C694 1.397 . S
C698 C697 1.394 . S
C699 H671 0.982 . S
C699 H675 0.979 . S
C699 H676 0.977 . S
C699 C696 1.453 . S
C700 H672 0.979 . S
C700 H673 0.980 . S
C700 H674 0.983 . S
C700 C696 1.684 . S
H701 C719 0.948 . S
H702 C660 0.948 . S
H703 C678 0.979 . S
H704 C678 0.980 . S
H705 C678 0.983 . S
H706 C677 0.982 . S
H707 C677 0.979 . S
H708 C677 0.977 . S
H709 C679 0.948 . S
H710 C681 0.947 . S
H711 C682 0.948 . S
H712 C688 0.982 . S
H713 C688 0.979 . S
H714 C688 0.977 . S
H715 C689 0.979 . S
H716 C689 0.980 . S
H717 C689 0.983 . S
H718 C662 0.947 . S
C719 C662 1.392 . S
C719 C663 1.419 . S
C719 H701 0.948 . S
C720 C721 1.391 . S
C720 C724 1.391 . S
C720 H762 0.948 . S
C721 C720 1.391 . S
C721 C722 1.391 . S
C722 C721 1.391 . S
C722 H778 0.947 . S
C722 C779 1.392 . S
C723 C724 1.391 . S
C723 C727 1.397 . S
C723 C779 1.419 . S
C724 C720 1.391 . S
C724 C723 1.391 . S
C724 C725 1.399 . S
C725 C724 1.399 . S
C725 C728 1.396 . S
C725 C737 1.453 . S
C725 C738 1.684 . S
H726 C750 0.948 . S
C727 C723 1.397 . S
C727 C728 1.394 . S
C727 C746 1.723 . S
C728 C725 1.396 . S
C728 C727 1.394 . S
C728 C758 1.723 . S
H729 C752 0.947 . S
H730 C753 0.948 . S
H731 C759 0.982 . S
H732 C760 0.979 . S
H733 C760 0.980 . S
H734 C760 0.983 . S
H735 C759 0.979 . S
H736 C759 0.977 . S
C737 C725 1.453 . S
C737 H766 0.982 . S
C737 H767 0.979 . S
C737 H768 0.977 . S
C738 C725 1.684 . S
C738 H763 0.979 . S
C738 H764 0.980 . S
C738 H765 0.983 . S
C739 C740 1.391 . S
C739 C744 1.391 . S
C739 H769 0.948 . S
C740 C739 1.391 . S
C740 C741 1.391 . S
C741 C740 1.391 . S
C741 C742 1.392 . S
C741 H770 0.947 . S
C742 C741 1.392 . S
C742 C743 1.419 . S
C742 H771 0.948 . S
C743 C742 1.419 . S
C743 C744 1.391 . S
C743 C747 1.397 . S
C744 C739 1.391 . S
C744 C743 1.391 . S
C744 C745 1.399 . S
C745 C744 1.399 . S
C745 C746 1.396 . S
C745 C748 1.453 . S
C745 C749 1.684 . S
C746 C727 1.723 . S
C746 C745 1.396 . S
C746 C747 1.394 . S
C747 C743 1.397 . S
C747 C746 1.394 . S
C747 C757 1.723 . S
C748 C745 1.453 . S
C748 H772 0.982 . S
C748 H773 0.979 . S
C748 H774 0.977 . S
C749 C745 1.684 . S
C749 H775 0.979 . S
C749 H776 0.980 . S
C749 H777 0.983 . S
C750 H726 0.948 . S
C750 C751 1.391 . S
C750 C755 1.391 . S
C751 C750 1.391 . S
C751 C752 1.391 . S
C752 H729 0.947 . S
C752 C751 1.391 . S
C752 C753 1.392 . S
C753 H730 0.948 . S
C753 C752 1.392 . S
C753 C754 1.419 . S
C754 C753 1.419 . S
C754 C755 1.391 . S
C754 C758 1.397 . S
C755 C750 1.391 . S
C755 C754 1.391 . S
C755 C756 1.399 . S
C756 C755 1.399 . S
C756 C757 1.396 . S
C756 C759 1.453 . S
C756 C760 1.684 . S
C757 C747 1.723 . S
C757 C756 1.396 . S
C757 C758 1.394 . S
C758 C728 1.723 . S
C758 C754 1.397 . S
C758 C757 1.394 . S
C759 H731 0.982 . S
C759 H735 0.979 . S
C759 H736 0.977 . S
C759 C756 1.453 . S
C760 H732 0.979 . S
C760 H733 0.980 . S
C760 H734 0.983 . S
C760 C756 1.684 . S
H761 C779 0.948 . S
H762 C720 0.948 . S
H763 C738 0.979 . S
H764 C738 0.980 . S
H765 C738 0.983 . S
H766 C737 0.982 . S
H767 C737 0.979 . S
H768 C737 0.977 . S
H769 C739 0.948 . S
H770 C741 0.947 . S
H771 C742 0.948 . S
H772 C748 0.982 . S
H773 C748 0.979 . S
H774 C748 0.977 . S
H775 C749 0.979 . S
H776 C749 0.980 . S
H777 C749 0.983 . S
H778 C722 0.947 . S
C779 C722 1.392 . S
C779 C723 1.419 . S
C779 H761 0.948 . S
C780 C781 1.391 . S
C780 C784 1.391 . S
C780 H822 0.948 . S
C781 C780 1.391 . S
C781 C782 1.391 . S
C782 C781 1.391 . S
C782 H838 0.947 . S
C782 C839 1.392 . S
C783 C784 1.391 . S
C783 C787 1.397 . S
C783 C839 1.419 . S
C784 C780 1.391 . S
C784 C783 1.391 . S
C784 C785 1.399 . S
C785 C784 1.399 . S
C785 C788 1.396 . S
C785 C797 1.453 . S
C785 C798 1.684 . S
H786 C810 0.948 . S
C787 C783 1.397 . S
C787 C788 1.394 . S
C787 C806 1.723 . S
C788 C785 1.396 . S
C788 C787 1.394 . S
C788 C818 1.723 . S
H789 C812 0.947 . S
H790 C813 0.948 . S
H791 C819 0.982 . S
H792 C820 0.979 . S
H793 C820 0.980 . S
H794 C820 0.983 . S
H795 C819 0.979 . S
H796 C819 0.977 . S
C797 C785 1.453 . S
C797 H826 0.982 . S
C797 H827 0.979 . S
C797 H828 0.977 . S
C798 C785 1.684 . S
C798 H823 0.979 . S
C798 H824 0.980 . S
C798 H825 0.983 . S
C799 C800 1.391 . S
C799 C804 1.391 . S
C799 H829 0.948 . S
C800 C799 1.391 . S
C800 C801 1.391 . S
C801 C800 1.391 . S
C801 C802 1.392 . S
C801 H830 0.947 . S
C802 C801 1.392 . S
C802 C803 1.419 . S
C802 H831 0.948 . S
C803 C802 1.419 . S
C803 C804 1.391 . S
C803 C807 1.397 . S
C804 C799 1.391 . S
C804 C803 1.391 . S
C804 C805 1.399 . S
C805 C804 1.399 . S
C805 C806 1.396 . S
C805 C808 1.453 . S
C805 C809 1.684 . S
C806 C787 1.723 . S
C806 C805 1.396 . S
C806 C807 1.394 . S
C807 C803 1.397 . S
C807 C806 1.394 . S
C807 C817 1.723 . S
C808 C805 1.453 . S
C808 H832 0.982 . S
C808 H833 0.979 . S
C808 H834 0.977 . S
C809 C805 1.684 . S
C809 H835 0.979 . S
C809 H836 0.980 . S
C809 H837 0.983 . S
C810 H786 0.948 . S
C810 C811 1.391 . S
C810 C815 1.391 . S
C811 C810 1.391 . S
C811 C812 1.391 . S
C812 H789 0.947 . S
C812 C811 1.391 . S
C812 C813 1.392 . S
C813 H790 0.948 . S
C813 C812 1.392 . S
C813 C814 1.419 . S
C814 C813 1.419 . S
C814 C815 1.391 . S
C814 C818 1.397 . S
C815 C810 1.391 . S
C815 C814 1.391 . S
C815 C816 1.399 . S
C816 C815 1.399 . S
C816 C817 1.396 . S
C816 C819 1.453 . S
C816 C820 1.684 . S
C817 C807 1.723 . S
C817 C816 1.396 . S
C817 C818 1.394 . S
C818 C788 1.723 . S
C818 C814 1.397 . S
C818 C817 1.394 . S
C819 H791 0.982 . S
C819 H795 0.979 . S
C819 H796 0.977 . S
C819 C816 1.453 . S
C820 H792 0.979 . S
C820 H793 0.980 . S
C820 H794 0.983 . S
C820 C816 1.684 . S
H821 C839 0.948 . S
H822 C780 0.948 . S
H823 C798 0.979 . S
H824 C798 0.980 . S
H825 C798 0.983 . S
H826 C797 0.982 . S
H827 C797 0.979 . S
H828 C797 0.977 . S
H829 C799 0.948 . S
H830 C801 0.947 . S
H831 C802 0.948 . S
H832 C808 0.982 . S
H833 C808 0.979 . S
H834 C808 0.977 . S
H835 C809 0.979 . S
H836 C809 0.980 . S
H837 C809 0.983 . S
H838 C782 0.947 . S
C839 C782 1.392 . S
C839 C783 1.419 . S
C839 H821 0.948 . S
C840 C841 1.391 . S
C840 C844 1.391 . S
C840 H882 0.948 . S
C841 C840 1.391 . S
C841 C842 1.391 . S
C842 C841 1.391 . S
C842 H898 0.947 . S
C842 C899 1.392 . S
C843 C844 1.391 . S
C843 C847 1.397 . S
C843 C899 1.419 . S
C844 C840 1.391 . S
C844 C843 1.391 . S
C844 C845 1.399 . S
C845 C844 1.399 . S
C845 C848 1.396 . S
C845 C857 1.453 . S
C845 C858 1.684 . S
H846 C870 0.948 . S
C847 C843 1.397 . S
C847 C848 1.394 . S
C847 C866 1.723 . S
C848 C845 1.396 . S
C848 C847 1.394 . S
C848 C878 1.723 . S
H849 C872 0.947 . S
H850 C873 0.948 . S
H851 C879 0.982 . S
H852 C880 0.979 . S
H853 C880 0.980 . S
H854 C880 0.983 . S
H855 C879 0.979 . S
H856 C879 0.977 . S
C857 C845 1.453 . S
C857 H886 0.982 . S
C857 H887 0.979 . S
C857 H888 0.977 . S
C858 C845 1.684 . S
C858 H883 0.979 . S
C858 H884 0.980 . S
C858 H885 0.983 . S
C859 C860 1.391 . S
C859 C864 1.391 . S
C859 H889 0.948 . S
C860 C859 1.391 . S
C860 C861 1.391 . S
C861 C860 1.391 . S
C861 C862 1.392 . S
C861 H890 0.947 . S
C862 C861 1.392 . S
C862 C863 1.419 . S
C862 H891 0.948 . S
C863 C862 1.419 . S
C863 C864 1.391 . S
C863 C867 1.397 . S
C864 C859 1.391 . S
C864 C863 1.391 . S
C864 C865 1.399 . S
C865 C864 1.399 . S
C865 C866 1.396 . S
C865 C868 1.453 . S
C865 C869 1.684 . S
C866 C847 1.723 . S
C866 C865 1.396 . S
C866 C867 1.394 . S
C867 C863 1.397 . S
C867 C866 1.394 . S
C867 C877 1.723 . S
C868 C865 1.453 . S
C868 H892 0.982 . S
C868 H893 0.979 . S
C868 H894 0.977 . S
C869 C865 1.684 . S
C869 H895 0.979 . S
C869 H896 0.980 . S
C869 H897 0.983 . S
C870 H846 0.948 . S
C870 C871 1.391 . S
C870 C875 1.391 . S
C871 C870 1.391 . S
C871 C872 1.391 . S
C872 H849 0.947 . S
C872 C871 1.391 . S
C872 C873 1.392 . S
C873 H850 0.948 . S
C873 C872 1.392 . S
C873 C874 1.419 . S
C874 C873 1.419 . S
C874 C875 1.391 . S
C874 C878 1.397 . S
C875 C870 1.391 . S
C875 C874 1.391 . S
C875 C876 1.399 . S
C876 C875 1.399 . S
C876 C877 1.396 . S
C876 C879 1.453 . S
C876 C880 1.684 . S
C877 C867 1.723 . S
C877 C876 1.396 . S
C877 C878 1.394 . S
C878 C848 1.723 . S
C878 C874 1.397 . S
C878 C877 1.394 . S
C879 H851 0.982 . S
C879 H855 0.979 . S
C879 H856 0.977 . S
C879 C876 1.453 . S
C880 H852 0.979 . S
C880 H853 0.980 . S
C880 H854 0.983 . S
C880 C876 1.684 . S
H881 C899 0.948 . S
H882 C840 0.948 . S
H883 C858 0.979 . S
H884 C858 0.980 . S
H885 C858 0.983 . S
H886 C857 0.982 . S
H887 C857 0.979 . S
H888 C857 0.977 . S
H889 C859 0.948 . S
H890 C861 0.947 . S
H891 C862 0.948 . S
H892 C868 0.982 . S
H893 C868 0.979 . S
H894 C868 0.977 . S
H895 C869 0.979 . S
H896 C869 0.980 . S
H897 C869 0.983 . S
H898 C842 0.947 . S
C899 C842 1.392 . S
C899 C843 1.419 . S
C899 H881 0.948 . S
C900 C901 1.391 . S
C900 C904 1.391 . S
C900 H942 0.948 . S
C901 C900 1.391 . S
C901 C902 1.391 . S
C902 C901 1.391 . S
C902 H958 0.947 . S
C902 C959 1.392 . S
C903 C904 1.391 . S
C903 C907 1.397 . S
C903 C959 1.419 . S
C904 C900 1.391 . S
C904 C903 1.391 . S
C904 C905 1.399 . S
C905 C904 1.399 . S
C905 C908 1.396 . S
C905 C917 1.453 . S
C905 C918 1.684 . S
H906 C930 0.948 . S
C907 C903 1.397 . S
C907 C908 1.394 . S
C907 C926 1.723 . S
C908 C905 1.396 . S
C908 C907 1.394 . S
C908 C938 1.723 . S
H909 C932 0.947 . S
H910 C933 0.948 . S
H911 C939 0.982 . S
H912 C940 0.979 . S
H913 C940 0.980 . S
H914 C940 0.983 . S
H915 C939 0.979 . S
H916 C939 0.977 . S
C917 C905 1.453 . S
C917 H946 0.982 . S
C917 H947 0.979 . S
C917 H948 0.977 . S
C918 C905 1.684 . S
C918 H943 0.979 . S
C918 H944 0.980 . S
C918 H945 0.983 . S
C919 C920 1.391 . S
C919 C924 1.391 . S
C919 H949 0.948 . S
C920 C919 1.391 . S
C920 C921 1.391 . S
C921 C920 1.391 . S
C921 C922 1.392 . S
C921 H950 0.947 . S
C922 C921 1.392 . S
C922 C923 1.419 . S
C922 H951 0.948 . S
C923 C922 1.419 . S
C923 C924 1.391 . S
C923 C927 1.397 . S
C924 C919 1.391 . S
C924 C923 1.391 . S
C924 C925 1.399 . S
C925 C924 1.399 . S
C925 C926 1.396 . S
C925 C928 1.453 . S
C925 C929 1.684 . S
C926 C907 1.723 . S
C926 C925 1.396 . S
C926 C927 1.394 . S
C927 C923 1.397 . S
C927 C926 1.394 . S
C927 C937 1.723 . S
C928 C925 1.453 . S
C928 H952 0.982 . S
C928 H953 0.979 . S
C928 H954 0.977 . S
C929 C925 1.684 . S
C929 H955 0.979 . S
C929 H956 0.980 . S
C929 H957 0.983 . S
C930 H906 0.948 . S
C930 C931 1.391 . S
C930 C935 1.391 . S
C931 C930 1.391 . S
C931 C932 1.391 . S
C932 H909 0.947 . S
C932 C931 1.391 . S
C932 C933 1.392 . S
C933 H910 0.948 . S
C933 C932 1.392 . S
C933 C934 1.419 . S
C934 C933 1.419 . S
C934 C935 1.391 . S
C934 C938 1.397 . S
C935 C930 1.391 . S
C935 C934 1.391 . S
C935 C936 1.399 . S
C936 C935 1.399 . S
C936 C937 1.396 . S
C936 C939 1.453 . S
C936 C940 1.684 . S
C937 C927 1.723 . S
C937 C936 1.396 . S
C937 C938 1.394 . S
C938 C908 1.723 . S
C938 C934 1.397 . S
C938 C937 1.394 . S
C939 H911 0.982 . S
C939 H915 0.979 . S
C939 H916 0.977 . S
C939 C936 1.453 . S
C940 H912 0.979 . S
C940 H913 0.980 . S
C940 H914 0.983 . S
C940 C936 1.684 . S
H941 C959 0.948 . S
H942 C900 0.948 . S
H943 C918 0.979 . S
H944 C918 0.980 . S
H945 C918 0.983 . S
H946 C917 0.982 . S
H947 C917 0.979 . S
H948 C917 0.977 . S
H949 C919 0.948 . S
H950 C921 0.947 . S
H951 C922 0.948 . S
H952 C928 0.982 . S
H953 C928 0.979 . S
H954 C928 0.977 . S
H955 C929 0.979 . S
H956 C929 0.980 . S
H957 C929 0.983 . S
H958 C902 0.947 . S
C959 C902 1.392 . S
C959 C903 1.419 . S
C959 H941 0.948 . S
C960 C961 1.391 . S
C960 C964 1.391 . S
C960 H1002 0.948 . S
C961 C960 1.391 . S
C961 C962 1.391 . S
C962 C961 1.391 . S
C962 H1018 0.947 . S
C962 C1019 1.392 . S
C963 C964 1.391 . S
C963 C967 1.397 . S
C963 C1019 1.419 . S
C964 C960 1.391 . S
C964 C963 1.391 . S
C964 C965 1.399 . S
C965 C964 1.399 . S
C965 C968 1.396 . S
C965 C977 1.453 . S
C965 C978 1.684 . S
H966 C990 0.948 . S
C967 C963 1.397 . S
C967 C968 1.394 . S
C967 C986 1.723 . S
C968 C965 1.396 . S
C968 C967 1.394 . S
C968 C998 1.723 . S
H969 C992 0.947 . S
H970 C993 0.948 . S
H971 C999 0.982 . S
H972 C1000 0.979 . S
H973 C1000 0.980 . S
H974 C1000 0.983 . S
H975 C999 0.979 . S
H976 C999 0.977 . S
C977 C965 1.453 . S
C977 H1006 0.982 . S
C977 H1007 0.979 . S
C977 H1008 0.977 . S
C978 C965 1.684 . S
C978 H1003 0.979 . S
C978 H1004 0.980 . S
C978 H1005 0.983 . S
C979 C980 1.391 . S
C979 C984 1.391 . S
C979 H1009 0.948 . S
C980 C979 1.391 . S
C980 C981 1.391 . S
C981 C980 1.391 . S
C981 C982 1.392 . S
C981 H1010 0.947 . S
C982 C981 1.392 . S
C982 C983 1.419 . S
C982 H1011 0.948 . S
C983 C982 1.419 . S
C983 C984 1.391 . S
C983 C987 1.397 . S
C984 C979 1.391 . S
C984 C983 1.391 . S
C984 C985 1.399 . S
C985 C984 1.399 . S
C985 C986 1.396 . S
C985 C988 1.453 . S
C985 C989 1.684 . S
C986 C967 1.723 . S
C986 C985 1.396 . S
C986 C987 1.394 . S
C987 C983 1.397 . S
C987 C986 1.394 . S
C987 C997 1.723 . S
C988 C985 1.453 . S
C988 H1012 0.982 . S
C988 H1013 0.979 . S
C988 H1014 0.977 . S
C989 C985 1.684 . S
C989 H1015 0.979 . S
C989 H1016 0.980 . S
C989 H1017 0.983 . S
C990 H966 0.948 . S
C990 C991 1.391 . S
C990 C995 1.391 . S
C991 C990 1.391 . S
C991 C992 1.391 . S
C992 H969 0.947 . S
C992 C991 1.391 . S
C992 C993 1.392 . S
C993 H970 0.948 . S
C993 C992 1.392 . S
C993 C994 1.419 . S
C994 C993 1.419 . S
C994 C995 1.391 . S
C994 C998 1.397 . S
C995 C990 1.391 . S
C995 C994 1.391 . S
C995 C996 1.399 . S
C996 C995 1.399 . S
C996 C997 1.396 . S
C996 C999 1.453 . S
C996 C1000 1.684 . S
C997 C987 1.723 . S
C997 C996 1.396 . S
C997 C998 1.394 . S
C998 C968 1.723 . S
C998 C994 1.397 . S
C998 C997 1.394 . S
C999 H971 0.982 . S
C999 H975 0.979 . S
C999 H976 0.977 . S
C999 C996 1.453 . S
C1000 H972 0.979 . S
C1000 H973 0.980 . S
C1000 H974 0.983 . S
C1000 C996 1.684 . S
H1001 C1019 0.948 . S
H1002 C960 0.948 . S
H1003 C978 0.979 . S
H1004 C978 0.980 . S
H1005 C978 0.983 . S
H1006 C977 0.982 . S
H1007 C977 0.979 . S
H1008 C977 0.977 . S
H1009 C979 0.948 . S
H1010 C981 0.947 . S
H1011 C982 0.948 . S
H1012 C988 0.982 . S
H1013 C988 0.979 . S
H1014 C988 0.977 . S
H1015 C989 0.979 . S
H1016 C989 0.980 . S
H1017 C989 0.983 . S
H1018 C962 0.947 . S
C1019 C962 1.392 . S
C1019 C963 1.419 . S
C1019 H1001 0.948 . S
C1020 C1021 1.391 . S
C1020 C1024 1.391 . S
C1020 H1062 0.948 . S
C1021 C1020 1.391 . S
C1021 C1022 1.391 . S
C1022 C1021 1.391 . S
C1022 H1078 0.947 . S
C1022 C1079 1.392 . S
C1023 C1024 1.391 . S
C1023 C1027 1.397 . S
C1023 C1079 1.419 . S
C1024 C1020 1.391 . S
C1024 C1023 1.391 . S
C1024 C1025 1.399 . S
C1025 C1024 1.399 . S
C1025 C1028 1.396 . S
C1025 C1037 1.453 . S
C1025 C1038 1.684 . S
H1026 C1050 0.948 . S
C1027 C1023 1.397 . S
C1027 C1028 1.394 . S
C1027 C1046 1.723 . S
C1028 C1025 1.396 . S
C1028 C1027 1.394 . S
C1028 C1058 1.723 . S
H1029 C1052 0.947 . S
H1030 C1053 0.948 . S
H1031 C1059 0.982 . S
H1032 C1060 0.979 . S
H1033 C1060 0.980 . S
H1034 C1060 0.983 . S
H1035 C1059 0.979 . S
H1036 C1059 0.977 . S
C1037 C1025 1.453 . S
C1037 H1066 0.982 . S
C1037 H1067 0.979 . S
C1037 H1068 0.977 . S
C1038 C1025 1.684 . S
C1038 H1063 0.979 . S
C1038 H1064 0.980 . S
C1038 H1065 0.983 . S
C1039 C1040 1.391 . S
C1039 C1044 1.391 . S
C1039 H1069 0.948 . S
C1040 C1039 1.391 . S
C1040 C1041 1.391 . S
C1041 C1040 1.391 . S
C1041 C1042 1.392 . S
C1041 H1070 0.947 . S
C1042 C1041 1.392 . S
C1042 C1043 1.419 . S
C1042 H1071 0.948 . S
C1043 C1042 1.419 . S
C1043 C1044 1.391 . S
C1043 C1047 1.397 . S
C1044 C1039 1.391 . S
C1044 C1043 1.391 . S
C1044 C1045 1.399 . S
C1045 C1044 1.399 . S
C1045 C1046 1.396 . S
C1045 C1048 1.453 . S
C1045 C1049 1.684 . S
C1046 C1027 1.723 . S
C1046 C1045 1.396 . S
C1046 C1047 1.394 . S
C1047 C1043 1.397 . S
C1047 C1046 1.394 . S
C1047 C1057 1.723 . S
C1048 C1045 1.453 . S
C1048 H1072 0.982 . S
C1048 H1073 0.979 . S
C1048 H1074 0.977 . S
C1049 C1045 1.684 . S
C1049 H1075 0.979 . S
C1049 H1076 0.980 . S
C1049 H1077 0.983 . S
C1050 H1026 0.948 . S
C1050 C1051 1.391 . S
C1050 C1055 1.391 . S
C1051 C1050 1.391 . S
C1051 C1052 1.391 . S
C1052 H1029 0.947 . S
C1052 C1051 1.391 . S
C1052 C1053 1.392 . S
C1053 H1030 0.948 . S
C1053 C1052 1.392 . S
C1053 C1054 1.419 . S
C1054 C1053 1.419 . S
C1054 C1055 1.391 . S
C1054 C1058 1.397 . S
C1055 C1050 1.391 . S
C1055 C1054 1.391 . S
C1055 C1056 1.399 . S
C1056 C1055 1.399 . S
C1056 C1057 1.396 . S
C1056 C1059 1.453 . S
C1056 C1060 1.684 . S
C1057 C1047 1.723 . S
C1057 C1056 1.396 . S
C1057 C1058 1.394 . S
C1058 C1028 1.723 . S
C1058 C1054 1.397 . S
C1058 C1057 1.394 . S
C1059 H1031 0.982 . S
C1059 H1035 0.979 . S
C1059 H1036 0.977 . S
C1059 C1056 1.453 . S
C1060 H1032 0.979 . S
C1060 H1033 0.980 . S
C1060 H1034 0.983 . S
C1060 C1056 1.684 . S
H1061 C1079 0.948 . S
H1062 C1020 0.948 . S
H1063 C1038 0.979 . S
H1064 C1038 0.980 . S
H1065 C1038 0.983 . S
H1066 C1037 0.982 . S
H1067 C1037 0.979 . S
H1068 C1037 0.977 . S
H1069 C1039 0.948 . S
H1070 C1041 0.947 . S
H1071 C1042 0.948 . S
H1072 C1048 0.982 . S
H1073 C1048 0.979 . S
H1074 C1048 0.977 . S
H1075 C1049 0.979 . S
H1076 C1049 0.980 . S
H1077 C1049 0.983 . S
H1078 C1022 0.947 . S
C1079 C1022 1.392 . S
C1079 C1023 1.419 . S
C1079 H1061 0.948 . S
Tb1080 N1111 2.660 . S
Tb1080 N1118 2.600 . S
Tb1080 O1124 2.546 . S
Tb1080 O1125 2.610 1_565 S
Tb1080 O1127 2.320 1_565 S
Tb1080 O1128 2.552 1_565 S
Tb1080 O1129 2.413 . S
Tb1080 O1131 2.362 1_556 S
Tb1080 O1132 2.421 . S
Tb1080 C1144 2.833 . S
C1081 C1084 1.432 . S
C1081 C1085 1.414 . S
C1081 N1088 1.359 . S
C1082 C1084 1.417 . S
C1082 C1086 1.432 . S
C1082 C1094 1.410 . S
C1083 C1085 1.444 . S
C1083 C1086 1.317 . S
C1083 H1106 0.929 . S
C1084 C1081 1.432 . S
C1084 C1082 1.417 . S
C1084 N1092 1.360 . S
C1085 C1081 1.414 . S
C1085 C1083 1.444 . S
C1085 C1090 1.385 . S
C1086 C1082 1.432 . S
C1086 C1083 1.317 . S
C1086 H1098 0.930 . S
C1087 C1089 1.392 . S
C1087 C1090 1.370 . S
C1087 H1099 0.931 . S
N1088 C1081 1.359 . S
N1088 C1089 1.327 . S
N1088 Tb1091 2.600 . S
C1089 C1087 1.392 . S
C1089 N1088 1.327 . S
C1089 H1096 0.930 . S
C1090 C1085 1.385 . S
C1090 C1087 1.370 . S
C1090 H1109 0.930 . S
Tb1091 N1088 2.600 . S
Tb1091 N1092 2.660 . S
Tb1091 O1125 2.362 1_554 S
Tb1091 O1126 2.421 . S
Tb1091 O1130 2.546 . S
Tb1091 O1131 2.610 1_545 S
Tb1091 O1133 2.320 1_545 S
Tb1091 O1134 2.552 1_545 S
Tb1091 O1135 2.413 . S
Tb1091 C1155 2.833 . S
N1092 C1084 1.360 . S
N1092 Tb1091 2.660 . S
N1092 C1093 1.305 . S
C1093 N1092 1.305 . S
C1093 C1095 1.407 . S
C1093 H1100 0.930 . S
C1094 C1082 1.410 . S
C1094 C1095 1.345 . S
C1094 H1102 0.930 . S
C1095 C1093 1.407 . S
C1095 C1094 1.345 . S
C1095 H1097 0.930 . S
H1096 C1089 0.930 . S
H1097 C1095 0.930 . S
H1098 C1086 0.930 . S
H1099 C1087 0.931 . S
H1100 C1093 0.930 . S
H1101 C1115 0.930 . S
H1102 C1094 0.930 . S
H1103 C1121 0.930 . S
H1104 C1112 0.930 . S
H1105 C1119 0.931 . S
H1106 C1083 0.929 . S
H1107 C1113 0.930 . S
H1108 C1146 0.930 . S
H1109 C1090 0.930 . S
H1110 C1145 0.929 . S
N1111 Tb1080 2.660 . S
N1111 C1112 1.305 . S
N1111 C1116 1.360 . S
C1112 H1104 0.930 . S
C1112 N1111 1.305 . S
C1112 C1115 1.407 . S
C1113 H1107 0.930 . S
C1113 C1114 1.410 . S
C1113 C1115 1.345 . S
C1114 C1113 1.410 . S
C1114 C1116 1.417 . S
C1114 C1146 1.432 . S
C1115 H1101 0.930 . S
C1115 C1112 1.407 . S
C1115 C1113 1.345 . S
C1116 N1111 1.360 . S
C1116 C1114 1.417 . S
C1116 C1120 1.432 . S
H1117 C1122 0.930 . S
N1118 Tb1080 2.600 . S
N1118 C1120 1.359 . S
N1118 C1121 1.327 . S
C1119 H1105 0.931 . S
C1119 C1121 1.392 . S
C1119 C1122 1.370 . S
C1120 C1116 1.432 . S
C1120 N1118 1.359 . S
C1120 C1123 1.414 . S
C1121 H1103 0.930 . S
C1121 N1118 1.327 . S
C1121 C1119 1.392 . S
C1122 H1117 0.930 . S
C1122 C1119 1.370 . S
C1122 C1123 1.385 . S
C1123 C1120 1.414 . S
C1123 C1122 1.385 . S
C1123 C1145 1.444 . S
O1124 Tb1080 2.546 . S
O1124 C1144 1.251 . S
O1125 Tb1080 2.610 1_545 S
O1125 Tb1091 2.362 1_556 S
O1125 C1136 1.283 . S
O1126 Tb1091 2.421 . S
O1126 C1143 1.262 1_554 S
O1127 Tb1080 2.320 1_545 S
O1127 C1143 1.260 . S
O1128 Tb1080 2.552 1_545 S
O1128 C1136 1.243 . S
O1129 Tb1080 2.413 . S
O1129 C1144 1.256 . S
O1130 Tb1091 2.546 . S
O1130 C1155 1.251 . S
O1131 Tb1080 2.362 1_554 S
O1131 Tb1091 2.610 1_565 S
O1131 C1147 1.283 . S
O1132 Tb1080 2.421 . S
O1132 C1154 1.262 1_556 S
O1133 Tb1091 2.320 1_565 S
O1133 C1154 1.260 . S
O1134 Tb1091 2.552 1_565 S
O1134 C1147 1.243 . S
O1135 Tb1091 2.413 . S
O1135 C1155 1.256 . S
C1136 O1125 1.283 . S
C1136 O1128 1.243 . S
C1137 C1139 1.382 1_565 S
C1137 C1141 1.393 . S
C1137 C1144 1.500 . S
C1138 C1139 1.400 . S
C1138 C1140 1.384 1_545 S
C1139 C1137 1.382 1_545 S
C1139 C1138 1.400 . S
C1139 H1156 0.930 . S
C1140 C1138 1.384 1_565 S
C1140 C1142 1.392 . S
C1140 H1157 0.931 . S
C1141 C1137 1.393 . S
C1141 C1142 1.401 . S
C1141 H1158 0.930 . S
C1142 C1140 1.392 . S
C1142 C1141 1.401 . S
C1142 H1159 0.930 . S
C1143 O1126 1.262 1_556 S
C1143 O1127 1.260 . S
C1144 Tb1080 2.833 . S
C1144 O1124 1.251 . S
C1144 O1129 1.256 . S
C1144 C1137 1.500 . S
C1145 H1110 0.929 . S
C1145 C1123 1.444 . S
C1145 C1146 1.317 . S
C1146 H1108 0.930 . S
C1146 C1114 1.432 . S
C1146 C1145 1.317 . S
C1147 O1131 1.283 . S
C1147 O1134 1.243 . S
C1148 C1149 1.382 1_545 S
C1148 C1152 1.393 . S
C1148 C1155 1.500 . S
C1149 C1148 1.382 1_565 S
C1149 C1150 1.400 . S
C1149 H1160 0.930 . S
C1150 C1149 1.400 . S
C1150 C1151 1.384 1_565 S
C1151 C1150 1.384 1_545 S
C1151 C1153 1.392 . S
C1151 H1161 0.931 . S
C1152 C1148 1.393 . S
C1152 C1153 1.401 . S
C1152 H1162 0.930 . S
C1153 C1151 1.392 . S
C1153 C1152 1.401 . S
C1153 H1163 0.930 . S
C1154 O1132 1.262 1_554 S
C1154 O1133 1.260 . S
C1155 Tb1091 2.833 . S
C1155 O1130 1.251 . S
C1155 O1135 1.256 . S
C1155 C1148 1.500 . S
H1156 C1139 0.930 . S
H1157 C1140 0.931 . S
H1158 C1141 0.930 . S
H1159 C1142 0.930 . S
H1160 C1149 0.930 . S
H1161 C1151 0.931 . S
H1162 C1152 0.930 . S
H1163 C1153 0.930 . S
Tb1164 N1195 2.660 . S
Tb1164 N1202 2.600 . S
Tb1164 O1208 2.546 . S
Tb1164 O1209 2.610 1_455 S
Tb1164 O1211 2.320 1_455 S
Tb1164 O1212 2.552 1_455 S
Tb1164 O1213 2.413 . S
Tb1164 O1215 2.362 1_556 S
Tb1164 O1216 2.421 . S
Tb1164 C1228 2.833 . S
C1165 C1168 1.432 . S
C1165 C1169 1.414 . S
C1165 N1172 1.359 . S
C1166 C1168 1.417 . S
C1166 C1170 1.432 . S
C1166 C1178 1.410 . S
C1167 C1169 1.444 . S
C1167 C1170 1.317 . S
C1167 H1190 0.929 . S
C1168 C1165 1.432 . S
C1168 C1166 1.417 . S
C1168 N1176 1.360 . S
C1169 C1165 1.414 . S
C1169 C1167 1.444 . S
C1169 C1174 1.385 . S
C1170 C1166 1.432 . S
C1170 C1167 1.317 . S
C1170 H1182 0.930 . S
C1171 C1173 1.392 . S
C1171 C1174 1.370 . S
C1171 H1183 0.931 . S
N1172 C1165 1.359 . S
N1172 C1173 1.327 . S
N1172 Tb1175 2.600 . S
C1173 C1171 1.392 . S
C1173 N1172 1.327 . S
C1173 H1180 0.930 . S
C1174 C1169 1.385 . S
C1174 C1171 1.370 . S
C1174 H1193 0.930 . S
Tb1175 N1172 2.600 . S
Tb1175 N1176 2.660 . S
Tb1175 O1209 2.362 1_554 S
Tb1175 O1210 2.421 . S
Tb1175 O1214 2.546 . S
Tb1175 O1215 2.610 1_655 S
Tb1175 O1217 2.320 1_655 S
Tb1175 O1218 2.552 1_655 S
Tb1175 O1219 2.413 . S
Tb1175 C1239 2.833 . S
N1176 C1168 1.360 . S
N1176 Tb1175 2.660 . S
N1176 C1177 1.305 . S
C1177 N1176 1.305 . S
C1177 C1179 1.407 . S
C1177 H1184 0.930 . S
C1178 C1166 1.410 . S
C1178 C1179 1.345 . S
C1178 H1186 0.930 . S
C1179 C1177 1.407 . S
C1179 C1178 1.345 . S
C1179 H1181 0.930 . S
H1180 C1173 0.930 . S
H1181 C1179 0.930 . S
H1182 C1170 0.930 . S
H1183 C1171 0.931 . S
H1184 C1177 0.930 . S
H1185 C1199 0.930 . S
H1186 C1178 0.930 . S
H1187 C1205 0.930 . S
H1188 C1196 0.930 . S
H1189 C1203 0.931 . S
H1190 C1167 0.929 . S
H1191 C1197 0.930 . S
H1192 C1230 0.930 . S
H1193 C1174 0.930 . S
H1194 C1229 0.929 . S
N1195 Tb1164 2.660 . S
N1195 C1196 1.305 . S
N1195 C1200 1.360 . S
C1196 H1188 0.930 . S
C1196 N1195 1.305 . S
C1196 C1199 1.407 . S
C1197 H1191 0.930 . S
C1197 C1198 1.410 . S
C1197 C1199 1.345 . S
C1198 C1197 1.410 . S
C1198 C1200 1.417 . S
C1198 C1230 1.432 . S
C1199 H1185 0.930 . S
C1199 C1196 1.407 . S
C1199 C1197 1.345 . S
C1200 N1195 1.360 . S
C1200 C1198 1.417 . S
C1200 C1204 1.432 . S
H1201 C1206 0.930 . S
N1202 Tb1164 2.600 . S
N1202 C1204 1.359 . S
N1202 C1205 1.327 . S
C1203 H1189 0.931 . S
C1203 C1205 1.392 . S
C1203 C1206 1.370 . S
C1204 C1200 1.432 . S
C1204 N1202 1.359 . S
C1204 C1207 1.414 . S
C1205 H1187 0.930 . S
C1205 N1202 1.327 . S
C1205 C1203 1.392 . S
C1206 H1201 0.930 . S
C1206 C1203 1.370 . S
C1206 C1207 1.385 . S
C1207 C1204 1.414 . S
C1207 C1206 1.385 . S
C1207 C1229 1.444 . S
O1208 Tb1164 2.546 . S
O1208 C1228 1.251 . S
O1209 Tb1164 2.610 1_655 S
O1209 Tb1175 2.362 1_556 S
O1209 C1220 1.283 . S
O1210 Tb1175 2.421 . S
O1210 C1227 1.262 1_554 S
O1211 Tb1164 2.320 1_655 S
O1211 C1227 1.260 . S
O1212 Tb1164 2.552 1_655 S
O1212 C1220 1.243 . S
O1213 Tb1164 2.413 . S
O1213 C1228 1.256 . S
O1214 Tb1175 2.546 . S
O1214 C1239 1.251 . S
O1215 Tb1164 2.362 1_554 S
O1215 Tb1175 2.610 1_455 S
O1215 C1231 1.283 . S
O1216 Tb1164 2.421 . S
O1216 C1238 1.262 1_556 S
O1217 Tb1175 2.320 1_455 S
O1217 C1238 1.260 . S
O1218 Tb1175 2.552 1_455 S
O1218 C1231 1.243 . S
O1219 Tb1175 2.413 . S
O1219 C1239 1.256 . S
C1220 O1209 1.283 . S
C1220 O1212 1.243 . S
C1221 C1223 1.382 1_455 S
C1221 C1225 1.393 . S
C1221 C1228 1.500 . S
C1222 C1223 1.400 . S
C1222 C1224 1.384 1_655 S
C1223 C1221 1.382 1_655 S
C1223 C1222 1.400 . S
C1223 H1240 0.930 . S
C1224 C1222 1.384 1_455 S
C1224 C1226 1.392 . S
C1224 H1241 0.931 . S
C1225 C1221 1.393 . S
C1225 C1226 1.401 . S
C1225 H1242 0.930 . S
C1226 C1224 1.392 . S
C1226 C1225 1.401 . S
C1226 H1243 0.930 . S
C1227 O1210 1.262 1_556 S
C1227 O1211 1.260 . S
C1228 Tb1164 2.833 . S
C1228 O1208 1.251 . S
C1228 O1213 1.256 . S
C1228 C1221 1.500 . S
C1229 H1194 0.929 . S
C1229 C1207 1.444 . S
C1229 C1230 1.317 . S
C1230 H1192 0.930 . S
C1230 C1198 1.432 . S
C1230 C1229 1.317 . S
C1231 O1215 1.283 . S
C1231 O1218 1.243 . S
C1232 C1233 1.382 1_655 S
C1232 C1236 1.393 . S
C1232 C1239 1.500 . S
C1233 C1232 1.382 1_455 S
C1233 C1234 1.400 . S
C1233 H1244 0.930 . S
C1234 C1233 1.400 . S
C1234 C1235 1.384 1_455 S
C1235 C1234 1.384 1_655 S
C1235 C1237 1.392 . S
C1235 H1245 0.931 . S
C1236 C1232 1.393 . S
C1236 C1237 1.401 . S
C1236 H1246 0.930 . S
C1237 C1235 1.392 . S
C1237 C1236 1.401 . S
C1237 H1247 0.930 . S
C1238 O1216 1.262 1_554 S
C1238 O1217 1.260 . S
C1239 Tb1175 2.833 . S
C1239 O1214 1.251 . S
C1239 O1219 1.256 . S
C1239 C1232 1.500 . S
H1240 C1223 0.930 . S
H1241 C1224 0.931 . S
H1242 C1225 0.930 . S
H1243 C1226 0.930 . S
H1244 C1233 0.930 . S
H1245 C1235 0.931 . S
H1246 C1236 0.930 . S
H1247 C1237 0.930 . S
Tb1248 N1279 2.660 . S
Tb1248 N1286 2.600 . S
Tb1248 O1292 2.546 . S
Tb1248 O1293 2.610 . S
Tb1248 O1295 2.320 . S
Tb1248 O1296 2.552 . S
Tb1248 O1297 2.413 . S
Tb1248 O1299 2.362 1_554 S
Tb1248 O1300 2.421 . S
Tb1248 C1312 2.833 . S
C1249 C1252 1.432 . S
C1249 C1253 1.414 . S
C1249 N1256 1.359 . S
C1250 C1252 1.417 . S
C1250 C1254 1.432 . S
C1250 C1262 1.410 . S
C1251 C1253 1.444 . S
C1251 C1254 1.317 . S
C1251 H1274 0.929 . S
C1252 C1249 1.432 . S
C1252 C1250 1.417 . S
C1252 N1260 1.360 . S
C1253 C1249 1.414 . S
C1253 C1251 1.444 . S
C1253 C1258 1.385 . S
C1254 C1250 1.432 . S
C1254 C1251 1.317 . S
C1254 H1266 0.930 . S
C1255 C1257 1.392 . S
C1255 C1258 1.370 . S
C1255 H1267 0.931 . S
N1256 C1249 1.359 . S
N1256 C1257 1.327 . S
N1256 Tb1259 2.600 . S
C1257 C1255 1.392 . S
C1257 N1256 1.327 . S
C1257 H1264 0.930 . S
C1258 C1253 1.385 . S
C1258 C1255 1.370 . S
C1258 H1277 0.930 . S
Tb1259 N1256 2.600 . S
Tb1259 N1260 2.660 . S
Tb1259 O1293 2.362 1_556 S
Tb1259 O1294 2.421 . S
Tb1259 O1298 2.546 . S
Tb1259 O1299 2.610 . S
Tb1259 O1301 2.320 . S
Tb1259 O1302 2.552 . S
Tb1259 O1303 2.413 . S
Tb1259 C1323 2.833 . S
N1260 C1252 1.360 . S
N1260 Tb1259 2.660 . S
N1260 C1261 1.305 . S
C1261 N1260 1.305 . S
C1261 C1263 1.407 . S
C1261 H1268 0.930 . S
C1262 C1250 1.410 . S
C1262 C1263 1.345 . S
C1262 H1270 0.930 . S
C1263 C1261 1.407 . S
C1263 C1262 1.345 . S
C1263 H1265 0.930 . S
H1264 C1257 0.930 . S
H1265 C1263 0.930 . S
H1266 C1254 0.930 . S
H1267 C1255 0.931 . S
H1268 C1261 0.930 . S
H1269 C1283 0.930 . S
H1270 C1262 0.930 . S
H1271 C1289 0.930 . S
H1272 C1280 0.930 . S
H1273 C1287 0.931 . S
H1274 C1251 0.929 . S
H1275 C1281 0.930 . S
H1276 C1314 0.930 . S
H1277 C1258 0.930 . S
H1278 C1313 0.929 . S
N1279 Tb1248 2.660 . S
N1279 C1280 1.305 . S
N1279 C1284 1.360 . S
C1280 H1272 0.930 . S
C1280 N1279 1.305 . S
C1280 C1283 1.407 . S
C1281 H1275 0.930 . S
C1281 C1282 1.410 . S
C1281 C1283 1.345 . S
C1282 C1281 1.410 . S
C1282 C1284 1.417 . S
C1282 C1314 1.432 . S
C1283 H1269 0.930 . S
C1283 C1280 1.407 . S
C1283 C1281 1.345 . S
C1284 N1279 1.360 . S
C1284 C1282 1.417 . S
C1284 C1288 1.432 . S
H1285 C1290 0.930 . S
N1286 Tb1248 2.600 . S
N1286 C1288 1.359 . S
N1286 C1289 1.327 . S
C1287 H1273 0.931 . S
C1287 C1289 1.392 . S
C1287 C1290 1.370 . S
C1288 C1284 1.432 . S
C1288 N1286 1.359 . S
C1288 C1291 1.414 . S
C1289 H1271 0.930 . S
C1289 N1286 1.327 . S
C1289 C1287 1.392 . S
C1290 H1285 0.930 . S
C1290 C1287 1.370 . S
C1290 C1291 1.385 . S
C1291 C1288 1.414 . S
C1291 C1290 1.385 . S
C1291 C1313 1.444 . S
O1292 Tb1248 2.546 . S
O1292 C1312 1.251 . S
O1293 Tb1248 2.610 . S
O1293 Tb1259 2.362 1_554 S
O1293 C1304 1.283 . S
O1294 Tb1259 2.421 . S
O1294 C1311 1.262 1_556 S
O1295 Tb1248 2.320 . S
O1295 C1311 1.260 . S
O1296 Tb1248 2.552 . S
O1296 C1304 1.243 . S
O1297 Tb1248 2.413 . S
O1297 C1312 1.256 . S
O1298 Tb1259 2.546 . S
O1298 C1323 1.251 . S
O1299 Tb1248 2.362 1_556 S
O1299 Tb1259 2.610 . S
O1299 C1315 1.283 . S
O1300 Tb1248 2.421 . S
O1300 C1322 1.262 1_554 S
O1301 Tb1259 2.320 . S
O1301 C1322 1.260 . S
O1302 Tb1259 2.552 . S
O1302 C1315 1.243 . S
O1303 Tb1259 2.413 . S
O1303 C1323 1.256 . S
C1304 O1293 1.283 . S
C1304 O1296 1.243 . S
C1305 C1307 1.382 . S
C1305 C1309 1.393 . S
C1305 C1312 1.500 . S
C1306 C1307 1.400 . S
C1306 C1308 1.384 . S
C1307 C1305 1.382 . S
C1307 C1306 1.400 . S
C1307 H1324 0.930 . S
C1308 C1306 1.384 . S
C1308 C1310 1.392 . S
C1308 H1325 0.931 . S
C1309 C1305 1.393 . S
C1309 C1310 1.401 . S
C1309 H1326 0.930 . S
C1310 C1308 1.392 . S
C1310 C1309 1.401 . S
C1310 H1327 0.930 . S
C1311 O1294 1.262 1_554 S
C1311 O1295 1.260 . S
C1312 Tb1248 2.833 . S
C1312 O1292 1.251 . S
C1312 O1297 1.256 . S
C1312 C1305 1.500 . S
C1313 H1278 0.929 . S
C1313 C1291 1.444 . S
C1313 C1314 1.317 . S
C1314 H1276 0.930 . S
C1314 C1282 1.432 . S
C1314 C1313 1.317 . S
C1315 O1299 1.283 . S
C1315 O1302 1.243 . S
C1316 C1317 1.382 . S
C1316 C1320 1.393 . S
C1316 C1323 1.500 . S
C1317 C1316 1.382 . S
C1317 C1318 1.400 . S
C1317 H1328 0.930 . S
C1318 C1317 1.400 . S
C1318 C1319 1.384 . S
C1319 C1318 1.384 . S
C1319 C1321 1.392 . S
C1319 H1329 0.931 . S
C1320 C1316 1.393 . S
C1320 C1321 1.401 . S
C1320 H1330 0.930 . S
C1321 C1319 1.392 . S
C1321 C1320 1.401 . S
C1321 H1331 0.930 . S
C1322 O1300 1.262 1_556 S
C1322 O1301 1.260 . S
C1323 Tb1259 2.833 . S
C1323 O1298 1.251 . S
C1323 O1303 1.256 . S
C1323 C1316 1.500 . S
H1324 C1307 0.930 . S
H1325 C1308 0.931 . S
H1326 C1309 0.930 . S
H1327 C1310 0.930 . S
H1328 C1317 0.930 . S
H1329 C1319 0.931 . S
H1330 C1320 0.930 . S
H1331 C1321 0.930 . S
Tb1332 N1363 2.660 . S
Tb1332 N1370 2.600 . S
Tb1332 O1376 2.546 . S
Tb1332 O1377 2.610 . S
Tb1332 O1379 2.320 . S
Tb1332 O1380 2.552 . S
Tb1332 O1381 2.413 . S
Tb1332 O1383 2.362 . S
Tb1332 O1384 2.421 . S
Tb1332 C1396 2.833 . S
C1333 C1336 1.432 . S
C1333 C1337 1.414 . S
C1333 N1340 1.359 . S
C1334 C1336 1.417 . S
C1334 C1338 1.432 . S
C1334 C1346 1.410 . S
C1335 C1337 1.444 . S
C1335 C1338 1.317 . S
C1335 H1358 0.929 . S
C1336 C1333 1.432 . S
C1336 C1334 1.417 . S
C1336 N1344 1.360 . S
C1337 C1333 1.414 . S
C1337 C1335 1.444 . S
C1337 C1342 1.385 . S
C1338 C1334 1.432 . S
C1338 C1335 1.317 . S
C1338 H1350 0.930 . S
C1339 C1341 1.392 . S
C1339 C1342 1.370 . S
C1339 H1351 0.931 . S
N1340 C1333 1.359 . S
N1340 C1341 1.327 . S
N1340 Tb1343 2.600 . S
C1341 C1339 1.392 . S
C1341 N1340 1.327 . S
C1341 H1348 0.930 . S
C1342 C1337 1.385 . S
C1342 C1339 1.370 . S
C1342 H1361 0.930 . S
Tb1343 N1340 2.600 . S
Tb1343 N1344 2.660 . S
Tb1343 O1377 2.362 . S
Tb1343 O1378 2.421 . S
Tb1343 O1382 2.546 . S
Tb1343 O1383 2.610 . S
Tb1343 O1385 2.320 . S
Tb1343 O1386 2.552 . S
Tb1343 O1387 2.413 . S
Tb1343 C1407 2.833 . S
N1344 C1336 1.360 . S
N1344 Tb1343 2.660 . S
N1344 C1345 1.305 . S
C1345 N1344 1.305 . S
C1345 C1347 1.407 . S
C1345 H1352 0.930 . S
C1346 C1334 1.410 . S
C1346 C1347 1.345 . S
C1346 H1354 0.930 . S
C1347 C1345 1.407 . S
C1347 C1346 1.345 . S
C1347 H1349 0.930 . S
H1348 C1341 0.930 . S
H1349 C1347 0.930 . S
H1350 C1338 0.930 . S
H1351 C1339 0.931 . S
H1352 C1345 0.930 . S
H1353 C1367 0.930 . S
H1354 C1346 0.930 . S
H1355 C1373 0.930 . S
H1356 C1364 0.930 . S
H1357 C1371 0.931 . S
H1358 C1335 0.929 . S
H1359 C1365 0.930 . S
H1360 C1398 0.930 . S
H1361 C1342 0.930 . S
H1362 C1397 0.929 . S
N1363 Tb1332 2.660 . S
N1363 C1364 1.305 . S
N1363 C1368 1.360 . S
C1364 H1356 0.930 . S
C1364 N1363 1.305 . S
C1364 C1367 1.407 . S
C1365 H1359 0.930 . S
C1365 C1366 1.410 . S
C1365 C1367 1.345 . S
C1366 C1365 1.410 . S
C1366 C1368 1.417 . S
C1366 C1398 1.432 . S
C1367 H1353 0.930 . S
C1367 C1364 1.407 . S
C1367 C1365 1.345 . S
C1368 N1363 1.360 . S
C1368 C1366 1.417 . S
C1368 C1372 1.432 . S
H1369 C1374 0.930 . S
N1370 Tb1332 2.600 . S
N1370 C1372 1.359 . S
N1370 C1373 1.327 . S
C1371 H1357 0.931 . S
C1371 C1373 1.392 . S
C1371 C1374 1.370 . S
C1372 C1368 1.432 . S
C1372 N1370 1.359 . S
C1372 C1375 1.414 . S
C1373 H1355 0.930 . S
C1373 N1370 1.327 . S
C1373 C1371 1.392 . S
C1374 H1369 0.930 . S
C1374 C1371 1.370 . S
C1374 C1375 1.385 . S
C1375 C1372 1.414 . S
C1375 C1374 1.385 . S
C1375 C1397 1.444 . S
O1376 Tb1332 2.546 . S
O1376 C1396 1.251 . S
O1377 Tb1332 2.610 . S
O1377 Tb1343 2.362 . S
O1377 C1388 1.283 . S
O1378 Tb1343 2.421 . S
O1378 C1395 1.262 . S
O1379 Tb1332 2.320 . S
O1379 C1395 1.260 . S
O1380 Tb1332 2.552 . S
O1380 C1388 1.243 . S
O1381 Tb1332 2.413 . S
O1381 C1396 1.256 . S
O1382 Tb1343 2.546 . S
O1382 C1407 1.251 . S
O1383 Tb1332 2.362 . S
O1383 Tb1343 2.610 . S
O1383 C1399 1.283 . S
O1384 Tb1332 2.421 . S
O1384 C1406 1.262 . S
O1385 Tb1343 2.320 . S
O1385 C1406 1.260 . S
O1386 Tb1343 2.552 . S
O1386 C1399 1.243 . S
O1387 Tb1343 2.413 . S
O1387 C1407 1.256 . S
C1388 O1377 1.283 . S
C1388 O1380 1.243 . S
C1389 C1391 1.382 . S
C1389 C1393 1.393 . S
C1389 C1396 1.500 . S
C1390 C1391 1.400 . S
C1390 C1392 1.384 . S
C1391 C1389 1.382 . S
C1391 C1390 1.400 . S
C1391 H1408 0.930 . S
C1392 C1390 1.384 . S
C1392 C1394 1.392 . S
C1392 H1409 0.931 . S
C1393 C1389 1.393 . S
C1393 C1394 1.401 . S
C1393 H1410 0.930 . S
C1394 C1392 1.392 . S
C1394 C1393 1.401 . S
C1394 H1411 0.930 . S
C1395 O1378 1.262 . S
C1395 O1379 1.260 . S
C1396 Tb1332 2.833 . S
C1396 O1376 1.251 . S
C1396 O1381 1.256 . S
C1396 C1389 1.500 . S
C1397 H1362 0.929 . S
C1397 C1375 1.444 . S
C1397 C1398 1.317 . S
C1398 H1360 0.930 . S
C1398 C1366 1.432 . S
C1398 C1397 1.317 . S
C1399 O1383 1.283 . S
C1399 O1386 1.243 . S
C1400 C1401 1.382 . S
C1400 C1404 1.393 . S
C1400 C1407 1.500 . S
C1401 C1400 1.382 . S
C1401 C1402 1.400 . S
C1401 H1412 0.930 . S
C1402 C1401 1.400 . S
C1402 C1403 1.384 . S
C1403 C1402 1.384 . S
C1403 C1405 1.392 . S
C1403 H1413 0.931 . S
C1404 C1400 1.393 . S
C1404 C1405 1.401 . S
C1404 H1414 0.930 . S
C1405 C1403 1.392 . S
C1405 C1404 1.401 . S
C1405 H1415 0.930 . S
C1406 O1384 1.262 . S
C1406 O1385 1.260 . S
C1407 Tb1343 2.833 . S
C1407 O1382 1.251 . S
C1407 O1387 1.256 . S
C1407 C1400 1.500 . S
H1408 C1391 0.930 . S
H1409 C1392 0.931 . S
H1410 C1393 0.930 . S
H1411 C1394 0.930 . S
H1412 C1401 0.930 . S
H1413 C1403 0.931 . S
H1414 C1404 0.930 . S
H1415 C1405 0.930 . S
Tb1416 N1447 2.660 . S
Tb1416 N1454 2.600 . S
Tb1416 O1460 2.546 . S
Tb1416 O1461 2.610 . S
Tb1416 O1463 2.320 . S
Tb1416 O1464 2.552 . S
Tb1416 O1465 2.413 . S
Tb1416 O1467 2.362 . S
Tb1416 O1468 2.421 . S
Tb1416 C1480 2.833 . S
C1417 C1420 1.432 . S
C1417 C1421 1.414 . S
C1417 N1424 1.359 . S
C1418 C1420 1.417 . S
C1418 C1422 1.432 . S
C1418 C1430 1.410 . S
C1419 C1421 1.444 . S
C1419 C1422 1.317 . S
C1419 H1442 0.929 . S
C1420 C1417 1.432 . S
C1420 C1418 1.417 . S
C1420 N1428 1.360 . S
C1421 C1417 1.414 . S
C1421 C1419 1.444 . S
C1421 C1426 1.385 . S
C1422 C1418 1.432 . S
C1422 C1419 1.317 . S
C1422 H1434 0.930 . S
C1423 C1425 1.392 . S
C1423 C1426 1.370 . S
C1423 H1435 0.931 . S
N1424 C1417 1.359 . S
N1424 C1425 1.327 . S
N1424 Tb1427 2.600 . S
C1425 C1423 1.392 . S
C1425 N1424 1.327 . S
C1425 H1432 0.930 . S
C1426 C1421 1.385 . S
C1426 C1423 1.370 . S
C1426 H1445 0.930 . S
Tb1427 N1424 2.600 . S
Tb1427 N1428 2.660 . S
Tb1427 O1461 2.362 . S
Tb1427 O1462 2.421 . S
Tb1427 O1466 2.546 . S
Tb1427 O1467 2.610 . S
Tb1427 O1469 2.320 . S
Tb1427 O1470 2.552 . S
Tb1427 O1471 2.413 . S
Tb1427 C1491 2.833 . S
N1428 C1420 1.360 . S
N1428 Tb1427 2.660 . S
N1428 C1429 1.305 . S
C1429 N1428 1.305 . S
C1429 C1431 1.407 . S
C1429 H1436 0.930 . S
C1430 C1418 1.410 . S
C1430 C1431 1.345 . S
C1430 H1438 0.930 . S
C1431 C1429 1.407 . S
C1431 C1430 1.345 . S
C1431 H1433 0.930 . S
H1432 C1425 0.930 . S
H1433 C1431 0.930 . S
H1434 C1422 0.930 . S
H1435 C1423 0.931 . S
H1436 C1429 0.930 . S
H1437 C1451 0.930 . S
H1438 C1430 0.930 . S
H1439 C1457 0.930 . S
H1440 C1448 0.930 . S
H1441 C1455 0.931 . S
H1442 C1419 0.929 . S
H1443 C1449 0.930 . S
H1444 C1482 0.930 . S
H1445 C1426 0.930 . S
H1446 C1481 0.929 . S
N1447 Tb1416 2.660 . S
N1447 C1448 1.305 . S
N1447 C1452 1.360 . S
C1448 H1440 0.930 . S
C1448 N1447 1.305 . S
C1448 C1451 1.407 . S
C1449 H1443 0.930 . S
C1449 C1450 1.410 . S
C1449 C1451 1.345 . S
C1450 C1449 1.410 . S
C1450 C1452 1.417 . S
C1450 C1482 1.432 . S
C1451 H1437 0.930 . S
C1451 C1448 1.407 . S
C1451 C1449 1.345 . S
C1452 N1447 1.360 . S
C1452 C1450 1.417 . S
C1452 C1456 1.432 . S
H1453 C1458 0.930 . S
N1454 Tb1416 2.600 . S
N1454 C1456 1.359 . S
N1454 C1457 1.327 . S
C1455 H1441 0.931 . S
C1455 C1457 1.392 . S
C1455 C1458 1.370 . S
C1456 C1452 1.432 . S
C1456 N1454 1.359 . S
C1456 C1459 1.414 . S
C1457 H1439 0.930 . S
C1457 N1454 1.327 . S
C1457 C1455 1.392 . S
C1458 H1453 0.930 . S
C1458 C1455 1.370 . S
C1458 C1459 1.385 . S
C1459 C1456 1.414 . S
C1459 C1458 1.385 . S
C1459 C1481 1.444 . S
O1460 Tb1416 2.546 . S
O1460 C1480 1.251 . S
O1461 Tb1416 2.610 . S
O1461 Tb1427 2.362 . S
O1461 C1472 1.283 . S
O1462 Tb1427 2.421 . S
O1462 C1479 1.262 . S
O1463 Tb1416 2.320 . S
O1463 C1479 1.260 . S
O1464 Tb1416 2.552 . S
O1464 C1472 1.243 . S
O1465 Tb1416 2.413 . S
O1465 C1480 1.256 . S
O1466 Tb1427 2.546 . S
O1466 C1491 1.251 . S
O1467 Tb1416 2.362 . S
O1467 Tb1427 2.610 . S
O1467 C1483 1.283 . S
O1468 Tb1416 2.421 . S
O1468 C1490 1.262 . S
O1469 Tb1427 2.320 . S
O1469 C1490 1.260 . S
O1470 Tb1427 2.552 . S
O1470 C1483 1.243 . S
O1471 Tb1427 2.413 . S
O1471 C1491 1.256 . S
C1472 O1461 1.283 . S
C1472 O1464 1.243 . S
C1473 C1475 1.382 . S
C1473 C1477 1.393 . S
C1473 C1480 1.500 . S
C1474 C1475 1.400 . S
C1474 C1476 1.384 . S
C1475 C1473 1.382 . S
C1475 C1474 1.400 . S
C1475 H1492 0.930 . S
C1476 C1474 1.384 . S
C1476 C1478 1.392 . S
C1476 H1493 0.931 . S
C1477 C1473 1.393 . S
C1477 C1478 1.401 . S
C1477 H1494 0.930 . S
C1478 C1476 1.392 . S
C1478 C1477 1.401 . S
C1478 H1495 0.930 . S
C1479 O1462 1.262 . S
C1479 O1463 1.260 . S
C1480 Tb1416 2.833 . S
C1480 O1460 1.251 . S
C1480 O1465 1.256 . S
C1480 C1473 1.500 . S
C1481 H1446 0.929 . S
C1481 C1459 1.444 . S
C1481 C1482 1.317 . S
C1482 H1444 0.930 . S
C1482 C1450 1.432 . S
C1482 C1481 1.317 . S
C1483 O1467 1.283 . S
C1483 O1470 1.243 . S
C1484 C1485 1.382 . S
C1484 C1488 1.393 . S
C1484 C1491 1.500 . S
C1485 C1484 1.382 . S
C1485 C1486 1.400 . S
C1485 H1496 0.930 . S
C1486 C1485 1.400 . S
C1486 C1487 1.384 . S
C1487 C1486 1.384 . S
C1487 C1489 1.392 . S
C1487 H1497 0.931 . S
C1488 C1484 1.393 . S
C1488 C1489 1.401 . S
C1488 H1498 0.930 . S
C1489 C1487 1.392 . S
C1489 C1488 1.401 . S
C1489 H1499 0.930 . S
C1490 O1468 1.262 . S
C1490 O1469 1.260 . S
C1491 Tb1427 2.833 . S
C1491 O1466 1.251 . S
C1491 O1471 1.256 . S
C1491 C1484 1.500 . S
H1492 C1475 0.930 . S
H1493 C1476 0.931 . S
H1494 C1477 0.930 . S
H1495 C1478 0.930 . S
H1496 C1485 0.930 . S
H1497 C1487 0.931 . S
H1498 C1488 0.930 . S
H1499 C1489 0.930 . S
Tb1500 N1531 2.660 . S
Tb1500 N1538 2.600 . S
Tb1500 O1544 2.546 . S
Tb1500 O1545 2.610 . S
Tb1500 O1547 2.320 . S
Tb1500 O1548 2.552 . S
Tb1500 O1549 2.413 . S
Tb1500 O1551 2.362 . S
Tb1500 O1552 2.421 . S
Tb1500 C1564 2.833 . S
C1501 C1504 1.432 . S
C1501 C1505 1.414 . S
C1501 N1508 1.359 . S
C1502 C1504 1.417 . S
C1502 C1506 1.432 . S
C1502 C1514 1.410 . S
C1503 C1505 1.444 . S
C1503 C1506 1.317 . S
C1503 H1526 0.929 . S
C1504 C1501 1.432 . S
C1504 C1502 1.417 . S
C1504 N1512 1.360 . S
C1505 C1501 1.414 . S
C1505 C1503 1.444 . S
C1505 C1510 1.385 . S
C1506 C1502 1.432 . S
C1506 C1503 1.317 . S
C1506 H1518 0.930 . S
C1507 C1509 1.392 . S
C1507 C1510 1.370 . S
C1507 H1519 0.931 . S
N1508 C1501 1.359 . S
N1508 C1509 1.327 . S
N1508 Tb1511 2.600 . S
C1509 C1507 1.392 . S
C1509 N1508 1.327 . S
C1509 H1516 0.930 . S
C1510 C1505 1.385 . S
C1510 C1507 1.370 . S
C1510 H1529 0.930 . S
Tb1511 N1508 2.600 . S
Tb1511 N1512 2.660 . S
Tb1511 O1545 2.362 . S
Tb1511 O1546 2.421 . S
Tb1511 O1550 2.546 . S
Tb1511 O1551 2.610 . S
Tb1511 O1553 2.320 . S
Tb1511 O1554 2.552 . S
Tb1511 O1555 2.413 . S
Tb1511 C1575 2.833 . S
N1512 C1504 1.360 . S
N1512 Tb1511 2.660 . S
N1512 C1513 1.305 . S
C1513 N1512 1.305 . S
C1513 C1515 1.407 . S
C1513 H1520 0.930 . S
C1514 C1502 1.410 . S
C1514 C1515 1.345 . S
C1514 H1522 0.930 . S
C1515 C1513 1.407 . S
C1515 C1514 1.345 . S
C1515 H1517 0.930 . S
H1516 C1509 0.930 . S
H1517 C1515 0.930 . S
H1518 C1506 0.930 . S
H1519 C1507 0.931 . S
H1520 C1513 0.930 . S
H1521 C1535 0.930 . S
H1522 C1514 0.930 . S
H1523 C1541 0.930 . S
H1524 C1532 0.930 . S
H1525 C1539 0.931 . S
H1526 C1503 0.929 . S
H1527 C1533 0.930 . S
H1528 C1566 0.930 . S
H1529 C1510 0.930 . S
H1530 C1565 0.929 . S
N1531 Tb1500 2.660 . S
N1531 C1532 1.305 . S
N1531 C1536 1.360 . S
C1532 H1524 0.930 . S
C1532 N1531 1.305 . S
C1532 C1535 1.407 . S
C1533 H1527 0.930 . S
C1533 C1534 1.410 . S
C1533 C1535 1.345 . S
C1534 C1533 1.410 . S
C1534 C1536 1.417 . S
C1534 C1566 1.432 . S
C1535 H1521 0.930 . S
C1535 C1532 1.407 . S
C1535 C1533 1.345 . S
C1536 N1531 1.360 . S
C1536 C1534 1.417 . S
C1536 C1540 1.432 . S
H1537 C1542 0.930 . S
N1538 Tb1500 2.600 . S
N1538 C1540 1.359 . S
N1538 C1541 1.327 . S
C1539 H1525 0.931 . S
C1539 C1541 1.392 . S
C1539 C1542 1.370 . S
C1540 C1536 1.432 . S
C1540 N1538 1.359 . S
C1540 C1543 1.414 . S
C1541 H1523 0.930 . S
C1541 N1538 1.327 . S
C1541 C1539 1.392 . S
C1542 H1537 0.930 . S
C1542 C1539 1.370 . S
C1542 C1543 1.385 . S
C1543 C1540 1.414 . S
C1543 C1542 1.385 . S
C1543 C1565 1.444 . S
O1544 Tb1500 2.546 . S
O1544 C1564 1.251 . S
O1545 Tb1500 2.610 . S
O1545 Tb1511 2.362 . S
O1545 C1556 1.283 . S
O1546 Tb1511 2.421 . S
O1546 C1563 1.262 . S
O1547 Tb1500 2.320 . S
O1547 C1563 1.260 . S
O1548 Tb1500 2.552 . S
O1548 C1556 1.243 . S
O1549 Tb1500 2.413 . S
O1549 C1564 1.256 . S
O1550 Tb1511 2.546 . S
O1550 C1575 1.251 . S
O1551 Tb1500 2.362 . S
O1551 Tb1511 2.610 . S
O1551 C1567 1.283 . S
O1552 Tb1500 2.421 . S
O1552 C1574 1.262 . S
O1553 Tb1511 2.320 . S
O1553 C1574 1.260 . S
O1554 Tb1511 2.552 . S
O1554 C1567 1.243 . S
O1555 Tb1511 2.413 . S
O1555 C1575 1.256 . S
C1556 O1545 1.283 . S
C1556 O1548 1.243 . S
C1557 C1559 1.382 . S
C1557 C1561 1.393 . S
C1557 C1564 1.500 . S
C1558 C1559 1.400 . S
C1558 C1560 1.384 . S
C1559 C1557 1.382 . S
C1559 C1558 1.400 . S
C1559 H1576 0.930 . S
C1560 C1558 1.384 . S
C1560 C1562 1.392 . S
C1560 H1577 0.931 . S
C1561 C1557 1.393 . S
C1561 C1562 1.401 . S
C1561 H1578 0.930 . S
C1562 C1560 1.392 . S
C1562 C1561 1.401 . S
C1562 H1579 0.930 . S
C1563 O1546 1.262 . S
C1563 O1547 1.260 . S
C1564 Tb1500 2.833 . S
C1564 O1544 1.251 . S
C1564 O1549 1.256 . S
C1564 C1557 1.500 . S
C1565 H1530 0.929 . S
C1565 C1543 1.444 . S
C1565 C1566 1.317 . S
C1566 H1528 0.930 . S
C1566 C1534 1.432 . S
C1566 C1565 1.317 . S
C1567 O1551 1.283 . S
C1567 O1554 1.243 . S
C1568 C1569 1.382 . S
C1568 C1572 1.393 . S
C1568 C1575 1.500 . S
C1569 C1568 1.382 . S
C1569 C1570 1.400 . S
C1569 H1580 0.930 . S
C1570 C1569 1.400 . S
C1570 C1571 1.384 . S
C1571 C1570 1.384 . S
C1571 C1573 1.392 . S
C1571 H1581 0.931 . S
C1572 C1568 1.393 . S
C1572 C1573 1.401 . S
C1572 H1582 0.930 . S
C1573 C1571 1.392 . S
C1573 C1572 1.401 . S
C1573 H1583 0.930 . S
C1574 O1552 1.262 . S
C1574 O1553 1.260 . S
C1575 Tb1511 2.833 . S
C1575 O1550 1.251 . S
C1575 O1555 1.256 . S
C1575 C1568 1.500 . S
H1576 C1559 0.930 . S
H1577 C1560 0.931 . S
H1578 C1561 0.930 . S
H1579 C1562 0.930 . S
H1580 C1569 0.930 . S
H1581 C1571 0.931 . S
H1582 C1572 0.930 . S
H1583 C1573 0.930 . S
Tb1584 N1615 2.660 . S
Tb1584 N1622 2.600 . S
Tb1584 O1628 2.546 . S
Tb1584 O1629 2.610 . S
Tb1584 O1631 2.320 . S
Tb1584 O1632 2.552 . S
Tb1584 O1633 2.413 . S
Tb1584 O1635 2.362 . S
Tb1584 O1636 2.421 . S
Tb1584 C1648 2.833 . S
C1585 C1588 1.432 . S
C1585 C1589 1.414 . S
C1585 N1592 1.359 . S
C1586 C1588 1.417 . S
C1586 C1590 1.432 . S
C1586 C1598 1.410 . S
C1587 C1589 1.444 . S
C1587 C1590 1.317 . S
C1587 H1610 0.929 . S
C1588 C1585 1.432 . S
C1588 C1586 1.417 . S
C1588 N1596 1.360 . S
C1589 C1585 1.414 . S
C1589 C1587 1.444 . S
C1589 C1594 1.385 . S
C1590 C1586 1.432 . S
C1590 C1587 1.317 . S
C1590 H1602 0.930 . S
C1591 C1593 1.392 . S
C1591 C1594 1.370 . S
C1591 H1603 0.931 . S
N1592 C1585 1.359 . S
N1592 C1593 1.327 . S
N1592 Tb1595 2.600 . S
C1593 C1591 1.392 . S
C1593 N1592 1.327 . S
C1593 H1600 0.930 . S
C1594 C1589 1.385 . S
C1594 C1591 1.370 . S
C1594 H1613 0.930 . S
Tb1595 N1592 2.600 . S
Tb1595 N1596 2.660 . S
Tb1595 O1629 2.362 . S
Tb1595 O1630 2.421 . S
Tb1595 O1634 2.546 . S
Tb1595 O1635 2.610 . S
Tb1595 O1637 2.320 . S
Tb1595 O1638 2.552 . S
Tb1595 O1639 2.413 . S
Tb1595 C1659 2.833 . S
N1596 C1588 1.360 . S
N1596 Tb1595 2.660 . S
N1596 C1597 1.305 . S
C1597 N1596 1.305 . S
C1597 C1599 1.407 . S
C1597 H1604 0.930 . S
C1598 C1586 1.410 . S
C1598 C1599 1.345 . S
C1598 H1606 0.930 . S
C1599 C1597 1.407 . S
C1599 C1598 1.345 . S
C1599 H1601 0.930 . S
H1600 C1593 0.930 . S
H1601 C1599 0.930 . S
H1602 C1590 0.930 . S
H1603 C1591 0.931 . S
H1604 C1597 0.930 . S
H1605 C1619 0.930 . S
H1606 C1598 0.930 . S
H1607 C1625 0.930 . S
H1608 C1616 0.930 . S
H1609 C1623 0.931 . S
H1610 C1587 0.929 . S
H1611 C1617 0.930 . S
H1612 C1650 0.930 . S
H1613 C1594 0.930 . S
H1614 C1649 0.929 . S
N1615 Tb1584 2.660 . S
N1615 C1616 1.305 . S
N1615 C1620 1.360 . S
C1616 H1608 0.930 . S
C1616 N1615 1.305 . S
C1616 C1619 1.407 . S
C1617 H1611 0.930 . S
C1617 C1618 1.410 . S
C1617 C1619 1.345 . S
C1618 C1617 1.410 . S
C1618 C1620 1.417 . S
C1618 C1650 1.432 . S
C1619 H1605 0.930 . S
C1619 C1616 1.407 . S
C1619 C1617 1.345 . S
C1620 N1615 1.360 . S
C1620 C1618 1.417 . S
C1620 C1624 1.432 . S
H1621 C1626 0.930 . S
N1622 Tb1584 2.600 . S
N1622 C1624 1.359 . S
N1622 C1625 1.327 . S
C1623 H1609 0.931 . S
C1623 C1625 1.392 . S
C1623 C1626 1.370 . S
C1624 C1620 1.432 . S
C1624 N1622 1.359 . S
C1624 C1627 1.414 . S
C1625 H1607 0.930 . S
C1625 N1622 1.327 . S
C1625 C1623 1.392 . S
C1626 H1621 0.930 . S
C1626 C1623 1.370 . S
C1626 C1627 1.385 . S
C1627 C1624 1.414 . S
C1627 C1626 1.385 . S
C1627 C1649 1.444 . S
O1628 Tb1584 2.546 . S
O1628 C1648 1.251 . S
O1629 Tb1584 2.610 . S
O1629 Tb1595 2.362 . S
O1629 C1640 1.283 . S
O1630 Tb1595 2.421 . S
O1630 C1647 1.262 . S
O1631 Tb1584 2.320 . S
O1631 C1647 1.260 . S
O1632 Tb1584 2.552 . S
O1632 C1640 1.243 . S
O1633 Tb1584 2.413 . S
O1633 C1648 1.256 . S
O1634 Tb1595 2.546 . S
O1634 C1659 1.251 . S
O1635 Tb1584 2.362 . S
O1635 Tb1595 2.610 . S
O1635 C1651 1.283 . S
O1636 Tb1584 2.421 . S
O1636 C1658 1.262 . S
O1637 Tb1595 2.320 . S
O1637 C1658 1.260 . S
O1638 Tb1595 2.552 . S
O1638 C1651 1.243 . S
O1639 Tb1595 2.413 . S
O1639 C1659 1.256 . S
C1640 O1629 1.283 . S
C1640 O1632 1.243 . S
C1641 C1643 1.382 . S
C1641 C1645 1.393 . S
C1641 C1648 1.500 . S
C1642 C1643 1.400 . S
C1642 C1644 1.384 . S
C1643 C1641 1.382 . S
C1643 C1642 1.400 . S
C1643 H1660 0.930 . S
C1644 C1642 1.384 . S
C1644 C1646 1.392 . S
C1644 H1661 0.931 . S
C1645 C1641 1.393 . S
C1645 C1646 1.401 . S
C1645 H1662 0.930 . S
C1646 C1644 1.392 . S
C1646 C1645 1.401 . S
C1646 H1663 0.930 . S
C1647 O1630 1.262 . S
C1647 O1631 1.260 . S
C1648 Tb1584 2.833 . S
C1648 O1628 1.251 . S
C1648 O1633 1.256 . S
C1648 C1641 1.500 . S
C1649 H1614 0.929 . S
C1649 C1627 1.444 . S
C1649 C1650 1.317 . S
C1650 H1612 0.930 . S
C1650 C1618 1.432 . S
C1650 C1649 1.317 . S
C1651 O1635 1.283 . S
C1651 O1638 1.243 . S
C1652 C1653 1.382 . S
C1652 C1656 1.393 . S
C1652 C1659 1.500 . S
C1653 C1652 1.382 . S
C1653 C1654 1.400 . S
C1653 H1664 0.930 . S
C1654 C1653 1.400 . S
C1654 C1655 1.384 . S
C1655 C1654 1.384 . S
C1655 C1657 1.392 . S
C1655 H1665 0.931 . S
C1656 C1652 1.393 . S
C1656 C1657 1.401 . S
C1656 H1666 0.930 . S
C1657 C1655 1.392 . S
C1657 C1656 1.401 . S
C1657 H1667 0.930 . S
C1658 O1636 1.262 . S
C1658 O1637 1.260 . S
C1659 Tb1595 2.833 . S
C1659 O1634 1.251 . S
C1659 O1639 1.256 . S
C1659 C1652 1.500 . S
H1660 C1643 0.930 . S
H1661 C1644 0.931 . S
H1662 C1645 0.930 . S
H1663 C1646 0.930 . S
H1664 C1653 0.930 . S
H1665 C1655 0.931 . S
H1666 C1656 0.930 . S
H1667 C1657 0.930 . S
Tb1668 N1699 2.660 . S
Tb1668 N1706 2.600 . S
Tb1668 O1712 2.546 . S
Tb1668 O1713 2.610 . S
Tb1668 O1715 2.320 . S
Tb1668 O1716 2.552 . S
Tb1668 O1717 2.413 . S
Tb1668 O1719 2.362 . S
Tb1668 O1720 2.421 . S
Tb1668 C1732 2.833 . S
C1669 C1672 1.432 . S
C1669 C1673 1.414 . S
C1669 N1676 1.359 . S
C1670 C1672 1.417 . S
C1670 C1674 1.432 . S
C1670 C1682 1.410 . S
C1671 C1673 1.444 . S
C1671 C1674 1.317 . S
C1671 H1694 0.929 . S
C1672 C1669 1.432 . S
C1672 C1670 1.417 . S
C1672 N1680 1.360 . S
C1673 C1669 1.414 . S
C1673 C1671 1.444 . S
C1673 C1678 1.385 . S
C1674 C1670 1.432 . S
C1674 C1671 1.317 . S
C1674 H1686 0.930 . S
C1675 C1677 1.392 . S
C1675 C1678 1.370 . S
C1675 H1687 0.931 . S
N1676 C1669 1.359 . S
N1676 C1677 1.327 . S
N1676 Tb1679 2.600 . S
C1677 C1675 1.392 . S
C1677 N1676 1.327 . S
C1677 H1684 0.930 . S
C1678 C1673 1.385 . S
C1678 C1675 1.370 . S
C1678 H1697 0.930 . S
Tb1679 N1676 2.600 . S
Tb1679 N1680 2.660 . S
Tb1679 O1713 2.362 . S
Tb1679 O1714 2.421 . S
Tb1679 O1718 2.546 . S
Tb1679 O1719 2.610 . S
Tb1679 O1721 2.320 . S
Tb1679 O1722 2.552 . S
Tb1679 O1723 2.413 . S
Tb1679 C1743 2.833 . S
N1680 C1672 1.360 . S
N1680 Tb1679 2.660 . S
N1680 C1681 1.305 . S
C1681 N1680 1.305 . S
C1681 C1683 1.407 . S
C1681 H1688 0.930 . S
C1682 C1670 1.410 . S
C1682 C1683 1.345 . S
C1682 H1690 0.930 . S
C1683 C1681 1.407 . S
C1683 C1682 1.345 . S
C1683 H1685 0.930 . S
H1684 C1677 0.930 . S
H1685 C1683 0.930 . S
H1686 C1674 0.930 . S
H1687 C1675 0.931 . S
H1688 C1681 0.930 . S
H1689 C1703 0.930 . S
H1690 C1682 0.930 . S
H1691 C1709 0.930 . S
H1692 C1700 0.930 . S
H1693 C1707 0.931 . S
H1694 C1671 0.929 . S
H1695 C1701 0.930 . S
H1696 C1734 0.930 . S
H1697 C1678 0.930 . S
H1698 C1733 0.929 . S
N1699 Tb1668 2.660 . S
N1699 C1700 1.305 . S
N1699 C1704 1.360 . S
C1700 H1692 0.930 . S
C1700 N1699 1.305 . S
C1700 C1703 1.407 . S
C1701 H1695 0.930 . S
C1701 C1702 1.410 . S
C1701 C1703 1.345 . S
C1702 C1701 1.410 . S
C1702 C1704 1.417 . S
C1702 C1734 1.432 . S
C1703 H1689 0.930 . S
C1703 C1700 1.407 . S
C1703 C1701 1.345 . S
C1704 N1699 1.360 . S
C1704 C1702 1.417 . S
C1704 C1708 1.432 . S
H1705 C1710 0.930 . S
N1706 Tb1668 2.600 . S
N1706 C1708 1.359 . S
N1706 C1709 1.327 . S
C1707 H1693 0.931 . S
C1707 C1709 1.392 . S
C1707 C1710 1.370 . S
C1708 C1704 1.432 . S
C1708 N1706 1.359 . S
C1708 C1711 1.414 . S
C1709 H1691 0.930 . S
C1709 N1706 1.327 . S
C1709 C1707 1.392 . S
C1710 H1705 0.930 . S
C1710 C1707 1.370 . S
C1710 C1711 1.385 . S
C1711 C1708 1.414 . S
C1711 C1710 1.385 . S
C1711 C1733 1.444 . S
O1712 Tb1668 2.546 . S
O1712 C1732 1.251 . S
O1713 Tb1668 2.610 . S
O1713 Tb1679 2.362 . S
O1713 C1724 1.283 . S
O1714 Tb1679 2.421 . S
O1714 C1731 1.262 . S
O1715 Tb1668 2.320 . S
O1715 C1731 1.260 . S
O1716 Tb1668 2.552 . S
O1716 C1724 1.243 . S
O1717 Tb1668 2.413 . S
O1717 C1732 1.256 . S
O1718 Tb1679 2.546 . S
O1718 C1743 1.251 . S
O1719 Tb1668 2.362 . S
O1719 Tb1679 2.610 . S
O1719 C1735 1.283 . S
O1720 Tb1668 2.421 . S
O1720 C1742 1.262 . S
O1721 Tb1679 2.320 . S
O1721 C1742 1.260 . S
O1722 Tb1679 2.552 . S
O1722 C1735 1.243 . S
O1723 Tb1679 2.413 . S
O1723 C1743 1.256 . S
C1724 O1713 1.283 . S
C1724 O1716 1.243 . S
C1725 C1727 1.382 . S
C1725 C1729 1.393 . S
C1725 C1732 1.500 . S
C1726 C1727 1.400 . S
C1726 C1728 1.384 . S
C1727 C1725 1.382 . S
C1727 C1726 1.400 . S
C1727 H1744 0.930 . S
C1728 C1726 1.384 . S
C1728 C1730 1.392 . S
C1728 H1745 0.931 . S
C1729 C1725 1.393 . S
C1729 C1730 1.401 . S
C1729 H1746 0.930 . S
C1730 C1728 1.392 . S
C1730 C1729 1.401 . S
C1730 H1747 0.930 . S
C1731 O1714 1.262 . S
C1731 O1715 1.260 . S
C1732 Tb1668 2.833 . S
C1732 O1712 1.251 . S
C1732 O1717 1.256 . S
C1732 C1725 1.500 . S
C1733 H1698 0.929 . S
C1733 C1711 1.444 . S
C1733 C1734 1.317 . S
C1734 H1696 0.930 . S
C1734 C1702 1.432 . S
C1734 C1733 1.317 . S
C1735 O1719 1.283 . S
C1735 O1722 1.243 . S
C1736 C1737 1.382 . S
C1736 C1740 1.393 . S
C1736 C1743 1.500 . S
C1737 C1736 1.382 . S
C1737 C1738 1.400 . S
C1737 H1748 0.930 . S
C1738 C1737 1.400 . S
C1738 C1739 1.384 . S
C1739 C1738 1.384 . S
C1739 C1741 1.392 . S
C1739 H1749 0.931 . S
C1740 C1736 1.393 . S
C1740 C1741 1.401 . S
C1740 H1750 0.930 . S
C1741 C1739 1.392 . S
C1741 C1740 1.401 . S
C1741 H1751 0.930 . S
C1742 O1720 1.262 . S
C1742 O1721 1.260 . S
C1743 Tb1679 2.833 . S
C1743 O1718 1.251 . S
C1743 O1723 1.256 . S
C1743 C1736 1.500 . S
H1744 C1727 0.930 . S
H1745 C1728 0.931 . S
H1746 C1729 0.930 . S
H1747 C1730 0.930 . S
H1748 C1737 0.930 . S
H1749 C1739 0.931 . S
H1750 C1740 0.930 . S
H1751 C1741 0.930 . S
Tb1752 N1783 2.660 . S
Tb1752 N1790 2.600 . S
Tb1752 O1796 2.546 . S
Tb1752 O1797 2.610 . S
Tb1752 O1799 2.320 . S
Tb1752 O1800 2.552 . S
Tb1752 O1801 2.413 . S
Tb1752 O1803 2.362 . S
Tb1752 O1804 2.421 . S
Tb1752 C1816 2.833 . S
C1753 C1756 1.432 . S
C1753 C1757 1.414 . S
C1753 N1760 1.359 . S
C1754 C1756 1.417 . S
C1754 C1758 1.432 . S
C1754 C1766 1.410 . S
C1755 C1757 1.444 . S
C1755 C1758 1.317 . S
C1755 H1778 0.929 . S
C1756 C1753 1.432 . S
C1756 C1754 1.417 . S
C1756 N1764 1.360 . S
C1757 C1753 1.414 . S
C1757 C1755 1.444 . S
C1757 C1762 1.385 . S
C1758 C1754 1.432 . S
C1758 C1755 1.317 . S
C1758 H1770 0.930 . S
C1759 C1761 1.392 . S
C1759 C1762 1.370 . S
C1759 H1771 0.931 . S
N1760 C1753 1.359 . S
N1760 C1761 1.327 . S
N1760 Tb1763 2.600 . S
C1761 C1759 1.392 . S
C1761 N1760 1.327 . S
C1761 H1768 0.930 . S
C1762 C1757 1.385 . S
C1762 C1759 1.370 . S
C1762 H1781 0.930 . S
Tb1763 N1760 2.600 . S
Tb1763 N1764 2.660 . S
Tb1763 O1797 2.362 . S
Tb1763 O1798 2.421 . S
Tb1763 O1802 2.546 . S
Tb1763 O1803 2.610 . S
Tb1763 O1805 2.320 . S
Tb1763 O1806 2.552 . S
Tb1763 O1807 2.413 . S
Tb1763 C1827 2.833 . S
N1764 C1756 1.360 . S
N1764 Tb1763 2.660 . S
N1764 C1765 1.305 . S
C1765 N1764 1.305 . S
C1765 C1767 1.407 . S
C1765 H1772 0.930 . S
C1766 C1754 1.410 . S
C1766 C1767 1.345 . S
C1766 H1774 0.930 . S
C1767 C1765 1.407 . S
C1767 C1766 1.345 . S
C1767 H1769 0.930 . S
H1768 C1761 0.930 . S
H1769 C1767 0.930 . S
H1770 C1758 0.930 . S
H1771 C1759 0.931 . S
H1772 C1765 0.930 . S
H1773 C1787 0.930 . S
H1774 C1766 0.930 . S
H1775 C1793 0.930 . S
H1776 C1784 0.930 . S
H1777 C1791 0.931 . S
H1778 C1755 0.929 . S
H1779 C1785 0.930 . S
H1780 C1818 0.930 . S
H1781 C1762 0.930 . S
H1782 C1817 0.929 . S
N1783 Tb1752 2.660 . S
N1783 C1784 1.305 . S
N1783 C1788 1.360 . S
C1784 H1776 0.930 . S
C1784 N1783 1.305 . S
C1784 C1787 1.407 . S
C1785 H1779 0.930 . S
C1785 C1786 1.410 . S
C1785 C1787 1.345 . S
C1786 C1785 1.410 . S
C1786 C1788 1.417 . S
C1786 C1818 1.432 . S
C1787 H1773 0.930 . S
C1787 C1784 1.407 . S
C1787 C1785 1.345 . S
C1788 N1783 1.360 . S
C1788 C1786 1.417 . S
C1788 C1792 1.432 . S
H1789 C1794 0.930 . S
N1790 Tb1752 2.600 . S
N1790 C1792 1.359 . S
N1790 C1793 1.327 . S
C1791 H1777 0.931 . S
C1791 C1793 1.392 . S
C1791 C1794 1.370 . S
C1792 C1788 1.432 . S
C1792 N1790 1.359 . S
C1792 C1795 1.414 . S
C1793 H1775 0.930 . S
C1793 N1790 1.327 . S
C1793 C1791 1.392 . S
C1794 H1789 0.930 . S
C1794 C1791 1.370 . S
C1794 C1795 1.385 . S
C1795 C1792 1.414 . S
C1795 C1794 1.385 . S
C1795 C1817 1.444 . S
O1796 Tb1752 2.546 . S
O1796 C1816 1.251 . S
O1797 Tb1752 2.610 . S
O1797 Tb1763 2.362 . S
O1797 C1808 1.283 . S
O1798 Tb1763 2.421 . S
O1798 C1815 1.262 . S
O1799 Tb1752 2.320 . S
O1799 C1815 1.260 . S
O1800 Tb1752 2.552 . S
O1800 C1808 1.243 . S
O1801 Tb1752 2.413 . S
O1801 C1816 1.256 . S
O1802 Tb1763 2.546 . S
O1802 C1827 1.251 . S
O1803 Tb1752 2.362 . S
O1803 Tb1763 2.610 . S
O1803 C1819 1.283 . S
O1804 Tb1752 2.421 . S
O1804 C1826 1.262 . S
O1805 Tb1763 2.320 . S
O1805 C1826 1.260 . S
O1806 Tb1763 2.552 . S
O1806 C1819 1.243 . S
O1807 Tb1763 2.413 . S
O1807 C1827 1.256 . S
C1808 O1797 1.283 . S
C1808 O1800 1.243 . S
C1809 C1811 1.382 . S
C1809 C1813 1.393 . S
C1809 C1816 1.500 . S
C1810 C1811 1.400 . S
C1810 C1812 1.384 . S
C1811 C1809 1.382 . S
C1811 C1810 1.400 . S
C1811 H1828 0.930 . S
C1812 C1810 1.384 . S
C1812 C1814 1.392 . S
C1812 H1829 0.931 . S
C1813 C1809 1.393 . S
C1813 C1814 1.401 . S
C1813 H1830 0.930 . S
C1814 C1812 1.392 . S
C1814 C1813 1.401 . S
C1814 H1831 0.930 . S
C1815 O1798 1.262 . S
C1815 O1799 1.260 . S
C1816 Tb1752 2.833 . S
C1816 O1796 1.251 . S
C1816 O1801 1.256 . S
C1816 C1809 1.500 . S
C1817 H1782 0.929 . S
C1817 C1795 1.444 . S
C1817 C1818 1.317 . S
C1818 H1780 0.930 . S
C1818 C1786 1.432 . S
C1818 C1817 1.317 . S
C1819 O1803 1.283 . S
C1819 O1806 1.243 . S
C1820 C1821 1.382 . S
C1820 C1824 1.393 . S
C1820 C1827 1.500 . S
C1821 C1820 1.382 . S
C1821 C1822 1.400 . S
C1821 H1832 0.930 . S
C1822 C1821 1.400 . S
C1822 C1823 1.384 . S
C1823 C1822 1.384 . S
C1823 C1825 1.392 . S
C1823 H1833 0.931 . S
C1824 C1820 1.393 . S
C1824 C1825 1.401 . S
C1824 H1834 0.930 . S
C1825 C1823 1.392 . S
C1825 C1824 1.401 . S
C1825 H1835 0.930 . S
C1826 O1804 1.262 . S
C1826 O1805 1.260 . S
C1827 Tb1763 2.833 . S
C1827 O1802 1.251 . S
C1827 O1807 1.256 . S
C1827 C1820 1.500 . S
H1828 C1811 0.930 . S
H1829 C1812 0.931 . S
H1830 C1813 0.930 . S
H1831 C1814 0.930 . S
H1832 C1821 0.930 . S
H1833 C1823 0.931 . S
H1834 C1824 0.930 . S
H1835 C1825 0.930 . S
H1836 C1848 0.930 . S
H1837 C1850 0.930 . S
H1838 C1851 0.930 . S
H1839 C1855 0.959 . S
H1840 C1855 0.959 . S
H1841 C1855 0.961 . S
H1842 C1856 0.960 . S
H1843 C1856 0.961 . S
H1844 C1856 0.959 . S
H1845 C1859 0.929 . S
H1846 C1860 0.931 1_556 S
H1847 C1862 0.930 . S
C1848 H1836 0.930 . S
C1848 C1849 1.399 . S
C1848 C1853 1.399 . S
C1849 C1848 1.399 . S
C1849 C1850 1.376 . S
C1850 H1837 0.930 . S
C1850 C1849 1.376 . S
C1850 C1851 1.388 . S
C1851 H1838 0.930 . S
C1851 C1850 1.388 . S
C1851 C1852 1.390 . S
C1852 C1851 1.390 . S
C1852 C1853 1.394 . S
C1852 C1858 1.465 . S
C1853 C1848 1.399 . S
C1853 C1852 1.394 . S
C1853 C1854 1.516 . S
C1854 C1853 1.516 . S
C1854 C1855 1.502 . S
C1854 C1856 1.561 . S
C1854 C1857 1.526 . S
C1855 H1839 0.959 . S
C1855 H1840 0.959 . S
C1855 H1841 0.961 . S
C1855 C1854 1.502 . S
C1856 H1842 0.960 . S
C1856 H1843 0.961 . S
C1856 H1844 0.959 . S
C1856 C1854 1.561 . S
C1857 C1854 1.526 . S
C1857 C1858 1.396 . S
C1857 C1862 1.390 . S
C1858 C1852 1.465 . S
C1858 C1857 1.396 . S
C1858 C1859 1.399 . S
C1859 H1845 0.929 . S
C1859 C1858 1.399 . S
C1859 C1860 1.385 . S
C1860 H1846 0.931 1_554 S
C1860 C1859 1.385 . S
C1860 C1861 1.389 . S
C1861 C1860 1.389 . S
C1861 C1862 1.387 . S
C1862 H1847 0.930 . S
C1862 C1857 1.390 . S
C1862 C1861 1.387 . S
H1863 C1875 0.930 . S
H1864 C1877 0.930 . S
H1865 C1878 0.930 . S
H1866 C1882 0.959 . S
H1867 C1882 0.959 . S
H1868 C1882 0.961 . S
H1869 C1883 0.960 . S
H1870 C1883 0.961 . S
H1871 C1883 0.959 . S
H1872 C1886 0.929 . S
H1873 C1887 0.931 . S
H1874 C1889 0.930 . S
C1875 H1863 0.930 . S
C1875 C1876 1.399 . S
C1875 C1880 1.399 . S
C1876 C1875 1.399 . S
C1876 C1877 1.376 . S
C1877 H1864 0.930 . S
C1877 C1876 1.376 . S
C1877 C1878 1.388 . S
C1878 H1865 0.930 . S
C1878 C1877 1.388 . S
C1878 C1879 1.390 . S
C1879 C1878 1.390 . S
C1879 C1880 1.394 . S
C1879 C1885 1.465 . S
C1880 C1875 1.399 . S
C1880 C1879 1.394 . S
C1880 C1881 1.516 . S
C1881 C1880 1.516 . S
C1881 C1882 1.502 . S
C1881 C1883 1.561 . S
C1881 C1884 1.526 . S
C1882 H1866 0.959 . S
C1882 H1867 0.959 . S
C1882 H1868 0.961 . S
C1882 C1881 1.502 . S
C1883 H1869 0.960 . S
C1883 H1870 0.961 . S
C1883 H1871 0.959 . S
C1883 C1881 1.561 . S
C1884 C1881 1.526 . S
C1884 C1885 1.396 . S
C1884 C1889 1.390 . S
C1885 C1879 1.465 . S
C1885 C1884 1.396 . S
C1885 C1886 1.399 . S
C1886 H1872 0.929 . S
C1886 C1885 1.399 . S
C1886 C1887 1.385 . S
C1887 H1873 0.931 . S
C1887 C1886 1.385 . S
C1887 C1888 1.389 . S
C1888 C1887 1.389 . S
C1888 C1889 1.387 . S
C1889 H1874 0.930 . S
C1889 C1884 1.390 . S
C1889 C1888 1.387 . S
H1890 C1902 0.930 . S
H1891 C1904 0.930 . S
H1892 C1905 0.930 . S
H1893 C1909 0.971 . S
H1894 C1909 0.959 1_556 S
H1895 C1909 0.961 . S
H1896 C1910 0.960 . S
H1897 C1910 0.961 . S
H1898 C1910 0.959 . S
H1899 C1913 0.929 . S
H1900 C1914 0.931 . S
H1901 C1916 0.930 . S
C1902 H1890 0.930 . S
C1902 C1903 1.399 . S
C1902 C1907 1.399 . S
C1903 C1902 1.399 . S
C1903 C1904 1.376 . S
C1904 H1891 0.930 . S
C1904 C1903 1.376 . S
C1904 C1905 1.388 . S
C1905 H1892 0.930 . S
C1905 C1904 1.388 . S
C1905 C1906 1.390 . S
C1906 C1905 1.390 . S
C1906 C1907 1.394 . S
C1906 C1912 1.465 . S
C1907 C1902 1.399 . S
C1907 C1906 1.394 . S
C1907 C1908 1.516 . S
C1908 C1907 1.516 . S
C1908 C1909 1.502 . S
C1908 C1910 1.561 . S
C1908 C1911 1.526 . S
C1909 H1893 0.971 . S
C1909 H1894 0.959 1_554 S
C1909 H1895 0.961 . S
C1909 C1908 1.502 . S
C1910 H1896 0.960 . S
C1910 H1897 0.961 . S
C1910 H1898 0.959 . S
C1910 C1908 1.561 . S
C1911 C1908 1.526 . S
C1911 C1912 1.396 . S
C1911 C1916 1.390 . S
C1912 C1906 1.465 . S
C1912 C1911 1.396 . S
C1912 C1913 1.399 . S
C1913 H1899 0.929 . S
C1913 C1912 1.399 . S
C1913 C1914 1.385 . S
C1914 H1900 0.931 . S
C1914 C1913 1.385 . S
C1914 C1915 1.389 . S
C1915 C1914 1.389 . S
C1915 C1916 1.387 . S
C1916 H1901 0.930 . S
C1916 C1911 1.390 . S
C1916 C1915 1.387 . S
H1917 C1929 0.930 . S
H1918 C1931 0.930 . S
H1919 C1932 0.930 . S
H1920 C1936 0.959 . S
H1921 C1936 0.959 . S
H1922 C1936 0.961 . S
H1923 C1937 0.960 . S
H1924 C1937 0.961 . S
H1925 C1937 0.959 . S
H1926 C1940 0.897 1_554 S
H1927 C1941 0.931 1_554 S
H1928 C1943 0.930 . S
C1929 H1917 0.930 . S
C1929 C1930 1.399 . S
C1929 C1934 1.399 . S
C1930 C1929 1.399 . S
C1930 C1931 1.376 . S
C1931 H1918 0.930 . S
C1931 C1930 1.376 . S
C1931 C1932 1.388 . S
C1932 H1919 0.930 . S
C1932 C1931 1.388 . S
C1932 C1933 1.390 . S
C1933 C1932 1.390 . S
C1933 C1934 1.394 . S
C1933 C1939 1.465 . S
C1934 C1929 1.399 . S
C1934 C1933 1.394 . S
C1934 C1935 1.516 . S
C1935 C1934 1.516 . S
C1935 C1936 1.502 . S
C1935 C1937 1.561 . S
C1935 C1938 1.526 . S
C1936 H1920 0.959 . S
C1936 H1921 0.959 . S
C1936 H1922 0.961 . S
C1936 C1935 1.502 . S
C1937 H1923 0.960 . S
C1937 H1924 0.961 . S
C1937 H1925 0.959 . S
C1937 C1935 1.561 . S
C1938 C1935 1.526 . S
C1938 C1939 1.396 . S
C1938 C1943 1.390 . S
C1939 C1933 1.465 . S
C1939 C1938 1.396 . S
C1939 C1940 1.399 . S
C1940 H1926 0.897 1_556 S
C1940 C1939 1.399 . S
C1940 C1941 1.385 . S
C1941 H1927 0.931 1_556 S
C1941 C1940 1.385 . S
C1941 C1942 1.389 . S
C1942 C1941 1.389 . S
C1942 C1943 1.387 . S
C1943 H1928 0.930 . S
C1943 C1938 1.390 . S
C1943 C1942 1.387 . S
H1944 C1956 0.930 . S
H1945 C1958 0.930 . S
H1946 C1959 0.930 . S
H1947 C1963 0.959 . S
H1948 C1963 0.959 . S
H1949 C1963 0.961 . S
H1950 C1964 0.960 . S
H1951 C1964 0.961 . S
H1952 C1964 0.959 . S
H1953 C1967 0.929 . S
H1954 C1968 0.931 . S
H1955 C1970 0.930 . S
C1956 H1944 0.930 . S
C1956 C1957 1.399 . S
C1956 C1961 1.399 . S
C1957 C1956 1.399 . S
C1957 C1958 1.376 . S
C1958 H1945 0.930 . S
C1958 C1957 1.376 . S
C1958 C1959 1.388 . S
C1959 H1946 0.930 . S
C1959 C1958 1.388 . S
C1959 C1960 1.390 . S
C1960 C1959 1.390 . S
C1960 C1961 1.394 . S
C1960 C1966 1.465 . S
C1961 C1956 1.399 . S
C1961 C1960 1.394 . S
C1961 C1962 1.516 . S
C1962 C1961 1.516 . S
C1962 C1963 1.502 . S
C1962 C1964 1.561 . S
C1962 C1965 1.526 . S
C1963 H1947 0.959 . S
C1963 H1948 0.959 . S
C1963 H1949 0.961 . S
C1963 C1962 1.502 . S
C1964 H1950 0.960 . S
C1964 H1951 0.961 . S
C1964 H1952 0.959 . S
C1964 C1962 1.561 . S
C1965 C1962 1.526 . S
C1965 C1966 1.396 . S
C1965 C1970 1.390 . S
C1966 C1960 1.465 . S
C1966 C1965 1.396 . S
C1966 C1967 1.399 . S
C1967 H1953 0.929 . S
C1967 C1966 1.399 . S
C1967 C1968 1.385 . S
C1968 H1954 0.931 . S
C1968 C1967 1.385 . S
C1968 C1969 1.389 . S
C1969 C1968 1.389 . S
C1969 C1970 1.387 . S
C1970 H1955 0.930 . S
C1970 C1965 1.390 . S
C1970 C1969 1.387 . S
H1971 C1983 0.930 . S
H1972 C1985 0.930 . S
H1973 C1986 0.930 . S
H1974 C1990 0.959 . S
H1975 C1990 0.959 . S
H1976 C1990 0.961 . S
H1977 C1991 0.963 . S
H1978 C1991 0.974 . S
H1979 C1991 0.957 1_556 S
H1980 C1994 0.929 . S
H1981 C1995 0.931 . S
H1982 C1997 0.930 . S
C1983 H1971 0.930 . S
C1983 C1984 1.399 . S
C1983 C1988 1.399 . S
C1984 C1983 1.399 . S
C1984 C1985 1.376 . S
C1985 H1972 0.930 . S
C1985 C1984 1.376 . S
C1985 C1986 1.388 . S
C1986 H1973 0.930 . S
C1986 C1985 1.388 . S
C1986 C1987 1.390 . S
C1987 C1986 1.390 . S
C1987 C1988 1.394 . S
C1987 C1993 1.465 . S
C1988 C1983 1.399 . S
C1988 C1987 1.394 . S
C1988 C1989 1.516 . S
C1989 C1988 1.516 . S
C1989 C1990 1.502 . S
C1989 C1991 1.548 1_556 S
C1989 C1992 1.526 . S
C1990 H1974 0.959 . S
C1990 H1975 0.959 . S
C1990 H1976 0.961 . S
C1990 C1989 1.502 . S
C1991 H1977 0.963 . S
C1991 H1978 0.974 . S
C1991 H1979 0.957 1_554 S
C1991 C1989 1.548 1_554 S
C1992 C1989 1.526 . S
C1992 C1993 1.396 . S
C1992 C1997 1.390 . S
C1993 C1987 1.465 . S
C1993 C1992 1.396 . S
C1993 C1994 1.399 . S
C1994 H1980 0.929 . S
C1994 C1993 1.399 . S
C1994 C1995 1.385 . S
C1995 H1981 0.931 . S
C1995 C1994 1.385 . S
C1995 C1996 1.389 . S
C1996 C1995 1.389 . S
C1996 C1997 1.387 . S
C1997 H1982 0.930 . S
C1997 C1992 1.390 . S
C1997 C1996 1.387 . S
H1998 C2010 0.930 . S
H1999 C2012 0.930 . S
H2000 C2013 0.930 . S
H2001 C2017 0.959 . S
H2002 C2017 0.959 . S
H2003 C2017 0.961 . S
H2004 C2018 0.960 . S
H2005 C2018 0.961 . S
H2006 C2018 0.959 . S
H2007 C2021 0.929 1_554 S
H2008 C2022 0.931 1_554 S
H2009 C2024 0.930 . S
C2010 H1998 0.930 . S
C2010 C2011 1.399 . S
C2010 C2015 1.399 . S
C2011 C2010 1.399 . S
C2011 C2012 1.376 . S
C2012 H1999 0.930 . S
C2012 C2011 1.376 . S
C2012 C2013 1.388 . S
C2013 H2000 0.930 . S
C2013 C2012 1.388 . S
C2013 C2014 1.390 . S
C2014 C2013 1.390 . S
C2014 C2015 1.394 . S
C2014 C2020 1.465 . S
C2015 C2010 1.399 . S
C2015 C2014 1.394 . S
C2015 C2016 1.516 . S
C2016 C2015 1.516 . S
C2016 C2017 1.502 . S
C2016 C2018 1.561 . S
C2016 C2019 1.526 . S
C2017 H2001 0.959 . S
C2017 H2002 0.959 . S
C2017 H2003 0.961 . S
C2017 C2016 1.502 . S
C2018 H2004 0.960 . S
C2018 H2005 0.961 . S
C2018 H2006 0.959 . S
C2018 C2016 1.561 . S
C2019 C2016 1.526 . S
C2019 C2020 1.396 . S
C2019 C2024 1.390 . S
C2020 C2014 1.465 . S
C2020 C2019 1.396 . S
C2020 C2021 1.399 . S
C2021 H2007 0.929 1_556 S
C2021 C2020 1.399 . S
C2021 C2022 1.385 . S
C2022 H2008 0.931 1_556 S
C2022 C2021 1.385 . S
C2022 C2023 1.389 . S
C2023 C2022 1.389 . S
C2023 C2024 1.387 . S
C2024 H2009 0.930 . S
C2024 C2019 1.390 . S
C2024 C2023 1.387 . S
H2025 C2037 0.930 . S
H2026 C2039 0.930 . S
H2027 C2040 0.930 . S
H2028 C2044 0.959 . S
H2029 C2044 0.959 . S
H2030 C2044 0.961 . S
H2031 C2045 0.960 . S
H2032 C2045 0.961 1_554 S
H2033 C2045 0.959 . S
H2034 C2048 0.929 . S
H2035 C2049 0.931 . S
H2036 C2051 0.930 . S
C2037 H2025 0.930 . S
C2037 C2038 1.399 . S
C2037 C2042 1.399 . S
C2038 C2037 1.399 . S
C2038 C2039 1.376 . S
C2039 H2026 0.930 . S
C2039 C2038 1.376 . S
C2039 C2040 1.388 . S
C2040 H2027 0.930 . S
C2040 C2039 1.388 . S
C2040 C2041 1.390 . S
C2041 C2040 1.390 . S
C2041 C2042 1.394 . S
C2041 C2047 1.465 . S
C2042 C2037 1.399 . S
C2042 C2041 1.394 . S
C2042 C2043 1.516 . S
C2043 C2042 1.516 . S
C2043 C2044 1.502 . S
C2043 C2045 1.561 . S
C2043 C2046 1.526 . S
C2044 H2028 0.959 . S
C2044 H2029 0.959 . S
C2044 H2030 0.961 . S
C2044 C2043 1.502 . S
C2045 H2031 0.960 . S
C2045 H2032 0.961 1_556 S
C2045 H2033 0.959 . S
C2045 C2043 1.561 . S
C2046 C2043 1.526 . S
C2046 C2047 1.396 . S
C2046 C2051 1.390 . S
C2047 C2041 1.465 . S
C2047 C2046 1.396 . S
C2047 C2048 1.399 . S
C2048 H2034 0.929 . S
C2048 C2047 1.399 . S
C2048 C2049 1.385 . S
C2049 H2035 0.931 . S
C2049 C2048 1.385 . S
C2049 C2050 1.389 . S
C2050 C2049 1.389 . S
C2050 C2051 1.387 . S
C2051 H2036 0.930 . S
C2051 C2046 1.390 . S
C2051 C2050 1.387 . S
H2052 C2064 0.930 . S
H2053 C2066 0.930 . S
H2054 C2067 0.930 . S
H2055 C2071 0.959 . S
H2056 C2071 0.959 . S
H2057 C2071 0.961 . S
H2058 C2072 0.964 . S
H2059 C2072 0.976 . S
H2060 C2072 0.954 1_556 S
H2061 C2075 0.929 . S
H2062 C2076 0.931 . S
H2063 C2078 0.930 . S
C2064 H2052 0.930 . S
C2064 C2065 1.399 . S
C2064 C2069 1.399 . S
C2065 C2064 1.399 . S
C2065 C2066 1.376 . S
C2066 H2053 0.930 . S
C2066 C2065 1.376 . S
C2066 C2067 1.388 . S
C2067 H2054 0.930 . S
C2067 C2066 1.388 . S
C2067 C2068 1.390 . S
C2068 C2067 1.390 . S
C2068 C2069 1.394 . S
C2068 C2074 1.465 . S
C2069 C2064 1.399 . S
C2069 C2068 1.394 . S
C2069 C2070 1.516 . S
C2070 C2069 1.516 . S
C2070 C2071 1.502 . S
C2070 C2072 1.545 1_556 S
C2070 C2073 1.526 . S
C2071 H2055 0.959 . S
C2071 H2056 0.959 . S
C2071 H2057 0.961 . S
C2071 C2070 1.502 . S
C2072 H2058 0.964 . S
C2072 H2059 0.976 . S
C2072 H2060 0.954 1_554 S
C2072 C2070 1.545 1_554 S
C2073 C2070 1.526 . S
C2073 C2074 1.396 . S
C2073 C2078 1.390 . S
C2074 C2068 1.465 . S
C2074 C2073 1.396 . S
C2074 C2075 1.399 . S
C2075 H2061 0.929 . S
C2075 C2074 1.399 . S
C2075 C2076 1.385 . S
C2076 H2062 0.931 . S
C2076 C2075 1.385 . S
C2076 C2077 1.389 . S
C2077 C2076 1.389 . S
C2077 C2078 1.387 . S
C2078 H2063 0.930 . S
C2078 C2073 1.390 . S
C2078 C2077 1.387 . S
H2079 C2091 0.930 . S
H2080 C2093 0.930 . S
H2081 C2094 0.930 . S
H2082 C2098 0.959 . S
H2083 C2098 0.959 . S
H2084 C2098 0.961 . S
H2085 C2099 0.960 . S
H2086 C2099 0.961 . S
H2087 C2099 0.959 . S
H2088 C2102 0.980 . S
H2089 C2103 0.931 1_556 S
H2090 C2105 0.930 . S
C2091 H2079 0.930 . S
C2091 C2092 1.399 . S
C2091 C2096 1.399 . S
C2092 C2091 1.399 . S
C2092 C2093 1.376 . S
C2093 H2080 0.930 . S
C2093 C2092 1.376 . S
C2093 C2094 1.388 . S
C2094 H2081 0.930 . S
C2094 C2093 1.388 . S
C2094 C2095 1.390 . S
C2095 C2094 1.390 . S
C2095 C2096 1.394 . S
C2095 C2101 1.465 . S
C2096 C2091 1.399 . S
C2096 C2095 1.394 . S
C2096 C2097 1.516 . S
C2097 C2096 1.516 . S
C2097 C2098 1.502 . S
C2097 C2099 1.561 . S
C2097 C2100 1.526 . S
C2098 H2082 0.959 . S
C2098 H2083 0.959 . S
C2098 H2084 0.961 . S
C2098 C2097 1.502 . S
C2099 H2085 0.960 . S
C2099 H2086 0.961 . S
C2099 H2087 0.959 . S
C2099 C2097 1.561 . S
C2100 C2097 1.526 . S
C2100 C2101 1.396 . S
C2100 C2105 1.390 . S
C2101 C2095 1.465 . S
C2101 C2100 1.396 . S
C2101 C2102 1.399 . S
C2102 H2088 0.980 . S
C2102 C2101 1.399 . S
C2102 C2103 1.385 . S
C2103 H2089 0.931 1_554 S
C2103 C2102 1.385 . S
C2103 C2104 1.389 . S
C2104 C2103 1.389 . S
C2104 C2105 1.387 . S
C2105 H2090 0.930 . S
C2105 C2100 1.390 . S
C2105 C2104 1.387 . S
H2106 C2118 0.930 . S
H2107 C2120 0.930 . S
H2108 C2121 0.930 . S
H2109 C2125 0.959 . S
H2110 C2125 0.959 . S
H2111 C2125 0.961 . S
H2112 C2126 0.960 . S
H2113 C2126 0.961 . S
H2114 C2126 0.959 . S
H2115 C2129 0.929 . S
H2116 C2130 0.931 . S
H2117 C2132 0.930 . S
C2118 H2106 0.930 . S
C2118 C2119 1.399 . S
C2118 C2123 1.399 . S
C2119 C2118 1.399 . S
C2119 C2120 1.376 . S
C2120 H2107 0.930 . S
C2120 C2119 1.376 . S
C2120 C2121 1.388 . S
C2121 H2108 0.930 . S
C2121 C2120 1.388 . S
C2121 C2122 1.390 . S
C2122 C2121 1.390 . S
C2122 C2123 1.394 . S
C2122 C2128 1.465 . S
C2123 C2118 1.399 . S
C2123 C2122 1.394 . S
C2123 C2124 1.516 . S
C2124 C2123 1.516 . S
C2124 C2125 1.502 . S
C2124 C2126 1.561 . S
C2124 C2127 1.526 . S
C2125 H2109 0.959 . S
C2125 H2110 0.959 . S
C2125 H2111 0.961 . S
C2125 C2124 1.502 . S
C2126 H2112 0.960 . S
C2126 H2113 0.961 . S
C2126 H2114 0.959 . S
C2126 C2124 1.561 . S
C2127 C2124 1.526 . S
C2127 C2128 1.396 . S
C2127 C2132 1.390 . S
C2128 C2122 1.465 . S
C2128 C2127 1.396 . S
C2128 C2129 1.399 . S
C2129 H2115 0.929 . S
C2129 C2128 1.399 . S
C2129 C2130 1.385 . S
C2130 H2116 0.931 . S
C2130 C2129 1.385 . S
C2130 C2131 1.389 . S
C2131 C2130 1.389 . S
C2131 C2132 1.387 . S
C2132 H2117 0.930 . S
C2132 C2127 1.390 . S
C2132 C2131 1.387 . S
H2133 C2145 0.930 . S
H2134 C2147 0.930 . S
H2135 C2148 0.930 . S
H2136 C2152 0.959 . S
H2137 C2152 0.959 . S
H2138 C2152 0.961 . S
H2139 C2153 0.960 . S
H2140 C2153 0.961 . S
H2141 C2153 0.959 . S
H2142 C2156 0.929 1_556 S
H2143 C2157 0.931 1_556 S
H2144 C2159 0.930 . S
C2145 H2133 0.930 . S
C2145 C2146 1.399 . S
C2145 C2150 1.399 . S
C2146 C2145 1.399 . S
C2146 C2147 1.376 . S
C2147 H2134 0.930 . S
C2147 C2146 1.376 . S
C2147 C2148 1.388 . S
C2148 H2135 0.930 . S
C2148 C2147 1.388 . S
C2148 C2149 1.390 . S
C2149 C2148 1.390 . S
C2149 C2150 1.394 . S
C2149 C2155 1.465 . S
C2150 C2145 1.399 . S
C2150 C2149 1.394 . S
C2150 C2151 1.516 . S
C2151 C2150 1.516 . S
C2151 C2152 1.502 . S
C2151 C2153 1.561 . S
C2151 C2154 1.526 . S
C2152 H2136 0.959 . S
C2152 H2137 0.959 . S
C2152 H2138 0.961 . S
C2152 C2151 1.502 . S
C2153 H2139 0.960 . S
C2153 H2140 0.961 . S
C2153 H2141 0.959 . S
C2153 C2151 1.561 . S
C2154 C2151 1.526 . S
C2154 C2155 1.396 . S
C2154 C2159 1.390 . S
C2155 C2149 1.465 . S
C2155 C2154 1.396 . S
C2155 C2156 1.399 . S
C2156 H2142 0.929 1_554 S
C2156 C2155 1.399 . S
C2156 C2157 1.385 . S
C2157 H2143 0.931 1_554 S
C2157 C2156 1.385 . S
C2157 C2158 1.389 . S
C2158 C2157 1.389 . S
C2158 C2159 1.387 . S
C2159 H2144 0.930 . S
C2159 C2154 1.390 . S
C2159 C2158 1.387 . S
H2160 C2172 0.904 1_655 S
H2161 C2174 0.930 . S
H2162 C2175 0.930 . S
H2163 C2179 0.959 . S
H2164 C2179 0.959 . S
H2165 C2179 0.961 . S
H2166 C2180 0.960 . S
H2167 C2180 0.961 . S
H2168 C2180 0.959 . S
H2169 C2183 0.929 . S
H2170 C2184 0.931 . S
H2171 C2186 0.930 . S
C2172 H2160 0.904 1_455 S
C2172 C2173 1.399 1_455 S
C2172 C2177 1.399 . S
C2173 C2172 1.399 1_655 S
C2173 C2174 1.376 . S
C2174 H2161 0.930 . S
C2174 C2173 1.376 . S
C2174 C2175 1.388 1_655 S
C2175 H2162 0.930 . S
C2175 C2174 1.388 1_455 S
C2175 C2176 1.390 . S
C2176 C2175 1.390 . S
C2176 C2177 1.394 . S
C2176 C2182 1.465 . S
C2177 C2172 1.399 . S
C2177 C2176 1.394 . S
C2177 C2178 1.516 . S
C2178 C2177 1.516 . S
C2178 C2179 1.502 . S
C2178 C2180 1.561 . S
C2178 C2181 1.526 . S
C2179 H2163 0.959 . S
C2179 H2164 0.959 . S
C2179 H2165 0.961 . S
C2179 C2178 1.502 . S
C2180 H2166 0.960 . S
C2180 H2167 0.961 . S
C2180 H2168 0.959 . S
C2180 C2178 1.561 . S
C2181 C2178 1.526 . S
C2181 C2182 1.396 . S
C2181 C2186 1.390 . S
C2182 C2176 1.465 . S
C2182 C2181 1.396 . S
C2182 C2183 1.399 . S
C2183 H2169 0.929 . S
C2183 C2182 1.399 . S
C2183 C2184 1.385 . S
C2184 H2170 0.931 . S
C2184 C2183 1.385 . S
C2184 C2185 1.389 . S
C2185 C2184 1.389 . S
C2185 C2186 1.387 . S
C2186 H2171 0.930 . S
C2186 C2181 1.390 . S
C2186 C2185 1.387 . S
H2187 C2199 0.930 . S
H2188 C2201 0.930 . S
H2189 C2202 0.930 . S
H2190 C2206 0.959 . S
H2191 C2206 0.959 . S
H2192 C2206 0.961 . S
H2193 C2207 0.960 . S
H2194 C2207 0.961 . S
H2195 C2207 0.959 . S
H2196 C2210 0.929 . S
H2197 C2211 0.931 . S
H2198 C2213 0.930 . S
C2199 H2187 0.930 . S
C2199 C2200 1.399 . S
C2199 C2204 1.399 . S
C2200 C2199 1.399 . S
C2200 C2201 1.376 . S
C2201 H2188 0.930 . S
C2201 C2200 1.376 . S
C2201 C2202 1.388 . S
C2202 H2189 0.930 . S
C2202 C2201 1.388 . S
C2202 C2203 1.390 . S
C2203 C2202 1.390 . S
C2203 C2204 1.394 . S
C2203 C2209 1.465 . S
C2204 C2199 1.399 . S
C2204 C2203 1.394 . S
C2204 C2205 1.516 . S
C2205 C2204 1.516 . S
C2205 C2206 1.502 . S
C2205 C2207 1.561 . S
C2205 C2208 1.526 . S
C2206 H2190 0.959 . S
C2206 H2191 0.959 . S
C2206 H2192 0.961 . S
C2206 C2205 1.502 . S
C2207 H2193 0.960 . S
C2207 H2194 0.961 . S
C2207 H2195 0.959 . S
C2207 C2205 1.561 . S
C2208 C2205 1.526 . S
C2208 C2209 1.396 . S
C2208 C2213 1.390 . S
C2209 C2203 1.465 . S
C2209 C2208 1.396 . S
C2209 C2210 1.399 . S
C2210 H2196 0.929 . S
C2210 C2209 1.399 . S
C2210 C2211 1.385 . S
C2211 H2197 0.931 . S
C2211 C2210 1.385 . S
C2211 C2212 1.389 . S
C2212 C2211 1.389 . S
C2212 C2213 1.387 . S
C2213 H2198 0.930 . S
C2213 C2208 1.390 . S
C2213 C2212 1.387 . S
H2214 C2226 0.930 . S
H2215 C2228 0.930 . S
H2216 C2229 0.930 . S
H2217 C2233 0.959 . S
H2218 C2233 0.959 . S
H2219 C2233 0.961 . S
H2220 C2234 0.960 . S
H2221 C2234 0.961 . S
H2222 C2234 0.959 . S
H2223 C2237 0.929 . S
H2224 C2238 0.931 . S
H2225 C2240 0.930 . S
C2226 H2214 0.930 . S
C2226 C2227 1.399 . S
C2226 C2231 1.399 1_545 S
C2227 C2226 1.399 . S
C2227 C2228 1.376 . S
C2228 H2215 0.930 . S
C2228 C2227 1.376 . S
C2228 C2229 1.388 1_545 S
C2229 H2216 0.930 . S
C2229 C2228 1.388 1_565 S
C2229 C2230 1.390 . S
C2230 C2229 1.390 . S
C2230 C2231 1.394 . S
C2230 C2236 1.465 . S
C2231 C2226 1.399 1_565 S
C2231 C2230 1.394 . S
C2231 C2232 1.516 . S
C2232 C2231 1.516 . S
C2232 C2233 1.502 . S
C2232 C2234 1.561 . S
C2232 C2235 1.526 . S
C2233 H2217 0.959 . S
C2233 H2218 0.959 . S
C2233 H2219 0.961 . S
C2233 C2232 1.502 . S
C2234 H2220 0.960 . S
C2234 H2221 0.961 . S
C2234 H2222 0.959 . S
C2234 C2232 1.561 . S
C2235 C2232 1.526 . S
C2235 C2236 1.396 . S
C2235 C2240 1.390 . S
C2236 C2230 1.465 . S
C2236 C2235 1.396 . S
C2236 C2237 1.399 . S
C2237 H2223 0.929 . S
C2237 C2236 1.399 . S
C2237 C2238 1.385 . S
C2238 H2224 0.931 . S
C2238 C2237 1.385 . S
C2238 C2239 1.389 . S
C2239 C2238 1.389 . S
C2239 C2240 1.387 . S
C2240 H2225 0.930 . S
C2240 C2235 1.390 . S
C2240 C2239 1.387 . S
H2241 C2253 0.930 . S
H2242 C2255 0.930 . S
H2243 C2256 0.930 . S
H2244 C2260 0.959 . S
H2245 C2260 0.959 . S
H2246 C2260 0.961 . S
H2247 C2261 0.960 . S
H2248 C2261 0.961 . S
H2249 C2261 0.959 . S
H2250 C2264 0.929 . S
H2251 C2265 0.931 . S
H2252 C2267 0.930 . S
C2253 H2241 0.930 . S
C2253 C2254 1.399 . S
C2253 C2258 1.399 . S
C2254 C2253 1.399 . S
C2254 C2255 1.376 . S
C2255 H2242 0.930 . S
C2255 C2254 1.376 . S
C2255 C2256 1.388 . S
C2256 H2243 0.930 . S
C2256 C2255 1.388 . S
C2256 C2257 1.390 . S
C2257 C2256 1.390 . S
C2257 C2258 1.394 . S
C2257 C2263 1.465 . S
C2258 C2253 1.399 . S
C2258 C2257 1.394 . S
C2258 C2259 1.516 . S
C2259 C2258 1.516 . S
C2259 C2260 1.502 . S
C2259 C2261 1.561 . S
C2259 C2262 1.526 . S
C2260 H2244 0.959 . S
C2260 H2245 0.959 . S
C2260 H2246 0.961 . S
C2260 C2259 1.502 . S
C2261 H2247 0.960 . S
C2261 H2248 0.961 . S
C2261 H2249 0.959 . S
C2261 C2259 1.561 . S
C2262 C2259 1.526 . S
C2262 C2263 1.396 . S
C2262 C2267 1.390 . S
C2263 C2257 1.465 . S
C2263 C2262 1.396 . S
C2263 C2264 1.399 . S
C2264 H2250 0.929 . S
C2264 C2263 1.399 . S
C2264 C2265 1.385 . S
C2265 H2251 0.931 . S
C2265 C2264 1.385 . S
C2265 C2266 1.389 . S
C2266 C2265 1.389 . S
C2266 C2267 1.387 . S
C2267 H2252 0.930 . S
C2267 C2262 1.390 . S
C2267 C2266 1.387 . S
H2268 C2280 0.930 . S
H2269 C2282 0.930 . S
H2270 C2283 0.930 . S
H2271 C2287 0.959 . S
H2272 C2287 0.959 . S
H2273 C2287 0.961 . S
H2274 C2288 0.960 . S
H2275 C2288 0.961 . S
H2276 C2288 0.959 . S
H2277 C2291 0.929 . S
H2278 C2292 0.931 . S
H2279 C2294 0.930 . S
C2280 H2268 0.930 . S
C2280 C2281 1.399 . S
C2280 C2285 1.399 . S
C2281 C2280 1.399 . S
C2281 C2282 1.376 . S
C2282 H2269 0.930 . S
C2282 C2281 1.376 . S
C2282 C2283 1.388 . S
C2283 H2270 0.930 . S
C2283 C2282 1.388 . S
C2283 C2284 1.390 . S
C2284 C2283 1.390 . S
C2284 C2285 1.394 . S
C2284 C2290 1.465 . S
C2285 C2280 1.399 . S
C2285 C2284 1.394 . S
C2285 C2286 1.516 . S
C2286 C2285 1.516 . S
C2286 C2287 1.502 . S
C2286 C2288 1.561 . S
C2286 C2289 1.526 . S
C2287 H2271 0.959 . S
C2287 H2272 0.959 . S
C2287 H2273 0.961 . S
C2287 C2286 1.502 . S
C2288 H2274 0.960 . S
C2288 H2275 0.961 . S
C2288 H2276 0.959 . S
C2288 C2286 1.561 . S
C2289 C2286 1.526 . S
C2289 C2290 1.396 . S
C2289 C2294 1.390 . S
C2290 C2284 1.465 . S
C2290 C2289 1.396 . S
C2290 C2291 1.399 . S
C2291 H2277 0.929 . S
C2291 C2290 1.399 . S
C2291 C2292 1.385 . S
C2292 H2278 0.931 . S
C2292 C2291 1.385 . S
C2292 C2293 1.389 . S
C2293 C2292 1.389 . S
C2293 C2294 1.387 . S
C2294 H2279 0.930 . S
C2294 C2289 1.390 . S
C2294 C2293 1.387 . S
H2295 C2307 0.930 . S
H2296 C2309 0.930 . S
H2297 C2310 0.930 . S
H2298 C2314 0.959 . S
H2299 C2314 0.959 . S
H2300 C2314 0.961 . S
H2301 C2315 0.960 . S
H2302 C2315 0.961 . S
H2303 C2315 0.959 . S
H2304 C2318 0.929 . S
H2305 C2319 0.931 . S
H2306 C2321 0.930 . S
C2307 H2295 0.930 . S
C2307 C2308 1.399 . S
C2307 C2312 1.399 . S
C2308 C2307 1.399 . S
C2308 C2309 1.376 . S
C2309 H2296 0.930 . S
C2309 C2308 1.376 . S
C2309 C2310 1.388 . S
C2310 H2297 0.930 . S
C2310 C2309 1.388 . S
C2310 C2311 1.390 . S
C2311 C2310 1.390 . S
C2311 C2312 1.394 . S
C2311 C2317 1.465 . S
C2312 C2307 1.399 . S
C2312 C2311 1.394 . S
C2312 C2313 1.516 . S
C2313 C2312 1.516 . S
C2313 C2314 1.502 . S
C2313 C2315 1.561 . S
C2313 C2316 1.526 . S
C2314 H2298 0.959 . S
C2314 H2299 0.959 . S
C2314 H2300 0.961 . S
C2314 C2313 1.502 . S
C2315 H2301 0.960 . S
C2315 H2302 0.961 . S
C2315 H2303 0.959 . S
C2315 C2313 1.561 . S
C2316 C2313 1.526 . S
C2316 C2317 1.396 . S
C2316 C2321 1.390 . S
C2317 C2311 1.465 . S
C2317 C2316 1.396 . S
C2317 C2318 1.399 . S
C2318 H2304 0.929 . S
C2318 C2317 1.399 . S
C2318 C2319 1.385 . S
C2319 H2305 0.931 . S
C2319 C2318 1.385 . S
C2319 C2320 1.389 . S
C2320 C2319 1.389 . S
C2320 C2321 1.387 . S
C2321 H2306 0.930 . S
C2321 C2316 1.390 . S
C2321 C2320 1.387 . S
H2322 C2334 0.930 . S
H2323 C2336 0.930 . S
H2324 C2337 0.930 . S
H2325 C2341 0.959 . S
H2326 C2341 0.959 . S
H2327 C2341 0.961 . S
H2328 C2342 0.960 . S
H2329 C2342 0.961 . S
H2330 C2342 0.959 . S
H2331 C2345 0.929 . S
H2332 C2346 0.931 . S
H2333 C2348 0.930 . S
C2334 H2322 0.930 . S
C2334 C2335 1.399 . S
C2334 C2339 1.399 . S
C2335 C2334 1.399 . S
C2335 C2336 1.376 . S
C2336 H2323 0.930 . S
C2336 C2335 1.376 . S
C2336 C2337 1.388 . S
C2337 H2324 0.930 . S
C2337 C2336 1.388 . S
C2337 C2338 1.390 . S
C2338 C2337 1.390 . S
C2338 C2339 1.394 . S
C2338 C2344 1.465 . S
C2339 C2334 1.399 . S
C2339 C2338 1.394 . S
C2339 C2340 1.516 . S
C2340 C2339 1.516 . S
C2340 C2341 1.502 . S
C2340 C2342 1.561 . S
C2340 C2343 1.526 . S
C2341 H2325 0.959 . S
C2341 H2326 0.959 . S
C2341 H2327 0.961 . S
C2341 C2340 1.502 . S
C2342 H2328 0.960 . S
C2342 H2329 0.961 . S
C2342 H2330 0.959 . S
C2342 C2340 1.561 . S
C2343 C2340 1.526 . S
C2343 C2344 1.396 . S
C2343 C2348 1.390 . S
C2344 C2338 1.465 . S
C2344 C2343 1.396 . S
C2344 C2345 1.399 . S
C2345 H2331 0.929 . S
C2345 C2344 1.399 . S
C2345 C2346 1.385 . S
C2346 H2332 0.931 . S
C2346 C2345 1.385 . S
C2346 C2347 1.389 . S
C2347 C2346 1.389 . S
C2347 C2348 1.387 . S
C2348 H2333 0.930 . S
C2348 C2343 1.390 . S
C2348 C2347 1.387 . S
H2349 C2361 0.930 . S
H2350 C2363 0.930 . S
H2351 C2364 0.930 . S
H2352 C2368 0.959 . S
H2353 C2368 0.959 . S
H2354 C2368 0.961 . S
H2355 C2369 0.960 . S
H2356 C2369 0.961 . S
H2357 C2369 0.959 . S
H2358 C2372 0.929 . S
H2359 C2373 0.931 . S
H2360 C2375 0.930 . S
C2361 H2349 0.930 . S
C2361 C2362 1.399 . S
C2361 C2366 1.399 . S
C2362 C2361 1.399 . S
C2362 C2363 1.376 . S
C2363 H2350 0.930 . S
C2363 C2362 1.376 . S
C2363 C2364 1.388 . S
C2364 H2351 0.930 . S
C2364 C2363 1.388 . S
C2364 C2365 1.390 . S
C2365 C2364 1.390 . S
C2365 C2366 1.394 . S
C2365 C2371 1.465 . S
C2366 C2361 1.399 . S
C2366 C2365 1.394 . S
C2366 C2367 1.516 . S
C2367 C2366 1.516 . S
C2367 C2368 1.502 . S
C2367 C2369 1.561 . S
C2367 C2370 1.526 . S
C2368 H2352 0.959 . S
C2368 H2353 0.959 . S
C2368 H2354 0.961 . S
C2368 C2367 1.502 . S
C2369 H2355 0.960 . S
C2369 H2356 0.961 . S
C2369 H2357 0.959 . S
C2369 C2367 1.561 . S
C2370 C2367 1.526 . S
C2370 C2371 1.396 . S
C2370 C2375 1.390 . S
C2371 C2365 1.465 . S
C2371 C2370 1.396 . S
C2371 C2372 1.399 . S
C2372 H2358 0.929 . S
C2372 C2371 1.399 . S
C2372 C2373 1.385 . S
C2373 H2359 0.931 . S
C2373 C2372 1.385 . S
C2373 C2374 1.389 . S
C2374 C2373 1.389 . S
C2374 C2375 1.387 . S
C2375 H2360 0.930 . S
C2375 C2370 1.390 . S
C2375 C2374 1.387 . S
H2376 C2388 0.930 . S
H2377 C2390 0.930 . S
H2378 C2391 0.930 . S
H2379 C2395 0.959 . S
H2380 C2395 0.959 . S
H2381 C2395 0.961 . S
H2382 C2396 0.960 . S
H2383 C2396 0.961 . S
H2384 C2396 0.959 . S
H2385 C2399 0.929 . S
H2386 C2400 0.931 . S
H2387 C2402 0.930 . S
C2388 H2376 0.930 . S
C2388 C2389 1.399 . S
C2388 C2393 1.399 . S
C2389 C2388 1.399 . S
C2389 C2390 1.376 . S
C2390 H2377 0.930 . S
C2390 C2389 1.376 . S
C2390 C2391 1.388 . S
C2391 H2378 0.930 . S
C2391 C2390 1.388 . S
C2391 C2392 1.390 . S
C2392 C2391 1.390 . S
C2392 C2393 1.394 . S
C2392 C2398 1.465 . S
C2393 C2388 1.399 . S
C2393 C2392 1.394 . S
C2393 C2394 1.516 . S
C2394 C2393 1.516 . S
C2394 C2395 1.502 . S
C2394 C2396 1.561 . S
C2394 C2397 1.526 . S
C2395 H2379 0.959 . S
C2395 H2380 0.959 . S
C2395 H2381 0.961 . S
C2395 C2394 1.502 . S
C2396 H2382 0.960 . S
C2396 H2383 0.961 . S
C2396 H2384 0.959 . S
C2396 C2394 1.561 . S
C2397 C2394 1.526 . S
C2397 C2398 1.396 . S
C2397 C2402 1.390 . S
C2398 C2392 1.465 . S
C2398 C2397 1.396 . S
C2398 C2399 1.399 . S
C2399 H2385 0.929 . S
C2399 C2398 1.399 . S
C2399 C2400 1.385 . S
C2400 H2386 0.931 . S
C2400 C2399 1.385 . S
C2400 C2401 1.389 . S
C2401 C2400 1.389 . S
C2401 C2402 1.387 . S
C2402 H2387 0.930 . S
C2402 C2397 1.390 . S
C2402 C2401 1.387 . S
H2403 C2415 0.930 . S
H2404 C2417 0.930 1_545 S
H2405 C2418 0.930 . S
H2406 C2422 0.959 . S
H2407 C2422 0.959 . S
H2408 C2422 0.961 . S
H2409 C2423 0.960 . S
H2410 C2423 0.961 . S
H2411 C2423 0.959 . S
H2412 C2426 0.929 . S
H2413 C2427 0.931 . S
H2414 C2429 0.930 . S
C2415 H2403 0.930 . S
C2415 C2416 1.399 . S
C2415 C2420 1.399 1_545 S
C2416 C2415 1.399 . S
C2416 C2417 1.376 1_545 S
C2417 H2404 0.930 1_565 S
C2417 C2416 1.376 1_565 S
C2417 C2418 1.388 . S
C2418 H2405 0.930 . S
C2418 C2417 1.388 . S
C2418 C2419 1.390 . S
C2419 C2418 1.390 . S
C2419 C2420 1.394 . S
C2419 C2425 1.465 . S
C2420 C2415 1.399 1_565 S
C2420 C2419 1.394 . S
C2420 C2421 1.516 . S
C2421 C2420 1.516 . S
C2421 C2422 1.502 . S
C2421 C2423 1.561 . S
C2421 C2424 1.526 . S
C2422 H2406 0.959 . S
C2422 H2407 0.959 . S
C2422 H2408 0.961 . S
C2422 C2421 1.502 . S
C2423 H2409 0.960 . S
C2423 H2410 0.961 . S
C2423 H2411 0.959 . S
C2423 C2421 1.561 . S
C2424 C2421 1.526 . S
C2424 C2425 1.396 . S
C2424 C2429 1.390 . S
C2425 C2419 1.465 . S
C2425 C2424 1.396 . S
C2425 C2426 1.399 . S
C2426 H2412 0.929 . S
C2426 C2425 1.399 . S
C2426 C2427 1.385 . S
C2427 H2413 0.931 . S
C2427 C2426 1.385 . S
C2427 C2428 1.389 . S
C2428 C2427 1.389 . S
C2428 C2429 1.387 . S
C2429 H2414 0.930 . S
C2429 C2424 1.390 . S
C2429 C2428 1.387 . S
H2430 C2442 0.930 1_655 S
H2431 C2444 0.930 1_655 S
H2432 C2445 0.930 . S
H2433 C2449 0.959 . S
H2434 C2449 0.959 . S
H2435 C2449 0.961 . S
H2436 C2450 0.960 . S
H2437 C2450 0.961 . S
H2438 C2450 0.959 . S
H2439 C2453 0.929 . S
H2440 C2454 0.931 . S
H2441 C2456 0.930 . S
C2442 H2430 0.930 1_455 S
C2442 C2443 1.399 1_455 S
C2442 C2447 1.399 . S
C2443 C2442 1.399 1_655 S
C2443 C2444 1.376 1_655 S
C2444 H2431 0.930 1_455 S
C2444 C2443 1.376 1_455 S
C2444 C2445 1.388 . S
C2445 H2432 0.930 . S
C2445 C2444 1.388 . S
C2445 C2446 1.390 . S
C2446 C2445 1.390 . S
C2446 C2447 1.394 . S
C2446 C2452 1.465 . S
C2447 C2442 1.399 . S
C2447 C2446 1.394 . S
C2447 C2448 1.516 . S
C2448 C2447 1.516 . S
C2448 C2449 1.502 . S
C2448 C2450 1.561 . S
C2448 C2451 1.526 . S
C2449 H2433 0.959 . S
C2449 H2434 0.959 . S
C2449 H2435 0.961 . S
C2449 C2448 1.502 . S
C2450 H2436 0.960 . S
C2450 H2437 0.961 . S
C2450 H2438 0.959 . S
C2450 C2448 1.561 . S
C2451 C2448 1.526 . S
C2451 C2452 1.396 . S
C2451 C2456 1.390 . S
C2452 C2446 1.465 . S
C2452 C2451 1.396 . S
C2452 C2453 1.399 . S
C2453 H2439 0.929 . S
C2453 C2452 1.399 . S
C2453 C2454 1.385 . S
C2454 H2440 0.931 . S
C2454 C2453 1.385 . S
C2454 C2455 1.389 . S
C2455 C2454 1.389 . S
C2455 C2456 1.387 . S
C2456 H2441 0.930 . S
C2456 C2451 1.390 . S
C2456 C2455 1.387 . S
H2457 C2469 0.930 . S
H2458 C2471 0.930 . S
H2459 C2472 0.930 . S
H2460 C2476 0.959 . S
H2461 C2476 0.959 . S
H2462 C2476 0.961 . S
H2463 C2477 0.960 . S
H2464 C2477 0.961 . S
H2465 C2477 0.959 . S
H2466 C2480 0.929 . S
H2467 C2481 0.931 . S
H2468 C2483 0.930 . S
C2469 H2457 0.930 . S
C2469 C2470 1.399 . S
C2469 C2474 1.399 . S
C2470 C2469 1.399 . S
C2470 C2471 1.376 . S
C2471 H2458 0.930 . S
C2471 C2470 1.376 . S
C2471 C2472 1.388 . S
C2472 H2459 0.930 . S
C2472 C2471 1.388 . S
C2472 C2473 1.390 . S
C2473 C2472 1.390 . S
C2473 C2474 1.394 . S
C2473 C2479 1.465 . S
C2474 C2469 1.399 . S
C2474 C2473 1.394 . S
C2474 C2475 1.516 . S
C2475 C2474 1.516 . S
C2475 C2476 1.502 . S
C2475 C2477 1.561 . S
C2475 C2478 1.526 . S
C2476 H2460 0.959 . S
C2476 H2461 0.959 . S
C2476 H2462 0.961 . S
C2476 C2475 1.502 . S
C2477 H2463 0.960 . S
C2477 H2464 0.961 . S
C2477 H2465 0.959 . S
C2477 C2475 1.561 . S
C2478 C2475 1.526 . S
C2478 C2479 1.396 . S
C2478 C2483 1.390 . S
C2479 C2473 1.465 . S
C2479 C2478 1.396 . S
C2479 C2480 1.399 . S
C2480 H2466 0.929 . S
C2480 C2479 1.399 . S
C2480 C2481 1.385 . S
C2481 H2467 0.931 . S
C2481 C2480 1.385 . S
C2481 C2482 1.389 . S
C2482 C2481 1.389 . S
C2482 C2483 1.387 . S
C2483 H2468 0.930 . S
C2483 C2478 1.390 . S
C2483 C2482 1.387 . S
H2484 C2496 0.930 . S
H2485 C2498 0.930 . S
H2486 C2499 0.930 . S
H2487 C2503 0.959 . S
H2488 C2503 0.959 . S
H2489 C2503 0.961 . S
H2490 C2504 0.960 . S
H2491 C2504 0.961 . S
H2492 C2504 0.959 . S
H2493 C2507 0.929 . S
H2494 C2508 0.931 . S
H2495 C2510 0.930 . S
C2496 H2484 0.930 . S
C2496 C2497 1.399 . S
C2496 C2501 1.399 . S
C2497 C2496 1.399 . S
C2497 C2498 1.376 . S
C2498 H2485 0.930 . S
C2498 C2497 1.376 . S
C2498 C2499 1.388 . S
C2499 H2486 0.930 . S
C2499 C2498 1.388 . S
C2499 C2500 1.390 . S
C2500 C2499 1.390 . S
C2500 C2501 1.394 . S
C2500 C2506 1.465 . S
C2501 C2496 1.399 . S
C2501 C2500 1.394 . S
C2501 C2502 1.516 . S
C2502 C2501 1.516 . S
C2502 C2503 1.502 . S
C2502 C2504 1.561 . S
C2502 C2505 1.526 . S
C2503 H2487 0.959 . S
C2503 H2488 0.959 . S
C2503 H2489 0.961 . S
C2503 C2502 1.502 . S
C2504 H2490 0.960 . S
C2504 H2491 0.961 . S
C2504 H2492 0.959 . S
C2504 C2502 1.561 . S
C2505 C2502 1.526 . S
C2505 C2506 1.396 . S
C2505 C2510 1.390 . S
C2506 C2500 1.465 . S
C2506 C2505 1.396 . S
C2506 C2507 1.399 . S
C2507 H2493 0.929 . S
C2507 C2506 1.399 . S
C2507 C2508 1.385 . S
C2508 H2494 0.931 . S
C2508 C2507 1.385 . S
C2508 C2509 1.389 . S
C2509 C2508 1.389 . S
C2509 C2510 1.387 . S
C2510 H2495 0.930 . S
C2510 C2505 1.390 . S
C2510 C2509 1.387 . S
H2511 C2523 0.930 . S
H2512 C2525 0.930 . S
H2513 C2526 0.930 . S
H2514 C2530 0.959 . S
H2515 C2530 0.959 . S
H2516 C2530 0.961 . S
H2517 C2531 0.960 . S
H2518 C2531 0.961 . S
H2519 C2531 0.959 . S
H2520 C2534 0.929 . S
H2521 C2535 0.931 . S
H2522 C2537 0.930 . S
C2523 H2511 0.930 . S
C2523 C2524 1.399 . S
C2523 C2528 1.399 . S
C2524 C2523 1.399 . S
C2524 C2525 1.376 . S
C2525 H2512 0.930 . S
C2525 C2524 1.376 . S
C2525 C2526 1.388 . S
C2526 H2513 0.930 . S
C2526 C2525 1.388 . S
C2526 C2527 1.390 . S
C2527 C2526 1.390 . S
C2527 C2528 1.394 . S
C2527 C2533 1.465 . S
C2528 C2523 1.399 . S
C2528 C2527 1.394 . S
C2528 C2529 1.516 . S
C2529 C2528 1.516 . S
C2529 C2530 1.502 . S
C2529 C2531 1.561 . S
C2529 C2532 1.526 . S
C2530 H2514 0.959 . S
C2530 H2515 0.959 . S
C2530 H2516 0.961 . S
C2530 C2529 1.502 . S
C2531 H2517 0.960 . S
C2531 H2518 0.961 . S
C2531 H2519 0.959 . S
C2531 C2529 1.561 . S
C2532 C2529 1.526 . S
C2532 C2533 1.396 . S
C2532 C2537 1.390 . S
C2533 C2527 1.465 . S
C2533 C2532 1.396 . S
C2533 C2534 1.399 . S
C2534 H2520 0.929 . S
C2534 C2533 1.399 . S
C2534 C2535 1.385 . S
C2535 H2521 0.931 . S
C2535 C2534 1.385 . S
C2535 C2536 1.389 . S
C2536 C2535 1.389 . S
C2536 C2537 1.387 . S
C2537 H2522 0.930 . S
C2537 C2532 1.390 . S
C2537 C2536 1.387 . S
H2538 C2550 0.930 . S
H2539 C2552 0.930 . S
H2540 C2553 0.930 . S
H2541 C2557 0.959 . S
H2542 C2557 0.959 . S
H2543 C2557 0.961 . S
H2544 C2558 0.960 . S
H2545 C2558 0.961 . S
H2546 C2558 0.959 . S
H2547 C2561 0.929 . S
H2548 C2562 0.931 . S
H2549 C2564 0.930 . S
C2550 H2538 0.930 . S
C2550 C2551 1.399 . S
C2550 C2555 1.399 . S
C2551 C2550 1.399 . S
C2551 C2552 1.376 . S
C2552 H2539 0.930 . S
C2552 C2551 1.376 . S
C2552 C2553 1.388 . S
C2553 H2540 0.930 . S
C2553 C2552 1.388 . S
C2553 C2554 1.390 . S
C2554 C2553 1.390 . S
C2554 C2555 1.394 . S
C2554 C2560 1.465 . S
C2555 C2550 1.399 . S
C2555 C2554 1.394 . S
C2555 C2556 1.516 . S
C2556 C2555 1.516 . S
C2556 C2557 1.502 . S
C2556 C2558 1.561 . S
C2556 C2559 1.526 . S
C2557 H2541 0.959 . S
C2557 H2542 0.959 . S
C2557 H2543 0.961 . S
C2557 C2556 1.502 . S
C2558 H2544 0.960 . S
C2558 H2545 0.961 . S
C2558 H2546 0.959 . S
C2558 C2556 1.561 . S
C2559 C2556 1.526 . S
C2559 C2560 1.396 . S
C2559 C2564 1.390 . S
C2560 C2554 1.465 . S
C2560 C2559 1.396 . S
C2560 C2561 1.399 . S
C2561 H2547 0.929 . S
C2561 C2560 1.399 . S
C2561 C2562 1.385 . S
C2562 H2548 0.931 . S
C2562 C2561 1.385 . S
C2562 C2563 1.389 . S
C2563 C2562 1.389 . S
C2563 C2564 1.387 . S
C2564 H2549 0.930 . S
C2564 C2559 1.390 . S
C2564 C2563 1.387 . S
H2565 C2577 0.930 . S
H2566 C2579 0.930 . S
H2567 C2580 0.930 . S
H2568 C2584 0.959 . S
H2569 C2584 0.959 . S
H2570 C2584 0.961 . S
H2571 C2585 0.960 . S
H2572 C2585 0.961 . S
H2573 C2585 0.959 . S
H2574 C2588 0.929 . S
H2575 C2589 0.931 . S
H2576 C2591 0.930 . S
C2577 H2565 0.930 . S
C2577 C2578 1.399 1_545 S
C2577 C2582 1.399 . S
C2578 C2577 1.399 1_565 S
C2578 C2579 1.376 . S
C2579 H2566 0.930 . S
C2579 C2578 1.376 . S
C2579 C2580 1.388 1_565 S
C2580 H2567 0.930 . S
C2580 C2579 1.388 1_545 S
C2580 C2581 1.390 . S
C2581 C2580 1.390 . S
C2581 C2582 1.394 . S
C2581 C2587 1.465 . S
C2582 C2577 1.399 . S
C2582 C2581 1.394 . S
C2582 C2583 1.516 . S
C2583 C2582 1.516 . S
C2583 C2584 1.502 . S
C2583 C2585 1.561 . S
C2583 C2586 1.526 . S
C2584 H2568 0.959 . S
C2584 H2569 0.959 . S
C2584 H2570 0.961 . S
C2584 C2583 1.502 . S
C2585 H2571 0.960 . S
C2585 H2572 0.961 . S
C2585 H2573 0.959 . S
C2585 C2583 1.561 . S
C2586 C2583 1.526 . S
C2586 C2587 1.396 . S
C2586 C2591 1.390 . S
C2587 C2581 1.465 . S
C2587 C2586 1.396 . S
C2587 C2588 1.399 . S
C2588 H2574 0.929 . S
C2588 C2587 1.399 . S
C2588 C2589 1.385 . S
C2589 H2575 0.931 . S
C2589 C2588 1.385 . S
C2589 C2590 1.389 . S
C2590 C2589 1.389 . S
C2590 C2591 1.387 . S
C2591 H2576 0.930 . S
C2591 C2586 1.390 . S
C2591 C2590 1.387 . S
H2592 C2604 0.930 . S
H2593 C2606 0.930 1_455 S
H2594 C2607 0.930 . S
H2595 C2611 0.959 . S
H2596 C2611 0.959 . S
H2597 C2611 0.961 . S
H2598 C2612 0.960 . S
H2599 C2612 0.961 . S
H2600 C2612 0.959 . S
H2601 C2615 0.929 . S
H2602 C2616 0.931 . S
H2603 C2618 0.930 . S
C2604 H2592 0.930 . S
C2604 C2605 1.399 1_655 S
C2604 C2609 1.399 . S
C2605 C2604 1.399 1_455 S
C2605 C2606 1.376 1_455 S
C2606 H2593 0.930 1_655 S
C2606 C2605 1.376 1_655 S
C2606 C2607 1.388 . S
C2607 H2594 0.930 . S
C2607 C2606 1.388 . S
C2607 C2608 1.390 . S
C2608 C2607 1.390 . S
C2608 C2609 1.394 . S
C2608 C2614 1.465 . S
C2609 C2604 1.399 . S
C2609 C2608 1.394 . S
C2609 C2610 1.516 . S
C2610 C2609 1.516 . S
C2610 C2611 1.502 . S
C2610 C2612 1.561 . S
C2610 C2613 1.526 . S
C2611 H2595 0.959 . S
C2611 H2596 0.959 . S
C2611 H2597 0.961 . S
C2611 C2610 1.502 . S
C2612 H2598 0.960 . S
C2612 H2599 0.961 . S
C2612 H2600 0.959 . S
C2612 C2610 1.561 . S
C2613 C2610 1.526 . S
C2613 C2614 1.396 . S
C2613 C2618 1.390 . S
C2614 C2608 1.465 . S
C2614 C2613 1.396 . S
C2614 C2615 1.399 . S
C2615 H2601 0.929 . S
C2615 C2614 1.399 . S
C2615 C2616 1.385 . S
C2616 H2602 0.931 . S
C2616 C2615 1.385 . S
C2616 C2617 1.389 . S
C2617 C2616 1.389 . S
C2617 C2618 1.387 . S
C2618 H2603 0.930 . S
C2618 C2613 1.390 . S
C2618 C2617 1.387 . S
H2619 C2631 0.930 . S
H2620 C2633 0.930 . S
H2621 C2634 0.930 . S
H2622 C2638 0.959 . S
H2623 C2638 0.959 . S
H2624 C2638 0.961 . S
H2625 C2639 0.960 . S
H2626 C2639 0.961 . S
H2627 C2639 0.959 . S
H2628 C2642 0.929 . S
H2629 C2643 0.931 . S
H2630 C2645 0.930 . S
C2631 H2619 0.930 . S
C2631 C2632 1.399 . S
C2631 C2636 1.399 . S
C2632 C2631 1.399 . S
C2632 C2633 1.376 . S
C2633 H2620 0.930 . S
C2633 C2632 1.376 . S
C2633 C2634 1.388 . S
C2634 H2621 0.930 . S
C2634 C2633 1.388 . S
C2634 C2635 1.390 . S
C2635 C2634 1.390 . S
C2635 C2636 1.394 . S
C2635 C2641 1.465 . S
C2636 C2631 1.399 . S
C2636 C2635 1.394 . S
C2636 C2637 1.516 . S
C2637 C2636 1.516 . S
C2637 C2638 1.502 . S
C2637 C2639 1.561 . S
C2637 C2640 1.526 . S
C2638 H2622 0.959 . S
C2638 H2623 0.959 . S
C2638 H2624 0.961 . S
C2638 C2637 1.502 . S
C2639 H2625 0.960 . S
C2639 H2626 0.961 . S
C2639 H2627 0.959 . S
C2639 C2637 1.561 . S
C2640 C2637 1.526 . S
C2640 C2641 1.396 . S
C2640 C2645 1.390 . S
C2641 C2635 1.465 . S
C2641 C2640 1.396 . S
C2641 C2642 1.399 . S
C2642 H2628 0.929 . S
C2642 C2641 1.399 . S
C2642 C2643 1.385 . S
C2643 H2629 0.931 . S
C2643 C2642 1.385 . S
C2643 C2644 1.389 . S
C2644 C2643 1.389 . S
C2644 C2645 1.387 . S
C2645 H2630 0.930 . S
C2645 C2640 1.390 . S
C2645 C2644 1.387 . S
H2646 C2658 0.930 . S
H2647 C2660 0.929 . S
H2648 C2661 0.930 . S
H2649 C2665 0.959 . S
H2650 C2665 0.959 . S
H2651 C2665 0.961 . S
H2652 C2666 0.960 . S
H2653 C2666 0.961 . S
H2654 C2666 0.959 . S
H2655 C2669 0.929 . S
H2656 C2670 0.931 . S
H2657 C2672 0.930 . S
C2658 H2646 0.930 . S
C2658 C2659 1.399 . S
C2658 C2663 1.399 1_455 S
C2659 C2658 1.399 . S
C2659 C2660 1.376 1_455 S
C2660 H2647 0.929 . S
C2660 C2659 1.376 1_655 S
C2660 C2661 1.388 . S
C2661 H2648 0.930 . S
C2661 C2660 1.388 . S
C2661 C2662 1.390 . S
C2662 C2661 1.390 . S
C2662 C2663 1.394 . S
C2662 C2668 1.465 . S
C2663 C2658 1.399 1_655 S
C2663 C2662 1.394 . S
C2663 C2664 1.516 . S
C2664 C2663 1.516 . S
C2664 C2665 1.502 . S
C2664 C2666 1.561 . S
C2664 C2667 1.526 . S
C2665 H2649 0.959 . S
C2665 H2650 0.959 . S
C2665 H2651 0.961 . S
C2665 C2664 1.502 . S
C2666 H2652 0.960 . S
C2666 H2653 0.961 . S
C2666 H2654 0.959 . S
C2666 C2664 1.561 . S
C2667 C2664 1.526 . S
C2667 C2668 1.396 . S
C2667 C2672 1.390 . S
C2668 C2662 1.465 . S
C2668 C2667 1.396 . S
C2668 C2669 1.399 . S
C2669 H2655 0.929 . S
C2669 C2668 1.399 . S
C2669 C2670 1.385 . S
C2670 H2656 0.931 . S
C2670 C2669 1.385 . S
C2670 C2671 1.389 . S
C2671 C2670 1.389 . S
C2671 C2672 1.387 . S
C2672 H2657 0.930 . S
C2672 C2667 1.390 . S
C2672 C2671 1.387 . S
H2673 C2685 0.930 . S
H2674 C2687 0.930 . S
H2675 C2688 0.930 . S
H2676 C2692 0.959 . S
H2677 C2692 0.959 . S
H2678 C2692 0.961 . S
H2679 C2693 0.960 . S
H2680 C2693 0.961 . S
H2681 C2693 0.959 . S
H2682 C2696 0.929 . S
H2683 C2697 0.931 . S
H2684 C2699 0.930 . S
C2685 H2673 0.930 . S
C2685 C2686 1.399 . S
C2685 C2690 1.399 . S
C2686 C2685 1.399 . S
C2686 C2687 1.376 . S
C2687 H2674 0.930 . S
C2687 C2686 1.376 . S
C2687 C2688 1.388 . S
C2688 H2675 0.930 . S
C2688 C2687 1.388 . S
C2688 C2689 1.390 . S
C2689 C2688 1.390 . S
C2689 C2690 1.394 . S
C2689 C2695 1.465 . S
C2690 C2685 1.399 . S
C2690 C2689 1.394 . S
C2690 C2691 1.516 . S
C2691 C2690 1.516 . S
C2691 C2692 1.502 . S
C2691 C2693 1.561 . S
C2691 C2694 1.526 . S
C2692 H2676 0.959 . S
C2692 H2677 0.959 . S
C2692 H2678 0.961 . S
C2692 C2691 1.502 . S
C2693 H2679 0.960 . S
C2693 H2680 0.961 . S
C2693 H2681 0.959 . S
C2693 C2691 1.561 . S
C2694 C2691 1.526 . S
C2694 C2695 1.396 . S
C2694 C2699 1.390 . S
C2695 C2689 1.465 . S
C2695 C2694 1.396 . S
C2695 C2696 1.399 . S
C2696 H2682 0.929 . S
C2696 C2695 1.399 . S
C2696 C2697 1.385 . S
C2697 H2683 0.931 . S
C2697 C2696 1.385 . S
C2697 C2698 1.389 . S
C2698 C2697 1.389 . S
C2698 C2699 1.387 . S
C2699 H2684 0.930 . S
C2699 C2694 1.390 . S
C2699 C2698 1.387 . S
H2700 C2712 0.930 . S
H2701 C2714 0.930 . S
H2702 C2715 0.925 . S
H2703 C2719 0.959 . S
H2704 C2719 0.959 . S
H2705 C2719 0.961 . S
H2706 C2720 0.960 . S
H2707 C2720 0.961 . S
H2708 C2720 0.959 . S
H2709 C2723 0.929 . S
H2710 C2724 0.931 . S
H2711 C2726 0.930 . S
C2712 H2700 0.930 . S
C2712 C2713 1.399 1_545 S
C2712 C2717 1.399 . S
C2713 C2712 1.399 1_565 S
C2713 C2714 1.376 . S
C2714 H2701 0.930 . S
C2714 C2713 1.376 . S
C2714 C2715 1.388 1_565 S
C2715 H2702 0.925 . S
C2715 C2714 1.388 1_545 S
C2715 C2716 1.390 . S
C2716 C2715 1.390 . S
C2716 C2717 1.394 . S
C2716 C2722 1.465 . S
C2717 C2712 1.399 . S
C2717 C2716 1.394 . S
C2717 C2718 1.516 . S
C2718 C2717 1.516 . S
C2718 C2719 1.502 . S
C2718 C2720 1.561 . S
C2718 C2721 1.526 . S
C2719 H2703 0.959 . S
C2719 H2704 0.959 . S
C2719 H2705 0.961 . S
C2719 C2718 1.502 . S
C2720 H2706 0.960 . S
C2720 H2707 0.961 . S
C2720 H2708 0.959 . S
C2720 C2718 1.561 . S
C2721 C2718 1.526 . S
C2721 C2722 1.396 . S
C2721 C2726 1.390 . S
C2722 C2716 1.465 . S
C2722 C2721 1.396 . S
C2722 C2723 1.399 . S
C2723 H2709 0.929 . S
C2723 C2722 1.399 . S
C2723 C2724 1.385 . S
C2724 H2710 0.931 . S
C2724 C2723 1.385 . S
C2724 C2725 1.389 . S
C2725 C2724 1.389 . S
C2725 C2726 1.387 . S
C2726 H2711 0.930 . S
C2726 C2721 1.390 . S
C2726 C2725 1.387 . S
H2727 C2739 0.930 . S
H2728 C2741 0.930 . S
H2729 C2742 0.930 . S
H2730 C2746 0.959 . S
H2731 C2746 0.959 . S
H2732 C2746 0.961 . S
H2733 C2747 0.960 . S
H2734 C2747 0.961 . S
H2735 C2747 0.959 . S
H2736 C2750 0.929 . S
H2737 C2751 0.931 . S
H2738 C2753 0.930 . S
C2739 H2727 0.930 . S
C2739 C2740 1.399 . S
C2739 C2744 1.399 . S
C2740 C2739 1.399 . S
C2740 C2741 1.376 . S
C2741 H2728 0.930 . S
C2741 C2740 1.376 . S
C2741 C2742 1.388 . S
C2742 H2729 0.930 . S
C2742 C2741 1.388 . S
C2742 C2743 1.390 . S
C2743 C2742 1.390 . S
C2743 C2744 1.394 . S
C2743 C2749 1.465 . S
C2744 C2739 1.399 . S
C2744 C2743 1.394 . S
C2744 C2745 1.516 . S
C2745 C2744 1.516 . S
C2745 C2746 1.502 . S
C2745 C2747 1.561 . S
C2745 C2748 1.526 . S
C2746 H2730 0.959 . S
C2746 H2731 0.959 . S
C2746 H2732 0.961 . S
C2746 C2745 1.502 . S
C2747 H2733 0.960 . S
C2747 H2734 0.961 . S
C2747 H2735 0.959 . S
C2747 C2745 1.561 . S
C2748 C2745 1.526 . S
C2748 C2749 1.396 . S
C2748 C2753 1.390 . S
C2749 C2743 1.465 . S
C2749 C2748 1.396 . S
C2749 C2750 1.399 . S
C2750 H2736 0.929 . S
C2750 C2749 1.399 . S
C2750 C2751 1.385 . S
C2751 H2737 0.931 . S
C2751 C2750 1.385 . S
C2751 C2752 1.389 . S
C2752 C2751 1.389 . S
C2752 C2753 1.387 . S
C2753 H2738 0.930 . S
C2753 C2748 1.390 . S
C2753 C2752 1.387 . S
H2754 C2766 0.930 . S
H2755 C2768 0.930 . S
H2756 C2769 0.930 . S
H2757 C2773 0.959 . S
H2758 C2773 0.959 . S
H2759 C2773 0.961 . S
H2760 C2774 0.960 . S
H2761 C2774 0.961 . S
H2762 C2774 0.959 . S
H2763 C2777 0.929 . S
H2764 C2778 0.931 . S
H2765 C2780 0.930 . S
C2766 H2754 0.930 . S
C2766 C2767 1.399 . S
C2766 C2771 1.399 . S
C2767 C2766 1.399 . S
C2767 C2768 1.376 . S
C2768 H2755 0.930 . S
C2768 C2767 1.376 . S
C2768 C2769 1.388 . S
C2769 H2756 0.930 . S
C2769 C2768 1.388 . S
C2769 C2770 1.390 . S
C2770 C2769 1.390 . S
C2770 C2771 1.394 . S
C2770 C2776 1.465 . S
C2771 C2766 1.399 . S
C2771 C2770 1.394 . S
C2771 C2772 1.516 . S
C2772 C2771 1.516 . S
C2772 C2773 1.502 . S
C2772 C2774 1.561 . S
C2772 C2775 1.526 . S
C2773 H2757 0.959 . S
C2773 H2758 0.959 . S
C2773 H2759 0.961 . S
C2773 C2772 1.502 . S
C2774 H2760 0.960 . S
C2774 H2761 0.961 . S
C2774 H2762 0.959 . S
C2774 C2772 1.561 . S
C2775 C2772 1.526 . S
C2775 C2776 1.396 . S
C2775 C2780 1.390 . S
C2776 C2770 1.465 . S
C2776 C2775 1.396 . S
C2776 C2777 1.399 . S
C2777 H2763 0.929 . S
C2777 C2776 1.399 . S
C2777 C2778 1.385 . S
C2778 H2764 0.931 . S
C2778 C2777 1.385 . S
C2778 C2779 1.389 . S
C2779 C2778 1.389 . S
C2779 C2780 1.387 . S
C2780 H2765 0.930 . S
C2780 C2775 1.390 . S
C2780 C2779 1.387 . S
H2781 C2793 0.930 . S
H2782 C2795 0.930 . S
H2783 C2796 0.930 . S
H2784 C2800 0.959 . S
H2785 C2800 0.959 . S
H2786 C2800 0.961 . S
H2787 C2801 0.960 . S
H2788 C2801 0.961 . S
H2789 C2801 0.959 . S
H2790 C2804 0.929 . S
H2791 C2805 0.931 . S
H2792 C2807 0.930 . S
C2793 H2781 0.930 . S
C2793 C2794 1.399 . S
C2793 C2798 1.399 . S
C2794 C2793 1.399 . S
C2794 C2795 1.376 . S
C2795 H2782 0.930 . S
C2795 C2794 1.376 . S
C2795 C2796 1.388 . S
C2796 H2783 0.930 . S
C2796 C2795 1.388 . S
C2796 C2797 1.390 . S
C2797 C2796 1.390 . S
C2797 C2798 1.394 . S
C2797 C2803 1.465 . S
C2798 C2793 1.399 . S
C2798 C2797 1.394 . S
C2798 C2799 1.516 . S
C2799 C2798 1.516 . S
C2799 C2800 1.502 . S
C2799 C2801 1.561 . S
C2799 C2802 1.526 . S
C2800 H2784 0.959 . S
C2800 H2785 0.959 . S
C2800 H2786 0.961 . S
C2800 C2799 1.502 . S
C2801 H2787 0.960 . S
C2801 H2788 0.961 . S
C2801 H2789 0.959 . S
C2801 C2799 1.561 . S
C2802 C2799 1.526 . S
C2802 C2803 1.396 . S
C2802 C2807 1.390 . S
C2803 C2797 1.465 . S
C2803 C2802 1.396 . S
C2803 C2804 1.399 . S
C2804 H2790 0.929 . S
C2804 C2803 1.399 . S
C2804 C2805 1.385 . S
C2805 H2791 0.931 . S
C2805 C2804 1.385 . S
C2805 C2806 1.389 . S
C2806 C2805 1.389 . S
C2806 C2807 1.387 . S
C2807 H2792 0.930 . S
C2807 C2802 1.390 . S
C2807 C2806 1.387 . S
H2808 C2820 0.930 . S
H2809 C2822 0.930 . S
H2810 C2823 0.930 . S
H2811 C2827 0.959 . S
H2812 C2827 0.959 . S
H2813 C2827 0.961 . S
H2814 C2828 0.960 . S
H2815 C2828 0.961 . S
H2816 C2828 0.959 . S
H2817 C2831 0.929 1_545 S
H2818 C2832 0.931 1_545 S
H2819 C2834 0.930 . S
C2820 H2808 0.930 . S
C2820 C2821 1.399 . S
C2820 C2825 1.399 . S
C2821 C2820 1.399 . S
C2821 C2822 1.376 . S
C2822 H2809 0.930 . S
C2822 C2821 1.376 . S
C2822 C2823 1.388 . S
C2823 H2810 0.930 . S
C2823 C2822 1.388 . S
C2823 C2824 1.390 . S
C2824 C2823 1.390 . S
C2824 C2825 1.394 . S
C2824 C2830 1.465 . S
C2825 C2820 1.399 . S
C2825 C2824 1.394 . S
C2825 C2826 1.516 . S
C2826 C2825 1.516 . S
C2826 C2827 1.502 . S
C2826 C2828 1.561 . S
C2826 C2829 1.526 . S
C2827 H2811 0.959 . S
C2827 H2812 0.959 . S
C2827 H2813 0.961 . S
C2827 C2826 1.502 . S
C2828 H2814 0.960 . S
C2828 H2815 0.961 . S
C2828 H2816 0.959 . S
C2828 C2826 1.561 . S
C2829 C2826 1.526 . S
C2829 C2830 1.396 . S
C2829 C2834 1.390 . S
C2830 C2824 1.465 . S
C2830 C2829 1.396 . S
C2830 C2831 1.399 . S
C2831 H2817 0.929 1_565 S
C2831 C2830 1.399 . S
C2831 C2832 1.385 . S
C2832 H2818 0.931 1_565 S
C2832 C2831 1.385 . S
C2832 C2833 1.389 . S
C2833 C2832 1.389 . S
C2833 C2834 1.387 . S
C2834 H2819 0.930 . S
C2834 C2829 1.390 . S
C2834 C2833 1.387 . S
H2835 C2847 0.930 . S
H2836 C2849 0.930 . S
H2837 C2850 0.930 . S
H2838 C2854 0.959 . S
H2839 C2854 0.959 . S
H2840 C2854 0.961 . S
H2841 C2855 0.960 . S
H2842 C2855 0.961 1_655 S
H2843 C2855 0.959 1_655 S
H2844 C2858 0.929 . S
H2845 C2859 0.931 . S
H2846 C2861 0.930 . S
C2847 H2835 0.930 . S
C2847 C2848 1.399 . S
C2847 C2852 1.399 . S
C2848 C2847 1.399 . S
C2848 C2849 1.376 . S
C2849 H2836 0.930 . S
C2849 C2848 1.376 . S
C2849 C2850 1.388 . S
C2850 H2837 0.930 . S
C2850 C2849 1.388 . S
C2850 C2851 1.390 . S
C2851 C2850 1.390 . S
C2851 C2852 1.394 . S
C2851 C2857 1.465 . S
C2852 C2847 1.399 . S
C2852 C2851 1.394 . S
C2852 C2853 1.516 . S
C2853 C2852 1.516 . S
C2853 C2854 1.502 . S
C2853 C2855 1.561 . S
C2853 C2856 1.526 . S
C2854 H2838 0.959 . S
C2854 H2839 0.959 . S
C2854 H2840 0.961 . S
C2854 C2853 1.502 . S
C2855 H2841 0.960 . S
C2855 H2842 0.961 1_455 S
C2855 H2843 0.959 1_455 S
C2855 C2853 1.561 . S
C2856 C2853 1.526 . S
C2856 C2857 1.396 . S
C2856 C2861 1.390 . S
C2857 C2851 1.465 . S
C2857 C2856 1.396 . S
C2857 C2858 1.399 . S
C2858 H2844 0.929 . S
C2858 C2857 1.399 . S
C2858 C2859 1.385 . S
C2859 H2845 0.931 . S
C2859 C2858 1.385 . S
C2859 C2860 1.389 . S
C2860 C2859 1.389 . S
C2860 C2861 1.387 . S
C2861 H2846 0.930 . S
C2861 C2856 1.390 . S
C2861 C2860 1.387 . S
H2862 C2874 0.930 . S
H2863 C2876 0.930 . S
H2864 C2877 0.930 . S
H2865 C2881 0.959 . S
H2866 C2881 0.959 . S
H2867 C2881 0.961 . S
H2868 C2882 0.960 . S
H2869 C2882 0.961 . S
H2870 C2882 0.959 . S
H2871 C2885 0.929 . S
H2872 C2886 0.931 . S
H2873 C2888 0.930 . S
C2874 H2862 0.930 . S
C2874 C2875 1.399 . S
C2874 C2879 1.399 . S
C2875 C2874 1.399 . S
C2875 C2876 1.376 . S
C2876 H2863 0.930 . S
C2876 C2875 1.376 . S
C2876 C2877 1.388 . S
C2877 H2864 0.930 . S
C2877 C2876 1.388 . S
C2877 C2878 1.390 . S
C2878 C2877 1.390 . S
C2878 C2879 1.394 . S
C2878 C2884 1.465 . S
C2879 C2874 1.399 . S
C2879 C2878 1.394 . S
C2879 C2880 1.516 . S
C2880 C2879 1.516 . S
C2880 C2881 1.502 . S
C2880 C2882 1.561 . S
C2880 C2883 1.526 . S
C2881 H2865 0.959 . S
C2881 H2866 0.959 . S
C2881 H2867 0.961 . S
C2881 C2880 1.502 . S
C2882 H2868 0.960 . S
C2882 H2869 0.961 . S
C2882 H2870 0.959 . S
C2882 C2880 1.561 . S
C2883 C2880 1.526 . S
C2883 C2884 1.396 . S
C2883 C2888 1.390 . S
C2884 C2878 1.465 . S
C2884 C2883 1.396 . S
C2884 C2885 1.399 . S
C2885 H2871 0.929 . S
C2885 C2884 1.399 . S
C2885 C2886 1.385 . S
C2886 H2872 0.931 . S
C2886 C2885 1.385 . S
C2886 C2887 1.389 . S
C2887 C2886 1.389 . S
C2887 C2888 1.387 . S
C2888 H2873 0.930 . S
C2888 C2883 1.390 . S
C2888 C2887 1.387 . S
H2889 C2901 0.930 . S
H2890 C2903 0.930 . S
H2891 C2904 0.930 . S
H2892 C2908 0.959 . S
H2893 C2908 0.959 . S
H2894 C2908 0.961 . S
H2895 C2909 0.960 . S
H2896 C2909 0.980 . S
H2897 C2909 0.959 . S
H2898 C2912 0.929 . S
H2899 C2913 0.931 . S
H2900 C2915 0.930 1_455 S
C2901 H2889 0.930 . S
C2901 C2902 1.399 . S
C2901 C2906 1.399 . S
C2902 C2901 1.399 . S
C2902 C2903 1.376 . S
C2903 H2890 0.930 . S
C2903 C2902 1.376 . S
C2903 C2904 1.388 . S
C2904 H2891 0.930 . S
C2904 C2903 1.388 . S
C2904 C2905 1.390 . S
C2905 C2904 1.390 . S
C2905 C2906 1.394 . S
C2905 C2911 1.465 . S
C2906 C2901 1.399 . S
C2906 C2905 1.394 . S
C2906 C2907 1.516 . S
C2907 C2906 1.516 . S
C2907 C2908 1.502 1_655 S
C2907 C2909 1.561 . S
C2907 C2910 1.526 . S
C2908 H2892 0.959 . S
C2908 H2893 0.959 . S
C2908 H2894 0.961 . S
C2908 C2907 1.502 1_455 S
C2909 H2895 0.960 . S
C2909 H2896 0.980 . S
C2909 H2897 0.959 . S
C2909 C2907 1.561 . S
C2910 C2907 1.526 . S
C2910 C2911 1.396 . S
C2910 C2915 1.390 . S
C2911 C2905 1.465 . S
C2911 C2910 1.396 . S
C2911 C2912 1.399 . S
C2912 H2898 0.929 . S
C2912 C2911 1.399 . S
C2912 C2913 1.385 . S
C2913 H2899 0.931 . S
C2913 C2912 1.385 . S
C2913 C2914 1.389 . S
C2914 C2913 1.389 . S
C2914 C2915 1.387 . S
C2915 H2900 0.930 1_655 S
C2915 C2910 1.390 . S
C2915 C2914 1.387 . S
H2916 C2928 0.930 . S
H2917 C2930 0.930 . S
H2918 C2931 0.930 . S
H2919 C2935 0.959 . S
H2920 C2935 0.959 . S
H2921 C2935 0.961 . S
H2922 C2936 0.960 . S
H2923 C2936 0.961 . S
H2924 C2936 0.959 . S
H2925 C2939 0.929 . S
H2926 C2940 0.931 . S
H2927 C2942 0.930 . S
C2928 H2916 0.930 . S
C2928 C2929 1.399 . S
C2928 C2933 1.399 . S
C2929 C2928 1.399 . S
C2929 C2930 1.376 . S
C2930 H2917 0.930 . S
C2930 C2929 1.376 . S
C2930 C2931 1.388 . S
C2931 H2918 0.930 . S
C2931 C2930 1.388 . S
C2931 C2932 1.390 . S
C2932 C2931 1.390 . S
C2932 C2933 1.394 . S
C2932 C2938 1.465 . S
C2933 C2928 1.399 . S
C2933 C2932 1.394 . S
C2933 C2934 1.516 . S
C2934 C2933 1.516 . S
C2934 C2935 1.502 . S
C2934 C2936 1.561 . S
C2934 C2937 1.526 . S
C2935 H2919 0.959 . S
C2935 H2920 0.959 . S
C2935 H2921 0.961 . S
C2935 C2934 1.502 . S
C2936 H2922 0.960 . S
C2936 H2923 0.961 . S
C2936 H2924 0.959 . S
C2936 C2934 1.561 . S
C2937 C2934 1.526 . S
C2937 C2938 1.396 . S
C2937 C2942 1.390 . S
C2938 C2932 1.465 . S
C2938 C2937 1.396 . S
C2938 C2939 1.399 . S
C2939 H2925 0.929 . S
C2939 C2938 1.399 . S
C2939 C2940 1.385 . S
C2940 H2926 0.931 . S
C2940 C2939 1.385 . S
C2940 C2941 1.389 . S
C2941 C2940 1.389 . S
C2941 C2942 1.387 . S
C2942 H2927 0.930 . S
C2942 C2937 1.390 . S
C2942 C2941 1.387 . S
H2943 C2955 0.930 . S
H2944 C2957 0.930 . S
H2945 C2958 0.930 . S
H2946 C2962 0.959 . S
H2947 C2962 0.959 1_565 S
H2948 C2962 0.961 1_565 S
H2949 C2963 0.960 1_565 S
H2950 C2963 0.961 1_565 S
H2951 C2963 0.959 . S
H2952 C2966 0.929 . S
H2953 C2967 0.931 . S
H2954 C2969 0.930 1_565 S
C2955 H2943 0.930 . S
C2955 C2956 1.399 . S
C2955 C2960 1.399 . S
C2956 C2955 1.399 . S
C2956 C2957 1.376 . S
C2957 H2944 0.930 . S
C2957 C2956 1.376 . S
C2957 C2958 1.388 . S
C2958 H2945 0.930 . S
C2958 C2957 1.388 . S
C2958 C2959 1.390 . S
C2959 C2958 1.390 . S
C2959 C2960 1.394 . S
C2959 C2965 1.465 . S
C2960 C2955 1.399 . S
C2960 C2959 1.394 . S
C2960 C2961 1.516 . S
C2961 C2960 1.516 . S
C2961 C2962 1.502 . S
C2961 C2963 1.561 . S
C2961 C2964 1.526 . S
C2962 H2946 0.959 . S
C2962 H2947 0.959 1_545 S
C2962 H2948 0.961 1_545 S
C2962 C2961 1.502 . S
C2963 H2949 0.960 1_545 S
C2963 H2950 0.961 1_545 S
C2963 H2951 0.959 . S
C2963 C2961 1.561 . S
C2964 C2961 1.526 . S
C2964 C2965 1.396 . S
C2964 C2969 1.390 . S
C2965 C2959 1.465 . S
C2965 C2964 1.396 . S
C2965 C2966 1.399 . S
C2966 H2952 0.929 . S
C2966 C2965 1.399 . S
C2966 C2967 1.385 . S
C2967 H2953 0.931 . S
C2967 C2966 1.385 . S
C2967 C2968 1.389 . S
C2968 C2967 1.389 . S
C2968 C2969 1.387 . S
C2969 H2954 0.930 1_545 S
C2969 C2964 1.390 . S
C2969 C2968 1.387 . S
H2970 C2982 0.930 . S
H2971 C2984 0.930 . S
H2972 C2985 0.930 . S
H2973 C2989 0.959 . S
H2974 C2989 0.959 . S
H2975 C2989 0.961 . S
H2976 C2990 0.960 . S
H2977 C2990 0.961 . S
H2978 C2990 0.959 . S
H2979 C2993 0.929 . S
H2980 C2994 0.931 . S
H2981 C2996 0.930 . S
C2982 H2970 0.930 . S
C2982 C2983 1.399 . S
C2982 C2987 1.399 . S
C2983 C2982 1.399 . S
C2983 C2984 1.376 . S
C2984 H2971 0.930 . S
C2984 C2983 1.376 . S
C2984 C2985 1.388 . S
C2985 H2972 0.930 . S
C2985 C2984 1.388 . S
C2985 C2986 1.390 . S
C2986 C2985 1.390 . S
C2986 C2987 1.394 . S
C2986 C2992 1.465 . S
C2987 C2982 1.399 . S
C2987 C2986 1.394 . S
C2987 C2988 1.516 . S
C2988 C2987 1.516 . S
C2988 C2989 1.502 . S
C2988 C2990 1.561 . S
C2988 C2991 1.526 . S
C2989 H2973 0.959 . S
C2989 H2974 0.959 . S
C2989 H2975 0.961 . S
C2989 C2988 1.502 . S
C2990 H2976 0.960 . S
C2990 H2977 0.961 . S
C2990 H2978 0.959 . S
C2990 C2988 1.561 . S
C2991 C2988 1.526 . S
C2991 C2992 1.396 . S
C2991 C2996 1.390 . S
C2992 C2986 1.465 . S
C2992 C2991 1.396 . S
C2992 C2993 1.399 . S
C2993 H2979 0.929 . S
C2993 C2992 1.399 . S
C2993 C2994 1.385 . S
C2994 H2980 0.931 . S
C2994 C2993 1.385 . S
C2994 C2995 1.389 . S
C2995 C2994 1.389 . S
C2995 C2996 1.387 . S
C2996 H2981 0.930 . S
C2996 C2991 1.390 . S
C2996 C2995 1.387 . S
H2997 C3009 0.930 . S
H2998 C3011 0.930 . S
H2999 C3012 0.930 . S
H3000 C3016 0.959 . S
H3001 C3016 0.959 . S
H3002 C3016 0.961 . S
H3003 C3017 0.960 . S
H3004 C3017 0.961 . S
H3005 C3017 0.959 . S
H3006 C3020 0.929 . S
H3007 C3021 0.931 . S
H3008 C3023 0.930 . S
C3009 H2997 0.930 . S
C3009 C3010 1.399 . S
C3009 C3014 1.399 . S
C3010 C3009 1.399 . S
C3010 C3011 1.376 . S
C3011 H2998 0.930 . S
C3011 C3010 1.376 . S
C3011 C3012 1.388 . S
C3012 H2999 0.930 . S
C3012 C3011 1.388 . S
C3012 C3013 1.390 . S
C3013 C3012 1.390 . S
C3013 C3014 1.394 . S
C3013 C3019 1.465 . S
C3014 C3009 1.399 . S
C3014 C3013 1.394 . S
C3014 C3015 1.516 . S
C3015 C3014 1.516 . S
C3015 C3016 1.502 . S
C3015 C3017 1.561 . S
C3015 C3018 1.526 . S
C3016 H3000 0.959 . S
C3016 H3001 0.959 . S
C3016 H3002 0.961 . S
C3016 C3015 1.502 . S
C3017 H3003 0.960 . S
C3017 H3004 0.961 . S
C3017 H3005 0.959 . S
C3017 C3015 1.561 . S
C3018 C3015 1.526 . S
C3018 C3019 1.396 . S
C3018 C3023 1.390 . S
C3019 C3013 1.465 . S
C3019 C3018 1.396 . S
C3019 C3020 1.399 . S
C3020 H3006 0.929 . S
C3020 C3019 1.399 . S
C3020 C3021 1.385 . S
C3021 H3007 0.931 . S
C3021 C3020 1.385 . S
C3021 C3022 1.389 . S
C3022 C3021 1.389 . S
C3022 C3023 1.387 . S
C3023 H3008 0.930 . S
C3023 C3018 1.390 . S
C3023 C3022 1.387 . S
H3024 C3036 0.930 . S
H3025 C3038 0.930 . S
H3026 C3039 0.930 . S
H3027 C3043 0.959 . S
H3028 C3043 0.959 . S
H3029 C3043 0.961 . S
H3030 C3044 0.960 . S
H3031 C3044 0.961 . S
H3032 C3044 0.959 . S
H3033 C3047 0.929 . S
H3034 C3048 0.931 . S
H3035 C3050 0.930 . S
C3036 H3024 0.930 . S
C3036 C3037 1.399 . S
C3036 C3041 1.399 . S
C3037 C3036 1.399 . S
C3037 C3038 1.376 . S
C3038 H3025 0.930 . S
C3038 C3037 1.376 . S
C3038 C3039 1.388 . S
C3039 H3026 0.930 . S
C3039 C3038 1.388 . S
C3039 C3040 1.390 . S
C3040 C3039 1.390 . S
C3040 C3041 1.394 . S
C3040 C3046 1.465 . S
C3041 C3036 1.399 . S
C3041 C3040 1.394 . S
C3041 C3042 1.516 . S
C3042 C3041 1.516 . S
C3042 C3043 1.502 . S
C3042 C3044 1.561 . S
C3042 C3045 1.526 . S
C3043 H3027 0.959 . S
C3043 H3028 0.959 . S
C3043 H3029 0.961 . S
C3043 C3042 1.502 . S
C3044 H3030 0.960 . S
C3044 H3031 0.961 . S
C3044 H3032 0.959 . S
C3044 C3042 1.561 . S
C3045 C3042 1.526 . S
C3045 C3046 1.396 . S
C3045 C3050 1.390 . S
C3046 C3040 1.465 . S
C3046 C3045 1.396 . S
C3046 C3047 1.399 . S
C3047 H3033 0.929 . S
C3047 C3046 1.399 . S
C3047 C3048 1.385 . S
C3048 H3034 0.931 . S
C3048 C3047 1.385 . S
C3048 C3049 1.389 . S
C3049 C3048 1.389 . S
C3049 C3050 1.387 . S
C3050 H3035 0.930 . S
C3050 C3045 1.390 . S
C3050 C3049 1.387 . S
H3051 C3063 0.930 . S
H3052 C3065 0.930 . S
H3053 C3066 0.930 . S
H3054 C3070 0.959 . S
H3055 C3070 0.959 . S
H3056 C3070 0.961 . S
H3057 C3071 0.960 . S
H3058 C3071 0.961 . S
H3059 C3071 0.959 . S
H3060 C3074 0.929 . S
H3061 C3075 0.931 . S
H3062 C3077 0.930 . S
C3063 H3051 0.930 . S
C3063 C3064 1.399 . S
C3063 C3068 1.399 . S
C3064 C3063 1.399 . S
C3064 C3065 1.376 . S
C3065 H3052 0.930 . S
C3065 C3064 1.376 . S
C3065 C3066 1.388 . S
C3066 H3053 0.930 . S
C3066 C3065 1.388 . S
C3066 C3067 1.390 . S
C3067 C3066 1.390 . S
C3067 C3068 1.394 . S
C3067 C3073 1.465 . S
C3068 C3063 1.399 . S
C3068 C3067 1.394 . S
C3068 C3069 1.516 . S
C3069 C3068 1.516 . S
C3069 C3070 1.502 . S
C3069 C3071 1.561 . S
C3069 C3072 1.526 . S
C3070 H3054 0.959 . S
C3070 H3055 0.959 . S
C3070 H3056 0.961 . S
C3070 C3069 1.502 . S
C3071 H3057 0.960 . S
C3071 H3058 0.961 . S
C3071 H3059 0.959 . S
C3071 C3069 1.561 . S
C3072 C3069 1.526 . S
C3072 C3073 1.396 . S
C3072 C3077 1.390 . S
C3073 C3067 1.465 . S
C3073 C3072 1.396 . S
C3073 C3074 1.399 . S
C3074 H3060 0.929 . S
C3074 C3073 1.399 . S
C3074 C3075 1.385 . S
C3075 H3061 0.931 . S
C3075 C3074 1.385 . S
C3075 C3076 1.389 . S
C3076 C3075 1.389 . S
C3076 C3077 1.387 . S
C3077 H3062 0.930 . S
C3077 C3072 1.390 . S
C3077 C3076 1.387 . S
H3078 C3090 0.930 . S
H3079 C3092 0.930 . S
H3080 C3093 0.930 . S
H3081 C3097 0.959 . S
H3082 C3097 0.959 . S
H3083 C3097 0.961 . S
H3084 C3098 0.960 . S
H3085 C3098 0.961 . S
H3086 C3098 0.959 . S
H3087 C3101 0.929 . S
H3088 C3102 0.931 . S
H3089 C3104 0.930 . S
C3090 H3078 0.930 . S
C3090 C3091 1.399 . S
C3090 C3095 1.399 . S
C3091 C3090 1.399 . S
C3091 C3092 1.376 . S
C3092 H3079 0.930 . S
C3092 C3091 1.376 . S
C3092 C3093 1.388 . S
C3093 H3080 0.930 . S
C3093 C3092 1.388 . S
C3093 C3094 1.390 . S
C3094 C3093 1.390 . S
C3094 C3095 1.394 . S
C3094 C3100 1.465 . S
C3095 C3090 1.399 . S
C3095 C3094 1.394 . S
C3095 C3096 1.516 . S
C3096 C3095 1.516 . S
C3096 C3097 1.502 . S
C3096 C3098 1.561 . S
C3096 C3099 1.526 . S
C3097 H3081 0.959 . S
C3097 H3082 0.959 . S
C3097 H3083 0.961 . S
C3097 C3096 1.502 . S
C3098 H3084 0.960 . S
C3098 H3085 0.961 . S
C3098 H3086 0.959 . S
C3098 C3096 1.561 . S
C3099 C3096 1.526 . S
C3099 C3100 1.396 . S
C3099 C3104 1.390 . S
C3100 C3094 1.465 . S
C3100 C3099 1.396 . S
C3100 C3101 1.399 . S
C3101 H3087 0.929 . S
C3101 C3100 1.399 . S
C3101 C3102 1.385 . S
C3102 H3088 0.931 . S
C3102 C3101 1.385 . S
C3102 C3103 1.389 . S
C3103 C3102 1.389 . S
C3103 C3104 1.387 . S
C3104 H3089 0.930 . S
C3104 C3099 1.390 . S
C3104 C3103 1.387 . S
H3105 C3117 0.930 . S
H3106 C3119 0.930 . S
H3107 C3120 0.930 . S
H3108 C3124 0.959 . S
H3109 C3124 0.959 . S
H3110 C3124 0.961 . S
H3111 C3125 0.960 . S
H3112 C3125 0.961 . S
H3113 C3125 0.959 . S
H3114 C3128 0.929 . S
H3115 C3129 0.931 . S
H3116 C3131 0.930 . S
C3117 H3105 0.930 . S
C3117 C3118 1.399 . S
C3117 C3122 1.399 . S
C3118 C3117 1.399 . S
C3118 C3119 1.376 . S
C3119 H3106 0.930 . S
C3119 C3118 1.376 . S
C3119 C3120 1.388 . S
C3120 H3107 0.930 . S
C3120 C3119 1.388 . S
C3120 C3121 1.390 . S
C3121 C3120 1.390 . S
C3121 C3122 1.394 . S
C3121 C3127 1.465 . S
C3122 C3117 1.399 . S
C3122 C3121 1.394 . S
C3122 C3123 1.516 . S
C3123 C3122 1.516 . S
C3123 C3124 1.502 . S
C3123 C3125 1.561 . S
C3123 C3126 1.526 . S
C3124 H3108 0.959 . S
C3124 H3109 0.959 . S
C3124 H3110 0.961 . S
C3124 C3123 1.502 . S
C3125 H3111 0.960 . S
C3125 H3112 0.961 . S
C3125 H3113 0.959 . S
C3125 C3123 1.561 . S
C3126 C3123 1.526 . S
C3126 C3127 1.396 . S
C3126 C3131 1.390 . S
C3127 C3121 1.465 . S
C3127 C3126 1.396 . S
C3127 C3128 1.399 . S
C3128 H3114 0.929 . S
C3128 C3127 1.399 . S
C3128 C3129 1.385 . S
C3129 H3115 0.931 . S
C3129 C3128 1.385 . S
C3129 C3130 1.389 . S
C3130 C3129 1.389 . S
C3130 C3131 1.387 . S
C3131 H3116 0.930 . S
C3131 C3126 1.390 . S
C3131 C3130 1.387 . S
H3132 C3144 0.930 . S
H3133 C3146 0.930 . S
H3134 C3147 0.930 . S
H3135 C3151 0.959 . S
H3136 C3151 0.959 . S
H3137 C3151 0.961 . S
H3138 C3152 0.960 . S
H3139 C3152 0.961 . S
H3140 C3152 0.959 . S
H3141 C3155 0.929 . S
H3142 C3156 0.931 . S
H3143 C3158 0.930 . S
C3144 H3132 0.930 . S
C3144 C3145 1.399 . S
C3144 C3149 1.399 . S
C3145 C3144 1.399 . S
C3145 C3146 1.376 . S
C3146 H3133 0.930 . S
C3146 C3145 1.376 . S
C3146 C3147 1.388 . S
C3147 H3134 0.930 . S
C3147 C3146 1.388 . S
C3147 C3148 1.390 . S
C3148 C3147 1.390 . S
C3148 C3149 1.394 . S
C3148 C3154 1.465 . S
C3149 C3144 1.399 . S
C3149 C3148 1.394 . S
C3149 C3150 1.516 . S
C3150 C3149 1.516 . S
C3150 C3151 1.502 . S
C3150 C3152 1.561 . S
C3150 C3153 1.526 . S
C3151 H3135 0.959 . S
C3151 H3136 0.959 . S
C3151 H3137 0.961 . S
C3151 C3150 1.502 . S
C3152 H3138 0.960 . S
C3152 H3139 0.961 . S
C3152 H3140 0.959 . S
C3152 C3150 1.561 . S
C3153 C3150 1.526 . S
C3153 C3154 1.396 . S
C3153 C3158 1.390 . S
C3154 C3148 1.465 . S
C3154 C3153 1.396 . S
C3154 C3155 1.399 . S
C3155 H3141 0.929 . S
C3155 C3154 1.399 . S
C3155 C3156 1.385 . S
C3156 H3142 0.931 . S
C3156 C3155 1.385 . S
C3156 C3157 1.389 . S
C3157 C3156 1.389 . S
C3157 C3158 1.387 . S
C3158 H3143 0.930 . S
C3158 C3153 1.390 . S
C3158 C3157 1.387 . S
H3159 C3171 0.930 . S
H3160 C3173 0.930 . S
H3161 C3174 0.930 . S
H3162 C3178 0.959 . S
H3163 C3178 0.959 . S
H3164 C3178 0.961 . S
H3165 C3179 0.960 . S
H3166 C3179 0.961 . S
H3167 C3179 0.959 . S
H3168 C3182 0.929 . S
H3169 C3183 0.931 . S
H3170 C3185 0.930 . S
C3171 H3159 0.930 . S
C3171 C3172 1.399 . S
C3171 C3176 1.399 . S
C3172 C3171 1.399 . S
C3172 C3173 1.376 . S
C3173 H3160 0.930 . S
C3173 C3172 1.376 . S
C3173 C3174 1.388 . S
C3174 H3161 0.930 . S
C3174 C3173 1.388 . S
C3174 C3175 1.390 . S
C3175 C3174 1.390 . S
C3175 C3176 1.394 . S
C3175 C3181 1.465 . S
C3176 C3171 1.399 . S
C3176 C3175 1.394 . S
C3176 C3177 1.516 . S
C3177 C3176 1.516 . S
C3177 C3178 1.502 . S
C3177 C3179 1.561 . S
C3177 C3180 1.526 . S
C3178 H3162 0.959 . S
C3178 H3163 0.959 . S
C3178 H3164 0.961 . S
C3178 C3177 1.502 . S
C3179 H3165 0.960 . S
C3179 H3166 0.961 . S
C3179 H3167 0.959 . S
C3179 C3177 1.561 . S
C3180 C3177 1.526 . S
C3180 C3181 1.396 . S
C3180 C3185 1.390 . S
C3181 C3175 1.465 . S
C3181 C3180 1.396 . S
C3181 C3182 1.399 . S
C3182 H3168 0.929 . S
C3182 C3181 1.399 . S
C3182 C3183 1.385 . S
C3183 H3169 0.931 . S
C3183 C3182 1.385 . S
C3183 C3184 1.389 . S
C3184 C3183 1.389 . S
C3184 C3185 1.387 . S
C3185 H3170 0.930 . S
C3185 C3180 1.390 . S
C3185 C3184 1.387 . S
H3186 C3198 0.930 . S
H3187 C3200 0.930 . S
H3188 C3201 0.930 . S
H3189 C3205 0.959 . S
H3190 C3205 0.959 . S
H3191 C3205 0.961 . S
H3192 C3206 0.960 . S
H3193 C3206 0.961 . S
H3194 C3206 0.959 . S
H3195 C3209 0.929 . S
H3196 C3210 0.931 . S
H3197 C3212 0.930 . S
C3198 H3186 0.930 . S
C3198 C3199 1.399 . S
C3198 C3203 1.399 . S
C3199 C3198 1.399 . S
C3199 C3200 1.376 . S
C3200 H3187 0.930 . S
C3200 C3199 1.376 . S
C3200 C3201 1.388 . S
C3201 H3188 0.930 . S
C3201 C3200 1.388 . S
C3201 C3202 1.390 . S
C3202 C3201 1.390 . S
C3202 C3203 1.394 . S
C3202 C3208 1.465 . S
C3203 C3198 1.399 . S
C3203 C3202 1.394 . S
C3203 C3204 1.516 . S
C3204 C3203 1.516 . S
C3204 C3205 1.502 . S
C3204 C3206 1.561 . S
C3204 C3207 1.526 . S
C3205 H3189 0.959 . S
C3205 H3190 0.959 . S
C3205 H3191 0.961 . S
C3205 C3204 1.502 . S
C3206 H3192 0.960 . S
C3206 H3193 0.961 . S
C3206 H3194 0.959 . S
C3206 C3204 1.561 . S
C3207 C3204 1.526 . S
C3207 C3208 1.396 . S
C3207 C3212 1.390 . S
C3208 C3202 1.465 . S
C3208 C3207 1.396 . S
C3208 C3209 1.399 . S
C3209 H3195 0.929 . S
C3209 C3208 1.399 . S
C3209 C3210 1.385 . S
C3210 H3196 0.931 . S
C3210 C3209 1.385 . S
C3210 C3211 1.389 . S
C3211 C3210 1.389 . S
C3211 C3212 1.387 . S
C3212 H3197 0.930 . S
C3212 C3207 1.390 . S
C3212 C3211 1.387 . S
H3213 C3225 0.930 . S
H3214 C3227 0.930 . S
H3215 C3228 0.930 . S
H3216 C3232 0.959 . S
H3217 C3232 0.959 . S
H3218 C3232 0.961 . S
H3219 C3233 0.960 . S
H3220 C3233 0.961 . S
H3221 C3233 0.959 . S
H3222 C3236 0.929 . S
H3223 C3237 0.931 . S
H3224 C3239 0.930 . S
C3225 H3213 0.930 . S
C3225 C3226 1.399 . S
C3225 C3230 1.399 . S
C3226 C3225 1.399 . S
C3226 C3227 1.376 . S
C3227 H3214 0.930 . S
C3227 C3226 1.376 . S
C3227 C3228 1.388 . S
C3228 H3215 0.930 . S
C3228 C3227 1.388 . S
C3228 C3229 1.390 . S
C3229 C3228 1.390 . S
C3229 C3230 1.394 . S
C3229 C3235 1.465 . S
C3230 C3225 1.399 . S
C3230 C3229 1.394 . S
C3230 C3231 1.516 . S
C3231 C3230 1.516 . S
C3231 C3232 1.502 . S
C3231 C3233 1.561 . S
C3231 C3234 1.526 . S
C3232 H3216 0.959 . S
C3232 H3217 0.959 . S
C3232 H3218 0.961 . S
C3232 C3231 1.502 . S
C3233 H3219 0.960 . S
C3233 H3220 0.961 . S
C3233 H3221 0.959 . S
C3233 C3231 1.561 . S
C3234 C3231 1.526 . S
C3234 C3235 1.396 . S
C3234 C3239 1.390 . S
C3235 C3229 1.465 . S
C3235 C3234 1.396 . S
C3235 C3236 1.399 . S
C3236 H3222 0.929 . S
C3236 C3235 1.399 . S
C3236 C3237 1.385 . S
C3237 H3223 0.931 . S
C3237 C3236 1.385 . S
C3237 C3238 1.389 . S
C3238 C3237 1.389 . S
C3238 C3239 1.387 . S
C3239 H3224 0.930 . S
C3239 C3234 1.390 . S
C3239 C3238 1.387 . S
H3240 C3252 0.930 . S
H3241 C3254 0.930 . S
H3242 C3255 0.930 . S
H3243 C3259 0.959 . S
H3244 C3259 0.959 . S
H3245 C3259 0.961 . S
H3246 C3260 0.960 . S
H3247 C3260 0.961 . S
H3248 C3260 0.959 . S
H3249 C3263 0.929 . S
H3250 C3264 0.931 . S
H3251 C3266 0.930 . S
C3252 H3240 0.930 . S
C3252 C3253 1.399 . S
C3252 C3257 1.399 . S
C3253 C3252 1.399 . S
C3253 C3254 1.376 . S
C3254 H3241 0.930 . S
C3254 C3253 1.376 . S
C3254 C3255 1.388 . S
C3255 H3242 0.930 . S
C3255 C3254 1.388 . S
C3255 C3256 1.390 . S
C3256 C3255 1.390 . S
C3256 C3257 1.394 . S
C3256 C3262 1.465 . S
C3257 C3252 1.399 . S
C3257 C3256 1.394 . S
C3257 C3258 1.516 . S
C3258 C3257 1.516 . S
C3258 C3259 1.502 . S
C3258 C3260 1.561 . S
C3258 C3261 1.526 . S
C3259 H3243 0.959 . S
C3259 H3244 0.959 . S
C3259 H3245 0.961 . S
C3259 C3258 1.502 . S
C3260 H3246 0.960 . S
C3260 H3247 0.961 . S
C3260 H3248 0.959 . S
C3260 C3258 1.561 . S
C3261 C3258 1.526 . S
C3261 C3262 1.396 . S
C3261 C3266 1.390 . S
C3262 C3256 1.465 . S
C3262 C3261 1.396 . S
C3262 C3263 1.399 . S
C3263 H3249 0.929 . S
C3263 C3262 1.399 . S
C3263 C3264 1.385 . S
C3264 H3250 0.931 . S
C3264 C3263 1.385 . S
C3264 C3265 1.389 . S
C3265 C3264 1.389 . S
C3265 C3266 1.387 . S
C3266 H3251 0.930 . S
C3266 C3261 1.390 . S
C3266 C3265 1.387 . S
H3267 C3279 0.930 . S
H3268 C3281 0.930 . S
H3269 C3282 0.930 . S
H3270 C3286 0.959 . S
H3271 C3286 0.959 . S
H3272 C3286 0.961 . S
H3273 C3287 0.960 . S
H3274 C3287 0.961 . S
H3275 C3287 0.959 . S
H3276 C3290 0.929 . S
H3277 C3291 0.931 . S
H3278 C3293 0.930 . S
C3279 H3267 0.930 . S
C3279 C3280 1.399 . S
C3279 C3284 1.399 . S
C3280 C3279 1.399 . S
C3280 C3281 1.376 . S
C3281 H3268 0.930 . S
C3281 C3280 1.376 . S
C3281 C3282 1.388 . S
C3282 H3269 0.930 . S
C3282 C3281 1.388 . S
C3282 C3283 1.390 . S
C3283 C3282 1.390 . S
C3283 C3284 1.394 . S
C3283 C3289 1.465 . S
C3284 C3279 1.399 . S
C3284 C3283 1.394 . S
C3284 C3285 1.516 . S
C3285 C3284 1.516 . S
C3285 C3286 1.502 . S
C3285 C3287 1.561 . S
C3285 C3288 1.526 . S
C3286 H3270 0.959 . S
C3286 H3271 0.959 . S
C3286 H3272 0.961 . S
C3286 C3285 1.502 . S
C3287 H3273 0.960 . S
C3287 H3274 0.961 . S
C3287 H3275 0.959 . S
C3287 C3285 1.561 . S
C3288 C3285 1.526 . S
C3288 C3289 1.396 . S
C3288 C3293 1.390 . S
C3289 C3283 1.465 . S
C3289 C3288 1.396 . S
C3289 C3290 1.399 . S
C3290 H3276 0.929 . S
C3290 C3289 1.399 . S
C3290 C3291 1.385 . S
C3291 H3277 0.931 . S
C3291 C3290 1.385 . S
C3291 C3292 1.389 . S
C3292 C3291 1.389 . S
C3292 C3293 1.387 . S
C3293 H3278 0.930 . S
C3293 C3288 1.390 . S
C3293 C3292 1.387 . S
C1849 C781 1.443 . S
C1861 C1147 1.411 . S
C1876 C871 1.416 . S
C1888 C1231 1.397 . S
C1903 C751 1.430 . S
C1915 C1311 1.463 . S
C1930 C691 1.372 . S
C1942 C1227 1.388 . S
C1969 C1315 1.326 . S
C1957 C571 1.357 . S
C1984 C601 1.374 . S
C1996 C1143 1.353 . S
C2023 C1136 1.399 . S
C2011 C661 1.433 . S
C2050 C1220 1.385 . S
C2038 C541 1.399 . S
C2065 C631 1.469 . S
C2077 C1322 1.463 . S
C2092 C811 1.415 . S
C2104 C1238 1.355 . S
C2119 C841 1.385 . S
C2131 C1304 1.321 . S
C2158 C1154 1.345 . S
C2146 C721 1.408 . S
C2185 C1399 1.404 . S
C2173 C61 1.433 . S
C2200 C151 1.449 . S
C2212 C1483 1.373 . S
C2227 C31 1.471 . S
C2239 C1563 1.417 . S
C2254 C1051 1.371 . S
C2266 C1479 1.387 . S
C2281 C931 1.399 . S
C2293 C1567 1.279 . S
C2308 C961 1.378 . S
C2320 C1395 1.406 . S
C2335 C1021 1.373 . S
C2347 C1388 1.311 . S
C2362 C901 1.428 . S
C2374 C1472 1.365 . S
C2401 C1574 1.398 . S
C2389 C991 1.467 . S
C2416 C91 1.428 . S
C2428 C1490 1.419 . S
C2455 C1556 1.357 . S
C2443 C121 1.364 . S
C2470 C1 1.407 . S
C2482 C1406 1.348 . S
C2509 C1651 1.310 . S
C2497 C421 1.399 . S
C2524 C511 1.430 . S
C2536 C1735 1.403 . S
C2563 C1815 1.434 . S
C2551 C391 1.463 . S
C2590 C1731 1.386 . S
C2578 C331 1.371 . S
C2617 C1819 1.364 . S
C2605 C211 1.336 . S
C2632 C241 1.377 . S
C2644 C1647 1.350 . S
C2659 C301 1.357 . S
C2671 C1640 1.322 . S
C2686 C181 1.421 . S
C2698 C1724 1.418 . S
C2725 C1826 1.394 . S
C2713 C271 1.470 . S
C2740 C451 1.420 . S
C2752 C1742 1.351 . S
C2767 C481 1.352 . S
C2779 C1808 1.343 . S
C2794 C361 1.329 . S
C2806 C1658 1.365 . S
C2821 C920 1.430 . S
C2833 C1150 1.279 . S
C2860 C1234 1.379 . S
C2848 C980 1.462 . S
C2875 C1040 1.423 . S
C2887 C1306 1.397 . S
C2902 C380 1.452 . S
C2914 C1222 1.419 . S
C2929 C440 1.473 . S
C2941 C1318 1.338 . S
C2968 C1138 1.377 . S
C2956 C500 1.425 . S
C2983 C200 1.431 . S
C2995 C1402 1.387 . S
C3010 C260 1.507 . S
C3022 C1486 1.351 . S
C3037 C320 1.418 . S
C3049 C1558 1.393 . S
C3064 C740 1.497 . S
C3076 C1474 1.294 . S
C3103 C1570 1.334 . S
C3091 C800 1.473 . S
C3118 C860 1.419 . S
C3130 C1390 1.289 . S
C3145 C560 1.433 . S
C3157 C1654 1.387 . S
C3172 C620 1.507 . S
C3184 C1738 1.319 . S
C3211 C1810 1.397 . S
C3199 C680 1.423 . S
C3226 C20 1.502 . S
C3238 C1726 1.325 . S
C3253 C80 1.473 . S
C3265 C1822 1.305 . S
C3280 C140 1.426 . S
C3292 C1642 1.377 . S
