# Generated by pormake.
# Topology rtl, (3,6)-cn, num edge types: 1
# Building blocks:
#     Node 0, Type 0, BuildingBlock: BELTOD_clean_linker_0, # of connection points: 3
#     Node 1, Type 0, BuildingBlock: BELTOD_clean_linker_0, # of connection points: 3
#     Node 2, Type 0, BuildingBlock: BELTOD_clean_linker_0, # of connection points: 3
#     Node 3, Type 0, BuildingBlock: BELTOD_clean_linker_0, # of connection points: 3
#     Node 4, Type 1, BuildingBlock: FUNLAD_clean_sbu_0, # of connection points: 6
#     Node 5, Type 1, BuildingBlock: FUNLAD_clean_sbu_0, # of connection points: 6
#     Edge 6, Type (0, 1), BuildingBlock: XUDNAN_clean_linker_2, # of connection points: 2
#     Edge 7, Type (0, 1), BuildingBlock: XUDNAN_clean_linker_2, # of connection points: 2
#     Edge 8, Type (0, 1), BuildingBlock: XUDNAN_clean_linker_2, # of connection points: 2
#     Edge 9, Type (0, 1), BuildingBlock: XUDNAN_clean_linker_2, # of connection points: 2
#     Edge 10, Type (0, 1), BuildingBlock: XUDNAN_clean_linker_2, # of connection points: 2
#     Edge 11, Type (0, 1), BuildingBlock: XUDNAN_clean_linker_2, # of connection points: 2
#     Edge 12, Type (0, 1), BuildingBlock: XUDNAN_clean_linker_2, # of connection points: 2
#     Edge 13, Type (0, 1), BuildingBlock: XUDNAN_clean_linker_2, # of connection points: 2
#     Edge 14, Type (0, 1), BuildingBlock: XUDNAN_clean_linker_2, # of connection points: 2
#     Edge 15, Type (0, 1), BuildingBlock: XUDNAN_clean_linker_2, # of connection points: 2
#     Edge 16, Type (0, 1), BuildingBlock: XUDNAN_clean_linker_2, # of connection points: 2
#     Edge 17, Type (0, 1), BuildingBlock: XUDNAN_clean_linker_2, # of connection points: 2
# Relax obj value: 0.023
# Max RMSD: 0.088
# Mean RMSD: 0.075
data_MOF--net-rtl--node1-FUNLAD_clean_sbu_0--node2-BELTOD_clean_linker_0--edge1-XUDNAN_clean_linker_2
_symmetry_space_group_name_H-M    P1
_symmetry_Int_Tables_number       1
_symmetry_cell_setting            triclinic
loop_
_symmetry_equiv_pos_as_xyz
'x, y, z'
_cell_length_a     45.93072
_cell_length_b     37.841547
_cell_length_c     25.933818
_cell_angle_alpha  88.976503
_cell_angle_beta   90.966554
_cell_angle_gamma 90.446224
loop_
_atom_site_label
_atom_site_type_symbol
_atom_site_fract_x
_atom_site_fract_y
_atom_site_fract_z
_atom_type_partial_charge
P0 P 0.17259 0.84721 0.02603 0.0
H1 H 0.18941 0.88448 0.11923 0.0
H2 H 0.16492 0.89468 0.20011 0.0
H3 H 0.08906 0.83841 0.14336 0.0
H4 H 0.11357 0.82859 0.06221 0.0
H5 H 0.20568 0.80736 0.95257 0.0
H6 H 0.23747 0.75614 0.964 0.0
H7 H 0.20667 0.74121 0.11941 0.0
H8 H 0.17549 0.79255 0.10817 0.0
H9 H 0.17238 0.90158 0.94512 0.0
H10 H 0.1233 0.80708 0.98147 0.0
O11 O 0.20056 0.87554 0.02236 0.0
H12 H 0.14037 0.91369 0.87208 0.0
H13 H 0.0888 0.82111 0.91165 0.0
C14 C 0.15313 0.85652 0.08396 0.0
C15 C 0.16737 0.87469 0.12377 0.0
C16 C 0.15346 0.88015 0.17032 0.0
C17 C 0.12507 0.86724 0.17817 0.0
C18 C 0.1108 0.84903 0.1382 0.0
C19 C 0.12482 0.84348 0.09161 0.0
C20 C 0.18826 0.80385 0.02941 0.0
C21 C 0.20511 0.79235 0.9885 0.0
C22 C 0.22325 0.76304 0.99508 0.0
C23 C 0.22486 0.74495 0.04289 0.0
C24 C 0.20624 0.75499 0.08243 0.0
C25 C 0.1882 0.78429 0.07584 0.0
C26 C 0.14991 0.8538 0.96946 0.0
C27 C 0.15444 0.88355 0.93773 0.0
C28 C 0.13567 0.89079 0.89618 0.0
C29 C 0.11121 0.86908 0.88637 0.0
C30 C 0.10729 0.83855 0.91755 0.0
C31 C 0.12677 0.83072 0.95819 0.0
P32 P 0.68661 0.64836 0.50886 0.0
H33 H 0.70506 0.61573 0.41406 0.0
H34 H 0.68039 0.60524 0.33182 0.0
H35 H 0.60408 0.65857 0.38606 0.0
H36 H 0.6287 0.6677 0.46921 0.0
H37 H 0.74579 0.67262 0.53166 0.0
H38 H 0.76901 0.73058 0.52795 0.0
H39 H 0.68656 0.77779 0.4844 0.0
H40 H 0.66354 0.71919 0.48705 0.0
H41 H 0.64977 0.58872 0.53475 0.0
H42 H 0.66748 0.69239 0.59495 0.0
O43 O 0.71251 0.61791 0.51643 0.0
H44 H 0.61589 0.57683 0.60471 0.0
H45 H 0.63365 0.6806 0.66518 0.0
C46 C 0.66852 0.64194 0.44784 0.0
C47 C 0.683 0.62506 0.40829 0.0
C48 C 0.66893 0.61944 0.36103 0.0
C49 C 0.64022 0.63112 0.35222 0.0
C50 C 0.62602 0.6488 0.39178 0.0
C51 C 0.6401 0.65419 0.43922 0.0
C52 C 0.70302 0.6916 0.50917 0.0
C53 C 0.73265 0.6954 0.52147 0.0
C54 C 0.74585 0.72868 0.51975 0.0
C55 C 0.72961 0.75889 0.50603 0.0
C56 C 0.69973 0.75502 0.49455 0.0
C57 C 0.68654 0.72159 0.49618 0.0
C58 C 0.66102 0.64139 0.55963 0.0
C59 C 0.64626 0.60895 0.56297 0.0
C60 C 0.62704 0.60215 0.60303 0.0
C61 C 0.62224 0.62776 0.64046 0.0
C62 C 0.63675 0.66053 0.63657 0.0
C63 C 0.65615 0.66724 0.59652 0.0
P64 P 0.89129 0.28467 0.99755 0.0
H65 H 0.8745 0.30204 0.89072 0.0
H66 H 0.88176 0.27168 0.80908 0.0
H67 H 0.93332 0.19265 0.88963 0.0
H68 H 0.9256 0.22235 0.97076 0.0
H69 H 0.86044 0.32946 0.06802 0.0
H70 H 0.80853 0.34125 0.08043 0.0
H71 H 0.78643 0.27263 0.95441 0.0
H72 H 0.83798 0.25944 0.94374 0.0
H73 H 0.94473 0.27832 0.06057 0.0
H74 H 0.86118 0.22611 0.04864 0.0
O75 O 0.91045 0.32222 0.00084 0.0
H76 H 0.96034 0.2349 0.12649 0.0
H77 H 0.87617 0.18347 0.11517 0.0
C78 C 0.89875 0.26397 0.93709 0.0
C79 C 0.88732 0.27815 0.89075 0.0
C80 C 0.89146 0.26084 0.84424 0.0
C81 C 0.90792 0.22973 0.84325 0.0
C82 C 0.92058 0.21663 0.88934 0.0
C83 C 0.91598 0.23355 0.93586 0.0
C84 C 0.8532 0.2946 0.0038 0.0
C85 C 0.84444 0.31716 0.04283 0.0
C86 C 0.81488 0.32372 0.05008 0.0
C87 C 0.79373 0.30809 0.01794 0.0
C88 C 0.80248 0.28535 0.97909 0.0
C89 C 0.83197 0.27812 0.9727 0.0
C90 C 0.90165 0.25573 0.05041 0.0
C91 C 0.92956 0.25796 0.07292 0.0
C92 C 0.93843 0.23317 0.11061 0.0
C93 C 0.91956 0.20561 0.12591 0.0
C94 C 0.89141 0.20402 0.10374 0.0
C95 C 0.88266 0.22865 0.06608 0.0
P96 P 0.40094 0.21586 0.51812 0.0
H97 H 0.45026 0.24042 0.5816 0.0
H98 H 0.45437 0.28478 0.64872 0.0
H99 H 0.36237 0.30659 0.63051 0.0
H100 H 0.35905 0.26389 0.56156 0.0
H101 H 0.35838 0.18479 0.44471 0.0
H102 H 0.31082 0.15642 0.45731 0.0
H103 H 0.32221 0.16613 0.62235 0.0
H104 H 0.36972 0.19307 0.60947 0.0
H105 H 0.45016 0.23472 0.45384 0.0
H106 H 0.35778 0.2538 0.45422 0.0
O107 O 0.42816 0.187 0.52343 0.0
H108 H 0.45542 0.27569 0.38098 0.0
H109 H 0.3624 0.29303 0.37925 0.0
C110 C 0.40419 0.24822 0.56779 0.0
C111 C 0.43103 0.25478 0.59224 0.0
C112 C 0.43326 0.28003 0.63084 0.0
C113 C 0.4086 0.29907 0.64569 0.0
C114 C 0.38189 0.2928 0.61998 0.0
C115 C 0.37985 0.26801 0.58091 0.0
C116 C 0.36703 0.19232 0.52608 0.0
C117 C 0.35054 0.18083 0.48353 0.0
C118 C 0.32333 0.16471 0.4908 0.0
C119 C 0.31247 0.1594 0.54083 0.0
C120 C 0.32984 0.16955 0.58329 0.0
C121 C 0.35697 0.18537 0.57595 0.0
C122 C 0.40347 0.24035 0.45837 0.0
C123 C 0.43084 0.24679 0.43701 0.0
C124 C 0.43379 0.27023 0.39516 0.0
C125 C 0.40934 0.28775 0.37392 0.0
C126 C 0.3818 0.28046 0.39488 0.0
C127 C 0.37899 0.25747 0.43727 0.0
C128 C 0.01652 0.96818 0.45471 0.0
N129 N 0.05156 0.05705 0.52533 0.0
C130 C 0.07293 0.03379 0.53888 0.0
C131 C 0.10123 0.04541 0.54802 0.0
C132 C 0.10799 0.08146 0.54337 0.0
C133 C 0.08584 0.10509 0.52814 0.0
C134 C 0.05746 0.09221 0.51948 0.0
Zn135 Zn 0.01105 0.0347 0.51651 0.0
C136 C 0.97868 0.05687 0.4223 0.0
N137 N 0.93055 0.9789 0.50059 0.0
C138 C 0.92962 0.94329 0.50843 0.0
C139 C 0.90593 0.99759 0.48967 0.0
C140 C 0.87892 0.98037 0.48681 0.0
C141 C 0.87735 0.94371 0.49574 0.0
C142 C 0.90317 0.92513 0.50625 0.0
Zn143 Zn 0.96989 0.00374 0.5076 0.0
O144 O 0.03006 0.99442 0.47343 0.0
C145 C 0.00224 0.98016 0.6007 0.0
O146 O 0.98936 0.96471 0.46164 0.0
H147 H 0.90721 0.02591 0.48366 0.0
H148 H 0.06806 0.00592 0.5431 0.0
H149 H 0.94945 0.92892 0.51677 0.0
O150 O 0.01875 0.00517 0.58561 0.0
O151 O 0.97932 0.97304 0.57487 0.0
H152 H 0.04016 0.11025 0.50863 0.0
O153 O 0.95085 0.04391 0.55345 0.0
O154 O 0.99186 0.07404 0.55986 0.0
O155 O 0.96146 0.03347 0.44031 0.0
O156 O 0.00222 0.06421 0.44665 0.0
C157 C 0.96506 0.0705 0.57026 0.0
H158 H 0.11775 0.02619 0.55856 0.0
H159 H 0.09027 0.13314 0.52409 0.0
H160 H 0.85946 0.99562 0.47875 0.0
H161 H 0.90296 0.89674 0.51241 0.0
C162 C 0.4597 0.44724 0.94004 0.0
N163 N 0.54352 0.43534 0.00421 0.0
C164 C 0.54116 0.4004 0.01711 0.0
C165 C 0.56601 0.37928 0.02059 0.0
C166 C 0.59337 0.39419 0.00978 0.0
C167 C 0.59501 0.4299 0.99474 0.0
C168 C 0.56978 0.45015 0.99267 0.0
Zn169 Zn 0.50833 0.46823 0.00754 0.0
C170 C 0.51217 0.52728 0.92953 0.0
N171 N 0.43769 0.54027 0.01735 0.0
C172 C 0.41006 0.52694 0.01631 0.0
C173 C 0.44286 0.57534 0.02421 0.0
C174 C 0.41982 0.59826 0.03245 0.0
C175 C 0.39122 0.58505 0.03256 0.0
C176 C 0.38632 0.5491 0.02335 0.0
Zn177 Zn 0.47221 0.50677 0.01269 0.0
O178 O 0.48415 0.43632 0.95722 0.0
C179 C 0.46769 0.44842 0.09099 0.0
O180 O 0.44959 0.47618 0.9562 0.0
H181 H 0.46493 0.58548 0.02443 0.0
H182 H 0.52012 0.38909 0.0261 0.0
H183 H 0.40643 0.49894 0.01124 0.0
O184 O 0.49175 0.43912 0.07202 0.0
O185 O 0.45471 0.47537 0.07233 0.0
H186 H 0.57141 0.47805 0.98349 0.0
O187 O 0.49598 0.53663 0.06849 0.0
O188 O 0.53265 0.50093 0.05686 0.0
O189 O 0.49006 0.53824 0.95307 0.0
O190 O 0.52364 0.49808 0.9434 0.0
C191 C 0.52224 0.528 0.07771 0.0
H192 H 0.56394 0.35175 0.0322 0.0
H193 H 0.61577 0.44247 0.98685 0.0
H194 H 0.4243 0.62598 0.03911 0.0
H195 H 0.36449 0.53807 0.02353 0.0
H196 H 0.26216 0.17125 0.48374 0.0
H197 H 0.29606 0.11248 0.61683 0.0
H198 H 0.24674 0.09018 0.63494 0.0
H199 H 0.19358 0.19506 0.53719 0.0
H200 H 0.17307 0.18881 0.47813 0.0
H201 H 0.21096 0.20135 0.47586 0.0
H202 H 0.22182 0.14692 0.42027 0.0
H203 H 0.18391 0.1345 0.42178 0.0
H204 H 0.21133 0.10347 0.44318 0.0
H205 H 0.19433 0.07457 0.63949 0.0
H206 H 0.14219 0.06159 0.62538 0.0
H207 H 0.142 0.12782 0.48696 0.0
C208 C 0.2593 0.15339 0.51637 0.0
C209 C 0.28303 0.144 0.54923 0.0
C210 C 0.2782 0.12074 0.59175 0.0
C211 C 0.25027 0.10782 0.6023 0.0
C212 C 0.22736 0.11813 0.56977 0.0
C213 C 0.23154 0.13999 0.52729 0.0
C214 C 0.20322 0.14589 0.49756 0.0
C215 C 0.19472 0.18511 0.49718 0.0
C216 C 0.2052 0.13184 0.44244 0.0
C217 C 0.18254 0.12374 0.5299 0.0
C218 C 0.19696 0.10831 0.57164 0.0
C219 C 0.18279 0.08633 0.60684 0.0
C220 C 0.15322 0.07908 0.59842 0.0
C221 C 0.13815 0.09348 0.55487 0.0
C222 C 0.1529 0.11673 0.52081 0.0
H223 H 0.24392 0.69161 0.98082 0.0
H224 H 0.2599 0.74108 0.12849 0.0
H225 H 0.30243 0.70293 0.1438 0.0
H226 H 0.26704 0.60186 0.02205 0.0
H227 H 0.28368 0.59318 0.96115 0.0
H228 H 0.25282 0.6222 0.9636 0.0
H229 H 0.28263 0.67162 0.91787 0.0
H230 H 0.3136 0.64288 0.9156 0.0
H231 H 0.31708 0.68539 0.94546 0.0
H232 H 0.34596 0.66473 0.13933 0.0
H233 H 0.38617 0.62475 0.11796 0.0
H234 H 0.3418 0.59812 0.9748 0.0
C235 C 0.25615 0.694 0.01667 0.0
C236 C 0.2484 0.71909 0.05369 0.0
C237 C 0.26502 0.72156 0.10005 0.0
C238 C 0.28935 0.70017 0.10898 0.0
C239 C 0.2967 0.67619 0.0714 0.0
C240 C 0.28044 0.67258 0.02645 0.0
C241 C 0.29377 0.64551 0.99167 0.0
C242 C 0.27309 0.6138 0.9842 0.0
C243 C 0.30227 0.66237 0.93958 0.0
C244 C 0.32042 0.63522 0.02357 0.0
C245 C 0.32165 0.6533 0.0694 0.0
C246 C 0.34506 0.64999 0.10396 0.0
C247 C 0.36781 0.62746 0.09143 0.0
C248 C 0.36684 0.6084 0.04501 0.0
C249 C 0.34275 0.61212 0.01086 0.0
H250 H 0.77156 0.78591 0.57071 0.0
H251 H 0.72151 0.81047 0.43141 0.0
H252 H 0.75017 0.86544 0.41949 0.0
H253 H 0.78375 0.87817 0.61306 0.0
H254 H 0.82029 0.86858 0.63525 0.0
H255 H 0.79262 0.83457 0.63735 0.0
H256 H 0.82519 0.794 0.58356 0.0
H257 H 0.85282 0.82784 0.58106 0.0
H258 H 0.83827 0.80977 0.52209 0.0
H259 H 0.78843 0.91371 0.41699 0.0
H260 H 0.83311 0.95047 0.42385 0.0
H261 H 0.8583 0.89313 0.56366 0.0
C262 C 0.76632 0.80307 0.53806 0.0
C263 C 0.74427 0.79391 0.50204 0.0
C264 C 0.73801 0.8172 0.45998 0.0
C265 C 0.75423 0.84844 0.4528 0.0
C266 C 0.77646 0.85608 0.48823 0.0
C267 C 0.78235 0.83413 0.53023 0.0
C268 C 0.809 0.84639 0.56009 0.0
C269 C 0.80092 0.8576 0.61467 0.0
C270 C 0.83271 0.8178 0.56175 0.0
C271 C 0.8179 0.87788 0.52721 0.0
C272 C 0.79863 0.88351 0.48644 0.0
C273 C 0.80341 0.9099 0.44923 0.0
C274 C 0.82878 0.93067 0.45346 0.0
C275 C 0.84912 0.92455 0.49421 0.0
C276 C 0.84319 0.89827 0.53196 0.0
H277 H 0.75596 0.33829 0.94835 0.0
H278 H 0.76181 0.29486 0.10384 0.0
H279 H 0.70953 0.30758 0.11617 0.0
H280 H 0.71074 0.41026 0.97954 0.0
H281 H 0.69016 0.4097 0.91976 0.0
H282 H 0.7271 0.39415 0.92186 0.0
H283 H 0.70988 0.33414 0.88501 0.0
H284 H 0.67282 0.34948 0.88301 0.0
H285 H 0.68186 0.30918 0.91757 0.0
H286 H 0.65693 0.32604 0.11166 0.0
H287 H 0.60933 0.35441 0.09426 0.0
H288 H 0.63875 0.38873 0.94333 0.0
C289 C 0.74602 0.33112 0.98468 0.0
C290 C 0.76255 0.31532 0.02506 0.0
C291 C 0.74926 0.3069 0.07255 0.0
C292 C 0.71965 0.31385 0.07972 0.0
C293 C 0.70386 0.32956 0.03915 0.0
C294 C 0.71666 0.33847 0.99276 0.0
C295 C 0.69552 0.35759 0.95681 0.0
C296 C 0.70654 0.39515 0.94375 0.0
C297 C 0.68968 0.33632 0.9077 0.0
C298 C 0.66889 0.35833 0.99034 0.0
C299 C 0.67396 0.34149 0.03733 0.0
C300 C 0.65267 0.3392 0.07495 0.0
C301 C 0.62568 0.35518 0.06465 0.0
C302 C 0.62044 0.37363 0.01747 0.0
C303 C 0.64224 0.37478 0.97972 0.0
H304 H 0.0687 0.88776 0.19371 0.0
H305 H 0.14896 0.86029 0.27501 0.0
H306 H 0.12674 0.87569 0.35741 0.0
H307 H 0.05332 0.96167 0.26303 0.0
H308 H 0.01441 0.95528 0.26441 0.0
H309 H 0.03496 0.93735 0.21276 0.0
H310 H 0.01425 0.8749 0.23345 0.0
H311 H 0.99352 0.89271 0.28527 0.0
H312 H 0.01819 0.85663 0.29784 0.0
H313 H 0.09928 0.90242 0.42773 0.0
H314 H 0.0673 0.9374 0.4826 0.0
H315 H 0.00335 0.94451 0.35823 0.0
C316 C 0.08127 0.88399 0.22905 0.0
C317 C 0.11058 0.87293 0.22798 0.0
C318 C 0.12659 0.86913 0.27489 0.0
C319 C 0.11407 0.87747 0.32192 0.0
C320 C 0.08539 0.88913 0.32152 0.0
C321 C 0.06903 0.89208 0.27645 0.0
C322 C 0.03954 0.90813 0.28627 0.0
C323 C 0.03533 0.94265 0.25476 0.0
C324 C 0.01492 0.88149 0.27505 0.0
C325 C 0.04238 0.91511 0.34349 0.0
C326 C 0.06894 0.90359 0.36308 0.0
C327 C 0.07809 0.91064 0.41335 0.0
C328 C 0.05988 0.93052 0.44415 0.0
C329 C 0.03276 0.94271 0.42474 0.0
C330 C 0.02358 0.93427 0.37428 0.0
H331 H 0.62063 0.56735 0.69943 0.0
H332 H 0.58014 0.67004 0.68006 0.0
H333 H 0.54725 0.65569 0.75231 0.0
H334 H 0.55575 0.5184 0.72859 0.0
H335 H 0.57353 0.48983 0.7755 0.0
H336 H 0.59388 0.50851 0.72275 0.0
H337 H 0.63116 0.53532 0.78757 0.0
H338 H 0.61094 0.5167 0.8405 0.0
H339 H 0.6185 0.56349 0.83771 0.0
H340 H 0.51814 0.6292 0.82554 0.0
H341 H 0.4963 0.59364 0.896 0.0
H342 H 0.55658 0.50873 0.86677 0.0
C343 C 0.60471 0.58674 0.71015 0.0
C344 C 0.60277 0.61972 0.68409 0.0
C345 C 0.58204 0.64469 0.69983 0.0
C346 C 0.56323 0.63671 0.74057 0.0
C347 C 0.56561 0.60379 0.76521 0.0
C348 C 0.58594 0.5793 0.75073 0.0
C349 C 0.58433 0.54597 0.7836 0.0
C350 C 0.57639 0.51378 0.75063 0.0
C351 C 0.61293 0.54004 0.81416 0.0
C352 C 0.55978 0.5554 0.81876 0.0
C353 C 0.54919 0.58879 0.80754 0.0
C354 C 0.52631 0.60304 0.83474 0.0
C355 C 0.51402 0.58263 0.87461 0.0
C356 C 0.52475 0.54844 0.8869 0.0
C357 C 0.54791 0.5348 0.85843 0.0
H358 H 0.95209 0.21324 0.21575 0.0
H359 H 0.90923 0.13468 0.12013 0.0
H360 H 0.92258 0.08821 0.18352 0.0
H361 H 0.01277 0.15594 0.25986 0.0
H362 H 0.01362 0.17382 0.32383 0.0
H363 H 0.0022 0.20108 0.26959 0.0
H364 H 0.95368 0.21394 0.31493 0.0
H365 H 0.9649 0.18669 0.36918 0.0
H366 H 0.93097 0.17755 0.33592 0.0
H367 H 0.93645 0.05129 0.25894 0.0
H368 H 0.95196 0.02485 0.34227 0.0
H369 H 0.98861 0.12562 0.38891 0.0
C370 C 0.94597 0.18617 0.20777 0.0
C371 C 0.92932 0.17768 0.16316 0.0
C372 C 0.92144 0.14198 0.15446 0.0
C373 C 0.92915 0.11531 0.19 0.0
C374 C 0.94507 0.12462 0.23387 0.0
C375 C 0.95365 0.15905 0.24285 0.0
C376 C 0.96982 0.16179 0.29423 0.0
C377 C 0.00148 0.17387 0.28639 0.0
C378 C 0.95388 0.18645 0.33071 0.0
C379 C 0.96833 0.12363 0.31309 0.0
C380 C 0.95398 0.10277 0.27739 0.0
C381 C 0.94808 0.06718 0.28692 0.0
C382 C 0.95686 0.05247 0.33442 0.0
C383 C 0.97159 0.07319 0.37169 0.0
C384 C 0.97782 0.10912 0.36062 0.0
H385 H 0.44218 0.29511 0.73452 0.0
H386 H 0.3799 0.36239 0.65267 0.0
H387 H 0.38269 0.40486 0.72351 0.0
H388 H 0.41916 0.31244 0.86415 0.0
H389 H 0.45577 0.31321 0.89028 0.0
H390 H 0.44709 0.2865 0.83521 0.0
H391 H 0.48776 0.31801 0.78319 0.0
H392 H 0.49672 0.34454 0.83821 0.0
H393 H 0.48778 0.36555 0.77712 0.0
H394 H 0.39336 0.44102 0.80216 0.0
H395 H 0.41429 0.47036 0.8788 0.0
H396 H 0.47155 0.38096 0.9061 0.0
C397 C 0.42921 0.31882 0.73113 0.0
C398 C 0.4106 0.32509 0.68799 0.0
C399 C 0.39382 0.35643 0.68573 0.0
C400 C 0.39533 0.38085 0.72572 0.0
C401 C 0.41385 0.37374 0.7676 0.0
C402 C 0.4307 0.34366 0.77032 0.0
C403 C 0.4502 0.34327 0.81792 0.0
C404 C 0.44259 0.31199 0.85402 0.0
C405 C 0.48252 0.34283 0.80321 0.0
C406 C 0.44198 0.3781 0.84118 0.0
C407 C 0.42066 0.39504 0.81204 0.0
C408 C 0.41 0.42796 0.82539 0.0
C409 C 0.42195 0.44436 0.86906 0.0
C410 C 0.44456 0.42796 0.89835 0.0
C411 C 0.45427 0.39415 0.88455 0.0
H412 H 0.58304 0.61119 0.33679 0.0
H413 H 0.66309 0.63371 0.25524 0.0
H414 H 0.63965 0.61453 0.17423 0.0
H415 H 0.56386 0.53496 0.27374 0.0
H416 H 0.52524 0.54301 0.27042 0.0
H417 H 0.54704 0.56204 0.32121 0.0
H418 H 0.52897 0.62456 0.29475 0.0
H419 H 0.50685 0.60569 0.24401 0.0
H420 H 0.53293 0.64004 0.22907 0.0
H421 H 0.61051 0.58517 0.10591 0.0
H422 H 0.57558 0.55163 0.05189 0.0
H423 H 0.51274 0.55264 0.17463 0.0
C424 C 0.5954 0.61313 0.30166 0.0
C425 C 0.62501 0.62372 0.30253 0.0
C426 C 0.64056 0.62509 0.25579 0.0
C427 C 0.62736 0.61457 0.20946 0.0
C428 C 0.59843 0.60338 0.21027 0.0
C429 C 0.58243 0.60313 0.2549 0.0
C430 C 0.55214 0.58809 0.2456 0.0
C431 C 0.54678 0.55507 0.27977 0.0
C432 C 0.52884 0.61628 0.25384 0.0
C433 C 0.55403 0.57871 0.18924 0.0
C434 C 0.58095 0.58785 0.16969 0.0
C435 C 0.58909 0.57871 0.12024 0.0
C436 C 0.56924 0.55957 0.09002 0.0
C437 C 0.54152 0.55027 0.10912 0.0
C438 C 0.53359 0.56039 0.15895 0.0
H439 H 0.95803 0.20476 0.80213 0.0
H440 H 0.86462 0.20947 0.77643 0.0
H441 H 0.8691 0.17142 0.70032 0.0
H442 H 0.97758 0.20588 0.66505 0.0
H443 H 0.00753 0.176 0.67585 0.0
H444 H 0.99697 0.20535 0.72608 0.0
H445 H 0.99085 0.15174 0.78871 0.0
H446 H 0.00124 0.12226 0.73866 0.0
H447 H 0.96702 0.11579 0.77066 0.0
H448 H 0.8834 0.12765 0.63295 0.0
H449 H 0.90697 0.08574 0.57474 0.0
H450 H 0.99124 0.11261 0.64186 0.0
C451 C 0.9386 0.19808 0.78003 0.0
C452 C 0.91099 0.20996 0.79493 0.0
C453 C 0.886 0.20085 0.76519 0.0
C454 C 0.88833 0.17918 0.72212 0.0
C455 C 0.91585 0.16736 0.70896 0.0
C456 C 0.9406 0.17694 0.73658 0.0
C457 C 0.96752 0.1602 0.71508 0.0
C458 C 0.98865 0.18856 0.69427 0.0
C459 C 0.98253 0.13607 0.7557 0.0
C460 C 0.95401 0.13903 0.67181 0.0
C461 C 0.92417 0.14336 0.66895 0.0
C462 C 0.9068 0.12454 0.63421 0.0
C463 C 0.92033 0.10073 0.60149 0.0
C464 C 0.95091 0.09633 0.60344 0.0
C465 C 0.96787 0.11598 0.63882 0.0
H466 H 0.44762 0.28823 0.29273 0.0
H467 H 0.37956 0.35003 0.36178 0.0
H468 H 0.38612 0.39631 0.29519 0.0
H469 H 0.49441 0.36198 0.26502 0.0
H470 H 0.50704 0.34466 0.20515 0.0
H471 H 0.49571 0.31488 0.25605 0.0
H472 H 0.45867 0.28536 0.1935 0.0
H473 H 0.46991 0.31503 0.14238 0.0
H474 H 0.4321 0.31228 0.15961 0.0
H475 H 0.40043 0.43649 0.22287 0.0
H476 H 0.42249 0.4689 0.15001 0.0
H477 H 0.48337 0.38307 0.13042 0.0
C478 C 0.4341 0.31148 0.29405 0.0
C479 C 0.41279 0.31509 0.33241 0.0
C480 C 0.39549 0.34599 0.33221 0.0
C481 C 0.39921 0.37267 0.29475 0.0
C482 C 0.4205 0.36832 0.25791 0.0
C483 C 0.43775 0.33861 0.25729 0.0
C484 C 0.45978 0.34119 0.21447 0.0
C485 C 0.49109 0.34065 0.23651 0.0
C486 C 0.4548 0.31171 0.17516 0.0
C487 C 0.45228 0.3771 0.19137 0.0
C488 C 0.4294 0.3921 0.21685 0.0
C489 C 0.41837 0.42505 0.20259 0.0
C490 C 0.43106 0.44323 0.16111 0.0
C491 C 0.45471 0.42856 0.13459 0.0
C492 C 0.46543 0.39504 0.15009 0.0
H493 H 0.0963 0.93593 0.85166 0.0
H494 H 0.07743 0.82484 0.82532 0.0
H495 H 0.04279 0.84189 0.75585 0.0
H496 H 0.02544 0.9717 0.82021 0.0
H497 H 0.04023 0.00988 0.78702 0.0
H498 H 0.06052 0.98925 0.8393 0.0
H499 H 0.10465 0.98153 0.77954 0.0
H500 H 0.08461 0.00238 0.72731 0.0
H501 H 0.09961 0.95899 0.71935 0.0
H502 H 0.01131 0.87137 0.68644 0.0
H503 H 0.99046 0.91003 0.61737 0.0
H504 H 0.03478 0.00041 0.6839 0.0
C505 C 0.08522 0.9149 0.83132 0.0
C506 C 0.08979 0.8789 0.84463 0.0
C507 C 0.07404 0.85265 0.81709 0.0
C508 C 0.05434 0.86206 0.77725 0.0
C509 C 0.05081 0.89778 0.76492 0.0
C510 C 0.06614 0.92371 0.79078 0.0
C511 C 0.06066 0.95995 0.76721 0.0
C512 C 0.04582 0.98411 0.80574 0.0
C513 C 0.08907 0.97667 0.74716 0.0
C514 C 0.04016 0.95034 0.72343 0.0
C515 C 0.03414 0.91448 0.7234 0.0
C516 C 0.01586 0.89947 0.68616 0.0
C517 C 0.00402 0.92161 0.64729 0.0
C518 C 0.01111 0.95808 0.64548 0.0
C519 C 0.02905 0.97258 0.68446 0.0
loop_
_geom_bond_atom_site_label_1
_geom_bond_atom_site_label_2
_geom_bond_distance
_geom_bond_site_symmetry_2
_ccdc_geom_bond_type
P0 O11 1.490 . S
P0 C14 1.812 . S
P0 C20 1.803 . S
P0 C26 1.819 1_554 S
H1 C15 0.941 . S
H2 C16 0.939 . S
H3 C18 0.940 . S
H4 C19 0.940 . S
H5 C21 0.939 1_556 S
H6 C22 0.942 1_556 S
H7 C24 0.940 . S
H8 C25 0.939 . S
H9 C27 0.941 . S
H10 C31 0.939 . S
O11 P0 1.490 . S
H12 C28 0.939 . S
H13 C30 0.940 . S
C14 P0 1.812 . S
C14 C15 1.389 . S
C14 C19 1.391 . S
C15 H1 0.941 . S
C15 C14 1.389 . S
C15 C16 1.397 . S
C16 H2 0.939 . S
C16 C15 1.397 . S
C16 C17 1.378 . S
C17 C16 1.378 . S
C17 C18 1.378 . S
C18 H3 0.940 . S
C18 C17 1.378 . S
C18 C19 1.396 . S
C19 H4 0.940 . S
C19 C14 1.391 . S
C19 C18 1.396 . S
C20 P0 1.803 . S
C20 C21 1.378 . S
C20 C25 1.400 . S
C21 H5 0.939 1_554 S
C21 C20 1.378 . S
C21 C22 1.361 . S
C22 H6 0.942 1_554 S
C22 C21 1.361 . S
C22 C23 1.369 . S
C23 C22 1.369 . S
C23 C24 1.404 . S
C24 H7 0.940 . S
C24 C23 1.404 . S
C24 C25 1.389 . S
C25 H8 0.939 . S
C25 C20 1.400 . S
C25 C24 1.389 . S
C26 P0 1.819 1_556 S
C26 C27 1.391 . S
C26 C31 1.391 . S
C27 H9 0.941 . S
C27 C26 1.391 . S
C27 C28 1.396 . S
C28 H12 0.939 . S
C28 C27 1.396 . S
C28 C29 1.397 . S
C29 C28 1.397 . S
C29 C30 1.385 . S
C30 H13 0.940 . S
C30 C29 1.385 . S
C30 C31 1.388 . S
C31 H10 0.939 . S
C31 C26 1.391 . S
C31 C30 1.388 . S
P32 O43 1.490 . S
P32 C46 1.812 . S
P32 C52 1.803 . S
P32 C58 1.819 . S
H33 C47 0.941 . S
H34 C48 0.939 . S
H35 C50 0.940 . S
H36 C51 0.940 . S
H37 C53 0.939 . S
H38 C54 0.942 . S
H39 C56 0.940 . S
H40 C57 0.939 . S
H41 C59 0.941 . S
H42 C63 0.939 . S
O43 P32 1.490 . S
H44 C60 0.939 . S
H45 C62 0.940 . S
C46 P32 1.812 . S
C46 C47 1.389 . S
C46 C51 1.391 . S
C47 H33 0.941 . S
C47 C46 1.389 . S
C47 C48 1.397 . S
C48 H34 0.939 . S
C48 C47 1.397 . S
C48 C49 1.378 . S
C49 C48 1.378 . S
C49 C50 1.378 . S
C50 H35 0.940 . S
C50 C49 1.378 . S
C50 C51 1.396 . S
C51 H36 0.940 . S
C51 C46 1.391 . S
C51 C50 1.396 . S
C52 P32 1.803 . S
C52 C53 1.378 . S
C52 C57 1.400 . S
C53 H37 0.939 . S
C53 C52 1.378 . S
C53 C54 1.361 . S
C54 H38 0.942 . S
C54 C53 1.361 . S
C54 C55 1.369 . S
C55 C54 1.369 . S
C55 C56 1.404 . S
C56 H39 0.940 . S
C56 C55 1.404 . S
C56 C57 1.389 . S
C57 H40 0.939 . S
C57 C52 1.400 . S
C57 C56 1.389 . S
C58 P32 1.819 . S
C58 C59 1.391 . S
C58 C63 1.391 . S
C59 H41 0.941 . S
C59 C58 1.391 . S
C59 C60 1.396 . S
C60 H44 0.939 . S
C60 C59 1.396 . S
C60 C61 1.397 . S
C61 C60 1.397 . S
C61 C62 1.385 . S
C62 H45 0.940 . S
C62 C61 1.385 . S
C62 C63 1.388 . S
C63 H42 0.939 . S
C63 C58 1.391 . S
C63 C62 1.388 . S
P64 O75 1.490 . S
P64 C78 1.812 1_554 S
P64 C84 1.803 . S
P64 C90 1.819 . S
H65 C79 0.941 . S
H66 C80 0.939 . S
H67 C82 0.940 . S
H68 C83 0.940 . S
H69 C85 0.939 . S
H70 C86 0.942 . S
H71 C88 0.940 . S
H72 C89 0.939 . S
H73 C91 0.941 . S
H74 C95 0.939 . S
O75 P64 1.490 . S
H76 C92 0.939 . S
H77 C94 0.940 . S
C78 P64 1.812 1_556 S
C78 C79 1.389 . S
C78 C83 1.391 . S
C79 H65 0.941 . S
C79 C78 1.389 . S
C79 C80 1.397 . S
C80 H66 0.939 . S
C80 C79 1.397 . S
C80 C81 1.378 . S
C81 C80 1.378 . S
C81 C82 1.378 . S
C82 H67 0.940 . S
C82 C81 1.378 . S
C82 C83 1.396 . S
C83 H68 0.940 . S
C83 C78 1.391 . S
C83 C82 1.396 . S
C84 P64 1.803 . S
C84 C85 1.378 . S
C84 C89 1.400 1_554 S
C85 H69 0.939 . S
C85 C84 1.378 . S
C85 C86 1.361 . S
C86 H70 0.942 . S
C86 C85 1.361 . S
C86 C87 1.369 . S
C87 C86 1.369 . S
C87 C88 1.404 1_554 S
C88 H71 0.940 . S
C88 C87 1.404 1_556 S
C88 C89 1.389 . S
C89 H72 0.939 . S
C89 C84 1.400 1_556 S
C89 C88 1.389 . S
C90 P64 1.819 . S
C90 C91 1.391 . S
C90 C95 1.391 . S
C91 H73 0.941 . S
C91 C90 1.391 . S
C91 C92 1.396 . S
C92 H76 0.939 . S
C92 C91 1.396 . S
C92 C93 1.397 . S
C93 C92 1.397 . S
C93 C94 1.385 . S
C94 H77 0.940 . S
C94 C93 1.385 . S
C94 C95 1.388 . S
C95 H74 0.939 . S
C95 C90 1.391 . S
C95 C94 1.388 . S
P96 O107 1.490 . S
P96 C110 1.812 . S
P96 C116 1.803 . S
P96 C122 1.819 . S
H97 C111 0.941 . S
H98 C112 0.939 . S
H99 C114 0.940 . S
H100 C115 0.940 . S
H101 C117 0.939 . S
H102 C118 0.942 . S
H103 C120 0.940 . S
H104 C121 0.939 . S
H105 C123 0.941 . S
H106 C127 0.939 . S
O107 P96 1.490 . S
H108 C124 0.939 . S
H109 C126 0.940 . S
C110 P96 1.812 . S
C110 C111 1.389 . S
C110 C115 1.391 . S
C111 H97 0.941 . S
C111 C110 1.389 . S
C111 C112 1.397 . S
C112 H98 0.939 . S
C112 C111 1.397 . S
C112 C113 1.378 . S
C113 C112 1.378 . S
C113 C114 1.378 . S
C114 H99 0.940 . S
C114 C113 1.378 . S
C114 C115 1.396 . S
C115 H100 0.940 . S
C115 C110 1.391 . S
C115 C114 1.396 . S
C116 P96 1.803 . S
C116 C117 1.378 . S
C116 C121 1.400 . S
C117 H101 0.939 . S
C117 C116 1.378 . S
C117 C118 1.361 . S
C118 H102 0.942 . S
C118 C117 1.361 . S
C118 C119 1.369 . S
C119 C118 1.369 . S
C119 C120 1.404 . S
C120 H103 0.940 . S
C120 C119 1.404 . S
C120 C121 1.389 . S
C121 H104 0.939 . S
C121 C116 1.400 . S
C121 C120 1.389 . S
C122 P96 1.819 . S
C122 C123 1.391 . S
C122 C127 1.391 . S
C123 H105 0.941 . S
C123 C122 1.391 . S
C123 C124 1.396 . S
C124 H108 0.939 . S
C124 C123 1.396 . S
C124 C125 1.397 . S
C125 C124 1.397 . S
C125 C126 1.385 . S
C126 H109 0.940 . S
C126 C125 1.385 . S
C126 C127 1.388 . S
C127 H106 0.939 . S
C127 C122 1.391 . S
C127 C126 1.388 . S
C128 O144 1.251 . S
C128 O146 1.254 1_455 S
N129 C130 1.333 . S
N129 C134 1.307 . S
N129 Zn135 2.020 . S
C130 N129 1.333 . S
C130 C131 1.379 . S
C130 H148 0.952 . S
C131 C130 1.379 . S
C131 C132 1.390 . S
C131 H158 0.949 . S
C132 C131 1.390 . S
C132 C133 1.357 . S
C133 C132 1.357 . S
C133 C134 1.370 . S
C133 H159 0.950 . S
C134 N129 1.307 . S
C134 C133 1.370 . S
C134 H152 0.948 . S
Zn135 N129 2.020 . S
Zn135 O144 2.039 1_545 S
Zn135 O150 2.034 1_545 S
Zn135 O154 2.025 . S
Zn135 O156 2.024 . S
C136 O155 1.246 . S
C136 O156 1.249 1_655 S
N137 C138 1.307 . S
N137 C139 1.333 . S
N137 Zn143 2.020 . S
C138 N137 1.307 . S
C138 C142 1.370 . S
C138 H149 0.948 . S
C139 N137 1.333 . S
C139 C140 1.379 . S
C139 H147 0.952 . S
C140 C139 1.379 . S
C140 C141 1.390 . S
C140 H160 0.949 . S
C141 C140 1.390 . S
C141 C142 1.357 . S
C142 C138 1.370 . S
C142 C141 1.357 . S
C142 H161 0.950 . S
Zn143 N137 2.020 . S
Zn143 O146 2.025 . S
Zn143 O151 2.024 . S
Zn143 O153 2.039 1_565 S
Zn143 O155 2.034 1_565 S
O144 C128 1.251 . S
O144 Zn135 2.039 1_565 S
C145 O150 1.246 . S
C145 O151 1.249 1_455 S
O146 C128 1.254 1_655 S
O146 Zn143 2.025 . S
H147 C139 0.952 . S
H148 C130 0.952 . S
H149 C138 0.948 . S
O150 Zn135 2.034 1_565 S
O150 C145 1.246 . S
O151 Zn143 2.024 . S
O151 C145 1.249 1_655 S
H152 C134 0.948 . S
O153 Zn143 2.039 1_545 S
O153 C157 1.251 . S
O154 Zn135 2.025 . S
O154 C157 1.254 1_455 S
O155 C136 1.246 . S
O155 Zn143 2.034 1_545 S
O156 Zn135 2.024 . S
O156 C136 1.249 1_455 S
C157 O153 1.251 . S
C157 O154 1.254 1_655 S
H158 C131 0.949 . S
H159 C133 0.950 . S
H160 C140 0.949 . S
H161 C142 0.950 . S
C162 O178 1.251 . S
C162 O180 1.254 . S
N163 C164 1.340 . S
N163 C168 1.307 . S
N163 Zn169 2.020 . S
C164 N163 1.340 . S
C164 C165 1.379 1_554 S
C164 H182 0.945 1_554 S
C165 C164 1.379 1_556 S
C165 C166 1.388 1_556 S
C165 H192 0.951 . S
C166 C165 1.388 1_554 S
C166 C167 1.357 . S
C167 C166 1.357 . S
C167 C168 1.370 . S
C167 H193 0.950 . S
C168 N163 1.307 . S
C168 C167 1.370 . S
C168 H186 0.948 . S
Zn169 N163 2.020 . S
Zn169 O178 2.039 1_554 S
Zn169 O184 2.034 . S
Zn169 O188 2.025 . S
Zn169 O190 2.024 1_554 S
C170 O189 1.246 . S
C170 O190 1.249 . S
N171 C172 1.307 . S
N171 C173 1.333 . S
N171 Zn177 2.020 . S
C172 N171 1.307 . S
C172 C176 1.370 . S
C172 H183 0.948 1_554 S
C173 N171 1.333 . S
C173 C174 1.379 . S
C173 H181 0.952 . S
C174 C173 1.379 . S
C174 C175 1.390 . S
C174 H194 0.949 . S
C175 C174 1.390 . S
C175 C176 1.357 . S
C176 C172 1.370 . S
C176 C175 1.357 . S
C176 H195 0.950 1_554 S
Zn177 N171 2.020 . S
Zn177 O180 2.025 1_554 S
Zn177 O185 2.024 . S
Zn177 O187 2.039 . S
Zn177 O189 2.034 1_554 S
O178 C162 1.251 . S
O178 Zn169 2.039 1_556 S
C179 O184 1.246 . S
C179 O185 1.249 . S
O180 C162 1.254 . S
O180 Zn177 2.025 1_556 S
H181 C173 0.952 . S
H182 C164 0.945 1_556 S
H183 C172 0.948 1_556 S
O184 Zn169 2.034 . S
O184 C179 1.246 . S
O185 Zn177 2.024 . S
O185 C179 1.249 . S
H186 C168 0.948 . S
O187 Zn177 2.039 . S
O187 C191 1.251 . S
O188 Zn169 2.025 . S
O188 C191 1.254 . S
O189 C170 1.246 . S
O189 Zn177 2.034 1_556 S
O190 Zn169 2.024 1_556 S
O190 C170 1.249 . S
C191 O187 1.251 . S
C191 O188 1.254 . S
H192 C165 0.951 . S
H193 C167 0.950 . S
H194 C174 0.949 . S
H195 C176 0.950 1_556 S
H196 C208 0.930 . S
H197 C210 0.930 . S
H198 C211 0.930 . S
H199 C215 0.959 . S
H200 C215 0.959 . S
H201 C215 0.961 . S
H202 C216 0.960 . S
H203 C216 0.961 . S
H204 C216 0.959 . S
H205 C219 0.929 . S
H206 C220 0.931 . S
H207 C222 0.930 . S
C208 H196 0.930 . S
C208 C209 1.399 . S
C208 C213 1.399 . S
C209 C208 1.399 . S
C209 C210 1.376 . S
C210 H197 0.930 . S
C210 C209 1.376 . S
C210 C211 1.388 . S
C211 H198 0.930 . S
C211 C210 1.388 . S
C211 C212 1.390 . S
C212 C211 1.390 . S
C212 C213 1.394 . S
C212 C218 1.465 . S
C213 C208 1.399 . S
C213 C212 1.394 . S
C213 C214 1.516 . S
C214 C213 1.516 . S
C214 C215 1.502 . S
C214 C216 1.561 . S
C214 C217 1.526 . S
C215 H199 0.959 . S
C215 H200 0.959 . S
C215 H201 0.961 . S
C215 C214 1.502 . S
C216 H202 0.960 . S
C216 H203 0.961 . S
C216 H204 0.959 . S
C216 C214 1.561 . S
C217 C214 1.526 . S
C217 C218 1.396 . S
C217 C222 1.390 . S
C218 C212 1.465 . S
C218 C217 1.396 . S
C218 C219 1.399 . S
C219 H205 0.929 . S
C219 C218 1.399 . S
C219 C220 1.385 . S
C220 H206 0.931 . S
C220 C219 1.385 . S
C220 C221 1.389 . S
C221 C220 1.389 . S
C221 C222 1.387 . S
C222 H207 0.930 . S
C222 C217 1.390 . S
C222 C221 1.387 . S
H223 C235 0.930 . S
H224 C237 0.930 . S
H225 C238 0.930 . S
H226 C242 0.959 . S
H227 C242 0.959 . S
H228 C242 0.961 . S
H229 C243 0.960 . S
H230 C243 0.961 . S
H231 C243 0.959 . S
H232 C246 0.929 . S
H233 C247 0.931 . S
H234 C249 0.930 . S
C235 H223 0.930 . S
C235 C236 1.399 1_556 S
C235 C240 1.399 . S
C236 C235 1.399 1_554 S
C236 C237 1.376 . S
C237 H224 0.930 . S
C237 C236 1.376 . S
C237 C238 1.388 . S
C238 H225 0.930 . S
C238 C237 1.388 . S
C238 C239 1.390 . S
C239 C238 1.390 . S
C239 C240 1.394 1_554 S
C239 C245 1.465 . S
C240 C235 1.399 . S
C240 C239 1.394 1_556 S
C240 C241 1.516 . S
C241 C240 1.516 . S
C241 C242 1.502 . S
C241 C243 1.561 . S
C241 C244 1.526 . S
C242 H226 0.959 . S
C242 H227 0.959 . S
C242 H228 0.961 . S
C242 C241 1.502 . S
C243 H229 0.960 . S
C243 H230 0.961 . S
C243 H231 0.959 . S
C243 C241 1.561 . S
C244 C241 1.526 . S
C244 C245 1.396 1_556 S
C244 C249 1.390 . S
C245 C239 1.465 . S
C245 C244 1.396 1_554 S
C245 C246 1.399 . S
C246 H232 0.929 . S
C246 C245 1.399 . S
C246 C247 1.385 . S
C247 H233 0.931 . S
C247 C246 1.385 . S
C247 C248 1.389 . S
C248 C247 1.389 . S
C248 C249 1.387 1_554 S
C249 H234 0.930 . S
C249 C244 1.390 . S
C249 C248 1.387 1_556 S
H250 C262 0.930 . S
H251 C264 0.930 . S
H252 C265 0.930 . S
H253 C269 0.959 . S
H254 C269 0.959 . S
H255 C269 0.961 . S
H256 C270 0.960 . S
H257 C270 0.961 . S
H258 C270 0.959 . S
H259 C273 0.929 . S
H260 C274 0.931 . S
H261 C276 0.930 . S
C262 H250 0.930 . S
C262 C263 1.399 . S
C262 C267 1.399 . S
C263 C262 1.399 . S
C263 C264 1.376 . S
C264 H251 0.930 . S
C264 C263 1.376 . S
C264 C265 1.388 . S
C265 H252 0.930 . S
C265 C264 1.388 . S
C265 C266 1.390 . S
C266 C265 1.390 . S
C266 C267 1.394 . S
C266 C272 1.465 . S
C267 C262 1.399 . S
C267 C266 1.394 . S
C267 C268 1.516 . S
C268 C267 1.516 . S
C268 C269 1.502 . S
C268 C270 1.561 . S
C268 C271 1.526 . S
C269 H253 0.959 . S
C269 H254 0.959 . S
C269 H255 0.961 . S
C269 C268 1.502 . S
C270 H256 0.960 . S
C270 H257 0.961 . S
C270 H258 0.959 . S
C270 C268 1.561 . S
C271 C268 1.526 . S
C271 C272 1.396 . S
C271 C276 1.390 . S
C272 C266 1.465 . S
C272 C271 1.396 . S
C272 C273 1.399 . S
C273 H259 0.929 . S
C273 C272 1.399 . S
C273 C274 1.385 . S
C274 H260 0.931 . S
C274 C273 1.385 . S
C274 C275 1.389 . S
C275 C274 1.389 . S
C275 C276 1.387 . S
C276 H261 0.930 . S
C276 C271 1.390 . S
C276 C275 1.387 . S
H277 C289 0.930 . S
H278 C291 0.930 . S
H279 C292 0.930 . S
H280 C296 0.959 . S
H281 C296 0.959 . S
H282 C296 0.961 . S
H283 C297 0.960 . S
H284 C297 0.961 . S
H285 C297 0.959 . S
H286 C300 0.929 . S
H287 C301 0.931 . S
H288 C303 0.930 . S
C289 H277 0.930 . S
C289 C290 1.399 1_556 S
C289 C294 1.399 . S
C290 C289 1.399 1_554 S
C290 C291 1.376 . S
C291 H278 0.930 . S
C291 C290 1.376 . S
C291 C292 1.388 . S
C292 H279 0.930 . S
C292 C291 1.388 . S
C292 C293 1.390 . S
C293 C292 1.390 . S
C293 C294 1.394 1_554 S
C293 C299 1.465 . S
C294 C289 1.399 . S
C294 C293 1.394 1_556 S
C294 C295 1.516 . S
C295 C294 1.516 . S
C295 C296 1.502 . S
C295 C297 1.561 . S
C295 C298 1.526 . S
C296 H280 0.959 . S
C296 H281 0.959 . S
C296 H282 0.961 . S
C296 C295 1.502 . S
C297 H283 0.960 . S
C297 H284 0.961 . S
C297 H285 0.959 . S
C297 C295 1.561 . S
C298 C295 1.526 . S
C298 C299 1.396 1_556 S
C298 C303 1.390 . S
C299 C293 1.465 . S
C299 C298 1.396 1_554 S
C299 C300 1.399 . S
C300 H286 0.929 . S
C300 C299 1.399 . S
C300 C301 1.385 . S
C301 H287 0.931 . S
C301 C300 1.385 . S
C301 C302 1.389 . S
C302 C301 1.389 . S
C302 C303 1.387 1_554 S
C303 H288 0.930 . S
C303 C298 1.390 . S
C303 C302 1.387 1_556 S
H304 C316 0.930 . S
H305 C318 0.930 . S
H306 C319 0.930 . S
H307 C323 0.959 1_455 S
H308 C323 0.959 . S
H309 C323 0.961 . S
H310 C324 0.966 . S
H311 C324 0.979 . S
H312 C324 0.946 1_455 S
H313 C327 0.929 . S
H314 C328 0.931 . S
H315 C330 0.930 1_655 S
C316 H304 0.930 . S
C316 C317 1.399 . S
C316 C321 1.399 . S
C317 C316 1.399 . S
C317 C318 1.376 . S
C318 H305 0.930 . S
C318 C317 1.376 . S
C318 C319 1.388 . S
C319 H306 0.930 . S
C319 C318 1.388 . S
C319 C320 1.390 . S
C320 C319 1.390 . S
C320 C321 1.394 . S
C320 C326 1.465 . S
C321 C316 1.399 . S
C321 C320 1.394 . S
C321 C322 1.516 . S
C322 C321 1.516 . S
C322 C323 1.502 1_455 S
C322 C324 1.550 1_455 S
C322 C325 1.526 . S
C323 H307 0.959 1_655 S
C323 H308 0.959 . S
C323 H309 0.961 . S
C323 C322 1.502 1_655 S
C324 H310 0.966 . S
C324 H311 0.979 . S
C324 H312 0.946 1_655 S
C324 C322 1.550 1_655 S
C325 C322 1.526 . S
C325 C326 1.396 . S
C325 C330 1.390 . S
C326 C320 1.465 . S
C326 C325 1.396 . S
C326 C327 1.399 . S
C327 H313 0.929 . S
C327 C326 1.399 . S
C327 C328 1.385 . S
C328 H314 0.931 . S
C328 C327 1.385 . S
C328 C329 1.389 . S
C329 C328 1.389 . S
C329 C330 1.387 . S
C330 H315 0.930 1_455 S
C330 C325 1.390 . S
C330 C329 1.387 . S
H331 C343 0.930 . S
H332 C345 0.930 . S
H333 C346 0.930 . S
H334 C350 0.959 . S
H335 C350 0.959 . S
H336 C350 0.961 . S
H337 C351 0.960 . S
H338 C351 0.961 . S
H339 C351 0.959 . S
H340 C354 0.929 . S
H341 C355 0.931 . S
H342 C357 0.930 . S
C343 H331 0.930 . S
C343 C344 1.399 . S
C343 C348 1.399 . S
C344 C343 1.399 . S
C344 C345 1.376 . S
C345 H332 0.930 . S
C345 C344 1.376 . S
C345 C346 1.388 . S
C346 H333 0.930 . S
C346 C345 1.388 . S
C346 C347 1.390 . S
C347 C346 1.390 . S
C347 C348 1.394 . S
C347 C353 1.465 . S
C348 C343 1.399 . S
C348 C347 1.394 . S
C348 C349 1.516 . S
C349 C348 1.516 . S
C349 C350 1.502 . S
C349 C351 1.561 . S
C349 C352 1.526 . S
C350 H334 0.959 . S
C350 H335 0.959 . S
C350 H336 0.961 . S
C350 C349 1.502 . S
C351 H337 0.960 . S
C351 H338 0.961 . S
C351 H339 0.959 . S
C351 C349 1.561 . S
C352 C349 1.526 . S
C352 C353 1.396 . S
C352 C357 1.390 . S
C353 C347 1.465 . S
C353 C352 1.396 . S
C353 C354 1.399 . S
C354 H340 0.929 . S
C354 C353 1.399 . S
C354 C355 1.385 . S
C355 H341 0.931 . S
C355 C354 1.385 . S
C355 C356 1.389 . S
C356 C355 1.389 . S
C356 C357 1.387 . S
C357 H342 0.930 . S
C357 C352 1.390 . S
C357 C356 1.387 . S
H358 C370 0.930 . S
H359 C372 0.930 . S
H360 C373 0.930 . S
H361 C377 0.959 . S
H362 C377 0.959 . S
H363 C377 0.961 . S
H364 C378 0.960 1_455 S
H365 C378 0.961 1_455 S
H366 C378 0.959 . S
H367 C381 0.929 . S
H368 C382 0.931 . S
H369 C384 0.930 1_455 S
C370 H358 0.930 . S
C370 C371 1.399 . S
C370 C375 1.399 . S
C371 C370 1.399 . S
C371 C372 1.376 . S
C372 H359 0.930 . S
C372 C371 1.376 . S
C372 C373 1.388 . S
C373 H360 0.930 . S
C373 C372 1.388 . S
C373 C374 1.390 . S
C374 C373 1.390 . S
C374 C375 1.394 . S
C374 C380 1.465 . S
C375 C370 1.399 . S
C375 C374 1.394 . S
C375 C376 1.516 . S
C376 C375 1.516 . S
C376 C377 1.502 1_655 S
C376 C378 1.561 . S
C376 C379 1.526 . S
C377 H361 0.959 . S
C377 H362 0.959 . S
C377 H363 0.961 . S
C377 C376 1.502 1_455 S
C378 H364 0.960 1_655 S
C378 H365 0.961 1_655 S
C378 H366 0.959 . S
C378 C376 1.561 . S
C379 C376 1.526 . S
C379 C380 1.396 . S
C379 C384 1.390 . S
C380 C374 1.465 . S
C380 C379 1.396 . S
C380 C381 1.399 . S
C381 H367 0.929 . S
C381 C380 1.399 . S
C381 C382 1.385 . S
C382 H368 0.931 . S
C382 C381 1.385 . S
C382 C383 1.389 . S
C383 C382 1.389 . S
C383 C384 1.387 . S
C384 H369 0.930 1_655 S
C384 C379 1.390 . S
C384 C383 1.387 . S
H385 C397 0.930 . S
H386 C399 0.930 . S
H387 C400 0.930 . S
H388 C404 0.959 . S
H389 C404 0.959 . S
H390 C404 0.961 . S
H391 C405 0.960 . S
H392 C405 0.961 . S
H393 C405 0.959 . S
H394 C408 0.929 . S
H395 C409 0.931 . S
H396 C411 0.930 . S
C397 H385 0.930 . S
C397 C398 1.399 . S
C397 C402 1.399 . S
C398 C397 1.399 . S
C398 C399 1.376 . S
C399 H386 0.930 . S
C399 C398 1.376 . S
C399 C400 1.388 . S
C400 H387 0.930 . S
C400 C399 1.388 . S
C400 C401 1.390 . S
C401 C400 1.390 . S
C401 C402 1.394 . S
C401 C407 1.465 . S
C402 C397 1.399 . S
C402 C401 1.394 . S
C402 C403 1.516 . S
C403 C402 1.516 . S
C403 C404 1.502 . S
C403 C405 1.561 . S
C403 C406 1.526 . S
C404 H388 0.959 . S
C404 H389 0.959 . S
C404 H390 0.961 . S
C404 C403 1.502 . S
C405 H391 0.960 . S
C405 H392 0.961 . S
C405 H393 0.959 . S
C405 C403 1.561 . S
C406 C403 1.526 . S
C406 C407 1.396 . S
C406 C411 1.390 . S
C407 C401 1.465 . S
C407 C406 1.396 . S
C407 C408 1.399 . S
C408 H394 0.929 . S
C408 C407 1.399 . S
C408 C409 1.385 . S
C409 H395 0.931 . S
C409 C408 1.385 . S
C409 C410 1.389 . S
C410 C409 1.389 . S
C410 C411 1.387 . S
C411 H396 0.930 . S
C411 C406 1.390 . S
C411 C410 1.387 . S
H412 C424 0.930 . S
H413 C426 0.930 . S
H414 C427 0.930 . S
H415 C431 0.959 . S
H416 C431 0.959 . S
H417 C431 0.961 . S
H418 C432 0.960 . S
H419 C432 0.961 . S
H420 C432 0.959 . S
H421 C435 0.929 . S
H422 C436 0.931 . S
H423 C438 0.930 . S
C424 H412 0.930 . S
C424 C425 1.399 . S
C424 C429 1.399 . S
C425 C424 1.399 . S
C425 C426 1.376 . S
C426 H413 0.930 . S
C426 C425 1.376 . S
C426 C427 1.388 . S
C427 H414 0.930 . S
C427 C426 1.388 . S
C427 C428 1.390 . S
C428 C427 1.390 . S
C428 C429 1.394 . S
C428 C434 1.465 . S
C429 C424 1.399 . S
C429 C428 1.394 . S
C429 C430 1.516 . S
C430 C429 1.516 . S
C430 C431 1.502 . S
C430 C432 1.561 . S
C430 C433 1.526 . S
C431 H415 0.959 . S
C431 H416 0.959 . S
C431 H417 0.961 . S
C431 C430 1.502 . S
C432 H418 0.960 . S
C432 H419 0.961 . S
C432 H420 0.959 . S
C432 C430 1.561 . S
C433 C430 1.526 . S
C433 C434 1.396 . S
C433 C438 1.390 . S
C434 C428 1.465 . S
C434 C433 1.396 . S
C434 C435 1.399 . S
C435 H421 0.929 . S
C435 C434 1.399 . S
C435 C436 1.385 . S
C436 H422 0.931 . S
C436 C435 1.385 . S
C436 C437 1.389 . S
C437 C436 1.389 . S
C437 C438 1.387 . S
C438 H423 0.930 . S
C438 C433 1.390 . S
C438 C437 1.387 . S
H439 C451 0.930 . S
H440 C453 0.930 . S
H441 C454 0.930 . S
H442 C458 0.959 . S
H443 C458 0.959 . S
H444 C458 0.961 . S
H445 C459 0.960 . S
H446 C459 0.961 . S
H447 C459 0.959 . S
H448 C462 0.929 . S
H449 C463 0.931 . S
H450 C465 0.952 . S
C451 H439 0.930 . S
C451 C452 1.399 . S
C451 C456 1.399 . S
C452 C451 1.399 . S
C452 C453 1.376 . S
C453 H440 0.930 . S
C453 C452 1.376 . S
C453 C454 1.388 . S
C454 H441 0.930 . S
C454 C453 1.388 . S
C454 C455 1.390 . S
C455 C454 1.390 . S
C455 C456 1.394 . S
C455 C461 1.465 . S
C456 C451 1.399 . S
C456 C455 1.394 . S
C456 C457 1.516 . S
C457 C456 1.516 . S
C457 C458 1.502 1_655 S
C457 C459 1.561 . S
C457 C460 1.526 . S
C458 H442 0.959 . S
C458 H443 0.959 . S
C458 H444 0.961 . S
C458 C457 1.502 1_455 S
C459 H445 0.960 . S
C459 H446 0.961 . S
C459 H447 0.959 . S
C459 C457 1.561 . S
C460 C457 1.526 . S
C460 C461 1.396 . S
C460 C465 1.390 . S
C461 C455 1.465 . S
C461 C460 1.396 . S
C461 C462 1.399 . S
C462 H448 0.929 . S
C462 C461 1.399 . S
C462 C463 1.385 . S
C463 H449 0.931 . S
C463 C462 1.385 . S
C463 C464 1.389 . S
C464 C463 1.389 . S
C464 C465 1.387 . S
C465 H450 0.952 . S
C465 C460 1.390 . S
C465 C464 1.387 . S
H466 C478 0.930 . S
H467 C480 0.930 . S
H468 C481 0.930 . S
H469 C485 0.959 . S
H470 C485 0.959 . S
H471 C485 0.961 . S
H472 C486 0.960 . S
H473 C486 0.961 . S
H474 C486 0.959 . S
H475 C489 0.929 . S
H476 C490 0.931 . S
H477 C492 0.930 . S
C478 H466 0.930 . S
C478 C479 1.399 . S
C478 C483 1.399 . S
C479 C478 1.399 . S
C479 C480 1.376 . S
C480 H467 0.930 . S
C480 C479 1.376 . S
C480 C481 1.388 . S
C481 H468 0.930 . S
C481 C480 1.388 . S
C481 C482 1.390 . S
C482 C481 1.390 . S
C482 C483 1.394 . S
C482 C488 1.465 . S
C483 C478 1.399 . S
C483 C482 1.394 . S
C483 C484 1.516 . S
C484 C483 1.516 . S
C484 C485 1.502 . S
C484 C486 1.561 . S
C484 C487 1.526 . S
C485 H469 0.959 . S
C485 H470 0.959 . S
C485 H471 0.961 . S
C485 C484 1.502 . S
C486 H472 0.960 . S
C486 H473 0.961 . S
C486 H474 0.959 . S
C486 C484 1.561 . S
C487 C484 1.526 . S
C487 C488 1.396 . S
C487 C492 1.390 . S
C488 C482 1.465 . S
C488 C487 1.396 . S
C488 C489 1.399 . S
C489 H475 0.929 . S
C489 C488 1.399 . S
C489 C490 1.385 . S
C490 H476 0.931 . S
C490 C489 1.385 . S
C490 C491 1.389 . S
C491 C490 1.389 . S
C491 C492 1.387 . S
C492 H477 0.930 . S
C492 C487 1.390 . S
C492 C491 1.387 . S
H493 C505 0.930 . S
H494 C507 0.930 . S
H495 C508 0.930 . S
H496 C512 0.959 . S
H497 C512 0.959 . S
H498 C512 0.961 . S
H499 C513 0.960 . S
H500 C513 0.961 . S
H501 C513 0.959 . S
H502 C516 0.929 . S
H503 C517 0.931 . S
H504 C519 0.930 . S
C505 H493 0.930 . S
C505 C506 1.399 . S
C505 C510 1.399 . S
C506 C505 1.399 . S
C506 C507 1.376 . S
C507 H494 0.930 . S
C507 C506 1.376 . S
C507 C508 1.388 . S
C508 H495 0.930 . S
C508 C507 1.388 . S
C508 C509 1.390 . S
C509 C508 1.390 . S
C509 C510 1.394 . S
C509 C515 1.465 . S
C510 C505 1.399 . S
C510 C509 1.394 . S
C510 C511 1.516 . S
C511 C510 1.516 . S
C511 C512 1.502 . S
C511 C513 1.561 . S
C511 C514 1.526 . S
C512 H496 0.959 . S
C512 H497 0.959 . S
C512 H498 0.961 . S
C512 C511 1.502 . S
C513 H499 0.960 . S
C513 H500 0.961 . S
C513 H501 0.959 . S
C513 C511 1.561 . S
C514 C511 1.526 . S
C514 C515 1.396 . S
C514 C519 1.390 . S
C515 C509 1.465 . S
C515 C514 1.396 . S
C515 C516 1.399 . S
C516 H502 0.929 . S
C516 C515 1.399 . S
C516 C517 1.385 . S
C517 H503 0.931 . S
C517 C516 1.385 . S
C517 C518 1.389 . S
C518 C517 1.389 . S
C518 C519 1.387 . S
C519 H504 0.930 . S
C519 C514 1.390 . S
C519 C518 1.387 . S
C221 C132 1.588 . S
C209 C119 1.589 . S
C236 C23 1.420 . S
C248 C175 1.546 . S
C263 C55 1.461 . S
C275 C141 1.591 . S
C290 C87 1.546 . S
C302 C166 1.534 . S
C329 C128 1.580 . S
C317 C17 1.472 . S
C356 C170 1.639 . S
C344 C61 1.553 . S
C371 C93 1.575 . S
C383 C136 1.572 . S
C398 C113 1.647 . S
C410 C162 1.650 . S
C437 C191 1.651 . S
C425 C49 1.519 . S
C464 C157 1.577 . S
C452 C81 1.579 . S
C491 C179 1.654 . S
C479 C125 1.654 . S
C506 C29 1.473 . S
C518 C145 1.557 . S
