# Generated by pormake.
# Topology pth, (4,4)-cn, num edge types: 1
# Building blocks:
#     Node 0, Type 0, BuildingBlock: KUFVIS_clean_sbu_0, # of connection points: 4
#     Node 1, Type 0, BuildingBlock: KUFVIS_clean_sbu_0, # of connection points: 4
#     Node 2, Type 0, BuildingBlock: KUFVIS_clean_sbu_0, # of connection points: 4
#     Node 3, Type 1, BuildingBlock: MUDLON_clean_linker_0, # of connection points: 4
#     Node 4, Type 1, BuildingBlock: MUDLON_clean_linker_0, # of connection points: 4
#     Node 5, Type 1, BuildingBlock: MUDLON_clean_linker_0, # of connection points: 4
#     Edge 6, Type (0, 1), BuildingBlock: EZIPEK_clean_linker_0, # of connection points: 2
#     Edge 7, Type (0, 1), BuildingBlock: EZIPEK_clean_linker_0, # of connection points: 2
#     Edge 8, Type (0, 1), BuildingBlock: EZIPEK_clean_linker_0, # of connection points: 2
#     Edge 9, Type (0, 1), BuildingBlock: EZIPEK_clean_linker_0, # of connection points: 2
#     Edge 10, Type (0, 1), BuildingBlock: EZIPEK_clean_linker_0, # of connection points: 2
#     Edge 11, Type (0, 1), BuildingBlock: EZIPEK_clean_linker_0, # of connection points: 2
#     Edge 12, Type (0, 1), BuildingBlock: EZIPEK_clean_linker_0, # of connection points: 2
#     Edge 13, Type (0, 1), BuildingBlock: EZIPEK_clean_linker_0, # of connection points: 2
#     Edge 14, Type (0, 1), BuildingBlock: EZIPEK_clean_linker_0, # of connection points: 2
#     Edge 15, Type (0, 1), BuildingBlock: EZIPEK_clean_linker_0, # of connection points: 2
#     Edge 16, Type (0, 1), BuildingBlock: EZIPEK_clean_linker_0, # of connection points: 2
#     Edge 17, Type (0, 1), BuildingBlock: EZIPEK_clean_linker_0, # of connection points: 2
# Relax obj value: 0.040
# Max RMSD: 0.105
# Mean RMSD: 0.093
data_MOF--net-pth--node1-KUFVIS_clean_sbu_0--node2-MUDLON_clean_linker_0--edge1-EZIPEK_clean_linker_0
_symmetry_space_group_name_H-M    P1
_symmetry_Int_Tables_number       1
_symmetry_cell_setting            triclinic
loop_
_symmetry_equiv_pos_as_xyz
'x, y, z'
_cell_length_a     26.673239
_cell_length_b     26.755868
_cell_length_c     55.106348
_cell_angle_alpha  90.461907
_cell_angle_beta   91.986768
_cell_angle_gamma 120.14029
loop_
_atom_site_label
_atom_site_type_symbol
_atom_site_fract_x
_atom_site_fract_y
_atom_site_fract_z
_atom_type_partial_charge
Mn0 Mn 0.04784 0.01976 0.03769 0.0
Mn1 Mn 0.9794 0.08744 0.0145 0.0
C2 C 0.98359 0.97929 0.00414 0.0
C3 C 0.05064 0.95587 0.06576 0.0
C4 C 0.10483 0.12449 0.00498 0.0
O5 O 0.06012 0.07749 0.06483 0.0
O6 O 0.00754 0.11474 0.04868 0.0
C7 C 0.879 0.03672 0.04617 0.0
N8 N 0.90036 0.04657 0.02353 0.0
C9 C 0.80406 0.99695 0.00488 0.0
C10 C 0.78105 0.98624 0.028 0.0
C11 C 0.81873 0.00604 0.04874 0.0
C12 C 0.86451 0.02698 0.00347 0.0
H13 H 0.90771 0.05223 0.06215 0.0
C14 C 0.03785 0.10983 0.06603 0.0
O15 O 0.09723 0.99439 0.05567 0.0
O16 O 0.00294 0.95523 0.05965 0.0
N17 N 0.94874 0.06532 0.98178 0.0
C18 C 0.97783 0.08042 0.96079 0.0
C19 C 0.94644 0.06459 0.93837 0.0
C20 C 0.88553 0.03467 0.93774 0.0
C21 C 0.85651 0.0209 0.95956 0.0
C22 C 0.89011 0.03765 0.98136 0.0
H23 H 0.02466 0.10427 0.96112 0.0
O24 O 0.02147 0.96373 0.00934 0.0
O25 O 0.98359 0.01723 0.01906 0.0
O26 O 0.10761 0.08551 0.01726 0.0
O27 O 0.05994 0.13015 0.00364 0.0
C28 C 0.79557 0.99182 0.96056 0.0
C29 C 0.76937 0.97924 0.98319 0.0
H30 H 0.73457 0.96293 0.03005 0.0
H31 H 0.80135 0.99797 0.06666 0.0
H32 H 0.96916 0.07573 0.92161 0.0
H33 H 0.86155 0.02293 0.92039 0.0
H34 H 0.76835 0.979 0.94405 0.0
H35 H 0.72249 0.95632 0.98371 0.0
Mn36 Mn 0.00229 0.99555 0.37064 0.0
Mn37 Mn 0.06889 0.12876 0.39783 0.0
C38 C 0.07181 0.01835 0.40184 0.0
C39 C 0.99488 0.93207 0.33945 0.0
C40 C 0.94751 0.03437 0.40934 0.0
O41 O 0.98378 0.0419 0.34677 0.0
O42 O 0.03146 0.12938 0.36588 0.0
C43 C 0.15992 0.18684 0.36211 0.0
N44 N 0.14476 0.17196 0.38542 0.0
C45 C 0.24495 0.21973 0.39954 0.0
C46 C 0.26158 0.23549 0.37568 0.0
C47 C 0.21885 0.21884 0.35687 0.0
C48 C 0.18555 0.18724 0.40361 0.0
H49 H 0.12735 0.17443 0.3476 0.0
C50 C 1.00092 0.09569 0.34798 0.0
O51 O 0.95068 0.92241 0.35194 0.0
O52 O 0.04356 0.97898 0.34511 0.0
N53 N 0.1081 0.13654 0.42861 0.0
C54 C 0.08484 0.12123 0.45084 0.0
C55 C 0.12177 0.13626 0.47172 0.0
C56 C 0.18219 0.16788 0.4696 0.0
C57 C 0.20511 0.18513 0.44666 0.0
C58 C 0.16613 0.16922 0.42652 0.0
H59 H 0.03843 0.0975 0.45264 0.0
O60 O 0.0345 0.96492 0.39591 0.0
O61 O 0.06813 0.05716 0.38902 0.0
O62 O 0.94478 0.9968 0.3941 0.0
O63 O 0.99187 0.08514 0.41219 0.0
C64 C 0.26508 0.21827 0.44302 0.0
C65 C 0.28499 0.23506 0.41945 0.0
H66 H 0.30701 0.26041 0.37159 0.0
H67 H 0.23131 0.23082 0.3384 0.0
H68 H 0.10371 0.12344 0.4894 0.0
H69 H 0.21053 0.17917 0.48574 0.0
H70 H 0.2963 0.23146 0.45823 0.0
H71 H 0.33121 0.26031 0.41687 0.0
Mn72 Mn 0.05502 0.05133 0.70302 0.0
Mn73 Mn 0.9977 0.11857 0.73393 0.0
C74 C 0.10507 0.10883 0.7371 0.0
C75 C 0.10912 0.04914 0.67121 0.0
C76 C 0.95621 0.99113 0.73811 0.0
O77 O 0.99211 0.04676 0.67943 0.0
O78 O 0.95986 0.09613 0.70065 0.0
C79 C 0.05698 0.22425 0.70513 0.0
N80 N 0.04133 0.1989 0.727 0.0
C81 C 0.0948 0.29101 0.74825 0.0
C82 C 0.10753 0.31843 0.72588 0.0
C83 C 0.08958 0.2848 0.70421 0.0
C84 C 0.06256 0.23054 0.74793 0.0
H85 H 0.04658 0.19827 0.68867 0.0
C86 C 0.95825 0.06718 0.6817 0.0
O87 O 0.0705 0.00189 0.68086 0.0
O88 O 0.11585 0.09761 0.67969 0.0
N89 N 0.02693 0.14225 0.76669 0.0
C90 C 0.01415 0.10887 0.78665 0.0
C91 C 0.03207 0.13546 0.80985 0.0
C92 C 0.06193 0.19603 0.81236 0.0
C93 C 0.07324 0.22942 0.79163 0.0
C94 C 0.05414 0.2005 0.76899 0.0
H95 H 0.9902 0.06228 0.7849 0.0
O96 O 0.11727 0.07069 0.72897 0.0
O97 O 0.06456 0.11235 0.72479 0.0
O98 O 0.99264 0.98959 0.72408 0.0
O99 O 0.95318 0.03649 0.74251 0.0
C100 C 0.10225 0.29027 0.79253 0.0
C101 C 0.11405 0.32112 0.77083 0.0
H102 H 0.13281 0.36511 0.72514 0.0
H103 H 0.10162 0.30544 0.68689 0.0
H104 H 0.02268 0.10931 0.82578 0.0
H105 H 0.07587 0.21641 0.83029 0.0
H106 H 0.11684 0.31383 0.80981 0.0
H107 H 0.13834 0.36794 0.77171 0.0
H108 H 0.92398 0.74308 0.20193 0.0
N109 N 0.97658 0.68118 0.19807 0.0
H110 H 0.92898 0.80322 0.23664 0.0
H111 H 0.01997 0.68141 0.24438 0.0
H112 H 0.01877 0.73608 0.27982 0.0
H113 H 0.05835 0.79743 0.20024 0.0
H114 H 0.08081 0.86225 0.16648 0.0
H115 H 0.96364 0.65058 0.15066 0.0
H116 H 0.99401 0.71569 0.11644 0.0
H117 H 0.88499 0.57581 0.19229 0.0
H118 H 0.06963 0.6668 0.20702 0.0
H119 H 0.88245 0.48355 0.19396 0.0
H120 H 0.06775 0.57438 0.21027 0.0
H121 H 0.87514 0.1946 0.21976 0.0
H122 H 0.88365 0.1456 0.25592 0.0
H123 H 0.05239 0.29283 0.27404 0.0
H124 H 0.04356 0.34202 0.23791 0.0
H125 H 0.06303 0.3104 0.19857 0.0
H126 H 0.09165 0.26715 0.16635 0.0
H127 H 0.92323 0.19994 0.13021 0.0
H128 H 0.89401 0.24194 0.16285 0.0
H129 H 0.87963 0.32461 0.2194 0.0
H130 H 0.88791 0.41953 0.22015 0.0
H131 H 0.05664 0.49247 0.18931 0.0
N132 N 0.95458 0.29586 0.20348 0.0
H133 H 0.04942 0.39793 0.19029 0.0
C134 C 0.97207 0.70807 0.22021 0.0
C135 C 0.94465 0.74119 0.2189 0.0
C136 C 0.94751 0.77549 0.23871 0.0
C137 C 0.9747 0.7747 0.26088 0.0
C138 C 0.99827 0.73812 0.26283 0.0
C139 C 0.99849 0.70639 0.24253 0.0
C140 C 0.00683 0.71855 0.17828 0.0
C141 C 0.04383 0.77868 0.18209 0.0
C142 C 0.05731 0.81604 0.1627 0.0
C143 C 0.03772 0.79407 0.13887 0.0
C144 C 0.00837 0.73382 0.1347 0.0
C145 C 0.99153 0.69654 0.15424 0.0
C146 C 0.97718 0.62773 0.19977 0.0
C147 C 0.92491 0.57554 0.19623 0.0
C148 C 0.92366 0.52283 0.19744 0.0
C149 C 0.9748 0.52095 0.20264 0.0
C150 C 0.02752 0.57378 0.20604 0.0
C151 C 0.02875 0.6267 0.2044 0.0
C152 C 0.95852 0.2717 0.22624 0.0
C153 C 0.91344 0.21662 0.23179 0.0
C154 C 0.91834 0.18877 0.25229 0.0
C155 C 0.96862 0.2157 0.26752 0.0
C156 C 0.01324 0.27158 0.26245 0.0
C157 C 0.00821 0.29955 0.24193 0.0
C158 C 0.97601 0.279 0.18313 0.0
C159 C 0.03242 0.28697 0.18362 0.0
C160 C 0.04884 0.2624 0.16525 0.0
C161 C 0.00949 0.23034 0.14597 0.0
C162 C 0.95418 0.22464 0.14493 0.0
C163 C 0.93762 0.24869 0.16342 0.0
C164 C 0.96317 0.35363 0.20446 0.0
C165 C 0.91859 0.36128 0.21302 0.0
C166 C 0.92327 0.41565 0.21316 0.0
C167 C 0.97247 0.46398 0.20428 0.0
C168 C 0.01815 0.45661 0.19639 0.0
C169 C 0.01383 0.40214 0.1967 0.0
H170 H 0.7631 0.06776 0.55163 0.0
N171 N 0.66893 0.96101 0.54104 0.0
H172 H 0.83134 0.09339 0.58681 0.0
H173 H 0.65363 0.89974 0.5808 0.0
H174 H 0.72025 0.92645 0.61673 0.0
H175 H 0.76473 0.95015 0.53845 0.0
H176 H 0.82477 0.96663 0.50402 0.0
H177 H 0.64533 0.97773 0.49312 0.0
H178 H 0.70596 0.9931 0.45862 0.0
H179 H 0.68157 0.06484 0.52697 0.0
H180 H 0.56013 0.89833 0.55398 0.0
H181 H 0.60622 0.09072 0.52466 0.0
H182 H 0.48596 0.92551 0.55461 0.0
H183 H 0.26364 0.97334 0.54892 0.0
H184 H 0.20198 0.96477 0.58252 0.0
H185 H 0.31969 0.14294 0.60379 0.0
H186 H 0.3809 0.15189 0.56979 0.0
H187 H 0.29075 0.97412 0.50726 0.0
H188 H 0.22652 0.96553 0.47299 0.0
H189 H 0.28958 0.14843 0.4785 0.0
H190 H 0.35499 0.15754 0.51294 0.0
H191 H 0.47361 0.14375 0.53883 0.0
H192 H 0.54995 0.1192 0.54166 0.0
H193 H 0.41912 0.93749 0.53516 0.0
N194 N 0.35978 0.07264 0.53547 0.0
H195 H 0.34421 0.96299 0.53577 0.0
C196 C 0.70368 0.98138 0.56351 0.0
C197 C 0.75297 0.03706 0.56594 0.0
C198 C 0.79201 0.05151 0.58591 0.0
C199 C 0.78134 0.01141 0.60417 0.0
C200 C 0.7297 0.95765 0.60267 0.0
C201 C 0.69155 0.94259 0.58235 0.0
C202 C 0.70259 0.96819 0.51958 0.0
C203 C 0.75176 0.96125 0.52144 0.0
C204 C 0.78606 0.96997 0.50165 0.0
C205 C 0.77093 0.98316 0.47903 0.0
C206 C 0.71936 0.98493 0.47622 0.0
C207 C 0.68511 0.97682 0.49619 0.0
C208 C 0.62577 0.97865 0.53982 0.0
C209 C 0.63855 0.03395 0.53257 0.0
C210 C 0.59517 0.04895 0.53165 0.0
C211 C 0.53867 0.01025 0.5392 0.0
C212 C 0.52748 0.95608 0.54763 0.0
C213 C 0.57018 0.9404 0.54759 0.0
C214 C 0.32695 0.06353 0.55684 0.0
C215 C 0.27673 0.01037 0.56092 0.0
C216 C 0.24145 0.00546 0.58005 0.0
C217 C 0.25631 0.05332 0.59549 0.0
C218 C 0.30764 0.10561 0.59203 0.0
C219 C 0.34253 0.11064 0.57279 0.0
C220 C 0.32855 0.06693 0.51273 0.0
C221 C 0.29255 0.01292 0.5009 0.0
C222 C 0.25549 0.00781 0.48126 0.0
C223 C 0.25346 0.05638 0.47322 0.0
C224 C 0.2909 0.11061 0.48432 0.0
C225 C 0.32819 0.11577 0.50388 0.0
C226 C 0.40322 0.05557 0.53631 0.0
C227 C 0.4618 0.09866 0.53811 0.0
C228 C 0.50552 0.08426 0.53944 0.0
C229 C 0.4918 0.026 0.53832 0.0
C230 C 0.43251 0.98286 0.5365 0.0
C231 C 0.38889 0.99742 0.53613 0.0
H232 H 0.7217 0.86801 0.88715 0.0
N233 N 0.69405 0.76727 0.8664 0.0
H234 H 0.79089 0.91773 0.92146 0.0
H235 H 0.75152 0.72448 0.89305 0.0
H236 H 0.82046 0.77415 0.92794 0.0
H237 H 0.76621 0.7337 0.84732 0.0
H238 H 0.82513 0.7742 0.81173 0.0
H239 H 0.69199 0.84274 0.83614 0.0
H240 H 0.75468 0.88716 0.80194 0.0
H241 H 0.60592 0.74163 0.89441 0.0
H242 H 0.66781 0.66355 0.84357 0.0
H243 H 0.5186 0.64825 0.89897 0.0
H244 H 0.57965 0.57135 0.84695 0.0
H245 H 0.21533 0.33624 0.88798 0.0
H246 H 0.17377 0.2733 0.92252 0.0
H247 H 0.34342 0.30346 0.94499 0.0
H248 H 0.38464 0.36396 0.90968 0.0
H249 H 0.3457 0.3032 0.86014 0.0
H250 H 0.30005 0.23769 0.82439 0.0
H251 H 0.21618 0.33347 0.80308 0.0
H252 H 0.26113 0.39816 0.83879 0.0
H253 H 0.34073 0.49388 0.87906 0.0
H254 H 0.43204 0.58527 0.87768 0.0
H255 H 0.52399 0.49121 0.871 0.0
N256 N 0.3241 0.38804 0.87458 0.0
H257 H 0.43153 0.40006 0.87108 0.0
C258 C 0.73145 0.79273 0.88775 0.0
C259 C 0.74261 0.84703 0.89616 0.0
C260 C 0.78183 0.87526 0.91572 0.0
C261 C 0.81018 0.84939 0.92735 0.0
C262 C 0.7985 0.79449 0.91925 0.0
C263 C 0.75942 0.76629 0.89944 0.0
C264 C 0.72333 0.78408 0.84388 0.0
C265 C 0.7615 0.76525 0.83684 0.0
C266 C 0.79561 0.78886 0.81674 0.0
C267 C 0.79478 0.83416 0.80431 0.0
C268 C 0.75601 0.85223 0.81118 0.0
C269 C 0.72019 0.82689 0.8306 0.0
C270 C 0.64381 0.71045 0.86866 0.0
C271 C 0.60065 0.70444 0.88416 0.0
C272 C 0.55044 0.65099 0.88657 0.0
C273 C 0.54146 0.60202 0.87313 0.0
C274 C 0.58518 0.60777 0.85785 0.0
C275 C 0.63595 0.66121 0.85575 0.0
C276 C 0.303 0.35526 0.89625 0.0
C277 C 0.24361 0.32937 0.90036 0.0
C278 C 0.21994 0.29339 0.91994 0.0
C279 C 0.25548 0.28339 0.93611 0.0
C280 C 0.31532 0.31039 0.93254 0.0
C281 C 0.33883 0.34525 0.91245 0.0
C282 C 0.30603 0.35498 0.85208 0.0
C283 C 0.31831 0.31058 0.84748 0.0
C284 C 0.29218 0.27325 0.82719 0.0
C285 C 0.25298 0.27953 0.81156 0.0
C286 C 0.24434 0.32651 0.81537 0.0
C287 C 0.27049 0.36377 0.8355 0.0
C288 C 0.37949 0.44052 0.87545 0.0
C289 C 0.38078 0.49327 0.87749 0.0
C290 C 0.43318 0.54542 0.87684 0.0
C291 C 0.48585 0.54598 0.8744 0.0
C292 C 0.48441 0.49267 0.87261 0.0
C293 C 0.43165 0.44041 0.87293 0.0
C294 C 1.00048 0.10742 0.10739 0.0
C295 C 0.04098 0.13872 0.08956 0.0
C296 C 0.0653 0.23026 0.10991 0.0
C297 C 0.02431 0.19923 0.12764 0.0
N298 N 0.96516 0.10896 0.14722 0.0
N299 N 0.12537 0.2264 0.07872 0.0
C300 C 0.99578 0.13788 0.12764 0.0
C301 C 0.07767 0.19921 0.09237 0.0
N302 N 0.96512 0.04891 0.10451 0.0
N303 N 0.09052 0.28902 0.10916 0.0
H304 H 0.13723 0.20305 0.06737 0.0
H305 H 0.15649 0.27004 0.08098 0.0
H306 H 0.0824 0.31334 0.12163 0.0
H307 H 0.11599 0.31311 0.09506 0.0
H308 H 0.92973 0.02464 0.11513 0.0
H309 H 0.96922 0.02485 0.09053 0.0
H310 H 0.94801 0.06477 0.14936 0.0
H311 H 0.96145 0.13003 0.16248 0.0
C312 C 0.88055 0.06043 0.43036 0.0
C313 C 0.89695 0.01853 0.42492 0.0
C314 C 0.81784 0.94926 0.44961 0.0
C315 C 0.80961 0.99428 0.45847 0.0
N316 N 0.83942 0.0957 0.45972 0.0
N317 N 0.8853 0.92418 0.43353 0.0
C318 C 0.84247 0.05069 0.44945 0.0
C319 C 0.86637 0.96293 0.43544 0.0
N320 N 0.89946 0.10869 0.41681 0.0
N321 N 0.77901 0.89317 0.45466 0.0
H322 H 0.92165 0.93159 0.42437 0.0
H323 H 0.86811 0.88634 0.44332 0.0
H324 H 0.74267 0.88167 0.46483 0.0
H325 H 0.77955 0.85805 0.44663 0.0
H326 H 0.88412 0.13742 0.41861 0.0
H327 H 0.92516 0.11666 0.40194 0.0
H328 H 0.86754 0.13871 0.45565 0.0
H329 H 0.8124 0.09074 0.47384 0.0
C330 C 0.85513 0.91139 0.74551 0.0
C331 C 0.91563 0.93848 0.75098 0.0
C332 C 0.89751 0.89442 0.79068 0.0
C333 C 0.83673 0.86556 0.78512 0.0
N334 N 0.75911 0.83367 0.75449 0.0
N335 N 0.99297 0.93759 0.77441 0.0
C336 C 0.81593 0.86986 0.76158 0.0
C337 C 0.93632 0.92363 0.77207 0.0
N338 N 0.83517 0.92633 0.72528 0.0
N339 N 0.91854 0.89792 0.81399 0.0
H340 H 0.02122 0.95568 0.76032 0.0
H341 H 0.00939 0.92428 0.78882 0.0
H342 H 0.89207 0.88076 0.82868 0.0
H343 H 0.9624 0.92348 0.81912 0.0
H344 H 0.79157 0.91313 0.7218 0.0
H345 H 0.8629 0.9545 0.71259 0.0
H346 H 0.74263 0.83155 0.73685 0.0
H347 H 0.72982 0.80167 0.76561 0.0
C348 C 1.00028 0.85761 0.0841 0.0
C349 C 0.05059 0.91322 0.08316 0.0
C350 C 0.09719 0.88383 0.11465 0.0
C351 C 0.04306 0.83383 0.11888 0.0
N352 N 0.93866 0.78391 0.11119 0.0
N353 N 0.14337 0.98312 0.10259 0.0
C354 C 0.9932 0.82359 0.10462 0.0
C355 C 0.09844 0.92757 0.09973 0.0
N356 N 0.96001 0.83588 0.06517 0.0
N357 N 0.14749 0.88936 0.12446 0.0
H358 H 0.14418 0.01793 0.09395 0.0
H359 H 0.17641 0.99556 0.11597 0.0
H360 H 0.14848 0.85703 0.13456 0.0
H361 H 0.1883 0.92302 0.1202 0.0
H362 H 0.92474 0.79378 0.06476 0.0
H363 H 0.96602 0.85651 0.04866 0.0
H364 H 0.90141 0.77888 0.10206 0.0
H365 H 0.93046 0.76157 0.12731 0.0
C366 C 0.10522 0.01455 0.44459 0.0
C367 C 0.11928 0.03169 0.42028 0.0
C368 C 0.22185 0.06329 0.43034 0.0
C369 C 0.20788 0.04914 0.45489 0.0
N370 N 0.13914 0.02043 0.48647 0.0
N371 N 0.19033 0.0727 0.38954 0.0
C372 C 0.15026 0.02692 0.46228 0.0
C373 C 0.17756 0.05641 0.41303 0.0
N374 N 0.04857 0.98684 0.45085 0.0
N375 N 0.2771 0.08135 0.42353 0.0
H376 H 0.15883 0.06455 0.37594 0.0
H377 H 0.23223 0.09685 0.38351 0.0
H378 H 0.31045 0.08742 0.43583 0.0
H379 H 0.28984 0.08757 0.40568 0.0
H380 H 0.03436 0.96597 0.46717 0.0
H381 H 0.01507 0.98287 0.43925 0.0
H382 H 0.09965 0.0111 0.49339 0.0
H383 H 0.17091 0.02924 0.50006 0.0
C384 C 0.14563 0.13492 0.78021 0.0
C385 C 0.14365 0.15229 0.75611 0.0
C386 C 0.22179 0.25071 0.76754 0.0
C387 C 0.21755 0.23501 0.79225 0.0
N388 N 0.16733 0.16425 0.82266 0.0
N389 N 0.17945 0.22728 0.7265 0.0
C390 C 0.17763 0.17753 0.79875 0.0
C391 C 0.18144 0.21049 0.74971 0.0
N392 N 0.11642 0.07768 0.78552 0.0
N393 N 0.26626 0.30311 0.76099 0.0
H394 H 0.15457 0.19847 0.71232 0.0
H395 H 0.19994 0.27033 0.72153 0.0
H396 H 0.29769 0.33277 0.77346 0.0
H397 H 0.27546 0.31514 0.74306 0.0
H398 H 0.12153 0.06193 0.80209 0.0
H399 H 0.0903 0.04552 0.7727 0.0
H400 H 0.13458 0.12447 0.82834 0.0
H401 H 0.18704 0.19465 0.8369 0.0
C402 C 0.89124 0.0919 0.65645 0.0
C403 C 0.9118 0.05299 0.66213 0.0
C404 C 0.85068 0.98997 0.6279 0.0
C405 C 0.82528 0.02504 0.62441 0.0
N406 N 0.81092 0.10105 0.64013 0.0
N407 N 0.89147 0.9539 0.65777 0.0
C408 C 0.84225 0.07339 0.64018 0.0
C409 C 0.88602 0.99877 0.64915 0.0
N410 N 0.9195 0.1475 0.66536 0.0
N411 N 0.84246 0.94905 0.61077 0.0
H412 H 0.91071 0.9551 0.6747 0.0
H413 H 0.86945 0.91263 0.64965 0.0
H414 H 0.8187 0.94252 0.59445 0.0
H415 H 0.86458 0.92615 0.61172 0.0
H416 H 0.90913 0.17837 0.65961 0.0
H417 H 0.95721 0.16497 0.67617 0.0
H418 H 0.81815 0.13295 0.65304 0.0
H419 H 0.77383 0.08788 0.62892 0.0
C420 C 0.8798 0.91185 0.99017 0.0
C421 C 0.93868 0.94822 0.98432 0.0
C422 C 0.91361 0.91657 0.94134 0.0
C423 C 0.85461 0.88175 0.94716 0.0
N424 N 0.77933 0.85208 0.97584 0.0
N425 N 0.01338 0.98227 0.95521 0.0
C426 C 0.83711 0.881 0.97123 0.0
C427 C 0.95602 0.94946 0.96012 0.0
N428 N 0.8652 0.90416 0.01396 0.0
N429 N 0.92833 0.92037 0.91758 0.0
H430 H 0.04429 0.0113 0.96791 0.0
H431 H 0.03103 0.98056 0.93891 0.0
H432 H 0.89868 0.89619 0.90343 0.0
H433 H 0.96903 0.94926 0.91139 0.0
H434 H 0.82452 0.87346 0.01964 0.0
H435 H 0.89492 0.92546 0.02845 0.0
H436 H 0.76296 0.85611 0.99215 0.0
H437 H 0.74696 0.8269 0.9627 0.0
C438 C 0.93721 0.85975 0.30523 0.0
C439 C 0.98977 0.89122 0.31957 0.0
C440 C 0.03468 0.85193 0.29326 0.0
C441 C 0.97978 0.81355 0.28168 0.0
N442 N 0.8756 0.77094 0.28233 0.0
N443 N 0.0833 0.90156 0.33098 0.0
C444 C 0.92995 0.81423 0.28945 0.0
C445 C 0.03714 0.88285 0.31473 0.0
N446 N 0.89544 0.87501 0.30537 0.0
N447 N 0.08477 0.86112 0.28338 0.0
H448 H 0.0848 0.91933 0.34807 0.0
H449 H 0.11641 0.89221 0.32872 0.0
H450 H 0.08552 0.84267 0.26676 0.0
H451 H 0.12568 0.89247 0.29033 0.0
H452 H 0.85857 0.85547 0.29371 0.0
H453 H 0.90106 0.91186 0.31447 0.0
H454 H 0.83816 0.76768 0.28922 0.0
H455 H 0.86826 0.73504 0.27187 0.0
C456 C 0.18799 0.03247 0.65694 0.0
C457 C 0.14519 0.04799 0.65161 0.0
C458 C 0.17594 0.068 0.60962 0.0
C459 C 0.21679 0.04973 0.61464 0.0
N460 N 0.25679 0.00698 0.64164 0.0
N461 N 0.09153 0.07159 0.6224 0.0
C462 C 0.22122 0.02953 0.63789 0.0
C463 C 0.13731 0.06342 0.62781 0.0
N464 N 0.19865 0.02311 0.68044 0.0
N465 N 0.17482 0.09067 0.58758 0.0
H466 H 0.06244 0.06862 0.63527 0.0
H467 H 0.07941 0.07676 0.60487 0.0
H468 H 0.20045 0.09224 0.57341 0.0
H469 H 0.15119 0.11118 0.58374 0.0
H470 H 0.23351 0.0181 0.68603 0.0
H471 H 0.17515 0.02467 0.69488 0.0
H472 H 0.25716 0.98549 0.65725 0.0
H473 H 0.28329 0.00605 0.62838 0.0
C474 C 0.1751 0.22649 0.99424 0.0
C475 C 0.15584 0.16659 0.9913 0.0
C476 C 0.21741 0.18754 0.95617 0.0
C477 C 0.22891 0.2454 0.95702 0.0
N478 N 0.2228 0.32211 0.97723 0.0
N479 N 0.1614 0.08981 0.97032 0.0
C480 C 0.20959 0.26564 0.97641 0.0
C481 C 0.1789 0.14721 0.97287 0.0
N482 N 0.16099 0.24586 0.01446 0.0
N483 N 0.24299 0.17108 0.93921 0.0
H484 H 0.138 0.05941 0.98311 0.0
H485 H 0.16853 0.07135 0.9551 0.0
H486 H 0.26852 0.19822 0.92579 0.0
H487 H 0.24243 0.13192 0.93928 0.0
H488 H 0.17796 0.28927 0.01923 0.0
H489 H 0.13544 0.21813 0.02769 0.0
H490 H 0.20395 0.33832 0.98877 0.0
H491 H 0.25153 0.35292 0.96556 0.0
C492 C 0.01953 0.12939 0.30517 0.0
C493 C 0.98899 0.12213 0.32667 0.0
C494 C 0.94759 0.17887 0.30992 0.0
C495 C 0.97575 0.18367 0.28797 0.0
N496 N 0.02962 0.15489 0.26277 0.0
N497 N 0.91426 0.12799 0.34748 0.0
C498 C 0.00915 0.15636 0.28502 0.0
C499 C 0.95024 0.14355 0.32848 0.0
N500 N 0.05997 0.11234 0.30428 0.0
N501 N 0.91948 0.20915 0.31321 0.0
H502 H 0.9135 0.09986 0.36062 0.0
H503 H 0.88129 0.1378 0.34884 0.0
H504 H 0.91613 0.23492 0.29988 0.0
H505 H 0.90343 0.21237 0.32975 0.0
H506 H 0.08871 0.12291 0.29034 0.0
H507 H 0.06785 0.09098 0.31834 0.0
H508 H 0.04849 0.13009 0.25872 0.0
H509 H 0.02365 0.17485 0.24764 0.0
loop_
_geom_bond_atom_site_label_1
_geom_bond_atom_site_label_2
_geom_bond_distance
_geom_bond_site_symmetry_2
_ccdc_geom_bond_type
Mn0 O5 2.095 . S
Mn0 O15 2.162 1_545 S
Mn0 O16 2.297 1_445 S
Mn0 O24 2.385 1_445 S
Mn0 O25 2.215 1_445 S
Mn0 O26 2.094 . S
Mn1 O6 2.121 . S
Mn1 N8 2.257 . S
Mn1 N17 2.282 1_554 S
Mn1 O25 2.195 1_545 S
Mn1 O27 2.117 1_654 S
C2 O24 1.234 . S
C2 O25 1.301 . S
C3 O15 1.281 . S
C3 O16 1.236 1_455 S
C4 O26 1.240 . S
C4 O27 1.264 1_554 S
O5 Mn0 2.095 . S
O5 C14 1.250 . S
O6 Mn1 2.121 . S
O6 C14 1.258 1_655 S
C7 N8 1.326 . S
C7 C11 1.460 . S
C7 H13 0.929 . S
N8 Mn1 2.257 . S
N8 C7 1.326 . S
N8 C12 1.362 1_554 S
C9 C10 1.258 . S
C9 C12 1.431 . S
C9 C29 1.449 . S
C10 C9 1.258 . S
C10 C11 1.477 1_556 S
C10 H30 0.931 . S
C11 C7 1.460 . S
C11 C10 1.477 1_554 S
C11 H31 0.930 . S
C12 N8 1.362 1_556 S
C12 C9 1.431 . S
C12 C22 1.476 . S
H13 C7 0.929 . S
C14 O5 1.250 . S
C14 O6 1.258 1_455 S
O15 Mn0 2.162 1_565 S
O15 C3 1.281 . S
O16 Mn0 2.297 1_665 S
O16 C3 1.236 1_655 S
N17 Mn1 2.282 1_556 S
N17 C18 1.328 . S
N17 C22 1.318 . S
C18 N17 1.328 . S
C18 C19 1.457 . S
C18 H23 0.929 1_655 S
C19 C18 1.457 . S
C19 C20 1.291 . S
C19 H32 0.931 . S
C20 C19 1.291 . S
C20 C21 1.373 . S
C20 H33 0.929 1_545 S
C21 C20 1.373 . S
C21 C22 1.396 . S
C21 C28 1.403 1_545 S
C22 C12 1.476 . S
C22 N17 1.318 . S
C22 C21 1.396 . S
H23 C18 0.929 1_455 S
O24 Mn0 2.385 1_665 S
O24 C2 1.234 . S
O25 Mn0 2.215 1_665 S
O25 Mn1 2.195 1_565 S
O25 C2 1.301 . S
O26 Mn0 2.094 . S
O26 C4 1.240 . S
O27 Mn1 2.117 1_456 S
O27 C4 1.264 1_556 S
C28 C21 1.403 1_565 S
C28 C29 1.399 1_565 S
C28 H34 0.929 . S
C29 C9 1.449 . S
C29 C28 1.399 1_545 S
C29 H35 0.930 1_545 S
H30 C10 0.931 . S
H31 C11 0.930 . S
H32 C19 0.931 . S
H33 C20 0.929 1_565 S
H34 C28 0.929 . S
H35 C29 0.930 1_565 S
Mn36 O41 2.095 1_565 S
Mn36 O51 2.162 . S
Mn36 O52 2.297 1_655 S
Mn36 O60 2.385 1_655 S
Mn36 O61 2.209 1_665 S
Mn36 O62 2.094 . S
Mn37 O42 2.121 . S
Mn37 N44 2.257 . S
Mn37 N53 2.282 . S
Mn37 O61 2.215 . S
Mn37 O63 2.117 1_455 S
C38 O60 1.234 1_545 S
C38 O61 1.283 . S
C39 O51 1.281 . S
C39 O52 1.236 1_655 S
C40 O62 1.240 1_545 S
C40 O63 1.264 . S
O41 Mn36 2.095 1_545 S
O41 C50 1.250 1_655 S
O42 Mn37 2.121 . S
O42 C50 1.258 . S
C43 N44 1.326 . S
C43 C47 1.460 . S
C43 H49 0.929 . S
N44 Mn37 2.257 . S
N44 C43 1.326 . S
N44 C48 1.362 . S
C45 C46 1.258 . S
C45 C48 1.431 . S
C45 C65 1.449 . S
C46 C45 1.258 . S
C46 C47 1.477 . S
C46 H66 0.931 . S
C47 C43 1.460 . S
C47 C46 1.477 . S
C47 H67 0.930 . S
C48 N44 1.362 . S
C48 C45 1.431 . S
C48 C58 1.476 . S
H49 C43 0.929 . S
C50 O41 1.250 1_455 S
C50 O42 1.258 . S
O51 Mn36 2.162 . S
O51 C39 1.281 . S
O52 Mn36 2.297 1_455 S
O52 C39 1.236 1_455 S
N53 Mn37 2.282 . S
N53 C54 1.328 . S
N53 C58 1.318 . S
C54 N53 1.328 . S
C54 C55 1.457 . S
C54 H59 0.929 . S
C55 C54 1.457 . S
C55 C56 1.291 . S
C55 H68 0.931 . S
C56 C55 1.291 . S
C56 C57 1.373 . S
C56 H69 0.929 . S
C57 C56 1.373 . S
C57 C58 1.396 . S
C57 C64 1.403 . S
C58 C48 1.476 . S
C58 N53 1.318 . S
C58 C57 1.396 . S
H59 C54 0.929 . S
O60 Mn36 2.385 1_455 S
O60 C38 1.234 1_565 S
O61 Mn36 2.209 1_445 S
O61 Mn37 2.215 . S
O61 C38 1.283 . S
O62 Mn36 2.094 . S
O62 C40 1.240 1_565 S
O63 Mn37 2.117 1_655 S
O63 C40 1.264 . S
C64 C57 1.403 . S
C64 C65 1.399 . S
C64 H70 0.929 . S
C65 C45 1.449 . S
C65 C64 1.399 . S
C65 H71 0.930 . S
H66 C46 0.931 . S
H67 C47 0.930 . S
H68 C55 0.931 . S
H69 C56 0.929 . S
H70 C64 0.929 . S
H71 C65 0.930 . S
Mn72 O77 2.095 1_455 S
Mn72 O87 2.162 1_545 S
Mn72 O88 2.297 . S
Mn72 O96 2.385 . S
Mn72 O97 2.209 . S
Mn72 O98 2.094 1_445 S
Mn73 O78 2.121 . S
Mn73 N80 2.257 . S
Mn73 N89 2.282 . S
Mn73 O97 2.215 1_655 S
Mn73 O99 2.117 1_545 S
C74 O96 1.234 . S
C74 O97 1.283 . S
C75 O87 1.281 1_545 S
C75 O88 1.236 . S
C76 O98 1.240 . S
C76 O99 1.264 . S
O77 Mn72 2.095 1_655 S
O77 C86 1.250 . S
O78 Mn73 2.121 . S
O78 C86 1.258 . S
C79 N80 1.326 . S
C79 C83 1.460 . S
C79 H85 0.929 . S
N80 Mn73 2.257 . S
N80 C79 1.326 . S
N80 C84 1.362 1_655 S
C81 C82 1.258 . S
C81 C84 1.431 . S
C81 C101 1.449 . S
C82 C81 1.258 . S
C82 C83 1.477 1_455 S
C82 H102 0.931 . S
C83 C79 1.460 . S
C83 C82 1.477 1_655 S
C83 H103 0.930 . S
C84 N80 1.362 1_455 S
C84 C81 1.431 . S
C84 C94 1.476 . S
H85 C79 0.929 . S
C86 O77 1.250 . S
C86 O78 1.258 . S
O87 Mn72 2.162 1_565 S
O87 C75 1.281 1_565 S
O88 Mn72 2.297 . S
O88 C75 1.236 . S
N89 Mn73 2.282 . S
N89 C90 1.328 1_655 S
N89 C94 1.318 1_655 S
C90 N89 1.328 1_455 S
C90 C91 1.457 . S
C90 H95 0.929 1_455 S
C91 C90 1.457 . S
C91 C92 1.291 . S
C91 H104 0.931 . S
C92 C91 1.291 . S
C92 C93 1.373 . S
C92 H105 0.929 . S
C93 C92 1.373 . S
C93 C94 1.396 . S
C93 C100 1.403 . S
C94 C84 1.476 . S
C94 N89 1.318 1_455 S
C94 C93 1.396 . S
H95 C90 0.929 1_655 S
O96 Mn72 2.385 . S
O96 C74 1.234 . S
O97 Mn72 2.209 . S
O97 Mn73 2.215 1_455 S
O97 C74 1.283 . S
O98 Mn72 2.094 1_665 S
O98 C76 1.240 . S
O99 Mn73 2.117 1_565 S
O99 C76 1.264 . S
C100 C93 1.403 . S
C100 C101 1.399 . S
C100 H106 0.929 . S
C101 C81 1.449 . S
C101 C100 1.399 . S
C101 H107 0.930 . S
H102 C82 0.931 . S
H103 C83 0.930 . S
H104 C91 0.931 . S
H105 C92 0.929 . S
H106 C100 0.929 . S
H107 C101 0.930 . S
H108 C135 0.929 . S
N109 C134 1.433 . S
N109 C140 1.435 1_655 S
N109 C146 1.423 . S
H110 C136 0.930 . S
H111 C139 0.931 . S
H112 C138 0.929 . S
H113 C141 0.930 . S
H114 C142 0.932 . S
H115 C145 0.929 . S
H116 C144 0.931 . S
H117 C147 0.929 . S
H118 C151 0.932 . S
H119 C148 0.931 . S
H120 C150 0.929 . S
H121 C153 0.929 . S
H122 C154 0.930 . S
H123 C156 0.929 . S
H124 C157 0.931 . S
H125 C159 0.930 . S
H126 C160 0.932 . S
H127 C162 0.931 . S
H128 C163 0.929 . S
H129 C165 0.929 . S
H130 C166 0.931 . S
H131 C168 0.929 . S
N132 C152 1.433 . S
N132 C158 1.435 1_655 S
N132 C164 1.423 . S
H133 C169 0.932 . S
C134 N109 1.433 . S
C134 C135 1.363 . S
C134 C139 1.370 1_655 S
C135 H108 0.929 . S
C135 C134 1.363 . S
C135 C136 1.385 . S
C136 H110 0.930 . S
C136 C135 1.385 . S
C136 C137 1.357 1_655 S
C137 C136 1.357 1_455 S
C137 C138 1.406 . S
C138 H112 0.929 . S
C138 C137 1.406 . S
C138 C139 1.391 . S
C139 H111 0.931 . S
C139 C134 1.370 1_455 S
C139 C138 1.391 . S
C140 N109 1.435 1_455 S
C140 C141 1.358 . S
C140 C145 1.371 1_455 S
C141 H113 0.930 . S
C141 C140 1.358 . S
C141 C142 1.405 . S
C142 H114 0.932 . S
C142 C141 1.405 . S
C142 C143 1.383 . S
C143 C142 1.383 . S
C143 C144 1.393 1_455 S
C144 H116 0.931 . S
C144 C143 1.393 1_655 S
C144 C145 1.382 . S
C145 H115 0.929 . S
C145 C140 1.371 1_655 S
C145 C144 1.382 . S
C146 N109 1.423 . S
C146 C147 1.362 . S
C146 C151 1.388 1_655 S
C147 H117 0.929 . S
C147 C146 1.362 . S
C147 C148 1.376 . S
C148 H119 0.931 . S
C148 C147 1.376 . S
C148 C149 1.396 . S
C149 C148 1.396 . S
C149 C150 1.348 1_655 S
C149 C167 1.472 . S
C150 H120 0.929 . S
C150 C149 1.348 1_455 S
C150 C151 1.443 . S
C151 H118 0.932 . S
C151 C146 1.388 1_455 S
C151 C150 1.443 . S
C152 N132 1.433 . S
C152 C153 1.363 . S
C152 C157 1.370 1_655 S
C153 H121 0.929 . S
C153 C152 1.363 . S
C153 C154 1.385 . S
C154 H122 0.930 . S
C154 C153 1.385 . S
C154 C155 1.357 1_655 S
C155 C154 1.357 1_455 S
C155 C156 1.406 . S
C156 H123 0.929 . S
C156 C155 1.406 . S
C156 C157 1.391 . S
C157 H124 0.931 . S
C157 C152 1.370 1_455 S
C157 C156 1.391 . S
C158 N132 1.435 1_455 S
C158 C159 1.358 . S
C158 C163 1.371 1_455 S
C159 H125 0.930 . S
C159 C158 1.358 . S
C159 C160 1.405 . S
C160 H126 0.932 . S
C160 C159 1.405 . S
C160 C161 1.383 . S
C161 C160 1.383 . S
C161 C162 1.393 1_455 S
C162 H127 0.931 . S
C162 C161 1.393 1_655 S
C162 C163 1.382 . S
C163 H128 0.929 . S
C163 C158 1.371 1_655 S
C163 C162 1.382 . S
C164 N132 1.423 . S
C164 C165 1.362 . S
C164 C169 1.388 1_655 S
C165 H129 0.929 . S
C165 C164 1.362 . S
C165 C166 1.376 . S
C166 H130 0.931 . S
C166 C165 1.376 . S
C166 C167 1.396 . S
C167 C149 1.472 . S
C167 C166 1.396 . S
C167 C168 1.348 1_655 S
C168 H131 0.929 . S
C168 C167 1.348 1_455 S
C168 C169 1.443 . S
C169 H133 0.932 . S
C169 C164 1.388 1_455 S
C169 C168 1.443 . S
H170 C197 0.929 . S
N171 C196 1.433 . S
N171 C202 1.435 . S
N171 C208 1.423 . S
H172 C198 0.930 . S
H173 C201 0.931 . S
H174 C200 0.929 . S
H175 C203 0.930 . S
H176 C204 0.932 1_565 S
H177 C207 0.929 . S
H178 C206 0.931 . S
H179 C209 0.929 . S
H180 C213 0.932 . S
H181 C210 0.931 . S
H182 C212 0.929 . S
H183 C215 0.929 . S
H184 C216 0.930 . S
H185 C218 0.929 . S
H186 C219 0.931 . S
H187 C221 0.930 . S
H188 C222 0.932 1_565 S
H189 C224 0.931 . S
H190 C225 0.929 . S
H191 C227 0.929 . S
H192 C228 0.931 . S
H193 C230 0.929 . S
N194 C214 1.433 . S
N194 C220 1.435 . S
N194 C226 1.423 . S
H195 C231 0.932 . S
C196 N171 1.433 . S
C196 C197 1.363 . S
C196 C201 1.370 . S
C197 H170 0.929 . S
C197 C196 1.363 . S
C197 C198 1.385 . S
C198 H172 0.930 . S
C198 C197 1.385 . S
C198 C199 1.357 . S
C199 C198 1.357 . S
C199 C200 1.406 . S
C200 H174 0.929 . S
C200 C199 1.406 . S
C200 C201 1.391 . S
C201 H173 0.931 . S
C201 C196 1.370 . S
C201 C200 1.391 . S
C202 N171 1.435 . S
C202 C203 1.358 . S
C202 C207 1.371 . S
C203 H175 0.930 . S
C203 C202 1.358 . S
C203 C204 1.405 . S
C204 H176 0.932 1_545 S
C204 C203 1.405 . S
C204 C205 1.383 . S
C205 C204 1.383 . S
C205 C206 1.393 . S
C206 H178 0.931 . S
C206 C205 1.393 . S
C206 C207 1.382 . S
C207 H177 0.929 . S
C207 C202 1.371 . S
C207 C206 1.382 . S
C208 N171 1.423 . S
C208 C209 1.362 . S
C208 C213 1.388 . S
C209 H179 0.929 . S
C209 C208 1.362 . S
C209 C210 1.376 . S
C210 H181 0.931 . S
C210 C209 1.376 . S
C210 C211 1.396 . S
C211 C210 1.396 . S
C211 C212 1.348 . S
C211 C229 1.472 . S
C212 H182 0.929 . S
C212 C211 1.348 . S
C212 C213 1.443 . S
C213 H180 0.932 . S
C213 C208 1.388 . S
C213 C212 1.443 . S
C214 N194 1.433 . S
C214 C215 1.363 . S
C214 C219 1.370 . S
C215 H183 0.929 . S
C215 C214 1.363 . S
C215 C216 1.385 . S
C216 H184 0.930 . S
C216 C215 1.385 . S
C216 C217 1.357 . S
C217 C216 1.357 . S
C217 C218 1.406 . S
C218 H185 0.929 . S
C218 C217 1.406 . S
C218 C219 1.391 . S
C219 H186 0.931 . S
C219 C214 1.370 . S
C219 C218 1.391 . S
C220 N194 1.435 . S
C220 C221 1.358 . S
C220 C225 1.371 . S
C221 H187 0.930 . S
C221 C220 1.358 . S
C221 C222 1.405 . S
C222 H188 0.932 1_545 S
C222 C221 1.405 . S
C222 C223 1.383 . S
C223 C222 1.383 . S
C223 C224 1.393 . S
C224 H189 0.931 . S
C224 C223 1.393 . S
C224 C225 1.382 . S
C225 H190 0.929 . S
C225 C220 1.371 . S
C225 C224 1.382 . S
C226 N194 1.423 . S
C226 C227 1.362 . S
C226 C231 1.388 . S
C227 H191 0.929 . S
C227 C226 1.362 . S
C227 C228 1.376 . S
C228 H192 0.931 . S
C228 C227 1.376 . S
C228 C229 1.396 . S
C229 C211 1.472 . S
C229 C228 1.396 . S
C229 C230 1.348 . S
C230 H193 0.929 . S
C230 C229 1.348 . S
C230 C231 1.443 . S
C231 H195 0.932 . S
C231 C226 1.388 . S
C231 C230 1.443 . S
H232 C259 0.929 . S
N233 C258 1.433 . S
N233 C264 1.435 . S
N233 C270 1.423 . S
H234 C260 0.930 . S
H235 C263 0.931 . S
H236 C262 0.929 . S
H237 C265 0.930 . S
H238 C266 0.932 . S
H239 C269 0.929 . S
H240 C268 0.931 . S
H241 C271 0.929 . S
H242 C275 0.932 . S
H243 C272 0.931 . S
H244 C274 0.929 . S
H245 C277 0.929 . S
H246 C278 0.930 . S
H247 C280 0.929 . S
H248 C281 0.931 . S
H249 C283 0.930 . S
H250 C284 0.932 . S
H251 C286 0.931 . S
H252 C287 0.929 . S
H253 C289 0.929 . S
H254 C290 0.931 . S
H255 C292 0.929 . S
N256 C276 1.433 . S
N256 C282 1.435 . S
N256 C288 1.423 . S
H257 C293 0.932 . S
C258 N233 1.433 . S
C258 C259 1.363 . S
C258 C263 1.370 . S
C259 H232 0.929 . S
C259 C258 1.363 . S
C259 C260 1.385 . S
C260 H234 0.930 . S
C260 C259 1.385 . S
C260 C261 1.357 . S
C261 C260 1.357 . S
C261 C262 1.406 . S
C262 H236 0.929 . S
C262 C261 1.406 . S
C262 C263 1.391 . S
C263 H235 0.931 . S
C263 C258 1.370 . S
C263 C262 1.391 . S
C264 N233 1.435 . S
C264 C265 1.358 . S
C264 C269 1.371 . S
C265 H237 0.930 . S
C265 C264 1.358 . S
C265 C266 1.405 . S
C266 H238 0.932 . S
C266 C265 1.405 . S
C266 C267 1.383 . S
C267 C266 1.383 . S
C267 C268 1.393 . S
C268 H240 0.931 . S
C268 C267 1.393 . S
C268 C269 1.382 . S
C269 H239 0.929 . S
C269 C264 1.371 . S
C269 C268 1.382 . S
C270 N233 1.423 . S
C270 C271 1.362 . S
C270 C275 1.388 . S
C271 H241 0.929 . S
C271 C270 1.362 . S
C271 C272 1.376 . S
C272 H243 0.931 . S
C272 C271 1.376 . S
C272 C273 1.396 . S
C273 C272 1.396 . S
C273 C274 1.348 . S
C273 C291 1.472 . S
C274 H244 0.929 . S
C274 C273 1.348 . S
C274 C275 1.443 . S
C275 H242 0.932 . S
C275 C270 1.388 . S
C275 C274 1.443 . S
C276 N256 1.433 . S
C276 C277 1.363 . S
C276 C281 1.370 . S
C277 H245 0.929 . S
C277 C276 1.363 . S
C277 C278 1.385 . S
C278 H246 0.930 . S
C278 C277 1.385 . S
C278 C279 1.357 . S
C279 C278 1.357 . S
C279 C280 1.406 . S
C280 H247 0.929 . S
C280 C279 1.406 . S
C280 C281 1.391 . S
C281 H248 0.931 . S
C281 C276 1.370 . S
C281 C280 1.391 . S
C282 N256 1.435 . S
C282 C283 1.358 . S
C282 C287 1.371 . S
C283 H249 0.930 . S
C283 C282 1.358 . S
C283 C284 1.405 . S
C284 H250 0.932 . S
C284 C283 1.405 . S
C284 C285 1.383 . S
C285 C284 1.383 . S
C285 C286 1.393 . S
C286 H251 0.931 . S
C286 C285 1.393 . S
C286 C287 1.382 . S
C287 H252 0.929 . S
C287 C282 1.371 . S
C287 C286 1.382 . S
C288 N256 1.423 . S
C288 C289 1.362 . S
C288 C293 1.388 . S
C289 H253 0.929 . S
C289 C288 1.362 . S
C289 C290 1.376 . S
C290 H254 0.931 . S
C290 C289 1.376 . S
C290 C291 1.396 . S
C291 C273 1.472 . S
C291 C290 1.396 . S
C291 C292 1.348 . S
C292 H255 0.929 . S
C292 C291 1.348 . S
C292 C293 1.443 . S
C293 H257 0.932 . S
C293 C288 1.388 . S
C293 C292 1.443 . S
C294 C295 1.363 1_655 S
C294 C300 1.379 . S
C294 N302 1.356 . S
C295 C294 1.363 1_455 S
C295 C301 1.363 . S
C296 C297 1.363 . S
C296 C301 1.379 . S
C296 N303 1.356 . S
C297 C296 1.363 . S
C297 C300 1.363 1_455 S
N298 C300 1.356 . S
N298 H310 0.984 . S
N298 H311 0.985 . S
N299 C301 1.356 . S
N299 H304 0.984 . S
N299 H305 0.985 . S
C300 C294 1.379 . S
C300 C297 1.363 1_655 S
C300 N298 1.356 . S
C301 C295 1.363 . S
C301 C296 1.379 . S
C301 N299 1.356 . S
N302 C294 1.356 . S
N302 H308 0.984 . S
N302 H309 0.984 . S
N303 C296 1.356 . S
N303 H306 0.984 . S
N303 H307 0.985 . S
H304 N299 0.984 . S
H305 N299 0.985 . S
H306 N303 0.984 . S
H307 N303 0.985 . S
H308 N302 0.984 . S
H309 N302 0.984 . S
H310 N298 0.984 . S
H311 N298 0.985 . S
C312 C313 1.363 . S
C312 C318 1.379 . S
C312 N320 1.356 . S
C313 C312 1.363 . S
C313 C319 1.363 1_545 S
C314 C315 1.363 1_565 S
C314 C319 1.379 . S
C314 N321 1.356 . S
C315 C314 1.363 1_545 S
C315 C318 1.363 . S
N316 C318 1.356 . S
N316 H328 0.984 . S
N316 H329 0.985 . S
N317 C319 1.356 . S
N317 H322 0.984 . S
N317 H323 0.985 . S
C318 C312 1.379 . S
C318 C315 1.363 . S
C318 N316 1.356 . S
C319 C313 1.363 1_565 S
C319 C314 1.379 . S
C319 N317 1.356 . S
N320 C312 1.356 . S
N320 H326 0.984 . S
N320 H327 0.984 . S
N321 C314 1.356 . S
N321 H324 0.984 . S
N321 H325 0.985 . S
H322 N317 0.984 . S
H323 N317 0.985 . S
H324 N321 0.984 . S
H325 N321 0.985 . S
H326 N320 0.984 . S
H327 N320 0.984 . S
H328 N316 0.984 . S
H329 N316 0.985 . S
C330 C331 1.363 . S
C330 C336 1.379 . S
C330 N338 1.356 . S
C331 C330 1.363 . S
C331 C337 1.363 . S
C332 C333 1.363 . S
C332 C337 1.379 . S
C332 N339 1.356 . S
C333 C332 1.363 . S
C333 C336 1.363 . S
N334 C336 1.356 . S
N334 H346 0.984 . S
N334 H347 0.985 . S
N335 C337 1.356 . S
N335 H340 0.984 . S
N335 H341 0.985 1_565 S
C336 C330 1.379 . S
C336 C333 1.363 . S
C336 N334 1.356 . S
C337 C331 1.363 . S
C337 C332 1.379 . S
C337 N335 1.356 . S
N338 C330 1.356 . S
N338 H344 0.984 . S
N338 H345 0.984 . S
N339 C332 1.356 . S
N339 H342 0.984 . S
N339 H343 0.985 . S
H340 N335 0.984 . S
H341 N335 0.985 1_545 S
H342 N339 0.984 . S
H343 N339 0.985 . S
H344 N338 0.984 . S
H345 N338 0.984 . S
H346 N334 0.984 . S
H347 N334 0.985 . S
C348 C349 1.363 1_655 S
C348 C354 1.379 . S
C348 N356 1.356 . S
C349 C348 1.363 1_455 S
C349 C355 1.363 . S
C350 C351 1.363 . S
C350 C355 1.379 . S
C350 N357 1.356 . S
C351 C350 1.363 . S
C351 C354 1.363 1_455 S
N352 C354 1.356 . S
N352 H364 0.984 . S
N352 H365 0.985 . S
N353 C355 1.356 . S
N353 H358 0.984 . S
N353 H359 0.985 . S
C354 C348 1.379 . S
C354 C351 1.363 1_655 S
C354 N352 1.356 . S
C355 C349 1.363 . S
C355 C350 1.379 . S
C355 N353 1.356 . S
N356 C348 1.356 . S
N356 H362 0.984 . S
N356 H363 0.984 . S
N357 C350 1.356 . S
N357 H360 0.984 . S
N357 H361 0.985 . S
H358 N353 0.984 . S
H359 N353 0.985 . S
H360 N357 0.984 . S
H361 N357 0.985 . S
H362 N356 0.984 . S
H363 N356 0.984 . S
H364 N352 0.984 . S
H365 N352 0.985 . S
C366 C367 1.363 . S
C366 C372 1.379 . S
C366 N374 1.356 1_545 S
C367 C366 1.363 . S
C367 C373 1.363 . S
C368 C369 1.363 . S
C368 C373 1.379 . S
C368 N375 1.356 . S
C369 C368 1.363 . S
C369 C372 1.363 . S
N370 C372 1.356 1_565 S
N370 H382 0.984 . S
N370 H383 0.985 . S
N371 C373 1.356 . S
N371 H376 0.984 . S
N371 H377 0.985 . S
C372 C366 1.379 . S
C372 C369 1.363 . S
C372 N370 1.356 1_545 S
C373 C367 1.363 . S
C373 C368 1.379 . S
C373 N371 1.356 . S
N374 C366 1.356 1_565 S
N374 H380 0.984 . S
N374 H381 0.984 . S
N375 C368 1.356 . S
N375 H378 0.984 . S
N375 H379 0.985 . S
H376 N371 0.984 . S
H377 N371 0.985 . S
H378 N375 0.984 . S
H379 N375 0.985 . S
H380 N374 0.984 . S
H381 N374 0.984 . S
H382 N370 0.984 . S
H383 N370 0.985 . S
C384 C385 1.363 . S
C384 C390 1.379 . S
C384 N392 1.356 . S
C385 C384 1.363 . S
C385 C391 1.363 . S
C386 C387 1.363 . S
C386 C391 1.379 . S
C386 N393 1.356 . S
C387 C386 1.363 . S
C387 C390 1.363 . S
N388 C390 1.356 . S
N388 H400 0.984 . S
N388 H401 0.985 . S
N389 C391 1.356 . S
N389 H394 0.984 . S
N389 H395 0.985 . S
C390 C384 1.379 . S
C390 C387 1.363 . S
C390 N388 1.356 . S
C391 C385 1.363 . S
C391 C386 1.379 . S
C391 N389 1.356 . S
N392 C384 1.356 . S
N392 H398 0.984 . S
N392 H399 0.984 . S
N393 C386 1.356 . S
N393 H396 0.984 . S
N393 H397 0.985 . S
H394 N389 0.984 . S
H395 N389 0.985 . S
H396 N393 0.984 . S
H397 N393 0.985 . S
H398 N392 0.984 . S
H399 N392 0.984 . S
H400 N388 0.984 . S
H401 N388 0.985 . S
C402 C403 1.363 . S
C402 C408 1.379 . S
C402 N410 1.356 . S
C403 C402 1.363 . S
C403 C409 1.363 . S
C404 C405 1.363 . S
C404 C409 1.379 . S
C404 N411 1.356 1_545 S
C405 C404 1.363 . S
C405 C408 1.363 . S
N406 C408 1.356 . S
N406 H418 0.984 . S
N406 H419 0.985 . S
N407 C409 1.356 1_565 S
N407 H412 0.984 . S
N407 H413 0.985 . S
C408 C402 1.379 . S
C408 C405 1.363 . S
C408 N406 1.356 . S
C409 C403 1.363 . S
C409 C404 1.379 . S
C409 N407 1.356 1_545 S
N410 C402 1.356 . S
N410 H416 0.984 . S
N410 H417 0.984 . S
N411 C404 1.356 1_565 S
N411 H414 0.984 1_565 S
N411 H415 0.985 . S
H412 N407 0.984 . S
H413 N407 0.985 . S
H414 N411 0.984 1_545 S
H415 N411 0.985 . S
H416 N410 0.984 . S
H417 N410 0.984 . S
H418 N406 0.984 . S
H419 N406 0.985 . S
C420 C421 1.343 1_554 S
C420 C426 1.358 1_554 S
C420 N428 1.398 . S
C421 C420 1.343 1_556 S
C421 C427 1.363 . S
C422 C423 1.363 . S
C422 C427 1.379 . S
C422 N429 1.356 . S
C423 C422 1.363 . S
C423 C426 1.363 . S
N424 C426 1.356 . S
N424 H436 0.984 1_556 S
N424 H437 0.985 . S
N425 C427 1.356 . S
N425 H430 0.984 . S
N425 H431 0.985 . S
C426 C420 1.358 1_556 S
C426 C423 1.363 . S
C426 N424 1.356 . S
C427 C421 1.363 . S
C427 C422 1.379 . S
C427 N425 1.356 . S
N428 C420 1.398 . S
N428 H434 0.984 . S
N428 H435 0.984 . S
N429 C422 1.356 . S
N429 H432 0.984 . S
N429 H433 0.985 . S
H430 N425 0.984 . S
H431 N425 0.985 . S
H432 N429 0.984 . S
H433 N429 0.985 . S
H434 N428 0.984 . S
H435 N428 0.984 . S
H436 N424 0.984 1_554 S
H437 N424 0.985 . S
C438 C439 1.363 1_655 S
C438 C444 1.379 . S
C438 N446 1.356 . S
C439 C438 1.363 1_455 S
C439 C445 1.363 . S
C440 C441 1.363 . S
C440 C445 1.379 . S
C440 N447 1.356 . S
C441 C440 1.363 . S
C441 C444 1.363 1_455 S
N442 C444 1.356 . S
N442 H454 0.984 . S
N442 H455 0.985 . S
N443 C445 1.356 . S
N443 H448 0.984 . S
N443 H449 0.985 . S
C444 C438 1.379 . S
C444 C441 1.363 1_655 S
C444 N442 1.356 . S
C445 C439 1.363 . S
C445 C440 1.379 . S
C445 N443 1.356 . S
N446 C438 1.356 . S
N446 H452 0.984 . S
N446 H453 0.984 . S
N447 C440 1.356 . S
N447 H450 0.984 . S
N447 H451 0.985 . S
H448 N443 0.984 . S
H449 N443 0.985 . S
H450 N447 0.984 . S
H451 N447 0.985 . S
H452 N446 0.984 . S
H453 N446 0.984 . S
H454 N442 0.984 . S
H455 N442 0.985 . S
C456 C457 1.363 1_565 S
C456 C462 1.379 . S
C456 N464 1.356 . S
C457 C456 1.363 1_545 S
C457 C463 1.363 . S
C458 C459 1.363 . S
C458 C463 1.379 . S
C458 N465 1.356 . S
C459 C458 1.363 . S
C459 C462 1.363 1_545 S
N460 C462 1.356 . S
N460 H472 0.984 . S
N460 H473 0.985 . S
N461 C463 1.356 . S
N461 H466 0.984 . S
N461 H467 0.985 . S
C462 C456 1.379 . S
C462 C459 1.363 1_565 S
C462 N460 1.356 . S
C463 C457 1.363 . S
C463 C458 1.379 . S
C463 N461 1.356 . S
N464 C456 1.356 . S
N464 H470 0.984 . S
N464 H471 0.984 . S
N465 C458 1.356 . S
N465 H468 0.984 . S
N465 H469 0.985 . S
H466 N461 0.984 . S
H467 N461 0.985 . S
H468 N465 0.984 . S
H469 N465 0.985 . S
H470 N464 0.984 . S
H471 N464 0.984 . S
H472 N460 0.984 . S
H473 N460 0.985 . S
C474 C475 1.363 . S
C474 C480 1.379 . S
C474 N482 1.356 1_556 S
C475 C474 1.363 . S
C475 C481 1.363 . S
C476 C477 1.363 . S
C476 C481 1.379 . S
C476 N483 1.356 . S
C477 C476 1.363 . S
C477 C480 1.363 . S
N478 C480 1.356 . S
N478 H490 0.984 . S
N478 H491 0.985 . S
N479 C481 1.356 . S
N479 H484 0.984 . S
N479 H485 0.985 . S
C480 C474 1.379 . S
C480 C477 1.363 . S
C480 N478 1.356 . S
C481 C475 1.363 . S
C481 C476 1.379 . S
C481 N479 1.356 . S
N482 C474 1.356 1_554 S
N482 H488 0.984 . S
N482 H489 0.984 . S
N483 C476 1.356 . S
N483 H486 0.984 . S
N483 H487 0.985 . S
H484 N479 0.984 . S
H485 N479 0.985 . S
H486 N483 0.984 . S
H487 N483 0.985 . S
H488 N482 0.984 . S
H489 N482 0.984 . S
H490 N478 0.984 . S
H491 N478 0.985 . S
C492 C493 1.363 . S
C492 C498 1.379 . S
C492 N500 1.356 . S
C493 C492 1.363 . S
C493 C499 1.363 1_455 S
C494 C495 1.363 1_655 S
C494 C499 1.379 . S
C494 N501 1.356 . S
C495 C494 1.363 1_455 S
C495 C498 1.363 . S
N496 C498 1.356 . S
N496 H508 0.984 . S
N496 H509 0.985 . S
N497 C499 1.356 . S
N497 H502 0.984 . S
N497 H503 0.985 . S
C498 C492 1.379 . S
C498 C495 1.363 . S
C498 N496 1.356 . S
C499 C493 1.363 1_655 S
C499 C494 1.379 . S
C499 N497 1.356 . S
N500 C492 1.356 . S
N500 H506 0.984 . S
N500 H507 0.984 . S
N501 C494 1.356 . S
N501 H504 0.984 . S
N501 H505 0.985 . S
H502 N497 0.984 . S
H503 N497 0.985 . S
H504 N501 0.984 . S
H505 N501 0.985 . S
H506 N500 0.984 . S
H507 N500 0.984 . S
H508 N496 0.984 . S
H509 N496 0.985 . S
C297 C161 1.438 . S
C295 C14 1.425 . S
C313 C40 1.433 . S
C315 C205 1.469 . S
C331 C76 1.421 . S
C333 C267 1.455 . S
C349 C3 1.413 . S
C351 C143 1.420 . S
C369 C223 1.461 . S
C367 C38 1.437 . S
C385 C74 1.411 . S
C387 C285 1.437 . S
C405 C199 1.565 . S
C403 C86 1.592 . S
C421 C2 1.675 1_556 S
C423 C261 1.580 . S
C441 C137 1.566 . S
C439 C39 1.688 1_455 S
C459 C217 1.587 . S
C457 C75 1.687 . S
C477 C279 1.597 . S
C475 C4 1.686 1_556 S
C493 C50 1.606 . S
C495 C155 1.582 . S
