# Generated by pormake.
# Topology nom, (4,4)-cn, num edge types: 1
# Building blocks:
#     Node 0, Type 0, BuildingBlock: KUFVIS_clean_linker_0, # of connection points: 4
#     Node 1, Type 0, BuildingBlock: KUFVIS_clean_linker_0, # of connection points: 4
#     Node 2, Type 0, BuildingBlock: KUFVIS_clean_linker_0, # of connection points: 4
#     Node 3, Type 0, BuildingBlock: KUFVIS_clean_linker_0, # of connection points: 4
#     Node 4, Type 0, BuildingBlock: KUFVIS_clean_linker_0, # of connection points: 4
#     Node 5, Type 0, BuildingBlock: KUFVIS_clean_linker_0, # of connection points: 4
#     Node 6, Type 1, BuildingBlock: NAHDIM_clean_sbu_0, # of connection points: 4
#     Node 7, Type 1, BuildingBlock: NAHDIM_clean_sbu_0, # of connection points: 4
#     Node 8, Type 1, BuildingBlock: NAHDIM_clean_sbu_0, # of connection points: 4
#     Node 9, Type 1, BuildingBlock: NAHDIM_clean_sbu_0, # of connection points: 4
#     Node 10, Type 1, BuildingBlock: NAHDIM_clean_sbu_0, # of connection points: 4
#     Node 11, Type 1, BuildingBlock: NAHDIM_clean_sbu_0, # of connection points: 4
#     Edge 12, Type (0, 1), BuildingBlock: XIVTED_clean_linker_0, # of connection points: 2
#     Edge 13, Type (0, 1), BuildingBlock: XIVTED_clean_linker_0, # of connection points: 2
#     Edge 14, Type (0, 1), BuildingBlock: XIVTED_clean_linker_0, # of connection points: 2
#     Edge 15, Type (0, 1), BuildingBlock: XIVTED_clean_linker_0, # of connection points: 2
#     Edge 16, Type (0, 1), BuildingBlock: XIVTED_clean_linker_0, # of connection points: 2
#     Edge 17, Type (0, 1), BuildingBlock: XIVTED_clean_linker_0, # of connection points: 2
#     Edge 18, Type (0, 1), BuildingBlock: XIVTED_clean_linker_0, # of connection points: 2
#     Edge 19, Type (0, 1), BuildingBlock: XIVTED_clean_linker_0, # of connection points: 2
#     Edge 20, Type (0, 1), BuildingBlock: XIVTED_clean_linker_0, # of connection points: 2
#     Edge 21, Type (0, 1), BuildingBlock: XIVTED_clean_linker_0, # of connection points: 2
#     Edge 22, Type (0, 1), BuildingBlock: XIVTED_clean_linker_0, # of connection points: 2
#     Edge 23, Type (0, 1), BuildingBlock: XIVTED_clean_linker_0, # of connection points: 2
#     Edge 24, Type (0, 1), BuildingBlock: XIVTED_clean_linker_0, # of connection points: 2
#     Edge 25, Type (0, 1), BuildingBlock: XIVTED_clean_linker_0, # of connection points: 2
#     Edge 26, Type (0, 1), BuildingBlock: XIVTED_clean_linker_0, # of connection points: 2
#     Edge 27, Type (0, 1), BuildingBlock: XIVTED_clean_linker_0, # of connection points: 2
#     Edge 28, Type (0, 1), BuildingBlock: XIVTED_clean_linker_0, # of connection points: 2
#     Edge 29, Type (0, 1), BuildingBlock: XIVTED_clean_linker_0, # of connection points: 2
#     Edge 30, Type (0, 1), BuildingBlock: XIVTED_clean_linker_0, # of connection points: 2
#     Edge 31, Type (0, 1), BuildingBlock: XIVTED_clean_linker_0, # of connection points: 2
#     Edge 32, Type (0, 1), BuildingBlock: XIVTED_clean_linker_0, # of connection points: 2
#     Edge 33, Type (0, 1), BuildingBlock: XIVTED_clean_linker_0, # of connection points: 2
#     Edge 34, Type (0, 1), BuildingBlock: XIVTED_clean_linker_0, # of connection points: 2
#     Edge 35, Type (0, 1), BuildingBlock: XIVTED_clean_linker_0, # of connection points: 2
# Relax obj value: 0.021
# Max RMSD: 0.123
# Mean RMSD: 0.082
data_MOF--net-nom--node1-NAHDIM_clean_sbu_0--node2-KUFVIS_clean_linker_0--edge1-XIVTED_clean_linker_0
_symmetry_space_group_name_H-M    P1
_symmetry_Int_Tables_number       1
_symmetry_cell_setting            triclinic
loop_
_symmetry_equiv_pos_as_xyz
'x, y, z'
_cell_length_a     45.561853
_cell_length_b     47.040976
_cell_length_c     46.613923
_cell_angle_alpha  89.946138
_cell_angle_beta   90.596814
_cell_angle_gamma 121.02273
loop_
_atom_site_label
_atom_site_type_symbol
_atom_site_fract_x
_atom_site_fract_y
_atom_site_fract_z
_atom_type_partial_charge
H0 H 0.1216 0.60125 0.33154 0.0
H1 H 0.04038 0.55983 0.26924 0.0
H2 H 0.02052 0.52763 0.3578 0.0
H3 H 0.9695 0.52393 0.34678 0.0
H4 H 0.89122 0.4628 0.28583 0.0
H5 H 0.99653 0.50724 0.26219 0.0
C6 C 0.09467 0.58473 0.32642 0.0
C7 C 0.07211 0.56543 0.34803 0.0
C8 C 0.08345 0.58233 0.29808 0.0
C9 C 0.04882 0.56057 0.29116 0.0
C10 C 0.02532 0.54077 0.31265 0.0
C11 C 0.03761 0.54304 0.34104 0.0
C12 C 0.98811 0.51819 0.30559 0.0
C13 C 0.96259 0.5121 0.32588 0.0
C14 C 0.92776 0.49182 0.31874 0.0
C15 C 0.91823 0.47758 0.29144 0.0
C16 C 0.94287 0.48338 0.27094 0.0
C17 C 0.97772 0.5034 0.27812 0.0
H18 H 0.53139 0.12035 0.4964 0.0
H19 H 0.49906 0.04158 0.43516 0.0
H20 H 0.5165 0.02712 0.5242 0.0
H21 H 0.47101 0.9751 0.51427 0.0
H22 H 0.46973 0.90251 0.45815 0.0
H23 H 0.51413 1.00283 0.42928 0.0
C24 C 0.52371 0.09484 0.4916 0.0
C25 C 0.52389 0.07467 0.51349 0.0
C26 C 0.51553 0.08328 0.46336 0.0
C27 C 0.50621 0.05046 0.45701 0.0
C28 C 0.50551 0.02927 0.47899 0.0
C29 C 0.51536 0.04217 0.50712 0.0
C30 C 0.49495 0.99398 0.47288 0.0
C31 C 0.478 0.9692 0.49395 0.0
C32 C 0.46976 0.93649 0.48888 0.0
C33 C 0.47741 0.92812 0.46241 0.0
C34 C 0.49247 0.95172 0.44069 0.0
C35 C 0.5016 0.98466 0.44604 0.0
H36 H 0.54904 0.43768 0.62627 0.0
H37 H 0.50044 0.46987 0.68495 0.0
H38 H 0.51596 0.50298 0.59653 0.0
H39 H 0.46903 0.50584 0.60453 0.0
H40 H 0.4534 0.56716 0.66258 0.0
H41 H 0.5058 0.51906 0.69261 0.0
C42 C 0.53736 0.45235 0.63048 0.0
C43 C 0.53334 0.47 0.60821 0.0
C44 C 0.52594 0.45267 0.65804 0.0
C45 C 0.50997 0.47079 0.6636 0.0
C46 C 0.50594 0.48935 0.64156 0.0
C47 C 0.51783 0.48858 0.6138 0.0
C48 C 0.49031 0.51008 0.64754 0.0
C49 C 0.473 0.51692 0.62562 0.0
C50 C 0.46066 0.53831 0.63083 0.0
C51 C 0.46424 0.55179 0.65823 0.0
C52 C 0.47956 0.5441 0.68056 0.0
C53 C 0.49296 0.52369 0.67519 0.0
H54 H 0.12233 0.55156 0.78871 0.0
H55 H 0.04339 0.4928 0.84863 0.0
H56 H 0.01789 0.49915 0.75983 0.0
H57 H 0.97182 0.44895 0.77003 0.0
H58 H 0.89057 0.42211 0.82933 0.0
H59 H 0.99365 0.49188 0.85557 0.0
C60 C 0.09531 0.53569 0.79339 0.0
C61 C 0.07117 0.52615 0.77122 0.0
C62 C 0.0854 0.5239 0.82122 0.0
C63 C 0.05059 0.50234 0.82708 0.0
C64 C 0.02538 0.49351 0.80526 0.0
C65 C 0.03627 0.50531 0.77712 0.0
C66 C 0.98797 0.473 0.81197 0.0
C67 C 0.96372 0.45182 0.79103 0.0
C68 C 0.92867 0.4336 0.79738 0.0
C69 C 0.91769 0.43638 0.8245 0.0
C70 C 0.94099 0.45709 0.8455 0.0
C71 C 0.97604 0.47528 0.83929 0.0
H72 H 0.49707 0.90485 0.00258 0.0
H73 H 0.52835 0.9822 0.94073 0.0
H74 H 0.50814 0.99744 0.02829 0.0
H75 H 0.55281 0.05022 0.01813 0.0
H76 H 0.55396 0.1197 0.95808 0.0
H77 H 0.5095 0.01799 0.93287 0.0
C78 C 0.50399 0.93008 -0.00247 0.0
C79 C 0.50255 0.9502 0.01886 0.0
C80 C 0.51266 0.94132 0.96942 0.0
C81 C 0.52086 0.9736 0.96248 0.0
C82 C 0.51996 0.99465 0.98371 0.0
C83 C 0.51007 0.98228 0.01181 0.0
C84 C 0.52912 0.02931 0.97667 0.0
C85 C 0.5457 0.05508 -0.00274 0.0
C86 C 0.55373 0.08748 0.99086 0.0
C87 C 0.546 0.09432 0.96354 0.0
C88 C 0.53082 0.06961 0.94245 0.0
C89 C 0.52197 0.03708 0.94917 0.0
H90 H 0.48008 0.60154 0.12921 0.0
H91 H 0.51738 0.55831 0.18912 0.0
H92 H 0.50999 0.53436 0.09854 0.0
H93 H 0.55705 0.53163 0.10961 0.0
H94 H 0.57096 0.46781 0.1662 0.0
H95 H 0.50878 0.50678 0.19291 0.0
C96 C 0.49045 0.58567 0.13332 0.0
C97 C 0.4952 0.56923 0.11052 0.0
C98 C 0.49785 0.58133 0.16154 0.0
C99 C 0.5107 0.56045 0.1672 0.0
C100 C 0.51577 0.54341 0.14456 0.0
C101 C 0.5072 0.54763 0.11625 0.0
C102 C 0.5304 0.52175 0.1503 0.0
C103 C 0.551 0.5183 0.12969 0.0
C104 C 0.56523 0.49858 0.13541 0.0
C105 C 0.5591 0.48231 0.16166 0.0
C106 C 0.53915 0.48551 0.18251 0.0
C107 C 0.52466 0.50502 0.17675 0.0
C108 C 0.60928 0.30532 0.38233 0.0
O109 O 0.6348 0.31896 0.36423 0.0
O110 O 0.67432 0.39574 0.38372 0.0
Zn111 Zn 0.6235 0.37332 0.39113 0.0
O112 O 0.616 0.39285 0.42682 0.0
C113 C 0.60565 0.41236 0.35678 0.0
O114 O 0.62507 0.43461 0.37617 0.0
O115 O 0.60089 0.32359 0.39573 0.0
C116 C 0.58675 0.38933 0.43088 0.0
O117 O 0.56184 0.37175 0.41242 0.0
C118 C 0.69551 0.39214 0.39894 0.0
O119 O 0.68432 0.3718 0.42087 0.0
O120 O 0.60135 0.38345 0.35819 0.0
C121 C 0.33052 0.71265 0.57043 0.0
O122 O 0.34407 0.69721 0.58337 0.0
O123 O 0.30495 0.62819 0.56359 0.0
Zn124 Zn 0.27239 0.64554 0.56164 0.0
O125 O 0.2426 0.63018 0.52598 0.0
C126 C 0.22814 0.6027 0.60689 0.0
O127 O 0.23714 0.58208 0.59725 0.0
O128 O 0.30028 0.69575 0.56015 0.0
C129 C 0.21463 0.60252 0.52342 0.0
O130 O 0.20478 0.58078 0.54423 0.0
C131 C 0.29998 0.60074 0.55392 0.0
O132 O 0.27076 0.57994 0.54118 0.0
O133 O 0.24109 0.63134 0.5958 0.0
C134 C 0.61622 0.32062 0.74063 0.0
O135 O 0.64486 0.33333 0.7556 0.0
O136 O 0.67383 0.28569 0.73715 0.0
Zn137 Zn 0.62226 0.26118 0.73256 0.0
O138 O 0.60724 0.23291 0.69692 0.0
C139 C 0.60229 0.20391 0.76693 0.0
O140 O 0.61991 0.19921 0.74736 0.0
O141 O 0.6035 0.29181 0.72971 0.0
C142 C 0.62398 0.22177 0.68447 0.0
O143 O 0.65466 0.23021 0.69406 0.0
C144 C 0.69466 0.30884 0.72077 0.0
O145 O 0.68266 0.31858 0.69963 0.0
O146 O 0.60025 0.22985 0.76576 0.0
C147 C 0.44327 0.72127 0.89421 0.0
O148 O 0.46342 0.70915 0.89735 0.0
O149 O 0.3391 0.63028 0.88741 0.0
Zn150 Zn 0.39073 0.65167 0.89013 0.0
O151 O 0.40559 0.63892 0.92656 0.0
C152 C 0.39323 0.6103 0.84515 0.0
O153 O 0.36247 0.58863 0.85431 0.0
O154 O 0.4113 0.70139 0.89047 0.0
C155 C 0.40649 0.61241 0.92881 0.0
O156 O 0.39583 0.59134 0.90728 0.0
C157 C 0.31665 0.60259 0.89795 0.0
O158 O 0.32641 0.5846 0.91201 0.0
O159 O 0.40939 0.63904 0.85649 0.0
C160 C 0.6962 0.40758 0.04947 0.0
O161 O 0.68329 0.38443 0.02953 0.0
O162 O 0.70933 0.33691 0.05413 0.0
Zn163 Zn 0.74512 0.38572 0.05767 0.0
O164 O 0.77637 0.39344 0.09135 0.0
C165 C 0.79928 0.3968 0.02009 0.0
O166 O 0.80417 0.38002 0.04018 0.0
O167 O 0.72233 0.4124 0.06377 0.0
C168 C 0.8039 0.42145 0.09374 0.0
O169 O 0.81028 0.44464 0.07485 0.0
C170 C 0.71525 0.31426 0.06152 0.0
O171 O 0.74562 0.32265 0.07182 0.0
O172 O 0.77439 0.40165 0.02229 0.0
C173 C 0.39669 0.70282 0.24173 0.0
O174 O 0.36695 0.68791 0.25463 0.0
O175 O 0.33474 0.73314 0.23415 0.0
Zn176 Zn 0.38636 0.75973 0.2313 0.0
O177 O 0.40076 0.78687 0.1954 0.0
C178 C 0.43653 0.80576 0.27216 0.0
O179 O 0.45622 0.79625 0.26046 0.0
O180 O 0.40809 0.73155 0.23119 0.0
C181 C 0.39644 0.81131 0.19207 0.0
O182 O 0.37994 0.81751 0.21167 0.0
C183 C 0.31449 0.70769 0.21923 0.0
O184 O 0.32711 0.69636 0.20023 0.0
O185 O 0.40557 0.79264 0.26379 0.0
H186 H 0.12069 0.64938 0.29442 0.0
H187 H 0.26407 0.64645 0.19936 0.0
H188 H 0.10658 0.56065 0.25437 0.0
H189 H 0.27959 0.72985 0.25021 0.0
H190 H 0.20297 0.6173 0.211 0.0
H191 H 0.17452 0.68203 0.26882 0.0
C192 C 0.12851 0.63699 0.27943 0.0
C193 C 0.10932 0.60241 0.27636 0.0
C194 C 0.21974 0.64211 0.21934 0.0
C195 C 0.17147 0.63928 0.24785 0.0
C196 C 0.25462 0.65877 0.21273 0.0
C197 C 0.2771 0.69049 0.22414 0.0
C198 C 0.20726 0.6574 0.23732 0.0
C199 C 0.26336 0.70527 0.24123 0.0
C200 C 0.15939 0.65552 0.26508 0.0
C201 C 0.12064 0.58735 0.25705 0.0
N202 N 0.22946 0.68856 0.2474 0.0
N203 N 0.15135 0.60582 0.24385 0.0
H204 H 0.47985 0.11477 0.45841 0.0
H205 H 0.62588 0.25977 0.36423 0.0
H206 H 0.56156 0.1081 0.41977 0.0
H207 H 0.55052 0.26821 0.41275 0.0
H208 H 0.59676 0.2007 0.3763 0.0
H209 H 0.49817 0.16632 0.43243 0.0
C210 C 0.50097 0.12368 0.44361 0.0
C211 C 0.51921 0.10726 0.44109 0.0
C212 C 0.58645 0.21544 0.38405 0.0
C213 C 0.54127 0.1669 0.41218 0.0
C214 C 0.60307 0.24918 0.37721 0.0
C215 C 0.59089 0.26911 0.38778 0.0
C216 C 0.55732 0.2015 0.40147 0.0
C217 C 0.56112 0.25397 0.40439 0.0
C218 C 0.51172 0.1533 0.42906 0.0
C219 C 0.5467 0.11997 0.42203 0.0
N220 N 0.54553 0.2212 0.41082 0.0
N221 N 0.55732 0.14941 0.40864 0.0
H222 H 0.40152 0.49538 0.6016 0.0
H223 H 0.36688 0.64175 0.56973 0.0
H224 H 0.47711 0.59916 0.61168 0.0
H225 H 0.29374 0.53966 0.5481 0.0
H226 H 0.4094 0.62648 0.58035 0.0
H227 H 0.36401 0.51052 0.57616 0.0
C228 C 0.41062 0.52129 0.59758 0.0
C229 C 0.44228 0.54611 0.60878 0.0
C230 C 0.38418 0.60737 0.57303 0.0
C231 C 0.39945 0.56365 0.58057 0.0
C232 C 0.35979 0.61609 0.56708 0.0
C233 C 0.32655 0.59189 0.55832 0.0
C234 C 0.37527 0.57407 0.57064 0.0
C235 C 0.31902 0.5591 0.55495 0.0
C236 C 0.38913 0.52997 0.58334 0.0
C237 C 0.45277 0.57934 0.60344 0.0
N238 N 0.34306 0.55105 0.56147 0.0
N239 N 0.43124 0.58714 0.5901 0.0
H240 H 0.8892 0.36659 0.79853 0.0
H241 H 0.7466 0.36579 0.69662 0.0
H242 H 0.90611 0.45184 0.75043 0.0
H243 H 0.72806 0.28843 0.75658 0.0
H244 H 0.80797 0.39345 0.70803 0.0
H245 H 0.83399 0.33301 0.77399 0.0
C246 C 0.88171 0.37787 0.78196 0.0
C247 C 0.90213 0.41185 0.77627 0.0
C248 C 0.79046 0.37027 0.71846 0.0
C249 C 0.83847 0.3741 0.74899 0.0
C250 C 0.75543 0.35447 0.712 0.0
C251 C 0.73207 0.32496 0.72595 0.0
C252 C 0.80223 0.3563 0.73886 0.0
C253 C 0.74502 0.31136 0.74556 0.0
C254 C 0.85004 0.35886 0.76823 0.0
C255 C 0.89114 0.42558 0.75509 0.0
N256 N 0.77912 0.3272 0.75152 0.0
N257 N 0.85972 0.40676 0.7425 0.0
H258 H 0.55508 0.9171 0.96432 0.0
H259 H 0.40978 0.75526 0.88598 0.0
H260 H 0.46436 0.90984 0.92759 0.0
H261 H 0.50841 0.7697 0.90973 0.0
H262 H 0.43168 0.81387 0.89607 0.0
H263 H 0.54198 0.86636 0.93882 0.0
C264 C 0.53303 0.90534 0.95001 0.0
C265 C 0.51089 0.91763 0.94774 0.0
C266 C 0.44868 0.80434 0.89872 0.0
C267 C 0.4948 0.85886 0.91953 0.0
C268 C 0.43615 0.7708 0.89306 0.0
C269 C 0.45714 0.75739 0.89739 0.0
C270 C 0.48237 0.82459 0.90909 0.0
C271 C 0.49118 0.77884 0.90633 0.0
C272 C 0.52533 0.87622 0.93567 0.0
C273 C 0.48222 0.90123 0.92952 0.0
N274 N 0.50258 0.81123 0.91223 0.0
N275 N 0.47463 0.87231 0.91649 0.0
H276 H 0.63394 0.5265 0.1399 0.0
H277 H 0.63567 0.39882 0.02801 0.0
H278 H 0.54727 0.46112 0.08653 0.0
H279 H 0.71839 0.45963 0.087 0.0
H280 H 0.60635 0.4276 0.04303 0.0
H281 H 0.66894 0.50964 0.11393 0.0
C282 C 0.62266 0.5093 0.12205 0.0
C283 C 0.58791 0.49531 0.11507 0.0
C284 C 0.63107 0.43484 0.05247 0.0
C285 C 0.62724 0.47489 0.08595 0.0
C286 C 0.64784 0.41841 0.04392 0.0
C287 C 0.67938 0.42652 0.05651 0.0
C288 C 0.64597 0.45963 0.07372 0.0
C289 C 0.69396 0.45225 0.07691 0.0
C290 C 0.64247 0.4994 0.10742 0.0
C291 C 0.57414 0.47267 0.09222 0.0
N292 N 0.67705 0.46768 0.085 0.0
N293 N 0.59375 0.46278 0.07867 0.0
H294 H 0.40497 0.91197 0.50877 0.0
H295 H 0.39917 0.75436 0.58054 0.0
H296 H 0.49197 0.89937 0.51529 0.0
H297 H 0.30937 0.75368 0.54906 0.0
H298 H 0.43407 0.81292 0.56771 0.0
H299 H 0.37054 0.85967 0.53489 0.0
C300 C 0.417 0.89864 0.5165 0.0
C301 C 0.45123 0.90981 0.51005 0.0
C302 C 0.40668 0.80001 0.56388 0.0
C303 C 0.41223 0.85013 0.53938 0.0
C304 C 0.38669 0.76658 0.57124 0.0
C305 C 0.35131 0.74892 0.56553 0.0
C306 C 0.39119 0.81605 0.5509 0.0
C307 C 0.3366 0.7662 0.55354 0.0
C308 C 0.39735 0.86872 0.5311 0.0
C309 C 0.46562 0.89147 0.51999 0.0
N310 N 0.35663 0.79875 0.54646 0.0
N311 N 0.446 0.86242 0.53401 0.0
H312 H 0.48785 0.38642 0.66711 0.0
H313 H 0.64023 0.38614 0.75347 0.0
H314 H 0.57809 0.47539 0.6971 0.0
H315 H 0.55366 0.29925 0.71557 0.0
H316 H 0.61344 0.41828 0.74083 0.0
H317 H 0.50627 0.35321 0.69358 0.0
C318 C 0.51097 0.39887 0.68017 0.0
C319 C 0.53133 0.43353 0.68035 0.0
C320 C 0.60019 0.3921 0.73554 0.0
C321 C 0.55342 0.39594 0.70964 0.0
C322 C 0.61547 0.37374 0.74273 0.0
C323 C 0.59939 0.34002 0.73525 0.0
C324 C 0.56854 0.37661 0.72085 0.0
C325 C 0.56725 0.32525 0.72147 0.0
C326 C 0.52173 0.37999 0.69498 0.0
C327 C 0.56152 0.44866 0.69689 0.0
N328 N 0.55304 0.34366 0.71458 0.0
N329 N 0.57194 0.42975 0.71061 0.0
H330 H 0.12902 0.58632 0.84038 0.0
H331 H 0.26155 0.53978 0.9065 0.0
H332 H 0.10495 0.48549 0.85012 0.0
H333 H 0.28768 0.63769 0.87912 0.0
H334 H 0.20113 0.51982 0.89559 0.0
H335 H 0.18338 0.60569 0.86566 0.0
C336 C 0.13487 0.56824 0.84867 0.0
C337 C 0.11265 0.53434 0.84326 0.0
C338 C 0.22011 0.54572 0.89224 0.0
C339 C 0.17525 0.55624 0.87131 0.0
C340 C 0.25458 0.55714 0.89846 0.0
C341 C 0.27978 0.59039 0.8934 0.0
C342 C 0.21079 0.5678 0.88118 0.0
C343 C 0.26924 0.61178 0.88303 0.0
C344 C 0.16601 0.57927 0.86281 0.0
C345 C 0.12141 0.51184 0.85411 0.0
N346 N 0.23565 0.60009 0.87719 0.0
N347 N 0.15236 0.52322 0.86729 0.0
H348 H 0.61365 0.10592 0.0199 0.0
H349 H 0.64791 0.288 0.0463 0.0
H350 H 0.53792 0.13367 0.00675 0.0
H351 H 0.72186 0.25977 0.0675 0.0
H352 H 0.60539 0.22993 0.03663 0.0
H353 H 0.65123 0.15969 0.04333 0.0
C354 C 0.60457 0.12296 0.0227 0.0
C355 C 0.57284 0.11557 0.01116 0.0
C356 C 0.63082 0.23633 0.04363 0.0
C357 C 0.61582 0.17725 0.0372 0.0
C358 C 0.65518 0.26956 0.04906 0.0
C359 C 0.68864 0.27885 0.05742 0.0
C360 C 0.63997 0.2121 0.04627 0.0
C361 C 0.69644 0.25378 0.06091 0.0
C362 C 0.62612 0.15376 0.03581 0.0
C363 C 0.56241 0.13863 0.01507 0.0
N364 N 0.67241 0.2216 0.05502 0.0
N365 N 0.584 0.16856 0.02738 0.0
H366 H 0.44744 0.55462 0.20154 0.0
H367 H 0.46238 0.72974 0.22319 0.0
H368 H 0.53096 0.64759 0.17133 0.0
H369 H 0.37561 0.63727 0.25123 0.0
H370 H 0.49246 0.70083 0.21219 0.0
H371 H 0.42602 0.585 0.22851 0.0
C372 C 0.46192 0.58149 0.20152 0.0
C373 C 0.49101 0.59877 0.18441 0.0
C374 C 0.46697 0.68682 0.22099 0.0
C375 C 0.46632 0.63355 0.21427 0.0
C376 C 0.44969 0.70334 0.22722 0.0
C377 C 0.41617 0.68583 0.23774 0.0
C378 C 0.45058 0.65237 0.22501 0.0
C379 C 0.4013 0.65172 0.24291 0.0
C380 C 0.44952 0.59881 0.21659 0.0
C381 C 0.50853 0.6335 0.18447 0.0
N382 N 0.41844 0.63601 0.23614 0.0
N383 N 0.49569 0.64972 0.19884 0.0
H384 H 0.88739 0.51824 0.31515 0.0
H385 H 0.74718 0.38473 0.42155 0.0
H386 H 0.90413 0.45078 0.36519 0.0
H387 H 0.72811 0.44232 0.3602 0.0
H388 H 0.80761 0.41471 0.40774 0.0
H389 H 0.83267 0.49803 0.33911 0.0
C390 C 0.87988 0.49984 0.33189 0.0
C391 C 0.9002 0.48629 0.33848 0.0
C392 C 0.79019 0.42089 0.39748 0.0
C393 C 0.83715 0.46209 0.36525 0.0
C394 C 0.75569 0.40377 0.40531 0.0
C395 C 0.73242 0.41077 0.39181 0.0
C396 C 0.80154 0.44533 0.37614 0.0
C397 C 0.74497 0.43581 0.371 0.0
C398 C 0.84851 0.48801 0.34533 0.0
C399 C 0.88921 0.46205 0.35986 0.0
N400 N 0.77856 0.45204 0.36377 0.0
N401 N 0.85815 0.45037 0.3723 0.0
H402 H 0.06441 0.51647 0.38496 0.0
H403 H 0.2207 0.64662 0.48244 0.0
H404 H 0.11179 0.6226 0.3778 0.0
H405 H 0.15657 0.54427 0.50755 0.0
H406 H 0.18176 0.63683 0.44248 0.0
H407 H 0.09697 0.52458 0.42971 0.0
C408 C 0.08108 0.54138 0.39315 0.0
C409 C 0.08583 0.56895 0.37757 0.0
C410 C 0.17608 0.61648 0.45676 0.0
C411 C 0.12346 0.5784 0.42801 0.0
C412 C 0.19849 0.62201 0.47947 0.0
C413 C 0.19193 0.59621 0.49835 0.0
C414 C 0.14698 0.58483 0.45259 0.0
C415 C 0.16258 0.56487 0.49349 0.0
C416 C 0.09981 0.54601 0.4185 0.0
C417 C 0.10787 0.60072 0.38894 0.0
N418 N 0.14122 0.55997 0.47096 0.0
N419 N 0.12616 0.60458 0.41324 0.0
H420 H 0.57551 0.07892 0.54731 0.0
H421 H 0.56133 0.19983 0.65966 0.0
H422 H 0.4967 0.10373 0.54505 0.0
H423 H 0.64902 0.18783 0.65575 0.0
H424 H 0.53395 0.15896 0.62141 0.0
H425 H 0.59879 0.11204 0.59147 0.0
C426 C 0.56272 0.09074 0.55654 0.0
C427 C 0.53433 0.08885 0.54264 0.0
C428 C 0.55917 0.16519 0.6289 0.0
C429 C 0.56086 0.12692 0.5925 0.0
C430 C 0.5749 0.18864 0.65072 0.0
C431 C 0.60767 0.19749 0.6608 0.0
C432 C 0.57624 0.15036 0.61696 0.0
C433 C 0.62385 0.18194 0.64848 0.0
C434 C 0.57614 0.10985 0.58149 0.0
C435 C 0.51879 0.10483 0.55513 0.0
N436 N 0.60799 0.15916 0.62712 0.0
N437 N 0.53239 0.12337 0.57923 0.0
H438 H 0.50554 0.60754 0.69944 0.0
H439 H 0.37272 0.54785 0.82587 0.0
H440 H 0.44779 0.50578 0.72695 0.0
H441 H 0.45211 0.65041 0.81553 0.0
H442 H 0.40068 0.53206 0.79017 0.0
H443 H 0.48891 0.62435 0.74311 0.0
C444 C 0.49018 0.58891 0.71519 0.0
C445 C 0.47801 0.55529 0.70978 0.0
C446 C 0.41214 0.558 0.79587 0.0
C447 C 0.45787 0.57403 0.7591 0.0
C448 C 0.39602 0.56707 0.81606 0.0
C449 C 0.40992 0.60054 0.82349 0.0
C450 C 0.44214 0.5826 0.78267 0.0
C451 C 0.44039 0.62433 0.81032 0.0
C452 C 0.4805 0.59842 0.73997 0.0
C453 C 0.45787 0.53197 0.73055 0.0
N454 N 0.4553 0.61493 0.79034 0.0
N455 N 0.44786 0.5417 0.75409 0.0
H456 H 0.95999 0.4455 0.89801 0.0
H457 H 0.79634 0.43166 0.97411 0.0
H458 H 0.89093 0.47043 0.85717 0.0
H459 H 0.85734 0.39458 0.01118 0.0
H460 H 0.83601 0.45393 0.93405 0.0
H461 H 0.92882 0.43595 0.94306 0.0
C462 C 0.93881 0.44976 0.89879 0.0
C463 C 0.92773 0.45846 0.87395 0.0
C464 C 0.84081 0.44105 0.95101 0.0
C465 C 0.89171 0.44709 0.92491 0.0
C466 C 0.8181 0.42824 0.97386 0.0
C467 C 0.8233 0.41089 -0.00412 0.0
C468 C 0.86898 0.43653 0.95016 0.0
C469 C 0.85212 0.40749 -0.00547 0.0
C470 C 0.92082 0.44401 0.92435 0.0
C471 C 0.89998 0.46341 0.87589 0.0
N472 N 0.87378 0.42004 0.97199 0.0
N473 N 0.8827 0.45733 0.90084 0.0
H474 H 0.52664 0.91791 0.05065 0.0
H475 H 0.38752 0.86219 0.17447 0.0
H476 H 0.45388 0.95051 0.05304 0.0
H477 H 0.44256 0.81273 0.15439 0.0
H478 H 0.41649 0.90068 0.13476 0.0
H479 H 0.50229 0.88655 0.0945 0.0
C480 C 0.50572 0.91872 0.06066 0.0
C481 C 0.49192 0.93642 0.04804 0.0
C482 C 0.42215 0.88138 0.13913 0.0
C483 C 0.4637 0.90037 0.09817 0.0
C484 C 0.40562 0.85938 0.16172 0.0
C485 C 0.41252 0.83409 0.16767 0.0
C486 C 0.44599 0.87824 0.1227 0.0
C487 C 0.43625 0.83167 0.15051 0.0
C488 C 0.49175 0.90073 0.08562 0.0
C489 C 0.46522 0.93714 0.06213 0.0
N490 N 0.45216 0.85349 0.12892 0.0
N491 N 0.45167 0.91901 0.08636 0.0
H492 H 0.52035 0.42157 0.19443 0.0
H493 H 0.60617 0.47038 0.34999 0.0
H494 H 0.5537 0.51593 0.23493 0.0
H495 H 0.56707 0.37395 0.31121 0.0
H496 H 0.5811 0.4853 0.31056 0.0
H497 H 0.52981 0.40101 0.23965 0.0
C498 C 0.52896 0.43769 0.21311 0.0
C499 C 0.53656 0.47054 0.21099 0.0
C500 C 0.57774 0.46077 0.31077 0.0
C501 C 0.5482 0.44754 0.26259 0.0
C502 C 0.5922 0.45227 0.33324 0.0
C503 C 0.58911 0.421 0.33372 0.0
C504 C 0.56022 0.43793 0.28849 0.0
C505 C 0.57037 0.39844 0.31158 0.0
C506 C 0.53451 0.42603 0.23887 0.0
C507 C 0.54749 0.49042 0.23575 0.0
N508 N 0.55692 0.40746 0.28974 0.0
N509 N 0.55356 0.47878 0.26044 0.0
H510 H 0.46608 0.95936 0.39064 0.0
H511 H 0.49466 0.82834 0.30502 0.0
H512 H 0.52266 0.91666 0.42563 0.0
H513 H 0.41022 0.84356 0.28925 0.0
H514 H 0.5159 0.87105 0.34267 0.0
H515 H 0.45756 0.92848 0.34591 0.0
C516 C 0.4776 0.94428 0.38852 0.0
C517 C 0.49492 0.94032 0.41176 0.0
C518 C 0.49288 0.86514 0.33077 0.0
C519 C 0.48488 0.90469 0.36113 0.0
C520 C 0.48073 0.8408 0.30935 0.0
C521 C 0.4504 0.83212 0.29428 0.0
C522 C 0.47484 0.88122 0.33678 0.0
C523 C 0.43344 0.84915 0.30064 0.0
C524 C 0.47241 0.9264 0.3632 0.0
C525 C 0.50899 0.92015 0.40815 0.0
N526 N 0.44588 0.87286 0.32144 0.0
N527 N 0.5034 0.90281 0.38338 0.0
H528 H 0.49629 0.45401 0.5581 0.0
H529 H 0.63204 0.42646 0.47377 0.0
H530 H 0.59499 0.47889 0.59248 0.0
H531 H 0.52873 0.39031 0.44357 0.0
H532 H 0.62174 0.45289 0.51434 0.0
H533 H 0.51111 0.43889 0.51243 0.0
C534 C 0.52137 0.45701 0.55577 0.0
C535 C 0.54435 0.46737 0.57907 0.0
C536 C 0.60136 0.43929 0.49877 0.0
C537 C 0.56125 0.44967 0.52732 0.0
C538 C 0.6072 0.42411 0.47563 0.0
C539 C 0.58109 0.40584 0.45539 0.0
C540 C 0.56919 0.43624 0.50171 0.0
C541 C 0.54951 0.40388 0.4588 0.0
C542 C 0.5297 0.44808 0.52985 0.0
C543 C 0.57641 0.47058 0.57508 0.0
N544 N 0.54439 0.41876 0.48159 0.0
N545 N 0.58379 0.46147 0.54981 0.0
H546 H 0.06425 0.4873 0.72538 0.0
H547 H 0.20875 0.6406 0.63641 0.0
H548 H 0.10879 0.58935 0.75147 0.0
H549 H 0.18544 0.53976 0.62659 0.0
H550 H 0.16362 0.62173 0.6722 0.0
H551 H 0.09871 0.50582 0.68165 0.0
C552 C 0.08044 0.51363 0.72135 0.0
C553 C 0.08382 0.53691 0.74185 0.0
C554 C 0.16833 0.60375 0.6621 0.0
C555 C 0.12367 0.5582 0.69257 0.0
C556 C 0.19413 0.61449 0.64174 0.0
C557 C 0.20115 0.59177 0.62873 0.0
C558 C 0.14917 0.57 0.66931 0.0
C559 C 0.18121 0.55821 0.63633 0.0
C560 C 0.1004 0.52418 0.69667 0.0
C561 C 0.10556 0.57073 0.73604 0.0
N562 N 0.15615 0.54834 0.65615 0.0
N563 N 0.12494 0.58039 0.71204 0.0
H564 H 0.50518 0.10802 0.92454 0.0
H565 H 0.60221 0.14632 0.77526 0.0
H566 H 0.55259 0.05515 0.89323 0.0
H567 H 0.56281 0.20473 0.81063 0.0
H568 H 0.57564 0.10672 0.81424 0.0
H569 H 0.516 0.13638 0.87847 0.0
C570 C 0.51716 0.10184 0.90766 0.0
C571 C 0.52844 0.07957 0.91276 0.0
C572 C 0.57258 0.12806 0.81338 0.0
C573 C 0.54146 0.1123 0.86024 0.0
C574 C 0.58786 0.15079 0.79116 0.0
C575 C 0.58512 0.17916 0.78987 0.0
C576 C 0.55443 0.13371 0.83453 0.0
C577 C 0.5659 0.18341 0.81093 0.0
C578 C 0.5235 0.11815 0.88145 0.0
C579 C 0.54351 0.07216 0.89016 0.0
N580 N 0.55151 0.16106 0.8325 0.0
N581 N 0.55013 0.08894 0.86501 0.0
H582 H 0.45829 0.52318 0.06831 0.0
H583 H 0.44091 0.65506 0.97326 0.0
H584 H 0.51305 0.62837 0.08578 0.0
H585 H 0.40531 0.55542 0.94358 0.0
H586 H 0.46587 0.64461 0.01553 0.0
H587 H 0.43833 0.53347 0.0225 0.0
C588 C 0.46655 0.54844 0.06228 0.0
C589 C 0.48696 0.57492 0.08099 0.0
C590 C 0.45269 0.62503 -0.00026 0.0
C591 C 0.46382 0.58679 0.02914 0.0
C592 C 0.43824 0.63093 0.97567 0.0
C593 C 0.42093 0.60606 0.95489 0.0
C594 C 0.44957 0.59391 0.00326 0.0
C595 C 0.41845 0.57531 0.95909 0.0
C596 C 0.45499 0.55428 0.03627 0.0
C597 C 0.49677 0.60716 0.07224 0.0
N598 N 0.43249 0.57004 0.98289 0.0
N599 N 0.48484 0.61214 0.04713 0.0
H600 H 0.96405 0.51812 0.22087 0.0
H601 H 0.79932 0.37879 0.13589 0.0
H602 H 0.8943 0.42065 0.25412 0.0
H603 H 0.86506 0.47843 0.10483 0.0
H604 H 0.8393 0.39076 0.17574 0.0
H605 H 0.93463 0.50063 0.17429 0.0
C606 C 0.94315 0.49275 0.2181 0.0
C607 C 0.93125 0.47088 0.24138 0.0
C608 C 0.84512 0.40995 0.1601 0.0
C609 C 0.89703 0.45096 0.18855 0.0
C610 C 0.82222 0.40316 0.13739 0.0
C611 C 0.8286 0.42781 0.11723 0.0
C612 C 0.87457 0.44165 0.16276 0.0
C613 C 0.8589 0.4588 0.12007 0.0
C614 C 0.92613 0.48287 0.19162 0.0
C615 C 0.90389 0.43838 0.23675 0.0
N616 N 0.88062 0.46493 0.14255 0.0
N617 N 0.88739 0.42953 0.21098 0.0
loop_
_geom_bond_atom_site_label_1
_geom_bond_atom_site_label_2
_geom_bond_distance
_geom_bond_site_symmetry_2
_ccdc_geom_bond_type
H0 C6 0.930 . S
H1 C9 0.931 . S
H2 C11 0.931 . S
H3 C13 0.930 . S
H4 C15 0.930 . S
H5 C17 0.931 . S
C6 H0 0.930 . S
C6 C7 1.380 . S
C6 C8 1.394 . S
C7 C6 1.380 . S
C7 C11 1.382 . S
C8 C6 1.394 . S
C8 C9 1.400 . S
C9 H1 0.931 . S
C9 C8 1.400 . S
C9 C10 1.375 . S
C10 C9 1.375 . S
C10 C11 1.415 . S
C10 C12 1.501 1_455 S
C11 H2 0.931 . S
C11 C7 1.382 . S
C11 C10 1.415 . S
C12 C10 1.501 1_655 S
C12 C13 1.384 . S
C12 C17 1.408 . S
C13 H3 0.930 . S
C13 C12 1.384 . S
C13 C14 1.389 . S
C14 C13 1.389 . S
C14 C15 1.405 . S
C15 H4 0.930 . S
C15 C14 1.405 . S
C15 C16 1.364 . S
C16 C15 1.364 . S
C16 C17 1.400 . S
C17 H5 0.931 . S
C17 C12 1.408 . S
C17 C16 1.400 . S
H18 C24 0.930 . S
H19 C27 0.931 . S
H20 C29 0.931 . S
H21 C31 0.930 . S
H22 C33 0.930 . S
H23 C35 0.931 1_545 S
C24 H18 0.930 . S
C24 C25 1.380 . S
C24 C26 1.394 . S
C25 C24 1.380 . S
C25 C29 1.382 . S
C26 C24 1.394 . S
C26 C27 1.400 . S
C27 H19 0.931 . S
C27 C26 1.400 . S
C27 C28 1.375 . S
C28 C27 1.375 . S
C28 C29 1.415 . S
C28 C30 1.501 1_545 S
C29 H20 0.931 . S
C29 C25 1.382 . S
C29 C28 1.415 . S
C30 C28 1.501 1_565 S
C30 C31 1.384 . S
C30 C35 1.408 . S
C31 H21 0.930 . S
C31 C30 1.384 . S
C31 C32 1.389 . S
C32 C31 1.389 . S
C32 C33 1.405 . S
C33 H22 0.930 . S
C33 C32 1.405 . S
C33 C34 1.364 . S
C34 C33 1.364 . S
C34 C35 1.400 . S
C35 H23 0.931 1_565 S
C35 C30 1.408 . S
C35 C34 1.400 . S
H36 C42 0.930 . S
H37 C45 0.931 . S
H38 C47 0.931 . S
H39 C49 0.930 . S
H40 C51 0.930 . S
H41 C53 0.931 . S
C42 H36 0.930 . S
C42 C43 1.380 . S
C42 C44 1.394 . S
C43 C42 1.380 . S
C43 C47 1.382 . S
C44 C42 1.394 . S
C44 C45 1.400 . S
C45 H37 0.931 . S
C45 C44 1.400 . S
C45 C46 1.375 . S
C46 C45 1.375 . S
C46 C47 1.415 . S
C46 C48 1.501 . S
C47 H38 0.931 . S
C47 C43 1.382 . S
C47 C46 1.415 . S
C48 C46 1.501 . S
C48 C49 1.384 . S
C48 C53 1.408 . S
C49 H39 0.930 . S
C49 C48 1.384 . S
C49 C50 1.389 . S
C50 C49 1.389 . S
C50 C51 1.405 . S
C51 H40 0.930 . S
C51 C50 1.405 . S
C51 C52 1.364 . S
C52 C51 1.364 . S
C52 C53 1.400 . S
C53 H41 0.931 . S
C53 C48 1.408 . S
C53 C52 1.400 . S
H54 C60 0.930 . S
H55 C63 0.931 . S
H56 C65 0.931 . S
H57 C67 0.930 . S
H58 C69 0.930 . S
H59 C71 0.931 . S
C60 H54 0.930 . S
C60 C61 1.380 . S
C60 C62 1.394 . S
C61 C60 1.380 . S
C61 C65 1.382 . S
C62 C60 1.394 . S
C62 C63 1.400 . S
C63 H55 0.931 . S
C63 C62 1.400 . S
C63 C64 1.375 . S
C64 C63 1.375 . S
C64 C65 1.415 . S
C64 C66 1.501 1_455 S
C65 H56 0.931 . S
C65 C61 1.382 . S
C65 C64 1.415 . S
C66 C64 1.501 1_655 S
C66 C67 1.384 . S
C66 C71 1.408 . S
C67 H57 0.930 . S
C67 C66 1.384 . S
C67 C68 1.389 . S
C68 C67 1.389 . S
C68 C69 1.405 . S
C69 H58 0.930 . S
C69 C68 1.405 . S
C69 C70 1.364 . S
C70 C69 1.364 . S
C70 C71 1.400 . S
C71 H59 0.931 . S
C71 C66 1.408 . S
C71 C70 1.400 . S
H72 C78 0.930 . S
H73 C81 0.931 . S
H74 C83 0.931 . S
H75 C85 0.930 . S
H76 C87 0.930 . S
H77 C89 0.931 . S
C78 H72 0.930 . S
C78 C79 1.380 . S
C78 C80 1.394 1_554 S
C79 C78 1.380 . S
C79 C83 1.382 . S
C80 C78 1.394 1_556 S
C80 C81 1.400 . S
C81 H73 0.931 . S
C81 C80 1.400 . S
C81 C82 1.375 . S
C82 C81 1.375 . S
C82 C83 1.415 1_556 S
C82 C84 1.501 1_565 S
C83 H74 0.931 . S
C83 C79 1.382 . S
C83 C82 1.415 1_554 S
C84 C82 1.501 1_545 S
C84 C85 1.384 1_556 S
C84 C89 1.408 . S
C85 H75 0.930 . S
C85 C84 1.384 1_554 S
C85 C86 1.389 1_554 S
C86 C85 1.389 1_556 S
C86 C87 1.405 . S
C87 H76 0.930 . S
C87 C86 1.405 . S
C87 C88 1.364 . S
C88 C87 1.364 . S
C88 C89 1.400 . S
C89 H77 0.931 . S
C89 C84 1.408 . S
C89 C88 1.400 . S
H90 C96 0.930 . S
H91 C99 0.931 . S
H92 C101 0.931 . S
H93 C103 0.930 . S
H94 C105 0.930 . S
H95 C107 0.931 . S
C96 H90 0.930 . S
C96 C97 1.380 . S
C96 C98 1.394 . S
C97 C96 1.380 . S
C97 C101 1.382 . S
C98 C96 1.394 . S
C98 C99 1.400 . S
C99 H91 0.931 . S
C99 C98 1.400 . S
C99 C100 1.375 . S
C100 C99 1.375 . S
C100 C101 1.415 . S
C100 C102 1.501 . S
C101 H92 0.931 . S
C101 C97 1.382 . S
C101 C100 1.415 . S
C102 C100 1.501 . S
C102 C103 1.384 . S
C102 C107 1.408 . S
C103 H93 0.930 . S
C103 C102 1.384 . S
C103 C104 1.389 . S
C104 C103 1.389 . S
C104 C105 1.405 . S
C105 H94 0.930 . S
C105 C104 1.405 . S
C105 C106 1.364 . S
C106 C105 1.364 . S
C106 C107 1.400 . S
C107 H95 0.931 . S
C107 C102 1.408 . S
C107 C106 1.400 . S
C108 O109 1.160 . S
C108 O115 1.185 . S
O109 C108 1.160 . S
O110 Zn111 1.899 . S
O110 C118 1.284 . S
Zn111 O110 1.899 . S
Zn111 O112 2.032 . S
Zn111 O115 2.086 . S
Zn111 O120 1.977 . S
O112 Zn111 2.032 . S
O112 C116 1.278 . S
C113 O114 1.203 . S
C113 O120 1.267 . S
O114 C113 1.203 . S
O115 C108 1.185 . S
O115 Zn111 2.086 . S
C116 O112 1.278 . S
C116 O117 1.211 . S
O117 C116 1.211 . S
C118 O110 1.284 . S
C118 O119 1.273 . S
O119 C118 1.273 . S
O120 Zn111 1.977 . S
O120 C113 1.267 . S
C121 O122 1.160 . S
C121 O128 1.185 . S
O122 C121 1.160 . S
O123 Zn124 1.899 . S
O123 C131 1.284 . S
Zn124 O123 1.899 . S
Zn124 O125 2.032 . S
Zn124 O128 2.086 . S
Zn124 O133 1.977 . S
O125 Zn124 2.032 . S
O125 C129 1.278 . S
C126 O127 1.203 . S
C126 O133 1.267 . S
O127 C126 1.203 . S
O128 C121 1.185 . S
O128 Zn124 2.086 . S
C129 O125 1.278 . S
C129 O130 1.211 . S
O130 C129 1.211 . S
C131 O123 1.284 . S
C131 O132 1.273 . S
O132 C131 1.273 . S
O133 Zn124 1.977 . S
O133 C126 1.267 . S
C134 O135 1.160 . S
C134 O141 1.185 . S
O135 C134 1.160 . S
O136 Zn137 1.899 . S
O136 C144 1.284 . S
Zn137 O136 1.899 . S
Zn137 O138 2.032 . S
Zn137 O141 2.086 . S
Zn137 O146 1.977 . S
O138 Zn137 2.032 . S
O138 C142 1.278 . S
C139 O140 1.203 . S
C139 O146 1.267 . S
O140 C139 1.203 . S
O141 C134 1.185 . S
O141 Zn137 2.086 . S
C142 O138 1.278 . S
C142 O143 1.211 . S
O143 C142 1.211 . S
C144 O136 1.284 . S
C144 O145 1.273 . S
O145 C144 1.273 . S
O146 Zn137 1.977 . S
O146 C139 1.267 . S
C147 O148 1.160 . S
C147 O154 1.185 . S
O148 C147 1.160 . S
O149 Zn150 1.899 . S
O149 C157 1.284 . S
Zn150 O149 1.899 . S
Zn150 O151 2.032 . S
Zn150 O154 2.086 . S
Zn150 O159 1.977 . S
O151 Zn150 2.032 . S
O151 C155 1.278 . S
C152 O153 1.203 . S
C152 O159 1.267 . S
O153 C152 1.203 . S
O154 C147 1.185 . S
O154 Zn150 2.086 . S
C155 O151 1.278 . S
C155 O156 1.211 . S
O156 C155 1.211 . S
C157 O149 1.284 . S
C157 O158 1.273 . S
O158 C157 1.273 . S
O159 Zn150 1.977 . S
O159 C152 1.267 . S
C160 O161 1.160 . S
C160 O167 1.185 . S
O161 C160 1.160 . S
O162 Zn163 1.899 . S
O162 C170 1.284 . S
Zn163 O162 1.899 . S
Zn163 O164 2.032 . S
Zn163 O167 2.086 . S
Zn163 O172 1.977 . S
O164 Zn163 2.032 . S
O164 C168 1.278 . S
C165 O166 1.203 . S
C165 O172 1.267 . S
O166 C165 1.203 . S
O167 C160 1.185 . S
O167 Zn163 2.086 . S
C168 O164 1.278 . S
C168 O169 1.211 . S
O169 C168 1.211 . S
C170 O162 1.284 . S
C170 O171 1.273 . S
O171 C170 1.273 . S
O172 Zn163 1.977 . S
O172 C165 1.267 . S
C173 O174 1.160 . S
C173 O180 1.185 . S
O174 C173 1.160 . S
O175 Zn176 1.899 . S
O175 C183 1.284 . S
Zn176 O175 1.899 . S
Zn176 O177 2.032 . S
Zn176 O180 2.086 . S
Zn176 O185 1.977 . S
O177 Zn176 2.032 . S
O177 C181 1.278 . S
C178 O179 1.203 . S
C178 O185 1.267 . S
O179 C178 1.203 . S
O180 C173 1.185 . S
O180 Zn176 2.086 . S
C181 O177 1.278 . S
C181 O182 1.211 . S
O182 C181 1.211 . S
C183 O175 1.284 . S
C183 O184 1.273 . S
O184 C183 1.273 . S
O185 Zn176 1.977 . S
O185 C178 1.267 . S
H186 C192 0.930 . S
H187 C196 0.930 . S
H188 C201 0.929 . S
H189 C199 0.929 . S
H190 C194 0.929 . S
H191 C200 0.929 . S
C192 H186 0.930 . S
C192 C193 1.367 . S
C192 C200 1.378 . S
C193 C192 1.367 . S
C193 C201 1.433 . S
C194 H190 0.929 . S
C194 C196 1.378 . S
C194 C198 1.350 . S
C195 C198 1.463 . S
C195 C200 1.350 . S
C195 N203 1.427 . S
C196 H187 0.930 . S
C196 C194 1.378 . S
C196 C197 1.367 . S
C197 C196 1.367 . S
C197 C199 1.433 . S
C198 C194 1.350 . S
C198 C195 1.463 . S
C198 N202 1.427 . S
C199 H189 0.929 . S
C199 C197 1.433 . S
C199 N202 1.384 . S
C200 H191 0.929 . S
C200 C192 1.378 . S
C200 C195 1.350 . S
C201 H188 0.929 . S
C201 C193 1.433 . S
C201 N203 1.384 . S
N202 C198 1.427 . S
N202 C199 1.384 . S
N203 C195 1.427 . S
N203 C201 1.384 . S
H204 C210 0.930 . S
H205 C214 0.930 . S
H206 C219 0.929 . S
H207 C217 0.929 . S
H208 C212 0.929 . S
H209 C218 0.929 . S
C210 H204 0.930 . S
C210 C211 1.367 . S
C210 C218 1.378 . S
C211 C210 1.367 . S
C211 C219 1.433 . S
C212 H208 0.929 . S
C212 C214 1.378 . S
C212 C216 1.350 . S
C213 C216 1.463 . S
C213 C218 1.350 . S
C213 N221 1.427 . S
C214 H205 0.930 . S
C214 C212 1.378 . S
C214 C215 1.367 . S
C215 C214 1.367 . S
C215 C217 1.433 . S
C216 C212 1.350 . S
C216 C213 1.463 . S
C216 N220 1.427 . S
C217 H207 0.929 . S
C217 C215 1.433 . S
C217 N220 1.384 . S
C218 H209 0.929 . S
C218 C210 1.378 . S
C218 C213 1.350 . S
C219 H206 0.929 . S
C219 C211 1.433 . S
C219 N221 1.384 . S
N220 C216 1.427 . S
N220 C217 1.384 . S
N221 C213 1.427 . S
N221 C219 1.384 . S
H222 C228 0.930 . S
H223 C232 0.930 . S
H224 C237 0.929 . S
H225 C235 0.929 . S
H226 C230 0.929 . S
H227 C236 0.929 . S
C228 H222 0.930 . S
C228 C229 1.367 . S
C228 C236 1.378 . S
C229 C228 1.367 . S
C229 C237 1.433 . S
C230 H226 0.929 . S
C230 C232 1.378 . S
C230 C234 1.350 . S
C231 C234 1.463 . S
C231 C236 1.350 . S
C231 N239 1.427 . S
C232 H223 0.930 . S
C232 C230 1.378 . S
C232 C233 1.367 . S
C233 C232 1.367 . S
C233 C235 1.433 . S
C234 C230 1.350 . S
C234 C231 1.463 . S
C234 N238 1.427 . S
C235 H225 0.929 . S
C235 C233 1.433 . S
C235 N238 1.384 . S
C236 H227 0.929 . S
C236 C228 1.378 . S
C236 C231 1.350 . S
C237 H224 0.929 . S
C237 C229 1.433 . S
C237 N239 1.384 . S
N238 C234 1.427 . S
N238 C235 1.384 . S
N239 C231 1.427 . S
N239 C237 1.384 . S
H240 C246 0.930 . S
H241 C250 0.930 . S
H242 C255 0.929 . S
H243 C253 0.929 . S
H244 C248 0.929 . S
H245 C254 0.929 . S
C246 H240 0.930 . S
C246 C247 1.367 . S
C246 C254 1.378 . S
C247 C246 1.367 . S
C247 C255 1.433 . S
C248 H244 0.929 . S
C248 C250 1.378 . S
C248 C252 1.350 . S
C249 C252 1.463 . S
C249 C254 1.350 . S
C249 N257 1.427 . S
C250 H241 0.930 . S
C250 C248 1.378 . S
C250 C251 1.367 . S
C251 C250 1.367 . S
C251 C253 1.433 . S
C252 C248 1.350 . S
C252 C249 1.463 . S
C252 N256 1.427 . S
C253 H243 0.929 . S
C253 C251 1.433 . S
C253 N256 1.384 . S
C254 H245 0.929 . S
C254 C246 1.378 . S
C254 C249 1.350 . S
C255 H242 0.929 . S
C255 C247 1.433 . S
C255 N257 1.384 . S
N256 C252 1.427 . S
N256 C253 1.384 . S
N257 C249 1.427 . S
N257 C255 1.384 . S
H258 C264 0.930 1_554 S
H259 C268 0.930 . S
H260 C273 0.929 . S
H261 C271 0.929 . S
H262 C266 0.929 . S
H263 C272 0.929 . S
C264 H258 0.930 1_556 S
C264 C265 1.367 . S
C264 C272 1.378 . S
C265 C264 1.367 . S
C265 C273 1.433 . S
C266 H262 0.929 . S
C266 C268 1.378 . S
C266 C270 1.350 . S
C267 C270 1.463 . S
C267 C272 1.350 . S
C267 N275 1.427 . S
C268 H259 0.930 . S
C268 C266 1.378 . S
C268 C269 1.367 . S
C269 C268 1.367 . S
C269 C271 1.433 . S
C270 C266 1.350 . S
C270 C267 1.463 . S
C270 N274 1.427 . S
C271 H261 0.929 . S
C271 C269 1.433 . S
C271 N274 1.384 . S
C272 H263 0.929 . S
C272 C264 1.378 . S
C272 C267 1.350 . S
C273 H260 0.929 . S
C273 C265 1.433 . S
C273 N275 1.384 . S
N274 C270 1.427 . S
N274 C271 1.384 . S
N275 C267 1.427 . S
N275 C273 1.384 . S
H276 C282 0.930 . S
H277 C286 0.930 . S
H278 C291 0.929 . S
H279 C289 0.929 . S
H280 C284 0.929 . S
H281 C290 0.929 . S
C282 H276 0.930 . S
C282 C283 1.367 . S
C282 C290 1.378 . S
C283 C282 1.367 . S
C283 C291 1.433 . S
C284 H280 0.929 . S
C284 C286 1.378 . S
C284 C288 1.350 . S
C285 C288 1.463 . S
C285 C290 1.350 . S
C285 N293 1.427 . S
C286 H277 0.930 . S
C286 C284 1.378 . S
C286 C287 1.367 . S
C287 C286 1.367 . S
C287 C289 1.433 . S
C288 C284 1.350 . S
C288 C285 1.463 . S
C288 N292 1.427 . S
C289 H279 0.929 . S
C289 C287 1.433 . S
C289 N292 1.384 . S
C290 H281 0.929 . S
C290 C282 1.378 . S
C290 C285 1.350 . S
C291 H278 0.929 . S
C291 C283 1.433 . S
C291 N293 1.384 . S
N292 C288 1.427 . S
N292 C289 1.384 . S
N293 C285 1.427 . S
N293 C291 1.384 . S
H294 C300 0.930 . S
H295 C304 0.930 . S
H296 C309 0.929 . S
H297 C307 0.929 . S
H298 C302 0.929 . S
H299 C308 0.929 . S
C300 H294 0.930 . S
C300 C301 1.367 . S
C300 C308 1.378 . S
C301 C300 1.367 . S
C301 C309 1.433 . S
C302 H298 0.929 . S
C302 C304 1.378 . S
C302 C306 1.350 . S
C303 C306 1.463 . S
C303 C308 1.350 . S
C303 N311 1.427 . S
C304 H295 0.930 . S
C304 C302 1.378 . S
C304 C305 1.367 . S
C305 C304 1.367 . S
C305 C307 1.433 . S
C306 C302 1.350 . S
C306 C303 1.463 . S
C306 N310 1.427 . S
C307 H297 0.929 . S
C307 C305 1.433 . S
C307 N310 1.384 . S
C308 H299 0.929 . S
C308 C300 1.378 . S
C308 C303 1.350 . S
C309 H296 0.929 . S
C309 C301 1.433 . S
C309 N311 1.384 . S
N310 C306 1.427 . S
N310 C307 1.384 . S
N311 C303 1.427 . S
N311 C309 1.384 . S
H312 C318 0.930 . S
H313 C322 0.930 . S
H314 C327 0.929 . S
H315 C325 0.929 . S
H316 C320 0.929 . S
H317 C326 0.929 . S
C318 H312 0.930 . S
C318 C319 1.367 . S
C318 C326 1.378 . S
C319 C318 1.367 . S
C319 C327 1.433 . S
C320 H316 0.929 . S
C320 C322 1.378 . S
C320 C324 1.350 . S
C321 C324 1.463 . S
C321 C326 1.350 . S
C321 N329 1.427 . S
C322 H313 0.930 . S
C322 C320 1.378 . S
C322 C323 1.367 . S
C323 C322 1.367 . S
C323 C325 1.433 . S
C324 C320 1.350 . S
C324 C321 1.463 . S
C324 N328 1.427 . S
C325 H315 0.929 . S
C325 C323 1.433 . S
C325 N328 1.384 . S
C326 H317 0.929 . S
C326 C318 1.378 . S
C326 C321 1.350 . S
C327 H314 0.929 . S
C327 C319 1.433 . S
C327 N329 1.384 . S
N328 C324 1.427 . S
N328 C325 1.384 . S
N329 C321 1.427 . S
N329 C327 1.384 . S
H330 C336 0.930 . S
H331 C340 0.930 . S
H332 C345 0.929 . S
H333 C343 0.929 . S
H334 C338 0.929 . S
H335 C344 0.929 . S
C336 H330 0.930 . S
C336 C337 1.367 . S
C336 C344 1.378 . S
C337 C336 1.367 . S
C337 C345 1.433 . S
C338 H334 0.929 . S
C338 C340 1.378 . S
C338 C342 1.350 . S
C339 C342 1.463 . S
C339 C344 1.350 . S
C339 N347 1.427 . S
C340 H331 0.930 . S
C340 C338 1.378 . S
C340 C341 1.367 . S
C341 C340 1.367 . S
C341 C343 1.433 . S
C342 C338 1.350 . S
C342 C339 1.463 . S
C342 N346 1.427 . S
C343 H333 0.929 . S
C343 C341 1.433 . S
C343 N346 1.384 . S
C344 H335 0.929 . S
C344 C336 1.378 . S
C344 C339 1.350 . S
C345 H332 0.929 . S
C345 C337 1.433 . S
C345 N347 1.384 . S
N346 C342 1.427 . S
N346 C343 1.384 . S
N347 C339 1.427 . S
N347 C345 1.384 . S
H348 C354 0.930 . S
H349 C358 0.930 . S
H350 C363 0.929 . S
H351 C361 0.929 . S
H352 C356 0.929 . S
H353 C362 0.929 . S
C354 H348 0.930 . S
C354 C355 1.367 . S
C354 C362 1.378 . S
C355 C354 1.367 . S
C355 C363 1.433 1_554 S
C356 H352 0.929 . S
C356 C358 1.378 . S
C356 C360 1.350 . S
C357 C360 1.463 . S
C357 C362 1.350 . S
C357 N365 1.427 . S
C358 H349 0.930 . S
C358 C356 1.378 . S
C358 C359 1.367 . S
C359 C358 1.367 . S
C359 C361 1.433 . S
C360 C356 1.350 . S
C360 C357 1.463 . S
C360 N364 1.427 . S
C361 H351 0.929 . S
C361 C359 1.433 . S
C361 N364 1.384 . S
C362 H353 0.929 . S
C362 C354 1.378 . S
C362 C357 1.350 . S
C363 H350 0.929 . S
C363 C355 1.433 1_556 S
C363 N365 1.384 1_556 S
N364 C360 1.427 . S
N364 C361 1.384 . S
N365 C357 1.427 . S
N365 C363 1.384 1_554 S
H366 C372 0.930 . S
H367 C376 0.930 . S
H368 C381 0.929 . S
H369 C379 0.929 . S
H370 C374 0.929 . S
H371 C380 0.929 . S
C372 H366 0.930 . S
C372 C373 1.367 . S
C372 C380 1.378 . S
C373 C372 1.367 . S
C373 C381 1.433 . S
C374 H370 0.929 . S
C374 C376 1.378 . S
C374 C378 1.350 . S
C375 C378 1.463 . S
C375 C380 1.350 . S
C375 N383 1.427 . S
C376 H367 0.930 . S
C376 C374 1.378 . S
C376 C377 1.367 . S
C377 C376 1.367 . S
C377 C379 1.433 . S
C378 C374 1.350 . S
C378 C375 1.463 . S
C378 N382 1.427 . S
C379 H369 0.929 . S
C379 C377 1.433 . S
C379 N382 1.384 . S
C380 H371 0.929 . S
C380 C372 1.378 . S
C380 C375 1.350 . S
C381 H368 0.929 . S
C381 C373 1.433 . S
C381 N383 1.384 . S
N382 C378 1.427 . S
N382 C379 1.384 . S
N383 C375 1.427 . S
N383 C381 1.384 . S
H384 C390 0.930 . S
H385 C394 0.930 . S
H386 C399 0.929 . S
H387 C397 0.929 . S
H388 C392 0.929 . S
H389 C398 0.929 . S
C390 H384 0.930 . S
C390 C391 1.367 . S
C390 C398 1.378 . S
C391 C390 1.367 . S
C391 C399 1.433 . S
C392 H388 0.929 . S
C392 C394 1.378 . S
C392 C396 1.350 . S
C393 C396 1.463 . S
C393 C398 1.350 . S
C393 N401 1.427 . S
C394 H385 0.930 . S
C394 C392 1.378 . S
C394 C395 1.367 . S
C395 C394 1.367 . S
C395 C397 1.433 . S
C396 C392 1.350 . S
C396 C393 1.463 . S
C396 N400 1.427 . S
C397 H387 0.929 . S
C397 C395 1.433 . S
C397 N400 1.384 . S
C398 H389 0.929 . S
C398 C390 1.378 . S
C398 C393 1.350 . S
C399 H386 0.929 . S
C399 C391 1.433 . S
C399 N401 1.384 . S
N400 C396 1.427 . S
N400 C397 1.384 . S
N401 C393 1.427 . S
N401 C399 1.384 . S
H402 C408 0.930 . S
H403 C412 0.930 . S
H404 C417 0.929 . S
H405 C415 0.929 . S
H406 C410 0.929 . S
H407 C416 0.929 . S
C408 H402 0.930 . S
C408 C409 1.367 . S
C408 C416 1.378 . S
C409 C408 1.367 . S
C409 C417 1.433 . S
C410 H406 0.929 . S
C410 C412 1.378 . S
C410 C414 1.350 . S
C411 C414 1.463 . S
C411 C416 1.350 . S
C411 N419 1.427 . S
C412 H403 0.930 . S
C412 C410 1.378 . S
C412 C413 1.367 . S
C413 C412 1.367 . S
C413 C415 1.433 . S
C414 C410 1.350 . S
C414 C411 1.463 . S
C414 N418 1.427 . S
C415 H405 0.929 . S
C415 C413 1.433 . S
C415 N418 1.384 . S
C416 H407 0.929 . S
C416 C408 1.378 . S
C416 C411 1.350 . S
C417 H404 0.929 . S
C417 C409 1.433 . S
C417 N419 1.384 . S
N418 C414 1.427 . S
N418 C415 1.384 . S
N419 C411 1.427 . S
N419 C417 1.384 . S
H420 C426 0.930 . S
H421 C430 0.930 . S
H422 C435 0.929 . S
H423 C433 0.929 . S
H424 C428 0.929 . S
H425 C434 0.929 . S
C426 H420 0.930 . S
C426 C427 1.367 . S
C426 C434 1.378 . S
C427 C426 1.367 . S
C427 C435 1.433 . S
C428 H424 0.929 . S
C428 C430 1.378 . S
C428 C432 1.350 . S
C429 C432 1.463 . S
C429 C434 1.350 . S
C429 N437 1.427 . S
C430 H421 0.930 . S
C430 C428 1.378 . S
C430 C431 1.367 . S
C431 C430 1.367 . S
C431 C433 1.433 . S
C432 C428 1.350 . S
C432 C429 1.463 . S
C432 N436 1.427 . S
C433 H423 0.929 . S
C433 C431 1.433 . S
C433 N436 1.384 . S
C434 H425 0.929 . S
C434 C426 1.378 . S
C434 C429 1.350 . S
C435 H422 0.929 . S
C435 C427 1.433 . S
C435 N437 1.384 . S
N436 C432 1.427 . S
N436 C433 1.384 . S
N437 C429 1.427 . S
N437 C435 1.384 . S
H438 C444 0.930 . S
H439 C448 0.930 . S
H440 C453 0.929 . S
H441 C451 0.929 . S
H442 C446 0.929 . S
H443 C452 0.929 . S
C444 H438 0.930 . S
C444 C445 1.367 . S
C444 C452 1.378 . S
C445 C444 1.367 . S
C445 C453 1.433 . S
C446 H442 0.929 . S
C446 C448 1.378 . S
C446 C450 1.350 . S
C447 C450 1.463 . S
C447 C452 1.350 . S
C447 N455 1.427 . S
C448 H439 0.930 . S
C448 C446 1.378 . S
C448 C449 1.367 . S
C449 C448 1.367 . S
C449 C451 1.433 . S
C450 C446 1.350 . S
C450 C447 1.463 . S
C450 N454 1.427 . S
C451 H441 0.929 . S
C451 C449 1.433 . S
C451 N454 1.384 . S
C452 H443 0.929 . S
C452 C444 1.378 . S
C452 C447 1.350 . S
C453 H440 0.929 . S
C453 C445 1.433 . S
C453 N455 1.384 . S
N454 C450 1.427 . S
N454 C451 1.384 . S
N455 C447 1.427 . S
N455 C453 1.384 . S
H456 C462 0.930 . S
H457 C466 0.930 . S
H458 C471 0.929 . S
H459 C469 0.929 . S
H460 C464 0.929 . S
H461 C470 0.929 . S
C462 H456 0.930 . S
C462 C463 1.367 . S
C462 C470 1.378 . S
C463 C462 1.367 . S
C463 C471 1.433 . S
C464 H460 0.929 . S
C464 C466 1.378 . S
C464 C468 1.350 . S
C465 C468 1.463 . S
C465 C470 1.350 . S
C465 N473 1.427 . S
C466 H457 0.930 . S
C466 C464 1.378 . S
C466 C467 1.367 . S
C467 C466 1.367 . S
C467 C469 1.433 . S
C468 C464 1.350 . S
C468 C465 1.463 . S
C468 N472 1.427 . S
C469 H459 0.929 . S
C469 C467 1.433 . S
C469 N472 1.384 . S
C470 H461 0.929 . S
C470 C462 1.378 . S
C470 C465 1.350 . S
C471 H458 0.929 . S
C471 C463 1.433 . S
C471 N473 1.384 . S
N472 C468 1.427 . S
N472 C469 1.384 . S
N473 C465 1.427 . S
N473 C471 1.384 . S
H474 C480 0.930 . S
H475 C484 0.930 . S
H476 C489 0.929 . S
H477 C487 0.929 . S
H478 C482 0.929 . S
H479 C488 0.929 . S
C480 H474 0.930 . S
C480 C481 1.367 . S
C480 C488 1.378 . S
C481 C480 1.367 . S
C481 C489 1.433 . S
C482 H478 0.929 . S
C482 C484 1.378 . S
C482 C486 1.350 . S
C483 C486 1.463 . S
C483 C488 1.350 . S
C483 N491 1.427 . S
C484 H475 0.930 . S
C484 C482 1.378 . S
C484 C485 1.367 . S
C485 C484 1.367 . S
C485 C487 1.433 . S
C486 C482 1.350 . S
C486 C483 1.463 . S
C486 N490 1.427 . S
C487 H477 0.929 . S
C487 C485 1.433 . S
C487 N490 1.384 . S
C488 H479 0.929 . S
C488 C480 1.378 . S
C488 C483 1.350 . S
C489 H476 0.929 . S
C489 C481 1.433 . S
C489 N491 1.384 . S
N490 C486 1.427 . S
N490 C487 1.384 . S
N491 C483 1.427 . S
N491 C489 1.384 . S
H492 C498 0.930 . S
H493 C502 0.930 . S
H494 C507 0.929 . S
H495 C505 0.929 . S
H496 C500 0.929 . S
H497 C506 0.929 . S
C498 H492 0.930 . S
C498 C499 1.367 . S
C498 C506 1.378 . S
C499 C498 1.367 . S
C499 C507 1.433 . S
C500 H496 0.929 . S
C500 C502 1.378 . S
C500 C504 1.350 . S
C501 C504 1.463 . S
C501 C506 1.350 . S
C501 N509 1.427 . S
C502 H493 0.930 . S
C502 C500 1.378 . S
C502 C503 1.367 . S
C503 C502 1.367 . S
C503 C505 1.433 . S
C504 C500 1.350 . S
C504 C501 1.463 . S
C504 N508 1.427 . S
C505 H495 0.929 . S
C505 C503 1.433 . S
C505 N508 1.384 . S
C506 H497 0.929 . S
C506 C498 1.378 . S
C506 C501 1.350 . S
C507 H494 0.929 . S
C507 C499 1.433 . S
C507 N509 1.384 . S
N508 C504 1.427 . S
N508 C505 1.384 . S
N509 C501 1.427 . S
N509 C507 1.384 . S
H510 C516 0.930 . S
H511 C520 0.930 . S
H512 C525 0.929 . S
H513 C523 0.929 . S
H514 C518 0.929 . S
H515 C524 0.929 . S
C516 H510 0.930 . S
C516 C517 1.367 . S
C516 C524 1.378 . S
C517 C516 1.367 . S
C517 C525 1.433 . S
C518 H514 0.929 . S
C518 C520 1.378 . S
C518 C522 1.350 . S
C519 C522 1.463 . S
C519 C524 1.350 . S
C519 N527 1.427 . S
C520 H511 0.930 . S
C520 C518 1.378 . S
C520 C521 1.367 . S
C521 C520 1.367 . S
C521 C523 1.433 . S
C522 C518 1.350 . S
C522 C519 1.463 . S
C522 N526 1.427 . S
C523 H513 0.929 . S
C523 C521 1.433 . S
C523 N526 1.384 . S
C524 H515 0.929 . S
C524 C516 1.378 . S
C524 C519 1.350 . S
C525 H512 0.929 . S
C525 C517 1.433 . S
C525 N527 1.384 . S
N526 C522 1.427 . S
N526 C523 1.384 . S
N527 C519 1.427 . S
N527 C525 1.384 . S
H528 C534 0.930 . S
H529 C538 0.930 . S
H530 C543 0.929 . S
H531 C541 0.929 . S
H532 C536 0.929 . S
H533 C542 0.929 . S
C534 H528 0.930 . S
C534 C535 1.367 . S
C534 C542 1.378 . S
C535 C534 1.367 . S
C535 C543 1.433 . S
C536 H532 0.929 . S
C536 C538 1.378 . S
C536 C540 1.350 . S
C537 C540 1.463 . S
C537 C542 1.350 . S
C537 N545 1.427 . S
C538 H529 0.930 . S
C538 C536 1.378 . S
C538 C539 1.367 . S
C539 C538 1.367 . S
C539 C541 1.433 . S
C540 C536 1.350 . S
C540 C537 1.463 . S
C540 N544 1.427 . S
C541 H531 0.929 . S
C541 C539 1.433 . S
C541 N544 1.384 . S
C542 H533 0.929 . S
C542 C534 1.378 . S
C542 C537 1.350 . S
C543 H530 0.929 . S
C543 C535 1.433 . S
C543 N545 1.384 . S
N544 C540 1.427 . S
N544 C541 1.384 . S
N545 C537 1.427 . S
N545 C543 1.384 . S
H546 C552 0.930 . S
H547 C556 0.930 . S
H548 C561 0.929 . S
H549 C559 0.929 . S
H550 C554 0.929 . S
H551 C560 0.929 . S
C552 H546 0.930 . S
C552 C553 1.367 . S
C552 C560 1.378 . S
C553 C552 1.367 . S
C553 C561 1.433 . S
C554 H550 0.929 . S
C554 C556 1.378 . S
C554 C558 1.350 . S
C555 C558 1.463 . S
C555 C560 1.350 . S
C555 N563 1.427 . S
C556 H547 0.930 . S
C556 C554 1.378 . S
C556 C557 1.367 . S
C557 C556 1.367 . S
C557 C559 1.433 . S
C558 C554 1.350 . S
C558 C555 1.463 . S
C558 N562 1.427 . S
C559 H549 0.929 . S
C559 C557 1.433 . S
C559 N562 1.384 . S
C560 H551 0.929 . S
C560 C552 1.378 . S
C560 C555 1.350 . S
C561 H548 0.929 . S
C561 C553 1.433 . S
C561 N563 1.384 . S
N562 C558 1.427 . S
N562 C559 1.384 . S
N563 C555 1.427 . S
N563 C561 1.384 . S
H564 C570 0.930 . S
H565 C574 0.930 . S
H566 C579 0.929 . S
H567 C577 0.929 . S
H568 C572 0.929 . S
H569 C578 0.929 . S
C570 H564 0.930 . S
C570 C571 1.367 . S
C570 C578 1.378 . S
C571 C570 1.367 . S
C571 C579 1.433 . S
C572 H568 0.929 . S
C572 C574 1.378 . S
C572 C576 1.350 . S
C573 C576 1.463 . S
C573 C578 1.350 . S
C573 N581 1.427 . S
C574 H565 0.930 . S
C574 C572 1.378 . S
C574 C575 1.367 . S
C575 C574 1.367 . S
C575 C577 1.433 . S
C576 C572 1.350 . S
C576 C573 1.463 . S
C576 N580 1.427 . S
C577 H567 0.929 . S
C577 C575 1.433 . S
C577 N580 1.384 . S
C578 H569 0.929 . S
C578 C570 1.378 . S
C578 C573 1.350 . S
C579 H566 0.929 . S
C579 C571 1.433 . S
C579 N581 1.384 . S
N580 C576 1.427 . S
N580 C577 1.384 . S
N581 C573 1.427 . S
N581 C579 1.384 . S
H582 C588 0.930 . S
H583 C592 0.930 . S
H584 C597 0.929 . S
H585 C595 0.929 . S
H586 C590 0.929 1_554 S
H587 C596 0.929 . S
C588 H582 0.930 . S
C588 C589 1.367 . S
C588 C596 1.378 . S
C589 C588 1.367 . S
C589 C597 1.433 . S
C590 H586 0.929 1_556 S
C590 C592 1.378 . S
C590 C594 1.350 1_556 S
C591 C594 1.463 . S
C591 C596 1.350 . S
C591 N599 1.427 . S
C592 H583 0.930 . S
C592 C590 1.378 . S
C592 C593 1.367 . S
C593 C592 1.367 . S
C593 C595 1.433 . S
C594 C590 1.350 1_554 S
C594 C591 1.463 . S
C594 N598 1.427 1_554 S
C595 H585 0.929 . S
C595 C593 1.433 . S
C595 N598 1.384 . S
C596 H587 0.929 . S
C596 C588 1.378 . S
C596 C591 1.350 . S
C597 H584 0.929 . S
C597 C589 1.433 . S
C597 N599 1.384 . S
N598 C594 1.427 1_556 S
N598 C595 1.384 . S
N599 C591 1.427 . S
N599 C597 1.384 . S
H600 C606 0.930 . S
H601 C610 0.930 . S
H602 C615 0.929 . S
H603 C613 0.929 . S
H604 C608 0.929 . S
H605 C614 0.929 . S
C606 H600 0.930 . S
C606 C607 1.367 . S
C606 C614 1.378 . S
C607 C606 1.367 . S
C607 C615 1.433 . S
C608 H604 0.929 . S
C608 C610 1.378 . S
C608 C612 1.350 . S
C609 C612 1.463 . S
C609 C614 1.350 . S
C609 N617 1.427 . S
C610 H601 0.930 . S
C610 C608 1.378 . S
C610 C611 1.367 . S
C611 C610 1.367 . S
C611 C613 1.433 . S
C612 C608 1.350 . S
C612 C609 1.463 . S
C612 N616 1.427 . S
C613 H603 0.929 . S
C613 C611 1.433 . S
C613 N616 1.384 . S
C614 H605 0.929 . S
C614 C606 1.378 . S
C614 C609 1.350 . S
C615 H602 0.929 . S
C615 C607 1.433 . S
C615 N617 1.384 . S
N616 C612 1.427 . S
N616 C613 1.384 . S
N617 C609 1.427 . S
N617 C615 1.384 . S
C197 C183 1.554 . S
C193 C8 1.505 . S
C211 C26 1.492 . S
C215 C108 1.474 . S
C229 C50 1.512 . S
C233 C131 1.574 . S
C247 C68 1.423 . S
C251 C144 1.472 . S
C269 C147 1.503 . S
C265 C80 1.507 . S
C283 C104 1.425 . S
C287 C160 1.434 . S
C301 C32 1.439 . S
C305 C121 1.438 . S
C319 C44 1.512 . S
C323 C134 1.499 . S
C337 C62 1.424 . S
C341 C157 1.467 . S
C359 C170 1.569 . S
C355 C86 1.516 1_554 S
C377 C173 1.482 . S
C373 C98 1.484 . S
C395 C118 1.557 . S
C391 C14 1.503 . S
C409 C7 1.456 . S
C413 C129 1.460 . S
C427 C25 1.442 . S
C431 C142 1.449 . S
C449 C152 1.468 . S
C445 C52 1.456 . S
C463 C70 1.438 . S
C467 C165 1.455 1_556 S
C485 C181 1.472 . S
C481 C79 1.463 . S
C503 C113 1.440 . S
C499 C106 1.425 . S
C521 C178 1.445 . S
C517 C34 1.436 . S
C535 C43 1.476 . S
C539 C116 1.485 . S
C557 C126 1.456 . S
C553 C61 1.437 . S
C571 C88 1.467 . S
C575 C139 1.468 . S
C589 C97 1.439 . S
C593 C155 1.445 . S
C607 C16 1.466 . S
C611 C168 1.470 . S
