# Generated by pormake.
# Topology anh, (6,3)-cn, num edge types: 1
# Building blocks:
#     Node 0, Type 0, BuildingBlock: VOLQOD_clean_sbu_1, # of connection points: 6
#     Node 1, Type 0, BuildingBlock: VOLQOD_clean_sbu_1, # of connection points: 6
#     Node 2, Type 0, BuildingBlock: VOLQOD_clean_sbu_1, # of connection points: 6
#     Node 3, Type 1, BuildingBlock: VETTIZ_charged_linker_0, # of connection points: 3
#     Node 4, Type 1, BuildingBlock: VETTIZ_charged_linker_0, # of connection points: 3
#     Node 5, Type 1, BuildingBlock: VETTIZ_charged_linker_0, # of connection points: 3
#     Node 6, Type 1, BuildingBlock: VETTIZ_charged_linker_0, # of connection points: 3
#     Node 7, Type 1, BuildingBlock: VETTIZ_charged_linker_0, # of connection points: 3
#     Node 8, Type 1, BuildingBlock: VETTIZ_charged_linker_0, # of connection points: 3
#     Edge 9, Type (0, 1), BuildingBlock: OJICUG_clean_linker_0, # of connection points: 2
#     Edge 10, Type (0, 1), BuildingBlock: OJICUG_clean_linker_0, # of connection points: 2
#     Edge 11, Type (0, 1), BuildingBlock: OJICUG_clean_linker_0, # of connection points: 2
#     Edge 12, Type (0, 1), BuildingBlock: OJICUG_clean_linker_0, # of connection points: 2
#     Edge 13, Type (0, 1), BuildingBlock: OJICUG_clean_linker_0, # of connection points: 2
#     Edge 14, Type (0, 1), BuildingBlock: OJICUG_clean_linker_0, # of connection points: 2
#     Edge 15, Type (0, 1), BuildingBlock: OJICUG_clean_linker_0, # of connection points: 2
#     Edge 16, Type (0, 1), BuildingBlock: OJICUG_clean_linker_0, # of connection points: 2
#     Edge 17, Type (0, 1), BuildingBlock: OJICUG_clean_linker_0, # of connection points: 2
#     Edge 18, Type (0, 1), BuildingBlock: OJICUG_clean_linker_0, # of connection points: 2
#     Edge 19, Type (0, 1), BuildingBlock: OJICUG_clean_linker_0, # of connection points: 2
#     Edge 20, Type (0, 1), BuildingBlock: OJICUG_clean_linker_0, # of connection points: 2
#     Edge 21, Type (0, 1), BuildingBlock: OJICUG_clean_linker_0, # of connection points: 2
#     Edge 22, Type (0, 1), BuildingBlock: OJICUG_clean_linker_0, # of connection points: 2
#     Edge 23, Type (0, 1), BuildingBlock: OJICUG_clean_linker_0, # of connection points: 2
#     Edge 24, Type (0, 1), BuildingBlock: OJICUG_clean_linker_0, # of connection points: 2
#     Edge 25, Type (0, 1), BuildingBlock: OJICUG_clean_linker_0, # of connection points: 2
#     Edge 26, Type (0, 1), BuildingBlock: OJICUG_clean_linker_0, # of connection points: 2
# Relax obj value: 0.169
# Max RMSD: 0.231
# Mean RMSD: 0.116
data_MOF--net-anh--node1-VOLQOD_clean_sbu_1--node2-VETTIZ_charged_linker_0--edge1-OJICUG_clean_linker_0
_symmetry_space_group_name_H-M    P1
_symmetry_Int_Tables_number       1
_symmetry_cell_setting            triclinic
loop_
_symmetry_equiv_pos_as_xyz
'x, y, z'
_cell_length_a     27.110022
_cell_length_b     26.920802
_cell_length_c     58.570821
_cell_angle_alpha  89.894056
_cell_angle_beta   89.787031
_cell_angle_gamma 120.24192
loop_
_atom_site_label
_atom_site_type_symbol
_atom_site_fract_x
_atom_site_fract_y
_atom_site_fract_z
_atom_type_partial_charge
O0 O -0.00024 0.54334 0.21413 0.0
Zn1 Zn -0.00529 0.5577 0.18077 0.0
O2 O -0.00366 0.49777 0.1626 0.0
Zn3 Zn 0.92462 0.45305 0.14659 0.0
Zn4 Zn 0.01016 0.44661 0.18209 0.0
Zn5 Zn 0.05658 0.53461 0.14019 0.0
O6 O 0.93521 0.45588 0.11233 0.0
O7 O 0.02685 0.52152 0.10834 0.0
O8 O 0.92376 0.56206 0.17484 0.0
O9 O 0.87391 0.48497 0.15312 0.0
O10 O 0.88283 0.37138 0.15737 0.0
O11 O 0.94128 0.36688 0.18262 0.0
O12 O 0.07804 0.4404 0.17126 0.0
O13 O 0.06289 0.63525 0.17412 0.0
O14 O 0.10592 0.50041 0.14176 0.0
O15 O 0.10714 0.61897 0.14577 0.0
C16 C 0.01355 0.511 0.22492 0.0
C17 C 0.9784 0.48719 0.09973 0.0
C18 C 0.89411 0.34338 0.17191 0.0
C19 C 0.87872 0.5281 0.16393 0.0
C20 C 0.11122 0.46488 0.15432 0.0
C21 C 0.10411 0.65303 0.15996 0.0
O22 O 0.02188 0.4742 0.21459 0.0
O23 O 0.43206 0.00118 0.44695 0.0
Zn24 Zn 0.41454 0.01091 0.47942 0.0
O25 O 0.47221 0.01197 0.49952 0.0
Zn26 Zn 0.51663 0.08692 0.51346 0.0
Zn27 Zn 0.5233 0.99335 0.48258 0.0
Zn28 Zn 0.43326 0.95624 0.52354 0.0
O29 O 0.51271 0.08212 0.54788 0.0
O30 O 0.44068 0.9934 0.55384 0.0
O31 O 0.41026 0.0833 0.48224 0.0
O32 O 0.48621 0.13756 0.50374 0.0
O33 O 0.59823 0.12577 0.50357 0.0
O34 O 0.60366 0.06125 0.48187 0.0
O35 O 0.52623 0.92635 0.49695 0.0
O36 O 0.33699 0.94295 0.48602 0.0
O37 O 0.46858 0.9075 0.52679 0.0
O38 O 0.35069 0.9028 0.51656 0.0
C39 C 0.46427 0.98485 0.43784 0.0
C40 C 0.4773 0.04281 0.56124 0.0
C41 C 0.62683 0.11085 0.49098 0.0
C42 C 0.44386 0.13071 0.49198 0.0
C43 C 0.50305 0.8984 0.51524 0.0
C44 C 0.31825 0.9033 0.50105 0.0
O45 O 0.49894 0.97674 0.44971 0.0
O46 O 0.45689 0.44906 0.78096 0.0
Zn47 Zn 0.45062 0.4488 0.81549 0.0
O48 O 0.51859 0.51393 0.82876 0.0
Zn49 Zn 0.49876 0.56403 0.84542 0.0
Zn50 Zn 0.57236 0.55869 0.80467 0.0
Zn51 Zn 0.55398 0.48516 0.84957 0.0
O52 O 0.51521 0.56572 0.87904 0.0
O53 O 0.54655 0.50403 0.88192 0.0
O54 O 0.37915 0.44938 0.82468 0.0
O55 O 0.41474 0.53253 0.84315 0.0
O56 O 0.53607 0.6443 0.83229 0.0
O57 O 0.57647 0.63477 0.80082 0.0
O58 O 0.65166 0.5736 0.81103 0.0
O59 O 0.44293 0.37403 0.82581 0.0
O60 O 0.63728 0.52275 0.8429 0.0
O61 O 0.51939 0.39928 0.84713 0.0
C62 C 0.49925 0.47751 0.76756 0.0
C63 C 0.53226 0.53781 0.89104 0.0
C64 C 0.56258 0.66419 0.81349 0.0
C65 C 0.37262 0.48707 0.83518 0.0
C66 C 0.67 0.55613 0.82732 0.0
C67 C 0.47395 0.36076 0.83765 0.0
O68 O 0.54647 0.51835 0.77487 0.0
C69 C 0.65765 0.09801 0.19787 0.0
C70 C 0.70858 0.13531 0.20937 0.0
C71 C 0.71019 0.13121 0.23335 0.0
C72 C 0.61017 0.05798 0.23405 0.0
C73 C 0.60906 0.0603 0.21051 0.0
C74 C 0.55036 0.02149 0.20109 0.0
H75 H 0.27097 0.83277 0.22102 0.0
C76 C 0.55159 0.01807 0.24215 0.0
C77 C 0.51628 -0.00337 0.22292 0.0
H78 H 0.35629 0.88971 0.15564 0.0
H79 H 0.44553 0.95195 0.1747 0.0
H80 H 0.36299 0.81564 0.2441 0.0
H81 H 0.33499 0.95926 0.24502 0.0
H82 H 0.35435 0.95184 0.27283 0.0
H83 H 0.29039 0.89387 0.26044 0.0
H84 H 0.30656 0.81502 0.26043 0.0
H85 H 0.37714 0.84262 0.27203 0.0
C86 C 0.55253 0.97487 0.18638 0.0
C87 C 0.5313 0.05905 0.18801 0.0
C88 C 0.50945 0.98968 0.32727 0.0
C89 C 0.45857 0.95836 0.33985 0.0
C90 C 0.40692 0.92447 0.32815 0.0
C91 C 0.40579 0.92248 0.30427 0.0
C92 C 0.45682 0.95492 0.2919 0.0
C93 C 0.50755 0.98747 0.3034 0.0
C94 C 0.55726 0.02026 0.28741 0.0
C95 C 0.52794 0.00179 0.26442 0.0
C96 C 0.46922 0.96367 0.2672 0.0
C97 C 0.60006 -0.00112 0.29114 0.0
C98 C 0.58218 0.08544 0.29172 0.0
C99 C 0.30845 0.85974 0.21073 0.0
C100 C 0.30644 0.85669 0.18677 0.0
C101 C 0.35678 0.89122 0.17412 0.0
C102 C 0.40852 0.92719 0.18523 0.0
C103 C 0.40995 0.92847 0.20924 0.0
C104 C 0.36026 0.89544 0.22152 0.0
C105 C 0.3697 0.90068 0.24685 0.0
C106 C 0.43349 0.94182 0.24782 0.0
C107 C 0.45686 0.95817 0.22579 0.0
C108 C 0.35298 0.84051 0.25656 0.0
C109 C 0.33545 0.92739 0.25702 0.0
H110 H 0.66515 0.0926 0.26393 0.0
H111 H 0.65501 0.09943 0.17946 0.0
H112 H 0.54617 0.10071 0.19688 0.0
H113 H 0.48449 0.03929 0.18706 0.0
H114 H 0.5493 0.06879 0.17043 0.0
H115 H 0.58258 0.96246 0.19377 0.0
H116 H 0.56724 0.9907 0.16873 0.0
H117 H 0.51109 0.93438 0.18566 0.0
H118 H 0.54968 0.01677 0.33577 0.0
H119 H 0.36728 0.89948 0.33751 0.0
H120 H 0.3651 0.89608 0.29639 0.0
H121 H 0.57709 0.95167 0.29431 0.0
H122 H 0.62771 0.02012 0.30612 0.0
H123 H 0.62728 0.00548 0.27606 0.0
H124 H 0.54818 0.09463 0.29712 0.0
H125 H 0.60092 0.11195 0.27623 0.0
H126 H 0.61485 0.10121 0.30539 0.0
H127 H 0.74841 0.15981 0.24276 0.0
C128 C 0.66143 0.0926 0.2457 0.0
C129 C 0.51952 0.66734 0.53528 0.0
C130 C 0.53796 0.71683 0.54871 0.0
C131 C 0.55327 0.71601 0.57162 0.0
C132 C 0.52192 0.61496 0.5686 0.0
C133 C 0.51182 0.61686 0.54559 0.0
C134 C 0.48943 0.55913 0.5344 0.0
H135 H 0.39616 0.27524 0.54612 0.0
C136 C 0.50179 0.55475 0.57488 0.0
C137 C 0.48285 0.52169 0.55497 0.0
H138 H 0.43874 0.3746 0.48382 0.0
H139 H 0.45773 0.45925 0.50535 0.0
H140 H 0.50248 0.36286 0.57156 0.0
H141 H 0.33286 0.33896 0.57361 0.0
H142 H 0.35979 0.3535 0.60155 0.0
H143 H 0.35005 0.28984 0.58723 0.0
H144 H 0.4434 0.30157 0.58494 0.0
H145 H 0.48564 0.36766 0.60017 0.0
C146 C 0.53533 0.5633 0.51732 0.0
C147 C 0.43112 0.54135 0.52333 0.0
C148 C 0.49768 0.50288 0.65822 0.0
C149 C 0.47576 0.45049 0.67001 0.0
C150 C 0.44791 0.39861 0.65773 0.0
C151 C 0.44329 0.39921 0.63385 0.0
C152 C 0.46654 0.45225 0.62226 0.0
C153 C 0.49242 0.50277 0.63455 0.0
C154 C 0.51186 0.55502 0.61979 0.0
C155 C 0.49465 0.52778 0.59642 0.0
C156 C 0.4686 0.46774 0.59789 0.0
C157 C 0.57761 0.59302 0.62195 0.0
C158 C 0.47797 0.58484 0.62708 0.0
C159 C 0.40748 0.31481 0.53712 0.0
C160 C 0.41499 0.31851 0.51334 0.0
C161 C 0.43207 0.37103 0.50214 0.0
C162 C 0.44384 0.42007 0.51468 0.0
C163 C 0.43974 0.41661 0.53863 0.0
C164 C 0.42118 0.36442 0.54946 0.0
C165 C 0.42521 0.36993 0.57503 0.0
C166 C 0.45098 0.43426 0.57772 0.0
C167 C 0.45844 0.46118 0.55638 0.0
C168 C 0.46594 0.3492 0.58357 0.0
C169 C 0.364 0.33609 0.58506 0.0
H170 H 0.55569 0.66705 0.59935 0.0
H171 H 0.50796 0.66688 0.51758 0.0
H172 H 0.40352 0.54846 0.53541 0.0
H173 H 0.40694 0.49541 0.51873 0.0
H174 H 0.43677 0.56708 0.50767 0.0
H175 H 0.57835 0.60061 0.52102 0.0
H176 H 0.52473 0.56836 0.49949 0.0
H177 H 0.541 0.52536 0.51833 0.0
H178 H 0.51799 0.54339 0.6673 0.0
H179 H 0.43056 0.35775 0.66655 0.0
H180 H 0.42218 0.35846 0.62533 0.0
H181 H 0.59776 0.56602 0.62383 0.0
H182 H 0.58946 0.6214 0.63711 0.0
H183 H 0.59798 0.6196 0.60659 0.0
H184 H 0.43468 0.55299 0.63357 0.0
H185 H 0.46976 0.60644 0.61279 0.0
H186 H 0.50025 0.61649 0.64089 0.0
H187 H 0.56907 0.75408 0.58211 0.0
C188 C 0.54529 0.66538 0.58162 0.0
C189 C 0.12897 0.47935 0.85792 0.0
C190 C 0.16083 0.4574 0.8681 0.0
C191 C 0.14878 0.43714 0.89077 0.0
C192 C 0.07804 0.46652 0.89357 0.0
C193 C 0.08755 0.48304 0.87087 0.0
C194 C 0.05021 0.50587 0.86279 0.0
H195 H 0.84678 0.57236 0.88661 0.0
C196 C 0.03553 0.48024 0.90267 0.0
C197 C 0.01847 0.5025 0.88463 0.0
H198 H 0.92147 0.57581 0.82082 0.0
H199 H 0.98395 0.54751 0.83862 0.0
H200 H 0.83159 0.45897 0.90302 0.0
H201 H 0.96933 0.631 0.91513 0.0
H202 H 0.95533 0.59314 0.94101 0.0
H203 H 0.90023 0.60258 0.92815 0.0
H204 H 0.82509 0.50633 0.92274 0.0
H205 H 0.85276 0.46074 0.93143 0.0
C206 C 0.00978 0.46484 0.84415 0.0
C207 C 0.08914 0.56882 0.85472 0.0
C208 C -0.00515 0.46538 0.98787 0.0
C209 C 0.96028 0.47884 0.00141 0.0
C210 C 0.9247 0.49592 0.99073 0.0
C211 C 0.9252 0.50169 0.96695 0.0
C212 C 0.96161 0.49018 0.95369 0.0
C213 C -0.0052 0.47126 0.96414 0.0
C214 C 0.03039 0.46049 0.9473 0.0
C215 C 0.0143 0.47777 0.92509 0.0
C216 C 0.97437 0.49545 0.929 0.0
C217 C 0.01088 0.39556 0.9479 0.0
C218 C 0.09406 0.50081 0.95328 0.0
C219 C 0.87771 0.56873 0.87606 0.0
C220 C 0.87948 0.5767 0.85228 0.0
C221 C 0.91922 0.56971 0.83916 0.0
C222 C 0.95519 0.55301 0.84952 0.0
C223 C 0.95107 0.5429 0.87321 0.0
C224 C 0.91341 0.55167 0.88609 0.0
C225 C 0.91344 0.53733 0.91088 0.0
C226 C 0.95604 0.51662 0.91068 0.0
C227 C 0.97818 0.52035 0.88864 0.0
C228 C 0.85264 0.48861 0.91759 0.0
C229 C 0.93529 0.59356 0.9247 0.0
H230 H 0.10126 0.42702 0.92097 0.0
H231 H 0.13719 0.49462 0.84041 0.0
H232 H 0.12571 0.5922 0.86656 0.0
H233 H 0.06715 0.59391 0.8545 0.0
H234 H 0.10685 0.57043 0.83743 0.0
H235 H 0.00139 0.42023 0.84662 0.0
H236 H 0.02847 0.47916 0.82682 0.0
H237 H 0.96701 0.46051 0.84467 0.0
H238 H 0.02198 0.45131 0.99563 0.0
H239 H 0.89791 0.50675 0.00084 0.0
H240 H 0.8979 0.51583 0.95986 0.0
H241 H 0.96546 0.36912 0.95336 0.0
H242 H 0.03695 0.38666 0.96002 0.0
H243 H 0.01249 0.37872 0.93086 0.0
H244 H 0.10236 0.5448 0.95718 0.0
H245 H 0.12347 0.50629 0.9392 0.0
H246 H 0.10617 0.48478 0.96852 0.0
H247 H 0.17325 0.42037 0.89891 0.0
C248 C 0.1075 0.44163 0.90359 0.0
C249 C 0.87878 0.34065 0.46652 0.0
C250 C 0.84187 0.28873 0.45535 0.0
C251 C 0.8486 0.28472 0.43165 0.0
C252 C 0.92306 0.38474 0.43032 0.0
C253 C 0.91848 0.38806 0.45369 0.0
C254 C 0.95698 0.44786 0.46255 0.0
H255 H 0.14695 0.72722 0.43985 0.0
C256 C 0.96401 0.44281 0.42174 0.0
C257 C 0.984 0.48009 0.44052 0.0
H258 H 0.08571 0.64752 0.506 0.0
H259 H 0.02563 0.55574 0.48787 0.0
H260 H 0.16554 0.63187 0.41968 0.0
H261 H 0.02374 0.66075 0.41459 0.0
H262 H 0.03269 0.63835 0.38755 0.0
H263 H 0.08967 0.7039 0.3995 0.0
H264 H 0.16781 0.68764 0.40209 0.0
H265 H 0.14093 0.6157 0.39148 0.0
C266 C 0.00145 0.44617 0.47856 0.0
C267 C 0.91938 0.46906 0.47406 0.0
C268 C -0.00158 0.47724 0.33641 0.0
C269 C 0.03062 0.52719 0.32323 0.0
C270 C 0.06352 0.58031 0.33432 0.0
C271 C 0.06383 0.58374 0.35818 0.0
C272 C 0.03065 0.53357 0.37112 0.0
C273 C -0.00106 0.48144 0.36022 0.0
C274 C 0.96502 0.43295 0.37669 0.0
C275 C 0.98192 0.46456 0.39929 0.0
C276 C 0.02023 0.52336 0.39589 0.0
C277 C 0.98611 0.38928 0.37462 0.0
C278 C 0.90068 0.40779 0.37146 0.0
C279 C 0.11954 0.69042 0.45048 0.0
C280 C 0.12064 0.69479 0.4744 0.0
C281 C 0.08565 0.64523 0.48754 0.0
C282 C 0.05093 0.59202 0.47698 0.0
C283 C 0.05132 0.58832 0.45302 0.0
C284 C 0.08504 0.63719 0.44024 0.0
C285 C 0.08163 0.62535 0.41509 0.0
C286 C 0.04073 0.56106 0.41483 0.0
C287 C 0.02284 0.53958 0.43704 0.0
C288 C 0.14198 0.64119 0.40642 0.0
C289 C 0.05602 0.65894 0.40337 0.0
H290 H 0.89098 0.3268 0.40108 0.0
H291 H 0.8754 0.34507 0.48474 0.0
H292 H 0.87913 0.45428 0.46438 0.0
H293 H 0.93983 0.51633 0.47445 0.0
H294 H 0.90759 0.45216 0.49177 0.0
H295 H 0.01368 0.41478 0.47235 0.0
H296 H 0.98411 0.43311 0.49614 0.0
H297 H 0.04199 0.48762 0.47924 0.0
H298 H 0.97201 0.43593 0.32837 0.0
H299 H 0.08912 0.61927 0.32451 0.0
H300 H 0.08959 0.62544 0.36558 0.0
H301 H 0.03317 0.41191 0.37198 0.0
H302 H 0.96593 0.36007 0.3599 0.0
H303 H 0.97833 0.36327 0.39024 0.0
H304 H 0.89232 0.44151 0.36471 0.0
H305 H 0.87328 0.39105 0.38681 0.0
H306 H 0.88564 0.37318 0.35849 0.0
H307 H 0.82048 0.24569 0.42246 0.0
C308 C 0.88913 0.33226 0.41913 0.0
C309 C 0.55089 0.89853 0.79193 0.0
C310 C 0.57361 0.87087 0.77869 0.0
C311 C 0.59042 0.88964 0.75595 0.0
C312 C 0.55313 0.95416 0.75892 0.0
C313 C 0.54198 0.94059 0.78181 0.0
C314 C 0.52056 0.9761 0.79345 0.0
H315 H 0.43064 0.16845 0.7829 0.0
C316 C 0.53356 0.99458 0.75297 0.0
C317 C 0.5152 0.00841 0.77318 0.0
H318 H 0.47261 0.1121 0.8452 0.0
H319 H 0.49205 0.04684 0.82347 0.0
H320 H 0.53607 0.18831 0.75663 0.0
H321 H 0.36521 0.0436 0.7575 0.0
H322 H 0.39012 0.04851 0.72942 0.0
H323 H 0.3841 0.10725 0.74121 0.0
H324 H 0.47663 0.18961 0.74384 0.0
H325 H 0.51806 0.16568 0.72824 0.0
C326 C 0.56653 0.01706 0.81062 0.0
C327 C 0.46185 0.93543 0.80456 0.0
C328 C 0.51895 0.03759 0.66951 0.0
C329 C 0.49329 0.06533 0.65872 0.0
C330 C 0.46869 0.09084 0.6719 0.0
C331 C 0.46978 0.08892 0.69577 0.0
C332 C 0.49511 0.06051 0.70648 0.0
C333 C 0.51871 0.03501 0.69338 0.0
C334 C 0.53992 0.00317 0.70768 0.0
C335 C 0.5258 0.01446 0.73156 0.0
C336 C 0.5001 0.04841 0.73067 0.0
C337 C 0.60516 0.03086 0.70381 0.0
C338 C 0.50478 0.93873 0.70122 0.0
C339 C 0.44234 0.14083 0.79199 0.0
C340 C 0.44941 0.14472 0.81577 0.0
C341 C 0.46673 0.10955 0.82687 0.0
C342 C 0.47856 0.07235 0.81424 0.0
C343 C 0.47424 0.07148 0.7903 0.0
C344 C 0.45588 0.10507 0.77964 0.0
C345 C 0.4584 0.10288 0.75408 0.0
C346 C 0.48372 0.06443 0.7511 0.0
C347 C 0.49177 0.04509 0.77228 0.0
C348 C 0.49902 0.16468 0.74503 0.0
C349 C 0.39649 0.07452 0.7449 0.0
H350 H 0.59232 0.94182 0.72849 0.0
H351 H 0.53847 0.8867 0.80956 0.0
H352 H 0.43309 0.90241 0.79212 0.0
H353 H 0.43983 0.95834 0.81028 0.0
H354 H 0.46648 0.91281 0.81956 0.0
H355 H 0.60909 0.02198 0.80697 0.0
H356 H 0.55489 0.00089 0.82843 0.0
H357 H 0.57371 0.06135 0.8097 0.0
H358 H 0.53706 0.01671 0.65955 0.0
H359 H 0.4483 0.11188 0.66368 0.0
H360 H 0.45041 0.10919 0.70494 0.0
H361 H 0.625 0.07703 0.69898 0.0
H362 H 0.61472 0.00885 0.68993 0.0
H363 H 0.62785 0.03085 0.71948 0.0
H364 H 0.45861 0.92465 0.69998 0.0
H365 H 0.50733 0.90988 0.71389 0.0
H366 H 0.51871 0.9309 0.68441 0.0
H367 H 0.61103 0.87206 0.74557 0.0
C368 C 0.5799 0.93061 0.746 0.0
C369 C 0.64541 0.53887 0.14036 0.0
C370 C 0.70157 0.56257 0.13218 0.0
C371 C 0.71412 0.58168 0.10937 0.0
C372 C 0.61399 0.54624 0.10243 0.0
C373 C 0.60239 0.53133 0.12524 0.0
C374 C 0.53997 0.50499 0.13084 0.0
H375 H 0.27249 0.41279 0.09364 0.0
C376 C 0.55928 0.52675 0.09074 0.0
C377 C 0.51576 0.50273 0.1073 0.0
H378 H 0.33263 0.44233 0.16324 0.0
H379 H 0.42591 0.46277 0.15027 0.0
H380 H 0.36177 0.52123 0.07759 0.0
H381 H 0.35482 0.35853 0.07282 0.0
H382 H 0.37912 0.39383 0.04635 0.0
H383 H 0.3096 0.3766 0.05684 0.0
H384 H 0.32226 0.47077 0.05551 0.0
H385 H 0.39669 0.52432 0.05202 0.0
C386 C 0.53249 0.54625 0.14709 0.0
C387 C 0.51796 0.44404 0.1408 0.0
C388 C 0.5544 0.54313 0.00434 0.0
C389 C 0.50932 0.5268 0.98887 0.0
C390 C 0.45279 0.4996 -0.00287 0.0
C391 C 0.44114 0.48854 0.02045 0.0
C392 C 0.48655 0.50547 0.03576 0.0
C393 C 0.54205 0.53235 0.02767 0.0
C394 C 0.58468 0.54729 0.04656 0.0
C395 C 0.54549 0.52541 0.0673 0.0
C396 C 0.48821 0.50065 0.06079 0.0
C397 C 0.62429 0.61351 0.04695 0.0
C398 C 0.61602 0.51325 0.04256 0.0
C399 C 0.30539 0.42221 0.10615 0.0
C400 C 0.29564 0.42686 0.12941 0.0
C401 C 0.33919 0.43864 0.14521 0.0
C402 C 0.3936 0.45174 0.13759 0.0
C403 C 0.40445 0.45396 0.11399 0.0
C404 C 0.3603 0.43812 0.09874 0.0
C405 C 0.38049 0.45023 0.07438 0.0
C406 C 0.44428 0.47712 0.0775 0.0
C407 C 0.45797 0.47828 0.10064 0.0
C408 C 0.36435 0.49349 0.06414 0.0
C409 C 0.35458 0.39202 0.06173 0.0
H410 H 0.68243 0.58721 0.07706 0.0
H411 H 0.63495 0.52435 0.1579 0.0
H412 H 0.53356 0.42021 0.13035 0.0
H413 H 0.47095 0.41746 0.1409 0.0
H414 H 0.53329 0.44633 0.15855 0.0
H415 H 0.56945 0.59091 0.14609 0.0
H416 H 0.52836 0.53201 0.16516 0.0
H417 H 0.4951 0.55041 0.14256 0.0
H418 H 0.59828 0.56419 -0.00158 0.0
H419 H 0.41739 0.48585 0.98545 0.0
H420 H 0.39717 0.46726 0.0256 0.0
H421 H 0.60119 0.63571 0.04125 0.0
H422 H 0.66168 0.62742 0.03544 0.0
H423 H 0.63945 0.63029 0.06429 0.0
H424 H 0.58564 0.46884 0.03668 0.0
H425 H 0.63534 0.50765 0.05817 0.0
H426 H 0.64976 0.53434 0.02928 0.0
H427 H 0.75714 0.59963 0.1027 0.0
C428 C 0.67057 0.5736 0.09443 0.0
C429 C 0.18875 0.47658 0.12838 0.0
C430 C 0.15685 0.45236 0.14841 0.0
H431 H 0.25724 0.48814 0.10712 0.0
C432 C 0.16974 0.41758 0.16222 0.0
H433 H 0.18036 0.50372 0.1173 0.0
C434 C 0.21435 0.40796 0.15609 0.0
C435 C 0.24595 0.43249 0.13598 0.0
H436 H 0.1459 0.39842 0.17779 0.0
H437 H 0.22415 0.38157 0.167 0.0
C438 C 0.23264 0.467 0.12234 0.0
C439 C 0.71901 0.14044 0.47041 0.0
C440 C 0.68634 0.15426 0.48495 0.0
H441 H 0.79494 0.17195 0.45016 0.0
C442 C 0.709 0.21157 0.49195 0.0
H443 H 0.70309 0.09659 0.46489 0.0
C444 C 0.76109 0.25471 0.48328 0.0
C445 C 0.79215 0.24157 0.46757 0.0
H446 H 0.68516 0.2238 0.50321 0.0
H447 H 0.77514 0.29878 0.48789 0.0
C448 C 0.77151 0.18367 0.46186 0.0
C449 C 0.57883 0.76346 0.81984 0.0
C450 C 0.57149 0.71963 0.80487 0.0
H451 H 0.58861 0.84694 0.82342 0.0
C452 C 0.56824 0.72716 0.78135 0.0
H453 H 0.58172 0.75871 0.83808 0.0
C454 C 0.56973 0.77636 0.77298 0.0
C455 C 0.57638 0.82044 0.78783 0.0
H456 H 0.56165 0.69364 0.76943 0.0
H457 H 0.56335 0.77836 0.75486 0.0
C458 C 0.58215 0.81376 0.81139 0.0
C459 C 0.84451 0.59626 0.15548 0.0
C460 C 0.8324 0.54084 0.16168 0.0
H461 H 0.81153 0.64686 0.14094 0.0
C462 C 0.77573 0.49537 0.16178 0.0
H463 H 0.88813 0.63179 0.15512 0.0
C464 C 0.73213 0.50414 0.15416 0.0
C465 C 0.74482 0.55826 0.14583 0.0
H466 H 0.76563 0.45229 0.1665 0.0
H467 H 0.68927 0.46748 0.15299 0.0
C468 C 0.80094 0.6048 0.1473 0.0
C469 C 0.24534 0.80098 0.50973 0.0
C470 C 0.26046 0.8528 0.49834 0.0
H471 H 0.18907 0.70994 0.51096 0.0
C472 C 0.22312 0.85346 0.48193 0.0
H473 H 0.27302 0.79903 0.52255 0.0
C474 C 0.17458 0.80242 0.4755 0.0
C475 C 0.1627 0.7497 0.48521 0.0
H476 H 0.23304 0.89285 0.47311 0.0
H477 H 0.1481 0.80379 0.46199 0.0
C478 C 0.19697 0.74982 0.50316 0.0
C479 C 0.4101 0.25736 0.82761 0.0
C480 C 0.46056 0.30022 0.83779 0.0
H481 H 0.36611 0.17294 0.81324 0.0
C482 C 0.50121 0.28601 0.84525 0.0
H483 H 0.37739 0.26647 0.82205 0.0
C484 C 0.49452 0.23219 0.84024 0.0
C485 C 0.44708 0.19185 0.82774 0.0
H486 H 0.54029 0.31783 0.85336 0.0
H487 H 0.52893 0.22428 0.84429 0.0
C488 C 0.40343 0.20366 0.82264 0.0
C489 C 0.49942 0.83291 0.54597 0.0
C490 C 0.51572 0.8543 0.52365 0.0
H491 H 0.49343 0.77297 0.57113 0.0
C492 C 0.54231 0.83202 0.50972 0.0
H493 H 0.47906 0.8492 0.55723 0.0
C494 C 0.55087 0.78794 0.51785 0.0
C495 C 0.53365 0.76622 0.54011 0.0
H496 H 0.55534 0.8477 0.49244 0.0
H497 H 0.57058 0.77068 0.50675 0.0
C498 C 0.50826 0.78953 0.55407 0.0
C499 C 0.76342 0.6131 0.84587 0.0
C500 C 0.73051 0.57455 0.82874 0.0
H501 H 0.83883 0.64633 0.86614 0.0
C502 C 0.75208 0.54499 0.81646 0.0
H503 H 0.74698 0.63595 0.85557 0.0
C504 C 0.80404 0.54998 0.82273 0.0
C505 C 0.83473 0.58457 0.84136 0.0
H506 H 0.72661 0.51446 0.80338 0.0
H507 H 0.81741 0.52285 0.81434 0.0
C508 C 0.81558 0.61864 0.85198 0.0
C509 C 0.15024 0.7507 0.17757 0.0
C510 C 0.15325 0.71197 0.16238 0.0
H511 H 0.1966 0.82833 0.19669 0.0
C512 C 0.20597 0.72713 0.15208 0.0
H513 H 0.11012 0.74077 0.18551 0.0
C514 C 0.25561 0.77704 0.15868 0.0
C515 C 0.2533 0.81283 0.17557 0.0
H516 H 0.20973 0.69844 0.14019 0.0
H517 H 0.29617 0.78506 0.15185 0.0
C518 C 0.19979 0.80076 0.18404 0.0
C519 C 0.37766 0.16831 0.49764 0.0
C520 C 0.43186 0.17804 0.49141 0.0
H521 H 0.32959 0.20658 0.50976 0.0
C522 C 0.47704 0.23452 0.48835 0.0
H523 H 0.34244 0.12494 0.50029 0.0
C524 C 0.46929 0.28085 0.49307 0.0
C525 C 0.41668 0.27121 0.50152 0.0
H526 H 0.51918 0.24277 0.48358 0.0
H527 H 0.50581 0.32402 0.49212 0.0
C528 C 0.3703 0.21476 0.50302 0.0
C529 C 0.30581 0.52369 0.84062 0.0
C530 C 0.31499 0.47688 0.83984 0.0
H531 H 0.24874 0.55349 0.84981 0.0
C532 C 0.27068 0.42194 0.84614 0.0
H533 H 0.33942 0.56643 0.83581 0.0
C534 C 0.21918 0.41475 0.8546 0.0
C535 C 0.21103 0.46216 0.85624 0.0
H536 H 0.27708 0.38533 0.84582 0.0
H537 H 0.18642 0.37268 0.8605 0.0
C538 C 0.254 0.51626 0.84852 0.0
C539 C 0.79286 0.26321 0.17043 0.0
C540 C 0.84876 0.28479 0.17845 0.0
H541 H 0.70488 0.19991 0.17413 0.0
C542 C 0.85922 0.25258 0.19462 0.0
H543 H 0.78322 0.28681 0.15795 0.0
C544 C 0.81409 0.20188 0.2037 0.0
C545 C 0.7576 0.18264 0.19691 0.0
H546 H 0.90192 0.26768 0.20097 0.0
H547 H 0.82326 0.17887 0.21662 0.0
C548 C 0.74779 0.21293 0.17964 0.0
C549 C 0.02224 0.50762 0.0608 0.0
C550 C 0.97296 0.4835 0.0746 0.0
H551 H 0.05663 0.52479 0.02692 0.0
C552 C 0.91908 0.45643 0.06414 0.0
H553 H 0.06442 0.52861 0.0683 0.0
C554 C 0.91471 0.45442 0.04032 0.0
C555 C 0.9641 0.47874 0.0266 0.0
H556 H 0.88034 0.43747 0.07431 0.0
H557 H 0.87275 0.43369 0.03263 0.0
C558 C 0.01784 0.50504 0.03708 0.0
C559 C 0.41916 0.97762 0.39988 0.0
C560 C 0.46185 0.97602 0.41287 0.0
H561 H 0.38486 0.97344 0.36665 0.0
C562 C 0.50266 0.967 0.40169 0.0
H563 H 0.387 0.9844 0.40793 0.0
C564 C 0.50135 0.96072 0.37799 0.0
C565 C 0.45895 0.96285 0.36504 0.0
H566 H 0.5361 0.9655 0.41119 0.0
H567 H 0.53344 0.95405 0.36979 0.0
C568 C 0.41765 0.97095 0.37623 0.0
C569 C 0.54107 0.49611 0.72833 0.0
C570 C 0.4936 0.46518 0.74279 0.0
H571 H 0.57256 0.51476 0.69405 0.0
C572 C 0.44095 0.42491 0.73316 0.0
H573 H 0.58249 0.52693 0.73512 0.0
C574 C 0.43544 0.41787 0.70944 0.0
C575 C 0.4824 0.45118 0.69506 0.0
H576 H 0.40366 0.40016 0.74384 0.0
H577 H 0.394 0.38835 0.70231 0.0
C578 C 0.53549 0.48922 0.70477 0.0
C579 C 0.53292 0.09149 0.5963 0.0
C580 C 0.48055 0.05308 0.58603 0.0
H581 H 0.57807 0.12462 0.62778 0.0
C582 C 0.43195 0.02147 0.59984 0.0
H583 H 0.57108 0.11603 0.58604 0.0
C584 C 0.43587 0.02727 0.62353 0.0
C585 C 0.4886 0.06387 0.63374 0.0
H586 H 0.39106 0.99172 0.59235 0.0
H587 H 0.39815 0.00183 0.63393 0.0
C588 C 0.53704 0.0963 0.62006 0.0
C589 C 0.49941 0.56189 0.92715 0.0
C590 C 0.5318 0.54136 0.91619 0.0
H591 H 0.46694 0.57329 0.9589 0.0
C592 C 0.56045 0.52033 0.92951 0.0
H593 H 0.47683 0.57833 0.91737 0.0
C594 C 0.55508 0.51788 0.95325 0.0
C595 C 0.52043 0.53576 0.96407 0.0
H596 H 0.58599 0.50449 0.92156 0.0
H597 H 0.57608 0.49976 0.96306 0.0
C598 C 0.49347 0.55874 0.95088 0.0
C599 C 0.017 0.56043 0.26155 0.0
C600 C 0.01953 0.51599 0.25002 0.0
H601 H 0.01844 0.59866 0.29372 0.0
C602 C 0.02717 0.47606 0.26276 0.0
H603 H 0.01125 0.59199 0.25228 0.0
C604 C 0.03132 0.47999 0.28651 0.0
C605 C 0.02833 0.52415 0.298 0.0
H606 H 0.02939 0.44134 0.25442 0.0
H607 H 0.03706 0.44857 0.2959 0.0
C608 C 0.02152 0.56455 0.28528 0.0
loop_
_geom_bond_atom_site_label_1
_geom_bond_atom_site_label_2
_geom_bond_distance
_geom_bond_site_symmetry_2
_ccdc_geom_bond_type
O0 Zn1 1.953 . S
O0 C16 1.225 1_655 S
Zn1 O0 1.953 . S
Zn1 O2 1.949 1_655 S
Zn1 O8 1.919 . S
Zn1 O13 1.924 1_655 S
O2 Zn1 1.949 1_455 S
O2 Zn3 1.923 1_455 S
O2 Zn4 1.950 . S
O2 Zn5 1.945 . S
Zn3 O2 1.923 1_655 S
Zn3 O6 1.933 . S
Zn3 O9 1.941 . S
Zn3 O10 1.965 . S
Zn4 O2 1.950 . S
Zn4 O11 1.938 1_455 S
Zn4 O12 1.906 . S
Zn4 O22 1.953 . S
Zn5 O2 1.945 . S
Zn5 O7 1.932 . S
Zn5 O14 1.977 . S
Zn5 O15 1.910 . S
O6 Zn3 1.933 . S
O6 C17 1.226 1_655 S
O7 Zn5 1.932 . S
O7 C17 1.307 . S
O8 Zn1 1.919 . S
O8 C19 1.253 . S
O9 Zn3 1.941 . S
O9 C19 1.283 . S
O10 Zn3 1.965 . S
O10 C18 1.303 . S
O11 Zn4 1.938 1_655 S
O11 C18 1.247 . S
O12 Zn4 1.906 . S
O12 C20 1.304 . S
O13 Zn1 1.924 1_455 S
O13 C21 1.311 . S
O14 Zn5 1.977 . S
O14 C20 1.272 . S
O15 Zn5 1.910 . S
O15 C21 1.231 . S
C16 O0 1.225 1_455 S
C16 O22 1.298 . S
C17 O6 1.226 1_455 S
C17 O7 1.307 . S
C18 O10 1.303 . S
C18 O11 1.247 . S
C19 O8 1.253 . S
C19 O9 1.283 . S
C20 O12 1.304 . S
C20 O14 1.272 . S
C21 O13 1.311 . S
C21 O15 1.231 . S
O22 Zn4 1.953 . S
O22 C16 1.298 . S
O23 Zn24 1.953 . S
O23 C39 1.225 . S
Zn24 O23 1.953 . S
Zn24 O25 1.949 . S
Zn24 O31 1.919 . S
Zn24 O36 1.924 1_545 S
O25 Zn24 1.949 . S
O25 Zn26 1.923 . S
O25 Zn27 1.950 1_545 S
O25 Zn28 1.945 1_545 S
Zn26 O25 1.923 . S
Zn26 O29 1.933 . S
Zn26 O32 1.941 . S
Zn26 O33 1.965 . S
Zn27 O25 1.950 1_565 S
Zn27 O34 1.938 1_565 S
Zn27 O35 1.906 . S
Zn27 O45 1.953 . S
Zn28 O25 1.945 1_565 S
Zn28 O30 1.932 . S
Zn28 O37 1.977 . S
Zn28 O38 1.910 . S
O29 Zn26 1.933 . S
O29 C40 1.226 . S
O30 Zn28 1.932 . S
O30 C40 1.307 1_565 S
O31 Zn24 1.919 . S
O31 C42 1.253 . S
O32 Zn26 1.941 . S
O32 C42 1.283 . S
O33 Zn26 1.965 . S
O33 C41 1.303 . S
O34 Zn27 1.938 1_545 S
O34 C41 1.247 . S
O35 Zn27 1.906 . S
O35 C43 1.304 . S
O36 Zn24 1.924 1_565 S
O36 C44 1.311 . S
O37 Zn28 1.977 . S
O37 C43 1.272 . S
O38 Zn28 1.910 . S
O38 C44 1.231 . S
C39 O23 1.225 . S
C39 O45 1.298 1_545 S
C40 O29 1.226 . S
C40 O30 1.307 1_545 S
C41 O33 1.303 . S
C41 O34 1.247 . S
C42 O31 1.253 . S
C42 O32 1.283 . S
C43 O35 1.304 . S
C43 O37 1.272 . S
C44 O36 1.311 . S
C44 O38 1.231 . S
O45 Zn27 1.953 . S
O45 C39 1.298 1_565 S
O46 Zn47 1.953 . S
O46 C62 1.225 . S
Zn47 O46 1.953 . S
Zn47 O48 1.949 . S
Zn47 O54 1.919 . S
Zn47 O59 1.924 . S
O48 Zn47 1.949 . S
O48 Zn49 1.923 . S
O48 Zn50 1.950 . S
O48 Zn51 1.945 . S
Zn49 O48 1.923 . S
Zn49 O52 1.933 . S
Zn49 O55 1.941 . S
Zn49 O56 1.965 . S
Zn50 O48 1.950 . S
Zn50 O57 1.938 . S
Zn50 O58 1.906 . S
Zn50 O68 1.953 . S
Zn51 O48 1.945 . S
Zn51 O53 1.932 . S
Zn51 O60 1.977 . S
Zn51 O61 1.910 . S
O52 Zn49 1.933 . S
O52 C63 1.226 . S
O53 Zn51 1.932 . S
O53 C63 1.307 . S
O54 Zn47 1.919 . S
O54 C65 1.253 . S
O55 Zn49 1.941 . S
O55 C65 1.283 . S
O56 Zn49 1.965 . S
O56 C64 1.303 . S
O57 Zn50 1.938 . S
O57 C64 1.247 . S
O58 Zn50 1.906 . S
O58 C66 1.304 . S
O59 Zn47 1.924 . S
O59 C67 1.311 . S
O60 Zn51 1.977 . S
O60 C66 1.272 . S
O61 Zn51 1.910 . S
O61 C67 1.231 . S
C62 O46 1.225 . S
C62 O68 1.298 . S
C63 O52 1.226 . S
C63 O53 1.307 . S
C64 O56 1.303 . S
C64 O57 1.247 . S
C65 O54 1.253 . S
C65 O55 1.283 . S
C66 O58 1.304 . S
C66 O60 1.272 . S
C67 O59 1.311 . S
C67 O61 1.231 . S
O68 Zn50 1.953 . S
O68 C62 1.298 . S
C69 C70 1.391 . S
C69 C73 1.391 . S
C69 H111 0.948 . S
C70 C69 1.391 . S
C70 C71 1.391 . S
C71 C70 1.391 . S
C71 H127 0.947 . S
C71 C128 1.392 . S
C72 C73 1.391 . S
C72 C76 1.397 . S
C72 C128 1.419 . S
C73 C69 1.391 . S
C73 C72 1.391 . S
C73 C74 1.399 . S
C74 C73 1.399 . S
C74 C77 1.396 . S
C74 C86 1.453 . S
C74 C87 1.684 . S
H75 C99 0.948 . S
C76 C72 1.397 . S
C76 C77 1.394 . S
C76 C95 1.723 . S
C77 C74 1.396 . S
C77 C76 1.394 . S
C77 C107 1.723 1_545 S
H78 C101 0.947 . S
H79 C102 0.948 . S
H80 C108 0.982 . S
H81 C109 0.979 . S
H82 C109 0.980 . S
H83 C109 0.983 . S
H84 C108 0.979 . S
H85 C108 0.977 . S
C86 C74 1.453 . S
C86 H115 0.982 . S
C86 H116 0.979 . S
C86 H117 0.977 1_545 S
C87 C74 1.684 . S
C87 H112 0.979 . S
C87 H113 0.980 . S
C87 H114 0.983 . S
C88 C89 1.391 . S
C88 C93 1.391 . S
C88 H118 0.948 . S
C89 C88 1.391 . S
C89 C90 1.391 1_545 S
C90 C89 1.391 1_565 S
C90 C91 1.392 . S
C90 H119 0.947 . S
C91 C90 1.392 . S
C91 C92 1.419 . S
C91 H120 0.948 . S
C92 C91 1.419 . S
C92 C93 1.391 1_565 S
C92 C96 1.397 1_565 S
C93 C88 1.391 . S
C93 C92 1.391 1_545 S
C93 C94 1.399 . S
C94 C93 1.399 . S
C94 C95 1.396 . S
C94 C97 1.453 . S
C94 C98 1.684 . S
C95 C76 1.723 . S
C95 C94 1.396 . S
C95 C96 1.405 . S
C96 C92 1.397 1_545 S
C96 C95 1.405 . S
C96 C106 1.713 1_545 S
C97 C94 1.453 . S
C97 H121 0.982 . S
C97 H122 0.979 . S
C97 H123 0.977 . S
C98 C94 1.684 . S
C98 H124 0.979 . S
C98 H125 0.980 . S
C98 H126 0.983 . S
C99 H75 0.948 . S
C99 C100 1.391 . S
C99 C104 1.391 . S
C100 C99 1.391 . S
C100 C101 1.391 . S
C101 H78 0.947 . S
C101 C100 1.391 . S
C101 C102 1.392 . S
C102 H79 0.948 . S
C102 C101 1.392 . S
C102 C103 1.419 . S
C103 C102 1.419 . S
C103 C104 1.391 . S
C103 C107 1.397 . S
C104 C99 1.391 . S
C104 C103 1.391 . S
C104 C105 1.399 . S
C105 C104 1.399 . S
C105 C106 1.396 . S
C105 C108 1.453 . S
C105 C109 1.684 . S
C106 C96 1.713 1_565 S
C106 C105 1.396 . S
C106 C107 1.394 . S
C107 C77 1.723 1_565 S
C107 C103 1.397 . S
C107 C106 1.394 . S
C108 H80 0.982 . S
C108 H84 0.979 . S
C108 H85 0.977 . S
C108 C105 1.453 . S
C109 H81 0.979 . S
C109 H82 0.980 . S
C109 H83 0.983 . S
C109 C105 1.684 . S
H110 C128 0.948 . S
H111 C69 0.948 . S
H112 C87 0.979 . S
H113 C87 0.980 . S
H114 C87 0.983 . S
H115 C86 0.982 . S
H116 C86 0.979 . S
H117 C86 0.977 1_565 S
H118 C88 0.948 . S
H119 C90 0.947 . S
H120 C91 0.948 . S
H121 C97 0.982 . S
H122 C97 0.979 . S
H123 C97 0.977 . S
H124 C98 0.979 . S
H125 C98 0.980 . S
H126 C98 0.983 . S
H127 C71 0.947 . S
C128 C71 1.392 . S
C128 C72 1.419 . S
C128 H110 0.948 . S
C129 C130 1.391 . S
C129 C133 1.391 . S
C129 H171 0.948 . S
C130 C129 1.391 . S
C130 C131 1.391 . S
C131 C130 1.391 . S
C131 H187 0.947 . S
C131 C188 1.392 . S
C132 C133 1.391 . S
C132 C136 1.397 . S
C132 C188 1.419 . S
C133 C129 1.391 . S
C133 C132 1.391 . S
C133 C134 1.399 . S
C134 C133 1.399 . S
C134 C137 1.396 . S
C134 C146 1.453 . S
C134 C147 1.684 . S
H135 C159 0.948 . S
C136 C132 1.397 . S
C136 C137 1.394 . S
C136 C155 1.723 . S
C137 C134 1.396 . S
C137 C136 1.394 . S
C137 C167 1.723 . S
H138 C161 0.947 . S
H139 C162 0.948 . S
H140 C168 0.982 . S
H141 C169 0.979 . S
H142 C169 0.980 . S
H143 C169 0.983 . S
H144 C168 0.979 . S
H145 C168 0.977 . S
C146 C134 1.453 . S
C146 H175 0.982 . S
C146 H176 0.979 . S
C146 H177 0.977 . S
C147 C134 1.684 . S
C147 H172 0.979 . S
C147 H173 0.980 . S
C147 H174 0.983 . S
C148 C149 1.391 . S
C148 C153 1.391 . S
C148 H178 0.948 . S
C149 C148 1.391 . S
C149 C150 1.391 . S
C150 C149 1.391 . S
C150 C151 1.392 . S
C150 H179 0.947 . S
C151 C150 1.392 . S
C151 C152 1.419 . S
C151 H180 0.948 . S
C152 C151 1.419 . S
C152 C153 1.391 . S
C152 C156 1.397 . S
C153 C148 1.391 . S
C153 C152 1.391 . S
C153 C154 1.399 . S
C154 C153 1.399 . S
C154 C155 1.396 . S
C154 C157 1.453 . S
C154 C158 1.684 . S
C155 C136 1.723 . S
C155 C154 1.396 . S
C155 C156 1.394 . S
C156 C152 1.397 . S
C156 C155 1.394 . S
C156 C166 1.723 . S
C157 C154 1.453 . S
C157 H181 0.982 . S
C157 H182 0.979 . S
C157 H183 0.977 . S
C158 C154 1.684 . S
C158 H184 0.979 . S
C158 H185 0.980 . S
C158 H186 0.983 . S
C159 H135 0.948 . S
C159 C160 1.391 . S
C159 C164 1.391 . S
C160 C159 1.391 . S
C160 C161 1.391 . S
C161 H138 0.947 . S
C161 C160 1.391 . S
C161 C162 1.392 . S
C162 H139 0.948 . S
C162 C161 1.392 . S
C162 C163 1.419 . S
C163 C162 1.419 . S
C163 C164 1.391 . S
C163 C167 1.397 . S
C164 C159 1.391 . S
C164 C163 1.391 . S
C164 C165 1.399 . S
C165 C164 1.399 . S
C165 C166 1.396 . S
C165 C168 1.453 . S
C165 C169 1.684 . S
C166 C156 1.723 . S
C166 C165 1.396 . S
C166 C167 1.394 . S
C167 C137 1.723 . S
C167 C163 1.397 . S
C167 C166 1.394 . S
C168 H140 0.982 . S
C168 H144 0.979 . S
C168 H145 0.977 . S
C168 C165 1.453 . S
C169 H141 0.979 . S
C169 H142 0.980 . S
C169 H143 0.983 . S
C169 C165 1.684 . S
H170 C188 0.948 . S
H171 C129 0.948 . S
H172 C147 0.979 . S
H173 C147 0.980 . S
H174 C147 0.983 . S
H175 C146 0.982 . S
H176 C146 0.979 . S
H177 C146 0.977 . S
H178 C148 0.948 . S
H179 C150 0.947 . S
H180 C151 0.948 . S
H181 C157 0.982 . S
H182 C157 0.979 . S
H183 C157 0.977 . S
H184 C158 0.979 . S
H185 C158 0.980 . S
H186 C158 0.983 . S
H187 C131 0.947 . S
C188 C131 1.392 . S
C188 C132 1.419 . S
C188 H170 0.948 . S
C189 C190 1.391 . S
C189 C193 1.391 . S
C189 H231 0.948 . S
C190 C189 1.391 . S
C190 C191 1.391 . S
C191 C190 1.391 . S
C191 H247 0.947 . S
C191 C248 1.392 . S
C192 C193 1.391 . S
C192 C196 1.397 . S
C192 C248 1.419 . S
C193 C189 1.391 . S
C193 C192 1.391 . S
C193 C194 1.399 . S
C194 C193 1.399 . S
C194 C197 1.396 . S
C194 C206 1.453 . S
C194 C207 1.684 . S
H195 C219 0.948 . S
C196 C192 1.397 . S
C196 C197 1.394 . S
C196 C215 1.723 . S
C197 C194 1.396 . S
C197 C196 1.394 . S
C197 C227 1.723 1_455 S
H198 C221 0.947 . S
H199 C222 0.948 . S
H200 C228 0.982 . S
H201 C229 0.979 . S
H202 C229 0.980 . S
H203 C229 0.983 . S
H204 C228 0.979 . S
H205 C228 0.977 . S
C206 C194 1.453 . S
C206 H235 0.982 . S
C206 H236 0.979 . S
C206 H237 0.977 1_455 S
C207 C194 1.684 . S
C207 H232 0.979 . S
C207 H233 0.980 . S
C207 H234 0.983 . S
C208 C209 1.391 1_556 S
C208 C213 1.391 . S
C208 H238 0.929 1_556 S
C209 C208 1.391 1_554 S
C209 C210 1.391 1_454 S
C210 C209 1.391 1_656 S
C210 C211 1.392 . S
C210 H239 0.947 1_556 S
C211 C210 1.392 . S
C211 C212 1.419 1_655 S
C211 H240 0.948 . S
C212 C211 1.419 1_455 S
C212 C213 1.391 . S
C212 C216 1.397 . S
C213 C208 1.391 . S
C213 C212 1.391 . S
C213 C214 1.399 . S
C214 C213 1.399 . S
C214 C215 1.396 . S
C214 C217 1.453 . S
C214 C218 1.684 . S
C215 C196 1.723 . S
C215 C214 1.396 . S
C215 C216 1.394 . S
C216 C212 1.397 . S
C216 C215 1.394 . S
C216 C226 1.723 1_455 S
C217 C214 1.453 . S
C217 H241 0.982 . S
C217 H242 0.979 . S
C217 H243 0.977 . S
C218 C214 1.684 . S
C218 H244 0.979 . S
C218 H245 0.980 . S
C218 H246 0.983 . S
C219 H195 0.948 . S
C219 C220 1.391 . S
C219 C224 1.391 . S
C220 C219 1.391 . S
C220 C221 1.391 . S
C221 H198 0.947 . S
C221 C220 1.391 . S
C221 C222 1.392 . S
C222 H199 0.948 . S
C222 C221 1.392 . S
C222 C223 1.419 . S
C223 C222 1.419 . S
C223 C224 1.391 . S
C223 C227 1.397 . S
C224 C219 1.391 . S
C224 C223 1.391 . S
C224 C225 1.399 . S
C225 C224 1.399 . S
C225 C226 1.396 . S
C225 C228 1.453 . S
C225 C229 1.684 . S
C226 C216 1.723 1_655 S
C226 C225 1.396 . S
C226 C227 1.394 . S
C227 C197 1.723 1_655 S
C227 C223 1.397 . S
C227 C226 1.394 . S
C228 H200 0.982 . S
C228 H204 0.979 . S
C228 H205 0.977 . S
C228 C225 1.453 . S
C229 H201 0.979 . S
C229 H202 0.980 . S
C229 H203 0.983 . S
C229 C225 1.684 . S
H230 C248 0.948 . S
H231 C189 0.948 . S
H232 C207 0.979 . S
H233 C207 0.980 . S
H234 C207 0.983 . S
H235 C206 0.982 . S
H236 C206 0.979 . S
H237 C206 0.977 1_655 S
H238 C208 0.929 1_554 S
H239 C210 0.947 1_554 S
H240 C211 0.948 . S
H241 C217 0.982 . S
H242 C217 0.979 . S
H243 C217 0.977 . S
H244 C218 0.979 . S
H245 C218 0.980 . S
H246 C218 0.983 . S
H247 C191 0.947 . S
C248 C191 1.392 . S
C248 C192 1.419 . S
C248 H230 0.948 . S
C249 C250 1.391 . S
C249 C253 1.391 . S
C249 H291 0.948 . S
C250 C249 1.391 . S
C250 C251 1.391 . S
C251 C250 1.391 . S
C251 H307 0.947 . S
C251 C308 1.392 . S
C252 C253 1.391 . S
C252 C256 1.397 . S
C252 C308 1.419 . S
C253 C249 1.391 . S
C253 C252 1.391 . S
C253 C254 1.399 . S
C254 C253 1.399 . S
C254 C257 1.396 . S
C254 C266 1.453 . S
C254 C267 1.684 . S
H255 C279 0.948 . S
C256 C252 1.397 . S
C256 C257 1.394 . S
C256 C275 1.723 . S
C257 C254 1.396 . S
C257 C256 1.394 . S
C257 C287 1.723 1_655 S
H258 C281 0.947 . S
H259 C282 0.948 . S
H260 C288 0.982 . S
H261 C289 0.979 . S
H262 C289 0.980 . S
H263 C289 0.983 . S
H264 C288 0.979 . S
H265 C288 0.977 . S
C266 C254 1.453 . S
C266 H295 0.982 1_655 S
C266 H296 0.979 . S
C266 H297 0.977 1_655 S
C267 C254 1.684 . S
C267 H292 0.979 . S
C267 H293 0.980 . S
C267 H294 0.983 . S
C268 C269 1.391 1_655 S
C268 C273 1.391 . S
C268 H298 0.948 . S
C269 C268 1.391 1_455 S
C269 C270 1.391 . S
C270 C269 1.391 . S
C270 C271 1.392 . S
C270 H299 0.947 . S
C271 C270 1.392 . S
C271 C272 1.419 . S
C271 H300 0.948 . S
C272 C271 1.419 . S
C272 C273 1.391 1_455 S
C272 C276 1.397 . S
C273 C268 1.391 . S
C273 C272 1.391 1_655 S
C273 C274 1.399 . S
C274 C273 1.399 . S
C274 C275 1.396 . S
C274 C277 1.453 . S
C274 C278 1.684 . S
C275 C256 1.723 . S
C275 C274 1.396 . S
C275 C276 1.394 1_655 S
C276 C272 1.397 . S
C276 C275 1.394 1_455 S
C276 C286 1.723 . S
C277 C274 1.453 . S
C277 H301 0.982 . S
C277 H302 0.979 . S
C277 H303 0.977 . S
C278 C274 1.684 . S
C278 H304 0.979 . S
C278 H305 0.980 . S
C278 H306 0.983 . S
C279 H255 0.948 . S
C279 C280 1.391 . S
C279 C284 1.391 . S
C280 C279 1.391 . S
C280 C281 1.391 . S
C281 H258 0.947 . S
C281 C280 1.391 . S
C281 C282 1.392 . S
C282 H259 0.948 . S
C282 C281 1.392 . S
C282 C283 1.419 . S
C283 C282 1.419 . S
C283 C284 1.391 . S
C283 C287 1.397 . S
C284 C279 1.391 . S
C284 C283 1.391 . S
C284 C285 1.399 . S
C285 C284 1.399 . S
C285 C286 1.396 . S
C285 C288 1.453 . S
C285 C289 1.684 . S
C286 C276 1.723 . S
C286 C285 1.396 . S
C286 C287 1.394 . S
C287 C257 1.723 1_455 S
C287 C283 1.397 . S
C287 C286 1.394 . S
C288 H260 0.982 . S
C288 H264 0.979 . S
C288 H265 0.977 . S
C288 C285 1.453 . S
C289 H261 0.979 . S
C289 H262 0.980 . S
C289 H263 0.983 . S
C289 C285 1.684 . S
H290 C308 0.948 . S
H291 C249 0.948 . S
H292 C267 0.979 . S
H293 C267 0.980 . S
H294 C267 0.983 . S
H295 C266 0.982 1_455 S
H296 C266 0.979 . S
H297 C266 0.977 1_455 S
H298 C268 0.948 . S
H299 C270 0.947 . S
H300 C271 0.948 . S
H301 C277 0.982 . S
H302 C277 0.979 . S
H303 C277 0.977 . S
H304 C278 0.979 . S
H305 C278 0.980 . S
H306 C278 0.983 . S
H307 C251 0.947 . S
C308 C251 1.392 . S
C308 C252 1.419 . S
C308 H290 0.948 . S
C309 C310 1.391 . S
C309 C313 1.391 . S
C309 H351 0.948 . S
C310 C309 1.391 . S
C310 C311 1.391 . S
C311 C310 1.391 . S
C311 H367 0.947 . S
C311 C368 1.392 . S
C312 C313 1.391 . S
C312 C316 1.397 . S
C312 C368 1.419 . S
C313 C309 1.391 . S
C313 C312 1.391 . S
C313 C314 1.399 . S
C314 C313 1.399 . S
C314 C317 1.396 . S
C314 C326 1.453 . S
C314 C327 1.684 . S
H315 C339 0.948 . S
C316 C312 1.397 . S
C316 C317 1.394 . S
C316 C335 1.723 . S
C317 C314 1.396 . S
C317 C316 1.394 . S
C317 C347 1.723 1_565 S
H318 C341 0.947 . S
H319 C342 0.948 . S
H320 C348 0.982 . S
H321 C349 0.979 . S
H322 C349 0.980 . S
H323 C349 0.983 . S
H324 C348 0.979 . S
H325 C348 0.977 . S
C326 C314 1.453 . S
C326 H355 0.982 1_565 S
C326 H356 0.979 . S
C326 H357 0.977 1_565 S
C327 C314 1.684 . S
C327 H352 0.979 . S
C327 H353 0.980 . S
C327 H354 0.983 . S
C328 C329 1.391 1_565 S
C328 C333 1.391 . S
C328 H358 0.948 . S
C329 C328 1.391 1_545 S
C329 C330 1.391 . S
C330 C329 1.391 . S
C330 C331 1.392 . S
C330 H359 0.947 . S
C331 C330 1.392 . S
C331 C332 1.419 . S
C331 H360 0.948 . S
C332 C331 1.419 . S
C332 C333 1.391 1_545 S
C332 C336 1.397 . S
C333 C328 1.391 . S
C333 C332 1.391 1_565 S
C333 C334 1.399 . S
C334 C333 1.399 . S
C334 C335 1.396 . S
C334 C337 1.453 . S
C334 C338 1.684 . S
C335 C316 1.723 . S
C335 C334 1.396 . S
C335 C336 1.394 1_565 S
C336 C332 1.397 . S
C336 C335 1.394 1_545 S
C336 C346 1.723 . S
C337 C334 1.453 . S
C337 H361 0.982 . S
C337 H362 0.979 . S
C337 H363 0.977 . S
C338 C334 1.684 . S
C338 H364 0.979 . S
C338 H365 0.980 . S
C338 H366 0.983 . S
C339 H315 0.948 . S
C339 C340 1.391 . S
C339 C344 1.391 . S
C340 C339 1.391 . S
C340 C341 1.391 . S
C341 H318 0.947 . S
C341 C340 1.391 . S
C341 C342 1.392 . S
C342 H319 0.948 . S
C342 C341 1.392 . S
C342 C343 1.419 . S
C343 C342 1.419 . S
C343 C344 1.391 . S
C343 C347 1.397 . S
C344 C339 1.391 . S
C344 C343 1.391 . S
C344 C345 1.399 . S
C345 C344 1.399 . S
C345 C346 1.396 . S
C345 C348 1.453 . S
C345 C349 1.684 . S
C346 C336 1.723 . S
C346 C345 1.396 . S
C346 C347 1.394 . S
C347 C317 1.723 1_545 S
C347 C343 1.397 . S
C347 C346 1.394 . S
C348 H320 0.982 . S
C348 H324 0.979 . S
C348 H325 0.977 . S
C348 C345 1.453 . S
C349 H321 0.979 . S
C349 H322 0.980 . S
C349 H323 0.983 . S
C349 C345 1.684 . S
H350 C368 0.948 . S
H351 C309 0.948 . S
H352 C327 0.979 . S
H353 C327 0.980 . S
H354 C327 0.983 . S
H355 C326 0.982 1_545 S
H356 C326 0.979 . S
H357 C326 0.977 1_545 S
H358 C328 0.948 . S
H359 C330 0.947 . S
H360 C331 0.948 . S
H361 C337 0.982 . S
H362 C337 0.979 . S
H363 C337 0.977 . S
H364 C338 0.979 . S
H365 C338 0.980 . S
H366 C338 0.983 . S
H367 C311 0.947 . S
C368 C311 1.392 . S
C368 C312 1.419 . S
C368 H350 0.948 . S
C369 C370 1.391 . S
C369 C373 1.391 . S
C369 H411 0.948 . S
C370 C369 1.391 . S
C370 C371 1.391 . S
C371 C370 1.391 . S
C371 H427 0.947 . S
C371 C428 1.392 . S
C372 C373 1.391 . S
C372 C376 1.397 . S
C372 C428 1.419 . S
C373 C369 1.391 . S
C373 C372 1.391 . S
C373 C374 1.399 . S
C374 C373 1.399 . S
C374 C377 1.396 . S
C374 C386 1.453 . S
C374 C387 1.684 . S
H375 C399 0.948 . S
C376 C372 1.397 . S
C376 C377 1.394 . S
C376 C395 1.723 . S
C377 C374 1.396 . S
C377 C376 1.394 . S
C377 C407 1.723 . S
H378 C401 0.947 . S
H379 C402 0.948 . S
H380 C408 0.982 . S
H381 C409 0.979 . S
H382 C409 0.980 . S
H383 C409 0.983 . S
H384 C408 0.979 . S
H385 C408 0.977 . S
C386 C374 1.453 . S
C386 H415 0.982 . S
C386 H416 0.979 . S
C386 H417 0.977 . S
C387 C374 1.684 . S
C387 H412 0.979 . S
C387 H413 0.980 . S
C387 H414 0.983 . S
C388 C389 1.391 1_554 S
C388 C393 1.391 . S
C388 H418 0.930 1_554 S
C389 C388 1.391 1_556 S
C389 C390 1.391 1_556 S
C390 C389 1.391 1_554 S
C390 C391 1.392 . S
C390 H419 0.947 1_554 S
C391 C390 1.392 . S
C391 C392 1.419 . S
C391 H420 0.948 . S
C392 C391 1.419 . S
C392 C393 1.391 . S
C392 C396 1.397 . S
C393 C388 1.391 . S
C393 C392 1.391 . S
C393 C394 1.399 . S
C394 C393 1.399 . S
C394 C395 1.396 . S
C394 C397 1.453 . S
C394 C398 1.684 . S
C395 C376 1.723 . S
C395 C394 1.396 . S
C395 C396 1.394 . S
C396 C392 1.397 . S
C396 C395 1.394 . S
C396 C406 1.723 . S
C397 C394 1.453 . S
C397 H421 0.982 . S
C397 H422 0.979 . S
C397 H423 0.977 . S
C398 C394 1.684 . S
C398 H424 0.979 . S
C398 H425 0.980 . S
C398 H426 0.983 . S
C399 H375 0.948 . S
C399 C400 1.391 . S
C399 C404 1.391 . S
C400 C399 1.391 . S
C400 C401 1.391 . S
C401 H378 0.947 . S
C401 C400 1.391 . S
C401 C402 1.392 . S
C402 H379 0.948 . S
C402 C401 1.392 . S
C402 C403 1.419 . S
C403 C402 1.419 . S
C403 C404 1.391 . S
C403 C407 1.397 . S
C404 C399 1.391 . S
C404 C403 1.391 . S
C404 C405 1.399 . S
C405 C404 1.399 . S
C405 C406 1.396 . S
C405 C408 1.453 . S
C405 C409 1.684 . S
C406 C396 1.723 . S
C406 C405 1.396 . S
C406 C407 1.394 . S
C407 C377 1.723 . S
C407 C403 1.397 . S
C407 C406 1.394 . S
C408 H380 0.982 . S
C408 H384 0.979 . S
C408 H385 0.977 . S
C408 C405 1.453 . S
C409 H381 0.979 . S
C409 H382 0.980 . S
C409 H383 0.983 . S
C409 C405 1.684 . S
H410 C428 0.948 . S
H411 C369 0.948 . S
H412 C387 0.979 . S
H413 C387 0.980 . S
H414 C387 0.983 . S
H415 C386 0.982 . S
H416 C386 0.979 . S
H417 C386 0.977 . S
H418 C388 0.930 1_556 S
H419 C390 0.947 1_556 S
H420 C391 0.948 . S
H421 C397 0.982 . S
H422 C397 0.979 . S
H423 C397 0.977 . S
H424 C398 0.979 . S
H425 C398 0.980 . S
H426 C398 0.983 . S
H427 C371 0.947 . S
C428 C371 1.392 . S
C428 C372 1.419 . S
C428 H410 0.948 . S
C429 C430 1.387 . S
C429 H433 0.950 . S
C429 C438 1.390 . S
C430 C429 1.387 . S
C430 C432 1.387 . S
H431 C438 0.950 . S
C432 C430 1.387 . S
C432 C434 1.390 . S
C432 H436 0.950 . S
H433 C429 0.950 . S
C434 C432 1.390 . S
C434 C435 1.387 . S
C434 H437 0.950 . S
C435 C434 1.387 . S
C435 C438 1.387 . S
H436 C432 0.950 . S
H437 C434 0.950 . S
C438 C429 1.390 . S
C438 H431 0.950 . S
C438 C435 1.387 . S
C439 C440 1.387 . S
C439 H443 0.950 . S
C439 C448 1.390 . S
C440 C439 1.387 . S
C440 C442 1.387 . S
H441 C448 0.950 . S
C442 C440 1.387 . S
C442 C444 1.390 . S
C442 H446 0.950 . S
H443 C439 0.950 . S
C444 C442 1.390 . S
C444 C445 1.387 . S
C444 H447 0.950 . S
C445 C444 1.387 . S
C445 C448 1.387 . S
H446 C442 0.950 . S
H447 C444 0.950 . S
C448 C439 1.390 . S
C448 H441 0.950 . S
C448 C445 1.387 . S
C449 C450 1.387 . S
C449 H453 0.950 . S
C449 C458 1.390 . S
C450 C449 1.387 . S
C450 C452 1.387 . S
H451 C458 0.950 . S
C452 C450 1.387 . S
C452 C454 1.390 . S
C452 H456 0.950 . S
H453 C449 0.950 . S
C454 C452 1.390 . S
C454 C455 1.387 . S
C454 H457 0.950 . S
C455 C454 1.387 . S
C455 C458 1.387 . S
H456 C452 0.950 . S
H457 C454 0.950 . S
C458 C449 1.390 . S
C458 H451 0.950 . S
C458 C455 1.387 . S
C459 C460 1.387 . S
C459 H463 0.950 . S
C459 C468 1.390 . S
C460 C459 1.387 . S
C460 C462 1.387 . S
H461 C468 0.950 . S
C462 C460 1.387 . S
C462 C464 1.390 . S
C462 H466 0.950 . S
H463 C459 0.950 . S
C464 C462 1.390 . S
C464 C465 1.387 . S
C464 H467 0.950 . S
C465 C464 1.387 . S
C465 C468 1.387 . S
H466 C462 0.950 . S
H467 C464 0.950 . S
C468 C459 1.390 . S
C468 H461 0.950 . S
C468 C465 1.387 . S
C469 C470 1.387 . S
C469 H473 0.950 . S
C469 C478 1.390 . S
C470 C469 1.387 . S
C470 C472 1.387 . S
H471 C478 0.950 . S
C472 C470 1.387 . S
C472 C474 1.390 . S
C472 H476 0.950 . S
H473 C469 0.950 . S
C474 C472 1.390 . S
C474 C475 1.387 . S
C474 H477 0.950 . S
C475 C474 1.387 . S
C475 C478 1.387 . S
H476 C472 0.950 . S
H477 C474 0.950 . S
C478 C469 1.390 . S
C478 H471 0.950 . S
C478 C475 1.387 . S
C479 C480 1.387 . S
C479 H483 0.950 . S
C479 C488 1.390 . S
C480 C479 1.387 . S
C480 C482 1.387 . S
H481 C488 0.950 . S
C482 C480 1.387 . S
C482 C484 1.390 . S
C482 H486 0.950 . S
H483 C479 0.950 . S
C484 C482 1.390 . S
C484 C485 1.387 . S
C484 H487 0.950 . S
C485 C484 1.387 . S
C485 C488 1.387 . S
H486 C482 0.950 . S
H487 C484 0.950 . S
C488 C479 1.390 . S
C488 H481 0.950 . S
C488 C485 1.387 . S
C489 C490 1.387 . S
C489 H493 0.950 . S
C489 C498 1.390 . S
C490 C489 1.387 . S
C490 C492 1.387 . S
H491 C498 0.950 . S
C492 C490 1.387 . S
C492 C494 1.390 . S
C492 H496 0.950 . S
H493 C489 0.950 . S
C494 C492 1.390 . S
C494 C495 1.387 . S
C494 H497 0.950 . S
C495 C494 1.387 . S
C495 C498 1.387 . S
H496 C492 0.950 . S
H497 C494 0.950 . S
C498 C489 1.390 . S
C498 H491 0.950 . S
C498 C495 1.387 . S
C499 C500 1.387 . S
C499 H503 0.950 . S
C499 C508 1.390 . S
C500 C499 1.387 . S
C500 C502 1.387 . S
H501 C508 0.950 . S
C502 C500 1.387 . S
C502 C504 1.390 . S
C502 H506 0.950 . S
H503 C499 0.950 . S
C504 C502 1.390 . S
C504 C505 1.387 . S
C504 H507 0.950 . S
C505 C504 1.387 . S
C505 C508 1.387 . S
H506 C502 0.950 . S
H507 C504 0.950 . S
C508 C499 1.390 . S
C508 H501 0.950 . S
C508 C505 1.387 . S
C509 C510 1.387 . S
C509 H513 0.950 . S
C509 C518 1.390 . S
C510 C509 1.387 . S
C510 C512 1.387 . S
H511 C518 0.950 . S
C512 C510 1.387 . S
C512 C514 1.390 . S
C512 H516 0.950 . S
H513 C509 0.950 . S
C514 C512 1.390 . S
C514 C515 1.387 . S
C514 H517 0.950 . S
C515 C514 1.387 . S
C515 C518 1.387 . S
H516 C512 0.950 . S
H517 C514 0.950 . S
C518 C509 1.390 . S
C518 H511 0.950 . S
C518 C515 1.387 . S
C519 C520 1.387 . S
C519 H523 0.950 . S
C519 C528 1.390 . S
C520 C519 1.387 . S
C520 C522 1.387 . S
H521 C528 0.950 . S
C522 C520 1.387 . S
C522 C524 1.390 . S
C522 H526 0.950 . S
H523 C519 0.950 . S
C524 C522 1.390 . S
C524 C525 1.387 . S
C524 H527 0.950 . S
C525 C524 1.387 . S
C525 C528 1.387 . S
H526 C522 0.950 . S
H527 C524 0.950 . S
C528 C519 1.390 . S
C528 H521 0.950 . S
C528 C525 1.387 . S
C529 C530 1.387 . S
C529 H533 0.950 . S
C529 C538 1.390 . S
C530 C529 1.387 . S
C530 C532 1.387 . S
H531 C538 0.950 . S
C532 C530 1.387 . S
C532 C534 1.390 . S
C532 H536 0.950 . S
H533 C529 0.950 . S
C534 C532 1.390 . S
C534 C535 1.387 . S
C534 H537 0.950 . S
C535 C534 1.387 . S
C535 C538 1.387 . S
H536 C532 0.950 . S
H537 C534 0.950 . S
C538 C529 1.390 . S
C538 H531 0.950 . S
C538 C535 1.387 . S
C539 C540 1.387 . S
C539 H543 0.950 . S
C539 C548 1.390 . S
C540 C539 1.387 . S
C540 C542 1.387 . S
H541 C548 0.950 . S
C542 C540 1.387 . S
C542 C544 1.390 . S
C542 H546 0.950 . S
H543 C539 0.950 . S
C544 C542 1.390 . S
C544 C545 1.387 . S
C544 H547 0.950 . S
C545 C544 1.387 . S
C545 C548 1.387 . S
H546 C542 0.950 . S
H547 C544 0.950 . S
C548 C539 1.390 . S
C548 H541 0.950 . S
C548 C545 1.387 . S
C549 C550 1.387 . S
C549 H553 0.950 . S
C549 C558 1.390 . S
C550 C549 1.387 . S
C550 C552 1.387 1_455 S
H551 C558 0.950 . S
C552 C550 1.387 1_655 S
C552 C554 1.390 . S
C552 H556 0.950 . S
H553 C549 0.950 . S
C554 C552 1.390 . S
C554 C555 1.387 1_655 S
C554 H557 0.950 . S
C555 C554 1.387 1_455 S
C555 C558 1.387 . S
H556 C552 0.950 . S
H557 C554 0.950 . S
C558 C549 1.390 . S
C558 H551 0.950 . S
C558 C555 1.387 . S
C559 C560 1.387 1_565 S
C559 H563 0.950 . S
C559 C568 1.390 . S
C560 C559 1.387 1_545 S
C560 C562 1.387 . S
H561 C568 0.950 . S
C562 C560 1.387 . S
C562 C564 1.390 . S
C562 H566 0.950 . S
H563 C559 0.950 . S
C564 C562 1.390 . S
C564 C565 1.387 . S
C564 H567 0.950 . S
C565 C564 1.387 . S
C565 C568 1.387 1_545 S
H566 C562 0.950 . S
H567 C564 0.950 . S
C568 C559 1.390 . S
C568 H561 0.950 . S
C568 C565 1.387 1_565 S
C569 C570 1.387 . S
C569 H573 0.950 . S
C569 C578 1.390 . S
C570 C569 1.387 . S
C570 C572 1.387 . S
H571 C578 0.950 . S
C572 C570 1.387 . S
C572 C574 1.390 . S
C572 H576 0.950 . S
H573 C569 0.950 . S
C574 C572 1.390 . S
C574 C575 1.387 . S
C574 H577 0.950 . S
C575 C574 1.387 . S
C575 C578 1.387 . S
H576 C572 0.950 . S
H577 C574 0.950 . S
C578 C569 1.390 . S
C578 H571 0.950 . S
C578 C575 1.387 . S
C579 C580 1.387 1_565 S
C579 H583 0.950 . S
C579 C588 1.390 . S
C580 C579 1.387 1_545 S
C580 C582 1.387 . S
H581 C588 0.950 . S
C582 C580 1.387 . S
C582 C584 1.390 . S
C582 H586 0.950 . S
H583 C579 0.950 . S
C584 C582 1.390 . S
C584 C585 1.394 . S
C584 H587 0.950 . S
C585 C584 1.394 . S
C585 C588 1.381 1_545 S
H586 C582 0.950 . S
H587 C584 0.950 . S
C588 C579 1.390 . S
C588 H581 0.950 . S
C588 C585 1.381 1_565 S
C589 C590 1.387 . S
C589 H593 0.950 . S
C589 C598 1.390 . S
C590 C589 1.387 . S
C590 C592 1.387 . S
H591 C598 0.950 . S
C592 C590 1.387 . S
C592 C594 1.390 . S
C592 H596 0.950 . S
H593 C589 0.950 . S
C594 C592 1.390 . S
C594 C595 1.387 . S
C594 H597 0.950 . S
C595 C594 1.387 . S
C595 C598 1.387 . S
H596 C592 0.950 . S
H597 C594 0.950 . S
C598 C589 1.390 . S
C598 H591 0.950 . S
C598 C595 1.387 . S
C599 C600 1.387 . S
C599 H603 0.950 . S
C599 C608 1.390 . S
C600 C599 1.387 . S
C600 C602 1.387 1_455 S
H601 C608 0.950 . S
C602 C600 1.387 1_655 S
C602 C604 1.390 . S
C602 H606 0.950 . S
H603 C599 0.950 . S
C604 C602 1.390 . S
C604 C605 1.387 1_655 S
C604 H607 0.950 . S
C605 C604 1.387 1_455 S
C605 C608 1.387 . S
H606 C602 0.950 . S
H607 C604 0.950 . S
C608 C599 1.390 . S
C608 H601 0.950 . S
C608 C605 1.387 . S
C430 C20 1.274 . S
C435 C400 1.319 . S
C440 C41 1.370 . S
C445 C250 1.311 . S
C450 C64 1.402 . S
C455 C310 1.347 . S
C460 C19 1.327 . S
C465 C370 1.353 . S
C475 C280 1.349 . S
C470 C44 1.350 . S
C485 C340 1.334 . S
C480 C67 1.330 . S
C490 C43 1.275 . S
C495 C130 1.281 . S
C500 C66 1.275 . S
C505 C220 1.321 . S
C510 C21 1.349 . S
C515 C100 1.349 . S
C525 C160 1.366 . S
C520 C42 1.313 . S
C535 C190 1.355 . S
C530 C65 1.328 . S
C540 C18 1.373 . S
C545 C70 1.316 . S
C555 C209 1.450 . S
C550 C17 1.471 . S
C560 C39 1.467 . S
C565 C89 1.443 . S
C570 C62 1.483 . S
C575 C149 1.455 . S
C585 C329 1.432 . S
C580 C40 1.453 . S
C595 C389 1.450 . S
C590 C63 1.471 . S
C600 C16 1.466 . S
C605 C269 1.443 . S
