# Generated by pormake.
# Topology eea, (3,6)-cn, num edge types: 1
# Building blocks:
#     Node 0, Type 0, BuildingBlock: BETDAH_clean_linker_0, # of connection points: 3
#     Node 1, Type 0, BuildingBlock: BETDAH_clean_linker_0, # of connection points: 3
#     Node 2, Type 0, BuildingBlock: BETDAH_clean_linker_0, # of connection points: 3
#     Node 3, Type 0, BuildingBlock: BETDAH_clean_linker_0, # of connection points: 3
#     Node 4, Type 0, BuildingBlock: BETDAH_clean_linker_0, # of connection points: 3
#     Node 5, Type 0, BuildingBlock: BETDAH_clean_linker_0, # of connection points: 3
#     Node 6, Type 0, BuildingBlock: BETDAH_clean_linker_0, # of connection points: 3
#     Node 7, Type 0, BuildingBlock: BETDAH_clean_linker_0, # of connection points: 3
#     Node 8, Type 0, BuildingBlock: BETDAH_clean_linker_0, # of connection points: 3
#     Node 9, Type 0, BuildingBlock: BETDAH_clean_linker_0, # of connection points: 3
#     Node 10, Type 0, BuildingBlock: BETDAH_clean_linker_0, # of connection points: 3
#     Node 11, Type 0, BuildingBlock: BETDAH_clean_linker_0, # of connection points: 3
#     Node 12, Type 0, BuildingBlock: BETDAH_clean_linker_0, # of connection points: 3
#     Node 13, Type 0, BuildingBlock: BETDAH_clean_linker_0, # of connection points: 3
#     Node 14, Type 0, BuildingBlock: BETDAH_clean_linker_0, # of connection points: 3
#     Node 15, Type 0, BuildingBlock: BETDAH_clean_linker_0, # of connection points: 3
#     Node 16, Type 0, BuildingBlock: BETDAH_clean_linker_0, # of connection points: 3
#     Node 17, Type 0, BuildingBlock: BETDAH_clean_linker_0, # of connection points: 3
#     Node 18, Type 1, BuildingBlock: NUHQIS_clean_sbu_0, # of connection points: 6
#     Node 19, Type 1, BuildingBlock: NUHQIS_clean_sbu_0, # of connection points: 6
#     Node 20, Type 1, BuildingBlock: NUHQIS_clean_sbu_0, # of connection points: 6
#     Node 21, Type 1, BuildingBlock: NUHQIS_clean_sbu_0, # of connection points: 6
#     Node 22, Type 1, BuildingBlock: NUHQIS_clean_sbu_0, # of connection points: 6
#     Node 23, Type 1, BuildingBlock: NUHQIS_clean_sbu_0, # of connection points: 6
#     Node 24, Type 1, BuildingBlock: NUHQIS_clean_sbu_0, # of connection points: 6
#     Node 25, Type 1, BuildingBlock: NUHQIS_clean_sbu_0, # of connection points: 6
#     Node 26, Type 1, BuildingBlock: NUHQIS_clean_sbu_0, # of connection points: 6
#     Edge 27, Type (0, 1), BuildingBlock: ZUJKAS_clean_linker_0, # of connection points: 2
#     Edge 28, Type (0, 1), BuildingBlock: ZUJKAS_clean_linker_0, # of connection points: 2
#     Edge 29, Type (0, 1), BuildingBlock: ZUJKAS_clean_linker_0, # of connection points: 2
#     Edge 30, Type (0, 1), BuildingBlock: ZUJKAS_clean_linker_0, # of connection points: 2
#     Edge 31, Type (0, 1), BuildingBlock: ZUJKAS_clean_linker_0, # of connection points: 2
#     Edge 32, Type (0, 1), BuildingBlock: ZUJKAS_clean_linker_0, # of connection points: 2
#     Edge 33, Type (0, 1), BuildingBlock: ZUJKAS_clean_linker_0, # of connection points: 2
#     Edge 34, Type (0, 1), BuildingBlock: ZUJKAS_clean_linker_0, # of connection points: 2
#     Edge 35, Type (0, 1), BuildingBlock: ZUJKAS_clean_linker_0, # of connection points: 2
#     Edge 36, Type (0, 1), BuildingBlock: ZUJKAS_clean_linker_0, # of connection points: 2
#     Edge 37, Type (0, 1), BuildingBlock: ZUJKAS_clean_linker_0, # of connection points: 2
#     Edge 38, Type (0, 1), BuildingBlock: ZUJKAS_clean_linker_0, # of connection points: 2
#     Edge 39, Type (0, 1), BuildingBlock: ZUJKAS_clean_linker_0, # of connection points: 2
#     Edge 40, Type (0, 1), BuildingBlock: ZUJKAS_clean_linker_0, # of connection points: 2
#     Edge 41, Type (0, 1), BuildingBlock: ZUJKAS_clean_linker_0, # of connection points: 2
#     Edge 42, Type (0, 1), BuildingBlock: ZUJKAS_clean_linker_0, # of connection points: 2
#     Edge 43, Type (0, 1), BuildingBlock: ZUJKAS_clean_linker_0, # of connection points: 2
#     Edge 44, Type (0, 1), BuildingBlock: ZUJKAS_clean_linker_0, # of connection points: 2
#     Edge 45, Type (0, 1), BuildingBlock: ZUJKAS_clean_linker_0, # of connection points: 2
#     Edge 46, Type (0, 1), BuildingBlock: ZUJKAS_clean_linker_0, # of connection points: 2
#     Edge 47, Type (0, 1), BuildingBlock: ZUJKAS_clean_linker_0, # of connection points: 2
#     Edge 48, Type (0, 1), BuildingBlock: ZUJKAS_clean_linker_0, # of connection points: 2
#     Edge 49, Type (0, 1), BuildingBlock: ZUJKAS_clean_linker_0, # of connection points: 2
#     Edge 50, Type (0, 1), BuildingBlock: ZUJKAS_clean_linker_0, # of connection points: 2
#     Edge 51, Type (0, 1), BuildingBlock: ZUJKAS_clean_linker_0, # of connection points: 2
#     Edge 52, Type (0, 1), BuildingBlock: ZUJKAS_clean_linker_0, # of connection points: 2
#     Edge 53, Type (0, 1), BuildingBlock: ZUJKAS_clean_linker_0, # of connection points: 2
#     Edge 54, Type (0, 1), BuildingBlock: ZUJKAS_clean_linker_0, # of connection points: 2
#     Edge 55, Type (0, 1), BuildingBlock: ZUJKAS_clean_linker_0, # of connection points: 2
#     Edge 56, Type (0, 1), BuildingBlock: ZUJKAS_clean_linker_0, # of connection points: 2
#     Edge 57, Type (0, 1), BuildingBlock: ZUJKAS_clean_linker_0, # of connection points: 2
#     Edge 58, Type (0, 1), BuildingBlock: ZUJKAS_clean_linker_0, # of connection points: 2
#     Edge 59, Type (0, 1), BuildingBlock: ZUJKAS_clean_linker_0, # of connection points: 2
#     Edge 60, Type (0, 1), BuildingBlock: ZUJKAS_clean_linker_0, # of connection points: 2
#     Edge 61, Type (0, 1), BuildingBlock: ZUJKAS_clean_linker_0, # of connection points: 2
#     Edge 62, Type (0, 1), BuildingBlock: ZUJKAS_clean_linker_0, # of connection points: 2
#     Edge 63, Type (0, 1), BuildingBlock: ZUJKAS_clean_linker_0, # of connection points: 2
#     Edge 64, Type (0, 1), BuildingBlock: ZUJKAS_clean_linker_0, # of connection points: 2
#     Edge 65, Type (0, 1), BuildingBlock: ZUJKAS_clean_linker_0, # of connection points: 2
#     Edge 66, Type (0, 1), BuildingBlock: ZUJKAS_clean_linker_0, # of connection points: 2
#     Edge 67, Type (0, 1), BuildingBlock: ZUJKAS_clean_linker_0, # of connection points: 2
#     Edge 68, Type (0, 1), BuildingBlock: ZUJKAS_clean_linker_0, # of connection points: 2
#     Edge 69, Type (0, 1), BuildingBlock: ZUJKAS_clean_linker_0, # of connection points: 2
#     Edge 70, Type (0, 1), BuildingBlock: ZUJKAS_clean_linker_0, # of connection points: 2
#     Edge 71, Type (0, 1), BuildingBlock: ZUJKAS_clean_linker_0, # of connection points: 2
#     Edge 72, Type (0, 1), BuildingBlock: ZUJKAS_clean_linker_0, # of connection points: 2
#     Edge 73, Type (0, 1), BuildingBlock: ZUJKAS_clean_linker_0, # of connection points: 2
#     Edge 74, Type (0, 1), BuildingBlock: ZUJKAS_clean_linker_0, # of connection points: 2
#     Edge 75, Type (0, 1), BuildingBlock: ZUJKAS_clean_linker_0, # of connection points: 2
#     Edge 76, Type (0, 1), BuildingBlock: ZUJKAS_clean_linker_0, # of connection points: 2
#     Edge 77, Type (0, 1), BuildingBlock: ZUJKAS_clean_linker_0, # of connection points: 2
#     Edge 78, Type (0, 1), BuildingBlock: ZUJKAS_clean_linker_0, # of connection points: 2
#     Edge 79, Type (0, 1), BuildingBlock: ZUJKAS_clean_linker_0, # of connection points: 2
#     Edge 80, Type (0, 1), BuildingBlock: ZUJKAS_clean_linker_0, # of connection points: 2
# Relax obj value: 0.056
# Max RMSD: 0.194
# Mean RMSD: 0.136
data_MOF--net-eea--node1-NUHQIS_clean_sbu_0--node2-BETDAH_clean_linker_0--edge1-ZUJKAS_clean_linker_0
_symmetry_space_group_name_H-M    P1
_symmetry_Int_Tables_number       1
_symmetry_cell_setting            triclinic
loop_
_symmetry_equiv_pos_as_xyz
'x, y, z'
_cell_length_a     71.493807
_cell_length_b     72.132551
_cell_length_c     84.6392
_cell_angle_alpha  93.252727
_cell_angle_beta   93.620606
_cell_angle_gamma 119.77228
loop_
_atom_site_label
_atom_site_type_symbol
_atom_site_fract_x
_atom_site_fract_y
_atom_site_fract_z
_atom_type_partial_charge
H0 H 0.25764 0.1002 0.43877 0.0
H1 H 0.27347 0.16383 0.42844 0.0
H2 H 0.25749 0.11499 0.39024 0.0
C3 C 0.25937 0.11141 0.43019 0.0
C4 C 0.2563 0.10472 0.41386 0.0
C5 C 0.26563 0.13268 0.43561 0.0
C6 C 0.2686 0.14738 0.42443 0.0
C7 C 0.26574 0.14088 0.40806 0.0
C8 C 0.25988 0.11976 0.40291 0.0
N9 N 0.26921 0.15533 0.39645 0.0
C10 C 0.26368 0.17122 0.39777 0.0
H11 H 0.9279 0.16886 0.43944 0.0
H12 H 0.86554 0.11234 0.42585 0.0
H13 H 0.91123 0.13826 0.39149 0.0
C14 C 0.9164 0.15634 0.43046 0.0
C15 C 0.92231 0.15538 0.41503 0.0
C16 C 0.89591 0.14092 0.43452 0.0
C17 C 0.88143 0.12415 0.42296 0.0
C18 C 0.88711 0.12326 0.40745 0.0
C19 C 0.9073 0.13895 0.40359 0.0
N20 N 0.87283 0.10727 0.39517 0.0
C21 C 0.85482 0.08784 0.39745 0.0
H22 H 0.85662 0.76719 0.45304 0.0
H23 H 0.9087 0.75644 0.44188 0.0
H24 H 0.87568 0.77206 0.40555 0.0
C25 C 0.86712 0.76665 0.44455 0.0
C26 C 0.8644 0.77077 0.42878 0.0
C27 C 0.88288 0.76126 0.44938 0.0
C28 C 0.8966 0.76071 0.43834 0.0
C29 C 0.89413 0.76498 0.42257 0.0
C30 C 0.87788 0.76958 0.41788 0.0
N31 N 0.90661 0.76341 0.41074 0.0
C32 C 0.92817 0.76869 0.41331 0.0
H33 H 0.08197 0.24005 0.59705 0.0
H34 H 0.14585 0.24965 0.6095 0.0
H35 H 0.10126 0.23384 0.64475 0.0
C36 C 0.09393 0.2403 0.60571 0.0
C37 C 0.08871 0.23555 0.62128 0.0
C38 C 0.11462 0.24572 0.60132 0.0
C39 C 0.12993 0.2457 0.61266 0.0
C40 C 0.12493 0.24127 0.62828 0.0
C41 C 0.10461 0.23664 0.63253 0.0
N42 N 0.14033 0.24247 0.64029 0.0
C43 C 0.15501 0.23556 0.63782 0.0
H44 H 0.7417 0.8348 0.61319 0.0
H45 H 0.73911 0.89135 0.62851 0.0
H46 H 0.75838 0.86034 0.66243 0.0
C47 C 0.74375 0.84671 0.62259 0.0
C48 C 0.75066 0.84553 0.63821 0.0
C49 C 0.73948 0.86312 0.61897 0.0
C50 C 0.7425 0.87873 0.63118 0.0
C51 C 0.74906 0.87746 0.64692 0.0
C52 C 0.75292 0.86084 0.65031 0.0
N53 N 0.75169 0.89236 0.65974 0.0
C54 C 0.75444 0.91255 0.65803 0.0
H55 H 0.15079 0.9075 0.59738 0.0
H56 H 0.10174 0.84456 0.60708 0.0
H57 H 0.13524 0.89479 0.6453 0.0
C58 C 0.1409 0.89677 0.60568 0.0
C59 C 0.14461 0.90407 0.62194 0.0
C60 C 0.12556 0.87535 0.60016 0.0
C61 C 0.11338 0.86119 0.6111 0.0
C62 C 0.11696 0.86837 0.62738 0.0
C63 C 0.13264 0.88959 0.63269 0.0
N64 N 0.10643 0.85416 0.63887 0.0
C65 C 0.08412 0.84088 0.63806 0.0
H66 H 0.93536 0.43772 0.76871 0.0
H67 H 0.9444 0.49887 0.75704 0.0
H68 H 0.92922 0.44902 0.71984 0.0
C69 C 0.9357 0.44825 0.75994 0.0
C70 C 0.93147 0.44076 0.74373 0.0
C71 C 0.94074 0.46932 0.76491 0.0
C72 C 0.94047 0.48258 0.75342 0.0
C73 C 0.93641 0.47518 0.73715 0.0
C74 C 0.93239 0.45455 0.73242 0.0
N75 N 0.93698 0.48834 0.72518 0.0
C76 C 0.92905 0.50236 0.7266 0.0
H77 H 0.59191 0.50805 0.77288 0.0
H78 H 0.53231 0.44816 0.76008 0.0
H79 H 0.57632 0.47708 0.72512 0.0
C80 C 0.58114 0.49471 0.76418 0.0
C81 C 0.58674 0.49453 0.74856 0.0
C82 C 0.56142 0.47816 0.76847 0.0
C83 C 0.54741 0.46112 0.75692 0.0
C84 C 0.55282 0.46094 0.74126 0.0
C85 C 0.57224 0.47768 0.73718 0.0
N86 N 0.53906 0.44437 0.72916 0.0
C87 C 0.52352 0.42378 0.73192 0.0
H88 H 0.52147 0.09619 0.78484 0.0
H89 H 0.58842 0.11302 0.78455 0.0
H90 H 0.56135 0.14012 0.75293 0.0
C91 C 0.53682 0.10447 0.77986 0.0
C92 C 0.53909 0.11793 0.76791 0.0
C93 C 0.55455 0.10271 0.78613 0.0
C94 C 0.57461 0.11413 0.77984 0.0
C95 C 0.57694 0.12759 0.7678 0.0
C96 C 0.5593 0.12959 0.76213 0.0
N97 N 0.59701 0.14046 0.76171 0.0
C98 C 0.61322 0.13531 0.76044 0.0
H99 H 0.74606 0.57532 0.92861 0.0
H100 H 0.80716 0.57848 0.94075 0.0
H101 H 0.7599 0.55881 0.97422 0.0
C102 C 0.75697 0.57354 0.93704 0.0
C103 C 0.75021 0.56623 0.95184 0.0
C104 C 0.77755 0.57813 0.93289 0.0
C105 C 0.79122 0.5748 0.94366 0.0
C106 C 0.78466 0.56768 0.95853 0.0
C107 C 0.76444 0.56375 0.96254 0.0
N108 N 0.79807 0.56496 0.97015 0.0
C109 C 0.81611 0.56321 0.9674 0.0
H110 H 0.41361 0.17149 0.94704 0.0
H111 H 0.40994 0.22773 0.96148 0.0
H112 H 0.42983 0.19797 0.99606 0.0
C113 C 0.41546 0.18351 0.95626 0.0
C114 C 0.42236 0.18273 0.97199 0.0
C115 C 0.41085 0.19962 0.95234 0.0
C116 C 0.41362 0.21537 0.96435 0.0
C117 C 0.42026 0.21453 0.98017 0.0
C118 C 0.42439 0.19818 0.98386 0.0
N119 N 0.42259 0.22952 0.99281 0.0
C120 C 0.42511 0.24959 0.99091 0.0
H121 H 0.81925 0.23396 0.93072 0.0
H122 H 0.76756 0.17222 0.94031 0.0
H123 H 0.80225 0.22239 0.97845 0.0
C124 C 0.80908 0.22342 0.93901 0.0
C125 C 0.81243 0.23101 0.95517 0.0
C126 C 0.79307 0.2022 0.93349 0.0
C127 C 0.77987 0.18863 0.94435 0.0
C128 C 0.78314 0.19611 0.96055 0.0
C129 C 0.79953 0.21705 0.96586 0.0
N130 N 0.77123 0.18259 0.97204 0.0
C131 C 0.74908 0.16816 0.96982 0.0
H132 H 0.59699 0.77101 0.10136 0.0
H133 H 0.61901 0.83684 0.09308 0.0
H134 H 0.59882 0.78873 0.0536 0.0
C135 C 0.60038 0.78318 0.09328 0.0
C136 C 0.59675 0.77724 0.07681 0.0
C137 C 0.60883 0.80471 0.09939 0.0
C138 C 0.61244 0.82014 0.0887 0.0
C139 C 0.6088 0.81428 0.07221 0.0
C140 C 0.60149 0.79303 0.06636 0.0
N141 N 0.6131 0.82968 0.06127 0.0
C142 C 0.60413 0.84287 0.06182 0.0
H143 H 0.25738 0.83702 0.10529 0.0
H144 H 0.19657 0.77826 0.0925 0.0
H145 H 0.23992 0.80711 0.05716 0.0
C146 C 0.24618 0.82395 0.09655 0.0
C147 C 0.25129 0.82396 0.08077 0.0
C148 C 0.22634 0.80767 0.10094 0.0
C149 C 0.21178 0.79101 0.08932 0.0
C150 C 0.21673 0.791 0.07351 0.0
C151 C 0.23625 0.80752 0.06936 0.0
N152 N 0.20233 0.77501 0.06129 0.0
C153 C 0.18663 0.75432 0.0637 0.0
H154 H 0.18639 0.43231 0.1175 0.0
H155 H 0.237 0.41832 0.10844 0.0
H156 H 0.20847 0.4369 0.07102 0.0
C157 C 0.19696 0.43101 0.10944 0.0
C158 C 0.19573 0.43574 0.09367 0.0
C159 C 0.21148 0.42434 0.11492 0.0
C160 C 0.22599 0.4238 0.1046 0.0
C161 C 0.22499 0.42864 0.08882 0.0
C162 C 0.20969 0.43419 0.08341 0.0
N163 N 0.23724 0.42548 0.07756 0.0
C164 C 0.2596 0.43437 0.07966 0.0
H165 H 0.41239 0.90782 0.26208 0.0
H166 H 0.4735 0.9102 0.27199 0.0
H167 H 0.42836 0.89128 0.30703 0.0
C168 C 0.42361 0.90592 0.2701 0.0
C169 C 0.41763 0.89872 0.28507 0.0
C170 C 0.44379 0.91024 0.26525 0.0
C171 C 0.45785 0.90674 0.27547 0.0
C172 C 0.4521 0.89978 0.29051 0.0
C173 C 0.43227 0.89614 0.29523 0.0
N174 N 0.46602 0.89696 0.30158 0.0
C175 C 0.48321 0.8942 0.29795 0.0
H176 H 0.07882 0.50144 0.27908 0.0
H177 H 0.07045 0.55547 0.29125 0.0
H178 H 0.08983 0.52785 0.32788 0.0
C179 C 0.07923 0.51313 0.28794 0.0
C180 C 0.08512 0.51278 0.30402 0.0
C181 C 0.0738 0.52839 0.28319 0.0
C182 C 0.07477 0.54375 0.29474 0.0
C183 C 0.08035 0.54331 0.31089 0.0
C184 C 0.08522 0.52774 0.31542 0.0
N185 N 0.08088 0.55805 0.32296 0.0
C186 C 0.08498 0.57852 0.32047 0.0
H187 H 0.48818 0.56954 0.26823 0.0
H188 H 0.44182 0.5042 0.27523 0.0
H189 H 0.47015 0.55259 0.31502 0.0
C190 C 0.47843 0.55767 0.27595 0.0
C191 C 0.48045 0.56381 0.29228 0.0
C192 C 0.4648 0.53615 0.26964 0.0
C193 C 0.45206 0.52093 0.27978 0.0
C194 C 0.45396 0.52697 0.29614 0.0
C195 C 0.46839 0.54823 0.30232 0.0
N196 N 0.44377 0.51142 0.30686 0.0
C197 C 0.42144 0.49926 0.30689 0.0
Tb198 Tb 0.49024 0.99025 1.00408 0.0
Eu199 Eu 0.50574 0.01268 0.04143 0.0
C200 C 0.5084 0.97178 0.02992 0.0
C201 C 0.45783 0.97305 0.03008 0.0
C202 C 0.48601 0.98501 0.96007 0.0
C203 C 0.48698 0.98131 0.93147 0.0
C204 C 0.48075 0.97203 0.9457 0.0
C205 C 0.49737 0.00742 0.96006 0.0
C206 C 0.50365 0.01673 0.94586 0.0
C207 C 0.49869 0.00379 0.93139 0.0
C208 C 0.48084 0.97515 0.97512 0.0
O209 O 0.47806 0.01243 1.00693 0.0
O210 O 0.50172 0.03637 0.02761 0.0
O211 O 0.53573 0.02555 0.02843 0.0
O212 O 0.51946 0.02087 1.00316 0.0
C213 C 0.4872 0.03125 0.01539 0.0
O214 O 0.5011 0.02782 0.06278 0.0
O215 O 0.52807 0.02203 0.06298 0.0
O216 O 0.50217 0.98003 0.04117 0.0
O217 O 0.50911 0.97749 0.01541 0.0
O218 O 0.46501 0.96781 0.01762 0.0
O219 O 0.46951 0.9915 0.03884 0.0
C220 C 0.53684 0.02952 0.01344 0.0
O221 O 0.49738 0.97727 0.98409 0.0
O222 O 0.46816 0.97901 0.98339 0.0
C223 C 0.51126 0.01814 0.0866 0.0
C224 C 0.50089 -1e-05 0.11575 0.0
C225 C 0.51118 0.02239 0.11527 0.0
C226 C 0.51634 0.03136 0.10083 0.0
C227 C 0.50085 0.99579 0.08695 0.0
C228 C 0.49577 0.9868 0.10139 0.0
C229 C 0.51678 0.02772 0.07146 0.0
H230 H 0.48311 0.97087 0.9206 0.0
H231 H 0.47215 0.9547 0.94551 0.0
H232 H 0.50161 0.01771 0.97108 0.0
H233 H 0.51237 0.03407 0.94622 0.0
H234 H 0.51555 0.03302 0.12611 0.0
H235 H 0.52436 0.04865 0.10077 0.0
H236 H 0.49666 0.9853 0.07605 0.0
H237 H 0.48759 0.9695 0.10129 0.0
Tb238 Tb 0.00942 0.49248 1.00487 0.0
Eu239 Eu 0.99032 0.48757 0.03985 0.0
C240 C 0.02841 0.53144 0.03113 0.0
C241 C 0.03121 0.48154 0.03373 0.0
C242 C 0.01737 0.50056 0.962 0.0
C243 C 0.02777 0.51153 0.93588 0.0
C244 C 0.03311 0.50848 0.95131 0.0
C245 C 0.99636 0.49644 0.95727 0.0
C246 C 0.99097 0.49941 0.94181 0.0
C247 C 0.00652 0.5066 0.93082 0.0
C248 C 0.0228 0.49549 0.97762 0.0
O249 O 0.99119 0.45849 1.00843 0.0
O250 O 0.96599 0.45935 0.0231 0.0
O251 O 0.97513 0.50277 0.02531 0.0
O252 O 0.97941 0.49298 1.00004 0.0
C253 C 0.97173 0.44894 0.01319 0.0
O254 O 0.97637 0.4685 0.05955 0.0
O255 O 0.9814 0.50076 0.05986 0.0
O256 O 0.02232 0.51812 0.04212 0.0
O257 O 0.02052 0.52471 0.01615 0.0
O258 O 0.034 0.4917 0.02089 0.0
O259 O 0.01382 0.47531 0.04125 0.0
C260 C 0.9705 0.50041 1.00979 0.0
O261 O 0.03149 0.51108 0.98906 0.0
O262 O 0.00803 0.47773 0.98245 0.0
C263 C 0.98484 0.48865 0.08453 0.0
C264 C 0.00129 0.49797 0.1169 0.0
C265 C 0.97897 0.48451 0.11233 0.0
C266 C 0.97083 0.47992 0.09628 0.0
C267 C 0.00715 0.50192 0.08895 0.0
C268 C 0.01532 0.5066 0.10503 0.0
C269 C 0.97587 0.48409 0.06777 0.0
H270 H 0.04025 0.51748 0.92784 0.0
H271 H 0.04943 0.51185 0.95479 0.0
H272 H 0.98397 0.49032 0.96538 0.0
H273 H 0.97442 0.49527 0.9383 0.0
H274 H 0.96771 0.47783 0.12118 0.0
H275 H 0.95356 0.46969 0.09304 0.0
H276 H 0.01821 0.50873 0.07999 0.0
H277 H 0.03261 0.51681 0.10816 0.0
Tb278 Tb 0.51855 0.5148 0.03626 0.0
Eu279 Eu 0.4992 0.51532 0.99986 0.0
C280 C 0.49564 0.47348 0.01238 0.0
C281 C 0.54773 0.52386 1.008 0.0
C282 C 0.52308 0.51132 0.08 0.0
C283 C 0.52504 0.50363 0.10743 0.0
C284 C 0.53283 0.50607 0.09248 0.0
C285 C 0.50507 0.51359 0.08253 0.0
C286 C 0.49724 0.51113 0.09745 0.0
C287 C 0.50731 0.50641 0.11016 0.0
C288 C 0.53245 0.51549 0.06469 0.0
O289 O 0.53305 0.54775 0.03024 0.0
O290 O 0.50424 0.54452 0.0147 0.0
O291 O 0.47037 0.50146 0.01399 0.0
O292 O 0.48795 0.51362 0.03937 0.0
C293 C 0.52185 0.5562 0.02446 0.0
O294 O 0.50077 0.53263 0.9792 0.0
O295 O 0.47639 0.49902 0.97862 0.0
O296 O 0.50163 0.48557 1.00062 0.0
O297 O 0.49613 0.48167 0.02677 0.0
O298 O 0.54228 0.51472 0.02129 0.0
O299 O 0.53513 0.52895 0.99962 0.0
C300 C 0.47018 0.50504 0.02939 0.0
O301 O 0.52543 0.49907 0.05406 0.0
O302 O 0.53381 0.53212 0.05841 0.0
C303 C 0.49157 0.51126 0.95482 0.0
C304 C 0.50285 0.50353 0.92477 0.0
C305 C 0.48802 0.51089 0.92607 0.0
C306 C 0.48244 0.51471 0.94097 0.0
C307 C 0.50639 0.50396 0.95365 0.0
C308 C 0.51196 0.50011 0.93876 0.0
C309 C 0.48581 0.51551 0.97044 0.0
H310 H 0.53299 0.49969 0.11689 0.0
H311 H 0.54673 0.50422 0.09076 0.0
H312 H 0.49745 0.51784 0.07308 0.0
H313 H 0.48375 0.51366 0.09915 0.0
H314 H 0.48095 0.51402 0.91559 0.0
H315 H 0.47108 0.52045 0.94168 0.0
H316 H 0.51361 0.50123 0.96426 0.0
H317 H 0.52322 0.49423 0.93821 0.0
Tb318 Tb 0.16132 0.32749 0.34012 0.0
Eu319 Eu 0.1747 0.34929 0.37755 0.0
C320 C 0.17871 0.30909 0.36643 0.0
C321 C 0.12761 0.30927 0.36514 0.0
C322 C 0.15846 0.32218 0.29603 0.0
C323 C 0.16288 0.31866 0.268 0.0
C324 C 0.15672 0.30948 0.28225 0.0
C325 C 0.16629 0.34421 0.29538 0.0
C326 C 0.17238 0.3534 0.2811 0.0
C327 C 0.17091 0.34076 0.26726 0.0
C328 C 0.1534 0.31254 0.31117 0.0
O329 O 0.14825 0.34899 0.3424 0.0
O330 O 0.17053 0.3728 0.36366 0.0
O331 O 0.20537 0.36316 0.36533 0.0
O332 O 0.19008 0.35867 0.33976 0.0
C333 C 0.1565 0.36758 0.35108 0.0
O334 O 0.16862 0.36344 0.39872 0.0
O335 O 0.19635 0.35882 0.3995 0.0
O336 O 0.1716 0.31683 0.37738 0.0
O337 O 0.18034 0.31531 0.35206 0.0
O338 O 0.13577 0.3044 0.35314 0.0
O339 O 0.13852 0.32778 0.37393 0.0
C340 C 0.20704 0.36756 0.35044 0.0
O341 O 0.17009 0.31558 0.32046 0.0
O342 O 0.13991 0.31556 0.31907 0.0
C343 C 0.17832 0.35348 0.42256 0.0
C344 C 0.16758 0.33388 0.45113 0.0
C345 C 0.17969 0.3564 0.45139 0.0
C346 C 0.18501 0.36609 0.43722 0.0
C347 C 0.16612 0.33105 0.42218 0.0
C348 C 0.16081 0.32133 0.43633 0.0
C349 C 0.18428 0.36371 0.40772 0.0
H350 H 0.16127 0.30842 0.25752 0.0
H351 H 0.15082 0.29248 0.28256 0.0
H352 H 0.168 0.35433 0.30597 0.0
H353 H 0.17869 0.37049 0.28097 0.0
H354 H 0.18488 0.36657 0.46253 0.0
H355 H 0.19437 0.38343 0.43772 0.0
H356 H 0.16085 0.32105 0.41094 0.0
H357 H 0.15171 0.30398 0.43568 0.0
Tb358 Tb 0.67662 0.82545 0.34123 0.0
Eu359 Eu 0.65769 0.82209 0.37606 0.0
C360 C 0.69612 0.86514 0.36688 0.0
C361 C 0.69801 0.81493 0.37045 0.0
C362 C 0.68255 0.83087 0.29812 0.0
C363 C 0.69108 0.84313 0.272 0.0
C364 C 0.69779 0.84108 0.28736 0.0
C365 C 0.66052 0.82319 0.29348 0.0
C366 C 0.65378 0.82507 0.27808 0.0
C367 C 0.66897 0.83485 0.26713 0.0
C368 C 0.68978 0.82785 0.31395 0.0
O369 O 0.65751 0.79161 0.34511 0.0
O370 O 0.63281 0.79371 0.35967 0.0
O371 O 0.64309 0.83732 0.36087 0.0
O372 O 0.64644 0.82546 0.33602 0.0
C373 C 0.6381 0.7827 0.34996 0.0
O374 O 0.64352 0.80389 0.39609 0.0
O375 O 0.64915 0.8363 0.39567 0.0
O376 O 0.6901 0.85218 0.3781 0.0
O377 O 0.68788 0.85795 0.35201 0.0
O378 O 0.70112 0.82505 0.35757 0.0
O379 O 0.68052 0.809 0.3778 0.0
C380 C 0.63806 0.83393 0.34536 0.0
O381 O 0.69731 0.84412 0.32475 0.0
O382 O 0.67684 0.80993 0.31959 0.0
C383 C 0.6523 0.8249 0.4207 0.0
C384 C 0.6688 0.83506 0.45307 0.0
C385 C 0.64639 0.8222 0.44858 0.0
C386 C 0.63823 0.81719 0.43253 0.0
C387 C 0.6747 0.83761 0.42505 0.0
C388 C 0.68289 0.8427 0.44112 0.0
C389 C 0.64333 0.8199 0.40393 0.0
H390 H 0.70313 0.85057 0.26378 0.0
H391 H 0.71486 0.84715 0.29076 0.0
H392 H 0.64849 0.81543 0.30165 0.0
H393 H 0.63666 0.81876 0.2747 0.0
H394 H 0.63509 0.81629 0.45748 0.0
H395 H 0.62089 0.80742 0.42935 0.0
H396 H 0.6858 0.84364 0.41602 0.0
H397 H 0.70024 0.85244 0.4442 0.0
Tb398 Tb 0.18401 0.84147 0.36966 0.0
Eu399 Eu 0.1673 0.84597 0.33344 0.0
C400 C 0.16419 0.80308 0.34282 0.0
C401 C 0.21526 0.85417 0.34278 0.0
C402 C 0.18879 0.84041 0.41348 0.0
C403 C 0.1827 0.83022 0.44035 0.0
C404 C 0.18971 0.82835 0.4256 0.0
C405 C 0.18095 0.85457 0.41633 0.0
C406 C 0.1741 0.85658 0.43114 0.0
C407 C 0.1747 0.84426 0.44326 0.0
C408 C 0.19452 0.83683 0.39766 0.0
O409 O 0.1962 0.87559 0.36836 0.0
O410 O 0.17194 0.87469 0.34871 0.0
O411 O 0.13788 0.83073 0.3471 0.0
O412 O 0.15501 0.84334 0.37246 0.0
C413 C 0.18684 0.8848 0.36083 0.0
O414 O 0.17067 0.86465 0.31331 0.0
O415 O 0.14488 0.83151 0.31181 0.0
O416 O 0.17046 0.81652 0.33195 0.0
O417 O 0.16341 0.80943 0.35746 0.0
O418 O 0.20833 0.84254 0.3548 0.0
O419 O 0.20353 0.86082 0.33508 0.0
C420 C 0.13736 0.83456 0.36242 0.0
O421 O 0.17864 0.82168 0.3881 0.0
O422 O 0.20603 0.85377 0.39039 0.0
C423 C 0.16112 0.84423 0.28842 0.0
C424 C 0.17225 0.83673 0.25824 0.0
C425 C 0.15863 0.8455 0.25979 0.0
C426 C 0.15313 0.84921 0.27475 0.0
C427 C 0.17474 0.83554 0.287 0.0
C428 C 0.18024 0.8318 0.27205 0.0
C429 C 0.15535 0.8483 0.30411 0.0
H430 H 0.18359 0.8207 0.44951 0.0
H431 H 0.19555 0.81722 0.42357 0.0
H432 H 0.17981 0.86379 0.40702 0.0
H433 H 0.16782 0.86737 0.43297 0.0
H434 H 0.15245 0.8498 0.24947 0.0
H435 H 0.14269 0.85604 0.27566 0.0
H436 H 0.18108 0.83161 0.29746 0.0
H437 H 0.19054 0.8248 0.27129 0.0
Tb438 Tb 0.82687 0.66013 0.6729 0.0
Eu439 Eu 0.84062 0.68271 0.71018 0.0
C440 C 0.8459 0.64262 0.69848 0.0
C441 C 0.7947 0.64139 0.69919 0.0
C442 C 0.82483 0.65557 0.62879 0.0
C443 C 0.84094 0.65687 0.60408 0.0
C444 C 0.83414 0.6476 0.61823 0.0
C445 C 0.82239 0.673 0.62491 0.0
C446 C 0.82902 0.68216 0.6107 0.0
C447 C 0.83845 0.67427 0.60009 0.0
C448 C 0.81816 0.64577 0.64385 0.0
O449 O 0.82871 0.69106 0.67248 0.0
O450 O 0.82046 0.69459 0.69773 0.0
O451 O 0.86592 0.70635 0.69595 0.0
O452 O 0.8618 0.68169 0.67565 0.0
C453 C 0.82128 0.6992 0.68293 0.0
O454 O 0.83194 0.69388 0.73148 0.0
O455 O 0.86335 0.69628 0.73175 0.0
O456 O 0.85482 0.66127 0.70706 0.0
O457 O 0.83096 0.63743 0.6865 0.0
O458 O 0.79693 0.64635 0.68443 0.0
O459 O 0.8112 0.65023 0.71023 0.0
C460 C 0.87303 0.70082 0.68361 0.0
O461 O 0.83327 0.6457 0.65325 0.0
O462 O 0.806 0.65087 0.65177 0.0
C463 C 0.84616 0.68839 0.75539 0.0
C464 C 0.83774 0.66991 0.78452 0.0
C465 C 0.84605 0.69211 0.78408 0.0
C466 C 0.85021 0.70125 0.76964 0.0
C467 C 0.83807 0.66628 0.75573 0.0
C468 C 0.83394 0.65712 0.77017 0.0
C469 C 0.84952 0.69798 0.74019 0.0
H470 H 0.84843 0.65054 0.59638 0.0
H471 H 0.8363 0.63426 0.621 0.0
H472 H 0.81533 0.6796 0.63281 0.0
H473 H 0.82649 0.69529 0.60796 0.0
H474 H 0.84943 0.70247 0.79492 0.0
H475 H 0.85642 0.71834 0.76959 0.0
H476 H 0.83467 0.65607 0.74479 0.0
H477 H 0.82731 0.63996 0.77004 0.0
Tb478 Tb 0.34766 0.16419 0.67619 0.0
Eu479 Eu 0.32634 0.15652 0.71034 0.0
C480 C 0.36696 0.20126 0.70398 0.0
C481 C 0.36725 0.15137 0.70514 0.0
C482 C 0.35363 0.16858 0.6332 0.0
C483 C 0.35837 0.17203 0.60518 0.0
C484 C 0.36679 0.17302 0.62077 0.0
C485 C 0.33192 0.16315 0.62993 0.0
C486 C 0.32346 0.16213 0.61434 0.0
C487 C 0.3366 0.16657 0.60178 0.0
C488 C 0.36271 0.1699 0.64954 0.0
O489 O 0.31604 0.13526 0.67147 0.0
O490 O 0.31299 0.12421 0.69646 0.0
O491 O 0.30232 0.15776 0.6926 0.0
O492 O 0.32638 0.17775 0.67536 0.0
C493 C 0.30757 0.12009 0.68103 0.0
O494 O 0.31611 0.13792 0.7307 0.0
O495 O 0.31163 0.16534 0.729 0.0
O496 O 0.34847 0.19207 0.7102 0.0
O497 O 0.37136 0.19083 0.69296 0.0
O498 O 0.36127 0.14797 0.68974 0.0
O499 O 0.35887 0.15915 0.71505 0.0
C500 C 0.30747 0.17016 0.68096 0.0
O501 O 0.36411 0.18522 0.65935 0.0
O502 O 0.35498 0.15182 0.65592 0.0
C503 C 0.31905 0.15781 0.75463 0.0
C504 C 0.3352 0.16998 0.78703 0.0
C505 C 0.31297 0.15588 0.7825 0.0
C506 C 0.30499 0.14985 0.76644 0.0
C507 C 0.3412 0.17208 0.75901 0.0
C508 C 0.34921 0.17816 0.77509 0.0
C509 C 0.31051 0.15065 0.73783 0.0
H510 H 0.36882 0.17522 0.59576 0.0
H511 H 0.38358 0.17721 0.62311 0.0
H512 H 0.32156 0.15978 0.63945 0.0
H513 H 0.30671 0.15811 0.61216 0.0
H514 H 0.3017 0.14953 0.79139 0.0
H515 H 0.28784 0.13884 0.76323 0.0
H516 H 0.35229 0.1783 0.74999 0.0
H517 H 0.36644 0.18887 0.77818 0.0
Tb518 Tb 0.85383 0.17871 0.70282 0.0
Eu519 Eu 0.83507 0.17969 0.66631 0.0
C520 C 0.83003 0.13748 0.67891 0.0
C521 C 0.88313 0.18674 0.67472 0.0
C522 C 0.85594 0.17416 0.74632 0.0
C523 C 0.85795 0.17065 0.77467 0.0
C524 C 0.86689 0.17288 0.76017 0.0
C525 C 0.83568 0.17263 0.74705 0.0
C526 C 0.8268 0.17058 0.76155 0.0
C527 C 0.83797 0.16984 0.77557 0.0
C528 C 0.86633 0.17844 0.73144 0.0
O529 O 0.87003 0.21161 0.69667 0.0
O530 O 0.84185 0.20967 0.68109 0.0
O531 O 0.80623 0.16631 0.68051 0.0
O532 O 0.82446 0.1801 0.70549 0.0
C533 C 0.85969 0.22084 0.69074 0.0
O534 O 0.83722 0.19727 0.64569 0.0
O535 O 0.81218 0.1639 0.64505 0.0
O536 O 0.8366 0.14948 0.66715 0.0
O537 O 0.83043 0.14588 0.6932 0.0
O538 O 0.8776 0.1781 0.68818 0.0
O539 O 0.87072 0.19177 0.66601 0.0
C540 C 0.80647 0.17105 0.69578 0.0
O541 O 0.85936 0.1622 0.72064 0.0
O542 O 0.86855 0.19544 0.72524 0.0
C543 C 0.82719 0.1761 0.62108 0.0
C544 C 0.83783 0.16883 0.59065 0.0
C545 C 0.82735 0.18078 0.59288 0.0
C546 C 0.82206 0.18435 0.60795 0.0
C547 C 0.83771 0.16422 0.61897 0.0
C548 C 0.8429 0.16054 0.60387 0.0
C549 C 0.82192 0.18039 0.63692 0.0
H550 H 0.86704 0.17032 0.78528 0.0
H551 H 0.88259 0.17411 0.75984 0.0
H552 H 0.82693 0.17348 0.73647 0.0
H553 H 0.81127 0.16974 0.76181 0.0
H554 H 0.82301 0.18719 0.58292 0.0
H555 H 0.81399 0.1936 0.60937 0.0
H556 H 0.84199 0.15789 0.62901 0.0
H557 H 0.85121 0.15151 0.6026 0.0
H558 H 0.25856 0.84493 0.05388 0.0
H559 H 0.29341 0.87011 0.04498 0.0
H560 H 0.32652 0.86695 0.08823 0.0
H561 H 0.29171 0.84114 0.09701 0.0
H562 H 0.32582 0.90986 0.0582 0.0
H563 H 0.35596 0.85236 0.05372 0.0
H564 H 0.32802 0.84401 0.056 0.0
H565 H 0.3481 0.85559 0.07296 0.0
C566 C 0.27326 0.84948 0.06147 0.0
C567 C 0.27236 0.84081 0.07608 0.0
C568 C 0.29316 0.86397 0.0564 0.0
C569 C 0.31258 0.87008 0.06578 0.0
C570 C 0.31174 0.86209 0.08064 0.0
H571 H 0.43931 0.97751 0.05622 0.0
H572 H 0.40392 0.95248 0.06418 0.0
C573 C 0.29182 0.84756 0.08573 0.0
C574 C 0.33366 0.88478 0.05996 0.0
H575 H 0.38113 0.88869 0.05043 0.0
C576 C 0.3379 0.90522 0.05647 0.0
C577 C 0.34923 0.87855 0.05741 0.0
C578 C 0.34508 0.85636 0.06006 0.0
C579 C 0.35748 0.91978 0.05082 0.0
C580 C 0.37341 0.91386 0.04889 0.0
C581 C 0.36898 0.89326 0.05205 0.0
C582 C 0.39493 0.92899 0.0439 0.0
C583 C 0.3608 0.94125 0.04678 0.0
C584 C 0.40195 0.92386 0.03005 0.0
C585 C 0.42236 0.93813 0.02547 0.0
C586 C 0.43615 0.95774 0.03473 0.0
C587 C 0.42909 0.96266 0.04869 0.0
C588 C 0.40877 0.94841 0.05325 0.0
H589 H 0.34513 0.94087 0.04451 0.0
H590 H 0.37041 0.95352 0.05695 0.0
H591 H 0.36976 0.94633 0.03614 0.0
H592 H 0.39157 0.90887 0.02272 0.0
H593 H 0.42728 0.93379 0.01468 0.0
H594 H 0.15361 0.41839 0.10055 0.0
H595 H 0.12646 0.42719 0.09047 0.0
H596 H 0.17284 0.47387 0.06287 0.0
H597 H 0.20036 0.4656 0.07319 0.0
H598 H 0.12977 0.46959 0.09246 0.0
H599 H 0.11872 0.4332 0.0304 0.0
H600 H 0.13077 0.42651 0.04691 0.0
H601 H 0.14618 0.45154 0.03869 0.0
C602 C 0.15819 0.43074 0.09251 0.0
C603 C 0.17924 0.4413 0.0877 0.0
C604 C 0.14258 0.43564 0.08668 0.0
C605 C 0.14759 0.451 0.07581 0.0
C606 C 0.16857 0.46172 0.07107 0.0
H607 H 0.07143 0.4958 0.02375 0.0
H608 H 0.09982 0.48903 0.03438 0.0
C609 C 0.18425 0.45693 0.07695 0.0
C610 C 0.13086 0.45587 0.06953 0.0
H611 H 0.09977 0.45153 0.03566 0.0
C612 C 0.12316 0.46563 0.08005 0.0
C613 C 0.12239 0.45076 0.05333 0.0
C614 C 0.12976 0.43978 0.04164 0.0
C615 C 0.10735 0.47068 0.07476 0.0
C616 C 0.09862 0.4653 0.05858 0.0
C617 C 0.10644 0.45562 0.04806 0.0
C618 C 0.08134 0.46952 0.05232 0.0
C619 C 0.10054 0.48218 0.08648 0.0
C620 C 0.06136 0.46058 0.05872 0.0
C621 C 0.04512 0.46452 0.05274 0.0
C622 C 0.0484 0.47727 0.04007 0.0
C623 C 0.06832 0.48592 0.03351 0.0
C624 C 0.08459 0.48207 0.03958 0.0
H625 H 0.113 0.49063 0.09683 0.0
H626 H 0.09752 0.49407 0.08077 0.0
H627 H 0.08534 0.47028 0.09104 0.0
H628 H 0.05825 0.45038 0.06828 0.0
H629 H 0.02993 0.45744 0.05799 0.0
H630 H 0.61181 0.76175 0.05366 0.0
H631 H 0.59819 0.72418 0.04394 0.0
H632 H 0.54863 0.70408 0.07609 0.0
H633 H 0.56249 0.7416 0.08606 0.0
H634 H 0.56837 0.68097 0.07731 0.0
H635 H 0.54493 0.68395 0.01425 0.0
H636 H 0.57277 0.70323 0.02066 0.0
H637 H 0.55162 0.70544 0.0295 0.0
C638 C 0.59787 0.7493 0.05851 0.0
C639 C 0.58817 0.75455 0.07058 0.0
C640 C 0.59004 0.72786 0.05291 0.0
C641 C 0.57214 0.71133 0.05909 0.0
C642 C 0.56241 0.71658 0.07112 0.0
H643 H 0.49988 0.57768 0.01898 0.0
H644 H 0.51186 0.61523 0.02751 0.0
C645 C 0.57036 0.73798 0.07683 0.0
C646 C 0.56414 0.68851 0.05355 0.0
H647 H 0.5457 0.65245 0.02044 0.0
C648 C 0.56329 0.67471 0.06488 0.0
C649 C 0.55724 0.68029 0.03737 0.0
C650 C 0.55645 0.69394 0.02477 0.0
C651 C 0.55606 0.65299 0.06046 0.0
C652 C 0.55008 0.64499 0.04419 0.0
C653 C 0.55055 0.65868 0.03288 0.0
C654 C 0.54311 0.6224 0.03869 0.0
C655 C 0.55453 0.63877 0.07332 0.0
C656 C 0.55687 0.6141 0.04187 0.0
C657 C 0.55 0.59262 0.03716 0.0
C658 C 0.52937 0.57912 0.02892 0.0
C659 C 0.51587 0.58765 0.02531 0.0
C660 C 0.52268 0.6091 0.03017 0.0
H661 H 0.55343 0.64558 0.0851 0.0
H662 H 0.54022 0.62242 0.07054 0.0
H663 H 0.56931 0.63735 0.07429 0.0
H664 H 0.57293 0.62422 0.04805 0.0
H665 H 0.56089 0.58662 0.03997 0.0
H666 H 0.80978 0.25917 0.9767 0.0
H667 H 0.83799 0.29585 0.98639 0.0
H668 H 0.88198 0.29013 0.95659 0.0
H669 H 0.8539 0.25338 0.9469 0.0
H670 H 0.87934 0.31018 1.00211 0.0
H671 H 0.88454 0.34569 0.94485 0.0
H672 H 0.86225 0.31982 0.94812 0.0
H673 H 0.88779 0.32251 0.94399 0.0
C674 C 0.82549 0.26567 0.97226 0.0
C675 C 0.82955 0.25337 0.96097 0.0
C676 C 0.84156 0.28666 0.97776 0.0
C677 C 0.86197 0.29581 0.97204 0.0
C678 C 0.86618 0.28354 0.9609 0.0
H679 H 0.97758 0.42238 0.99218 0.0
H680 H 0.95165 0.38486 0.98265 0.0
C681 C 0.85011 0.26255 0.95537 0.0
C682 C 0.87892 0.31808 0.97799 0.0
H683 H 0.91024 0.36812 0.96635 0.0
C684 C 0.88608 0.32287 0.99431 0.0
C685 C 0.88774 0.33456 0.96776 0.0
C686 C 0.8801 0.33052 0.95022 0.0
C687 C 0.90194 0.34369 1.00068 0.0
C688 C 0.91058 0.36023 0.99048 0.0
C689 C 0.9036 0.35539 0.97413 0.0
C690 C 0.92646 0.38279 0.9966 0.0
C691 C 0.90953 0.34774 0.01822 0.0
C692 C 0.92082 0.39411 1.00748 0.0
C693 C 0.93557 0.41554 0.01296 0.0
C694 C 0.95626 0.4261 1.00759 0.0
C695 C 0.96183 0.41472 0.99662 0.0
C696 C 0.94703 0.39328 0.99114 0.0
H697 H 0.90588 0.33264 0.02342 0.0
H698 H 0.92723 0.35919 0.02044 0.0
H699 H 0.90104 0.35482 0.02453 0.0
H700 H 0.90487 0.38646 0.0116 0.0
H701 H 0.93068 0.42383 0.02133 0.0
H702 H 0.72858 0.58823 0.946 0.0
H703 H 0.69373 0.58095 0.95481 0.0
H704 H 0.68821 0.52649 0.97713 0.0
H705 H 0.72255 0.5331 0.96799 0.0
H706 H 0.64967 0.53488 0.95001 0.0
H707 H 0.68474 0.57195 0.01198 0.0
H708 H 0.70061 0.58009 0.99527 0.0
H709 H 0.69342 0.55483 1.00263 0.0
C710 C 0.71981 0.5745 0.95256 0.0
C711 C 0.72851 0.56136 0.95638 0.0
C712 C 0.69998 0.57046 0.95766 0.0
C713 C 0.68859 0.55333 0.96673 0.0
C714 C 0.69692 0.53992 0.97027 0.0
H715 H 0.57601 0.51106 0.01915 0.0
H716 H 0.60981 0.51792 1.00871 0.0
C717 C 0.71662 0.54383 0.9651 0.0
C718 C 0.66809 0.5495 0.97275 0.0
H719 H 0.64681 0.55509 1.00647 0.0
C720 C 0.64898 0.53937 0.96232 0.0
C721 C 0.66734 0.55518 0.98884 0.0
C722 C 0.68758 0.56621 1.00041 0.0
C723 C 0.62894 0.53447 0.96764 0.0
C724 C 0.62816 0.54041 0.98375 0.0
C725 C 0.64738 0.55057 0.99415 0.0
C726 C 0.60761 0.53627 0.99004 0.0
C727 C 0.60875 0.52243 0.95607 0.0
C728 C 0.5953 0.54458 0.98321 0.0
C729 C 0.57591 0.54055 0.98906 0.0
C730 C 0.56855 0.52838 1.00206 0.0
C731 C 0.58116 0.52047 1.00912 0.0
C732 C 0.6005 0.52437 1.00317 0.0
H733 H 0.61115 0.51359 0.94595 0.0
H734 H 0.59478 0.51081 0.96201 0.0
H735 H 0.60465 0.53404 0.95111 0.0
H736 H 0.60073 0.55432 0.97338 0.0
H737 H 0.56675 0.5471 0.98341 0.0
H738 H 0.41239 0.15981 0.99793 0.0
H739 H 0.4236 0.13428 1.00551 0.0
H740 H 0.45522 0.14187 0.96265 0.0
H741 H 0.44481 0.16805 0.95527 0.0
H742 H 0.4149 0.09576 0.99022 0.0
H743 H 0.50327 0.15388 0.99729 0.0
H744 H 0.48326 0.16216 0.99557 0.0
H745 H 0.49006 0.15236 0.97811 0.0
C746 C 0.4219 0.15619 0.99018 0.0
C747 C 0.42788 0.16612 0.97607 0.0
C748 C 0.42816 0.1415 0.99448 0.0
C749 C 0.44057 0.13649 0.98479 0.0
C750 C 0.44603 0.14586 0.97047 0.0
H751 H 0.46138 0.02829 0.98902 0.0
H752 H 0.45001 0.0538 0.98195 0.0
C753 C 0.43982 0.16061 0.96617 0.0
C754 C 0.4477 0.12138 0.98967 0.0
H755 H 0.49262 0.11712 0.99835 0.0
C756 C 0.43189 0.10043 0.99204 0.0
C757 C 0.46989 0.12764 0.9923 0.0
C758 C 0.48763 0.15029 0.99085 0.0
C759 C 0.43765 0.08541 0.99669 0.0
C760 C 0.45981 0.09142 0.99871 0.0
C761 C 0.47564 0.11249 0.99663 0.0
C762 C 0.46693 0.07607 1.00296 0.0
C763 C 0.41997 0.06336 0.99964 0.0
C764 C 0.48079 0.08045 0.01689 0.0
C765 C 0.48752 0.06599 0.02092 0.0
C766 C 0.48052 0.04688 1.01106 0.0
C767 C 0.46689 0.04272 0.99699 0.0
C768 C 0.46027 0.05724 0.99295 0.0
H769 H 0.40482 0.06331 1.00198 0.0
H770 H 0.41623 0.05201 0.98893 0.0
H771 H 0.4251 0.05739 1.00989 0.0
H772 H 0.48623 0.09499 0.02472 0.0
H773 H 0.49804 0.06971 0.03182 0.0
H774 H 0.72426 0.12654 0.95767 0.0
H775 H 0.68634 0.10207 0.96217 0.0
H776 H 0.68544 0.15397 0.98945 0.0
H777 H 0.723 0.17835 0.98465 0.0
H778 H 0.67111 0.09078 0.99055 0.0
H779 H 0.62898 0.12858 0.96136 0.0
H780 H 0.65628 0.13549 0.95799 0.0
H781 H 0.65129 0.1473 0.97538 0.0
C782 C 0.71568 0.1327 0.96429 0.0
C783 C 0.72621 0.15424 0.97066 0.0
C784 C 0.69413 0.11877 0.96692 0.0
C785 C 0.6829 0.12625 0.97595 0.0
C786 C 0.6935 0.14794 0.9821 0.0
H787 H 0.5764 0.05308 0.03114 0.0
H788 H 0.6115 0.07603 0.02152 0.0
C789 C 0.71496 0.16183 0.97942 0.0
C790 C 0.66077 0.11115 0.98004 0.0
H791 H 0.60971 0.10374 0.98006 0.0
C792 C 0.65763 0.09349 0.9881 0.0
C793 C 0.64309 0.11452 0.97671 0.0
C794 C 0.64499 0.13237 0.96724 0.0
C795 C 0.63751 0.07951 0.99334 0.0
C796 C 0.62017 0.08357 0.99077 0.0
C797 C 0.6231 0.10082 0.98226 0.0
C798 C 0.59882 0.07003 0.99671 0.0
C799 C 0.63499 0.06041 1.00144 0.0
C800 C 0.5799 0.0596 0.98605 0.0
C801 C 0.55978 0.04668 0.99152 0.0
C802 C 0.55814 0.04393 1.00782 0.0
C803 C 0.57708 0.0547 0.01852 0.0
C804 C 0.5972 0.06772 0.01302 0.0
H805 H 0.64733 0.05611 0.99837 0.0
H806 H 0.63715 0.06438 0.01453 0.0
H807 H 0.61864 0.04618 0.99812 0.0
H808 H 0.58073 0.06125 0.97342 0.0
H809 H 0.54556 0.03865 0.98292 0.0
H810 H 0.84708 0.57613 0.99161 0.0
H811 H 0.87452 0.56529 0.99494 0.0
H812 H 0.85271 0.53042 0.94822 0.0
H813 H 0.82504 0.54125 0.94488 0.0
H814 H 0.85656 0.51271 0.98673 0.0
H815 H 0.92667 0.57384 0.95841 0.0
H816 H 0.90929 0.58122 0.96831 0.0
H817 H 0.89909 0.56399 0.95004 0.0
C818 C 0.84854 0.5666 0.98191 0.0
C819 C 0.83426 0.55963 0.96795 0.0
C820 C 0.86412 0.56039 0.98384 0.0
C821 C 0.86563 0.54716 0.9718 0.0
C822 C 0.85183 0.54078 0.95757 0.0
H823 H 0.95743 0.49952 0.97835 0.0
H824 H 0.93125 0.50941 0.96771 0.0
C825 C 0.83615 0.54698 0.95565 0.0
C826 C 0.88026 0.53851 0.97492 0.0
H827 H 0.93211 0.54924 0.97246 0.0
C828 C 0.87301 0.52051 0.98347 0.0
C829 C 0.90158 0.54869 0.97054 0.0
C830 C 0.90981 0.56802 0.96129 0.0
C831 C 0.8868 0.51274 0.98817 0.0
C832 C 0.90851 0.52354 0.98447 0.0
C833 C 0.9155 0.54106 0.97536 0.0
C834 C 0.92445 0.51761 0.99079 0.0
C835 C 0.87803 0.49312 0.99717 0.0
C836 C 0.92952 0.51924 1.00728 0.0
C837 C 0.94441 0.51362 0.0134 0.0
C838 C 0.95468 0.50633 1.00315 0.0
C839 C 0.94976 0.50496 0.9866 0.0
C840 C 0.93484 0.51064 0.98048 0.0
H841 H 0.86009 0.48326 0.99497 0.0
H842 H 0.88507 0.48295 0.99381 0.0
H843 H 0.88235 0.49825 1.01012 0.0
H844 H 0.92201 0.52499 0.01545 0.0
H845 H 0.94786 0.51503 0.0262 0.0
H846 H 0.43868 0.27575 0.96736 0.0
H847 H 0.44993 0.3142 0.96956 0.0
H848 H 0.43301 0.31048 0.01778 0.0
H849 H 0.42188 0.27224 0.01559 0.0
H850 H 0.42576 0.33604 0.97891 0.0
H851 H 0.49852 0.35777 0.02051 0.0
H852 H 0.484 0.33254 1.00809 0.0
H853 H 0.47346 0.33644 0.02591 0.0
C854 C 0.43715 0.2832 0.9783 0.0
C855 C 0.42948 0.27134 0.99132 0.0
C856 C 0.44356 0.30505 0.97957 0.0
C857 C 0.44254 0.31515 0.99391 0.0
C858 C 0.43415 0.303 1.0067 0.0
H859 H 0.48066 0.44313 0.03348 0.0
H860 H 0.46738 0.4047 0.02818 0.0
C861 C 0.42772 0.28123 1.00542 0.0
C862 C 0.45088 0.33854 0.99581 0.0
H863 H 0.48982 0.38508 0.017 0.0
C864 C 0.43985 0.34684 0.98713 0.0
C865 C 0.46926 0.35248 1.00655 0.0
C866 C 0.48216 0.34446 0.01572 0.0
C867 C 0.44636 0.36875 0.9893 0.0
C868 C 0.4646 0.38266 1.00022 0.0
C869 C 0.47579 0.37435 1.0087 0.0
C870 C 0.47226 0.40588 1.0032 0.0
C871 C 0.4333 0.37671 0.98028 0.0
C872 C 0.47964 0.4193 0.99095 0.0
C873 C 0.48722 0.44127 0.99392 0.0
C874 C 0.4877 0.45024 1.00925 0.0
C875 C 0.48048 0.43675 0.02154 0.0
C876 C 0.47288 0.41479 0.01853 0.0
H877 H 0.41697 0.36334 0.9755 0.0
H878 H 0.43137 0.3885 0.988 0.0
H879 H 0.44188 0.38482 0.97009 0.0
H880 H 0.47974 0.41282 0.97911 0.0
H881 H 0.49278 0.4512 0.98421 0.0
H882 H 0.18948 0.72183 0.04973 0.0
H883 H 0.16155 0.68376 0.04645 0.0
H884 H 0.12047 0.69824 0.07363 0.0
H885 H 0.14843 0.73657 0.07664 0.0
H886 H 0.14184 0.6546 0.06791 0.0
H887 H 0.08195 0.66731 0.03219 0.0
H888 H 0.10998 0.68797 0.03667 0.0
H889 H 0.09143 0.68224 0.0515 0.0
C890 C 0.17454 0.71677 0.05512 0.0
C891 C 0.17092 0.73185 0.06342 0.0
C892 C 0.15862 0.69509 0.05324 0.0
C893 C 0.1388 0.68819 0.05958 0.0
C894 C 0.13548 0.70327 0.06838 0.0
H895 H 0.04465 0.55175 0.06121 0.0
H896 H 0.07079 0.58969 0.06885 0.0
C897 C 0.15145 0.72505 0.07021 0.0
C898 C 0.12159 0.6653 0.05655 0.0
H899 H 0.07074 0.63184 0.03787 0.0
C900 C 0.12623 0.6496 0.06143 0.0
C901 C 0.10138 0.65884 0.04786 0.0
C902 C 0.09587 0.67492 0.04161 0.0
C903 C 0.1113 0.62762 0.05776 0.0
C904 C 0.09098 0.62116 0.04926 0.0
C905 C 0.08627 0.63685 0.04448 0.0
C906 C 0.07469 0.59822 0.04469 0.0
C907 C 0.11772 0.61155 0.06255 0.0
C908 C 0.0677 0.59052 0.02858 0.0
C909 C 0.05258 0.56886 0.02415 0.0
C910 C 0.04414 0.55448 0.03577 0.0
C911 C 0.05096 0.56232 0.05193 0.0
C912 C 0.06599 0.584 0.05634 0.0
H913 H 0.13556 0.61907 0.06527 0.0
H914 H 0.11012 0.60474 0.07341 0.0
H915 H 0.1121 0.59814 0.05301 0.0
H916 H 0.07415 0.60124 0.0194 0.0
H917 H 0.04767 0.56337 0.01161 0.0
H918 H 0.28427 0.46947 0.06539 0.0
H919 H 0.3215 0.48239 0.05907 0.0
H920 H 0.32351 0.43288 0.08419 0.0
H921 H 0.28596 0.41967 0.09021 0.0
H922 H 0.36056 0.49731 0.07676 0.0
H923 H 0.33718 0.42124 0.04006 0.0
H924 H 0.31744 0.42734 0.04727 0.0
H925 H 0.33115 0.41804 0.06034 0.0
C926 C 0.29285 0.46162 0.06977 0.0
C927 C 0.28249 0.4437 0.0783 0.0
C928 C 0.31406 0.46895 0.06614 0.0
C929 C 0.32519 0.45838 0.0709 0.0
C930 C 0.3151 0.44102 0.08011 0.0
H931 H 0.46251 0.50732 0.06059 0.0
H932 H 0.42792 0.4963 0.07112 0.0
C933 C 0.29379 0.43362 0.08368 0.0
C934 C 0.3469 0.46507 0.06558 0.0
H935 H 0.37432 0.44759 0.04319 0.0
C936 C 0.36361 0.48642 0.06947 0.0
C937 C 0.35075 0.45096 0.05583 0.0
C938 C 0.33316 0.42817 0.05048 0.0
C939 C 0.38404 0.49404 0.0639 0.0
C940 C 0.38801 0.4798 0.05441 0.0
C941 C 0.37131 0.45845 0.05054 0.0
C942 C 0.40919 0.48678 0.04804 0.0
C943 C 0.40095 0.51742 0.06783 0.0
C944 C 0.41019 0.48465 0.03157 0.0
C945 C 0.42998 0.49074 0.02549 0.0
C946 C 0.44922 0.49905 0.03578 0.0
C947 C 0.44812 0.50114 0.05229 0.0
C948 C 0.42832 0.49496 0.05835 0.0
H949 H 0.39361 0.52724 0.0714 0.0
H950 H 0.4125 0.51901 0.07793 0.0
H951 H 0.41022 0.52405 0.05753 0.0
H952 H 0.39562 0.47829 0.02338 0.0
H953 H 0.43014 0.48885 0.01272 0.0
H954 H 0.56791 0.83198 0.04312 0.0
H955 H 0.55072 0.85381 0.03933 0.0
H956 H 0.59927 0.9034 0.07396 0.0
H957 H 0.61665 0.88157 0.07758 0.0
H958 H 0.53364 0.87084 0.06088 0.0
H959 H 0.60316 0.93482 0.03423 0.0
H960 H 0.60057 0.90903 0.03688 0.0
H961 H 0.60973 0.92915 0.05353 0.0
C962 C 0.57477 0.84751 0.04996 0.0
C963 C 0.59352 0.8553 0.06056 0.0
C964 C 0.56498 0.85991 0.04782 0.0
C965 C 0.57389 0.88032 0.05621 0.0
C966 C 0.59236 0.88784 0.06718 0.0
H967 H 0.51203 0.95852 0.05907 0.0
H968 H 0.5272 0.93585 0.06589 0.0
C969 C 0.60219 0.8754 0.0693 0.0
C970 C 0.56407 0.8938 0.0531 0.0
H971 H 0.57387 0.94042 0.03818 0.0
C972 C 0.54242 0.8861 0.05597 0.0
C973 C 0.57551 0.91353 0.04648 0.0
C974 C 0.59846 0.9221 0.04245 0.0
C975 C 0.5319 0.89765 0.05241 0.0
C976 C 0.54347 0.91753 0.04602 0.0
C977 C 0.5651 0.92522 0.04316 0.0
C978 C 0.53334 0.93045 0.04184 0.0
C979 C 0.50837 0.88822 0.05513 0.0
C980 C 0.53197 0.9351 0.02608 0.0
C981 C 0.52343 0.94815 0.02214 0.0
C982 C 0.51619 0.95689 0.03392 0.0
C983 C 0.51735 0.95198 0.04968 0.0
C984 C 0.52593 0.93894 0.05361 0.0
H985 H 0.50052 0.87075 0.05639 0.0
H986 H 0.50719 0.89633 0.06625 0.0
H987 H 0.49924 0.89073 0.04519 0.0
H988 H 0.53767 0.92874 0.01684 0.0
H989 H 0.52279 0.9516 1.0099 0.0
H990 H 0.94843 0.14815 0.39638 0.0
H991 H 0.98309 0.17453 0.38794 0.0
H992 H 0.98042 0.22519 0.4154 0.0
H993 H 0.94539 0.19894 0.42366 0.0
H994 H 0.99113 0.21169 0.37134 0.0
H995 H 0.04133 0.23321 0.42955 0.0
H996 H 0.01541 0.20882 0.42533 0.0
H997 H 0.01662 0.23407 0.42968 0.0
C998 C 0.95511 0.16491 0.40058 0.0
C999 C 0.94403 0.17141 0.41066 0.0
C1000 C 0.97498 0.17994 0.39579 0.0
C1001 C 0.98436 0.20176 0.40112 0.0
C1002 C 0.97357 0.20836 0.41133 0.0
H1003 H 0.10414 0.31567 0.38681 0.0
H1004 H 0.06908 0.28954 0.39469 0.0
C1005 C 0.95359 0.19333 0.41608 0.0
C1006 C 0.00519 0.21762 0.39562 0.0
H1007 H 0.05828 0.25309 0.40839 0.0
C1008 C 0.00585 0.22074 0.3794 0.0
C1009 C 0.0243 0.22938 0.4062 0.0
C1010 C 0.02457 0.22618 0.42366 0.0
C1011 C 0.02509 0.23562 0.3735 0.0
C1012 C 0.04429 0.2473 0.38406 0.0
C1013 C 0.04358 0.24412 0.40029 0.0
C1014 C 0.06525 0.26318 0.37864 0.0
C1015 C 0.0245 0.23909 0.3561 0.0
C1016 C 0.07485 0.25708 0.36697 0.0
C1017 C 0.09493 0.27209 0.36231 0.0
C1018 C 0.1059 0.29341 0.3694 0.0
C1019 C 0.0962 0.29941 0.38109 0.0
C1020 C 0.07613 0.28447 0.38564 0.0
H1021 H 0.00776 0.23358 0.35075 0.0
H1022 H 0.03491 0.25629 0.35436 0.0
H1023 H 0.03061 0.22975 0.34957 0.0
H1024 H 0.06701 0.24062 0.36165 0.0
H1025 H 0.102 0.26687 0.35339 0.0
H1026 H 0.8228 0.75265 0.43711 0.0
H1027 H 0.79436 0.76019 0.42779 0.0
H1028 H 0.83818 0.807 0.39894 0.0
H1029 H 0.86689 0.80003 0.40848 0.0
H1030 H 0.79592 0.80197 0.42942 0.0
H1031 H 0.78347 0.76416 0.36769 0.0
H1032 H 0.79667 0.75854 0.3841 0.0
H1033 H 0.81106 0.78321 0.37522 0.0
C1034 C 0.82652 0.76477 0.42895 0.0
C1035 C 0.84717 0.77568 0.42351 0.0
C1036 C 0.81019 0.76894 0.42356 0.0
C1037 C 0.81411 0.78393 0.41253 0.0
C1038 C 0.83473 0.7951 0.40726 0.0
H1039 H 0.7382 0.82841 0.36068 0.0
H1040 H 0.76602 0.82099 0.37148 0.0
C1041 C 0.8511 0.79104 0.41269 0.0
C1042 C 0.79665 0.78796 0.40651 0.0
H1043 H 0.7649 0.78298 0.37285 0.0
C1044 C 0.78903 0.79775 0.41708 0.0
C1045 C 0.78779 0.78247 0.3904 0.0
C1046 C 0.79499 0.77136 0.37867 0.0
C1047 C 0.77309 0.80268 0.41187 0.0
C1048 C 0.76417 0.79716 0.39573 0.0
C1049 C 0.77173 0.78722 0.38521 0.0
C1050 C 0.74719 0.80179 0.38942 0.0
C1051 C 0.76645 0.81433 0.42359 0.0
C1052 C 0.72721 0.79329 0.3958 0.0
C1053 C 0.71127 0.79762 0.38971 0.0
C1054 C 0.71489 0.81033 0.37697 0.0
C1055 C 0.73482 0.81858 0.37049 0.0
C1056 C 0.75078 0.81434 0.37665 0.0
H1057 H 0.77887 0.82261 0.43399 0.0
H1058 H 0.76369 0.82638 0.4179 0.0
H1059 H 0.75113 0.80255 0.42808 0.0
H1060 H 0.72384 0.78311 0.40539 0.0
H1061 H 0.69606 0.79085 0.39491 0.0
H1062 H 0.22695 0.06821 0.42607 0.0
H1063 H 0.21585 0.03107 0.41715 0.0
H1064 H 0.25753 0.05259 0.37951 0.0
H1065 H 0.26969 0.08985 0.3889 0.0
H1066 H 0.19537 0.00786 0.38928 0.0
H1067 H 0.27554 0.01361 0.39929 0.0
H1068 H 0.2706 0.03447 0.40695 0.0
H1069 H 0.27553 0.03259 0.38649 0.0
C1070 C 0.23409 0.0651 0.41608 0.0
C1071 C 0.24937 0.08208 0.40829 0.0
C1072 C 0.22756 0.04384 0.4109 0.0
C1073 C 0.2361 0.03907 0.39782 0.0
C1074 C 0.25108 0.05591 0.38985 0.0
H1075 H 0.17882 0.91256 0.34494 0.0
H1076 H 0.19059 0.94997 0.35369 0.0
C1077 C 0.25778 0.07721 0.3951 0.0
C1078 C 0.22893 0.01642 0.39235 0.0
H1079 H 0.24724 0.98151 0.38492 0.0
C1080 C 0.20669 0.00206 0.38838 0.0
C1081 C 0.24371 0.00883 0.39138 0.0
C1082 C 0.26765 0.02312 0.3964 0.0
C1083 C 0.19882 0.98035 0.38334 0.0
C1084 C 0.21367 0.97294 0.38183 0.0
C1085 C 0.2359 0.98726 0.38592 0.0
C1086 C 0.20651 0.95028 0.37642 0.0
C1087 C 0.17465 0.9655 0.38007 0.0
C1088 C 0.21208 0.9382 0.38607 0.0
C1089 C 0.20568 0.91694 0.381 0.0
C1090 C 0.1935 0.9073 0.36617 0.0
C1091 C 0.18798 0.91944 0.35649 0.0
C1092 C 0.1946 0.9408 0.36152 0.0
H1093 H 0.16555 0.97213 0.38609 0.0
H1094 H 0.16986 0.96343 0.36708 0.0
H1095 H 0.16974 0.94946 0.38407 0.0
H1096 H 0.22131 0.94522 0.39759 0.0
H1097 H 0.21015 0.90803 0.38877 0.0
H1098 H 0.48546 0.60083 0.2815 0.0
H1099 H 0.51225 0.6378 0.29185 0.0
H1100 H 0.53802 0.61428 0.328 0.0
H1101 H 0.51087 0.57732 0.31795 0.0
H1102 H 0.535 0.64725 0.34026 0.0
H1103 H 0.57519 0.66887 0.28498 0.0
H1104 H 0.54682 0.65993 0.28177 0.0
H1105 H 0.55549 0.64162 0.28782 0.0
C1106 C 0.49688 0.6036 0.29164 0.0
C1107 C 0.49614 0.58623 0.29889 0.0
C1108 C 0.51226 0.62471 0.29749 0.0
C1109 C 0.5275 0.62885 0.31048 0.0
C1110 C 0.52651 0.6115 0.31792 0.0
H1111 H 0.64544 0.75248 0.33521 0.0
H1112 H 0.61893 0.71488 0.32645 0.0
C1113 C 0.51095 0.5904 0.3122 0.0
C1114 C 0.54434 0.65122 0.31643 0.0
H1115 H 0.58486 0.69771 0.30491 0.0
C1116 C 0.54598 0.65825 0.33254 0.0
C1117 C 0.55897 0.66548 0.30646 0.0
C1118 C 0.55922 0.65854 0.28934 0.0
C1119 C 0.56153 0.67921 0.33888 0.0
C1120 C 0.57542 0.69379 0.32871 0.0
C1121 C 0.57405 0.68664 0.31267 0.0
C1122 C 0.59155 0.71651 0.33444 0.0
C1123 C 0.56317 0.68533 0.35648 0.0
C1124 C 0.58499 0.73003 0.34171 0.0
C1125 C 0.60015 0.75144 0.34691 0.0
C1126 C 0.62214 0.75991 0.34466 0.0
C1127 C 0.62863 0.74646 0.33714 0.0
C1128 C 0.61349 0.72496 0.33212 0.0
H1129 H 0.55658 0.67097 0.36321 0.0
H1130 H 0.58022 0.69656 0.3614 0.0
H1131 H 0.55354 0.69331 0.35846 0.0
H1132 H 0.56808 0.72411 0.3432 0.0
H1133 H 0.59457 0.76144 0.35248 0.0
H1134 H 0.39582 0.92076 0.2802 0.0
H1135 H 0.36134 0.91337 0.28978 0.0
H1136 H 0.35688 0.85896 0.31159 0.0
H1137 H 0.39085 0.86573 0.3017 0.0
H1138 H 0.31853 0.87109 0.28457 0.0
H1139 H 0.35226 0.89936 0.34791 0.0
H1140 H 0.369 0.90774 0.33169 0.0
H1141 H 0.35927 0.88136 0.33783 0.0
C1142 C 0.38738 0.90705 0.28685 0.0
C1143 C 0.39626 0.89395 0.29027 0.0
C1144 C 0.36776 0.90295 0.2924 0.0
C1145 C 0.35677 0.88582 0.30157 0.0
C1146 C 0.36531 0.87248 0.30475 0.0
H1147 H 0.24174 0.83834 0.35191 0.0
H1148 H 0.27586 0.84589 0.34165 0.0
C1149 C 0.3848 0.87645 0.29913 0.0
C1150 C 0.33631 0.88174 0.30782 0.0
H1151 H 0.31431 0.88302 0.34224 0.0
C1152 C 0.31757 0.87379 0.29715 0.0
C1153 C 0.33515 0.8851 0.32426 0.0
C1154 C 0.35498 0.89399 0.33615 0.0
C1155 C 0.29753 0.86873 0.30253 0.0
C1156 C 0.29637 0.8723 0.31899 0.0
C1157 C 0.31518 0.88029 0.32964 0.0
C1158 C 0.27582 0.86798 0.32538 0.0
C1159 C 0.27771 0.85904 0.29056 0.0
C1160 C 0.26468 0.87821 0.31992 0.0
C1161 C 0.24514 0.87382 0.32567 0.0
C1162 C 0.23644 0.85932 0.33721 0.0
C1163 C 0.24794 0.84955 0.34302 0.0
C1164 C 0.26745 0.85384 0.33715 0.0
H1165 H 0.28003 0.85149 0.27962 0.0
H1166 H 0.2632 0.84675 0.29564 0.0
H1167 H 0.27452 0.87188 0.28704 0.0
H1168 H 0.27111 0.88964 0.31119 0.0
H1169 H 0.23688 0.88183 0.32103 0.0
H1170 H 0.07441 0.48988 0.32998 0.0
H1171 H 0.08692 0.46577 0.33878 0.0
H1172 H 0.12236 0.47563 0.29773 0.0
H1173 H 0.11066 0.50041 0.28917 0.0
H1174 H 0.08105 0.42814 0.32393 0.0
H1175 H 0.16848 0.48911 0.33433 0.0
H1176 H 0.14767 0.49619 0.33144 0.0
H1177 H 0.15656 0.48748 0.31462 0.0
C1178 C 0.08505 0.48709 0.32291 0.0
C1179 C 0.09167 0.49719 0.30893 0.0
C1180 C 0.09207 0.47321 0.3279 0.0
C1181 C 0.10587 0.46923 0.31906 0.0
C1182 C 0.11208 0.47885 0.3049 0.0
H1183 H 0.13176 0.36463 0.32406 0.0
H1184 H 0.11938 0.38934 0.31685 0.0
C1185 C 0.10513 0.49277 0.29992 0.0
C1186 C 0.11356 0.4548 0.32454 0.0
H1187 H 0.15929 0.45258 0.33486 0.0
C1188 C 0.09815 0.43349 0.3264 0.0
C1189 C 0.13586 0.46194 0.32801 0.0
C1190 C 0.15311 0.48498 0.32716 0.0
C1191 C 0.10446 0.41895 0.33127 0.0
C1192 C 0.1268 0.42584 0.33404 0.0
C1193 C 0.14219 0.44729 0.33256 0.0
C1194 C 0.13453 0.411 0.33838 0.0
C1195 C 0.08715 0.39645 0.3336 0.0
C1196 C 0.14777 0.41536 0.35265 0.0
C1197 C 0.15509 0.40137 0.35675 0.0
C1198 C 0.1493 0.38277 0.34663 0.0
C1199 C 0.13632 0.37867 0.33222 0.0
C1200 C 0.12911 0.39271 0.32811 0.0
H1201 H 0.07152 0.39561 0.3355 0.0
H1202 H 0.08439 0.38559 0.3228 0.0
H1203 H 0.09212 0.39044 0.34392 0.0
H1204 H 0.15226 0.4295 0.36069 0.0
H1205 H 0.16508 0.40503 0.36792 0.0
H1206 H 0.40726 0.48749 0.33507 0.0
H1207 H 0.36958 0.46603 0.3409 0.0
H1208 H 0.34763 0.4617 0.29143 0.0
H1209 H 0.38556 0.48307 0.28558 0.0
H1210 H 0.33574 0.47465 0.33641 0.0
H1211 H 0.31679 0.39879 0.30121 0.0
H1212 H 0.34418 0.42072 0.3062 0.0
H1213 H 0.32698 0.42212 0.29047 0.0
C1214 C 0.39433 0.48187 0.32547 0.0
C1215 C 0.39907 0.4867 0.30991 0.0
C1216 C 0.37287 0.46968 0.32879 0.0
C1217 C 0.35579 0.46205 0.31658 0.0
C1218 C 0.36056 0.46711 0.30098 0.0
H1219 H 0.21663 0.37975 0.3206 0.0
H1220 H 0.25214 0.40373 0.31208 0.0
C1221 C 0.38213 0.47935 0.29765 0.0
C1222 C 0.33311 0.44898 0.3204 0.0
H1223 H 0.28843 0.39881 0.31398 0.0
C1224 C 0.32536 0.45808 0.33147 0.0
C1225 C 0.31958 0.42739 0.31392 0.0
C1226 C 0.32728 0.41654 0.30238 0.0
C1227 C 0.3045 0.44616 0.33629 0.0
C1228 C 0.29117 0.42443 0.33009 0.0
C1229 C 0.29872 0.41546 0.31875 0.0
C1230 C 0.26953 0.41056 0.33547 0.0
C1231 C 0.29686 0.45699 0.3479 0.0
C1232 C 0.26751 0.40632 0.35146 0.0
C1233 C 0.2472 0.39261 0.3564 0.0
C1234 C 0.22852 0.38276 0.34542 0.0
C1235 C 0.23063 0.3871 0.32941 0.0
C1236 C 0.25093 0.40079 0.32449 0.0
H1237 H 0.30627 0.47474 0.34804 0.0
H1238 H 0.27941 0.45146 0.34495 0.0
H1239 H 0.29908 0.45291 0.36006 0.0
H1240 H 0.2817 0.41335 0.36008 0.0
H1241 H 0.24621 0.38955 0.36879 0.0
H1242 H 0.48044 0.85781 0.28503 0.0
H1243 H 0.50791 0.84702 0.28911 0.0
H1244 H 0.55193 0.90888 0.31474 0.0
H1245 H 0.52455 0.91971 0.3105 0.0
H1246 H 0.57229 0.89228 0.29464 0.0
H1247 H 0.51916 0.83354 0.33439 0.0
H1248 H 0.50706 0.83068 0.31448 0.0
H1249 H 0.5145 0.8543 0.32759 0.0
C1250 C 0.49623 0.86925 0.29112 0.0
C1251 C 0.5006 0.88957 0.29739 0.0
C1252 C 0.51181 0.86305 0.29356 0.0
C1253 C 0.53182 0.87704 0.30244 0.0
C1254 C 0.5366 0.89785 0.30787 0.0
H1255 H 0.61702 0.85131 0.36082 0.0
H1256 H 0.59171 0.86146 0.34919 0.0
C1257 C 0.52102 0.90404 0.30541 0.0
C1258 C 0.54697 0.86947 0.30735 0.0
H1259 H 0.55225 0.83505 0.33088 0.0
C1260 C 0.5679 0.87966 0.30246 0.0
C1261 C 0.54127 0.85322 0.31776 0.0
C1262 C 0.51935 0.84238 0.324 0.0
C1263 C 0.58332 0.87407 0.30776 0.0
C1264 C 0.57754 0.85774 0.3181 0.0
C1265 C 0.55657 0.84747 0.32287 0.0
C1266 C 0.5933 0.85183 0.32486 0.0
C1267 C 0.60586 0.88614 0.30269 0.0
C1268 C 0.60249 0.84286 0.31504 0.0
C1269 C 0.61703 0.83701 0.32167 0.0
C1270 C 0.62255 0.83994 0.33825 0.0
C1271 C 0.61319 0.84882 0.34802 0.0
C1272 C 0.59869 0.85465 0.34139 0.0
H1273 H 0.609 0.90114 0.29754 0.0
H1274 H 0.61824 0.8903 0.31292 0.0
H1275 H 0.60784 0.87582 0.2935 0.0
H1276 H 0.59826 0.84019 0.30228 0.0
H1277 H 0.62387 0.83017 0.31378 0.0
H1278 H 0.08502 0.60449 0.34427 0.0
H1279 H 0.09897 0.64322 0.34472 0.0
H1280 H 0.11331 0.64116 0.2961 0.0
H1281 H 0.09925 0.60222 0.29566 0.0
H1282 H 0.14357 0.67306 0.33793 0.0
H1283 H 0.08008 0.67598 0.29817 0.0
H1284 H 0.07458 0.6525 0.30807 0.0
H1285 H 0.0903 0.65888 0.29145 0.0
C1286 C 0.09082 0.61231 0.33362 0.0
C1287 C 0.09103 0.60066 0.31991 0.0
C1288 C 0.09881 0.63434 0.33389 0.0
C1289 C 0.10702 0.64495 0.32042 0.0
C1290 C 0.10677 0.63317 0.30653 0.0
H1291 H 0.16222 0.78329 0.31357 0.0
H1292 H 0.14997 0.7452 0.30676 0.0
C1293 C 0.0988 0.61105 0.30629 0.0
C1294 C 0.11712 0.66856 0.32145 0.0
H1295 H 0.10923 0.70897 0.30997 0.0
C1296 C 0.13618 0.68096 0.33173 0.0
C1297 C 0.10752 0.67872 0.31318 0.0
C1298 C 0.08693 0.66594 0.30213 0.0
C1299 C 0.14565 0.70331 0.3343 0.0
C1300 C 0.1355 0.71342 0.32665 0.0
C1301 C 0.11691 0.70112 0.31586 0.0
C1302 C 0.14307 0.73646 0.33062 0.0
C1303 C 0.16636 0.71587 0.3453 0.0
C1304 C 0.14294 0.74403 0.34622 0.0
C1305 C 0.14991 0.76567 0.35015 0.0
C1306 C 0.15701 0.78019 0.33851 0.0
C1307 C 0.15692 0.77254 0.32282 0.0
C1308 C 0.14992 0.7508 0.3189 0.0
H1309 H 0.17541 0.70706 0.34621 0.0
H1310 H 0.17707 0.73181 0.3412 0.0
H1311 H 0.16238 0.71845 0.3574 0.0
H1312 H 0.13728 0.73313 0.35536 0.0
H1313 H 0.14963 0.77096 0.36232 0.0
H1314 H 0.84773 0.05876 0.41855 0.0
H1315 H 0.81918 0.0206 0.41508 0.0
H1316 H 0.79307 0.03079 0.37122 0.0
H1317 H 0.82147 0.06878 0.37468 0.0
H1318 H 0.76932 6e-05 0.40806 0.0
H1319 H 0.81143 0.98365 0.36083 0.0
H1320 H 0.8252 0.00677 0.37545 0.0
H1321 H 0.80762 0.00635 0.35916 0.0
C1322 C 0.83557 0.05283 0.40838 0.0
C1323 C 0.83652 0.06645 0.3969 0.0
C1324 C 0.81937 0.03114 0.40639 0.0
C1325 C 0.80419 0.02293 0.39283 0.0
C1326 C 0.80473 0.03684 0.38171 0.0
H1327 H 0.70853 0.89762 0.34762 0.0
H1328 H 0.7342 0.93583 0.35472 0.0
C1329 C 0.82083 0.05847 0.38372 0.0
C1330 C 0.78861 -0.00036 0.3897 0.0
H1331 H 0.77696 0.95535 0.36503 0.0
C1332 C 0.77098 0.99019 0.39873 0.0
C1333 C 0.79089 0.98694 0.37748 0.0
C1334 C 0.80986 0.99631 0.3677 0.0
C1335 C 0.75517 0.96834 0.39557 0.0
C1336 C 0.75741 0.95561 0.38329 0.0
C1337 C 0.77523 0.96511 0.3744 0.0
C1338 C 0.74138 0.93245 0.37927 0.0
C1339 C 0.73589 0.95929 0.40506 0.0
C1340 C 0.73704 0.91781 0.39066 0.0
C1341 C 0.72227 0.89595 0.38666 0.0
C1342 C 0.71175 0.88829 0.37112 0.0
C1343 C 0.71632 0.90297 0.3597 0.0
C1344 C 0.73099 0.92483 0.36374 0.0
H1345 H 0.73354 0.97215 0.41075 0.0
H1346 H 0.72082 0.94772 0.39743 0.0
H1347 H 0.73856 0.95071 0.41463 0.0
H1348 H 0.74528 0.92322 0.4026 0.0
H1349 H 0.71926 0.88506 0.39572 0.0
H1350 H 0.96284 0.80831 0.42074 0.0
H1351 H 1.00002 0.82036 0.41442 0.0
H1352 H 0.9807 0.75552 0.39642 0.0
H1353 H 0.94364 0.74348 0.40295 0.0
H1354 H 0.02194 0.7773 0.41388 0.0
H1355 H 0.01367 0.82554 0.36793 0.0
H1356 H 0.0091 0.83206 0.38758 0.0
H1357 H 0.99084 0.80608 0.37717 0.0
C1358 C 0.96676 0.79662 0.4158 0.0
C1359 C 0.95063 0.77501 0.41241 0.0
C1360 C 0.98788 0.80352 0.41204 0.0
C1361 C 0.99304 0.78891 0.40468 0.0
C1362 C 0.97708 0.76708 0.40205 0.0
H1363 H 0.09676 0.81443 0.34602 0.0
H1364 H 0.06217 0.80347 0.35677 0.0
C1365 C 0.95598 0.7602 0.40583 0.0
C1366 C 0.01461 0.79644 0.39886 0.0
H1367 H 0.04775 0.82786 0.37239 0.0
C1368 C 0.02764 0.78841 0.40485 0.0
C1369 C 0.02184 0.81065 0.38687 0.0
C1370 C 0.0081 0.81897 0.37938 0.0
C1371 C 0.04779 0.79433 0.39926 0.0
C1372 C 0.05522 0.80891 0.38752 0.0
C1373 C 0.04212 0.81682 0.38147 0.0
C1374 C 0.07633 0.8158 0.38107 0.0
C1375 C 0.06067 0.7845 0.4057 0.0
C1376 C 0.09582 0.82672 0.39111 0.0
C1377 C 0.11562 0.83298 0.38501 0.0
C1378 C 0.11636 0.8286 0.3687 0.0
C1379 C 0.09682 0.81804 0.35862 0.0
C1380 C 0.07702 0.81175 0.36475 0.0
H1381 H 0.0504 0.76971 0.41138 0.0
H1382 H 0.06837 0.78049 0.39611 0.0
H1383 H 0.07369 0.7962 0.41483 0.0
H1384 H 0.09575 0.83046 0.40367 0.0
H1385 H 0.13033 0.84119 0.39314 0.0
H1386 H 0.26649 0.1939 0.37325 0.0
H1387 H 0.25129 0.21754 0.37001 0.0
H1388 H 0.22882 0.206 0.41653 0.0
H1389 H 0.24416 0.18231 0.41978 0.0
H1390 H 0.20585 0.20353 0.37162 0.0
H1391 H 0.26062 0.27281 0.41604 0.0
H1392 H 0.26818 0.25395 0.40812 0.0
H1393 H 0.24914 0.24643 0.42267 0.0
C1394 C 0.2586 0.19674 0.38286 0.0
C1395 C 0.25654 0.18662 0.39679 0.0
C1396 C 0.24989 0.21013 0.38099 0.0
C1397 C 0.2391 0.21361 0.39308 0.0
C1398 C 0.23738 0.20374 0.40718 0.0
H1399 H 0.17743 0.29227 0.39484 0.0
H1400 H 0.19047 0.26788 0.40178 0.0
C1401 C 0.24607 0.19026 0.40902 0.0
C1402 C 0.22865 0.22661 0.3904 0.0
H1403 H 0.23204 0.27439 0.40192 0.0
C1404 C 0.2115 0.219 0.37827 0.0
C1405 C 0.23597 0.24665 0.39922 0.0
C1406 C 0.25458 0.25562 0.4122 0.0
C1407 C 0.20159 0.23102 0.37457 0.0
C1408 C 0.20938 0.25141 0.383 0.0
C1409 C 0.22616 0.25878 0.39544 0.0
C1410 C 0.20093 0.26569 0.37867 0.0
C1411 C 0.18277 0.2217 0.36172 0.0
C1412 C 0.20265 0.27266 0.36341 0.0
C1413 C 0.19515 0.28651 0.35936 0.0
C1414 C 0.18598 0.29385 0.37058 0.0
C1415 C 0.18435 0.28689 0.3859 0.0
C1416 C 0.19182 0.27298 0.38991 0.0
H1417 H 0.17473 0.2039 0.35993 0.0
H1418 H 0.17053 0.22621 0.36463 0.0
H1419 H 0.18879 0.22799 0.35032 0.0
H1420 H 0.21008 0.26761 0.35466 0.0
H1421 H 0.19681 0.29165 0.3475 0.0
H1422 H 0.5948 0.51459 0.72118 0.0
H1423 H 0.63001 0.5397 0.71272 0.0
H1424 H 0.6617 0.53861 0.75744 0.0
H1425 H 0.62661 0.51284 0.76577 0.0
H1426 H 0.66221 0.58005 0.72557 0.0
H1427 H 0.69235 0.52244 0.72506 0.0
H1428 H 0.66428 0.51426 0.72654 0.0
H1429 H 0.68381 0.52652 0.7438 0.0
C1430 C 0.60927 0.51959 0.7292 0.0
C1431 C 0.6079 0.51148 0.74408 0.0
C1432 C 0.62937 0.53405 0.72437 0.0
C1433 C 0.6485 0.54067 0.73431 0.0
C1434 C 0.64716 0.53333 0.74944 0.0
H1435 H 0.78482 0.62504 0.7278 0.0
H1436 H 0.74906 0.60074 0.73573 0.0
C1437 C 0.62706 0.51882 0.75427 0.0
C1438 C 0.66984 0.55504 0.72873 0.0
H1439 H 0.71778 0.55844 0.72122 0.0
C1440 C 0.67433 0.57531 0.72455 0.0
C1441 C 0.68557 0.54874 0.7273 0.0
C1442 C 0.68124 0.52673 0.73076 0.0
C1443 C 0.69435 0.58965 0.71934 0.0
C1444 C 0.71015 0.58344 0.71813 0.0
C1445 C 0.70562 0.56314 0.7222 0.0
C1446 C 0.73173 0.59798 0.71303 0.0
C1447 C 0.69867 0.61153 0.71554 0.0
C1448 C 0.73385 0.60421 0.69753 0.0
C1449 C 0.75433 0.61808 0.6929 0.0
C1450 C 0.77303 0.62595 0.70371 0.0
C1451 C 0.77079 0.61937 0.71916 0.0
C1452 C 0.75036 0.60546 0.72374 0.0
H1453 H 0.6867 0.61543 0.72017 0.0
H1454 H 0.71519 0.62416 0.72062 0.0
H1455 H 0.69766 0.61192 0.70244 0.0
H1456 H 0.71967 0.59832 0.68902 0.0
H1457 H 0.75546 0.62278 0.68092 0.0
H1458 H 0.53928 0.15512 0.76305 0.0
H1459 H 0.50906 0.15924 0.75249 0.0
H1460 H 0.46704 0.09048 0.74798 0.0
H1461 H 0.4972 0.0863 0.75881 0.0
H1462 H 0.48546 0.14484 0.72393 0.0
H1463 H 0.43166 0.11032 0.77148 0.0
H1464 H 0.45968 0.11711 0.77352 0.0
H1465 H 0.43943 0.0925 0.76227 0.0
C1466 C 0.52359 0.14088 0.75981 0.0
C1467 C 0.52059 0.12038 0.76177 0.0
C1468 C 0.50633 0.14325 0.75381 0.0
C1469 C 0.4857 0.1252 0.74963 0.0
C1470 C 0.48266 0.10468 0.75148 0.0
H1471 H 0.38436 0.12993 0.6894 0.0
H1472 H 0.41247 0.12263 0.69987 0.0
C1473 C 0.49991 0.1023 0.75762 0.0
C1474 C 0.46763 0.12798 0.74295 0.0
H1475 H 0.41674 0.11809 0.74869 0.0
C1476 C 0.47043 0.13901 0.72935 0.0
C1477 C 0.44812 0.12057 0.75013 0.0
C1478 C 0.44456 0.10965 0.76524 0.0
C1479 C 0.45432 0.14285 0.72274 0.0
C1480 C 0.43459 0.13497 0.72968 0.0
C1481 C 0.43178 0.12395 0.74329 0.0
C1482 C 0.41698 0.13868 0.72337 0.0
C1483 C 0.45888 0.15588 0.70867 0.0
C1484 C 0.4096 0.14946 0.73324 0.0
C1485 C 0.39333 0.1534 0.72736 0.0
C1486 C 0.3841 0.14665 0.71146 0.0
C1487 C 0.39127 0.13555 0.70166 0.0
C1488 C 0.40744 0.13146 0.7076 0.0
H1489 H 0.47653 0.16555 0.70761 0.0
H1490 H 0.4511 0.14487 0.69759 0.0
H1491 H 0.45224 0.16689 0.70958 0.0
H1492 H 0.41666 0.15511 0.74547 0.0
H1493 H 0.38819 0.16197 0.73525 0.0
H1494 H 0.90174 0.40399 0.75509 0.0
H1495 H 0.89119 0.36704 0.74575 0.0
H1496 H 0.938 0.39033 0.7115 0.0
H1497 H 0.94822 0.42731 0.72056 0.0
H1498 H 0.90003 0.35809 0.69816 0.0
H1499 H 0.92252 0.33478 0.75433 0.0
H1500 H 0.90399 0.34442 0.75682 0.0
H1501 H 0.9307 0.36228 0.75147 0.0
C1502 C 0.90995 0.4012 0.74571 0.0
C1503 C 0.92585 0.41847 0.73858 0.0
C1504 C 0.90397 0.38011 0.74042 0.0
C1505 C 0.91408 0.37593 0.72812 0.0
C1506 C 0.93004 0.39318 0.72104 0.0
H1507 H 0.89992 0.25028 0.70502 0.0
H1508 H 0.91384 0.2883 0.71304 0.0
C1509 C 0.93585 0.41427 0.7262 0.0
C1510 C 0.9074 0.35354 0.72221 0.0
H1511 H 0.9002 0.30622 0.73412 0.0
C1512 C 0.90023 0.34678 0.70599 0.0
C1513 C 0.90798 0.33889 0.73239 0.0
C1514 C 0.91693 0.34551 0.74968 0.0
C1515 C 0.89317 0.32565 0.69973 0.0
C1516 C 0.89269 0.31072 0.71007 0.0
C1517 C 0.90031 0.3176 0.72622 0.0
C1518 C 0.88445 0.28788 0.70445 0.0
C1519 C 0.88665 0.31969 0.68207 0.0
C1520 C 0.86327 0.27496 0.69696 0.0
C1521 C 0.85535 0.25326 0.69218 0.0
C1522 C 0.86833 0.24399 0.69508 0.0
C1523 C 0.88949 0.25693 0.70263 0.0
C1524 C 0.89748 0.27867 0.70723 0.0
H1525 H 0.89424 0.33404 0.67536 0.0
H1526 H 0.89127 0.30798 0.67743 0.0
H1527 H 0.86881 0.31231 0.6797 0.0
H1528 H 0.8527 0.28156 0.69508 0.0
H1529 H 0.83889 0.24365 0.68655 0.0
H1530 H 0.15432 0.9408 0.60801 0.0
H1531 H 0.18282 0.97755 0.61712 0.0
H1532 H 0.20088 0.95518 0.65838 0.0
H1533 H 0.17325 0.91832 0.64896 0.0
H1534 H 0.18832 0.00246 0.64409 0.0
H1535 H 0.25871 0.99014 0.64166 0.0
H1536 H 0.23192 0.97048 0.63266 0.0
H1537 H 0.23901 0.9722 0.65369 0.0
C1538 C 0.16457 0.94364 0.6189 0.0
C1539 C 0.16154 0.92654 0.62769 0.0
C1540 C 0.18075 0.96468 0.62415 0.0
C1541 C 0.19424 0.96907 0.63828 0.0
C1542 C 0.19101 0.95212 0.64724 0.0
H1543 H 0.29059 0.08362 0.69631 0.0
H1544 H 0.26306 0.04723 0.68536 0.0
C1545 C 0.17494 0.93107 0.64195 0.0
C1546 C 0.21133 0.99143 0.64386 0.0
H1547 H 0.26559 0.02318 0.65527 0.0
C1548 C 0.20524 0.00703 0.6464 0.0
C1549 C 0.23343 0.99739 0.64681 0.0
C1550 C 0.24122 0.98172 0.64341 0.0
C1551 C 0.22057 0.02828 0.65219 0.0
C1552 C 0.2425 0.03405 0.65547 0.0
C1553 C 0.24868 0.01858 0.6528 0.0
C1554 C 0.25925 0.05607 0.6619 0.0
C1555 C 0.21322 0.04438 0.65511 0.0
C1556 C 0.26632 0.07297 0.65223 0.0
C1557 C 0.28215 0.09378 0.65839 0.0
C1558 C 0.29108 0.09802 0.67437 0.0
C1559 C 0.28399 0.08095 0.68398 0.0
C1560 C 0.2683 0.06014 0.67776 0.0
H1561 H 0.19527 0.03668 0.65406 0.0
H1562 H 0.21989 0.0532 0.66715 0.0
H1563 H 0.21946 0.05632 0.64629 0.0
H1564 H 0.2596 0.07004 0.63991 0.0
H1565 H 0.28725 0.10655 0.65067 0.0
H1566 H 0.0632 0.25278 0.61273 0.0
H1567 H 0.02783 0.24368 0.62144 0.0
H1568 H 0.02967 0.19653 0.64955 0.0
H1569 H 0.06461 0.20496 0.64058 0.0
H1570 H 0.98769 0.19914 0.61916 0.0
H1571 H 0.02048 0.23915 0.68069 0.0
H1572 H 0.03697 0.24609 0.66429 0.0
H1573 H 0.02981 0.22169 0.67311 0.0
C1574 C 0.05597 0.24026 0.62059 0.0
C1575 C 0.06686 0.22971 0.62603 0.0
C1576 C 0.03583 0.23519 0.62562 0.0
C1577 C 0.02634 0.21965 0.63628 0.0
C1578 C 0.03692 0.20881 0.6415 0.0
H1579 H 0.9115 0.17455 0.68684 0.0
H1580 H 0.94581 0.18176 0.67714 0.0
C1581 C 0.05694 0.21374 0.63641 0.0
C1582 C 0.00535 0.21468 0.64198 0.0
H1583 H 0.98243 0.2196 0.67498 0.0
C1584 C 0.98648 0.20365 0.63133 0.0
C1585 C 0.00391 0.22044 0.65791 0.0
C1586 C 0.02384 0.23262 0.66971 0.0
C1587 C 0.96606 0.19795 0.63626 0.0
C1588 C 0.96461 0.20399 0.65216 0.0
C1589 C 0.98354 0.21498 0.66281 0.0
C1590 C 0.94366 0.1994 0.65792 0.0
C1591 C 0.94623 0.18506 0.62447 0.0
C1592 C 0.9312 0.20718 0.65051 0.0
C1593 C 0.91155 0.20297 0.65594 0.0
C1594 C 0.90405 0.19113 0.66908 0.0
C1595 C 0.91675 0.18367 0.67668 0.0
C1596 C 0.93637 0.18778 0.67115 0.0
H1597 H 0.94931 0.17625 0.61473 0.0
H1598 H 0.93228 0.17329 0.63036 0.0
H1599 H 0.94169 0.19609 0.61901 0.0
H1600 H 0.93677 0.2167 0.64058 0.0
H1601 H 0.90234 0.20917 0.64988 0.0
H1602 H 0.77266 0.83103 0.62081 0.0
H1603 H 0.7829 0.80449 0.62739 0.0
H1604 H 0.75241 0.79648 0.67082 0.0
H1605 H 0.74127 0.82229 0.664 0.0
H1606 H 0.80917 0.80725 0.65331 0.0
H1607 H 0.72811 0.73478 0.65257 0.0
H1608 H 0.73202 0.75876 0.64418 0.0
H1609 H 0.73152 0.75723 0.66531 0.0
C1610 C 0.7677 0.82327 0.63159 0.0
C1611 C 0.75607 0.82873 0.64185 0.0
C1612 C 0.77372 0.80824 0.63539 0.0
C1613 C 0.76817 0.79831 0.64948 0.0
C1614 C 0.75648 0.80362 0.65972 0.0
H1615 H 0.80165 0.71649 0.70035 0.0
H1616 H 0.78901 0.74063 0.69188 0.0
C1617 C 0.75037 0.81858 0.6559 0.0
C1618 C 0.77566 0.78331 0.6539 0.0
H1619 H 0.7582 0.73248 0.66393 0.0
C1620 C 0.79802 0.79084 0.6555 0.0
C1621 C 0.76107 0.76193 0.65677 0.0
C1622 C 0.73683 0.7526 0.65447 0.0
C1623 C 0.80622 0.7777 0.66022 0.0
C1624 C 0.79165 0.75646 0.66328 0.0
C1625 C 0.7693 0.74885 0.66161 0.0
C1626 C 0.79935 0.74189 0.6683 0.0
C1627 C 0.83042 0.78675 0.66225 0.0
C1628 C 0.80917 0.73453 0.65777 0.0
C1629 C 0.81637 0.72071 0.66253 0.0
C1630 C 0.81387 0.71403 0.67794 0.0
C1631 C 0.80394 0.72141 0.68844 0.0
C1632 C 0.79665 0.73515 0.68362 0.0
H1633 H 0.8395 0.80453 0.66247 0.0
H1634 H 0.8354 0.78225 0.67342 0.0
H1635 H 0.83511 0.77996 0.65217 0.0
H1636 H 0.81114 0.73939 0.64582 0.0
H1637 H 0.82387 0.71527 0.65412 0.0
H1638 H 0.06278 0.85055 0.65879 0.0
H1639 H 0.02576 0.82706 0.66531 0.0
H1640 H 0.01782 0.77839 0.62908 0.0
H1641 H 0.05513 0.80186 0.62278 0.0
H1642 H 0.98559 0.80761 0.64764 0.0
H1643 H 0.0046 0.74682 0.66899 0.0
H1644 H 0.02536 0.77312 0.66501 0.0
H1645 H 0.01016 0.75249 0.64889 0.0
C1646 C 0.05297 0.83492 0.65212 0.0
C1647 C 0.06155 0.82786 0.64032 0.0
C1648 C 0.03189 0.82153 0.65585 0.0
C1649 C 0.01915 0.80084 0.64787 0.0
C1650 C 0.02752 0.79413 0.6356 0.0
H1651 H 0.89241 0.69432 0.6588 0.0
H1652 H 0.92732 0.71924 0.65008 0.0
C1653 C 0.04868 0.80754 0.63191 0.0
C1654 C 0.99746 0.78617 0.65282 0.0
H1655 H 0.96803 0.73828 0.66811 0.0
C1656 C 0.98173 0.79245 0.65213 0.0
C1657 C 0.99253 0.76648 0.6588 0.0
C1658 C 0.00909 0.75936 0.66063 0.0
C1659 C 0.96108 0.77939 0.65699 0.0
C1660 C 0.95616 0.75968 0.66288 0.0
C1661 C 0.97187 0.75341 0.66357 0.0
C1662 C 0.93467 0.74504 0.66811 0.0
C1663 C 0.94455 0.78656 0.65548 0.0
C1664 C 0.92725 0.75124 0.68125 0.0
C1665 C 0.9072 0.73696 0.68635 0.0
C1666 C 0.89429 0.71621 0.67841 0.0
C1667 C 0.90187 0.71014 0.66525 0.0
C1668 C 0.92186 0.72437 0.6602 0.0
H1669 H 0.94914 0.79952 0.6475 0.0
H1670 H 0.92833 0.77288 0.65086 0.0
H1671 H 0.94326 0.7928 0.66741 0.0
H1672 H 0.93708 0.76702 0.68769 0.0
H1673 H 0.90188 0.74215 0.69653 0.0
H1674 H 0.19249 0.25056 0.62406 0.0
H1675 H 0.21876 0.238 0.62727 0.0
H1676 H 0.17679 0.19012 0.65642 0.0
H1677 H 0.15055 0.20235 0.65293 0.0
H1678 H 0.24012 0.23856 0.65508 0.0
H1679 H 0.1923 0.15485 0.62727 0.0
H1680 H 0.1841 0.17448 0.62426 0.0
H1681 H 0.17825 0.16052 0.64189 0.0
C1682 C 0.18881 0.23706 0.63084 0.0
C1683 C 0.16958 0.22717 0.63813 0.0
C1684 C 0.20377 0.22995 0.63271 0.0
C1685 C 0.19957 0.21285 0.64185 0.0
C1686 C 0.18013 0.20289 0.64895 0.0
H1687 H 0.26681 0.15794 0.68931 0.0
H1688 H 0.24141 0.16852 0.67837 0.0
C1689 C 0.16521 0.20995 0.64704 0.0
C1690 C 0.21618 0.20654 0.64521 0.0
H1691 H 0.22333 0.1631 0.64548 0.0
C1692 C 0.23659 0.22214 0.65273 0.0
C1693 C 0.21154 0.18509 0.64216 0.0
C1694 C 0.19042 0.16784 0.6333 0.0
C1695 C 0.25211 0.21669 0.65795 0.0
C1696 C 0.24715 0.19511 0.65543 0.0
C1697 C 0.22701 0.17961 0.64749 0.0
C1698 C 0.26235 0.18818 0.66151 0.0
C1699 C 0.27337 0.23388 0.6667 0.0
C1700 C 0.2824 0.19548 0.65548 0.0
C1701 C 0.29698 0.18948 0.66169 0.0
C1702 C 0.29175 0.17603 0.67407 0.0
C1703 C 0.27143 0.1684 0.67985 0.0
C1704 C 0.25686 0.17439 0.67359 0.0
H1705 H 0.27304 0.24876 0.67029 0.0
H1706 H 0.27748 0.22803 0.6775 0.0
H1707 H 0.28646 0.238 0.65884 0.0
H1708 H 0.2868 0.20588 0.64598 0.0
H1709 H 0.31239 0.1955 0.65684 0.0
H1710 H 0.77078 0.93925 0.63514 0.0
H1711 H 0.78257 0.97782 0.63737 0.0
H1712 H 0.76064 0.97317 0.68409 0.0
H1713 H 0.74899 0.93479 0.68188 0.0
H1714 H 0.75827 0.0002 0.64471 0.0
H1715 H 0.82664 0.0195 0.69018 0.0
H1716 H 0.81277 0.99457 0.67739 0.0
H1717 H 0.80058 -0.00159 0.69425 0.0
C1718 C 0.76826 0.94653 0.64574 0.0
C1719 C 0.75905 0.93437 0.65835 0.0
C1720 C 0.77497 0.96844 0.64702 0.0
C1721 C 0.7727 0.9783 0.66098 0.0
C1722 C 0.76275 0.96586 0.67332 0.0
H1723 H 0.81236 0.10713 0.69978 0.0
H1724 H 0.79791 0.06848 0.69466 0.0
C1725 C 0.75602 0.94401 0.67202 0.0
C1726 C 0.78146 0.00175 0.663 0.0
H1727 H 0.8196 0.04758 0.68539 0.0
C1728 C 0.77175 0.01064 0.65352 0.0
C1729 C 0.79904 0.01521 0.67451 0.0
C1730 C 0.81054 0.00654 0.6846 0.0
C1731 C 0.77882 0.03268 0.65558 0.0
C1732 C 0.79631 0.04613 0.66721 0.0
C1733 C 0.80615 0.03722 0.67653 0.0
C1734 C 0.8046 0.06949 0.67004 0.0
C1735 C 0.76712 0.04126 0.64563 0.0
C1736 C 0.81336 0.08288 0.65794 0.0
C1737 C 0.82158 0.10498 0.66081 0.0
C1738 C 0.82136 0.11409 0.67589 0.0
C1739 C 0.81276 0.10064 0.68803 0.0
C1740 C 0.80448 0.07854 0.68513 0.0
H1741 H 0.75086 0.02827 0.64036 0.0
H1742 H 0.76518 0.05344 0.65282 0.0
H1743 H 0.77672 0.04905 0.63574 0.0
H1744 H 0.81407 0.07628 0.64632 0.0
H1745 H 0.82823 0.1149 0.65122 0.0
H1746 H 0.52445 0.39075 0.71691 0.0
H1747 H 0.49702 0.35263 0.71575 0.0
H1748 H 0.46043 0.36845 0.74699 0.0
H1749 H 0.48787 0.4068 0.74792 0.0
H1750 H 0.48158 0.3253 0.73966 0.0
H1751 H 0.41634 0.33454 0.70828 0.0
H1752 H 0.44444 0.35542 0.71025 0.0
H1753 H 0.42873 0.35097 0.72684 0.0
C1754 C 0.51059 0.38599 0.7236 0.0
C1755 C 0.50805 0.40142 0.73247 0.0
C1756 C 0.49498 0.36429 0.72295 0.0
C1757 C 0.47655 0.35774 0.73111 0.0
C1758 C 0.47434 0.37321 0.74039 0.0
H1759 H 0.36308 0.22865 0.72553 0.0
H1760 H 0.38965 0.26633 0.73397 0.0
C1761 C 0.49 0.395 0.741 0.0
C1762 C 0.45959 0.33474 0.72947 0.0
H1763 H 0.40744 0.2997 0.71393 0.0
C1764 C 0.46531 0.3197 0.73414 0.0
C1765 C 0.43839 0.3275 0.72226 0.0
C1766 C 0.43155 0.34288 0.71648 0.0
C1767 C 0.4505 0.29757 0.73159 0.0
C1768 C 0.42953 0.29032 0.72398 0.0
C1769 C 0.42356 0.30535 0.71976 0.0
C1770 C 0.4139 0.26723 0.71949 0.0
C1771 C 0.45744 0.28212 0.737 0.0
C1772 C 0.41871 0.25533 0.70848 0.0
C1773 C 0.40358 0.23383 0.70358 0.0
C1774 C 0.38328 0.22384 0.70957 0.0
C1775 C 0.37857 0.23581 0.72069 0.0
C1776 C 0.39371 0.25734 0.72554 0.0
H1777 H 0.4714 0.29001 0.74638 0.0
H1778 H 0.44389 0.26814 0.74165 0.0
H1779 H 0.4625 0.27606 0.72672 0.0
H1780 H 0.43405 0.26279 0.70343 0.0
H1781 H 0.40773 0.22514 0.69497 0.0
H1782 H 0.61393 0.1118 0.73499 0.0
H1783 H 0.64631 0.11406 0.72474 0.0
H1784 H 0.68597 0.15784 0.76563 0.0
H1785 H 0.65353 0.15544 0.77589 0.0
H1786 H 0.68035 0.15317 0.71731 0.0
H1787 H 0.71032 0.11692 0.76107 0.0
H1788 H 0.68287 0.11198 0.75951 0.0
H1789 H 0.70457 0.13666 0.76965 0.0
C1790 C 0.62951 0.12132 0.742 0.0
C1791 C 0.63138 0.1332 0.75629 0.0
C1792 C 0.64797 0.12271 0.73612 0.0
C1793 C 0.66854 0.13596 0.74448 0.0
C1794 C 0.67024 0.14718 0.75913 0.0
H1795 H 0.80143 0.18489 0.72513 0.0
H1796 H 0.76766 0.17573 0.73642 0.0
C1797 C 0.65175 0.14581 0.76499 0.0
C1798 C 0.6883 0.13992 0.73706 0.0
H1799 H 0.73438 0.13681 0.74239 0.0
C1800 C 0.69208 0.1494 0.7227 0.0
C1801 C 0.70365 0.13518 0.74421 0.0
C1802 C 0.70014 0.12446 0.75939 0.0
C1803 C 0.71103 0.15477 0.71547 0.0
C1804 C 0.72643 0.15005 0.72259 0.0
C1805 C 0.72257 0.1404 0.73691 0.0
C1806 C 0.74686 0.15543 0.71558 0.0
C1807 C 0.71471 0.16613 0.70056 0.0
C1808 C 0.74645 0.14697 0.70011 0.0
C1809 C 0.76579 0.15229 0.69355 0.0
C1810 C 0.78592 0.16596 0.70242 0.0
C1811 C 0.78625 0.17425 0.71797 0.0
C1812 C 0.76693 0.16902 0.72446 0.0
H1813 H 0.70454 0.17373 0.69915 0.0
H1814 H 0.73197 0.17872 0.70061 0.0
H1815 H 0.71032 0.15431 0.69004 0.0
H1816 H 0.73116 0.13607 0.69315 0.0
H1817 H 0.76493 0.14542 0.68163 0.0
H1818 H 0.89532 0.49528 0.7065 0.0
H1819 H 0.8802 0.51902 0.70348 0.0
H1820 H 0.92611 0.56316 0.742 0.0
H1821 H 0.94145 0.53944 0.74485 0.0
H1822 H 0.86181 0.53456 0.72502 0.0
H1823 H 0.93669 0.60058 0.70511 0.0
H1824 H 0.9324 0.57383 0.70612 0.0
H1825 H 0.94041 0.59191 0.72395 0.0
C1826 C 0.90203 0.51002 0.71436 0.0
C1827 C 0.91948 0.51577 0.72584 0.0
C1828 C 0.89341 0.52351 0.71265 0.0
C1829 C 0.90224 0.54297 0.72237 0.0
C1830 C 0.91934 0.54839 0.73421 0.0
H1831 H 0.87592 0.64795 0.72258 0.0
H1832 H 0.88845 0.62313 0.72898 0.0
C1833 C 0.92799 0.53486 0.73589 0.0
C1834 C 0.8938 0.55771 0.71975 0.0
H1835 H 0.90797 0.60729 0.70842 0.0
C1836 C 0.87188 0.55048 0.72141 0.0
C1837 C 0.90698 0.57841 0.71496 0.0
C1838 C 0.93038 0.58664 0.71228 0.0
C1839 C 0.86283 0.56351 0.71855 0.0
C1840 C 0.87601 0.58415 0.7137 0.0
C1841 C 0.89794 0.59144 0.71216 0.0
C1842 C 0.86743 0.59854 0.71015 0.0
C1843 C 0.83935 0.55523 0.72093 0.0
C1844 C 0.85148 0.59293 0.69737 0.0
C1845 C 0.84425 0.60712 0.69362 0.0
C1846 C 0.85296 0.6272 0.70256 0.0
C1847 C 0.86885 0.63265 0.71542 0.0
C1848 C 0.87606 0.61849 0.71912 0.0
H1849 H 0.83297 0.54143 0.72823 0.0
H1850 H 0.83716 0.56809 0.72678 0.0
H1851 H 0.82953 0.54976 0.70917 0.0
H1852 H 0.8449 0.57775 0.69013 0.0
H1853 H 0.83205 0.60245 0.68363 0.0
H1854 H 0.43854 0.94139 0.25222 0.0
H1855 H 0.44892 0.95565 0.22668 0.0
H1856 H 0.47479 0.91377 0.21776 0.0
H1857 H 0.46404 0.89905 0.24321 0.0
H1858 H 0.49123 0.97612 0.2163 0.0
H1859 H 0.43358 0.90208 0.17709 0.0
H1860 H 0.43049 0.90578 0.19785 0.0
H1861 H 0.45035 0.89902 0.19224 0.0
C1862 C 0.4462 0.935 0.24475 0.0
C1863 C 0.45029 0.91894 0.24971 0.0
C1864 C 0.45225 0.94328 0.2302 0.0
C1865 C 0.46238 0.93559 0.22023 0.0
C1866 C 0.46669 0.91971 0.22517 0.0
H1867 H 0.50549 0.96699 0.12611 0.0
H1868 H 0.49692 0.95159 0.15152 0.0
C1869 C 0.46072 0.91145 0.23977 0.0
C1870 C 0.46872 0.94456 0.20481 0.0
H1871 H 0.45828 0.93177 0.16452 0.0
C1872 C 0.48404 0.96644 0.20497 0.0
C1873 C 0.45939 0.93187 0.19006 0.0
C1874 C 0.44241 0.90841 0.18919 0.0
C1875 C 0.49037 0.97597 0.19078 0.0
C1876 C 0.48074 0.96338 0.17599 0.0
C1877 C 0.46562 0.94142 0.17585 0.0
C1878 C 0.48589 0.97276 0.16056 0.0
C1879 C 0.5076 -0.00064 0.19177 0.0
C1880 C 0.48221 0.98956 0.15706 0.0
C1881 C 0.4871 -0.0016 0.14256 0.0
C1882 C 0.49554 0.99046 0.13115 0.0
C1883 C 0.49885 0.97337 0.13458 0.0
C1884 C 0.49405 0.96461 0.14912 0.0
H1885 H 0.51767 0.00487 0.20345 0.0
H1886 H 0.5184 0.00238 0.18219 0.0
H1887 H 0.49972 0.00919 0.19041 0.0
H1888 H 0.47538 0.99574 0.16551 0.0
H1889 H 0.48395 0.01125 0.14019 0.0
H1890 H 0.04536 0.49324 0.26303 0.0
H1891 H 0.03435 0.4918 0.23485 0.0
H1892 H 0.07439 0.56061 0.23682 0.0
H1893 H 0.08585 0.56217 0.26508 0.0
H1894 H 0.01394 0.51379 0.22073 0.0
H1895 H 0.09388 0.5365 0.19918 0.0
H1896 H 0.0872 0.52709 0.21849 0.0
H1897 H 0.09357 0.55385 0.21517 0.0
C1898 C 0.05198 0.50806 0.25744 0.0
C1899 C 0.06665 0.5278 0.26622 0.0
C1900 C 0.04557 0.50722 0.24138 0.0
C1901 C 0.05376 0.52605 0.23374 0.0
C1902 C 0.06812 0.54586 0.24248 0.0
H1903 H 0.03179 0.53693 0.13244 0.0
H1904 H 0.04474 0.54535 0.16087 0.0
C1905 C 0.0745 0.54674 0.25862 0.0
C1906 C 0.04706 0.5247 0.21661 0.0
H1907 H 0.06523 0.52914 0.17989 0.0
C1908 C 0.02516 0.51727 0.21179 0.0
C1909 C 0.06179 0.52938 0.20503 0.0
C1910 C 0.08542 0.53703 0.20962 0.0
C1911 C 0.01749 0.51409 0.19564 0.0
C1912 C 0.03205 0.51799 0.184 0.0
C1913 C 0.0541 0.52607 0.18884 0.0
C1914 C 0.02451 0.5129 0.16676 0.0
C1915 C 0.99387 0.50663 0.19119 0.0
C1916 C 0.00924 0.49179 0.16062 0.0
C1917 C 0.00186 0.48693 0.14443 0.0
C1918 C 0.00977 0.50307 0.13401 0.0
C1919 C 0.02549 0.52412 0.14014 0.0
C1920 C 0.03282 0.52898 0.15637 0.0
H1921 H 0.98663 0.51063 0.20113 0.0
H1922 H 0.99166 0.51396 0.18056 0.0
H1923 H 0.98482 0.48893 0.18839 0.0
H1924 H 0.00306 0.47902 0.16835 0.0
H1925 H 0.99008 0.47049 0.14004 0.0
H1926 H 0.50079 0.54788 0.25433 0.0
H1927 H 0.50291 0.53789 0.22677 0.0
H1928 H 0.43328 0.4988 0.2194 0.0
H1929 H 0.43098 0.50907 0.24714 0.0
H1930 H 0.48617 0.49496 0.21125 0.0
H1931 H 0.45027 0.53977 0.18308 0.0
H1932 H 0.46092 0.54555 0.2038 0.0
H1933 H 0.43547 0.52179 0.19737 0.0
C1934 C 0.48587 0.53735 0.24683 0.0
C1935 C 0.46568 0.52952 0.25286 0.0
C1936 C 0.48713 0.53152 0.23111 0.0
C1937 C 0.46826 0.51781 0.22101 0.0
C1938 C 0.44803 0.50963 0.22697 0.0
H1939 H 0.46561 0.48824 0.1183 0.0
H1940 H 0.45397 0.48817 0.14494 0.0
C1941 C 0.44674 0.51539 0.24282 0.0
C1942 C 0.47017 0.51227 0.20427 0.0
H1943 H 0.46331 0.52281 0.16617 0.0
C1944 C 0.48096 0.50083 0.20136 0.0
C1945 C 0.46326 0.51986 0.1914 0.0
C1946 C 0.45193 0.53254 0.19395 0.0
C1947 C 0.48551 0.49723 0.18596 0.0
C1948 C 0.47955 0.50573 0.17318 0.0
C1949 C 0.46795 0.51639 0.17599 0.0
C1950 C 0.48645 0.50497 0.15708 0.0
C1951 C 0.49679 0.48446 0.18355 0.0
C1952 C 0.50857 0.51463 0.15503 0.0
C1953 C 0.51527 0.51475 0.13986 0.0
C1954 C 0.49999 0.50537 0.12635 0.0
C1955 C 0.47781 0.49573 0.12843 0.0
C1956 C 0.47112 0.4956 0.14364 0.0
H1957 H 0.49391 0.4735 0.19298 0.0
H1958 H 0.49126 0.47481 0.17177 0.0
H1959 H 0.51451 0.49565 0.18415 0.0
H1960 H 0.52073 0.5225 0.16516 0.0
H1961 H 0.53247 0.52274 0.13869 0.0
H1962 H 0.96876 0.46451 0.78515 0.0
H1963 H 0.97898 0.47671 0.81346 0.0
H1964 H 0.93865 0.50553 0.81172 0.0
H1965 H 0.928 0.493 0.78321 0.0
H1966 H 0.99872 0.52052 0.82866 0.0
H1967 H 0.91804 0.46469 0.84814 0.0
H1968 H 0.92555 0.46023 0.82892 0.0
H1969 H 0.91913 0.48107 0.83255 0.0
C1970 C 0.9619 0.4733 0.79079 0.0
C1971 C 0.94735 0.47756 0.782 0.0
C1972 C 0.9679 0.48039 0.80694 0.0
C1973 C 0.95941 0.49182 0.81469 0.0
C1974 C 0.94519 0.49652 0.80595 0.0
H1975 H 0.97931 0.5205 0.91907 0.0
H1976 H 0.96797 0.52037 0.89107 0.0
C1977 C 0.93923 0.48948 0.78969 0.0
C1978 C 0.96551 0.49842 0.83198 0.0
H1979 H 0.94673 0.48499 0.86811 0.0
C1980 C 0.9873 0.51302 0.83731 0.0
C1981 C 0.95053 0.48869 0.8432 0.0
C1982 C 0.92699 0.4727 0.83803 0.0
C1983 C 0.99471 0.51753 0.85358 0.0
C1984 C 0.98 0.50681 0.86476 0.0
C1985 C 0.95797 0.49311 0.8595 0.0
C1986 C 0.98751 0.50797 0.88172 0.0
C1987 C 0.0183 0.53344 0.85861 0.0
C1988 C 0.00203 0.50081 0.88571 0.0
C1989 C 0.00841 0.50073 0.90162 0.0
C1990 C 1.00033 0.50771 0.91393 0.0
C1991 C 0.98575 0.5149 0.90989 0.0
C1992 C 0.97933 0.51494 0.89392 0.0
H1993 H 0.02551 0.54511 0.84969 0.0
H1994 H 0.0205 0.54244 0.87032 0.0
H1995 H 0.02738 0.5247 0.85966 0.0
H1996 H 0.00807 0.49479 0.8765 0.0
H1997 H 0.01922 0.49458 0.90425 0.0
H1998 H 0.52157 0.46828 0.77746 0.0
H1999 H 0.51201 0.47131 0.80437 0.0
H2000 H 0.57775 0.49323 0.82353 0.0
H2001 H 0.58742 0.49001 0.7967 0.0
H2002 H 0.51595 0.45176 0.83192 0.0
H2003 H 0.56596 0.54078 0.84078 0.0
H2004 H 0.55902 0.52583 0.82142 0.0
H2005 H 0.58015 0.52719 0.83496 0.0
C2006 C 0.53395 0.47349 0.7874 0.0
C2007 C 0.55531 0.47903 0.78489 0.0
C2008 C 0.52848 0.47532 0.80277 0.0
C2009 C 0.54425 0.48282 0.8159 0.0
C2010 C 0.56544 0.48784 0.81351 0.0
H2011 H 0.54299 0.51291 0.91673 0.0
H2012 H 0.5528 0.5066 0.89061 0.0
C2013 C 0.57093 0.48601 0.79817 0.0
C2014 C 0.53855 0.48555 0.83209 0.0
H2015 H 0.54915 0.52325 0.86289 0.0
C2016 C 0.52316 0.46738 0.8387 0.0
C2017 C 0.54804 0.50594 0.8409 0.0
C2018 C 0.56408 0.52611 0.83415 0.0
C2019 C 0.5172 0.46903 0.854 0.0
C2020 C 0.52656 0.48946 0.86277 0.0
C2021 C 0.54202 0.5076 0.85617 0.0
C2022 C 0.52033 0.49248 0.87871 0.0
C2023 C 0.50126 0.44882 0.86075 0.0
C2024 C 0.49884 0.48677 0.88069 0.0
C2025 C 0.49314 0.49019 0.89563 0.0
C2026 C 0.50886 0.49957 0.90891 0.0
C2027 C 0.53041 0.50535 0.90685 0.0
C2028 C 0.53608 0.50189 0.8919 0.0
H2029 H 0.50042 0.43433 0.85466 0.0
H2030 H 0.50562 0.44957 0.87369 0.0
H2031 H 0.48487 0.44695 0.85905 0.0
H2032 H 0.48649 0.47989 0.87063 0.0
H2033 H 0.47637 0.48537 0.89679 0.0
H2034 H 0.5825 0.11445 0.81326 0.0
H2035 H 0.57608 0.09639 0.83765 0.0
H2036 H 0.51433 0.04559 0.81528 0.0
H2037 H 0.5209 0.06321 0.79077 0.0
H2038 H 0.54218 0.08867 0.85523 0.0
H2039 H 0.53886 0.01208 0.83679 0.0
H2040 H 0.55034 0.0348 0.82525 0.0
H2041 H 0.52145 0.01734 0.82394 0.0
C2042 C 0.56785 0.09912 0.81338 0.0
C2043 C 0.5522 0.09028 0.80006 0.0
C2044 C 0.56413 0.0889 0.82737 0.0
C2045 C 0.5448 0.06955 0.82828 0.0
C2046 C 0.52953 0.06029 0.81481 0.0
H2047 H 0.47627 0.99133 0.9016 0.0
H2048 H 0.4885 0.00757 0.87692 0.0
C2049 C 0.53322 0.0705 0.80084 0.0
C2050 C 0.53968 0.06006 0.84366 0.0
H2051 H 0.52459 0.01389 0.86128 0.0
C2052 C 0.53859 0.07241 0.85662 0.0
C2053 C 0.53485 0.03878 0.84542 0.0
C2054 C 0.53662 0.02503 0.83216 0.0
C2055 C 0.53219 0.06388 0.87113 0.0
C2056 C 0.52709 0.04252 0.87283 0.0
C2057 C 0.52845 0.03024 0.85994 0.0
C2058 C 0.51997 0.03253 0.88781 0.0
C2059 C 0.53024 0.07759 0.88434 0.0
C2060 C 0.5337 0.04099 0.9021 0.0
C2061 C 0.52678 0.03173 0.91622 0.0
C2062 C 0.50601 0.01369 0.91634 0.0
C2063 C 0.49241 0.00508 0.90194 0.0
C2064 C 0.49935 0.01438 0.88782 0.0
H2065 H 0.52953 0.09145 0.87987 0.0
H2066 H 0.51553 0.06801 0.8904 0.0
H2067 H 0.54459 0.08399 0.89328 0.0
H2068 H 0.54985 0.0547 0.90231 0.0
H2069 H 0.53783 0.03851 0.92702 0.0
H2070 H 0.15268 0.27892 0.59354 0.0
H2071 H 0.16131 0.29177 0.56738 0.0
H2072 H 0.09856 0.24118 0.54647 0.0
H2073 H 0.08984 0.22803 0.57257 0.0
H2074 H 0.16201 0.27068 0.53812 0.0
H2075 H 0.10048 0.29638 0.53371 0.0
H2076 H 0.10903 0.2901 0.55218 0.0
H2077 H 0.09029 0.26889 0.53745 0.0
C2078 C 0.14081 0.27029 0.58335 0.0
C2079 C 0.12049 0.2525 0.5852 0.0
C2080 C 0.14574 0.27775 0.56841 0.0
C2081 C 0.13044 0.26766 0.55503 0.0
C2082 C 0.11043 0.24948 0.5567 0.0
H2083 H 0.12939 0.299 0.45712 0.0
H2084 H 0.12068 0.28197 0.48188 0.0
C2085 C 0.10548 0.242 0.57163 0.0
C2086 C 0.13533 0.27644 0.53941 0.0
H2087 H 0.11961 0.29958 0.51133 0.0
C2088 C 0.15276 0.27701 0.53225 0.0
C2089 C 0.12321 0.28466 0.53178 0.0
C2090 C 0.10481 0.28519 0.53919 0.0
C2091 C 0.15828 0.28539 0.51756 0.0
C2092 C 0.14631 0.29383 0.51001 0.0
C2093 C 0.12876 0.29309 0.51712 0.0
C2094 C 0.15192 0.30386 0.49486 0.0
C2095 C 0.17664 0.28478 0.51015 0.0
C2096 C 0.17231 0.32196 0.49396 0.0
C2097 C 0.1774 0.33165 0.47979 0.0
C2098 C 0.16214 0.32354 0.46623 0.0
C2099 C 0.14166 0.30549 0.46723 0.0
C2100 C 0.13659 0.2958 0.48141 0.0
H2101 H 0.17993 0.27254 0.51495 0.0
H2102 H 0.17306 0.28123 0.49702 0.0
H2103 H 0.19159 0.30067 0.51286 0.0
H2104 H 0.18425 0.32874 0.50428 0.0
H2105 H 0.19339 0.34539 0.47944 0.0
H2106 H 0.75379 0.89748 0.60131 0.0
H2107 H 0.74217 0.89721 0.57328 0.0
H2108 H 0.69631 0.82944 0.57137 0.0
H2109 H 0.7076 0.82965 0.59926 0.0
H2110 H 0.7439 0.871 0.54711 0.0
H2111 H 0.66029 0.85473 0.55222 0.0
H2112 H 0.68082 0.86497 0.56903 0.0
H2113 H 0.66658 0.83684 0.56214 0.0
C2114 C 0.741 0.88263 0.59494 0.0
C2115 C 0.73163 0.86357 0.60242 0.0
C2116 C 0.73446 0.88248 0.57896 0.0
C2117 C 0.71824 0.86335 0.57034 0.0
C2118 C 0.70863 0.84443 0.57788 0.0
H2119 H 0.65648 0.80849 0.4768 0.0
H2120 H 0.66966 0.81764 0.50508 0.0
C2121 C 0.71523 0.84454 0.59377 0.0
C2122 C 0.71206 0.86262 0.55319 0.0
H2123 H 0.6684 0.84815 0.52621 0.0
C2124 C 0.7275 0.86635 0.5425 0.0
C2125 C 0.69064 0.85652 0.54728 0.0
C2126 C 0.67366 0.85322 0.55826 0.0
C2127 C 0.72179 0.86306 0.52597 0.0
C2128 C 0.70016 0.85622 0.52005 0.0
C2129 C 0.68494 0.85327 0.53078 0.0
C2130 C 0.69265 0.85095 0.50282 0.0
C2131 C 0.73868 0.86593 0.515 0.0
C2132 C 0.70117 0.86668 0.49217 0.0
C2133 C 0.69366 0.86149 0.47597 0.0
C2134 C 0.67734 0.84052 0.47017 0.0
C2135 C 0.66887 0.82484 0.4809 0.0
C2136 C 0.67643 0.83002 0.49706 0.0
H2137 H 0.75311 0.86667 0.52144 0.0
H2138 H 0.73185 0.8526 0.50528 0.0
H2139 H 0.74413 0.88117 0.50952 0.0
H2140 H 0.7134 0.88303 0.49641 0.0
H2141 H 0.70027 0.87399 0.46804 0.0
H2142 H 0.12665 0.83993 0.58824 0.0
H2143 H 0.13098 0.83129 0.56072 0.0
H2144 H 0.12625 0.88536 0.54645 0.0
H2145 H 0.12191 0.89409 0.5739 0.0
H2146 H 0.10255 0.84188 0.52451 0.0
H2147 H 0.19078 0.87683 0.54281 0.0
H2148 H 0.17185 0.85779 0.55487 0.0
H2149 H 0.17393 0.88353 0.55407 0.0
C2150 C 0.12593 0.84961 0.57915 0.0
C2151 C 0.12404 0.86774 0.58321 0.0
C2152 C 0.12853 0.84474 0.56348 0.0
C2153 C 0.1291 0.85781 0.55164 0.0
C2154 C 0.12587 0.87511 0.55545 0.0
H2155 H 0.1831 0.88062 0.46154 0.0
H2156 H 0.17078 0.88312 0.48756 0.0
C2157 C 0.12345 0.8801 0.57112 0.0
C2158 C 0.13502 0.85472 0.53567 0.0
H2159 H 0.17849 0.8636 0.51591 0.0
C2160 C 0.11909 0.84647 0.5226 0.0
C2161 C 0.15669 0.861 0.53326 0.0
C2162 C 0.17443 0.87041 0.54692 0.0
C2163 C 0.12431 0.84423 0.50712 0.0
C2164 C 0.14598 0.85048 0.50475 0.0
C2165 C 0.16189 0.85879 0.51782 0.0
C2166 C 0.15258 0.8488 0.48874 0.0
C2167 C 0.10679 0.83561 0.49336 0.0
C2168 C 0.14647 0.82867 0.48087 0.0
C2169 C 0.15357 0.8272 0.46607 0.0
C2170 C 0.16684 0.84584 0.45885 0.0
C2171 C 0.17274 0.86598 0.46672 0.0
C2172 C 0.16579 0.86744 0.48159 0.0
H2173 H 0.09159 0.83456 0.49684 0.0
H2174 H 0.11236 0.84596 0.48347 0.0
H2175 H 0.10315 0.8193 0.48881 0.0
H2176 H 0.13644 0.81413 0.48627 0.0
H2177 H 0.14859 0.81146 0.46023 0.0
H2178 H 0.62813 0.78996 0.11999 0.0
H2179 H 0.63749 0.79933 0.14857 0.0
H2180 H 0.61433 0.84424 0.14691 0.0
H2181 H 0.60382 0.8341 0.11823 0.0
H2182 H 0.66576 0.83748 0.16495 0.0
H2183 H 0.5828 0.80918 0.1823 0.0
H2184 H 0.58763 0.80258 0.16266 0.0
H2185 H 0.5914 0.82874 0.16814 0.0
C2186 C 0.6246 0.80154 0.1257 0.0
C2187 C 0.61487 0.811 0.11681 0.0
C2188 C 0.6302 0.80706 0.14204 0.0
C2189 C 0.62635 0.82226 0.14994 0.0
C2190 C 0.61706 0.83214 0.14112 0.0
H2191 H 0.68583 0.86863 0.24893 0.0
H2192 H 0.67529 0.86843 0.22076 0.0
C2193 C 0.61128 0.8265 0.1247 0.0
C2194 C 0.6324 0.82769 0.16737 0.0
H2195 H 0.61145 0.82449 0.20294 0.0
C2196 C 0.65393 0.83482 0.17328 0.0
C2197 C 0.61689 0.82402 0.17818 0.0
C2198 C 0.59334 0.81554 0.17257 0.0
C2199 C 0.66026 0.83773 0.18967 0.0
C2200 C 0.64474 0.834 0.20051 0.0
C2201 C 0.62334 0.82747 0.19461 0.0
C2202 C 0.64997 0.83502 0.2179 0.0
C2203 C 0.68326 0.84371 0.19517 0.0
C2204 C 0.63863 0.81662 0.22583 0.0
C2205 C 0.64441 0.81679 0.24193 0.0
C2206 C 0.66173 0.83536 0.25042 0.0
C2207 C 0.67263 0.854 0.24261 0.0
C2208 C 0.66667 0.85388 0.22652 0.0
H2209 H 0.69148 0.8409 0.18538 0.0
H2210 H 0.69265 0.86102 0.19955 0.0
H2211 H 0.68368 0.83439 0.20505 0.0
H2212 H 0.62568 0.80189 0.21942 0.0
H2213 H 0.63582 0.80214 0.24759 0.0
H2214 H 0.25267 0.81874 0.12897 0.0
H2215 H 0.2436 0.82214 0.156 0.0
H2216 H 0.17812 0.80221 0.13744 0.0
H2217 H 0.18706 0.79899 0.1104 0.0
H2218 H 0.22858 0.8489 0.1677 0.0
H2219 H 0.16934 0.76344 0.17312 0.0
H2220 H 0.18766 0.77167 0.15787 0.0
H2221 H 0.16353 0.77359 0.15572 0.0
C2222 C 0.23633 0.81507 0.13063 0.0
C2223 C 0.22059 0.80855 0.11749 0.0
C2224 C 0.23115 0.81693 0.14609 0.0
C2225 C 0.21011 0.81216 0.14876 0.0
C2226 C 0.19433 0.80551 0.13571 0.0
H2227 H 0.14612 0.82106 0.22996 0.0
H2228 H 0.156 0.81551 0.2037 0.0
C2229 C 0.19948 0.80366 0.12024 0.0
C2230 C 0.20496 0.81516 0.16511 0.0
H2231 H 0.17163 0.78906 0.19327 0.0
C2232 C 0.21625 0.83579 0.17335 0.0
C2233 C 0.18881 0.79805 0.17243 0.0
C2234 C 0.17675 0.77539 0.16441 0.0
C2235 C 0.21147 0.8399 0.18856 0.0
C2236 C 0.19523 0.82281 0.19586 0.0
C2237 C 0.18405 0.80214 0.18766 0.0
C2238 C 0.18938 0.82612 0.2119 0.0
C2239 C 0.2234 0.86262 0.19647 0.0
C2240 C 0.20479 0.83367 0.22529 0.0
C2241 C 0.19925 0.83706 0.24031 0.0
C2242 C 0.17811 0.83281 0.24228 0.0
C2243 C 0.16263 0.82487 0.22886 0.0
C2244 C 0.1682 0.82152 0.21385 0.0
H2245 H 0.23108 0.87451 0.18777 0.0
H2246 H 0.21232 0.86643 0.2027 0.0
H2247 H 0.23641 0.86448 0.20541 0.0
H2248 H 0.22113 0.83695 0.22413 0.0
H2249 H 0.21163 0.84331 0.25034 0.0
H2250 H 0.17481 0.39901 0.12865 0.0
H2251 H 0.1717 0.38636 0.15494 0.0
H2252 H 0.2413 0.41746 0.16356 0.0
H2253 H 0.24463 0.43096 0.13727 0.0
H2254 H 0.18518 0.36016 0.16707 0.0
H2255 H 0.22518 0.43948 0.20316 0.0
H2256 H 0.21661 0.43624 0.18217 0.0
H2257 H 0.24094 0.43613 0.18873 0.0
C2258 C 0.18954 0.40352 0.1362 0.0
C2259 C 0.21001 0.41635 0.13092 0.0
C2260 C 0.1877 0.39608 0.1512 0.0
C2261 C 0.20625 0.4012 0.16134 0.0
C2262 C 0.22676 0.41365 0.15606 0.0
H2263 H 0.19465 0.33336 0.24626 0.0
H2264 H 0.20495 0.34841 0.22093 0.0
C2265 C 0.22863 0.42118 0.14097 0.0
C2266 C 0.20371 0.39305 0.17726 0.0
H2267 H 0.21328 0.40885 0.21719 0.0
C2268 C 0.19145 0.37079 0.17804 0.0
C2269 C 0.21167 0.40697 0.19156 0.0
C2270 C 0.22419 0.43105 0.19146 0.0
C2271 C 0.18666 0.36207 0.19265 0.0
C2272 C 0.19473 0.37597 0.20696 0.0
C2273 C 0.20721 0.39823 0.20622 0.0
C2274 C 0.18959 0.36771 0.22276 0.0
C2275 C 0.17229 0.3381 0.19259 0.0
C2276 C 0.17816 0.37409 0.23248 0.0
C2277 C 0.17233 0.36558 0.24701 0.0
C2278 C 0.17782 0.35051 0.25211 0.0
C2279 C 0.18977 0.34458 0.24252 0.0
C2280 C 0.19568 0.35318 0.22804 0.0
H2281 H 0.16315 0.33045 0.18073 0.0
H2282 H 0.18247 0.3309 0.19559 0.0
H2283 H 0.16053 0.33423 0.20156 0.0
H2284 H 0.17333 0.38532 0.22866 0.0
H2285 H 0.16305 0.3704 0.25406 0.0
H2286 H 0.77216 0.60874 0.91904 0.0
H2287 H 0.78372 0.62314 0.89374 0.0
H2288 H 0.81182 0.58283 0.88684 0.0
H2289 H 0.79978 0.56787 0.91202 0.0
H2290 H 0.82623 0.64482 0.88473 0.0
H2291 H 0.7731 0.56997 0.84482 0.0
H2292 H 0.76863 0.57316 0.86531 0.0
H2293 H 0.78977 0.56784 0.8606 0.0
C2294 C 0.78054 0.60269 0.91206 0.0
C2295 C 0.78485 0.58698 0.91751 0.0
C2296 C 0.78728 0.61107 0.89765 0.0
C2297 C 0.79837 0.60387 0.8883 0.0
C2298 C 0.80296 0.58837 0.89374 0.0
H2299 H 0.84525 0.63869 0.79523 0.0
H2300 H 0.83682 0.62277 0.82049 0.0
C2301 C 0.79625 0.57999 0.90821 0.0
C2302 C 0.80542 0.61298 0.87302 0.0
H2303 H 0.79742 0.60035 0.83271 0.0
C2304 C 0.81997 0.63509 0.87336 0.0
C2305 C 0.79733 0.60024 0.8582 0.0
C2306 C 0.78121 0.57651 0.8571 0.0
C2307 C 0.8266 0.64484 0.85928 0.0
C2308 C 0.81809 0.63222 0.84442 0.0
C2309 C 0.80389 0.61002 0.8441 0.0
C2310 C 0.82322 0.64187 0.82909 0.0
C2311 C 0.84286 0.66855 0.86049 0.0
C2312 C 0.81805 0.65764 0.8254 0.0
C2313 C 0.82281 0.66674 0.81099 0.0
C2314 C 0.83269 0.66013 0.79986 0.0
C2315 C 0.83752 0.64406 0.80348 0.0
C2316 C 0.8328 0.635 0.81793 0.0
H2317 H 0.85246 0.67439 0.87235 0.0
H2318 H 0.85417 0.6723 0.8512 0.0
H2319 H 0.83414 0.67755 0.8588 0.0
H2320 H 0.81011 0.66278 0.83362 0.0
H2321 H 0.81843 0.67872 0.80847 0.0
H2322 H 0.42375 0.23364 0.93439 0.0
H2323 H 0.4111 0.23278 0.90653 0.0
H2324 H 0.36737 0.16458 0.90501 0.0
H2325 H 0.37963 0.16536 0.93276 0.0
H2326 H 0.41287 0.20736 0.87986 0.0
H2327 H 0.32871 0.18777 0.88724 0.0
H2328 H 0.34988 0.19854 0.90363 0.0
H2329 H 0.33639 0.17048 0.89661 0.0
C2330 C 0.41123 0.21854 0.92815 0.0
C2331 C 0.40272 0.19956 0.93573 0.0
C2332 C 0.40411 0.21806 0.91225 0.0
C2333 C 0.38813 0.19866 0.90379 0.0
C2334 C 0.37947 0.17977 0.9114 0.0
H2335 H 0.32416 0.1434 0.81076 0.0
H2336 H 0.33791 0.15266 0.83892 0.0
C2337 C 0.38665 0.18021 0.9272 0.0
C2338 C 0.38111 0.19772 0.88677 0.0
H2339 H 0.33618 0.18214 0.86082 0.0
C2340 C 0.39619 0.20217 0.87567 0.0
C2341 C 0.35933 0.19094 0.88139 0.0
C2342 C 0.34266 0.18684 0.89284 0.0
C2343 C 0.38984 0.19897 0.85923 0.0
C2344 C 0.36789 0.19149 0.85383 0.0
C2345 C 0.35298 0.18777 0.86498 0.0
C2346 C 0.35975 0.18627 0.83669 0.0
C2347 C 0.40643 0.20265 0.84778 0.0
C2348 C 0.36735 0.20214 0.82609 0.0
C2349 C 0.35948 0.1969 0.80995 0.0
C2350 C 0.34372 0.17571 0.80415 0.0
C2351 C 0.33607 0.15992 0.81485 0.0
C2352 C 0.34398 0.16516 0.83095 0.0
H2353 H 0.42134 0.20388 0.85378 0.0
H2354 H 0.39964 0.18945 0.83796 0.0
H2355 H 0.41108 0.21788 0.84248 0.0
H2356 H 0.37922 0.21862 0.83033 0.0
H2357 H 0.36547 0.20948 0.80206 0.0
H2358 H 0.79058 0.16472 0.92202 0.0
H2359 H 0.79344 0.15418 0.8946 0.0
H2360 H 0.79549 0.2112 0.87956 0.0
H2361 H 0.79242 0.22174 0.90687 0.0
H2362 H 0.7684 0.17043 0.85817 0.0
H2363 H 0.85306 0.18961 0.8755 0.0
H2364 H 0.83247 0.17186 0.88718 0.0
H2365 H 0.83928 0.19941 0.88763 0.0
C2366 C 0.79113 0.17475 0.9128 0.0
C2367 C 0.79143 0.19414 0.91661 0.0
C2368 C 0.79294 0.1688 0.89718 0.0
C2369 C 0.79496 0.18207 0.88513 0.0
C2370 C 0.79404 0.2008 0.88872 0.0
H2371 H 0.82065 0.19353 0.78704 0.0
H2372 H 0.80842 0.19422 0.81325 0.0
C2373 C 0.79238 0.20683 0.90432 0.0
C2374 C 0.79951 0.17731 0.86901 0.0
H2375 H 0.83954 0.17802 0.84864 0.0
C2376 C 0.78388 0.17192 0.85606 0.0
C2377 C 0.8197 0.17924 0.86634 0.0
C2378 C 0.83722 0.18547 0.87983 0.0
C2379 C 0.78794 0.16846 0.84044 0.0
C2380 C 0.80842 0.17106 0.83768 0.0
C2381 C 0.82385 0.17602 0.85073 0.0
C2382 C 0.81463 0.16966 0.82139 0.0
C2383 C 0.77016 0.16185 0.82708 0.0
C2384 C 0.82272 0.15602 0.8173 0.0
C2385 C 0.83001 0.15581 0.80236 0.0
C2386 C 0.82931 0.16922 0.79118 0.0
C2387 C 0.82101 0.18271 0.79525 0.0
C2388 C 0.81392 0.18305 0.81023 0.0
H2389 H 0.75391 0.1537 0.83148 0.0
H2390 H 0.77213 0.17637 0.8218 0.0
H2391 H 0.77071 0.15092 0.81759 0.0
H2392 H 0.82356 0.14564 0.82573 0.0
H2393 H 0.8362 0.14516 0.79955 0.0
H2394 H 0.30075 0.16843 0.45136 0.0
H2395 H 0.31079 0.17638 0.48021 0.0
H2396 H 0.25092 0.12013 0.48781 0.0
H2397 H 0.24085 0.11204 0.45904 0.0
H2398 H 0.29037 0.18211 0.50669 0.0
H2399 H 0.29828 0.10935 0.50779 0.0
H2400 H 0.29617 0.12028 0.48955 0.0
H2401 H 0.27237 0.10438 0.49926 0.0
C2402 C 0.28954 0.15803 0.4592 0.0
C2403 C 0.27015 0.13947 0.45296 0.0
C2404 C 0.29532 0.16254 0.47566 0.0
C2405 C 0.2818 0.14858 0.48609 0.0
C2406 C 0.2618 0.13083 0.47993 0.0
H2407 H 0.29711 0.13604 0.58673 0.0
H2408 H 0.28298 0.13297 0.55904 0.0
C2409 C 0.25606 0.12626 0.46352 0.0
C2410 C 0.28918 0.15172 0.50329 0.0
H2411 H 0.30224 0.12827 0.53263 0.0
C2412 C 0.293 0.17038 0.51239 0.0
C2413 C 0.29269 0.13641 0.51065 0.0
C2414 C 0.28987 0.11656 0.50131 0.0
C2415 C 0.29987 0.17394 0.52877 0.0
C2416 C 0.30329 0.15857 0.53611 0.0
C2417 C 0.29947 0.13995 0.52699 0.0
C2418 C 0.31122 0.16155 0.55319 0.0
C2419 C 0.30306 0.1939 0.53813 0.0
C2420 C 0.3318 0.17863 0.55907 0.0
C2421 C 0.3399 0.18048 0.57491 0.0
C2422 C 0.3276 0.16519 0.58515 0.0
C2423 C 0.30688 0.14824 0.57924 0.0
C2424 C 0.29882 0.14639 0.5634 0.0
H2425 H 0.29448 0.20107 0.53182 0.0
H2426 H 0.29722 0.19037 0.55005 0.0
H2427 H 0.3206 0.20602 0.53986 0.0
H2428 H 0.34181 0.19028 0.55132 0.0
H2429 H 0.35583 0.19383 0.57912 0.0
H2430 H 0.90242 0.17711 0.45193 0.0
H2431 H 0.89201 0.18022 0.47852 0.0
H2432 H 0.86404 0.11199 0.4802 0.0
H2433 H 0.87474 0.10876 0.45367 0.0
H2434 H 0.8489 0.15836 0.48832 0.0
H2435 H 0.90532 0.13917 0.5222 0.0
H2436 H 0.90901 0.14718 0.50227 0.0
H2437 H 0.88873 0.12043 0.50539 0.0
C2438 C 0.89428 0.16279 0.45803 0.0
C2439 C 0.88955 0.1427 0.45072 0.0
C2440 C 0.88823 0.16458 0.47317 0.0
C2441 C 0.87748 0.14638 0.4814 0.0
C2442 C 0.87259 0.12628 0.47414 0.0
H2443 H 0.83344 0.13163 0.57627 0.0
H2444 H 0.84231 0.12558 0.54967 0.0
C2445 C 0.87855 0.12444 0.45893 0.0
C2446 C 0.87104 0.14851 0.49743 0.0
H2447 H 0.88087 0.14433 0.53672 0.0
C2448 C 0.85587 0.1553 0.49892 0.0
C2449 C 0.88007 0.14436 0.5112 0.0
C2450 C 0.89681 0.13753 0.51031 0.0
C2451 C 0.84941 0.15798 0.5138 0.0
C2452 C 0.85878 0.1543 0.52765 0.0
C2453 C 0.87374 0.14721 0.52612 0.0
C2454 C 0.85355 0.15804 0.54383 0.0
C2455 C 0.83231 0.16438 0.5145 0.0
C2456 C 0.85727 0.17838 0.54953 0.0
C2457 C 0.85219 0.18186 0.56469 0.0
C2458 C 0.84351 0.16514 0.57459 0.0
C2459 C 0.84023 0.14489 0.56899 0.0
C2460 C 0.84521 0.14138 0.55377 0.0
H2461 H 0.82231 0.16028 0.50288 0.0
H2462 H 0.82141 0.15641 0.52375 0.0
H2463 H 0.8403 0.18201 0.51749 0.0
H2464 H 0.86427 0.19165 0.54227 0.0
H2465 H 0.85533 0.19776 0.56876 0.0
H2466 H 0.88267 0.72514 0.45779 0.0
H2467 H 0.87789 0.71164 0.48405 0.0
H2468 H 0.88004 0.76917 0.5039 0.0
H2469 H 0.88423 0.78243 0.47761 0.0
H2470 H 0.90037 0.72531 0.5134 0.0
H2471 H 0.82213 0.72359 0.51519 0.0
H2472 H 0.83597 0.7283 0.49749 0.0
H2473 H 0.84427 0.74978 0.51303 0.0
C2474 C 0.88247 0.73504 0.46783 0.0
C2475 C 0.8836 0.75474 0.46565 0.0
C2476 C 0.87965 0.72728 0.48281 0.0
C2477 C 0.878 0.73911 0.49588 0.0
C2478 C 0.88057 0.75943 0.49391 0.0
H2479 H 0.85708 0.71685 0.59481 0.0
H2480 H 0.8674 0.73258 0.56972 0.0
C2481 C 0.88313 0.76707 0.47892 0.0
C2482 C 0.87276 0.72987 0.51137 0.0
H2483 H 0.83612 0.71648 0.53881 0.0
C2484 C 0.88629 0.72333 0.51892 0.0
C2485 C 0.85425 0.72707 0.51853 0.0
C2486 C 0.83819 0.73234 0.51058 0.0
C2487 C 0.882 0.71446 0.53355 0.0
C2488 C 0.86375 0.71206 0.54078 0.0
C2489 C 0.85021 0.71854 0.53326 0.0
C2490 C 0.85816 0.70253 0.55606 0.0
C2491 C 0.89707 0.70788 0.54133 0.0
C2492 C 0.84938 0.68038 0.55663 0.0
C2493 C 0.84309 0.67123 0.57089 0.0
C2494 C 0.84554 0.68408 0.58492 0.0
C2495 C 0.85458 0.70635 0.58426 0.0
C2496 C 0.86068 0.71544 0.56995 0.0
H2497 H 0.91211 0.71349 0.53535 0.0
H2498 H 0.90154 0.71438 0.55406 0.0
H2499 H 0.88867 0.69011 0.54083 0.0
H2500 H 0.84703 0.67011 0.54596 0.0
H2501 H 0.83586 0.654 0.57082 0.0
loop_
_geom_bond_atom_site_label_1
_geom_bond_atom_site_label_2
_geom_bond_distance
_geom_bond_site_symmetry_2
_ccdc_geom_bond_type
H0 C3 0.929 . S
H1 C6 0.929 . S
H2 C8 0.930 . S
C3 H0 0.929 . S
C3 C4 1.398 . S
C3 C5 1.396 . S
C4 C3 1.398 . S
C4 C8 1.407 . S
C5 C3 1.396 . S
C5 C6 1.394 . S
C6 H1 0.929 . S
C6 C5 1.394 . S
C6 C7 1.382 . S
C7 C6 1.382 . S
C7 C8 1.392 . S
C7 N9 1.420 . S
C8 H2 0.930 . S
C8 C4 1.407 . S
C8 C7 1.392 . S
N9 C7 1.420 . S
N9 C10 1.244 . S
C10 N9 1.244 . S
H11 C14 0.929 . S
H12 C17 0.929 . S
H13 C19 0.930 . S
C14 H11 0.929 . S
C14 C15 1.398 . S
C14 C16 1.396 . S
C15 C14 1.398 . S
C15 C19 1.407 . S
C16 C14 1.396 . S
C16 C17 1.394 . S
C17 H12 0.929 . S
C17 C16 1.394 . S
C17 C18 1.382 . S
C18 C17 1.382 . S
C18 C19 1.392 . S
C18 N20 1.420 . S
C19 H13 0.930 . S
C19 C15 1.407 . S
C19 C18 1.392 . S
N20 C18 1.420 . S
N20 C21 1.244 . S
C21 N20 1.244 . S
H22 C25 0.929 . S
H23 C28 0.929 . S
H24 C30 0.930 . S
C25 H22 0.929 . S
C25 C26 1.398 . S
C25 C27 1.396 . S
C26 C25 1.398 . S
C26 C30 1.407 . S
C27 C25 1.396 . S
C27 C28 1.394 . S
C28 H23 0.929 . S
C28 C27 1.394 . S
C28 C29 1.382 . S
C29 C28 1.382 . S
C29 C30 1.392 . S
C29 N31 1.420 . S
C30 H24 0.930 . S
C30 C26 1.407 . S
C30 C29 1.392 . S
N31 C29 1.420 . S
N31 C32 1.244 . S
C32 N31 1.244 . S
H33 C36 0.929 . S
H34 C39 0.929 . S
H35 C41 0.930 . S
C36 H33 0.929 . S
C36 C37 1.398 . S
C36 C38 1.396 . S
C37 C36 1.398 . S
C37 C41 1.407 . S
C38 C36 1.396 . S
C38 C39 1.394 . S
C39 H34 0.929 . S
C39 C38 1.394 . S
C39 C40 1.382 . S
C40 C39 1.382 . S
C40 C41 1.392 . S
C40 N42 1.420 . S
C41 H35 0.930 . S
C41 C37 1.407 . S
C41 C40 1.392 . S
N42 C40 1.420 . S
N42 C43 1.244 . S
C43 N42 1.244 . S
H44 C47 0.929 . S
H45 C50 0.929 . S
H46 C52 0.930 . S
C47 H44 0.929 . S
C47 C48 1.398 . S
C47 C49 1.396 . S
C48 C47 1.398 . S
C48 C52 1.407 . S
C49 C47 1.396 . S
C49 C50 1.394 . S
C50 H45 0.929 . S
C50 C49 1.394 . S
C50 C51 1.382 . S
C51 C50 1.382 . S
C51 C52 1.392 . S
C51 N53 1.420 . S
C52 H46 0.930 . S
C52 C48 1.407 . S
C52 C51 1.392 . S
N53 C51 1.420 . S
N53 C54 1.244 . S
C54 N53 1.244 . S
H55 C58 0.929 . S
H56 C61 0.929 . S
H57 C63 0.930 . S
C58 H55 0.929 . S
C58 C59 1.398 . S
C58 C60 1.396 . S
C59 C58 1.398 . S
C59 C63 1.407 . S
C60 C58 1.396 . S
C60 C61 1.394 . S
C61 H56 0.929 . S
C61 C60 1.394 . S
C61 C62 1.382 . S
C62 C61 1.382 . S
C62 C63 1.392 . S
C62 N64 1.420 . S
C63 H57 0.930 . S
C63 C59 1.407 . S
C63 C62 1.392 . S
N64 C62 1.420 . S
N64 C65 1.244 . S
C65 N64 1.244 . S
H66 C69 0.929 . S
H67 C72 0.929 . S
H68 C74 0.930 . S
C69 H66 0.929 . S
C69 C70 1.398 . S
C69 C71 1.396 . S
C70 C69 1.398 . S
C70 C74 1.407 . S
C71 C69 1.396 . S
C71 C72 1.394 . S
C72 H67 0.929 . S
C72 C71 1.394 . S
C72 C73 1.382 . S
C73 C72 1.382 . S
C73 C74 1.392 . S
C73 N75 1.420 . S
C74 H68 0.930 . S
C74 C70 1.407 . S
C74 C73 1.392 . S
N75 C73 1.420 . S
N75 C76 1.244 . S
C76 N75 1.244 . S
H77 C80 0.929 . S
H78 C83 0.929 . S
H79 C85 0.930 . S
C80 H77 0.929 . S
C80 C81 1.398 . S
C80 C82 1.396 . S
C81 C80 1.398 . S
C81 C85 1.407 . S
C82 C80 1.396 . S
C82 C83 1.394 . S
C83 H78 0.929 . S
C83 C82 1.394 . S
C83 C84 1.382 . S
C84 C83 1.382 . S
C84 C85 1.392 . S
C84 N86 1.420 . S
C85 H79 0.930 . S
C85 C81 1.407 . S
C85 C84 1.392 . S
N86 C84 1.420 . S
N86 C87 1.244 . S
C87 N86 1.244 . S
H88 C91 0.929 . S
H89 C94 0.929 . S
H90 C96 0.930 . S
C91 H88 0.929 . S
C91 C92 1.398 . S
C91 C93 1.396 . S
C92 C91 1.398 . S
C92 C96 1.407 . S
C93 C91 1.396 . S
C93 C94 1.394 . S
C94 H89 0.929 . S
C94 C93 1.394 . S
C94 C95 1.382 . S
C95 C94 1.382 . S
C95 C96 1.392 . S
C95 N97 1.420 . S
C96 H90 0.930 . S
C96 C92 1.407 . S
C96 C95 1.392 . S
N97 C95 1.420 . S
N97 C98 1.244 . S
C98 N97 1.244 . S
H99 C102 0.929 . S
H100 C105 0.929 . S
H101 C107 0.930 . S
C102 H99 0.929 . S
C102 C103 1.398 . S
C102 C104 1.396 . S
C103 C102 1.398 . S
C103 C107 1.407 . S
C104 C102 1.396 . S
C104 C105 1.394 . S
C105 H100 0.929 . S
C105 C104 1.394 . S
C105 C106 1.382 . S
C106 C105 1.382 . S
C106 C107 1.392 . S
C106 N108 1.420 . S
C107 H101 0.930 . S
C107 C103 1.407 . S
C107 C106 1.392 . S
N108 C106 1.420 . S
N108 C109 1.244 . S
C109 N108 1.244 . S
H110 C113 0.929 . S
H111 C116 0.929 . S
H112 C118 0.930 . S
C113 H110 0.929 . S
C113 C114 1.398 . S
C113 C115 1.396 . S
C114 C113 1.398 . S
C114 C118 1.407 . S
C115 C113 1.396 . S
C115 C116 1.394 . S
C116 H111 0.929 . S
C116 C115 1.394 . S
C116 C117 1.382 . S
C117 C116 1.382 . S
C117 C118 1.392 . S
C117 N119 1.420 . S
C118 H112 0.930 . S
C118 C114 1.407 . S
C118 C117 1.392 . S
N119 C117 1.420 . S
N119 C120 1.244 . S
C120 N119 1.244 . S
H121 C124 0.929 . S
H122 C127 0.929 . S
H123 C129 0.930 . S
C124 H121 0.929 . S
C124 C125 1.398 . S
C124 C126 1.396 . S
C125 C124 1.398 . S
C125 C129 1.407 . S
C126 C124 1.396 . S
C126 C127 1.394 . S
C127 H122 0.929 . S
C127 C126 1.394 . S
C127 C128 1.382 . S
C128 C127 1.382 . S
C128 C129 1.392 . S
C128 N130 1.420 . S
C129 H123 0.930 . S
C129 C125 1.407 . S
C129 C128 1.392 . S
N130 C128 1.420 . S
N130 C131 1.244 . S
C131 N130 1.244 . S
H132 C135 0.929 . S
H133 C138 0.929 . S
H134 C140 0.930 . S
C135 H132 0.929 . S
C135 C136 1.398 . S
C135 C137 1.396 . S
C136 C135 1.398 . S
C136 C140 1.407 . S
C137 C135 1.396 . S
C137 C138 1.394 . S
C138 H133 0.929 . S
C138 C137 1.394 . S
C138 C139 1.382 . S
C139 C138 1.382 . S
C139 C140 1.392 . S
C139 N141 1.420 . S
C140 H134 0.930 . S
C140 C136 1.407 . S
C140 C139 1.392 . S
N141 C139 1.420 . S
N141 C142 1.244 . S
C142 N141 1.244 . S
H143 C146 0.929 . S
H144 C149 0.929 . S
H145 C151 0.930 . S
C146 H143 0.929 . S
C146 C147 1.398 . S
C146 C148 1.396 . S
C147 C146 1.398 . S
C147 C151 1.407 . S
C148 C146 1.396 . S
C148 C149 1.394 . S
C149 H144 0.929 . S
C149 C148 1.394 . S
C149 C150 1.382 . S
C150 C149 1.382 . S
C150 C151 1.392 . S
C150 N152 1.420 . S
C151 H145 0.930 . S
C151 C147 1.407 . S
C151 C150 1.392 . S
N152 C150 1.420 . S
N152 C153 1.244 . S
C153 N152 1.244 . S
H154 C157 0.929 . S
H155 C160 0.929 . S
H156 C162 0.930 . S
C157 H154 0.929 . S
C157 C158 1.398 . S
C157 C159 1.396 . S
C158 C157 1.398 . S
C158 C162 1.407 . S
C159 C157 1.396 . S
C159 C160 1.394 . S
C160 H155 0.929 . S
C160 C159 1.394 . S
C160 C161 1.382 . S
C161 C160 1.382 . S
C161 C162 1.392 . S
C161 N163 1.420 . S
C162 H156 0.930 . S
C162 C158 1.407 . S
C162 C161 1.392 . S
N163 C161 1.420 . S
N163 C164 1.244 . S
C164 N163 1.244 . S
H165 C168 0.929 . S
H166 C171 0.929 . S
H167 C173 0.930 . S
C168 H165 0.929 . S
C168 C169 1.398 . S
C168 C170 1.396 . S
C169 C168 1.398 . S
C169 C173 1.407 . S
C170 C168 1.396 . S
C170 C171 1.394 . S
C171 H166 0.929 . S
C171 C170 1.394 . S
C171 C172 1.382 . S
C172 C171 1.382 . S
C172 C173 1.392 . S
C172 N174 1.420 . S
C173 H167 0.930 . S
C173 C169 1.407 . S
C173 C172 1.392 . S
N174 C172 1.420 . S
N174 C175 1.244 . S
C175 N174 1.244 . S
H176 C179 0.929 . S
H177 C182 0.929 . S
H178 C184 0.930 . S
C179 H176 0.929 . S
C179 C180 1.398 . S
C179 C181 1.396 . S
C180 C179 1.398 . S
C180 C184 1.407 . S
C181 C179 1.396 . S
C181 C182 1.394 . S
C182 H177 0.929 . S
C182 C181 1.394 . S
C182 C183 1.382 . S
C183 C182 1.382 . S
C183 C184 1.392 . S
C183 N185 1.420 . S
C184 H178 0.930 . S
C184 C180 1.407 . S
C184 C183 1.392 . S
N185 C183 1.420 . S
N185 C186 1.244 . S
C186 N185 1.244 . S
H187 C190 0.929 . S
H188 C193 0.929 . S
H189 C195 0.930 . S
C190 H187 0.929 . S
C190 C191 1.398 . S
C190 C192 1.396 . S
C191 C190 1.398 . S
C191 C195 1.407 . S
C192 C190 1.396 . S
C192 C193 1.394 . S
C193 H188 0.929 . S
C193 C192 1.394 . S
C193 C194 1.382 . S
C194 C193 1.382 . S
C194 C195 1.392 . S
C194 N196 1.420 . S
C195 H189 0.930 . S
C195 C191 1.407 . S
C195 C194 1.392 . S
N196 C194 1.420 . S
N196 C197 1.244 . S
C197 N196 1.244 . S
Tb198 C208 2.825 1_565 S
Tb198 O209 2.347 1_566 S
Tb198 O212 2.366 1_565 S
Tb198 O217 2.418 . S
Tb198 O218 2.384 1_556 S
Tb198 O221 2.479 . S
Tb198 O222 2.471 1_565 S
Eu199 O210 2.418 . S
Eu199 O211 2.384 . S
Eu199 O214 2.479 . S
Eu199 O215 2.471 1_545 S
Eu199 O216 2.347 1_545 S
Eu199 O219 2.366 1_545 S
Eu199 C229 2.825 . S
C200 O216 1.259 . S
C200 O217 1.265 1_554 S
C201 O218 1.255 . S
C201 O219 1.265 . S
C202 C204 1.380 . S
C202 C205 1.374 . S
C202 C208 1.507 . S
C203 C204 1.384 . S
C203 C207 1.387 . S
C203 H230 0.937 . S
C204 C202 1.380 . S
C204 C203 1.384 . S
C204 H231 0.931 1_545 S
C205 C202 1.374 . S
C205 C206 1.390 . S
C205 H232 0.930 . S
C206 C205 1.390 . S
C206 C207 1.391 . S
C206 H233 0.930 . S
C207 C203 1.387 . S
C207 C206 1.391 . S
C208 Tb198 2.825 1_545 S
C208 C202 1.507 . S
C208 O221 1.238 1_545 S
C208 O222 1.247 . S
O209 Tb198 2.347 1_544 S
O209 C213 1.259 . S
O210 Eu199 2.418 . S
O210 C213 1.265 . S
O211 Eu199 2.384 . S
O211 C220 1.255 . S
O212 Tb198 2.366 1_545 S
O212 C220 1.265 1_556 S
C213 O209 1.259 . S
C213 O210 1.265 . S
O214 Eu199 2.479 . S
O214 C229 1.238 . S
O215 Eu199 2.471 1_565 S
O215 C229 1.247 1_565 S
O216 Eu199 2.347 1_565 S
O216 C200 1.259 . S
O217 Tb198 2.418 . S
O217 C200 1.265 1_556 S
O218 Tb198 2.384 1_554 S
O218 C201 1.255 . S
O219 Eu199 2.366 1_565 S
O219 C201 1.265 . S
C220 O211 1.255 . S
C220 O212 1.265 1_554 S
O221 Tb198 2.479 . S
O221 C208 1.238 1_565 S
O222 Tb198 2.471 1_545 S
O222 C208 1.247 . S
C223 C226 1.380 1_565 S
C223 C227 1.374 . S
C223 C229 1.507 1_565 S
C224 C225 1.387 1_565 S
C224 C228 1.391 . S
C225 C224 1.387 1_545 S
C225 C226 1.384 . S
C225 H234 0.930 . S
C226 C223 1.380 1_545 S
C226 C225 1.384 . S
C226 H235 0.931 . S
C227 C223 1.374 . S
C227 C228 1.390 . S
C227 H236 0.930 . S
C228 C224 1.391 . S
C228 C227 1.390 . S
C228 H237 0.930 . S
C229 Eu199 2.825 . S
C229 O214 1.238 . S
C229 O215 1.247 1_545 S
C229 C223 1.507 1_545 S
H230 C203 0.937 . S
H231 C204 0.931 1_565 S
H232 C205 0.930 . S
H233 C206 0.930 . S
H234 C225 0.930 . S
H235 C226 0.931 . S
H236 C227 0.930 . S
H237 C228 0.930 . S
Tb238 C248 2.825 . S
Tb238 O249 2.347 1_456 S
Tb238 O252 2.366 1_455 S
Tb238 O257 2.418 . S
Tb238 O258 2.384 1_556 S
Tb238 O261 2.479 . S
Tb238 O262 2.471 1_455 S
Eu239 O250 2.418 . S
Eu239 O251 2.384 . S
Eu239 O254 2.479 . S
Eu239 O255 2.471 1_655 S
Eu239 O256 2.347 1_655 S
Eu239 O259 2.366 1_655 S
Eu239 C269 2.825 1_655 S
C240 O256 1.259 . S
C240 O257 1.265 1_554 S
C241 O258 1.255 . S
C241 O259 1.265 . S
C242 C244 1.380 1_655 S
C242 C245 1.374 . S
C242 C248 1.507 1_655 S
C243 C244 1.384 1_655 S
C243 C247 1.387 . S
C243 H270 0.930 1_655 S
C244 C242 1.380 1_455 S
C244 C243 1.384 1_455 S
C244 H271 0.931 . S
C245 C242 1.374 . S
C245 C246 1.390 . S
C245 H272 0.930 . S
C246 C245 1.390 . S
C246 C247 1.391 . S
C246 H273 0.930 . S
C247 C243 1.387 . S
C247 C246 1.391 . S
C248 Tb238 2.825 . S
C248 C242 1.507 1_455 S
C248 O261 1.238 . S
C248 O262 1.247 1_455 S
O249 Tb238 2.347 1_654 S
O249 C253 1.259 . S
O250 Eu239 2.418 . S
O250 C253 1.265 . S
O251 Eu239 2.384 . S
O251 C260 1.255 1_554 S
O252 Tb238 2.366 1_655 S
O252 C260 1.265 . S
C253 O249 1.259 . S
C253 O250 1.265 . S
O254 Eu239 2.479 . S
O254 C269 1.238 1_655 S
O255 Eu239 2.471 1_455 S
O255 C269 1.247 . S
O256 Eu239 2.347 1_455 S
O256 C240 1.259 . S
O257 Tb238 2.418 . S
O257 C240 1.265 1_556 S
O258 Tb238 2.384 1_554 S
O258 C241 1.255 . S
O259 Eu239 2.366 1_455 S
O259 C241 1.265 . S
C260 O251 1.255 1_556 S
C260 O252 1.265 . S
O261 Tb238 2.479 . S
O261 C248 1.238 . S
O262 Tb238 2.471 1_655 S
O262 C248 1.247 1_655 S
C263 C266 1.380 . S
C263 C267 1.374 . S
C263 C269 1.507 . S
C264 C265 1.387 . S
C264 C268 1.391 . S
C265 C264 1.387 . S
C265 C266 1.384 . S
C265 H274 0.930 . S
C266 C263 1.380 . S
C266 C265 1.384 . S
C266 H275 0.931 1_455 S
C267 C263 1.374 . S
C267 C268 1.390 . S
C267 H276 0.930 . S
C268 C264 1.391 . S
C268 C267 1.390 . S
C268 H277 0.930 . S
C269 Eu239 2.825 1_455 S
C269 O254 1.238 1_455 S
C269 O255 1.247 . S
C269 C263 1.507 . S
H270 C243 0.930 1_455 S
H271 C244 0.931 . S
H272 C245 0.930 . S
H273 C246 0.930 . S
H274 C265 0.930 . S
H275 C266 0.931 1_655 S
H276 C267 0.930 . S
H277 C268 0.930 . S
Tb278 C288 2.825 . S
Tb278 O289 2.347 . S
Tb278 O292 2.366 . S
Tb278 O297 2.418 . S
Tb278 O298 2.384 . S
Tb278 O301 2.479 . S
Tb278 O302 2.471 . S
Eu279 O290 2.418 1_556 S
Eu279 O291 2.384 1_556 S
Eu279 O294 2.479 . S
Eu279 O295 2.471 . S
Eu279 O296 2.347 1_556 S
Eu279 O299 2.366 . S
Eu279 C309 2.825 . S
C280 O296 1.259 . S
C280 O297 1.265 . S
C281 O298 1.255 . S
C281 O299 1.265 1_554 S
C282 C284 1.380 . S
C282 C285 1.374 . S
C282 C288 1.507 . S
C283 C284 1.384 . S
C283 C287 1.387 . S
C283 H310 0.930 . S
C284 C282 1.380 . S
C284 C283 1.384 . S
C284 H311 0.931 . S
C285 C282 1.374 . S
C285 C286 1.390 . S
C285 H312 0.930 . S
C286 C285 1.390 . S
C286 C287 1.391 . S
C286 H313 0.930 . S
C287 C283 1.387 . S
C287 C286 1.391 . S
C288 Tb278 2.825 . S
C288 C282 1.507 . S
C288 O301 1.238 . S
C288 O302 1.247 . S
O289 Tb278 2.347 . S
O289 C293 1.259 . S
O290 Eu279 2.418 1_554 S
O290 C293 1.265 . S
O291 Eu279 2.384 1_554 S
O291 C300 1.255 . S
O292 Tb278 2.366 . S
O292 C300 1.265 . S
C293 O289 1.259 . S
C293 O290 1.265 . S
O294 Eu279 2.479 . S
O294 C309 1.238 . S
O295 Eu279 2.471 . S
O295 C309 1.247 . S
O296 Eu279 2.347 1_554 S
O296 C280 1.259 . S
O297 Tb278 2.418 . S
O297 C280 1.265 . S
O298 Tb278 2.384 . S
O298 C281 1.255 . S
O299 Eu279 2.366 . S
O299 C281 1.265 1_556 S
C300 O291 1.255 . S
C300 O292 1.265 . S
O301 Tb278 2.479 . S
O301 C288 1.238 . S
O302 Tb278 2.471 . S
O302 C288 1.247 . S
C303 C306 1.380 . S
C303 C307 1.374 . S
C303 C309 1.507 . S
C304 C305 1.387 . S
C304 C308 1.391 . S
C305 C304 1.387 . S
C305 C306 1.384 . S
C305 H314 0.930 . S
C306 C303 1.380 . S
C306 C305 1.384 . S
C306 H315 0.931 . S
C307 C303 1.374 . S
C307 C308 1.390 . S
C307 H316 0.930 . S
C308 C304 1.391 . S
C308 C307 1.390 . S
C308 H317 0.930 . S
C309 Eu279 2.825 . S
C309 O294 1.238 . S
C309 O295 1.247 . S
C309 C303 1.507 . S
H310 C283 0.930 . S
H311 C284 0.931 . S
H312 C285 0.930 . S
H313 C286 0.930 . S
H314 C305 0.930 . S
H315 C306 0.931 . S
H316 C307 0.930 . S
H317 C308 0.930 . S
Tb318 C328 2.825 . S
Tb318 O329 2.347 . S
Tb318 O332 2.366 . S
Tb318 O337 2.418 . S
Tb318 O338 2.384 . S
Tb318 O341 2.479 . S
Tb318 O342 2.471 . S
Eu319 O330 2.418 . S
Eu319 O331 2.384 . S
Eu319 O334 2.479 . S
Eu319 O335 2.471 . S
Eu319 O336 2.347 . S
Eu319 O339 2.366 . S
Eu319 C349 2.825 . S
C320 O336 1.259 . S
C320 O337 1.265 . S
C321 O338 1.255 . S
C321 O339 1.265 . S
C322 C324 1.380 . S
C322 C325 1.374 . S
C322 C328 1.507 . S
C323 C324 1.384 . S
C323 C327 1.387 . S
C323 H350 0.930 . S
C324 C322 1.380 . S
C324 C323 1.384 . S
C324 H351 0.931 . S
C325 C322 1.374 . S
C325 C326 1.390 . S
C325 H352 0.930 . S
C326 C325 1.390 . S
C326 C327 1.391 . S
C326 H353 0.930 . S
C327 C323 1.387 . S
C327 C326 1.391 . S
C328 Tb318 2.825 . S
C328 C322 1.507 . S
C328 O341 1.238 . S
C328 O342 1.247 . S
O329 Tb318 2.347 . S
O329 C333 1.259 . S
O330 Eu319 2.418 . S
O330 C333 1.265 . S
O331 Eu319 2.384 . S
O331 C340 1.255 . S
O332 Tb318 2.366 . S
O332 C340 1.265 . S
C333 O329 1.259 . S
C333 O330 1.265 . S
O334 Eu319 2.479 . S
O334 C349 1.238 . S
O335 Eu319 2.471 . S
O335 C349 1.247 . S
O336 Eu319 2.347 . S
O336 C320 1.259 . S
O337 Tb318 2.418 . S
O337 C320 1.265 . S
O338 Tb318 2.384 . S
O338 C321 1.255 . S
O339 Eu319 2.366 . S
O339 C321 1.265 . S
C340 O331 1.255 . S
C340 O332 1.265 . S
O341 Tb318 2.479 . S
O341 C328 1.238 . S
O342 Tb318 2.471 . S
O342 C328 1.247 . S
C343 C346 1.380 . S
C343 C347 1.374 . S
C343 C349 1.507 . S
C344 C345 1.387 . S
C344 C348 1.391 . S
C345 C344 1.387 . S
C345 C346 1.384 . S
C345 H354 0.930 . S
C346 C343 1.380 . S
C346 C345 1.384 . S
C346 H355 0.931 . S
C347 C343 1.374 . S
C347 C348 1.390 . S
C347 H356 0.930 . S
C348 C344 1.391 . S
C348 C347 1.390 . S
C348 H357 0.930 . S
C349 Eu319 2.825 . S
C349 O334 1.238 . S
C349 O335 1.247 . S
C349 C343 1.507 . S
H350 C323 0.930 . S
H351 C324 0.931 . S
H352 C325 0.930 . S
H353 C326 0.930 . S
H354 C345 0.930 . S
H355 C346 0.931 . S
H356 C347 0.930 . S
H357 C348 0.930 . S
Tb358 C368 2.825 . S
Tb358 O369 2.347 . S
Tb358 O372 2.366 . S
Tb358 O377 2.418 . S
Tb358 O378 2.384 . S
Tb358 O381 2.479 . S
Tb358 O382 2.471 . S
Eu359 O370 2.418 . S
Eu359 O371 2.384 . S
Eu359 O374 2.479 . S
Eu359 O375 2.471 . S
Eu359 O376 2.347 . S
Eu359 O379 2.366 . S
Eu359 C389 2.825 . S
C360 O376 1.259 . S
C360 O377 1.265 . S
C361 O378 1.255 . S
C361 O379 1.265 . S
C362 C364 1.380 . S
C362 C365 1.374 . S
C362 C368 1.507 . S
C363 C364 1.384 . S
C363 C367 1.387 . S
C363 H390 0.930 . S
C364 C362 1.380 . S
C364 C363 1.384 . S
C364 H391 0.931 . S
C365 C362 1.374 . S
C365 C366 1.390 . S
C365 H392 0.930 . S
C366 C365 1.390 . S
C366 C367 1.391 . S
C366 H393 0.930 . S
C367 C363 1.387 . S
C367 C366 1.391 . S
C368 Tb358 2.825 . S
C368 C362 1.507 . S
C368 O381 1.238 . S
C368 O382 1.247 . S
O369 Tb358 2.347 . S
O369 C373 1.259 . S
O370 Eu359 2.418 . S
O370 C373 1.265 . S
O371 Eu359 2.384 . S
O371 C380 1.255 . S
O372 Tb358 2.366 . S
O372 C380 1.265 . S
C373 O369 1.259 . S
C373 O370 1.265 . S
O374 Eu359 2.479 . S
O374 C389 1.238 . S
O375 Eu359 2.471 . S
O375 C389 1.247 . S
O376 Eu359 2.347 . S
O376 C360 1.259 . S
O377 Tb358 2.418 . S
O377 C360 1.265 . S
O378 Tb358 2.384 . S
O378 C361 1.255 . S
O379 Eu359 2.366 . S
O379 C361 1.265 . S
C380 O371 1.255 . S
C380 O372 1.265 . S
O381 Tb358 2.479 . S
O381 C368 1.238 . S
O382 Tb358 2.471 . S
O382 C368 1.247 . S
C383 C386 1.380 . S
C383 C387 1.374 . S
C383 C389 1.507 . S
C384 C385 1.387 . S
C384 C388 1.391 . S
C385 C384 1.387 . S
C385 C386 1.384 . S
C385 H394 0.930 . S
C386 C383 1.380 . S
C386 C385 1.384 . S
C386 H395 0.931 . S
C387 C383 1.374 . S
C387 C388 1.390 . S
C387 H396 0.930 . S
C388 C384 1.391 . S
C388 C387 1.390 . S
C388 H397 0.930 . S
C389 Eu359 2.825 . S
C389 O374 1.238 . S
C389 O375 1.247 . S
C389 C383 1.507 . S
H390 C363 0.930 . S
H391 C364 0.931 . S
H392 C365 0.930 . S
H393 C366 0.930 . S
H394 C385 0.930 . S
H395 C386 0.931 . S
H396 C387 0.930 . S
H397 C388 0.930 . S
Tb398 C408 2.825 . S
Tb398 O409 2.347 . S
Tb398 O412 2.366 . S
Tb398 O417 2.418 . S
Tb398 O418 2.384 . S
Tb398 O421 2.479 . S
Tb398 O422 2.471 . S
Eu399 O410 2.418 . S
Eu399 O411 2.384 . S
Eu399 O414 2.479 . S
Eu399 O415 2.471 . S
Eu399 O416 2.347 . S
Eu399 O419 2.366 . S
Eu399 C429 2.825 . S
C400 O416 1.259 . S
C400 O417 1.265 . S
C401 O418 1.255 . S
C401 O419 1.265 . S
C402 C404 1.380 . S
C402 C405 1.374 . S
C402 C408 1.507 . S
C403 C404 1.384 . S
C403 C407 1.387 . S
C403 H430 0.930 . S
C404 C402 1.380 . S
C404 C403 1.384 . S
C404 H431 0.931 . S
C405 C402 1.374 . S
C405 C406 1.390 . S
C405 H432 0.930 . S
C406 C405 1.390 . S
C406 C407 1.391 . S
C406 H433 0.930 . S
C407 C403 1.387 . S
C407 C406 1.391 . S
C408 Tb398 2.825 . S
C408 C402 1.507 . S
C408 O421 1.238 . S
C408 O422 1.247 . S
O409 Tb398 2.347 . S
O409 C413 1.259 . S
O410 Eu399 2.418 . S
O410 C413 1.265 . S
O411 Eu399 2.384 . S
O411 C420 1.255 . S
O412 Tb398 2.366 . S
O412 C420 1.265 . S
C413 O409 1.259 . S
C413 O410 1.265 . S
O414 Eu399 2.479 . S
O414 C429 1.238 . S
O415 Eu399 2.471 . S
O415 C429 1.247 . S
O416 Eu399 2.347 . S
O416 C400 1.259 . S
O417 Tb398 2.418 . S
O417 C400 1.265 . S
O418 Tb398 2.384 . S
O418 C401 1.255 . S
O419 Eu399 2.366 . S
O419 C401 1.265 . S
C420 O411 1.255 . S
C420 O412 1.265 . S
O421 Tb398 2.479 . S
O421 C408 1.238 . S
O422 Tb398 2.471 . S
O422 C408 1.247 . S
C423 C426 1.380 . S
C423 C427 1.374 . S
C423 C429 1.507 . S
C424 C425 1.387 . S
C424 C428 1.391 . S
C425 C424 1.387 . S
C425 C426 1.384 . S
C425 H434 0.930 . S
C426 C423 1.380 . S
C426 C425 1.384 . S
C426 H435 0.931 . S
C427 C423 1.374 . S
C427 C428 1.390 . S
C427 H436 0.930 . S
C428 C424 1.391 . S
C428 C427 1.390 . S
C428 H437 0.930 . S
C429 Eu399 2.825 . S
C429 O414 1.238 . S
C429 O415 1.247 . S
C429 C423 1.507 . S
H430 C403 0.930 . S
H431 C404 0.931 . S
H432 C405 0.930 . S
H433 C406 0.930 . S
H434 C425 0.930 . S
H435 C426 0.931 . S
H436 C427 0.930 . S
H437 C428 0.930 . S
Tb438 C448 2.825 . S
Tb438 O449 2.347 . S
Tb438 O452 2.366 . S
Tb438 O457 2.418 . S
Tb438 O458 2.384 . S
Tb438 O461 2.479 . S
Tb438 O462 2.471 . S
Eu439 O450 2.418 . S
Eu439 O451 2.384 . S
Eu439 O454 2.479 . S
Eu439 O455 2.471 . S
Eu439 O456 2.347 . S
Eu439 O459 2.366 . S
Eu439 C469 2.825 . S
C440 O456 1.259 . S
C440 O457 1.265 . S
C441 O458 1.255 . S
C441 O459 1.265 . S
C442 C444 1.380 . S
C442 C445 1.374 . S
C442 C448 1.507 . S
C443 C444 1.384 . S
C443 C447 1.387 . S
C443 H470 0.930 . S
C444 C442 1.380 . S
C444 C443 1.384 . S
C444 H471 0.931 . S
C445 C442 1.374 . S
C445 C446 1.390 . S
C445 H472 0.930 . S
C446 C445 1.390 . S
C446 C447 1.391 . S
C446 H473 0.930 . S
C447 C443 1.387 . S
C447 C446 1.391 . S
C448 Tb438 2.825 . S
C448 C442 1.507 . S
C448 O461 1.238 . S
C448 O462 1.247 . S
O449 Tb438 2.347 . S
O449 C453 1.259 . S
O450 Eu439 2.418 . S
O450 C453 1.265 . S
O451 Eu439 2.384 . S
O451 C460 1.255 . S
O452 Tb438 2.366 . S
O452 C460 1.265 . S
C453 O449 1.259 . S
C453 O450 1.265 . S
O454 Eu439 2.479 . S
O454 C469 1.238 . S
O455 Eu439 2.471 . S
O455 C469 1.247 . S
O456 Eu439 2.347 . S
O456 C440 1.259 . S
O457 Tb438 2.418 . S
O457 C440 1.265 . S
O458 Tb438 2.384 . S
O458 C441 1.255 . S
O459 Eu439 2.366 . S
O459 C441 1.265 . S
C460 O451 1.255 . S
C460 O452 1.265 . S
O461 Tb438 2.479 . S
O461 C448 1.238 . S
O462 Tb438 2.471 . S
O462 C448 1.247 . S
C463 C466 1.380 . S
C463 C467 1.374 . S
C463 C469 1.507 . S
C464 C465 1.387 . S
C464 C468 1.391 . S
C465 C464 1.387 . S
C465 C466 1.384 . S
C465 H474 0.930 . S
C466 C463 1.380 . S
C466 C465 1.384 . S
C466 H475 0.931 . S
C467 C463 1.374 . S
C467 C468 1.390 . S
C467 H476 0.930 . S
C468 C464 1.391 . S
C468 C467 1.390 . S
C468 H477 0.930 . S
C469 Eu439 2.825 . S
C469 O454 1.238 . S
C469 O455 1.247 . S
C469 C463 1.507 . S
H470 C443 0.930 . S
H471 C444 0.931 . S
H472 C445 0.930 . S
H473 C446 0.930 . S
H474 C465 0.930 . S
H475 C466 0.931 . S
H476 C467 0.930 . S
H477 C468 0.930 . S
Tb478 C488 2.825 . S
Tb478 O489 2.347 . S
Tb478 O492 2.366 . S
Tb478 O497 2.418 . S
Tb478 O498 2.384 . S
Tb478 O501 2.479 . S
Tb478 O502 2.471 . S
Eu479 O490 2.418 . S
Eu479 O491 2.384 . S
Eu479 O494 2.479 . S
Eu479 O495 2.471 . S
Eu479 O496 2.347 . S
Eu479 O499 2.366 . S
Eu479 C509 2.825 . S
C480 O496 1.259 . S
C480 O497 1.265 . S
C481 O498 1.255 . S
C481 O499 1.265 . S
C482 C484 1.380 . S
C482 C485 1.374 . S
C482 C488 1.507 . S
C483 C484 1.384 . S
C483 C487 1.387 . S
C483 H510 0.930 . S
C484 C482 1.380 . S
C484 C483 1.384 . S
C484 H511 0.931 . S
C485 C482 1.374 . S
C485 C486 1.390 . S
C485 H512 0.930 . S
C486 C485 1.390 . S
C486 C487 1.391 . S
C486 H513 0.930 . S
C487 C483 1.387 . S
C487 C486 1.391 . S
C488 Tb478 2.825 . S
C488 C482 1.507 . S
C488 O501 1.238 . S
C488 O502 1.247 . S
O489 Tb478 2.347 . S
O489 C493 1.259 . S
O490 Eu479 2.418 . S
O490 C493 1.265 . S
O491 Eu479 2.384 . S
O491 C500 1.255 . S
O492 Tb478 2.366 . S
O492 C500 1.265 . S
C493 O489 1.259 . S
C493 O490 1.265 . S
O494 Eu479 2.479 . S
O494 C509 1.238 . S
O495 Eu479 2.471 . S
O495 C509 1.247 . S
O496 Eu479 2.347 . S
O496 C480 1.259 . S
O497 Tb478 2.418 . S
O497 C480 1.265 . S
O498 Tb478 2.384 . S
O498 C481 1.255 . S
O499 Eu479 2.366 . S
O499 C481 1.265 . S
C500 O491 1.255 . S
C500 O492 1.265 . S
O501 Tb478 2.479 . S
O501 C488 1.238 . S
O502 Tb478 2.471 . S
O502 C488 1.247 . S
C503 C506 1.380 . S
C503 C507 1.374 . S
C503 C509 1.507 . S
C504 C505 1.387 . S
C504 C508 1.391 . S
C505 C504 1.387 . S
C505 C506 1.384 . S
C505 H514 0.930 . S
C506 C503 1.380 . S
C506 C505 1.384 . S
C506 H515 0.931 . S
C507 C503 1.374 . S
C507 C508 1.390 . S
C507 H516 0.930 . S
C508 C504 1.391 . S
C508 C507 1.390 . S
C508 H517 0.930 . S
C509 Eu479 2.825 . S
C509 O494 1.238 . S
C509 O495 1.247 . S
C509 C503 1.507 . S
H510 C483 0.930 . S
H511 C484 0.931 . S
H512 C485 0.930 . S
H513 C486 0.930 . S
H514 C505 0.930 . S
H515 C506 0.931 . S
H516 C507 0.930 . S
H517 C508 0.930 . S
Tb518 C528 2.825 . S
Tb518 O529 2.347 . S
Tb518 O532 2.366 . S
Tb518 O537 2.418 . S
Tb518 O538 2.384 . S
Tb518 O541 2.479 . S
Tb518 O542 2.471 . S
Eu519 O530 2.418 . S
Eu519 O531 2.384 . S
Eu519 O534 2.479 . S
Eu519 O535 2.471 . S
Eu519 O536 2.347 . S
Eu519 O539 2.366 . S
Eu519 C549 2.825 . S
C520 O536 1.259 . S
C520 O537 1.265 . S
C521 O538 1.255 . S
C521 O539 1.265 . S
C522 C524 1.380 . S
C522 C525 1.374 . S
C522 C528 1.507 . S
C523 C524 1.384 . S
C523 C527 1.387 . S
C523 H550 0.930 . S
C524 C522 1.380 . S
C524 C523 1.384 . S
C524 H551 0.931 . S
C525 C522 1.374 . S
C525 C526 1.390 . S
C525 H552 0.930 . S
C526 C525 1.390 . S
C526 C527 1.391 . S
C526 H553 0.930 . S
C527 C523 1.387 . S
C527 C526 1.391 . S
C528 Tb518 2.825 . S
C528 C522 1.507 . S
C528 O541 1.238 . S
C528 O542 1.247 . S
O529 Tb518 2.347 . S
O529 C533 1.259 . S
O530 Eu519 2.418 . S
O530 C533 1.265 . S
O531 Eu519 2.384 . S
O531 C540 1.255 . S
O532 Tb518 2.366 . S
O532 C540 1.265 . S
C533 O529 1.259 . S
C533 O530 1.265 . S
O534 Eu519 2.479 . S
O534 C549 1.238 . S
O535 Eu519 2.471 . S
O535 C549 1.247 . S
O536 Eu519 2.347 . S
O536 C520 1.259 . S
O537 Tb518 2.418 . S
O537 C520 1.265 . S
O538 Tb518 2.384 . S
O538 C521 1.255 . S
O539 Eu519 2.366 . S
O539 C521 1.265 . S
C540 O531 1.255 . S
C540 O532 1.265 . S
O541 Tb518 2.479 . S
O541 C528 1.238 . S
O542 Tb518 2.471 . S
O542 C528 1.247 . S
C543 C546 1.380 . S
C543 C547 1.374 . S
C543 C549 1.507 . S
C544 C545 1.387 . S
C544 C548 1.391 . S
C545 C544 1.387 . S
C545 C546 1.384 . S
C545 H554 0.930 . S
C546 C543 1.380 . S
C546 C545 1.384 . S
C546 H555 0.931 . S
C547 C543 1.374 . S
C547 C548 1.390 . S
C547 H556 0.930 . S
C548 C544 1.391 . S
C548 C547 1.390 . S
C548 H557 0.930 . S
C549 Eu519 2.825 . S
C549 O534 1.238 . S
C549 O535 1.247 . S
C549 C543 1.507 . S
H550 C523 0.930 . S
H551 C524 0.931 . S
H552 C525 0.930 . S
H553 C526 0.930 . S
H554 C545 0.930 . S
H555 C546 0.931 . S
H556 C547 0.930 . S
H557 C548 0.930 . S
H558 C566 0.929 . S
H559 C568 0.930 . S
H560 C570 0.930 . S
H561 C573 0.929 . S
H562 C576 0.930 . S
H563 C578 0.960 . S
H564 C578 0.960 . S
H565 C578 0.960 . S
C566 H558 0.929 . S
C566 C567 1.377 . S
C566 C568 1.384 . S
C567 C566 1.377 . S
C567 C573 1.390 . S
C568 H559 0.930 . S
C568 C566 1.384 . S
C568 C569 1.372 . S
C569 C568 1.372 . S
C569 C570 1.400 . S
C569 C574 1.490 . S
C570 H560 0.930 . S
C570 C569 1.400 . S
C570 C573 1.386 . S
H571 C587 0.930 . S
H572 C588 0.931 . S
C573 H561 0.929 . S
C573 C567 1.390 . S
C573 C570 1.386 . S
C574 C569 1.490 . S
C574 C576 1.395 . S
C574 C577 1.403 . S
H575 C581 0.930 . S
C576 H562 0.930 . S
C576 C574 1.395 . S
C576 C579 1.403 . S
C577 C574 1.403 . S
C577 C578 1.524 . S
C577 C581 1.400 . S
C578 H563 0.960 . S
C578 H564 0.960 . S
C578 H565 0.960 . S
C578 C577 1.524 . S
C579 C576 1.403 . S
C579 C580 1.392 . S
C579 C583 1.495 . S
C580 C579 1.392 . S
C580 C581 1.385 . S
C580 C582 1.478 . S
C581 H575 0.930 . S
C581 C577 1.400 . S
C581 C580 1.385 . S
C582 C580 1.478 . S
C582 C584 1.381 . S
C582 C588 1.383 . S
C583 C579 1.495 . S
C583 H589 0.959 . S
C583 H590 0.961 . S
C583 H591 0.960 . S
C584 C582 1.381 . S
C584 C585 1.394 . S
C584 H592 0.930 . S
C585 C584 1.394 . S
C585 C586 1.383 . S
C585 H593 0.967 . S
C586 C585 1.383 . S
C586 C587 1.377 . S
C587 H571 0.930 . S
C587 C586 1.377 . S
C587 C588 1.379 . S
C588 H572 0.931 . S
C588 C582 1.383 . S
C588 C587 1.379 . S
H589 C583 0.959 . S
H590 C583 0.961 . S
H591 C583 0.960 . S
H592 C584 0.930 . S
H593 C585 0.967 . S
H594 C602 0.929 . S
H595 C604 0.930 . S
H596 C606 0.930 . S
H597 C609 0.929 . S
H598 C612 0.930 . S
H599 C614 0.960 . S
H600 C614 0.960 . S
H601 C614 0.960 . S
C602 H594 0.929 . S
C602 C603 1.377 . S
C602 C604 1.384 . S
C603 C602 1.377 . S
C603 C609 1.390 . S
C604 H595 0.930 . S
C604 C602 1.384 . S
C604 C605 1.372 . S
C605 C604 1.372 . S
C605 C606 1.400 . S
C605 C610 1.490 . S
C606 H596 0.930 . S
C606 C605 1.400 . S
C606 C609 1.386 . S
H607 C623 0.930 . S
H608 C624 0.931 . S
C609 H597 0.929 . S
C609 C603 1.390 . S
C609 C606 1.386 . S
C610 C605 1.490 . S
C610 C612 1.395 . S
C610 C613 1.403 . S
H611 C617 0.930 . S
C612 H598 0.930 . S
C612 C610 1.395 . S
C612 C615 1.403 . S
C613 C610 1.403 . S
C613 C614 1.524 . S
C613 C617 1.400 . S
C614 H599 0.960 . S
C614 H600 0.960 . S
C614 H601 0.960 . S
C614 C613 1.524 . S
C615 C612 1.403 . S
C615 C616 1.392 . S
C615 C619 1.495 . S
C616 C615 1.392 . S
C616 C617 1.385 . S
C616 C618 1.478 . S
C617 H611 0.930 . S
C617 C613 1.400 . S
C617 C616 1.385 . S
C618 C616 1.478 . S
C618 C620 1.381 . S
C618 C624 1.383 . S
C619 C615 1.495 . S
C619 H625 0.959 . S
C619 H626 0.961 . S
C619 H627 0.960 . S
C620 C618 1.381 . S
C620 C621 1.394 . S
C620 H628 0.930 . S
C621 C620 1.394 . S
C621 C622 1.383 . S
C621 H629 0.929 . S
C622 C621 1.383 . S
C622 C623 1.377 . S
C623 H607 0.930 . S
C623 C622 1.377 . S
C623 C624 1.379 . S
C624 H608 0.931 . S
C624 C618 1.383 . S
C624 C623 1.379 . S
H625 C619 0.959 . S
H626 C619 0.961 . S
H627 C619 0.960 . S
H628 C620 0.930 . S
H629 C621 0.929 . S
H630 C638 0.929 . S
H631 C640 0.930 . S
H632 C642 0.930 . S
H633 C645 0.929 . S
H634 C648 0.930 . S
H635 C650 0.960 . S
H636 C650 0.960 . S
H637 C650 0.960 . S
C638 H630 0.929 . S
C638 C639 1.377 . S
C638 C640 1.384 . S
C639 C638 1.377 . S
C639 C645 1.390 . S
C640 H631 0.930 . S
C640 C638 1.384 . S
C640 C641 1.372 . S
C641 C640 1.372 . S
C641 C642 1.400 . S
C641 C646 1.490 . S
C642 H632 0.930 . S
C642 C641 1.400 . S
C642 C645 1.386 . S
H643 C659 0.930 . S
H644 C660 0.931 . S
C645 H633 0.929 . S
C645 C639 1.390 . S
C645 C642 1.386 . S
C646 C641 1.490 . S
C646 C648 1.395 . S
C646 C649 1.403 . S
H647 C653 0.930 . S
C648 H634 0.930 . S
C648 C646 1.395 . S
C648 C651 1.403 . S
C649 C646 1.403 . S
C649 C650 1.524 . S
C649 C653 1.400 . S
C650 H635 0.960 . S
C650 H636 0.960 . S
C650 H637 0.960 . S
C650 C649 1.524 . S
C651 C648 1.403 . S
C651 C652 1.392 . S
C651 C655 1.495 . S
C652 C651 1.392 . S
C652 C653 1.385 . S
C652 C654 1.478 . S
C653 H647 0.930 . S
C653 C649 1.400 . S
C653 C652 1.385 . S
C654 C652 1.478 . S
C654 C656 1.381 . S
C654 C660 1.383 . S
C655 C651 1.495 . S
C655 H661 0.959 . S
C655 H662 0.961 . S
C655 H663 0.960 . S
C656 C654 1.381 . S
C656 C657 1.394 . S
C656 H664 0.930 . S
C657 C656 1.394 . S
C657 C658 1.383 . S
C657 H665 0.929 . S
C658 C657 1.383 . S
C658 C659 1.377 . S
C659 H643 0.930 . S
C659 C658 1.377 . S
C659 C660 1.379 . S
C660 H644 0.931 . S
C660 C654 1.383 . S
C660 C659 1.379 . S
H661 C655 0.959 . S
H662 C655 0.961 . S
H663 C655 0.960 . S
H664 C656 0.930 . S
H665 C657 0.929 . S
H666 C674 0.929 . S
H667 C676 0.930 . S
H668 C678 0.930 . S
H669 C681 0.929 . S
H670 C684 0.930 1_554 S
H671 C686 0.960 . S
H672 C686 0.960 . S
H673 C686 0.960 . S
C674 H666 0.929 . S
C674 C675 1.377 . S
C674 C676 1.384 . S
C675 C674 1.377 . S
C675 C681 1.390 . S
C676 H667 0.930 . S
C676 C674 1.384 . S
C676 C677 1.372 . S
C677 C676 1.372 . S
C677 C678 1.400 . S
C677 C682 1.490 . S
C678 H668 0.930 . S
C678 C677 1.400 . S
C678 C681 1.386 . S
H679 C695 0.930 . S
H680 C696 0.931 . S
C681 H669 0.929 . S
C681 C675 1.390 . S
C681 C678 1.386 . S
C682 C677 1.490 . S
C682 C684 1.395 . S
C682 C685 1.403 . S
H683 C689 0.930 . S
C684 H670 0.930 1_556 S
C684 C682 1.395 . S
C684 C687 1.392 1_556 S
C685 C682 1.403 . S
C685 C686 1.524 . S
C685 C689 1.400 . S
C686 H671 0.960 . S
C686 H672 0.960 . S
C686 H673 0.960 . S
C686 C685 1.524 . S
C687 C684 1.392 1_554 S
C687 C688 1.349 1_554 S
C687 C691 1.551 . S
C688 C687 1.349 1_556 S
C688 C689 1.385 . S
C688 C690 1.478 . S
C689 H683 0.930 . S
C689 C685 1.400 . S
C689 C688 1.385 . S
C690 C688 1.478 . S
C690 C692 1.381 1_556 S
C690 C696 1.383 . S
C691 C687 1.551 . S
C691 H697 0.959 . S
C691 H698 0.961 . S
C691 H699 0.960 . S
C692 C690 1.381 1_554 S
C692 C693 1.394 . S
C692 H700 0.930 . S
C693 C692 1.394 . S
C693 C694 1.417 . S
C693 H701 0.929 . S
C694 C693 1.417 . S
C694 C695 1.341 1_554 S
C695 H679 0.930 . S
C695 C694 1.341 1_556 S
C695 C696 1.379 . S
C696 H680 0.931 . S
C696 C690 1.383 . S
C696 C695 1.379 . S
H697 C691 0.959 . S
H698 C691 0.961 . S
H699 C691 0.960 . S
H700 C692 0.930 . S
H701 C693 0.929 . S
H702 C710 0.929 . S
H703 C712 0.930 . S
H704 C714 0.930 . S
H705 C717 0.929 . S
H706 C720 0.930 . S
H707 C722 0.960 1_554 S
H708 C722 0.960 . S
H709 C722 0.960 . S
C710 H702 0.929 . S
C710 C711 1.377 . S
C710 C712 1.384 . S
C711 C710 1.377 . S
C711 C717 1.390 . S
C712 H703 0.930 . S
C712 C710 1.384 . S
C712 C713 1.372 . S
C713 C712 1.372 . S
C713 C714 1.400 . S
C713 C718 1.490 . S
C714 H704 0.930 . S
C714 C713 1.400 . S
C714 C717 1.386 . S
H715 C731 0.930 . S
H716 C732 0.931 . S
C717 H705 0.929 . S
C717 C711 1.390 . S
C717 C714 1.386 . S
C718 C713 1.490 . S
C718 C720 1.395 . S
C718 C721 1.403 . S
H719 C725 0.930 . S
C720 H706 0.930 . S
C720 C718 1.395 . S
C720 C723 1.403 . S
C721 C718 1.403 . S
C721 C722 1.524 . S
C721 C725 1.400 . S
C722 H707 0.960 1_556 S
C722 H708 0.960 . S
C722 H709 0.960 . S
C722 C721 1.524 . S
C723 C720 1.403 . S
C723 C724 1.392 . S
C723 C727 1.495 . S
C724 C723 1.392 . S
C724 C725 1.385 . S
C724 C726 1.478 . S
C725 H719 0.930 . S
C725 C721 1.400 . S
C725 C724 1.385 . S
C726 C724 1.478 . S
C726 C728 1.381 . S
C726 C732 1.383 . S
C727 C723 1.495 . S
C727 H733 0.959 . S
C727 H734 0.961 . S
C727 H735 0.960 . S
C728 C726 1.381 . S
C728 C729 1.394 . S
C728 H736 0.930 . S
C729 C728 1.394 . S
C729 C730 1.383 . S
C729 H737 0.929 . S
C730 C729 1.383 . S
C730 C731 1.377 . S
C731 H715 0.930 . S
C731 C730 1.377 . S
C731 C732 1.379 . S
C732 H716 0.931 . S
C732 C726 1.383 . S
C732 C731 1.379 . S
H733 C727 0.959 . S
H734 C727 0.961 . S
H735 C727 0.960 . S
H736 C728 0.930 . S
H737 C729 0.929 . S
H738 C746 0.929 1_554 S
H739 C748 0.930 1_554 S
H740 C750 0.930 . S
H741 C753 0.929 . S
H742 C756 0.928 . S
H743 C758 0.960 . S
H744 C758 0.960 . S
H745 C758 0.960 . S
C746 H738 0.929 1_556 S
C746 C747 1.377 . S
C746 C748 1.384 . S
C747 C746 1.377 . S
C747 C753 1.390 . S
C748 H739 0.930 1_556 S
C748 C746 1.384 . S
C748 C749 1.372 . S
C749 C748 1.372 . S
C749 C750 1.400 . S
C749 C754 1.490 . S
C750 H740 0.930 . S
C750 C749 1.400 . S
C750 C753 1.386 . S
H751 C767 0.930 . S
H752 C768 0.931 . S
C753 H741 0.929 . S
C753 C747 1.390 . S
C753 C750 1.386 . S
C754 C749 1.490 . S
C754 C756 1.397 1_556 S
C754 C757 1.403 . S
H755 C761 0.930 . S
C756 H742 0.928 . S
C756 C754 1.397 1_554 S
C756 C759 1.402 . S
C757 C754 1.403 . S
C757 C758 1.524 . S
C757 C761 1.400 . S
C758 H743 0.960 . S
C758 H744 0.960 . S
C758 H745 0.960 . S
C758 C757 1.524 . S
C759 C756 1.402 . S
C759 C760 1.392 1_554 S
C759 C763 1.495 . S
C760 C759 1.392 1_556 S
C760 C761 1.385 . S
C760 C762 1.474 1_556 S
C761 H755 0.930 . S
C761 C757 1.400 . S
C761 C760 1.385 . S
C762 C760 1.474 1_554 S
C762 C764 1.398 . S
C762 C768 1.370 1_554 S
C763 C759 1.495 . S
C763 H769 0.959 . S
C763 H770 0.961 . S
C763 H771 0.960 . S
C764 C762 1.398 . S
C764 C765 1.394 . S
C764 H772 0.930 . S
C765 C764 1.394 . S
C765 C766 1.383 . S
C765 H773 0.929 . S
C766 C765 1.383 . S
C766 C767 1.377 1_554 S
C767 H751 0.930 . S
C767 C766 1.377 1_556 S
C767 C768 1.379 . S
C768 H752 0.931 . S
C768 C762 1.370 1_556 S
C768 C767 1.379 . S
H769 C763 0.959 . S
H770 C763 0.961 . S
H771 C763 0.960 . S
H772 C764 0.930 . S
H773 C765 0.929 . S
H774 C782 0.929 . S
H775 C784 0.930 . S
H776 C786 0.930 . S
H777 C789 0.929 . S
H778 C792 0.930 . S
H779 C794 0.960 . S
H780 C794 0.960 . S
H781 C794 0.960 . S
C782 H774 0.929 . S
C782 C783 1.377 . S
C782 C784 1.384 . S
C783 C782 1.377 . S
C783 C789 1.390 . S
C784 H775 0.930 . S
C784 C782 1.384 . S
C784 C785 1.372 . S
C785 C784 1.372 . S
C785 C786 1.400 . S
C785 C790 1.490 . S
C786 H776 0.930 . S
C786 C785 1.400 . S
C786 C789 1.386 . S
H787 C803 0.930 . S
H788 C804 0.931 . S
C789 H777 0.929 . S
C789 C783 1.390 . S
C789 C786 1.386 . S
C790 C785 1.490 . S
C790 C792 1.395 . S
C790 C793 1.403 . S
H791 C797 0.930 . S
C792 H778 0.930 . S
C792 C790 1.395 . S
C792 C795 1.403 . S
C793 C790 1.403 . S
C793 C794 1.524 . S
C793 C797 1.400 . S
C794 H779 0.960 . S
C794 H780 0.960 . S
C794 H781 0.960 . S
C794 C793 1.524 . S
C795 C792 1.403 . S
C795 C796 1.392 . S
C795 C799 1.495 . S
C796 C795 1.392 . S
C796 C797 1.385 . S
C796 C798 1.478 . S
C797 H791 0.930 . S
C797 C793 1.400 . S
C797 C796 1.385 . S
C798 C796 1.478 . S
C798 C800 1.381 . S
C798 C804 1.383 1_556 S
C799 C795 1.495 . S
C799 H805 0.959 . S
C799 H806 0.961 1_556 S
C799 H807 0.960 . S
C800 C798 1.381 . S
C800 C801 1.394 . S
C800 H808 0.930 . S
C801 C800 1.394 . S
C801 C802 1.383 . S
C801 H809 0.929 . S
C802 C801 1.383 . S
C802 C803 1.377 1_556 S
C803 H787 0.930 . S
C803 C802 1.377 1_554 S
C803 C804 1.379 . S
C804 H788 0.931 . S
C804 C798 1.383 1_554 S
C804 C803 1.379 . S
H805 C799 0.959 . S
H806 C799 0.961 1_554 S
H807 C799 0.960 . S
H808 C800 0.930 . S
H809 C801 0.929 . S
H810 C818 0.929 . S
H811 C820 0.930 . S
H812 C822 0.930 . S
H813 C825 0.929 . S
H814 C828 0.930 . S
H815 C830 0.960 . S
H816 C830 0.960 . S
H817 C830 0.960 . S
C818 H810 0.929 . S
C818 C819 1.377 . S
C818 C820 1.384 . S
C819 C818 1.377 . S
C819 C825 1.390 . S
C820 H811 0.930 . S
C820 C818 1.384 . S
C820 C821 1.372 . S
C821 C820 1.372 . S
C821 C822 1.400 . S
C821 C826 1.490 . S
C822 H812 0.930 . S
C822 C821 1.400 . S
C822 C825 1.386 . S
H823 C839 0.930 . S
H824 C840 0.931 . S
C825 H813 0.929 . S
C825 C819 1.390 . S
C825 C822 1.386 . S
C826 C821 1.490 . S
C826 C828 1.395 . S
C826 C829 1.403 . S
H827 C833 0.930 . S
C828 H814 0.930 . S
C828 C826 1.395 . S
C828 C831 1.403 . S
C829 C826 1.403 . S
C829 C830 1.524 . S
C829 C833 1.400 . S
C830 H815 0.960 . S
C830 H816 0.960 . S
C830 H817 0.960 . S
C830 C829 1.524 . S
C831 C828 1.403 . S
C831 C832 1.392 . S
C831 C835 1.495 . S
C832 C831 1.392 . S
C832 C833 1.385 . S
C832 C834 1.478 . S
C833 H827 0.930 . S
C833 C829 1.400 . S
C833 C832 1.385 . S
C834 C832 1.478 . S
C834 C836 1.381 . S
C834 C840 1.383 . S
C835 C831 1.495 . S
C835 H841 0.959 . S
C835 H842 0.961 . S
C835 H843 0.960 . S
C836 C834 1.381 . S
C836 C837 1.394 1_556 S
C836 H844 0.930 1_556 S
C837 C836 1.394 1_554 S
C837 C838 1.383 1_554 S
C837 H845 0.929 . S
C838 C837 1.383 1_556 S
C838 C839 1.377 . S
C839 H823 0.930 . S
C839 C838 1.377 . S
C839 C840 1.379 . S
C840 H824 0.931 . S
C840 C834 1.383 . S
C840 C839 1.379 . S
H841 C835 0.959 . S
H842 C835 0.961 . S
H843 C835 0.960 . S
H844 C836 0.930 1_554 S
H845 C837 0.929 . S
H846 C854 0.929 . S
H847 C856 0.930 . S
H848 C858 0.930 . S
H849 C861 0.929 . S
H850 C864 0.930 . S
H851 C866 0.960 1_554 S
H852 C866 0.960 . S
H853 C866 0.960 1_554 S
C854 H846 0.929 . S
C854 C855 1.377 . S
C854 C856 1.384 . S
C855 C854 1.377 . S
C855 C861 1.390 1_556 S
C856 H847 0.930 . S
C856 C854 1.384 . S
C856 C857 1.372 . S
C857 C856 1.372 . S
C857 C858 1.400 1_556 S
C857 C862 1.490 . S
C858 H848 0.930 . S
C858 C857 1.400 1_554 S
C858 C861 1.386 . S
H859 C875 0.930 . S
H860 C876 0.931 . S
C861 H849 0.929 . S
C861 C855 1.390 1_554 S
C861 C858 1.386 . S
C862 C857 1.490 . S
C862 C864 1.395 . S
C862 C865 1.403 . S
H863 C869 0.932 . S
C864 H850 0.930 . S
C864 C862 1.395 . S
C864 C867 1.403 . S
C865 C862 1.403 . S
C865 C866 1.524 . S
C865 C869 1.399 1_556 S
C866 H851 0.960 1_556 S
C866 H852 0.960 . S
C866 H853 0.960 1_556 S
C866 C865 1.524 . S
C867 C864 1.403 . S
C867 C868 1.392 . S
C867 C871 1.495 . S
C868 C867 1.392 . S
C868 C869 1.384 1_556 S
C868 C870 1.478 1_556 S
C869 H863 0.932 . S
C869 C865 1.399 1_554 S
C869 C868 1.384 1_554 S
C870 C868 1.478 1_554 S
C870 C872 1.381 1_554 S
C870 C876 1.383 . S
C871 C867 1.495 . S
C871 H877 0.959 . S
C871 H878 0.961 1_556 S
C871 H879 0.960 . S
C872 C870 1.381 1_556 S
C872 C873 1.394 . S
C872 H880 0.930 . S
C873 C872 1.394 . S
C873 C874 1.383 1_556 S
C873 H881 0.929 . S
C874 C873 1.383 1_554 S
C874 C875 1.377 . S
C875 H859 0.930 . S
C875 C874 1.377 . S
C875 C876 1.379 . S
C876 H860 0.931 . S
C876 C870 1.383 . S
C876 C875 1.379 . S
H877 C871 0.959 . S
H878 C871 0.961 1_554 S
H879 C871 0.960 . S
H880 C872 0.930 . S
H881 C873 0.929 . S
H882 C890 0.929 . S
H883 C892 0.930 . S
H884 C894 0.930 . S
H885 C897 0.929 . S
H886 C900 0.930 . S
H887 C902 0.960 . S
H888 C902 0.960 . S
H889 C902 0.960 . S
C890 H882 0.929 . S
C890 C891 1.377 . S
C890 C892 1.384 . S
C891 C890 1.377 . S
C891 C897 1.390 . S
C892 H883 0.930 . S
C892 C890 1.384 . S
C892 C893 1.372 . S
C893 C892 1.372 . S
C893 C894 1.400 . S
C893 C898 1.490 . S
C894 H884 0.930 . S
C894 C893 1.400 . S
C894 C897 1.386 . S
H895 C911 0.930 . S
H896 C912 0.931 . S
C897 H885 0.929 . S
C897 C891 1.390 . S
C897 C894 1.386 . S
C898 C893 1.490 . S
C898 C900 1.395 . S
C898 C901 1.403 . S
H899 C905 0.930 . S
C900 H886 0.930 . S
C900 C898 1.395 . S
C900 C903 1.403 . S
C901 C898 1.403 . S
C901 C902 1.524 . S
C901 C905 1.400 . S
C902 H887 0.960 . S
C902 H888 0.960 . S
C902 H889 0.960 . S
C902 C901 1.524 . S
C903 C900 1.403 . S
C903 C904 1.392 . S
C903 C907 1.495 . S
C904 C903 1.392 . S
C904 C905 1.385 . S
C904 C906 1.478 . S
C905 H899 0.930 . S
C905 C901 1.400 . S
C905 C904 1.385 . S
C906 C904 1.478 . S
C906 C908 1.381 . S
C906 C912 1.383 . S
C907 C903 1.495 . S
C907 H913 0.959 . S
C907 H914 0.961 . S
C907 H915 0.960 . S
C908 C906 1.381 . S
C908 C909 1.394 . S
C908 H916 0.930 . S
C909 C908 1.394 . S
C909 C910 1.383 . S
C909 H917 0.929 . S
C910 C909 1.383 . S
C910 C911 1.377 . S
C911 H895 0.930 . S
C911 C910 1.377 . S
C911 C912 1.379 . S
C912 H896 0.931 . S
C912 C906 1.383 . S
C912 C911 1.379 . S
H913 C907 0.959 . S
H914 C907 0.961 . S
H915 C907 0.960 . S
H916 C908 0.930 . S
H917 C909 0.929 . S
H918 C926 0.929 . S
H919 C928 0.930 . S
H920 C930 0.930 . S
H921 C933 0.929 . S
H922 C936 0.930 . S
H923 C938 0.960 . S
H924 C938 0.960 . S
H925 C938 0.960 . S
C926 H918 0.929 . S
C926 C927 1.377 . S
C926 C928 1.384 . S
C927 C926 1.377 . S
C927 C933 1.390 . S
C928 H919 0.930 . S
C928 C926 1.384 . S
C928 C929 1.372 . S
C929 C928 1.372 . S
C929 C930 1.400 . S
C929 C934 1.490 . S
C930 H920 0.930 . S
C930 C929 1.400 . S
C930 C933 1.386 . S
H931 C947 0.930 . S
H932 C948 0.931 . S
C933 H921 0.929 . S
C933 C927 1.390 . S
C933 C930 1.386 . S
C934 C929 1.490 . S
C934 C936 1.395 . S
C934 C937 1.403 . S
H935 C941 0.930 . S
C936 H922 0.930 . S
C936 C934 1.395 . S
C936 C939 1.403 . S
C937 C934 1.403 . S
C937 C938 1.524 . S
C937 C941 1.400 . S
C938 H923 0.960 . S
C938 H924 0.960 . S
C938 H925 0.960 . S
C938 C937 1.524 . S
C939 C936 1.403 . S
C939 C940 1.392 . S
C939 C943 1.495 . S
C940 C939 1.392 . S
C940 C941 1.385 . S
C940 C942 1.478 . S
C941 H935 0.930 . S
C941 C937 1.400 . S
C941 C940 1.385 . S
C942 C940 1.478 . S
C942 C944 1.381 . S
C942 C948 1.383 . S
C943 C939 1.495 . S
C943 H949 0.959 . S
C943 H950 0.961 . S
C943 H951 0.960 . S
C944 C942 1.381 . S
C944 C945 1.394 . S
C944 H952 0.930 . S
C945 C944 1.394 . S
C945 C946 1.383 . S
C945 H953 0.929 . S
C946 C945 1.383 . S
C946 C947 1.377 . S
C947 H931 0.930 . S
C947 C946 1.377 . S
C947 C948 1.379 . S
C948 H932 0.931 . S
C948 C942 1.383 . S
C948 C947 1.379 . S
H949 C943 0.959 . S
H950 C943 0.961 . S
H951 C943 0.960 . S
H952 C944 0.930 . S
H953 C945 0.929 . S
H954 C962 0.929 . S
H955 C964 0.930 . S
H956 C966 0.930 . S
H957 C969 0.929 . S
H958 C972 0.930 . S
H959 C974 0.960 . S
H960 C974 0.960 . S
H961 C974 0.960 . S
C962 H954 0.929 . S
C962 C963 1.377 . S
C962 C964 1.384 . S
C963 C962 1.377 . S
C963 C969 1.390 . S
C964 H955 0.930 . S
C964 C962 1.384 . S
C964 C965 1.372 . S
C965 C964 1.372 . S
C965 C966 1.400 . S
C965 C970 1.490 . S
C966 H956 0.930 . S
C966 C965 1.400 . S
C966 C969 1.386 . S
H967 C983 0.930 . S
H968 C984 0.931 . S
C969 H957 0.929 . S
C969 C963 1.390 . S
C969 C966 1.386 . S
C970 C965 1.490 . S
C970 C972 1.395 . S
C970 C973 1.403 . S
H971 C977 0.930 . S
C972 H958 0.930 . S
C972 C970 1.395 . S
C972 C975 1.403 . S
C973 C970 1.403 . S
C973 C974 1.524 . S
C973 C977 1.400 . S
C974 H959 0.960 . S
C974 H960 0.960 . S
C974 H961 0.960 . S
C974 C973 1.524 . S
C975 C972 1.403 . S
C975 C976 1.392 . S
C975 C979 1.495 . S
C976 C975 1.392 . S
C976 C977 1.385 . S
C976 C978 1.478 . S
C977 H971 0.930 . S
C977 C973 1.400 . S
C977 C976 1.385 . S
C978 C976 1.478 . S
C978 C980 1.381 . S
C978 C984 1.383 . S
C979 C975 1.495 . S
C979 H985 0.959 . S
C979 H986 0.961 . S
C979 H987 0.960 . S
C980 C978 1.381 . S
C980 C981 1.394 . S
C980 H988 0.958 . S
C981 C980 1.394 . S
C981 C982 1.383 . S
C981 H989 0.929 1_554 S
C982 C981 1.383 . S
C982 C983 1.377 . S
C983 H967 0.930 . S
C983 C982 1.377 . S
C983 C984 1.379 . S
C984 H968 0.931 . S
C984 C978 1.383 . S
C984 C983 1.379 . S
H985 C979 0.959 . S
H986 C979 0.961 . S
H987 C979 0.960 . S
H988 C980 0.958 . S
H989 C981 0.929 1_556 S
H990 C998 0.929 . S
H991 C1000 0.930 . S
H992 C1002 0.930 . S
H993 C1005 0.929 . S
H994 C1008 0.930 . S
H995 C1010 0.960 1_455 S
H996 C1010 0.960 . S
H997 C1010 0.960 . S
C998 H990 0.929 . S
C998 C999 1.377 . S
C998 C1000 1.384 . S
C999 C998 1.377 . S
C999 C1005 1.390 . S
C1000 H991 0.930 . S
C1000 C998 1.384 . S
C1000 C1001 1.372 . S
C1001 C1000 1.372 . S
C1001 C1002 1.400 . S
C1001 C1006 1.490 . S
C1002 H992 0.930 . S
C1002 C1001 1.400 . S
C1002 C1005 1.386 . S
H1003 C1019 0.930 . S
H1004 C1020 0.931 . S
C1005 H993 0.929 . S
C1005 C999 1.390 . S
C1005 C1002 1.386 . S
C1006 C1001 1.490 . S
C1006 C1008 1.395 . S
C1006 C1009 1.403 . S
H1007 C1013 0.930 . S
C1008 H994 0.930 . S
C1008 C1006 1.395 . S
C1008 C1011 1.403 . S
C1009 C1006 1.403 . S
C1009 C1010 1.524 . S
C1009 C1013 1.400 1_655 S
C1010 H995 0.960 1_655 S
C1010 H996 0.960 . S
C1010 H997 0.960 . S
C1010 C1009 1.524 . S
C1011 C1008 1.403 . S
C1011 C1012 1.392 1_655 S
C1011 C1015 1.495 . S
C1012 C1011 1.392 1_455 S
C1012 C1013 1.385 . S
C1012 C1014 1.478 . S
C1013 H1007 0.930 . S
C1013 C1009 1.400 1_455 S
C1013 C1012 1.385 . S
C1014 C1012 1.478 . S
C1014 C1016 1.381 . S
C1014 C1020 1.383 . S
C1015 C1011 1.495 . S
C1015 H1021 0.959 . S
C1015 H1022 0.961 1_655 S
C1015 H1023 0.960 1_655 S
C1016 C1014 1.381 . S
C1016 C1017 1.394 . S
C1016 H1024 0.930 . S
C1017 C1016 1.394 . S
C1017 C1018 1.383 . S
C1017 H1025 0.929 . S
C1018 C1017 1.383 . S
C1018 C1019 1.377 . S
C1019 H1003 0.930 . S
C1019 C1018 1.377 . S
C1019 C1020 1.379 . S
C1020 H1004 0.931 . S
C1020 C1014 1.383 . S
C1020 C1019 1.379 . S
H1021 C1015 0.959 . S
H1022 C1015 0.961 1_455 S
H1023 C1015 0.960 1_455 S
H1024 C1016 0.930 . S
H1025 C1017 0.929 . S
H1026 C1034 0.929 . S
H1027 C1036 0.930 . S
H1028 C1038 0.930 . S
H1029 C1041 0.929 . S
H1030 C1044 0.930 . S
H1031 C1046 0.960 . S
H1032 C1046 0.960 . S
H1033 C1046 0.960 . S
C1034 H1026 0.929 . S
C1034 C1035 1.377 . S
C1034 C1036 1.384 . S
C1035 C1034 1.377 . S
C1035 C1041 1.390 . S
C1036 H1027 0.930 . S
C1036 C1034 1.384 . S
C1036 C1037 1.372 . S
C1037 C1036 1.372 . S
C1037 C1038 1.400 . S
C1037 C1042 1.490 . S
C1038 H1028 0.930 . S
C1038 C1037 1.400 . S
C1038 C1041 1.386 . S
H1039 C1055 0.930 . S
H1040 C1056 0.931 . S
C1041 H1029 0.929 . S
C1041 C1035 1.390 . S
C1041 C1038 1.386 . S
C1042 C1037 1.490 . S
C1042 C1044 1.395 . S
C1042 C1045 1.403 . S
H1043 C1049 0.930 . S
C1044 H1030 0.930 . S
C1044 C1042 1.395 . S
C1044 C1047 1.403 . S
C1045 C1042 1.403 . S
C1045 C1046 1.524 . S
C1045 C1049 1.400 . S
C1046 H1031 0.960 . S
C1046 H1032 0.960 . S
C1046 H1033 0.960 . S
C1046 C1045 1.524 . S
C1047 C1044 1.403 . S
C1047 C1048 1.392 . S
C1047 C1051 1.495 . S
C1048 C1047 1.392 . S
C1048 C1049 1.385 . S
C1048 C1050 1.478 . S
C1049 H1043 0.930 . S
C1049 C1045 1.400 . S
C1049 C1048 1.385 . S
C1050 C1048 1.478 . S
C1050 C1052 1.381 . S
C1050 C1056 1.383 . S
C1051 C1047 1.495 . S
C1051 H1057 0.959 . S
C1051 H1058 0.961 . S
C1051 H1059 0.960 . S
C1052 C1050 1.381 . S
C1052 C1053 1.394 . S
C1052 H1060 0.930 . S
C1053 C1052 1.394 . S
C1053 C1054 1.383 . S
C1053 H1061 0.929 . S
C1054 C1053 1.383 . S
C1054 C1055 1.377 . S
C1055 H1039 0.930 . S
C1055 C1054 1.377 . S
C1055 C1056 1.379 . S
C1056 H1040 0.931 . S
C1056 C1050 1.383 . S
C1056 C1055 1.379 . S
H1057 C1051 0.959 . S
H1058 C1051 0.961 . S
H1059 C1051 0.960 . S
H1060 C1052 0.930 . S
H1061 C1053 0.929 . S
H1062 C1070 0.929 . S
H1063 C1072 0.930 . S
H1064 C1074 0.930 . S
H1065 C1077 0.929 . S
H1066 C1080 0.930 . S
H1067 C1082 0.960 . S
H1068 C1082 0.960 . S
H1069 C1082 0.960 . S
C1070 H1062 0.929 . S
C1070 C1071 1.377 . S
C1070 C1072 1.384 . S
C1071 C1070 1.377 . S
C1071 C1077 1.390 . S
C1072 H1063 0.930 . S
C1072 C1070 1.384 . S
C1072 C1073 1.372 . S
C1073 C1072 1.372 . S
C1073 C1074 1.400 . S
C1073 C1078 1.490 . S
C1074 H1064 0.930 . S
C1074 C1073 1.400 . S
C1074 C1077 1.386 . S
H1075 C1091 0.930 . S
H1076 C1092 0.931 . S
C1077 H1065 0.929 . S
C1077 C1071 1.390 . S
C1077 C1074 1.386 . S
C1078 C1073 1.490 . S
C1078 C1080 1.395 . S
C1078 C1081 1.403 . S
H1079 C1085 0.930 . S
C1080 H1066 0.930 . S
C1080 C1078 1.395 . S
C1080 C1083 1.403 . S
C1081 C1078 1.403 . S
C1081 C1082 1.524 . S
C1081 C1085 1.400 . S
C1082 H1067 0.960 . S
C1082 H1068 0.960 . S
C1082 H1069 0.960 . S
C1082 C1081 1.524 . S
C1083 C1080 1.403 . S
C1083 C1084 1.392 1_545 S
C1083 C1087 1.495 1_545 S
C1084 C1083 1.392 1_565 S
C1084 C1085 1.385 1_565 S
C1084 C1086 1.478 . S
C1085 H1079 0.930 . S
C1085 C1081 1.400 . S
C1085 C1084 1.385 1_545 S
C1086 C1084 1.478 . S
C1086 C1088 1.381 . S
C1086 C1092 1.383 . S
C1087 C1083 1.495 1_565 S
C1087 H1093 0.959 . S
C1087 H1094 0.961 . S
C1087 H1095 0.960 . S
C1088 C1086 1.381 . S
C1088 C1089 1.394 . S
C1088 H1096 0.930 . S
C1089 C1088 1.394 . S
C1089 C1090 1.383 . S
C1089 H1097 0.929 . S
C1090 C1089 1.383 . S
C1090 C1091 1.377 . S
C1091 H1075 0.930 . S
C1091 C1090 1.377 . S
C1091 C1092 1.379 . S
C1092 H1076 0.931 . S
C1092 C1086 1.383 . S
C1092 C1091 1.379 . S
H1093 C1087 0.959 . S
H1094 C1087 0.961 . S
H1095 C1087 0.960 . S
H1096 C1088 0.930 . S
H1097 C1089 0.929 . S
H1098 C1106 0.929 . S
H1099 C1108 0.930 . S
H1100 C1110 0.930 . S
H1101 C1113 0.929 . S
H1102 C1116 0.930 . S
H1103 C1118 0.960 . S
H1104 C1118 0.960 . S
H1105 C1118 0.960 . S
C1106 H1098 0.929 . S
C1106 C1107 1.377 . S
C1106 C1108 1.384 . S
C1107 C1106 1.377 . S
C1107 C1113 1.390 . S
C1108 H1099 0.930 . S
C1108 C1106 1.384 . S
C1108 C1109 1.372 . S
C1109 C1108 1.372 . S
C1109 C1110 1.400 . S
C1109 C1114 1.490 . S
C1110 H1100 0.930 . S
C1110 C1109 1.400 . S
C1110 C1113 1.386 . S
H1111 C1127 0.930 . S
H1112 C1128 0.931 . S
C1113 H1101 0.929 . S
C1113 C1107 1.390 . S
C1113 C1110 1.386 . S
C1114 C1109 1.490 . S
C1114 C1116 1.395 . S
C1114 C1117 1.403 . S
H1115 C1121 0.930 . S
C1116 H1102 0.930 . S
C1116 C1114 1.395 . S
C1116 C1119 1.403 . S
C1117 C1114 1.403 . S
C1117 C1118 1.524 . S
C1117 C1121 1.400 . S
C1118 H1103 0.960 . S
C1118 H1104 0.960 . S
C1118 H1105 0.960 . S
C1118 C1117 1.524 . S
C1119 C1116 1.403 . S
C1119 C1120 1.392 . S
C1119 C1123 1.495 . S
C1120 C1119 1.392 . S
C1120 C1121 1.385 . S
C1120 C1122 1.478 . S
C1121 H1115 0.930 . S
C1121 C1117 1.400 . S
C1121 C1120 1.385 . S
C1122 C1120 1.478 . S
C1122 C1124 1.381 . S
C1122 C1128 1.383 . S
C1123 C1119 1.495 . S
C1123 H1129 0.959 . S
C1123 H1130 0.961 . S
C1123 H1131 0.960 . S
C1124 C1122 1.381 . S
C1124 C1125 1.394 . S
C1124 H1132 0.930 . S
C1125 C1124 1.394 . S
C1125 C1126 1.383 . S
C1125 H1133 0.929 . S
C1126 C1125 1.383 . S
C1126 C1127 1.377 . S
C1127 H1111 0.930 . S
C1127 C1126 1.377 . S
C1127 C1128 1.379 . S
C1128 H1112 0.931 . S
C1128 C1122 1.383 . S
C1128 C1127 1.379 . S
H1129 C1123 0.959 . S
H1130 C1123 0.961 . S
H1131 C1123 0.960 . S
H1132 C1124 0.930 . S
H1133 C1125 0.929 . S
H1134 C1142 0.929 . S
H1135 C1144 0.930 . S
H1136 C1146 0.930 . S
H1137 C1149 0.929 . S
H1138 C1152 0.930 . S
H1139 C1154 0.960 . S
H1140 C1154 0.960 . S
H1141 C1154 0.960 . S
C1142 H1134 0.929 . S
C1142 C1143 1.377 . S
C1142 C1144 1.384 . S
C1143 C1142 1.377 . S
C1143 C1149 1.390 . S
C1144 H1135 0.930 . S
C1144 C1142 1.384 . S
C1144 C1145 1.372 . S
C1145 C1144 1.372 . S
C1145 C1146 1.400 . S
C1145 C1150 1.490 . S
C1146 H1136 0.930 . S
C1146 C1145 1.400 . S
C1146 C1149 1.386 . S
H1147 C1163 0.930 . S
H1148 C1164 0.931 . S
C1149 H1137 0.929 . S
C1149 C1143 1.390 . S
C1149 C1146 1.386 . S
C1150 C1145 1.490 . S
C1150 C1152 1.395 . S
C1150 C1153 1.403 . S
H1151 C1157 0.930 . S
C1152 H1138 0.930 . S
C1152 C1150 1.395 . S
C1152 C1155 1.403 . S
C1153 C1150 1.403 . S
C1153 C1154 1.524 . S
C1153 C1157 1.400 . S
C1154 H1139 0.960 . S
C1154 H1140 0.960 . S
C1154 H1141 0.960 . S
C1154 C1153 1.524 . S
C1155 C1152 1.403 . S
C1155 C1156 1.392 . S
C1155 C1159 1.495 . S
C1156 C1155 1.392 . S
C1156 C1157 1.385 . S
C1156 C1158 1.478 . S
C1157 H1151 0.930 . S
C1157 C1153 1.400 . S
C1157 C1156 1.385 . S
C1158 C1156 1.478 . S
C1158 C1160 1.381 . S
C1158 C1164 1.383 . S
C1159 C1155 1.495 . S
C1159 H1165 0.959 . S
C1159 H1166 0.961 . S
C1159 H1167 0.960 . S
C1160 C1158 1.381 . S
C1160 C1161 1.394 . S
C1160 H1168 0.930 . S
C1161 C1160 1.394 . S
C1161 C1162 1.383 . S
C1161 H1169 0.929 . S
C1162 C1161 1.383 . S
C1162 C1163 1.377 . S
C1163 H1147 0.930 . S
C1163 C1162 1.377 . S
C1163 C1164 1.379 . S
C1164 H1148 0.931 . S
C1164 C1158 1.383 . S
C1164 C1163 1.379 . S
H1165 C1159 0.959 . S
H1166 C1159 0.961 . S
H1167 C1159 0.960 . S
H1168 C1160 0.930 . S
H1169 C1161 0.929 . S
H1170 C1178 0.929 . S
H1171 C1180 0.930 . S
H1172 C1182 0.930 . S
H1173 C1185 0.929 . S
H1174 C1188 0.930 . S
H1175 C1190 0.960 . S
H1176 C1190 0.960 . S
H1177 C1190 0.960 . S
C1178 H1170 0.929 . S
C1178 C1179 1.377 . S
C1178 C1180 1.384 . S
C1179 C1178 1.377 . S
C1179 C1185 1.390 . S
C1180 H1171 0.930 . S
C1180 C1178 1.384 . S
C1180 C1181 1.372 . S
C1181 C1180 1.372 . S
C1181 C1182 1.400 . S
C1181 C1186 1.490 . S
C1182 H1172 0.930 . S
C1182 C1181 1.400 . S
C1182 C1185 1.386 . S
H1183 C1199 0.930 . S
H1184 C1200 0.931 . S
C1185 H1173 0.929 . S
C1185 C1179 1.390 . S
C1185 C1182 1.386 . S
C1186 C1181 1.490 . S
C1186 C1188 1.395 . S
C1186 C1189 1.403 . S
H1187 C1193 0.930 . S
C1188 H1174 0.930 . S
C1188 C1186 1.395 . S
C1188 C1191 1.403 . S
C1189 C1186 1.403 . S
C1189 C1190 1.524 . S
C1189 C1193 1.400 . S
C1190 H1175 0.960 . S
C1190 H1176 0.960 . S
C1190 H1177 0.960 . S
C1190 C1189 1.524 . S
C1191 C1188 1.403 . S
C1191 C1192 1.392 . S
C1191 C1195 1.495 . S
C1192 C1191 1.392 . S
C1192 C1193 1.385 . S
C1192 C1194 1.478 . S
C1193 H1187 0.930 . S
C1193 C1189 1.400 . S
C1193 C1192 1.385 . S
C1194 C1192 1.478 . S
C1194 C1196 1.381 . S
C1194 C1200 1.383 . S
C1195 C1191 1.495 . S
C1195 H1201 0.959 . S
C1195 H1202 0.961 . S
C1195 H1203 0.960 . S
C1196 C1194 1.381 . S
C1196 C1197 1.394 . S
C1196 H1204 0.930 . S
C1197 C1196 1.394 . S
C1197 C1198 1.383 . S
C1197 H1205 0.929 . S
C1198 C1197 1.383 . S
C1198 C1199 1.377 . S
C1199 H1183 0.930 . S
C1199 C1198 1.377 . S
C1199 C1200 1.379 . S
C1200 H1184 0.931 . S
C1200 C1194 1.383 . S
C1200 C1199 1.379 . S
H1201 C1195 0.959 . S
H1202 C1195 0.961 . S
H1203 C1195 0.960 . S
H1204 C1196 0.930 . S
H1205 C1197 0.929 . S
H1206 C1214 0.929 . S
H1207 C1216 0.930 . S
H1208 C1218 0.930 . S
H1209 C1221 0.929 . S
H1210 C1224 0.930 . S
H1211 C1226 0.960 . S
H1212 C1226 0.960 . S
H1213 C1226 0.960 . S
C1214 H1206 0.929 . S
C1214 C1215 1.377 . S
C1214 C1216 1.384 . S
C1215 C1214 1.377 . S
C1215 C1221 1.390 . S
C1216 H1207 0.930 . S
C1216 C1214 1.384 . S
C1216 C1217 1.372 . S
C1217 C1216 1.372 . S
C1217 C1218 1.400 . S
C1217 C1222 1.490 . S
C1218 H1208 0.930 . S
C1218 C1217 1.400 . S
C1218 C1221 1.386 . S
H1219 C1235 0.930 . S
H1220 C1236 0.931 . S
C1221 H1209 0.929 . S
C1221 C1215 1.390 . S
C1221 C1218 1.386 . S
C1222 C1217 1.490 . S
C1222 C1224 1.395 . S
C1222 C1225 1.403 . S
H1223 C1229 0.930 . S
C1224 H1210 0.930 . S
C1224 C1222 1.395 . S
C1224 C1227 1.403 . S
C1225 C1222 1.403 . S
C1225 C1226 1.524 . S
C1225 C1229 1.400 . S
C1226 H1211 0.960 . S
C1226 H1212 0.960 . S
C1226 H1213 0.960 . S
C1226 C1225 1.524 . S
C1227 C1224 1.403 . S
C1227 C1228 1.392 . S
C1227 C1231 1.495 . S
C1228 C1227 1.392 . S
C1228 C1229 1.385 . S
C1228 C1230 1.478 . S
C1229 H1223 0.930 . S
C1229 C1225 1.400 . S
C1229 C1228 1.385 . S
C1230 C1228 1.478 . S
C1230 C1232 1.381 . S
C1230 C1236 1.383 . S
C1231 C1227 1.495 . S
C1231 H1237 0.959 . S
C1231 H1238 0.961 . S
C1231 H1239 0.960 . S
C1232 C1230 1.381 . S
C1232 C1233 1.394 . S
C1232 H1240 0.930 . S
C1233 C1232 1.394 . S
C1233 C1234 1.383 . S
C1233 H1241 0.929 . S
C1234 C1233 1.383 . S
C1234 C1235 1.377 . S
C1235 H1219 0.930 . S
C1235 C1234 1.377 . S
C1235 C1236 1.379 . S
C1236 H1220 0.931 . S
C1236 C1230 1.383 . S
C1236 C1235 1.379 . S
H1237 C1231 0.959 . S
H1238 C1231 0.961 . S
H1239 C1231 0.960 . S
H1240 C1232 0.930 . S
H1241 C1233 0.929 . S
H1242 C1250 0.929 . S
H1243 C1252 0.930 . S
H1244 C1254 0.930 . S
H1245 C1257 0.929 . S
H1246 C1260 0.930 . S
H1247 C1262 0.960 . S
H1248 C1262 0.960 . S
H1249 C1262 0.960 . S
C1250 H1242 0.929 . S
C1250 C1251 1.377 . S
C1250 C1252 1.384 . S
C1251 C1250 1.377 . S
C1251 C1257 1.390 . S
C1252 H1243 0.930 . S
C1252 C1250 1.384 . S
C1252 C1253 1.372 . S
C1253 C1252 1.372 . S
C1253 C1254 1.400 . S
C1253 C1258 1.490 . S
C1254 H1244 0.930 . S
C1254 C1253 1.400 . S
C1254 C1257 1.386 . S
H1255 C1271 0.930 . S
H1256 C1272 0.931 . S
C1257 H1245 0.929 . S
C1257 C1251 1.390 . S
C1257 C1254 1.386 . S
C1258 C1253 1.490 . S
C1258 C1260 1.395 . S
C1258 C1261 1.403 . S
H1259 C1265 0.930 . S
C1260 H1246 0.930 . S
C1260 C1258 1.395 . S
C1260 C1263 1.403 . S
C1261 C1258 1.403 . S
C1261 C1262 1.524 . S
C1261 C1265 1.400 . S
C1262 H1247 0.960 . S
C1262 H1248 0.960 . S
C1262 H1249 0.960 . S
C1262 C1261 1.524 . S
C1263 C1260 1.403 . S
C1263 C1264 1.392 . S
C1263 C1267 1.495 . S
C1264 C1263 1.392 . S
C1264 C1265 1.385 . S
C1264 C1266 1.478 . S
C1265 H1259 0.930 . S
C1265 C1261 1.400 . S
C1265 C1264 1.385 . S
C1266 C1264 1.478 . S
C1266 C1268 1.381 . S
C1266 C1272 1.383 . S
C1267 C1263 1.495 . S
C1267 H1273 0.959 . S
C1267 H1274 0.961 . S
C1267 H1275 0.960 . S
C1268 C1266 1.381 . S
C1268 C1269 1.394 . S
C1268 H1276 0.930 . S
C1269 C1268 1.394 . S
C1269 C1270 1.383 . S
C1269 H1277 0.929 . S
C1270 C1269 1.383 . S
C1270 C1271 1.377 . S
C1271 H1255 0.930 . S
C1271 C1270 1.377 . S
C1271 C1272 1.379 . S
C1272 H1256 0.931 . S
C1272 C1266 1.383 . S
C1272 C1271 1.379 . S
H1273 C1267 0.959 . S
H1274 C1267 0.961 . S
H1275 C1267 0.960 . S
H1276 C1268 0.930 . S
H1277 C1269 0.929 . S
H1278 C1286 0.929 . S
H1279 C1288 0.930 . S
H1280 C1290 0.930 . S
H1281 C1293 0.929 . S
H1282 C1296 0.930 . S
H1283 C1298 0.960 . S
H1284 C1298 0.960 . S
H1285 C1298 0.960 . S
C1286 H1278 0.929 . S
C1286 C1287 1.377 . S
C1286 C1288 1.384 . S
C1287 C1286 1.377 . S
C1287 C1293 1.390 . S
C1288 H1279 0.930 . S
C1288 C1286 1.384 . S
C1288 C1289 1.372 . S
C1289 C1288 1.372 . S
C1289 C1290 1.400 . S
C1289 C1294 1.490 . S
C1290 H1280 0.930 . S
C1290 C1289 1.400 . S
C1290 C1293 1.386 . S
H1291 C1307 0.930 . S
H1292 C1308 0.931 . S
C1293 H1281 0.929 . S
C1293 C1287 1.390 . S
C1293 C1290 1.386 . S
C1294 C1289 1.490 . S
C1294 C1296 1.395 . S
C1294 C1297 1.403 . S
H1295 C1301 0.930 . S
C1296 H1282 0.930 . S
C1296 C1294 1.395 . S
C1296 C1299 1.403 . S
C1297 C1294 1.403 . S
C1297 C1298 1.524 . S
C1297 C1301 1.400 . S
C1298 H1283 0.960 . S
C1298 H1284 0.960 . S
C1298 H1285 0.960 . S
C1298 C1297 1.524 . S
C1299 C1296 1.403 . S
C1299 C1300 1.392 . S
C1299 C1303 1.495 . S
C1300 C1299 1.392 . S
C1300 C1301 1.385 . S
C1300 C1302 1.478 . S
C1301 H1295 0.930 . S
C1301 C1297 1.400 . S
C1301 C1300 1.385 . S
C1302 C1300 1.478 . S
C1302 C1304 1.381 . S
C1302 C1308 1.383 . S
C1303 C1299 1.495 . S
C1303 H1309 0.959 . S
C1303 H1310 0.961 . S
C1303 H1311 0.960 . S
C1304 C1302 1.381 . S
C1304 C1305 1.394 . S
C1304 H1312 0.930 . S
C1305 C1304 1.394 . S
C1305 C1306 1.383 . S
C1305 H1313 0.929 . S
C1306 C1305 1.383 . S
C1306 C1307 1.377 . S
C1307 H1291 0.930 . S
C1307 C1306 1.377 . S
C1307 C1308 1.379 . S
C1308 H1292 0.931 . S
C1308 C1302 1.383 . S
C1308 C1307 1.379 . S
H1309 C1303 0.959 . S
H1310 C1303 0.961 . S
H1311 C1303 0.960 . S
H1312 C1304 0.930 . S
H1313 C1305 0.929 . S
H1314 C1322 0.929 . S
H1315 C1324 0.930 . S
H1316 C1326 0.930 . S
H1317 C1329 0.929 . S
H1318 C1332 0.930 . S
H1319 C1334 0.960 . S
H1320 C1334 0.960 . S
H1321 C1334 0.960 . S
C1322 H1314 0.929 . S
C1322 C1323 1.377 . S
C1322 C1324 1.384 . S
C1323 C1322 1.377 . S
C1323 C1329 1.390 . S
C1324 H1315 0.930 . S
C1324 C1322 1.384 . S
C1324 C1325 1.372 . S
C1325 C1324 1.372 . S
C1325 C1326 1.400 . S
C1325 C1330 1.490 1_545 S
C1326 H1316 0.930 . S
C1326 C1325 1.400 . S
C1326 C1329 1.386 . S
H1327 C1343 0.930 . S
H1328 C1344 0.931 . S
C1329 H1317 0.929 . S
C1329 C1323 1.390 . S
C1329 C1326 1.386 . S
C1330 C1325 1.490 1_565 S
C1330 C1332 1.395 . S
C1330 C1333 1.403 . S
H1331 C1337 0.930 . S
C1332 H1318 0.930 . S
C1332 C1330 1.395 . S
C1332 C1335 1.403 . S
C1333 C1330 1.403 . S
C1333 C1334 1.524 . S
C1333 C1337 1.400 . S
C1334 H1319 0.960 . S
C1334 H1320 0.960 . S
C1334 H1321 0.960 . S
C1334 C1333 1.524 . S
C1335 C1332 1.403 . S
C1335 C1336 1.392 . S
C1335 C1339 1.495 . S
C1336 C1335 1.392 . S
C1336 C1337 1.385 . S
C1336 C1338 1.478 . S
C1337 H1331 0.930 . S
C1337 C1333 1.400 . S
C1337 C1336 1.385 . S
C1338 C1336 1.478 . S
C1338 C1340 1.381 . S
C1338 C1344 1.383 . S
C1339 C1335 1.495 . S
C1339 H1345 0.959 . S
C1339 H1346 0.961 . S
C1339 H1347 0.960 . S
C1340 C1338 1.381 . S
C1340 C1341 1.394 . S
C1340 H1348 0.930 . S
C1341 C1340 1.394 . S
C1341 C1342 1.383 . S
C1341 H1349 0.929 . S
C1342 C1341 1.383 . S
C1342 C1343 1.377 . S
C1343 H1327 0.930 . S
C1343 C1342 1.377 . S
C1343 C1344 1.379 . S
C1344 H1328 0.931 . S
C1344 C1338 1.383 . S
C1344 C1343 1.379 . S
H1345 C1339 0.959 . S
H1346 C1339 0.961 . S
H1347 C1339 0.960 . S
H1348 C1340 0.930 . S
H1349 C1341 0.929 . S
H1350 C1358 0.929 . S
H1351 C1360 0.930 . S
H1352 C1362 0.930 . S
H1353 C1365 0.929 . S
H1354 C1368 0.930 . S
H1355 C1370 0.960 . S
H1356 C1370 0.960 . S
H1357 C1370 0.960 . S
C1358 H1350 0.929 . S
C1358 C1359 1.377 . S
C1358 C1360 1.384 1_655 S
C1359 C1358 1.377 . S
C1359 C1365 1.390 . S
C1360 H1351 0.930 . S
C1360 C1358 1.384 1_455 S
C1360 C1361 1.372 . S
C1361 C1360 1.372 . S
C1361 C1362 1.400 1_455 S
C1361 C1366 1.490 . S
C1362 H1352 0.930 . S
C1362 C1361 1.400 1_655 S
C1362 C1365 1.386 . S
H1363 C1379 0.930 . S
H1364 C1380 0.931 . S
C1365 H1353 0.929 . S
C1365 C1359 1.390 . S
C1365 C1362 1.386 . S
C1366 C1361 1.490 . S
C1366 C1368 1.395 . S
C1366 C1369 1.403 . S
H1367 C1373 0.930 . S
C1368 H1354 0.930 . S
C1368 C1366 1.395 . S
C1368 C1371 1.403 . S
C1369 C1366 1.403 . S
C1369 C1370 1.524 . S
C1369 C1373 1.400 . S
C1370 H1355 0.960 . S
C1370 H1356 0.960 . S
C1370 H1357 0.960 . S
C1370 C1369 1.524 . S
C1371 C1368 1.403 . S
C1371 C1372 1.392 . S
C1371 C1375 1.495 . S
C1372 C1371 1.392 . S
C1372 C1373 1.385 . S
C1372 C1374 1.478 . S
C1373 H1367 0.930 . S
C1373 C1369 1.400 . S
C1373 C1372 1.385 . S
C1374 C1372 1.478 . S
C1374 C1376 1.381 . S
C1374 C1380 1.383 . S
C1375 C1371 1.495 . S
C1375 H1381 0.959 . S
C1375 H1382 0.961 . S
C1375 H1383 0.960 . S
C1376 C1374 1.381 . S
C1376 C1377 1.394 . S
C1376 H1384 0.930 . S
C1377 C1376 1.394 . S
C1377 C1378 1.383 . S
C1377 H1385 0.929 . S
C1378 C1377 1.383 . S
C1378 C1379 1.377 . S
C1379 H1363 0.930 . S
C1379 C1378 1.377 . S
C1379 C1380 1.379 . S
C1380 H1364 0.931 . S
C1380 C1374 1.383 . S
C1380 C1379 1.379 . S
H1381 C1375 0.959 . S
H1382 C1375 0.961 . S
H1383 C1375 0.960 . S
H1384 C1376 0.930 . S
H1385 C1377 0.929 . S
H1386 C1394 0.929 . S
H1387 C1396 0.930 . S
H1388 C1398 0.930 . S
H1389 C1401 0.929 . S
H1390 C1404 0.930 . S
H1391 C1406 0.960 . S
H1392 C1406 0.960 . S
H1393 C1406 0.960 . S
C1394 H1386 0.929 . S
C1394 C1395 1.377 . S
C1394 C1396 1.384 . S
C1395 C1394 1.377 . S
C1395 C1401 1.390 . S
C1396 H1387 0.930 . S
C1396 C1394 1.384 . S
C1396 C1397 1.372 . S
C1397 C1396 1.372 . S
C1397 C1398 1.400 . S
C1397 C1402 1.490 . S
C1398 H1388 0.930 . S
C1398 C1397 1.400 . S
C1398 C1401 1.386 . S
H1399 C1415 0.930 . S
H1400 C1416 0.931 . S
C1401 H1389 0.929 . S
C1401 C1395 1.390 . S
C1401 C1398 1.386 . S
C1402 C1397 1.490 . S
C1402 C1404 1.395 . S
C1402 C1405 1.403 . S
H1403 C1409 0.930 . S
C1404 H1390 0.930 . S
C1404 C1402 1.395 . S
C1404 C1407 1.403 . S
C1405 C1402 1.403 . S
C1405 C1406 1.524 . S
C1405 C1409 1.400 . S
C1406 H1391 0.960 . S
C1406 H1392 0.960 . S
C1406 H1393 0.960 . S
C1406 C1405 1.524 . S
C1407 C1404 1.403 . S
C1407 C1408 1.392 . S
C1407 C1411 1.495 . S
C1408 C1407 1.392 . S
C1408 C1409 1.385 . S
C1408 C1410 1.478 . S
C1409 H1403 0.930 . S
C1409 C1405 1.400 . S
C1409 C1408 1.385 . S
C1410 C1408 1.478 . S
C1410 C1412 1.381 . S
C1410 C1416 1.383 . S
C1411 C1407 1.495 . S
C1411 H1417 0.959 . S
C1411 H1418 0.961 . S
C1411 H1419 0.960 . S
C1412 C1410 1.381 . S
C1412 C1413 1.394 . S
C1412 H1420 0.930 . S
C1413 C1412 1.394 . S
C1413 C1414 1.383 . S
C1413 H1421 0.929 . S
C1414 C1413 1.383 . S
C1414 C1415 1.377 . S
C1415 H1399 0.930 . S
C1415 C1414 1.377 . S
C1415 C1416 1.379 . S
C1416 H1400 0.931 . S
C1416 C1410 1.383 . S
C1416 C1415 1.379 . S
H1417 C1411 0.959 . S
H1418 C1411 0.961 . S
H1419 C1411 0.960 . S
H1420 C1412 0.930 . S
H1421 C1413 0.929 . S
H1422 C1430 0.929 . S
H1423 C1432 0.930 . S
H1424 C1434 0.930 . S
H1425 C1437 0.929 . S
H1426 C1440 0.930 . S
H1427 C1442 0.960 . S
H1428 C1442 0.960 . S
H1429 C1442 0.960 . S
C1430 H1422 0.929 . S
C1430 C1431 1.377 . S
C1430 C1432 1.384 . S
C1431 C1430 1.377 . S
C1431 C1437 1.390 . S
C1432 H1423 0.930 . S
C1432 C1430 1.384 . S
C1432 C1433 1.372 . S
C1433 C1432 1.372 . S
C1433 C1434 1.400 . S
C1433 C1438 1.490 . S
C1434 H1424 0.930 . S
C1434 C1433 1.400 . S
C1434 C1437 1.386 . S
H1435 C1451 0.930 . S
H1436 C1452 0.931 . S
C1437 H1425 0.929 . S
C1437 C1431 1.390 . S
C1437 C1434 1.386 . S
C1438 C1433 1.490 . S
C1438 C1440 1.395 . S
C1438 C1441 1.403 . S
H1439 C1445 0.930 . S
C1440 H1426 0.930 . S
C1440 C1438 1.395 . S
C1440 C1443 1.403 . S
C1441 C1438 1.403 . S
C1441 C1442 1.524 . S
C1441 C1445 1.400 . S
C1442 H1427 0.960 . S
C1442 H1428 0.960 . S
C1442 H1429 0.960 . S
C1442 C1441 1.524 . S
C1443 C1440 1.403 . S
C1443 C1444 1.392 . S
C1443 C1447 1.495 . S
C1444 C1443 1.392 . S
C1444 C1445 1.385 . S
C1444 C1446 1.478 . S
C1445 H1439 0.930 . S
C1445 C1441 1.400 . S
C1445 C1444 1.385 . S
C1446 C1444 1.478 . S
C1446 C1448 1.381 . S
C1446 C1452 1.383 . S
C1447 C1443 1.495 . S
C1447 H1453 0.959 . S
C1447 H1454 0.961 . S
C1447 H1455 0.960 . S
C1448 C1446 1.381 . S
C1448 C1449 1.394 . S
C1448 H1456 0.930 . S
C1449 C1448 1.394 . S
C1449 C1450 1.383 . S
C1449 H1457 0.929 . S
C1450 C1449 1.383 . S
C1450 C1451 1.377 . S
C1451 H1435 0.930 . S
C1451 C1450 1.377 . S
C1451 C1452 1.379 . S
C1452 H1436 0.931 . S
C1452 C1446 1.383 . S
C1452 C1451 1.379 . S
H1453 C1447 0.959 . S
H1454 C1447 0.961 . S
H1455 C1447 0.960 . S
H1456 C1448 0.930 . S
H1457 C1449 0.929 . S
H1458 C1466 0.929 . S
H1459 C1468 0.930 . S
H1460 C1470 0.930 . S
H1461 C1473 0.929 . S
H1462 C1476 0.930 . S
H1463 C1478 0.960 . S
H1464 C1478 0.960 . S
H1465 C1478 0.960 . S
C1466 H1458 0.929 . S
C1466 C1467 1.377 . S
C1466 C1468 1.384 . S
C1467 C1466 1.377 . S
C1467 C1473 1.390 . S
C1468 H1459 0.930 . S
C1468 C1466 1.384 . S
C1468 C1469 1.372 . S
C1469 C1468 1.372 . S
C1469 C1470 1.400 . S
C1469 C1474 1.490 . S
C1470 H1460 0.930 . S
C1470 C1469 1.400 . S
C1470 C1473 1.386 . S
H1471 C1487 0.930 . S
H1472 C1488 0.931 . S
C1473 H1461 0.929 . S
C1473 C1467 1.390 . S
C1473 C1470 1.386 . S
C1474 C1469 1.490 . S
C1474 C1476 1.395 . S
C1474 C1477 1.403 . S
H1475 C1481 0.930 . S
C1476 H1462 0.930 . S
C1476 C1474 1.395 . S
C1476 C1479 1.403 . S
C1477 C1474 1.403 . S
C1477 C1478 1.524 . S
C1477 C1481 1.400 . S
C1478 H1463 0.960 . S
C1478 H1464 0.960 . S
C1478 H1465 0.960 . S
C1478 C1477 1.524 . S
C1479 C1476 1.403 . S
C1479 C1480 1.392 . S
C1479 C1483 1.495 . S
C1480 C1479 1.392 . S
C1480 C1481 1.385 . S
C1480 C1482 1.478 . S
C1481 H1475 0.930 . S
C1481 C1477 1.400 . S
C1481 C1480 1.385 . S
C1482 C1480 1.478 . S
C1482 C1484 1.381 . S
C1482 C1488 1.383 . S
C1483 C1479 1.495 . S
C1483 H1489 0.959 . S
C1483 H1490 0.961 . S
C1483 H1491 0.960 . S
C1484 C1482 1.381 . S
C1484 C1485 1.394 . S
C1484 H1492 0.930 . S
C1485 C1484 1.394 . S
C1485 C1486 1.383 . S
C1485 H1493 0.929 . S
C1486 C1485 1.383 . S
C1486 C1487 1.377 . S
C1487 H1471 0.930 . S
C1487 C1486 1.377 . S
C1487 C1488 1.379 . S
C1488 H1472 0.931 . S
C1488 C1482 1.383 . S
C1488 C1487 1.379 . S
H1489 C1483 0.959 . S
H1490 C1483 0.961 . S
H1491 C1483 0.960 . S
H1492 C1484 0.930 . S
H1493 C1485 0.929 . S
H1494 C1502 0.929 . S
H1495 C1504 0.930 . S
H1496 C1506 0.930 . S
H1497 C1509 0.929 . S
H1498 C1512 0.930 . S
H1499 C1514 0.960 . S
H1500 C1514 0.960 . S
H1501 C1514 0.960 . S
C1502 H1494 0.929 . S
C1502 C1503 1.377 . S
C1502 C1504 1.384 . S
C1503 C1502 1.377 . S
C1503 C1509 1.390 . S
C1504 H1495 0.930 . S
C1504 C1502 1.384 . S
C1504 C1505 1.372 . S
C1505 C1504 1.372 . S
C1505 C1506 1.400 . S
C1505 C1510 1.490 . S
C1506 H1496 0.930 . S
C1506 C1505 1.400 . S
C1506 C1509 1.386 . S
H1507 C1523 0.930 . S
H1508 C1524 0.931 . S
C1509 H1497 0.929 . S
C1509 C1503 1.390 . S
C1509 C1506 1.386 . S
C1510 C1505 1.490 . S
C1510 C1512 1.395 . S
C1510 C1513 1.403 . S
H1511 C1517 0.930 . S
C1512 H1498 0.930 . S
C1512 C1510 1.395 . S
C1512 C1515 1.403 . S
C1513 C1510 1.403 . S
C1513 C1514 1.524 . S
C1513 C1517 1.400 . S
C1514 H1499 0.960 . S
C1514 H1500 0.960 . S
C1514 H1501 0.960 . S
C1514 C1513 1.524 . S
C1515 C1512 1.403 . S
C1515 C1516 1.392 . S
C1515 C1519 1.495 . S
C1516 C1515 1.392 . S
C1516 C1517 1.385 . S
C1516 C1518 1.478 . S
C1517 H1511 0.930 . S
C1517 C1513 1.400 . S
C1517 C1516 1.385 . S
C1518 C1516 1.478 . S
C1518 C1520 1.381 . S
C1518 C1524 1.383 . S
C1519 C1515 1.495 . S
C1519 H1525 0.959 . S
C1519 H1526 0.961 . S
C1519 H1527 0.960 . S
C1520 C1518 1.381 . S
C1520 C1521 1.394 . S
C1520 H1528 0.930 . S
C1521 C1520 1.394 . S
C1521 C1522 1.383 . S
C1521 H1529 0.929 . S
C1522 C1521 1.383 . S
C1522 C1523 1.377 . S
C1523 H1507 0.930 . S
C1523 C1522 1.377 . S
C1523 C1524 1.379 . S
C1524 H1508 0.931 . S
C1524 C1518 1.383 . S
C1524 C1523 1.379 . S
H1525 C1519 0.959 . S
H1526 C1519 0.961 . S
H1527 C1519 0.960 . S
H1528 C1520 0.930 . S
H1529 C1521 0.929 . S
H1530 C1538 0.929 . S
H1531 C1540 0.930 . S
H1532 C1542 0.930 . S
H1533 C1545 0.929 . S
H1534 C1548 0.930 . S
H1535 C1550 0.960 . S
H1536 C1550 0.960 . S
H1537 C1550 0.960 . S
C1538 H1530 0.929 . S
C1538 C1539 1.377 . S
C1538 C1540 1.384 . S
C1539 C1538 1.377 . S
C1539 C1545 1.390 . S
C1540 H1531 0.930 . S
C1540 C1538 1.384 . S
C1540 C1541 1.372 . S
C1541 C1540 1.372 . S
C1541 C1542 1.400 . S
C1541 C1546 1.490 . S
C1542 H1532 0.930 . S
C1542 C1541 1.400 . S
C1542 C1545 1.386 . S
H1543 C1559 0.930 . S
H1544 C1560 0.931 . S
C1545 H1533 0.929 . S
C1545 C1539 1.390 . S
C1545 C1542 1.386 . S
C1546 C1541 1.490 . S
C1546 C1548 1.395 . S
C1546 C1549 1.403 . S
H1547 C1553 0.930 . S
C1548 H1534 0.930 . S
C1548 C1546 1.395 . S
C1548 C1551 1.403 1_565 S
C1549 C1546 1.403 . S
C1549 C1550 1.524 . S
C1549 C1553 1.400 1_565 S
C1550 H1535 0.960 . S
C1550 H1536 0.960 . S
C1550 H1537 0.960 . S
C1550 C1549 1.524 . S
C1551 C1548 1.403 1_545 S
C1551 C1552 1.392 . S
C1551 C1555 1.495 . S
C1552 C1551 1.392 . S
C1552 C1553 1.385 . S
C1552 C1554 1.478 . S
C1553 H1547 0.930 . S
C1553 C1549 1.400 1_545 S
C1553 C1552 1.385 . S
C1554 C1552 1.478 . S
C1554 C1556 1.381 . S
C1554 C1560 1.383 . S
C1555 C1551 1.495 . S
C1555 H1561 0.959 . S
C1555 H1562 0.961 . S
C1555 H1563 0.960 . S
C1556 C1554 1.381 . S
C1556 C1557 1.394 . S
C1556 H1564 0.930 . S
C1557 C1556 1.394 . S
C1557 C1558 1.383 . S
C1557 H1565 0.929 . S
C1558 C1557 1.383 . S
C1558 C1559 1.377 . S
C1559 H1543 0.930 . S
C1559 C1558 1.377 . S
C1559 C1560 1.379 . S
C1560 H1544 0.931 . S
C1560 C1554 1.383 . S
C1560 C1559 1.379 . S
H1561 C1555 0.959 . S
H1562 C1555 0.961 . S
H1563 C1555 0.960 . S
H1564 C1556 0.930 . S
H1565 C1557 0.929 . S
H1566 C1574 0.929 . S
H1567 C1576 0.930 . S
H1568 C1578 0.930 . S
H1569 C1581 0.929 . S
H1570 C1584 0.933 . S
H1571 C1586 0.960 . S
H1572 C1586 0.960 . S
H1573 C1586 0.960 . S
C1574 H1566 0.929 . S
C1574 C1575 1.377 . S
C1574 C1576 1.384 . S
C1575 C1574 1.377 . S
C1575 C1581 1.390 . S
C1576 H1567 0.930 . S
C1576 C1574 1.384 . S
C1576 C1577 1.372 . S
C1577 C1576 1.372 . S
C1577 C1578 1.400 . S
C1577 C1582 1.490 . S
C1578 H1568 0.930 . S
C1578 C1577 1.400 . S
C1578 C1581 1.386 . S
H1579 C1595 0.930 . S
H1580 C1596 0.931 . S
C1581 H1569 0.929 . S
C1581 C1575 1.390 . S
C1581 C1578 1.386 . S
C1582 C1577 1.490 . S
C1582 C1584 1.403 . S
C1582 C1585 1.403 . S
H1583 C1589 0.930 . S
C1584 H1570 0.933 . S
C1584 C1582 1.403 . S
C1584 C1587 1.393 1_455 S
C1585 C1582 1.403 . S
C1585 C1586 1.524 . S
C1585 C1589 1.400 1_455 S
C1586 H1571 0.960 . S
C1586 H1572 0.960 . S
C1586 H1573 0.960 . S
C1586 C1585 1.524 . S
C1587 C1584 1.393 1_655 S
C1587 C1588 1.392 . S
C1587 C1591 1.495 . S
C1588 C1587 1.392 . S
C1588 C1589 1.385 . S
C1588 C1590 1.478 . S
C1589 H1583 0.930 . S
C1589 C1585 1.400 1_655 S
C1589 C1588 1.385 . S
C1590 C1588 1.478 . S
C1590 C1592 1.381 . S
C1590 C1596 1.383 . S
C1591 C1587 1.495 . S
C1591 H1597 0.959 . S
C1591 H1598 0.961 . S
C1591 H1599 0.960 . S
C1592 C1590 1.381 . S
C1592 C1593 1.394 . S
C1592 H1600 0.930 . S
C1593 C1592 1.394 . S
C1593 C1594 1.383 . S
C1593 H1601 0.929 . S
C1594 C1593 1.383 . S
C1594 C1595 1.377 . S
C1595 H1579 0.930 . S
C1595 C1594 1.377 . S
C1595 C1596 1.379 . S
C1596 H1580 0.931 . S
C1596 C1590 1.383 . S
C1596 C1595 1.379 . S
H1597 C1591 0.959 . S
H1598 C1591 0.961 . S
H1599 C1591 0.960 . S
H1600 C1592 0.930 . S
H1601 C1593 0.929 . S
H1602 C1610 0.929 . S
H1603 C1612 0.930 . S
H1604 C1614 0.930 . S
H1605 C1617 0.929 . S
H1606 C1620 0.930 . S
H1607 C1622 0.960 . S
H1608 C1622 0.960 . S
H1609 C1622 0.960 . S
C1610 H1602 0.929 . S
C1610 C1611 1.377 . S
C1610 C1612 1.384 . S
C1611 C1610 1.377 . S
C1611 C1617 1.390 . S
C1612 H1603 0.930 . S
C1612 C1610 1.384 . S
C1612 C1613 1.372 . S
C1613 C1612 1.372 . S
C1613 C1614 1.400 . S
C1613 C1618 1.490 . S
C1614 H1604 0.930 . S
C1614 C1613 1.400 . S
C1614 C1617 1.386 . S
H1615 C1631 0.930 . S
H1616 C1632 0.931 . S
C1617 H1605 0.929 . S
C1617 C1611 1.390 . S
C1617 C1614 1.386 . S
C1618 C1613 1.490 . S
C1618 C1620 1.395 . S
C1618 C1621 1.403 . S
H1619 C1625 0.930 . S
C1620 H1606 0.930 . S
C1620 C1618 1.395 . S
C1620 C1623 1.403 . S
C1621 C1618 1.403 . S
C1621 C1622 1.524 . S
C1621 C1625 1.400 . S
C1622 H1607 0.960 . S
C1622 H1608 0.960 . S
C1622 H1609 0.960 . S
C1622 C1621 1.524 . S
C1623 C1620 1.403 . S
C1623 C1624 1.392 . S
C1623 C1627 1.495 . S
C1624 C1623 1.392 . S
C1624 C1625 1.385 . S
C1624 C1626 1.478 . S
C1625 H1619 0.930 . S
C1625 C1621 1.400 . S
C1625 C1624 1.385 . S
C1626 C1624 1.478 . S
C1626 C1628 1.381 . S
C1626 C1632 1.383 . S
C1627 C1623 1.495 . S
C1627 H1633 0.959 . S
C1627 H1634 0.961 . S
C1627 H1635 0.960 . S
C1628 C1626 1.381 . S
C1628 C1629 1.394 . S
C1628 H1636 0.930 . S
C1629 C1628 1.394 . S
C1629 C1630 1.383 . S
C1629 H1637 0.929 . S
C1630 C1629 1.383 . S
C1630 C1631 1.377 . S
C1631 H1615 0.930 . S
C1631 C1630 1.377 . S
C1631 C1632 1.379 . S
C1632 H1616 0.931 . S
C1632 C1626 1.383 . S
C1632 C1631 1.379 . S
H1633 C1627 0.959 . S
H1634 C1627 0.961 . S
H1635 C1627 0.960 . S
H1636 C1628 0.930 . S
H1637 C1629 0.929 . S
H1638 C1646 0.929 . S
H1639 C1648 0.930 . S
H1640 C1650 0.930 . S
H1641 C1653 0.929 . S
H1642 C1656 0.930 . S
H1643 C1658 0.960 . S
H1644 C1658 0.960 1_455 S
H1645 C1658 0.960 . S
C1646 H1638 0.929 . S
C1646 C1647 1.377 . S
C1646 C1648 1.384 . S
C1647 C1646 1.377 . S
C1647 C1653 1.390 . S
C1648 H1639 0.930 . S
C1648 C1646 1.384 . S
C1648 C1649 1.372 . S
C1649 C1648 1.372 . S
C1649 C1650 1.400 . S
C1649 C1654 1.490 1_455 S
C1650 H1640 0.930 . S
C1650 C1649 1.400 . S
C1650 C1653 1.386 . S
H1651 C1667 0.930 . S
H1652 C1668 0.931 . S
C1653 H1641 0.929 . S
C1653 C1647 1.390 . S
C1653 C1650 1.386 . S
C1654 C1649 1.490 1_655 S
C1654 C1656 1.395 . S
C1654 C1657 1.403 . S
H1655 C1661 0.930 . S
C1656 H1642 0.930 . S
C1656 C1654 1.395 . S
C1656 C1659 1.403 . S
C1657 C1654 1.403 . S
C1657 C1658 1.524 . S
C1657 C1661 1.400 . S
C1658 H1643 0.960 . S
C1658 H1644 0.960 1_655 S
C1658 H1645 0.960 . S
C1658 C1657 1.524 . S
C1659 C1656 1.403 . S
C1659 C1660 1.392 . S
C1659 C1663 1.495 . S
C1660 C1659 1.392 . S
C1660 C1661 1.385 . S
C1660 C1662 1.478 . S
C1661 H1655 0.930 . S
C1661 C1657 1.400 . S
C1661 C1660 1.385 . S
C1662 C1660 1.478 . S
C1662 C1664 1.381 . S
C1662 C1668 1.383 . S
C1663 C1659 1.495 . S
C1663 H1669 0.959 . S
C1663 H1670 0.961 . S
C1663 H1671 0.960 . S
C1664 C1662 1.381 . S
C1664 C1665 1.394 . S
C1664 H1672 0.930 . S
C1665 C1664 1.394 . S
C1665 C1666 1.383 . S
C1665 H1673 0.929 . S
C1666 C1665 1.383 . S
C1666 C1667 1.377 . S
C1667 H1651 0.930 . S
C1667 C1666 1.377 . S
C1667 C1668 1.379 . S
C1668 H1652 0.931 . S
C1668 C1662 1.383 . S
C1668 C1667 1.379 . S
H1669 C1663 0.959 . S
H1670 C1663 0.961 . S
H1671 C1663 0.960 . S
H1672 C1664 0.930 . S
H1673 C1665 0.929 . S
H1674 C1682 0.929 . S
H1675 C1684 0.930 . S
H1676 C1686 0.930 . S
H1677 C1689 0.929 . S
H1678 C1692 0.930 . S
H1679 C1694 0.960 . S
H1680 C1694 0.960 . S
H1681 C1694 0.960 . S
C1682 H1674 0.929 . S
C1682 C1683 1.377 . S
C1682 C1684 1.384 . S
C1683 C1682 1.377 . S
C1683 C1689 1.390 . S
C1684 H1675 0.930 . S
C1684 C1682 1.384 . S
C1684 C1685 1.372 . S
C1685 C1684 1.372 . S
C1685 C1686 1.400 . S
C1685 C1690 1.490 . S
C1686 H1676 0.930 . S
C1686 C1685 1.400 . S
C1686 C1689 1.386 . S
H1687 C1703 0.930 . S
H1688 C1704 0.931 . S
C1689 H1677 0.929 . S
C1689 C1683 1.390 . S
C1689 C1686 1.386 . S
C1690 C1685 1.490 . S
C1690 C1692 1.395 . S
C1690 C1693 1.403 . S
H1691 C1697 0.930 . S
C1692 H1678 0.930 . S
C1692 C1690 1.395 . S
C1692 C1695 1.403 . S
C1693 C1690 1.403 . S
C1693 C1694 1.524 . S
C1693 C1697 1.400 . S
C1694 H1679 0.960 . S
C1694 H1680 0.960 . S
C1694 H1681 0.960 . S
C1694 C1693 1.524 . S
C1695 C1692 1.403 . S
C1695 C1696 1.392 . S
C1695 C1699 1.495 . S
C1696 C1695 1.392 . S
C1696 C1697 1.385 . S
C1696 C1698 1.478 . S
C1697 H1691 0.930 . S
C1697 C1693 1.400 . S
C1697 C1696 1.385 . S
C1698 C1696 1.478 . S
C1698 C1700 1.381 . S
C1698 C1704 1.383 . S
C1699 C1695 1.495 . S
C1699 H1705 0.959 . S
C1699 H1706 0.961 . S
C1699 H1707 0.960 . S
C1700 C1698 1.381 . S
C1700 C1701 1.394 . S
C1700 H1708 0.930 . S
C1701 C1700 1.394 . S
C1701 C1702 1.383 . S
C1701 H1709 0.929 . S
C1702 C1701 1.383 . S
C1702 C1703 1.377 . S
C1703 H1687 0.930 . S
C1703 C1702 1.377 . S
C1703 C1704 1.379 . S
C1704 H1688 0.931 . S
C1704 C1698 1.383 . S
C1704 C1703 1.379 . S
H1705 C1699 0.959 . S
H1706 C1699 0.961 . S
H1707 C1699 0.960 . S
H1708 C1700 0.930 . S
H1709 C1701 0.929 . S
H1710 C1718 0.929 . S
H1711 C1720 0.930 . S
H1712 C1722 0.930 . S
H1713 C1725 0.929 . S
H1714 C1728 0.930 . S
H1715 C1730 0.960 . S
H1716 C1730 0.960 . S
H1717 C1730 0.960 . S
C1718 H1710 0.929 . S
C1718 C1719 1.377 . S
C1718 C1720 1.384 . S
C1719 C1718 1.377 . S
C1719 C1725 1.390 . S
C1720 H1711 0.930 . S
C1720 C1718 1.384 . S
C1720 C1721 1.372 . S
C1721 C1720 1.372 . S
C1721 C1722 1.400 . S
C1721 C1726 1.490 1_565 S
C1722 H1712 0.930 . S
C1722 C1721 1.400 . S
C1722 C1725 1.386 . S
H1723 C1739 0.930 . S
H1724 C1740 0.931 . S
C1725 H1713 0.929 . S
C1725 C1719 1.390 . S
C1725 C1722 1.386 . S
C1726 C1721 1.490 1_545 S
C1726 C1728 1.395 . S
C1726 C1729 1.403 . S
H1727 C1733 0.930 . S
C1728 H1714 0.930 . S
C1728 C1726 1.395 . S
C1728 C1731 1.403 . S
C1729 C1726 1.403 . S
C1729 C1730 1.524 . S
C1729 C1733 1.400 . S
C1730 H1715 0.960 . S
C1730 H1716 0.960 . S
C1730 H1717 0.960 . S
C1730 C1729 1.524 . S
C1731 C1728 1.403 . S
C1731 C1732 1.392 . S
C1731 C1735 1.495 . S
C1732 C1731 1.392 . S
C1732 C1733 1.385 . S
C1732 C1734 1.478 . S
C1733 H1727 0.930 . S
C1733 C1729 1.400 . S
C1733 C1732 1.385 . S
C1734 C1732 1.478 . S
C1734 C1736 1.381 . S
C1734 C1740 1.383 . S
C1735 C1731 1.495 . S
C1735 H1741 0.959 . S
C1735 H1742 0.961 . S
C1735 H1743 0.960 . S
C1736 C1734 1.381 . S
C1736 C1737 1.394 . S
C1736 H1744 0.930 . S
C1737 C1736 1.394 . S
C1737 C1738 1.383 . S
C1737 H1745 0.929 . S
C1738 C1737 1.383 . S
C1738 C1739 1.377 . S
C1739 H1723 0.930 . S
C1739 C1738 1.377 . S
C1739 C1740 1.379 . S
C1740 H1724 0.931 . S
C1740 C1734 1.383 . S
C1740 C1739 1.379 . S
H1741 C1735 0.959 . S
H1742 C1735 0.961 . S
H1743 C1735 0.960 . S
H1744 C1736 0.930 . S
H1745 C1737 0.929 . S
H1746 C1754 0.929 . S
H1747 C1756 0.930 . S
H1748 C1758 0.930 . S
H1749 C1761 0.929 . S
H1750 C1764 0.930 . S
H1751 C1766 0.960 . S
H1752 C1766 0.960 . S
H1753 C1766 0.960 . S
C1754 H1746 0.929 . S
C1754 C1755 1.377 . S
C1754 C1756 1.384 . S
C1755 C1754 1.377 . S
C1755 C1761 1.390 . S
C1756 H1747 0.930 . S
C1756 C1754 1.384 . S
C1756 C1757 1.372 . S
C1757 C1756 1.372 . S
C1757 C1758 1.400 . S
C1757 C1762 1.490 . S
C1758 H1748 0.930 . S
C1758 C1757 1.400 . S
C1758 C1761 1.386 . S
H1759 C1775 0.930 . S
H1760 C1776 0.931 . S
C1761 H1749 0.929 . S
C1761 C1755 1.390 . S
C1761 C1758 1.386 . S
C1762 C1757 1.490 . S
C1762 C1764 1.395 . S
C1762 C1765 1.403 . S
H1763 C1769 0.930 . S
C1764 H1750 0.930 . S
C1764 C1762 1.395 . S
C1764 C1767 1.403 . S
C1765 C1762 1.403 . S
C1765 C1766 1.524 . S
C1765 C1769 1.400 . S
C1766 H1751 0.960 . S
C1766 H1752 0.960 . S
C1766 H1753 0.960 . S
C1766 C1765 1.524 . S
C1767 C1764 1.403 . S
C1767 C1768 1.392 . S
C1767 C1771 1.495 . S
C1768 C1767 1.392 . S
C1768 C1769 1.385 . S
C1768 C1770 1.478 . S
C1769 H1763 0.930 . S
C1769 C1765 1.400 . S
C1769 C1768 1.385 . S
C1770 C1768 1.478 . S
C1770 C1772 1.381 . S
C1770 C1776 1.383 . S
C1771 C1767 1.495 . S
C1771 H1777 0.959 . S
C1771 H1778 0.961 . S
C1771 H1779 0.960 . S
C1772 C1770 1.381 . S
C1772 C1773 1.394 . S
C1772 H1780 0.930 . S
C1773 C1772 1.394 . S
C1773 C1774 1.383 . S
C1773 H1781 0.929 . S
C1774 C1773 1.383 . S
C1774 C1775 1.377 . S
C1775 H1759 0.930 . S
C1775 C1774 1.377 . S
C1775 C1776 1.379 . S
C1776 H1760 0.931 . S
C1776 C1770 1.383 . S
C1776 C1775 1.379 . S
H1777 C1771 0.959 . S
H1778 C1771 0.961 . S
H1779 C1771 0.960 . S
H1780 C1772 0.930 . S
H1781 C1773 0.929 . S
H1782 C1790 0.929 . S
H1783 C1792 0.930 . S
H1784 C1794 0.930 . S
H1785 C1797 0.929 . S
H1786 C1800 0.930 . S
H1787 C1802 0.960 . S
H1788 C1802 0.960 . S
H1789 C1802 0.960 . S
C1790 H1782 0.929 . S
C1790 C1791 1.377 . S
C1790 C1792 1.384 . S
C1791 C1790 1.377 . S
C1791 C1797 1.390 . S
C1792 H1783 0.930 . S
C1792 C1790 1.384 . S
C1792 C1793 1.372 . S
C1793 C1792 1.372 . S
C1793 C1794 1.400 . S
C1793 C1798 1.490 . S
C1794 H1784 0.930 . S
C1794 C1793 1.400 . S
C1794 C1797 1.386 . S
H1795 C1811 0.930 . S
H1796 C1812 0.931 . S
C1797 H1785 0.929 . S
C1797 C1791 1.390 . S
C1797 C1794 1.386 . S
C1798 C1793 1.490 . S
C1798 C1800 1.395 . S
C1798 C1801 1.403 . S
H1799 C1805 0.930 . S
C1800 H1786 0.930 . S
C1800 C1798 1.395 . S
C1800 C1803 1.403 . S
C1801 C1798 1.403 . S
C1801 C1802 1.524 . S
C1801 C1805 1.400 . S
C1802 H1787 0.960 . S
C1802 H1788 0.960 . S
C1802 H1789 0.960 . S
C1802 C1801 1.524 . S
C1803 C1800 1.403 . S
C1803 C1804 1.392 . S
C1803 C1807 1.495 . S
C1804 C1803 1.392 . S
C1804 C1805 1.385 . S
C1804 C1806 1.478 . S
C1805 H1799 0.930 . S
C1805 C1801 1.400 . S
C1805 C1804 1.385 . S
C1806 C1804 1.478 . S
C1806 C1808 1.381 . S
C1806 C1812 1.383 . S
C1807 C1803 1.495 . S
C1807 H1813 0.959 . S
C1807 H1814 0.961 . S
C1807 H1815 0.960 . S
C1808 C1806 1.381 . S
C1808 C1809 1.394 . S
C1808 H1816 0.930 . S
C1809 C1808 1.394 . S
C1809 C1810 1.383 . S
C1809 H1817 0.929 . S
C1810 C1809 1.383 . S
C1810 C1811 1.377 . S
C1811 H1795 0.930 . S
C1811 C1810 1.377 . S
C1811 C1812 1.379 . S
C1812 H1796 0.931 . S
C1812 C1806 1.383 . S
C1812 C1811 1.379 . S
H1813 C1807 0.959 . S
H1814 C1807 0.961 . S
H1815 C1807 0.960 . S
H1816 C1808 0.930 . S
H1817 C1809 0.929 . S
H1818 C1826 0.929 . S
H1819 C1828 0.930 . S
H1820 C1830 0.930 . S
H1821 C1833 0.929 . S
H1822 C1836 0.930 . S
H1823 C1838 0.960 . S
H1824 C1838 0.960 . S
H1825 C1838 0.960 . S
C1826 H1818 0.929 . S
C1826 C1827 1.377 . S
C1826 C1828 1.384 . S
C1827 C1826 1.377 . S
C1827 C1833 1.390 . S
C1828 H1819 0.930 . S
C1828 C1826 1.384 . S
C1828 C1829 1.372 . S
C1829 C1828 1.372 . S
C1829 C1830 1.400 . S
C1829 C1834 1.490 . S
C1830 H1820 0.930 . S
C1830 C1829 1.400 . S
C1830 C1833 1.386 . S
H1831 C1847 0.930 . S
H1832 C1848 0.931 . S
C1833 H1821 0.929 . S
C1833 C1827 1.390 . S
C1833 C1830 1.386 . S
C1834 C1829 1.490 . S
C1834 C1836 1.395 . S
C1834 C1837 1.403 . S
H1835 C1841 0.930 . S
C1836 H1822 0.930 . S
C1836 C1834 1.395 . S
C1836 C1839 1.403 . S
C1837 C1834 1.403 . S
C1837 C1838 1.524 . S
C1837 C1841 1.400 . S
C1838 H1823 0.960 . S
C1838 H1824 0.960 . S
C1838 H1825 0.960 . S
C1838 C1837 1.524 . S
C1839 C1836 1.403 . S
C1839 C1840 1.392 . S
C1839 C1843 1.495 . S
C1840 C1839 1.392 . S
C1840 C1841 1.385 . S
C1840 C1842 1.478 . S
C1841 H1835 0.930 . S
C1841 C1837 1.400 . S
C1841 C1840 1.385 . S
C1842 C1840 1.478 . S
C1842 C1844 1.381 . S
C1842 C1848 1.383 . S
C1843 C1839 1.495 . S
C1843 H1849 0.959 . S
C1843 H1850 0.961 . S
C1843 H1851 0.960 . S
C1844 C1842 1.381 . S
C1844 C1845 1.394 . S
C1844 H1852 0.930 . S
C1845 C1844 1.394 . S
C1845 C1846 1.383 . S
C1845 H1853 0.929 . S
C1846 C1845 1.383 . S
C1846 C1847 1.377 . S
C1847 H1831 0.930 . S
C1847 C1846 1.377 . S
C1847 C1848 1.379 . S
C1848 H1832 0.931 . S
C1848 C1842 1.383 . S
C1848 C1847 1.379 . S
H1849 C1843 0.959 . S
H1850 C1843 0.961 . S
H1851 C1843 0.960 . S
H1852 C1844 0.930 . S
H1853 C1845 0.929 . S
H1854 C1862 0.929 . S
H1855 C1864 0.930 . S
H1856 C1866 0.930 . S
H1857 C1869 0.929 . S
H1858 C1872 0.930 . S
H1859 C1874 0.960 . S
H1860 C1874 0.960 . S
H1861 C1874 0.960 . S
C1862 H1854 0.929 . S
C1862 C1863 1.377 . S
C1862 C1864 1.384 . S
C1863 C1862 1.377 . S
C1863 C1869 1.390 . S
C1864 H1855 0.930 . S
C1864 C1862 1.384 . S
C1864 C1865 1.372 . S
C1865 C1864 1.372 . S
C1865 C1866 1.400 . S
C1865 C1870 1.490 . S
C1866 H1856 0.930 . S
C1866 C1865 1.400 . S
C1866 C1869 1.386 . S
H1867 C1883 0.930 . S
H1868 C1884 0.931 . S
C1869 H1857 0.929 . S
C1869 C1863 1.390 . S
C1869 C1866 1.386 . S
C1870 C1865 1.490 . S
C1870 C1872 1.395 . S
C1870 C1873 1.403 . S
H1871 C1877 0.930 . S
C1872 H1858 0.930 . S
C1872 C1870 1.395 . S
C1872 C1875 1.403 . S
C1873 C1870 1.403 . S
C1873 C1874 1.524 . S
C1873 C1877 1.400 . S
C1874 H1859 0.960 . S
C1874 H1860 0.960 . S
C1874 H1861 0.960 . S
C1874 C1873 1.524 . S
C1875 C1872 1.403 . S
C1875 C1876 1.392 . S
C1875 C1879 1.495 . S
C1876 C1875 1.392 . S
C1876 C1877 1.385 . S
C1876 C1878 1.478 . S
C1877 H1871 0.930 . S
C1877 C1873 1.400 . S
C1877 C1876 1.385 . S
C1878 C1876 1.478 . S
C1878 C1880 1.381 . S
C1878 C1884 1.383 . S
C1879 C1875 1.495 . S
C1879 H1885 0.959 . S
C1879 H1886 0.947 1_565 S
C1879 H1887 0.960 . S
C1880 C1878 1.381 . S
C1880 C1881 1.394 . S
C1880 H1888 0.930 . S
C1881 C1880 1.394 . S
C1881 C1882 1.383 . S
C1881 H1889 0.929 . S
C1882 C1881 1.383 . S
C1882 C1883 1.377 . S
C1883 H1867 0.930 . S
C1883 C1882 1.377 . S
C1883 C1884 1.379 . S
C1884 H1868 0.931 . S
C1884 C1878 1.383 . S
C1884 C1883 1.379 . S
H1885 C1879 0.959 . S
H1886 C1879 0.947 1_545 S
H1887 C1879 0.960 . S
H1888 C1880 0.930 . S
H1889 C1881 0.929 . S
H1890 C1898 0.929 . S
H1891 C1900 0.930 . S
H1892 C1902 0.930 . S
H1893 C1905 0.929 . S
H1894 C1908 0.930 . S
H1895 C1910 0.960 . S
H1896 C1910 0.960 . S
H1897 C1910 0.960 . S
C1898 H1890 0.929 . S
C1898 C1899 1.377 . S
C1898 C1900 1.384 . S
C1899 C1898 1.377 . S
C1899 C1905 1.390 . S
C1900 H1891 0.930 . S
C1900 C1898 1.384 . S
C1900 C1901 1.372 . S
C1901 C1900 1.372 . S
C1901 C1902 1.400 . S
C1901 C1906 1.490 . S
C1902 H1892 0.930 . S
C1902 C1901 1.400 . S
C1902 C1905 1.386 . S
H1903 C1919 0.930 . S
H1904 C1920 0.931 . S
C1905 H1893 0.929 . S
C1905 C1899 1.390 . S
C1905 C1902 1.386 . S
C1906 C1901 1.490 . S
C1906 C1908 1.395 . S
C1906 C1909 1.403 . S
H1907 C1913 0.930 . S
C1908 H1894 0.930 . S
C1908 C1906 1.395 . S
C1908 C1911 1.403 . S
C1909 C1906 1.403 . S
C1909 C1910 1.524 . S
C1909 C1913 1.400 . S
C1910 H1895 0.960 . S
C1910 H1896 0.960 . S
C1910 H1897 0.960 . S
C1910 C1909 1.524 . S
C1911 C1908 1.403 . S
C1911 C1912 1.392 . S
C1911 C1915 1.495 . S
C1912 C1911 1.392 . S
C1912 C1913 1.385 . S
C1912 C1914 1.478 . S
C1913 H1907 0.930 . S
C1913 C1909 1.400 . S
C1913 C1912 1.385 . S
C1914 C1912 1.478 . S
C1914 C1916 1.381 . S
C1914 C1920 1.383 . S
C1915 C1911 1.495 . S
C1915 H1921 0.959 1_455 S
C1915 H1922 0.965 . S
C1915 H1923 0.960 1_455 S
C1916 C1914 1.381 . S
C1916 C1917 1.394 . S
C1916 H1924 0.930 . S
C1917 C1916 1.394 . S
C1917 C1918 1.383 . S
C1917 H1925 0.929 . S
C1918 C1917 1.383 . S
C1918 C1919 1.377 . S
C1919 H1903 0.930 . S
C1919 C1918 1.377 . S
C1919 C1920 1.379 . S
C1920 H1904 0.931 . S
C1920 C1914 1.383 . S
C1920 C1919 1.379 . S
H1921 C1915 0.959 1_655 S
H1922 C1915 0.965 . S
H1923 C1915 0.960 1_655 S
H1924 C1916 0.930 . S
H1925 C1917 0.929 . S
H1926 C1934 0.929 . S
H1927 C1936 0.930 . S
H1928 C1938 0.930 . S
H1929 C1941 0.929 . S
H1930 C1944 0.930 . S
H1931 C1946 0.960 . S
H1932 C1946 0.960 . S
H1933 C1946 0.960 . S
C1934 H1926 0.929 . S
C1934 C1935 1.377 . S
C1934 C1936 1.384 . S
C1935 C1934 1.377 . S
C1935 C1941 1.390 . S
C1936 H1927 0.930 . S
C1936 C1934 1.384 . S
C1936 C1937 1.372 . S
C1937 C1936 1.372 . S
C1937 C1938 1.400 . S
C1937 C1942 1.490 . S
C1938 H1928 0.930 . S
C1938 C1937 1.400 . S
C1938 C1941 1.386 . S
H1939 C1955 0.930 . S
H1940 C1956 0.931 . S
C1941 H1929 0.929 . S
C1941 C1935 1.390 . S
C1941 C1938 1.386 . S
C1942 C1937 1.490 . S
C1942 C1944 1.395 . S
C1942 C1945 1.403 . S
H1943 C1949 0.930 . S
C1944 H1930 0.930 . S
C1944 C1942 1.395 . S
C1944 C1947 1.403 . S
C1945 C1942 1.403 . S
C1945 C1946 1.524 . S
C1945 C1949 1.400 . S
C1946 H1931 0.960 . S
C1946 H1932 0.960 . S
C1946 H1933 0.960 . S
C1946 C1945 1.524 . S
C1947 C1944 1.403 . S
C1947 C1948 1.392 . S
C1947 C1951 1.495 . S
C1948 C1947 1.392 . S
C1948 C1949 1.385 . S
C1948 C1950 1.478 . S
C1949 H1943 0.930 . S
C1949 C1945 1.400 . S
C1949 C1948 1.385 . S
C1950 C1948 1.478 . S
C1950 C1952 1.381 . S
C1950 C1956 1.383 . S
C1951 C1947 1.495 . S
C1951 H1957 0.959 . S
C1951 H1958 0.961 . S
C1951 H1959 0.960 . S
C1952 C1950 1.381 . S
C1952 C1953 1.394 . S
C1952 H1960 0.930 . S
C1953 C1952 1.394 . S
C1953 C1954 1.383 . S
C1953 H1961 0.929 . S
C1954 C1953 1.383 . S
C1954 C1955 1.377 . S
C1955 H1939 0.930 . S
C1955 C1954 1.377 . S
C1955 C1956 1.379 . S
C1956 H1940 0.931 . S
C1956 C1950 1.383 . S
C1956 C1955 1.379 . S
H1957 C1951 0.959 . S
H1958 C1951 0.961 . S
H1959 C1951 0.960 . S
H1960 C1952 0.930 . S
H1961 C1953 0.929 . S
H1962 C1970 0.929 . S
H1963 C1972 0.930 . S
H1964 C1974 0.930 . S
H1965 C1977 0.929 . S
H1966 C1980 0.930 . S
H1967 C1982 0.960 . S
H1968 C1982 0.960 . S
H1969 C1982 0.960 . S
C1970 H1962 0.929 . S
C1970 C1971 1.377 . S
C1970 C1972 1.384 . S
C1971 C1970 1.377 . S
C1971 C1977 1.390 . S
C1972 H1963 0.930 . S
C1972 C1970 1.384 . S
C1972 C1973 1.372 . S
C1973 C1972 1.372 . S
C1973 C1974 1.400 . S
C1973 C1978 1.490 . S
C1974 H1964 0.930 . S
C1974 C1973 1.400 . S
C1974 C1977 1.386 . S
H1975 C1991 0.930 . S
H1976 C1992 0.931 . S
C1977 H1965 0.929 . S
C1977 C1971 1.390 . S
C1977 C1974 1.386 . S
C1978 C1973 1.490 . S
C1978 C1980 1.395 . S
C1978 C1981 1.403 . S
H1979 C1985 0.930 . S
C1980 H1966 0.930 . S
C1980 C1978 1.395 . S
C1980 C1983 1.403 . S
C1981 C1978 1.403 . S
C1981 C1982 1.524 . S
C1981 C1985 1.400 . S
C1982 H1967 0.960 . S
C1982 H1968 0.960 . S
C1982 H1969 0.960 . S
C1982 C1981 1.524 . S
C1983 C1980 1.403 . S
C1983 C1984 1.392 . S
C1983 C1987 1.495 . S
C1984 C1983 1.392 . S
C1984 C1985 1.385 . S
C1984 C1986 1.478 . S
C1985 H1979 0.930 . S
C1985 C1981 1.400 . S
C1985 C1984 1.385 . S
C1986 C1984 1.478 . S
C1986 C1988 1.381 . S
C1986 C1992 1.383 . S
C1987 C1983 1.495 . S
C1987 H1993 0.959 1_655 S
C1987 H1994 0.961 . S
C1987 H1995 0.960 1_655 S
C1988 C1986 1.381 . S
C1988 C1989 1.394 . S
C1988 H1996 0.930 . S
C1989 C1988 1.394 . S
C1989 C1990 1.383 . S
C1989 H1997 0.968 . S
C1990 C1989 1.383 . S
C1990 C1991 1.377 . S
C1991 H1975 0.930 . S
C1991 C1990 1.377 . S
C1991 C1992 1.379 . S
C1992 H1976 0.931 . S
C1992 C1986 1.383 . S
C1992 C1991 1.379 . S
H1993 C1987 0.959 1_455 S
H1994 C1987 0.961 . S
H1995 C1987 0.960 1_455 S
H1996 C1988 0.930 . S
H1997 C1989 0.968 . S
H1998 C2006 0.929 . S
H1999 C2008 0.930 . S
H2000 C2010 0.930 . S
H2001 C2013 0.929 . S
H2002 C2016 0.930 . S
H2003 C2018 0.960 . S
H2004 C2018 0.960 . S
H2005 C2018 0.960 . S
C2006 H1998 0.929 . S
C2006 C2007 1.377 . S
C2006 C2008 1.384 . S
C2007 C2006 1.377 . S
C2007 C2013 1.390 . S
C2008 H1999 0.930 . S
C2008 C2006 1.384 . S
C2008 C2009 1.372 . S
C2009 C2008 1.372 . S
C2009 C2010 1.400 . S
C2009 C2014 1.490 . S
C2010 H2000 0.930 . S
C2010 C2009 1.400 . S
C2010 C2013 1.386 . S
H2011 C2027 0.930 . S
H2012 C2028 0.931 . S
C2013 H2001 0.929 . S
C2013 C2007 1.390 . S
C2013 C2010 1.386 . S
C2014 C2009 1.490 . S
C2014 C2016 1.395 . S
C2014 C2017 1.403 . S
H2015 C2021 0.930 . S
C2016 H2002 0.930 . S
C2016 C2014 1.395 . S
C2016 C2019 1.403 . S
C2017 C2014 1.403 . S
C2017 C2018 1.524 . S
C2017 C2021 1.400 . S
C2018 H2003 0.960 . S
C2018 H2004 0.960 . S
C2018 H2005 0.960 . S
C2018 C2017 1.524 . S
C2019 C2016 1.403 . S
C2019 C2020 1.392 . S
C2019 C2023 1.495 . S
C2020 C2019 1.392 . S
C2020 C2021 1.385 . S
C2020 C2022 1.478 . S
C2021 H2015 0.930 . S
C2021 C2017 1.400 . S
C2021 C2020 1.385 . S
C2022 C2020 1.478 . S
C2022 C2024 1.381 . S
C2022 C2028 1.383 . S
C2023 C2019 1.495 . S
C2023 H2029 0.959 . S
C2023 H2030 0.961 . S
C2023 H2031 0.960 . S
C2024 C2022 1.381 . S
C2024 C2025 1.394 . S
C2024 H2032 0.930 . S
C2025 C2024 1.394 . S
C2025 C2026 1.383 . S
C2025 H2033 0.929 . S
C2026 C2025 1.383 . S
C2026 C2027 1.377 . S
C2027 H2011 0.930 . S
C2027 C2026 1.377 . S
C2027 C2028 1.379 . S
C2028 H2012 0.931 . S
C2028 C2022 1.383 . S
C2028 C2027 1.379 . S
H2029 C2023 0.959 . S
H2030 C2023 0.961 . S
H2031 C2023 0.960 . S
H2032 C2024 0.930 . S
H2033 C2025 0.929 . S
H2034 C2042 0.929 . S
H2035 C2044 0.930 . S
H2036 C2046 0.930 . S
H2037 C2049 0.929 . S
H2038 C2052 0.930 . S
H2039 C2054 0.960 . S
H2040 C2054 0.960 . S
H2041 C2054 0.960 . S
C2042 H2034 0.929 . S
C2042 C2043 1.377 . S
C2042 C2044 1.384 . S
C2043 C2042 1.377 . S
C2043 C2049 1.390 . S
C2044 H2035 0.930 . S
C2044 C2042 1.384 . S
C2044 C2045 1.372 . S
C2045 C2044 1.372 . S
C2045 C2046 1.400 . S
C2045 C2050 1.490 . S
C2046 H2036 0.930 . S
C2046 C2045 1.400 . S
C2046 C2049 1.386 . S
H2047 C2063 0.930 . S
H2048 C2064 0.931 . S
C2049 H2037 0.929 . S
C2049 C2043 1.390 . S
C2049 C2046 1.386 . S
C2050 C2045 1.490 . S
C2050 C2052 1.395 . S
C2050 C2053 1.403 . S
H2051 C2057 0.930 . S
C2052 H2038 0.930 . S
C2052 C2050 1.395 . S
C2052 C2055 1.403 . S
C2053 C2050 1.403 . S
C2053 C2054 1.524 . S
C2053 C2057 1.400 . S
C2054 H2039 0.960 . S
C2054 H2040 0.960 . S
C2054 H2041 0.960 . S
C2054 C2053 1.524 . S
C2055 C2052 1.403 . S
C2055 C2056 1.392 . S
C2055 C2059 1.495 . S
C2056 C2055 1.392 . S
C2056 C2057 1.385 . S
C2056 C2058 1.478 . S
C2057 H2051 0.930 . S
C2057 C2053 1.400 . S
C2057 C2056 1.385 . S
C2058 C2056 1.478 . S
C2058 C2060 1.381 . S
C2058 C2064 1.383 . S
C2059 C2055 1.495 . S
C2059 H2065 0.959 . S
C2059 H2066 0.961 . S
C2059 H2067 0.960 . S
C2060 C2058 1.381 . S
C2060 C2061 1.394 . S
C2060 H2068 0.930 . S
C2061 C2060 1.394 . S
C2061 C2062 1.383 . S
C2061 H2069 0.929 . S
C2062 C2061 1.383 . S
C2062 C2063 1.377 . S
C2063 H2047 0.930 . S
C2063 C2062 1.377 . S
C2063 C2064 1.379 . S
C2064 H2048 0.931 . S
C2064 C2058 1.383 . S
C2064 C2063 1.379 . S
H2065 C2059 0.959 . S
H2066 C2059 0.961 . S
H2067 C2059 0.960 . S
H2068 C2060 0.930 . S
H2069 C2061 0.929 . S
H2070 C2078 0.929 . S
H2071 C2080 0.930 . S
H2072 C2082 0.930 . S
H2073 C2085 0.929 . S
H2074 C2088 0.930 . S
H2075 C2090 0.960 . S
H2076 C2090 0.960 . S
H2077 C2090 0.960 . S
C2078 H2070 0.929 . S
C2078 C2079 1.377 . S
C2078 C2080 1.384 . S
C2079 C2078 1.377 . S
C2079 C2085 1.390 . S
C2080 H2071 0.930 . S
C2080 C2078 1.384 . S
C2080 C2081 1.372 . S
C2081 C2080 1.372 . S
C2081 C2082 1.400 . S
C2081 C2086 1.490 . S
C2082 H2072 0.930 . S
C2082 C2081 1.400 . S
C2082 C2085 1.386 . S
H2083 C2099 0.930 . S
H2084 C2100 0.931 . S
C2085 H2073 0.929 . S
C2085 C2079 1.390 . S
C2085 C2082 1.386 . S
C2086 C2081 1.490 . S
C2086 C2088 1.395 . S
C2086 C2089 1.403 . S
H2087 C2093 0.930 . S
C2088 H2074 0.930 . S
C2088 C2086 1.395 . S
C2088 C2091 1.403 . S
C2089 C2086 1.403 . S
C2089 C2090 1.524 . S
C2089 C2093 1.400 . S
C2090 H2075 0.960 . S
C2090 H2076 0.960 . S
C2090 H2077 0.960 . S
C2090 C2089 1.524 . S
C2091 C2088 1.403 . S
C2091 C2092 1.392 . S
C2091 C2095 1.495 . S
C2092 C2091 1.392 . S
C2092 C2093 1.385 . S
C2092 C2094 1.478 . S
C2093 H2087 0.930 . S
C2093 C2089 1.400 . S
C2093 C2092 1.385 . S
C2094 C2092 1.478 . S
C2094 C2096 1.381 . S
C2094 C2100 1.383 . S
C2095 C2091 1.495 . S
C2095 H2101 0.959 . S
C2095 H2102 0.961 . S
C2095 H2103 0.960 . S
C2096 C2094 1.381 . S
C2096 C2097 1.394 . S
C2096 H2104 0.930 . S
C2097 C2096 1.394 . S
C2097 C2098 1.383 . S
C2097 H2105 0.929 . S
C2098 C2097 1.383 . S
C2098 C2099 1.377 . S
C2099 H2083 0.930 . S
C2099 C2098 1.377 . S
C2099 C2100 1.379 . S
C2100 H2084 0.931 . S
C2100 C2094 1.383 . S
C2100 C2099 1.379 . S
H2101 C2095 0.959 . S
H2102 C2095 0.961 . S
H2103 C2095 0.960 . S
H2104 C2096 0.930 . S
H2105 C2097 0.929 . S
H2106 C2114 0.929 . S
H2107 C2116 0.930 . S
H2108 C2118 0.930 . S
H2109 C2121 0.929 . S
H2110 C2124 0.930 . S
H2111 C2126 0.960 . S
H2112 C2126 0.960 . S
H2113 C2126 0.960 . S
C2114 H2106 0.929 . S
C2114 C2115 1.377 . S
C2114 C2116 1.384 . S
C2115 C2114 1.377 . S
C2115 C2121 1.390 . S
C2116 H2107 0.930 . S
C2116 C2114 1.384 . S
C2116 C2117 1.372 . S
C2117 C2116 1.372 . S
C2117 C2118 1.400 . S
C2117 C2122 1.490 . S
C2118 H2108 0.930 . S
C2118 C2117 1.400 . S
C2118 C2121 1.386 . S
H2119 C2135 0.930 . S
H2120 C2136 0.931 . S
C2121 H2109 0.929 . S
C2121 C2115 1.390 . S
C2121 C2118 1.386 . S
C2122 C2117 1.490 . S
C2122 C2124 1.395 . S
C2122 C2125 1.403 . S
H2123 C2129 0.930 . S
C2124 H2110 0.930 . S
C2124 C2122 1.395 . S
C2124 C2127 1.403 . S
C2125 C2122 1.403 . S
C2125 C2126 1.524 . S
C2125 C2129 1.400 . S
C2126 H2111 0.960 . S
C2126 H2112 0.960 . S
C2126 H2113 0.960 . S
C2126 C2125 1.524 . S
C2127 C2124 1.403 . S
C2127 C2128 1.392 . S
C2127 C2131 1.495 . S
C2128 C2127 1.392 . S
C2128 C2129 1.385 . S
C2128 C2130 1.478 . S
C2129 H2123 0.930 . S
C2129 C2125 1.400 . S
C2129 C2128 1.385 . S
C2130 C2128 1.478 . S
C2130 C2132 1.381 . S
C2130 C2136 1.383 . S
C2131 C2127 1.495 . S
C2131 H2137 0.959 . S
C2131 H2138 0.961 . S
C2131 H2139 0.960 . S
C2132 C2130 1.381 . S
C2132 C2133 1.394 . S
C2132 H2140 0.930 . S
C2133 C2132 1.394 . S
C2133 C2134 1.383 . S
C2133 H2141 0.929 . S
C2134 C2133 1.383 . S
C2134 C2135 1.377 . S
C2135 H2119 0.930 . S
C2135 C2134 1.377 . S
C2135 C2136 1.379 . S
C2136 H2120 0.931 . S
C2136 C2130 1.383 . S
C2136 C2135 1.379 . S
H2137 C2131 0.959 . S
H2138 C2131 0.961 . S
H2139 C2131 0.960 . S
H2140 C2132 0.930 . S
H2141 C2133 0.929 . S
H2142 C2150 0.929 . S
H2143 C2152 0.930 . S
H2144 C2154 0.930 . S
H2145 C2157 0.929 . S
H2146 C2160 0.930 . S
H2147 C2162 0.960 . S
H2148 C2162 0.960 . S
H2149 C2162 0.960 . S
C2150 H2142 0.929 . S
C2150 C2151 1.377 . S
C2150 C2152 1.384 . S
C2151 C2150 1.377 . S
C2151 C2157 1.390 . S
C2152 H2143 0.930 . S
C2152 C2150 1.384 . S
C2152 C2153 1.372 . S
C2153 C2152 1.372 . S
C2153 C2154 1.400 . S
C2153 C2158 1.490 . S
C2154 H2144 0.930 . S
C2154 C2153 1.400 . S
C2154 C2157 1.386 . S
H2155 C2171 0.930 . S
H2156 C2172 0.931 . S
C2157 H2145 0.929 . S
C2157 C2151 1.390 . S
C2157 C2154 1.386 . S
C2158 C2153 1.490 . S
C2158 C2160 1.395 . S
C2158 C2161 1.403 . S
H2159 C2165 0.930 . S
C2160 H2146 0.930 . S
C2160 C2158 1.395 . S
C2160 C2163 1.403 . S
C2161 C2158 1.403 . S
C2161 C2162 1.524 . S
C2161 C2165 1.400 . S
C2162 H2147 0.960 . S
C2162 H2148 0.960 . S
C2162 H2149 0.960 . S
C2162 C2161 1.524 . S
C2163 C2160 1.403 . S
C2163 C2164 1.392 . S
C2163 C2167 1.495 . S
C2164 C2163 1.392 . S
C2164 C2165 1.385 . S
C2164 C2166 1.478 . S
C2165 H2159 0.930 . S
C2165 C2161 1.400 . S
C2165 C2164 1.385 . S
C2166 C2164 1.478 . S
C2166 C2168 1.381 . S
C2166 C2172 1.383 . S
C2167 C2163 1.495 . S
C2167 H2173 0.959 . S
C2167 H2174 0.961 . S
C2167 H2175 0.960 . S
C2168 C2166 1.381 . S
C2168 C2169 1.394 . S
C2168 H2176 0.930 . S
C2169 C2168 1.394 . S
C2169 C2170 1.383 . S
C2169 H2177 0.929 . S
C2170 C2169 1.383 . S
C2170 C2171 1.377 . S
C2171 H2155 0.930 . S
C2171 C2170 1.377 . S
C2171 C2172 1.379 . S
C2172 H2156 0.931 . S
C2172 C2166 1.383 . S
C2172 C2171 1.379 . S
H2173 C2167 0.959 . S
H2174 C2167 0.961 . S
H2175 C2167 0.960 . S
H2176 C2168 0.930 . S
H2177 C2169 0.929 . S
H2178 C2186 0.929 . S
H2179 C2188 0.930 . S
H2180 C2190 0.930 . S
H2181 C2193 0.929 . S
H2182 C2196 0.930 . S
H2183 C2198 0.960 . S
H2184 C2198 0.960 . S
H2185 C2198 0.960 . S
C2186 H2178 0.929 . S
C2186 C2187 1.377 . S
C2186 C2188 1.384 . S
C2187 C2186 1.377 . S
C2187 C2193 1.390 . S
C2188 H2179 0.930 . S
C2188 C2186 1.384 . S
C2188 C2189 1.372 . S
C2189 C2188 1.372 . S
C2189 C2190 1.400 . S
C2189 C2194 1.490 . S
C2190 H2180 0.930 . S
C2190 C2189 1.400 . S
C2190 C2193 1.386 . S
H2191 C2207 0.930 . S
H2192 C2208 0.931 . S
C2193 H2181 0.929 . S
C2193 C2187 1.390 . S
C2193 C2190 1.386 . S
C2194 C2189 1.490 . S
C2194 C2196 1.395 . S
C2194 C2197 1.403 . S
H2195 C2201 0.930 . S
C2196 H2182 0.930 . S
C2196 C2194 1.395 . S
C2196 C2199 1.403 . S
C2197 C2194 1.403 . S
C2197 C2198 1.524 . S
C2197 C2201 1.400 . S
C2198 H2183 0.960 . S
C2198 H2184 0.960 . S
C2198 H2185 0.960 . S
C2198 C2197 1.524 . S
C2199 C2196 1.403 . S
C2199 C2200 1.392 . S
C2199 C2203 1.495 . S
C2200 C2199 1.392 . S
C2200 C2201 1.385 . S
C2200 C2202 1.478 . S
C2201 H2195 0.930 . S
C2201 C2197 1.400 . S
C2201 C2200 1.385 . S
C2202 C2200 1.478 . S
C2202 C2204 1.381 . S
C2202 C2208 1.383 . S
C2203 C2199 1.495 . S
C2203 H2209 0.959 . S
C2203 H2210 0.961 . S
C2203 H2211 0.960 . S
C2204 C2202 1.381 . S
C2204 C2205 1.394 . S
C2204 H2212 0.930 . S
C2205 C2204 1.394 . S
C2205 C2206 1.383 . S
C2205 H2213 0.929 . S
C2206 C2205 1.383 . S
C2206 C2207 1.377 . S
C2207 H2191 0.930 . S
C2207 C2206 1.377 . S
C2207 C2208 1.379 . S
C2208 H2192 0.931 . S
C2208 C2202 1.383 . S
C2208 C2207 1.379 . S
H2209 C2203 0.959 . S
H2210 C2203 0.961 . S
H2211 C2203 0.960 . S
H2212 C2204 0.930 . S
H2213 C2205 0.929 . S
H2214 C2222 0.929 . S
H2215 C2224 0.930 . S
H2216 C2226 0.930 . S
H2217 C2229 0.929 . S
H2218 C2232 0.930 . S
H2219 C2234 0.960 . S
H2220 C2234 0.960 . S
H2221 C2234 0.960 . S
C2222 H2214 0.929 . S
C2222 C2223 1.377 . S
C2222 C2224 1.384 . S
C2223 C2222 1.377 . S
C2223 C2229 1.390 . S
C2224 H2215 0.930 . S
C2224 C2222 1.384 . S
C2224 C2225 1.372 . S
C2225 C2224 1.372 . S
C2225 C2226 1.400 . S
C2225 C2230 1.490 . S
C2226 H2216 0.930 . S
C2226 C2225 1.400 . S
C2226 C2229 1.386 . S
H2227 C2243 0.930 . S
H2228 C2244 0.931 . S
C2229 H2217 0.929 . S
C2229 C2223 1.390 . S
C2229 C2226 1.386 . S
C2230 C2225 1.490 . S
C2230 C2232 1.395 . S
C2230 C2233 1.403 . S
H2231 C2237 0.930 . S
C2232 H2218 0.930 . S
C2232 C2230 1.395 . S
C2232 C2235 1.403 . S
C2233 C2230 1.403 . S
C2233 C2234 1.524 . S
C2233 C2237 1.400 . S
C2234 H2219 0.960 . S
C2234 H2220 0.960 . S
C2234 H2221 0.960 . S
C2234 C2233 1.524 . S
C2235 C2232 1.403 . S
C2235 C2236 1.392 . S
C2235 C2239 1.495 . S
C2236 C2235 1.392 . S
C2236 C2237 1.385 . S
C2236 C2238 1.478 . S
C2237 H2231 0.930 . S
C2237 C2233 1.400 . S
C2237 C2236 1.385 . S
C2238 C2236 1.478 . S
C2238 C2240 1.381 . S
C2238 C2244 1.383 . S
C2239 C2235 1.495 . S
C2239 H2245 0.959 . S
C2239 H2246 0.961 . S
C2239 H2247 0.960 . S
C2240 C2238 1.381 . S
C2240 C2241 1.394 . S
C2240 H2248 0.930 . S
C2241 C2240 1.394 . S
C2241 C2242 1.383 . S
C2241 H2249 0.929 . S
C2242 C2241 1.383 . S
C2242 C2243 1.377 . S
C2243 H2227 0.930 . S
C2243 C2242 1.377 . S
C2243 C2244 1.379 . S
C2244 H2228 0.931 . S
C2244 C2238 1.383 . S
C2244 C2243 1.379 . S
H2245 C2239 0.959 . S
H2246 C2239 0.961 . S
H2247 C2239 0.960 . S
H2248 C2240 0.930 . S
H2249 C2241 0.929 . S
H2250 C2258 0.929 . S
H2251 C2260 0.930 . S
H2252 C2262 0.930 . S
H2253 C2265 0.929 . S
H2254 C2268 0.930 . S
H2255 C2270 0.960 . S
H2256 C2270 0.960 . S
H2257 C2270 0.960 . S
C2258 H2250 0.929 . S
C2258 C2259 1.377 . S
C2258 C2260 1.384 . S
C2259 C2258 1.377 . S
C2259 C2265 1.390 . S
C2260 H2251 0.930 . S
C2260 C2258 1.384 . S
C2260 C2261 1.372 . S
C2261 C2260 1.372 . S
C2261 C2262 1.400 . S
C2261 C2266 1.490 . S
C2262 H2252 0.930 . S
C2262 C2261 1.400 . S
C2262 C2265 1.386 . S
H2263 C2279 0.930 . S
H2264 C2280 0.931 . S
C2265 H2253 0.929 . S
C2265 C2259 1.390 . S
C2265 C2262 1.386 . S
C2266 C2261 1.490 . S
C2266 C2268 1.395 . S
C2266 C2269 1.403 . S
H2267 C2273 0.930 . S
C2268 H2254 0.930 . S
C2268 C2266 1.395 . S
C2268 C2271 1.403 . S
C2269 C2266 1.403 . S
C2269 C2270 1.524 . S
C2269 C2273 1.400 . S
C2270 H2255 0.960 . S
C2270 H2256 0.960 . S
C2270 H2257 0.960 . S
C2270 C2269 1.524 . S
C2271 C2268 1.403 . S
C2271 C2272 1.392 . S
C2271 C2275 1.495 . S
C2272 C2271 1.392 . S
C2272 C2273 1.385 . S
C2272 C2274 1.478 . S
C2273 H2267 0.930 . S
C2273 C2269 1.400 . S
C2273 C2272 1.385 . S
C2274 C2272 1.478 . S
C2274 C2276 1.381 . S
C2274 C2280 1.383 . S
C2275 C2271 1.495 . S
C2275 H2281 0.959 . S
C2275 H2282 0.961 . S
C2275 H2283 0.960 . S
C2276 C2274 1.381 . S
C2276 C2277 1.394 . S
C2276 H2284 0.930 . S
C2277 C2276 1.394 . S
C2277 C2278 1.383 . S
C2277 H2285 0.929 . S
C2278 C2277 1.383 . S
C2278 C2279 1.377 . S
C2279 H2263 0.930 . S
C2279 C2278 1.377 . S
C2279 C2280 1.379 . S
C2280 H2264 0.931 . S
C2280 C2274 1.383 . S
C2280 C2279 1.379 . S
H2281 C2275 0.959 . S
H2282 C2275 0.961 . S
H2283 C2275 0.960 . S
H2284 C2276 0.930 . S
H2285 C2277 0.929 . S
H2286 C2294 0.929 . S
H2287 C2296 0.930 . S
H2288 C2298 0.930 . S
H2289 C2301 0.929 . S
H2290 C2304 0.930 . S
H2291 C2306 0.960 . S
H2292 C2306 0.960 . S
H2293 C2306 0.960 . S
C2294 H2286 0.929 . S
C2294 C2295 1.377 . S
C2294 C2296 1.384 . S
C2295 C2294 1.377 . S
C2295 C2301 1.390 . S
C2296 H2287 0.930 . S
C2296 C2294 1.384 . S
C2296 C2297 1.372 . S
C2297 C2296 1.372 . S
C2297 C2298 1.400 . S
C2297 C2302 1.490 . S
C2298 H2288 0.930 . S
C2298 C2297 1.400 . S
C2298 C2301 1.386 . S
H2299 C2315 0.930 . S
H2300 C2316 0.931 . S
C2301 H2289 0.929 . S
C2301 C2295 1.390 . S
C2301 C2298 1.386 . S
C2302 C2297 1.490 . S
C2302 C2304 1.395 . S
C2302 C2305 1.403 . S
H2303 C2309 0.930 . S
C2304 H2290 0.930 . S
C2304 C2302 1.395 . S
C2304 C2307 1.403 . S
C2305 C2302 1.403 . S
C2305 C2306 1.524 . S
C2305 C2309 1.400 . S
C2306 H2291 0.960 . S
C2306 H2292 0.960 . S
C2306 H2293 0.960 . S
C2306 C2305 1.524 . S
C2307 C2304 1.403 . S
C2307 C2308 1.392 . S
C2307 C2311 1.495 . S
C2308 C2307 1.392 . S
C2308 C2309 1.385 . S
C2308 C2310 1.478 . S
C2309 H2303 0.930 . S
C2309 C2305 1.400 . S
C2309 C2308 1.385 . S
C2310 C2308 1.478 . S
C2310 C2312 1.381 . S
C2310 C2316 1.383 . S
C2311 C2307 1.495 . S
C2311 H2317 0.959 . S
C2311 H2318 0.961 . S
C2311 H2319 0.960 . S
C2312 C2310 1.381 . S
C2312 C2313 1.394 . S
C2312 H2320 0.930 . S
C2313 C2312 1.394 . S
C2313 C2314 1.383 . S
C2313 H2321 0.929 . S
C2314 C2313 1.383 . S
C2314 C2315 1.377 . S
C2315 H2299 0.930 . S
C2315 C2314 1.377 . S
C2315 C2316 1.379 . S
C2316 H2300 0.931 . S
C2316 C2310 1.383 . S
C2316 C2315 1.379 . S
H2317 C2311 0.959 . S
H2318 C2311 0.961 . S
H2319 C2311 0.960 . S
H2320 C2312 0.930 . S
H2321 C2313 0.929 . S
H2322 C2330 0.929 . S
H2323 C2332 0.930 . S
H2324 C2334 0.930 . S
H2325 C2337 0.929 . S
H2326 C2340 0.930 . S
H2327 C2342 0.960 . S
H2328 C2342 0.960 . S
H2329 C2342 0.960 . S
C2330 H2322 0.929 . S
C2330 C2331 1.377 . S
C2330 C2332 1.384 . S
C2331 C2330 1.377 . S
C2331 C2337 1.390 . S
C2332 H2323 0.930 . S
C2332 C2330 1.384 . S
C2332 C2333 1.372 . S
C2333 C2332 1.372 . S
C2333 C2334 1.400 . S
C2333 C2338 1.490 . S
C2334 H2324 0.930 . S
C2334 C2333 1.400 . S
C2334 C2337 1.386 . S
H2335 C2351 0.930 . S
H2336 C2352 0.931 . S
C2337 H2325 0.929 . S
C2337 C2331 1.390 . S
C2337 C2334 1.386 . S
C2338 C2333 1.490 . S
C2338 C2340 1.395 . S
C2338 C2341 1.403 . S
H2339 C2345 0.930 . S
C2340 H2326 0.930 . S
C2340 C2338 1.395 . S
C2340 C2343 1.403 . S
C2341 C2338 1.403 . S
C2341 C2342 1.524 . S
C2341 C2345 1.400 . S
C2342 H2327 0.960 . S
C2342 H2328 0.960 . S
C2342 H2329 0.960 . S
C2342 C2341 1.524 . S
C2343 C2340 1.403 . S
C2343 C2344 1.392 . S
C2343 C2347 1.495 . S
C2344 C2343 1.392 . S
C2344 C2345 1.385 . S
C2344 C2346 1.478 . S
C2345 H2339 0.930 . S
C2345 C2341 1.400 . S
C2345 C2344 1.385 . S
C2346 C2344 1.478 . S
C2346 C2348 1.381 . S
C2346 C2352 1.383 . S
C2347 C2343 1.495 . S
C2347 H2353 0.959 . S
C2347 H2354 0.961 . S
C2347 H2355 0.960 . S
C2348 C2346 1.381 . S
C2348 C2349 1.394 . S
C2348 H2356 0.930 . S
C2349 C2348 1.394 . S
C2349 C2350 1.383 . S
C2349 H2357 0.929 . S
C2350 C2349 1.383 . S
C2350 C2351 1.377 . S
C2351 H2335 0.930 . S
C2351 C2350 1.377 . S
C2351 C2352 1.379 . S
C2352 H2336 0.931 . S
C2352 C2346 1.383 . S
C2352 C2351 1.379 . S
H2353 C2347 0.959 . S
H2354 C2347 0.961 . S
H2355 C2347 0.960 . S
H2356 C2348 0.930 . S
H2357 C2349 0.929 . S
H2358 C2366 0.929 . S
H2359 C2368 0.930 . S
H2360 C2370 0.930 . S
H2361 C2373 0.929 . S
H2362 C2376 0.930 . S
H2363 C2378 0.960 . S
H2364 C2378 0.960 . S
H2365 C2378 0.960 . S
C2366 H2358 0.929 . S
C2366 C2367 1.377 . S
C2366 C2368 1.384 . S
C2367 C2366 1.377 . S
C2367 C2373 1.390 . S
C2368 H2359 0.930 . S
C2368 C2366 1.384 . S
C2368 C2369 1.372 . S
C2369 C2368 1.372 . S
C2369 C2370 1.400 . S
C2369 C2374 1.490 . S
C2370 H2360 0.930 . S
C2370 C2369 1.400 . S
C2370 C2373 1.386 . S
H2371 C2387 0.930 . S
H2372 C2388 0.931 . S
C2373 H2361 0.929 . S
C2373 C2367 1.390 . S
C2373 C2370 1.386 . S
C2374 C2369 1.490 . S
C2374 C2376 1.395 . S
C2374 C2377 1.403 . S
H2375 C2381 0.930 . S
C2376 H2362 0.930 . S
C2376 C2374 1.395 . S
C2376 C2379 1.403 . S
C2377 C2374 1.403 . S
C2377 C2378 1.524 . S
C2377 C2381 1.400 . S
C2378 H2363 0.960 . S
C2378 H2364 0.960 . S
C2378 H2365 0.960 . S
C2378 C2377 1.524 . S
C2379 C2376 1.403 . S
C2379 C2380 1.392 . S
C2379 C2383 1.495 . S
C2380 C2379 1.392 . S
C2380 C2381 1.385 . S
C2380 C2382 1.478 . S
C2381 H2375 0.930 . S
C2381 C2377 1.400 . S
C2381 C2380 1.385 . S
C2382 C2380 1.478 . S
C2382 C2384 1.381 . S
C2382 C2388 1.383 . S
C2383 C2379 1.495 . S
C2383 H2389 0.959 . S
C2383 H2390 0.961 . S
C2383 H2391 0.960 . S
C2384 C2382 1.381 . S
C2384 C2385 1.394 . S
C2384 H2392 0.930 . S
C2385 C2384 1.394 . S
C2385 C2386 1.383 . S
C2385 H2393 0.929 . S
C2386 C2385 1.383 . S
C2386 C2387 1.377 . S
C2387 H2371 0.930 . S
C2387 C2386 1.377 . S
C2387 C2388 1.379 . S
C2388 H2372 0.931 . S
C2388 C2382 1.383 . S
C2388 C2387 1.379 . S
H2389 C2383 0.959 . S
H2390 C2383 0.961 . S
H2391 C2383 0.960 . S
H2392 C2384 0.930 . S
H2393 C2385 0.929 . S
H2394 C2402 0.929 . S
H2395 C2404 0.930 . S
H2396 C2406 0.930 . S
H2397 C2409 0.929 . S
H2398 C2412 0.930 . S
H2399 C2414 0.960 . S
H2400 C2414 0.960 . S
H2401 C2414 0.960 . S
C2402 H2394 0.929 . S
C2402 C2403 1.377 . S
C2402 C2404 1.384 . S
C2403 C2402 1.377 . S
C2403 C2409 1.390 . S
C2404 H2395 0.930 . S
C2404 C2402 1.384 . S
C2404 C2405 1.372 . S
C2405 C2404 1.372 . S
C2405 C2406 1.400 . S
C2405 C2410 1.490 . S
C2406 H2396 0.930 . S
C2406 C2405 1.400 . S
C2406 C2409 1.386 . S
H2407 C2423 0.930 . S
H2408 C2424 0.931 . S
C2409 H2397 0.929 . S
C2409 C2403 1.390 . S
C2409 C2406 1.386 . S
C2410 C2405 1.490 . S
C2410 C2412 1.395 . S
C2410 C2413 1.403 . S
H2411 C2417 0.930 . S
C2412 H2398 0.930 . S
C2412 C2410 1.395 . S
C2412 C2415 1.403 . S
C2413 C2410 1.403 . S
C2413 C2414 1.524 . S
C2413 C2417 1.400 . S
C2414 H2399 0.960 . S
C2414 H2400 0.960 . S
C2414 H2401 0.960 . S
C2414 C2413 1.524 . S
C2415 C2412 1.403 . S
C2415 C2416 1.392 . S
C2415 C2419 1.495 . S
C2416 C2415 1.392 . S
C2416 C2417 1.385 . S
C2416 C2418 1.478 . S
C2417 H2411 0.930 . S
C2417 C2413 1.400 . S
C2417 C2416 1.385 . S
C2418 C2416 1.478 . S
C2418 C2420 1.381 . S
C2418 C2424 1.383 . S
C2419 C2415 1.495 . S
C2419 H2425 0.959 . S
C2419 H2426 0.961 . S
C2419 H2427 0.960 . S
C2420 C2418 1.381 . S
C2420 C2421 1.394 . S
C2420 H2428 0.930 . S
C2421 C2420 1.394 . S
C2421 C2422 1.383 . S
C2421 H2429 0.929 . S
C2422 C2421 1.383 . S
C2422 C2423 1.377 . S
C2423 H2407 0.930 . S
C2423 C2422 1.377 . S
C2423 C2424 1.379 . S
C2424 H2408 0.931 . S
C2424 C2418 1.383 . S
C2424 C2423 1.379 . S
H2425 C2419 0.959 . S
H2426 C2419 0.961 . S
H2427 C2419 0.960 . S
H2428 C2420 0.930 . S
H2429 C2421 0.929 . S
H2430 C2438 0.929 . S
H2431 C2440 0.930 . S
H2432 C2442 0.930 . S
H2433 C2445 0.929 . S
H2434 C2448 0.930 . S
H2435 C2450 0.960 . S
H2436 C2450 0.960 . S
H2437 C2450 0.960 . S
C2438 H2430 0.929 . S
C2438 C2439 1.377 . S
C2438 C2440 1.384 . S
C2439 C2438 1.377 . S
C2439 C2445 1.390 . S
C2440 H2431 0.930 . S
C2440 C2438 1.384 . S
C2440 C2441 1.372 . S
C2441 C2440 1.372 . S
C2441 C2442 1.400 . S
C2441 C2446 1.490 . S
C2442 H2432 0.930 . S
C2442 C2441 1.400 . S
C2442 C2445 1.386 . S
H2443 C2459 0.930 . S
H2444 C2460 0.931 . S
C2445 H2433 0.929 . S
C2445 C2439 1.390 . S
C2445 C2442 1.386 . S
C2446 C2441 1.490 . S
C2446 C2448 1.395 . S
C2446 C2449 1.403 . S
H2447 C2453 0.930 . S
C2448 H2434 0.930 . S
C2448 C2446 1.395 . S
C2448 C2451 1.403 . S
C2449 C2446 1.403 . S
C2449 C2450 1.524 . S
C2449 C2453 1.400 . S
C2450 H2435 0.960 . S
C2450 H2436 0.960 . S
C2450 H2437 0.960 . S
C2450 C2449 1.524 . S
C2451 C2448 1.403 . S
C2451 C2452 1.392 . S
C2451 C2455 1.495 . S
C2452 C2451 1.392 . S
C2452 C2453 1.385 . S
C2452 C2454 1.478 . S
C2453 H2447 0.930 . S
C2453 C2449 1.400 . S
C2453 C2452 1.385 . S
C2454 C2452 1.478 . S
C2454 C2456 1.381 . S
C2454 C2460 1.383 . S
C2455 C2451 1.495 . S
C2455 H2461 0.959 . S
C2455 H2462 0.961 . S
C2455 H2463 0.960 . S
C2456 C2454 1.381 . S
C2456 C2457 1.394 . S
C2456 H2464 0.930 . S
C2457 C2456 1.394 . S
C2457 C2458 1.383 . S
C2457 H2465 0.929 . S
C2458 C2457 1.383 . S
C2458 C2459 1.377 . S
C2459 H2443 0.930 . S
C2459 C2458 1.377 . S
C2459 C2460 1.379 . S
C2460 H2444 0.931 . S
C2460 C2454 1.383 . S
C2460 C2459 1.379 . S
H2461 C2455 0.959 . S
H2462 C2455 0.961 . S
H2463 C2455 0.960 . S
H2464 C2456 0.930 . S
H2465 C2457 0.929 . S
H2466 C2474 0.929 . S
H2467 C2476 0.930 . S
H2468 C2478 0.930 . S
H2469 C2481 0.929 . S
H2470 C2484 0.930 . S
H2471 C2486 0.960 . S
H2472 C2486 0.960 . S
H2473 C2486 0.960 . S
C2474 H2466 0.929 . S
C2474 C2475 1.377 . S
C2474 C2476 1.384 . S
C2475 C2474 1.377 . S
C2475 C2481 1.390 . S
C2476 H2467 0.930 . S
C2476 C2474 1.384 . S
C2476 C2477 1.372 . S
C2477 C2476 1.372 . S
C2477 C2478 1.400 . S
C2477 C2482 1.490 . S
C2478 H2468 0.930 . S
C2478 C2477 1.400 . S
C2478 C2481 1.386 . S
H2479 C2495 0.930 . S
H2480 C2496 0.931 . S
C2481 H2469 0.929 . S
C2481 C2475 1.390 . S
C2481 C2478 1.386 . S
C2482 C2477 1.490 . S
C2482 C2484 1.395 . S
C2482 C2485 1.403 . S
H2483 C2489 0.930 . S
C2484 H2470 0.930 . S
C2484 C2482 1.395 . S
C2484 C2487 1.403 . S
C2485 C2482 1.403 . S
C2485 C2486 1.524 . S
C2485 C2489 1.400 . S
C2486 H2471 0.960 . S
C2486 H2472 0.960 . S
C2486 H2473 0.960 . S
C2486 C2485 1.524 . S
C2487 C2484 1.403 . S
C2487 C2488 1.392 . S
C2487 C2491 1.495 . S
C2488 C2487 1.392 . S
C2488 C2489 1.385 . S
C2488 C2490 1.478 . S
C2489 H2483 0.930 . S
C2489 C2485 1.400 . S
C2489 C2488 1.385 . S
C2490 C2488 1.478 . S
C2490 C2492 1.381 . S
C2490 C2496 1.383 . S
C2491 C2487 1.495 . S
C2491 H2497 0.959 . S
C2491 H2498 0.961 . S
C2491 H2499 0.960 . S
C2492 C2490 1.381 . S
C2492 C2493 1.394 . S
C2492 H2500 0.930 . S
C2493 C2492 1.394 . S
C2493 C2494 1.383 . S
C2493 H2501 0.929 . S
C2494 C2493 1.383 . S
C2494 C2495 1.377 . S
C2495 H2479 0.930 . S
C2495 C2494 1.377 . S
C2495 C2496 1.379 . S
C2496 H2480 0.931 . S
C2496 C2490 1.383 . S
C2496 C2495 1.379 . S
H2497 C2491 0.959 . S
H2498 C2491 0.961 . S
H2499 C2491 0.960 . S
H2500 C2492 0.930 . S
H2501 C2493 0.929 . S
C567 C147 1.692 . S
C586 C201 1.695 . S
C603 C158 1.853 . S
C622 C241 1.853 . S
C639 C136 1.613 . S
C658 C293 1.612 . S
C675 C125 1.464 . S
C694 C253 1.447 . S
C730 C281 1.492 1_556 S
C711 C103 1.494 . S
C747 C114 1.311 . S
C766 C213 1.301 . S
C802 C220 1.672 1_556 S
C783 C131 1.665 . S
C838 C260 1.714 . S
C819 C109 1.708 . S
C855 C120 1.670 . S
C874 C280 1.692 . S
C891 C153 1.494 . S
C910 C240 1.510 . S
C927 C164 1.439 . S
C946 C300 1.446 . S
C982 C200 1.434 . S
C963 C142 1.417 . S
C1018 C321 1.694 . S
C999 C15 1.692 . S
C1035 C26 1.853 . S
C1054 C361 1.853 . S
C1071 C4 1.608 . S
C1090 C413 1.588 . S
C1107 C191 1.462 . S
C1126 C373 1.423 . S
C1143 C169 1.494 . S
C1162 C401 1.491 . S
C1179 C180 1.312 . S
C1198 C333 1.306 . S
C1215 C197 1.671 . S
C1234 C340 1.686 . S
C1251 C175 1.706 . S
C1270 C380 1.718 . S
C1306 C400 1.686 . S
C1287 C186 1.678 . S
C1323 C21 1.490 . S
C1342 C360 1.511 . S
C1378 C420 1.437 . S
C1359 C32 1.435 . S
C1395 C10 1.416 . S
C1414 C320 1.421 . S
C1450 C441 1.697 . S
C1431 C81 1.694 . S
C1467 C92 1.851 . S
C1486 C481 1.840 . S
C1522 C533 1.576 . S
C1503 C70 1.606 . S
C1558 C493 1.427 . S
C1539 C59 1.463 . S
C1594 C521 1.490 . S
C1575 C37 1.494 . S
C1611 C48 1.308 . S
C1630 C453 1.289 . S
C1647 C65 1.671 . S
C1666 C460 1.691 . S
C1683 C43 1.704 . S
C1702 C500 1.712 . S
C1738 C520 1.700 . S
C1719 C54 1.671 . S
C1755 C87 1.495 . S
C1774 C480 1.506 . S
C1791 C98 1.439 . S
C1810 C540 1.440 . S
C1827 C76 1.416 . S
C1846 C440 1.440 . S
C1863 C170 1.408 . S
C1882 C224 1.391 . S
C1918 C264 1.953 . S
C1899 C181 1.997 . S
C1935 C192 1.563 . S
C1954 C287 1.569 . S
C1971 C71 1.840 . S
C1990 C247 1.835 . S
C2007 C82 1.694 . S
C2026 C304 1.667 . S
C2062 C207 1.245 . S
C2043 C93 1.241 . S
C2079 C38 1.407 . S
C2098 C344 1.367 . S
C2115 C49 2.000 . S
C2134 C384 1.983 . S
C2151 C60 1.568 . S
C2170 C407 1.583 . S
C2187 C137 1.839 . S
C2206 C367 1.830 . S
C2242 C424 1.688 . S
C2223 C148 1.692 . S
C2259 C159 1.235 . S
C2278 C327 1.238 . S
C2295 C104 1.408 . S
C2314 C464 1.388 . S
C2331 C115 2.000 . S
C2350 C504 1.983 . S
C2386 C527 1.582 . S
C2367 C126 1.568 . S
C2403 C5 1.843 . S
C2422 C487 1.846 . S
C2439 C16 1.690 . S
C2458 C544 1.669 . S
C2475 C27 1.236 . S
C2494 C447 1.245 . S
