# Generated by pormake.
# Topology pto, (3,4)-cn, num edge types: 1
# Building blocks:
#     Node 0, Type 0, BuildingBlock: VETTIZ_charged_linker_0, # of connection points: 3
#     Node 1, Type 0, BuildingBlock: VETTIZ_charged_linker_0, # of connection points: 3
#     Node 2, Type 0, BuildingBlock: VETTIZ_charged_linker_0, # of connection points: 3
#     Node 3, Type 0, BuildingBlock: VETTIZ_charged_linker_0, # of connection points: 3
#     Node 4, Type 0, BuildingBlock: VETTIZ_charged_linker_0, # of connection points: 3
#     Node 5, Type 0, BuildingBlock: VETTIZ_charged_linker_0, # of connection points: 3
#     Node 6, Type 0, BuildingBlock: VETTIZ_charged_linker_0, # of connection points: 3
#     Node 7, Type 0, BuildingBlock: VETTIZ_charged_linker_0, # of connection points: 3
#     Node 8, Type 1, BuildingBlock: KOZSID_clean_sbu_0, # of connection points: 4
#     Node 9, Type 1, BuildingBlock: KOZSID_clean_sbu_0, # of connection points: 4
#     Node 10, Type 1, BuildingBlock: KOZSID_clean_sbu_0, # of connection points: 4
#     Node 11, Type 1, BuildingBlock: KOZSID_clean_sbu_0, # of connection points: 4
#     Node 12, Type 1, BuildingBlock: KOZSID_clean_sbu_0, # of connection points: 4
#     Node 13, Type 1, BuildingBlock: KOZSID_clean_sbu_0, # of connection points: 4
#     Edge 14, Type (0, 1), BuildingBlock: XUDNAN_clean_linker_2, # of connection points: 2
#     Edge 15, Type (0, 1), BuildingBlock: XUDNAN_clean_linker_2, # of connection points: 2
#     Edge 16, Type (0, 1), BuildingBlock: XUDNAN_clean_linker_2, # of connection points: 2
#     Edge 17, Type (0, 1), BuildingBlock: XUDNAN_clean_linker_2, # of connection points: 2
#     Edge 18, Type (0, 1), BuildingBlock: XUDNAN_clean_linker_2, # of connection points: 2
#     Edge 19, Type (0, 1), BuildingBlock: XUDNAN_clean_linker_2, # of connection points: 2
#     Edge 20, Type (0, 1), BuildingBlock: XUDNAN_clean_linker_2, # of connection points: 2
#     Edge 21, Type (0, 1), BuildingBlock: XUDNAN_clean_linker_2, # of connection points: 2
#     Edge 22, Type (0, 1), BuildingBlock: XUDNAN_clean_linker_2, # of connection points: 2
#     Edge 23, Type (0, 1), BuildingBlock: XUDNAN_clean_linker_2, # of connection points: 2
#     Edge 24, Type (0, 1), BuildingBlock: XUDNAN_clean_linker_2, # of connection points: 2
#     Edge 25, Type (0, 1), BuildingBlock: XUDNAN_clean_linker_2, # of connection points: 2
#     Edge 26, Type (0, 1), BuildingBlock: XUDNAN_clean_linker_2, # of connection points: 2
#     Edge 27, Type (0, 1), BuildingBlock: XUDNAN_clean_linker_2, # of connection points: 2
#     Edge 28, Type (0, 1), BuildingBlock: XUDNAN_clean_linker_2, # of connection points: 2
#     Edge 29, Type (0, 1), BuildingBlock: XUDNAN_clean_linker_2, # of connection points: 2
#     Edge 30, Type (0, 1), BuildingBlock: XUDNAN_clean_linker_2, # of connection points: 2
#     Edge 31, Type (0, 1), BuildingBlock: XUDNAN_clean_linker_2, # of connection points: 2
#     Edge 32, Type (0, 1), BuildingBlock: XUDNAN_clean_linker_2, # of connection points: 2
#     Edge 33, Type (0, 1), BuildingBlock: XUDNAN_clean_linker_2, # of connection points: 2
#     Edge 34, Type (0, 1), BuildingBlock: XUDNAN_clean_linker_2, # of connection points: 2
#     Edge 35, Type (0, 1), BuildingBlock: XUDNAN_clean_linker_2, # of connection points: 2
#     Edge 36, Type (0, 1), BuildingBlock: XUDNAN_clean_linker_2, # of connection points: 2
#     Edge 37, Type (0, 1), BuildingBlock: XUDNAN_clean_linker_2, # of connection points: 2
# Relax obj value: 0.000
# Max RMSD: 0.022
# Mean RMSD: 0.009
data_MOF--net-pto--node1-KOZSID_clean_sbu_0--node2-VETTIZ_charged_linker_0--edge1-XUDNAN_clean_linker_2
_symmetry_space_group_name_H-M    P1
_symmetry_Int_Tables_number       1
_symmetry_cell_setting            triclinic
loop_
_symmetry_equiv_pos_as_xyz
'x, y, z'
_cell_length_a     46.513198
_cell_length_b     62.377223
_cell_length_c     54.626665
_cell_angle_alpha  87.693307
_cell_angle_beta   87.316471
_cell_angle_gamma 92.565273
loop_
_atom_site_label
_atom_site_type_symbol
_atom_site_fract_x
_atom_site_fract_y
_atom_site_fract_z
_atom_type_partial_charge
C0 C 0.25466 0.19622 0.36012 0.0
C1 C 0.26731 0.17682 0.35446 0.0
C2 C 0.28415 0.17597 0.33238 0.0
C3 C 0.27377 0.21269 0.32124 0.0
C4 C 0.25808 0.21387 0.34325 0.0
C5 C 0.24529 0.2355 0.34583 0.0
H6 H 0.21894 0.33331 0.2949 0.0
C7 C 0.27179 0.23326 0.30712 0.0
C8 C 0.25509 0.24673 0.32142 0.0
H9 H 0.19567 0.30869 0.36853 0.0
H10 H 0.21868 0.27553 0.36019 0.0
H11 H 0.20607 0.28915 0.26709 0.0
H12 H 0.28279 0.31814 0.29513 0.0
H13 H 0.29316 0.30694 0.26732 0.0
H14 H 0.26779 0.32799 0.26741 0.0
H15 H 0.22456 0.31256 0.25272 0.0
H16 H 0.23442 0.28584 0.24537 0.0
C17 C 0.2121 0.23207 0.34848 0.0
C18 C 0.2589 0.24644 0.36777 0.0
C19 C 0.31895 0.24297 0.22101 0.0
C20 C 0.31898 0.25964 0.20285 0.0
C21 C 0.304 0.27824 0.20794 0.0
C22 C 0.28923 0.28023 0.23063 0.0
C23 C 0.28926 0.26343 0.24855 0.0
C24 C 0.30387 0.24516 0.24358 0.0
C25 C 0.30072 0.22869 0.26458 0.0
C26 C 0.2823 0.24027 0.28312 0.0
C27 C 0.27573 0.26062 0.27362 0.0
C28 C 0.28474 0.20838 0.2555 0.0
C29 C 0.33109 0.22482 0.27388 0.0
C30 C 0.21855 0.32064 0.30909 0.0
C31 C 0.2053 0.32345 0.3323 0.0
C32 C 0.20579 0.30683 0.35052 0.0
C33 C 0.21914 0.28761 0.34563 0.0
C34 C 0.23242 0.28504 0.32234 0.0
C35 C 0.23222 0.30151 0.30463 0.0
C36 C 0.24881 0.2965 0.28143 0.0
C37 C 0.25882 0.27426 0.28803 0.0
C38 C 0.24886 0.26749 0.3119 0.0
C39 C 0.2276 0.2961 0.26039 0.0
C40 C 0.27441 0.31326 0.27733 0.0
H41 H 0.30026 0.19188 0.29928 0.0
H42 H 0.2416 0.19743 0.37691 0.0
H43 H 0.28126 0.24134 0.37015 0.0
H44 H 0.26114 0.26411 0.36511 0.0
H45 H 0.24625 0.24225 0.38519 0.0
H46 H 0.20439 0.22026 0.33524 0.0
H47 H 0.20513 0.22578 0.36724 0.0
H48 H 0.20064 0.2468 0.34445 0.0
H49 H 0.32995 0.22837 0.21757 0.0
H50 H 0.30395 0.29142 0.19441 0.0
H51 H 0.27832 0.2948 0.2333 0.0
H52 H 0.26904 0.21273 0.24158 0.0
H53 H 0.30008 0.19744 0.2469 0.0
H54 H 0.27161 0.19938 0.27019 0.0
H55 H 0.3444 0.24012 0.27341 0.0
H56 H 0.33059 0.21879 0.29319 0.0
H57 H 0.34262 0.21344 0.26225 0.0
H58 H 0.29467 0.16141 0.32778 0.0
C59 C 0.28745 0.19372 0.31582 0.0
C60 C 0.20592 0.70552 0.73467 0.0
C61 C 0.18621 0.70212 0.71633 0.0
C62 C 0.17878 0.71983 0.70141 0.0
C63 C 0.2111 0.74355 0.72283 0.0
C64 C 0.21789 0.72619 0.73767 0.0
C65 C 0.23864 0.73231 0.75674 0.0
H66 H 0.31571 0.80954 0.81182 0.0
C67 C 0.22745 0.76281 0.7309 0.0
C68 C 0.24348 0.75619 0.7509 0.0
H69 H 0.30869 0.7416 0.83117 0.0
H70 H 0.27877 0.73556 0.79677 0.0
H71 H 0.25073 0.81493 0.8006 0.0
H72 H 0.32561 0.80399 0.75482 0.0
H73 H 0.3048 0.8208 0.73708 0.0
H74 H 0.31817 0.83007 0.76551 0.0
H75 H 0.27824 0.83541 0.79255 0.0
H76 H 0.24786 0.83091 0.77374 0.0
C77 C 0.22337 0.72762 0.78235 0.0
C78 C 0.26653 0.72005 0.75227 0.0
C79 C 0.22032 0.83666 0.68743 0.0
C80 C 0.23244 0.85709 0.6923 0.0
C81 C 0.25104 0.85902 0.71175 0.0
C82 C 0.25729 0.84114 0.72639 0.0
C83 C 0.24471 0.82093 0.72177 0.0
C84 C 0.2266 0.81879 0.70257 0.0
C85 C 0.21477 0.79591 0.70118 0.0
C86 C 0.22926 0.78478 0.72239 0.0
C87 C 0.24669 0.79967 0.7343 0.0
C88 C 0.18165 0.79572 0.70559 0.0
C89 C 0.22474 0.78743 0.67613 0.0
C90 C 0.30763 0.79336 0.8087 0.0
C91 C 0.31427 0.77606 0.82436 0.0
C92 C 0.30388 0.75519 0.81932 0.0
C93 C 0.28637 0.75176 0.79944 0.0
C94 C 0.27926 0.76938 0.78432 0.0
C95 C 0.29031 0.78967 0.78889 0.0
C96 C 0.28125 0.80644 0.77071 0.0
C97 C 0.26234 0.79301 0.75474 0.0
C98 C 0.26104 0.77136 0.76284 0.0
C99 C 0.26377 0.82296 0.78496 0.0
C100 C 0.30873 0.81604 0.7563 0.0
H101 H 0.18499 0.75326 0.6924 0.0
H102 H 0.21172 0.69235 0.74672 0.0
H103 H 0.2712 0.71821 0.73231 0.0
H104 H 0.28588 0.72866 0.75864 0.0
H105 H 0.26454 0.70371 0.76122 0.0
H106 H 0.20025 0.73145 0.78211 0.0
H107 H 0.22436 0.7104 0.78814 0.0
H108 H 0.23228 0.73755 0.7967 0.0
H109 H 0.20579 0.83476 0.67266 0.0
H110 H 0.26085 0.87452 0.71565 0.0
H111 H 0.27153 0.84388 0.74092 0.0
H112 H 0.17554 0.80747 0.71951 0.0
H113 H 0.17099 0.8001 0.68843 0.0
H114 H 0.17236 0.7801 0.71309 0.0
H115 H 0.24785 0.79208 0.67182 0.0
H116 H 0.22311 0.76976 0.67573 0.0
H117 H 0.21208 0.79424 0.66116 0.0
H118 H 0.16372 0.71761 0.68709 0.0
C119 C 0.19124 0.74048 0.70447 0.0
C120 C 0.85353 0.71832 0.32993 0.0
C121 C 0.85334 0.69818 0.3189 0.0
C122 C 0.83344 0.69435 0.3006 0.0
C123 C 0.81497 0.72981 0.30464 0.0
C124 C 0.83391 0.73364 0.32285 0.0
C125 C 0.82983 0.7552 0.3338 0.0
H126 H 0.75296 0.845 0.34014 0.0
C127 C 0.79685 0.74855 0.30205 0.0
C128 C 0.80501 0.76339 0.31939 0.0
H129 H 0.82837 0.82974 0.37985 0.0
H130 H 0.83078 0.79617 0.35972 0.0
H131 H 0.72187 0.79864 0.34222 0.0
H132 H 0.78106 0.8302 0.28766 0.0
H133 H 0.75224 0.81808 0.27274 0.0
H134 H 0.74524 0.83891 0.29376 0.0
H135 H 0.71115 0.81993 0.32201 0.0
H136 H 0.70996 0.79233 0.31319 0.0
C137 C 0.82126 0.75135 0.3614 0.0
C138 C 0.85787 0.76927 0.32849 0.0
C139 C 0.72522 0.75092 0.2348 0.0
C140 C 0.70292 0.7646 0.22897 0.0
C141 C 0.69837 0.78222 0.24401 0.0
C142 C 0.71581 0.78625 0.26382 0.0
C143 C 0.73791 0.77238 0.26914 0.0
C144 C 0.74175 0.75477 0.25506 0.0
C145 C 0.76409 0.74042 0.26478 0.0
C146 C 0.77445 0.75308 0.2861 0.0
C147 C 0.7593 0.77191 0.28845 0.0
C148 C 0.74887 0.71856 0.27348 0.0
C149 C 0.78822 0.73873 0.24454 0.0
C150 C 0.77027 0.83467 0.34444 0.0
C151 C 0.79043 0.84032 0.36186 0.0
C152 C 0.81213 0.82586 0.36698 0.0
C153 C 0.8137 0.80637 0.35505 0.0
C154 C 0.79358 0.80119 0.33754 0.0
C155 C 0.77252 0.81539 0.33232 0.0
C156 C 0.75394 0.80793 0.3122 0.0
C157 C 0.76706 0.78677 0.30637 0.0
C158 C 0.7901 0.78273 0.32148 0.0
C159 C 0.72249 0.80463 0.32273 0.0
C160 C 0.75803 0.82461 0.29039 0.0
H161 H 0.80045 0.70606 0.27912 0.0
H162 H 0.8685 0.72223 0.34382 0.0
H163 H 0.86808 0.76587 0.31032 0.0
H164 H 0.85404 0.78662 0.32738 0.0
H165 H 0.8738 0.76613 0.34258 0.0
H166 H 0.80554 0.7374 0.36428 0.0
H167 H 0.84039 0.74786 0.37208 0.0
H168 H 0.81046 0.76498 0.36944 0.0
H169 H 0.73005 0.73732 0.22392 0.0
H170 H 0.68105 0.79284 0.24084 0.0
H171 H 0.7112 0.79991 0.27443 0.0
H172 H 0.72522 0.71985 0.27669 0.0
H173 H 0.75209 0.70617 0.25969 0.0
H174 H 0.75631 0.71255 0.29136 0.0
H175 H 0.7944 0.75487 0.23597 0.0
H176 H 0.80819 0.73247 0.2516 0.0
H177 H 0.78094 0.72825 0.22986 0.0
H178 H 0.83171 0.679 0.29212 0.0
C179 C 0.81468 0.71005 0.29327 0.0
C180 C 0.72919 0.27773 0.82892 0.0
C181 C 0.70903 0.26113 0.83691 0.0
C182 C 0.7043 0.24376 0.82161 0.0
C183 C 0.74073 0.25907 0.79175 0.0
C184 C 0.74462 0.2764 0.80643 0.0
C185 C 0.7669 0.29269 0.79549 0.0
H186 H 0.86538 0.32416 0.70456 0.0
C187 C 0.76119 0.26226 0.7701 0.0
C188 C 0.77648 0.28198 0.7722 0.0
H189 H 0.83933 0.35831 0.76875 0.0
H190 H 0.806 0.32916 0.78183 0.0
H191 H 0.80027 0.30503 0.6924 0.0
H192 H 0.86866 0.27856 0.73306 0.0
H193 H 0.85227 0.25756 0.71747 0.0
H194 H 0.87017 0.28001 0.70014 0.0
H195 H 0.83461 0.29907 0.67848 0.0
H196 H 0.80608 0.27871 0.68319 0.0
C197 C 0.75174 0.31388 0.78995 0.0
C198 C 0.79158 0.29473 0.81349 0.0
C199 C 0.76595 0.2055 0.70585 0.0
C200 C 0.784 0.20318 0.68486 0.0
C201 C 0.80625 0.21882 0.67882 0.0
C202 C 0.80992 0.23691 0.69311 0.0
C203 C 0.79135 0.23925 0.71384 0.0
C204 C 0.77023 0.22342 0.72019 0.0
C205 C 0.7536 0.22789 0.74358 0.0
C206 C 0.76762 0.24929 0.7499 0.0
C207 C 0.78952 0.25605 0.73225 0.0
C208 C 0.72154 0.22996 0.7378 0.0
C209 C 0.75905 0.2098 0.76286 0.0
C210 C 0.85259 0.32532 0.7215 0.0
C211 C 0.85492 0.34384 0.73544 0.0
C212 C 0.83765 0.34458 0.75729 0.0
C213 C 0.81837 0.32749 0.76501 0.0
C214 C 0.81617 0.30923 0.75087 0.0
C215 C 0.83313 0.30829 0.72952 0.0
C216 C 0.82789 0.28742 0.71703 0.0
C217 C 0.80457 0.27627 0.73415 0.0
C218 C 0.79795 0.28915 0.75397 0.0
C219 C 0.81676 0.29267 0.69133 0.0
C220 C 0.85616 0.27519 0.71665 0.0
H221 H 0.7157 0.22887 0.78847 0.0
H222 H 0.73295 0.2915 0.83999 0.0
H223 H 0.79599 0.27876 0.82195 0.0
H224 H 0.81229 0.30067 0.80444 0.0
H225 H 0.78586 0.30544 0.82856 0.0
H226 H 0.72881 0.31067 0.78573 0.0
H227 H 0.75203 0.32441 0.80586 0.0
H228 H 0.76128 0.32293 0.7735 0.0
H229 H 0.74888 0.19356 0.711 0.0
H230 H 0.8203 0.2173 0.66267 0.0
H231 H 0.82693 0.24846 0.68736 0.0
H232 H 0.7196 0.23851 0.71971 0.0
H233 H 0.71035 0.2139 0.73707 0.0
H234 H 0.70967 0.23955 0.75111 0.0
H235 H 0.78147 0.20439 0.76066 0.0
H236 H 0.75708 0.21504 0.7819 0.0
H237 H 0.74418 0.1956 0.76092 0.0
H238 H 0.68895 0.23075 0.82735 0.0
C239 C 0.72005 0.24263 0.79913 0.0
C240 C 0.79183 0.8444 0.69776 0.0
C241 C 0.77801 0.86313 0.70442 0.0
C242 C 0.76082 0.86257 0.72642 0.0
C243 C 0.77251 0.8257 0.73536 0.0
C244 C 0.78893 0.82596 0.71357 0.0
C245 C 0.80297 0.80487 0.71 0.0
H246 H 0.82989 0.70499 0.75573 0.0
C247 C 0.77481 0.80454 0.74817 0.0
C248 C 0.7928 0.79223 0.73349 0.0
H249 H 0.85776 0.73379 0.68487 0.0
H250 H 0.83337 0.76616 0.69441 0.0
H251 H 0.8399 0.7475 0.7872 0.0
H252 H 0.76661 0.71906 0.75348 0.0
H253 H 0.75345 0.729 0.78119 0.0
H254 H 0.77943 0.70836 0.78171 0.0
H255 H 0.82119 0.72326 0.79916 0.0
H256 H 0.81012 0.74936 0.80787 0.0
C257 C 0.83603 0.80922 0.70843 0.0
C258 C 0.79083 0.79474 0.68699 0.0
C259 C 0.72258 0.78889 0.83158 0.0
C260 C 0.72196 0.77115 0.84842 0.0
C261 C 0.73794 0.75323 0.84251 0.0
C262 C 0.75431 0.75294 0.82036 0.0
C263 C 0.75486 0.77078 0.80377 0.0
C264 C 0.73923 0.78838 0.80951 0.0
C265 C 0.74306 0.80607 0.78987 0.0
C266 C 0.76315 0.79601 0.77126 0.0
C267 C 0.7699 0.77534 0.77953 0.0
C268 C 0.75751 0.826 0.80122 0.0
C269 C 0.71323 0.80993 0.77947 0.0
C270 C 0.83112 0.71841 0.74244 0.0
C271 C 0.84598 0.71694 0.71964 0.0
C272 C 0.84641 0.73456 0.70257 0.0
C273 C 0.83224 0.75333 0.70814 0.0
C274 C 0.81719 0.75446 0.73096 0.0
C275 C 0.81672 0.73709 0.74756 0.0
C276 C 0.79847 0.74055 0.77035 0.0
C277 C 0.78821 0.7629 0.76485 0.0
C278 C 0.79941 0.77116 0.74185 0.0
C279 C 0.8182 0.74002 0.79245 0.0
C280 C 0.77323 0.72334 0.77205 0.0
H281 H 0.74472 0.84482 0.75833 0.0
H282 H 0.80524 0.84431 0.68102 0.0
H283 H 0.76773 0.79825 0.68532 0.0
H284 H 0.79121 0.77704 0.68772 0.0
H285 H 0.80276 0.80121 0.67 0.0
H286 H 0.84258 0.82072 0.72242 0.0
H287 H 0.84344 0.81629 0.6901 0.0
H288 H 0.84804 0.7947 0.7122 0.0
H289 H 0.71082 0.80301 0.83568 0.0
H290 H 0.73755 0.73925 0.85498 0.0
H291 H 0.76591 0.73879 0.81705 0.0
H292 H 0.77177 0.82117 0.81608 0.0
H293 H 0.74115 0.83645 0.80928 0.0
H294 H 0.77187 0.83566 0.78791 0.0
H295 H 0.70083 0.79443 0.77778 0.0
H296 H 0.71469 0.81746 0.76079 0.0
H297 H 0.70027 0.82001 0.79169 0.0
H298 H 0.74953 0.87659 0.73178 0.0
C299 C 0.75798 0.84405 0.74182 0.0
C300 C 0.8016 0.21349 0.38328 0.0
C301 C 0.78619 0.1935 0.38324 0.0
C302 C 0.7682 0.18947 0.36367 0.0
C303 C 0.78064 0.22489 0.34522 0.0
C304 C 0.79846 0.22888 0.36423 0.0
C305 C 0.81272 0.2511 0.36182 0.0
H306 H 0.82667 0.34823 0.30062 0.0
C307 C 0.78167 0.2443 0.32863 0.0
C308 C 0.80052 0.25975 0.33824 0.0
H309 H 0.86801 0.32877 0.36661 0.0
H310 H 0.84599 0.29292 0.36492 0.0
H311 H 0.76588 0.32632 0.31559 0.0
H312 H 0.83814 0.30588 0.27216 0.0
H313 H 0.80737 0.2965 0.25775 0.0
H314 H 0.81394 0.32503 0.2606 0.0
H315 H 0.77517 0.33713 0.28518 0.0
H316 H 0.75156 0.31353 0.29058 0.0
C317 C 0.80269 0.26366 0.38431 0.0
C318 C 0.84571 0.24892 0.35907 0.0
C319 C 0.71796 0.24731 0.25508 0.0
C320 C 0.71331 0.26383 0.23765 0.0
C321 C 0.72994 0.2832 0.23764 0.0
C322 C 0.7505 0.28642 0.25517 0.0
C323 C 0.75424 0.27018 0.27317 0.0
C324 C 0.73853 0.25086 0.27271 0.0
C325 C 0.74528 0.23568 0.29363 0.0
C326 C 0.76728 0.24921 0.30681 0.0
C327 C 0.77224 0.26941 0.29476 0.0
C328 C 0.71721 0.23074 0.30968 0.0
C329 C 0.75865 0.21568 0.28265 0.0
C330 C 0.83085 0.33632 0.31484 0.0
C331 C 0.8488 0.34145 0.33394 0.0
C332 C 0.85426 0.32524 0.35169 0.0
C333 C 0.8413 0.30448 0.35075 0.0
C334 C 0.82273 0.29982 0.33184 0.0
C335 C 0.81817 0.31561 0.31415 0.0
C336 C 0.79811 0.30802 0.29525 0.0
C337 C 0.791 0.28509 0.30456 0.0
C338 C 0.80528 0.2803 0.32608 0.0
C339 C 0.77129 0.32196 0.29642 0.0
C340 C 0.81499 0.30899 0.27003 0.0
H341 H 0.75127 0.20087 0.33051 0.0
H342 H 0.81591 0.21713 0.39779 0.0
H343 H 0.85099 0.2351 0.34768 0.0
H344 H 0.857 0.26302 0.34952 0.0
H345 H 0.85504 0.24618 0.37723 0.0
H346 H 0.77943 0.25996 0.38911 0.0
H347 H 0.81494 0.25929 0.40061 0.0
H348 H 0.80461 0.28123 0.38098 0.0
H349 H 0.70509 0.23238 0.25557 0.0
H350 H 0.72643 0.2961 0.22438 0.0
H351 H 0.76211 0.30169 0.25438 0.0
H352 H 0.70413 0.24521 0.31071 0.0
H353 H 0.70371 0.21777 0.30196 0.0
H354 H 0.7212 0.22626 0.32893 0.0
H355 H 0.77261 0.22029 0.266 0.0
H356 H 0.77295 0.20752 0.29524 0.0
H357 H 0.74166 0.20397 0.27723 0.0
H358 H 0.75567 0.17444 0.36323 0.0
C359 C 0.76545 0.20495 0.34471 0.0
C360 C 0.26194 0.19719 0.71308 0.0
C361 C 0.2495 0.19546 0.69015 0.0
C362 C 0.23396 0.21287 0.68123 0.0
C363 C 0.24461 0.2331 0.71715 0.0
C364 C 0.2598 0.2161 0.72584 0.0
C365 C 0.27465 0.22101 0.74895 0.0
H366 H 0.3132 0.29321 0.83175 0.0
C367 C 0.24734 0.25057 0.7347 0.0
C368 C 0.26521 0.24356 0.7532 0.0
H369 H 0.34168 0.22865 0.8248 0.0
H370 H 0.30883 0.22282 0.79248 0.0
H371 H 0.24751 0.28091 0.82835 0.0
H372 H 0.31087 0.30596 0.77365 0.0
H373 H 0.27965 0.32094 0.77193 0.0
H374 H 0.29849 0.32013 0.79984 0.0
H375 H 0.25525 0.30923 0.82386 0.0
H376 H 0.22819 0.29537 0.80688 0.0
C377 C 0.26258 0.20489 0.7696 0.0
C378 C 0.30765 0.2204 0.74343 0.0
C379 C 0.19606 0.32054 0.72173 0.0
C380 C 0.19374 0.33885 0.73586 0.0
C381 C 0.20752 0.33951 0.75825 0.0
C382 C 0.22395 0.32252 0.76619 0.0
C383 C 0.22656 0.30453 0.75171 0.0
C384 C 0.21223 0.30348 0.73016 0.0
C385 C 0.21645 0.28253 0.71789 0.0
C386 C 0.23568 0.27127 0.73564 0.0
C387 C 0.24197 0.28449 0.75512 0.0
C388 C 0.18667 0.27062 0.71682 0.0
C389 C 0.23202 0.28752 0.6925 0.0
C390 C 0.31237 0.27785 0.82318 0.0
C391 C 0.33035 0.26148 0.83055 0.0
C392 C 0.32807 0.24151 0.81945 0.0
C393 C 0.30916 0.23823 0.80053 0.0
C394 C 0.29229 0.25509 0.79258 0.0
C395 C 0.29351 0.2743 0.80432 0.0
C396 C 0.27329 0.29014 0.79401 0.0
C397 C 0.261 0.27771 0.7732 0.0
C398 C 0.2723 0.25726 0.7724 0.0
C399 C 0.24989 0.29432 0.81424 0.0
C400 C 0.29132 0.31048 0.7844 0.0
H401 H 0.21945 0.24424 0.68672 0.0
H402 H 0.27359 0.18422 0.72103 0.0
H403 H 0.31352 0.22511 0.72391 0.0
H404 H 0.32021 0.23197 0.75394 0.0
H405 H 0.3154 0.20404 0.74701 0.0
H406 H 0.23895 0.20188 0.76829 0.0
H407 H 0.27286 0.18921 0.76833 0.0
H408 H 0.26527 0.21091 0.78813 0.0
H409 H 0.18541 0.3195 0.70458 0.0
H410 H 0.20621 0.35348 0.76934 0.0
H411 H 0.2343 0.32418 0.78317 0.0
H412 H 0.17383 0.27198 0.73435 0.0
H413 H 0.17422 0.27758 0.70181 0.0
H414 H 0.18814 0.25324 0.71437 0.0
H415 H 0.2481 0.3012 0.69332 0.0
H416 H 0.24453 0.27405 0.68599 0.0
H417 H 0.21648 0.29192 0.67851 0.0
H418 H 0.22442 0.21238 0.66355 0.0
C419 C 0.2313 0.23155 0.69464 0.0
C420 C 0.18747 0.71073 0.33345 0.0
C421 C 0.18479 0.69223 0.31959 0.0
C422 C 0.2019 0.69118 0.2977 0.0
C423 C 0.2237 0.72644 0.30371 0.0
C424 C 0.20702 0.72757 0.32519 0.0
C425 C 0.21275 0.74837 0.33763 0.0
H426 H 0.28014 0.84714 0.334 0.0
C427 C 0.24167 0.74655 0.30012 0.0
C428 C 0.23541 0.75953 0.31994 0.0
H429 H 0.22265 0.81806 0.39194 0.0
H430 H 0.21789 0.78585 0.36927 0.0
H431 H 0.24796 0.82819 0.28714 0.0
H432 H 0.31743 0.80746 0.33025 0.0
H433 H 0.32534 0.79934 0.30041 0.0
H434 H 0.32324 0.82761 0.30597 0.0
H435 H 0.28234 0.84243 0.28769 0.0
H436 H 0.27647 0.82105 0.26712 0.0
C437 C 0.18444 0.7605 0.33877 0.0
C438 C 0.22487 0.74312 0.363 0.0
C439 C 0.30889 0.75793 0.22415 0.0
C440 C 0.32855 0.77472 0.21585 0.0
C441 C 0.33213 0.79277 0.23028 0.0
C442 C 0.31588 0.7943 0.25238 0.0
C443 C 0.29601 0.7775 0.26029 0.0
C444 C 0.29309 0.75957 0.2464 0.0
C445 C 0.27168 0.74298 0.25803 0.0
C446 C 0.26208 0.75395 0.28115 0.0
C447 C 0.27614 0.77423 0.28223 0.0
C448 C 0.24677 0.73995 0.24042 0.0
C449 C 0.28786 0.72232 0.2639 0.0
C450 C 0.26673 0.83386 0.34214 0.0
C451 C 0.25169 0.83549 0.36494 0.0
C452 C 0.23411 0.81766 0.37427 0.0
C453 C 0.23155 0.7988 0.36116 0.0
C454 C 0.24694 0.79751 0.33854 0.0
C455 C 0.26445 0.8148 0.3296 0.0
C456 C 0.28069 0.81025 0.30608 0.0
C457 C 0.2695 0.78754 0.302 0.0
C458 C 0.24947 0.78019 0.32089 0.0
C459 C 0.27166 0.82633 0.28584 0.0
C460 C 0.31339 0.81132 0.31068 0.0
H461 H 0.23353 0.70624 0.2729 0.0
H462 H 0.17486 0.71199 0.35046 0.0
H463 H 0.23827 0.72879 0.36236 0.0
H464 H 0.23944 0.7561 0.36911 0.0
H465 H 0.20721 0.73963 0.37719 0.0
H466 H 0.17349 0.7595 0.32114 0.0
H467 H 0.1693 0.75345 0.35358 0.0
H468 H 0.18789 0.77781 0.34159 0.0
H469 H 0.30598 0.74372 0.21359 0.0
H470 H 0.34706 0.80594 0.22416 0.0
H471 H 0.31925 0.80859 0.26234 0.0
H472 H 0.24205 0.75549 0.23108 0.0
H473 H 0.25237 0.72859 0.22599 0.0
H474 H 0.2262 0.73432 0.24996 0.0
H475 H 0.31042 0.7263 0.2687 0.0
H476 H 0.27828 0.71292 0.28006 0.0
H477 H 0.28879 0.71188 0.24791 0.0
H478 H 0.19996 0.67734 0.28642 0.0
C479 C 0.22128 0.70809 0.28974 0.0
C480 C 0.06512 0.5431 0.36388 0.0
C481 C 0.07614 0.54794 0.38626 0.0
C482 C 0.06686 0.53141 0.40251 0.0
C483 C 0.05082 0.51748 0.38913 0.0
N484 N 0.04956 0.52423 0.36555 0.0
Co485 Co 0.02822 0.50974 0.33986 0.0
N486 N 0.00361 0.49252 0.36476 0.0
C487 C 0.00947 0.48918 0.38852 0.0
C488 C 0.98904 0.47608 0.40132 0.0
C489 C 0.96937 0.47054 0.38451 0.0
C490 C 0.97902 0.48052 0.36224 0.0
N491 N 0.00676 0.49549 0.31398 0.0
C492 C 0.98173 0.48342 0.3157 0.0
C493 C 0.97501 0.47586 0.29298 0.0
C494 C 0.99684 0.48318 0.27665 0.0
C495 C 0.01563 0.49477 0.2902 0.0
N496 N 0.05342 0.52666 0.31519 0.0
C497 C 0.05787 0.52227 0.29145 0.0
C498 C 0.07567 0.53747 0.27879 0.0
C499 C 0.08277 0.55231 0.29566 0.0
C500 C 0.06898 0.54519 0.31778 0.0
N501 N 0.05575 0.48684 0.33964 0.0
C502 C 0.09481 0.45396 0.34112 0.0
C503 C 0.06542 0.44926 0.33875 0.0
C504 C 0.04628 0.46586 0.33825 0.0
C505 C 0.10437 0.47549 0.34237 0.0
C506 C 0.08456 0.49168 0.34134 0.0
N507 N 1.00093 0.53276 0.34017 0.0
C508 C 0.97968 0.56242 0.31927 0.0
C509 C 0.96828 0.56965 0.3416 0.0
C510 C 0.97255 0.55716 0.363 0.0
C511 C 0.98915 0.53907 0.36194 0.0
C512 C 0.99541 0.54382 0.31893 0.0
H513 H 0.99309 0.53055 0.3789 0.0
H514 H 0.00402 0.53885 0.30151 0.0
H515 H 0.02375 0.46158 0.33705 0.0
H516 H 0.09253 0.50813 0.34216 0.0
C517 C 0.03222 0.50066 0.39876 0.0
C518 C 0.07108 0.55595 0.34105 0.0
C519 C 0.96607 0.4763 0.3388 0.0
C520 C 0.04008 0.5069 0.28087 0.0
H521 H 0.08936 0.56193 0.39036 0.0
H522 H 0.07019 0.53029 0.42199 0.0
H523 H 0.98824 0.47142 0.42065 0.0
H524 H 0.95044 0.45995 0.38811 0.0
H525 H 0.95672 0.46553 0.28878 0.0
H526 H 0.99865 0.4805 0.25719 0.0
H527 H 0.0813 0.53845 0.25931 0.0
H528 H 0.09608 0.56683 0.29188 0.0
H529 H 0.05713 0.4328 0.33796 0.0
H530 H 0.127 0.47978 0.34403 0.0
H531 H 0.97741 0.57131 0.30212 0.0
H532 H 0.96349 0.56134 0.38068 0.0
C533 C 0.05853 0.5579 0.73081 0.0
C534 C 0.06662 0.56555 0.75312 0.0
C535 C 0.05028 0.55408 0.77091 0.0
C536 C 0.03321 0.54017 0.75852 0.0
N537 N 0.03787 0.54183 0.73388 0.0
Co538 Co 0.01636 0.5256 0.70895 0.0
N539 N 0.9922 0.5088 0.73516 0.0
C540 C 0.99348 0.51056 0.75968 0.0
C541 C 0.97614 0.49568 0.77316 0.0
C542 C 0.96349 0.48331 0.75628 0.0
C543 C 0.97377 0.49149 0.73335 0.0
N544 N 0.99426 0.50984 0.68403 0.0
C545 C 0.97506 0.49282 0.68711 0.0
C546 C 0.96519 0.4863 0.6649 0.0
C547 C 0.97927 0.49931 0.64706 0.0
C548 C 0.99673 0.51304 0.65936 0.0
N549 N 0.04119 0.54179 0.68269 0.0
C550 C 0.04027 0.53962 0.65818 0.0
C551 C 0.05985 0.55293 0.64472 0.0
C552 C 0.07404 0.56437 0.66161 0.0
C553 C 0.06218 0.55739 0.68449 0.0
N554 N 0.0446 0.50259 0.70962 0.0
C555 C 0.08236 0.46822 0.71012 0.0
C556 C 0.07074 0.47569 0.68838 0.0
C557 C 0.05249 0.49281 0.6885 0.0
C558 C 0.07471 0.47847 0.73169 0.0
C559 C 0.05587 0.49543 0.73105 0.0
N560 N 0.98803 0.54872 0.70817 0.0
C561 C 0.96421 0.57619 0.68523 0.0
C562 C 0.95052 0.58328 0.70654 0.0
C563 C 0.95584 0.57256 0.72877 0.0
C564 C 0.9745 0.55548 0.72917 0.0
C565 C 0.98237 0.55904 0.68643 0.0
H566 H 0.97772 0.5481 0.74669 0.0
H567 H 0.99182 0.55468 0.66941 0.0
H568 H 0.04473 0.49766 0.67122 0.0
H569 H 0.05057 0.50245 0.74811 0.0
C570 C 0.01266 0.52537 0.76946 0.0
C571 C 0.07079 0.5667 0.70726 0.0
C572 C 0.96704 0.48147 0.71046 0.0
C573 C 0.01888 0.52654 0.64831 0.0
H574 H 0.08248 0.57826 0.75618 0.0
H575 H 0.05061 0.55581 0.79054 0.0
H576 H 0.97387 0.49354 0.79293 0.0
H577 H 0.9491 0.46942 0.76049 0.0
H578 H 0.95023 0.47298 0.6619 0.0
H579 H 0.97815 0.49806 0.62742 0.0
H580 H 0.0628 0.55463 0.62495 0.0
H581 H 0.09075 0.57682 0.65754 0.0
H582 H 0.07523 0.46818 0.67118 0.0
H583 H 0.08331 0.47361 0.74903 0.0
H584 H 0.96145 0.58407 0.66753 0.0
H585 H 0.94554 0.57718 0.74583 0.0
C586 C 0.26009 0.98621 0.56365 0.0
C587 C 0.28512 0.97634 0.56976 0.0
C588 C 0.3056 0.98234 0.55169 0.0
C589 C 0.2921 0.99562 0.53574 0.0
N590 N 0.26446 0.99863 0.54274 0.0
Co591 Co 0.23732 0.01652 0.52465 0.0
N592 N 0.26936 0.03117 0.50392 0.0
C593 C 0.29638 0.02441 0.50106 0.0
C594 C 0.31383 0.03756 0.48542 0.0
C595 C 0.29669 0.0535 0.47766 0.0
C596 C 0.26961 0.04913 0.48905 0.0
N597 N 0.21023 0.03431 0.50646 0.0
C598 C 0.21546 0.05199 0.49137 0.0
C599 C 0.19004 0.05933 0.48243 0.0
C600 C 0.16825 0.04556 0.49193 0.0
C601 C 0.18148 0.03069 0.50616 0.0
N602 N 0.20525 1.00181 0.54524 0.0
C603 C 0.17709 1.00163 0.54046 0.0
C604 C 0.15987 0.98965 0.55742 0.0
C605 C 0.17832 0.98155 0.57384 0.0
C606 C 0.20589 0.98913 0.56595 0.0
N607 N 0.24109 0.03876 0.54877 0.0
C608 C 0.24763 0.07103 0.58292 0.0
C609 C 0.22015 0.06357 0.5765 0.0
C610 C 0.21738 0.04759 0.55929 0.0
C611 C 0.27163 0.06199 0.57152 0.0
C612 C 0.26791 0.04579 0.55495 0.0
N613 N 0.2339 0.99424 0.50048 0.0
C614 C 0.23227 0.95678 0.49121 0.0
C615 C 0.23754 0.96217 0.46628 0.0
C616 C 0.23931 0.98387 0.4586 0.0
C617 C 0.23695 0.99964 0.47594 0.0
C618 C 0.23072 0.97303 0.50802 0.0
H619 H 0.23874 0.01619 0.46948 0.0
H620 H 0.22811 0.96831 0.52718 0.0
H621 H 0.19602 0.04235 0.55459 0.0
H622 H 0.28691 0.03907 0.54703 0.0
C623 C 0.30552 0.00751 0.51586 0.0
C624 C 0.23214 0.98193 0.57697 0.0
C625 C 0.24411 0.06092 0.48296 0.0
C626 C 0.16738 0.01493 0.52176 0.0
H627 H 0.2882 0.96566 0.58543 0.0
H628 H 0.32786 0.97794 0.55064 0.0
H629 H 0.33648 0.03604 0.48066 0.0
H630 H 0.3032 0.0666 0.46471 0.0
H631 H 0.18758 0.07299 0.46996 0.0
H632 H 0.14544 0.04657 0.48922 0.0
H633 H 0.13664 0.98738 0.55804 0.0
H634 H 0.1722 0.97087 0.5895 0.0
H635 H 0.20084 0.06975 0.58486 0.0
H636 H 0.29339 0.06743 0.57508 0.0
H637 H 0.23088 0.94013 0.49781 0.0
H638 H 0.24313 0.98862 0.43939 0.0
C639 C 0.47706 0.79236 0.06243 0.0
C640 C 0.46821 0.81211 0.07006 0.0
C641 C 0.48067 0.82739 0.05372 0.0
C642 C 0.49636 0.8162 0.03707 0.0
N643 N 0.49482 0.79485 0.04201 0.0
Co644 Co 0.51368 0.77295 0.02212 0.0
N645 N 0.54001 0.79507 0.00461 0.0
C646 C 0.5364 0.81638 0.00348 0.0
C647 C 0.55803 0.82773 0.98997 0.0
C648 C 0.57629 0.81261 0.9819 0.0
C649 C 0.56462 0.79279 0.99088 0.0
N650 N 0.53272 0.75106 1.00238 0.0
C651 C 0.55807 0.75248 0.98902 0.0
C652 C 0.56301 0.73341 0.97758 0.0
C653 C 0.53984 0.71967 0.98395 0.0
C654 C 0.5221 0.73106 0.99883 0.0
N655 N 0.48696 0.75084 0.03921 0.0
C656 C 0.48141 0.73078 0.03183 0.0
C657 C 0.46241 0.71893 0.0475 0.0
C658 C 0.45522 0.73244 0.06571 0.0
C659 C 0.47007 0.75197 0.05996 0.0
N660 N 0.48565 0.77681 0.99679 0.0
C661 C 0.44509 0.7815 0.96083 0.0
C662 C 0.47426 0.7795 0.95421 0.0
C663 C 0.49421 0.77736 0.97244 0.0
C664 C 0.43666 0.78108 0.98578 0.0
C665 C 0.45715 0.7786 0.0034 0.0
N666 N 0.54157 0.76899 0.04751 0.0
C667 C 0.56425 0.74555 0.07603 0.0
C668 C 0.57997 0.76294 0.08536 0.0
C669 C 0.57586 0.78352 0.07495 0.0
C670 C 0.55632 0.78621 0.05643 0.0
C671 C 0.54587 0.74885 0.05691 0.0
H672 H 0.55315 0.80226 0.04937 0.0
H673 H 0.53482 0.735 0.04998 0.0
H674 H 0.51656 0.77612 0.96679 0.0
H675 H 0.44979 0.77804 0.02239 0.0
C676 C 0.51533 0.82527 0.0185 0.0
C677 C 0.46531 0.77165 0.0732 0.0
C678 C 0.57639 0.77214 0.9848 0.0
C679 C 0.49775 0.72265 0.0125 0.0
H680 H 0.45371 0.81515 0.08547 0.0
H681 H 0.47889 0.84461 0.05419 0.0
H682 H 0.5608 0.84498 0.9871 0.0
H683 H 0.59589 0.81583 0.97064 0.0
H684 H 0.58123 0.72992 0.96557 0.0
H685 H 0.53671 0.70316 0.97887 0.0
H686 H 0.45535 0.70225 0.0463 0.0
H687 H 0.4404 0.72844 0.08125 0.0
H688 H 0.48169 0.77994 0.9351 0.0
H689 H 0.41426 0.78237 0.99168 0.0
H690 H 0.56552 0.72934 0.08351 0.0
H691 H 0.58762 0.79759 0.08082 0.0
C692 C 0.81491 0.99063 0.56924 0.0
C693 C 0.84115 0.98311 0.57609 0.0
C694 C 0.86157 0.99133 0.55892 0.0
C695 C 0.84676 1.00336 0.54258 0.0
N696 N 0.81833 1.0034 0.54857 0.0
Co697 Co 0.78919 0.01791 0.52931 0.0
N698 N 0.81923 0.03649 0.51096 0.0
C699 C 0.84749 0.03284 0.50867 0.0
C700 C 0.86293 0.04872 0.49489 0.0
C701 C 0.84307 0.06318 0.48808 0.0
C702 C 0.81658 0.05527 0.49818 0.0
N703 N 0.7602 0.03241 0.50989 0.0
C704 C 0.76257 0.0515 0.4971 0.0
C705 C 0.73699 0.05589 0.48623 0.0
C706 C 0.71807 0.03879 0.49243 0.0
C707 C 0.73309 0.025 0.50671 0.0
N708 N 0.75903 0.99917 0.54747 0.0
C709 C 0.73196 0.9953 0.54047 0.0
C710 C 0.71606 0.98132 0.55639 0.0
C711 C 0.73439 0.97584 0.57433 0.0
C712 C 0.76058 0.98677 0.56826 0.0
N713 N 0.78555 0.03967 0.55406 0.0
C714 C 0.77913 0.07512 0.58386 0.0
C715 C 0.75519 0.06229 0.57761 0.0
C716 C 0.75881 0.04495 0.56255 0.0
C717 C 0.80658 0.06883 0.57595 0.0
C718 C 0.8093 0.05094 0.56141 0.0
N719 N 0.79259 0.99629 0.5043 0.0
C720 C 0.7911 0.95927 0.4931 0.0
C721 C 0.79262 0.96544 0.46803 0.0
C722 C 0.79526 0.98754 0.46174 0.0
C723 C 0.79481 1.00258 0.48001 0.0
C724 C 0.79152 0.97486 0.51082 0.0
H725 H 0.79581 0.01937 0.47437 0.0
H726 H 0.79025 0.96947 0.52984 0.0
H727 H 0.73979 0.03624 0.55716 0.0
H728 H 0.83063 0.04674 0.55532 0.0
C729 C 0.8591 0.01682 0.52338 0.0
C730 C 0.78704 0.98357 0.58132 0.0
C731 C 0.78912 0.06513 0.49412 0.0
C732 C 0.72125 0.0073 0.52094 0.0
H733 H 0.84503 0.97244 0.59159 0.0
H734 H 0.88452 0.98911 0.55866 0.0
H735 H 0.88601 0.05013 0.49115 0.0
H736 H 0.84752 0.07782 0.47698 0.0
H737 H 0.73246 0.06996 0.47508 0.0
H738 H 0.69567 0.03712 0.48798 0.0
H739 H 0.69364 0.97614 0.55544 0.0
H740 H 0.72916 0.96482 0.58987 0.0
H741 H 0.73354 0.06573 0.58388 0.0
H742 H 0.82587 0.07803 0.58012 0.0
H743 H 0.78879 0.94254 0.4992 0.0
H744 H 0.79748 0.99338 0.4428 0.0
C745 C 0.47507 0.27391 0.06013 0.0
C746 C 0.46719 0.29262 0.07115 0.0
C747 C 0.49002 0.30718 0.06732 0.0
C748 C 0.51051 0.29664 0.05425 0.0
N749 N 0.50189 0.27642 0.04934 0.0
Co750 Co 0.52558 0.25553 0.03191 0.0
N751 N 0.553 0.27868 0.01798 0.0
C752 C 0.55596 0.29873 0.02605 0.0
C753 C 0.57613 0.31139 0.01237 0.0
C754 C 0.58666 0.29845 0.9947 0.0
C755 C 0.57246 0.27846 0.99875 0.0
N756 N 0.54955 0.23474 0.01468 0.0
C757 C 0.5696 0.23814 0.99596 0.0
C758 C 0.58157 0.21902 0.98959 0.0
C759 C 0.56849 0.20317 0.0049 0.0
C760 C 0.54938 0.21344 0.01976 0.0
N761 N 0.49817 0.2323 0.04574 0.0
C762 C 0.50316 0.2112 0.04708 0.0
C763 C 0.48049 0.1989 0.05791 0.0
C764 C 0.46009 0.21318 0.06408 0.0
C765 C 0.47157 0.23349 0.05672 0.0
N766 N 0.50232 0.25871 0.00318 0.0
C767 C 0.4685 0.26376 0.96225 0.0
C768 C 0.47625 0.24332 0.97054 0.0
C769 C 0.49304 0.24115 0.99104 0.0
C770 C 0.47804 0.28155 0.97511 0.0
C771 C 0.49499 0.2787 0.99528 0.0
N772 N 0.54872 0.25253 0.06085 0.0
C773 C 0.5507 0.25063 0.1048 0.0
C774 C 0.58078 0.25327 0.10308 0.0
C775 C 0.59464 0.25425 0.07966 0.0
C776 C 0.5782 0.25377 0.05877 0.0
C777 C 0.53518 0.25039 0.08364 0.0
H778 H 0.58933 0.25511 0.04096 0.0
H779 H 0.51208 0.24913 0.08588 0.0
H780 H 0.49857 0.22525 0.99703 0.0
H781 H 0.50208 0.29276 0.00455 0.0
C782 C 0.53617 0.30601 0.04352 0.0
C783 C 0.45798 0.25351 0.06288 0.0
C784 C 0.57932 0.25931 0.98518 0.0
C785 C 0.52774 0.20339 0.0354 0.0
H786 H 0.44729 0.29533 0.08139 0.0
H787 H 0.49126 0.32362 0.07296 0.0
H788 H 0.58164 0.32826 0.01432 0.0
H789 H 0.60295 0.30324 0.98051 0.0
H790 H 0.59812 0.21677 0.97545 0.0
H791 H 0.57174 0.18611 0.00457 0.0
H792 H 0.47875 0.1816 0.0606 0.0
H793 H 0.43939 0.20916 0.07341 0.0
H794 H 0.46976 0.22908 0.96113 0.0
H795 H 0.47223 0.29765 0.96987 0.0
H796 H 0.53903 0.24923 0.12246 0.0
H797 H 0.61787 0.25625 0.07741 0.0
H798 H 0.1651 0.34389 0.30596 0.0
H799 H 0.2149 0.34896 0.37078 0.0
H800 H 0.19319 0.38355 0.37942 0.0
H801 H 0.16822 0.40014 0.28761 0.0
H802 H 0.13166 0.39992 0.278 0.0
H803 H 0.15171 0.37592 0.27655 0.0
H804 H 0.11154 0.35496 0.30337 0.0
H805 H 0.09134 0.37888 0.30483 0.0
H806 H 0.10051 0.36491 0.33272 0.0
H807 H 0.16695 0.41802 0.38032 0.0
H808 H 0.13484 0.44833 0.37552 0.0
H809 H 0.10031 0.41989 0.3113 0.0
C810 C 0.17146 0.35237 0.32191 0.0
C811 C 0.19172 0.34389 0.33769 0.0
C812 C 0.1993 0.35521 0.35857 0.0
C813 C 0.18721 0.37488 0.36352 0.0
C814 C 0.16733 0.38286 0.34757 0.0
C815 C 0.15924 0.37185 0.32734 0.0
C816 C 0.13659 0.38352 0.31366 0.0
C817 C 0.14772 0.39028 0.2874 0.0
C818 C 0.10832 0.36974 0.31366 0.0
C819 C 0.13327 0.40285 0.32931 0.0
C820 C 0.15144 0.40229 0.34861 0.0
C821 C 0.15256 0.41858 0.36533 0.0
C822 C 0.13439 0.43577 0.36239 0.0
C823 C 0.11512 0.43639 0.34309 0.0
C824 C 0.1147 0.41971 0.32633 0.0
H825 H 0.12945 0.68923 0.71064 0.0
H826 H 0.21525 0.66512 0.71448 0.0
H827 H 0.19521 0.62811 0.71104 0.0
H828 H 0.09346 0.64655 0.74695 0.0
H829 H 0.06159 0.64561 0.72941 0.0
H830 H 0.08272 0.6704 0.73073 0.0
H831 H 0.08819 0.67306 0.68327 0.0
H832 H 0.067 0.64828 0.68182 0.0
H833 H 0.10252 0.65099 0.66704 0.0
H834 H 0.16594 0.59359 0.70858 0.0
H835 H 0.12886 0.5638 0.70774 0.0
H836 H 0.06196 0.60984 0.70593 0.0
C837 C 0.14402 0.67617 0.71037 0.0
C838 C 0.17394 0.68006 0.71279 0.0
C839 C 0.19226 0.6625 0.71281 0.0
C840 C 0.18109 0.64143 0.71077 0.0
C841 C 0.15151 0.6381 0.70873 0.0
C842 C 0.13318 0.65495 0.70852 0.0
C843 C 0.10207 0.6468 0.70711 0.0
C844 C 0.0839 0.65269 0.72991 0.0
C845 C 0.08919 0.65529 0.68339 0.0
C846 C 0.10581 0.62277 0.70672 0.0
C847 C 0.13455 0.61812 0.70753 0.0
C848 C 0.1434 0.59704 0.7078 0.0
C849 C 0.12232 0.58026 0.70731 0.0
C850 C 0.09286 0.5847 0.70663 0.0
C851 C 0.08449 0.60618 0.70626 0.0
H852 H 0.87525 0.66554 0.29142 0.0
H853 H 0.87603 0.69101 0.3644 0.0
H854 H 0.90719 0.66225 0.37726 0.0
H855 H 0.86737 0.61051 0.31321 0.0
H856 H 0.88885 0.60083 0.28801 0.0
H857 H 0.86901 0.62473 0.28375 0.0
H858 H 0.91611 0.64595 0.26865 0.0
H859 H 0.93613 0.62214 0.27298 0.0
H860 H 0.9466 0.64636 0.28785 0.0
H861 H 0.93885 0.63061 0.38215 0.0
H862 H 0.96508 0.59743 0.37978 0.0
H863 H 0.93673 0.58948 0.30576 0.0
C864 C 0.8815 0.66514 0.31024 0.0
C865 C 0.873 0.68098 0.32671 0.0
C866 C 0.88262 0.67967 0.35101 0.0
C867 C 0.9002 0.66318 0.35865 0.0
C868 C 0.90768 0.64779 0.342 0.0
C869 C 0.89832 0.64848 0.3184 0.0
C870 C 0.90786 0.62925 0.30453 0.0
C871 C 0.88172 0.61552 0.29694 0.0
C872 C 0.92787 0.63636 0.28218 0.0
C873 C 0.92411 0.61762 0.32404 0.0
C874 C 0.92412 0.62875 0.34538 0.0
C875 C 0.93855 0.62156 0.36566 0.0
C876 C 0.95317 0.60242 0.36417 0.0
C877 C 0.9528 0.59023 0.34273 0.0
C878 C 0.93793 0.59818 0.32243 0.0
H879 H 0.84676 0.38712 0.73906 0.0
H880 H 0.90983 0.34236 0.7146 0.0
H881 H 0.94457 0.37277 0.70383 0.0
H882 H 0.86579 0.42979 0.69337 0.0
H883 H 0.86035 0.45082 0.71456 0.0
H884 H 0.83994 0.42561 0.71895 0.0
H885 H 0.85795 0.42122 0.76298 0.0
H886 H 0.87845 0.44638 0.75871 0.0
H887 H 0.89614 0.42232 0.76748 0.0
H888 H 0.97343 0.40818 0.69768 0.0
H889 H 0.99363 0.44573 0.69634 0.0
H890 H 0.912 0.46714 0.7252 0.0
C891 C 0.86788 0.38363 0.73148 0.0
C892 C 0.87546 0.36223 0.7277 0.0
C893 C 0.90326 0.35855 0.71737 0.0
C894 C 0.92324 0.37574 0.71133 0.0
C895 C 0.91514 0.39657 0.71564 0.0
C896 C 0.88807 0.40057 0.72542 0.0
C897 C 0.88494 0.42436 0.72891 0.0
C898 C 0.86136 0.43316 0.71299 0.0
C899 C 0.87903 0.42882 0.75613 0.0
C900 C 0.91457 0.43314 0.7198 0.0
C901 C 0.93168 0.41687 0.71216 0.0
C902 C 0.96017 0.42102 0.70351 0.0
C903 C 0.97146 0.44232 0.70281 0.0
C904 C 0.95434 0.45912 0.71078 0.0
C905 C 0.92548 0.45448 0.71911 0.0
H906 H 0.2675 0.17286 0.40515 0.0
H907 H 0.25485 0.13617 0.34032 0.0
H908 H 0.24747 0.103 0.36625 0.0
H909 H 0.30614 0.13333 0.43797 0.0
H910 H 0.28971 0.13838 0.4676 0.0
H911 H 0.29351 0.15958 0.44414 0.0
H912 H 0.23862 0.165 0.44808 0.0
H913 H 0.23467 0.14386 0.47162 0.0
H914 H 0.21371 0.14244 0.44476 0.0
H915 H 0.24224 0.07376 0.39854 0.0
H916 H 0.23887 0.04996 0.436 0.0
H917 H 0.25434 0.10486 0.4805 0.0
C918 C 0.26293 0.15786 0.39647 0.0
C919 C 0.26204 0.15711 0.37063 0.0
C920 C 0.25619 0.13713 0.35998 0.0
C921 C 0.25178 0.11819 0.37458 0.0
C922 C 0.25317 0.11943 0.39987 0.0
C923 C 0.25852 0.1387 0.41082 0.0
C924 C 0.25916 0.13534 0.43849 0.0
C925 C 0.2889 0.14206 0.44758 0.0
C926 C 0.23511 0.14737 0.4515 0.0
C927 C 0.25346 0.11119 0.44128 0.0
C928 C 0.25003 0.1024 0.4187 0.0
C929 C 0.24479 0.08044 0.41633 0.0
C930 C 0.24292 0.06707 0.4376 0.0
C931 C 0.24627 0.07571 0.46088 0.0
C932 C 0.25165 0.09801 0.4628 0.0
H933 H 0.36034 0.75418 0.84071 0.0
H934 H 0.30602 0.80693 0.85754 0.0
H935 H 0.33386 0.8142 0.89393 0.0
H936 H 0.36902 0.73551 0.90323 0.0
H937 H 0.40616 0.72912 0.89795 0.0
H938 H 0.38182 0.72791 0.87329 0.0
H939 H 0.41617 0.75423 0.8467 0.0
H940 H 0.44056 0.75558 0.87131 0.0
H941 H 0.42675 0.77987 0.85842 0.0
H942 H 0.36668 0.81536 0.92882 0.0
H943 H 0.40358 0.811 0.9595 0.0
H944 H 0.43769 0.75815 0.91975 0.0
C945 C 0.35425 0.76716 0.85217 0.0
C946 C 0.33105 0.78002 0.84632 0.0
C947 C 0.3239 0.79703 0.86157 0.0
C948 C 0.3395 0.80123 0.88232 0.0
C949 C 0.36232 0.78835 0.88751 0.0
C950 C 0.36981 0.77172 0.87286 0.0
C951 C 0.39559 0.76055 0.88243 0.0
C952 C 0.38766 0.73687 0.88966 0.0
C953 C 0.42129 0.76269 0.86359 0.0
C954 C 0.4013 0.77345 0.90479 0.0
C955 C 0.38174 0.78933 0.90741 0.0
C956 C 0.38218 0.80302 0.92693 0.0
C957 C 0.40312 0.80039 0.9443 0.0
C958 C 0.42348 0.78429 0.94195 0.0
C959 C 0.42259 0.77075 0.92183 0.0
H960 H 0.80585 0.85019 0.40884 0.0
H961 H 0.77281 0.87879 0.34251 0.0
H962 H 0.76898 0.91307 0.36269 0.0
H963 H 0.764 0.87821 0.45243 0.0
H964 H 0.79277 0.88211 0.47302 0.0
H965 H 0.79213 0.8593 0.45382 0.0
H966 H 0.84335 0.87058 0.43584 0.0
H967 H 0.84422 0.89335 0.4551 0.0
H968 H 0.85032 0.89727 0.42237 0.0
H969 H 0.76667 0.94393 0.39042 0.0
H970 H 0.76959 0.97013 0.42259 0.0
H971 H 0.80999 0.92323 0.46929 0.0
C972 C 0.79812 0.86364 0.39834 0.0
C973 C 0.78916 0.86139 0.37406 0.0
C974 C 0.77895 0.87962 0.36132 0.0
C975 C 0.77694 0.89934 0.37256 0.0
C976 C 0.7857 0.90087 0.39646 0.0
C977 C 0.79646 0.88364 0.40911 0.0
C978 C 0.8052 0.88987 0.4344 0.0
C979 C 0.78746 0.87658 0.45461 0.0
C980 C 0.83771 0.88764 0.43707 0.0
C981 C 0.79742 0.91325 0.43398 0.0
C982 C 0.78597 0.91916 0.41199 0.0
C983 C 0.77613 0.93962 0.40756 0.0
C984 C 0.7782 0.95453 0.426 0.0
C985 C 0.79057 0.94917 0.44862 0.0
C986 C 0.80026 0.92809 0.45246 0.0
H987 H 0.6514 0.25213 0.84956 0.0
H988 H 0.73276 0.27119 0.87997 0.0
H989 H 0.70845 0.2725 0.92096 0.0
H990 H 0.60741 0.28575 0.88618 0.0
H991 H 0.57737 0.26643 0.89005 0.0
H992 H 0.60115 0.26648 0.86305 0.0
H993 H 0.6108 0.22644 0.87229 0.0
H994 H 0.58701 0.22628 0.89931 0.0
H995 H 0.62359 0.21833 0.90175 0.0
H996 H 0.67584 0.27127 0.9587 0.0
H997 H 0.6362 0.26899 0.99068 0.0
H998 H 0.57545 0.2517 0.93623 0.0
C999 C 0.66409 0.25642 0.8649 0.0
C1000 C 0.694 0.26162 0.86154 0.0
C1001 C 0.70979 0.2674 0.88203 0.0
C1002 C 0.69621 0.26807 0.90542 0.0
C1003 C 0.66674 0.26298 0.90809 0.0
C1004 C 0.65079 0.25734 0.88842 0.0
C1005 C 0.61926 0.25305 0.89634 0.0
C1006 C 0.60018 0.26887 0.88312 0.0
C1007 C 0.6096 0.22963 0.89217 0.0
C1008 C 0.62002 0.25721 0.92349 0.0
C1009 C 0.6477 0.26279 0.92986 0.0
C1010 C 0.65404 0.26711 0.9539 0.0
C1011 C 0.63146 0.26587 0.97189 0.0
C1012 C 0.60287 0.26067 0.96569 0.0
C1013 C 0.59713 0.25605 0.94125 0.0
H1014 H 0.2382 0.86493 0.64225 0.0
H1015 H 0.21289 0.89396 0.71028 0.0
H1016 H 0.20837 0.92873 0.68792 0.0
H1017 H 0.28167 0.90882 0.61769 0.0
H1018 H 0.27189 0.90626 0.58637 0.0
H1019 H 0.2703 0.88295 0.60702 0.0
H1020 H 0.21664 0.87541 0.59818 0.0
H1021 H 0.21817 0.89854 0.57723 0.0
H1022 H 0.19143 0.89625 0.60228 0.0
H1023 H 0.21041 0.96098 0.65905 0.0
H1024 H 0.21675 0.98831 0.62472 0.0
H1025 H 0.24039 0.93877 0.57524 0.0
C1026 C 0.23095 0.8785 0.65224 0.0
C1027 C 0.22572 0.87679 0.67795 0.0
C1028 C 0.21696 0.89498 0.69057 0.0
C1029 C 0.21434 0.91478 0.67804 0.0
C1030 C 0.2205 0.91617 0.65283 0.0
C1031 C 0.22836 0.89851 0.63997 0.0
C1032 C 0.23517 0.90472 0.61311 0.0
C1033 C 0.26662 0.90043 0.60562 0.0
C1034 C 0.21409 0.89304 0.59673 0.0
C1035 C 0.23033 0.92862 0.61304 0.0
C1036 C 0.22181 0.93487 0.63614 0.0
C1037 C 0.21689 0.95626 0.64084 0.0
C1038 C 0.22064 0.97166 0.62137 0.0
C1039 C 0.22933 0.96558 0.59762 0.0
C1040 C 0.23401 0.94377 0.59338 0.0
H1041 H 0.67251 0.79345 0.20077 0.0
H1042 H 0.69001 0.72555 0.20853 0.0
H1043 H 0.66348 0.71873 0.17187 0.0
H1044 H 0.59824 0.78279 0.18436 0.0
H1045 H 0.59833 0.80615 0.16381 0.0
H1046 H 0.6207 0.80625 0.18985 0.0
H1047 H 0.66546 0.81603 0.16088 0.0
H1048 H 0.64329 0.81568 0.13472 0.0
H1049 H 0.67393 0.79903 0.13586 0.0
H1050 H 0.63818 0.71947 0.13255 0.0
H1051 H 0.60864 0.72623 0.09747 0.0
H1052 H 0.5987 0.79188 0.11978 0.0
C1053 C 0.67061 0.77704 0.1952 0.0
C1054 C 0.68459 0.76027 0.20759 0.0
C1055 C 0.68109 0.73909 0.19909 0.0
C1056 C 0.66564 0.73489 0.17828 0.0
C1057 C 0.65278 0.75183 0.16641 0.0
C1058 C 0.65434 0.77235 0.17491 0.0
C1059 C 0.63675 0.78731 0.15962 0.0
C1060 C 0.61203 0.79614 0.17535 0.0
C1061 C 0.65602 0.80559 0.14703 0.0
C1062 C 0.62542 0.77196 0.14106 0.0
C1063 C 0.63544 0.75171 0.1451 0.0
C1064 C 0.62945 0.73511 0.12961 0.0
C1065 C 0.61218 0.73914 0.10975 0.0
C1066 C 0.60009 0.75947 0.10579 0.0
C1067 C 0.60725 0.77611 0.12179 0.0
H1068 H 0.81961 0.17054 0.67342 0.0
H1069 H 0.73591 0.19522 0.65998 0.0
H1070 H 0.72604 0.1656 0.63228 0.0
H1071 H 0.8358 0.15195 0.61277 0.0
H1072 H 0.85214 0.12786 0.62346 0.0
H1073 H 0.85313 0.15134 0.64162 0.0
H1074 H 0.82909 0.12906 0.67871 0.0
H1075 H 0.8281 0.1055 0.66068 0.0
H1076 H 0.79538 0.11436 0.6752 0.0
H1077 H 0.72615 0.1345 0.60486 0.0
H1078 H 0.73389 0.10207 0.58202 0.0
H1079 H 0.81568 0.09481 0.61625 0.0
C1080 C 0.79929 0.16965 0.66452 0.0
C1081 C 0.77851 0.18515 0.66859 0.0
C1082 C 0.75201 0.18345 0.65699 0.0
C1083 C 0.74629 0.16675 0.64122 0.0
C1084 C 0.76715 0.15168 0.63755 0.0
C1085 C 0.79297 0.15276 0.64907 0.0
C1086 C 0.8111 0.13392 0.64265 0.0
C1087 C 0.83974 0.14174 0.62933 0.0
C1088 C 0.81621 0.11988 0.66568 0.0
C1089 C 0.79154 0.12224 0.62554 0.0
C1090 C 0.76646 0.13292 0.62272 0.0
C1091 C 0.74547 0.12576 0.60728 0.0
C1092 C 0.75 0.10705 0.59454 0.0
C1093 C 0.77514 0.09526 0.59755 0.0
C1094 C 0.79621 0.10322 0.6133 0.0
H1095 H 0.37345 0.24559 0.19347 0.0
H1096 H 0.29959 0.26989 0.1575 0.0
H1097 H 0.32599 0.26872 0.1173 0.0
H1098 H 0.42648 0.27543 0.15624 0.0
H1099 H 0.45194 0.25449 0.15568 0.0
H1100 H 0.42653 0.25581 0.18139 0.0
H1101 H 0.40832 0.21664 0.17503 0.0
H1102 H 0.43369 0.21522 0.14924 0.0
H1103 H 0.39585 0.20948 0.14555 0.0
H1104 H 0.36143 0.26679 0.08117 0.0
H1105 H 0.40378 0.26466 0.05208 0.0
H1106 H 0.45424 0.24161 0.11147 0.0
C1107 C 0.36266 0.2503 0.17709 0.0
C1108 C 0.33443 0.25781 0.17861 0.0
C1109 C 0.32128 0.26425 0.15679 0.0
C1110 C 0.33604 0.26351 0.13386 0.0
C1111 C 0.36396 0.25627 0.13301 0.0
C1112 C 0.37715 0.24977 0.15405 0.0
C1113 C 0.40783 0.24369 0.14823 0.0
C1114 C 0.42946 0.25823 0.16115 0.0
C1115 C 0.41163 0.21984 0.15491 0.0
C1116 C 0.40992 0.24801 0.1207 0.0
C1117 C 0.38432 0.25512 0.11222 0.0
C1118 C 0.38146 0.26097 0.08755 0.0
C1119 C 0.40546 0.25968 0.07117 0.0
C1120 C 0.43179 0.25258 0.0796 0.0
C1121 C 0.43399 0.2466 0.10461 0.0
H1122 H 0.88224 0.69326 0.74722 0.0
H1123 H 0.84037 0.69485 0.67791 0.0
H1124 H 0.86119 0.66032 0.66784 0.0
H1125 H 0.94823 0.6713 0.72379 0.0
H1126 H 0.95305 0.65502 0.75117 0.0
H1127 H 0.9344 0.67962 0.75312 0.0
H1128 H 0.89035 0.65867 0.77475 0.0
H1129 H 0.9088 0.63397 0.7727 0.0
H1130 H 0.87387 0.63616 0.7601 0.0
H1131 H 0.88493 0.62517 0.66596 0.0
H1132 H 0.9137 0.59324 0.67032 0.0
H1133 H 0.94306 0.61529 0.73977 0.0
C1134 C 0.87747 0.68629 0.72994 0.0
C1135 C 0.85968 0.6967 0.7133 0.0
C1136 C 0.85414 0.68723 0.69078 0.0
C1137 C 0.8657 0.66756 0.685 0.0
C1138 C 0.883 0.65765 0.70184 0.0
C1139 C 0.88919 0.66679 0.72372 0.0
C1140 C 0.9092 0.6531 0.73817 0.0
C1141 C 0.93792 0.6655 0.74176 0.0
C1142 C 0.89468 0.645 0.76289 0.0
C1143 C 0.9132 0.63481 0.72102 0.0
C1144 C 0.89764 0.6377 0.70031 0.0
C1145 C 0.8975 0.62287 0.68195 0.0
C1146 C 0.91414 0.60482 0.68455 0.0
C1147 C 0.93117 0.60176 0.70521 0.0
C1148 C 0.93027 0.61695 0.72381 0.0
H1149 H 0.90428 0.35452 0.34398 0.0
H1150 H 0.82125 0.37883 0.3269 0.0
H1151 H 0.84187 0.41597 0.32695 0.0
H1152 H 0.92502 0.39691 0.38464 0.0
H1153 H 0.96239 0.39776 0.37414 0.0
H1154 H 0.94086 0.37306 0.37357 0.0
H1155 H 0.95401 0.37073 0.32715 0.0
H1156 H 0.97548 0.39544 0.32758 0.0
H1157 H 0.94699 0.39294 0.30647 0.0
H1158 H 0.87182 0.45056 0.32764 0.0
H1159 H 0.9093 0.48004 0.32949 0.0
H1160 H 0.97252 0.43336 0.3461 0.0
C1161 C 0.89036 0.36767 0.34059 0.0
C1162 C 0.86116 0.36375 0.33536 0.0
C1163 C 0.84377 0.38142 0.33066 0.0
C1164 C 0.85524 0.40259 0.33077 0.0
C1165 C 0.88417 0.40589 0.33565 0.0
C1166 C 0.90151 0.38894 0.34055 0.0
C1167 C 0.93209 0.39691 0.34466 0.0
C1168 C 0.94058 0.3908 0.37081 0.0
C1169 C 0.95339 0.3885 0.32531 0.0
C1170 C 0.92923 0.42093 0.34119 0.0
C1171 C 0.9014 0.42581 0.33607 0.0
C1172 C 0.89365 0.44696 0.33179 0.0
C1173 C 0.91493 0.46355 0.33286 0.0
C1174 C 0.94342 0.45881 0.33819 0.0
C1175 C 0.95067 0.43727 0.34228 0.0
H1176 H 0.15304 0.36105 0.76119 0.0
H1177 H 0.19968 0.35933 0.69072 0.0
H1178 H 0.17681 0.39243 0.67679 0.0
H1179 H 0.0865 0.37996 0.73694 0.0
H1180 H 0.07901 0.39651 0.76256 0.0
H1181 H 0.09886 0.37261 0.76678 0.0
H1182 H 0.14043 0.39524 0.78452 0.0
H1183 H 0.12085 0.41925 0.78011 0.0
H1184 H 0.1568 0.41788 0.76663 0.0
H1185 H 0.15164 0.42693 0.67168 0.0
H1186 H 0.12183 0.45839 0.67361 0.0
H1187 H 0.08826 0.4364 0.74637 0.0
C1188 C 0.15829 0.36763 0.74279 0.0
C1189 C 0.17816 0.35769 0.727 0.0
C1190 C 0.18435 0.36661 0.703 0.0
C1191 C 0.17161 0.38546 0.69501 0.0
C1192 C 0.15245 0.39504 0.71114 0.0
C1193 C 0.14542 0.38626 0.73439 0.0
C1194 C 0.12371 0.39954 0.74788 0.0
C1195 C 0.09534 0.38637 0.75388 0.0
C1196 C 0.1362 0.40851 0.77116 0.0
C1197 C 0.1199 0.41731 0.72868 0.0
C1198 C 0.13688 0.41446 0.70774 0.0
C1199 C 0.13783 0.4291 0.6878 0.0
C1200 C 0.12055 0.4469 0.68905 0.0
C1201 C 0.10204 0.44987 0.70995 0.0
C1202 C 0.10209 0.43484 0.73011 0.0
H1203 H 0.19312 0.64905 0.31779 0.0
H1204 H 0.12935 0.69448 0.33873 0.0
H1205 H 0.09386 0.66435 0.34887 0.0
H1206 H 0.14587 0.61389 0.28818 0.0
H1207 H 0.16265 0.58979 0.29818 0.0
H1208 H 0.18358 0.61478 0.29454 0.0
H1209 H 0.19852 0.61076 0.33957 0.0
H1210 H 0.17771 0.58568 0.34332 0.0
H1211 H 0.17105 0.60694 0.36394 0.0
H1212 H 0.06428 0.62911 0.35388 0.0
H1213 H 0.04367 0.59167 0.354 0.0
H1214 H 0.12695 0.56972 0.32996 0.0
C1215 C 0.17172 0.6527 0.32459 0.0
C1216 C 0.16402 0.67416 0.32744 0.0
C1217 C 0.13587 0.67818 0.33667 0.0
C1218 C 0.11553 0.66117 0.34237 0.0
C1219 C 0.12372 0.64023 0.33889 0.0
C1220 C 0.15123 0.63596 0.33035 0.0
C1221 C 0.15442 0.61215 0.32736 0.0
C1222 C 0.16208 0.60738 0.30047 0.0
C1223 C 0.17675 0.60337 0.34458 0.0
C1224 C 0.12428 0.60368 0.33515 0.0
C1225 C 0.10685 0.62008 0.34183 0.0
C1226 C 0.07779 0.61616 0.34885 0.0
C1227 C 0.06627 0.59495 0.34886 0.0
C1228 C 0.08376 0.57811 0.34174 0.0
C1229 C 0.11318 0.58248 0.33524 0.0
H1230 H 0.77575 0.86904 0.6541 0.0
H1231 H 0.78909 0.90338 0.72046 0.0
H1232 H 0.79308 0.93769 0.69623 0.0
H1233 H 0.82523 0.90309 0.61395 0.0
H1234 H 0.80262 0.90175 0.58809 0.0
H1235 H 0.80175 0.87972 0.61052 0.0
H1236 H 0.74658 0.88257 0.6173 0.0
H1237 H 0.74732 0.9047 0.59502 0.0
H1238 H 0.73235 0.90783 0.62563 0.0
H1239 H 0.79476 0.96847 0.66512 0.0
H1240 H 0.7942 0.99355 0.62872 0.0
H1241 H 0.77965 0.9397 0.58251 0.0
C1242 C 0.77986 0.88377 0.66345 0.0
C1243 C 0.78196 0.88352 0.68922 0.0
C1244 C 0.78702 0.90318 0.7008 0.0
C1245 C 0.78945 0.92276 0.68719 0.0
C1246 C 0.7868 0.92251 0.66192 0.0
C1247 C 0.7822 0.90355 0.6501 0.0
C1248 C 0.77955 0.90791 0.62278 0.0
C1249 C 0.80373 0.8975 0.60796 0.0
C1250 C 0.74967 0.9003 0.61472 0.0
C1251 C 0.78327 0.93222 0.62117 0.0
C1252 C 0.78751 0.94032 0.64397 0.0
C1253 C 0.79142 0.96233 0.64718 0.0
C1254 C 0.79101 0.97644 0.62652 0.0
C1255 C 0.78653 0.96847 0.60311 0.0
C1256 C 0.78277 0.9461 0.60038 0.0
H1257 H 0.71014 0.24204 0.19497 0.0
H1258 H 0.66284 0.28296 0.24311 0.0
H1259 H 0.62339 0.28382 0.21432 0.0
H1260 H 0.69203 0.26819 0.13909 0.0
H1261 H 0.68856 0.24409 0.12213 0.0
H1262 H 0.71227 0.24519 0.14724 0.0
H1263 H 0.68566 0.21144 0.16812 0.0
H1264 H 0.66201 0.21011 0.14296 0.0
H1265 H 0.64717 0.21122 0.17394 0.0
H1266 H 0.59077 0.28204 0.17993 0.0
H1267 H 0.5654 0.27704 0.14197 0.0
H1268 H 0.63311 0.237 0.11513 0.0
C1269 C 0.69116 0.2508 0.19951 0.0
C1270 C 0.6891 0.26225 0.22126 0.0
C1271 C 0.66444 0.27397 0.22657 0.0
C1272 C 0.64205 0.27456 0.21035 0.0
C1273 C 0.64478 0.2634 0.18885 0.0
C1274 C 0.66858 0.25166 0.18336 0.0
C1275 C 0.66637 0.24185 0.15847 0.0
C1276 C 0.69129 0.25035 0.14068 0.0
C1277 C 0.66523 0.21719 0.16103 0.0
C1278 C 0.63777 0.2501 0.15081 0.0
C1279 C 0.62575 0.26243 0.16872 0.0
C1280 C 0.59975 0.2722 0.16589 0.0
C1281 C 0.58542 0.26914 0.14427 0.0
C1282 C 0.59698 0.25635 0.12565 0.0
C1283 C 0.62369 0.24686 0.12898 0.0
H1284 H 0.21315 0.17664 0.657 0.0
H1285 H 0.29644 0.17005 0.68893 0.0
H1286 H 0.30302 0.13705 0.66699 0.0
H1287 H 0.19207 0.12083 0.65554 0.0
H1288 H 0.1769 0.12287 0.62582 0.0
H1289 H 0.17737 0.14565 0.64508 0.0
H1290 H 0.20468 0.16895 0.61037 0.0
H1291 H 0.20404 0.1463 0.59092 0.0
H1292 H 0.23786 0.15991 0.59684 0.0
H1293 H 0.30015 0.10396 0.64336 0.0
H1294 H 0.29102 0.07508 0.61522 0.0
H1295 H 0.21305 0.1052 0.59344 0.0
C1296 C 0.23292 0.16846 0.65931 0.0
C1297 C 0.25382 0.17592 0.6755 0.0
C1298 C 0.27936 0.16445 0.67767 0.0
C1299 C 0.28354 0.14569 0.66502 0.0
C1300 C 0.26238 0.13868 0.64966 0.0
C1301 C 0.23784 0.14988 0.6463 0.0
C1302 C 0.2193 0.1393 0.62759 0.0
C1303 C 0.18965 0.13171 0.63921 0.0
C1304 C 0.2163 0.15452 0.60509 0.0
C1305 C 0.23726 0.12036 0.62117 0.0
C1306 C 0.26179 0.12025 0.63442 0.0
C1307 C 0.28132 0.1041 0.63246 0.0
C1308 C 0.276 0.08781 0.61614 0.0
C1309 C 0.25165 0.08791 0.60139 0.0
C1310 C 0.23187 0.10442 0.6043 0.0
H1311 H 0.38667 0.78211 0.20561 0.0
H1312 H 0.30658 0.7648 0.17216 0.0
H1313 H 0.33286 0.76291 0.13199 0.0
H1314 H 0.41903 0.8149 0.15444 0.0
H1315 H 0.45481 0.80579 0.15846 0.0
H1316 H 0.42967 0.80644 0.18451 0.0
H1317 H 0.43651 0.76606 0.19439 0.0
H1318 H 0.46167 0.7653 0.1684 0.0
H1319 H 0.43055 0.74692 0.17108 0.0
H1320 H 0.36729 0.76367 0.09551 0.0
H1321 H 0.40859 0.76453 0.06521 0.0
H1322 H 0.46699 0.77957 0.12228 0.0
C1323 C 0.37472 0.77807 0.18975 0.0
C1324 C 0.34461 0.77364 0.19189 0.0
C1325 C 0.32968 0.76811 0.17088 0.0
C1326 C 0.34438 0.76711 0.148 0.0
C1327 C 0.37405 0.77152 0.1465 0.0
C1328 C 0.38914 0.77673 0.1668 0.0
C1329 C 0.42114 0.78001 0.16023 0.0
C1330 C 0.43178 0.80316 0.16468 0.0
C1331 C 0.43848 0.76359 0.17436 0.0
C1332 C 0.42165 0.77581 0.13308 0.0
C1333 C 0.39417 0.77115 0.12554 0.0
C1334 C 0.38893 0.76708 0.10123 0.0
C1335 C 0.41242 0.76754 0.08421 0.0
C1336 C 0.4408 0.77165 0.09166 0.0
C1337 C 0.44546 0.77608 0.11632 0.0
H1338 H 0.78665 0.14944 0.38045 0.0
H1339 H 0.78998 0.20021 0.43251 0.0
H1340 H 0.79197 0.17301 0.46639 0.0
H1341 H 0.74007 0.11293 0.41797 0.0
H1342 H 0.75753 0.08932 0.40814 0.0
H1343 H 0.75767 0.11282 0.38787 0.0
H1344 H 0.81344 0.11347 0.3836 0.0
H1345 H 0.81346 0.08994 0.40383 0.0
H1346 H 0.83395 0.11395 0.4108 0.0
H1347 H 0.79259 0.14002 0.49493 0.0
H1348 H 0.79192 0.10373 0.51549 0.0
H1349 H 0.78666 0.07477 0.44505 0.0
C1350 C 0.78763 0.15491 0.39896 0.0
C1351 C 0.78824 0.17708 0.40368 0.0
C1352 C 0.78998 0.18341 0.42825 0.0
C1353 C 0.7909 0.16805 0.44769 0.0
C1354 C 0.79 0.14638 0.44235 0.0
C1355 C 0.78842 0.13981 0.41858 0.0
C1356 C 0.78727 0.11553 0.41777 0.0
C1357 C 0.75895 0.10717 0.40732 0.0
C1358 C 0.8136 0.10777 0.40313 0.0
C1359 C 0.78835 0.10944 0.44481 0.0
C1360 C 0.78999 0.12745 0.45872 0.0
C1361 C 0.79126 0.12582 0.48421 0.0
C1362 C 0.79083 0.10525 0.49573 0.0
C1363 C 0.78899 0.08672 0.48177 0.0
C1364 C 0.78784 0.08883 0.45603 0.0
H1365 H 0.34347 0.23588 0.87044 0.0
H1366 H 0.36764 0.29639 0.83131 0.0
H1367 H 0.40589 0.30318 0.86027 0.0
H1368 H 0.35464 0.25484 0.93116 0.0
H1369 H 0.36852 0.23 0.94245 0.0
H1370 H 0.34318 0.22979 0.91851 0.0
H1371 H 0.3791 0.20985 0.89091 0.0
H1372 H 0.40462 0.2101 0.91472 0.0
H1373 H 0.41506 0.22135 0.88453 0.0
H1374 H 0.4425 0.30285 0.89234 0.0
H1375 H 0.4731 0.29678 0.92725 0.0
H1376 H 0.42373 0.23735 0.94729 0.0
C1377 C 0.35687 0.25053 0.86799 0.0
C1378 C 0.35258 0.26564 0.84865 0.0
C1379 C 0.37035 0.28472 0.84615 0.0
C1380 C 0.39224 0.28865 0.8624 0.0
C1381 C 0.39599 0.27342 0.88119 0.0
C1382 C 0.37866 0.25483 0.88425 0.0
C1383 C 0.3869 0.24135 0.90635 0.0
C1384 C 0.36182 0.23886 0.92577 0.0
C1385 C 0.39703 0.21936 0.89866 0.0
C1386 C 0.41166 0.25523 0.91514 0.0
C1387 C 0.41662 0.27356 0.90024 0.0
C1388 C 0.4386 0.28868 0.90433 0.0
C1389 C 0.45576 0.28514 0.92438 0.0
C1390 C 0.45074 0.26672 0.94039 0.0
C1391 C 0.42841 0.25153 0.93544 0.0
H1392 H 0.2114 0.85337 0.39626 0.0
H1393 H 0.29947 0.86317 0.3661 0.0
H1394 H 0.30401 0.89715 0.38697 0.0
H1395 H 0.19199 0.90801 0.39483 0.0
H1396 H 0.17223 0.90599 0.42407 0.0
H1397 H 0.17496 0.88269 0.40581 0.0
H1398 H 0.19622 0.86168 0.44209 0.0
H1399 H 0.19333 0.88485 0.46054 0.0
H1400 H 0.22757 0.87277 0.45612 0.0
H1401 H 0.29885 0.93073 0.40978 0.0
H1402 H 0.28604 0.95977 0.43722 0.0
H1403 H 0.20362 0.92665 0.45634 0.0
C1404 C 0.23181 0.86243 0.39418 0.0
C1405 C 0.25481 0.85556 0.37889 0.0
C1406 C 0.28103 0.86823 0.37682 0.0
C1407 C 0.28399 0.88756 0.38884 0.0
C1408 C 0.26082 0.89391 0.40338 0.0
C1409 C 0.23543 0.88157 0.40652 0.0
C1410 C 0.21436 0.89166 0.42417 0.0
C1411 C 0.18676 0.89743 0.41145 0.0
C1412 C 0.20747 0.87686 0.44709 0.0
C1413 C 0.23187 0.91166 0.43028 0.0
C1414 C 0.25846 0.91275 0.41779 0.0
C1415 C 0.27818 0.92999 0.41981 0.0
C1416 C 0.27069 0.94643 0.43529 0.0
C1417 C 0.24392 0.94535 0.44878 0.0
C1418 C 0.22427 0.92775 0.44624 0.0
H1419 H 0.66671 0.78417 0.8566 0.0
H1420 H 0.73855 0.75795 0.89379 0.0
H1421 H 0.70962 0.7562 0.93296 0.0
H1422 H 0.64134 0.81689 0.90631 0.0
H1423 H 0.60386 0.81159 0.90071 0.0
H1424 H 0.63061 0.81157 0.87577 0.0
H1425 H 0.61288 0.77306 0.86581 0.0
H1426 H 0.58613 0.77295 0.89073 0.0
H1427 H 0.6116 0.75203 0.88953 0.0
H1428 H 0.67231 0.7562 0.96793 0.0
H1429 H 0.62907 0.75824 0.99605 0.0
H1430 H 0.58175 0.78427 0.93616 0.0
C1431 C 0.67648 0.77836 0.87305 0.0
C1432 C 0.70489 0.77117 0.87213 0.0
C1433 C 0.71673 0.76332 0.89401 0.0
C1434 C 0.70052 0.76238 0.91637 0.0
C1435 C 0.67248 0.76934 0.91659 0.0
C1436 C 0.66055 0.77721 0.89552 0.0
C1437 C 0.62963 0.78306 0.90063 0.0
C1438 C 0.62617 0.80721 0.89556 0.0
C1439 C 0.60884 0.76946 0.88579 0.0
C1440 C 0.62602 0.77715 0.9278 0.0
C1441 C 0.65101 0.76933 0.9367 0.0
C1442 C 0.65269 0.76246 0.96121 0.0
C1443 C 0.62818 0.76366 0.97702 0.0
C1444 C 0.60254 0.7717 0.96821 0.0
C1445 C 0.6014 0.7784 0.9433 0.0
loop_
_geom_bond_atom_site_label_1
_geom_bond_atom_site_label_2
_geom_bond_distance
_geom_bond_site_symmetry_2
_ccdc_geom_bond_type
C0 C1 1.391 . S
C0 C4 1.391 . S
C0 H42 0.948 . S
C1 C0 1.391 . S
C1 C2 1.391 . S
C2 C1 1.391 . S
C2 H58 0.947 . S
C2 C59 1.392 . S
C3 C4 1.391 . S
C3 C7 1.397 . S
C3 C59 1.419 . S
C4 C0 1.391 . S
C4 C3 1.391 . S
C4 C5 1.399 . S
C5 C4 1.399 . S
C5 C8 1.396 . S
C5 C17 1.453 . S
C5 C18 1.684 . S
H6 C30 0.948 . S
C7 C3 1.397 . S
C7 C8 1.394 . S
C7 C26 1.723 . S
C8 C5 1.396 . S
C8 C7 1.394 . S
C8 C38 1.723 . S
H9 C32 0.947 . S
H10 C33 0.948 . S
H11 C39 0.982 . S
H12 C40 0.979 . S
H13 C40 0.980 . S
H14 C40 0.983 . S
H15 C39 0.979 . S
H16 C39 0.977 . S
C17 C5 1.453 . S
C17 H46 0.982 . S
C17 H47 0.979 . S
C17 H48 0.977 . S
C18 C5 1.684 . S
C18 H43 0.979 . S
C18 H44 0.980 . S
C18 H45 0.983 . S
C19 C20 1.391 . S
C19 C24 1.391 . S
C19 H49 0.948 . S
C20 C19 1.391 . S
C20 C21 1.391 . S
C21 C20 1.391 . S
C21 C22 1.392 . S
C21 H50 0.947 . S
C22 C21 1.392 . S
C22 C23 1.419 . S
C22 H51 0.948 . S
C23 C22 1.419 . S
C23 C24 1.391 . S
C23 C27 1.397 . S
C24 C19 1.391 . S
C24 C23 1.391 . S
C24 C25 1.399 . S
C25 C24 1.399 . S
C25 C26 1.396 . S
C25 C28 1.453 . S
C25 C29 1.684 . S
C26 C7 1.723 . S
C26 C25 1.396 . S
C26 C27 1.394 . S
C27 C23 1.397 . S
C27 C26 1.394 . S
C27 C37 1.723 . S
C28 C25 1.453 . S
C28 H52 0.982 . S
C28 H53 0.979 . S
C28 H54 0.977 . S
C29 C25 1.684 . S
C29 H55 0.979 . S
C29 H56 0.980 . S
C29 H57 0.983 . S
C30 H6 0.948 . S
C30 C31 1.391 . S
C30 C35 1.391 . S
C31 C30 1.391 . S
C31 C32 1.391 . S
C32 H9 0.947 . S
C32 C31 1.391 . S
C32 C33 1.392 . S
C33 H10 0.948 . S
C33 C32 1.392 . S
C33 C34 1.419 . S
C34 C33 1.419 . S
C34 C35 1.391 . S
C34 C38 1.397 . S
C35 C30 1.391 . S
C35 C34 1.391 . S
C35 C36 1.399 . S
C36 C35 1.399 . S
C36 C37 1.396 . S
C36 C39 1.453 . S
C36 C40 1.684 . S
C37 C27 1.723 . S
C37 C36 1.396 . S
C37 C38 1.394 . S
C38 C8 1.723 . S
C38 C34 1.397 . S
C38 C37 1.394 . S
C39 H11 0.982 . S
C39 H15 0.979 . S
C39 H16 0.977 . S
C39 C36 1.453 . S
C40 H12 0.979 . S
C40 H13 0.980 . S
C40 H14 0.983 . S
C40 C36 1.684 . S
H41 C59 0.948 . S
H42 C0 0.948 . S
H43 C18 0.979 . S
H44 C18 0.980 . S
H45 C18 0.983 . S
H46 C17 0.982 . S
H47 C17 0.979 . S
H48 C17 0.977 . S
H49 C19 0.948 . S
H50 C21 0.947 . S
H51 C22 0.948 . S
H52 C28 0.982 . S
H53 C28 0.979 . S
H54 C28 0.977 . S
H55 C29 0.979 . S
H56 C29 0.980 . S
H57 C29 0.983 . S
H58 C2 0.947 . S
C59 C2 1.392 . S
C59 C3 1.419 . S
C59 H41 0.948 . S
C60 C61 1.391 . S
C60 C64 1.391 . S
C60 H102 0.948 . S
C61 C60 1.391 . S
C61 C62 1.391 . S
C62 C61 1.391 . S
C62 H118 0.947 . S
C62 C119 1.392 . S
C63 C64 1.391 . S
C63 C67 1.397 . S
C63 C119 1.419 . S
C64 C60 1.391 . S
C64 C63 1.391 . S
C64 C65 1.399 . S
C65 C64 1.399 . S
C65 C68 1.396 . S
C65 C77 1.453 . S
C65 C78 1.684 . S
H66 C90 0.948 . S
C67 C63 1.397 . S
C67 C68 1.394 . S
C67 C86 1.723 . S
C68 C65 1.396 . S
C68 C67 1.394 . S
C68 C98 1.723 . S
H69 C92 0.947 . S
H70 C93 0.948 . S
H71 C99 0.982 . S
H72 C100 0.979 . S
H73 C100 0.980 . S
H74 C100 0.983 . S
H75 C99 0.979 . S
H76 C99 0.977 . S
C77 C65 1.453 . S
C77 H106 0.982 . S
C77 H107 0.979 . S
C77 H108 0.977 . S
C78 C65 1.684 . S
C78 H103 0.979 . S
C78 H104 0.980 . S
C78 H105 0.983 . S
C79 C80 1.391 . S
C79 C84 1.391 . S
C79 H109 0.948 . S
C80 C79 1.391 . S
C80 C81 1.391 . S
C81 C80 1.391 . S
C81 C82 1.392 . S
C81 H110 0.947 . S
C82 C81 1.392 . S
C82 C83 1.419 . S
C82 H111 0.948 . S
C83 C82 1.419 . S
C83 C84 1.391 . S
C83 C87 1.397 . S
C84 C79 1.391 . S
C84 C83 1.391 . S
C84 C85 1.399 . S
C85 C84 1.399 . S
C85 C86 1.396 . S
C85 C88 1.453 . S
C85 C89 1.684 . S
C86 C67 1.723 . S
C86 C85 1.396 . S
C86 C87 1.394 . S
C87 C83 1.397 . S
C87 C86 1.394 . S
C87 C97 1.723 . S
C88 C85 1.453 . S
C88 H112 0.982 . S
C88 H113 0.979 . S
C88 H114 0.977 . S
C89 C85 1.684 . S
C89 H115 0.979 . S
C89 H116 0.980 . S
C89 H117 0.983 . S
C90 H66 0.948 . S
C90 C91 1.391 . S
C90 C95 1.391 . S
C91 C90 1.391 . S
C91 C92 1.391 . S
C92 H69 0.947 . S
C92 C91 1.391 . S
C92 C93 1.392 . S
C93 H70 0.948 . S
C93 C92 1.392 . S
C93 C94 1.419 . S
C94 C93 1.419 . S
C94 C95 1.391 . S
C94 C98 1.397 . S
C95 C90 1.391 . S
C95 C94 1.391 . S
C95 C96 1.399 . S
C96 C95 1.399 . S
C96 C97 1.396 . S
C96 C99 1.453 . S
C96 C100 1.684 . S
C97 C87 1.723 . S
C97 C96 1.396 . S
C97 C98 1.394 . S
C98 C68 1.723 . S
C98 C94 1.397 . S
C98 C97 1.394 . S
C99 H71 0.982 . S
C99 H75 0.979 . S
C99 H76 0.977 . S
C99 C96 1.453 . S
C100 H72 0.979 . S
C100 H73 0.980 . S
C100 H74 0.983 . S
C100 C96 1.684 . S
H101 C119 0.948 . S
H102 C60 0.948 . S
H103 C78 0.979 . S
H104 C78 0.980 . S
H105 C78 0.983 . S
H106 C77 0.982 . S
H107 C77 0.979 . S
H108 C77 0.977 . S
H109 C79 0.948 . S
H110 C81 0.947 . S
H111 C82 0.948 . S
H112 C88 0.982 . S
H113 C88 0.979 . S
H114 C88 0.977 . S
H115 C89 0.979 . S
H116 C89 0.980 . S
H117 C89 0.983 . S
H118 C62 0.947 . S
C119 C62 1.392 . S
C119 C63 1.419 . S
C119 H101 0.948 . S
C120 C121 1.391 . S
C120 C124 1.391 . S
C120 H162 0.948 . S
C121 C120 1.391 . S
C121 C122 1.391 . S
C122 C121 1.391 . S
C122 H178 0.947 . S
C122 C179 1.392 . S
C123 C124 1.391 . S
C123 C127 1.397 . S
C123 C179 1.419 . S
C124 C120 1.391 . S
C124 C123 1.391 . S
C124 C125 1.399 . S
C125 C124 1.399 . S
C125 C128 1.396 . S
C125 C137 1.453 . S
C125 C138 1.684 . S
H126 C150 0.948 . S
C127 C123 1.397 . S
C127 C128 1.394 . S
C127 C146 1.723 . S
C128 C125 1.396 . S
C128 C127 1.394 . S
C128 C158 1.723 . S
H129 C152 0.947 . S
H130 C153 0.948 . S
H131 C159 0.982 . S
H132 C160 0.979 . S
H133 C160 0.980 . S
H134 C160 0.983 . S
H135 C159 0.979 . S
H136 C159 0.977 . S
C137 C125 1.453 . S
C137 H166 0.982 . S
C137 H167 0.979 . S
C137 H168 0.977 . S
C138 C125 1.684 . S
C138 H163 0.979 . S
C138 H164 0.980 . S
C138 H165 0.983 . S
C139 C140 1.391 . S
C139 C144 1.391 . S
C139 H169 0.948 . S
C140 C139 1.391 . S
C140 C141 1.391 . S
C141 C140 1.391 . S
C141 C142 1.392 . S
C141 H170 0.947 . S
C142 C141 1.392 . S
C142 C143 1.419 . S
C142 H171 0.948 . S
C143 C142 1.419 . S
C143 C144 1.391 . S
C143 C147 1.397 . S
C144 C139 1.391 . S
C144 C143 1.391 . S
C144 C145 1.399 . S
C145 C144 1.399 . S
C145 C146 1.396 . S
C145 C148 1.453 . S
C145 C149 1.684 . S
C146 C127 1.723 . S
C146 C145 1.396 . S
C146 C147 1.394 . S
C147 C143 1.397 . S
C147 C146 1.394 . S
C147 C157 1.723 . S
C148 C145 1.453 . S
C148 H172 0.982 . S
C148 H173 0.979 . S
C148 H174 0.977 . S
C149 C145 1.684 . S
C149 H175 0.979 . S
C149 H176 0.980 . S
C149 H177 0.983 . S
C150 H126 0.948 . S
C150 C151 1.391 . S
C150 C155 1.391 . S
C151 C150 1.391 . S
C151 C152 1.391 . S
C152 H129 0.947 . S
C152 C151 1.391 . S
C152 C153 1.392 . S
C153 H130 0.948 . S
C153 C152 1.392 . S
C153 C154 1.419 . S
C154 C153 1.419 . S
C154 C155 1.391 . S
C154 C158 1.397 . S
C155 C150 1.391 . S
C155 C154 1.391 . S
C155 C156 1.399 . S
C156 C155 1.399 . S
C156 C157 1.396 . S
C156 C159 1.453 . S
C156 C160 1.684 . S
C157 C147 1.723 . S
C157 C156 1.396 . S
C157 C158 1.394 . S
C158 C128 1.723 . S
C158 C154 1.397 . S
C158 C157 1.394 . S
C159 H131 0.982 . S
C159 H135 0.979 . S
C159 H136 0.977 . S
C159 C156 1.453 . S
C160 H132 0.979 . S
C160 H133 0.980 . S
C160 H134 0.983 . S
C160 C156 1.684 . S
H161 C179 0.948 . S
H162 C120 0.948 . S
H163 C138 0.979 . S
H164 C138 0.980 . S
H165 C138 0.983 . S
H166 C137 0.982 . S
H167 C137 0.979 . S
H168 C137 0.977 . S
H169 C139 0.948 . S
H170 C141 0.947 . S
H171 C142 0.948 . S
H172 C148 0.982 . S
H173 C148 0.979 . S
H174 C148 0.977 . S
H175 C149 0.979 . S
H176 C149 0.980 . S
H177 C149 0.983 . S
H178 C122 0.947 . S
C179 C122 1.392 . S
C179 C123 1.419 . S
C179 H161 0.948 . S
C180 C181 1.391 . S
C180 C184 1.391 . S
C180 H222 0.948 . S
C181 C180 1.391 . S
C181 C182 1.391 . S
C182 C181 1.391 . S
C182 H238 0.947 . S
C182 C239 1.392 . S
C183 C184 1.391 . S
C183 C187 1.397 . S
C183 C239 1.419 . S
C184 C180 1.391 . S
C184 C183 1.391 . S
C184 C185 1.399 . S
C185 C184 1.399 . S
C185 C188 1.396 . S
C185 C197 1.453 . S
C185 C198 1.684 . S
H186 C210 0.948 . S
C187 C183 1.397 . S
C187 C188 1.394 . S
C187 C206 1.723 . S
C188 C185 1.396 . S
C188 C187 1.394 . S
C188 C218 1.723 . S
H189 C212 0.947 . S
H190 C213 0.948 . S
H191 C219 0.982 . S
H192 C220 0.979 . S
H193 C220 0.980 . S
H194 C220 0.983 . S
H195 C219 0.979 . S
H196 C219 0.977 . S
C197 C185 1.453 . S
C197 H226 0.982 . S
C197 H227 0.979 . S
C197 H228 0.977 . S
C198 C185 1.684 . S
C198 H223 0.979 . S
C198 H224 0.980 . S
C198 H225 0.983 . S
C199 C200 1.391 . S
C199 C204 1.391 . S
C199 H229 0.948 . S
C200 C199 1.391 . S
C200 C201 1.391 . S
C201 C200 1.391 . S
C201 C202 1.392 . S
C201 H230 0.947 . S
C202 C201 1.392 . S
C202 C203 1.419 . S
C202 H231 0.948 . S
C203 C202 1.419 . S
C203 C204 1.391 . S
C203 C207 1.397 . S
C204 C199 1.391 . S
C204 C203 1.391 . S
C204 C205 1.399 . S
C205 C204 1.399 . S
C205 C206 1.396 . S
C205 C208 1.453 . S
C205 C209 1.684 . S
C206 C187 1.723 . S
C206 C205 1.396 . S
C206 C207 1.394 . S
C207 C203 1.397 . S
C207 C206 1.394 . S
C207 C217 1.723 . S
C208 C205 1.453 . S
C208 H232 0.982 . S
C208 H233 0.979 . S
C208 H234 0.977 . S
C209 C205 1.684 . S
C209 H235 0.979 . S
C209 H236 0.980 . S
C209 H237 0.983 . S
C210 H186 0.948 . S
C210 C211 1.391 . S
C210 C215 1.391 . S
C211 C210 1.391 . S
C211 C212 1.391 . S
C212 H189 0.947 . S
C212 C211 1.391 . S
C212 C213 1.392 . S
C213 H190 0.948 . S
C213 C212 1.392 . S
C213 C214 1.419 . S
C214 C213 1.419 . S
C214 C215 1.391 . S
C214 C218 1.397 . S
C215 C210 1.391 . S
C215 C214 1.391 . S
C215 C216 1.399 . S
C216 C215 1.399 . S
C216 C217 1.396 . S
C216 C219 1.453 . S
C216 C220 1.684 . S
C217 C207 1.723 . S
C217 C216 1.396 . S
C217 C218 1.394 . S
C218 C188 1.723 . S
C218 C214 1.397 . S
C218 C217 1.394 . S
C219 H191 0.982 . S
C219 H195 0.979 . S
C219 H196 0.977 . S
C219 C216 1.453 . S
C220 H192 0.979 . S
C220 H193 0.980 . S
C220 H194 0.983 . S
C220 C216 1.684 . S
H221 C239 0.948 . S
H222 C180 0.948 . S
H223 C198 0.979 . S
H224 C198 0.980 . S
H225 C198 0.983 . S
H226 C197 0.982 . S
H227 C197 0.979 . S
H228 C197 0.977 . S
H229 C199 0.948 . S
H230 C201 0.947 . S
H231 C202 0.948 . S
H232 C208 0.982 . S
H233 C208 0.979 . S
H234 C208 0.977 . S
H235 C209 0.979 . S
H236 C209 0.980 . S
H237 C209 0.983 . S
H238 C182 0.947 . S
C239 C182 1.392 . S
C239 C183 1.419 . S
C239 H221 0.948 . S
C240 C241 1.391 . S
C240 C244 1.391 . S
C240 H282 0.948 . S
C241 C240 1.391 . S
C241 C242 1.391 . S
C242 C241 1.391 . S
C242 H298 0.947 . S
C242 C299 1.392 . S
C243 C244 1.391 . S
C243 C247 1.397 . S
C243 C299 1.419 . S
C244 C240 1.391 . S
C244 C243 1.391 . S
C244 C245 1.399 . S
C245 C244 1.399 . S
C245 C248 1.396 . S
C245 C257 1.453 . S
C245 C258 1.684 . S
H246 C270 0.948 . S
C247 C243 1.397 . S
C247 C248 1.394 . S
C247 C266 1.723 . S
C248 C245 1.396 . S
C248 C247 1.394 . S
C248 C278 1.723 . S
H249 C272 0.947 . S
H250 C273 0.948 . S
H251 C279 0.982 . S
H252 C280 0.979 . S
H253 C280 0.980 . S
H254 C280 0.983 . S
H255 C279 0.979 . S
H256 C279 0.977 . S
C257 C245 1.453 . S
C257 H286 0.982 . S
C257 H287 0.979 . S
C257 H288 0.977 . S
C258 C245 1.684 . S
C258 H283 0.979 . S
C258 H284 0.980 . S
C258 H285 0.983 . S
C259 C260 1.391 . S
C259 C264 1.391 . S
C259 H289 0.948 . S
C260 C259 1.391 . S
C260 C261 1.391 . S
C261 C260 1.391 . S
C261 C262 1.392 . S
C261 H290 0.947 . S
C262 C261 1.392 . S
C262 C263 1.419 . S
C262 H291 0.948 . S
C263 C262 1.419 . S
C263 C264 1.391 . S
C263 C267 1.397 . S
C264 C259 1.391 . S
C264 C263 1.391 . S
C264 C265 1.399 . S
C265 C264 1.399 . S
C265 C266 1.396 . S
C265 C268 1.453 . S
C265 C269 1.684 . S
C266 C247 1.723 . S
C266 C265 1.396 . S
C266 C267 1.394 . S
C267 C263 1.397 . S
C267 C266 1.394 . S
C267 C277 1.723 . S
C268 C265 1.453 . S
C268 H292 0.982 . S
C268 H293 0.979 . S
C268 H294 0.977 . S
C269 C265 1.684 . S
C269 H295 0.979 . S
C269 H296 0.980 . S
C269 H297 0.983 . S
C270 H246 0.948 . S
C270 C271 1.391 . S
C270 C275 1.391 . S
C271 C270 1.391 . S
C271 C272 1.391 . S
C272 H249 0.947 . S
C272 C271 1.391 . S
C272 C273 1.392 . S
C273 H250 0.948 . S
C273 C272 1.392 . S
C273 C274 1.419 . S
C274 C273 1.419 . S
C274 C275 1.391 . S
C274 C278 1.397 . S
C275 C270 1.391 . S
C275 C274 1.391 . S
C275 C276 1.399 . S
C276 C275 1.399 . S
C276 C277 1.396 . S
C276 C279 1.453 . S
C276 C280 1.684 . S
C277 C267 1.723 . S
C277 C276 1.396 . S
C277 C278 1.394 . S
C278 C248 1.723 . S
C278 C274 1.397 . S
C278 C277 1.394 . S
C279 H251 0.982 . S
C279 H255 0.979 . S
C279 H256 0.977 . S
C279 C276 1.453 . S
C280 H252 0.979 . S
C280 H253 0.980 . S
C280 H254 0.983 . S
C280 C276 1.684 . S
H281 C299 0.948 . S
H282 C240 0.948 . S
H283 C258 0.979 . S
H284 C258 0.980 . S
H285 C258 0.983 . S
H286 C257 0.982 . S
H287 C257 0.979 . S
H288 C257 0.977 . S
H289 C259 0.948 . S
H290 C261 0.947 . S
H291 C262 0.948 . S
H292 C268 0.982 . S
H293 C268 0.979 . S
H294 C268 0.977 . S
H295 C269 0.979 . S
H296 C269 0.980 . S
H297 C269 0.983 . S
H298 C242 0.947 . S
C299 C242 1.392 . S
C299 C243 1.419 . S
C299 H281 0.948 . S
C300 C301 1.391 . S
C300 C304 1.391 . S
C300 H342 0.948 . S
C301 C300 1.391 . S
C301 C302 1.391 . S
C302 C301 1.391 . S
C302 H358 0.947 . S
C302 C359 1.392 . S
C303 C304 1.391 . S
C303 C307 1.397 . S
C303 C359 1.419 . S
C304 C300 1.391 . S
C304 C303 1.391 . S
C304 C305 1.399 . S
C305 C304 1.399 . S
C305 C308 1.396 . S
C305 C317 1.453 . S
C305 C318 1.684 . S
H306 C330 0.948 . S
C307 C303 1.397 . S
C307 C308 1.394 . S
C307 C326 1.723 . S
C308 C305 1.396 . S
C308 C307 1.394 . S
C308 C338 1.723 . S
H309 C332 0.947 . S
H310 C333 0.948 . S
H311 C339 0.982 . S
H312 C340 0.979 . S
H313 C340 0.980 . S
H314 C340 0.983 . S
H315 C339 0.979 . S
H316 C339 0.977 . S
C317 C305 1.453 . S
C317 H346 0.982 . S
C317 H347 0.979 . S
C317 H348 0.977 . S
C318 C305 1.684 . S
C318 H343 0.979 . S
C318 H344 0.980 . S
C318 H345 0.983 . S
C319 C320 1.391 . S
C319 C324 1.391 . S
C319 H349 0.948 . S
C320 C319 1.391 . S
C320 C321 1.391 . S
C321 C320 1.391 . S
C321 C322 1.392 . S
C321 H350 0.947 . S
C322 C321 1.392 . S
C322 C323 1.419 . S
C322 H351 0.948 . S
C323 C322 1.419 . S
C323 C324 1.391 . S
C323 C327 1.397 . S
C324 C319 1.391 . S
C324 C323 1.391 . S
C324 C325 1.399 . S
C325 C324 1.399 . S
C325 C326 1.396 . S
C325 C328 1.453 . S
C325 C329 1.684 . S
C326 C307 1.723 . S
C326 C325 1.396 . S
C326 C327 1.394 . S
C327 C323 1.397 . S
C327 C326 1.394 . S
C327 C337 1.723 . S
C328 C325 1.453 . S
C328 H352 0.982 . S
C328 H353 0.979 . S
C328 H354 0.977 . S
C329 C325 1.684 . S
C329 H355 0.979 . S
C329 H356 0.980 . S
C329 H357 0.983 . S
C330 H306 0.948 . S
C330 C331 1.391 . S
C330 C335 1.391 . S
C331 C330 1.391 . S
C331 C332 1.391 . S
C332 H309 0.947 . S
C332 C331 1.391 . S
C332 C333 1.392 . S
C333 H310 0.948 . S
C333 C332 1.392 . S
C333 C334 1.419 . S
C334 C333 1.419 . S
C334 C335 1.391 . S
C334 C338 1.397 . S
C335 C330 1.391 . S
C335 C334 1.391 . S
C335 C336 1.399 . S
C336 C335 1.399 . S
C336 C337 1.396 . S
C336 C339 1.453 . S
C336 C340 1.684 . S
C337 C327 1.723 . S
C337 C336 1.396 . S
C337 C338 1.394 . S
C338 C308 1.723 . S
C338 C334 1.397 . S
C338 C337 1.394 . S
C339 H311 0.982 . S
C339 H315 0.979 . S
C339 H316 0.977 . S
C339 C336 1.453 . S
C340 H312 0.979 . S
C340 H313 0.980 . S
C340 H314 0.983 . S
C340 C336 1.684 . S
H341 C359 0.948 . S
H342 C300 0.948 . S
H343 C318 0.979 . S
H344 C318 0.980 . S
H345 C318 0.983 . S
H346 C317 0.982 . S
H347 C317 0.979 . S
H348 C317 0.977 . S
H349 C319 0.948 . S
H350 C321 0.947 . S
H351 C322 0.948 . S
H352 C328 0.982 . S
H353 C328 0.979 . S
H354 C328 0.977 . S
H355 C329 0.979 . S
H356 C329 0.980 . S
H357 C329 0.983 . S
H358 C302 0.947 . S
C359 C302 1.392 . S
C359 C303 1.419 . S
C359 H341 0.948 . S
C360 C361 1.391 . S
C360 C364 1.391 . S
C360 H402 0.948 . S
C361 C360 1.391 . S
C361 C362 1.391 . S
C362 C361 1.391 . S
C362 H418 0.947 . S
C362 C419 1.392 . S
C363 C364 1.391 . S
C363 C367 1.397 . S
C363 C419 1.419 . S
C364 C360 1.391 . S
C364 C363 1.391 . S
C364 C365 1.399 . S
C365 C364 1.399 . S
C365 C368 1.396 . S
C365 C377 1.453 . S
C365 C378 1.684 . S
H366 C390 0.948 . S
C367 C363 1.397 . S
C367 C368 1.394 . S
C367 C386 1.723 . S
C368 C365 1.396 . S
C368 C367 1.394 . S
C368 C398 1.723 . S
H369 C392 0.947 . S
H370 C393 0.948 . S
H371 C399 0.982 . S
H372 C400 0.979 . S
H373 C400 0.980 . S
H374 C400 0.983 . S
H375 C399 0.979 . S
H376 C399 0.977 . S
C377 C365 1.453 . S
C377 H406 0.982 . S
C377 H407 0.979 . S
C377 H408 0.977 . S
C378 C365 1.684 . S
C378 H403 0.979 . S
C378 H404 0.980 . S
C378 H405 0.983 . S
C379 C380 1.391 . S
C379 C384 1.391 . S
C379 H409 0.948 . S
C380 C379 1.391 . S
C380 C381 1.391 . S
C381 C380 1.391 . S
C381 C382 1.392 . S
C381 H410 0.947 . S
C382 C381 1.392 . S
C382 C383 1.419 . S
C382 H411 0.948 . S
C383 C382 1.419 . S
C383 C384 1.391 . S
C383 C387 1.397 . S
C384 C379 1.391 . S
C384 C383 1.391 . S
C384 C385 1.399 . S
C385 C384 1.399 . S
C385 C386 1.396 . S
C385 C388 1.453 . S
C385 C389 1.684 . S
C386 C367 1.723 . S
C386 C385 1.396 . S
C386 C387 1.394 . S
C387 C383 1.397 . S
C387 C386 1.394 . S
C387 C397 1.723 . S
C388 C385 1.453 . S
C388 H412 0.982 . S
C388 H413 0.979 . S
C388 H414 0.977 . S
C389 C385 1.684 . S
C389 H415 0.979 . S
C389 H416 0.980 . S
C389 H417 0.983 . S
C390 H366 0.948 . S
C390 C391 1.391 . S
C390 C395 1.391 . S
C391 C390 1.391 . S
C391 C392 1.391 . S
C392 H369 0.947 . S
C392 C391 1.391 . S
C392 C393 1.392 . S
C393 H370 0.948 . S
C393 C392 1.392 . S
C393 C394 1.419 . S
C394 C393 1.419 . S
C394 C395 1.391 . S
C394 C398 1.397 . S
C395 C390 1.391 . S
C395 C394 1.391 . S
C395 C396 1.399 . S
C396 C395 1.399 . S
C396 C397 1.396 . S
C396 C399 1.453 . S
C396 C400 1.684 . S
C397 C387 1.723 . S
C397 C396 1.396 . S
C397 C398 1.394 . S
C398 C368 1.723 . S
C398 C394 1.397 . S
C398 C397 1.394 . S
C399 H371 0.982 . S
C399 H375 0.979 . S
C399 H376 0.977 . S
C399 C396 1.453 . S
C400 H372 0.979 . S
C400 H373 0.980 . S
C400 H374 0.983 . S
C400 C396 1.684 . S
H401 C419 0.948 . S
H402 C360 0.948 . S
H403 C378 0.979 . S
H404 C378 0.980 . S
H405 C378 0.983 . S
H406 C377 0.982 . S
H407 C377 0.979 . S
H408 C377 0.977 . S
H409 C379 0.948 . S
H410 C381 0.947 . S
H411 C382 0.948 . S
H412 C388 0.982 . S
H413 C388 0.979 . S
H414 C388 0.977 . S
H415 C389 0.979 . S
H416 C389 0.980 . S
H417 C389 0.983 . S
H418 C362 0.947 . S
C419 C362 1.392 . S
C419 C363 1.419 . S
C419 H401 0.948 . S
C420 C421 1.391 . S
C420 C424 1.391 . S
C420 H462 0.948 . S
C421 C420 1.391 . S
C421 C422 1.391 . S
C422 C421 1.391 . S
C422 H478 0.947 . S
C422 C479 1.392 . S
C423 C424 1.391 . S
C423 C427 1.397 . S
C423 C479 1.419 . S
C424 C420 1.391 . S
C424 C423 1.391 . S
C424 C425 1.399 . S
C425 C424 1.399 . S
C425 C428 1.396 . S
C425 C437 1.453 . S
C425 C438 1.684 . S
H426 C450 0.948 . S
C427 C423 1.397 . S
C427 C428 1.394 . S
C427 C446 1.723 . S
C428 C425 1.396 . S
C428 C427 1.394 . S
C428 C458 1.723 . S
H429 C452 0.947 . S
H430 C453 0.948 . S
H431 C459 0.982 . S
H432 C460 0.979 . S
H433 C460 0.980 . S
H434 C460 0.983 . S
H435 C459 0.979 . S
H436 C459 0.977 . S
C437 C425 1.453 . S
C437 H466 0.982 . S
C437 H467 0.979 . S
C437 H468 0.977 . S
C438 C425 1.684 . S
C438 H463 0.979 . S
C438 H464 0.980 . S
C438 H465 0.983 . S
C439 C440 1.391 . S
C439 C444 1.391 . S
C439 H469 0.948 . S
C440 C439 1.391 . S
C440 C441 1.391 . S
C441 C440 1.391 . S
C441 C442 1.392 . S
C441 H470 0.947 . S
C442 C441 1.392 . S
C442 C443 1.419 . S
C442 H471 0.948 . S
C443 C442 1.419 . S
C443 C444 1.391 . S
C443 C447 1.397 . S
C444 C439 1.391 . S
C444 C443 1.391 . S
C444 C445 1.399 . S
C445 C444 1.399 . S
C445 C446 1.396 . S
C445 C448 1.453 . S
C445 C449 1.684 . S
C446 C427 1.723 . S
C446 C445 1.396 . S
C446 C447 1.394 . S
C447 C443 1.397 . S
C447 C446 1.394 . S
C447 C457 1.723 . S
C448 C445 1.453 . S
C448 H472 0.982 . S
C448 H473 0.979 . S
C448 H474 0.977 . S
C449 C445 1.684 . S
C449 H475 0.979 . S
C449 H476 0.980 . S
C449 H477 0.983 . S
C450 H426 0.948 . S
C450 C451 1.391 . S
C450 C455 1.391 . S
C451 C450 1.391 . S
C451 C452 1.391 . S
C452 H429 0.947 . S
C452 C451 1.391 . S
C452 C453 1.392 . S
C453 H430 0.948 . S
C453 C452 1.392 . S
C453 C454 1.419 . S
C454 C453 1.419 . S
C454 C455 1.391 . S
C454 C458 1.397 . S
C455 C450 1.391 . S
C455 C454 1.391 . S
C455 C456 1.399 . S
C456 C455 1.399 . S
C456 C457 1.396 . S
C456 C459 1.453 . S
C456 C460 1.684 . S
C457 C447 1.723 . S
C457 C456 1.396 . S
C457 C458 1.394 . S
C458 C428 1.723 . S
C458 C454 1.397 . S
C458 C457 1.394 . S
C459 H431 0.982 . S
C459 H435 0.979 . S
C459 H436 0.977 . S
C459 C456 1.453 . S
C460 H432 0.979 . S
C460 H433 0.980 . S
C460 H434 0.983 . S
C460 C456 1.684 . S
H461 C479 0.948 . S
H462 C420 0.948 . S
H463 C438 0.979 . S
H464 C438 0.980 . S
H465 C438 0.983 . S
H466 C437 0.982 . S
H467 C437 0.979 . S
H468 C437 0.977 . S
H469 C439 0.948 . S
H470 C441 0.947 . S
H471 C442 0.948 . S
H472 C448 0.982 . S
H473 C448 0.979 . S
H474 C448 0.977 . S
H475 C449 0.979 . S
H476 C449 0.980 . S
H477 C449 0.983 . S
H478 C422 0.947 . S
C479 C422 1.392 . S
C479 C423 1.419 . S
C479 H461 0.948 . S
C480 C481 1.443 . S
C480 N484 1.376 . S
C480 C518 1.389 . S
C481 C480 1.443 . S
C481 C482 1.340 . S
C481 H521 0.951 . S
C482 C481 1.340 . S
C482 C483 1.439 . S
C482 H522 0.950 . S
C483 C482 1.439 . S
C483 N484 1.374 . S
C483 C517 1.395 . S
N484 C480 1.376 . S
N484 C483 1.374 . S
N484 Co485 2.008 . S
Co485 N484 2.008 . S
Co485 N486 1.995 1_455 S
Co485 N491 2.008 . S
Co485 N496 1.995 . S
Co485 N501 2.282 . S
Co485 N507 2.282 1_455 S
N486 Co485 1.995 1_655 S
N486 C487 1.376 . S
N486 C490 1.383 . S
C487 N486 1.376 . S
C487 C488 1.446 . S
C487 C517 1.391 1_655 S
C488 C487 1.446 . S
C488 C489 1.339 . S
C488 H523 0.949 . S
C489 C488 1.339 . S
C489 C490 1.439 . S
C489 H524 0.950 . S
C490 N486 1.383 . S
C490 C489 1.439 . S
C490 C519 1.392 . S
N491 Co485 2.008 . S
N491 C492 1.376 1_455 S
N491 C495 1.374 . S
C492 N491 1.376 1_655 S
C492 C493 1.443 . S
C492 C519 1.389 . S
C493 C492 1.443 . S
C493 C494 1.340 . S
C493 H525 0.951 . S
C494 C493 1.340 . S
C494 C495 1.439 1_655 S
C494 H526 0.950 . S
C495 N491 1.374 . S
C495 C494 1.439 1_455 S
C495 C520 1.395 . S
N496 Co485 1.995 . S
N496 C497 1.376 . S
N496 C500 1.383 . S
C497 N496 1.376 . S
C497 C498 1.446 . S
C497 C520 1.391 . S
C498 C497 1.446 . S
C498 C499 1.339 . S
C498 H527 0.949 . S
C499 C498 1.339 . S
C499 C500 1.439 . S
C499 H528 0.950 . S
C500 N496 1.383 . S
C500 C499 1.439 . S
C500 C518 1.392 . S
N501 Co485 2.282 . S
N501 C504 1.332 . S
N501 C506 1.332 . S
C502 C503 1.386 . S
C502 C505 1.388 . S
C503 C502 1.386 . S
C503 C504 1.382 . S
C503 H529 0.950 . S
C504 N501 1.332 . S
C504 C503 1.382 . S
C504 H515 0.952 . S
C505 C502 1.388 . S
C505 C506 1.382 . S
C505 H530 0.950 . S
C506 N501 1.332 . S
C506 C505 1.382 . S
C506 H516 0.948 . S
N507 Co485 2.282 1_655 S
N507 C511 1.332 . S
N507 C512 1.332 . S
C508 C509 1.388 . S
C508 C512 1.382 . S
C508 H531 0.950 . S
C509 C508 1.388 . S
C509 C510 1.386 . S
C510 C509 1.386 . S
C510 C511 1.382 . S
C510 H532 0.950 . S
C511 N507 1.332 . S
C511 C510 1.382 . S
C511 H513 0.952 . S
C512 N507 1.332 . S
C512 C508 1.382 . S
C512 H514 0.948 . S
H513 C511 0.952 . S
H514 C512 0.948 . S
H515 C504 0.952 . S
H516 C506 0.948 . S
C517 C483 1.395 . S
C517 C487 1.391 1_455 S
C518 C480 1.389 . S
C518 C500 1.392 . S
C519 C490 1.392 . S
C519 C492 1.389 . S
C520 C495 1.395 . S
C520 C497 1.391 . S
H521 C481 0.951 . S
H522 C482 0.950 . S
H523 C488 0.949 . S
H524 C489 0.950 . S
H525 C493 0.951 . S
H526 C494 0.950 . S
H527 C498 0.949 . S
H528 C499 0.950 . S
H529 C503 0.950 . S
H530 C505 0.950 . S
H531 C508 0.950 . S
H532 C510 0.950 . S
C533 C534 1.443 . S
C533 N537 1.376 . S
C533 C571 1.389 . S
C534 C533 1.443 . S
C534 C535 1.340 . S
C534 H574 0.951 . S
C535 C534 1.340 . S
C535 C536 1.439 . S
C535 H575 0.950 . S
C536 C535 1.439 . S
C536 N537 1.374 . S
C536 C570 1.395 . S
N537 C533 1.376 . S
N537 C536 1.374 . S
N537 Co538 2.008 . S
Co538 N537 2.008 . S
Co538 N539 1.995 1_455 S
Co538 N544 2.008 1_455 S
Co538 N549 1.995 . S
Co538 N554 2.282 . S
Co538 N560 2.282 1_455 S
N539 Co538 1.995 1_655 S
N539 C540 1.376 . S
N539 C543 1.383 . S
C540 N539 1.376 . S
C540 C541 1.446 . S
C540 C570 1.391 1_655 S
C541 C540 1.446 . S
C541 C542 1.339 . S
C541 H576 0.949 . S
C542 C541 1.339 . S
C542 C543 1.439 . S
C542 H577 0.950 . S
C543 N539 1.383 . S
C543 C542 1.439 . S
C543 C572 1.392 . S
N544 Co538 2.008 1_655 S
N544 C545 1.376 . S
N544 C548 1.374 1_655 S
C545 N544 1.376 . S
C545 C546 1.443 . S
C545 C572 1.389 . S
C546 C545 1.443 . S
C546 C547 1.340 . S
C546 H578 0.951 . S
C547 C546 1.340 . S
C547 C548 1.439 1_655 S
C547 H579 0.950 . S
C548 N544 1.374 1_455 S
C548 C547 1.439 1_455 S
C548 C573 1.395 . S
N549 Co538 1.995 . S
N549 C550 1.376 . S
N549 C553 1.383 . S
C550 N549 1.376 . S
C550 C551 1.446 . S
C550 C573 1.391 . S
C551 C550 1.446 . S
C551 C552 1.339 . S
C551 H580 0.949 . S
C552 C551 1.339 . S
C552 C553 1.439 . S
C552 H581 0.950 . S
C553 N549 1.383 . S
C553 C552 1.439 . S
C553 C571 1.392 . S
N554 Co538 2.282 . S
N554 C557 1.332 . S
N554 C559 1.332 . S
C555 C556 1.386 . S
C555 C558 1.388 . S
C556 C555 1.386 . S
C556 C557 1.382 . S
C556 H582 0.950 . S
C557 N554 1.332 . S
C557 C556 1.382 . S
C557 H568 0.952 . S
C558 C555 1.388 . S
C558 C559 1.382 . S
C558 H583 0.950 . S
C559 N554 1.332 . S
C559 C558 1.382 . S
C559 H569 0.948 . S
N560 Co538 2.282 1_655 S
N560 C564 1.332 . S
N560 C565 1.332 . S
C561 C562 1.388 . S
C561 C565 1.382 . S
C561 H584 0.950 . S
C562 C561 1.388 . S
C562 C563 1.386 . S
C563 C562 1.386 . S
C563 C564 1.382 . S
C563 H585 0.950 . S
C564 N560 1.332 . S
C564 C563 1.382 . S
C564 H566 0.952 . S
C565 N560 1.332 . S
C565 C561 1.382 . S
C565 H567 0.948 . S
H566 C564 0.952 . S
H567 C565 0.948 . S
H568 C557 0.952 . S
H569 C559 0.948 . S
C570 C536 1.395 . S
C570 C540 1.391 1_455 S
C571 C533 1.389 . S
C571 C553 1.392 . S
C572 C543 1.392 . S
C572 C545 1.389 . S
C573 C548 1.395 . S
C573 C550 1.391 . S
H574 C534 0.951 . S
H575 C535 0.950 . S
H576 C541 0.949 . S
H577 C542 0.950 . S
H578 C546 0.951 . S
H579 C547 0.950 . S
H580 C551 0.949 . S
H581 C552 0.950 . S
H582 C556 0.950 . S
H583 C558 0.950 . S
H584 C561 0.950 . S
H585 C563 0.950 . S
C586 C587 1.443 . S
C586 N590 1.376 . S
C586 C624 1.389 . S
C587 C586 1.443 . S
C587 C588 1.340 . S
C587 H627 0.951 . S
C588 C587 1.340 . S
C588 C589 1.439 . S
C588 H628 0.950 . S
C589 C588 1.439 . S
C589 N590 1.374 . S
C589 C623 1.395 1_565 S
N590 C586 1.376 . S
N590 C589 1.374 . S
N590 Co591 2.008 1_565 S
Co591 N590 2.008 1_545 S
Co591 N592 1.995 . S
Co591 N597 2.008 . S
Co591 N602 1.995 1_545 S
Co591 N607 2.282 . S
Co591 N613 2.282 1_545 S
N592 Co591 1.995 . S
N592 C593 1.376 . S
N592 C596 1.383 . S
C593 N592 1.376 . S
C593 C594 1.446 . S
C593 C623 1.391 . S
C594 C593 1.446 . S
C594 C595 1.339 . S
C594 H629 0.949 . S
C595 C594 1.339 . S
C595 C596 1.439 . S
C595 H630 0.950 . S
C596 N592 1.383 . S
C596 C595 1.439 . S
C596 C625 1.392 . S
N597 Co591 2.008 . S
N597 C598 1.376 . S
N597 C601 1.374 . S
C598 N597 1.376 . S
C598 C599 1.443 . S
C598 C625 1.389 . S
C599 C598 1.443 . S
C599 C600 1.340 . S
C599 H631 0.951 . S
C600 C599 1.340 . S
C600 C601 1.439 . S
C600 H632 0.950 . S
C601 N597 1.374 . S
C601 C600 1.439 . S
C601 C626 1.395 . S
N602 Co591 1.995 1_565 S
N602 C603 1.376 . S
N602 C606 1.383 . S
C603 N602 1.376 . S
C603 C604 1.446 . S
C603 C626 1.391 1_565 S
C604 C603 1.446 . S
C604 C605 1.339 . S
C604 H633 0.949 . S
C605 C604 1.339 . S
C605 C606 1.439 . S
C605 H634 0.950 . S
C606 N602 1.383 . S
C606 C605 1.439 . S
C606 C624 1.392 . S
N607 Co591 2.282 . S
N607 C610 1.332 . S
N607 C612 1.332 . S
C608 C609 1.386 . S
C608 C611 1.388 . S
C609 C608 1.386 . S
C609 C610 1.382 . S
C609 H635 0.950 . S
C610 N607 1.332 . S
C610 C609 1.382 . S
C610 H621 0.952 . S
C611 C608 1.388 . S
C611 C612 1.382 . S
C611 H636 0.950 . S
C612 N607 1.332 . S
C612 C611 1.382 . S
C612 H622 0.948 . S
N613 Co591 2.282 1_565 S
N613 C617 1.332 . S
N613 C618 1.332 . S
C614 C615 1.388 . S
C614 C618 1.382 . S
C614 H637 0.950 . S
C615 C614 1.388 . S
C615 C616 1.386 . S
C616 C615 1.386 . S
C616 C617 1.382 . S
C616 H638 0.950 . S
C617 N613 1.332 . S
C617 C616 1.382 . S
C617 H619 0.952 . S
C618 N613 1.332 . S
C618 C614 1.382 . S
C618 H620 0.948 . S
H619 C617 0.952 . S
H620 C618 0.948 . S
H621 C610 0.952 . S
H622 C612 0.948 . S
C623 C589 1.395 1_545 S
C623 C593 1.391 . S
C624 C586 1.389 . S
C624 C606 1.392 . S
C625 C596 1.392 . S
C625 C598 1.389 . S
C626 C601 1.395 . S
C626 C603 1.391 1_545 S
H627 C587 0.951 . S
H628 C588 0.950 . S
H629 C594 0.949 . S
H630 C595 0.950 . S
H631 C599 0.951 . S
H632 C600 0.950 . S
H633 C604 0.949 . S
H634 C605 0.950 . S
H635 C609 0.950 . S
H636 C611 0.950 . S
H637 C614 0.950 . S
H638 C616 0.950 . S
C639 C640 1.443 . S
C639 N643 1.376 . S
C639 C677 1.389 . S
C640 C639 1.443 . S
C640 C641 1.340 . S
C640 H680 0.951 . S
C641 C640 1.340 . S
C641 C642 1.439 . S
C641 H681 0.950 . S
C642 C641 1.439 . S
C642 N643 1.374 . S
C642 C676 1.395 . S
N643 C639 1.376 . S
N643 C642 1.374 . S
N643 Co644 2.008 . S
Co644 N643 2.008 . S
Co644 N645 1.997 . S
Co644 N650 2.008 1_554 S
Co644 N655 1.995 . S
Co644 N660 2.282 1_554 S
Co644 N666 2.282 . S
N645 Co644 1.997 . S
N645 C646 1.377 . S
N645 C649 1.379 1_554 S
C646 N645 1.377 . S
C646 C647 1.446 1_554 S
C646 C676 1.391 . S
C647 C646 1.446 1_556 S
C647 C648 1.339 . S
C647 H682 0.949 . S
C648 C647 1.339 . S
C648 C649 1.439 . S
C648 H683 0.950 . S
C649 N645 1.379 1_556 S
C649 C648 1.439 . S
C649 C678 1.392 . S
N650 Co644 2.008 1_556 S
N650 C651 1.376 . S
N650 C654 1.374 . S
C651 N650 1.376 . S
C651 C652 1.443 . S
C651 C678 1.389 . S
C652 C651 1.443 . S
C652 C653 1.340 . S
C652 H684 0.951 . S
C653 C652 1.340 . S
C653 C654 1.444 . S
C653 H685 0.950 . S
C654 N650 1.374 . S
C654 C653 1.444 . S
C654 C679 1.391 1_556 S
N655 Co644 1.995 . S
N655 C656 1.376 . S
N655 C659 1.383 . S
C656 N655 1.376 . S
C656 C657 1.446 . S
C656 C679 1.391 . S
C657 C656 1.446 . S
C657 C658 1.339 . S
C657 H686 0.949 . S
C658 C657 1.339 . S
C658 C659 1.439 . S
C658 H687 0.950 . S
C659 N655 1.383 . S
C659 C658 1.439 . S
C659 C677 1.392 . S
N660 Co644 2.282 1_556 S
N660 C663 1.332 . S
N660 C665 1.332 . S
C661 C662 1.386 . S
C661 C664 1.388 . S
C662 C661 1.386 . S
C662 C663 1.382 . S
C662 H688 0.950 . S
C663 N660 1.332 . S
C663 C662 1.382 . S
C663 H674 0.952 . S
C664 C661 1.388 . S
C664 C665 1.382 . S
C664 H689 0.950 . S
C665 N660 1.332 . S
C665 C664 1.382 . S
C665 H675 0.948 . S
N666 Co644 2.282 . S
N666 C670 1.332 . S
N666 C671 1.332 . S
C667 C668 1.388 . S
C667 C671 1.382 . S
C667 H690 0.950 . S
C668 C667 1.388 . S
C668 C669 1.386 . S
C669 C668 1.386 . S
C669 C670 1.382 . S
C669 H691 0.950 . S
C670 N666 1.332 . S
C670 C669 1.382 . S
C670 H672 0.952 . S
C671 N666 1.332 . S
C671 C667 1.382 . S
C671 H673 0.948 . S
H672 C670 0.952 . S
H673 C671 0.948 . S
H674 C663 0.952 . S
H675 C665 0.948 . S
C676 C642 1.395 . S
C676 C646 1.391 . S
C677 C639 1.389 . S
C677 C659 1.392 . S
C678 C649 1.392 . S
C678 C651 1.389 . S
C679 C654 1.391 1_554 S
C679 C656 1.391 . S
H680 C640 0.951 . S
H681 C641 0.950 . S
H682 C647 0.949 . S
H683 C648 0.950 . S
H684 C652 0.951 . S
H685 C653 0.950 . S
H686 C657 0.949 . S
H687 C658 0.950 . S
H688 C662 0.950 . S
H689 C664 0.950 . S
H690 C667 0.950 . S
H691 C669 0.950 . S
C692 C693 1.443 . S
C692 N696 1.376 1_565 S
C692 C730 1.389 . S
C693 C692 1.443 . S
C693 C694 1.340 . S
C693 H733 0.951 . S
C694 C693 1.340 . S
C694 C695 1.439 1_565 S
C694 H734 0.950 . S
C695 C694 1.439 1_545 S
C695 N696 1.374 . S
C695 C729 1.395 . S
N696 C692 1.376 1_545 S
N696 C695 1.374 . S
N696 Co697 2.008 . S
Co697 N696 2.008 . S
Co697 N698 1.995 . S
Co697 N703 2.008 . S
Co697 N708 1.995 . S
Co697 N713 2.282 . S
Co697 N719 2.282 1_545 S
N698 Co697 1.995 . S
N698 C699 1.376 . S
N698 C702 1.383 . S
C699 N698 1.376 . S
C699 C700 1.446 . S
C699 C729 1.391 . S
C700 C699 1.446 . S
C700 C701 1.339 . S
C700 H735 0.949 . S
C701 C700 1.339 . S
C701 C702 1.439 . S
C701 H736 0.950 . S
C702 N698 1.383 . S
C702 C701 1.439 . S
C702 C731 1.392 . S
N703 Co697 2.008 . S
N703 C704 1.376 . S
N703 C707 1.374 . S
C704 N703 1.376 . S
C704 C705 1.443 . S
C704 C731 1.389 . S
C705 C704 1.443 . S
C705 C706 1.340 . S
C705 H737 0.951 . S
C706 C705 1.340 . S
C706 C707 1.439 . S
C706 H738 0.950 . S
C707 N703 1.374 . S
C707 C706 1.439 . S
C707 C732 1.395 . S
N708 Co697 1.995 . S
N708 C709 1.376 . S
N708 C712 1.383 1_545 S
C709 N708 1.376 . S
C709 C710 1.446 1_545 S
C709 C732 1.391 . S
C710 C709 1.446 1_565 S
C710 C711 1.339 . S
C710 H739 0.949 . S
C711 C710 1.339 . S
C711 C712 1.439 . S
C711 H740 0.950 . S
C712 N708 1.383 1_565 S
C712 C711 1.439 . S
C712 C730 1.392 . S
N713 Co697 2.282 . S
N713 C716 1.332 . S
N713 C718 1.332 . S
C714 C715 1.386 . S
C714 C717 1.388 . S
C715 C714 1.386 . S
C715 C716 1.382 . S
C715 H741 0.950 . S
C716 N713 1.332 . S
C716 C715 1.382 . S
C716 H727 0.952 . S
C717 C714 1.388 . S
C717 C718 1.382 . S
C717 H742 0.950 . S
C718 N713 1.332 . S
C718 C717 1.382 . S
C718 H728 0.948 . S
N719 Co697 2.282 1_565 S
N719 C723 1.332 . S
N719 C724 1.332 . S
C720 C721 1.388 . S
C720 C724 1.382 . S
C720 H743 0.950 . S
C721 C720 1.388 . S
C721 C722 1.386 . S
C722 C721 1.386 . S
C722 C723 1.382 . S
C722 H744 0.950 . S
C723 N719 1.332 . S
C723 C722 1.382 . S
C723 H725 0.952 . S
C724 N719 1.332 . S
C724 C720 1.382 . S
C724 H726 0.948 . S
H725 C723 0.952 . S
H726 C724 0.948 . S
H727 C716 0.952 . S
H728 C718 0.948 . S
C729 C695 1.395 . S
C729 C699 1.391 . S
C730 C692 1.389 . S
C730 C712 1.392 . S
C731 C702 1.392 . S
C731 C704 1.389 . S
C732 C707 1.395 . S
C732 C709 1.391 . S
H733 C693 0.951 . S
H734 C694 0.950 . S
H735 C700 0.949 . S
H736 C701 0.950 . S
H737 C705 0.951 . S
H738 C706 0.950 . S
H739 C710 0.949 . S
H740 C711 0.950 . S
H741 C715 0.950 . S
H742 C717 0.950 . S
H743 C720 0.950 . S
H744 C722 0.950 . S
C745 C746 1.443 . S
C745 N749 1.376 . S
C745 C783 1.389 . S
C746 C745 1.443 . S
C746 C747 1.340 . S
C746 H786 0.951 . S
C747 C746 1.340 . S
C747 C748 1.439 . S
C747 H787 0.950 . S
C748 C747 1.439 . S
C748 N749 1.374 . S
C748 C782 1.395 . S
N749 C745 1.376 . S
N749 C748 1.374 . S
N749 Co750 2.008 . S
Co750 N749 2.008 . S
Co750 N751 1.995 . S
Co750 N756 2.008 . S
Co750 N761 1.995 . S
Co750 N766 2.294 . S
Co750 N772 2.282 . S
N751 Co750 1.995 . S
N751 C752 1.376 . S
N751 C755 1.383 1_554 S
C752 N751 1.376 . S
C752 C753 1.446 1_554 S
C752 C782 1.391 . S
C753 C752 1.446 1_556 S
C753 C754 1.339 . S
C753 H788 0.949 . S
C754 C753 1.339 . S
C754 C755 1.439 . S
C754 H789 0.950 . S
C755 N751 1.383 1_556 S
C755 C754 1.439 . S
C755 C784 1.392 . S
N756 Co750 2.008 . S
N756 C757 1.376 1_554 S
N756 C760 1.374 . S
C757 N756 1.376 1_556 S
C757 C758 1.443 . S
C757 C784 1.389 . S
C758 C757 1.443 . S
C758 C759 1.340 . S
C758 H790 0.951 . S
C759 C758 1.340 . S
C759 C760 1.439 1_556 S
C759 H791 0.950 . S
C760 N756 1.374 . S
C760 C759 1.439 1_554 S
C760 C785 1.395 . S
N761 Co750 1.995 . S
N761 C762 1.376 . S
N761 C765 1.383 . S
C762 N761 1.376 . S
C762 C763 1.446 . S
C762 C785 1.391 . S
C763 C762 1.446 . S
C763 C764 1.339 . S
C763 H792 0.949 . S
C764 C763 1.339 . S
C764 C765 1.439 . S
C764 H793 0.950 . S
C765 N761 1.383 . S
C765 C764 1.439 . S
C765 C783 1.392 . S
N766 Co750 2.294 . S
N766 C769 1.327 1_554 S
N766 C771 1.324 1_554 S
C767 C768 1.386 . S
C767 C770 1.388 . S
C768 C767 1.386 . S
C768 C769 1.382 . S
C768 H794 0.950 . S
C769 N766 1.327 1_556 S
C769 C768 1.382 . S
C769 H780 0.952 1_556 S
C770 C767 1.388 . S
C770 C771 1.382 . S
C770 H795 0.950 . S
C771 N766 1.324 1_556 S
C771 C770 1.382 . S
C771 H781 0.948 . S
N772 Co750 2.282 . S
N772 C776 1.332 . S
N772 C777 1.332 . S
C773 C774 1.388 . S
C773 C777 1.382 . S
C773 H796 0.950 . S
C774 C773 1.388 . S
C774 C775 1.386 . S
C775 C774 1.386 . S
C775 C776 1.382 . S
C775 H797 0.950 . S
C776 N772 1.332 . S
C776 C775 1.382 . S
C776 H778 0.952 . S
C777 N772 1.332 . S
C777 C773 1.382 . S
C777 H779 0.948 . S
H778 C776 0.952 . S
H779 C777 0.948 . S
H780 C769 0.952 1_554 S
H781 C771 0.948 . S
C782 C748 1.395 . S
C782 C752 1.391 . S
C783 C745 1.389 . S
C783 C765 1.392 . S
C784 C755 1.392 . S
C784 C757 1.389 . S
C785 C760 1.395 . S
C785 C762 1.391 . S
H786 C746 0.951 . S
H787 C747 0.950 . S
H788 C753 0.949 . S
H789 C754 0.950 . S
H790 C758 0.951 . S
H791 C759 0.950 . S
H792 C763 0.949 . S
H793 C764 0.950 . S
H794 C768 0.950 . S
H795 C770 0.950 . S
H796 C773 0.950 . S
H797 C775 0.950 . S
H798 C810 0.930 . S
H799 C812 0.930 . S
H800 C813 0.930 . S
H801 C817 0.959 . S
H802 C817 0.959 . S
H803 C817 0.961 . S
H804 C818 0.960 . S
H805 C818 0.961 . S
H806 C818 0.959 . S
H807 C821 0.929 . S
H808 C822 0.931 . S
H809 C824 0.930 . S
C810 H798 0.930 . S
C810 C811 1.399 . S
C810 C815 1.399 . S
C811 C810 1.399 . S
C811 C812 1.376 . S
C812 H799 0.930 . S
C812 C811 1.376 . S
C812 C813 1.388 . S
C813 H800 0.930 . S
C813 C812 1.388 . S
C813 C814 1.390 . S
C814 C813 1.390 . S
C814 C815 1.394 . S
C814 C820 1.465 . S
C815 C810 1.399 . S
C815 C814 1.394 . S
C815 C816 1.516 . S
C816 C815 1.516 . S
C816 C817 1.502 . S
C816 C818 1.561 . S
C816 C819 1.526 . S
C817 H801 0.959 . S
C817 H802 0.959 . S
C817 H803 0.961 . S
C817 C816 1.502 . S
C818 H804 0.960 . S
C818 H805 0.961 . S
C818 H806 0.959 . S
C818 C816 1.561 . S
C819 C816 1.526 . S
C819 C820 1.396 . S
C819 C824 1.390 . S
C820 C814 1.465 . S
C820 C819 1.396 . S
C820 C821 1.399 . S
C821 H807 0.929 . S
C821 C820 1.399 . S
C821 C822 1.385 . S
C822 H808 0.931 . S
C822 C821 1.385 . S
C822 C823 1.389 . S
C823 C822 1.389 . S
C823 C824 1.387 . S
C824 H809 0.930 . S
C824 C819 1.390 . S
C824 C823 1.387 . S
H825 C837 0.930 . S
H826 C839 0.930 . S
H827 C840 0.930 . S
H828 C844 0.959 . S
H829 C844 0.959 . S
H830 C844 0.961 . S
H831 C845 0.960 . S
H832 C845 0.961 . S
H833 C845 0.959 . S
H834 C848 0.929 . S
H835 C849 0.931 . S
H836 C851 0.930 . S
C837 H825 0.930 . S
C837 C838 1.399 . S
C837 C842 1.399 . S
C838 C837 1.399 . S
C838 C839 1.376 . S
C839 H826 0.930 . S
C839 C838 1.376 . S
C839 C840 1.388 . S
C840 H827 0.930 . S
C840 C839 1.388 . S
C840 C841 1.390 . S
C841 C840 1.390 . S
C841 C842 1.394 . S
C841 C847 1.465 . S
C842 C837 1.399 . S
C842 C841 1.394 . S
C842 C843 1.516 . S
C843 C842 1.516 . S
C843 C844 1.502 . S
C843 C845 1.561 . S
C843 C846 1.526 . S
C844 H828 0.959 . S
C844 H829 0.959 . S
C844 H830 0.961 . S
C844 C843 1.502 . S
C845 H831 0.960 . S
C845 H832 0.961 . S
C845 H833 0.959 . S
C845 C843 1.561 . S
C846 C843 1.526 . S
C846 C847 1.396 . S
C846 C851 1.390 . S
C847 C841 1.465 . S
C847 C846 1.396 . S
C847 C848 1.399 . S
C848 H834 0.929 . S
C848 C847 1.399 . S
C848 C849 1.385 . S
C849 H835 0.931 . S
C849 C848 1.385 . S
C849 C850 1.389 . S
C850 C849 1.389 . S
C850 C851 1.387 . S
C851 H836 0.930 . S
C851 C846 1.390 . S
C851 C850 1.387 . S
H852 C864 0.930 . S
H853 C866 0.930 . S
H854 C867 0.930 . S
H855 C871 0.959 . S
H856 C871 0.959 . S
H857 C871 0.961 . S
H858 C872 0.960 . S
H859 C872 0.961 . S
H860 C872 0.959 . S
H861 C875 0.929 . S
H862 C876 0.931 . S
H863 C878 0.930 . S
C864 H852 0.930 . S
C864 C865 1.399 . S
C864 C869 1.399 . S
C865 C864 1.399 . S
C865 C866 1.376 . S
C866 H853 0.930 . S
C866 C865 1.376 . S
C866 C867 1.388 . S
C867 H854 0.930 . S
C867 C866 1.388 . S
C867 C868 1.390 . S
C868 C867 1.390 . S
C868 C869 1.394 . S
C868 C874 1.465 . S
C869 C864 1.399 . S
C869 C868 1.394 . S
C869 C870 1.516 . S
C870 C869 1.516 . S
C870 C871 1.502 . S
C870 C872 1.561 . S
C870 C873 1.526 . S
C871 H855 0.959 . S
C871 H856 0.959 . S
C871 H857 0.961 . S
C871 C870 1.502 . S
C872 H858 0.960 . S
C872 H859 0.961 . S
C872 H860 0.959 . S
C872 C870 1.561 . S
C873 C870 1.526 . S
C873 C874 1.396 . S
C873 C878 1.390 . S
C874 C868 1.465 . S
C874 C873 1.396 . S
C874 C875 1.399 . S
C875 H861 0.929 . S
C875 C874 1.399 . S
C875 C876 1.385 . S
C876 H862 0.931 . S
C876 C875 1.385 . S
C876 C877 1.389 . S
C877 C876 1.389 . S
C877 C878 1.387 . S
C878 H863 0.930 . S
C878 C873 1.390 . S
C878 C877 1.387 . S
H879 C891 0.930 . S
H880 C893 0.930 . S
H881 C894 0.930 . S
H882 C898 0.959 . S
H883 C898 0.959 . S
H884 C898 0.961 . S
H885 C899 0.960 . S
H886 C899 0.961 . S
H887 C899 0.959 . S
H888 C902 0.929 . S
H889 C903 0.931 . S
H890 C905 0.930 . S
C891 H879 0.930 . S
C891 C892 1.399 . S
C891 C896 1.399 . S
C892 C891 1.399 . S
C892 C893 1.376 . S
C893 H880 0.930 . S
C893 C892 1.376 . S
C893 C894 1.388 . S
C894 H881 0.930 . S
C894 C893 1.388 . S
C894 C895 1.390 . S
C895 C894 1.390 . S
C895 C896 1.394 . S
C895 C901 1.465 . S
C896 C891 1.399 . S
C896 C895 1.394 . S
C896 C897 1.516 . S
C897 C896 1.516 . S
C897 C898 1.502 . S
C897 C899 1.561 . S
C897 C900 1.526 . S
C898 H882 0.959 . S
C898 H883 0.959 . S
C898 H884 0.961 . S
C898 C897 1.502 . S
C899 H885 0.960 . S
C899 H886 0.961 . S
C899 H887 0.959 . S
C899 C897 1.561 . S
C900 C897 1.526 . S
C900 C901 1.396 . S
C900 C905 1.390 . S
C901 C895 1.465 . S
C901 C900 1.396 . S
C901 C902 1.399 . S
C902 H888 0.929 . S
C902 C901 1.399 . S
C902 C903 1.385 . S
C903 H889 0.931 . S
C903 C902 1.385 . S
C903 C904 1.389 . S
C904 C903 1.389 . S
C904 C905 1.387 . S
C905 H890 0.930 . S
C905 C900 1.390 . S
C905 C904 1.387 . S
H906 C918 0.930 . S
H907 C920 0.930 . S
H908 C921 0.930 . S
H909 C925 0.959 . S
H910 C925 0.959 . S
H911 C925 0.961 . S
H912 C926 0.960 . S
H913 C926 0.961 . S
H914 C926 0.959 . S
H915 C929 0.929 . S
H916 C930 0.931 . S
H917 C932 0.930 . S
C918 H906 0.930 . S
C918 C919 1.399 . S
C918 C923 1.399 . S
C919 C918 1.399 . S
C919 C920 1.376 . S
C920 H907 0.930 . S
C920 C919 1.376 . S
C920 C921 1.388 . S
C921 H908 0.930 . S
C921 C920 1.388 . S
C921 C922 1.390 . S
C922 C921 1.390 . S
C922 C923 1.394 . S
C922 C928 1.465 . S
C923 C918 1.399 . S
C923 C922 1.394 . S
C923 C924 1.516 . S
C924 C923 1.516 . S
C924 C925 1.502 . S
C924 C926 1.561 . S
C924 C927 1.526 . S
C925 H909 0.959 . S
C925 H910 0.959 . S
C925 H911 0.961 . S
C925 C924 1.502 . S
C926 H912 0.960 . S
C926 H913 0.961 . S
C926 H914 0.959 . S
C926 C924 1.561 . S
C927 C924 1.526 . S
C927 C928 1.396 . S
C927 C932 1.390 . S
C928 C922 1.465 . S
C928 C927 1.396 . S
C928 C929 1.399 . S
C929 H915 0.929 . S
C929 C928 1.399 . S
C929 C930 1.385 . S
C930 H916 0.931 . S
C930 C929 1.385 . S
C930 C931 1.389 . S
C931 C930 1.389 . S
C931 C932 1.387 . S
C932 H917 0.930 . S
C932 C927 1.390 . S
C932 C931 1.387 . S
H933 C945 0.930 . S
H934 C947 0.930 . S
H935 C948 0.930 . S
H936 C952 0.959 . S
H937 C952 0.959 . S
H938 C952 0.961 . S
H939 C953 0.960 . S
H940 C953 0.961 . S
H941 C953 0.959 . S
H942 C956 0.929 . S
H943 C957 0.931 . S
H944 C959 0.930 . S
C945 H933 0.930 . S
C945 C946 1.399 . S
C945 C950 1.399 . S
C946 C945 1.399 . S
C946 C947 1.376 . S
C947 H934 0.930 . S
C947 C946 1.376 . S
C947 C948 1.388 . S
C948 H935 0.930 . S
C948 C947 1.388 . S
C948 C949 1.390 . S
C949 C948 1.390 . S
C949 C950 1.394 . S
C949 C955 1.465 . S
C950 C945 1.399 . S
C950 C949 1.394 . S
C950 C951 1.516 . S
C951 C950 1.516 . S
C951 C952 1.502 . S
C951 C953 1.561 . S
C951 C954 1.526 . S
C952 H936 0.959 . S
C952 H937 0.959 . S
C952 H938 0.961 . S
C952 C951 1.502 . S
C953 H939 0.960 . S
C953 H940 0.961 . S
C953 H941 0.959 . S
C953 C951 1.561 . S
C954 C951 1.526 . S
C954 C955 1.396 . S
C954 C959 1.390 . S
C955 C949 1.465 . S
C955 C954 1.396 . S
C955 C956 1.399 . S
C956 H942 0.929 . S
C956 C955 1.399 . S
C956 C957 1.385 . S
C957 H943 0.931 . S
C957 C956 1.385 . S
C957 C958 1.389 . S
C958 C957 1.389 . S
C958 C959 1.387 . S
C959 H944 0.930 . S
C959 C954 1.390 . S
C959 C958 1.387 . S
H960 C972 0.930 . S
H961 C974 0.930 . S
H962 C975 0.930 . S
H963 C979 0.959 . S
H964 C979 0.959 . S
H965 C979 0.961 . S
H966 C980 0.960 . S
H967 C980 0.961 . S
H968 C980 0.959 . S
H969 C983 0.929 . S
H970 C984 0.931 . S
H971 C986 0.930 . S
C972 H960 0.930 . S
C972 C973 1.399 . S
C972 C977 1.399 . S
C973 C972 1.399 . S
C973 C974 1.376 . S
C974 H961 0.930 . S
C974 C973 1.376 . S
C974 C975 1.388 . S
C975 H962 0.930 . S
C975 C974 1.388 . S
C975 C976 1.390 . S
C976 C975 1.390 . S
C976 C977 1.394 . S
C976 C982 1.465 . S
C977 C972 1.399 . S
C977 C976 1.394 . S
C977 C978 1.516 . S
C978 C977 1.516 . S
C978 C979 1.502 . S
C978 C980 1.561 . S
C978 C981 1.526 . S
C979 H963 0.959 . S
C979 H964 0.959 . S
C979 H965 0.961 . S
C979 C978 1.502 . S
C980 H966 0.960 . S
C980 H967 0.961 . S
C980 H968 0.959 . S
C980 C978 1.561 . S
C981 C978 1.526 . S
C981 C982 1.396 . S
C981 C986 1.390 . S
C982 C976 1.465 . S
C982 C981 1.396 . S
C982 C983 1.399 . S
C983 H969 0.929 . S
C983 C982 1.399 . S
C983 C984 1.385 . S
C984 H970 0.931 . S
C984 C983 1.385 . S
C984 C985 1.389 . S
C985 C984 1.389 . S
C985 C986 1.387 . S
C986 H971 0.930 . S
C986 C981 1.390 . S
C986 C985 1.387 . S
H987 C999 0.930 . S
H988 C1001 0.930 . S
H989 C1002 0.930 . S
H990 C1006 0.959 . S
H991 C1006 0.959 . S
H992 C1006 0.961 . S
H993 C1007 0.960 . S
H994 C1007 0.961 . S
H995 C1007 0.959 . S
H996 C1010 0.929 . S
H997 C1011 0.931 . S
H998 C1013 0.930 . S
C999 H987 0.930 . S
C999 C1000 1.399 . S
C999 C1004 1.399 . S
C1000 C999 1.399 . S
C1000 C1001 1.376 . S
C1001 H988 0.930 . S
C1001 C1000 1.376 . S
C1001 C1002 1.388 . S
C1002 H989 0.930 . S
C1002 C1001 1.388 . S
C1002 C1003 1.390 . S
C1003 C1002 1.390 . S
C1003 C1004 1.394 . S
C1003 C1009 1.465 . S
C1004 C999 1.399 . S
C1004 C1003 1.394 . S
C1004 C1005 1.516 . S
C1005 C1004 1.516 . S
C1005 C1006 1.502 . S
C1005 C1007 1.561 . S
C1005 C1008 1.526 . S
C1006 H990 0.959 . S
C1006 H991 0.959 . S
C1006 H992 0.961 . S
C1006 C1005 1.502 . S
C1007 H993 0.960 . S
C1007 H994 0.961 . S
C1007 H995 0.959 . S
C1007 C1005 1.561 . S
C1008 C1005 1.526 . S
C1008 C1009 1.396 . S
C1008 C1013 1.390 . S
C1009 C1003 1.465 . S
C1009 C1008 1.396 . S
C1009 C1010 1.399 . S
C1010 H996 0.929 . S
C1010 C1009 1.399 . S
C1010 C1011 1.385 . S
C1011 H997 0.931 . S
C1011 C1010 1.385 . S
C1011 C1012 1.389 . S
C1012 C1011 1.389 . S
C1012 C1013 1.387 . S
C1013 H998 0.930 . S
C1013 C1008 1.390 . S
C1013 C1012 1.387 . S
H1014 C1026 0.930 . S
H1015 C1028 0.930 . S
H1016 C1029 0.930 . S
H1017 C1033 0.959 . S
H1018 C1033 0.959 . S
H1019 C1033 0.961 . S
H1020 C1034 0.960 . S
H1021 C1034 0.961 . S
H1022 C1034 0.959 . S
H1023 C1037 0.929 . S
H1024 C1038 0.931 . S
H1025 C1040 0.930 . S
C1026 H1014 0.930 . S
C1026 C1027 1.399 . S
C1026 C1031 1.399 . S
C1027 C1026 1.399 . S
C1027 C1028 1.376 . S
C1028 H1015 0.930 . S
C1028 C1027 1.376 . S
C1028 C1029 1.388 . S
C1029 H1016 0.930 . S
C1029 C1028 1.388 . S
C1029 C1030 1.390 . S
C1030 C1029 1.390 . S
C1030 C1031 1.394 . S
C1030 C1036 1.465 . S
C1031 C1026 1.399 . S
C1031 C1030 1.394 . S
C1031 C1032 1.516 . S
C1032 C1031 1.516 . S
C1032 C1033 1.502 . S
C1032 C1034 1.561 . S
C1032 C1035 1.526 . S
C1033 H1017 0.959 . S
C1033 H1018 0.959 . S
C1033 H1019 0.961 . S
C1033 C1032 1.502 . S
C1034 H1020 0.960 . S
C1034 H1021 0.961 . S
C1034 H1022 0.959 . S
C1034 C1032 1.561 . S
C1035 C1032 1.526 . S
C1035 C1036 1.396 . S
C1035 C1040 1.390 . S
C1036 C1030 1.465 . S
C1036 C1035 1.396 . S
C1036 C1037 1.399 . S
C1037 H1023 0.929 . S
C1037 C1036 1.399 . S
C1037 C1038 1.385 . S
C1038 H1024 0.931 . S
C1038 C1037 1.385 . S
C1038 C1039 1.389 . S
C1039 C1038 1.389 . S
C1039 C1040 1.387 . S
C1040 H1025 0.930 . S
C1040 C1035 1.390 . S
C1040 C1039 1.387 . S
H1041 C1053 0.930 . S
H1042 C1055 0.930 . S
H1043 C1056 0.930 . S
H1044 C1060 0.959 . S
H1045 C1060 0.959 . S
H1046 C1060 0.961 . S
H1047 C1061 0.960 . S
H1048 C1061 0.961 . S
H1049 C1061 0.959 . S
H1050 C1064 0.929 . S
H1051 C1065 0.931 . S
H1052 C1067 0.930 . S
C1053 H1041 0.930 . S
C1053 C1054 1.399 . S
C1053 C1058 1.399 . S
C1054 C1053 1.399 . S
C1054 C1055 1.376 . S
C1055 H1042 0.930 . S
C1055 C1054 1.376 . S
C1055 C1056 1.388 . S
C1056 H1043 0.930 . S
C1056 C1055 1.388 . S
C1056 C1057 1.390 . S
C1057 C1056 1.390 . S
C1057 C1058 1.394 . S
C1057 C1063 1.465 . S
C1058 C1053 1.399 . S
C1058 C1057 1.394 . S
C1058 C1059 1.516 . S
C1059 C1058 1.516 . S
C1059 C1060 1.502 . S
C1059 C1061 1.561 . S
C1059 C1062 1.526 . S
C1060 H1044 0.959 . S
C1060 H1045 0.959 . S
C1060 H1046 0.961 . S
C1060 C1059 1.502 . S
C1061 H1047 0.960 . S
C1061 H1048 0.961 . S
C1061 H1049 0.959 . S
C1061 C1059 1.561 . S
C1062 C1059 1.526 . S
C1062 C1063 1.396 . S
C1062 C1067 1.390 . S
C1063 C1057 1.465 . S
C1063 C1062 1.396 . S
C1063 C1064 1.399 . S
C1064 H1050 0.929 . S
C1064 C1063 1.399 . S
C1064 C1065 1.385 . S
C1065 H1051 0.931 . S
C1065 C1064 1.385 . S
C1065 C1066 1.389 . S
C1066 C1065 1.389 . S
C1066 C1067 1.387 . S
C1067 H1052 0.930 . S
C1067 C1062 1.390 . S
C1067 C1066 1.387 . S
H1068 C1080 0.930 . S
H1069 C1082 0.930 . S
H1070 C1083 0.930 . S
H1071 C1087 0.959 . S
H1072 C1087 0.959 . S
H1073 C1087 0.961 . S
H1074 C1088 0.960 . S
H1075 C1088 0.961 . S
H1076 C1088 0.959 . S
H1077 C1091 0.929 . S
H1078 C1092 0.931 . S
H1079 C1094 0.930 . S
C1080 H1068 0.930 . S
C1080 C1081 1.399 . S
C1080 C1085 1.399 . S
C1081 C1080 1.399 . S
C1081 C1082 1.376 . S
C1082 H1069 0.930 . S
C1082 C1081 1.376 . S
C1082 C1083 1.388 . S
C1083 H1070 0.930 . S
C1083 C1082 1.388 . S
C1083 C1084 1.390 . S
C1084 C1083 1.390 . S
C1084 C1085 1.394 . S
C1084 C1090 1.465 . S
C1085 C1080 1.399 . S
C1085 C1084 1.394 . S
C1085 C1086 1.516 . S
C1086 C1085 1.516 . S
C1086 C1087 1.502 . S
C1086 C1088 1.561 . S
C1086 C1089 1.526 . S
C1087 H1071 0.959 . S
C1087 H1072 0.959 . S
C1087 H1073 0.961 . S
C1087 C1086 1.502 . S
C1088 H1074 0.960 . S
C1088 H1075 0.961 . S
C1088 H1076 0.959 . S
C1088 C1086 1.561 . S
C1089 C1086 1.526 . S
C1089 C1090 1.396 . S
C1089 C1094 1.390 . S
C1090 C1084 1.465 . S
C1090 C1089 1.396 . S
C1090 C1091 1.399 . S
C1091 H1077 0.929 . S
C1091 C1090 1.399 . S
C1091 C1092 1.385 . S
C1092 H1078 0.931 . S
C1092 C1091 1.385 . S
C1092 C1093 1.389 . S
C1093 C1092 1.389 . S
C1093 C1094 1.387 . S
C1094 H1079 0.930 . S
C1094 C1089 1.390 . S
C1094 C1093 1.387 . S
H1095 C1107 0.930 . S
H1096 C1109 0.930 . S
H1097 C1110 0.930 . S
H1098 C1114 0.959 . S
H1099 C1114 0.959 . S
H1100 C1114 0.961 . S
H1101 C1115 0.960 . S
H1102 C1115 0.961 . S
H1103 C1115 0.959 . S
H1104 C1118 0.929 . S
H1105 C1119 0.931 . S
H1106 C1121 0.930 . S
C1107 H1095 0.930 . S
C1107 C1108 1.399 . S
C1107 C1112 1.399 . S
C1108 C1107 1.399 . S
C1108 C1109 1.376 . S
C1109 H1096 0.930 . S
C1109 C1108 1.376 . S
C1109 C1110 1.388 . S
C1110 H1097 0.930 . S
C1110 C1109 1.388 . S
C1110 C1111 1.390 . S
C1111 C1110 1.390 . S
C1111 C1112 1.394 . S
C1111 C1117 1.465 . S
C1112 C1107 1.399 . S
C1112 C1111 1.394 . S
C1112 C1113 1.516 . S
C1113 C1112 1.516 . S
C1113 C1114 1.502 . S
C1113 C1115 1.561 . S
C1113 C1116 1.526 . S
C1114 H1098 0.959 . S
C1114 H1099 0.959 . S
C1114 H1100 0.961 . S
C1114 C1113 1.502 . S
C1115 H1101 0.960 . S
C1115 H1102 0.961 . S
C1115 H1103 0.959 . S
C1115 C1113 1.561 . S
C1116 C1113 1.526 . S
C1116 C1117 1.396 . S
C1116 C1121 1.390 . S
C1117 C1111 1.465 . S
C1117 C1116 1.396 . S
C1117 C1118 1.399 . S
C1118 H1104 0.929 . S
C1118 C1117 1.399 . S
C1118 C1119 1.385 . S
C1119 H1105 0.931 . S
C1119 C1118 1.385 . S
C1119 C1120 1.389 . S
C1120 C1119 1.389 . S
C1120 C1121 1.387 . S
C1121 H1106 0.930 . S
C1121 C1116 1.390 . S
C1121 C1120 1.387 . S
H1122 C1134 0.930 . S
H1123 C1136 0.930 . S
H1124 C1137 0.930 . S
H1125 C1141 0.959 . S
H1126 C1141 0.959 . S
H1127 C1141 0.961 . S
H1128 C1142 0.960 . S
H1129 C1142 0.961 . S
H1130 C1142 0.959 . S
H1131 C1145 0.929 . S
H1132 C1146 0.931 . S
H1133 C1148 0.930 . S
C1134 H1122 0.930 . S
C1134 C1135 1.399 . S
C1134 C1139 1.399 . S
C1135 C1134 1.399 . S
C1135 C1136 1.376 . S
C1136 H1123 0.930 . S
C1136 C1135 1.376 . S
C1136 C1137 1.388 . S
C1137 H1124 0.930 . S
C1137 C1136 1.388 . S
C1137 C1138 1.390 . S
C1138 C1137 1.390 . S
C1138 C1139 1.394 . S
C1138 C1144 1.465 . S
C1139 C1134 1.399 . S
C1139 C1138 1.394 . S
C1139 C1140 1.516 . S
C1140 C1139 1.516 . S
C1140 C1141 1.502 . S
C1140 C1142 1.561 . S
C1140 C1143 1.526 . S
C1141 H1125 0.959 . S
C1141 H1126 0.959 . S
C1141 H1127 0.961 . S
C1141 C1140 1.502 . S
C1142 H1128 0.960 . S
C1142 H1129 0.961 . S
C1142 H1130 0.959 . S
C1142 C1140 1.561 . S
C1143 C1140 1.526 . S
C1143 C1144 1.396 . S
C1143 C1148 1.390 . S
C1144 C1138 1.465 . S
C1144 C1143 1.396 . S
C1144 C1145 1.399 . S
C1145 H1131 0.929 . S
C1145 C1144 1.399 . S
C1145 C1146 1.385 . S
C1146 H1132 0.931 . S
C1146 C1145 1.385 . S
C1146 C1147 1.389 . S
C1147 C1146 1.389 . S
C1147 C1148 1.387 . S
C1148 H1133 0.930 . S
C1148 C1143 1.390 . S
C1148 C1147 1.387 . S
H1149 C1161 0.930 . S
H1150 C1163 0.930 . S
H1151 C1164 0.930 . S
H1152 C1168 0.959 . S
H1153 C1168 0.959 . S
H1154 C1168 0.961 . S
H1155 C1169 0.960 . S
H1156 C1169 0.961 . S
H1157 C1169 0.959 . S
H1158 C1172 0.929 . S
H1159 C1173 0.931 . S
H1160 C1175 0.930 . S
C1161 H1149 0.930 . S
C1161 C1162 1.399 . S
C1161 C1166 1.399 . S
C1162 C1161 1.399 . S
C1162 C1163 1.376 . S
C1163 H1150 0.930 . S
C1163 C1162 1.376 . S
C1163 C1164 1.388 . S
C1164 H1151 0.930 . S
C1164 C1163 1.388 . S
C1164 C1165 1.390 . S
C1165 C1164 1.390 . S
C1165 C1166 1.394 . S
C1165 C1171 1.465 . S
C1166 C1161 1.399 . S
C1166 C1165 1.394 . S
C1166 C1167 1.516 . S
C1167 C1166 1.516 . S
C1167 C1168 1.502 . S
C1167 C1169 1.561 . S
C1167 C1170 1.526 . S
C1168 H1152 0.959 . S
C1168 H1153 0.959 . S
C1168 H1154 0.961 . S
C1168 C1167 1.502 . S
C1169 H1155 0.960 . S
C1169 H1156 0.961 . S
C1169 H1157 0.959 . S
C1169 C1167 1.561 . S
C1170 C1167 1.526 . S
C1170 C1171 1.396 . S
C1170 C1175 1.390 . S
C1171 C1165 1.465 . S
C1171 C1170 1.396 . S
C1171 C1172 1.399 . S
C1172 H1158 0.929 . S
C1172 C1171 1.399 . S
C1172 C1173 1.385 . S
C1173 H1159 0.931 . S
C1173 C1172 1.385 . S
C1173 C1174 1.389 . S
C1174 C1173 1.389 . S
C1174 C1175 1.387 . S
C1175 H1160 0.930 . S
C1175 C1170 1.390 . S
C1175 C1174 1.387 . S
H1176 C1188 0.930 . S
H1177 C1190 0.930 . S
H1178 C1191 0.930 . S
H1179 C1195 0.959 . S
H1180 C1195 0.959 . S
H1181 C1195 0.961 . S
H1182 C1196 0.960 . S
H1183 C1196 0.961 . S
H1184 C1196 0.959 . S
H1185 C1199 0.929 . S
H1186 C1200 0.931 . S
H1187 C1202 0.930 . S
C1188 H1176 0.930 . S
C1188 C1189 1.399 . S
C1188 C1193 1.399 . S
C1189 C1188 1.399 . S
C1189 C1190 1.376 . S
C1190 H1177 0.930 . S
C1190 C1189 1.376 . S
C1190 C1191 1.388 . S
C1191 H1178 0.930 . S
C1191 C1190 1.388 . S
C1191 C1192 1.390 . S
C1192 C1191 1.390 . S
C1192 C1193 1.394 . S
C1192 C1198 1.465 . S
C1193 C1188 1.399 . S
C1193 C1192 1.394 . S
C1193 C1194 1.516 . S
C1194 C1193 1.516 . S
C1194 C1195 1.502 . S
C1194 C1196 1.561 . S
C1194 C1197 1.526 . S
C1195 H1179 0.959 . S
C1195 H1180 0.959 . S
C1195 H1181 0.961 . S
C1195 C1194 1.502 . S
C1196 H1182 0.960 . S
C1196 H1183 0.961 . S
C1196 H1184 0.959 . S
C1196 C1194 1.561 . S
C1197 C1194 1.526 . S
C1197 C1198 1.396 . S
C1197 C1202 1.390 . S
C1198 C1192 1.465 . S
C1198 C1197 1.396 . S
C1198 C1199 1.399 . S
C1199 H1185 0.929 . S
C1199 C1198 1.399 . S
C1199 C1200 1.385 . S
C1200 H1186 0.931 . S
C1200 C1199 1.385 . S
C1200 C1201 1.389 . S
C1201 C1200 1.389 . S
C1201 C1202 1.387 . S
C1202 H1187 0.930 . S
C1202 C1197 1.390 . S
C1202 C1201 1.387 . S
H1203 C1215 0.930 . S
H1204 C1217 0.930 . S
H1205 C1218 0.930 . S
H1206 C1222 0.959 . S
H1207 C1222 0.959 . S
H1208 C1222 0.961 . S
H1209 C1223 0.960 . S
H1210 C1223 0.961 . S
H1211 C1223 0.959 . S
H1212 C1226 0.929 . S
H1213 C1227 0.931 . S
H1214 C1229 0.930 . S
C1215 H1203 0.930 . S
C1215 C1216 1.399 . S
C1215 C1220 1.399 . S
C1216 C1215 1.399 . S
C1216 C1217 1.376 . S
C1217 H1204 0.930 . S
C1217 C1216 1.376 . S
C1217 C1218 1.388 . S
C1218 H1205 0.930 . S
C1218 C1217 1.388 . S
C1218 C1219 1.390 . S
C1219 C1218 1.390 . S
C1219 C1220 1.394 . S
C1219 C1225 1.465 . S
C1220 C1215 1.399 . S
C1220 C1219 1.394 . S
C1220 C1221 1.516 . S
C1221 C1220 1.516 . S
C1221 C1222 1.502 . S
C1221 C1223 1.561 . S
C1221 C1224 1.526 . S
C1222 H1206 0.959 . S
C1222 H1207 0.959 . S
C1222 H1208 0.961 . S
C1222 C1221 1.502 . S
C1223 H1209 0.960 . S
C1223 H1210 0.961 . S
C1223 H1211 0.959 . S
C1223 C1221 1.561 . S
C1224 C1221 1.526 . S
C1224 C1225 1.396 . S
C1224 C1229 1.390 . S
C1225 C1219 1.465 . S
C1225 C1224 1.396 . S
C1225 C1226 1.399 . S
C1226 H1212 0.929 . S
C1226 C1225 1.399 . S
C1226 C1227 1.385 . S
C1227 H1213 0.931 . S
C1227 C1226 1.385 . S
C1227 C1228 1.389 . S
C1228 C1227 1.389 . S
C1228 C1229 1.387 . S
C1229 H1214 0.930 . S
C1229 C1224 1.390 . S
C1229 C1228 1.387 . S
H1230 C1242 0.930 . S
H1231 C1244 0.930 . S
H1232 C1245 0.930 . S
H1233 C1249 0.959 . S
H1234 C1249 0.959 . S
H1235 C1249 0.961 . S
H1236 C1250 0.960 . S
H1237 C1250 0.961 . S
H1238 C1250 0.959 . S
H1239 C1253 0.929 . S
H1240 C1254 0.931 . S
H1241 C1256 0.930 . S
C1242 H1230 0.930 . S
C1242 C1243 1.399 . S
C1242 C1247 1.399 . S
C1243 C1242 1.399 . S
C1243 C1244 1.376 . S
C1244 H1231 0.930 . S
C1244 C1243 1.376 . S
C1244 C1245 1.388 . S
C1245 H1232 0.930 . S
C1245 C1244 1.388 . S
C1245 C1246 1.390 . S
C1246 C1245 1.390 . S
C1246 C1247 1.394 . S
C1246 C1252 1.465 . S
C1247 C1242 1.399 . S
C1247 C1246 1.394 . S
C1247 C1248 1.516 . S
C1248 C1247 1.516 . S
C1248 C1249 1.502 . S
C1248 C1250 1.561 . S
C1248 C1251 1.526 . S
C1249 H1233 0.959 . S
C1249 H1234 0.959 . S
C1249 H1235 0.961 . S
C1249 C1248 1.502 . S
C1250 H1236 0.960 . S
C1250 H1237 0.961 . S
C1250 H1238 0.959 . S
C1250 C1248 1.561 . S
C1251 C1248 1.526 . S
C1251 C1252 1.396 . S
C1251 C1256 1.390 . S
C1252 C1246 1.465 . S
C1252 C1251 1.396 . S
C1252 C1253 1.399 . S
C1253 H1239 0.929 . S
C1253 C1252 1.399 . S
C1253 C1254 1.385 . S
C1254 H1240 0.931 . S
C1254 C1253 1.385 . S
C1254 C1255 1.389 . S
C1255 C1254 1.389 . S
C1255 C1256 1.387 . S
C1256 H1241 0.930 . S
C1256 C1251 1.390 . S
C1256 C1255 1.387 . S
H1257 C1269 0.930 . S
H1258 C1271 0.930 . S
H1259 C1272 0.930 . S
H1260 C1276 0.959 . S
H1261 C1276 0.959 . S
H1262 C1276 0.961 . S
H1263 C1277 0.960 . S
H1264 C1277 0.961 . S
H1265 C1277 0.959 . S
H1266 C1280 0.929 . S
H1267 C1281 0.931 . S
H1268 C1283 0.930 . S
C1269 H1257 0.930 . S
C1269 C1270 1.399 . S
C1269 C1274 1.399 . S
C1270 C1269 1.399 . S
C1270 C1271 1.376 . S
C1271 H1258 0.930 . S
C1271 C1270 1.376 . S
C1271 C1272 1.388 . S
C1272 H1259 0.930 . S
C1272 C1271 1.388 . S
C1272 C1273 1.390 . S
C1273 C1272 1.390 . S
C1273 C1274 1.394 . S
C1273 C1279 1.465 . S
C1274 C1269 1.399 . S
C1274 C1273 1.394 . S
C1274 C1275 1.516 . S
C1275 C1274 1.516 . S
C1275 C1276 1.502 . S
C1275 C1277 1.561 . S
C1275 C1278 1.526 . S
C1276 H1260 0.959 . S
C1276 H1261 0.959 . S
C1276 H1262 0.961 . S
C1276 C1275 1.502 . S
C1277 H1263 0.960 . S
C1277 H1264 0.961 . S
C1277 H1265 0.959 . S
C1277 C1275 1.561 . S
C1278 C1275 1.526 . S
C1278 C1279 1.396 . S
C1278 C1283 1.390 . S
C1279 C1273 1.465 . S
C1279 C1278 1.396 . S
C1279 C1280 1.399 . S
C1280 H1266 0.929 . S
C1280 C1279 1.399 . S
C1280 C1281 1.385 . S
C1281 H1267 0.931 . S
C1281 C1280 1.385 . S
C1281 C1282 1.389 . S
C1282 C1281 1.389 . S
C1282 C1283 1.387 . S
C1283 H1268 0.930 . S
C1283 C1278 1.390 . S
C1283 C1282 1.387 . S
H1284 C1296 0.930 . S
H1285 C1298 0.930 . S
H1286 C1299 0.930 . S
H1287 C1303 0.959 . S
H1288 C1303 0.959 . S
H1289 C1303 0.961 . S
H1290 C1304 0.960 . S
H1291 C1304 0.961 . S
H1292 C1304 0.959 . S
H1293 C1307 0.929 . S
H1294 C1308 0.931 . S
H1295 C1310 0.930 . S
C1296 H1284 0.930 . S
C1296 C1297 1.399 . S
C1296 C1301 1.399 . S
C1297 C1296 1.399 . S
C1297 C1298 1.376 . S
C1298 H1285 0.930 . S
C1298 C1297 1.376 . S
C1298 C1299 1.388 . S
C1299 H1286 0.930 . S
C1299 C1298 1.388 . S
C1299 C1300 1.390 . S
C1300 C1299 1.390 . S
C1300 C1301 1.394 . S
C1300 C1306 1.465 . S
C1301 C1296 1.399 . S
C1301 C1300 1.394 . S
C1301 C1302 1.516 . S
C1302 C1301 1.516 . S
C1302 C1303 1.502 . S
C1302 C1304 1.561 . S
C1302 C1305 1.526 . S
C1303 H1287 0.959 . S
C1303 H1288 0.959 . S
C1303 H1289 0.961 . S
C1303 C1302 1.502 . S
C1304 H1290 0.960 . S
C1304 H1291 0.961 . S
C1304 H1292 0.959 . S
C1304 C1302 1.561 . S
C1305 C1302 1.526 . S
C1305 C1306 1.396 . S
C1305 C1310 1.390 . S
C1306 C1300 1.465 . S
C1306 C1305 1.396 . S
C1306 C1307 1.399 . S
C1307 H1293 0.929 . S
C1307 C1306 1.399 . S
C1307 C1308 1.385 . S
C1308 H1294 0.931 . S
C1308 C1307 1.385 . S
C1308 C1309 1.389 . S
C1309 C1308 1.389 . S
C1309 C1310 1.387 . S
C1310 H1295 0.930 . S
C1310 C1305 1.390 . S
C1310 C1309 1.387 . S
H1311 C1323 0.930 . S
H1312 C1325 0.930 . S
H1313 C1326 0.930 . S
H1314 C1330 0.959 . S
H1315 C1330 0.959 . S
H1316 C1330 0.961 . S
H1317 C1331 0.960 . S
H1318 C1331 0.961 . S
H1319 C1331 0.959 . S
H1320 C1334 0.929 . S
H1321 C1335 0.931 . S
H1322 C1337 0.930 . S
C1323 H1311 0.930 . S
C1323 C1324 1.399 . S
C1323 C1328 1.399 . S
C1324 C1323 1.399 . S
C1324 C1325 1.376 . S
C1325 H1312 0.930 . S
C1325 C1324 1.376 . S
C1325 C1326 1.388 . S
C1326 H1313 0.930 . S
C1326 C1325 1.388 . S
C1326 C1327 1.390 . S
C1327 C1326 1.390 . S
C1327 C1328 1.394 . S
C1327 C1333 1.465 . S
C1328 C1323 1.399 . S
C1328 C1327 1.394 . S
C1328 C1329 1.516 . S
C1329 C1328 1.516 . S
C1329 C1330 1.502 . S
C1329 C1331 1.561 . S
C1329 C1332 1.526 . S
C1330 H1314 0.959 . S
C1330 H1315 0.959 . S
C1330 H1316 0.961 . S
C1330 C1329 1.502 . S
C1331 H1317 0.960 . S
C1331 H1318 0.961 . S
C1331 H1319 0.959 . S
C1331 C1329 1.561 . S
C1332 C1329 1.526 . S
C1332 C1333 1.396 . S
C1332 C1337 1.390 . S
C1333 C1327 1.465 . S
C1333 C1332 1.396 . S
C1333 C1334 1.399 . S
C1334 H1320 0.929 . S
C1334 C1333 1.399 . S
C1334 C1335 1.385 . S
C1335 H1321 0.931 . S
C1335 C1334 1.385 . S
C1335 C1336 1.389 . S
C1336 C1335 1.389 . S
C1336 C1337 1.387 . S
C1337 H1322 0.930 . S
C1337 C1332 1.390 . S
C1337 C1336 1.387 . S
H1338 C1350 0.930 . S
H1339 C1352 0.930 . S
H1340 C1353 0.930 . S
H1341 C1357 0.959 . S
H1342 C1357 0.959 . S
H1343 C1357 0.961 . S
H1344 C1358 0.960 . S
H1345 C1358 0.961 . S
H1346 C1358 0.959 . S
H1347 C1361 0.929 . S
H1348 C1362 0.931 . S
H1349 C1364 0.930 . S
C1350 H1338 0.930 . S
C1350 C1351 1.399 . S
C1350 C1355 1.399 . S
C1351 C1350 1.399 . S
C1351 C1352 1.376 . S
C1352 H1339 0.930 . S
C1352 C1351 1.376 . S
C1352 C1353 1.388 . S
C1353 H1340 0.930 . S
C1353 C1352 1.388 . S
C1353 C1354 1.390 . S
C1354 C1353 1.390 . S
C1354 C1355 1.394 . S
C1354 C1360 1.465 . S
C1355 C1350 1.399 . S
C1355 C1354 1.394 . S
C1355 C1356 1.516 . S
C1356 C1355 1.516 . S
C1356 C1357 1.502 . S
C1356 C1358 1.561 . S
C1356 C1359 1.526 . S
C1357 H1341 0.959 . S
C1357 H1342 0.959 . S
C1357 H1343 0.961 . S
C1357 C1356 1.502 . S
C1358 H1344 0.960 . S
C1358 H1345 0.961 . S
C1358 H1346 0.959 . S
C1358 C1356 1.561 . S
C1359 C1356 1.526 . S
C1359 C1360 1.396 . S
C1359 C1364 1.390 . S
C1360 C1354 1.465 . S
C1360 C1359 1.396 . S
C1360 C1361 1.399 . S
C1361 H1347 0.929 . S
C1361 C1360 1.399 . S
C1361 C1362 1.385 . S
C1362 H1348 0.931 . S
C1362 C1361 1.385 . S
C1362 C1363 1.389 . S
C1363 C1362 1.389 . S
C1363 C1364 1.387 . S
C1364 H1349 0.930 . S
C1364 C1359 1.390 . S
C1364 C1363 1.387 . S
H1365 C1377 0.930 . S
H1366 C1379 0.930 . S
H1367 C1380 0.930 . S
H1368 C1384 0.959 . S
H1369 C1384 0.959 . S
H1370 C1384 0.961 . S
H1371 C1385 0.960 . S
H1372 C1385 0.961 . S
H1373 C1385 0.959 . S
H1374 C1388 0.929 . S
H1375 C1389 0.931 . S
H1376 C1391 0.930 . S
C1377 H1365 0.930 . S
C1377 C1378 1.399 . S
C1377 C1382 1.399 . S
C1378 C1377 1.399 . S
C1378 C1379 1.376 . S
C1379 H1366 0.930 . S
C1379 C1378 1.376 . S
C1379 C1380 1.388 . S
C1380 H1367 0.930 . S
C1380 C1379 1.388 . S
C1380 C1381 1.390 . S
C1381 C1380 1.390 . S
C1381 C1382 1.394 . S
C1381 C1387 1.465 . S
C1382 C1377 1.399 . S
C1382 C1381 1.394 . S
C1382 C1383 1.516 . S
C1383 C1382 1.516 . S
C1383 C1384 1.502 . S
C1383 C1385 1.561 . S
C1383 C1386 1.526 . S
C1384 H1368 0.959 . S
C1384 H1369 0.959 . S
C1384 H1370 0.961 . S
C1384 C1383 1.502 . S
C1385 H1371 0.960 . S
C1385 H1372 0.961 . S
C1385 H1373 0.959 . S
C1385 C1383 1.561 . S
C1386 C1383 1.526 . S
C1386 C1387 1.396 . S
C1386 C1391 1.390 . S
C1387 C1381 1.465 . S
C1387 C1386 1.396 . S
C1387 C1388 1.399 . S
C1388 H1374 0.929 . S
C1388 C1387 1.399 . S
C1388 C1389 1.385 . S
C1389 H1375 0.931 . S
C1389 C1388 1.385 . S
C1389 C1390 1.389 . S
C1390 C1389 1.389 . S
C1390 C1391 1.387 . S
C1391 H1376 0.930 . S
C1391 C1386 1.390 . S
C1391 C1390 1.387 . S
H1392 C1404 0.930 . S
H1393 C1406 0.930 . S
H1394 C1407 0.930 . S
H1395 C1411 0.959 . S
H1396 C1411 0.959 . S
H1397 C1411 0.961 . S
H1398 C1412 0.960 . S
H1399 C1412 0.961 . S
H1400 C1412 0.959 . S
H1401 C1415 0.929 . S
H1402 C1416 0.931 . S
H1403 C1418 0.930 . S
C1404 H1392 0.930 . S
C1404 C1405 1.399 . S
C1404 C1409 1.399 . S
C1405 C1404 1.399 . S
C1405 C1406 1.376 . S
C1406 H1393 0.930 . S
C1406 C1405 1.376 . S
C1406 C1407 1.388 . S
C1407 H1394 0.930 . S
C1407 C1406 1.388 . S
C1407 C1408 1.390 . S
C1408 C1407 1.390 . S
C1408 C1409 1.394 . S
C1408 C1414 1.465 . S
C1409 C1404 1.399 . S
C1409 C1408 1.394 . S
C1409 C1410 1.516 . S
C1410 C1409 1.516 . S
C1410 C1411 1.502 . S
C1410 C1412 1.561 . S
C1410 C1413 1.526 . S
C1411 H1395 0.959 . S
C1411 H1396 0.959 . S
C1411 H1397 0.961 . S
C1411 C1410 1.502 . S
C1412 H1398 0.960 . S
C1412 H1399 0.961 . S
C1412 H1400 0.959 . S
C1412 C1410 1.561 . S
C1413 C1410 1.526 . S
C1413 C1414 1.396 . S
C1413 C1418 1.390 . S
C1414 C1408 1.465 . S
C1414 C1413 1.396 . S
C1414 C1415 1.399 . S
C1415 H1401 0.929 . S
C1415 C1414 1.399 . S
C1415 C1416 1.385 . S
C1416 H1402 0.931 . S
C1416 C1415 1.385 . S
C1416 C1417 1.389 . S
C1417 C1416 1.389 . S
C1417 C1418 1.387 . S
C1418 H1403 0.930 . S
C1418 C1413 1.390 . S
C1418 C1417 1.387 . S
H1419 C1431 0.930 . S
H1420 C1433 0.930 . S
H1421 C1434 0.930 . S
H1422 C1438 0.959 . S
H1423 C1438 0.959 . S
H1424 C1438 0.961 . S
H1425 C1439 0.960 . S
H1426 C1439 0.961 . S
H1427 C1439 0.959 . S
H1428 C1442 0.929 . S
H1429 C1443 0.931 . S
H1430 C1445 0.930 . S
C1431 H1419 0.930 . S
C1431 C1432 1.399 . S
C1431 C1436 1.399 . S
C1432 C1431 1.399 . S
C1432 C1433 1.376 . S
C1433 H1420 0.930 . S
C1433 C1432 1.376 . S
C1433 C1434 1.388 . S
C1434 H1421 0.930 . S
C1434 C1433 1.388 . S
C1434 C1435 1.390 . S
C1435 C1434 1.390 . S
C1435 C1436 1.394 . S
C1435 C1441 1.465 . S
C1436 C1431 1.399 . S
C1436 C1435 1.394 . S
C1436 C1437 1.516 . S
C1437 C1436 1.516 . S
C1437 C1438 1.502 . S
C1437 C1439 1.561 . S
C1437 C1440 1.526 . S
C1438 H1422 0.959 . S
C1438 H1423 0.959 . S
C1438 H1424 0.961 . S
C1438 C1437 1.502 . S
C1439 H1425 0.960 . S
C1439 H1426 0.961 . S
C1439 H1427 0.959 . S
C1439 C1437 1.561 . S
C1440 C1437 1.526 . S
C1440 C1441 1.396 . S
C1440 C1445 1.390 . S
C1441 C1435 1.465 . S
C1441 C1440 1.396 . S
C1441 C1442 1.399 . S
C1442 H1428 0.929 . S
C1442 C1441 1.399 . S
C1442 C1443 1.385 . S
C1443 H1429 0.931 . S
C1443 C1442 1.385 . S
C1443 C1444 1.389 . S
C1444 C1443 1.389 . S
C1444 C1445 1.387 . S
C1445 H1430 0.930 . S
C1445 C1440 1.390 . S
C1445 C1444 1.387 . S
C823 C502 1.559 . S
C811 C31 1.500 . S
C850 C571 1.528 . S
C838 C61 1.533 . S
C877 C509 1.557 . S
C865 C121 1.540 . S
C904 C572 1.553 . S
C892 C211 1.537 . S
C931 C625 1.550 . S
C919 C1 1.538 . S
C958 C661 1.523 . S
C946 C91 1.519 . S
C973 C151 1.485 . S
C985 C721 1.556 . S
C1012 C784 1.521 . S
C1000 C181 1.451 . S
C1039 C624 1.547 . S
C1027 C80 1.540 . S
C1054 C140 1.502 . S
C1066 C668 1.510 . S
C1093 C714 1.543 . S
C1081 C200 1.534 . S
C1120 C783 1.514 . S
C1108 C20 1.493 . S
C1135 C271 1.507 . S
C1147 C562 1.556 . S
C1174 C519 1.548 . S
C1162 C331 1.525 . S
C1189 C380 1.516 . S
C1201 C555 1.537 . S
C1216 C421 1.537 . S
C1228 C518 1.536 . S
C1255 C730 1.540 . S
C1243 C241 1.520 . S
C1282 C774 1.512 . S
C1270 C320 1.486 . S
C1309 C608 1.533 . S
C1297 C361 1.549 . S
C1324 C440 1.491 . S
C1336 C677 1.523 . S
C1363 C731 1.548 . S
C1351 C301 1.537 . S
C1390 C767 1.511 . S
C1378 C391 1.495 . S
C1417 C615 1.535 . S
C1405 C451 1.534 . S
C1432 C260 1.520 . S
C1444 C678 1.528 . S
