# Generated by pormake.
# Topology ctn, (3,4)-cn, num edge types: 1
# Building blocks:
#     Node 0, Type 0, BuildingBlock: BELTOD_clean_linker_0, # of connection points: 3
#     Node 1, Type 0, BuildingBlock: BELTOD_clean_linker_0, # of connection points: 3
#     Node 2, Type 0, BuildingBlock: BELTOD_clean_linker_0, # of connection points: 3
#     Node 3, Type 0, BuildingBlock: BELTOD_clean_linker_0, # of connection points: 3
#     Node 4, Type 0, BuildingBlock: BELTOD_clean_linker_0, # of connection points: 3
#     Node 5, Type 0, BuildingBlock: BELTOD_clean_linker_0, # of connection points: 3
#     Node 6, Type 0, BuildingBlock: BELTOD_clean_linker_0, # of connection points: 3
#     Node 7, Type 0, BuildingBlock: BELTOD_clean_linker_0, # of connection points: 3
#     Node 8, Type 0, BuildingBlock: BELTOD_clean_linker_0, # of connection points: 3
#     Node 9, Type 0, BuildingBlock: BELTOD_clean_linker_0, # of connection points: 3
#     Node 10, Type 0, BuildingBlock: BELTOD_clean_linker_0, # of connection points: 3
#     Node 11, Type 0, BuildingBlock: BELTOD_clean_linker_0, # of connection points: 3
#     Node 12, Type 0, BuildingBlock: BELTOD_clean_linker_0, # of connection points: 3
#     Node 13, Type 0, BuildingBlock: BELTOD_clean_linker_0, # of connection points: 3
#     Node 14, Type 0, BuildingBlock: BELTOD_clean_linker_0, # of connection points: 3
#     Node 15, Type 0, BuildingBlock: BELTOD_clean_linker_0, # of connection points: 3
#     Node 16, Type 1, BuildingBlock: TATPOV_clean_sbu_0, # of connection points: 4
#     Node 17, Type 1, BuildingBlock: TATPOV_clean_sbu_0, # of connection points: 4
#     Node 18, Type 1, BuildingBlock: TATPOV_clean_sbu_0, # of connection points: 4
#     Node 19, Type 1, BuildingBlock: TATPOV_clean_sbu_0, # of connection points: 4
#     Node 20, Type 1, BuildingBlock: TATPOV_clean_sbu_0, # of connection points: 4
#     Node 21, Type 1, BuildingBlock: TATPOV_clean_sbu_0, # of connection points: 4
#     Node 22, Type 1, BuildingBlock: TATPOV_clean_sbu_0, # of connection points: 4
#     Node 23, Type 1, BuildingBlock: TATPOV_clean_sbu_0, # of connection points: 4
#     Node 24, Type 1, BuildingBlock: TATPOV_clean_sbu_0, # of connection points: 4
#     Node 25, Type 1, BuildingBlock: TATPOV_clean_sbu_0, # of connection points: 4
#     Node 26, Type 1, BuildingBlock: TATPOV_clean_sbu_0, # of connection points: 4
#     Node 27, Type 1, BuildingBlock: TATPOV_clean_sbu_0, # of connection points: 4
#     Edge 28, Type (0, 1), BuildingBlock: MIFKUJ_clean_linker_0, # of connection points: 2
#     Edge 29, Type (0, 1), BuildingBlock: MIFKUJ_clean_linker_0, # of connection points: 2
#     Edge 30, Type (0, 1), BuildingBlock: MIFKUJ_clean_linker_0, # of connection points: 2
#     Edge 31, Type (0, 1), BuildingBlock: MIFKUJ_clean_linker_0, # of connection points: 2
#     Edge 32, Type (0, 1), BuildingBlock: MIFKUJ_clean_linker_0, # of connection points: 2
#     Edge 33, Type (0, 1), BuildingBlock: MIFKUJ_clean_linker_0, # of connection points: 2
#     Edge 34, Type (0, 1), BuildingBlock: MIFKUJ_clean_linker_0, # of connection points: 2
#     Edge 35, Type (0, 1), BuildingBlock: MIFKUJ_clean_linker_0, # of connection points: 2
#     Edge 36, Type (0, 1), BuildingBlock: MIFKUJ_clean_linker_0, # of connection points: 2
#     Edge 37, Type (0, 1), BuildingBlock: MIFKUJ_clean_linker_0, # of connection points: 2
#     Edge 38, Type (0, 1), BuildingBlock: MIFKUJ_clean_linker_0, # of connection points: 2
#     Edge 39, Type (0, 1), BuildingBlock: MIFKUJ_clean_linker_0, # of connection points: 2
#     Edge 40, Type (0, 1), BuildingBlock: MIFKUJ_clean_linker_0, # of connection points: 2
#     Edge 41, Type (0, 1), BuildingBlock: MIFKUJ_clean_linker_0, # of connection points: 2
#     Edge 42, Type (0, 1), BuildingBlock: MIFKUJ_clean_linker_0, # of connection points: 2
#     Edge 43, Type (0, 1), BuildingBlock: MIFKUJ_clean_linker_0, # of connection points: 2
#     Edge 44, Type (0, 1), BuildingBlock: MIFKUJ_clean_linker_0, # of connection points: 2
#     Edge 45, Type (0, 1), BuildingBlock: MIFKUJ_clean_linker_0, # of connection points: 2
#     Edge 46, Type (0, 1), BuildingBlock: MIFKUJ_clean_linker_0, # of connection points: 2
#     Edge 47, Type (0, 1), BuildingBlock: MIFKUJ_clean_linker_0, # of connection points: 2
#     Edge 48, Type (0, 1), BuildingBlock: MIFKUJ_clean_linker_0, # of connection points: 2
#     Edge 49, Type (0, 1), BuildingBlock: MIFKUJ_clean_linker_0, # of connection points: 2
#     Edge 50, Type (0, 1), BuildingBlock: MIFKUJ_clean_linker_0, # of connection points: 2
#     Edge 51, Type (0, 1), BuildingBlock: MIFKUJ_clean_linker_0, # of connection points: 2
#     Edge 52, Type (0, 1), BuildingBlock: MIFKUJ_clean_linker_0, # of connection points: 2
#     Edge 53, Type (0, 1), BuildingBlock: MIFKUJ_clean_linker_0, # of connection points: 2
#     Edge 54, Type (0, 1), BuildingBlock: MIFKUJ_clean_linker_0, # of connection points: 2
#     Edge 55, Type (0, 1), BuildingBlock: MIFKUJ_clean_linker_0, # of connection points: 2
#     Edge 56, Type (0, 1), BuildingBlock: MIFKUJ_clean_linker_0, # of connection points: 2
#     Edge 57, Type (0, 1), BuildingBlock: MIFKUJ_clean_linker_0, # of connection points: 2
#     Edge 58, Type (0, 1), BuildingBlock: MIFKUJ_clean_linker_0, # of connection points: 2
#     Edge 59, Type (0, 1), BuildingBlock: MIFKUJ_clean_linker_0, # of connection points: 2
#     Edge 60, Type (0, 1), BuildingBlock: MIFKUJ_clean_linker_0, # of connection points: 2
#     Edge 61, Type (0, 1), BuildingBlock: MIFKUJ_clean_linker_0, # of connection points: 2
#     Edge 62, Type (0, 1), BuildingBlock: MIFKUJ_clean_linker_0, # of connection points: 2
#     Edge 63, Type (0, 1), BuildingBlock: MIFKUJ_clean_linker_0, # of connection points: 2
#     Edge 64, Type (0, 1), BuildingBlock: MIFKUJ_clean_linker_0, # of connection points: 2
#     Edge 65, Type (0, 1), BuildingBlock: MIFKUJ_clean_linker_0, # of connection points: 2
#     Edge 66, Type (0, 1), BuildingBlock: MIFKUJ_clean_linker_0, # of connection points: 2
#     Edge 67, Type (0, 1), BuildingBlock: MIFKUJ_clean_linker_0, # of connection points: 2
#     Edge 68, Type (0, 1), BuildingBlock: MIFKUJ_clean_linker_0, # of connection points: 2
#     Edge 69, Type (0, 1), BuildingBlock: MIFKUJ_clean_linker_0, # of connection points: 2
#     Edge 70, Type (0, 1), BuildingBlock: MIFKUJ_clean_linker_0, # of connection points: 2
#     Edge 71, Type (0, 1), BuildingBlock: MIFKUJ_clean_linker_0, # of connection points: 2
#     Edge 72, Type (0, 1), BuildingBlock: MIFKUJ_clean_linker_0, # of connection points: 2
#     Edge 73, Type (0, 1), BuildingBlock: MIFKUJ_clean_linker_0, # of connection points: 2
#     Edge 74, Type (0, 1), BuildingBlock: MIFKUJ_clean_linker_0, # of connection points: 2
#     Edge 75, Type (0, 1), BuildingBlock: MIFKUJ_clean_linker_0, # of connection points: 2
# Relax obj value: 0.003
# Max RMSD: 0.051
# Mean RMSD: 0.026
data_MOF--net-ctn--node1-TATPOV_clean_sbu_0--node2-BELTOD_clean_linker_0--edge1-MIFKUJ_clean_linker_0
_symmetry_space_group_name_H-M    P1
_symmetry_Int_Tables_number       1
_symmetry_cell_setting            triclinic
loop_
_symmetry_equiv_pos_as_xyz
'x, y, z'
_cell_length_a     78.538211
_cell_length_b     79.082267
_cell_length_c     78.412733
_cell_angle_alpha  90.282264
_cell_angle_beta   91.077453
_cell_angle_gamma 91.709571
loop_
_atom_site_label
_atom_site_type_symbol
_atom_site_fract_x
_atom_site_fract_y
_atom_site_fract_z
_atom_type_partial_charge
P0 P 0.05621 0.05702 0.06551 0.0
H1 H 0.05449 0.05313 0.10238 0.0
H2 H 0.03148 0.0451 0.12141 0.0
H3 H 0.99786 0.0361 0.0778 0.0
H4 H 0.02099 0.04463 0.05882 0.0
H5 H 0.0924 0.05438 0.05897 0.0
H6 H 0.10998 0.03096 0.05061 0.0
H7 H 0.06514 0.99796 0.04762 0.0
H8 H 0.04762 0.02152 0.05635 0.0
H9 H 0.0305 0.0827 0.06349 0.0
H10 H 0.06463 0.05876 0.02904 0.0
O11 O 0.06896 0.07024 0.07688 0.0
H12 H 0.02174 0.10188 0.04088 0.0
H13 H 0.05576 0.07774 0.00625 0.0
C14 C 0.03934 0.0498 0.07922 0.0
C15 C 0.04217 0.04943 0.0969 0.0
C16 C 0.029 0.04468 0.10779 0.0
C17 C 0.01274 0.04002 0.10118 0.0
C18 C 0.01012 0.0399 0.08335 0.0
C19 C 0.02334 0.0447 0.07247 0.0
C20 C 0.06876 0.03961 0.05862 0.0
C21 C 0.08634 0.0421 0.05656 0.0
C22 C 0.09637 0.0287 0.05161 0.0
C23 C 0.08901 0.01252 0.04848 0.0
C24 C 0.07127 0.01018 0.05019 0.0
C25 C 0.06122 0.02365 0.05513 0.0
C26 C 0.04797 0.06908 0.0479 0.0
C27 C 0.03581 0.0813 0.05093 0.0
C28 C 0.03079 0.09226 0.03796 0.0
C29 C 0.03802 0.09135 0.02171 0.0
C30 C 0.05004 0.07888 0.01865 0.0
C31 C 0.05502 0.06789 0.03165 0.0
P32 P 0.29814 0.68623 0.19372 0.0
H33 H 0.31047 0.70481 0.16415 0.0
H34 H 0.30126 0.73043 0.15001 0.0
H35 H 0.26236 0.73618 0.18771 0.0
H36 H 0.27153 0.71022 0.20165 0.0
H37 H 0.31044 0.66438 0.22079 0.0
H38 H 0.33021 0.66913 0.24493 0.0
H39 H 0.33675 0.72151 0.23023 0.0
H40 H 0.31667 0.71675 0.20649 0.0
H41 H 0.27706 0.66171 0.17447 0.0
H42 H 0.27816 0.68356 0.22497 0.0
O43 O 0.30926 0.67524 0.17978 0.0
H44 H 0.25246 0.64381 0.18192 0.0
H45 H 0.25383 0.66533 0.23274 0.0
C46 C 0.29147 0.70545 0.18375 0.0
C47 C 0.29993 0.71154 0.16936 0.0
C48 C 0.29474 0.72631 0.16137 0.0
C49 C 0.28105 0.73538 0.16771 0.0
C50 C 0.27279 0.72938 0.18237 0.0
C51 C 0.27804 0.71457 0.19037 0.0
C52 C 0.31181 0.69028 0.21207 0.0
C53 C 0.31596 0.67694 0.22294 0.0
C54 C 0.32739 0.67964 0.23664 0.0
C55 C 0.33504 0.69572 0.23958 0.0
C56 C 0.33085 0.70905 0.22856 0.0
C57 C 0.31938 0.70633 0.21491 0.0
C58 C 0.27968 0.67359 0.19931 0.0
C59 C 0.27206 0.66255 0.18721 0.0
C60 C 0.25803 0.65229 0.19152 0.0
C61 C 0.25131 0.65296 0.20801 0.0
C62 C 0.25864 0.66453 0.21992 0.0
C63 C 0.27266 0.67484 0.21556 0.0
P64 P 0.9738 0.48641 0.01808 0.0
H65 H 0.9569 0.47057 0.98866 0.0
H66 H 0.95451 0.44139 0.97841 0.0
H67 H 0.98255 0.42507 0.02307 0.0
H68 H 0.98403 0.45409 0.03363 0.0
H69 H 0.96424 0.52159 0.01914 0.0
H70 H 0.93688 0.53524 0.02195 0.0
H71 H 0.9118 0.48623 0.02733 0.0
H72 H 0.93923 0.47267 0.02457 0.0
H73 H 0.00968 0.4802 0.02372 0.0
H74 H 0.96771 0.49703 0.05353 0.0
O75 O 0.9835 0.49652 0.00218 0.0
H76 H 0.0283 0.48171 0.04916 0.0
H77 H 0.98636 0.49888 0.07885 0.0
C78 C 0.97087 0.46457 0.01173 0.0
C79 C 0.96235 0.46066 0.99631 0.0
C80 C 0.96112 0.44397 0.99042 0.0
C81 C 0.9686 0.43086 0.99976 0.0
C82 C 0.97656 0.43478 0.01557 0.0
C83 C 0.97759 0.45148 0.02155 0.0
C84 C 0.95367 0.49614 0.02123 0.0
C85 C 0.95285 0.5138 0.021 0.0
C86 C 0.93724 0.52158 0.02276 0.0
C87 C 0.92219 0.51179 0.02478 0.0
C88 C 0.92317 0.49408 0.02558 0.0
C89 C 0.93883 0.48632 0.02396 0.0
C90 C 0.98738 0.48857 0.03673 0.0
C91 C 0.00454 0.48439 0.03569 0.0
C92 C 0.01513 0.48521 0.05019 0.0
C93 C 0.00875 0.49048 0.06589 0.0
C94 C 0.99162 0.49498 0.06683 0.0
C95 C 0.98095 0.49388 0.05237 0.0
P96 P 0.69168 0.80429 0.19627 0.0
H97 H 0.70269 0.83706 0.18285 0.0
H98 H 0.72654 0.85641 0.18994 0.0
H99 H 0.74486 0.82095 0.22731 0.0
H100 H 0.72068 0.80168 0.22026 0.0
H101 H 0.68469 0.79674 0.16023 0.0
H102 H 0.69367 0.77424 0.14133 0.0
H103 H 0.72264 0.75273 0.18284 0.0
H104 H 0.7136 0.77544 0.20176 0.0
H105 H 0.69076 0.81539 0.23215 0.0
H106 H 0.66921 0.77482 0.20088 0.0
O107 O 0.67697 0.81546 0.18608 0.0
H108 H 0.67356 0.80569 0.2561 0.0
H109 H 0.65177 0.76529 0.22471 0.0
C110 C 0.70971 0.81812 0.20133 0.0
C111 C 0.7118 0.83343 0.19259 0.0
C112 C 0.72557 0.84442 0.19654 0.0
C113 C 0.73758 0.84025 0.20923 0.0
C114 C 0.73569 0.82463 0.21763 0.0
C115 C 0.72192 0.8136 0.2136 0.0
C116 C 0.69841 0.78768 0.18241 0.0
C117 C 0.69293 0.78718 0.16531 0.0
C118 C 0.69802 0.77425 0.15452 0.0
C119 C 0.70878 0.76165 0.16061 0.0
C120 C 0.71443 0.76232 0.17775 0.0
C121 C 0.70924 0.77524 0.18857 0.0
C122 C 0.68162 0.79555 0.21484 0.0
C123 C 0.68274 0.8041 0.23056 0.0
C124 C 0.67287 0.79858 0.24425 0.0
C125 C 0.66139 0.78471 0.24226 0.0
C126 C 0.66053 0.776 0.22659 0.0
C127 C 0.67057 0.78139 0.21301 0.0
P128 P 0.07339 0.92617 0.44067 0.0
H129 H 0.10791 0.93103 0.45429 0.0
H130 H 0.12332 0.95538 0.46705 0.0
H131 H 0.07889 0.98565 0.4594 0.0
H132 H 0.06343 0.96108 0.44722 0.0
H133 H 0.05641 0.89297 0.44049 0.0
H134 H 0.04572 0.87462 0.46327 0.0
H135 H 0.06164 0.91243 0.50068 0.0
H136 H 0.07222 0.93064 0.47801 0.0
H137 H 0.07424 0.9411 0.40694 0.0
H138 H 0.03605 0.92682 0.44338 0.0
O139 O 0.08692 0.91484 0.42949 0.0
H140 H 0.05214 0.9518 0.38783 0.0
H141 H 0.01382 0.93685 0.42414 0.0
C142 C 0.08474 0.9444 0.44938 0.0
C143 C 0.10156 0.94295 0.45528 0.0
C144 C 0.11033 0.95689 0.46256 0.0
C145 C 0.10239 0.97253 0.46412 0.0
C146 C 0.08535 0.97378 0.45853 0.0
C147 C 0.07657 0.95979 0.45133 0.0
C148 C 0.06521 0.91309 0.45753 0.0
C149 C 0.05756 0.89728 0.45361 0.0
C150 C 0.05141 0.88686 0.46661 0.0
C151 C 0.05294 0.89207 0.48375 0.0
C152 C 0.06052 0.90798 0.48761 0.0
C153 C 0.06652 0.91844 0.4746 0.0
C154 C 0.05675 0.9329 0.4264 0.0
C155 C 0.06105 0.94003 0.41068 0.0
C156 C 0.04839 0.94608 0.39976 0.0
C157 C 0.03116 0.94513 0.40439 0.0
C158 C 0.02695 0.93796 0.42023 0.0
C159 C 0.03965 0.93202 0.43118 0.0
P160 P 0.23258 0.74447 0.76466 0.0
H161 H 0.25481 0.74808 0.79453 0.0
H162 H 0.25046 0.75856 0.82341 0.0
H163 H 0.197 0.76444 0.81147 0.0
H164 H 0.20159 0.75451 0.78248 0.0
H165 H 0.2597 0.73306 0.74286 0.0
H166 H 0.27593 0.70726 0.74213 0.0
H167 H 0.24595 0.68686 0.78334 0.0
H168 H 0.23019 0.71306 0.78437 0.0
H169 H 0.21753 0.76598 0.73859 0.0
H170 H 0.20459 0.71904 0.76365 0.0
O171 O 0.24492 0.75983 0.7565 0.0
H172 H 0.19068 0.76423 0.72247 0.0
H173 H 0.17766 0.71708 0.74735 0.0
C174 C 0.22853 0.75035 0.7864 0.0
C175 C 0.24212 0.75146 0.79821 0.0
C176 C 0.23958 0.75738 0.81476 0.0
C177 C 0.22335 0.76234 0.81982 0.0
C178 C 0.20969 0.76093 0.80797 0.0
C179 C 0.21228 0.75507 0.79139 0.0
C180 C 0.24396 0.72506 0.76386 0.0
C181 C 0.25667 0.72305 0.75178 0.0
C182 C 0.26584 0.70819 0.75128 0.0
C183 C 0.26233 0.69494 0.76272 0.0
C184 C 0.24924 0.6969 0.77455 0.0
C185 C 0.24013 0.71183 0.7751 0.0
C186 C 0.21317 0.7425 0.75212 0.0
C187 C 0.20901 0.75516 0.74047 0.0
C188 C 0.19366 0.75412 0.7312 0.0
C189 C 0.18208 0.74045 0.73353 0.0
C190 C 0.18627 0.7278 0.74532 0.0
C191 C 0.20171 0.72883 0.75454 0.0
P192 P 0.97797 0.51695 0.48895 0.0
H193 H 0.01333 0.51456 0.47893 0.0
H194 H 0.02728 0.51616 0.45132 0.0
H195 H 0.97899 0.5266 0.42687 0.0
H196 H 0.96513 0.52496 0.45451 0.0
H197 H 0.96047 0.52725 0.5194 0.0
H198 H 0.96153 0.55321 0.5365 0.0
H199 H 0.99916 0.57489 0.50288 0.0
H200 H 0.99801 0.54892 0.48577 0.0
H201 H 0.96204 0.48326 0.4863 0.0
H202 H 0.94604 0.53489 0.48399 0.0
O203 O 0.98817 0.50243 0.50026 0.0
H204 H 0.93246 0.47324 0.48283 0.0
H205 H 0.91635 0.52497 0.48035 0.0
C206 C 0.98816 0.51924 0.46869 0.0
C207 C 0.00577 0.51725 0.46762 0.0
C208 C 0.01374 0.51832 0.45187 0.0
C209 C 0.0042 0.52141 0.43692 0.0
C210 C 0.98662 0.52397 0.43815 0.0
C211 C 0.97869 0.52303 0.45394 0.0
C212 C 0.97887 0.53629 0.50112 0.0
C213 C 0.96885 0.53764 0.51563 0.0
C214 C 0.96946 0.55246 0.52538 0.0
C215 C 0.98035 0.56609 0.52094 0.0
C216 C 0.99071 0.56455 0.50662 0.0
C217 C 0.98996 0.54975 0.49677 0.0
C218 C 0.95616 0.50978 0.48583 0.0
C219 C 0.95214 0.49243 0.48504 0.0
C220 C 0.93523 0.48674 0.48291 0.0
C221 C 0.92204 0.49832 0.48139 0.0
C222 C 0.92619 0.51574 0.48176 0.0
C223 C 0.94314 0.52142 0.48383 0.0
P224 P 0.82396 0.83808 0.83763 0.0
H225 H 0.8494 0.85324 0.81546 0.0
H226 H 0.86796 0.84146 0.79388 0.0
H227 H 0.84868 0.79121 0.80542 0.0
H228 H 0.82991 0.80298 0.82665 0.0
H229 H 0.79298 0.8523 0.85035 0.0
H230 H 0.76944 0.86694 0.8366 0.0
H231 H 0.79372 0.86224 0.78793 0.0
H232 H 0.81705 0.84737 0.80161 0.0
H233 H 0.83438 0.82562 0.87121 0.0
H234 H 0.79456 0.81475 0.83381 0.0
O235 O 0.83485 0.85237 0.84954 0.0
H236 H 0.82276 0.80331 0.88954 0.0
H237 H 0.78264 0.79269 0.85217 0.0
C238 C 0.8383 0.82902 0.82269 0.0
C239 C 0.84924 0.83968 0.81341 0.0
C240 C 0.85977 0.83297 0.80107 0.0
C241 C 0.85973 0.81544 0.79806 0.0
C242 C 0.84904 0.80475 0.80764 0.0
C243 C 0.83828 0.8115 0.81975 0.0
C244 C 0.80675 0.84865 0.82705 0.0
C245 C 0.79319 0.85432 0.8367 0.0
C246 C 0.77974 0.86263 0.82884 0.0
C247 C 0.77977 0.86567 0.8112 0.0
C248 C 0.79345 0.86014 0.80157 0.0
C249 C 0.8068 0.85161 0.80941 0.0
C250 C 0.81513 0.82202 0.85133 0.0
C251 C 0.82302 0.81856 0.86705 0.0
C252 C 0.81632 0.80585 0.87753 0.0
C253 C 0.80171 0.7963 0.87236 0.0
C254 C 0.79397 0.79974 0.85648 0.0
C255 C 0.80067 0.81244 0.84604 0.0
P256 P 0.33267 0.33975 0.33864 0.0
H257 H 0.34292 0.35152 0.30498 0.0
H258 H 0.35947 0.33876 0.28245 0.0
H259 H 0.36707 0.29491 0.31403 0.0
H260 H 0.3505 0.30774 0.33653 0.0
H261 H 0.31785 0.37173 0.34859 0.0
H262 H 0.29404 0.38762 0.33699 0.0
H263 H 0.28619 0.34994 0.2973 0.0
H264 H 0.30994 0.33413 0.30898 0.0
H265 H 0.33726 0.33084 0.37471 0.0
H266 H 0.30747 0.31274 0.33125 0.0
O267 O 0.34559 0.35239 0.35046 0.0
H268 H 0.32496 0.30819 0.39211 0.0
H269 H 0.29465 0.29048 0.34863 0.0
C270 C 0.34503 0.33035 0.3222 0.0
C271 C 0.34801 0.33909 0.307 0.0
C272 C 0.35746 0.33179 0.29413 0.0
C273 C 0.3644 0.31576 0.29642 0.0
C274 C 0.36188 0.30728 0.31192 0.0
C275 C 0.3523 0.31455 0.32473 0.0
C276 C 0.3158 0.35189 0.3295 0.0
C277 C 0.31111 0.367 0.33729 0.0
C278 C 0.29754 0.37608 0.33063 0.0
C279 C 0.28829 0.37005 0.3162 0.0
C280 C 0.293 0.35484 0.3085 0.0
C281 C 0.30662 0.34584 0.31512 0.0
C282 C 0.32317 0.32355 0.35173 0.0
C283 C 0.32793 0.32212 0.36896 0.0
C284 C 0.3208 0.30921 0.37892 0.0
C285 C 0.30879 0.29752 0.37178 0.0
C286 C 0.30401 0.29912 0.3545 0.0
C287 C 0.3112 0.31197 0.34456 0.0
P288 P 0.48072 0.98793 0.51379 0.0
H289 H 0.47839 0.97122 0.48068 0.0
H290 H 0.47722 0.94152 0.47196 0.0
H291 H 0.47787 0.92655 0.52491 0.0
H292 H 0.47931 0.95633 0.53351 0.0
H293 H 0.47043 0.02283 0.51387 0.0
H294 H 0.44271 0.036 0.51496 0.0
H295 H 0.41799 0.9865 0.51701 0.0
H296 H 0.44579 0.97343 0.51569 0.0
H297 H 0.51651 0.99118 0.52412 0.0
H298 H 0.46775 0.98925 0.54855 0.0
O299 O 0.49234 0.99836 0.49942 0.0
H300 H 0.53088 0.99361 0.55202 0.0
H301 H 0.48197 0.99198 0.57644 0.0
C302 C 0.4793 0.96596 0.5077 0.0
C303 C 0.47831 0.96154 0.4904 0.0
C304 C 0.4775 0.94454 0.48545 0.0
C305 C 0.47751 0.93164 0.49775 0.0
C306 C 0.47812 0.93617 0.51513 0.0
C307 C 0.4789 0.9532 0.52006 0.0
C308 C 0.46011 0.99719 0.51432 0.0
C309 C 0.45902 0.01483 0.51446 0.0
C310 C 0.44318 0.02233 0.51527 0.0
C311 C 0.42814 0.01228 0.51606 0.0
C312 C 0.42933 0.99456 0.51619 0.0
C313 C 0.44521 0.98708 0.51542 0.0
C314 C 0.4911 0.99037 0.53429 0.0
C315 C 0.5089 0.99149 0.53549 0.0
C316 C 0.51708 0.99294 0.55143 0.0
C317 C 0.50755 0.99309 0.56643 0.0
C318 C 0.48967 0.9918 0.56513 0.0
C319 C 0.48152 0.99039 0.54919 0.0
P320 P 0.19951 0.30215 0.69885 0.0
H321 H 0.21323 0.33027 0.67907 0.0
H322 H 0.23632 0.35111 0.68453 0.0
H323 H 0.24946 0.32536 0.73122 0.0
H324 H 0.22633 0.30447 0.7256 0.0
H325 H 0.18253 0.28677 0.66899 0.0
H326 H 0.18995 0.2638 0.64995 0.0
H327 H 0.23588 0.25617 0.67978 0.0
H328 H 0.2282 0.27919 0.69903 0.0
H329 H 0.19448 0.31912 0.73133 0.0
H330 H 0.18409 0.26962 0.70955 0.0
O331 O 0.1844 0.31315 0.68909 0.0
H332 H 0.17967 0.31072 0.75712 0.0
H333 H 0.16866 0.26129 0.73508 0.0
C334 C 0.21776 0.31617 0.7022 0.0
C335 C 0.22116 0.32904 0.69042 0.0
C336 C 0.23444 0.34087 0.69349 0.0
C337 C 0.24458 0.33999 0.70841 0.0
C338 C 0.24167 0.32652 0.71976 0.0
C339 C 0.22846 0.3146 0.71658 0.0
C340 C 0.205 0.28488 0.68521 0.0
C341 C 0.19423 0.28022 0.67143 0.0
C342 C 0.19852 0.2671 0.66051 0.0
C343 C 0.21362 0.25831 0.66322 0.0
C344 C 0.22415 0.26269 0.67738 0.0
C345 C 0.21985 0.27589 0.68831 0.0
C346 C 0.19076 0.29489 0.71867 0.0
C347 C 0.18928 0.30633 0.73222 0.0
C348 C 0.18061 0.30156 0.7469 0.0
C349 C 0.17288 0.28534 0.74817 0.0
C350 C 0.17468 0.27378 0.73467 0.0
C351 C 0.18348 0.27855 0.72001 0.0
P352 P 0.80626 0.1891 0.69619 0.0
H353 H 0.82359 0.22191 0.69194 0.0
H354 H 0.81556 0.2477 0.67721 0.0
H355 H 0.76621 0.22475 0.66477 0.0
H356 H 0.77417 0.19922 0.67995 0.0
H357 H 0.83504 0.17053 0.70953 0.0
H358 H 0.85464 0.1754 0.73375 0.0
H359 H 0.82649 0.21914 0.74833 0.0
H360 H 0.807 0.21424 0.72394 0.0
H361 H 0.79207 0.15769 0.68126 0.0
H362 H 0.78108 0.19092 0.72314 0.0
O363 O 0.81742 0.17962 0.68117 0.0
H364 H 0.76812 0.13908 0.68885 0.0
H365 H 0.75717 0.17212 0.73107 0.0
C366 C 0.79935 0.20879 0.68741 0.0
C367 C 0.81089 0.22259 0.6864 0.0
C368 C 0.80634 0.23727 0.67781 0.0
C369 C 0.79023 0.23831 0.66978 0.0
C370 C 0.77859 0.22452 0.67107 0.0
C371 C 0.78316 0.20986 0.67972 0.0
C372 C 0.81991 0.19232 0.71468 0.0
C373 C 0.83309 0.18116 0.71795 0.0
C374 C 0.84418 0.18386 0.7319 0.0
C375 C 0.84221 0.19775 0.74288 0.0
C376 C 0.82852 0.20851 0.73994 0.0
C377 C 0.81738 0.20573 0.72601 0.0
C378 C 0.78847 0.17555 0.70179 0.0
C379 C 0.78456 0.16093 0.69217 0.0
C380 C 0.77089 0.15025 0.69657 0.0
C381 C 0.76084 0.15403 0.71067 0.0
C382 C 0.76461 0.1689 0.7201 0.0
C383 C 0.77833 0.17959 0.71566 0.0
P384 P 0.5629 0.5574 0.56176 0.0
H385 H 0.5602 0.56025 0.59874 0.0
H386 H 0.53784 0.55231 0.61855 0.0
H387 H 0.50691 0.5321 0.57662 0.0
H388 H 0.52965 0.53986 0.55681 0.0
H389 H 0.59364 0.543 0.57611 0.0
H390 H 0.61071 0.51914 0.56791 0.0
H391 H 0.57507 0.50728 0.5266 0.0
H392 H 0.55805 0.53144 0.53488 0.0
H393 H 0.5328 0.57797 0.55692 0.0
H394 H 0.5754 0.56273 0.52717 0.0
O395 O 0.57619 0.5711 0.57187 0.0
H396 H 0.5235 0.5962 0.53372 0.0
H397 H 0.5663 0.58112 0.50398 0.0
C398 C 0.54643 0.55094 0.57626 0.0
C399 C 0.54861 0.55415 0.59377 0.0
C400 C 0.53575 0.54966 0.6051 0.0
C401 C 0.52045 0.54178 0.59917 0.0
C402 C 0.51853 0.53812 0.58163 0.0
C403 C 0.53146 0.54262 0.57028 0.0
C404 C 0.57483 0.53923 0.55584 0.0
C405 C 0.58949 0.5353 0.56527 0.0
C406 C 0.59917 0.52154 0.56065 0.0
C407 C 0.59431 0.51133 0.54654 0.0
C408 C 0.5793 0.51505 0.53738 0.0
C409 C 0.56955 0.52881 0.5421 0.0
C410 C 0.55448 0.56853 0.54359 0.0
C411 C 0.53994 0.57821 0.54524 0.0
C412 C 0.53474 0.58882 0.53203 0.0
C413 C 0.54414 0.59013 0.51697 0.0
C414 C 0.55859 0.5802 0.51527 0.0
C415 C 0.5638 0.56963 0.52853 0.0
P416 P 0.57028 0.42202 0.93543 0.0
H417 H 0.60404 0.4265 0.95101 0.0
H418 H 0.61923 0.45085 0.96405 0.0
H419 H 0.5758 0.48174 0.95342 0.0
H420 H 0.56054 0.45719 0.94099 0.0
H421 H 0.55544 0.38787 0.93491 0.0
H422 H 0.54407 0.36941 0.95727 0.0
H423 H 0.55444 0.40892 0.9946 0.0
H424 H 0.56567 0.42727 0.9723 0.0
H425 H 0.57223 0.43864 0.90258 0.0
H426 H 0.53274 0.421 0.93619 0.0
O427 O 0.58417 0.41079 0.9246 0.0
H428 H 0.55068 0.44949 0.88295 0.0
H429 H 0.51111 0.43117 0.91637 0.0
C430 C 0.58139 0.44018 0.94462 0.0
C431 C 0.59785 0.43855 0.95144 0.0
C432 C 0.6065 0.45249 0.95887 0.0
C433 C 0.5988 0.46831 0.95964 0.0
C434 C 0.58207 0.46973 0.95316 0.0
C435 C 0.57341 0.45574 0.94583 0.0
C436 C 0.56159 0.40882 0.95196 0.0
C437 C 0.55524 0.39253 0.94792 0.0
C438 C 0.54869 0.38205 0.96067 0.0
C439 C 0.54848 0.38771 0.97769 0.0
C440 C 0.55468 0.40414 0.98164 0.0
C441 C 0.56108 0.41465 0.96886 0.0
C442 C 0.55408 0.42882 0.92069 0.0
C443 C 0.55889 0.43687 0.90558 0.0
C444 C 0.54655 0.443 0.89434 0.0
C445 C 0.52912 0.44117 0.89802 0.0
C446 C 0.52439 0.433 0.91321 0.0
C447 C 0.53677 0.42699 0.9245 0.0
P448 P 0.72945 0.23825 0.26368 0.0
H449 H 0.75293 0.25442 0.28825 0.0
H450 H 0.74944 0.26564 0.31706 0.0
H451 H 0.69639 0.24952 0.31531 0.0
H452 H 0.7 0.2382 0.28654 0.0
H453 H 0.7476 0.22096 0.23706 0.0
H454 H 0.76374 0.195 0.23661 0.0
H455 H 0.75266 0.18702 0.28984 0.0
H456 H 0.73607 0.21262 0.28995 0.0
H457 H 0.70381 0.26273 0.25567 0.0
H458 H 0.71052 0.20941 0.24729 0.0
O459 O 0.74118 0.25277 0.25346 0.0
H460 H 0.6764 0.26081 0.24033 0.0
H461 H 0.68316 0.20744 0.23185 0.0
C462 C 0.72667 0.24582 0.28513 0.0
C463 C 0.74056 0.25329 0.29408 0.0
C464 C 0.73856 0.25961 0.31057 0.0
C465 C 0.7226 0.25856 0.31839 0.0
C466 C 0.70877 0.25074 0.3095 0.0
C467 C 0.71084 0.24426 0.29305 0.0
C468 C 0.74086 0.21883 0.26357 0.0
C469 C 0.74865 0.21357 0.24861 0.0
C470 C 0.75795 0.19878 0.24841 0.0
C471 C 0.75965 0.18895 0.26323 0.0
C472 C 0.75151 0.19415 0.27814 0.0
C473 C 0.74211 0.2089 0.27827 0.0
C474 C 0.70921 0.23626 0.25257 0.0
C475 C 0.69935 0.25061 0.25054 0.0
C476 C 0.68367 0.24948 0.24187 0.0
C477 C 0.67764 0.23397 0.23491 0.0
C478 C 0.68756 0.21958 0.23696 0.0
C479 C 0.7032 0.2207 0.24582 0.0
P480 P 0.47242 0.01408 0.98562 0.0
H481 H 0.50704 0.00448 0.97865 0.0
H482 H 0.52499 0.00755 0.95371 0.0
H483 H 0.48435 0.03252 0.92687 0.0
H484 H 0.46647 0.02954 0.95207 0.0
H485 H 0.46829 0.01801 0.02217 0.0
H486 H 0.47115 0.04247 0.04141 0.0
H487 H 0.48709 0.07376 0.9993 0.0
H488 H 0.48395 0.04937 0.98006 0.0
H489 H 0.45435 0.99253 0.96061 0.0
H490 H 0.44131 0.02891 0.99906 0.0
O491 O 0.47825 0.99668 0.99586 0.0
H492 H 0.4241 0.98504 0.95621 0.0
H493 H 0.41122 0.02142 0.99477 0.0
C494 C 0.4853 0.01637 0.96701 0.0
C495 C 0.50194 0.01051 0.96736 0.0
C496 C 0.51219 0.01227 0.9531 0.0
C497 C 0.50601 0.02012 0.93826 0.0
C498 C 0.48947 0.02646 0.93813 0.0
C499 C 0.47919 0.02461 0.95244 0.0
C500 C 0.47611 0.03183 0.99976 0.0
C501 C 0.47261 0.03009 0.01713 0.0
C502 C 0.47416 0.04405 0.02807 0.0
C503 C 0.47942 0.05993 0.02182 0.0
C504 C 0.48323 0.06158 0.00446 0.0
C505 C 0.48141 0.04766 0.99346 0.0
C506 C 0.45014 0.01129 0.98011 0.0
C507 C 0.44498 0.99919 0.9678 0.0
C508 C 0.42769 0.99496 0.96527 0.0
C509 C 0.41532 0.00261 0.97521 0.0
C510 C 0.4205 0.01524 0.98703 0.0
C511 C 0.43775 0.01954 0.98946 0.0
Zn512 Zn 0.27136 0.8536 0.00438 0.0
Zn513 Zn 0.24405 0.87225 0.00711 0.0
O514 O 0.24618 0.86049 0.03082 0.0
O515 O 0.27007 0.84677 0.02881 0.0
O516 O 0.22391 0.88749 0.00959 0.0
O517 O 0.28585 0.87379 0.99821 0.0
O518 O 0.26346 0.88954 0.00116 0.0
C519 C 0.2575 0.85116 0.03746 0.0
C520 C 0.24471 0.84369 0.98045 0.0
O521 O 0.23718 0.85616 0.98703 0.0
O522 O 0.25929 0.83972 0.98602 0.0
C523 C 0.2106 0.88345 0.01782 0.0
O524 O 0.20941 0.86846 0.02492 0.0
C525 C 0.27922 0.88817 0.99788 0.0
Zn526 Zn 0.1016 0.45871 0.25848 0.0
Zn527 Zn 0.11886 0.48889 0.25646 0.0
O528 O 0.10361 0.49322 0.27682 0.0
O529 O 0.08843 0.46934 0.27768 0.0
O530 O 0.13279 0.51032 0.253 0.0
O531 O 0.12377 0.44709 0.26352 0.0
O532 O 0.13736 0.47168 0.26122 0.0
C533 C 0.09185 0.4841 0.28342 0.0
C534 C 0.09682 0.47484 0.22629 0.0
O535 O 0.10597 0.48644 0.23353 0.0
O536 O 0.09343 0.46118 0.23405 0.0
C537 C 0.12881 0.5252 0.25727 0.0
O538 O 0.11447 0.52751 0.26519 0.0
C539 C 0.13757 0.4558 0.26383 0.0
Zn540 Zn 0.74526 0.61324 0.96604 0.0
Zn541 Zn 0.74241 0.62753 0.99683 0.0
O542 O 0.7632 0.61268 0.0007 0.0
O543 O 0.76476 0.59993 0.97576 0.0
O544 O 0.73906 0.63937 0.01929 0.0
O545 O 0.74954 0.63594 0.9553 0.0
O546 O 0.7466 0.64763 0.98055 0.0
C547 C 0.77023 0.60213 0.99094 0.0
C548 C 0.71323 0.60527 0.98099 0.0
O549 O 0.71984 0.61371 0.99347 0.0
O550 O 0.72136 0.60369 0.96732 0.0
C551 C 0.75134 0.6453 0.0285 0.0
O552 O 0.76706 0.64326 0.0236 0.0
C553 C 0.74929 0.64903 0.96463 0.0
Zn554 Zn 0.85676 0.00278 0.29213 0.0
Zn555 Zn 0.87472 0.00637 0.26375 0.0
O556 O 0.86201 0.029 0.26515 0.0
O557 O 0.8463 0.0253 0.28787 0.0
O558 O 0.88976 0.00895 0.24319 0.0
O559 O 0.87804 0.00113 0.30661 0.0
O560 O 0.89257 0.00216 0.28291 0.0
C561 C 0.85088 0.03433 0.27539 0.0
C562 C 0.84852 0.97703 0.26695 0.0
O563 O 0.8591 0.98551 0.25798 0.0
O564 O 0.84565 0.9816 0.2821 0.0
C565 C 0.8851 0.01517 0.22898 0.0
O566 O 0.86943 0.0203 0.22707 0.0
C567 C 0.89213 0.00063 0.29908 0.0
Zn568 Zn 0.24895 0.11418 0.46531 0.0
Zn569 Zn 0.24826 0.1293 0.49581 0.0
O570 O 0.26872 0.1139 0.49916 0.0
O571 O 0.26812 0.10019 0.47461 0.0
O572 O 0.24655 0.14252 0.51769 0.0
O573 O 0.25394 0.13622 0.45351 0.0
O574 O 0.25216 0.1486 0.47856 0.0
C575 C 0.27461 0.10265 0.48936 0.0
C576 C 0.21751 0.10795 0.48218 0.0
O577 O 0.22516 0.11617 0.49422 0.0
O578 O 0.22472 0.10596 0.46804 0.0
C579 C 0.24868 0.13696 0.53274 0.0
O580 O 0.25266 0.12109 0.53497 0.0
C581 C 0.25438 0.14955 0.46252 0.0
Zn582 Zn 0.35844 0.5086 0.78628 0.0
Zn583 Zn 0.37629 0.51191 0.75758 0.0
O584 O 0.36415 0.53477 0.76006 0.0
O585 O 0.3501 0.53226 0.78399 0.0
O586 O 0.39102 0.51576 0.73689 0.0
O587 O 0.37974 0.50435 0.79995 0.0
O588 O 0.39423 0.50622 0.77625 0.0
C589 C 0.35437 0.54094 0.77116 0.0
C590 C 0.3485 0.48411 0.75999 0.0
O591 O 0.36001 0.49173 0.7514 0.0
O592 O 0.34547 0.48896 0.77502 0.0
C593 C 0.39452 0.50437 0.72609 0.0
O594 O 0.38795 0.48902 0.72785 0.0
C595 C 0.39375 0.50369 0.7923 0.0
Zn596 Zn 0.77622 0.35362 0.49749 0.0
Zn597 Zn 0.74837 0.37008 0.50373 0.0
O598 O 0.75342 0.3576 0.52647 0.0
O599 O 0.77797 0.34591 0.52174 0.0
O600 O 0.72748 0.38333 0.50924 0.0
O601 O 0.78841 0.37486 0.49017 0.0
O602 O 0.76603 0.38908 0.49758 0.0
C603 C 0.76592 0.34894 0.53169 0.0
C604 C 0.74837 0.34251 0.47586 0.0
O605 O 0.74072 0.35435 0.48343 0.0
O606 O 0.76356 0.33931 0.48008 0.0
C607 C 0.71979 0.39201 0.49803 0.0
O608 O 0.72525 0.39197 0.4823 0.0
C609 C 0.78116 0.38881 0.49197 0.0
Zn610 Zn 0.5995 0.96687 0.76106 0.0
Zn611 Zn 0.61919 0.9951 0.75635 0.0
O612 O 0.60651 0.00113 0.77819 0.0
O613 O 0.59134 0.97772 0.78269 0.0
O614 O 0.63498 0.01509 0.75217 0.0
O615 O 0.62042 0.95264 0.76226 0.0
O616 O 0.6361 0.97588 0.75894 0.0
C617 C 0.59603 0.99258 0.78718 0.0
C618 C 0.59217 0.98397 0.72948 0.0
O619 O 0.60415 0.994 0.73473 0.0
O620 O 0.58764 0.97137 0.73842 0.0
C621 C 0.63064 0.03043 0.75277 0.0
O622 O 0.6149 0.03392 0.75655 0.0
C623 C 0.63492 0.95994 0.76112 0.0
Zn624 Zn 0.00221 0.28035 0.86272 0.0
Zn625 Zn 0.00666 0.25411 0.88231 0.0
O626 O 0.02962 0.25701 0.8695 0.0
O627 O 0.02554 0.27922 0.85331 0.0
O628 O 0.01101 0.23398 0.89749 0.0
O629 O 0.99833 0.29522 0.88267 0.0
O630 O 0.00129 0.27337 0.89961 0.0
C631 C 0.03506 0.26763 0.85851 0.0
C632 C 0.97784 0.25379 0.85512 0.0
O633 O 0.98601 0.24622 0.86691 0.0
O634 O 0.98234 0.26867 0.85094 0.0
C635 C 0.99931 0.22666 0.90597 0.0
O636 O 0.98375 0.23227 0.90486 0.0
C637 C 0.99843 0.28905 0.89752 0.0
Zn638 Zn 0.48848 0.7773 0.36229 0.0
Zn639 Zn 0.49753 0.75155 0.3813 0.0
O640 O 0.51888 0.7554 0.36642 0.0
O641 O 0.51052 0.77604 0.34979 0.0
O642 O 0.50365 0.73234 0.39702 0.0
O643 O 0.48624 0.79242 0.38248 0.0
O644 O 0.49323 0.77096 0.39866 0.0
C645 C 0.52169 0.76561 0.35416 0.0
C646 C 0.46554 0.74918 0.35775 0.0
O647 O 0.4761 0.74209 0.3678 0.0
O648 O 0.46779 0.76453 0.35373 0.0
C649 C 0.50696 0.71756 0.3918 0.0
O650 O 0.50668 0.7144 0.37533 0.0
C651 C 0.48885 0.7863 0.39712 0.0
Zn652 Zn 0.95654 0.75443 0.61829 0.0
Zn653 Zn 0.98635 0.75147 0.63564 0.0
O654 O 0.99138 0.77107 0.61916 0.0
O655 O 0.96759 0.77276 0.60404 0.0
O656 O 0.00851 0.74905 0.64871 0.0
O657 O 0.94518 0.76056 0.64021 0.0
O658 O 0.96916 0.75658 0.65444 0.0
C659 C 0.98279 0.77781 0.60717 0.0
C660 C 0.97109 0.72176 0.6144 0.0
O661 O 0.98307 0.72849 0.62355 0.0
O662 O 0.95792 0.73 0.61083 0.0
C663 C 0.02261 0.74954 0.641 0.0
O664 O 0.02256 0.75168 0.62439 0.0
C665 C 0.95346 0.76024 0.65421 0.0
Zn666 Zn 0.45508 0.24919 0.11486 0.0
Zn667 Zn 0.48549 0.24768 0.13159 0.0
O668 O 0.48997 0.26644 0.11413 0.0
O669 O 0.46574 0.26704 0.09958 0.0
O670 O 0.5078 0.2462 0.14456 0.0
O671 O 0.44405 0.25597 0.13681 0.0
O672 O 0.46863 0.2535 0.15039 0.0
C673 C 0.48094 0.27246 0.10207 0.0
C674 C 0.47016 0.21666 0.11237 0.0
O675 O 0.48226 0.2241 0.12076 0.0
O676 O 0.45671 0.22442 0.1087 0.0
C677 C 0.52075 0.23988 0.13777 0.0
O678 O 0.51957 0.23444 0.12192 0.0
C679 C 0.45281 0.25661 0.15054 0.0
H680 H 0.23772 0.75233 0.85015 0.0
H681 H 0.23562 0.76574 0.87806 0.0
H682 H 0.20095 0.80178 0.85695 0.0
H683 H 0.20366 0.78895 0.82876 0.0
H684 H 0.22426 0.81757 0.87566 0.0
H685 H 0.18727 0.76982 0.88448 0.0
H686 H 0.17815 0.73971 0.88425 0.0
H687 H 0.2191 0.72838 0.91899 0.0
H688 H 0.22863 0.75838 0.91925 0.0
H689 H 0.218 0.85251 0.95942 0.0
H690 H 0.20824 0.83812 0.93303 0.0
H691 H 0.24484 0.79934 0.94168 0.0
H692 H 0.25451 0.81344 0.96792 0.0
H693 H 0.21474 0.78599 0.92932 0.0
H694 H 0.25409 0.83264 0.91617 0.0
H695 H 0.26359 0.86265 0.91621 0.0
H696 H 0.21769 0.87578 0.88944 0.0
H697 H 0.20782 0.84584 0.88944 0.0
C698 C 0.22966 0.76313 0.8514 0.0
C699 C 0.22091 0.76957 0.83715 0.0
C700 C 0.22828 0.77065 0.86746 0.0
C701 C 0.21793 0.78465 0.8697 0.0
C702 C 0.20894 0.79094 0.85557 0.0
C703 C 0.21039 0.78348 0.83947 0.0
C704 C 0.21748 0.79335 0.88653 0.0
C705 C 0.22176 0.81071 0.88735 0.0
C706 C 0.21445 0.78442 0.90185 0.0
C707 C 0.20872 0.76635 0.9018 0.0
C708 C 0.1944 0.76089 0.89198 0.0
C709 C 0.18915 0.74384 0.89186 0.0
C710 C 0.19805 0.73214 0.90157 0.0
C711 C 0.21221 0.73746 0.91146 0.0
C712 C 0.21753 0.75449 0.91163 0.0
C713 C 0.22376 0.84077 0.95582 0.0
C714 C 0.23716 0.83422 0.96567 0.0
C715 C 0.21821 0.8326 0.94072 0.0
C716 C 0.22596 0.81776 0.9353 0.0
C717 C 0.23869 0.81077 0.9456 0.0
C718 C 0.24427 0.81893 0.96057 0.0
C719 C 0.22189 0.81001 0.91838 0.0
C720 C 0.21681 0.79286 0.91756 0.0
C721 C 0.22417 0.81911 0.90305 0.0
C722 C 0.23013 0.83706 0.90299 0.0
C723 C 0.24597 0.84195 0.91041 0.0
C724 C 0.25143 0.85894 0.91041 0.0
C725 C 0.24122 0.87112 0.90288 0.0
C726 C 0.22556 0.86633 0.8953 0.0
C727 C 0.22003 0.84936 0.89529 0.0
H728 H 0.24547 0.88427 0.90289 0.0
H729 H 0.19397 0.71894 0.90146 0.0
H730 H 0.99229 0.50531 0.40809 0.0
H731 H 0.007 0.50194 0.38114 0.0
H732 H 0.04945 0.53249 0.40069 0.0
H733 H 0.03471 0.53606 0.42774 0.0
H734 H 0.04008 0.53887 0.36536 0.0
H735 H 0.05348 0.49276 0.40285 0.0
H736 H 0.04649 0.46921 0.42223 0.0
H737 H 0.01785 0.44377 0.38204 0.0
H738 H 0.02446 0.46732 0.36248 0.0
H739 H 0.10062 0.51044 0.30503 0.0
H740 H 0.08549 0.51937 0.3304 0.0
H741 H 0.04602 0.4814 0.31981 0.0
H742 H 0.06136 0.47205 0.29492 0.0
H743 H 0.05478 0.47987 0.3514 0.0
H744 H 0.04071 0.52529 0.31371 0.0
H745 H 0.04659 0.54887 0.294 0.0
H746 H 0.07509 0.57554 0.33348 0.0
H747 H 0.06957 0.55201 0.35337 0.0
C748 C 0.0046 0.51161 0.40654 0.0
C749 C 0.0124 0.52088 0.42005 0.0
C750 C 0.01301 0.5096 0.39118 0.0
C751 C 0.02934 0.51686 0.38902 0.0
C752 C 0.03685 0.5268 0.40215 0.0
C753 C 0.02849 0.52871 0.4176 0.0
C754 C 0.03903 0.51294 0.37356 0.0
C755 C 0.0435 0.52602 0.36234 0.0
C756 C 0.04318 0.49613 0.36956 0.0
C757 C 0.03933 0.48188 0.38126 0.0
C758 C 0.04558 0.48221 0.39818 0.0
C759 C 0.0417 0.46885 0.40919 0.0
C760 C 0.0317 0.45502 0.40338 0.0
C761 C 0.02558 0.4545 0.38653 0.0
C762 C 0.0294 0.46785 0.37547 0.0
C763 C 0.08865 0.5041 0.30806 0.0
C764 C 0.08224 0.49047 0.29804 0.0
C765 C 0.07996 0.50927 0.32252 0.0
C766 C 0.06453 0.50114 0.32698 0.0
C767 C 0.05794 0.48782 0.3167 0.0
C768 C 0.06672 0.4825 0.30245 0.0
C769 C 0.05564 0.50575 0.34283 0.0
C770 C 0.05138 0.49276 0.35427 0.0
C771 C 0.05158 0.52263 0.34689 0.0
C772 C 0.05487 0.53681 0.33497 0.0
C773 C 0.04834 0.53613 0.31815 0.0
C774 C 0.05159 0.54949 0.30696 0.0
C775 C 0.06125 0.56367 0.31247 0.0
C776 C 0.06764 0.56454 0.32922 0.0
C777 C 0.06444 0.5512 0.34046 0.0
H778 H 0.06375 0.57401 0.30379 0.0
H779 H 0.02871 0.44469 0.41192 0.0
H780 H 0.79778 0.79674 0.90702 0.0
H781 H 0.78674 0.77385 0.92501 0.0
H782 H 0.77883 0.7421 0.88049 0.0
H783 H 0.78989 0.76484 0.86248 0.0
H784 H 0.75193 0.7399 0.90129 0.0
H785 H 0.81322 0.7376 0.90704 0.0
H786 H 0.84208 0.74918 0.91379 0.0
H787 H 0.82732 0.75964 0.96514 0.0
H788 H 0.79828 0.74832 0.95862 0.0
H789 H 0.75136 0.65642 0.93083 0.0
H790 H 0.75771 0.68373 0.91786 0.0
H791 H 0.7608 0.70717 0.96765 0.0
H792 H 0.75449 0.67968 0.98087 0.0
H793 H 0.78791 0.71625 0.94753 0.0
H794 H 0.72741 0.71489 0.94241 0.0
H795 H 0.69888 0.70266 0.93541 0.0
H796 H 0.7122 0.69862 0.88272 0.0
H797 H 0.74091 0.71061 0.88943 0.0
C798 C 0.79378 0.78484 0.90108 0.0
C799 C 0.79475 0.78259 0.88332 0.0
C800 C 0.78743 0.7718 0.91137 0.0
C801 C 0.78208 0.75624 0.9041 0.0
C802 C 0.78282 0.75404 0.88636 0.0
C803 C 0.78912 0.76706 0.87608 0.0
C804 C 0.77598 0.74204 0.91489 0.0
C805 C 0.75982 0.73466 0.91133 0.0
C806 C 0.78608 0.73555 0.92835 0.0
C807 C 0.80353 0.74231 0.93229 0.0
C808 C 0.81609 0.7425 0.91973 0.0
C809 C 0.83248 0.74899 0.92352 0.0
C810 C 0.83651 0.75519 0.93986 0.0
C811 C 0.82417 0.75486 0.95247 0.0
C812 C 0.80774 0.74841 0.94874 0.0
C813 C 0.75328 0.66736 0.93907 0.0
C814 C 0.75242 0.66585 0.9569 0.0
C815 C 0.75682 0.683 0.93161 0.0
C816 C 0.75954 0.6975 0.94178 0.0
C817 C 0.75866 0.69612 0.95959 0.0
C818 C 0.75502 0.68043 0.9671 0.0
C819 C 0.76403 0.71387 0.93364 0.0
C820 C 0.77988 0.72166 0.93768 0.0
C821 C 0.75367 0.7207 0.92059 0.0
C822 C 0.73637 0.71356 0.91646 0.0
C823 C 0.72431 0.71129 0.92935 0.0
C824 C 0.70809 0.70442 0.92542 0.0
C825 C 0.70374 0.69984 0.90863 0.0
C826 C 0.71559 0.70217 0.89572 0.0
C827 C 0.73183 0.70902 0.89958 0.0
H828 H 0.69118 0.69453 0.90562 0.0
H829 H 0.84921 0.76021 0.94277 0.0
H830 H 0.00293 0.96253 0.41313 0.0
H831 H 0.9804 0.97266 0.39426 0.0
H832 H 0.00643 0.95342 0.35065 0.0
H833 H 0.02887 0.94282 0.36946 0.0
H834 H 0.99416 0.98611 0.34575 0.0
H835 H 0.97361 0.93162 0.36442 0.0
H836 H 0.96647 0.90972 0.38561 0.0
H837 H 0.9306 0.94253 0.4084 0.0
H838 H 0.93771 0.96473 0.38748 0.0
H839 H 0.92311 0.99106 0.28735 0.0
H840 H 0.9479 0.98281 0.30441 0.0
H841 H 0.92144 0.99463 0.3505 0.0
H842 H 0.89654 0.00243 0.33361 0.0
H843 H 0.93468 0.96498 0.35327 0.0
H844 H 0.95524 0.01973 0.33525 0.0
H845 H 0.96255 0.04208 0.3146 0.0
H846 H 0.99828 0.00963 0.29109 0.0
H847 H 0.99102 0.98699 0.31148 0.0
C848 C 0.00381 0.96027 0.39955 0.0
C849 C 0.01767 0.95172 0.39285 0.0
C850 C 0.99097 0.96617 0.38878 0.0
C851 C 0.99171 0.96368 0.37108 0.0
C852 C 0.00567 0.95551 0.36427 0.0
C853 C 0.0185 0.9495 0.37506 0.0
C854 C 0.97765 0.96926 0.35978 0.0
C855 C 0.98117 0.98136 0.3472 0.0
C856 C 0.96069 0.96326 0.36194 0.0
C857 C 0.95631 0.94989 0.37448 0.0
C858 C 0.9643 0.93421 0.37403 0.0
C859 C 0.96024 0.92174 0.38598 0.0
C860 C 0.94812 0.92475 0.39837 0.0
C861 C 0.94 0.94022 0.3988 0.0
C862 C 0.94403 0.95275 0.3869 0.0
C863 C 0.92267 0.9921 0.30111 0.0
C864 C 0.90783 0.99732 0.30913 0.0
C865 C 0.93687 0.98742 0.31085 0.0
C866 C 0.93658 0.98816 0.32876 0.0
C867 C 0.92194 0.99387 0.33672 0.0
C868 C 0.90772 0.99837 0.32703 0.0
C869 C 0.95106 0.98211 0.33932 0.0
C870 C 0.94764 0.96981 0.35175 0.0
C871 C 0.96807 0.98801 0.33705 0.0
C872 C 0.97245 0.0016 0.32478 0.0
C873 C 0.96455 0.01731 0.32559 0.0
C874 C 0.96871 0.03004 0.31395 0.0
C875 C 0.98084 0.02726 0.30151 0.0
C876 C 0.98887 0.01176 0.30071 0.0
C877 C 0.98475 0.99898 0.31232 0.0
H878 H 0.98404 0.03714 0.29251 0.0
H879 H 0.945 0.91507 0.40761 0.0
H880 H 0.22642 0.22714 0.67041 0.0
H881 H 0.23313 0.20474 0.65008 0.0
H882 H 0.21829 0.23681 0.60834 0.0
H883 H 0.21158 0.25912 0.6285 0.0
H884 H 0.2043 0.20593 0.60461 0.0
H885 H 0.26036 0.22963 0.61822 0.0
H886 H 0.28434 0.23822 0.63742 0.0
H887 H 0.28837 0.18699 0.65456 0.0
H888 H 0.26425 0.17812 0.63562 0.0
H889 H 0.23894 0.16976 0.53207 0.0
H890 H 0.23359 0.18825 0.5562 0.0
H891 H 0.24698 0.14858 0.59106 0.0
H892 H 0.2525 0.12986 0.56685 0.0
H893 H 0.26094 0.18015 0.6007 0.0
H894 H 0.20631 0.15616 0.5851 0.0
H895 H 0.18258 0.14773 0.56554 0.0
H896 H 0.1759 0.1997 0.55203 0.0
H897 H 0.19976 0.20843 0.57133 0.0
C898 C 0.22477 0.22945 0.65689 0.0
C899 C 0.21838 0.24486 0.65106 0.0
C900 C 0.22859 0.21664 0.64529 0.0
C901 C 0.22625 0.21911 0.62768 0.0
C902 C 0.22008 0.23457 0.62187 0.0
C903 C 0.21621 0.2473 0.63342 0.0
C904 C 0.22981 0.20558 0.61517 0.0
C905 C 0.21674 0.2004 0.60368 0.0
C906 C 0.24586 0.19794 0.6143 0.0
C907 C 0.26038 0.20325 0.62566 0.0
C908 C 0.26627 0.22022 0.62619 0.0
C909 C 0.2799 0.22514 0.63701 0.0
C910 C 0.28784 0.21317 0.64725 0.0
C911 C 0.28219 0.19625 0.64665 0.0
C912 C 0.26854 0.19127 0.63587 0.0
C913 C 0.24081 0.16492 0.54485 0.0
C914 C 0.24605 0.14827 0.54752 0.0
C915 C 0.23769 0.17551 0.55864 0.0
C916 C 0.23967 0.16971 0.57541 0.0
C917 C 0.24532 0.15326 0.5782 0.0
C918 C 0.24841 0.14258 0.56436 0.0
C919 C 0.23556 0.18091 0.5899 0.0
C920 C 0.24847 0.18557 0.60177 0.0
C921 C 0.21936 0.18812 0.59113 0.0
C922 C 0.20492 0.18293 0.57958 0.0
C923 C 0.19987 0.16579 0.57787 0.0
C924 C 0.18638 0.16095 0.56684 0.0
C925 C 0.17776 0.17317 0.55753 0.0
C926 C 0.18259 0.19025 0.55925 0.0
C927 C 0.19609 0.19515 0.57025 0.0
H928 H 0.16732 0.1694 0.54899 0.0
H929 H 0.29839 0.217 0.65561 0.0
H930 H 0.50955 0.56121 0.62552 0.0
H931 H 0.48769 0.55413 0.64622 0.0
H932 H 0.47778 0.50615 0.62102 0.0
H933 H 0.49981 0.51312 0.60024 0.0
H934 H 0.44836 0.52088 0.62974 0.0
H935 H 0.50092 0.508 0.65772 0.0
H936 H 0.53043 0.51332 0.6681 0.0
H937 H 0.51402 0.55427 0.69934 0.0
H938 H 0.48443 0.54936 0.68895 0.0
H939 H 0.40267 0.48398 0.69928 0.0
H940 H 0.42322 0.49003 0.67688 0.0
H941 H 0.43411 0.53934 0.69888 0.0
H942 H 0.41361 0.53342 0.72132 0.0
H943 H 0.46314 0.52266 0.69154 0.0
H944 H 0.41049 0.5356 0.66296 0.0
H945 H 0.38104 0.52993 0.65255 0.0
H946 H 0.39773 0.48818 0.62259 0.0
H947 H 0.42726 0.49346 0.63302 0.0
C948 C 0.50284 0.54908 0.62443 0.0
C949 C 0.50659 0.53765 0.61131 0.0
C950 C 0.49029 0.54507 0.63626 0.0
C951 C 0.48127 0.52949 0.63534 0.0
C952 C 0.48462 0.51823 0.622 0.0
C953 C 0.49718 0.52225 0.61011 0.0
C954 C 0.4685 0.52499 0.64846 0.0
C955 C 0.45164 0.52102 0.64324 0.0
C956 C 0.4727 0.52544 0.66611 0.0
C957 C 0.49048 0.52841 0.67243 0.0
C958 C 0.50362 0.51823 0.6667 0.0
C959 C 0.52036 0.52116 0.67261 0.0
C960 C 0.5241 0.53415 0.68434 0.0
C961 C 0.5111 0.54422 0.69023 0.0
C962 C 0.49434 0.54136 0.68435 0.0
C963 C 0.40937 0.49615 0.69932 0.0
C964 C 0.40648 0.50822 0.71211 0.0
C965 C 0.42108 0.4996 0.68646 0.0
C966 C 0.43014 0.51517 0.68615 0.0
C967 C 0.42726 0.52725 0.69887 0.0
C968 C 0.41548 0.52386 0.71166 0.0
C969 C 0.44297 0.51874 0.67284 0.0
C970 C 0.45986 0.52249 0.67804 0.0
C971 C 0.4388 0.51801 0.6552 0.0
C972 C 0.42106 0.51481 0.64892 0.0
C973 C 0.40786 0.52511 0.65427 0.0
C974 C 0.39116 0.52199 0.64835 0.0
C975 C 0.38751 0.50867 0.63696 0.0
C976 C 0.40057 0.49847 0.63144 0.0
C977 C 0.4173 0.50153 0.63734 0.0
H978 H 0.37457 0.50628 0.63238 0.0
H979 H 0.53707 0.53639 0.6889 0.0
H980 H 0.75984 0.25461 0.66717 0.0
H981 H 0.75261 0.27763 0.64777 0.0
H982 H 0.80383 0.2785 0.62881 0.0
H983 H 0.81109 0.25553 0.64795 0.0
H984 H 0.7926 0.31022 0.63302 0.0
H985 H 0.7713 0.25729 0.60767 0.0
H986 H 0.7539 0.2308 0.6071 0.0
H987 H 0.70847 0.25909 0.61257 0.0
H988 H 0.72566 0.28575 0.6134 0.0
H989 H 0.7932 0.33582 0.54822 0.0
H990 H 0.79394 0.32183 0.57573 0.0
H991 H 0.74074 0.33163 0.58241 0.0
H992 H 0.73984 0.34574 0.55455 0.0
H993 H 0.74811 0.29854 0.5884 0.0
H994 H 0.76979 0.35201 0.6076 0.0
H995 H 0.78769 0.37814 0.6072 0.0
H996 H 0.8327 0.34901 0.61276 0.0
H997 H 0.8151 0.32267 0.61293 0.0
C998 C 0.76956 0.25974 0.65889 0.0
C999 C 0.78604 0.25318 0.6591 0.0
C1000 C 0.76543 0.27292 0.64786 0.0
C1001 C 0.77765 0.2797 0.63675 0.0
C1002 C 0.79422 0.27355 0.63734 0.0
C1003 C 0.79836 0.26042 0.64834 0.0
C1004 C 0.77316 0.29253 0.62379 0.0
C1005 C 0.78288 0.30769 0.62326 0.0
C1006 C 0.76009 0.28947 0.61138 0.0
C1007 C 0.74977 0.27347 0.61083 0.0
C1008 C 0.75762 0.25784 0.60889 0.0
C1009 C 0.74779 0.24281 0.6085 0.0
C1010 C 0.7301 0.24326 0.60986 0.0
C1011 C 0.72219 0.25876 0.61157 0.0
C1012 C 0.73196 0.27383 0.612 0.0
C1013 C 0.78165 0.33519 0.55556 0.0
C1014 C 0.76643 0.34184 0.54914 0.0
C1015 C 0.78214 0.32728 0.57139 0.0
C1016 C 0.76745 0.32584 0.58123 0.0
C1017 C 0.75225 0.3327 0.57504 0.0
C1018 C 0.75177 0.34079 0.55917 0.0
C1019 C 0.76796 0.31599 0.59728 0.0
C1020 C 0.75752 0.30135 0.59841 0.0
C1021 C 0.78042 0.31951 0.6102 0.0
C1022 C 0.7911 0.33533 0.6102 0.0
C1023 C 0.78351 0.35115 0.60862 0.0
C1024 C 0.7936 0.36601 0.60846 0.0
C1025 C 0.81132 0.36523 0.60994 0.0
C1026 C 0.81897 0.34959 0.61162 0.0
C1027 C 0.80894 0.33469 0.61179 0.0
H1028 H 0.81911 0.37675 0.6098 0.0
H1029 H 0.72251 0.2316 0.60955 0.0
H1030 H 0.50001 0.97507 0.59507 0.0
H1031 H 0.5145 0.97664 0.62286 0.0
H1032 H 0.5493 0.01509 0.60395 0.0
H1033 H 0.53481 0.01359 0.57603 0.0
H1034 H 0.566 0.9916 0.62136 0.0
H1035 H 0.51807 0.02553 0.63115 0.0
H1036 H 0.48776 0.03279 0.631 0.0
H1037 H 0.47658 0.99112 0.66426 0.0
H1038 H 0.5068 0.98344 0.66442 0.0
H1039 H 0.60051 0.00756 0.70528 0.0
H1040 H 0.58631 0.01187 0.67764 0.0
H1041 H 0.55012 0.97144 0.68854 0.0
H1042 H 0.56413 0.96706 0.71613 0.0
H1043 H 0.53481 0.99943 0.67514 0.0
H1044 H 0.58261 0.96437 0.6629 0.0
H1045 H 0.61301 0.95741 0.66288 0.0
H1046 H 0.62445 0.00227 0.63412 0.0
H1047 H 0.59413 0.00961 0.63417 0.0
C1048 C 0.51061 0.98402 0.59688 0.0
C1049 C 0.51622 0.99426 0.58338 0.0
C1050 C 0.51888 0.9849 0.61277 0.0
C1051 C 0.53284 0.99615 0.61554 0.0
C1052 C 0.53854 0.00635 0.60208 0.0
C1053 C 0.53029 0.00544 0.58614 0.0
C1054 C 0.54176 0.9968 0.63237 0.0
C1055 C 0.55925 0.99365 0.6331 0.0
C1056 C 0.53289 0.99924 0.64769 0.0
C1057 C 0.5147 0.00384 0.64769 0.0
C1058 C 0.50914 0.01783 0.63833 0.0
C1059 C 0.49197 0.02204 0.63826 0.0
C1060 C 0.48025 0.0124 0.64759 0.0
C1061 C 0.48568 0.99856 0.65704 0.0
C1062 C 0.50283 0.99429 0.65714 0.0
C1063 C 0.5895 0.99961 0.70181 0.0
C1064 C 0.5835 0.98691 0.71288 0.0
C1065 C 0.58144 0.00207 0.68601 0.0
C1066 C 0.56724 0.99189 0.68103 0.0
C1067 C 0.56105 0.97943 0.69217 0.0
C1068 C 0.56914 0.97691 0.7079 0.0
C1069 C 0.55893 0.99393 0.6641 0.0
C1070 C 0.54157 0.9976 0.66336 0.0
C1071 C 0.56793 0.99206 0.64878 0.0
C1072 C 0.58614 0.98764 0.64872 0.0
C1073 C 0.59163 0.97282 0.6567 0.0
C1074 C 0.60884 0.9688 0.65666 0.0
C1075 C 0.62066 0.97942 0.64855 0.0
C1076 C 0.61529 0.99407 0.64043 0.0
C1077 C 0.59809 0.99817 0.64045 0.0
H1078 H 0.63398 0.97628 0.64853 0.0
H1079 H 0.46696 0.01568 0.64752 0.0
H1080 H 0.85701 0.17559 0.76516 0.0
H1081 H 0.8799 0.18183 0.78618 0.0
H1082 H 0.87916 0.23462 0.77268 0.0
H1083 H 0.85659 0.22846 0.75154 0.0
H1084 H 0.91123 0.22192 0.77233 0.0
H1085 H 0.86277 0.22108 0.80968 0.0
H1086 H 0.83731 0.20815 0.82287 0.0
H1087 H 0.86744 0.16816 0.84297 0.0
H1088 H 0.89305 0.18075 0.82969 0.0
H1089 H 0.95533 0.26869 0.83372 0.0
H1090 H 0.93243 0.25541 0.81678 0.0
H1091 H 0.94387 0.20686 0.83826 0.0
H1092 H 0.96702 0.22024 0.85568 0.0
H1093 H 0.90847 0.21236 0.83475 0.0
H1094 H 0.95744 0.21459 0.7999 0.0
H1095 H 0.98302 0.22757 0.78699 0.0
H1096 H 0.95219 0.26425 0.76192 0.0
H1097 H 0.92644 0.25165 0.77489 0.0
C1098 C 0.8617 0.18853 0.76674 0.0
C1099 C 0.855 0.20154 0.75668 0.0
C1100 C 0.87468 0.19208 0.77882 0.0
C1101 C 0.88119 0.20869 0.781 0.0
C1102 C 0.8743 0.22171 0.7712 0.0
C1103 C 0.8613 0.2182 0.75922 0.0
C1104 C 0.89576 0.21256 0.79281 0.0
C1105 C 0.91058 0.21992 0.78599 0.0
C1106 C 0.89516 0.20929 0.81053 0.0
C1107 C 0.87978 0.20174 0.81852 0.0
C1108 C 0.86394 0.20944 0.81677 0.0
C1109 C 0.84948 0.2022 0.82429 0.0
C1110 C 0.85074 0.18731 0.8337 0.0
C1111 C 0.86648 0.17967 0.83565 0.0
C1112 C 0.88096 0.18686 0.82814 0.0
C1113 C 0.95303 0.25519 0.83497 0.0
C1114 C 0.9632 0.24548 0.8459 0.0
C1115 C 0.93989 0.24761 0.82524 0.0
C1116 C 0.93667 0.23012 0.82601 0.0
C1117 C 0.94625 0.22039 0.83742 0.0
C1118 C 0.95947 0.22803 0.84731 0.0
C1119 C 0.92365 0.22227 0.81428 0.0
C1120 C 0.9092 0.2141 0.82106 0.0
C1121 C 0.92458 0.22468 0.79645 0.0
C1122 C 0.94001 0.23222 0.78845 0.0
C1123 C 0.95612 0.22549 0.79172 0.0
C1124 C 0.97066 0.23277 0.78438 0.0
C1125 C 0.96924 0.24674 0.77366 0.0
C1126 C 0.95327 0.25343 0.77023 0.0
C1127 C 0.9387 0.2462 0.77755 0.0
H1128 H 0.9805 0.25237 0.76799 0.0
H1129 H 0.83954 0.18172 0.83952 0.0
H1130 H 0.49591 0.90579 0.51124 0.0
H1131 H 0.49695 0.87661 0.50079 0.0
H1132 H 0.46 0.88773 0.46132 0.0
H1133 H 0.45845 0.91664 0.47204 0.0
H1134 H 0.45389 0.85681 0.47414 0.0
H1135 H 0.50321 0.88925 0.45408 0.0
H1136 H 0.52961 0.90663 0.45799 0.0
H1137 H 0.55208 0.86689 0.48707 0.0
H1138 H 0.5257 0.84936 0.4835 0.0
H1139 H 0.46927 0.81381 0.39893 0.0
H1140 H 0.4666 0.83332 0.42274 0.0
H1141 H 0.50055 0.80349 0.45328 0.0
H1142 H 0.50316 0.78355 0.42929 0.0
H1143 H 0.50937 0.83867 0.45221 0.0
H1144 H 0.46145 0.80383 0.46544 0.0
H1145 H 0.4351 0.78684 0.45987 0.0
H1146 H 0.40984 0.83114 0.44244 0.0
H1147 H 0.43612 0.84837 0.44766 0.0
C1148 C 0.48777 0.90192 0.50054 0.0
C1149 C 0.47723 0.91359 0.49235 0.0
C1150 C 0.48847 0.88527 0.49451 0.0
C1151 C 0.47872 0.88005 0.48014 0.0
C1152 C 0.46767 0.89148 0.47241 0.0
C1153 C 0.46693 0.90807 0.47844 0.0
C1154 C 0.48066 0.8631 0.47232 0.0
C1155 C 0.46602 0.8528 0.46937 0.0
C1156 C 0.49659 0.85759 0.46661 0.0
C1157 C 0.51243 0.8681 0.46872 0.0
C1158 C 0.51374 0.88428 0.46142 0.0
C1159 C 0.5287 0.89415 0.46355 0.0
C1160 C 0.5425 0.88789 0.47282 0.0
C1161 C 0.54137 0.87173 0.47993 0.0
C1162 C 0.52642 0.86183 0.47786 0.0
C1163 C 0.47607 0.81126 0.41075 0.0
C1164 C 0.4865 0.79719 0.41222 0.0
C1165 C 0.47442 0.82237 0.42439 0.0
C1166 C 0.48325 0.81977 0.43981 0.0
C1167 C 0.49355 0.80563 0.44149 0.0
C1168 C 0.495 0.79426 0.42783 0.0
C1169 C 0.48248 0.83275 0.45344 0.0
C1170 C 0.49733 0.84235 0.45746 0.0
C1171 C 0.46672 0.83767 0.46001 0.0
C1172 C 0.45081 0.8274 0.4569 0.0
C1173 C 0.45032 0.80994 0.46031 0.0
C1174 C 0.43538 0.80026 0.45723 0.0
C1175 C 0.42081 0.8079 0.45079 0.0
C1176 C 0.42114 0.82524 0.44745 0.0
C1177 C 0.43605 0.83498 0.45049 0.0
H1178 H 0.40926 0.80038 0.44842 0.0
H1179 H 0.55407 0.89555 0.47446 0.0
H1180 H 0.1702 0.25516 0.76548 0.0
H1181 H 0.15089 0.24797 0.78876 0.0
H1182 H 0.13161 0.29846 0.78736 0.0
H1183 H 0.15055 0.30564 0.76412 0.0
H1184 H 0.13697 0.28819 0.81983 0.0
H1185 H 0.11048 0.26519 0.76755 0.0
H1186 H 0.10942 0.24683 0.742 0.0
H1187 H 0.115 0.20303 0.77353 0.0
H1188 H 0.11631 0.22118 0.79927 0.0
H1189 H 0.0526 0.29253 0.84219 0.0
H1190 H 0.08012 0.29111 0.82873 0.0
H1191 H 0.08454 0.23939 0.84504 0.0
H1192 H 0.05663 0.24072 0.85875 0.0
H1193 H 0.0913 0.24425 0.81036 0.0
H1194 H 0.1107 0.26779 0.8631 0.0
H1195 H 0.11059 0.28672 0.88816 0.0
H1196 H 0.11781 0.32988 0.85581 0.0
H1197 H 0.11772 0.31124 0.83051 0.0
C1198 C 0.16184 0.26471 0.77014 0.0
C1199 C 0.16198 0.281 0.76294 0.0
C1200 C 0.15086 0.2606 0.78348 0.0
C1201 C 0.13978 0.27267 0.78977 0.0
C1202 C 0.14016 0.28899 0.78282 0.0
C1203 C 0.15106 0.29309 0.76955 0.0
C1204 C 0.12718 0.26841 0.80307 0.0
C1205 C 0.12701 0.27855 0.8178 0.0
C1206 C 0.11454 0.25541 0.80073 0.0
C1207 C 0.11373 0.24454 0.78529 0.0
C1208 C 0.11163 0.25165 0.76901 0.0
C1209 C 0.11095 0.24129 0.7545 0.0
C1210 C 0.11221 0.22378 0.75613 0.0
C1211 C 0.11408 0.2166 0.77229 0.0
C1212 C 0.11479 0.22691 0.78683 0.0
C1213 C 0.05942 0.28085 0.84309 0.0
C1214 C 0.0524 0.26671 0.85151 0.0
C1215 C 0.07524 0.28011 0.83546 0.0
C1216 C 0.08447 0.26521 0.83604 0.0
C1217 C 0.07764 0.25104 0.84456 0.0
C1218 C 0.06176 0.25184 0.85241 0.0
C1219 C 0.10069 0.26455 0.82671 0.0
C1220 C 0.10156 0.25351 0.81272 0.0
C1221 C 0.11395 0.27677 0.82969 0.0
C1222 C 0.11416 0.28808 0.84488 0.0
C1223 C 0.11217 0.28132 0.86131 0.0
C1224 C 0.11215 0.29201 0.87557 0.0
C1225 C 0.11419 0.30949 0.87358 0.0
C1226 C 0.11626 0.31633 0.85733 0.0
C1227 C 0.11628 0.3057 0.84302 0.0
H1228 H 0.11416 0.31774 0.88463 0.0
H1229 H 0.11168 0.21578 0.74489 0.0
H1230 H 0.53409 0.62265 0.52128 0.0
H1231 H 0.52716 0.64323 0.49933 0.0
H1232 H 0.53688 0.60638 0.46023 0.0
H1233 H 0.54392 0.58567 0.48221 0.0
H1234 H 0.55124 0.63621 0.4525 0.0
H1235 H 0.49596 0.61709 0.46999 0.0
H1236 H 0.47325 0.61033 0.49036 0.0
H1237 H 0.47337 0.66226 0.50662 0.0
H1238 H 0.49626 0.6693 0.4865 0.0
H1239 H 0.51503 0.68474 0.3851 0.0
H1240 H 0.52094 0.6624 0.40567 0.0
H1241 H 0.51355 0.69733 0.44711 0.0
H1242 H 0.50747 0.71968 0.42666 0.0
H1243 H 0.49736 0.66739 0.45269 0.0
H1244 H 0.55339 0.68614 0.43584 0.0
H1245 H 0.57615 0.69278 0.41547 0.0
H1246 H 0.57438 0.64127 0.39782 0.0
H1247 H 0.55144 0.63436 0.41794 0.0
C1248 C 0.53452 0.61882 0.50802 0.0
C1249 C 0.53943 0.60245 0.50352 0.0
C1250 C 0.53058 0.63063 0.49547 0.0
C1251 C 0.53127 0.62631 0.4781 0.0
C1252 C 0.53624 0.61001 0.47354 0.0
C1253 C 0.54027 0.59819 0.48611 0.0
C1254 C 0.52716 0.63896 0.46477 0.0
C1255 C 0.53933 0.64282 0.45238 0.0
C1256 C 0.51177 0.64786 0.46478 0.0
C1257 C 0.49793 0.64369 0.47684 0.0
C1258 C 0.49123 0.62705 0.478 0.0
C1259 C 0.47831 0.62317 0.48948 0.0
C1260 C 0.47189 0.63585 0.49981 0.0
C1261 C 0.47836 0.65245 0.49863 0.0
C1262 C 0.4913 0.65639 0.48717 0.0
C1263 C 0.51469 0.68769 0.39859 0.0
C1264 C 0.5108 0.70403 0.40422 0.0
C1265 C 0.51813 0.67491 0.41034 0.0
C1266 C 0.51783 0.67822 0.42795 0.0
C1267 C 0.51386 0.69448 0.43359 0.0
C1268 C 0.51044 0.70726 0.42187 0.0
C1269 C 0.52149 0.66473 0.44053 0.0
C1270 C 0.50922 0.66071 0.45277 0.0
C1271 C 0.53677 0.65566 0.44035 0.0
C1272 C 0.55057 0.65978 0.42827 0.0
C1273 C 0.55776 0.67626 0.42752 0.0
C1274 C 0.57071 0.68007 0.41604 0.0
C1275 C 0.57667 0.66747 0.40533 0.0
C1276 C 0.56973 0.65102 0.40611 0.0
C1277 C 0.55676 0.64715 0.41755 0.0
H1278 H 0.5867 0.67044 0.39645 0.0
H1279 H 0.46189 0.63283 0.50869 0.0
H1280 H 0.86124 0.82539 0.765 0.0
H1281 H 0.87817 0.81334 0.74225 0.0
H1282 H 0.89915 0.77776 0.77782 0.0
H1283 H 0.88195 0.78961 0.80064 0.0
H1284 H 0.92356 0.79692 0.75494 0.0
H1285 H 0.87274 0.76133 0.75402 0.0
H1286 H 0.84169 0.75567 0.75352 0.0
H1287 H 0.83716 0.78189 0.7059 0.0
H1288 H 0.86816 0.78795 0.70626 0.0
H1289 H 0.96288 0.75248 0.68707 0.0
H1290 H 0.94785 0.75929 0.71322 0.0
H1291 H 0.90988 0.78502 0.68341 0.0
H1292 H 0.92434 0.77761 0.65736 0.0
H1293 H 0.89463 0.76751 0.70592 0.0
H1294 H 0.94353 0.80598 0.70738 0.0
H1295 H 0.97416 0.81387 0.70741 0.0
H1296 H 0.98206 0.78498 0.75295 0.0
H1297 H 0.9515 0.77675 0.75307 0.0
C1298 C 0.86954 0.81506 0.76796 0.0
C1299 C 0.87034 0.80841 0.78452 0.0
C1300 C 0.87912 0.80817 0.75499 0.0
C1301 C 0.88983 0.79467 0.75841 0.0
C1302 C 0.89094 0.78819 0.775 0.0
C1303 C 0.88109 0.79489 0.78794 0.0
C1304 C 0.89966 0.7873 0.74447 0.0
C1305 C 0.91735 0.7902 0.74433 0.0
C1306 C 0.8914 0.77891 0.73054 0.0
C1307 C 0.87276 0.77522 0.73025 0.0
C1308 C 0.8651 0.76603 0.74352 0.0
C1309 C 0.84751 0.76272 0.74325 0.0
C1310 C 0.83745 0.76845 0.7297 0.0
C1311 C 0.84496 0.77747 0.71639 0.0
C1312 C 0.86255 0.78083 0.71662 0.0
C1313 C 0.95132 0.75959 0.68614 0.0
C1314 C 0.94478 0.7645 0.67017 0.0
C1315 C 0.94278 0.76354 0.70109 0.0
C1316 C 0.9278 0.77285 0.70034 0.0
C1317 C 0.92134 0.77776 0.68436 0.0
C1318 C 0.92966 0.77355 0.66946 0.0
C1319 C 0.91864 0.77748 0.71603 0.0
C1320 C 0.901 0.77404 0.71655 0.0
C1321 C 0.92693 0.78564 0.73017 0.0
C1322 C 0.94528 0.79059 0.73012 0.0
C1323 C 0.95183 0.80121 0.71733 0.0
C1324 C 0.96917 0.80576 0.71733 0.0
C1325 C 0.98006 0.79988 0.73014 0.0
C1326 C 0.97362 0.78949 0.74301 0.0
C1327 C 0.95629 0.78488 0.74306 0.0
H1328 H 0.99348 0.80342 0.73012 0.0
H1329 H 0.82384 0.76587 0.72951 0.0
H1330 H 0.02258 0.87443 0.48486 0.0
H1331 H 0.01202 0.85641 0.50789 0.0
H1332 H 0.05836 0.86677 0.53696 0.0
H1333 H 0.06908 0.8847 0.51387 0.0
H1334 H 0.04845 0.83262 0.53663 0.0
H1335 H 0.02399 0.88606 0.54824 0.0
H1336 H 0.00819 0.91172 0.54145 0.0
H1337 H 0.96341 0.88126 0.5292 0.0
H1338 H 0.97902 0.85538 0.53568 0.0
H1339 H 0.01451 0.79312 0.61079 0.0
H1340 H 0.02768 0.81416 0.59196 0.0
H1341 H 0.98226 0.81307 0.56009 0.0
H1342 H 0.9689 0.79249 0.57898 0.0
H1343 H 0.99364 0.84442 0.56416 0.0
H1344 H 0.01843 0.79111 0.54973 0.0
H1345 H 0.034 0.76511 0.55572 0.0
H1346 H 0.07782 0.79489 0.57251 0.0
H1347 H 0.06241 0.82109 0.56681 0.0
C1348 C 0.03056 0.87277 0.49611 0.0
C1349 C 0.04662 0.88099 0.4976 0.0
C1350 C 0.02447 0.86259 0.50929 0.0
C1351 C 0.03436 0.86041 0.52418 0.0
C1352 C 0.05053 0.86836 0.5256 0.0
C1353 C 0.05657 0.87866 0.51247 0.0
C1354 C 0.02775 0.84978 0.53821 0.0
C1355 C 0.03661 0.83533 0.54288 0.0
C1356 C 0.01219 0.85322 0.54613 0.0
C1357 C 0.00272 0.86877 0.54232 0.0
C1358 C 0.01081 0.88482 0.54397 0.0
C1359 C 0.00188 0.89941 0.5402 0.0
C1360 C 0.98482 0.89812 0.53486 0.0
C1361 C 0.97663 0.88224 0.53333 0.0
C1362 C 0.98551 0.86761 0.53706 0.0
C1363 C 0.0073 0.79745 0.59983 0.0
C1364 C 0.99067 0.79107 0.59636 0.0
C1365 C 0.01486 0.80942 0.58904 0.0
C1366 C 0.00603 0.81503 0.57449 0.0
C1367 C 0.98932 0.80894 0.57124 0.0
C1368 C 0.98172 0.79711 0.58205 0.0
C1369 C 0.01413 0.827 0.56236 0.0
C1370 C 0.00556 0.84176 0.55805 0.0
C1371 C 0.02991 0.82377 0.5547 0.0
C1372 C 0.03921 0.80805 0.55803 0.0
C1373 C 0.03134 0.79211 0.55482 0.0
C1374 C 0.04014 0.77734 0.55814 0.0
C1375 C 0.05687 0.77835 0.56454 0.0
C1376 C 0.06485 0.79413 0.56758 0.0
C1377 C 0.05609 0.80894 0.5643 0.0
H1378 H 0.06366 0.7669 0.56711 0.0
H1379 H 0.97792 0.90943 0.53195 0.0
H1380 H 0.17645 0.74728 0.69979 0.0
H1381 H 0.14916 0.74782 0.68437 0.0
H1382 H 0.12311 0.73249 0.72996 0.0
H1383 H 0.15043 0.73191 0.7455 0.0
H1384 H 0.10984 0.71609 0.70231 0.0
H1385 H 0.12384 0.77351 0.71772 0.0
H1386 H 0.14192 0.79949 0.71983 0.0
H1387 H 0.14348 0.80225 0.6652 0.0
H1388 H 0.12561 0.77612 0.66277 0.0
H1389 H 0.02719 0.74133 0.67464 0.0
H1390 H 0.05418 0.73868 0.69037 0.0
H1391 H 0.08179 0.7512 0.64489 0.0
H1392 H 0.0549 0.7539 0.62906 0.0
H1393 H 0.09387 0.76899 0.67306 0.0
H1394 H 0.07958 0.71123 0.658 0.0
H1395 H 0.06118 0.68544 0.65638 0.0
H1396 H 0.05959 0.68373 0.71105 0.0
H1397 H 0.0778 0.70966 0.713 0.0
C1398 C 0.16491 0.74406 0.70656 0.0
C1399 C 0.16559 0.7397 0.72391 0.0
C1400 C 0.14932 0.74436 0.69772 0.0
C1401 C 0.13406 0.74046 0.70609 0.0
C1402 C 0.13472 0.73557 0.72326 0.0
C1403 C 0.15034 0.7352 0.73211 0.0
C1404 C 0.11742 0.7419 0.69697 0.0
C1405 C 0.10624 0.72772 0.69611 0.0
C1406 C 0.11284 0.757 0.68866 0.0
C1407 C 0.12352 0.77277 0.69007 0.0
C1408 C 0.12815 0.77958 0.70616 0.0
C1409 C 0.13834 0.79435 0.70741 0.0
C1410 C 0.14388 0.80249 0.69266 0.0
C1411 C 0.1392 0.79591 0.67662 0.0
C1412 C 0.12903 0.78113 0.67529 0.0
C1413 C 0.039 0.7435 0.66797 0.0
C1414 C 0.0389 0.74781 0.65058 0.0
C1415 C 0.05441 0.74191 0.67697 0.0
C1416 C 0.06998 0.74462 0.66876 0.0
C1417 C 0.06991 0.74904 0.65145 0.0
C1418 C 0.05453 0.75052 0.64242 0.0
C1419 C 0.08636 0.74315 0.67828 0.0
C1420 C 0.09747 0.75736 0.67927 0.0
C1421 C 0.09081 0.72812 0.68678 0.0
C1422 C 0.07991 0.71249 0.68564 0.0
C1423 C 0.07519 0.70544 0.66968 0.0
C1424 C 0.06482 0.69077 0.6687 0.0
C1425 C 0.05918 0.68297 0.6836 0.0
C1426 C 0.06395 0.6898 0.69952 0.0
C1427 C 0.0743 0.70447 0.70057 0.0
H1428 H 0.05116 0.67162 0.68281 0.0
H1429 H 0.15177 0.81393 0.69365 0.0
H1430 H 0.95317 0.58332 0.5321 0.0
H1431 H 0.95351 0.60953 0.54879 0.0
H1432 H 0.00847 0.61091 0.54941 0.0
H1433 H 0.00821 0.58454 0.53273 0.0
H1434 H 0.99392 0.61781 0.5816 0.0
H1435 H 0.98994 0.63627 0.52362 0.0
H1436 H 0.97824 0.63647 0.49423 0.0
H1437 H 0.92956 0.65045 0.51293 0.0
H1438 H 0.9409 0.65008 0.54247 0.0
H1439 H 0.00015 0.70371 0.61162 0.0
H1440 H 0.00333 0.67681 0.59664 0.0
H1441 H 0.94926 0.6743 0.58567 0.0
H1442 H 0.94608 0.70136 0.60013 0.0
H1443 H 0.96585 0.66822 0.558 0.0
H1444 H 0.96909 0.64846 0.61599 0.0
H1445 H 0.98037 0.64785 0.64554 0.0
H1446 H 0.02985 0.6361 0.62723 0.0
H1447 H 0.0189 0.63684 0.59754 0.0
C1448 C 0.96533 0.58914 0.53589 0.0
C1449 C 0.98067 0.58193 0.53112 0.0
C1450 C 0.9655 0.60414 0.54534 0.0
C1451 C 0.98102 0.61217 0.55022 0.0
C1452 C 0.99638 0.60488 0.54572 0.0
C1453 C 0.99621 0.58993 0.53611 0.0
C1454 C 0.98104 0.62833 0.5598 0.0
C1455 C 0.98802 0.62895 0.5764 0.0
C1456 C 0.97308 0.64269 0.55305 0.0
C1457 C 0.96624 0.643 0.53528 0.0
C1458 C 0.9767 0.63925 0.52148 0.0
C1459 C 0.97014 0.63942 0.50479 0.0
C1460 C 0.95315 0.64343 0.50171 0.0
C1461 C 0.94271 0.64732 0.51533 0.0
C1462 C 0.9492 0.64716 0.53205 0.0
C1463 C 0.98892 0.69731 0.6062 0.0
C1464 C 0.97287 0.70468 0.607 0.0
C1465 C 0.99075 0.68191 0.59767 0.0
C1466 C 0.97652 0.67348 0.59008 0.0
C1467 C 0.96043 0.68061 0.59134 0.0
C1468 C 0.95863 0.69606 0.59966 0.0
C1469 C 0.97837 0.65769 0.58006 0.0
C1470 C 0.97181 0.65715 0.56328 0.0
C1471 C 0.98664 0.64341 0.5867 0.0
C1472 C 0.99322 0.64289 0.60454 0.0
C1473 C 0.98241 0.64588 0.61826 0.0
C1474 C 0.98873 0.64548 0.63503 0.0
C1475 C 0.00583 0.64199 0.63826 0.0
C1476 C 0.01662 0.63883 0.62471 0.0
C1477 C 0.01035 0.63922 0.60791 0.0
H1478 H 0.0107 0.64169 0.65125 0.0
H1479 H 0.9481 0.64355 0.48878 0.0
H1480 H 0.749 0.84866 0.24139 0.0
H1481 H 0.76993 0.87082 0.24966 0.0
H1482 H 0.77817 0.88229 0.19669 0.0
H1483 H 0.75751 0.85982 0.18827 0.0
H1484 H 0.80828 0.88357 0.21604 0.0
H1485 H 0.75222 0.90599 0.21822 0.0
H1486 H 0.72215 0.90645 0.22666 0.0
H1487 H 0.73762 0.9086 0.27946 0.0
H1488 H 0.76779 0.9079 0.27134 0.0
H1489 H 0.84593 0.96632 0.23351 0.0
H1490 H 0.82888 0.94217 0.22215 0.0
H1491 H 0.81347 0.92936 0.27313 0.0
H1492 H 0.83002 0.9535 0.28445 0.0
H1493 H 0.78684 0.92934 0.25265 0.0
H1494 H 0.84287 0.90618 0.25074 0.0
H1495 H 0.87298 0.90539 0.24247 0.0
H1496 H 0.85785 0.90462 0.18956 0.0
H1497 H 0.82764 0.90562 0.19752 0.0
C1498 C 0.75551 0.85565 0.23148 0.0
C1499 C 0.75149 0.85256 0.21418 0.0
C1500 C 0.76738 0.86839 0.23623 0.0
C1501 C 0.77541 0.87835 0.22378 0.0
C1502 C 0.77205 0.8748 0.20648 0.0
C1503 C 0.76015 0.86206 0.20172 0.0
C1504 C 0.78652 0.89307 0.2289 0.0
C1505 C 0.80358 0.89371 0.22388 0.0
C1506 C 0.78039 0.90618 0.23926 0.0
C1507 C 0.76226 0.90674 0.24417 0.0
C1508 C 0.74921 0.90643 0.23163 0.0
C1509 C 0.73215 0.90675 0.23636 0.0
C1510 C 0.72798 0.90751 0.25358 0.0
C1511 C 0.74087 0.908 0.26612 0.0
C1512 C 0.75795 0.90765 0.26146 0.0
C1513 C 0.839 0.95826 0.24228 0.0
C1514 C 0.83925 0.9619 0.25987 0.0
C1515 C 0.82931 0.94443 0.23579 0.0
C1516 C 0.81992 0.9339 0.2468 0.0
C1517 C 0.82051 0.93734 0.26437 0.0
C1518 C 0.83002 0.95117 0.27082 0.0
C1519 C 0.80881 0.91972 0.24018 0.0
C1520 C 0.79162 0.91924 0.24482 0.0
C1521 C 0.81487 0.90679 0.22952 0.0
C1522 C 0.83302 0.90616 0.22472 0.0
C1523 C 0.84598 0.90598 0.23734 0.0
C1524 C 0.86306 0.90547 0.23271 0.0
C1525 C 0.86733 0.90501 0.2155 0.0
C1526 C 0.85452 0.90501 0.20288 0.0
C1527 C 0.83742 0.90553 0.20745 0.0
H1528 H 0.88056 0.90461 0.21194 0.0
H1529 H 0.71476 0.90776 0.25722 0.0
H1530 H 0.7529 0.15875 0.27918 0.0
H1531 H 0.77049 0.13381 0.28005 0.0
H1532 H 0.80721 0.15876 0.24781 0.0
H1533 H 0.78991 0.18398 0.24718 0.0
H1534 H 0.79995 0.12516 0.23812 0.0
H1535 H 0.81627 0.15633 0.28867 0.0
H1536 H 0.81141 0.1718 0.31543 0.0
H1537 H 0.78774 0.12729 0.33679 0.0
H1538 H 0.79223 0.11161 0.31006 0.0
H1539 H 0.86053 0.06015 0.25379 0.0
H1540 H 0.84717 0.08765 0.25047 0.0
H1541 H 0.80961 0.07306 0.28751 0.0
H1542 H 0.82307 0.04604 0.29126 0.0
H1543 H 0.82039 0.10368 0.29397 0.0
H1544 H 0.80138 0.07324 0.24308 0.0
H1545 H 0.80528 0.05749 0.21627 0.0
H1546 H 0.83306 0.10001 0.19562 0.0
H1547 H 0.8295 0.11594 0.2224 0.0
C1548 C 0.76479 0.15904 0.27239 0.0
C1549 C 0.77002 0.17347 0.26321 0.0
C1550 C 0.77479 0.14473 0.27284 0.0
C1551 C 0.79023 0.1445 0.26412 0.0
C1552 C 0.79532 0.15867 0.2546 0.0
C1553 C 0.78537 0.17305 0.25422 0.0
C1554 C 0.80113 0.12953 0.26525 0.0
C1555 C 0.80467 0.12057 0.25029 0.0
C1556 C 0.80708 0.12347 0.28115 0.0
C1557 C 0.80447 0.13283 0.2973 0.0
C1558 C 0.80992 0.14987 0.29902 0.0
C1559 C 0.80724 0.15868 0.3142 0.0
C1560 C 0.79924 0.15055 0.32779 0.0
C1561 C 0.79393 0.13358 0.32625 0.0
C1562 C 0.79655 0.12472 0.31109 0.0
C1563 C 0.84942 0.06284 0.2612 0.0
C1564 C 0.84291 0.05091 0.27282 0.0
C1565 C 0.84175 0.07853 0.25925 0.0
C1566 C 0.82729 0.08242 0.26867 0.0
C1567 C 0.82079 0.07045 0.28017 0.0
C1568 C 0.82851 0.05494 0.28226 0.0
C1569 C 0.81883 0.09892 0.26688 0.0
C1570 C 0.81581 0.10827 0.28175 0.0
C1571 C 0.81326 0.10524 0.25091 0.0
C1572 C 0.81535 0.0957 0.2348 0.0
C1573 C 0.80843 0.07918 0.23286 0.0
C1574 C 0.81056 0.07023 0.21767 0.0
C1575 C 0.81946 0.07772 0.20427 0.0
C1576 C 0.8262 0.09421 0.20602 0.0
C1577 C 0.82412 0.10321 0.2212 0.0
H1578 H 0.8211 0.07077 0.19252 0.0
H1579 H 0.79718 0.15739 0.33952 0.0
H1580 H 0.39504 0.99567 0.94701 0.0
H1581 H 0.36659 0.98199 0.94636 0.0
H1582 H 0.36745 0.98032 0.0014 0.0
H1583 H 0.39541 0.99439 0.00206 0.0
H1584 H 0.35826 0.95249 0.95493 0.0
H1585 H 0.32983 0.97794 0.01865 0.0
H1586 H 0.32812 0.00517 0.03386 0.0
H1587 H 0.33615 0.0319 0.98703 0.0
H1588 H 0.33767 0.00484 0.97148 0.0
H1589 H 0.31374 0.89003 0.99657 0.0
H1590 H 0.33185 0.91393 0.98843 0.0
H1591 H 0.28761 0.94422 0.98066 0.0
H1592 H 0.26919 0.9202 0.98931 0.0
H1593 H 0.31223 0.96249 0.99594 0.0
H1594 H 0.30863 0.92935 0.94615 0.0
H1595 H 0.30838 0.90358 0.92831 0.0
H1596 H 0.36066 0.89555 0.94214 0.0
H1597 H 0.36117 0.92112 0.96028 0.0
C1598 C 0.38895 0.99265 0.95894 0.0
C1599 C 0.39739 0.99615 0.97458 0.0
C1600 C 0.3727 0.98486 0.95858 0.0
C1601 C 0.36469 0.98027 0.97384 0.0
C1602 C 0.37302 0.98416 0.98945 0.0
C1603 C 0.3891 0.99214 0.98982 0.0
C1604 C 0.34869 0.96969 0.97362 0.0
C1605 C 0.3481 0.95484 0.96373 0.0
C1606 C 0.33503 0.97297 0.98461 0.0
C1607 C 0.33394 0.98931 0.9939 0.0
C1608 C 0.33111 0.98961 0.01156 0.0
C1609 C 0.33021 0.00503 0.02026 0.0
C1610 C 0.33205 0.02025 0.01142 0.0
C1611 C 0.33477 0.0201 0.99387 0.0
C1612 C 0.33568 0.00472 0.98511 0.0
C1613 C 0.30778 0.90173 0.99313 0.0
C1614 C 0.28999 0.90315 0.99345 0.0
C1615 C 0.31818 0.9154 0.98837 0.0
C1616 C 0.31108 0.93076 0.98351 0.0
C1617 C 0.29334 0.93243 0.98421 0.0
C1618 C 0.28285 0.91871 0.98915 0.0
C1619 C 0.32252 0.94494 0.97807 0.0
C1620 C 0.32221 0.96043 0.98685 0.0
C1621 C 0.33505 0.94254 0.96562 0.0
C1622 C 0.33491 0.92716 0.95463 0.0
C1623 C 0.32005 0.92204 0.94546 0.0
C1624 C 0.31986 0.90747 0.93529 0.0
C1625 C 0.33449 0.89793 0.9341 0.0
C1626 C 0.34934 0.90296 0.94307 0.0
C1627 C 0.3496 0.91752 0.95327 0.0
H1628 H 0.33431 0.88665 0.92622 0.0
H1629 H 0.33136 0.03217 0.01818 0.0
H1630 H 0.28618 0.40412 0.31111 0.0
H1631 H 0.26158 0.41952 0.30058 0.0
H1632 H 0.23252 0.37252 0.29562 0.0
H1633 H 0.25712 0.35706 0.30598 0.0
H1634 H 0.22708 0.39199 0.26864 0.0
H1635 H 0.22742 0.39949 0.32957 0.0
H1636 H 0.23989 0.40758 0.35764 0.0
H1637 H 0.24758 0.45869 0.34054 0.0
H1638 H 0.23535 0.45085 0.31227 0.0
H1639 H 0.14291 0.42201 0.26767 0.0
H1640 H 0.16965 0.40847 0.27472 0.0
H1641 H 0.19592 0.45716 0.27552 0.0
H1642 H 0.16917 0.47088 0.26855 0.0
H1643 H 0.20378 0.43817 0.30345 0.0
H1644 H 0.20146 0.43062 0.24283 0.0
H1645 H 0.18843 0.42216 0.21511 0.0
H1646 H 0.18379 0.37069 0.232 0.0
H1647 H 0.19658 0.37888 0.25992 0.0
C1648 C 0.27452 0.39709 0.30783 0.0
C1649 C 0.27355 0.3794 0.30944 0.0
C1650 C 0.26048 0.40589 0.3018 0.0
C1651 C 0.24514 0.39719 0.29751 0.0
C1652 C 0.24424 0.37949 0.29883 0.0
C1653 C 0.2583 0.37068 0.30473 0.0
C1654 C 0.22991 0.40649 0.2919 0.0
C1655 C 0.22188 0.40197 0.27633 0.0
C1656 C 0.22336 0.41979 0.30175 0.0
C1657 C 0.23064 0.42454 0.31875 0.0
C1658 C 0.23189 0.41243 0.33176 0.0
C1659 C 0.23889 0.41697 0.34771 0.0
C1660 C 0.24457 0.43363 0.35086 0.0
C1661 C 0.2432 0.44579 0.33807 0.0
C1662 C 0.23623 0.44131 0.32209 0.0
C1663 C 0.15437 0.42986 0.26926 0.0
C1664 C 0.15389 0.44754 0.26755 0.0
C1665 C 0.16967 0.42208 0.27322 0.0
C1666 C 0.18478 0.4318 0.27549 0.0
C1667 C 0.18438 0.44944 0.27377 0.0
C1668 C 0.16909 0.45724 0.26975 0.0
C1669 C 0.20087 0.42356 0.28027 0.0
C1670 C 0.20905 0.42827 0.29569 0.0
C1671 C 0.20749 0.41038 0.27033 0.0
C1672 C 0.19984 0.4054 0.25353 0.0
C1673 C 0.19753 0.41752 0.24068 0.0
C1674 C 0.19021 0.41277 0.22492 0.0
C1675 C 0.18525 0.39591 0.22181 0.0
C1676 C 0.18763 0.38375 0.23444 0.0
C1677 C 0.19493 0.38844 0.25022 0.0
H1678 H 0.17958 0.39226 0.2096 0.0
H1679 H 0.24998 0.43712 0.36322 0.0
H1680 H 0.09123 0.99735 0.48553 0.0
H1681 H 0.10696 0.023 0.49519 0.0
H1682 H 0.15101 0.00729 0.46788 0.0
H1683 H 0.13541 0.98193 0.45799 0.0
H1684 H 0.1598 0.02 0.49927 0.0
H1685 H 0.12381 0.03495 0.45044 0.0
H1686 H 0.09613 0.03772 0.43548 0.0
H1687 H 0.07913 0.06987 0.47564 0.0
H1688 H 0.10667 0.0671 0.49093 0.0
H1689 H 0.19459 0.09701 0.45792 0.0
H1690 H 0.17033 0.07761 0.46169 0.0
H1691 H 0.1785 0.07942 0.51624 0.0
H1692 H 0.20304 0.09893 0.51253 0.0
H1693 H 0.14016 0.07542 0.47847 0.0
H1694 H 0.17458 0.03781 0.52937 0.0
H1695 H 0.20348 0.03442 0.5416 0.0
H1696 H 0.22524 0.04676 0.49322 0.0
H1697 H 0.19647 0.05001 0.4807 0.0
C1698 C 0.10427 0.99938 0.48158 0.0
C1699 C 0.11205 0.9876 0.47094 0.0
C1700 C 0.11324 0.01398 0.48719 0.0
C1701 C 0.13013 0.01703 0.48223 0.0
C1702 C 0.13804 0.00509 0.472 0.0
C1703 C 0.1291 0.99057 0.46637 0.0
C1704 C 0.13946 0.03305 0.48667 0.0
C1705 C 0.15535 0.03217 0.49503 0.0
C1706 C 0.13367 0.04892 0.48115 0.0
C1707 C 0.11719 0.05065 0.47192 0.0
C1708 C 0.11412 0.0425 0.45613 0.0
C1709 C 0.09847 0.04409 0.44759 0.0
C1710 C 0.08586 0.05392 0.45464 0.0
C1711 C 0.0889 0.06223 0.47022 0.0
C1712 C 0.10452 0.06066 0.47883 0.0
C1713 C 0.19102 0.0936 0.47076 0.0
C1714 C 0.20089 0.09925 0.48492 0.0
C1715 C 0.17705 0.0826 0.4729 0.0
C1716 C 0.17275 0.07692 0.48922 0.0
C1717 C 0.18171 0.08359 0.50353 0.0
C1718 C 0.19569 0.09474 0.50139 0.0
C1719 C 0.16067 0.06228 0.49066 0.0
C1720 C 0.14428 0.06338 0.48338 0.0
C1721 C 0.1661 0.04653 0.49691 0.0
C1722 C 0.18343 0.04436 0.5042 0.0
C1723 C 0.18555 0.03976 0.52137 0.0
C1724 C 0.20189 0.03786 0.52834 0.0
C1725 C 0.21619 0.04044 0.51822 0.0
C1726 C 0.21417 0.04483 0.50107 0.0
C1727 C 0.19785 0.04671 0.49403 0.0
H1728 H 0.22883 0.03899 0.52364 0.0
H1729 H 0.07375 0.05514 0.448 0.0
H1730 H 0.76077 0.11953 0.71161 0.0
H1731 H 0.73723 0.10014 0.71867 0.0
H1732 H 0.70526 0.14247 0.72809 0.0
H1733 H 0.72882 0.16204 0.72092 0.0
H1734 H 0.70172 0.1183 0.75247 0.0
H1735 H 0.70012 0.12024 0.69165 0.0
H1736 H 0.71174 0.11896 0.6627 0.0
H1737 H 0.72537 0.0674 0.67076 0.0
H1738 H 0.71405 0.06843 0.69987 0.0
H1739 H 0.62626 0.06472 0.75367 0.0
H1740 H 0.64714 0.08713 0.74667 0.0
H1741 H 0.68425 0.04954 0.73608 0.0
H1742 H 0.66352 0.02713 0.7429 0.0
H1743 H 0.68312 0.07326 0.71134 0.0
H1744 H 0.68633 0.07215 0.77286 0.0
H1745 H 0.67483 0.0736 0.80186 0.0
H1746 H 0.65788 0.12385 0.79225 0.0
H1747 H 0.66909 0.12261 0.76309 0.0
C1748 C 0.74869 0.12473 0.71504 0.0
C1749 C 0.74661 0.14233 0.71554 0.0
C1750 C 0.73526 0.11363 0.71911 0.0
C1751 C 0.71941 0.11986 0.72364 0.0
C1752 C 0.71738 0.13741 0.72457 0.0
C1753 C 0.73085 0.14856 0.72052 0.0
C1754 C 0.70503 0.10793 0.72734 0.0
C1755 C 0.69744 0.10863 0.74338 0.0
C1756 C 0.69962 0.09518 0.71555 0.0
C1757 C 0.70635 0.09446 0.698 0.0
C1758 C 0.70571 0.10866 0.6873 0.0
C1759 C 0.71223 0.10798 0.67085 0.0
C1760 C 0.71932 0.09312 0.66491 0.0
C1761 C 0.71988 0.0789 0.67539 0.0
C1762 C 0.7134 0.07952 0.69186 0.0
C1763 C 0.63888 0.06123 0.74989 0.0
C1764 C 0.64322 0.04413 0.74886 0.0
C1765 C 0.6508 0.07405 0.74594 0.0
C1766 C 0.66728 0.06999 0.74094 0.0
C1767 C 0.67161 0.05295 0.73988 0.0
C1768 C 0.65974 0.04015 0.74385 0.0
C1769 C 0.68004 0.08341 0.7366 0.0
C1770 C 0.6873 0.08302 0.72039 0.0
C1771 C 0.6851 0.09645 0.74822 0.0
C1772 C 0.67837 0.09721 0.76574 0.0
C1773 C 0.68002 0.08345 0.77688 0.0
C1774 C 0.67358 0.08424 0.79336 0.0
C1775 C 0.66558 0.09878 0.79888 0.0
C1776 C 0.66405 0.11258 0.78795 0.0
C1777 C 0.67045 0.11184 0.77145 0.0
H1778 H 0.66061 0.09937 0.81164 0.0
H1779 H 0.72437 0.09261 0.65217 0.0
H1780 H 0.39928 0.00264 0.4981 0.0
H1781 H 0.3723 0.01721 0.49646 0.0
H1782 H 0.392 0.05492 0.53215 0.0
H1783 H 0.41894 0.04017 0.53419 0.0
H1784 H 0.35791 0.04572 0.53783 0.0
H1785 H 0.39311 0.06349 0.49118 0.0
H1786 H 0.41111 0.0591 0.4662 0.0
H1787 H 0.36927 0.03351 0.43993 0.0
H1788 H 0.35109 0.03754 0.46487 0.0
H1789 H 0.29765 0.10913 0.51556 0.0
H1790 H 0.32304 0.09309 0.52273 0.0
H1791 H 0.30947 0.05693 0.48298 0.0
H1792 H 0.28455 0.07308 0.47547 0.0
H1793 H 0.34117 0.06615 0.48037 0.0
H1794 H 0.30574 0.04804 0.52658 0.0
H1795 H 0.28754 0.05182 0.55153 0.0
H1796 H 0.329 0.0773 0.57849 0.0
H1797 H 0.34739 0.07387 0.55361 0.0
C1798 C 0.39777 0.01385 0.50586 0.0
C1799 C 0.4113 0.02033 0.51617 0.0
C1800 C 0.38239 0.02222 0.50483 0.0
C1801 C 0.38025 0.03726 0.51402 0.0
C1802 C 0.39343 0.04336 0.52491 0.0
C1803 C 0.40885 0.03501 0.52593 0.0
C1804 C 0.36471 0.04715 0.51139 0.0
C1805 C 0.35429 0.05037 0.52532 0.0
C1806 C 0.35992 0.05297 0.49502 0.0
C1807 C 0.37079 0.05068 0.47995 0.0
C1808 C 0.38779 0.05682 0.48013 0.0
C1809 C 0.39802 0.05441 0.46597 0.0
C1810 C 0.39135 0.046 0.45151 0.0
C1811 C 0.37443 0.04001 0.45115 0.0
C1812 C 0.36415 0.04236 0.46529 0.0
C1813 C 0.30003 0.09767 0.50848 0.0
C1814 C 0.28919 0.09245 0.49486 0.0
C1815 C 0.3145 0.08848 0.51263 0.0
C1816 C 0.31815 0.07376 0.50342 0.0
C1817 C 0.307 0.06829 0.49019 0.0
C1818 C 0.29274 0.07755 0.48592 0.0
C1819 C 0.33404 0.06449 0.50674 0.0
C1820 C 0.34466 0.06149 0.49291 0.0
C1821 C 0.3389 0.05881 0.52318 0.0
C1822 C 0.32788 0.06085 0.53816 0.0
C1823 C 0.31093 0.05457 0.53778 0.0
C1824 C 0.30059 0.05662 0.55192 0.0
C1825 C 0.3071 0.06483 0.56656 0.0
C1826 C 0.32397 0.07096 0.56712 0.0
C1827 C 0.33436 0.06895 0.55301 0.0
H1828 H 0.29907 0.06641 0.5775 0.0
H1829 H 0.39929 0.04415 0.44056 0.0
H1830 H 0.61002 0.48826 0.56695 0.0
H1831 H 0.62987 0.46667 0.55849 0.0
H1832 H 0.62324 0.48083 0.50578 0.0
H1833 H 0.60333 0.50248 0.51417 0.0
H1834 H 0.62442 0.44688 0.50892 0.0
H1835 H 0.6579 0.49497 0.52886 0.0
H1836 H 0.66703 0.51747 0.54921 0.0
H1837 H 0.68052 0.48006 0.58618 0.0
H1838 H 0.67123 0.45732 0.56612 0.0
H1839 H 0.70023 0.41155 0.47716 0.0
H1840 H 0.67747 0.43022 0.48534 0.0
H1841 H 0.68401 0.41546 0.53788 0.0
H1842 H 0.70689 0.39686 0.52984 0.0
H1843 H 0.68255 0.44932 0.5349 0.0
H1844 H 0.64969 0.40112 0.51432 0.0
H1845 H 0.64071 0.37884 0.49367 0.0
H1846 H 0.62638 0.41666 0.45746 0.0
H1847 H 0.6355 0.43918 0.47782 0.0
C1848 C 0.61278 0.48678 0.55355 0.0
C1849 C 0.60521 0.49721 0.54125 0.0
C1850 C 0.62412 0.47442 0.54873 0.0
C1851 C 0.62828 0.47231 0.53153 0.0
C1852 C 0.62025 0.48224 0.51914 0.0
C1853 C 0.60883 0.49459 0.52395 0.0
C1854 C 0.64144 0.46017 0.52655 0.0
C1855 C 0.63719 0.44753 0.51445 0.0
C1856 C 0.65803 0.46081 0.53399 0.0
C1857 C 0.66371 0.47445 0.54605 0.0
C1858 C 0.66269 0.49154 0.54137 0.0
C1859 C 0.66791 0.50434 0.55285 0.0
C1860 C 0.67431 0.5002 0.56899 0.0
C1861 C 0.67554 0.48325 0.57368 0.0
C1862 C 0.67031 0.4704 0.56226 0.0
C1863 C 0.69677 0.41218 0.49045 0.0
C1864 C 0.70541 0.4027 0.50285 0.0
C1865 C 0.68369 0.42281 0.49509 0.0
C1866 C 0.67893 0.42415 0.51221 0.0
C1867 C 0.68746 0.41463 0.5246 0.0
C1868 C 0.70051 0.40396 0.51996 0.0
C1869 C 0.66552 0.43597 0.5173 0.0
C1870 C 0.66976 0.44861 0.52941 0.0
C1871 C 0.64896 0.43535 0.50981 0.0
C1872 C 0.64344 0.42184 0.49754 0.0
C1873 C 0.64476 0.40469 0.50191 0.0
C1874 C 0.63962 0.39202 0.49026 0.0
C1875 C 0.63302 0.39634 0.47424 0.0
C1876 C 0.63151 0.41334 0.46986 0.0
C1877 C 0.63665 0.42606 0.48146 0.0
H1878 H 0.62904 0.38651 0.46524 0.0
H1879 H 0.67835 0.51012 0.57786 0.0
H1880 H 0.7434 0.25523 0.34636 0.0
H1881 H 0.74081 0.26852 0.37436 0.0
H1882 H 0.69436 0.2916 0.3576 0.0
H1883 H 0.697 0.27843 0.3294 0.0
H1884 H 0.71686 0.3143 0.37346 0.0
H1885 H 0.69166 0.26047 0.38575 0.0
H1886 H 0.68911 0.22932 0.38607 0.0
H1887 H 0.73523 0.22715 0.41616 0.0
H1888 H 0.7382 0.25827 0.41582 0.0
H1889 H 0.71823 0.34856 0.45855 0.0
H1890 H 0.70667 0.33335 0.43326 0.0
H1891 H 0.74871 0.29948 0.43573 0.0
H1892 H 0.76001 0.3142 0.46087 0.0
H1893 H 0.72026 0.28235 0.42765 0.0
H1894 H 0.74863 0.33486 0.40948 0.0
H1895 H 0.7525 0.36592 0.40854 0.0
H1896 H 0.70131 0.37028 0.38918 0.0
H1897 H 0.69709 0.33924 0.3902 0.0
C1898 C 0.73261 0.2631 0.34865 0.0
C1899 C 0.72042 0.26582 0.33569 0.0
C1900 C 0.73106 0.27056 0.36469 0.0
C1901 C 0.71729 0.28091 0.36811 0.0
C1902 C 0.70502 0.28358 0.35525 0.0
C1903 C 0.7065 0.27598 0.3392 0.0
C1904 C 0.7164 0.28958 0.38489 0.0
C1905 C 0.71717 0.30733 0.38534 0.0
C1906 C 0.71696 0.28047 0.40036 0.0
C1907 C 0.71519 0.26173 0.40069 0.0
C1908 C 0.70132 0.25335 0.39234 0.0
C1909 C 0.69979 0.23569 0.39254 0.0
C1910 C 0.71201 0.22626 0.40111 0.0
C1911 C 0.72577 0.23447 0.40953 0.0
C1912 C 0.72737 0.25212 0.40936 0.0
C1913 C 0.72483 0.33772 0.45381 0.0
C1914 C 0.74013 0.33271 0.46164 0.0
C1915 C 0.71826 0.32909 0.43934 0.0
C1916 C 0.72693 0.31537 0.43249 0.0
C1917 C 0.74177 0.30999 0.44076 0.0
C1918 C 0.74829 0.31853 0.45512 0.0
C1919 C 0.72146 0.30704 0.41618 0.0
C1920 C 0.71947 0.28933 0.4158 0.0
C1921 C 0.71992 0.31617 0.40077 0.0
C1922 C 0.72247 0.33479 0.40012 0.0
C1923 C 0.73816 0.34247 0.40514 0.0
C1924 C 0.74043 0.36006 0.40457 0.0
C1925 C 0.72714 0.37007 0.39886 0.0
C1926 C 0.71158 0.36251 0.39364 0.0
C1927 C 0.70924 0.34493 0.39421 0.0
H1928 H 0.72891 0.38369 0.39842 0.0
H1929 H 0.7108 0.21259 0.40125 0.0
H1930 H 0.51111 0.04719 0.91695 0.0
H1931 H 0.52893 0.04851 0.89159 0.0
H1932 H 0.54257 0.99664 0.89952 0.0
H1933 H 0.525 0.99531 0.92479 0.0
H1934 H 0.56989 0.01522 0.89187 0.0
H1935 H 0.51181 0.0084 0.86971 0.0
H1936 H 0.482 0.01673 0.86565 0.0
H1937 H 0.49898 0.06379 0.84371 0.0
H1938 H 0.52892 0.05581 0.84785 0.0
H1939 H 0.58404 0.97509 0.81427 0.0
H1940 H 0.57188 0.98628 0.84022 0.0
H1941 H 0.58006 0.03718 0.82201 0.0
H1942 H 0.59273 0.02601 0.7959 0.0
H1943 H 0.54497 0.027 0.8347 0.0
H1944 H 0.60341 0.02998 0.85197 0.0
H1945 H 0.63266 0.0198 0.85511 0.0
H1946 H 0.61449 0.9784 0.88569 0.0
H1947 H 0.58508 0.98817 0.88252 0.0
C1948 C 0.51788 0.03607 0.91321 0.0
C1949 C 0.5167 0.02115 0.92287 0.0
C1950 C 0.52807 0.03685 0.89876 0.0
C1951 C 0.53706 0.02265 0.89362 0.0
C1952 C 0.5359 0.0078 0.90331 0.0
C1953 C 0.52584 0.00706 0.91776 0.0
C1954 C 0.54747 0.02286 0.87802 0.0
C1955 C 0.56443 0.01783 0.87938 0.0
C1956 C 0.54056 0.02682 0.86175 0.0
C1957 C 0.52258 0.03161 0.8593 0.0
C1958 C 0.50918 0.02058 0.86415 0.0
C1959 C 0.49227 0.02523 0.86181 0.0
C1960 C 0.4886 0.04081 0.85449 0.0
C1961 C 0.50184 0.05175 0.84943 0.0
C1962 C 0.51878 0.04717 0.85177 0.0
C1963 C 0.58335 0.98868 0.81578 0.0
C1964 C 0.5893 0.99969 0.80305 0.0
C1965 C 0.57645 0.99504 0.83063 0.0
C1966 C 0.57515 0.01252 0.833 0.0
C1967 C 0.58103 0.02364 0.82037 0.0
C1968 C 0.58829 0.01726 0.80555 0.0
C1969 C 0.56707 0.01875 0.8486 0.0
C1970 C 0.55056 0.02493 0.84725 0.0
C1971 C 0.57432 0.0157 0.86487 0.0
C1972 C 0.59201 0.00978 0.86692 0.0
C1973 C 0.60562 0.01863 0.85926 0.0
C1974 C 0.62224 0.01294 0.86106 0.0
C1975 C 0.62543 0.99845 0.87058 0.0
C1976 C 0.612 0.98963 0.87833 0.0
C1977 C 0.59536 0.99526 0.87655 0.0
H1978 H 0.6383 0.99406 0.87196 0.0
H1979 H 0.47549 0.04438 0.85268 0.0
H1980 H 0.29876 0.29856 0.40511 0.0
H1981 H 0.28735 0.27516 0.42222 0.0
H1982 H 0.29073 0.2415 0.37905 0.0
H1983 H 0.30242 0.26465 0.36199 0.0
H1984 H 0.2602 0.23769 0.39545 0.0
H1985 H 0.32034 0.24111 0.41018 0.0
H1986 H 0.34684 0.25552 0.42058 0.0
H1987 H 0.32359 0.26573 0.46853 0.0
H1988 H 0.29686 0.25157 0.45831 0.0
H1989 H 0.2599 0.15567 0.42884 0.0
H1990 H 0.26653 0.18268 0.41538 0.0
H1991 H 0.26323 0.20808 0.46397 0.0
H1992 H 0.25681 0.18092 0.4777 0.0
H1993 H 0.29113 0.21851 0.44728 0.0
H1994 H 0.23197 0.2123 0.43383 0.0
H1995 H 0.20547 0.19781 0.42358 0.0
H1996 H 0.22628 0.19307 0.3736 0.0
H1997 H 0.25302 0.20732 0.38361 0.0
C1998 C 0.2972 0.28615 0.3993 0.0
C1999 C 0.30153 0.28348 0.38218 0.0
C2000 C 0.29061 0.27282 0.40907 0.0
C2001 C 0.28827 0.2566 0.4019 0.0
C2002 C 0.29235 0.25396 0.38478 0.0
C2003 C 0.29898 0.26723 0.37504 0.0
C2004 C 0.28187 0.24222 0.41224 0.0
C2005 C 0.26699 0.23341 0.40673 0.0
C2006 C 0.29047 0.23702 0.42725 0.0
C2007 C 0.30654 0.24547 0.43341 0.0
C2008 C 0.32083 0.24656 0.42289 0.0
C2009 C 0.33591 0.25465 0.42876 0.0
C2010 C 0.33688 0.26159 0.44519 0.0
C2011 C 0.32281 0.26039 0.4558 0.0
C2012 C 0.30769 0.25233 0.44998 0.0
C2013 C 0.26048 0.16698 0.4367 0.0
C2014 C 0.2578 0.16612 0.45436 0.0
C2015 C 0.26418 0.18245 0.42895 0.0
C2016 C 0.26514 0.19743 0.43862 0.0
C2017 C 0.26247 0.19666 0.45626 0.0
C2018 C 0.25878 0.18114 0.46407 0.0
C2019 C 0.26962 0.21371 0.43029 0.0
C2020 C 0.28415 0.2229 0.43616 0.0
C2021 C 0.26066 0.2193 0.41563 0.0
C2022 C 0.24456 0.21078 0.40952 0.0
C2023 C 0.23095 0.20806 0.42069 0.0
C2024 C 0.21587 0.19991 0.41491 0.0
C2025 C 0.2142 0.1945 0.39796 0.0
C2026 C 0.22759 0.19727 0.38673 0.0
C2027 C 0.24271 0.2054 0.39244 0.0
H2028 H 0.20252 0.18819 0.39351 0.0
H2029 H 0.34857 0.26784 0.44971 0.0
H2030 H 0.52863 0.44086 0.86298 0.0
H2031 H 0.50697 0.4522 0.84373 0.0
H2032 H 0.47804 0.46782 0.88696 0.0
H2033 H 0.49979 0.45695 0.9063 0.0
H2034 H 0.45843 0.45057 0.86256 0.0
H2035 H 0.50028 0.49653 0.86509 0.0
H2036 H 0.52905 0.50947 0.86237 0.0
H2037 H 0.52918 0.49556 0.80937 0.0
H2038 H 0.50049 0.48231 0.81184 0.0
H2039 H 0.39813 0.50326 0.82682 0.0
H2040 H 0.42243 0.49317 0.84316 0.0
H2041 H 0.44866 0.48315 0.7965 0.0
H2042 H 0.42438 0.49365 0.77993 0.0
H2043 H 0.47039 0.49608 0.8207 0.0
H2044 H 0.42863 0.45109 0.81735 0.0
H2045 H 0.4001 0.4375 0.81956 0.0
H2046 H 0.40013 0.44836 0.87326 0.0
H2047 H 0.42857 0.46224 0.87134 0.0
C2048 C 0.51777 0.4469 0.86842 0.0
C2049 C 0.51596 0.44796 0.88622 0.0
C2050 C 0.50538 0.45332 0.85738 0.0
C2051 C 0.49096 0.46092 0.86394 0.0
C2052 C 0.48906 0.46195 0.88166 0.0
C2053 C 0.50147 0.45563 0.89269 0.0
C2054 C 0.47759 0.46752 0.85238 0.0
C2055 C 0.461 0.46065 0.85353 0.0
C2056 C 0.48111 0.48024 0.84021 0.0
C2057 C 0.49832 0.48827 0.8387 0.0
C2058 C 0.50651 0.4961 0.85289 0.0
C2059 C 0.52278 0.50352 0.85139 0.0
C2060 C 0.53096 0.5033 0.83572 0.0
C2061 C 0.52285 0.4957 0.8215 0.0
C2062 C 0.50657 0.48824 0.82295 0.0
C2063 C 0.4091 0.49904 0.81998 0.0
C2064 C 0.40924 0.49908 0.80205 0.0
C2065 C 0.42297 0.49321 0.82936 0.0
C2066 C 0.43719 0.48704 0.82104 0.0
C2067 C 0.43775 0.48776 0.80316 0.0
C2068 C 0.42387 0.49375 0.79373 0.0
C2069 C 0.45113 0.47936 0.83112 0.0
C2070 C 0.46783 0.48595 0.82966 0.0
C2071 C 0.44777 0.46624 0.84294 0.0
C2072 C 0.43068 0.45783 0.84417 0.0
C2073 C 0.4225 0.45069 0.82961 0.0
C2074 C 0.40635 0.44292 0.83081 0.0
C2075 C 0.39829 0.4421 0.84653 0.0
C2076 C 0.40638 0.44901 0.86109 0.0
C2077 C 0.42253 0.45682 0.85996 0.0
H2078 H 0.38578 0.43607 0.84744 0.0
H2079 H 0.54356 0.50905 0.83458 0.0
H2080 H 0.68887 0.74345 0.1378 0.0
H2081 H 0.69772 0.72183 0.11773 0.0
H2082 H 0.74934 0.72698 0.13725 0.0
H2083 H 0.74061 0.74891 0.1572 0.0
H2084 H 0.74772 0.72737 0.10239 0.0
H2085 H 0.72562 0.69248 0.1469 0.0
H2086 H 0.70448 0.68268 0.1678 0.0
H2087 H 0.66854 0.671 0.1272 0.0
H2088 H 0.68937 0.68097 0.10606 0.0
H2089 H 0.77438 0.65838 0.05209 0.0
H2090 H 0.76861 0.67615 0.07681 0.0
H2091 H 0.71483 0.67294 0.0645 0.0
H2092 H 0.72044 0.65488 0.04004 0.0
H2093 H 0.71972 0.67041 0.09784 0.0
H2094 H 0.74012 0.70776 0.05379 0.0
H2095 H 0.76047 0.71829 0.03245 0.0
H2096 H 0.79879 0.72599 0.07174 0.0
H2097 H 0.77871 0.71529 0.09329 0.0
C2098 C 0.70211 0.73999 0.13781 0.0
C2099 C 0.71406 0.74791 0.14905 0.0
C2100 C 0.70712 0.72753 0.12644 0.0
C2101 C 0.72416 0.72268 0.1261 0.0
C2102 C 0.73611 0.73049 0.13736 0.0
C2103 C 0.73109 0.74292 0.14881 0.0
C2104 C 0.72952 0.70996 0.11348 0.0
C2105 C 0.74185 0.71479 0.10159 0.0
C2106 C 0.72157 0.69369 0.11222 0.0
C2107 C 0.70903 0.68759 0.1249 0.0
C2108 C 0.71316 0.68794 0.14243 0.0
C2109 C 0.70124 0.68233 0.15432 0.0
C2110 C 0.68517 0.67625 0.14883 0.0
C2111 C 0.68099 0.67573 0.13143 0.0
C2112 C 0.69286 0.68133 0.11949 0.0
C2113 C 0.76131 0.66137 0.0547 0.0
C2114 C 0.74788 0.6553 0.04402 0.0
C2115 C 0.75804 0.67158 0.06881 0.0
C2116 C 0.7413 0.67609 0.07237 0.0
C2117 C 0.72785 0.66965 0.062 0.0
C2118 C 0.73109 0.65935 0.04798 0.0
C2119 C 0.73776 0.6879 0.08658 0.0
C2120 C 0.72575 0.68291 0.09876 0.0
C2121 C 0.74592 0.70407 0.08804 0.0
C2122 C 0.75798 0.71054 0.07511 0.0
C2123 C 0.75293 0.71157 0.05786 0.0
C2124 C 0.7644 0.71759 0.04573 0.0
C2125 C 0.78093 0.72275 0.05073 0.0
C2126 C 0.786 0.72195 0.06788 0.0
C2127 C 0.77457 0.71592 0.08005 0.0
H2128 H 0.7898 0.72741 0.04132 0.0
H2129 H 0.67595 0.67192 0.15806 0.0
H2130 H 0.01403 0.02195 0.13095 0.0
H2131 H 0.99125 0.0169 0.1512 0.0
H2132 H 0.9563 0.04297 0.11818 0.0
H2133 H 0.97925 0.04875 0.09819 0.0
H2134 H 0.95304 0.05325 0.14994 0.0
H2135 H 0.95455 0.99926 0.12244 0.0
H2136 H 0.96769 0.97348 0.11164 0.0
H2137 H 0.98357 0.96067 0.16254 0.0
H2138 H 0.97073 0.98651 0.17362 0.0
H2139 H 0.87982 0.02877 0.19729 0.0
H2140 H 0.90032 0.03193 0.17433 0.0
H2141 H 0.93863 0.00868 0.20576 0.0
H2142 H 0.91819 0.00529 0.22869 0.0
H2143 H 0.93884 0.99656 0.17349 0.0
H2144 H 0.93858 0.0514 0.20056 0.0
H2145 H 0.92538 0.07719 0.21128 0.0
H2146 H 0.9069 0.08824 0.16079 0.0
H2147 H 0.9198 0.06238 0.1498 0.0
C2148 C 0.00152 0.02668 0.12799 0.0
C2149 C 0.99852 0.0358 0.11292 0.0
C2150 C 0.98843 0.0236 0.13951 0.0
C2151 C 0.97197 0.02938 0.13615 0.0
C2152 C 0.96887 0.03833 0.12104 0.0
C2153 C 0.98199 0.04148 0.10953 0.0
C2154 C 0.95821 0.02667 0.14874 0.0
C2155 C 0.94973 0.0408 0.15485 0.0
C2156 C 0.95411 0.01049 0.15546 0.0
C2157 C 0.9618 0.9949 0.14884 0.0
C2158 C 0.96096 0.99101 0.13132 0.0
C2159 C 0.96833 0.97638 0.12514 0.0
C2160 C 0.97649 0.96546 0.13639 0.0
C2161 C 0.97726 0.96915 0.15384 0.0
C2162 C 0.96992 0.98377 0.16008 0.0
C2163 C 0.89259 0.02429 0.19932 0.0
C2164 C 0.89737 0.01684 0.21488 0.0
C2165 C 0.90432 0.02616 0.18619 0.0
C2166 C 0.92108 0.0207 0.18837 0.0
C2167 C 0.92578 0.01299 0.20377 0.0
C2168 C 0.91408 0.01113 0.2169 0.0
C2169 C 0.9338 0.02315 0.17473 0.0
C2170 C 0.94208 0.00898 0.16845 0.0
C2171 C 0.9377 0.03928 0.16782 0.0
C2172 C 0.93 0.05487 0.17439 0.0
C2173 C 0.93159 0.05926 0.19177 0.0
C2174 C 0.92418 0.0739 0.19789 0.0
C2175 C 0.91526 0.08432 0.18673 0.0
C2176 C 0.91378 0.08014 0.16942 0.0
C2177 C 0.92115 0.0655 0.16324 0.0
H2178 H 0.90954 0.09565 0.1915 0.0
H2179 H 0.9822 0.95414 0.13159 0.0
H2180 H 0.24826 0.74498 0.16118 0.0
H2181 H 0.23901 0.76901 0.14414 0.0
H2182 H 0.2915 0.78422 0.13641 0.0
H2183 H 0.30079 0.76069 0.15392 0.0
H2184 H 0.27261 0.81138 0.14074 0.0
H2185 H 0.26849 0.7596 0.10702 0.0
H2186 H 0.25797 0.73052 0.10057 0.0
H2187 H 0.20642 0.74716 0.10018 0.0
H2188 H 0.21664 0.77632 0.10685 0.0
H2189 H 0.2834 0.84342 0.05896 0.0
H2190 H 0.2817 0.82869 0.08607 0.0
H2191 H 0.22681 0.82885 0.08281 0.0
H2192 H 0.22847 0.8439 0.05543 0.0
H2193 H 0.23974 0.79686 0.08776 0.0
H2194 H 0.24594 0.85056 0.11445 0.0
H2195 H 0.25781 0.8794 0.11948 0.0
H2196 H 0.30663 0.85926 0.13195 0.0
H2197 H 0.29514 0.83031 0.12675 0.0
C2198 C 0.25782 0.75365 0.15615 0.0
C2199 C 0.27528 0.75079 0.15873 0.0
C2200 C 0.25251 0.76731 0.14631 0.0
C2201 C 0.26456 0.77829 0.13878 0.0
C2202 C 0.28195 0.77591 0.14203 0.0
C2203 C 0.28726 0.76232 0.15189 0.0
C2204 C 0.25932 0.79153 0.12653 0.0
C2205 C 0.2654 0.80824 0.12916 0.0
C2206 C 0.24944 0.78756 0.11167 0.0
C2207 C 0.2433 0.77006 0.10765 0.0
C2208 C 0.2549 0.75702 0.10569 0.0
C2209 C 0.249 0.74054 0.10198 0.0
C2210 C 0.23153 0.73698 0.10003 0.0
C2211 C 0.21994 0.74992 0.10174 0.0
C2212 C 0.22577 0.76642 0.10549 0.0
C2213 C 0.27095 0.84064 0.06415 0.0
C2214 C 0.25606 0.84472 0.05505 0.0
C2215 C 0.26999 0.83231 0.07973 0.0
C2216 C 0.25413 0.82776 0.08653 0.0
C2217 C 0.23918 0.83235 0.07781 0.0
C2218 C 0.24013 0.84098 0.06224 0.0
C2219 C 0.25357 0.81658 0.10166 0.0
C2220 C 0.24646 0.8002 0.09957 0.0
C2221 C 0.26265 0.82083 0.11692 0.0
C2222 C 0.26966 0.83823 0.12015 0.0
C2223 C 0.25924 0.85228 0.11815 0.0
C2224 C 0.2659 0.86865 0.12105 0.0
C2225 C 0.28296 0.87116 0.12602 0.0
C2226 C 0.2934 0.8573 0.12812 0.0
C2227 C 0.28681 0.84089 0.12523 0.0
H2228 H 0.2881 0.88385 0.12825 0.0
H2229 H 0.22699 0.72421 0.09714 0.0
H2230 H 0.0279 0.46485 0.07772 0.0
H2231 H 0.04449 0.46403 0.10447 0.0
H2232 H 0.03095 0.51527 0.11576 0.0
H2233 H 0.01403 0.51607 0.08908 0.0
H2234 H 0.06833 0.50505 0.12156 0.0
H2235 H 0.0096 0.49072 0.13517 0.0
H2236 H 0.98235 0.47486 0.13076 0.0
H2237 H 0.00759 0.42808 0.13889 0.0
H2238 H 0.03506 0.44366 0.14307 0.0
H2239 H 0.09203 0.50478 0.20985 0.0
H2240 H 0.0785 0.50889 0.1819 0.0
H2241 H 0.07272 0.45476 0.17541 0.0
H2242 H 0.0855 0.45064 0.20363 0.0
H2243 H 0.04481 0.46794 0.16679 0.0
H2244 H 0.10304 0.48036 0.15316 0.0
H2245 H 0.13132 0.49456 0.15616 0.0
H2246 H 0.10905 0.54265 0.14684 0.0
H2247 H 0.08057 0.52874 0.14396 0.0
C2248 C 0.02865 0.476 0.08581 0.0
C2249 C 0.01969 0.49051 0.08143 0.0
C2250 C 0.03809 0.47552 0.10104 0.0
C2251 C 0.0389 0.4896 0.11199 0.0
C2252 C 0.03049 0.50433 0.10738 0.0
C2253 C 0.02078 0.50473 0.09226 0.0
C2254 C 0.04757 0.4884 0.12878 0.0
C2255 C 0.06315 0.49715 0.1316 0.0
C2256 C 0.04093 0.47772 0.14157 0.0
C2257 C 0.0244 0.46835 0.13925 0.0
C2258 C 0.00937 0.47705 0.13586 0.0
C2259 C 0.99388 0.46811 0.13344 0.0
C2260 C 0.99325 0.45047 0.1345 0.0
C2261 C 0.0081 0.44174 0.13805 0.0
C2262 C 0.02363 0.45062 0.14045 0.0
C2263 C 0.08798 0.49377 0.20239 0.0
C2264 C 0.08976 0.47739 0.20893 0.0
C2265 C 0.08033 0.49612 0.18637 0.0
C2266 C 0.07473 0.48213 0.17643 0.0
C2267 C 0.07686 0.46576 0.18284 0.0
C2268 C 0.0842 0.46341 0.19897 0.0
C2269 C 0.06587 0.48444 0.15973 0.0
C2270 C 0.05013 0.47591 0.15688 0.0
C2271 C 0.07256 0.49511 0.14684 0.0
C2272 C 0.08965 0.50352 0.14851 0.0
C2273 C 0.10415 0.49397 0.15187 0.0
C2274 C 0.12022 0.50197 0.15352 0.0
C2275 C 0.12198 0.5195 0.15172 0.0
C2276 C 0.10766 0.52907 0.14824 0.0
C2277 C 0.09156 0.52114 0.14657 0.0
H2278 H 0.13443 0.52564 0.15298 0.0
H2279 H 0.98124 0.44357 0.13262 0.0
H2280 H 0.3602 0.67472 0.25052 0.0
H2281 H 0.38184 0.68027 0.27288 0.0
H2282 H 0.36031 0.72877 0.28288 0.0
H2283 H 0.33847 0.72322 0.26083 0.0
H2284 H 0.39467 0.73091 0.27789 0.0
H2285 H 0.35519 0.6966 0.31053 0.0
H2286 H 0.33782 0.67091 0.31654 0.0
H2287 H 0.38286 0.64145 0.31797 0.0
H2288 H 0.4005 0.66694 0.31173 0.0
H2289 H 0.43464 0.76153 0.35041 0.0
H2290 H 0.41206 0.74848 0.33265 0.0
H2291 H 0.44067 0.70292 0.32896 0.0
H2292 H 0.46334 0.71591 0.34731 0.0
H2293 H 0.40501 0.69657 0.32969 0.0
H2294 H 0.44467 0.7303 0.29821 0.0
H2295 H 0.46255 0.7556 0.29202 0.0
H2296 H 0.41788 0.78536 0.28737 0.0
H2297 H 0.39973 0.76029 0.2938 0.0
C2298 C 0.35987 0.68644 0.25769 0.0
C2299 C 0.34763 0.69857 0.2538 0.0
C2300 C 0.37228 0.68959 0.27044 0.0
C2301 C 0.37266 0.70491 0.27956 0.0
C2302 C 0.36028 0.71689 0.27594 0.0
C2303 C 0.34786 0.71374 0.26326 0.0
C2304 C 0.38649 0.70904 0.29216 0.0
C2305 C 0.3968 0.72348 0.2893 0.0
C2306 C 0.38973 0.69895 0.30667 0.0
C2307 C 0.37914 0.68364 0.31047 0.0
C2308 C 0.36138 0.68462 0.31197 0.0
C2309 C 0.35149 0.6701 0.31545 0.0
C2310 C 0.35922 0.65455 0.31758 0.0
C2311 C 0.37688 0.6535 0.31629 0.0
C2312 C 0.38683 0.66798 0.31279 0.0
C2313 C 0.43597 0.74859 0.34614 0.0
C2314 C 0.45081 0.73979 0.35002 0.0
C2315 C 0.42307 0.74116 0.33598 0.0
C2316 C 0.42489 0.72491 0.32914 0.0
C2317 C 0.43909 0.71553 0.33404 0.0
C2318 C 0.452 0.72293 0.3445 0.0
C2319 C 0.41275 0.71872 0.31563 0.0
C2320 C 0.40291 0.70389 0.31822 0.0
C2321 C 0.40999 0.72834 0.3007 0.0
C2322 C 0.42085 0.74343 0.29661 0.0
C2323 C 0.43866 0.74226 0.29597 0.0
C2324 C 0.44885 0.75656 0.29242 0.0
C2325 C 0.44136 0.77208 0.28934 0.0
C2326 C 0.42366 0.77333 0.28977 0.0
C2327 C 0.41342 0.75907 0.29335 0.0
H2328 H 0.44927 0.78314 0.28659 0.0
H2329 H 0.35154 0.64332 0.32028 0.0
H2330 H 0.96546 0.40033 0.01653 0.0
H2331 H 0.96761 0.37187 0.0043 0.0
H2332 H 0.9746 0.39355 0.95448 0.0
H2333 H 0.97303 0.42183 0.96652 0.0
H2334 H 0.95111 0.36658 0.95437 0.0
H2335 H 0.0081 0.38104 0.97761 0.0
H2336 H 0.02825 0.38844 0.00118 0.0
H2337 H 0.01378 0.34271 0.02719 0.0
H2338 H 0.99338 0.33516 0.00385 0.0
H2339 H 0.99645 0.32318 0.8967 0.0
H2340 H 0.98832 0.34214 0.91927 0.0
H2341 H 0.98387 0.30023 0.95402 0.0
H2342 H 0.99216 0.28076 0.93114 0.0
H2343 H 0.00062 0.33113 0.96801 0.0
H2344 H 0.94847 0.31381 0.94089 0.0
H2345 H 0.92911 0.30654 0.91667 0.0
H2346 H 0.93412 0.35737 0.89804 0.0
H2347 H 0.95373 0.3649 0.92199 0.0
C2348 C 0.96754 0.39903 0.00298 0.0
C2349 C 0.96899 0.41343 0.99251 0.0
C2350 C 0.96868 0.38276 0.99602 0.0
C2351 C 0.97124 0.38062 0.97849 0.0
C2352 C 0.97245 0.39492 0.96802 0.0
C2353 C 0.97144 0.41111 0.97494 0.0
C2354 C 0.97312 0.36367 0.97074 0.0
C2355 C 0.96185 0.35875 0.95743 0.0
C2356 C 0.98676 0.35314 0.97518 0.0
C2357 C 0.99907 0.35765 0.98912 0.0
C2358 C 0.00912 0.37264 0.98843 0.0
C2359 C 0.0206 0.37684 0.00173 0.0
C2360 C 0.02225 0.36608 0.01571 0.0
C2361 C 0.01246 0.35106 0.01638 0.0
C2362 C 0.00094 0.34681 0.00312 0.0
C2363 C 0.99382 0.31785 0.90911 0.0
C2364 C 0.99477 0.30037 0.91203 0.0
C2365 C 0.98914 0.32877 0.92202 0.0
C2366 C 0.98519 0.32255 0.9382 0.0
C2367 C 0.98676 0.30522 0.94154 0.0
C2368 C 0.99149 0.29415 0.92849 0.0
C2369 C 0.97906 0.33454 0.95113 0.0
C2370 C 0.9895 0.33857 0.96537 0.0
C2371 C 0.96459 0.34427 0.94761 0.0
C2372 C 0.95261 0.3399 0.93325 0.0
C2373 C 0.94551 0.32342 0.93159 0.0
C2374 C 0.93449 0.31925 0.9179 0.0
C2375 C 0.93039 0.33148 0.90582 0.0
C2376 C 0.93729 0.34791 0.90742 0.0
C2377 C 0.94834 0.35215 0.92107 0.0
H2378 H 0.92186 0.32822 0.89523 0.0
H2379 H 0.03115 0.36935 0.02599 0.0
H2380 H 0.66804 0.77974 0.27633 0.0
H2381 H 0.64712 0.77438 0.29885 0.0
H2382 H 0.60638 0.77548 0.26131 0.0
H2383 H 0.62708 0.78047 0.23883 0.0
H2384 H 0.60811 0.79934 0.29527 0.0
H2385 H 0.60886 0.74156 0.27081 0.0
H2386 H 0.62399 0.71576 0.2633 0.0
H2387 H 0.64108 0.7108 0.31533 0.0
H2388 H 0.62624 0.73676 0.32308 0.0
H2389 H 0.52761 0.77911 0.32304 0.0
H2390 H 0.55419 0.78067 0.30773 0.0
H2391 H 0.57932 0.75403 0.34847 0.0
H2392 H 0.5523 0.75194 0.36382 0.0
H2393 H 0.59015 0.74335 0.31825 0.0
H2394 H 0.58564 0.79685 0.34449 0.0
H2395 H 0.57208 0.82303 0.35362 0.0
H2396 H 0.56477 0.83736 0.30131 0.0
H2397 H 0.57806 0.81115 0.29185 0.0
C2398 C 0.65462 0.77864 0.27292 0.0
C2399 C 0.64915 0.78041 0.25585 0.0
C2400 C 0.64274 0.77555 0.28574 0.0
C2401 C 0.62528 0.77446 0.28165 0.0
C2402 C 0.61983 0.77616 0.26464 0.0
C2403 C 0.63166 0.77893 0.25183 0.0
C2404 C 0.61244 0.77263 0.29508 0.0
C2405 C 0.60412 0.78713 0.30031 0.0
C2406 C 0.60784 0.75679 0.30213 0.0
C2407 C 0.61668 0.74121 0.29746 0.0
C2408 C 0.61602 0.73509 0.2806 0.0
C2409 C 0.6245 0.7204 0.27631 0.0
C2410 C 0.63355 0.71168 0.28882 0.0
C2411 C 0.6341 0.71759 0.30565 0.0
C2412 C 0.62566 0.73228 0.30999 0.0
C2413 C 0.53875 0.77354 0.32881 0.0
C2414 C 0.53788 0.76558 0.34477 0.0
C2415 C 0.55399 0.77452 0.32005 0.0
C2416 C 0.56889 0.76788 0.32714 0.0
C2417 C 0.56802 0.75939 0.34283 0.0
C2418 C 0.5526 0.75821 0.35158 0.0
C2419 C 0.58518 0.77003 0.31793 0.0
C2420 C 0.59425 0.75565 0.31353 0.0
C2421 C 0.59072 0.7861 0.31186 0.0
C2422 C 0.58279 0.80197 0.31746 0.0
C2423 C 0.58105 0.80553 0.33493 0.0
C2424 C 0.57342 0.82039 0.34016 0.0
C2425 C 0.56755 0.83184 0.32805 0.0
C2426 C 0.56933 0.82848 0.31068 0.0
C2427 C 0.57694 0.81363 0.30537 0.0
H2428 H 0.56165 0.84334 0.33213 0.0
H2429 H 0.6401 0.70031 0.28547 0.0
H2430 H 0.05963 0.1076 0.99973 0.0
H2431 H 0.05285 0.12953 0.97905 0.0
H2432 H 7e-05 0.12614 0.99321 0.0
H2433 H 0.00666 0.1038 0.01359 0.0
H2434 H 0.00313 0.12909 0.95897 0.0
H2435 H 0.02607 0.15768 0.00883 0.0
H2436 H 0.04727 0.16379 0.0318 0.0
H2437 H 0.08477 0.17707 0.99463 0.0
H2438 H 0.06384 0.1708 0.97142 0.0
H2439 H 0.97725 0.20797 0.9255 0.0
H2440 H 0.98379 0.18421 0.94409 0.0
H2441 H 0.03661 0.18844 0.93017 0.0
H2442 H 0.03022 0.21235 0.9117 0.0
H2443 H 0.03365 0.18479 0.96396 0.0
H2444 H 0.01047 0.15671 0.91404 0.0
H2445 H 0.98921 0.15061 0.89113 0.0
H2446 H 0.95208 0.13646 0.92837 0.0
H2447 H 0.97306 0.14271 0.95153 0.0
C2448 C 0.04652 0.1113 0.99826 0.0
C2449 C 0.0337 0.10396 0.00838 0.0
C2450 C 0.0427 0.12397 0.98654 0.0
C2451 C 0.02599 0.12967 0.98475 0.0
C2452 C 0.01306 0.12201 0.99443 0.0
C2453 C 0.01688 0.10934 0.00617 0.0
C2454 C 0.0221 0.14388 0.9731 0.0
C2455 C 0.00965 0.14134 0.96018 0.0
C2456 C 0.03085 0.15976 0.97445 0.0
C2457 C 0.04344 0.16361 0.98839 0.0
C2458 C 0.03887 0.16177 0.00555 0.0
C2459 C 0.05083 0.16529 0.01862 0.0
C2460 C 0.06737 0.17077 0.01468 0.0
C2461 C 0.07196 0.17279 0.99767 0.0
C2462 C 0.06005 0.16928 0.98455 0.0
C2463 C 0.99026 0.20384 0.92635 0.0
C2464 C 0.00321 0.21207 0.91707 0.0
C2465 C 0.99396 0.19019 0.93693 0.0
C2466 C 0.01067 0.18441 0.9384 0.0
C2467 C 0.02363 0.19265 0.92922 0.0
C2468 C 0.01994 0.2063 0.91863 0.0
C2469 C 0.0147 0.17001 0.94979 0.0
C2470 C 0.02715 0.17254 0.96269 0.0
C2471 C 0.00593 0.15413 0.94842 0.0
C2472 C 0.9933 0.15034 0.93452 0.0
C2473 C 0.99773 0.15243 0.91735 0.0
C2474 C 0.98574 0.14892 0.90432 0.0
C2475 C 0.96929 0.1432 0.90829 0.0
C2476 C 0.96482 0.14092 0.92531 0.0
C2477 C 0.97676 0.14443 0.93839 0.0
H2478 H 0.96003 0.14048 0.89818 0.0
H2479 H 0.07661 0.17348 0.02481 0.0
H2480 H 0.35591 0.31402 0.26257 0.0
H2481 H 0.37205 0.30149 0.2396 0.0
H2482 H 0.41081 0.28705 0.27595 0.0
H2483 H 0.39476 0.29977 0.29903 0.0
H2484 H 0.42407 0.30246 0.24718 0.0
H2485 H 0.38472 0.25732 0.26007 0.0
H2486 H 0.35657 0.24396 0.26542 0.0
H2487 H 0.33961 0.25683 0.21488 0.0
H2488 H 0.36758 0.2705 0.20931 0.0
H2489 H 0.46619 0.25561 0.18309 0.0
H2490 H 0.45223 0.26325 0.20958 0.0
H2491 H 0.40696 0.27579 0.18087 0.0
H2492 H 0.4206 0.2678 0.1545 0.0
H2493 H 0.39852 0.25866 0.20821 0.0
H2494 H 0.43619 0.30642 0.19635 0.0
H2495 H 0.46392 0.32058 0.19074 0.0
H2496 H 0.48355 0.30354 0.23895 0.0
H2497 H 0.45599 0.28909 0.24475 0.0
C2498 C 0.3679 0.30823 0.26566 0.0
C2499 C 0.3741 0.30788 0.28258 0.0
C2500 C 0.37703 0.30095 0.25256 0.0
C2501 C 0.39254 0.29321 0.25611 0.0
C2502 C 0.39883 0.29291 0.27297 0.0
C2503 C 0.38962 0.30008 0.28613 0.0
C2504 C 0.40232 0.28586 0.24207 0.0
C2505 C 0.41864 0.29265 0.23883 0.0
C2506 C 0.39506 0.2733 0.23104 0.0
C2507 C 0.37822 0.26505 0.23433 0.0
C2508 C 0.37494 0.25742 0.25014 0.0
C2509 C 0.35902 0.24977 0.25321 0.0
C2510 C 0.3463 0.24958 0.24051 0.0
C2511 C 0.34947 0.257 0.22471 0.0
C2512 C 0.36537 0.26469 0.22159 0.0
C2513 C 0.45326 0.25998 0.18244 0.0
C2514 C 0.44453 0.26114 0.16667 0.0
C2515 C 0.44531 0.26439 0.19758 0.0
C2516 C 0.4286 0.27026 0.1972 0.0
C2517 C 0.41984 0.27126 0.18149 0.0
C2518 C 0.4277 0.26673 0.16641 0.0
C2519 C 0.42013 0.27554 0.21305 0.0
C2520 C 0.40405 0.26833 0.21665 0.0
C2521 C 0.42756 0.28781 0.22435 0.0
C2522 C 0.44411 0.29652 0.22089 0.0
C2523 C 0.44647 0.30559 0.20569 0.0
C2524 C 0.46214 0.31368 0.20249 0.0
C2525 C 0.4755 0.31292 0.21446 0.0
C2526 C 0.4732 0.30409 0.22968 0.0
C2527 C 0.45756 0.29596 0.23293 0.0
H2528 H 0.48763 0.3192 0.21195 0.0
H2529 H 0.33398 0.24365 0.2429 0.0
H2530 H 0.56284 0.38207 0.00907 0.0
H2531 H 0.55194 0.36351 0.03155 0.0
H2532 H 0.50849 0.34947 0.99953 0.0
H2533 H 0.51925 0.36811 0.97705 0.0
H2534 H 0.49997 0.35748 0.03304 0.0
H2535 H 0.5399 0.32294 0.00354 0.0
H2536 H 0.56794 0.31643 0.99196 0.0
H2537 H 0.59055 0.32052 0.04216 0.0
H2538 H 0.56266 0.3273 0.054 0.0
H2539 H 0.46675 0.28461 0.07274 0.0
H2540 H 0.47897 0.30534 0.05327 0.0
H2541 H 0.52371 0.31082 0.08584 0.0
H2542 H 0.51173 0.28963 0.10525 0.0
H2543 H 0.53269 0.30872 0.05381 0.0
H2544 H 0.4933 0.34169 0.08398 0.0
H2545 H 0.46572 0.34883 0.09622 0.0
H2546 H 0.44271 0.34886 0.04611 0.0
H2547 H 0.47011 0.34148 0.03358 0.0
C2548 C 0.55091 0.37509 0.00688 0.0
C2549 C 0.54189 0.3765 0.99131 0.0
C2550 C 0.54477 0.36443 0.01967 0.0
C2551 C 0.52947 0.35506 0.01714 0.0
C2552 C 0.52034 0.35659 0.0017 0.0
C2553 C 0.52654 0.36714 0.98885 0.0
C2554 C 0.52296 0.34361 0.03056 0.0
C2555 C 0.50702 0.3467 0.03748 0.0
C2556 C 0.53248 0.32994 0.03673 0.0
C2557 C 0.54923 0.32581 0.02963 0.0
C2558 C 0.55088 0.3226 0.01209 0.0
C2559 C 0.56674 0.31883 0.00548 0.0
C2560 C 0.58103 0.31811 0.01631 0.0
C2561 C 0.57947 0.32111 0.03378 0.0
C2562 C 0.56364 0.32491 0.04045 0.0
C2563 C 0.47915 0.29027 0.07585 0.0
C2564 C 0.48823 0.2855 0.0906 0.0
C2565 C 0.4861 0.3022 0.06472 0.0
C2566 C 0.50214 0.30986 0.06822 0.0
C2567 C 0.51128 0.30512 0.08292 0.0
C2568 C 0.50439 0.29304 0.09401 0.0
C2569 C 0.50952 0.3224 0.05619 0.0
C2570 C 0.52566 0.31955 0.04952 0.0
C2571 C 0.50025 0.33642 0.05037 0.0
C2572 C 0.48374 0.3409 0.05785 0.0
C2573 C 0.48233 0.3431 0.07558 0.0
C2574 C 0.46674 0.34721 0.08257 0.0
C2575 C 0.45247 0.34926 0.07196 0.0
C2576 C 0.45378 0.34725 0.05432 0.0
C2577 C 0.46934 0.34313 0.04726 0.0
H2578 H 0.4404 0.35245 0.07739 0.0
H2579 H 0.5933 0.31518 0.01117 0.0
H2580 H 0.67074 0.21836 0.20426 0.0
H2581 H 0.6439 0.21797 0.18779 0.0
H2582 H 0.62064 0.24704 0.22728 0.0
H2583 H 0.64739 0.24735 0.24388 0.0
H2584 H 0.59969 0.22039 0.21502 0.0
H2585 H 0.63375 0.26665 0.19288 0.0
H2586 H 0.65948 0.27993 0.18052 0.0
H2587 H 0.6544 0.24688 0.13699 0.0
H2588 H 0.62877 0.23323 0.14922 0.0
H2589 H 0.52765 0.2506 0.17047 0.0
H2590 H 0.55423 0.24814 0.18682 0.0
H2591 H 0.57686 0.22332 0.14408 0.0
H2592 H 0.55039 0.22599 0.12751 0.0
H2593 H 0.5984 0.24656 0.15763 0.0
H2594 H 0.56395 0.20083 0.17886 0.0
H2595 H 0.53839 0.18706 0.19105 0.0
H2596 H 0.54426 0.21815 0.23595 0.0
H2597 H 0.56973 0.23228 0.22392 0.0
C2598 C 0.65984 0.2245 0.20951 0.0
C2599 C 0.66117 0.23296 0.22531 0.0
C2600 C 0.64457 0.22435 0.20006 0.0
C2601 C 0.63035 0.2326 0.20627 0.0
C2602 C 0.63149 0.24063 0.22226 0.0
C2603 C 0.64679 0.2409 0.23165 0.0
C2604 C 0.61441 0.23327 0.1959 0.0
C2605 C 0.59934 0.22626 0.20255 0.0
C2606 C 0.61409 0.24056 0.17946 0.0
C2607 C 0.62946 0.24879 0.17205 0.0
C2608 C 0.63821 0.26211 0.18074 0.0
C2609 C 0.65275 0.26973 0.17375 0.0
C2610 C 0.6586 0.26422 0.15801 0.0
C2611 C 0.64988 0.25112 0.1492 0.0
C2612 C 0.63533 0.24344 0.15615 0.0
C2613 C 0.53827 0.2446 0.16453 0.0
C2614 C 0.53688 0.23845 0.14769 0.0
C2615 C 0.55344 0.24313 0.17394 0.0
C2616 C 0.56747 0.23534 0.16675 0.0
C2617 C 0.56618 0.22934 0.14989 0.0
C2618 C 0.55102 0.23085 0.14045 0.0
C2619 C 0.58358 0.23373 0.17676 0.0
C2620 C 0.59871 0.24059 0.17006 0.0
C2621 C 0.58396 0.22621 0.19312 0.0
C2622 C 0.56866 0.21773 0.20042 0.0
C2623 C 0.55971 0.20483 0.19128 0.0
C2624 C 0.54526 0.19694 0.19817 0.0
C2625 C 0.53968 0.20176 0.21424 0.0
C2626 C 0.54858 0.21445 0.22349 0.0
C2627 C 0.56304 0.22239 0.21665 0.0
H2628 H 0.52849 0.19563 0.21956 0.0
H2629 H 0.66986 0.27014 0.15261 0.0
H2630 H 0.45463 0.07037 0.04279 0.0
H2631 H 0.4547 0.09623 0.06012 0.0
H2632 H 0.50553 0.10915 0.04376 0.0
H2633 H 0.50545 0.08334 0.02615 0.0
H2634 H 0.49781 0.11344 0.08142 0.0
H2635 H 0.47882 0.12839 0.02446 0.0
H2636 H 0.46088 0.12464 0.99849 0.0
H2637 H 0.41591 0.13076 0.02794 0.0
H2638 H 0.43359 0.13427 0.05415 0.0
H2639 H 0.49965 0.20056 0.10594 0.0
H2640 H 0.50252 0.1729 0.0924 0.0
H2641 H 0.4478 0.16562 0.09149 0.0
H2642 H 0.44488 0.19359 0.1042 0.0
H2643 H 0.45863 0.15796 0.06237 0.0
H2644 H 0.47614 0.14338 0.11917 0.0
H2645 H 0.49291 0.14595 0.146 0.0
H2646 H 0.53892 0.13796 0.11875 0.0
H2647 H 0.52245 0.13555 0.09171 0.0
C2648 C 0.46589 0.07862 0.04308 0.0
C2649 C 0.48003 0.07493 0.03315 0.0
C2650 C 0.4659 0.09336 0.05293 0.0
C2651 C 0.48012 0.10452 0.05316 0.0
C2652 C 0.49449 0.1006 0.04374 0.0
C2653 C 0.49439 0.08598 0.03365 0.0
C2654 C 0.47943 0.12079 0.06239 0.0
C2655 C 0.48943 0.12332 0.07722 0.0
C2656 C 0.46815 0.13337 0.05704 0.0
C2657 C 0.45751 0.13141 0.04128 0.0
C2658 C 0.4651 0.12878 0.02542 0.0
C2659 C 0.45498 0.12673 0.01065 0.0
C2660 C 0.43726 0.12742 0.01157 0.0
C2661 C 0.42963 0.1302 0.02725 0.0
C2662 C 0.4397 0.13224 0.04206 0.0
C2663 C 0.48826 0.19294 0.10304 0.0
C2664 C 0.47204 0.19922 0.10605 0.0
C2665 C 0.48991 0.17709 0.09537 0.0
C2666 C 0.47538 0.16705 0.09103 0.0
C2667 C 0.4592 0.17313 0.09462 0.0
C2668 C 0.45754 0.1891 0.10193 0.0
C2669 C 0.47687 0.15075 0.08174 0.0
C2670 C 0.46703 0.14817 0.06676 0.0
C2671 C 0.48813 0.13806 0.08713 0.0
C2672 C 0.49807 0.13945 0.10339 0.0
C2673 C 0.48985 0.14229 0.11888 0.0
C2674 C 0.4993 0.1437 0.13413 0.0
C2675 C 0.51698 0.14216 0.13408 0.0
C2676 C 0.52523 0.13917 0.11877 0.0
C2677 C 0.51584 0.13777 0.10348 0.0
H2678 H 0.52427 0.14326 0.1459 0.0
H2679 H 0.42945 0.12583 0.00013 0.0
H2680 H 0.26796 0.35512 0.68736 0.0
H2681 H 0.28702 0.37952 0.69395 0.0
H2682 H 0.26864 0.38041 0.74542 0.0
H2683 H 0.24954 0.35617 0.73892 0.0
H2684 H 0.26789 0.41168 0.72945 0.0
H2685 H 0.30715 0.36652 0.73823 0.0
H2686 H 0.32272 0.34126 0.72984 0.0
H2687 H 0.34562 0.36889 0.68875 0.0
H2688 H 0.32998 0.39426 0.69676 0.0
H2689 H 0.324 0.465 0.77557 0.0
H2690 H 0.30769 0.4408 0.76413 0.0
H2691 H 0.33402 0.4454 0.71652 0.0
H2692 H 0.35078 0.46972 0.72805 0.0
H2693 H 0.33098 0.41247 0.72669 0.0
H2694 H 0.29369 0.45818 0.71884 0.0
H2695 H 0.27819 0.48361 0.72679 0.0
H2696 H 0.2513 0.45535 0.76496 0.0
H2697 H 0.26682 0.42979 0.75741 0.0
C2698 C 0.26809 0.36047 0.70011 0.0
C2699 C 0.25728 0.35372 0.71264 0.0
C2700 C 0.27902 0.37434 0.70387 0.0
C2701 C 0.27924 0.38174 0.72018 0.0
C2702 C 0.26866 0.37486 0.73276 0.0
C2703 C 0.25786 0.36093 0.72906 0.0
C2704 C 0.28989 0.39712 0.72404 0.0
C2705 C 0.28169 0.41182 0.729 0.0
C2706 C 0.30785 0.39746 0.72278 0.0
C2707 C 0.31724 0.38222 0.71796 0.0
C2708 C 0.31538 0.36716 0.7273 0.0
C2709 C 0.32424 0.35284 0.72264 0.0
C2710 C 0.33511 0.35345 0.70873 0.0
C2711 C 0.33717 0.36842 0.69949 0.0
C2712 C 0.32832 0.38277 0.70409 0.0
C2713 C 0.32637 0.46096 0.76265 0.0
C2714 C 0.33864 0.46941 0.7527 0.0
C2715 C 0.31696 0.44712 0.75609 0.0
C2716 C 0.31944 0.44145 0.73937 0.0
C2717 C 0.33186 0.44963 0.72943 0.0
C2718 C 0.34136 0.46355 0.73603 0.0
C2719 C 0.30898 0.42692 0.73254 0.0
C2720 C 0.31717 0.41241 0.72696 0.0
C2721 C 0.29097 0.42676 0.73309 0.0
C2722 C 0.28152 0.44209 0.73763 0.0
C2723 C 0.28456 0.45741 0.72901 0.0
C2724 C 0.27576 0.47185 0.73343 0.0
C2725 C 0.26379 0.47111 0.74639 0.0
C2726 C 0.26058 0.45591 0.75493 0.0
C2727 C 0.26936 0.44144 0.75057 0.0
H2728 H 0.25699 0.4823 0.74979 0.0
H2729 H 0.34197 0.34235 0.70515 0.0
H2730 H 0.2743 0.67802 0.73492 0.0
H2731 H 0.29184 0.65305 0.73471 0.0
H2732 H 0.29038 0.65105 0.78964 0.0
H2733 H 0.27359 0.67652 0.79001 0.0
H2734 H 0.32142 0.64573 0.77956 0.0
H2735 H 0.26563 0.62391 0.76346 0.0
H2736 H 0.23896 0.62206 0.74636 0.0
H2737 H 0.26724 0.61119 0.70148 0.0
H2738 H 0.29412 0.6132 0.71828 0.0
H2739 H 0.3403 0.56041 0.79557 0.0
H2740 H 0.32702 0.58768 0.79209 0.0
H2741 H 0.33896 0.58749 0.73864 0.0
H2742 H 0.3525 0.56006 0.74205 0.0
H2743 H 0.30461 0.59468 0.74551 0.0
H2744 H 0.36045 0.61401 0.76329 0.0
H2745 H 0.38641 0.61492 0.78148 0.0
H2746 H 0.35709 0.62955 0.8245 0.0
H2747 H 0.33089 0.62848 0.80663 0.0
C2748 C 0.27783 0.67238 0.74698 0.0
C2749 C 0.27248 0.67932 0.76249 0.0
C2750 C 0.28772 0.65797 0.74682 0.0
C2751 C 0.29229 0.65002 0.76215 0.0
C2752 C 0.28699 0.65692 0.77764 0.0
C2753 C 0.27721 0.67139 0.77782 0.0
C2754 C 0.30268 0.63461 0.76212 0.0
C2755 C 0.31764 0.63453 0.77222 0.0
C2756 C 0.29804 0.6201 0.75221 0.0
C2757 C 0.2819 0.6189 0.74208 0.0
C2758 C 0.26617 0.62127 0.74991 0.0
C2759 C 0.25102 0.62016 0.74028 0.0
C2760 C 0.25141 0.61656 0.72284 0.0
C2761 C 0.26696 0.61401 0.71499 0.0
C2762 C 0.28216 0.61512 0.72456 0.0
C2763 C 0.34026 0.56619 0.78308 0.0
C2764 C 0.34744 0.55805 0.76907 0.0
C2765 C 0.3327 0.58183 0.78114 0.0
C2766 C 0.33208 0.58964 0.76514 0.0
C2767 C 0.33936 0.58166 0.75111 0.0
C2768 C 0.34714 0.56605 0.75309 0.0
C2769 C 0.32314 0.60578 0.76312 0.0
C2770 C 0.30846 0.60598 0.75266 0.0
C2771 C 0.32793 0.62032 0.77285 0.0
C2772 C 0.34368 0.62104 0.78363 0.0
C2773 C 0.35951 0.61729 0.77666 0.0
C2774 C 0.37427 0.61786 0.78691 0.0
C2775 C 0.3734 0.62226 0.80414 0.0
C2776 C 0.35775 0.62614 0.81115 0.0
C2777 C 0.34294 0.62557 0.80096 0.0
H2778 H 0.38484 0.6227 0.81206 0.0
H2779 H 0.23966 0.6157 0.7154 0.0
H2780 H 0.90911 0.47204 0.46192 0.0
H2781 H 0.88017 0.46001 0.46166 0.0
H2782 H 0.86507 0.49868 0.49683 0.0
H2783 H 0.89427 0.51049 0.49757 0.0
H2784 H 0.85495 0.4685 0.50753 0.0
H2785 H 0.84942 0.49795 0.4556 0.0
H2786 H 0.85729 0.50831 0.42714 0.0
H2787 H 0.85589 0.45738 0.40785 0.0
H2788 H 0.84826 0.44666 0.43626 0.0
H2789 H 0.77577 0.42105 0.5036 0.0
H2790 H 0.7944 0.44622 0.49961 0.0
H2791 H 0.82684 0.41715 0.46759 0.0
H2792 H 0.80848 0.39219 0.4715 0.0
H2793 H 0.82272 0.44961 0.45549 0.0
H2794 H 0.83573 0.42111 0.50939 0.0
H2795 H 0.82839 0.41067 0.53801 0.0
H2796 H 0.81556 0.46087 0.55328 0.0
H2797 H 0.82264 0.47155 0.52465 0.0
C2798 C 0.89962 0.47804 0.46954 0.0
C2799 C 0.90402 0.49215 0.47985 0.0
C2800 C 0.883 0.47129 0.46922 0.0
C2801 C 0.87036 0.47856 0.47907 0.0
C2802 C 0.87459 0.49293 0.48904 0.0
C2803 C 0.89125 0.49971 0.48937 0.0
C2804 C 0.85329 0.47009 0.4801 0.0
C2805 C 0.84764 0.46481 0.49616 0.0
C2806 C 0.84377 0.46515 0.46529 0.0
C2807 C 0.84832 0.4715 0.44812 0.0
C2808 C 0.8509 0.48894 0.44533 0.0
C2809 C 0.8553 0.49488 0.42919 0.0
C2810 C 0.8571 0.48351 0.4157 0.0
C2811 C 0.85448 0.46617 0.41831 0.0
C2812 C 0.85008 0.46016 0.43443 0.0
C2813 C 0.78671 0.42016 0.49547 0.0
C2814 C 0.79079 0.40461 0.48803 0.0
C2815 C 0.79734 0.43451 0.49323 0.0
C2816 C 0.81206 0.43349 0.4834 0.0
C2817 C 0.81553 0.41823 0.47519 0.0
C2818 C 0.80508 0.40393 0.47756 0.0
C2819 C 0.8249 0.44758 0.4828 0.0
C2820 C 0.82975 0.45385 0.46684 0.0
C2821 C 0.83368 0.45349 0.49768 0.0
C2822 C 0.82948 0.44707 0.51485 0.0
C2823 C 0.83121 0.42989 0.51882 0.0
C2824 C 0.82713 0.42393 0.53504 0.0
C2825 C 0.82145 0.43509 0.54744 0.0
C2826 C 0.81991 0.45223 0.54365 0.0
C2827 C 0.82395 0.45824 0.52744 0.0
H2828 H 0.8183 0.43046 0.55999 0.0
H2829 H 0.86051 0.48814 0.40321 0.0
H2830 H 0.74567 0.85965 0.81479 0.0
H2831 H 0.72228 0.87556 0.80231 0.0
H2832 H 0.75853 0.90822 0.7768 0.0
H2833 H 0.78202 0.89229 0.78924 0.0
H2834 H 0.73379 0.92548 0.79523 0.0
H2835 H 0.73637 0.88145 0.75337 0.0
H2836 H 0.73722 0.85202 0.74299 0.0
H2837 H 0.68824 0.84118 0.76448 0.0
H2838 H 0.6872 0.87049 0.77521 0.0
H2839 H 0.66771 0.9696 0.75363 0.0
H2840 H 0.69348 0.95347 0.75826 0.0
H2841 H 0.66311 0.91197 0.77821 0.0
H2842 H 0.63733 0.92772 0.77303 0.0
H2843 H 0.68687 0.89992 0.75953 0.0
H2844 H 0.6854 0.94176 0.80441 0.0
H2845 H 0.6841 0.97061 0.81632 0.0
H2846 H 0.73036 0.98485 0.79106 0.0
H2847 H 0.73181 0.95612 0.77882 0.0
C2848 C 0.74863 0.87018 0.80647 0.0
C2849 C 0.76562 0.87477 0.80298 0.0
C2850 C 0.73528 0.87917 0.79927 0.0
C2851 C 0.73871 0.89298 0.78856 0.0
C2852 C 0.75566 0.89755 0.78498 0.0
C2853 C 0.76902 0.88842 0.79201 0.0
C2854 C 0.72455 0.90311 0.78186 0.0
C2855 C 0.72368 0.92002 0.78714 0.0
C2856 C 0.7112 0.8958 0.77167 0.0
C2857 C 0.71178 0.87815 0.76522 0.0
C2858 C 0.72584 0.87276 0.75601 0.0
C2859 C 0.72635 0.8561 0.75004 0.0
C2860 C 0.71281 0.84472 0.7531 0.0
C2861 C 0.69872 0.85 0.76212 0.0
C2862 C 0.69816 0.86664 0.76814 0.0
C2863 C 0.66653 0.95699 0.7589 0.0
C2864 C 0.65049 0.94998 0.76307 0.0
C2865 C 0.68127 0.94781 0.7616 0.0
C2866 C 0.68028 0.93161 0.76887 0.0
C2867 C 0.66422 0.92444 0.77259 0.0
C2868 C 0.64948 0.93349 0.76967 0.0
C2869 C 0.69591 0.92227 0.77315 0.0
C2870 C 0.69706 0.90548 0.76743 0.0
C2871 C 0.70943 0.92962 0.78315 0.0
C2872 C 0.7086 0.94686 0.79055 0.0
C2873 C 0.69522 0.95108 0.8013 0.0
C2874 C 0.69447 0.9674 0.80813 0.0
C2875 C 0.70711 0.97957 0.80441 0.0
C2876 C 0.72056 0.97542 0.7939 0.0
C2877 C 0.72136 0.95912 0.78702 0.0
H2878 H 0.70651 0.99219 0.80971 0.0
H2879 H 0.71322 0.83183 0.74846 0.0
H2880 H 0.58706 0.49393 0.97971 0.0
H2881 H 0.60271 0.51966 0.98922 0.0
H2882 H 0.6478 0.50241 0.96474 0.0
H2883 H 0.63228 0.47695 0.95497 0.0
H2884 H 0.65528 0.51624 0.99599 0.0
H2885 H 0.62201 0.52974 0.94493 0.0
H2886 H 0.59518 0.53219 0.92837 0.0
H2887 H 0.57633 0.56592 0.96623 0.0
H2888 H 0.60299 0.56348 0.98313 0.0
H2889 H 0.6924 0.59322 0.9554 0.0
H2890 H 0.66836 0.57328 0.95779 0.0
H2891 H 0.67275 0.57591 0.01266 0.0
H2892 H 0.69704 0.59597 0.01036 0.0
H2893 H 0.63707 0.57114 0.97252 0.0
H2894 H 0.66837 0.53436 0.02622 0.0
H2895 H 0.69651 0.53123 0.04025 0.0
H2896 H 0.72118 0.54317 0.9932 0.0
H2897 H 0.69318 0.54614 0.97889 0.0
C2898 C 0.60031 0.49564 0.97635 0.0
C2899 C 0.60841 0.48339 0.96652 0.0
C2900 C 0.60924 0.51029 0.98188 0.0
C2901 C 0.62639 0.51295 0.97764 0.0
C2902 C 0.63461 0.50054 0.96828 0.0
C2903 C 0.62571 0.48595 0.96273 0.0
C2904 C 0.6357 0.52901 0.98192 0.0
C2905 C 0.65114 0.5283 0.99114 0.0
C2906 C 0.63032 0.54474 0.97557 0.0
C2907 C 0.61437 0.54627 0.96538 0.0
C2908 C 0.61208 0.53758 0.94978 0.0
C2909 C 0.59692 0.53897 0.94033 0.0
C2910 C 0.58404 0.54916 0.94628 0.0
C2911 C 0.58631 0.558 0.96166 0.0
C2912 C 0.60144 0.55662 0.97118 0.0
C2913 C 0.68805 0.58985 0.968 0.0
C2914 C 0.69677 0.59595 0.98269 0.0
C2915 C 0.67422 0.57853 0.96934 0.0
C2916 C 0.6689 0.57297 0.98539 0.0
C2917 C 0.67675 0.57998 0.00015 0.0
C2918 C 0.69059 0.59144 0.99882 0.0
C2919 C 0.65681 0.55828 0.98626 0.0
C2920 C 0.64087 0.55922 0.97797 0.0
C2921 C 0.66184 0.54268 0.99322 0.0
C2922 C 0.67872 0.54069 0.00159 0.0
C2923 C 0.67981 0.53628 0.01889 0.0
C2924 C 0.69573 0.53453 0.02688 0.0
C2925 C 0.71062 0.53707 0.01764 0.0
C2926 C 0.70964 0.54127 0.00037 0.0
C2927 C 0.69375 0.543 0.99232 0.0
H2928 H 0.72293 0.53574 0.02385 0.0
H2929 H 0.57231 0.55023 0.93894 0.0
H2930 H 0.22358 0.65982 0.22743 0.0
H2931 H 0.2007 0.64009 0.23597 0.0
H2932 H 0.22399 0.59999 0.2081 0.0
H2933 H 0.24692 0.6195 0.19969 0.0
H2934 H 0.18989 0.59996 0.20239 0.0
H2935 H 0.22855 0.60309 0.25105 0.0
H2936 H 0.24522 0.61768 0.27399 0.0
H2937 H 0.19925 0.63662 0.29472 0.0
H2938 H 0.18233 0.62232 0.27175 0.0
H2939 H 0.15708 0.52477 0.23763 0.0
H2940 H 0.1754 0.54865 0.22941 0.0
H2941 H 0.14461 0.5825 0.25808 0.0
H2942 H 0.12608 0.55854 0.26645 0.0
H2943 H 0.17947 0.58833 0.26352 0.0
H2944 H 0.14054 0.58269 0.21639 0.0
H2945 H 0.12398 0.56779 0.19359 0.0
H2946 H 0.17031 0.55344 0.16998 0.0
H2947 H 0.18717 0.56805 0.19279 0.0
C2948 C 0.22387 0.64678 0.22321 0.0
C2949 C 0.23709 0.64124 0.21288 0.0
C2950 C 0.21077 0.63554 0.22806 0.0
C2951 C 0.2107 0.61855 0.22275 0.0
C2952 C 0.22374 0.61306 0.21226 0.0
C2953 C 0.23681 0.62426 0.20742 0.0
C2954 C 0.19726 0.60631 0.22829 0.0
C2955 C 0.18769 0.59733 0.21575 0.0
C2956 C 0.19405 0.60326 0.24573 0.0
C2957 C 0.2042 0.61181 0.25957 0.0
C2958 C 0.22201 0.61048 0.26042 0.0
C2959 C 0.2315 0.61868 0.27344 0.0
C2960 C 0.2233 0.62812 0.28577 0.0
C2961 C 0.20559 0.62934 0.28514 0.0
C2962 C 0.19604 0.62118 0.27213 0.0
C2963 C 0.15416 0.53727 0.24224 0.0
C2964 C 0.14007 0.53975 0.25267 0.0
C2965 C 0.16462 0.55092 0.23745 0.0
C2966 C 0.16123 0.56736 0.24297 0.0
C2967 C 0.14738 0.5699 0.25364 0.0
C2968 C 0.1368 0.55622 0.25837 0.0
C2969 C 0.17238 0.58174 0.23761 0.0
C2970 C 0.18151 0.59112 0.25016 0.0
C2971 C 0.1752 0.58517 0.22018 0.0
C2972 C 0.16512 0.57637 0.20639 0.0
C2973 C 0.14721 0.57625 0.20642 0.0
C2974 C 0.13777 0.56787 0.19348 0.0
C2975 C 0.14609 0.55965 0.18036 0.0
C2976 C 0.16388 0.55981 0.18015 0.0
C2977 C 0.17339 0.56816 0.19308 0.0
H2978 H 0.13875 0.55321 0.17034 0.0
H2979 H 0.23067 0.63445 0.29585 0.0
H2980 H 0.89332 0.5022 0.00703 0.0
H2981 H 0.86676 0.51743 0.00457 0.0
H2982 H 0.88672 0.55536 0.03987 0.0
H2983 H 0.9134 0.54009 0.04249 0.0
H2984 H 0.85074 0.54543 0.04415 0.0
H2985 H 0.88989 0.56472 0.00122 0.0
H2986 H 0.90995 0.56082 0.97781 0.0
H2987 H 0.87033 0.53608 0.94759 0.0
H2988 H 0.85009 0.53959 0.97095 0.0
H2989 H 0.79104 0.60841 0.01895 0.0
H2990 H 0.81634 0.59293 0.02762 0.0
H2991 H 0.80734 0.55804 0.98568 0.0
H2992 H 0.78254 0.57368 0.9767 0.0
H2993 H 0.83893 0.56785 0.98626 0.0
H2994 H 0.79976 0.54754 0.02846 0.0
H2995 H 0.7793 0.55009 0.05174 0.0
H2996 H 0.81779 0.57525 0.08305 0.0
H2997 H 0.83843 0.57305 0.05985 0.0
C2998 C 0.89193 0.51358 0.01456 0.0
C2999 C 0.90546 0.52001 0.02489 0.0
C3000 C 0.87679 0.52229 0.01308 0.0
C3001 C 0.87488 0.53755 0.02194 0.0
C3002 C 0.88799 0.54359 0.03294 0.0
C3003 C 0.90324 0.53494 0.03432 0.0
C3004 C 0.85978 0.54784 0.01851 0.0
C3005 C 0.8482 0.55055 0.03158 0.0
C3006 C 0.85642 0.55424 0.00203 0.0
C3007 C 0.86852 0.55228 0.98789 0.0
C3008 C 0.88549 0.55833 0.98964 0.0
C3009 C 0.89689 0.55621 0.97637 0.0
C3010 C 0.89143 0.54817 0.96124 0.0
C3011 C 0.87455 0.54228 0.95933 0.0
C3012 C 0.8631 0.54434 0.97257 0.0
C3013 C 0.79442 0.59737 0.01168 0.0
C3014 C 0.78487 0.59234 0.99707 0.0
C3015 C 0.80883 0.58848 0.01669 0.0
C3016 C 0.81372 0.57426 0.00735 0.0
C3017 C 0.80391 0.56903 0.99303 0.0
C3018 C 0.7897 0.57799 0.98791 0.0
C3019 C 0.82949 0.5652 0.0118 0.0
C3020 C 0.84135 0.5628 0.99889 0.0
C3021 C 0.83295 0.55898 0.02838 0.0
C3022 C 0.82058 0.5603 0.04235 0.0
C3023 C 0.80382 0.55375 0.04025 0.0
C3024 C 0.7922 0.5551 0.05345 0.0
C3025 C 0.79723 0.56288 0.06885 0.0
C3026 C 0.81391 0.56926 0.0711 0.0
C3027 C 0.82557 0.56795 0.05794 0.0
H3028 H 0.78822 0.56391 0.07905 0.0
H3029 H 0.90027 0.54654 0.95098 0.0
H3030 H 0.08674 0.97969 0.05961 0.0
H3031 H 0.10572 0.95662 0.05323 0.0
H3032 H 0.13534 0.98986 0.02107 0.0
H3033 H 0.11607 0.0128 0.02687 0.0
H3034 H 0.1314 0.95926 0.00668 0.0
H3035 H 0.14838 0.98107 0.06198 0.0
H3036 H 0.14417 0.98936 0.09193 0.0
H3037 H 0.12848 0.93838 0.10389 0.0
H3038 H 0.13238 0.92983 0.07394 0.0
H3039 H 0.20893 0.91537 0.00459 0.0
H3040 H 0.18679 0.93595 0.00882 0.0
H3041 H 0.15902 0.90015 0.03987 0.0
H3042 H 0.18123 0.87952 0.03587 0.0
H3043 H 0.16086 0.9309 0.05468 0.0
H3044 H 0.14543 0.90884 0.99937 0.0
H3045 H 0.15012 0.90078 0.96944 0.0
H3046 H 0.16331 0.95238 0.95745 0.0
H3047 H 0.15894 0.96072 0.98737 0.0
C3048 C 0.09712 0.98203 0.05096 0.0
C3049 C 0.09993 0.99816 0.04385 0.0
C3050 C 0.10808 0.96886 0.04746 0.0
C3051 C 0.12213 0.97157 0.03688 0.0
C3052 C 0.12464 0.98748 0.02934 0.0
C3053 C 0.11369 0.00064 0.0328 0.0
C3054 C 0.13449 0.95798 0.03398 0.0
C3055 C 0.13796 0.95317 0.01717 0.0
C3056 C 0.14281 0.94976 0.04767 0.0
C3057 C 0.1405 0.95486 0.06569 0.0
C3058 C 0.14391 0.97166 0.07097 0.0
C3059 C 0.1416 0.9764 0.08795 0.0
C3060 C 0.13602 0.96441 0.0998 0.0
C3061 C 0.13278 0.94765 0.0947 0.0
C3062 C 0.13504 0.94285 0.07772 0.0
C3063 C 0.19808 0.91182 0.01226 0.0
C3064 C 0.19686 0.89576 0.01988 0.0
C3065 C 0.18538 0.92359 0.0146 0.0
C3066 C 0.17114 0.91955 0.02453 0.0
C3067 C 0.16988 0.90354 0.03214 0.0
C3068 C 0.18257 0.89174 0.02979 0.0
C3069 C 0.15783 0.93222 0.02737 0.0
C3070 C 0.1542 0.93688 0.04418 0.0
C3071 C 0.14942 0.94034 0.01368 0.0
C3072 C 0.152 0.93538 0.99565 0.0
C3073 C 0.14946 0.91845 0.99038 0.0
C3074 C 0.15204 0.91383 0.97341 0.0
C3075 C 0.15705 0.92605 0.96156 0.0
C3076 C 0.15945 0.94293 0.96665 0.0
C3077 C 0.15691 0.94761 0.98361 0.0
H3078 H 0.15903 0.92245 0.94843 0.0
H3079 H 0.13424 0.96811 0.11294 0.0
loop_
_geom_bond_atom_site_label_1
_geom_bond_atom_site_label_2
_geom_bond_distance
_geom_bond_site_symmetry_2
_ccdc_geom_bond_type
P0 O11 1.490 . S
P0 C14 1.812 . S
P0 C20 1.803 . S
P0 C26 1.819 . S
H1 C15 0.941 . S
H2 C16 0.939 . S
H3 C18 0.940 . S
H4 C19 0.940 . S
H5 C21 0.939 . S
H6 C22 0.942 . S
H7 C24 0.894 1_565 S
H8 C25 0.939 . S
H9 C27 0.941 . S
H10 C31 0.939 . S
O11 P0 1.490 . S
H12 C28 0.939 . S
H13 C30 0.940 . S
C14 P0 1.812 . S
C14 C15 1.389 . S
C14 C19 1.391 . S
C15 H1 0.941 . S
C15 C14 1.389 . S
C15 C16 1.397 . S
C16 H2 0.939 . S
C16 C15 1.397 . S
C16 C17 1.378 . S
C17 C16 1.378 . S
C17 C18 1.378 . S
C18 H3 0.940 . S
C18 C17 1.378 . S
C18 C19 1.396 . S
C19 H4 0.940 . S
C19 C14 1.391 . S
C19 C18 1.396 . S
C20 P0 1.803 . S
C20 C21 1.378 . S
C20 C25 1.400 . S
C21 H5 0.939 . S
C21 C20 1.378 . S
C21 C22 1.361 . S
C22 H6 0.942 . S
C22 C21 1.361 . S
C22 C23 1.369 . S
C23 C22 1.369 . S
C23 C24 1.404 . S
C24 H7 0.894 1_545 S
C24 C23 1.404 . S
C24 C25 1.389 . S
C25 H8 0.939 . S
C25 C20 1.400 . S
C25 C24 1.389 . S
C26 P0 1.819 . S
C26 C27 1.391 . S
C26 C31 1.391 . S
C27 H9 0.941 . S
C27 C26 1.391 . S
C27 C28 1.396 . S
C28 H12 0.939 . S
C28 C27 1.396 . S
C28 C29 1.397 . S
C29 C28 1.397 . S
C29 C30 1.385 . S
C30 H13 0.940 . S
C30 C29 1.385 . S
C30 C31 1.388 . S
C31 H10 0.939 . S
C31 C26 1.391 . S
C31 C30 1.388 . S
P32 O43 1.490 . S
P32 C46 1.812 . S
P32 C52 1.803 . S
P32 C58 1.819 . S
H33 C47 0.941 . S
H34 C48 0.939 . S
H35 C50 0.940 . S
H36 C51 0.940 . S
H37 C53 0.939 . S
H38 C54 0.942 . S
H39 C56 0.940 . S
H40 C57 0.939 . S
H41 C59 0.941 . S
H42 C63 0.939 . S
O43 P32 1.490 . S
H44 C60 0.939 . S
H45 C62 0.940 . S
C46 P32 1.812 . S
C46 C47 1.389 . S
C46 C51 1.391 . S
C47 H33 0.941 . S
C47 C46 1.389 . S
C47 C48 1.397 . S
C48 H34 0.939 . S
C48 C47 1.397 . S
C48 C49 1.378 . S
C49 C48 1.378 . S
C49 C50 1.378 . S
C50 H35 0.940 . S
C50 C49 1.378 . S
C50 C51 1.396 . S
C51 H36 0.940 . S
C51 C46 1.391 . S
C51 C50 1.396 . S
C52 P32 1.803 . S
C52 C53 1.378 . S
C52 C57 1.400 . S
C53 H37 0.939 . S
C53 C52 1.378 . S
C53 C54 1.361 . S
C54 H38 0.942 . S
C54 C53 1.361 . S
C54 C55 1.369 . S
C55 C54 1.369 . S
C55 C56 1.404 . S
C56 H39 0.940 . S
C56 C55 1.404 . S
C56 C57 1.389 . S
C57 H40 0.939 . S
C57 C52 1.400 . S
C57 C56 1.389 . S
C58 P32 1.819 . S
C58 C59 1.391 . S
C58 C63 1.391 . S
C59 H41 0.941 . S
C59 C58 1.391 . S
C59 C60 1.396 . S
C60 H44 0.939 . S
C60 C59 1.396 . S
C60 C61 1.397 . S
C61 C60 1.397 . S
C61 C62 1.385 . S
C62 H45 0.940 . S
C62 C61 1.385 . S
C62 C63 1.388 . S
C63 H42 0.939 . S
C63 C58 1.391 . S
C63 C62 1.388 . S
P64 O75 1.490 . S
P64 C78 1.812 . S
P64 C84 1.803 . S
P64 C90 1.819 . S
H65 C79 0.941 . S
H66 C80 0.939 1_556 S
H67 C82 0.940 . S
H68 C83 0.940 . S
H69 C85 0.939 . S
H70 C86 0.942 . S
H71 C88 0.940 . S
H72 C89 0.939 . S
H73 C91 0.941 . S
H74 C95 0.939 . S
O75 P64 1.490 . S
H76 C92 0.939 1_455 S
H77 C94 0.940 . S
C78 P64 1.812 . S
C78 C79 1.389 . S
C78 C83 1.391 . S
C79 H65 0.941 . S
C79 C78 1.389 . S
C79 C80 1.397 . S
C80 H66 0.939 1_554 S
C80 C79 1.397 . S
C80 C81 1.378 . S
C81 C80 1.378 . S
C81 C82 1.378 . S
C82 H67 0.940 . S
C82 C81 1.378 . S
C82 C83 1.396 . S
C83 H68 0.940 . S
C83 C78 1.391 . S
C83 C82 1.396 . S
C84 P64 1.803 . S
C84 C85 1.378 . S
C84 C89 1.400 . S
C85 H69 0.939 . S
C85 C84 1.378 . S
C85 C86 1.361 . S
C86 H70 0.942 . S
C86 C85 1.361 . S
C86 C87 1.369 . S
C87 C86 1.369 . S
C87 C88 1.404 . S
C88 H71 0.940 . S
C88 C87 1.404 . S
C88 C89 1.389 . S
C89 H72 0.939 . S
C89 C84 1.400 . S
C89 C88 1.389 . S
C90 P64 1.819 . S
C90 C91 1.391 . S
C90 C95 1.391 . S
C91 H73 0.941 . S
C91 C90 1.391 . S
C91 C92 1.396 . S
C92 H76 0.939 1_655 S
C92 C91 1.396 . S
C92 C93 1.397 . S
C93 C92 1.397 . S
C93 C94 1.385 . S
C94 H77 0.940 . S
C94 C93 1.385 . S
C94 C95 1.388 . S
C95 H74 0.939 . S
C95 C90 1.391 . S
C95 C94 1.388 . S
P96 O107 1.490 . S
P96 C110 1.812 . S
P96 C116 1.803 . S
P96 C122 1.819 . S
H97 C111 0.941 . S
H98 C112 0.939 . S
H99 C114 0.940 . S
H100 C115 0.940 . S
H101 C117 0.939 . S
H102 C118 0.942 . S
H103 C120 0.940 . S
H104 C121 0.939 . S
H105 C123 0.941 . S
H106 C127 0.939 . S
O107 P96 1.490 . S
H108 C124 0.939 . S
H109 C126 0.940 . S
C110 P96 1.812 . S
C110 C111 1.389 . S
C110 C115 1.391 . S
C111 H97 0.941 . S
C111 C110 1.389 . S
C111 C112 1.397 . S
C112 H98 0.939 . S
C112 C111 1.397 . S
C112 C113 1.378 . S
C113 C112 1.378 . S
C113 C114 1.378 . S
C114 H99 0.940 . S
C114 C113 1.378 . S
C114 C115 1.396 . S
C115 H100 0.940 . S
C115 C110 1.391 . S
C115 C114 1.396 . S
C116 P96 1.803 . S
C116 C117 1.378 . S
C116 C121 1.400 . S
C117 H101 0.939 . S
C117 C116 1.378 . S
C117 C118 1.361 . S
C118 H102 0.942 . S
C118 C117 1.361 . S
C118 C119 1.369 . S
C119 C118 1.369 . S
C119 C120 1.404 . S
C120 H103 0.940 . S
C120 C119 1.404 . S
C120 C121 1.389 . S
C121 H104 0.939 . S
C121 C116 1.400 . S
C121 C120 1.389 . S
C122 P96 1.819 . S
C122 C123 1.391 . S
C122 C127 1.391 . S
C123 H105 0.941 . S
C123 C122 1.391 . S
C123 C124 1.396 . S
C124 H108 0.939 . S
C124 C123 1.396 . S
C124 C125 1.397 . S
C125 C124 1.397 . S
C125 C126 1.385 . S
C126 H109 0.940 . S
C126 C125 1.385 . S
C126 C127 1.388 . S
C127 H106 0.939 . S
C127 C122 1.391 . S
C127 C126 1.388 . S
P128 O139 1.490 . S
P128 C142 1.812 . S
P128 C148 1.803 . S
P128 C154 1.819 . S
H129 C143 0.941 . S
H130 C144 0.939 . S
H131 C146 0.940 . S
H132 C147 0.940 . S
H133 C149 0.939 . S
H134 C150 0.942 . S
H135 C152 0.940 . S
H136 C153 0.939 . S
H137 C155 0.941 . S
H138 C159 0.939 . S
O139 P128 1.490 . S
H140 C156 0.939 . S
H141 C158 0.940 . S
C142 P128 1.812 . S
C142 C143 1.389 . S
C142 C147 1.391 . S
C143 H129 0.941 . S
C143 C142 1.389 . S
C143 C144 1.397 . S
C144 H130 0.939 . S
C144 C143 1.397 . S
C144 C145 1.378 . S
C145 C144 1.378 . S
C145 C146 1.378 . S
C146 H131 0.940 . S
C146 C145 1.378 . S
C146 C147 1.396 . S
C147 H132 0.940 . S
C147 C142 1.391 . S
C147 C146 1.396 . S
C148 P128 1.803 . S
C148 C149 1.378 . S
C148 C153 1.400 . S
C149 H133 0.939 . S
C149 C148 1.378 . S
C149 C150 1.361 . S
C150 H134 0.942 . S
C150 C149 1.361 . S
C150 C151 1.369 . S
C151 C150 1.369 . S
C151 C152 1.404 . S
C152 H135 0.940 . S
C152 C151 1.404 . S
C152 C153 1.389 . S
C153 H136 0.939 . S
C153 C148 1.400 . S
C153 C152 1.389 . S
C154 P128 1.819 . S
C154 C155 1.391 . S
C154 C159 1.391 . S
C155 H137 0.941 . S
C155 C154 1.391 . S
C155 C156 1.396 . S
C156 H140 0.939 . S
C156 C155 1.396 . S
C156 C157 1.397 . S
C157 C156 1.397 . S
C157 C158 1.385 . S
C158 H141 0.940 . S
C158 C157 1.385 . S
C158 C159 1.388 . S
C159 H138 0.939 . S
C159 C154 1.391 . S
C159 C158 1.388 . S
P160 O171 1.490 . S
P160 C174 1.812 . S
P160 C180 1.803 . S
P160 C186 1.819 . S
H161 C175 0.941 . S
H162 C176 0.939 . S
H163 C178 0.940 . S
H164 C179 0.940 . S
H165 C181 0.939 . S
H166 C182 0.942 . S
H167 C184 0.940 . S
H168 C185 0.939 . S
H169 C187 0.941 . S
H170 C191 0.939 . S
O171 P160 1.490 . S
H172 C188 0.939 . S
H173 C190 0.940 . S
C174 P160 1.812 . S
C174 C175 1.389 . S
C174 C179 1.391 . S
C175 H161 0.941 . S
C175 C174 1.389 . S
C175 C176 1.397 . S
C176 H162 0.939 . S
C176 C175 1.397 . S
C176 C177 1.378 . S
C177 C176 1.378 . S
C177 C178 1.378 . S
C178 H163 0.940 . S
C178 C177 1.378 . S
C178 C179 1.396 . S
C179 H164 0.940 . S
C179 C174 1.391 . S
C179 C178 1.396 . S
C180 P160 1.803 . S
C180 C181 1.378 . S
C180 C185 1.400 . S
C181 H165 0.939 . S
C181 C180 1.378 . S
C181 C182 1.361 . S
C182 H166 0.942 . S
C182 C181 1.361 . S
C182 C183 1.369 . S
C183 C182 1.369 . S
C183 C184 1.404 . S
C184 H167 0.940 . S
C184 C183 1.404 . S
C184 C185 1.389 . S
C185 H168 0.939 . S
C185 C180 1.400 . S
C185 C184 1.389 . S
C186 P160 1.819 . S
C186 C187 1.391 . S
C186 C191 1.391 . S
C187 H169 0.941 . S
C187 C186 1.391 . S
C187 C188 1.396 . S
C188 H172 0.939 . S
C188 C187 1.396 . S
C188 C189 1.397 . S
C189 C188 1.397 . S
C189 C190 1.385 . S
C190 H173 0.940 . S
C190 C189 1.385 . S
C190 C191 1.388 . S
C191 H170 0.939 . S
C191 C186 1.391 . S
C191 C190 1.388 . S
P192 O203 1.490 . S
P192 C206 1.812 . S
P192 C212 1.803 . S
P192 C218 1.819 . S
H193 C207 0.941 1_455 S
H194 C208 0.939 . S
H195 C210 0.940 . S
H196 C211 0.940 . S
H197 C213 0.939 . S
H198 C214 0.942 . S
H199 C216 0.940 . S
H200 C217 0.939 . S
H201 C219 0.941 . S
H202 C223 0.939 . S
O203 P192 1.490 . S
H204 C220 0.939 . S
H205 C222 0.940 . S
C206 P192 1.812 . S
C206 C207 1.389 . S
C206 C211 1.391 . S
C207 H193 0.941 1_655 S
C207 C206 1.389 . S
C207 C208 1.397 1_655 S
C208 H194 0.939 . S
C208 C207 1.397 1_455 S
C208 C209 1.378 1_455 S
C209 C208 1.378 1_655 S
C209 C210 1.378 . S
C210 H195 0.940 . S
C210 C209 1.378 . S
C210 C211 1.396 . S
C211 H196 0.940 . S
C211 C206 1.391 . S
C211 C210 1.396 . S
C212 P192 1.803 . S
C212 C213 1.378 . S
C212 C217 1.400 . S
C213 H197 0.939 . S
C213 C212 1.378 . S
C213 C214 1.361 . S
C214 H198 0.942 . S
C214 C213 1.361 . S
C214 C215 1.369 . S
C215 C214 1.369 . S
C215 C216 1.404 . S
C216 H199 0.940 . S
C216 C215 1.404 . S
C216 C217 1.389 . S
C217 H200 0.939 . S
C217 C212 1.400 . S
C217 C216 1.389 . S
C218 P192 1.819 . S
C218 C219 1.391 . S
C218 C223 1.391 . S
C219 H201 0.941 . S
C219 C218 1.391 . S
C219 C220 1.396 . S
C220 H204 0.939 . S
C220 C219 1.396 . S
C220 C221 1.397 . S
C221 C220 1.397 . S
C221 C222 1.385 . S
C222 H205 0.940 . S
C222 C221 1.385 . S
C222 C223 1.388 . S
C223 H202 0.939 . S
C223 C218 1.391 . S
C223 C222 1.388 . S
P224 O235 1.490 . S
P224 C238 1.812 . S
P224 C244 1.803 . S
P224 C250 1.819 . S
H225 C239 0.941 . S
H226 C240 0.939 . S
H227 C242 0.940 . S
H228 C243 0.940 . S
H229 C245 0.939 . S
H230 C246 0.942 . S
H231 C248 0.940 . S
H232 C249 0.939 . S
H233 C251 0.941 . S
H234 C255 0.939 . S
O235 P224 1.490 . S
H236 C252 0.939 . S
H237 C254 0.940 . S
C238 P224 1.812 . S
C238 C239 1.389 . S
C238 C243 1.391 . S
C239 H225 0.941 . S
C239 C238 1.389 . S
C239 C240 1.397 . S
C240 H226 0.939 . S
C240 C239 1.397 . S
C240 C241 1.378 . S
C241 C240 1.378 . S
C241 C242 1.378 . S
C242 H227 0.940 . S
C242 C241 1.378 . S
C242 C243 1.396 . S
C243 H228 0.940 . S
C243 C238 1.391 . S
C243 C242 1.396 . S
C244 P224 1.803 . S
C244 C245 1.378 . S
C244 C249 1.400 . S
C245 H229 0.939 . S
C245 C244 1.378 . S
C245 C246 1.361 . S
C246 H230 0.942 . S
C246 C245 1.361 . S
C246 C247 1.369 . S
C247 C246 1.369 . S
C247 C248 1.404 . S
C248 H231 0.940 . S
C248 C247 1.404 . S
C248 C249 1.389 . S
C249 H232 0.939 . S
C249 C244 1.400 . S
C249 C248 1.389 . S
C250 P224 1.819 . S
C250 C251 1.391 . S
C250 C255 1.391 . S
C251 H233 0.941 . S
C251 C250 1.391 . S
C251 C252 1.396 . S
C252 H236 0.939 . S
C252 C251 1.396 . S
C252 C253 1.397 . S
C253 C252 1.397 . S
C253 C254 1.385 . S
C254 H237 0.940 . S
C254 C253 1.385 . S
C254 C255 1.388 . S
C255 H234 0.939 . S
C255 C250 1.391 . S
C255 C254 1.388 . S
P256 O267 1.490 . S
P256 C270 1.812 . S
P256 C276 1.803 . S
P256 C282 1.819 . S
H257 C271 0.941 . S
H258 C272 0.939 . S
H259 C274 0.940 . S
H260 C275 0.940 . S
H261 C277 0.939 . S
H262 C278 0.942 . S
H263 C280 0.940 . S
H264 C281 0.939 . S
H265 C283 0.941 . S
H266 C287 0.939 . S
O267 P256 1.490 . S
H268 C284 0.939 . S
H269 C286 0.940 . S
C270 P256 1.812 . S
C270 C271 1.389 . S
C270 C275 1.391 . S
C271 H257 0.941 . S
C271 C270 1.389 . S
C271 C272 1.397 . S
C272 H258 0.939 . S
C272 C271 1.397 . S
C272 C273 1.378 . S
C273 C272 1.378 . S
C273 C274 1.378 . S
C274 H259 0.940 . S
C274 C273 1.378 . S
C274 C275 1.396 . S
C275 H260 0.940 . S
C275 C270 1.391 . S
C275 C274 1.396 . S
C276 P256 1.803 . S
C276 C277 1.378 . S
C276 C281 1.400 . S
C277 H261 0.939 . S
C277 C276 1.378 . S
C277 C278 1.361 . S
C278 H262 0.942 . S
C278 C277 1.361 . S
C278 C279 1.369 . S
C279 C278 1.369 . S
C279 C280 1.404 . S
C280 H263 0.940 . S
C280 C279 1.404 . S
C280 C281 1.389 . S
C281 H264 0.939 . S
C281 C276 1.400 . S
C281 C280 1.389 . S
C282 P256 1.819 . S
C282 C283 1.391 . S
C282 C287 1.391 . S
C283 H265 0.941 . S
C283 C282 1.391 . S
C283 C284 1.396 . S
C284 H268 0.939 . S
C284 C283 1.396 . S
C284 C285 1.397 . S
C285 C284 1.397 . S
C285 C286 1.385 . S
C286 H269 0.940 . S
C286 C285 1.385 . S
C286 C287 1.388 . S
C287 H266 0.939 . S
C287 C282 1.391 . S
C287 C286 1.388 . S
P288 O299 1.490 . S
P288 C302 1.812 . S
P288 C308 1.803 . S
P288 C314 1.819 . S
H289 C303 0.941 . S
H290 C304 0.939 . S
H291 C306 0.940 . S
H292 C307 0.940 . S
H293 C309 0.939 1_545 S
H294 C310 0.942 . S
H295 C312 0.940 . S
H296 C313 0.939 . S
H297 C315 0.941 . S
H298 C319 0.939 . S
O299 P288 1.490 . S
H300 C316 0.939 . S
H301 C318 0.940 . S
C302 P288 1.812 . S
C302 C303 1.389 . S
C302 C307 1.391 . S
C303 H289 0.941 . S
C303 C302 1.389 . S
C303 C304 1.397 . S
C304 H290 0.939 . S
C304 C303 1.397 . S
C304 C305 1.378 . S
C305 C304 1.378 . S
C305 C306 1.378 . S
C306 H291 0.940 . S
C306 C305 1.378 . S
C306 C307 1.396 . S
C307 H292 0.940 . S
C307 C302 1.391 . S
C307 C306 1.396 . S
C308 P288 1.803 . S
C308 C309 1.378 . S
C308 C313 1.400 . S
C309 H293 0.939 1_565 S
C309 C308 1.378 . S
C309 C310 1.361 1_565 S
C310 H294 0.942 . S
C310 C309 1.361 1_545 S
C310 C311 1.369 1_545 S
C311 C310 1.369 1_565 S
C311 C312 1.404 . S
C312 H295 0.940 . S
C312 C311 1.404 . S
C312 C313 1.389 . S
C313 H296 0.939 . S
C313 C308 1.400 . S
C313 C312 1.389 . S
C314 P288 1.819 . S
C314 C315 1.391 . S
C314 C319 1.391 . S
C315 H297 0.941 . S
C315 C314 1.391 . S
C315 C316 1.396 . S
C316 H300 0.939 . S
C316 C315 1.396 . S
C316 C317 1.397 . S
C317 C316 1.397 . S
C317 C318 1.385 . S
C318 H301 0.940 . S
C318 C317 1.385 . S
C318 C319 1.388 . S
C319 H298 0.939 . S
C319 C314 1.391 . S
C319 C318 1.388 . S
P320 O331 1.490 . S
P320 C334 1.812 . S
P320 C340 1.803 . S
P320 C346 1.819 . S
H321 C335 0.941 . S
H322 C336 0.939 . S
H323 C338 0.940 . S
H324 C339 0.940 . S
H325 C341 0.939 . S
H326 C342 0.942 . S
H327 C344 0.940 . S
H328 C345 0.939 . S
H329 C347 0.941 . S
H330 C351 0.939 . S
O331 P320 1.490 . S
H332 C348 0.939 . S
H333 C350 0.940 . S
C334 P320 1.812 . S
C334 C335 1.389 . S
C334 C339 1.391 . S
C335 H321 0.941 . S
C335 C334 1.389 . S
C335 C336 1.397 . S
C336 H322 0.939 . S
C336 C335 1.397 . S
C336 C337 1.378 . S
C337 C336 1.378 . S
C337 C338 1.378 . S
C338 H323 0.940 . S
C338 C337 1.378 . S
C338 C339 1.396 . S
C339 H324 0.940 . S
C339 C334 1.391 . S
C339 C338 1.396 . S
C340 P320 1.803 . S
C340 C341 1.378 . S
C340 C345 1.400 . S
C341 H325 0.939 . S
C341 C340 1.378 . S
C341 C342 1.361 . S
C342 H326 0.942 . S
C342 C341 1.361 . S
C342 C343 1.369 . S
C343 C342 1.369 . S
C343 C344 1.404 . S
C344 H327 0.940 . S
C344 C343 1.404 . S
C344 C345 1.389 . S
C345 H328 0.939 . S
C345 C340 1.400 . S
C345 C344 1.389 . S
C346 P320 1.819 . S
C346 C347 1.391 . S
C346 C351 1.391 . S
C347 H329 0.941 . S
C347 C346 1.391 . S
C347 C348 1.396 . S
C348 H332 0.939 . S
C348 C347 1.396 . S
C348 C349 1.397 . S
C349 C348 1.397 . S
C349 C350 1.385 . S
C350 H333 0.940 . S
C350 C349 1.385 . S
C350 C351 1.388 . S
C351 H330 0.939 . S
C351 C346 1.391 . S
C351 C350 1.388 . S
P352 O363 1.490 . S
P352 C366 1.812 . S
P352 C372 1.803 . S
P352 C378 1.819 . S
H353 C367 0.941 . S
H354 C368 0.939 . S
H355 C370 0.940 . S
H356 C371 0.940 . S
H357 C373 0.939 . S
H358 C374 0.942 . S
H359 C376 0.940 . S
H360 C377 0.939 . S
H361 C379 0.941 . S
H362 C383 0.939 . S
O363 P352 1.490 . S
H364 C380 0.939 . S
H365 C382 0.940 . S
C366 P352 1.812 . S
C366 C367 1.389 . S
C366 C371 1.391 . S
C367 H353 0.941 . S
C367 C366 1.389 . S
C367 C368 1.397 . S
C368 H354 0.939 . S
C368 C367 1.397 . S
C368 C369 1.378 . S
C369 C368 1.378 . S
C369 C370 1.378 . S
C370 H355 0.940 . S
C370 C369 1.378 . S
C370 C371 1.396 . S
C371 H356 0.940 . S
C371 C366 1.391 . S
C371 C370 1.396 . S
C372 P352 1.803 . S
C372 C373 1.378 . S
C372 C377 1.400 . S
C373 H357 0.939 . S
C373 C372 1.378 . S
C373 C374 1.361 . S
C374 H358 0.942 . S
C374 C373 1.361 . S
C374 C375 1.369 . S
C375 C374 1.369 . S
C375 C376 1.404 . S
C376 H359 0.940 . S
C376 C375 1.404 . S
C376 C377 1.389 . S
C377 H360 0.939 . S
C377 C372 1.400 . S
C377 C376 1.389 . S
C378 P352 1.819 . S
C378 C379 1.391 . S
C378 C383 1.391 . S
C379 H361 0.941 . S
C379 C378 1.391 . S
C379 C380 1.396 . S
C380 H364 0.939 . S
C380 C379 1.396 . S
C380 C381 1.397 . S
C381 C380 1.397 . S
C381 C382 1.385 . S
C382 H365 0.940 . S
C382 C381 1.385 . S
C382 C383 1.388 . S
C383 H362 0.939 . S
C383 C378 1.391 . S
C383 C382 1.388 . S
P384 O395 1.490 . S
P384 C398 1.812 . S
P384 C404 1.803 . S
P384 C410 1.819 . S
H385 C399 0.941 . S
H386 C400 0.939 . S
H387 C402 0.940 . S
H388 C403 0.940 . S
H389 C405 0.939 . S
H390 C406 0.942 . S
H391 C408 0.940 . S
H392 C409 0.939 . S
H393 C411 0.941 . S
H394 C415 0.939 . S
O395 P384 1.490 . S
H396 C412 0.939 . S
H397 C414 0.940 . S
C398 P384 1.812 . S
C398 C399 1.389 . S
C398 C403 1.391 . S
C399 H385 0.941 . S
C399 C398 1.389 . S
C399 C400 1.397 . S
C400 H386 0.939 . S
C400 C399 1.397 . S
C400 C401 1.378 . S
C401 C400 1.378 . S
C401 C402 1.378 . S
C402 H387 0.940 . S
C402 C401 1.378 . S
C402 C403 1.396 . S
C403 H388 0.940 . S
C403 C398 1.391 . S
C403 C402 1.396 . S
C404 P384 1.803 . S
C404 C405 1.378 . S
C404 C409 1.400 . S
C405 H389 0.939 . S
C405 C404 1.378 . S
C405 C406 1.361 . S
C406 H390 0.942 . S
C406 C405 1.361 . S
C406 C407 1.369 . S
C407 C406 1.369 . S
C407 C408 1.404 . S
C408 H391 0.940 . S
C408 C407 1.404 . S
C408 C409 1.389 . S
C409 H392 0.939 . S
C409 C404 1.400 . S
C409 C408 1.389 . S
C410 P384 1.819 . S
C410 C411 1.391 . S
C410 C415 1.391 . S
C411 H393 0.941 . S
C411 C410 1.391 . S
C411 C412 1.396 . S
C412 H396 0.939 . S
C412 C411 1.396 . S
C412 C413 1.397 . S
C413 C412 1.397 . S
C413 C414 1.385 . S
C414 H397 0.940 . S
C414 C413 1.385 . S
C414 C415 1.388 . S
C415 H394 0.939 . S
C415 C410 1.391 . S
C415 C414 1.388 . S
P416 O427 1.490 . S
P416 C430 1.812 . S
P416 C436 1.803 . S
P416 C442 1.819 . S
H417 C431 0.941 . S
H418 C432 0.939 . S
H419 C434 0.940 . S
H420 C435 0.940 . S
H421 C437 0.939 . S
H422 C438 0.942 . S
H423 C440 0.940 1_554 S
H424 C441 0.939 . S
H425 C443 0.941 . S
H426 C447 0.939 . S
O427 P416 1.490 . S
H428 C444 0.939 . S
H429 C446 0.940 . S
C430 P416 1.812 . S
C430 C431 1.389 . S
C430 C435 1.391 . S
C431 H417 0.941 . S
C431 C430 1.389 . S
C431 C432 1.397 . S
C432 H418 0.939 . S
C432 C431 1.397 . S
C432 C433 1.378 . S
C433 C432 1.378 . S
C433 C434 1.378 . S
C434 H419 0.940 . S
C434 C433 1.378 . S
C434 C435 1.396 . S
C435 H420 0.940 . S
C435 C430 1.391 . S
C435 C434 1.396 . S
C436 P416 1.803 . S
C436 C437 1.378 . S
C436 C441 1.400 . S
C437 H421 0.939 . S
C437 C436 1.378 . S
C437 C438 1.361 . S
C438 H422 0.942 . S
C438 C437 1.361 . S
C438 C439 1.369 . S
C439 C438 1.369 . S
C439 C440 1.404 . S
C440 H423 0.940 1_556 S
C440 C439 1.404 . S
C440 C441 1.389 . S
C441 H424 0.939 . S
C441 C436 1.400 . S
C441 C440 1.389 . S
C442 P416 1.819 . S
C442 C443 1.391 . S
C442 C447 1.391 . S
C443 H425 0.941 . S
C443 C442 1.391 . S
C443 C444 1.396 . S
C444 H428 0.939 . S
C444 C443 1.396 . S
C444 C445 1.397 . S
C445 C444 1.397 . S
C445 C446 1.385 . S
C446 H429 0.940 . S
C446 C445 1.385 . S
C446 C447 1.388 . S
C447 H426 0.939 . S
C447 C442 1.391 . S
C447 C446 1.388 . S
P448 O459 1.490 . S
P448 C462 1.812 . S
P448 C468 1.803 . S
P448 C474 1.819 . S
H449 C463 0.941 . S
H450 C464 0.939 . S
H451 C466 0.940 . S
H452 C467 0.940 . S
H453 C469 0.939 . S
H454 C470 0.942 . S
H455 C472 0.940 . S
H456 C473 0.939 . S
H457 C475 0.941 . S
H458 C479 0.939 . S
O459 P448 1.490 . S
H460 C476 0.939 . S
H461 C478 0.940 . S
C462 P448 1.812 . S
C462 C463 1.389 . S
C462 C467 1.391 . S
C463 H449 0.941 . S
C463 C462 1.389 . S
C463 C464 1.397 . S
C464 H450 0.939 . S
C464 C463 1.397 . S
C464 C465 1.378 . S
C465 C464 1.378 . S
C465 C466 1.378 . S
C466 H451 0.940 . S
C466 C465 1.378 . S
C466 C467 1.396 . S
C467 H452 0.940 . S
C467 C462 1.391 . S
C467 C466 1.396 . S
C468 P448 1.803 . S
C468 C469 1.378 . S
C468 C473 1.400 . S
C469 H453 0.939 . S
C469 C468 1.378 . S
C469 C470 1.361 . S
C470 H454 0.942 . S
C470 C469 1.361 . S
C470 C471 1.369 . S
C471 C470 1.369 . S
C471 C472 1.404 . S
C472 H455 0.940 . S
C472 C471 1.404 . S
C472 C473 1.389 . S
C473 H456 0.939 . S
C473 C468 1.400 . S
C473 C472 1.389 . S
C474 P448 1.819 . S
C474 C475 1.391 . S
C474 C479 1.391 . S
C475 H457 0.941 . S
C475 C474 1.391 . S
C475 C476 1.396 . S
C476 H460 0.939 . S
C476 C475 1.396 . S
C476 C477 1.397 . S
C477 C476 1.397 . S
C477 C478 1.385 . S
C478 H461 0.940 . S
C478 C477 1.385 . S
C478 C479 1.388 . S
C479 H458 0.939 . S
C479 C474 1.391 . S
C479 C478 1.388 . S
P480 O491 1.490 . S
P480 C494 1.812 . S
P480 C500 1.803 . S
P480 C506 1.819 . S
H481 C495 0.941 . S
H482 C496 0.939 . S
H483 C498 0.940 . S
H484 C499 0.940 . S
H485 C501 0.939 . S
H486 C502 0.942 1_554 S
H487 C504 0.940 . S
H488 C505 0.939 . S
H489 C507 0.941 . S
H490 C511 0.939 . S
O491 P480 1.490 . S
H492 C508 0.939 1_565 S
H493 C510 0.940 . S
C494 P480 1.812 . S
C494 C495 1.389 . S
C494 C499 1.391 . S
C495 H481 0.941 . S
C495 C494 1.389 . S
C495 C496 1.397 . S
C496 H482 0.939 . S
C496 C495 1.397 . S
C496 C497 1.378 . S
C497 C496 1.378 . S
C497 C498 1.378 . S
C498 H483 0.940 . S
C498 C497 1.378 . S
C498 C499 1.396 . S
C499 H484 0.940 . S
C499 C494 1.391 . S
C499 C498 1.396 . S
C500 P480 1.803 . S
C500 C501 1.378 . S
C500 C505 1.400 . S
C501 H485 0.939 . S
C501 C500 1.378 . S
C501 C502 1.361 . S
C502 H486 0.942 1_556 S
C502 C501 1.361 . S
C502 C503 1.369 . S
C503 C502 1.369 . S
C503 C504 1.404 . S
C504 H487 0.940 . S
C504 C503 1.404 . S
C504 C505 1.389 . S
C505 H488 0.939 . S
C505 C500 1.400 . S
C505 C504 1.389 . S
C506 P480 1.819 . S
C506 C507 1.391 . S
C506 C511 1.391 . S
C507 H489 0.941 . S
C507 C506 1.391 . S
C507 C508 1.396 . S
C508 H492 0.939 1_545 S
C508 C507 1.396 . S
C508 C509 1.397 . S
C509 C508 1.397 . S
C509 C510 1.385 . S
C510 H493 0.940 . S
C510 C509 1.385 . S
C510 C511 1.388 . S
C511 H490 0.939 . S
C511 C506 1.391 . S
C511 C510 1.388 . S
Zn512 O515 2.055 . S
Zn512 O517 2.033 1_554 S
Zn512 O522 2.034 1_554 S
Zn513 O514 1.962 . S
Zn513 O516 1.986 . S
Zn513 O518 1.996 . S
Zn513 O521 1.943 1_554 S
O514 Zn513 1.962 . S
O514 C519 1.254 . S
O515 Zn512 2.055 . S
O515 C519 1.269 . S
O516 Zn513 1.986 . S
O516 C523 1.262 . S
O517 Zn512 2.033 1_556 S
O517 C525 1.260 . S
O518 Zn513 1.996 . S
O518 C525 1.257 1_554 S
C519 O514 1.254 . S
C519 O515 1.269 . S
C520 O521 1.249 . S
C520 O522 1.270 . S
O521 Zn513 1.943 1_556 S
O521 C520 1.249 . S
O522 Zn512 2.034 1_556 S
O522 C520 1.270 . S
C523 O516 1.262 . S
C523 O524 1.232 . S
O524 C523 1.232 . S
C525 O517 1.260 . S
C525 O518 1.257 1_556 S
Zn526 O529 2.031 . S
Zn526 O531 2.049 . S
Zn526 O536 2.067 . S
Zn527 O528 1.962 . S
Zn527 O530 1.986 . S
Zn527 O532 1.996 . S
Zn527 O535 1.943 . S
O528 Zn527 1.962 . S
O528 C533 1.254 . S
O529 Zn526 2.031 . S
O529 C533 1.269 . S
O530 Zn527 1.986 . S
O530 C537 1.262 . S
O531 Zn526 2.049 . S
O531 C539 1.260 . S
O532 Zn527 1.996 . S
O532 C539 1.257 . S
C533 O528 1.254 . S
C533 O529 1.269 . S
C534 O535 1.249 . S
C534 O536 1.270 . S
O535 Zn527 1.943 . S
O535 C534 1.249 . S
O536 Zn526 2.067 . S
O536 C534 1.270 . S
C537 O530 1.262 . S
C537 O538 1.232 . S
O538 C537 1.232 . S
C539 O531 1.260 . S
C539 O532 1.257 . S
Zn540 O543 2.031 . S
Zn540 O545 2.049 . S
Zn540 O550 2.067 . S
Zn541 O542 1.962 . S
Zn541 O544 1.986 . S
Zn541 O546 1.996 1_554 S
Zn541 O549 1.943 . S
O542 Zn541 1.962 . S
O542 C547 1.254 . S
O543 Zn540 2.031 . S
O543 C547 1.269 1_556 S
O544 Zn541 1.986 . S
O544 C551 1.262 . S
O545 Zn540 2.049 . S
O545 C553 1.260 . S
O546 Zn541 1.996 1_556 S
O546 C553 1.257 . S
C547 O542 1.254 . S
C547 O543 1.269 1_554 S
C548 O549 1.249 1_556 S
C548 O550 1.270 . S
O549 Zn541 1.943 . S
O549 C548 1.249 1_554 S
O550 Zn540 2.067 . S
O550 C548 1.270 . S
C551 O544 1.262 . S
C551 O552 1.232 . S
O552 C551 1.232 . S
C553 O545 1.260 . S
C553 O546 1.257 . S
Zn554 O557 2.031 . S
Zn554 O559 2.049 1_545 S
Zn554 O564 2.067 1_545 S
Zn555 O556 1.962 . S
Zn555 O558 1.986 . S
Zn555 O560 1.996 . S
Zn555 O563 1.943 1_545 S
O556 Zn555 1.962 . S
O556 C561 1.254 . S
O557 Zn554 2.031 . S
O557 C561 1.269 . S
O558 Zn555 1.986 . S
O558 C565 1.262 . S
O559 Zn554 2.049 1_565 S
O559 C567 1.260 . S
O560 Zn555 1.996 . S
O560 C567 1.257 1_545 S
C561 O556 1.254 . S
C561 O557 1.269 . S
C562 O563 1.249 . S
C562 O564 1.270 . S
O563 Zn555 1.943 1_565 S
O563 C562 1.249 . S
O564 Zn554 2.067 1_565 S
O564 C562 1.270 . S
C565 O558 1.262 . S
C565 O566 1.232 . S
O566 C565 1.232 . S
C567 O559 1.260 . S
C567 O560 1.257 1_565 S
Zn568 O571 2.031 . S
Zn568 O573 2.049 . S
Zn568 O578 2.067 . S
Zn569 O570 1.962 . S
Zn569 O572 1.986 . S
Zn569 O574 1.996 . S
Zn569 O577 1.943 . S
O570 Zn569 1.962 . S
O570 C575 1.254 . S
O571 Zn568 2.031 . S
O571 C575 1.269 . S
O572 Zn569 1.986 . S
O572 C579 1.262 . S
O573 Zn568 2.049 . S
O573 C581 1.260 . S
O574 Zn569 1.996 . S
O574 C581 1.257 . S
C575 O570 1.254 . S
C575 O571 1.269 . S
C576 O577 1.249 . S
C576 O578 1.270 . S
O577 Zn569 1.943 . S
O577 C576 1.249 . S
O578 Zn568 2.067 . S
O578 C576 1.270 . S
C579 O572 1.262 . S
C579 O580 1.232 . S
O580 C579 1.232 . S
C581 O573 1.260 . S
C581 O574 1.257 . S
Zn582 O585 2.031 . S
Zn582 O587 2.049 . S
Zn582 O592 2.067 . S
Zn583 O584 1.962 . S
Zn583 O586 1.986 . S
Zn583 O588 1.996 . S
Zn583 O591 1.943 . S
O584 Zn583 1.962 . S
O584 C589 1.254 . S
O585 Zn582 2.031 . S
O585 C589 1.269 . S
O586 Zn583 1.986 . S
O586 C593 1.262 . S
O587 Zn582 2.049 . S
O587 C595 1.260 . S
O588 Zn583 1.996 . S
O588 C595 1.257 . S
C589 O584 1.254 . S
C589 O585 1.269 . S
C590 O591 1.249 . S
C590 O592 1.270 . S
O591 Zn583 1.943 . S
O591 C590 1.249 . S
O592 Zn582 2.067 . S
O592 C590 1.270 . S
C593 O586 1.262 . S
C593 O594 1.232 . S
O594 C593 1.232 . S
C595 O587 1.260 . S
C595 O588 1.257 . S
Zn596 O599 2.031 . S
Zn596 O601 2.049 . S
Zn596 O606 2.067 . S
Zn597 O598 1.962 . S
Zn597 O600 1.986 . S
Zn597 O602 1.996 . S
Zn597 O605 1.943 . S
O598 Zn597 1.962 . S
O598 C603 1.254 . S
O599 Zn596 2.031 . S
O599 C603 1.269 . S
O600 Zn597 1.986 . S
O600 C607 1.262 . S
O601 Zn596 2.049 . S
O601 C609 1.260 . S
O602 Zn597 1.996 . S
O602 C609 1.257 . S
C603 O598 1.254 . S
C603 O599 1.269 . S
C604 O605 1.249 . S
C604 O606 1.270 . S
O605 Zn597 1.943 . S
O605 C604 1.249 . S
O606 Zn596 2.067 . S
O606 C604 1.270 . S
C607 O600 1.262 . S
C607 O608 1.232 . S
O608 C607 1.232 . S
C609 O601 1.260 . S
C609 O602 1.257 . S
Zn610 O613 2.031 . S
Zn610 O615 2.049 . S
Zn610 O620 2.067 . S
Zn611 O612 1.962 . S
Zn611 O614 1.986 . S
Zn611 O616 1.996 1_545 S
Zn611 O619 1.943 . S
O612 Zn611 1.962 . S
O612 C617 1.254 . S
O613 Zn610 2.031 . S
O613 C617 1.269 1_565 S
O614 Zn611 1.986 . S
O614 C621 1.262 . S
O615 Zn610 2.049 . S
O615 C623 1.260 . S
O616 Zn611 1.996 1_565 S
O616 C623 1.257 . S
C617 O612 1.254 . S
C617 O613 1.269 1_545 S
C618 O619 1.249 1_565 S
C618 O620 1.270 . S
O619 Zn611 1.943 . S
O619 C618 1.249 1_545 S
O620 Zn610 2.067 . S
O620 C618 1.270 . S
C621 O614 1.262 . S
C621 O622 1.232 . S
O622 C621 1.232 . S
C623 O615 1.260 . S
C623 O616 1.257 . S
Zn624 O627 2.031 . S
Zn624 O629 2.049 1_455 S
Zn624 O634 2.067 1_455 S
Zn625 O626 1.962 . S
Zn625 O628 1.986 . S
Zn625 O630 1.996 . S
Zn625 O633 1.943 1_455 S
O626 Zn625 1.962 . S
O626 C631 1.254 . S
O627 Zn624 2.031 . S
O627 C631 1.269 . S
O628 Zn625 1.986 . S
O628 C635 1.262 . S
O629 Zn624 2.049 1_655 S
O629 C637 1.260 . S
O630 Zn625 1.996 . S
O630 C637 1.257 1_455 S
C631 O626 1.254 . S
C631 O627 1.269 . S
C632 O633 1.249 . S
C632 O634 1.270 . S
O633 Zn625 1.943 1_655 S
O633 C632 1.249 . S
O634 Zn624 2.067 1_655 S
O634 C632 1.270 . S
C635 O628 1.262 . S
C635 O636 1.232 . S
O636 C635 1.232 . S
C637 O629 1.260 . S
C637 O630 1.257 1_655 S
Zn638 O641 2.031 . S
Zn638 O643 2.049 . S
Zn638 O648 2.067 . S
Zn639 O640 1.962 . S
Zn639 O642 1.986 . S
Zn639 O644 1.996 . S
Zn639 O647 1.943 . S
O640 Zn639 1.962 . S
O640 C645 1.254 . S
O641 Zn638 2.031 . S
O641 C645 1.269 . S
O642 Zn639 1.986 . S
O642 C649 1.262 . S
O643 Zn638 2.049 . S
O643 C651 1.260 . S
O644 Zn639 1.996 . S
O644 C651 1.257 . S
C645 O640 1.254 . S
C645 O641 1.269 . S
C646 O647 1.249 . S
C646 O648 1.270 . S
O647 Zn639 1.943 . S
O647 C646 1.249 . S
O648 Zn638 2.067 . S
O648 C646 1.270 . S
C649 O642 1.262 . S
C649 O650 1.232 . S
O650 C649 1.232 . S
C651 O643 1.260 . S
C651 O644 1.257 . S
Zn652 O655 2.031 . S
Zn652 O657 2.049 . S
Zn652 O662 2.067 . S
Zn653 O654 1.962 . S
Zn653 O656 1.986 . S
Zn653 O658 1.996 1_455 S
Zn653 O661 1.943 . S
O654 Zn653 1.962 . S
O654 C659 1.254 . S
O655 Zn652 2.031 . S
O655 C659 1.269 1_655 S
O656 Zn653 1.986 . S
O656 C663 1.262 . S
O657 Zn652 2.049 . S
O657 C665 1.260 . S
O658 Zn653 1.996 1_655 S
O658 C665 1.257 . S
C659 O654 1.254 . S
C659 O655 1.269 1_455 S
C660 O661 1.249 1_655 S
C660 O662 1.270 . S
O661 Zn653 1.943 . S
O661 C660 1.249 1_455 S
O662 Zn652 2.067 . S
O662 C660 1.270 . S
C663 O656 1.262 . S
C663 O664 1.232 . S
O664 C663 1.232 . S
C665 O657 1.260 . S
C665 O658 1.257 . S
Zn666 O669 2.031 . S
Zn666 O671 2.049 . S
Zn666 O676 2.067 . S
Zn667 O668 1.962 . S
Zn667 O670 1.986 . S
Zn667 O672 1.996 . S
Zn667 O675 1.943 . S
O668 Zn667 1.962 . S
O668 C673 1.254 . S
O669 Zn666 2.031 . S
O669 C673 1.269 . S
O670 Zn667 1.986 . S
O670 C677 1.262 . S
O671 Zn666 2.049 . S
O671 C679 1.260 . S
O672 Zn667 1.996 . S
O672 C679 1.257 . S
C673 O668 1.254 . S
C673 O669 1.269 . S
C674 O675 1.249 . S
C674 O676 1.270 . S
O675 Zn667 1.943 . S
O675 C674 1.249 . S
O676 Zn666 2.067 . S
O676 C674 1.270 . S
C677 O670 1.262 . S
C677 O678 1.232 . S
O678 C677 1.232 . S
C679 O671 1.260 . S
C679 O672 1.257 . S
H680 C698 0.951 . S
H681 C700 0.951 . S
H682 C702 0.950 . S
H683 C703 0.950 . S
H684 C705 0.950 . S
H685 C708 0.950 . S
H686 C709 0.950 . S
H687 C711 0.950 . S
H688 C712 0.950 . S
H689 C713 0.951 . S
H690 C715 0.951 . S
H691 C717 0.950 . S
H692 C718 0.950 . S
H693 C720 0.950 . S
H694 C723 0.950 . S
H695 C724 0.950 . S
H696 C726 0.950 . S
H697 C727 0.950 . S
C698 H680 0.951 . S
C698 C699 1.366 . S
C698 C700 1.388 . S
C699 C698 1.366 . S
C699 C703 1.385 . S
C700 H681 0.951 . S
C700 C698 1.388 . S
C700 C701 1.366 . S
C701 C700 1.366 . S
C701 C702 1.414 . S
C701 C704 1.499 . S
C702 H682 0.950 . S
C702 C701 1.414 . S
C702 C703 1.374 . S
C703 H683 0.950 . S
C703 C699 1.385 . S
C703 C702 1.374 . S
C704 C701 1.499 . S
C704 C705 1.373 . S
C704 C706 1.389 . S
C705 H684 0.950 . S
C705 C704 1.373 . S
C705 C721 1.377 . S
C706 C704 1.389 . S
C706 C707 1.524 . S
C706 C720 1.377 . S
C707 C706 1.524 . S
C707 C708 1.397 . S
C707 C712 1.363 . S
C708 H685 0.950 . S
C708 C707 1.397 . S
C708 C709 1.334 . S
C709 H686 0.950 . S
C709 C708 1.334 . S
C709 C710 1.287 . S
C710 C709 1.287 . S
C710 C711 1.524 . S
C710 H729 0.913 . S
C711 H687 0.950 . S
C711 C710 1.524 . S
C711 C712 1.415 . S
C712 H688 0.950 . S
C712 C707 1.363 . S
C712 C711 1.415 . S
C713 H689 0.951 . S
C713 C714 1.366 . S
C713 C715 1.388 . S
C714 C713 1.366 . S
C714 C718 1.385 . S
C715 H690 0.951 . S
C715 C713 1.388 . S
C715 C716 1.366 . S
C716 C715 1.366 . S
C716 C717 1.414 . S
C716 C719 1.499 . S
C717 H691 0.950 . S
C717 C716 1.414 . S
C717 C718 1.374 . S
C718 H692 0.950 . S
C718 C714 1.385 . S
C718 C717 1.374 . S
C719 C716 1.499 . S
C719 C720 1.373 . S
C719 C721 1.389 . S
C720 H693 0.950 . S
C720 C706 1.377 . S
C720 C719 1.373 . S
C721 C705 1.377 . S
C721 C719 1.389 . S
C721 C722 1.524 . S
C722 C721 1.524 . S
C722 C723 1.397 . S
C722 C727 1.363 . S
C723 H694 0.950 . S
C723 C722 1.397 . S
C723 C724 1.334 . S
C724 H695 0.950 . S
C724 C723 1.334 . S
C724 C725 1.287 . S
C725 C724 1.287 . S
C725 C726 1.524 . S
C725 H728 0.999 . S
C726 H696 0.950 . S
C726 C725 1.524 . S
C726 C727 1.415 . S
C727 H697 0.950 . S
C727 C722 1.363 . S
C727 C726 1.415 . S
H728 C725 0.999 . S
H729 C710 0.913 . S
H730 C748 0.951 . S
H731 C750 0.951 . S
H732 C752 0.950 . S
H733 C753 0.950 . S
H734 C755 0.950 . S
H735 C758 0.950 . S
H736 C759 0.950 . S
H737 C761 0.950 . S
H738 C762 0.950 . S
H739 C763 0.951 . S
H740 C765 0.951 . S
H741 C767 0.950 . S
H742 C768 0.950 . S
H743 C770 0.950 . S
H744 C773 0.950 . S
H745 C774 0.950 . S
H746 C776 0.950 . S
H747 C777 0.950 . S
C748 H730 0.951 . S
C748 C749 1.365 1_655 S
C748 C750 1.388 1_655 S
C749 C748 1.365 1_455 S
C749 C753 1.394 . S
C750 H731 0.951 . S
C750 C748 1.388 1_455 S
C750 C751 1.366 . S
C751 C750 1.366 . S
C751 C752 1.414 . S
C751 C754 1.499 . S
C752 H732 0.950 . S
C752 C751 1.414 . S
C752 C753 1.374 . S
C753 H733 0.950 . S
C753 C749 1.394 . S
C753 C752 1.374 . S
C754 C751 1.499 . S
C754 C755 1.373 . S
C754 C756 1.389 . S
C755 H734 0.950 . S
C755 C754 1.373 . S
C755 C771 1.377 . S
C756 C754 1.389 . S
C756 C757 1.524 . S
C756 C770 1.377 . S
C757 C756 1.524 . S
C757 C758 1.397 . S
C757 C762 1.363 . S
C758 H735 0.950 . S
C758 C757 1.397 . S
C758 C759 1.334 . S
C759 H736 0.950 . S
C759 C758 1.334 . S
C759 C760 1.287 . S
C760 C759 1.287 . S
C760 C761 1.524 . S
C760 H779 0.913 . S
C761 H737 0.950 . S
C761 C760 1.524 . S
C761 C762 1.415 . S
C762 H738 0.950 . S
C762 C757 1.363 . S
C762 C761 1.415 . S
C763 H739 0.951 . S
C763 C764 1.366 . S
C763 C765 1.388 . S
C764 C763 1.366 . S
C764 C768 1.385 . S
C765 H740 0.951 . S
C765 C763 1.388 . S
C765 C766 1.366 . S
C766 C765 1.366 . S
C766 C767 1.414 . S
C766 C769 1.499 . S
C767 H741 0.950 . S
C767 C766 1.414 . S
C767 C768 1.374 . S
C768 H742 0.950 . S
C768 C764 1.385 . S
C768 C767 1.374 . S
C769 C766 1.499 . S
C769 C770 1.373 . S
C769 C771 1.389 . S
C770 H743 0.950 . S
C770 C756 1.377 . S
C770 C769 1.373 . S
C771 C755 1.377 . S
C771 C769 1.389 . S
C771 C772 1.524 . S
C772 C771 1.524 . S
C772 C773 1.397 . S
C772 C777 1.363 . S
C773 H744 0.950 . S
C773 C772 1.397 . S
C773 C774 1.334 . S
C774 H745 0.950 . S
C774 C773 1.334 . S
C774 C775 1.287 . S
C775 C774 1.287 . S
C775 C776 1.524 . S
C775 H778 0.999 . S
C776 H746 0.950 . S
C776 C775 1.524 . S
C776 C777 1.415 . S
C777 H747 0.950 . S
C777 C772 1.363 . S
C777 C776 1.415 . S
H778 C775 0.999 . S
H779 C760 0.913 . S
H780 C798 0.951 . S
H781 C800 0.951 . S
H782 C802 0.950 . S
H783 C803 0.950 . S
H784 C805 0.950 . S
H785 C808 0.950 . S
H786 C809 0.950 . S
H787 C811 0.950 . S
H788 C812 0.950 . S
H789 C813 0.951 . S
H790 C815 0.951 . S
H791 C817 0.950 . S
H792 C818 0.950 . S
H793 C820 0.950 . S
H794 C823 0.950 . S
H795 C824 0.950 . S
H796 C826 0.950 . S
H797 C827 0.950 . S
C798 H780 0.951 . S
C798 C799 1.366 . S
C798 C800 1.388 . S
C799 C798 1.366 . S
C799 C803 1.385 . S
C800 H781 0.951 . S
C800 C798 1.388 . S
C800 C801 1.366 . S
C801 C800 1.366 . S
C801 C802 1.414 . S
C801 C804 1.499 . S
C802 H782 0.950 . S
C802 C801 1.414 . S
C802 C803 1.374 . S
C803 H783 0.950 . S
C803 C799 1.385 . S
C803 C802 1.374 . S
C804 C801 1.499 . S
C804 C805 1.373 . S
C804 C806 1.389 . S
C805 H784 0.950 . S
C805 C804 1.373 . S
C805 C821 1.377 . S
C806 C804 1.389 . S
C806 C807 1.524 . S
C806 C820 1.377 . S
C807 C806 1.524 . S
C807 C808 1.397 . S
C807 C812 1.363 . S
C808 H785 0.950 . S
C808 C807 1.397 . S
C808 C809 1.334 . S
C809 H786 0.950 . S
C809 C808 1.334 . S
C809 C810 1.287 . S
C810 C809 1.287 . S
C810 C811 1.524 . S
C810 H829 0.913 . S
C811 H787 0.950 . S
C811 C810 1.524 . S
C811 C812 1.415 . S
C812 H788 0.950 . S
C812 C807 1.363 . S
C812 C811 1.415 . S
C813 H789 0.951 . S
C813 C814 1.366 . S
C813 C815 1.388 . S
C814 C813 1.366 . S
C814 C818 1.385 . S
C815 H790 0.951 . S
C815 C813 1.388 . S
C815 C816 1.366 . S
C816 C815 1.366 . S
C816 C817 1.414 . S
C816 C819 1.499 . S
C817 H791 0.950 . S
C817 C816 1.414 . S
C817 C818 1.374 . S
C818 H792 0.950 . S
C818 C814 1.385 . S
C818 C817 1.374 . S
C819 C816 1.499 . S
C819 C820 1.373 . S
C819 C821 1.389 . S
C820 H793 0.950 . S
C820 C806 1.377 . S
C820 C819 1.373 . S
C821 C805 1.377 . S
C821 C819 1.389 . S
C821 C822 1.524 . S
C822 C821 1.524 . S
C822 C823 1.397 . S
C822 C827 1.363 . S
C823 H794 0.950 . S
C823 C822 1.397 . S
C823 C824 1.334 . S
C824 H795 0.950 . S
C824 C823 1.334 . S
C824 C825 1.287 . S
C825 C824 1.287 . S
C825 C826 1.524 . S
C825 H828 0.999 . S
C826 H796 0.950 . S
C826 C825 1.524 . S
C826 C827 1.415 . S
C827 H797 0.950 . S
C827 C822 1.363 . S
C827 C826 1.415 . S
H828 C825 0.999 . S
H829 C810 0.913 . S
H830 C848 0.951 . S
H831 C850 0.951 . S
H832 C852 0.950 . S
H833 C853 0.950 . S
H834 C855 0.950 . S
H835 C858 0.950 . S
H836 C859 0.950 . S
H837 C861 0.950 . S
H838 C862 0.950 . S
H839 C863 0.951 . S
H840 C865 0.951 . S
H841 C867 0.950 . S
H842 C868 0.950 . S
H843 C870 0.950 . S
H844 C873 0.950 . S
H845 C874 0.950 . S
H846 C876 0.950 1_455 S
H847 C877 0.950 1_565 S
C848 H830 0.951 . S
C848 C849 1.366 1_655 S
C848 C850 1.388 . S
C849 C848 1.366 1_455 S
C849 C853 1.385 . S
C850 H831 0.951 . S
C850 C848 1.388 . S
C850 C851 1.366 . S
C851 C850 1.366 . S
C851 C852 1.414 1_655 S
C851 C854 1.499 . S
C852 H832 0.950 . S
C852 C851 1.414 1_455 S
C852 C853 1.374 . S
C853 H833 0.950 . S
C853 C849 1.385 . S
C853 C852 1.374 . S
C854 C851 1.499 . S
C854 C855 1.373 . S
C854 C856 1.389 . S
C855 H834 0.950 . S
C855 C854 1.373 . S
C855 C871 1.377 . S
C856 C854 1.389 . S
C856 C857 1.524 . S
C856 C870 1.377 . S
C857 C856 1.524 . S
C857 C858 1.397 . S
C857 C862 1.363 . S
C858 H835 0.950 . S
C858 C857 1.397 . S
C858 C859 1.334 . S
C859 H836 0.950 . S
C859 C858 1.334 . S
C859 C860 1.287 . S
C860 C859 1.287 . S
C860 C861 1.524 . S
C860 H879 0.913 . S
C861 H837 0.950 . S
C861 C860 1.524 . S
C861 C862 1.415 . S
C862 H838 0.950 . S
C862 C857 1.363 . S
C862 C861 1.415 . S
C863 H839 0.951 . S
C863 C864 1.366 . S
C863 C865 1.388 . S
C864 C863 1.366 . S
C864 C868 1.385 . S
C865 H840 0.951 . S
C865 C863 1.388 . S
C865 C866 1.366 . S
C866 C865 1.366 . S
C866 C867 1.414 . S
C866 C869 1.499 . S
C867 H841 0.950 . S
C867 C866 1.414 . S
C867 C868 1.374 . S
C868 H842 0.950 . S
C868 C864 1.385 . S
C868 C867 1.374 . S
C869 C866 1.499 . S
C869 C870 1.373 . S
C869 C871 1.389 . S
C870 H843 0.950 . S
C870 C856 1.377 . S
C870 C869 1.373 . S
C871 C855 1.377 . S
C871 C869 1.389 . S
C871 C872 1.524 1_565 S
C872 C871 1.524 1_545 S
C872 C873 1.397 . S
C872 C877 1.363 . S
C873 H844 0.950 . S
C873 C872 1.397 . S
C873 C874 1.334 . S
C874 H845 0.950 . S
C874 C873 1.334 . S
C874 C875 1.287 . S
C875 C874 1.287 . S
C875 C876 1.524 . S
C875 H878 0.999 . S
C876 H846 0.950 1_655 S
C876 C875 1.524 . S
C876 C877 1.415 . S
C877 H847 0.950 1_545 S
C877 C872 1.363 . S
C877 C876 1.415 . S
H878 C875 0.999 . S
H879 C860 0.913 . S
H880 C898 0.951 . S
H881 C900 0.951 . S
H882 C902 0.950 . S
H883 C903 0.950 . S
H884 C905 0.950 . S
H885 C908 0.950 . S
H886 C909 0.950 . S
H887 C911 0.950 . S
H888 C912 0.950 . S
H889 C913 0.951 . S
H890 C915 0.951 . S
H891 C917 0.950 . S
H892 C918 0.950 . S
H893 C920 0.950 . S
H894 C923 0.950 . S
H895 C924 0.950 . S
H896 C926 0.950 . S
H897 C927 0.950 . S
C898 H880 0.951 . S
C898 C899 1.366 . S
C898 C900 1.388 . S
C899 C898 1.366 . S
C899 C903 1.385 . S
C900 H881 0.951 . S
C900 C898 1.388 . S
C900 C901 1.366 . S
C901 C900 1.366 . S
C901 C902 1.414 . S
C901 C904 1.499 . S
C902 H882 0.950 . S
C902 C901 1.414 . S
C902 C903 1.374 . S
C903 H883 0.950 . S
C903 C899 1.385 . S
C903 C902 1.374 . S
C904 C901 1.499 . S
C904 C905 1.373 . S
C904 C906 1.389 . S
C905 H884 0.950 . S
C905 C904 1.373 . S
C905 C921 1.377 . S
C906 C904 1.389 . S
C906 C907 1.524 . S
C906 C920 1.377 . S
C907 C906 1.524 . S
C907 C908 1.397 . S
C907 C912 1.363 . S
C908 H885 0.950 . S
C908 C907 1.397 . S
C908 C909 1.334 . S
C909 H886 0.950 . S
C909 C908 1.334 . S
C909 C910 1.287 . S
C910 C909 1.287 . S
C910 C911 1.524 . S
C910 H929 0.913 . S
C911 H887 0.950 . S
C911 C910 1.524 . S
C911 C912 1.415 . S
C912 H888 0.950 . S
C912 C907 1.363 . S
C912 C911 1.415 . S
C913 H889 0.951 . S
C913 C914 1.366 . S
C913 C915 1.388 . S
C914 C913 1.366 . S
C914 C918 1.385 . S
C915 H890 0.951 . S
C915 C913 1.388 . S
C915 C916 1.366 . S
C916 C915 1.366 . S
C916 C917 1.414 . S
C916 C919 1.499 . S
C917 H891 0.950 . S
C917 C916 1.414 . S
C917 C918 1.374 . S
C918 H892 0.950 . S
C918 C914 1.385 . S
C918 C917 1.374 . S
C919 C916 1.499 . S
C919 C920 1.373 . S
C919 C921 1.389 . S
C920 H893 0.950 . S
C920 C906 1.377 . S
C920 C919 1.373 . S
C921 C905 1.377 . S
C921 C919 1.389 . S
C921 C922 1.524 . S
C922 C921 1.524 . S
C922 C923 1.397 . S
C922 C927 1.363 . S
C923 H894 0.950 . S
C923 C922 1.397 . S
C923 C924 1.334 . S
C924 H895 0.950 . S
C924 C923 1.334 . S
C924 C925 1.287 . S
C925 C924 1.287 . S
C925 C926 1.524 . S
C925 H928 0.999 . S
C926 H896 0.950 . S
C926 C925 1.524 . S
C926 C927 1.415 . S
C927 H897 0.950 . S
C927 C922 1.363 . S
C927 C926 1.415 . S
H928 C925 0.999 . S
H929 C910 0.913 . S
H930 C948 0.951 . S
H931 C950 0.951 . S
H932 C952 0.950 . S
H933 C953 0.950 . S
H934 C955 0.950 . S
H935 C958 0.950 . S
H936 C959 0.950 . S
H937 C961 0.950 . S
H938 C962 0.950 . S
H939 C963 0.951 . S
H940 C965 0.951 . S
H941 C967 0.950 . S
H942 C968 0.950 . S
H943 C970 0.950 . S
H944 C973 0.950 . S
H945 C974 0.950 . S
H946 C976 0.950 . S
H947 C977 0.950 . S
C948 H930 0.951 . S
C948 C949 1.366 . S
C948 C950 1.388 . S
C949 C948 1.366 . S
C949 C953 1.385 . S
C950 H931 0.951 . S
C950 C948 1.388 . S
C950 C951 1.366 . S
C951 C950 1.366 . S
C951 C952 1.414 . S
C951 C954 1.499 . S
C952 H932 0.950 . S
C952 C951 1.414 . S
C952 C953 1.374 . S
C953 H933 0.950 . S
C953 C949 1.385 . S
C953 C952 1.374 . S
C954 C951 1.499 . S
C954 C955 1.373 . S
C954 C956 1.389 . S
C955 H934 0.950 . S
C955 C954 1.373 . S
C955 C971 1.377 . S
C956 C954 1.389 . S
C956 C957 1.524 . S
C956 C970 1.377 . S
C957 C956 1.524 . S
C957 C958 1.397 . S
C957 C962 1.363 . S
C958 H935 0.950 . S
C958 C957 1.397 . S
C958 C959 1.334 . S
C959 H936 0.950 . S
C959 C958 1.334 . S
C959 C960 1.287 . S
C960 C959 1.287 . S
C960 C961 1.524 . S
C960 H979 0.913 . S
C961 H937 0.950 . S
C961 C960 1.524 . S
C961 C962 1.415 . S
C962 H938 0.950 . S
C962 C957 1.363 . S
C962 C961 1.415 . S
C963 H939 0.951 . S
C963 C964 1.366 . S
C963 C965 1.388 . S
C964 C963 1.366 . S
C964 C968 1.385 . S
C965 H940 0.951 . S
C965 C963 1.388 . S
C965 C966 1.366 . S
C966 C965 1.366 . S
C966 C967 1.414 . S
C966 C969 1.499 . S
C967 H941 0.950 . S
C967 C966 1.414 . S
C967 C968 1.374 . S
C968 H942 0.950 . S
C968 C964 1.385 . S
C968 C967 1.374 . S
C969 C966 1.499 . S
C969 C970 1.373 . S
C969 C971 1.389 . S
C970 H943 0.950 . S
C970 C956 1.377 . S
C970 C969 1.373 . S
C971 C955 1.377 . S
C971 C969 1.389 . S
C971 C972 1.524 . S
C972 C971 1.524 . S
C972 C973 1.397 . S
C972 C977 1.363 . S
C973 H944 0.950 . S
C973 C972 1.397 . S
C973 C974 1.334 . S
C974 H945 0.950 . S
C974 C973 1.334 . S
C974 C975 1.287 . S
C975 C974 1.287 . S
C975 C976 1.524 . S
C975 H978 0.999 . S
C976 H946 0.950 . S
C976 C975 1.524 . S
C976 C977 1.415 . S
C977 H947 0.950 . S
C977 C972 1.363 . S
C977 C976 1.415 . S
H978 C975 0.999 . S
H979 C960 0.913 . S
H980 C998 0.951 . S
H981 C1000 0.951 . S
H982 C1002 0.950 . S
H983 C1003 0.950 . S
H984 C1005 0.950 . S
H985 C1008 0.950 . S
H986 C1009 0.950 . S
H987 C1011 0.950 . S
H988 C1012 0.950 . S
H989 C1013 0.951 . S
H990 C1015 0.951 . S
H991 C1017 0.950 . S
H992 C1018 0.950 . S
H993 C1020 0.950 . S
H994 C1023 0.950 . S
H995 C1024 0.950 . S
H996 C1026 0.950 . S
H997 C1027 0.950 . S
C998 H980 0.951 . S
C998 C999 1.366 . S
C998 C1000 1.388 . S
C999 C998 1.366 . S
C999 C1003 1.385 . S
C1000 H981 0.951 . S
C1000 C998 1.388 . S
C1000 C1001 1.366 . S
C1001 C1000 1.366 . S
C1001 C1002 1.414 . S
C1001 C1004 1.499 . S
C1002 H982 0.950 . S
C1002 C1001 1.414 . S
C1002 C1003 1.374 . S
C1003 H983 0.950 . S
C1003 C999 1.385 . S
C1003 C1002 1.374 . S
C1004 C1001 1.499 . S
C1004 C1005 1.373 . S
C1004 C1006 1.389 . S
C1005 H984 0.950 . S
C1005 C1004 1.373 . S
C1005 C1021 1.377 . S
C1006 C1004 1.389 . S
C1006 C1007 1.524 . S
C1006 C1020 1.377 . S
C1007 C1006 1.524 . S
C1007 C1008 1.397 . S
C1007 C1012 1.363 . S
C1008 H985 0.950 . S
C1008 C1007 1.397 . S
C1008 C1009 1.334 . S
C1009 H986 0.950 . S
C1009 C1008 1.334 . S
C1009 C1010 1.287 . S
C1010 C1009 1.287 . S
C1010 C1011 1.524 . S
C1010 H1029 0.913 . S
C1011 H987 0.950 . S
C1011 C1010 1.524 . S
C1011 C1012 1.415 . S
C1012 H988 0.950 . S
C1012 C1007 1.363 . S
C1012 C1011 1.415 . S
C1013 H989 0.951 . S
C1013 C1014 1.366 . S
C1013 C1015 1.388 . S
C1014 C1013 1.366 . S
C1014 C1018 1.385 . S
C1015 H990 0.951 . S
C1015 C1013 1.388 . S
C1015 C1016 1.366 . S
C1016 C1015 1.366 . S
C1016 C1017 1.414 . S
C1016 C1019 1.499 . S
C1017 H991 0.950 . S
C1017 C1016 1.414 . S
C1017 C1018 1.374 . S
C1018 H992 0.950 . S
C1018 C1014 1.385 . S
C1018 C1017 1.374 . S
C1019 C1016 1.499 . S
C1019 C1020 1.373 . S
C1019 C1021 1.389 . S
C1020 H993 0.950 . S
C1020 C1006 1.377 . S
C1020 C1019 1.373 . S
C1021 C1005 1.377 . S
C1021 C1019 1.389 . S
C1021 C1022 1.524 . S
C1022 C1021 1.524 . S
C1022 C1023 1.397 . S
C1022 C1027 1.363 . S
C1023 H994 0.950 . S
C1023 C1022 1.397 . S
C1023 C1024 1.334 . S
C1024 H995 0.950 . S
C1024 C1023 1.334 . S
C1024 C1025 1.287 . S
C1025 C1024 1.287 . S
C1025 C1026 1.524 . S
C1025 H1028 0.999 . S
C1026 H996 0.950 . S
C1026 C1025 1.524 . S
C1026 C1027 1.415 . S
C1027 H997 0.950 . S
C1027 C1022 1.363 . S
C1027 C1026 1.415 . S
H1028 C1025 0.999 . S
H1029 C1010 0.913 . S
H1030 C1048 0.951 . S
H1031 C1050 0.951 . S
H1032 C1052 0.950 . S
H1033 C1053 0.950 . S
H1034 C1055 0.950 . S
H1035 C1058 0.950 . S
H1036 C1059 0.950 . S
H1037 C1061 0.950 . S
H1038 C1062 0.919 1_565 S
H1039 C1063 0.951 1_545 S
H1040 C1065 0.951 . S
H1041 C1067 0.950 . S
H1042 C1068 0.950 . S
H1043 C1070 0.956 . S
H1044 C1073 0.950 . S
H1045 C1074 0.950 . S
H1046 C1076 0.950 . S
H1047 C1077 0.950 . S
C1048 H1030 0.951 . S
C1048 C1049 1.366 . S
C1048 C1050 1.388 . S
C1049 C1048 1.366 . S
C1049 C1053 1.385 . S
C1050 H1031 0.951 . S
C1050 C1048 1.388 . S
C1050 C1051 1.366 . S
C1051 C1050 1.366 . S
C1051 C1052 1.414 . S
C1051 C1054 1.499 . S
C1052 H1032 0.950 . S
C1052 C1051 1.414 . S
C1052 C1053 1.374 . S
C1053 H1033 0.950 . S
C1053 C1049 1.385 . S
C1053 C1052 1.374 . S
C1054 C1051 1.499 . S
C1054 C1055 1.373 . S
C1054 C1056 1.389 . S
C1055 H1034 0.950 . S
C1055 C1054 1.373 . S
C1055 C1071 1.377 . S
C1056 C1054 1.389 . S
C1056 C1057 1.524 1_565 S
C1056 C1070 1.377 . S
C1057 C1056 1.524 1_545 S
C1057 C1058 1.397 . S
C1057 C1062 1.365 . S
C1058 H1035 0.950 . S
C1058 C1057 1.397 . S
C1058 C1059 1.334 . S
C1059 H1036 0.950 . S
C1059 C1058 1.334 . S
C1059 C1060 1.287 . S
C1060 C1059 1.287 . S
C1060 C1061 1.524 . S
C1060 H1079 0.913 . S
C1061 H1037 0.950 . S
C1061 C1060 1.524 . S
C1061 C1062 1.446 . S
C1062 H1038 0.919 1_545 S
C1062 C1057 1.365 . S
C1062 C1061 1.446 . S
C1063 H1039 0.951 1_565 S
C1063 C1064 1.366 . S
C1063 C1065 1.388 . S
C1064 C1063 1.366 . S
C1064 C1068 1.385 . S
C1065 H1040 0.951 . S
C1065 C1063 1.388 . S
C1065 C1066 1.366 . S
C1066 C1065 1.366 . S
C1066 C1067 1.414 . S
C1066 C1069 1.499 . S
C1067 H1041 0.950 . S
C1067 C1066 1.414 . S
C1067 C1068 1.374 . S
C1068 H1042 0.950 . S
C1068 C1064 1.385 . S
C1068 C1067 1.374 . S
C1069 C1066 1.499 . S
C1069 C1070 1.373 . S
C1069 C1071 1.389 . S
C1070 H1043 0.956 . S
C1070 C1056 1.377 . S
C1070 C1069 1.373 . S
C1071 C1055 1.377 . S
C1071 C1069 1.389 . S
C1071 C1072 1.524 . S
C1072 C1071 1.524 . S
C1072 C1073 1.397 . S
C1072 C1077 1.363 . S
C1073 H1044 0.950 . S
C1073 C1072 1.397 . S
C1073 C1074 1.334 . S
C1074 H1045 0.950 . S
C1074 C1073 1.334 . S
C1074 C1075 1.287 . S
C1075 C1074 1.287 . S
C1075 C1076 1.524 . S
C1075 H1078 0.999 . S
C1076 H1046 0.950 . S
C1076 C1075 1.524 . S
C1076 C1077 1.415 . S
C1077 H1047 0.950 . S
C1077 C1072 1.363 . S
C1077 C1076 1.415 . S
H1078 C1075 0.999 . S
H1079 C1060 0.913 . S
H1080 C1098 0.951 . S
H1081 C1100 0.951 . S
H1082 C1102 0.950 . S
H1083 C1103 0.950 . S
H1084 C1105 0.950 . S
H1085 C1108 0.950 . S
H1086 C1109 0.950 . S
H1087 C1111 0.950 . S
H1088 C1112 0.950 . S
H1089 C1113 0.951 . S
H1090 C1115 0.951 . S
H1091 C1117 0.950 . S
H1092 C1118 0.950 . S
H1093 C1120 0.950 . S
H1094 C1123 0.950 . S
H1095 C1124 0.950 . S
H1096 C1126 0.950 . S
H1097 C1127 0.950 . S
C1098 H1080 0.951 . S
C1098 C1099 1.366 . S
C1098 C1100 1.388 . S
C1099 C1098 1.366 . S
C1099 C1103 1.385 . S
C1100 H1081 0.951 . S
C1100 C1098 1.388 . S
C1100 C1101 1.366 . S
C1101 C1100 1.366 . S
C1101 C1102 1.414 . S
C1101 C1104 1.499 . S
C1102 H1082 0.950 . S
C1102 C1101 1.414 . S
C1102 C1103 1.374 . S
C1103 H1083 0.950 . S
C1103 C1099 1.385 . S
C1103 C1102 1.374 . S
C1104 C1101 1.499 . S
C1104 C1105 1.373 . S
C1104 C1106 1.389 . S
C1105 H1084 0.950 . S
C1105 C1104 1.373 . S
C1105 C1121 1.377 . S
C1106 C1104 1.389 . S
C1106 C1107 1.524 . S
C1106 C1120 1.377 . S
C1107 C1106 1.524 . S
C1107 C1108 1.397 . S
C1107 C1112 1.363 . S
C1108 H1085 0.950 . S
C1108 C1107 1.397 . S
C1108 C1109 1.334 . S
C1109 H1086 0.950 . S
C1109 C1108 1.334 . S
C1109 C1110 1.287 . S
C1110 C1109 1.287 . S
C1110 C1111 1.524 . S
C1110 H1129 0.913 . S
C1111 H1087 0.950 . S
C1111 C1110 1.524 . S
C1111 C1112 1.415 . S
C1112 H1088 0.950 . S
C1112 C1107 1.363 . S
C1112 C1111 1.415 . S
C1113 H1089 0.951 . S
C1113 C1114 1.366 . S
C1113 C1115 1.388 . S
C1114 C1113 1.366 . S
C1114 C1118 1.385 . S
C1115 H1090 0.951 . S
C1115 C1113 1.388 . S
C1115 C1116 1.366 . S
C1116 C1115 1.366 . S
C1116 C1117 1.414 . S
C1116 C1119 1.499 . S
C1117 H1091 0.950 . S
C1117 C1116 1.414 . S
C1117 C1118 1.374 . S
C1118 H1092 0.950 . S
C1118 C1114 1.385 . S
C1118 C1117 1.374 . S
C1119 C1116 1.499 . S
C1119 C1120 1.373 . S
C1119 C1121 1.389 . S
C1120 H1093 0.950 . S
C1120 C1106 1.377 . S
C1120 C1119 1.373 . S
C1121 C1105 1.377 . S
C1121 C1119 1.389 . S
C1121 C1122 1.524 . S
C1122 C1121 1.524 . S
C1122 C1123 1.397 . S
C1122 C1127 1.363 . S
C1123 H1094 0.950 . S
C1123 C1122 1.397 . S
C1123 C1124 1.334 . S
C1124 H1095 0.950 . S
C1124 C1123 1.334 . S
C1124 C1125 1.287 . S
C1125 C1124 1.287 . S
C1125 C1126 1.524 . S
C1125 H1128 0.999 . S
C1126 H1096 0.950 . S
C1126 C1125 1.524 . S
C1126 C1127 1.415 . S
C1127 H1097 0.950 . S
C1127 C1122 1.363 . S
C1127 C1126 1.415 . S
H1128 C1125 0.999 . S
H1129 C1110 0.913 . S
H1130 C1148 0.951 . S
H1131 C1150 0.951 . S
H1132 C1152 0.950 . S
H1133 C1153 0.950 . S
H1134 C1155 0.950 . S
H1135 C1158 0.950 . S
H1136 C1159 0.950 . S
H1137 C1161 0.950 . S
H1138 C1162 0.950 . S
H1139 C1163 0.951 . S
H1140 C1165 0.951 . S
H1141 C1167 0.950 . S
H1142 C1168 0.950 . S
H1143 C1170 0.950 . S
H1144 C1173 0.950 . S
H1145 C1174 0.950 . S
H1146 C1176 0.950 . S
H1147 C1177 0.950 . S
C1148 H1130 0.951 . S
C1148 C1149 1.366 . S
C1148 C1150 1.388 . S
C1149 C1148 1.366 . S
C1149 C1153 1.385 . S
C1150 H1131 0.951 . S
C1150 C1148 1.388 . S
C1150 C1151 1.366 . S
C1151 C1150 1.366 . S
C1151 C1152 1.414 . S
C1151 C1154 1.499 . S
C1152 H1132 0.950 . S
C1152 C1151 1.414 . S
C1152 C1153 1.374 . S
C1153 H1133 0.950 . S
C1153 C1149 1.385 . S
C1153 C1152 1.374 . S
C1154 C1151 1.499 . S
C1154 C1155 1.373 . S
C1154 C1156 1.389 . S
C1155 H1134 0.950 . S
C1155 C1154 1.373 . S
C1155 C1171 1.377 . S
C1156 C1154 1.389 . S
C1156 C1157 1.524 . S
C1156 C1170 1.377 . S
C1157 C1156 1.524 . S
C1157 C1158 1.397 . S
C1157 C1162 1.363 . S
C1158 H1135 0.950 . S
C1158 C1157 1.397 . S
C1158 C1159 1.334 . S
C1159 H1136 0.950 . S
C1159 C1158 1.334 . S
C1159 C1160 1.287 . S
C1160 C1159 1.287 . S
C1160 C1161 1.524 . S
C1160 H1179 0.913 . S
C1161 H1137 0.950 . S
C1161 C1160 1.524 . S
C1161 C1162 1.415 . S
C1162 H1138 0.950 . S
C1162 C1157 1.363 . S
C1162 C1161 1.415 . S
C1163 H1139 0.951 . S
C1163 C1164 1.366 . S
C1163 C1165 1.388 . S
C1164 C1163 1.366 . S
C1164 C1168 1.385 . S
C1165 H1140 0.951 . S
C1165 C1163 1.388 . S
C1165 C1166 1.366 . S
C1166 C1165 1.366 . S
C1166 C1167 1.414 . S
C1166 C1169 1.499 . S
C1167 H1141 0.950 . S
C1167 C1166 1.414 . S
C1167 C1168 1.374 . S
C1168 H1142 0.950 . S
C1168 C1164 1.385 . S
C1168 C1167 1.374 . S
C1169 C1166 1.499 . S
C1169 C1170 1.373 . S
C1169 C1171 1.389 . S
C1170 H1143 0.950 . S
C1170 C1156 1.377 . S
C1170 C1169 1.373 . S
C1171 C1155 1.377 . S
C1171 C1169 1.389 . S
C1171 C1172 1.524 . S
C1172 C1171 1.524 . S
C1172 C1173 1.397 . S
C1172 C1177 1.363 . S
C1173 H1144 0.950 . S
C1173 C1172 1.397 . S
C1173 C1174 1.334 . S
C1174 H1145 0.950 . S
C1174 C1173 1.334 . S
C1174 C1175 1.287 . S
C1175 C1174 1.287 . S
C1175 C1176 1.524 . S
C1175 H1178 0.999 . S
C1176 H1146 0.950 . S
C1176 C1175 1.524 . S
C1176 C1177 1.415 . S
C1177 H1147 0.950 . S
C1177 C1172 1.363 . S
C1177 C1176 1.415 . S
H1178 C1175 0.999 . S
H1179 C1160 0.913 . S
H1180 C1198 0.951 . S
H1181 C1200 0.951 . S
H1182 C1202 0.950 . S
H1183 C1203 0.950 . S
H1184 C1205 0.950 . S
H1185 C1208 0.950 . S
H1186 C1209 0.950 . S
H1187 C1211 0.950 . S
H1188 C1212 0.950 . S
H1189 C1213 0.951 . S
H1190 C1215 0.951 . S
H1191 C1217 0.950 . S
H1192 C1218 0.950 . S
H1193 C1220 0.950 . S
H1194 C1223 0.950 . S
H1195 C1224 0.950 . S
H1196 C1226 0.950 . S
H1197 C1227 0.950 . S
C1198 H1180 0.951 . S
C1198 C1199 1.366 . S
C1198 C1200 1.388 . S
C1199 C1198 1.366 . S
C1199 C1203 1.385 . S
C1200 H1181 0.951 . S
C1200 C1198 1.388 . S
C1200 C1201 1.366 . S
C1201 C1200 1.366 . S
C1201 C1202 1.414 . S
C1201 C1204 1.499 . S
C1202 H1182 0.950 . S
C1202 C1201 1.414 . S
C1202 C1203 1.374 . S
C1203 H1183 0.950 . S
C1203 C1199 1.385 . S
C1203 C1202 1.374 . S
C1204 C1201 1.499 . S
C1204 C1205 1.373 . S
C1204 C1206 1.389 . S
C1205 H1184 0.950 . S
C1205 C1204 1.373 . S
C1205 C1221 1.377 . S
C1206 C1204 1.389 . S
C1206 C1207 1.524 . S
C1206 C1220 1.377 . S
C1207 C1206 1.524 . S
C1207 C1208 1.397 . S
C1207 C1212 1.363 . S
C1208 H1185 0.950 . S
C1208 C1207 1.397 . S
C1208 C1209 1.334 . S
C1209 H1186 0.950 . S
C1209 C1208 1.334 . S
C1209 C1210 1.287 . S
C1210 C1209 1.287 . S
C1210 C1211 1.524 . S
C1210 H1229 0.913 . S
C1211 H1187 0.950 . S
C1211 C1210 1.524 . S
C1211 C1212 1.415 . S
C1212 H1188 0.950 . S
C1212 C1207 1.363 . S
C1212 C1211 1.415 . S
C1213 H1189 0.951 . S
C1213 C1214 1.366 . S
C1213 C1215 1.388 . S
C1214 C1213 1.366 . S
C1214 C1218 1.385 . S
C1215 H1190 0.951 . S
C1215 C1213 1.388 . S
C1215 C1216 1.366 . S
C1216 C1215 1.366 . S
C1216 C1217 1.414 . S
C1216 C1219 1.499 . S
C1217 H1191 0.950 . S
C1217 C1216 1.414 . S
C1217 C1218 1.374 . S
C1218 H1192 0.950 . S
C1218 C1214 1.385 . S
C1218 C1217 1.374 . S
C1219 C1216 1.499 . S
C1219 C1220 1.373 . S
C1219 C1221 1.389 . S
C1220 H1193 0.950 . S
C1220 C1206 1.377 . S
C1220 C1219 1.373 . S
C1221 C1205 1.377 . S
C1221 C1219 1.389 . S
C1221 C1222 1.524 . S
C1222 C1221 1.524 . S
C1222 C1223 1.397 . S
C1222 C1227 1.363 . S
C1223 H1194 0.950 . S
C1223 C1222 1.397 . S
C1223 C1224 1.334 . S
C1224 H1195 0.950 . S
C1224 C1223 1.334 . S
C1224 C1225 1.287 . S
C1225 C1224 1.287 . S
C1225 C1226 1.524 . S
C1225 H1228 0.999 . S
C1226 H1196 0.950 . S
C1226 C1225 1.524 . S
C1226 C1227 1.415 . S
C1227 H1197 0.950 . S
C1227 C1222 1.363 . S
C1227 C1226 1.415 . S
H1228 C1225 0.999 . S
H1229 C1210 0.913 . S
H1230 C1248 0.951 . S
H1231 C1250 0.951 . S
H1232 C1252 0.950 . S
H1233 C1253 0.950 . S
H1234 C1255 0.950 . S
H1235 C1258 0.950 . S
H1236 C1259 0.950 . S
H1237 C1261 0.950 . S
H1238 C1262 0.950 . S
H1239 C1263 0.951 . S
H1240 C1265 0.951 . S
H1241 C1267 0.950 . S
H1242 C1268 0.950 . S
H1243 C1270 0.950 . S
H1244 C1273 0.950 . S
H1245 C1274 0.950 . S
H1246 C1276 0.950 . S
H1247 C1277 0.950 . S
C1248 H1230 0.951 . S
C1248 C1249 1.366 . S
C1248 C1250 1.388 . S
C1249 C1248 1.366 . S
C1249 C1253 1.385 . S
C1250 H1231 0.951 . S
C1250 C1248 1.388 . S
C1250 C1251 1.366 . S
C1251 C1250 1.366 . S
C1251 C1252 1.414 . S
C1251 C1254 1.499 . S
C1252 H1232 0.950 . S
C1252 C1251 1.414 . S
C1252 C1253 1.374 . S
C1253 H1233 0.950 . S
C1253 C1249 1.385 . S
C1253 C1252 1.374 . S
C1254 C1251 1.499 . S
C1254 C1255 1.373 . S
C1254 C1256 1.389 . S
C1255 H1234 0.950 . S
C1255 C1254 1.373 . S
C1255 C1271 1.377 . S
C1256 C1254 1.389 . S
C1256 C1257 1.524 . S
C1256 C1270 1.377 . S
C1257 C1256 1.524 . S
C1257 C1258 1.397 . S
C1257 C1262 1.363 . S
C1258 H1235 0.950 . S
C1258 C1257 1.397 . S
C1258 C1259 1.334 . S
C1259 H1236 0.950 . S
C1259 C1258 1.334 . S
C1259 C1260 1.287 . S
C1260 C1259 1.287 . S
C1260 C1261 1.524 . S
C1260 H1279 0.913 . S
C1261 H1237 0.950 . S
C1261 C1260 1.524 . S
C1261 C1262 1.415 . S
C1262 H1238 0.950 . S
C1262 C1257 1.363 . S
C1262 C1261 1.415 . S
C1263 H1239 0.951 . S
C1263 C1264 1.366 . S
C1263 C1265 1.388 . S
C1264 C1263 1.366 . S
C1264 C1268 1.385 . S
C1265 H1240 0.951 . S
C1265 C1263 1.388 . S
C1265 C1266 1.366 . S
C1266 C1265 1.366 . S
C1266 C1267 1.414 . S
C1266 C1269 1.499 . S
C1267 H1241 0.950 . S
C1267 C1266 1.414 . S
C1267 C1268 1.374 . S
C1268 H1242 0.950 . S
C1268 C1264 1.385 . S
C1268 C1267 1.374 . S
C1269 C1266 1.499 . S
C1269 C1270 1.373 . S
C1269 C1271 1.389 . S
C1270 H1243 0.950 . S
C1270 C1256 1.377 . S
C1270 C1269 1.373 . S
C1271 C1255 1.377 . S
C1271 C1269 1.389 . S
C1271 C1272 1.524 . S
C1272 C1271 1.524 . S
C1272 C1273 1.397 . S
C1272 C1277 1.363 . S
C1273 H1244 0.950 . S
C1273 C1272 1.397 . S
C1273 C1274 1.334 . S
C1274 H1245 0.950 . S
C1274 C1273 1.334 . S
C1274 C1275 1.287 . S
C1275 C1274 1.287 . S
C1275 C1276 1.524 . S
C1275 H1278 0.999 . S
C1276 H1246 0.950 . S
C1276 C1275 1.524 . S
C1276 C1277 1.415 . S
C1277 H1247 0.950 . S
C1277 C1272 1.363 . S
C1277 C1276 1.415 . S
H1278 C1275 0.999 . S
H1279 C1260 0.913 . S
H1280 C1298 0.951 . S
H1281 C1300 0.951 . S
H1282 C1302 0.950 . S
H1283 C1303 0.950 . S
H1284 C1305 0.950 . S
H1285 C1308 0.950 . S
H1286 C1309 0.950 . S
H1287 C1311 0.950 . S
H1288 C1312 0.950 . S
H1289 C1313 0.951 . S
H1290 C1315 0.951 . S
H1291 C1317 0.950 . S
H1292 C1318 0.950 . S
H1293 C1320 0.950 . S
H1294 C1323 0.950 . S
H1295 C1324 0.950 . S
H1296 C1326 0.950 . S
H1297 C1327 0.950 . S
C1298 H1280 0.951 . S
C1298 C1299 1.366 . S
C1298 C1300 1.388 . S
C1299 C1298 1.366 . S
C1299 C1303 1.385 . S
C1300 H1281 0.951 . S
C1300 C1298 1.388 . S
C1300 C1301 1.366 . S
C1301 C1300 1.366 . S
C1301 C1302 1.414 . S
C1301 C1304 1.499 . S
C1302 H1282 0.950 . S
C1302 C1301 1.414 . S
C1302 C1303 1.374 . S
C1303 H1283 0.950 . S
C1303 C1299 1.385 . S
C1303 C1302 1.374 . S
C1304 C1301 1.499 . S
C1304 C1305 1.373 . S
C1304 C1306 1.389 . S
C1305 H1284 0.950 . S
C1305 C1304 1.373 . S
C1305 C1321 1.377 . S
C1306 C1304 1.389 . S
C1306 C1307 1.524 . S
C1306 C1320 1.377 . S
C1307 C1306 1.524 . S
C1307 C1308 1.397 . S
C1307 C1312 1.363 . S
C1308 H1285 0.950 . S
C1308 C1307 1.397 . S
C1308 C1309 1.334 . S
C1309 H1286 0.950 . S
C1309 C1308 1.334 . S
C1309 C1310 1.287 . S
C1310 C1309 1.287 . S
C1310 C1311 1.524 . S
C1310 H1329 0.913 . S
C1311 H1287 0.950 . S
C1311 C1310 1.524 . S
C1311 C1312 1.415 . S
C1312 H1288 0.950 . S
C1312 C1307 1.363 . S
C1312 C1311 1.415 . S
C1313 H1289 0.951 . S
C1313 C1314 1.366 . S
C1313 C1315 1.388 . S
C1314 C1313 1.366 . S
C1314 C1318 1.385 . S
C1315 H1290 0.951 . S
C1315 C1313 1.388 . S
C1315 C1316 1.366 . S
C1316 C1315 1.366 . S
C1316 C1317 1.414 . S
C1316 C1319 1.499 . S
C1317 H1291 0.950 . S
C1317 C1316 1.414 . S
C1317 C1318 1.374 . S
C1318 H1292 0.950 . S
C1318 C1314 1.385 . S
C1318 C1317 1.374 . S
C1319 C1316 1.499 . S
C1319 C1320 1.373 . S
C1319 C1321 1.389 . S
C1320 H1293 0.950 . S
C1320 C1306 1.377 . S
C1320 C1319 1.373 . S
C1321 C1305 1.377 . S
C1321 C1319 1.389 . S
C1321 C1322 1.524 . S
C1322 C1321 1.524 . S
C1322 C1323 1.397 . S
C1322 C1327 1.363 . S
C1323 H1294 0.950 . S
C1323 C1322 1.397 . S
C1323 C1324 1.334 . S
C1324 H1295 0.950 . S
C1324 C1323 1.334 . S
C1324 C1325 1.287 . S
C1325 C1324 1.287 . S
C1325 C1326 1.524 . S
C1325 H1328 0.999 . S
C1326 H1296 0.950 . S
C1326 C1325 1.524 . S
C1326 C1327 1.415 . S
C1327 H1297 0.950 . S
C1327 C1322 1.363 . S
C1327 C1326 1.415 . S
H1328 C1325 0.999 . S
H1329 C1310 0.913 . S
H1330 C1348 0.951 . S
H1331 C1350 0.951 . S
H1332 C1352 0.950 . S
H1333 C1353 0.950 . S
H1334 C1355 0.950 . S
H1335 C1358 0.950 . S
H1336 C1359 0.950 . S
H1337 C1361 0.950 . S
H1338 C1362 0.950 . S
H1339 C1363 0.951 . S
H1340 C1365 0.951 . S
H1341 C1367 0.950 1_655 S
H1342 C1368 0.950 1_655 S
H1343 C1370 0.923 1_655 S
H1344 C1373 0.950 . S
H1345 C1374 0.950 . S
H1346 C1376 0.950 . S
H1347 C1377 0.950 . S
C1348 H1330 0.951 . S
C1348 C1349 1.366 . S
C1348 C1350 1.388 . S
C1349 C1348 1.366 . S
C1349 C1353 1.385 . S
C1350 H1331 0.951 . S
C1350 C1348 1.388 . S
C1350 C1351 1.366 . S
C1351 C1350 1.366 . S
C1351 C1352 1.414 . S
C1351 C1354 1.499 . S
C1352 H1332 0.950 . S
C1352 C1351 1.414 . S
C1352 C1353 1.374 . S
C1353 H1333 0.950 . S
C1353 C1349 1.385 . S
C1353 C1352 1.374 . S
C1354 C1351 1.499 . S
C1354 C1355 1.373 . S
C1354 C1356 1.389 . S
C1355 H1334 0.950 . S
C1355 C1354 1.373 . S
C1355 C1371 1.377 . S
C1356 C1354 1.389 . S
C1356 C1357 1.472 1_455 S
C1356 C1370 1.377 . S
C1357 C1356 1.472 1_655 S
C1357 C1358 1.390 1_655 S
C1357 C1362 1.423 . S
C1358 H1335 0.950 . S
C1358 C1357 1.390 1_455 S
C1358 C1359 1.334 1_455 S
C1359 H1336 0.950 . S
C1359 C1358 1.334 1_655 S
C1359 C1360 1.287 . S
C1360 C1359 1.287 . S
C1360 C1361 1.524 . S
C1360 H1379 0.913 . S
C1361 H1337 0.950 . S
C1361 C1360 1.524 . S
C1361 C1362 1.415 . S
C1362 H1338 0.950 . S
C1362 C1357 1.423 . S
C1362 C1361 1.415 . S
C1363 H1339 0.951 . S
C1363 C1364 1.366 . S
C1363 C1365 1.388 . S
C1364 C1363 1.366 . S
C1364 C1368 1.385 . S
C1365 H1340 0.951 . S
C1365 C1363 1.388 . S
C1365 C1366 1.366 . S
C1366 C1365 1.366 . S
C1366 C1367 1.414 . S
C1366 C1369 1.499 . S
C1367 H1341 0.950 1_455 S
C1367 C1366 1.414 . S
C1367 C1368 1.374 . S
C1368 H1342 0.950 1_455 S
C1368 C1364 1.385 . S
C1368 C1367 1.374 . S
C1369 C1366 1.499 . S
C1369 C1370 1.373 . S
C1369 C1371 1.389 . S
C1370 H1343 0.923 1_455 S
C1370 C1356 1.377 . S
C1370 C1369 1.373 . S
C1371 C1355 1.377 . S
C1371 C1369 1.389 . S
C1371 C1372 1.524 . S
C1372 C1371 1.524 . S
C1372 C1373 1.397 . S
C1372 C1377 1.363 . S
C1373 H1344 0.950 . S
C1373 C1372 1.397 . S
C1373 C1374 1.334 . S
C1374 H1345 0.950 . S
C1374 C1373 1.334 . S
C1374 C1375 1.287 . S
C1375 C1374 1.287 . S
C1375 C1376 1.524 . S
C1375 H1378 0.999 . S
C1376 H1346 0.950 . S
C1376 C1375 1.524 . S
C1376 C1377 1.415 . S
C1377 H1347 0.950 . S
C1377 C1372 1.363 . S
C1377 C1376 1.415 . S
H1378 C1375 0.999 . S
H1379 C1360 0.913 . S
H1380 C1398 0.951 . S
H1381 C1400 0.951 . S
H1382 C1402 0.950 . S
H1383 C1403 0.950 . S
H1384 C1405 0.950 . S
H1385 C1408 0.950 . S
H1386 C1409 0.950 . S
H1387 C1411 0.950 . S
H1388 C1412 0.950 . S
H1389 C1413 0.951 . S
H1390 C1415 0.951 . S
H1391 C1417 0.950 . S
H1392 C1418 0.950 . S
H1393 C1420 0.950 . S
H1394 C1423 0.950 . S
H1395 C1424 0.950 . S
H1396 C1426 0.950 . S
H1397 C1427 0.950 . S
C1398 H1380 0.951 . S
C1398 C1399 1.366 . S
C1398 C1400 1.388 . S
C1399 C1398 1.366 . S
C1399 C1403 1.385 . S
C1400 H1381 0.951 . S
C1400 C1398 1.388 . S
C1400 C1401 1.366 . S
C1401 C1400 1.366 . S
C1401 C1402 1.414 . S
C1401 C1404 1.499 . S
C1402 H1382 0.950 . S
C1402 C1401 1.414 . S
C1402 C1403 1.374 . S
C1403 H1383 0.950 . S
C1403 C1399 1.385 . S
C1403 C1402 1.374 . S
C1404 C1401 1.499 . S
C1404 C1405 1.373 . S
C1404 C1406 1.389 . S
C1405 H1384 0.950 . S
C1405 C1404 1.373 . S
C1405 C1421 1.377 . S
C1406 C1404 1.389 . S
C1406 C1407 1.524 . S
C1406 C1420 1.377 . S
C1407 C1406 1.524 . S
C1407 C1408 1.397 . S
C1407 C1412 1.363 . S
C1408 H1385 0.950 . S
C1408 C1407 1.397 . S
C1408 C1409 1.334 . S
C1409 H1386 0.950 . S
C1409 C1408 1.334 . S
C1409 C1410 1.287 . S
C1410 C1409 1.287 . S
C1410 C1411 1.524 . S
C1410 H1429 0.913 . S
C1411 H1387 0.950 . S
C1411 C1410 1.524 . S
C1411 C1412 1.415 . S
C1412 H1388 0.950 . S
C1412 C1407 1.363 . S
C1412 C1411 1.415 . S
C1413 H1389 0.951 . S
C1413 C1414 1.366 . S
C1413 C1415 1.388 . S
C1414 C1413 1.366 . S
C1414 C1418 1.385 . S
C1415 H1390 0.951 . S
C1415 C1413 1.388 . S
C1415 C1416 1.366 . S
C1416 C1415 1.366 . S
C1416 C1417 1.414 . S
C1416 C1419 1.499 . S
C1417 H1391 0.950 . S
C1417 C1416 1.414 . S
C1417 C1418 1.374 . S
C1418 H1392 0.950 . S
C1418 C1414 1.385 . S
C1418 C1417 1.374 . S
C1419 C1416 1.499 . S
C1419 C1420 1.373 . S
C1419 C1421 1.389 . S
C1420 H1393 0.950 . S
C1420 C1406 1.377 . S
C1420 C1419 1.373 . S
C1421 C1405 1.377 . S
C1421 C1419 1.389 . S
C1421 C1422 1.524 . S
C1422 C1421 1.524 . S
C1422 C1423 1.397 . S
C1422 C1427 1.363 . S
C1423 H1394 0.950 . S
C1423 C1422 1.397 . S
C1423 C1424 1.334 . S
C1424 H1395 0.950 . S
C1424 C1423 1.334 . S
C1424 C1425 1.287 . S
C1425 C1424 1.287 . S
C1425 C1426 1.524 . S
C1425 H1428 0.999 . S
C1426 H1396 0.950 . S
C1426 C1425 1.524 . S
C1426 C1427 1.415 . S
C1427 H1397 0.950 . S
C1427 C1422 1.363 . S
C1427 C1426 1.415 . S
H1428 C1425 0.999 . S
H1429 C1410 0.913 . S
H1430 C1448 0.951 . S
H1431 C1450 0.951 . S
H1432 C1452 0.955 1_455 S
H1433 C1453 0.950 . S
H1434 C1455 0.950 . S
H1435 C1458 0.950 . S
H1436 C1459 0.950 . S
H1437 C1461 0.950 . S
H1438 C1462 0.950 . S
H1439 C1463 0.951 . S
H1440 C1465 0.951 . S
H1441 C1467 0.950 . S
H1442 C1468 0.950 . S
H1443 C1470 0.950 . S
H1444 C1473 0.950 . S
H1445 C1474 0.950 1_655 S
H1446 C1476 0.950 . S
H1447 C1477 0.950 . S
C1448 H1430 0.951 . S
C1448 C1449 1.366 . S
C1448 C1450 1.388 . S
C1449 C1448 1.366 . S
C1449 C1453 1.385 . S
C1450 H1431 0.951 . S
C1450 C1448 1.388 . S
C1450 C1451 1.366 . S
C1451 C1450 1.366 . S
C1451 C1452 1.414 . S
C1451 C1454 1.499 . S
C1452 H1432 0.955 1_655 S
C1452 C1451 1.414 . S
C1452 C1453 1.374 . S
C1453 H1433 0.950 . S
C1453 C1449 1.385 . S
C1453 C1452 1.374 . S
C1454 C1451 1.499 . S
C1454 C1455 1.373 . S
C1454 C1456 1.389 . S
C1455 H1434 0.950 . S
C1455 C1454 1.373 . S
C1455 C1471 1.377 . S
C1456 C1454 1.389 . S
C1456 C1457 1.524 . S
C1456 C1470 1.377 . S
C1457 C1456 1.524 . S
C1457 C1458 1.397 . S
C1457 C1462 1.363 . S
C1458 H1435 0.950 . S
C1458 C1457 1.397 . S
C1458 C1459 1.334 . S
C1459 H1436 0.950 . S
C1459 C1458 1.334 . S
C1459 C1460 1.287 . S
C1460 C1459 1.287 . S
C1460 C1461 1.524 . S
C1460 H1479 0.913 . S
C1461 H1437 0.950 . S
C1461 C1460 1.524 . S
C1461 C1462 1.415 . S
C1462 H1438 0.950 . S
C1462 C1457 1.363 . S
C1462 C1461 1.415 . S
C1463 H1439 0.951 . S
C1463 C1464 1.366 1_455 S
C1463 C1465 1.388 . S
C1464 C1463 1.366 1_655 S
C1464 C1468 1.385 . S
C1465 H1440 0.951 . S
C1465 C1463 1.388 . S
C1465 C1466 1.366 1_455 S
C1466 C1465 1.366 1_655 S
C1466 C1467 1.414 . S
C1466 C1469 1.499 . S
C1467 H1441 0.950 . S
C1467 C1466 1.414 . S
C1467 C1468 1.374 . S
C1468 H1442 0.950 . S
C1468 C1464 1.385 . S
C1468 C1467 1.374 . S
C1469 C1466 1.499 . S
C1469 C1470 1.373 . S
C1469 C1471 1.389 . S
C1470 H1443 0.950 . S
C1470 C1456 1.377 . S
C1470 C1469 1.373 . S
C1471 C1455 1.377 . S
C1471 C1469 1.389 . S
C1471 C1472 1.524 1_655 S
C1472 C1471 1.524 1_455 S
C1472 C1473 1.397 1_455 S
C1472 C1477 1.363 . S
C1473 H1444 0.950 . S
C1473 C1472 1.397 1_655 S
C1473 C1474 1.334 1_655 S
C1474 H1445 0.950 1_455 S
C1474 C1473 1.334 1_455 S
C1474 C1475 1.287 . S
C1475 C1474 1.287 . S
C1475 C1476 1.524 . S
C1475 H1478 0.999 . S
C1476 H1446 0.950 . S
C1476 C1475 1.524 . S
C1476 C1477 1.415 . S
C1477 H1447 0.950 . S
C1477 C1472 1.363 . S
C1477 C1476 1.415 . S
H1478 C1475 0.999 . S
H1479 C1460 0.913 . S
H1480 C1498 0.951 . S
H1481 C1500 0.951 . S
H1482 C1502 0.950 . S
H1483 C1503 0.950 . S
H1484 C1505 0.950 . S
H1485 C1508 0.950 . S
H1486 C1509 0.950 . S
H1487 C1511 0.950 . S
H1488 C1512 0.950 . S
H1489 C1513 0.951 . S
H1490 C1515 0.951 . S
H1491 C1517 0.950 . S
H1492 C1518 0.950 . S
H1493 C1520 0.950 . S
H1494 C1523 0.950 . S
H1495 C1524 0.950 . S
H1496 C1526 0.950 . S
H1497 C1527 0.950 . S
C1498 H1480 0.951 . S
C1498 C1499 1.366 . S
C1498 C1500 1.388 . S
C1499 C1498 1.366 . S
C1499 C1503 1.385 . S
C1500 H1481 0.951 . S
C1500 C1498 1.388 . S
C1500 C1501 1.366 . S
C1501 C1500 1.366 . S
C1501 C1502 1.414 . S
C1501 C1504 1.499 . S
C1502 H1482 0.950 . S
C1502 C1501 1.414 . S
C1502 C1503 1.374 . S
C1503 H1483 0.950 . S
C1503 C1499 1.385 . S
C1503 C1502 1.374 . S
C1504 C1501 1.499 . S
C1504 C1505 1.373 . S
C1504 C1506 1.389 . S
C1505 H1484 0.950 . S
C1505 C1504 1.373 . S
C1505 C1521 1.377 . S
C1506 C1504 1.389 . S
C1506 C1507 1.524 . S
C1506 C1520 1.377 . S
C1507 C1506 1.524 . S
C1507 C1508 1.397 . S
C1507 C1512 1.363 . S
C1508 H1485 0.950 . S
C1508 C1507 1.397 . S
C1508 C1509 1.334 . S
C1509 H1486 0.950 . S
C1509 C1508 1.334 . S
C1509 C1510 1.287 . S
C1510 C1509 1.287 . S
C1510 C1511 1.524 . S
C1510 H1529 0.913 . S
C1511 H1487 0.950 . S
C1511 C1510 1.524 . S
C1511 C1512 1.415 . S
C1512 H1488 0.950 . S
C1512 C1507 1.363 . S
C1512 C1511 1.415 . S
C1513 H1489 0.951 . S
C1513 C1514 1.366 . S
C1513 C1515 1.388 . S
C1514 C1513 1.366 . S
C1514 C1518 1.385 . S
C1515 H1490 0.951 . S
C1515 C1513 1.388 . S
C1515 C1516 1.366 . S
C1516 C1515 1.366 . S
C1516 C1517 1.414 . S
C1516 C1519 1.499 . S
C1517 H1491 0.950 . S
C1517 C1516 1.414 . S
C1517 C1518 1.374 . S
C1518 H1492 0.950 . S
C1518 C1514 1.385 . S
C1518 C1517 1.374 . S
C1519 C1516 1.499 . S
C1519 C1520 1.373 . S
C1519 C1521 1.389 . S
C1520 H1493 0.950 . S
C1520 C1506 1.377 . S
C1520 C1519 1.373 . S
C1521 C1505 1.377 . S
C1521 C1519 1.389 . S
C1521 C1522 1.524 . S
C1522 C1521 1.524 . S
C1522 C1523 1.397 . S
C1522 C1527 1.363 . S
C1523 H1494 0.950 . S
C1523 C1522 1.397 . S
C1523 C1524 1.334 . S
C1524 H1495 0.950 . S
C1524 C1523 1.334 . S
C1524 C1525 1.287 . S
C1525 C1524 1.287 . S
C1525 C1526 1.524 . S
C1525 H1528 0.999 . S
C1526 H1496 0.950 . S
C1526 C1525 1.524 . S
C1526 C1527 1.415 . S
C1527 H1497 0.950 . S
C1527 C1522 1.363 . S
C1527 C1526 1.415 . S
H1528 C1525 0.999 . S
H1529 C1510 0.913 . S
H1530 C1548 0.951 . S
H1531 C1550 0.951 . S
H1532 C1552 0.950 . S
H1533 C1553 0.950 . S
H1534 C1555 0.950 . S
H1535 C1558 0.950 . S
H1536 C1559 0.950 . S
H1537 C1561 0.950 . S
H1538 C1562 0.950 . S
H1539 C1563 0.951 . S
H1540 C1565 0.951 . S
H1541 C1567 0.950 . S
H1542 C1568 0.950 . S
H1543 C1570 0.950 . S
H1544 C1573 0.950 . S
H1545 C1574 0.950 . S
H1546 C1576 0.950 . S
H1547 C1577 0.950 . S
C1548 H1530 0.951 . S
C1548 C1549 1.366 . S
C1548 C1550 1.388 . S
C1549 C1548 1.366 . S
C1549 C1553 1.385 . S
C1550 H1531 0.951 . S
C1550 C1548 1.388 . S
C1550 C1551 1.366 . S
C1551 C1550 1.366 . S
C1551 C1552 1.414 . S
C1551 C1554 1.499 . S
C1552 H1532 0.950 . S
C1552 C1551 1.414 . S
C1552 C1553 1.374 . S
C1553 H1533 0.950 . S
C1553 C1549 1.385 . S
C1553 C1552 1.374 . S
C1554 C1551 1.499 . S
C1554 C1555 1.373 . S
C1554 C1556 1.389 . S
C1555 H1534 0.950 . S
C1555 C1554 1.373 . S
C1555 C1571 1.377 . S
C1556 C1554 1.389 . S
C1556 C1557 1.524 . S
C1556 C1570 1.377 . S
C1557 C1556 1.524 . S
C1557 C1558 1.397 . S
C1557 C1562 1.363 . S
C1558 H1535 0.950 . S
C1558 C1557 1.397 . S
C1558 C1559 1.334 . S
C1559 H1536 0.950 . S
C1559 C1558 1.334 . S
C1559 C1560 1.287 . S
C1560 C1559 1.287 . S
C1560 C1561 1.524 . S
C1560 H1579 0.913 . S
C1561 H1537 0.950 . S
C1561 C1560 1.524 . S
C1561 C1562 1.415 . S
C1562 H1538 0.950 . S
C1562 C1557 1.363 . S
C1562 C1561 1.415 . S
C1563 H1539 0.951 . S
C1563 C1564 1.366 . S
C1563 C1565 1.388 . S
C1564 C1563 1.366 . S
C1564 C1568 1.385 . S
C1565 H1540 0.951 . S
C1565 C1563 1.388 . S
C1565 C1566 1.366 . S
C1566 C1565 1.366 . S
C1566 C1567 1.414 . S
C1566 C1569 1.499 . S
C1567 H1541 0.950 . S
C1567 C1566 1.414 . S
C1567 C1568 1.374 . S
C1568 H1542 0.950 . S
C1568 C1564 1.385 . S
C1568 C1567 1.374 . S
C1569 C1566 1.499 . S
C1569 C1570 1.373 . S
C1569 C1571 1.389 . S
C1570 H1543 0.950 . S
C1570 C1556 1.377 . S
C1570 C1569 1.373 . S
C1571 C1555 1.377 . S
C1571 C1569 1.389 . S
C1571 C1572 1.524 . S
C1572 C1571 1.524 . S
C1572 C1573 1.397 . S
C1572 C1577 1.363 . S
C1573 H1544 0.950 . S
C1573 C1572 1.397 . S
C1573 C1574 1.334 . S
C1574 H1545 0.950 . S
C1574 C1573 1.334 . S
C1574 C1575 1.287 . S
C1575 C1574 1.287 . S
C1575 C1576 1.524 . S
C1575 H1578 0.999 . S
C1576 H1546 0.950 . S
C1576 C1575 1.524 . S
C1576 C1577 1.415 . S
C1577 H1547 0.950 . S
C1577 C1572 1.363 . S
C1577 C1576 1.415 . S
H1578 C1575 0.999 . S
H1579 C1560 0.913 . S
H1580 C1598 0.951 . S
H1581 C1600 0.951 . S
H1582 C1602 0.950 . S
H1583 C1603 0.950 . S
H1584 C1605 0.950 . S
H1585 C1608 0.950 . S
H1586 C1609 0.950 . S
H1587 C1611 0.950 . S
H1588 C1612 0.950 . S
H1589 C1613 0.951 . S
H1590 C1615 0.951 1_554 S
H1591 C1617 0.950 . S
H1592 C1618 0.950 . S
H1593 C1620 0.950 . S
H1594 C1623 0.950 . S
H1595 C1624 0.950 . S
H1596 C1626 0.950 . S
H1597 C1627 0.916 1_554 S
C1598 H1580 0.951 . S
C1598 C1599 1.366 . S
C1598 C1600 1.388 1_545 S
C1599 C1598 1.366 . S
C1599 C1603 1.385 . S
C1600 H1581 0.951 . S
C1600 C1598 1.388 1_565 S
C1600 C1601 1.366 . S
C1601 C1600 1.366 . S
C1601 C1602 1.414 . S
C1601 C1604 1.499 . S
C1602 H1582 0.950 . S
C1602 C1601 1.414 . S
C1602 C1603 1.374 1_565 S
C1603 H1583 0.950 . S
C1603 C1599 1.385 . S
C1603 C1602 1.374 1_545 S
C1604 C1601 1.499 . S
C1604 C1605 1.373 . S
C1604 C1606 1.389 . S
C1605 H1584 0.950 . S
C1605 C1604 1.373 . S
C1605 C1621 1.377 . S
C1606 C1604 1.389 . S
C1606 C1607 1.524 . S
C1606 C1620 1.377 . S
C1607 C1606 1.524 . S
C1607 C1608 1.397 1_565 S
C1607 C1612 1.363 . S
C1608 H1585 0.950 . S
C1608 C1607 1.397 1_545 S
C1608 C1609 1.334 . S
C1609 H1586 0.950 . S
C1609 C1608 1.334 . S
C1609 C1610 1.287 . S
C1610 C1609 1.287 . S
C1610 C1611 1.524 . S
C1610 H1629 0.913 . S
C1611 H1587 0.950 . S
C1611 C1610 1.524 . S
C1611 C1612 1.415 1_545 S
C1612 H1588 0.950 . S
C1612 C1607 1.363 . S
C1612 C1611 1.415 1_565 S
C1613 H1589 0.951 . S
C1613 C1614 1.366 1_554 S
C1613 C1615 1.388 1_554 S
C1614 C1613 1.366 1_556 S
C1614 C1618 1.385 . S
C1615 H1590 0.951 1_556 S
C1615 C1613 1.388 1_556 S
C1615 C1616 1.366 . S
C1616 C1615 1.366 . S
C1616 C1617 1.414 . S
C1616 C1619 1.499 . S
C1617 H1591 0.950 . S
C1617 C1616 1.414 . S
C1617 C1618 1.374 . S
C1618 H1592 0.950 . S
C1618 C1614 1.385 . S
C1618 C1617 1.374 . S
C1619 C1616 1.499 . S
C1619 C1620 1.373 . S
C1619 C1621 1.389 . S
C1620 H1593 0.950 . S
C1620 C1606 1.377 . S
C1620 C1619 1.373 . S
C1621 C1605 1.377 . S
C1621 C1619 1.389 . S
C1621 C1622 1.524 . S
C1622 C1621 1.524 . S
C1622 C1623 1.397 . S
C1622 C1627 1.414 . S
C1623 H1594 0.950 . S
C1623 C1622 1.397 . S
C1623 C1624 1.334 . S
C1624 H1595 0.950 . S
C1624 C1623 1.334 . S
C1624 C1625 1.287 . S
C1625 C1624 1.287 . S
C1625 C1626 1.524 1_556 S
C1625 H1628 0.999 . S
C1626 H1596 0.950 . S
C1626 C1625 1.524 1_554 S
C1626 C1627 1.402 1_554 S
C1627 H1597 0.916 1_556 S
C1627 C1622 1.414 . S
C1627 C1626 1.402 1_556 S
H1628 C1625 0.999 . S
H1629 C1610 0.913 . S
H1630 C1648 0.951 . S
H1631 C1650 0.951 . S
H1632 C1652 0.950 . S
H1633 C1653 0.950 . S
H1634 C1655 0.950 . S
H1635 C1658 0.950 . S
H1636 C1659 0.950 . S
H1637 C1661 0.950 . S
H1638 C1662 0.950 . S
H1639 C1663 0.951 . S
H1640 C1665 0.951 . S
H1641 C1667 0.950 . S
H1642 C1668 0.950 . S
H1643 C1670 0.950 . S
H1644 C1673 0.950 . S
H1645 C1674 0.950 . S
H1646 C1676 0.950 . S
H1647 C1677 0.950 . S
C1648 H1630 0.951 . S
C1648 C1649 1.366 . S
C1648 C1650 1.388 . S
C1649 C1648 1.366 . S
C1649 C1653 1.385 . S
C1650 H1631 0.951 . S
C1650 C1648 1.388 . S
C1650 C1651 1.366 . S
C1651 C1650 1.366 . S
C1651 C1652 1.414 . S
C1651 C1654 1.499 . S
C1652 H1632 0.950 . S
C1652 C1651 1.414 . S
C1652 C1653 1.374 . S
C1653 H1633 0.950 . S
C1653 C1649 1.385 . S
C1653 C1652 1.374 . S
C1654 C1651 1.499 . S
C1654 C1655 1.373 . S
C1654 C1656 1.389 . S
C1655 H1634 0.950 . S
C1655 C1654 1.373 . S
C1655 C1671 1.377 . S
C1656 C1654 1.389 . S
C1656 C1657 1.524 . S
C1656 C1670 1.377 . S
C1657 C1656 1.524 . S
C1657 C1658 1.397 . S
C1657 C1662 1.363 . S
C1658 H1635 0.950 . S
C1658 C1657 1.397 . S
C1658 C1659 1.334 . S
C1659 H1636 0.950 . S
C1659 C1658 1.334 . S
C1659 C1660 1.287 . S
C1660 C1659 1.287 . S
C1660 C1661 1.524 . S
C1660 H1679 0.913 . S
C1661 H1637 0.950 . S
C1661 C1660 1.524 . S
C1661 C1662 1.415 . S
C1662 H1638 0.950 . S
C1662 C1657 1.363 . S
C1662 C1661 1.415 . S
C1663 H1639 0.951 . S
C1663 C1664 1.366 . S
C1663 C1665 1.388 . S
C1664 C1663 1.366 . S
C1664 C1668 1.385 . S
C1665 H1640 0.951 . S
C1665 C1663 1.388 . S
C1665 C1666 1.366 . S
C1666 C1665 1.366 . S
C1666 C1667 1.414 . S
C1666 C1669 1.499 . S
C1667 H1641 0.950 . S
C1667 C1666 1.414 . S
C1667 C1668 1.374 . S
C1668 H1642 0.950 . S
C1668 C1664 1.385 . S
C1668 C1667 1.374 . S
C1669 C1666 1.499 . S
C1669 C1670 1.373 . S
C1669 C1671 1.389 . S
C1670 H1643 0.950 . S
C1670 C1656 1.377 . S
C1670 C1669 1.373 . S
C1671 C1655 1.377 . S
C1671 C1669 1.389 . S
C1671 C1672 1.524 . S
C1672 C1671 1.524 . S
C1672 C1673 1.397 . S
C1672 C1677 1.363 . S
C1673 H1644 0.950 . S
C1673 C1672 1.397 . S
C1673 C1674 1.334 . S
C1674 H1645 0.950 . S
C1674 C1673 1.334 . S
C1674 C1675 1.287 . S
C1675 C1674 1.287 . S
C1675 C1676 1.524 . S
C1675 H1678 0.999 . S
C1676 H1646 0.950 . S
C1676 C1675 1.524 . S
C1676 C1677 1.415 . S
C1677 H1647 0.950 . S
C1677 C1672 1.363 . S
C1677 C1676 1.415 . S
H1678 C1675 0.999 . S
H1679 C1660 0.913 . S
H1680 C1698 0.951 . S
H1681 C1700 0.951 . S
H1682 C1702 0.950 . S
H1683 C1703 0.950 . S
H1684 C1705 0.950 . S
H1685 C1708 0.950 . S
H1686 C1709 0.950 . S
H1687 C1711 0.950 . S
H1688 C1712 0.950 . S
H1689 C1713 0.951 . S
H1690 C1715 0.951 . S
H1691 C1717 0.950 . S
H1692 C1718 0.950 . S
H1693 C1720 0.950 . S
H1694 C1723 0.950 . S
H1695 C1724 0.950 . S
H1696 C1726 0.950 . S
H1697 C1727 0.950 . S
C1698 H1680 0.951 . S
C1698 C1699 1.366 1_545 S
C1698 C1700 1.388 . S
C1699 C1698 1.366 1_565 S
C1699 C1703 1.385 . S
C1700 H1681 0.951 . S
C1700 C1698 1.388 . S
C1700 C1701 1.366 . S
C1701 C1700 1.366 . S
C1701 C1702 1.414 . S
C1701 C1704 1.499 . S
C1702 H1682 0.950 . S
C1702 C1701 1.414 . S
C1702 C1703 1.374 1_545 S
C1703 H1683 0.950 . S
C1703 C1699 1.385 . S
C1703 C1702 1.374 1_565 S
C1704 C1701 1.499 . S
C1704 C1705 1.373 . S
C1704 C1706 1.389 . S
C1705 H1684 0.950 . S
C1705 C1704 1.373 . S
C1705 C1721 1.377 . S
C1706 C1704 1.389 . S
C1706 C1707 1.524 . S
C1706 C1720 1.377 . S
C1707 C1706 1.524 . S
C1707 C1708 1.397 . S
C1707 C1712 1.363 . S
C1708 H1685 0.950 . S
C1708 C1707 1.397 . S
C1708 C1709 1.334 . S
C1709 H1686 0.950 . S
C1709 C1708 1.334 . S
C1709 C1710 1.287 . S
C1710 C1709 1.287 . S
C1710 C1711 1.524 . S
C1710 H1729 0.913 . S
C1711 H1687 0.950 . S
C1711 C1710 1.524 . S
C1711 C1712 1.415 . S
C1712 H1688 0.950 . S
C1712 C1707 1.363 . S
C1712 C1711 1.415 . S
C1713 H1689 0.951 . S
C1713 C1714 1.366 . S
C1713 C1715 1.388 . S
C1714 C1713 1.366 . S
C1714 C1718 1.385 . S
C1715 H1690 0.951 . S
C1715 C1713 1.388 . S
C1715 C1716 1.366 . S
C1716 C1715 1.366 . S
C1716 C1717 1.414 . S
C1716 C1719 1.499 . S
C1717 H1691 0.950 . S
C1717 C1716 1.414 . S
C1717 C1718 1.374 . S
C1718 H1692 0.950 . S
C1718 C1714 1.385 . S
C1718 C1717 1.374 . S
C1719 C1716 1.499 . S
C1719 C1720 1.373 . S
C1719 C1721 1.389 . S
C1720 H1693 0.950 . S
C1720 C1706 1.377 . S
C1720 C1719 1.373 . S
C1721 C1705 1.377 . S
C1721 C1719 1.389 . S
C1721 C1722 1.524 . S
C1722 C1721 1.524 . S
C1722 C1723 1.397 . S
C1722 C1727 1.363 . S
C1723 H1694 0.950 . S
C1723 C1722 1.397 . S
C1723 C1724 1.334 . S
C1724 H1695 0.950 . S
C1724 C1723 1.334 . S
C1724 C1725 1.287 . S
C1725 C1724 1.287 . S
C1725 C1726 1.524 . S
C1725 H1728 0.999 . S
C1726 H1696 0.950 . S
C1726 C1725 1.524 . S
C1726 C1727 1.415 . S
C1727 H1697 0.950 . S
C1727 C1722 1.363 . S
C1727 C1726 1.415 . S
H1728 C1725 0.999 . S
H1729 C1710 0.913 . S
H1730 C1748 0.951 . S
H1731 C1750 0.951 . S
H1732 C1752 0.950 . S
H1733 C1753 0.950 . S
H1734 C1755 0.950 . S
H1735 C1758 0.950 . S
H1736 C1759 0.950 . S
H1737 C1761 0.950 . S
H1738 C1762 0.950 . S
H1739 C1763 0.951 . S
H1740 C1765 0.951 . S
H1741 C1767 0.950 . S
H1742 C1768 0.950 . S
H1743 C1770 0.950 . S
H1744 C1773 0.950 . S
H1745 C1774 0.950 . S
H1746 C1776 0.950 . S
H1747 C1777 0.950 . S
C1748 H1730 0.951 . S
C1748 C1749 1.366 . S
C1748 C1750 1.388 . S
C1749 C1748 1.366 . S
C1749 C1753 1.385 . S
C1750 H1731 0.951 . S
C1750 C1748 1.388 . S
C1750 C1751 1.366 . S
C1751 C1750 1.366 . S
C1751 C1752 1.414 . S
C1751 C1754 1.499 . S
C1752 H1732 0.950 . S
C1752 C1751 1.414 . S
C1752 C1753 1.374 . S
C1753 H1733 0.950 . S
C1753 C1749 1.385 . S
C1753 C1752 1.374 . S
C1754 C1751 1.499 . S
C1754 C1755 1.373 . S
C1754 C1756 1.389 . S
C1755 H1734 0.950 . S
C1755 C1754 1.373 . S
C1755 C1771 1.377 . S
C1756 C1754 1.389 . S
C1756 C1757 1.524 . S
C1756 C1770 1.377 . S
C1757 C1756 1.524 . S
C1757 C1758 1.397 . S
C1757 C1762 1.363 . S
C1758 H1735 0.950 . S
C1758 C1757 1.397 . S
C1758 C1759 1.334 . S
C1759 H1736 0.950 . S
C1759 C1758 1.334 . S
C1759 C1760 1.287 . S
C1760 C1759 1.287 . S
C1760 C1761 1.524 . S
C1760 H1779 0.913 . S
C1761 H1737 0.950 . S
C1761 C1760 1.524 . S
C1761 C1762 1.415 . S
C1762 H1738 0.950 . S
C1762 C1757 1.363 . S
C1762 C1761 1.415 . S
C1763 H1739 0.951 . S
C1763 C1764 1.366 . S
C1763 C1765 1.388 . S
C1764 C1763 1.366 . S
C1764 C1768 1.385 . S
C1765 H1740 0.951 . S
C1765 C1763 1.388 . S
C1765 C1766 1.366 . S
C1766 C1765 1.366 . S
C1766 C1767 1.414 . S
C1766 C1769 1.499 . S
C1767 H1741 0.950 . S
C1767 C1766 1.414 . S
C1767 C1768 1.374 . S
C1768 H1742 0.950 . S
C1768 C1764 1.385 . S
C1768 C1767 1.374 . S
C1769 C1766 1.499 . S
C1769 C1770 1.373 . S
C1769 C1771 1.389 . S
C1770 H1743 0.950 . S
C1770 C1756 1.377 . S
C1770 C1769 1.373 . S
C1771 C1755 1.377 . S
C1771 C1769 1.389 . S
C1771 C1772 1.524 . S
C1772 C1771 1.524 . S
C1772 C1773 1.397 . S
C1772 C1777 1.363 . S
C1773 H1744 0.950 . S
C1773 C1772 1.397 . S
C1773 C1774 1.334 . S
C1774 H1745 0.950 . S
C1774 C1773 1.334 . S
C1774 C1775 1.287 . S
C1775 C1774 1.287 . S
C1775 C1776 1.524 . S
C1775 H1778 0.999 . S
C1776 H1746 0.950 . S
C1776 C1775 1.524 . S
C1776 C1777 1.415 . S
C1777 H1747 0.950 . S
C1777 C1772 1.363 . S
C1777 C1776 1.415 . S
H1778 C1775 0.999 . S
H1779 C1760 0.913 . S
H1780 C1798 0.951 . S
H1781 C1800 0.951 . S
H1782 C1802 0.950 . S
H1783 C1803 0.950 . S
H1784 C1805 0.950 . S
H1785 C1808 0.950 . S
H1786 C1809 0.950 . S
H1787 C1811 0.950 1_565 S
H1788 C1812 0.950 . S
H1789 C1813 0.951 . S
H1790 C1815 0.951 . S
H1791 C1817 0.950 . S
H1792 C1818 0.950 . S
H1793 C1820 0.950 . S
H1794 C1823 0.950 . S
H1795 C1824 0.950 . S
H1796 C1826 0.950 . S
H1797 C1827 0.950 . S
C1798 H1780 0.951 . S
C1798 C1799 1.366 1_565 S
C1798 C1800 1.388 1_565 S
C1799 C1798 1.366 1_545 S
C1799 C1803 1.385 . S
C1800 H1781 0.951 . S
C1800 C1798 1.388 1_545 S
C1800 C1801 1.366 . S
C1801 C1800 1.366 . S
C1801 C1802 1.414 . S
C1801 C1804 1.499 . S
C1802 H1782 0.950 . S
C1802 C1801 1.414 . S
C1802 C1803 1.374 . S
C1803 H1783 0.950 . S
C1803 C1799 1.385 . S
C1803 C1802 1.374 . S
C1804 C1801 1.499 . S
C1804 C1805 1.373 . S
C1804 C1806 1.389 . S
C1805 H1784 0.950 . S
C1805 C1804 1.373 . S
C1805 C1821 1.377 . S
C1806 C1804 1.389 . S
C1806 C1807 1.524 . S
C1806 C1820 1.377 . S
C1807 C1806 1.524 . S
C1807 C1808 1.397 . S
C1807 C1812 1.363 . S
C1808 H1785 0.950 . S
C1808 C1807 1.397 . S
C1808 C1809 1.334 . S
C1809 H1786 0.950 . S
C1809 C1808 1.334 . S
C1809 C1810 1.287 . S
C1810 C1809 1.287 . S
C1810 C1811 1.524 . S
C1810 H1829 0.880 1_545 S
C1811 H1787 0.950 1_545 S
C1811 C1810 1.524 . S
C1811 C1812 1.415 . S
C1812 H1788 0.950 . S
C1812 C1807 1.363 . S
C1812 C1811 1.415 . S
C1813 H1789 0.951 . S
C1813 C1814 1.366 . S
C1813 C1815 1.388 . S
C1814 C1813 1.366 . S
C1814 C1818 1.385 . S
C1815 H1790 0.951 . S
C1815 C1813 1.388 . S
C1815 C1816 1.366 . S
C1816 C1815 1.366 . S
C1816 C1817 1.414 . S
C1816 C1819 1.499 . S
C1817 H1791 0.950 . S
C1817 C1816 1.414 . S
C1817 C1818 1.374 . S
C1818 H1792 0.950 . S
C1818 C1814 1.385 . S
C1818 C1817 1.374 . S
C1819 C1816 1.499 . S
C1819 C1820 1.373 . S
C1819 C1821 1.389 . S
C1820 H1793 0.950 . S
C1820 C1806 1.377 . S
C1820 C1819 1.373 . S
C1821 C1805 1.377 . S
C1821 C1819 1.389 . S
C1821 C1822 1.524 . S
C1822 C1821 1.524 . S
C1822 C1823 1.397 . S
C1822 C1827 1.363 . S
C1823 H1794 0.950 . S
C1823 C1822 1.397 . S
C1823 C1824 1.334 . S
C1824 H1795 0.950 . S
C1824 C1823 1.334 . S
C1824 C1825 1.287 . S
C1825 C1824 1.287 . S
C1825 C1826 1.524 . S
C1825 H1828 0.999 . S
C1826 H1796 0.950 . S
C1826 C1825 1.524 . S
C1826 C1827 1.415 . S
C1827 H1797 0.950 . S
C1827 C1822 1.363 . S
C1827 C1826 1.415 . S
H1828 C1825 0.999 . S
H1829 C1810 0.880 1_565 S
H1830 C1848 0.951 . S
H1831 C1850 0.951 . S
H1832 C1852 0.950 . S
H1833 C1853 0.950 . S
H1834 C1855 0.950 . S
H1835 C1858 0.950 . S
H1836 C1859 0.950 . S
H1837 C1861 0.950 . S
H1838 C1862 0.950 . S
H1839 C1863 0.951 . S
H1840 C1865 0.951 . S
H1841 C1867 0.950 . S
H1842 C1868 0.950 . S
H1843 C1870 0.950 . S
H1844 C1873 0.950 . S
H1845 C1874 0.950 . S
H1846 C1876 0.950 . S
H1847 C1877 0.950 . S
C1848 H1830 0.951 . S
C1848 C1849 1.366 . S
C1848 C1850 1.388 . S
C1849 C1848 1.366 . S
C1849 C1853 1.385 . S
C1850 H1831 0.951 . S
C1850 C1848 1.388 . S
C1850 C1851 1.366 . S
C1851 C1850 1.366 . S
C1851 C1852 1.414 . S
C1851 C1854 1.499 . S
C1852 H1832 0.950 . S
C1852 C1851 1.414 . S
C1852 C1853 1.374 . S
C1853 H1833 0.950 . S
C1853 C1849 1.385 . S
C1853 C1852 1.374 . S
C1854 C1851 1.499 . S
C1854 C1855 1.373 . S
C1854 C1856 1.389 . S
C1855 H1834 0.950 . S
C1855 C1854 1.373 . S
C1855 C1871 1.377 . S
C1856 C1854 1.389 . S
C1856 C1857 1.524 . S
C1856 C1870 1.377 . S
C1857 C1856 1.524 . S
C1857 C1858 1.397 . S
C1857 C1862 1.363 . S
C1858 H1835 0.950 . S
C1858 C1857 1.397 . S
C1858 C1859 1.334 . S
C1859 H1836 0.950 . S
C1859 C1858 1.334 . S
C1859 C1860 1.287 . S
C1860 C1859 1.287 . S
C1860 C1861 1.524 . S
C1860 H1879 0.913 . S
C1861 H1837 0.950 . S
C1861 C1860 1.524 . S
C1861 C1862 1.415 . S
C1862 H1838 0.950 . S
C1862 C1857 1.363 . S
C1862 C1861 1.415 . S
C1863 H1839 0.951 . S
C1863 C1864 1.366 . S
C1863 C1865 1.388 . S
C1864 C1863 1.366 . S
C1864 C1868 1.385 . S
C1865 H1840 0.951 . S
C1865 C1863 1.388 . S
C1865 C1866 1.366 . S
C1866 C1865 1.366 . S
C1866 C1867 1.414 . S
C1866 C1869 1.499 . S
C1867 H1841 0.950 . S
C1867 C1866 1.414 . S
C1867 C1868 1.374 . S
C1868 H1842 0.950 . S
C1868 C1864 1.385 . S
C1868 C1867 1.374 . S
C1869 C1866 1.499 . S
C1869 C1870 1.373 . S
C1869 C1871 1.389 . S
C1870 H1843 0.950 . S
C1870 C1856 1.377 . S
C1870 C1869 1.373 . S
C1871 C1855 1.377 . S
C1871 C1869 1.389 . S
C1871 C1872 1.524 . S
C1872 C1871 1.524 . S
C1872 C1873 1.397 . S
C1872 C1877 1.363 . S
C1873 H1844 0.950 . S
C1873 C1872 1.397 . S
C1873 C1874 1.334 . S
C1874 H1845 0.950 . S
C1874 C1873 1.334 . S
C1874 C1875 1.287 . S
C1875 C1874 1.287 . S
C1875 C1876 1.524 . S
C1875 H1878 0.999 . S
C1876 H1846 0.950 . S
C1876 C1875 1.524 . S
C1876 C1877 1.415 . S
C1877 H1847 0.950 . S
C1877 C1872 1.363 . S
C1877 C1876 1.415 . S
H1878 C1875 0.999 . S
H1879 C1860 0.913 . S
H1880 C1898 0.951 . S
H1881 C1900 0.951 . S
H1882 C1902 0.950 . S
H1883 C1903 0.950 . S
H1884 C1905 0.950 . S
H1885 C1908 0.950 . S
H1886 C1909 0.950 . S
H1887 C1911 0.950 . S
H1888 C1912 0.950 . S
H1889 C1913 0.951 . S
H1890 C1915 0.951 . S
H1891 C1917 0.950 . S
H1892 C1918 0.950 . S
H1893 C1920 0.950 . S
H1894 C1923 0.950 . S
H1895 C1924 0.950 . S
H1896 C1926 0.950 . S
H1897 C1927 0.950 . S
C1898 H1880 0.951 . S
C1898 C1899 1.366 . S
C1898 C1900 1.388 . S
C1899 C1898 1.366 . S
C1899 C1903 1.385 . S
C1900 H1881 0.951 . S
C1900 C1898 1.388 . S
C1900 C1901 1.366 . S
C1901 C1900 1.366 . S
C1901 C1902 1.414 . S
C1901 C1904 1.499 . S
C1902 H1882 0.950 . S
C1902 C1901 1.414 . S
C1902 C1903 1.374 . S
C1903 H1883 0.950 . S
C1903 C1899 1.385 . S
C1903 C1902 1.374 . S
C1904 C1901 1.499 . S
C1904 C1905 1.373 . S
C1904 C1906 1.389 . S
C1905 H1884 0.950 . S
C1905 C1904 1.373 . S
C1905 C1921 1.377 . S
C1906 C1904 1.389 . S
C1906 C1907 1.524 . S
C1906 C1920 1.377 . S
C1907 C1906 1.524 . S
C1907 C1908 1.397 . S
C1907 C1912 1.363 . S
C1908 H1885 0.950 . S
C1908 C1907 1.397 . S
C1908 C1909 1.334 . S
C1909 H1886 0.950 . S
C1909 C1908 1.334 . S
C1909 C1910 1.287 . S
C1910 C1909 1.287 . S
C1910 C1911 1.524 . S
C1910 H1929 0.913 . S
C1911 H1887 0.950 . S
C1911 C1910 1.524 . S
C1911 C1912 1.415 . S
C1912 H1888 0.950 . S
C1912 C1907 1.363 . S
C1912 C1911 1.415 . S
C1913 H1889 0.951 . S
C1913 C1914 1.366 . S
C1913 C1915 1.388 . S
C1914 C1913 1.366 . S
C1914 C1918 1.385 . S
C1915 H1890 0.951 . S
C1915 C1913 1.388 . S
C1915 C1916 1.366 . S
C1916 C1915 1.366 . S
C1916 C1917 1.414 . S
C1916 C1919 1.499 . S
C1917 H1891 0.950 . S
C1917 C1916 1.414 . S
C1917 C1918 1.374 . S
C1918 H1892 0.950 . S
C1918 C1914 1.385 . S
C1918 C1917 1.374 . S
C1919 C1916 1.499 . S
C1919 C1920 1.373 . S
C1919 C1921 1.389 . S
C1920 H1893 0.950 . S
C1920 C1906 1.377 . S
C1920 C1919 1.373 . S
C1921 C1905 1.377 . S
C1921 C1919 1.389 . S
C1921 C1922 1.524 . S
C1922 C1921 1.524 . S
C1922 C1923 1.397 . S
C1922 C1927 1.363 . S
C1923 H1894 0.950 . S
C1923 C1922 1.397 . S
C1923 C1924 1.334 . S
C1924 H1895 0.950 . S
C1924 C1923 1.334 . S
C1924 C1925 1.287 . S
C1925 C1924 1.287 . S
C1925 C1926 1.524 . S
C1925 H1928 0.999 . S
C1926 H1896 0.950 . S
C1926 C1925 1.524 . S
C1926 C1927 1.415 . S
C1927 H1897 0.950 . S
C1927 C1922 1.363 . S
C1927 C1926 1.415 . S
H1928 C1925 0.999 . S
H1929 C1910 0.913 . S
H1930 C1948 0.951 . S
H1931 C1950 0.951 . S
H1932 C1952 0.950 . S
H1933 C1953 0.950 . S
H1934 C1955 0.950 . S
H1935 C1958 0.950 . S
H1936 C1959 0.950 1_565 S
H1937 C1961 0.950 . S
H1938 C1962 0.950 . S
H1939 C1963 0.955 1_565 S
H1940 C1965 0.951 . S
H1941 C1967 0.950 . S
H1942 C1968 0.950 . S
H1943 C1970 0.950 . S
H1944 C1973 0.950 . S
H1945 C1974 0.950 . S
H1946 C1976 0.950 . S
H1947 C1977 0.950 . S
C1948 H1930 0.951 . S
C1948 C1949 1.366 . S
C1948 C1950 1.388 . S
C1949 C1948 1.366 . S
C1949 C1953 1.385 . S
C1950 H1931 0.951 . S
C1950 C1948 1.388 . S
C1950 C1951 1.366 . S
C1951 C1950 1.366 . S
C1951 C1952 1.414 . S
C1951 C1954 1.499 . S
C1952 H1932 0.950 . S
C1952 C1951 1.414 . S
C1952 C1953 1.374 . S
C1953 H1933 0.950 . S
C1953 C1949 1.385 . S
C1953 C1952 1.374 . S
C1954 C1951 1.499 . S
C1954 C1955 1.373 . S
C1954 C1956 1.389 . S
C1955 H1934 0.950 . S
C1955 C1954 1.373 . S
C1955 C1971 1.377 . S
C1956 C1954 1.389 . S
C1956 C1957 1.524 . S
C1956 C1970 1.377 . S
C1957 C1956 1.524 . S
C1957 C1958 1.397 . S
C1957 C1962 1.363 . S
C1958 H1935 0.950 . S
C1958 C1957 1.397 . S
C1958 C1959 1.334 . S
C1959 H1936 0.950 1_545 S
C1959 C1958 1.334 . S
C1959 C1960 1.287 . S
C1960 C1959 1.287 . S
C1960 C1961 1.524 . S
C1960 H1979 0.913 . S
C1961 H1937 0.950 . S
C1961 C1960 1.524 . S
C1961 C1962 1.415 . S
C1962 H1938 0.950 . S
C1962 C1957 1.363 . S
C1962 C1961 1.415 . S
C1963 H1939 0.955 1_545 S
C1963 C1964 1.366 . S
C1963 C1965 1.388 . S
C1964 C1963 1.366 . S
C1964 C1968 1.385 . S
C1965 H1940 0.951 . S
C1965 C1963 1.388 . S
C1965 C1966 1.366 . S
C1966 C1965 1.366 . S
C1966 C1967 1.414 . S
C1966 C1969 1.499 . S
C1967 H1941 0.950 . S
C1967 C1966 1.414 . S
C1967 C1968 1.374 . S
C1968 H1942 0.950 . S
C1968 C1964 1.385 . S
C1968 C1967 1.374 . S
C1969 C1966 1.499 . S
C1969 C1970 1.373 . S
C1969 C1971 1.389 . S
C1970 H1943 0.950 . S
C1970 C1956 1.377 . S
C1970 C1969 1.373 . S
C1971 C1955 1.377 . S
C1971 C1969 1.389 . S
C1971 C1972 1.524 . S
C1972 C1971 1.524 . S
C1972 C1973 1.397 . S
C1972 C1977 1.363 . S
C1973 H1944 0.950 . S
C1973 C1972 1.397 . S
C1973 C1974 1.334 . S
C1974 H1945 0.950 . S
C1974 C1973 1.334 . S
C1974 C1975 1.287 . S
C1975 C1974 1.287 . S
C1975 C1976 1.524 . S
C1975 H1978 0.999 . S
C1976 H1946 0.950 . S
C1976 C1975 1.524 . S
C1976 C1977 1.415 . S
C1977 H1947 0.950 . S
C1977 C1972 1.363 . S
C1977 C1976 1.415 . S
H1978 C1975 0.999 . S
H1979 C1960 0.913 . S
H1980 C1998 0.951 . S
H1981 C2000 0.951 . S
H1982 C2002 0.950 . S
H1983 C2003 0.950 . S
H1984 C2005 0.950 . S
H1985 C2008 0.950 . S
H1986 C2009 0.950 . S
H1987 C2011 0.950 . S
H1988 C2012 0.950 . S
H1989 C2013 0.951 . S
H1990 C2015 0.951 . S
H1991 C2017 0.950 . S
H1992 C2018 0.950 . S
H1993 C2020 0.950 . S
H1994 C2023 0.950 . S
H1995 C2024 0.950 . S
H1996 C2026 0.950 . S
H1997 C2027 0.950 . S
C1998 H1980 0.951 . S
C1998 C1999 1.366 . S
C1998 C2000 1.388 . S
C1999 C1998 1.366 . S
C1999 C2003 1.385 . S
C2000 H1981 0.951 . S
C2000 C1998 1.388 . S
C2000 C2001 1.366 . S
C2001 C2000 1.366 . S
C2001 C2002 1.414 . S
C2001 C2004 1.499 . S
C2002 H1982 0.950 . S
C2002 C2001 1.414 . S
C2002 C2003 1.374 . S
C2003 H1983 0.950 . S
C2003 C1999 1.385 . S
C2003 C2002 1.374 . S
C2004 C2001 1.499 . S
C2004 C2005 1.373 . S
C2004 C2006 1.389 . S
C2005 H1984 0.950 . S
C2005 C2004 1.373 . S
C2005 C2021 1.377 . S
C2006 C2004 1.389 . S
C2006 C2007 1.524 . S
C2006 C2020 1.377 . S
C2007 C2006 1.524 . S
C2007 C2008 1.397 . S
C2007 C2012 1.363 . S
C2008 H1985 0.950 . S
C2008 C2007 1.397 . S
C2008 C2009 1.334 . S
C2009 H1986 0.950 . S
C2009 C2008 1.334 . S
C2009 C2010 1.287 . S
C2010 C2009 1.287 . S
C2010 C2011 1.524 . S
C2010 H2029 0.913 . S
C2011 H1987 0.950 . S
C2011 C2010 1.524 . S
C2011 C2012 1.415 . S
C2012 H1988 0.950 . S
C2012 C2007 1.363 . S
C2012 C2011 1.415 . S
C2013 H1989 0.951 . S
C2013 C2014 1.366 . S
C2013 C2015 1.388 . S
C2014 C2013 1.366 . S
C2014 C2018 1.385 . S
C2015 H1990 0.951 . S
C2015 C2013 1.388 . S
C2015 C2016 1.366 . S
C2016 C2015 1.366 . S
C2016 C2017 1.414 . S
C2016 C2019 1.499 . S
C2017 H1991 0.950 . S
C2017 C2016 1.414 . S
C2017 C2018 1.374 . S
C2018 H1992 0.950 . S
C2018 C2014 1.385 . S
C2018 C2017 1.374 . S
C2019 C2016 1.499 . S
C2019 C2020 1.373 . S
C2019 C2021 1.389 . S
C2020 H1993 0.950 . S
C2020 C2006 1.377 . S
C2020 C2019 1.373 . S
C2021 C2005 1.377 . S
C2021 C2019 1.389 . S
C2021 C2022 1.524 . S
C2022 C2021 1.524 . S
C2022 C2023 1.397 . S
C2022 C2027 1.363 . S
C2023 H1994 0.950 . S
C2023 C2022 1.397 . S
C2023 C2024 1.334 . S
C2024 H1995 0.950 . S
C2024 C2023 1.334 . S
C2024 C2025 1.287 . S
C2025 C2024 1.287 . S
C2025 C2026 1.524 . S
C2025 H2028 0.999 . S
C2026 H1996 0.950 . S
C2026 C2025 1.524 . S
C2026 C2027 1.415 . S
C2027 H1997 0.950 . S
C2027 C2022 1.363 . S
C2027 C2026 1.415 . S
H2028 C2025 0.999 . S
H2029 C2010 0.913 . S
H2030 C2048 0.951 . S
H2031 C2050 0.951 . S
H2032 C2052 0.950 . S
H2033 C2053 0.950 . S
H2034 C2055 0.950 . S
H2035 C2058 0.950 . S
H2036 C2059 0.950 . S
H2037 C2061 0.950 . S
H2038 C2062 0.950 . S
H2039 C2063 0.951 . S
H2040 C2065 0.951 . S
H2041 C2067 0.950 . S
H2042 C2068 0.950 . S
H2043 C2070 0.950 . S
H2044 C2073 0.950 . S
H2045 C2074 0.950 . S
H2046 C2076 0.950 . S
H2047 C2077 0.950 . S
C2048 H2030 0.951 . S
C2048 C2049 1.366 . S
C2048 C2050 1.388 . S
C2049 C2048 1.366 . S
C2049 C2053 1.385 . S
C2050 H2031 0.951 . S
C2050 C2048 1.388 . S
C2050 C2051 1.366 . S
C2051 C2050 1.366 . S
C2051 C2052 1.414 . S
C2051 C2054 1.499 . S
C2052 H2032 0.950 . S
C2052 C2051 1.414 . S
C2052 C2053 1.374 . S
C2053 H2033 0.950 . S
C2053 C2049 1.385 . S
C2053 C2052 1.374 . S
C2054 C2051 1.499 . S
C2054 C2055 1.373 . S
C2054 C2056 1.389 . S
C2055 H2034 0.950 . S
C2055 C2054 1.373 . S
C2055 C2071 1.377 . S
C2056 C2054 1.389 . S
C2056 C2057 1.524 . S
C2056 C2070 1.377 . S
C2057 C2056 1.524 . S
C2057 C2058 1.397 . S
C2057 C2062 1.363 . S
C2058 H2035 0.950 . S
C2058 C2057 1.397 . S
C2058 C2059 1.334 . S
C2059 H2036 0.950 . S
C2059 C2058 1.334 . S
C2059 C2060 1.287 . S
C2060 C2059 1.287 . S
C2060 C2061 1.524 . S
C2060 H2079 0.913 . S
C2061 H2037 0.950 . S
C2061 C2060 1.524 . S
C2061 C2062 1.415 . S
C2062 H2038 0.950 . S
C2062 C2057 1.363 . S
C2062 C2061 1.415 . S
C2063 H2039 0.951 . S
C2063 C2064 1.366 . S
C2063 C2065 1.388 . S
C2064 C2063 1.366 . S
C2064 C2068 1.385 . S
C2065 H2040 0.951 . S
C2065 C2063 1.388 . S
C2065 C2066 1.366 . S
C2066 C2065 1.366 . S
C2066 C2067 1.414 . S
C2066 C2069 1.499 . S
C2067 H2041 0.950 . S
C2067 C2066 1.414 . S
C2067 C2068 1.374 . S
C2068 H2042 0.950 . S
C2068 C2064 1.385 . S
C2068 C2067 1.374 . S
C2069 C2066 1.499 . S
C2069 C2070 1.373 . S
C2069 C2071 1.389 . S
C2070 H2043 0.950 . S
C2070 C2056 1.377 . S
C2070 C2069 1.373 . S
C2071 C2055 1.377 . S
C2071 C2069 1.389 . S
C2071 C2072 1.524 . S
C2072 C2071 1.524 . S
C2072 C2073 1.397 . S
C2072 C2077 1.363 . S
C2073 H2044 0.950 . S
C2073 C2072 1.397 . S
C2073 C2074 1.334 . S
C2074 H2045 0.950 . S
C2074 C2073 1.334 . S
C2074 C2075 1.287 . S
C2075 C2074 1.287 . S
C2075 C2076 1.524 . S
C2075 H2078 0.999 . S
C2076 H2046 0.950 . S
C2076 C2075 1.524 . S
C2076 C2077 1.415 . S
C2077 H2047 0.950 . S
C2077 C2072 1.363 . S
C2077 C2076 1.415 . S
H2078 C2075 0.999 . S
H2079 C2060 0.913 . S
H2080 C2098 0.951 . S
H2081 C2100 0.951 . S
H2082 C2102 0.950 . S
H2083 C2103 0.950 . S
H2084 C2105 0.950 . S
H2085 C2108 0.950 . S
H2086 C2109 0.950 . S
H2087 C2111 0.950 . S
H2088 C2112 0.950 . S
H2089 C2113 0.951 . S
H2090 C2115 0.951 . S
H2091 C2117 0.950 . S
H2092 C2118 0.950 . S
H2093 C2120 0.950 . S
H2094 C2123 0.950 . S
H2095 C2124 0.950 . S
H2096 C2126 0.950 . S
H2097 C2127 0.950 . S
C2098 H2080 0.951 . S
C2098 C2099 1.366 . S
C2098 C2100 1.388 . S
C2099 C2098 1.366 . S
C2099 C2103 1.385 . S
C2100 H2081 0.951 . S
C2100 C2098 1.388 . S
C2100 C2101 1.366 . S
C2101 C2100 1.366 . S
C2101 C2102 1.414 . S
C2101 C2104 1.499 . S
C2102 H2082 0.950 . S
C2102 C2101 1.414 . S
C2102 C2103 1.374 . S
C2103 H2083 0.950 . S
C2103 C2099 1.385 . S
C2103 C2102 1.374 . S
C2104 C2101 1.499 . S
C2104 C2105 1.373 . S
C2104 C2106 1.389 . S
C2105 H2084 0.950 . S
C2105 C2104 1.373 . S
C2105 C2121 1.377 . S
C2106 C2104 1.389 . S
C2106 C2107 1.524 . S
C2106 C2120 1.377 . S
C2107 C2106 1.524 . S
C2107 C2108 1.397 . S
C2107 C2112 1.363 . S
C2108 H2085 0.950 . S
C2108 C2107 1.397 . S
C2108 C2109 1.334 . S
C2109 H2086 0.950 . S
C2109 C2108 1.334 . S
C2109 C2110 1.287 . S
C2110 C2109 1.287 . S
C2110 C2111 1.524 . S
C2110 H2129 0.913 . S
C2111 H2087 0.950 . S
C2111 C2110 1.524 . S
C2111 C2112 1.415 . S
C2112 H2088 0.950 . S
C2112 C2107 1.363 . S
C2112 C2111 1.415 . S
C2113 H2089 0.951 . S
C2113 C2114 1.366 . S
C2113 C2115 1.388 . S
C2114 C2113 1.366 . S
C2114 C2118 1.385 . S
C2115 H2090 0.951 . S
C2115 C2113 1.388 . S
C2115 C2116 1.366 . S
C2116 C2115 1.366 . S
C2116 C2117 1.414 . S
C2116 C2119 1.499 . S
C2117 H2091 0.950 . S
C2117 C2116 1.414 . S
C2117 C2118 1.374 . S
C2118 H2092 0.950 . S
C2118 C2114 1.385 . S
C2118 C2117 1.374 . S
C2119 C2116 1.499 . S
C2119 C2120 1.373 . S
C2119 C2121 1.389 . S
C2120 H2093 0.950 . S
C2120 C2106 1.377 . S
C2120 C2119 1.373 . S
C2121 C2105 1.377 . S
C2121 C2119 1.389 . S
C2121 C2122 1.524 . S
C2122 C2121 1.524 . S
C2122 C2123 1.397 . S
C2122 C2127 1.363 . S
C2123 H2094 0.950 . S
C2123 C2122 1.397 . S
C2123 C2124 1.334 . S
C2124 H2095 0.950 . S
C2124 C2123 1.334 . S
C2124 C2125 1.287 . S
C2125 C2124 1.287 . S
C2125 C2126 1.524 . S
C2125 H2128 0.999 . S
C2126 H2096 0.950 . S
C2126 C2125 1.524 . S
C2126 C2127 1.415 . S
C2127 H2097 0.950 . S
C2127 C2122 1.363 . S
C2127 C2126 1.415 . S
H2128 C2125 0.999 . S
H2129 C2110 0.913 . S
H2130 C2148 0.951 . S
H2131 C2150 0.934 1_455 S
H2132 C2152 0.950 . S
H2133 C2153 0.950 . S
H2134 C2155 0.950 . S
H2135 C2158 0.950 . S
H2136 C2159 0.950 . S
H2137 C2161 0.950 . S
H2138 C2162 0.950 1_545 S
H2139 C2163 0.951 . S
H2140 C2165 0.951 . S
H2141 C2167 0.950 . S
H2142 C2168 0.950 . S
H2143 C2170 0.950 . S
H2144 C2173 0.950 . S
H2145 C2174 0.950 . S
H2146 C2176 0.950 . S
H2147 C2177 0.950 . S
C2148 H2130 0.951 . S
C2148 C2149 1.351 1_455 S
C2148 C2150 1.388 1_455 S
C2149 C2148 1.351 1_655 S
C2149 C2153 1.425 . S
C2150 H2131 0.934 1_655 S
C2150 C2148 1.388 1_655 S
C2150 C2151 1.366 . S
C2151 C2150 1.366 . S
C2151 C2152 1.414 . S
C2151 C2154 1.499 . S
C2152 H2132 0.950 . S
C2152 C2151 1.414 . S
C2152 C2153 1.374 . S
C2153 H2133 0.950 . S
C2153 C2149 1.425 . S
C2153 C2152 1.374 . S
C2154 C2151 1.499 . S
C2154 C2155 1.373 . S
C2154 C2156 1.389 . S
C2155 H2134 0.950 . S
C2155 C2154 1.373 . S
C2155 C2171 1.377 . S
C2156 C2154 1.389 . S
C2156 C2157 1.524 . S
C2156 C2170 1.377 . S
C2157 C2156 1.524 . S
C2157 C2158 1.397 1_545 S
C2157 C2162 1.363 1_545 S
C2158 H2135 0.950 . S
C2158 C2157 1.397 1_565 S
C2158 C2159 1.334 . S
C2159 H2136 0.950 . S
C2159 C2158 1.334 . S
C2159 C2160 1.287 1_655 S
C2160 C2159 1.287 1_455 S
C2160 C2161 1.524 . S
C2160 H2179 0.913 . S
C2161 H2137 0.950 . S
C2161 C2160 1.524 . S
C2161 C2162 1.415 1_455 S
C2162 H2138 0.950 1_565 S
C2162 C2157 1.363 1_565 S
C2162 C2161 1.415 1_655 S
C2163 H2139 0.951 . S
C2163 C2164 1.366 . S
C2163 C2165 1.388 . S
C2164 C2163 1.366 . S
C2164 C2168 1.385 . S
C2165 H2140 0.951 . S
C2165 C2163 1.388 . S
C2165 C2166 1.366 . S
C2166 C2165 1.366 . S
C2166 C2167 1.414 . S
C2166 C2169 1.499 . S
C2167 H2141 0.950 . S
C2167 C2166 1.414 . S
C2167 C2168 1.374 . S
C2168 H2142 0.950 . S
C2168 C2164 1.385 . S
C2168 C2167 1.374 . S
C2169 C2166 1.499 . S
C2169 C2170 1.373 . S
C2169 C2171 1.389 . S
C2170 H2143 0.950 . S
C2170 C2156 1.377 . S
C2170 C2169 1.373 . S
C2171 C2155 1.377 . S
C2171 C2169 1.389 . S
C2171 C2172 1.524 . S
C2172 C2171 1.524 . S
C2172 C2173 1.397 . S
C2172 C2177 1.363 . S
C2173 H2144 0.950 . S
C2173 C2172 1.397 . S
C2173 C2174 1.334 . S
C2174 H2145 0.950 . S
C2174 C2173 1.334 . S
C2174 C2175 1.287 . S
C2175 C2174 1.287 . S
C2175 C2176 1.524 . S
C2175 H2178 0.999 . S
C2176 H2146 0.950 . S
C2176 C2175 1.524 . S
C2176 C2177 1.415 . S
C2177 H2147 0.950 . S
C2177 C2172 1.363 . S
C2177 C2176 1.415 . S
H2178 C2175 0.999 . S
H2179 C2160 0.913 . S
H2180 C2198 0.951 . S
H2181 C2200 0.951 . S
H2182 C2202 0.950 . S
H2183 C2203 0.950 . S
H2184 C2205 0.950 . S
H2185 C2208 0.950 . S
H2186 C2209 0.950 . S
H2187 C2211 0.950 . S
H2188 C2212 0.950 . S
H2189 C2213 0.951 . S
H2190 C2215 0.951 . S
H2191 C2217 0.950 . S
H2192 C2218 0.950 . S
H2193 C2220 0.950 . S
H2194 C2223 0.950 . S
H2195 C2224 0.950 . S
H2196 C2226 0.950 . S
H2197 C2227 0.950 . S
C2198 H2180 0.951 . S
C2198 C2199 1.366 . S
C2198 C2200 1.388 . S
C2199 C2198 1.366 . S
C2199 C2203 1.385 . S
C2200 H2181 0.951 . S
C2200 C2198 1.388 . S
C2200 C2201 1.366 . S
C2201 C2200 1.366 . S
C2201 C2202 1.414 . S
C2201 C2204 1.499 . S
C2202 H2182 0.950 . S
C2202 C2201 1.414 . S
C2202 C2203 1.374 . S
C2203 H2183 0.950 . S
C2203 C2199 1.385 . S
C2203 C2202 1.374 . S
C2204 C2201 1.499 . S
C2204 C2205 1.373 . S
C2204 C2206 1.389 . S
C2205 H2184 0.950 . S
C2205 C2204 1.373 . S
C2205 C2221 1.377 . S
C2206 C2204 1.389 . S
C2206 C2207 1.524 . S
C2206 C2220 1.377 . S
C2207 C2206 1.524 . S
C2207 C2208 1.397 . S
C2207 C2212 1.363 . S
C2208 H2185 0.950 . S
C2208 C2207 1.397 . S
C2208 C2209 1.334 . S
C2209 H2186 0.950 . S
C2209 C2208 1.334 . S
C2209 C2210 1.287 . S
C2210 C2209 1.287 . S
C2210 C2211 1.524 . S
C2210 H2229 0.913 . S
C2211 H2187 0.950 . S
C2211 C2210 1.524 . S
C2211 C2212 1.415 . S
C2212 H2188 0.950 . S
C2212 C2207 1.363 . S
C2212 C2211 1.415 . S
C2213 H2189 0.951 . S
C2213 C2214 1.366 . S
C2213 C2215 1.388 . S
C2214 C2213 1.366 . S
C2214 C2218 1.385 . S
C2215 H2190 0.951 . S
C2215 C2213 1.388 . S
C2215 C2216 1.366 . S
C2216 C2215 1.366 . S
C2216 C2217 1.414 . S
C2216 C2219 1.499 . S
C2217 H2191 0.950 . S
C2217 C2216 1.414 . S
C2217 C2218 1.374 . S
C2218 H2192 0.950 . S
C2218 C2214 1.385 . S
C2218 C2217 1.374 . S
C2219 C2216 1.499 . S
C2219 C2220 1.373 . S
C2219 C2221 1.389 . S
C2220 H2193 0.950 . S
C2220 C2206 1.377 . S
C2220 C2219 1.373 . S
C2221 C2205 1.377 . S
C2221 C2219 1.389 . S
C2221 C2222 1.524 . S
C2222 C2221 1.524 . S
C2222 C2223 1.397 . S
C2222 C2227 1.363 . S
C2223 H2194 0.950 . S
C2223 C2222 1.397 . S
C2223 C2224 1.334 . S
C2224 H2195 0.950 . S
C2224 C2223 1.334 . S
C2224 C2225 1.287 . S
C2225 C2224 1.287 . S
C2225 C2226 1.524 . S
C2225 H2228 0.999 . S
C2226 H2196 0.950 . S
C2226 C2225 1.524 . S
C2226 C2227 1.415 . S
C2227 H2197 0.950 . S
C2227 C2222 1.363 . S
C2227 C2226 1.415 . S
H2228 C2225 0.999 . S
H2229 C2210 0.913 . S
H2230 C2248 0.951 . S
H2231 C2250 0.951 . S
H2232 C2252 0.950 . S
H2233 C2253 0.950 . S
H2234 C2255 0.950 . S
H2235 C2258 0.945 1_655 S
H2236 C2259 0.950 . S
H2237 C2261 0.950 . S
H2238 C2262 0.950 . S
H2239 C2263 0.951 . S
H2240 C2265 0.951 . S
H2241 C2267 0.950 . S
H2242 C2268 0.950 . S
H2243 C2270 0.950 . S
H2244 C2273 0.950 . S
H2245 C2274 0.950 . S
H2246 C2276 0.950 . S
H2247 C2277 0.950 . S
C2248 H2230 0.951 . S
C2248 C2249 1.366 1_455 S
C2248 C2250 1.388 . S
C2249 C2248 1.366 1_655 S
C2249 C2253 1.385 . S
C2250 H2231 0.951 . S
C2250 C2248 1.388 . S
C2250 C2251 1.366 . S
C2251 C2250 1.366 . S
C2251 C2252 1.414 . S
C2251 C2254 1.499 . S
C2252 H2232 0.950 . S
C2252 C2251 1.414 . S
C2252 C2253 1.374 1_455 S
C2253 H2233 0.950 . S
C2253 C2249 1.385 . S
C2253 C2252 1.374 1_655 S
C2254 C2251 1.499 . S
C2254 C2255 1.373 . S
C2254 C2256 1.389 . S
C2255 H2234 0.950 . S
C2255 C2254 1.373 . S
C2255 C2271 1.377 . S
C2256 C2254 1.389 . S
C2256 C2257 1.524 . S
C2256 C2270 1.377 . S
C2257 C2256 1.524 . S
C2257 C2258 1.397 . S
C2257 C2262 1.363 . S
C2258 H2235 0.945 1_455 S
C2258 C2257 1.397 . S
C2258 C2259 1.334 1_455 S
C2259 H2236 0.950 . S
C2259 C2258 1.334 1_655 S
C2259 C2260 1.287 . S
C2260 C2259 1.287 . S
C2260 C2261 1.524 1_655 S
C2260 H2279 0.913 . S
C2261 H2237 0.950 . S
C2261 C2260 1.524 1_455 S
C2261 C2262 1.415 . S
C2262 H2238 0.950 . S
C2262 C2257 1.363 . S
C2262 C2261 1.415 . S
C2263 H2239 0.951 . S
C2263 C2264 1.366 . S
C2263 C2265 1.388 . S
C2264 C2263 1.366 . S
C2264 C2268 1.385 . S
C2265 H2240 0.951 . S
C2265 C2263 1.388 . S
C2265 C2266 1.366 . S
C2266 C2265 1.366 . S
C2266 C2267 1.414 . S
C2266 C2269 1.499 . S
C2267 H2241 0.950 . S
C2267 C2266 1.414 . S
C2267 C2268 1.374 . S
C2268 H2242 0.950 . S
C2268 C2264 1.385 . S
C2268 C2267 1.374 . S
C2269 C2266 1.499 . S
C2269 C2270 1.373 . S
C2269 C2271 1.389 . S
C2270 H2243 0.950 . S
C2270 C2256 1.377 . S
C2270 C2269 1.373 . S
C2271 C2255 1.377 . S
C2271 C2269 1.389 . S
C2271 C2272 1.524 . S
C2272 C2271 1.524 . S
C2272 C2273 1.397 . S
C2272 C2277 1.363 . S
C2273 H2244 0.950 . S
C2273 C2272 1.397 . S
C2273 C2274 1.334 . S
C2274 H2245 0.950 . S
C2274 C2273 1.334 . S
C2274 C2275 1.287 . S
C2275 C2274 1.287 . S
C2275 C2276 1.524 . S
C2275 H2278 0.999 . S
C2276 H2246 0.950 . S
C2276 C2275 1.524 . S
C2276 C2277 1.415 . S
C2277 H2247 0.950 . S
C2277 C2272 1.363 . S
C2277 C2276 1.415 . S
H2278 C2275 0.999 . S
H2279 C2260 0.913 . S
H2280 C2298 0.951 . S
H2281 C2300 0.951 . S
H2282 C2302 0.950 . S
H2283 C2303 0.950 . S
H2284 C2305 0.950 . S
H2285 C2308 0.950 . S
H2286 C2309 0.950 . S
H2287 C2311 0.950 . S
H2288 C2312 0.950 . S
H2289 C2313 0.951 . S
H2290 C2315 0.951 . S
H2291 C2317 0.950 . S
H2292 C2318 0.950 . S
H2293 C2320 0.950 . S
H2294 C2323 0.950 . S
H2295 C2324 0.950 . S
H2296 C2326 0.950 . S
H2297 C2327 0.950 . S
C2298 H2280 0.951 . S
C2298 C2299 1.366 . S
C2298 C2300 1.388 . S
C2299 C2298 1.366 . S
C2299 C2303 1.385 . S
C2300 H2281 0.951 . S
C2300 C2298 1.388 . S
C2300 C2301 1.366 . S
C2301 C2300 1.366 . S
C2301 C2302 1.414 . S
C2301 C2304 1.499 . S
C2302 H2282 0.950 . S
C2302 C2301 1.414 . S
C2302 C2303 1.374 . S
C2303 H2283 0.950 . S
C2303 C2299 1.385 . S
C2303 C2302 1.374 . S
C2304 C2301 1.499 . S
C2304 C2305 1.373 . S
C2304 C2306 1.389 . S
C2305 H2284 0.950 . S
C2305 C2304 1.373 . S
C2305 C2321 1.377 . S
C2306 C2304 1.389 . S
C2306 C2307 1.524 . S
C2306 C2320 1.377 . S
C2307 C2306 1.524 . S
C2307 C2308 1.397 . S
C2307 C2312 1.363 . S
C2308 H2285 0.950 . S
C2308 C2307 1.397 . S
C2308 C2309 1.334 . S
C2309 H2286 0.950 . S
C2309 C2308 1.334 . S
C2309 C2310 1.287 . S
C2310 C2309 1.287 . S
C2310 C2311 1.524 . S
C2310 H2329 0.913 . S
C2311 H2287 0.950 . S
C2311 C2310 1.524 . S
C2311 C2312 1.415 . S
C2312 H2288 0.950 . S
C2312 C2307 1.363 . S
C2312 C2311 1.415 . S
C2313 H2289 0.951 . S
C2313 C2314 1.366 . S
C2313 C2315 1.388 . S
C2314 C2313 1.366 . S
C2314 C2318 1.385 . S
C2315 H2290 0.951 . S
C2315 C2313 1.388 . S
C2315 C2316 1.366 . S
C2316 C2315 1.366 . S
C2316 C2317 1.414 . S
C2316 C2319 1.499 . S
C2317 H2291 0.950 . S
C2317 C2316 1.414 . S
C2317 C2318 1.374 . S
C2318 H2292 0.950 . S
C2318 C2314 1.385 . S
C2318 C2317 1.374 . S
C2319 C2316 1.499 . S
C2319 C2320 1.373 . S
C2319 C2321 1.389 . S
C2320 H2293 0.950 . S
C2320 C2306 1.377 . S
C2320 C2319 1.373 . S
C2321 C2305 1.377 . S
C2321 C2319 1.389 . S
C2321 C2322 1.524 . S
C2322 C2321 1.524 . S
C2322 C2323 1.397 . S
C2322 C2327 1.363 . S
C2323 H2294 0.950 . S
C2323 C2322 1.397 . S
C2323 C2324 1.334 . S
C2324 H2295 0.950 . S
C2324 C2323 1.334 . S
C2324 C2325 1.287 . S
C2325 C2324 1.287 . S
C2325 C2326 1.524 . S
C2325 H2328 0.999 . S
C2326 H2296 0.950 . S
C2326 C2325 1.524 . S
C2326 C2327 1.415 . S
C2327 H2297 0.950 . S
C2327 C2322 1.363 . S
C2327 C2326 1.415 . S
H2328 C2325 0.999 . S
H2329 C2310 0.913 . S
H2330 C2348 0.951 . S
H2331 C2350 0.950 . S
H2332 C2352 0.950 . S
H2333 C2353 0.950 . S
H2334 C2355 0.950 . S
H2335 C2358 0.950 . S
H2336 C2359 0.950 . S
H2337 C2361 0.950 . S
H2338 C2362 0.950 1_556 S
H2339 C2363 0.951 . S
H2340 C2365 0.919 1_455 S
H2341 C2367 0.950 . S
H2342 C2368 0.950 . S
H2343 C2370 0.950 . S
H2344 C2373 0.950 . S
H2345 C2374 0.950 . S
H2346 C2376 0.950 . S
H2347 C2377 0.950 . S
C2348 H2330 0.951 . S
C2348 C2349 1.366 . S
C2348 C2350 1.361 1_554 S
C2349 C2348 1.366 . S
C2349 C2353 1.345 1_554 S
C2350 H2331 0.950 . S
C2350 C2348 1.361 1_556 S
C2350 C2351 1.394 . S
C2351 C2350 1.394 . S
C2351 C2352 1.414 . S
C2351 C2354 1.499 . S
C2352 H2332 0.950 . S
C2352 C2351 1.414 . S
C2352 C2353 1.414 . S
C2353 H2333 0.950 . S
C2353 C2349 1.345 1_556 S
C2353 C2352 1.414 . S
C2354 C2351 1.499 . S
C2354 C2355 1.373 . S
C2354 C2356 1.389 . S
C2355 H2334 0.950 . S
C2355 C2354 1.373 . S
C2355 C2371 1.377 . S
C2356 C2354 1.389 . S
C2356 C2357 1.503 1_556 S
C2356 C2370 1.377 . S
C2357 C2356 1.503 1_554 S
C2357 C2358 1.410 . S
C2357 C2362 1.370 . S
C2358 H2335 0.950 . S
C2358 C2357 1.410 . S
C2358 C2359 1.334 . S
C2359 H2336 0.950 . S
C2359 C2358 1.334 . S
C2359 C2360 1.287 . S
C2360 C2359 1.287 . S
C2360 C2361 1.524 . S
C2360 H2379 0.913 . S
C2361 H2337 0.950 . S
C2361 C2360 1.524 . S
C2361 C2362 1.415 . S
C2362 H2338 0.950 1_554 S
C2362 C2357 1.370 . S
C2362 C2361 1.415 . S
C2363 H2339 0.951 . S
C2363 C2364 1.366 1_455 S
C2363 C2365 1.371 1_455 S
C2364 C2363 1.366 1_655 S
C2364 C2368 1.385 . S
C2365 H2340 0.919 1_655 S
C2365 C2363 1.371 1_655 S
C2365 C2366 1.418 . S
C2366 C2365 1.418 . S
C2366 C2367 1.414 . S
C2366 C2369 1.499 . S
C2367 H2341 0.950 . S
C2367 C2366 1.414 . S
C2367 C2368 1.374 . S
C2368 H2342 0.950 . S
C2368 C2364 1.385 . S
C2368 C2367 1.374 . S
C2369 C2366 1.499 . S
C2369 C2370 1.373 . S
C2369 C2371 1.389 . S
C2370 H2343 0.950 . S
C2370 C2356 1.377 . S
C2370 C2369 1.373 . S
C2371 C2355 1.377 . S
C2371 C2369 1.389 . S
C2371 C2372 1.524 . S
C2372 C2371 1.524 . S
C2372 C2373 1.397 . S
C2372 C2377 1.363 . S
C2373 H2344 0.950 . S
C2373 C2372 1.397 . S
C2373 C2374 1.334 . S
C2374 H2345 0.950 . S
C2374 C2373 1.334 . S
C2374 C2375 1.287 . S
C2375 C2374 1.287 . S
C2375 C2376 1.524 . S
C2375 H2378 0.999 . S
C2376 H2346 0.950 . S
C2376 C2375 1.524 . S
C2376 C2377 1.415 . S
C2377 H2347 0.950 . S
C2377 C2372 1.363 . S
C2377 C2376 1.415 . S
H2378 C2375 0.999 . S
H2379 C2360 0.913 . S
H2380 C2398 0.951 . S
H2381 C2400 0.951 . S
H2382 C2402 0.950 . S
H2383 C2403 0.950 . S
H2384 C2405 0.950 . S
H2385 C2408 0.950 . S
H2386 C2409 0.950 . S
H2387 C2411 0.950 . S
H2388 C2412 0.950 . S
H2389 C2413 0.951 . S
H2390 C2415 0.951 . S
H2391 C2417 0.950 . S
H2392 C2418 0.950 . S
H2393 C2420 0.950 . S
H2394 C2423 0.950 . S
H2395 C2424 0.950 . S
H2396 C2426 0.950 . S
H2397 C2427 0.950 . S
C2398 H2380 0.951 . S
C2398 C2399 1.366 . S
C2398 C2400 1.388 . S
C2399 C2398 1.366 . S
C2399 C2403 1.385 . S
C2400 H2381 0.951 . S
C2400 C2398 1.388 . S
C2400 C2401 1.366 . S
C2401 C2400 1.366 . S
C2401 C2402 1.414 . S
C2401 C2404 1.499 . S
C2402 H2382 0.950 . S
C2402 C2401 1.414 . S
C2402 C2403 1.374 . S
C2403 H2383 0.950 . S
C2403 C2399 1.385 . S
C2403 C2402 1.374 . S
C2404 C2401 1.499 . S
C2404 C2405 1.373 . S
C2404 C2406 1.389 . S
C2405 H2384 0.950 . S
C2405 C2404 1.373 . S
C2405 C2421 1.377 . S
C2406 C2404 1.389 . S
C2406 C2407 1.524 . S
C2406 C2420 1.377 . S
C2407 C2406 1.524 . S
C2407 C2408 1.397 . S
C2407 C2412 1.363 . S
C2408 H2385 0.950 . S
C2408 C2407 1.397 . S
C2408 C2409 1.334 . S
C2409 H2386 0.950 . S
C2409 C2408 1.334 . S
C2409 C2410 1.287 . S
C2410 C2409 1.287 . S
C2410 C2411 1.524 . S
C2410 H2429 0.913 . S
C2411 H2387 0.950 . S
C2411 C2410 1.524 . S
C2411 C2412 1.415 . S
C2412 H2388 0.950 . S
C2412 C2407 1.363 . S
C2412 C2411 1.415 . S
C2413 H2389 0.951 . S
C2413 C2414 1.366 . S
C2413 C2415 1.388 . S
C2414 C2413 1.366 . S
C2414 C2418 1.385 . S
C2415 H2390 0.951 . S
C2415 C2413 1.388 . S
C2415 C2416 1.366 . S
C2416 C2415 1.366 . S
C2416 C2417 1.414 . S
C2416 C2419 1.499 . S
C2417 H2391 0.950 . S
C2417 C2416 1.414 . S
C2417 C2418 1.374 . S
C2418 H2392 0.950 . S
C2418 C2414 1.385 . S
C2418 C2417 1.374 . S
C2419 C2416 1.499 . S
C2419 C2420 1.373 . S
C2419 C2421 1.389 . S
C2420 H2393 0.950 . S
C2420 C2406 1.377 . S
C2420 C2419 1.373 . S
C2421 C2405 1.377 . S
C2421 C2419 1.389 . S
C2421 C2422 1.524 . S
C2422 C2421 1.524 . S
C2422 C2423 1.397 . S
C2422 C2427 1.363 . S
C2423 H2394 0.950 . S
C2423 C2422 1.397 . S
C2423 C2424 1.334 . S
C2424 H2395 0.950 . S
C2424 C2423 1.334 . S
C2424 C2425 1.287 . S
C2425 C2424 1.287 . S
C2425 C2426 1.524 . S
C2425 H2428 0.999 . S
C2426 H2396 0.950 . S
C2426 C2425 1.524 . S
C2426 C2427 1.415 . S
C2427 H2397 0.950 . S
C2427 C2422 1.363 . S
C2427 C2426 1.415 . S
H2428 C2425 0.999 . S
H2429 C2410 0.913 . S
H2430 C2448 0.951 . S
H2431 C2450 0.951 . S
H2432 C2452 0.950 . S
H2433 C2453 0.948 1_554 S
H2434 C2455 0.950 . S
H2435 C2458 0.950 . S
H2436 C2459 0.950 . S
H2437 C2461 0.950 . S
H2438 C2462 0.950 . S
H2439 C2463 0.951 1_655 S
H2440 C2465 0.951 1_655 S
H2441 C2467 0.950 . S
H2442 C2468 0.950 . S
H2443 C2470 0.950 . S
H2444 C2473 0.950 . S
H2445 C2474 0.950 . S
H2446 C2476 0.950 . S
H2447 C2477 0.950 . S
C2448 H2430 0.951 . S
C2448 C2449 1.366 . S
C2448 C2450 1.388 1_554 S
C2449 C2448 1.366 . S
C2449 C2453 1.385 1_554 S
C2450 H2431 0.951 . S
C2450 C2448 1.388 1_556 S
C2450 C2451 1.366 . S
C2451 C2450 1.366 . S
C2451 C2452 1.414 . S
C2451 C2454 1.499 . S
C2452 H2432 0.950 . S
C2452 C2451 1.414 . S
C2452 C2453 1.374 . S
C2453 H2433 0.948 1_556 S
C2453 C2449 1.385 1_556 S
C2453 C2452 1.374 . S
C2454 C2451 1.499 . S
C2454 C2455 1.373 . S
C2454 C2456 1.389 . S
C2455 H2434 0.950 . S
C2455 C2454 1.373 . S
C2455 C2471 1.377 . S
C2456 C2454 1.389 . S
C2456 C2457 1.524 . S
C2456 C2470 1.377 . S
C2457 C2456 1.524 . S
C2457 C2458 1.397 1_556 S
C2457 C2462 1.363 . S
C2458 H2435 0.950 . S
C2458 C2457 1.397 1_554 S
C2458 C2459 1.334 . S
C2459 H2436 0.950 . S
C2459 C2458 1.334 . S
C2459 C2460 1.287 . S
C2460 C2459 1.287 . S
C2460 C2461 1.524 . S
C2460 H2479 0.913 . S
C2461 H2437 0.950 . S
C2461 C2460 1.524 . S
C2461 C2462 1.415 1_554 S
C2462 H2438 0.950 . S
C2462 C2457 1.363 . S
C2462 C2461 1.415 1_556 S
C2463 H2439 0.951 1_455 S
C2463 C2464 1.366 . S
C2463 C2465 1.388 . S
C2464 C2463 1.366 . S
C2464 C2468 1.385 . S
C2465 H2440 0.951 1_455 S
C2465 C2463 1.388 . S
C2465 C2466 1.366 . S
C2466 C2465 1.366 . S
C2466 C2467 1.414 . S
C2466 C2469 1.499 . S
C2467 H2441 0.950 . S
C2467 C2466 1.414 . S
C2467 C2468 1.374 . S
C2468 H2442 0.950 . S
C2468 C2464 1.385 . S
C2468 C2467 1.374 . S
C2469 C2466 1.499 . S
C2469 C2470 1.373 . S
C2469 C2471 1.389 . S
C2470 H2443 0.950 . S
C2470 C2456 1.377 . S
C2470 C2469 1.373 . S
C2471 C2455 1.377 . S
C2471 C2469 1.389 . S
C2471 C2472 1.524 . S
C2472 C2471 1.524 . S
C2472 C2473 1.397 . S
C2472 C2477 1.363 1_455 S
C2473 H2444 0.950 . S
C2473 C2472 1.397 . S
C2473 C2474 1.334 . S
C2474 H2445 0.950 . S
C2474 C2473 1.334 . S
C2474 C2475 1.260 1_455 S
C2475 C2474 1.260 1_655 S
C2475 C2476 1.545 . S
C2475 H2478 1.011 . S
C2476 H2446 0.950 . S
C2476 C2475 1.545 . S
C2476 C2477 1.415 . S
C2477 H2447 0.950 . S
C2477 C2472 1.363 1_655 S
C2477 C2476 1.415 . S
H2478 C2475 1.011 . S
H2479 C2460 0.913 . S
H2480 C2498 0.951 . S
H2481 C2500 0.951 . S
H2482 C2502 0.950 . S
H2483 C2503 0.950 . S
H2484 C2505 0.950 . S
H2485 C2508 0.950 . S
H2486 C2509 0.950 . S
H2487 C2511 0.950 . S
H2488 C2512 0.950 . S
H2489 C2513 0.951 . S
H2490 C2515 0.951 . S
H2491 C2517 0.950 . S
H2492 C2518 0.950 . S
H2493 C2520 0.950 . S
H2494 C2523 0.950 . S
H2495 C2524 0.950 . S
H2496 C2526 0.950 . S
H2497 C2527 0.950 . S
C2498 H2480 0.951 . S
C2498 C2499 1.366 . S
C2498 C2500 1.388 . S
C2499 C2498 1.366 . S
C2499 C2503 1.385 . S
C2500 H2481 0.951 . S
C2500 C2498 1.388 . S
C2500 C2501 1.366 . S
C2501 C2500 1.366 . S
C2501 C2502 1.414 . S
C2501 C2504 1.499 . S
C2502 H2482 0.950 . S
C2502 C2501 1.414 . S
C2502 C2503 1.374 . S
C2503 H2483 0.950 . S
C2503 C2499 1.385 . S
C2503 C2502 1.374 . S
C2504 C2501 1.499 . S
C2504 C2505 1.373 . S
C2504 C2506 1.389 . S
C2505 H2484 0.950 . S
C2505 C2504 1.373 . S
C2505 C2521 1.377 . S
C2506 C2504 1.389 . S
C2506 C2507 1.524 . S
C2506 C2520 1.377 . S
C2507 C2506 1.524 . S
C2507 C2508 1.397 . S
C2507 C2512 1.363 . S
C2508 H2485 0.950 . S
C2508 C2507 1.397 . S
C2508 C2509 1.334 . S
C2509 H2486 0.950 . S
C2509 C2508 1.334 . S
C2509 C2510 1.287 . S
C2510 C2509 1.287 . S
C2510 C2511 1.524 . S
C2510 H2529 0.913 . S
C2511 H2487 0.950 . S
C2511 C2510 1.524 . S
C2511 C2512 1.415 . S
C2512 H2488 0.950 . S
C2512 C2507 1.363 . S
C2512 C2511 1.415 . S
C2513 H2489 0.951 . S
C2513 C2514 1.366 . S
C2513 C2515 1.388 . S
C2514 C2513 1.366 . S
C2514 C2518 1.385 . S
C2515 H2490 0.951 . S
C2515 C2513 1.388 . S
C2515 C2516 1.366 . S
C2516 C2515 1.366 . S
C2516 C2517 1.414 . S
C2516 C2519 1.499 . S
C2517 H2491 0.950 . S
C2517 C2516 1.414 . S
C2517 C2518 1.374 . S
C2518 H2492 0.950 . S
C2518 C2514 1.385 . S
C2518 C2517 1.374 . S
C2519 C2516 1.499 . S
C2519 C2520 1.373 . S
C2519 C2521 1.389 . S
C2520 H2493 0.950 . S
C2520 C2506 1.377 . S
C2520 C2519 1.373 . S
C2521 C2505 1.377 . S
C2521 C2519 1.389 . S
C2521 C2522 1.524 . S
C2522 C2521 1.524 . S
C2522 C2523 1.397 . S
C2522 C2527 1.363 . S
C2523 H2494 0.950 . S
C2523 C2522 1.397 . S
C2523 C2524 1.334 . S
C2524 H2495 0.950 . S
C2524 C2523 1.334 . S
C2524 C2525 1.287 . S
C2525 C2524 1.287 . S
C2525 C2526 1.524 . S
C2525 H2528 0.999 . S
C2526 H2496 0.950 . S
C2526 C2525 1.524 . S
C2526 C2527 1.415 . S
C2527 H2497 0.950 . S
C2527 C2522 1.363 . S
C2527 C2526 1.415 . S
H2528 C2525 0.999 . S
H2529 C2510 0.913 . S
H2530 C2548 0.951 . S
H2531 C2550 0.951 . S
H2532 C2552 0.950 . S
H2533 C2553 0.950 1_556 S
H2534 C2555 0.950 . S
H2535 C2558 0.950 . S
H2536 C2559 0.950 . S
H2537 C2561 0.950 . S
H2538 C2562 0.950 . S
H2539 C2563 0.951 . S
H2540 C2565 0.951 . S
H2541 C2567 0.950 . S
H2542 C2568 0.950 . S
H2543 C2570 0.950 . S
H2544 C2573 0.950 . S
H2545 C2574 0.950 . S
H2546 C2576 0.950 . S
H2547 C2577 0.950 . S
C2548 H2530 0.951 . S
C2548 C2549 1.366 . S
C2548 C2550 1.388 . S
C2549 C2548 1.366 . S
C2549 C2553 1.385 . S
C2550 H2531 0.951 . S
C2550 C2548 1.388 . S
C2550 C2551 1.366 . S
C2551 C2550 1.366 . S
C2551 C2552 1.414 . S
C2551 C2554 1.499 . S
C2552 H2532 0.950 . S
C2552 C2551 1.414 . S
C2552 C2553 1.374 . S
C2553 H2533 0.950 1_554 S
C2553 C2549 1.385 . S
C2553 C2552 1.374 . S
C2554 C2551 1.499 . S
C2554 C2555 1.373 . S
C2554 C2556 1.389 . S
C2555 H2534 0.950 . S
C2555 C2554 1.373 . S
C2555 C2571 1.377 . S
C2556 C2554 1.389 . S
C2556 C2557 1.524 . S
C2556 C2570 1.377 . S
C2557 C2556 1.524 . S
C2557 C2558 1.397 . S
C2557 C2562 1.363 . S
C2558 H2535 0.950 . S
C2558 C2557 1.397 . S
C2558 C2559 1.334 . S
C2559 H2536 0.950 . S
C2559 C2558 1.334 . S
C2559 C2560 1.287 . S
C2560 C2559 1.287 . S
C2560 C2561 1.524 . S
C2560 H2579 0.913 . S
C2561 H2537 0.950 . S
C2561 C2560 1.524 . S
C2561 C2562 1.415 . S
C2562 H2538 0.950 . S
C2562 C2557 1.363 . S
C2562 C2561 1.415 . S
C2563 H2539 0.951 . S
C2563 C2564 1.366 . S
C2563 C2565 1.388 . S
C2564 C2563 1.366 . S
C2564 C2568 1.385 . S
C2565 H2540 0.951 . S
C2565 C2563 1.388 . S
C2565 C2566 1.366 . S
C2566 C2565 1.366 . S
C2566 C2567 1.414 . S
C2566 C2569 1.499 . S
C2567 H2541 0.950 . S
C2567 C2566 1.414 . S
C2567 C2568 1.374 . S
C2568 H2542 0.950 . S
C2568 C2564 1.385 . S
C2568 C2567 1.374 . S
C2569 C2566 1.499 . S
C2569 C2570 1.373 . S
C2569 C2571 1.389 . S
C2570 H2543 0.950 . S
C2570 C2556 1.377 . S
C2570 C2569 1.373 . S
C2571 C2555 1.377 . S
C2571 C2569 1.389 . S
C2571 C2572 1.524 . S
C2572 C2571 1.524 . S
C2572 C2573 1.397 . S
C2572 C2577 1.363 . S
C2573 H2544 0.950 . S
C2573 C2572 1.397 . S
C2573 C2574 1.334 . S
C2574 H2545 0.950 . S
C2574 C2573 1.334 . S
C2574 C2575 1.287 . S
C2575 C2574 1.287 . S
C2575 C2576 1.524 . S
C2575 H2578 0.999 . S
C2576 H2546 0.950 . S
C2576 C2575 1.524 . S
C2576 C2577 1.415 . S
C2577 H2547 0.950 . S
C2577 C2572 1.363 . S
C2577 C2576 1.415 . S
H2578 C2575 0.999 . S
H2579 C2560 0.913 . S
H2580 C2598 0.951 . S
H2581 C2600 0.951 . S
H2582 C2602 0.950 . S
H2583 C2603 0.950 . S
H2584 C2605 0.950 . S
H2585 C2608 0.950 . S
H2586 C2609 0.950 . S
H2587 C2611 0.950 . S
H2588 C2612 0.950 . S
H2589 C2613 0.951 . S
H2590 C2615 0.951 . S
H2591 C2617 0.950 . S
H2592 C2618 0.950 . S
H2593 C2620 0.950 . S
H2594 C2623 0.950 . S
H2595 C2624 0.950 . S
H2596 C2626 0.950 . S
H2597 C2627 0.950 . S
C2598 H2580 0.951 . S
C2598 C2599 1.366 . S
C2598 C2600 1.388 . S
C2599 C2598 1.366 . S
C2599 C2603 1.385 . S
C2600 H2581 0.951 . S
C2600 C2598 1.388 . S
C2600 C2601 1.366 . S
C2601 C2600 1.366 . S
C2601 C2602 1.414 . S
C2601 C2604 1.499 . S
C2602 H2582 0.950 . S
C2602 C2601 1.414 . S
C2602 C2603 1.374 . S
C2603 H2583 0.950 . S
C2603 C2599 1.385 . S
C2603 C2602 1.374 . S
C2604 C2601 1.499 . S
C2604 C2605 1.373 . S
C2604 C2606 1.389 . S
C2605 H2584 0.950 . S
C2605 C2604 1.373 . S
C2605 C2621 1.377 . S
C2606 C2604 1.389 . S
C2606 C2607 1.524 . S
C2606 C2620 1.377 . S
C2607 C2606 1.524 . S
C2607 C2608 1.397 . S
C2607 C2612 1.363 . S
C2608 H2585 0.950 . S
C2608 C2607 1.397 . S
C2608 C2609 1.334 . S
C2609 H2586 0.950 . S
C2609 C2608 1.334 . S
C2609 C2610 1.287 . S
C2610 C2609 1.287 . S
C2610 C2611 1.524 . S
C2610 H2629 0.913 . S
C2611 H2587 0.950 . S
C2611 C2610 1.524 . S
C2611 C2612 1.415 . S
C2612 H2588 0.950 . S
C2612 C2607 1.363 . S
C2612 C2611 1.415 . S
C2613 H2589 0.951 . S
C2613 C2614 1.366 . S
C2613 C2615 1.388 . S
C2614 C2613 1.366 . S
C2614 C2618 1.385 . S
C2615 H2590 0.951 . S
C2615 C2613 1.388 . S
C2615 C2616 1.366 . S
C2616 C2615 1.366 . S
C2616 C2617 1.414 . S
C2616 C2619 1.499 . S
C2617 H2591 0.950 . S
C2617 C2616 1.414 . S
C2617 C2618 1.374 . S
C2618 H2592 0.950 . S
C2618 C2614 1.385 . S
C2618 C2617 1.374 . S
C2619 C2616 1.499 . S
C2619 C2620 1.373 . S
C2619 C2621 1.389 . S
C2620 H2593 0.950 . S
C2620 C2606 1.377 . S
C2620 C2619 1.373 . S
C2621 C2605 1.377 . S
C2621 C2619 1.389 . S
C2621 C2622 1.524 . S
C2622 C2621 1.524 . S
C2622 C2623 1.397 . S
C2622 C2627 1.363 . S
C2623 H2594 0.950 . S
C2623 C2622 1.397 . S
C2623 C2624 1.334 . S
C2624 H2595 0.950 . S
C2624 C2623 1.334 . S
C2624 C2625 1.287 . S
C2625 C2624 1.287 . S
C2625 C2626 1.524 . S
C2625 H2628 0.999 . S
C2626 H2596 0.950 . S
C2626 C2625 1.524 . S
C2626 C2627 1.415 . S
C2627 H2597 0.950 . S
C2627 C2622 1.363 . S
C2627 C2626 1.415 . S
H2628 C2625 0.999 . S
H2629 C2610 0.913 . S
H2630 C2648 0.951 . S
H2631 C2650 0.951 . S
H2632 C2652 0.950 . S
H2633 C2653 0.950 . S
H2634 C2655 0.950 . S
H2635 C2658 0.950 . S
H2636 C2659 0.950 . S
H2637 C2661 0.950 . S
H2638 C2662 0.950 . S
H2639 C2663 0.951 . S
H2640 C2665 0.951 . S
H2641 C2667 0.950 . S
H2642 C2668 0.950 . S
H2643 C2670 0.950 . S
H2644 C2673 0.950 . S
H2645 C2674 0.950 . S
H2646 C2676 0.950 . S
H2647 C2677 0.950 . S
C2648 H2630 0.951 . S
C2648 C2649 1.362 1_554 S
C2648 C2650 1.388 . S
C2649 C2648 1.362 1_556 S
C2649 C2653 1.385 . S
C2650 H2631 0.951 . S
C2650 C2648 1.388 . S
C2650 C2651 1.366 . S
C2651 C2650 1.366 . S
C2651 C2652 1.414 . S
C2651 C2654 1.499 . S
C2652 H2632 0.950 . S
C2652 C2651 1.414 . S
C2652 C2653 1.374 1_554 S
C2653 H2633 0.950 . S
C2653 C2649 1.385 . S
C2653 C2652 1.374 1_556 S
C2654 C2651 1.499 . S
C2654 C2655 1.373 . S
C2654 C2656 1.389 . S
C2655 H2634 0.950 . S
C2655 C2654 1.373 . S
C2655 C2671 1.377 . S
C2656 C2654 1.389 . S
C2656 C2657 1.524 . S
C2656 C2670 1.377 . S
C2657 C2656 1.524 . S
C2657 C2658 1.397 . S
C2657 C2662 1.363 . S
C2658 H2635 0.950 . S
C2658 C2657 1.397 . S
C2658 C2659 1.334 . S
C2659 H2636 0.950 . S
C2659 C2658 1.334 . S
C2659 C2660 1.287 . S
C2660 C2659 1.287 . S
C2660 C2661 1.524 . S
C2660 H2679 0.913 . S
C2661 H2637 0.950 . S
C2661 C2660 1.524 . S
C2661 C2662 1.415 . S
C2662 H2638 0.950 . S
C2662 C2657 1.363 . S
C2662 C2661 1.415 . S
C2663 H2639 0.951 . S
C2663 C2664 1.366 . S
C2663 C2665 1.388 . S
C2664 C2663 1.366 . S
C2664 C2668 1.385 . S
C2665 H2640 0.951 . S
C2665 C2663 1.388 . S
C2665 C2666 1.366 . S
C2666 C2665 1.366 . S
C2666 C2667 1.414 . S
C2666 C2669 1.499 . S
C2667 H2641 0.950 . S
C2667 C2666 1.414 . S
C2667 C2668 1.374 . S
C2668 H2642 0.950 . S
C2668 C2664 1.385 . S
C2668 C2667 1.374 . S
C2669 C2666 1.499 . S
C2669 C2670 1.373 . S
C2669 C2671 1.389 . S
C2670 H2643 0.950 . S
C2670 C2656 1.377 . S
C2670 C2669 1.373 . S
C2671 C2655 1.377 . S
C2671 C2669 1.389 . S
C2671 C2672 1.524 . S
C2672 C2671 1.524 . S
C2672 C2673 1.397 . S
C2672 C2677 1.363 . S
C2673 H2644 0.950 . S
C2673 C2672 1.397 . S
C2673 C2674 1.334 . S
C2674 H2645 0.950 . S
C2674 C2673 1.334 . S
C2674 C2675 1.287 . S
C2675 C2674 1.287 . S
C2675 C2676 1.524 . S
C2675 H2678 0.999 . S
C2676 H2646 0.950 . S
C2676 C2675 1.524 . S
C2676 C2677 1.415 . S
C2677 H2647 0.950 . S
C2677 C2672 1.363 . S
C2677 C2676 1.415 . S
H2678 C2675 0.999 . S
H2679 C2660 0.913 . S
H2680 C2698 0.951 . S
H2681 C2700 0.951 . S
H2682 C2702 0.950 . S
H2683 C2703 0.950 . S
H2684 C2705 0.950 . S
H2685 C2708 0.950 . S
H2686 C2709 0.950 . S
H2687 C2711 0.950 . S
H2688 C2712 0.950 . S
H2689 C2713 0.951 . S
H2690 C2715 0.951 . S
H2691 C2717 0.950 . S
H2692 C2718 0.950 . S
H2693 C2720 0.950 . S
H2694 C2723 0.950 . S
H2695 C2724 0.950 . S
H2696 C2726 0.950 . S
H2697 C2727 0.950 . S
C2698 H2680 0.951 . S
C2698 C2699 1.366 . S
C2698 C2700 1.388 . S
C2699 C2698 1.366 . S
C2699 C2703 1.385 . S
C2700 H2681 0.951 . S
C2700 C2698 1.388 . S
C2700 C2701 1.366 . S
C2701 C2700 1.366 . S
C2701 C2702 1.414 . S
C2701 C2704 1.499 . S
C2702 H2682 0.950 . S
C2702 C2701 1.414 . S
C2702 C2703 1.374 . S
C2703 H2683 0.950 . S
C2703 C2699 1.385 . S
C2703 C2702 1.374 . S
C2704 C2701 1.499 . S
C2704 C2705 1.373 . S
C2704 C2706 1.389 . S
C2705 H2684 0.950 . S
C2705 C2704 1.373 . S
C2705 C2721 1.377 . S
C2706 C2704 1.389 . S
C2706 C2707 1.524 . S
C2706 C2720 1.377 . S
C2707 C2706 1.524 . S
C2707 C2708 1.397 . S
C2707 C2712 1.363 . S
C2708 H2685 0.950 . S
C2708 C2707 1.397 . S
C2708 C2709 1.334 . S
C2709 H2686 0.950 . S
C2709 C2708 1.334 . S
C2709 C2710 1.287 . S
C2710 C2709 1.287 . S
C2710 C2711 1.524 . S
C2710 H2729 0.913 . S
C2711 H2687 0.950 . S
C2711 C2710 1.524 . S
C2711 C2712 1.415 . S
C2712 H2688 0.950 . S
C2712 C2707 1.363 . S
C2712 C2711 1.415 . S
C2713 H2689 0.951 . S
C2713 C2714 1.366 . S
C2713 C2715 1.388 . S
C2714 C2713 1.366 . S
C2714 C2718 1.385 . S
C2715 H2690 0.951 . S
C2715 C2713 1.388 . S
C2715 C2716 1.366 . S
C2716 C2715 1.366 . S
C2716 C2717 1.414 . S
C2716 C2719 1.499 . S
C2717 H2691 0.950 . S
C2717 C2716 1.414 . S
C2717 C2718 1.374 . S
C2718 H2692 0.950 . S
C2718 C2714 1.385 . S
C2718 C2717 1.374 . S
C2719 C2716 1.499 . S
C2719 C2720 1.373 . S
C2719 C2721 1.389 . S
C2720 H2693 0.950 . S
C2720 C2706 1.377 . S
C2720 C2719 1.373 . S
C2721 C2705 1.377 . S
C2721 C2719 1.389 . S
C2721 C2722 1.524 . S
C2722 C2721 1.524 . S
C2722 C2723 1.397 . S
C2722 C2727 1.363 . S
C2723 H2694 0.950 . S
C2723 C2722 1.397 . S
C2723 C2724 1.334 . S
C2724 H2695 0.950 . S
C2724 C2723 1.334 . S
C2724 C2725 1.287 . S
C2725 C2724 1.287 . S
C2725 C2726 1.524 . S
C2725 H2728 0.999 . S
C2726 H2696 0.950 . S
C2726 C2725 1.524 . S
C2726 C2727 1.415 . S
C2727 H2697 0.950 . S
C2727 C2722 1.363 . S
C2727 C2726 1.415 . S
H2728 C2725 0.999 . S
H2729 C2710 0.913 . S
H2730 C2748 0.951 . S
H2731 C2750 0.951 . S
H2732 C2752 0.950 . S
H2733 C2753 0.950 . S
H2734 C2755 0.950 . S
H2735 C2758 0.950 . S
H2736 C2759 0.950 . S
H2737 C2761 0.950 . S
H2738 C2762 0.950 . S
H2739 C2763 0.951 . S
H2740 C2765 0.951 . S
H2741 C2767 0.950 . S
H2742 C2768 0.950 . S
H2743 C2770 0.950 . S
H2744 C2773 0.950 . S
H2745 C2774 0.950 . S
H2746 C2776 0.950 . S
H2747 C2777 0.950 . S
C2748 H2730 0.951 . S
C2748 C2749 1.366 . S
C2748 C2750 1.388 . S
C2749 C2748 1.366 . S
C2749 C2753 1.385 . S
C2750 H2731 0.951 . S
C2750 C2748 1.388 . S
C2750 C2751 1.366 . S
C2751 C2750 1.366 . S
C2751 C2752 1.414 . S
C2751 C2754 1.499 . S
C2752 H2732 0.950 . S
C2752 C2751 1.414 . S
C2752 C2753 1.374 . S
C2753 H2733 0.950 . S
C2753 C2749 1.385 . S
C2753 C2752 1.374 . S
C2754 C2751 1.499 . S
C2754 C2755 1.373 . S
C2754 C2756 1.389 . S
C2755 H2734 0.950 . S
C2755 C2754 1.373 . S
C2755 C2771 1.377 . S
C2756 C2754 1.389 . S
C2756 C2757 1.524 . S
C2756 C2770 1.377 . S
C2757 C2756 1.524 . S
C2757 C2758 1.397 . S
C2757 C2762 1.363 . S
C2758 H2735 0.950 . S
C2758 C2757 1.397 . S
C2758 C2759 1.334 . S
C2759 H2736 0.950 . S
C2759 C2758 1.334 . S
C2759 C2760 1.287 . S
C2760 C2759 1.287 . S
C2760 C2761 1.524 . S
C2760 H2779 0.913 . S
C2761 H2737 0.950 . S
C2761 C2760 1.524 . S
C2761 C2762 1.415 . S
C2762 H2738 0.950 . S
C2762 C2757 1.363 . S
C2762 C2761 1.415 . S
C2763 H2739 0.951 . S
C2763 C2764 1.366 . S
C2763 C2765 1.388 . S
C2764 C2763 1.366 . S
C2764 C2768 1.385 . S
C2765 H2740 0.951 . S
C2765 C2763 1.388 . S
C2765 C2766 1.366 . S
C2766 C2765 1.366 . S
C2766 C2767 1.414 . S
C2766 C2769 1.499 . S
C2767 H2741 0.950 . S
C2767 C2766 1.414 . S
C2767 C2768 1.374 . S
C2768 H2742 0.950 . S
C2768 C2764 1.385 . S
C2768 C2767 1.374 . S
C2769 C2766 1.499 . S
C2769 C2770 1.373 . S
C2769 C2771 1.389 . S
C2770 H2743 0.950 . S
C2770 C2756 1.377 . S
C2770 C2769 1.373 . S
C2771 C2755 1.377 . S
C2771 C2769 1.389 . S
C2771 C2772 1.524 . S
C2772 C2771 1.524 . S
C2772 C2773 1.397 . S
C2772 C2777 1.363 . S
C2773 H2744 0.950 . S
C2773 C2772 1.397 . S
C2773 C2774 1.334 . S
C2774 H2745 0.950 . S
C2774 C2773 1.334 . S
C2774 C2775 1.287 . S
C2775 C2774 1.287 . S
C2775 C2776 1.524 . S
C2775 H2778 0.999 . S
C2776 H2746 0.950 . S
C2776 C2775 1.524 . S
C2776 C2777 1.415 . S
C2777 H2747 0.950 . S
C2777 C2772 1.363 . S
C2777 C2776 1.415 . S
H2778 C2775 0.999 . S
H2779 C2760 0.913 . S
H2780 C2798 0.951 . S
H2781 C2800 0.951 . S
H2782 C2802 0.950 . S
H2783 C2803 0.950 . S
H2784 C2805 0.950 . S
H2785 C2808 0.950 . S
H2786 C2809 0.950 . S
H2787 C2811 0.950 . S
H2788 C2812 0.950 . S
H2789 C2813 0.951 . S
H2790 C2815 0.951 . S
H2791 C2817 0.950 . S
H2792 C2818 0.950 . S
H2793 C2820 0.950 . S
H2794 C2823 0.950 . S
H2795 C2824 0.950 . S
H2796 C2826 0.950 . S
H2797 C2827 0.950 . S
C2798 H2780 0.951 . S
C2798 C2799 1.366 . S
C2798 C2800 1.388 . S
C2799 C2798 1.366 . S
C2799 C2803 1.385 . S
C2800 H2781 0.951 . S
C2800 C2798 1.388 . S
C2800 C2801 1.366 . S
C2801 C2800 1.366 . S
C2801 C2802 1.414 . S
C2801 C2804 1.499 . S
C2802 H2782 0.950 . S
C2802 C2801 1.414 . S
C2802 C2803 1.374 . S
C2803 H2783 0.950 . S
C2803 C2799 1.385 . S
C2803 C2802 1.374 . S
C2804 C2801 1.499 . S
C2804 C2805 1.373 . S
C2804 C2806 1.389 . S
C2805 H2784 0.950 . S
C2805 C2804 1.373 . S
C2805 C2821 1.377 . S
C2806 C2804 1.389 . S
C2806 C2807 1.524 . S
C2806 C2820 1.377 . S
C2807 C2806 1.524 . S
C2807 C2808 1.397 . S
C2807 C2812 1.363 . S
C2808 H2785 0.950 . S
C2808 C2807 1.397 . S
C2808 C2809 1.334 . S
C2809 H2786 0.950 . S
C2809 C2808 1.334 . S
C2809 C2810 1.287 . S
C2810 C2809 1.287 . S
C2810 C2811 1.524 . S
C2810 H2829 0.913 . S
C2811 H2787 0.950 . S
C2811 C2810 1.524 . S
C2811 C2812 1.415 . S
C2812 H2788 0.950 . S
C2812 C2807 1.363 . S
C2812 C2811 1.415 . S
C2813 H2789 0.951 . S
C2813 C2814 1.366 . S
C2813 C2815 1.388 . S
C2814 C2813 1.366 . S
C2814 C2818 1.385 . S
C2815 H2790 0.951 . S
C2815 C2813 1.388 . S
C2815 C2816 1.366 . S
C2816 C2815 1.366 . S
C2816 C2817 1.414 . S
C2816 C2819 1.499 . S
C2817 H2791 0.950 . S
C2817 C2816 1.414 . S
C2817 C2818 1.374 . S
C2818 H2792 0.950 . S
C2818 C2814 1.385 . S
C2818 C2817 1.374 . S
C2819 C2816 1.499 . S
C2819 C2820 1.373 . S
C2819 C2821 1.389 . S
C2820 H2793 0.950 . S
C2820 C2806 1.377 . S
C2820 C2819 1.373 . S
C2821 C2805 1.377 . S
C2821 C2819 1.389 . S
C2821 C2822 1.524 . S
C2822 C2821 1.524 . S
C2822 C2823 1.397 . S
C2822 C2827 1.363 . S
C2823 H2794 0.950 . S
C2823 C2822 1.397 . S
C2823 C2824 1.334 . S
C2824 H2795 0.950 . S
C2824 C2823 1.334 . S
C2824 C2825 1.287 . S
C2825 C2824 1.287 . S
C2825 C2826 1.524 . S
C2825 H2828 0.999 . S
C2826 H2796 0.950 . S
C2826 C2825 1.524 . S
C2826 C2827 1.415 . S
C2827 H2797 0.950 . S
C2827 C2822 1.363 . S
C2827 C2826 1.415 . S
H2828 C2825 0.999 . S
H2829 C2810 0.913 . S
H2830 C2848 0.951 . S
H2831 C2850 0.951 . S
H2832 C2852 0.950 . S
H2833 C2853 0.950 . S
H2834 C2855 0.950 . S
H2835 C2858 0.950 . S
H2836 C2859 0.950 . S
H2837 C2861 0.950 . S
H2838 C2862 0.950 . S
H2839 C2863 0.951 . S
H2840 C2865 0.951 . S
H2841 C2867 0.950 . S
H2842 C2868 0.950 . S
H2843 C2870 0.950 . S
H2844 C2873 0.950 . S
H2845 C2874 0.950 . S
H2846 C2876 0.950 . S
H2847 C2877 0.950 . S
C2848 H2830 0.951 . S
C2848 C2849 1.366 . S
C2848 C2850 1.388 . S
C2849 C2848 1.366 . S
C2849 C2853 1.385 . S
C2850 H2831 0.951 . S
C2850 C2848 1.388 . S
C2850 C2851 1.366 . S
C2851 C2850 1.366 . S
C2851 C2852 1.414 . S
C2851 C2854 1.499 . S
C2852 H2832 0.950 . S
C2852 C2851 1.414 . S
C2852 C2853 1.374 . S
C2853 H2833 0.950 . S
C2853 C2849 1.385 . S
C2853 C2852 1.374 . S
C2854 C2851 1.499 . S
C2854 C2855 1.373 . S
C2854 C2856 1.389 . S
C2855 H2834 0.950 . S
C2855 C2854 1.373 . S
C2855 C2871 1.377 . S
C2856 C2854 1.389 . S
C2856 C2857 1.524 . S
C2856 C2870 1.377 . S
C2857 C2856 1.524 . S
C2857 C2858 1.397 . S
C2857 C2862 1.363 . S
C2858 H2835 0.950 . S
C2858 C2857 1.397 . S
C2858 C2859 1.334 . S
C2859 H2836 0.950 . S
C2859 C2858 1.334 . S
C2859 C2860 1.287 . S
C2860 C2859 1.287 . S
C2860 C2861 1.524 . S
C2860 H2879 0.913 . S
C2861 H2837 0.950 . S
C2861 C2860 1.524 . S
C2861 C2862 1.415 . S
C2862 H2838 0.950 . S
C2862 C2857 1.363 . S
C2862 C2861 1.415 . S
C2863 H2839 0.951 . S
C2863 C2864 1.366 . S
C2863 C2865 1.388 . S
C2864 C2863 1.366 . S
C2864 C2868 1.385 . S
C2865 H2840 0.951 . S
C2865 C2863 1.388 . S
C2865 C2866 1.366 . S
C2866 C2865 1.366 . S
C2866 C2867 1.414 . S
C2866 C2869 1.499 . S
C2867 H2841 0.950 . S
C2867 C2866 1.414 . S
C2867 C2868 1.374 . S
C2868 H2842 0.950 . S
C2868 C2864 1.385 . S
C2868 C2867 1.374 . S
C2869 C2866 1.499 . S
C2869 C2870 1.373 . S
C2869 C2871 1.389 . S
C2870 H2843 0.950 . S
C2870 C2856 1.377 . S
C2870 C2869 1.373 . S
C2871 C2855 1.377 . S
C2871 C2869 1.389 . S
C2871 C2872 1.524 . S
C2872 C2871 1.524 . S
C2872 C2873 1.397 . S
C2872 C2877 1.363 . S
C2873 H2844 0.950 . S
C2873 C2872 1.397 . S
C2873 C2874 1.334 . S
C2874 H2845 0.950 . S
C2874 C2873 1.334 . S
C2874 C2875 1.287 . S
C2875 C2874 1.287 . S
C2875 C2876 1.524 . S
C2875 H2878 0.999 . S
C2876 H2846 0.950 . S
C2876 C2875 1.524 . S
C2876 C2877 1.415 . S
C2877 H2847 0.950 . S
C2877 C2872 1.363 . S
C2877 C2876 1.415 . S
H2878 C2875 0.999 . S
H2879 C2860 0.913 . S
H2880 C2898 0.951 . S
H2881 C2900 0.951 . S
H2882 C2902 0.950 . S
H2883 C2903 0.950 . S
H2884 C2905 0.950 . S
H2885 C2908 0.950 . S
H2886 C2909 0.950 . S
H2887 C2911 0.950 . S
H2888 C2912 0.950 . S
H2889 C2913 0.951 . S
H2890 C2915 0.951 . S
H2891 C2917 0.950 . S
H2892 C2918 0.950 . S
H2893 C2920 0.950 . S
H2894 C2923 0.950 . S
H2895 C2924 0.950 . S
H2896 C2926 0.950 . S
H2897 C2927 0.950 . S
C2898 H2880 0.951 . S
C2898 C2899 1.366 . S
C2898 C2900 1.388 . S
C2899 C2898 1.366 . S
C2899 C2903 1.385 . S
C2900 H2881 0.951 . S
C2900 C2898 1.388 . S
C2900 C2901 1.366 . S
C2901 C2900 1.366 . S
C2901 C2902 1.414 . S
C2901 C2904 1.499 . S
C2902 H2882 0.950 . S
C2902 C2901 1.414 . S
C2902 C2903 1.374 . S
C2903 H2883 0.950 . S
C2903 C2899 1.385 . S
C2903 C2902 1.374 . S
C2904 C2901 1.499 . S
C2904 C2905 1.373 . S
C2904 C2906 1.389 . S
C2905 H2884 0.950 . S
C2905 C2904 1.373 . S
C2905 C2921 1.377 . S
C2906 C2904 1.389 . S
C2906 C2907 1.524 . S
C2906 C2920 1.377 . S
C2907 C2906 1.524 . S
C2907 C2908 1.397 . S
C2907 C2912 1.363 . S
C2908 H2885 0.950 . S
C2908 C2907 1.397 . S
C2908 C2909 1.334 . S
C2909 H2886 0.950 . S
C2909 C2908 1.334 . S
C2909 C2910 1.287 . S
C2910 C2909 1.287 . S
C2910 C2911 1.524 . S
C2910 H2929 0.913 . S
C2911 H2887 0.950 . S
C2911 C2910 1.524 . S
C2911 C2912 1.415 . S
C2912 H2888 0.950 . S
C2912 C2907 1.363 . S
C2912 C2911 1.415 . S
C2913 H2889 0.951 . S
C2913 C2914 1.366 . S
C2913 C2915 1.388 . S
C2914 C2913 1.366 . S
C2914 C2918 1.385 1_556 S
C2915 H2890 0.951 . S
C2915 C2913 1.388 . S
C2915 C2916 1.366 . S
C2916 C2915 1.366 . S
C2916 C2917 1.414 1_556 S
C2916 C2919 1.499 . S
C2917 H2891 0.950 . S
C2917 C2916 1.414 1_554 S
C2917 C2918 1.374 . S
C2918 H2892 0.950 . S
C2918 C2914 1.385 1_554 S
C2918 C2917 1.374 . S
C2919 C2916 1.499 . S
C2919 C2920 1.373 . S
C2919 C2921 1.389 . S
C2920 H2893 0.950 . S
C2920 C2906 1.377 . S
C2920 C2919 1.373 . S
C2921 C2905 1.377 . S
C2921 C2919 1.389 . S
C2921 C2922 1.524 . S
C2922 C2921 1.524 . S
C2922 C2923 1.397 1_556 S
C2922 C2927 1.363 . S
C2923 H2894 0.950 . S
C2923 C2922 1.397 1_554 S
C2923 C2924 1.334 . S
C2924 H2895 0.950 . S
C2924 C2923 1.334 . S
C2924 C2925 1.287 . S
C2925 C2924 1.287 . S
C2925 C2926 1.524 1_554 S
C2925 H2928 0.999 . S
C2926 H2896 0.950 . S
C2926 C2925 1.524 1_556 S
C2926 C2927 1.415 . S
C2927 H2897 0.950 . S
C2927 C2922 1.363 . S
C2927 C2926 1.415 . S
H2928 C2925 0.999 . S
H2929 C2910 0.913 . S
H2930 C2948 0.951 . S
H2931 C2950 0.951 . S
H2932 C2952 0.950 . S
H2933 C2953 0.950 . S
H2934 C2955 0.950 . S
H2935 C2958 0.950 . S
H2936 C2959 0.950 . S
H2937 C2961 0.950 . S
H2938 C2962 0.950 . S
H2939 C2963 0.951 . S
H2940 C2965 0.951 . S
H2941 C2967 0.950 . S
H2942 C2968 0.950 . S
H2943 C2970 0.950 . S
H2944 C2973 0.950 . S
H2945 C2974 0.950 . S
H2946 C2976 0.950 . S
H2947 C2977 0.950 . S
C2948 H2930 0.951 . S
C2948 C2949 1.366 . S
C2948 C2950 1.388 . S
C2949 C2948 1.366 . S
C2949 C2953 1.385 . S
C2950 H2931 0.951 . S
C2950 C2948 1.388 . S
C2950 C2951 1.366 . S
C2951 C2950 1.366 . S
C2951 C2952 1.414 . S
C2951 C2954 1.499 . S
C2952 H2932 0.950 . S
C2952 C2951 1.414 . S
C2952 C2953 1.374 . S
C2953 H2933 0.950 . S
C2953 C2949 1.385 . S
C2953 C2952 1.374 . S
C2954 C2951 1.499 . S
C2954 C2955 1.373 . S
C2954 C2956 1.389 . S
C2955 H2934 0.950 . S
C2955 C2954 1.373 . S
C2955 C2971 1.377 . S
C2956 C2954 1.389 . S
C2956 C2957 1.524 . S
C2956 C2970 1.377 . S
C2957 C2956 1.524 . S
C2957 C2958 1.397 . S
C2957 C2962 1.363 . S
C2958 H2935 0.950 . S
C2958 C2957 1.397 . S
C2958 C2959 1.334 . S
C2959 H2936 0.950 . S
C2959 C2958 1.334 . S
C2959 C2960 1.287 . S
C2960 C2959 1.287 . S
C2960 C2961 1.524 . S
C2960 H2979 0.913 . S
C2961 H2937 0.950 . S
C2961 C2960 1.524 . S
C2961 C2962 1.415 . S
C2962 H2938 0.950 . S
C2962 C2957 1.363 . S
C2962 C2961 1.415 . S
C2963 H2939 0.951 . S
C2963 C2964 1.366 . S
C2963 C2965 1.388 . S
C2964 C2963 1.366 . S
C2964 C2968 1.385 . S
C2965 H2940 0.951 . S
C2965 C2963 1.388 . S
C2965 C2966 1.366 . S
C2966 C2965 1.366 . S
C2966 C2967 1.414 . S
C2966 C2969 1.499 . S
C2967 H2941 0.950 . S
C2967 C2966 1.414 . S
C2967 C2968 1.374 . S
C2968 H2942 0.950 . S
C2968 C2964 1.385 . S
C2968 C2967 1.374 . S
C2969 C2966 1.499 . S
C2969 C2970 1.373 . S
C2969 C2971 1.389 . S
C2970 H2943 0.950 . S
C2970 C2956 1.377 . S
C2970 C2969 1.373 . S
C2971 C2955 1.377 . S
C2971 C2969 1.389 . S
C2971 C2972 1.524 . S
C2972 C2971 1.524 . S
C2972 C2973 1.397 . S
C2972 C2977 1.363 . S
C2973 H2944 0.950 . S
C2973 C2972 1.397 . S
C2973 C2974 1.334 . S
C2974 H2945 0.950 . S
C2974 C2973 1.334 . S
C2974 C2975 1.287 . S
C2975 C2974 1.287 . S
C2975 C2976 1.524 . S
C2975 H2978 0.999 . S
C2976 H2946 0.950 . S
C2976 C2975 1.524 . S
C2976 C2977 1.415 . S
C2977 H2947 0.950 . S
C2977 C2972 1.363 . S
C2977 C2976 1.415 . S
H2978 C2975 0.999 . S
H2979 C2960 0.913 . S
H2980 C2998 0.951 . S
H2981 C3000 0.951 . S
H2982 C3002 0.950 . S
H2983 C3003 0.950 . S
H2984 C3005 0.950 . S
H2985 C3008 0.950 . S
H2986 C3009 0.950 . S
H2987 C3011 0.950 . S
H2988 C3012 0.950 . S
H2989 C3013 0.951 . S
H2990 C3015 0.951 . S
H2991 C3017 0.950 1_556 S
H2992 C3018 0.950 1_556 S
H2993 C3020 0.950 . S
H2994 C3023 0.950 . S
H2995 C3024 0.950 . S
H2996 C3026 0.950 . S
H2997 C3027 0.950 . S
C2998 H2980 0.951 . S
C2998 C2999 1.366 . S
C2998 C3000 1.388 . S
C2999 C2998 1.366 . S
C2999 C3003 1.385 . S
C3000 H2981 0.951 . S
C3000 C2998 1.388 . S
C3000 C3001 1.366 . S
C3001 C3000 1.366 . S
C3001 C3002 1.414 . S
C3001 C3004 1.499 . S
C3002 H2982 0.950 . S
C3002 C3001 1.414 . S
C3002 C3003 1.374 . S
C3003 H2983 0.950 . S
C3003 C2999 1.385 . S
C3003 C3002 1.374 . S
C3004 C3001 1.499 . S
C3004 C3005 1.373 . S
C3004 C3006 1.389 . S
C3005 H2984 0.950 . S
C3005 C3004 1.373 . S
C3005 C3021 1.377 . S
C3006 C3004 1.389 . S
C3006 C3007 1.524 . S
C3006 C3020 1.377 . S
C3007 C3006 1.524 . S
C3007 C3008 1.397 . S
C3007 C3012 1.363 1_554 S
C3008 H2985 0.950 . S
C3008 C3007 1.397 . S
C3008 C3009 1.334 1_554 S
C3009 H2986 0.950 . S
C3009 C3008 1.334 1_556 S
C3009 C3010 1.287 . S
C3010 C3009 1.287 . S
C3010 C3011 1.524 . S
C3010 H3029 0.913 . S
C3011 H2987 0.950 . S
C3011 C3010 1.524 . S
C3011 C3012 1.415 . S
C3012 H2988 0.950 . S
C3012 C3007 1.363 1_556 S
C3012 C3011 1.415 . S
C3013 H2989 0.951 . S
C3013 C3014 1.366 . S
C3013 C3015 1.388 . S
C3014 C3013 1.366 . S
C3014 C3018 1.385 . S
C3015 H2990 0.951 . S
C3015 C3013 1.388 . S
C3015 C3016 1.366 . S
C3016 C3015 1.366 . S
C3016 C3017 1.414 . S
C3016 C3019 1.499 . S
C3017 H2991 0.950 1_554 S
C3017 C3016 1.414 . S
C3017 C3018 1.374 . S
C3018 H2992 0.950 1_554 S
C3018 C3014 1.385 . S
C3018 C3017 1.374 . S
C3019 C3016 1.499 . S
C3019 C3020 1.373 . S
C3019 C3021 1.389 . S
C3020 H2993 0.950 . S
C3020 C3006 1.377 . S
C3020 C3019 1.373 . S
C3021 C3005 1.377 . S
C3021 C3019 1.389 . S
C3021 C3022 1.524 . S
C3022 C3021 1.524 . S
C3022 C3023 1.397 . S
C3022 C3027 1.363 . S
C3023 H2994 0.950 . S
C3023 C3022 1.397 . S
C3023 C3024 1.334 . S
C3024 H2995 0.950 . S
C3024 C3023 1.334 . S
C3024 C3025 1.287 . S
C3025 C3024 1.287 . S
C3025 C3026 1.524 . S
C3025 H3028 0.999 . S
C3026 H2996 0.950 . S
C3026 C3025 1.524 . S
C3026 C3027 1.415 . S
C3027 H2997 0.950 . S
C3027 C3022 1.363 . S
C3027 C3026 1.415 . S
H3028 C3025 0.999 . S
H3029 C3010 0.913 . S
H3030 C3048 0.951 . S
H3031 C3050 0.951 . S
H3032 C3052 0.950 . S
H3033 C3053 0.950 . S
H3034 C3055 0.973 . S
H3035 C3058 0.950 . S
H3036 C3059 0.979 . S
H3037 C3061 0.950 . S
H3038 C3062 0.950 . S
H3039 C3063 0.951 1_556 S
H3040 C3065 0.963 . S
H3041 C3067 0.950 . S
H3042 C3068 0.950 . S
H3043 C3070 0.950 . S
H3044 C3073 0.950 . S
H3045 C3074 0.950 . S
H3046 C3076 0.950 . S
H3047 C3077 0.950 . S
C3048 H3030 0.951 . S
C3048 C3049 1.366 . S
C3048 C3050 1.388 . S
C3049 C3048 1.366 . S
C3049 C3053 1.385 1_565 S
C3050 H3031 0.951 . S
C3050 C3048 1.388 . S
C3050 C3051 1.366 . S
C3051 C3050 1.366 . S
C3051 C3052 1.414 . S
C3051 C3054 1.499 . S
C3052 H3032 0.950 . S
C3052 C3051 1.414 . S
C3052 C3053 1.374 1_565 S
C3053 H3033 0.950 . S
C3053 C3049 1.385 1_545 S
C3053 C3052 1.374 1_545 S
C3054 C3051 1.499 . S
C3054 C3055 1.373 . S
C3054 C3056 1.389 . S
C3055 H3034 0.973 . S
C3055 C3054 1.373 . S
C3055 C3071 1.377 . S
C3056 C3054 1.389 . S
C3056 C3057 1.524 . S
C3056 C3070 1.377 . S
C3057 C3056 1.524 . S
C3057 C3058 1.397 . S
C3057 C3062 1.363 . S
C3058 H3035 0.950 . S
C3058 C3057 1.397 . S
C3058 C3059 1.334 . S
C3059 H3036 0.979 . S
C3059 C3058 1.334 . S
C3059 C3060 1.287 . S
C3060 C3059 1.287 . S
C3060 C3061 1.524 . S
C3060 H3079 0.913 . S
C3061 H3037 0.950 . S
C3061 C3060 1.524 . S
C3061 C3062 1.415 . S
C3062 H3038 0.950 . S
C3062 C3057 1.363 . S
C3062 C3061 1.415 . S
C3063 H3039 0.951 1_554 S
C3063 C3064 1.366 . S
C3063 C3065 1.388 . S
C3064 C3063 1.366 . S
C3064 C3068 1.385 . S
C3065 H3040 0.963 . S
C3065 C3063 1.388 . S
C3065 C3066 1.366 . S
C3066 C3065 1.366 . S
C3066 C3067 1.414 . S
C3066 C3069 1.499 . S
C3067 H3041 0.950 . S
C3067 C3066 1.414 . S
C3067 C3068 1.374 . S
C3068 H3042 0.950 . S
C3068 C3064 1.385 . S
C3068 C3067 1.374 . S
C3069 C3066 1.499 . S
C3069 C3070 1.373 . S
C3069 C3071 1.389 . S
C3070 H3043 0.950 . S
C3070 C3056 1.377 . S
C3070 C3069 1.373 . S
C3071 C3055 1.377 . S
C3071 C3069 1.389 . S
C3071 C3072 1.524 1_554 S
C3072 C3071 1.524 1_556 S
C3072 C3073 1.397 . S
C3072 C3077 1.363 . S
C3073 H3044 0.950 . S
C3073 C3072 1.397 . S
C3073 C3074 1.334 . S
C3074 H3045 0.950 . S
C3074 C3073 1.334 . S
C3074 C3075 1.287 . S
C3075 C3074 1.287 . S
C3075 C3076 1.524 . S
C3075 H3078 0.999 . S
C3076 H3046 0.950 . S
C3076 C3075 1.524 . S
C3076 C3077 1.415 . S
C3077 H3047 0.950 . S
C3077 C3072 1.363 . S
C3077 C3076 1.415 . S
H3078 C3075 0.999 . S
H3079 C3060 0.913 . S
C714 C520 1.455 . S
C699 C177 1.454 . S
C764 C533 1.497 . S
C749 C209 1.464 1_455 S
C799 C253 1.564 . S
C814 C553 1.515 . S
C864 C567 1.372 . S
C849 C157 1.428 . S
C914 C579 1.533 . S
C899 C343 1.512 . S
C964 C593 1.400 . S
C949 C401 1.375 . S
C999 C369 1.498 . S
C1014 C603 1.510 . S
C1064 C618 1.498 . S
C1049 C317 1.490 . S
C1099 C375 1.513 . S
C1114 C632 1.507 . S
C1164 C651 1.389 . S
C1149 C305 1.440 . S
C1199 C349 1.492 . S
C1214 C631 1.514 . S
C1264 C649 1.418 . S
C1249 C413 1.384 . S
C1299 C241 1.595 . S
C1314 C665 1.529 . S
C1349 C151 1.433 . S
C1364 C659 1.441 . S
C1399 C189 1.496 . S
C1414 C663 1.526 . S
C1449 C215 1.505 . S
C1464 C660 1.510 . S
C1499 C113 1.488 . S
C1514 C562 1.483 . S
C1549 C471 1.444 . S
C1564 C561 1.464 . S
C1614 C525 1.364 . S
C1599 C509 1.396 . S
C1664 C539 1.550 . S
C1649 C279 1.608 . S
C1699 C145 1.480 . S
C1714 C576 1.461 . S
C1764 C621 1.569 . S
C1749 C381 1.543 . S
C1814 C575 1.487 . S
C1799 C311 1.460 1_545 S
C1864 C607 1.397 . S
C1849 C407 1.372 . S
C1914 C604 1.455 . S
C1899 C465 1.454 . S
C1949 C497 1.469 . S
C1964 C617 1.497 . S
C1999 C285 1.564 . S
C2014 C581 1.515 . S
C2064 C595 1.373 . S
C2049 C445 1.428 . S
C2099 C119 1.512 . S
C2114 C551 1.533 . S
C2164 C565 1.400 . S
C2149 C17 1.345 1_655 S
C2214 C519 1.510 . S
C2199 C49 1.498 . S
C2264 C534 1.497 . S
C2249 C93 1.490 . S
C2299 C55 1.513 . S
C2314 C646 1.507 . S
C2349 C81 1.440 . S
C2364 C637 1.390 . S
C2399 C125 1.492 . S
C2414 C645 1.514 . S
C2449 C29 1.385 . S
C2464 C635 1.418 . S
C2514 C679 1.530 . S
C2499 C273 1.595 . S
C2564 C673 1.441 . S
C2549 C439 1.433 1_554 S
C2614 C677 1.526 . S
C2599 C477 1.496 . S
C2649 C503 1.508 . S
C2664 C674 1.510 . S
C2699 C337 1.488 . S
C2714 C590 1.483 . S
C2764 C589 1.464 . S
C2749 C183 1.444 . S
C2814 C609 1.363 . S
C2799 C221 1.395 . S
C2864 C623 1.551 . S
C2849 C247 1.607 . S
C2899 C433 1.480 . S
C2914 C548 1.461 . S
C2964 C537 1.569 . S
C2949 C61 1.543 . S
C2999 C87 1.460 . S
C3014 C547 1.487 . S
C3064 C523 1.397 . S
C3049 C23 1.372 1_565 S
