# Generated by pormake.
# Topology pth, (4,4)-cn, num edge types: 1
# Building blocks:
#     Node 0, Type 0, BuildingBlock: QUQFOY_clean_sbu_3, # of connection points: 4
#     Node 1, Type 0, BuildingBlock: QUQFOY_clean_sbu_3, # of connection points: 4
#     Node 2, Type 0, BuildingBlock: QUQFOY_clean_sbu_3, # of connection points: 4
#     Node 3, Type 1, BuildingBlock: MIFKUJ_clean_linker_1, # of connection points: 4
#     Node 4, Type 1, BuildingBlock: MIFKUJ_clean_linker_1, # of connection points: 4
#     Node 5, Type 1, BuildingBlock: MIFKUJ_clean_linker_1, # of connection points: 4
#     Edge 6, Type (0, 1), BuildingBlock: TEMPAE_clean_linker_10, # of connection points: 2
#     Edge 7, Type (0, 1), BuildingBlock: TEMPAE_clean_linker_10, # of connection points: 2
#     Edge 8, Type (0, 1), BuildingBlock: TEMPAE_clean_linker_10, # of connection points: 2
#     Edge 9, Type (0, 1), BuildingBlock: TEMPAE_clean_linker_10, # of connection points: 2
#     Edge 10, Type (0, 1), BuildingBlock: TEMPAE_clean_linker_10, # of connection points: 2
#     Edge 11, Type (0, 1), BuildingBlock: TEMPAE_clean_linker_10, # of connection points: 2
#     Edge 12, Type (0, 1), BuildingBlock: TEMPAE_clean_linker_10, # of connection points: 2
#     Edge 13, Type (0, 1), BuildingBlock: TEMPAE_clean_linker_10, # of connection points: 2
#     Edge 14, Type (0, 1), BuildingBlock: TEMPAE_clean_linker_10, # of connection points: 2
#     Edge 15, Type (0, 1), BuildingBlock: TEMPAE_clean_linker_10, # of connection points: 2
#     Edge 16, Type (0, 1), BuildingBlock: TEMPAE_clean_linker_10, # of connection points: 2
#     Edge 17, Type (0, 1), BuildingBlock: TEMPAE_clean_linker_10, # of connection points: 2
# Relax obj value: 0.016
# Max RMSD: 0.072
# Mean RMSD: 0.058
data_MOF--net-pth--node1-QUQFOY_clean_sbu_3--node2-MIFKUJ_clean_linker_1--edge1-TEMPAE_clean_linker_10
_symmetry_space_group_name_H-M    P1
_symmetry_Int_Tables_number       1
_symmetry_cell_setting            triclinic
loop_
_symmetry_equiv_pos_as_xyz
'x, y, z'
_cell_length_a     30.098896
_cell_length_b     29.882511
_cell_length_c     66.462088
_cell_angle_alpha  90.03721
_cell_angle_beta   90.665674
_cell_angle_gamma 120.74023
loop_
_atom_site_label
_atom_site_type_symbol
_atom_site_fract_x
_atom_site_fract_y
_atom_site_fract_z
_atom_type_partial_charge
C0 C 0.98966 0.13301 0.06696 0.0
O1 O 0.95525 0.12328 0.05364 0.0
Cd2 Cd 0.94443 0.07215 0.02422 0.0
O3 O 0.01729 0.11205 0.06591 0.0
Cd4 Cd 0.02535 0.04794 0.04504 0.0
C5 C 0.07077 0.13558 0.0078 0.0
O6 O 0.93516 0.99135 0.03469 0.0
O7 O 0.99207 0.98396 0.0179 0.0
O8 O 0.02561 0.0079 0.07663 0.0
C9 C 0.94483 0.96764 0.02117 0.0
O10 O 0.02401 0.12408 0.00538 0.0
C11 C 0.06409 0.00295 0.0728 0.0
O12 O 0.08346 0.11547 0.022 0.0
O13 O 0.08592 0.02023 0.05599 0.0
C14 C 0.1292 0.09196 0.40305 0.0
O15 O 0.15602 0.12852 0.3909 0.0
Cd16 Cd 0.11888 0.13947 0.36046 0.0
O17 O 0.08038 0.06392 0.40071 0.0
Cd18 Cd 0.00924 0.05731 0.37952 0.0
C19 C 0.05265 0.01194 0.34298 0.0
O20 O 0.04642 0.14746 0.36909 0.0
O21 O 0.97831 0.09007 0.35273 0.0
O22 O 0.96734 0.06175 0.40957 0.0
C23 C 0.01242 0.13755 0.35555 0.0
O24 O 0.0907 0.05846 0.34181 0.0
C25 C 0.92552 0.01875 0.4068 0.0
O26 O 0.01714 -0.00035 0.3558 0.0
O27 O 0.92258 0.99251 0.39123 0.0
C28 C 0.93073 0.06614 0.68369 0.0
O29 O 0.93873 0.09963 0.69721 0.0
Cd30 Cd -0.00277 0.11837 0.72526 0.0
O31 O 0.95678 0.04341 0.68363 0.0
Cd32 Cd 0.02818 0.04435 0.70261 0.0
C33 C 0.94953 0.99331 0.74228 0.0
O34 O 0.07869 0.13611 0.71283 0.0
O35 O 0.09653 0.08306 0.72787 0.0
O36 O 0.06719 0.04668 0.67054 0.0
C37 C 0.10712 0.12948 0.72526 0.0
O38 O 0.95787 0.03908 0.74539 0.0
C39 C 0.07431 0.00915 0.67434 0.0
O40 O 0.96748 0.98294 0.72684 0.0
O41 O 0.05862 0.98687 0.69122 0.0
H42 H 0.14602 0.54059 0.17964 0.0
H43 H 0.13863 0.46807 0.15972 0.0
H44 H 0.9808 0.37112 0.17911 0.0
H45 H 0.98894 0.44323 0.19925 0.0
H46 H 0.08815 0.58751 0.17519 0.0
H47 H 0.12692 0.50352 0.22839 0.0
H48 H 0.11632 0.4335 0.2505 0.0
H49 H 0.96552 0.4046 0.26725 0.0
H50 H 0.97702 0.47552 0.24546 0.0
H51 H 0.98627 0.60888 0.24501 0.0
H52 H 0.98003 0.67473 0.26464 0.0
H53 H 0.12477 0.79448 0.24044 0.0
H54 H 0.13268 0.7284 0.22162 0.0
H55 H 0.04959 0.57732 0.24795 0.0
H56 H 0.00392 0.65185 0.1927 0.0
H57 H 0.0112 0.7212 0.17088 0.0
H58 H 0.16808 0.76476 0.15704 0.0
H59 H 0.16062 0.69523 0.17898 0.0
C60 C 0.0682 0.49711 0.19102 0.0
C61 C 0.11007 0.50349 0.17972 0.0
C62 C 0.10568 0.4621 0.16829 0.0
C63 C 0.05909 0.41378 0.1678 0.0
C64 C 0.01752 0.40743 0.17942 0.0
C65 C 0.02205 0.44869 0.1909 0.0
C66 C 0.07132 0.54167 0.20207 0.0
C67 C 0.08069 0.58579 0.19119 0.0
C68 C 0.06031 0.53884 0.22277 0.0
C69 C 0.05272 0.4946 0.23529 0.0
C70 C 0.09141 0.48174 0.2367 0.0
C71 C 0.08521 0.44161 0.24929 0.0
C72 C 0.04011 0.41354 0.26068 0.0
C73 C 0.00107 0.42603 0.25895 0.0
C74 C 0.00746 0.46635 0.24645 0.0
C75 C 0.05977 0.66358 0.23167 0.0
C76 C 0.0168 0.64926 0.24391 0.0
C77 C 0.01308 0.68675 0.25505 0.0
C78 C 0.05182 0.73934 0.25388 0.0
C79 C 0.09422 0.75406 0.24134 0.0
C80 C 0.09853 0.71638 0.23052 0.0
C81 C 0.0648 0.62273 0.221 0.0
C82 C 0.05735 0.57938 0.23197 0.0
C83 C 0.07693 0.62604 0.20033 0.0
C84 C 0.08185 0.66873 0.18752 0.0
C85 C 0.03996 0.67655 0.18507 0.0
C86 C 0.04406 0.71588 0.17252 0.0
C87 C 0.09019 0.74817 0.16227 0.0
C88 C 0.13227 0.74061 0.16489 0.0
C89 C 0.12796 0.70085 0.17729 0.0
H90 H 0.57144 0.02394 0.503 0.0
H91 H 0.63926 0.02576 0.4827 0.0
H92 H 0.60368 0.87705 0.50707 0.0
H93 H 0.53658 0.87631 0.52783 0.0
H94 H 0.47034 0.95788 0.50247 0.0
H95 H 0.60356 0.0271 0.54983 0.0
H96 H 0.67658 0.04168 0.57085 0.0
H97 H 0.58219 0.89006 0.59753 0.0
H98 H 0.50845 0.8766 0.57675 0.0
H99 H 0.35106 0.87262 0.57266 0.0
H100 H 0.28658 0.87836 0.59298 0.0
H101 H 0.35221 0.03919 0.57579 0.0
H102 H 0.41655 0.03322 0.55554 0.0
H103 H 0.46402 0.9398 0.57671 0.0
H104 H 0.32315 0.90389 0.52927 0.0
H105 H 0.26697 0.92676 0.51038 0.0
H106 H 0.40105 0.05617 0.48373 0.0
H107 H 0.4573 0.03541 0.50331 0.0
C108 C 0.54896 0.94997 0.51686 0.0
C109 C 0.57822 0.99171 0.50394 0.0
C110 C 0.61679 0.99251 0.49227 0.0
C111 C 0.62653 0.95123 0.49307 0.0
C112 C 0.59745 0.90963 0.50621 0.0
C113 C 0.55904 0.90907 0.51803 0.0
C114 C 0.5072 0.94895 0.52879 0.0
C115 C 0.46893 0.95407 0.51872 0.0
C116 C 0.50592 0.94464 0.54995 0.0
C117 C 0.5508 0.95055 0.56161 0.0
C118 C 0.59883 -0.00335 0.55999 0.0
C119 C 0.64065 0.00484 0.57199 0.0
C120 C 0.63544 0.96698 0.58587 0.0
C121 C 0.58739 0.92031 0.58719 0.0
C122 C 0.54531 0.91236 0.57526 0.0
C123 C 0.38819 0.95239 0.56255 0.0
C124 C 0.35142 0.90903 0.57329 0.0
C125 C 0.31452 0.91226 0.58475 0.0
C126 C 0.31445 0.95918 0.58589 0.0
C127 C 0.35165 0.00267 0.57524 0.0
C128 C 0.38818 -0.00073 0.56363 0.0
C129 C 0.42699 0.94877 0.55037 0.0
C130 C 0.46467 0.94245 0.56042 0.0
C131 C 0.42974 0.95582 0.52926 0.0
C132 C 0.39461 0.9682 0.51789 0.0
C133 C 0.34058 0.93778 0.51968 0.0
C134 C 0.30851 0.95062 0.50886 0.0
C135 C 0.33003 0.9931 0.49571 0.0
C136 C 0.38381 0.02313 0.49377 0.0
C137 C 0.41581 0.01107 0.50487 0.0
H138 H 0.48873 0.45182 0.8366 0.0
H139 H 0.42487 0.3883 0.81291 0.0
H140 H 0.31336 0.42859 0.83276 0.0
H141 H 0.37734 0.49177 0.85655 0.0
H142 H 0.52954 0.5546 0.83731 0.0
H143 H 0.43722 0.41568 0.88404 0.0
H144 H 0.36679 0.34858 0.90386 0.0
H145 H 0.32834 0.46201 0.92422 0.0
H146 H 0.39973 0.52912 0.90476 0.0
H147 H 0.54776 0.67063 0.90877 0.0
H148 H 0.61366 0.73402 0.93219 0.0
H149 H 0.7154 0.67754 0.91663 0.0
H150 H 0.64965 0.61458 0.89316 0.0
H151 H 0.50187 0.56107 0.91043 0.0
H152 H 0.59238 0.69891 0.8633 0.0
H153 H 0.66457 0.76703 0.84435 0.0
H154 H 0.70598 0.65532 0.82492 0.0
H155 H 0.63354 0.58713 0.84391 0.0
C156 C 0.43766 0.4762 0.84843 0.0
C157 C 0.45044 0.44678 0.83589 0.0
C158 C 0.41403 0.41075 0.8223 0.0
C159 C 0.36418 0.40367 0.82089 0.0
C160 C 0.35125 0.43275 0.83365 0.0
C161 C 0.38773 0.4688 0.84726 0.0
C162 C 0.47749 0.51673 0.86186 0.0
C163 C 0.52375 0.55542 0.85336 0.0
C164 C 0.46941 0.51891 0.88266 0.0
C165 C 0.42354 0.47727 0.89293 0.0
C166 C 0.41308 0.42583 0.89255 0.0
C167 C 0.37276 0.38752 0.90386 0.0
C168 C 0.34214 0.40001 0.91573 0.0
C169 C 0.3518 0.45131 0.91554 0.0
C170 C 0.39233 0.48963 0.90434 0.0
C171 C 0.5941 0.63828 0.89922 0.0
C172 C 0.58441 0.67222 0.91035 0.0
C173 C 0.62199 0.70839 0.92361 0.0
C174 C 0.66935 0.71036 0.92619 0.0
C175 C 0.67899 0.67643 0.91498 0.0
C176 C 0.64172 0.64081 0.90152 0.0
C177 C 0.55365 0.59847 0.88585 0.0
C178 C 0.50744 0.56003 0.89437 0.0
C179 C 0.56176 0.59636 0.8651 0.0
C180 C 0.60785 0.63814 0.85503 0.0
C181 C 0.61746 0.68928 0.8552 0.0
C182 C 0.6584 0.72799 0.84429 0.0
C183 C 0.69058 0.71622 0.83317 0.0
C184 C 0.68188 0.66536 0.8335 0.0
C185 C 0.64051 0.62647 0.84423 0.0
C186 C 0.96587 0.18998 0.0859 0.0
C187 C -0.00091 0.17046 0.0834 0.0
C188 C 0.97596 0.2277 0.10065 0.0
C189 C 0.02054 0.24665 0.1131 0.0
C190 C 0.05363 0.22633 0.11098 0.0
C191 C 0.04241 0.18832 0.0962 0.0
C192 C 0.9395 0.24813 0.10261 0.0
C193 C 0.10167 0.24582 0.12394 0.0
C194 C 0.07222 0.38197 0.13481 0.0
C195 C 0.05266 0.37101 0.15439 0.0
C196 C 0.06327 0.34185 0.12142 0.0
C197 C 0.03364 0.28945 0.12769 0.0
C198 C 0.01479 0.27807 0.14756 0.0
C199 C 0.0247 0.31902 0.1607 0.0
C200 C 0.08427 0.35551 0.10037 0.0
C201 C 0.98303 0.22263 0.15476 0.0
H202 H 0.93214 0.17619 0.07617 0.0
H203 H 0.06833 0.1735 0.09438 0.0
H204 H 0.92608 0.24408 0.11834 0.0
H205 H 0.96003 0.29021 0.09897 0.0
H206 H 0.90516 0.22743 0.09247 0.0
H207 H 0.12191 0.2241 0.12112 0.0
H208 H 0.12878 0.28768 0.12094 0.0
H209 H 0.09166 0.2424 0.1401 0.0
H210 H 0.0932 0.42192 0.1297 0.0
H211 H 0.01013 0.3103 0.17591 0.0
H212 H 0.05179 0.34029 0.08931 0.0
H213 H 0.10716 0.33692 0.09691 0.0
H214 H 0.10914 0.3982 0.09825 0.0
H215 H 0.94661 0.2017 0.1458 0.0
H216 H 0.97316 0.22046 0.17092 0.0
H217 H 0.00433 0.20182 0.15247 0.0
C218 C 0.837 0.95249 0.41858 0.0
C219 C 0.88166 0.0018 0.4206 0.0
C220 C 0.79402 0.9379 0.43083 0.0
C221 C 0.79569 0.9738 0.44517 0.0
C222 C 0.84121 0.02303 0.44763 0.0
C223 C 0.88372 0.03627 0.43541 0.0
C224 C 0.7464 0.88473 0.42805 0.0
C225 C 0.84436 0.06262 0.46263 0.0
C226 C 0.67339 0.97061 0.46045 0.0
C227 C 0.66704 0.95209 0.48022 0.0
C228 C 0.71408 0.97609 0.44863 0.0
C229 C 0.74889 0.96192 0.45665 0.0
C230 C 0.74124 0.94069 0.47621 0.0
C231 C 0.70056 0.93632 0.48783 0.0
C232 C 0.72105 -0.00088 0.42787 0.0
C233 C 0.77722 0.92453 0.48515 0.0
H234 H 0.83534 0.92555 0.40724 0.0
H235 H 0.91812 0.07443 0.43708 0.0
H236 H 0.73367 0.86493 0.44277 0.0
H237 H 0.71429 0.8888 0.42183 0.0
H238 H 0.75308 0.8596 0.4177 0.0
H239 H 0.88336 0.09824 0.4633 0.0
H240 H 0.81574 0.07408 0.45849 0.0
H241 H 0.8346 0.04547 0.47788 0.0
H242 H 0.64689 0.98165 0.45427 0.0
H243 H 0.69613 0.92222 0.50312 0.0
H244 H 0.72334 0.97314 0.41654 0.0
H245 H 0.75797 0.03699 0.42739 0.0
H246 H 0.68906 0.0056 0.42347 0.0
H247 H 0.78291 0.89955 0.47439 0.0
H248 H 0.76247 0.90307 0.49948 0.0
H249 H 0.81566 0.95957 0.48816 0.0
C250 C 0.9089 0.96405 0.77591 0.0
C251 C 0.91683 0.95149 0.75646 0.0
C252 C 0.87524 0.9252 0.78911 0.0
C253 C 0.84819 0.87265 0.78257 0.0
C254 C 0.85704 0.85953 0.76315 0.0
C255 C 0.89165 0.89913 0.75037 0.0
C256 C 0.86745 0.94058 0.80984 0.0
C257 C 0.82836 0.80395 0.75558 0.0
C258 C 0.78188 0.76556 0.82125 0.0
C259 C 0.73133 0.7563 0.82038 0.0
C260 C 0.82058 0.80351 0.80907 0.0
C261 C 0.80796 0.83202 0.79552 0.0
C262 C 0.75676 0.82231 0.79445 0.0
C263 C 0.71914 0.78479 0.80701 0.0
C264 C 0.87496 0.81346 0.81082 0.0
C265 C 0.74165 0.85142 0.78 0.0
H266 H 0.92871 0.00442 0.78078 0.0
H267 H 0.89753 0.88922 0.73533 0.0
H268 H 0.82739 0.93283 0.81107 0.0
H269 H 0.87258 0.91688 0.82146 0.0
H270 H 0.89471 0.98244 0.81323 0.0
H271 H 0.84188 0.79986 0.74058 0.0
H272 H 0.83308 0.77828 0.76634 0.0
H273 H 0.78641 0.78988 0.75443 0.0
H274 H 0.79126 0.74361 0.83168 0.0
H275 H 0.67983 0.77707 0.80616 0.0
H276 H 0.90191 0.85467 0.81518 0.0
H277 H 0.88762 0.80703 0.79604 0.0
H278 H 0.87836 0.78792 0.8221 0.0
H279 H 0.76423 0.89373 0.78346 0.0
H280 H 0.69984 0.83818 0.78067 0.0
H281 H 0.75085 0.84613 0.76437 0.0
C282 C 0.10936 0.95388 0.07995 0.0
C283 C 0.0797 0.97475 0.08672 0.0
C284 C 0.11771 0.92053 0.09222 0.0
C285 C 0.09638 0.90844 0.11172 0.0
C286 C 0.0693 0.93214 0.11905 0.0
C287 C 0.06101 0.96475 0.10641 0.0
C288 C 0.14664 0.89583 0.08387 0.0
C289 C 0.04663 0.92088 0.13988 0.0
C290 C 0.05428 0.77671 0.13445 0.0
C291 C 0.09376 0.78895 0.14861 0.0
C292 C 0.0557 0.81503 0.12189 0.0
C293 C 0.0974 0.86701 0.1237 0.0
C294 C 0.138 0.87944 0.13769 0.0
C295 C 0.13583 0.84009 0.14994 0.0
C296 C 0.01194 0.80006 0.10699 0.0
C297 C 0.1828 0.93449 0.14015 0.0
H298 H 0.12388 0.96151 0.06473 0.0
H299 H 0.03852 0.98125 0.11178 0.0
H300 H 0.17629 0.89921 0.09483 0.0
H301 H 0.11927 0.8537 0.08117 0.0
H302 H 0.16584 0.91377 0.06946 0.0
H303 H 0.03161 0.94666 0.14406 0.0
H304 H 0.01437 0.87987 0.14056 0.0
H305 H 0.07611 0.92571 0.15123 0.0
H306 H 0.02214 0.73698 0.13321 0.0
H307 H 0.16626 0.84959 0.16097 0.0
H308 H 0.02742 0.81264 0.09165 0.0
H309 H 0.9908 0.8202 0.11094 0.0
H310 H 0.98402 0.75744 0.10666 0.0
H311 H 0.20068 0.95038 0.12538 0.0
H312 H 0.21299 0.93703 0.15066 0.0
H313 H 0.16864 0.95968 0.146 0.0
C314 C 0.20516 0.11621 0.42577 0.0
C315 C 0.1551 0.07928 0.41918 0.0
C316 C 0.23165 0.10302 0.43983 0.0
C317 C 0.20791 0.05137 0.44707 0.0
C318 C 0.15684 0.01433 0.44089 0.0
C319 C 0.13083 0.02891 0.42718 0.0
C320 C 0.28567 0.14388 0.44643 0.0
C321 C 0.13061 0.95862 0.44796 0.0
C322 C 0.29864 0.00431 0.46249 0.0
C323 C 0.29678 0.00568 0.48348 0.0
C324 C 0.26909 0.01819 0.45048 0.0
C325 C 0.23796 0.03502 0.45977 0.0
C326 C 0.23597 0.03642 0.48104 0.0
C327 C 0.26508 0.02108 0.49269 0.0
C328 C 0.27138 0.01508 0.42786 0.0
C329 C 0.20404 0.05514 0.49143 0.0
H330 H 0.22389 0.15532 0.41976 0.0
H331 H 0.09222 9e-05 0.42206 0.0
H332 H 0.28915 0.14494 0.46309 0.0
H333 H 0.31385 0.13392 0.44047 0.0
H334 H 0.29646 0.18333 0.44107 0.0
H335 H 0.0897 0.93548 0.44275 0.0
H336 H 0.15166 0.93983 0.4422 0.0
H337 H 0.13173 0.95728 0.46463 0.0
H338 H 0.3232 0.99218 0.45549 0.0
H339 H 0.26423 0.02245 0.50898 0.0
H340 H 0.28724 0.05439 0.4213 0.0
H341 H 0.23188 0.99011 0.42148 0.0
H342 H 0.29581 -0.00091 0.42308 0.0
H343 H 0.21737 0.09582 0.48697 0.0
H344 H 0.20654 0.05366 0.50808 0.0
H345 H 0.16291 0.03106 0.48668 0.0
C346 C 0.17804 0.16346 0.751 0.0
C347 C 0.14652 0.17243 0.73794 0.0
C348 C 0.21383 0.20271 0.76394 0.0
C349 C 0.2181 0.25211 0.76387 0.0
C350 C 0.18699 0.26175 0.75052 0.0
C351 C 0.15158 0.22175 0.73764 0.0
C352 C 0.2466 0.19108 0.77789 0.0
C353 C 0.19052 0.31399 0.75008 0.0
C354 C 0.27447 0.33306 0.81141 0.0
C355 C 0.32608 0.3664 0.80601 0.0
C356 C 0.23853 0.29653 0.79765 0.0
C357 C 0.25469 0.29325 0.77806 0.0
C358 C 0.30645 0.3275 0.77238 0.0
C359 C 0.34152 0.36372 0.78643 0.0
C360 C 0.18359 0.26059 0.80423 0.0
C361 C 0.32504 0.32517 0.75161 0.0
H362 H 0.17446 0.12548 0.75125 0.0
H363 H 0.12725 0.22886 0.7276 0.0
H364 H 0.28819 0.21918 0.77537 0.0
H365 H 0.23853 0.19568 0.79377 0.0
H366 H 0.23936 0.15101 0.77575 0.0
H367 H 0.16462 0.31562 0.73843 0.0
H368 H 0.18005 0.32243 0.76497 0.0
H369 H 0.23082 0.34525 0.74709 0.0
H370 H 0.26244 0.33466 0.82657 0.0
H371 H 0.38116 0.39006 0.78207 0.0
H372 H 0.17489 0.21976 0.80406 0.0
H373 H 0.15615 0.26281 0.79357 0.0
H374 H 0.17656 0.27009 0.81959 0.0
H375 H 0.32144 0.28671 0.74918 0.0
H376 H 0.36596 0.35604 0.74932 0.0
H377 H 0.30061 0.32929 0.74001 0.0
C378 C 0.86797 0.08322 0.66523 0.0
C379 C 0.88941 0.05171 0.66837 0.0
C380 C 0.82752 0.06886 0.65124 0.0
C381 C 0.80754 0.02147 0.64039 0.0
C382 C 0.82918 0.98962 0.64342 0.0
C383 C 0.87013 0.00532 0.65726 0.0
C384 C 0.80592 0.10423 0.64817 0.0
C385 C 0.80839 0.93846 0.63233 0.0
C386 C 0.67069 0.96294 0.61979 0.0
C387 C 0.67938 0.97759 0.5995 0.0
C388 C 0.71203 0.97588 0.63315 0.0
C389 C 0.76336 0.00484 0.62613 0.0
C390 C 0.77246 0.01898 0.60563 0.0
C391 C 0.73037 0.00479 0.59253 0.0
C392 C 0.7008 0.95953 0.65487 0.0
C393 C 0.82669 0.0501 0.59763 0.0
H394 H 0.88285 0.11923 0.67369 0.0
H395 H 0.88627 0.98057 0.6597 0.0
H396 H 0.80796 0.11471 0.63205 0.0
H397 H 0.76458 0.08366 0.65237 0.0
H398 H 0.82702 0.14063 0.65725 0.0
H399 H 0.82999 0.91856 0.6362 0.0
H400 H 0.76708 0.91218 0.63602 0.0
H401 H 0.8104 0.94485 0.61585 0.0
H402 H 0.63158 0.9426 0.62541 0.0
H403 H 0.73747 0.01545 0.57682 0.0
H404 H 0.71647 0.99451 0.66471 0.0
H405 H 0.72025 0.93793 0.65938 0.0
H406 H 0.65873 0.93453 0.65765 0.0
H407 H 0.84806 0.08819 0.60558 0.0
H408 H 0.82714 0.05728 0.58121 0.0
H409 H 0.84791 0.02939 0.60054 0.0
C410 C 0.91626 0.9136 0.98985 0.0
C411 C 0.90362 0.92775 0.00808 0.0
C412 C 0.8776 0.87769 0.97675 0.0
C413 C 0.82512 0.85475 0.98218 0.0
C414 C 0.81213 0.86801 0.00076 0.0
C415 C 0.8516 0.90477 0.01344 0.0
C416 C 0.89288 0.86497 0.95693 0.0
C417 C 0.75658 0.8436 0.00718 0.0
C418 C 0.72409 0.80009 0.9403 0.0
C419 C 0.7084 0.74719 0.94077 0.0
C420 C 0.76197 0.83558 0.95377 0.0
C421 C 0.78388 0.8174 0.96823 0.0
C422 C 0.76741 0.7638 0.969 0.0
C423 C 0.7301 0.72934 0.95512 0.0
C424 C 0.77922 0.89262 0.95231 0.0
C425 C 0.78934 0.74291 0.98441 0.0
H426 H 0.95643 0.93144 0.9856 0.0
H427 H 0.84173 0.91544 0.02757 0.0
H428 H 0.87808 0.82259 0.95585 0.0
H429 H 0.8752 0.87504 0.9443 0.0
H430 H 0.93546 0.88627 0.95497 0.0
H431 H 0.75313 0.85668 0.02243 0.0
H432 H 0.73482 0.85364 -0.00368 0.0
H433 H 0.73787 0.80055 0.00714 0.0
H434 H 0.70746 0.81382 0.92908 0.0
H435 H 0.71745 0.68825 0.95559 0.0
H436 H 0.82118 0.91559 0.94912 0.0
H437 H 0.7733 0.90688 0.96686 0.0
H438 H 0.758 0.90029 0.94032 0.0
H439 H 0.8315 0.76056 0.98219 0.0
H440 H 0.77083 0.69988 0.9835 0.0
H441 H 0.78404 0.75376 -0.00021 0.0
C442 C 0.00316 0.92759 0.32415 0.0
C443 C 0.05059 0.97169 0.32947 0.0
C444 C 0.00107 0.88938 0.31121 0.0
C445 C 0.04762 0.8949 0.30391 0.0
C446 C 0.09561 0.93918 0.30938 0.0
C447 C 0.09646 0.97737 0.32189 0.0
C448 C 0.94915 0.84322 0.30532 0.0
C449 C 0.14614 0.9458 0.3023 0.0
C450 C 0.04793 0.77358 0.28748 0.0
C451 C 0.04916 0.77841 0.26652 0.0
C452 C 0.04722 0.81119 0.29985 0.0
C453 C 0.04645 0.85383 0.29095 0.0
C454 C 0.04646 0.85814 0.26972 0.0
C455 C 0.04855 0.82061 0.25773 0.0
C456 C 0.04853 0.80595 0.32241 0.0
C457 C 0.04451 0.90246 0.25971 0.0
H458 H 0.96762 0.92333 0.32987 0.0
H459 H 0.13324 0.01124 0.32611 0.0
H460 H 0.94498 0.84019 0.28868 0.0
H461 H 0.94631 0.80677 0.31074 0.0
H462 H 0.91652 0.84592 0.31157 0.0
H463 H 0.18014 0.98228 0.3081 0.0
H464 H 0.14968 0.91233 0.30731 0.0
H465 H 0.1471 0.94626 0.28562 0.0
H466 H 0.04879 0.74094 0.29417 0.0
H467 H 0.0492 0.82389 0.24147 0.0
H468 H 0.01442 0.80471 0.32918 0.0
H469 H 0.08346 0.84041 0.32886 0.0
H470 H 0.04893 0.77034 0.3269 0.0
H471 H 0.01082 0.90437 0.26519 0.0
H472 H 0.04168 0.89843 0.24306 0.0
H473 H 0.07973 0.93997 0.26373 0.0
C474 C 0.11369 0.01531 0.64085 0.0
C475 C 0.10266 0.9946 0.6603 0.0
C476 C 0.14487 0.00609 0.62801 0.0
C477 C 0.166 0.97599 0.63491 0.0
C478 C 0.15359 0.95351 0.65428 0.0
C479 C 0.12176 0.96284 0.66672 0.0
C480 C 0.15666 0.0301 0.60734 0.0
C481 C 0.17573 0.9215 0.66221 0.0
C482 C 0.2236 0.9251 0.59706 0.0
C483 C 0.27625 0.96309 0.59845 0.0
C484 C 0.1871 0.92876 0.6088 0.0
C485 C 0.20388 0.97106 0.6224 0.0
C486 C 0.25709 0.00924 0.62397 0.0
C487 C 0.29259 0.00493 0.61188 0.0
C488 C 0.13062 0.88773 0.60654 0.0
C489 C 0.27655 0.05462 0.63845 0.0
H490 H 0.09874 0.03961 0.63576 0.0
H491 H 0.11343 0.94681 0.68176 0.0
H492 H 0.1983 0.06011 0.6065 0.0
H493 H 0.14866 0.0001 0.59573 0.0
H494 H 0.13369 0.04866 0.60362 0.0
H495 H 0.1597 0.90403 0.67706 0.0
H496 H 0.16778 0.88981 0.65143 0.0
H497 H 0.21834 0.94646 0.6638 0.0
H498 H 0.21092 0.89297 0.58653 0.0
H499 H 0.33338 0.03398 0.61313 0.0
H500 H 0.10819 0.90611 0.60179 0.0
H501 H 0.11517 0.86881 0.62122 0.0
H502 H 0.12396 0.85725 0.59533 0.0
H503 H 0.25867 0.07817 0.63473 0.0
H504 H 0.31926 0.08035 0.63812 0.0
H505 H 0.26515 0.04015 0.65401 0.0
C506 C 0.09859 0.20167 0.98048 0.0
C507 C 0.1106 0.17315 0.99398 0.0
C508 C 0.13585 0.23792 0.96744 0.0
C509 C 0.18627 0.24555 0.96778 0.0
C510 C 0.19859 0.21654 0.98117 0.0
C511 C 0.16065 0.18082 0.9942 0.0
C512 C 0.12145 0.26853 0.95349 0.0
C513 C 0.25191 0.22342 0.98181 0.0
C514 C 0.27008 0.30874 0.92221 0.0
C515 C 0.30174 0.36029 0.92892 0.0
C516 C 0.23262 0.2708 0.93477 0.0
C517 C 0.22643 0.28489 0.95442 0.0
C518 C 0.25809 0.33683 0.96126 0.0
C519 C 0.29552 0.37381 0.94848 0.0
C520 C 0.19958 0.2157 0.92699 0.0
C521 C 0.25243 0.35335 0.98211 0.0
H522 H 0.06008 0.19616 0.98023 0.0
H523 H 0.17019 0.15878 0.0045 0.0
H524 H 0.1462 0.31077 0.95681 0.0
H525 H 0.1284 0.26234 0.93765 0.0
H526 H 0.08032 0.25744 0.95489 0.0
H527 H 0.25483 0.19682 0.9927 0.0
H528 H 0.26215 0.21612 0.96667 0.0
H529 H 0.28095 0.26413 0.98607 0.0
H530 H 0.27427 0.29813 0.90706 0.0
H531 H 0.32047 0.4133 0.95393 0.0
H532 H 0.15826 0.20436 0.92694 0.0
H533 H 0.20361 0.1884 0.93709 0.0
H534 H 0.21009 0.21084 0.91151 0.0
H535 H 0.21246 0.34533 0.98409 0.0
H536 H 0.27985 0.3954 0.98506 0.0
H537 H 0.25918 0.33045 0.99358 0.0
C538 C 0.05864 0.22887 0.34285 0.0
C539 C 0.01497 0.17862 0.34241 0.0
C540 C 0.06249 0.26743 0.32973 0.0
C541 C 0.02147 0.25549 0.31603 0.0
C542 C 0.97687 0.20512 0.31579 0.0
C543 C 0.97426 0.16719 0.32894 0.0
C544 C 0.11079 0.32069 0.33031 0.0
C545 C 0.93212 0.19116 0.30154 0.0
C546 C 0.01314 0.36787 0.2938 0.0
C547 C 0.03438 0.37229 0.2747 0.0
C548 C 0.00828 0.32972 0.30735 0.0
C549 C 0.02553 0.29551 0.30173 0.0
C550 C 0.0469 0.29962 0.28249 0.0
C551 C 0.05087 0.33783 0.26917 0.0
C552 C 0.985 0.32625 0.32771 0.0
C553 C 0.06577 0.2638 0.276 0.0
H554 H 0.09029 0.23785 0.35319 0.0
H555 H 0.9403 0.12845 0.3286 0.0
H556 H 0.12988 0.32935 0.31547 0.0
H557 H 0.10064 0.3509 0.33327 0.0
H558 H 0.13889 0.32388 0.34204 0.0
H559 H 0.89963 0.15066 0.30365 0.0
H560 H 0.91758 0.21823 0.30376 0.0
H561 H 0.94521 0.1954 0.28575 0.0
H562 H 0.00105 0.39485 0.29831 0.0
H563 H 0.06661 0.34051 0.25434 0.0
H564 H 0.01368 0.33315 0.33975 0.0
H565 H 0.95126 0.28658 0.32992 0.0
H566 H 0.97224 0.35493 0.32954 0.0
H567 H 0.09624 0.26747 0.2866 0.0
H568 H 0.08173 0.27235 0.26057 0.0
H569 H 0.03358 0.22273 0.27644 0.0
loop_
_geom_bond_atom_site_label_1
_geom_bond_atom_site_label_2
_geom_bond_distance
_geom_bond_site_symmetry_2
_ccdc_geom_bond_type
C0 O1 1.306 1_455 S
C0 O3 1.160 . S
O1 C0 1.306 1_655 S
O1 Cd2 2.228 . S
Cd2 O1 2.228 . S
Cd2 O6 2.273 . S
Cd2 O10 2.277 1_655 S
O3 C0 1.160 . S
O3 Cd4 2.203 . S
Cd4 O3 2.203 . S
Cd4 O6 2.411 1_455 S
Cd4 O7 2.333 1_445 S
Cd4 O8 2.354 1_545 S
Cd4 O12 2.277 . S
Cd4 O13 2.356 1_545 S
C5 O10 1.209 . S
C5 O12 1.226 . S
O6 Cd2 2.273 . S
O6 Cd4 2.411 1_655 S
O6 C9 1.320 1_545 S
O7 Cd4 2.333 1_665 S
O7 C9 1.214 . S
O8 Cd4 2.354 1_565 S
O8 C11 1.275 . S
C9 O6 1.320 1_565 S
C9 O7 1.214 . S
O10 Cd2 2.277 1_455 S
O10 C5 1.209 . S
C11 O8 1.275 . S
C11 O13 1.282 . S
O12 Cd4 2.277 . S
O12 C5 1.226 . S
O13 Cd4 2.356 1_565 S
O13 C11 1.282 . S
C14 O15 1.306 . S
C14 O17 1.160 . S
O15 C14 1.306 . S
O15 Cd16 2.228 . S
Cd16 O15 2.228 . S
Cd16 O20 2.273 . S
Cd16 O24 2.277 . S
O17 C14 1.160 . S
O17 Cd18 2.203 . S
Cd18 O17 2.203 . S
Cd18 O20 2.411 . S
Cd18 O21 2.333 1_455 S
Cd18 O22 2.352 1_455 S
Cd18 O26 2.277 1_445 S
Cd18 O27 2.356 1_445 S
C19 O24 1.209 1_565 S
C19 O26 1.226 1_455 S
O20 Cd16 2.273 . S
O20 Cd18 2.411 . S
O20 C23 1.320 . S
O21 Cd18 2.333 1_655 S
O21 C23 1.214 1_655 S
O22 Cd18 2.352 1_655 S
O22 C25 1.258 . S
C23 O20 1.320 . S
C23 O21 1.214 1_455 S
O24 Cd16 2.277 . S
O24 C19 1.209 1_545 S
C25 O22 1.258 . S
C25 O27 1.282 1_545 S
O26 Cd18 2.277 1_665 S
O26 C19 1.226 1_655 S
O27 Cd18 2.356 1_665 S
O27 C25 1.282 1_565 S
C28 O29 1.306 . S
C28 O31 1.160 . S
O29 C28 1.306 . S
O29 Cd30 2.228 . S
Cd30 O29 2.228 . S
Cd30 O34 2.273 1_655 S
Cd30 O38 2.277 . S
O31 C28 1.160 . S
O31 Cd32 2.203 1_655 S
Cd32 O31 2.203 1_455 S
Cd32 O34 2.411 . S
Cd32 O35 2.333 . S
Cd32 O36 2.352 . S
Cd32 O40 2.277 1_445 S
Cd32 O41 2.347 1_545 S
C33 O38 1.209 1_565 S
C33 O40 1.226 . S
O34 Cd30 2.273 1_455 S
O34 Cd32 2.411 . S
O34 C37 1.320 . S
O35 Cd32 2.333 . S
O35 C37 1.214 . S
O36 Cd32 2.352 . S
O36 C39 1.258 . S
C37 O34 1.320 . S
C37 O35 1.214 . S
O38 Cd30 2.277 . S
O38 C33 1.209 1_545 S
C39 O36 1.258 . S
C39 O41 1.275 1_545 S
O40 Cd32 2.277 1_665 S
O40 C33 1.226 . S
O41 Cd32 2.347 1_565 S
O41 C39 1.275 1_565 S
H42 C61 0.949 . S
H43 C62 0.950 . S
H44 C64 0.950 1_655 S
H45 C65 0.950 1_655 S
H46 C67 0.950 . S
H47 C70 0.950 . S
H48 C71 0.950 . S
H49 C73 0.951 . S
H50 C74 0.949 . S
H51 C76 0.949 . S
H52 C77 0.950 . S
H53 C79 0.950 . S
H54 C80 0.950 . S
H55 C82 0.950 . S
H56 C85 0.950 1_655 S
H57 C86 0.950 1_655 S
H58 C88 0.951 . S
H59 C89 0.949 . S
C60 C61 1.376 . S
C60 C65 1.386 . S
C60 C66 1.483 . S
C61 H42 0.949 . S
C61 C60 1.376 . S
C61 C62 1.397 . S
C62 H43 0.950 . S
C62 C61 1.397 . S
C62 C63 1.391 . S
C63 C62 1.391 . S
C63 C64 1.405 . S
C64 H44 0.950 1_455 S
C64 C63 1.405 . S
C64 C65 1.367 . S
C65 H45 0.950 1_455 S
C65 C60 1.386 . S
C65 C64 1.367 . S
C66 C60 1.483 . S
C66 C67 1.382 . S
C66 C68 1.403 . S
C67 H46 0.950 . S
C67 C66 1.382 . S
C67 C83 1.411 . S
C68 C66 1.403 . S
C68 C69 1.489 . S
C68 C82 1.411 . S
C69 C68 1.489 . S
C69 C70 1.383 . S
C69 C74 1.382 1_455 S
C70 H47 0.950 . S
C70 C69 1.383 . S
C70 C71 1.395 . S
C71 H48 0.950 . S
C71 C70 1.395 . S
C71 C72 1.288 . S
C72 C71 1.288 . S
C72 C73 1.392 1_455 S
C73 H49 0.951 . S
C73 C72 1.392 1_655 S
C73 C74 1.392 . S
C74 H50 0.949 . S
C74 C69 1.382 1_655 S
C74 C73 1.392 . S
C75 C76 1.376 1_455 S
C75 C80 1.386 . S
C75 C81 1.483 . S
C76 H51 0.949 . S
C76 C75 1.376 1_655 S
C76 C77 1.397 . S
C77 H52 0.950 . S
C77 C76 1.397 . S
C77 C78 1.391 1_655 S
C78 C77 1.391 1_455 S
C78 C79 1.405 . S
C79 H53 0.950 . S
C79 C78 1.405 . S
C79 C80 1.367 . S
C80 H54 0.950 . S
C80 C75 1.386 . S
C80 C79 1.367 . S
C81 C75 1.483 . S
C81 C82 1.382 . S
C81 C83 1.403 . S
C82 H55 0.950 . S
C82 C68 1.411 . S
C82 C81 1.382 . S
C83 C67 1.411 . S
C83 C81 1.403 . S
C83 C84 1.489 . S
C84 C83 1.489 . S
C84 C85 1.383 . S
C84 C89 1.382 . S
C85 H56 0.950 1_455 S
C85 C84 1.383 . S
C85 C86 1.395 . S
C86 H57 0.950 1_455 S
C86 C85 1.395 . S
C86 C87 1.288 . S
C87 C86 1.288 . S
C87 C88 1.392 . S
C88 H58 0.951 . S
C88 C87 1.392 . S
C88 C89 1.392 . S
C89 H59 0.949 . S
C89 C84 1.382 . S
C89 C88 1.392 . S
H90 C109 0.949 . S
H91 C110 0.950 . S
H92 C112 0.974 . S
H93 C113 0.950 1_565 S
H94 C115 0.950 . S
H95 C118 0.950 . S
H96 C119 0.950 . S
H97 C121 0.951 . S
H98 C122 0.949 . S
H99 C124 0.949 . S
H100 C125 0.950 . S
H101 C127 0.950 . S
H102 C128 0.950 . S
H103 C130 0.950 . S
H104 C133 0.950 1_565 S
H105 C134 0.950 1_565 S
H106 C136 0.951 . S
H107 C137 0.949 . S
C108 C109 1.376 . S
C108 C113 1.386 . S
C108 C114 1.483 . S
C109 H90 0.949 . S
C109 C108 1.376 . S
C109 C110 1.397 . S
C110 H91 0.950 . S
C110 C109 1.397 . S
C110 C111 1.391 . S
C111 C110 1.391 . S
C111 C112 1.392 1_545 S
C112 H92 0.974 . S
C112 C111 1.392 1_565 S
C112 C113 1.357 1_565 S
C113 H93 0.950 1_545 S
C113 C108 1.386 . S
C113 C112 1.357 1_545 S
C114 C108 1.483 . S
C114 C115 1.382 . S
C114 C116 1.403 . S
C115 H94 0.950 . S
C115 C114 1.382 . S
C115 C131 1.411 . S
C116 C114 1.403 . S
C116 C117 1.489 . S
C116 C130 1.411 . S
C117 C116 1.489 . S
C117 C118 1.383 . S
C117 C122 1.382 1_545 S
C118 H95 0.950 . S
C118 C117 1.383 . S
C118 C119 1.395 . S
C119 H96 0.950 . S
C119 C118 1.395 . S
C119 C120 1.288 . S
C120 C119 1.288 . S
C120 C121 1.392 1_545 S
C121 H97 0.951 . S
C121 C120 1.392 1_565 S
C121 C122 1.392 . S
C122 H98 0.949 . S
C122 C117 1.382 1_565 S
C122 C121 1.392 . S
C123 C124 1.376 1_545 S
C123 C128 1.386 . S
C123 C129 1.483 . S
C124 H99 0.949 . S
C124 C123 1.376 1_565 S
C124 C125 1.397 . S
C125 H100 0.950 . S
C125 C124 1.397 . S
C125 C126 1.391 1_565 S
C126 C125 1.391 1_545 S
C126 C127 1.405 . S
C127 H101 0.950 . S
C127 C126 1.405 . S
C127 C128 1.367 . S
C128 H102 0.950 . S
C128 C123 1.386 . S
C128 C127 1.367 . S
C129 C123 1.483 . S
C129 C130 1.382 . S
C129 C131 1.403 . S
C130 H103 0.950 . S
C130 C116 1.411 . S
C130 C129 1.382 . S
C131 C115 1.411 . S
C131 C129 1.403 . S
C131 C132 1.489 . S
C132 C131 1.489 . S
C132 C133 1.383 . S
C132 C137 1.382 . S
C133 H104 0.950 1_545 S
C133 C132 1.383 . S
C133 C134 1.395 . S
C134 H105 0.950 1_545 S
C134 C133 1.395 . S
C134 C135 1.288 . S
C135 C134 1.288 . S
C135 C136 1.392 . S
C136 H106 0.951 . S
C136 C135 1.392 . S
C136 C137 1.392 . S
C137 H107 0.949 . S
C137 C132 1.382 . S
C137 C136 1.392 . S
H138 C157 0.949 . S
H139 C158 0.950 . S
H140 C160 0.950 . S
H141 C161 0.950 . S
H142 C163 0.950 . S
H143 C166 0.950 . S
H144 C167 0.950 . S
H145 C169 0.951 . S
H146 C170 0.949 . S
H147 C172 0.949 . S
H148 C173 0.950 . S
H149 C175 0.950 . S
H150 C176 0.950 . S
H151 C178 0.950 . S
H152 C181 0.950 . S
H153 C182 0.950 . S
H154 C184 0.951 . S
H155 C185 0.949 . S
C156 C157 1.376 . S
C156 C161 1.386 . S
C156 C162 1.483 . S
C157 H138 0.949 . S
C157 C156 1.376 . S
C157 C158 1.397 . S
C158 H139 0.950 . S
C158 C157 1.397 . S
C158 C159 1.391 . S
C159 C158 1.391 . S
C159 C160 1.405 . S
C160 H140 0.950 . S
C160 C159 1.405 . S
C160 C161 1.367 . S
C161 H141 0.950 . S
C161 C156 1.386 . S
C161 C160 1.367 . S
C162 C156 1.483 . S
C162 C163 1.382 . S
C162 C164 1.403 . S
C163 H142 0.950 . S
C163 C162 1.382 . S
C163 C179 1.411 . S
C164 C162 1.403 . S
C164 C165 1.489 . S
C164 C178 1.411 . S
C165 C164 1.489 . S
C165 C166 1.383 . S
C165 C170 1.382 . S
C166 H143 0.950 . S
C166 C165 1.383 . S
C166 C167 1.395 . S
C167 H144 0.950 . S
C167 C166 1.395 . S
C167 C168 1.288 . S
C168 C167 1.288 . S
C168 C169 1.392 . S
C169 H145 0.951 . S
C169 C168 1.392 . S
C169 C170 1.392 . S
C170 H146 0.949 . S
C170 C165 1.382 . S
C170 C169 1.392 . S
C171 C172 1.376 . S
C171 C176 1.386 . S
C171 C177 1.483 . S
C172 H147 0.949 . S
C172 C171 1.376 . S
C172 C173 1.397 . S
C173 H148 0.950 . S
C173 C172 1.397 . S
C173 C174 1.391 . S
C174 C173 1.391 . S
C174 C175 1.405 . S
C175 H149 0.950 . S
C175 C174 1.405 . S
C175 C176 1.367 . S
C176 H150 0.950 . S
C176 C171 1.386 . S
C176 C175 1.367 . S
C177 C171 1.483 . S
C177 C178 1.382 . S
C177 C179 1.403 . S
C178 H151 0.950 . S
C178 C164 1.411 . S
C178 C177 1.382 . S
C179 C163 1.411 . S
C179 C177 1.403 . S
C179 C180 1.489 . S
C180 C179 1.489 . S
C180 C181 1.383 . S
C180 C185 1.382 . S
C181 H152 0.950 . S
C181 C180 1.383 . S
C181 C182 1.395 . S
C182 H153 0.950 . S
C182 C181 1.395 . S
C182 C183 1.288 . S
C183 C182 1.288 . S
C183 C184 1.392 . S
C184 H154 0.951 . S
C184 C183 1.392 . S
C184 C185 1.392 . S
C185 H155 0.949 . S
C185 C180 1.382 . S
C185 C184 1.392 . S
C186 C187 1.391 1_655 S
C186 C188 1.394 . S
C186 H202 0.931 . S
C187 C186 1.391 1_455 S
C187 C191 1.376 . S
C188 C186 1.394 . S
C188 C189 1.369 1_655 S
C188 C192 1.531 . S
C189 C188 1.369 1_455 S
C189 C190 1.410 . S
C189 C197 1.503 . S
C190 C189 1.410 . S
C190 C191 1.392 . S
C190 C193 1.511 . S
C191 C187 1.376 . S
C191 C190 1.392 . S
C191 H203 0.929 . S
C192 C188 1.531 . S
C192 H204 0.960 . S
C192 H205 0.962 . S
C192 H206 0.960 . S
C193 C190 1.511 . S
C193 H207 0.961 . S
C193 H208 0.961 . S
C193 H209 0.961 . S
C194 C195 1.370 . S
C194 C196 1.363 . S
C194 H210 0.931 . S
C195 C194 1.370 . S
C195 C199 1.408 . S
C196 C194 1.363 . S
C196 C197 1.370 . S
C196 C200 1.524 . S
C197 C189 1.503 . S
C197 C196 1.370 . S
C197 C198 1.403 . S
C198 C197 1.403 . S
C198 C199 1.404 . S
C198 C201 1.539 . S
C199 C195 1.408 . S
C199 C198 1.404 . S
C199 H211 0.930 . S
C200 C196 1.524 . S
C200 H212 0.956 . S
C200 H213 0.961 . S
C200 H214 0.961 . S
C201 C198 1.539 . S
C201 H215 0.958 1_455 S
C201 H216 0.961 . S
C201 H217 0.960 . S
H202 C186 0.931 . S
H203 C191 0.929 . S
H204 C192 0.960 . S
H205 C192 0.962 . S
H206 C192 0.960 . S
H207 C193 0.961 . S
H208 C193 0.961 . S
H209 C193 0.961 . S
H210 C194 0.931 . S
H211 C199 0.930 . S
H212 C200 0.956 . S
H213 C200 0.961 . S
H214 C200 0.961 . S
H215 C201 0.958 1_655 S
H216 C201 0.961 . S
H217 C201 0.960 . S
C218 C219 1.391 1_565 S
C218 C220 1.394 . S
C218 H234 0.931 . S
C219 C218 1.391 1_545 S
C219 C223 1.376 . S
C220 C218 1.394 . S
C220 C221 1.369 1_565 S
C220 C224 1.531 . S
C221 C220 1.369 1_545 S
C221 C222 1.410 . S
C221 C229 1.503 . S
C222 C221 1.410 . S
C222 C223 1.392 . S
C222 C225 1.511 . S
C223 C219 1.376 . S
C223 C222 1.392 . S
C223 H235 0.929 . S
C224 C220 1.531 . S
C224 H236 0.960 . S
C224 H237 0.962 . S
C224 H238 0.960 . S
C225 C222 1.511 . S
C225 H239 0.961 . S
C225 H240 0.961 . S
C225 H241 0.961 . S
C226 C227 1.370 . S
C226 C228 1.363 . S
C226 H242 0.931 . S
C227 C226 1.370 . S
C227 C231 1.408 . S
C228 C226 1.363 . S
C228 C229 1.370 . S
C228 C232 1.524 . S
C229 C221 1.503 . S
C229 C228 1.370 . S
C229 C230 1.403 . S
C230 C229 1.403 . S
C230 C231 1.404 . S
C230 C233 1.539 . S
C231 C227 1.408 . S
C231 C230 1.404 . S
C231 H243 0.930 . S
C232 C228 1.524 . S
C232 H244 0.974 . S
C232 H245 0.961 . S
C232 H246 0.961 . S
C233 C230 1.539 . S
C233 H247 0.958 . S
C233 H248 0.961 . S
C233 H249 0.960 . S
H234 C218 0.931 . S
H235 C223 0.929 . S
H236 C224 0.960 . S
H237 C224 0.962 . S
H238 C224 0.960 . S
H239 C225 0.961 . S
H240 C225 0.961 . S
H241 C225 0.961 . S
H242 C226 0.931 . S
H243 C231 0.930 . S
H244 C232 0.974 . S
H245 C232 0.961 . S
H246 C232 0.961 . S
H247 C233 0.958 . S
H248 C233 0.961 . S
H249 C233 0.960 . S
C250 C251 1.391 . S
C250 C252 1.394 . S
C250 H266 0.931 . S
C251 C250 1.391 . S
C251 C255 1.376 . S
C252 C250 1.394 . S
C252 C253 1.369 . S
C252 C256 1.531 . S
C253 C252 1.369 . S
C253 C254 1.410 . S
C253 C261 1.503 . S
C254 C253 1.410 . S
C254 C255 1.392 . S
C254 C257 1.511 . S
C255 C251 1.376 . S
C255 C254 1.392 . S
C255 H267 0.929 . S
C256 C252 1.531 . S
C256 H268 0.960 . S
C256 H269 0.962 . S
C256 H270 0.960 . S
C257 C254 1.511 . S
C257 H271 0.961 . S
C257 H272 0.961 . S
C257 H273 0.961 . S
C258 C259 1.370 . S
C258 C260 1.363 . S
C258 H274 0.931 . S
C259 C258 1.370 . S
C259 C263 1.408 . S
C260 C258 1.363 . S
C260 C261 1.370 . S
C260 C264 1.524 . S
C261 C253 1.503 . S
C261 C260 1.370 . S
C261 C262 1.403 . S
C262 C261 1.403 . S
C262 C263 1.404 . S
C262 C265 1.539 . S
C263 C259 1.408 . S
C263 C262 1.404 . S
C263 H275 0.930 . S
C264 C260 1.524 . S
C264 H276 0.956 . S
C264 H277 0.961 . S
C264 H278 0.961 . S
C265 C262 1.539 . S
C265 H279 0.958 . S
C265 H280 0.961 . S
C265 H281 0.960 . S
H266 C250 0.931 . S
H267 C255 0.929 . S
H268 C256 0.960 . S
H269 C256 0.962 . S
H270 C256 0.960 . S
H271 C257 0.961 . S
H272 C257 0.961 . S
H273 C257 0.961 . S
H274 C258 0.931 . S
H275 C263 0.930 . S
H276 C264 0.956 . S
H277 C264 0.961 . S
H278 C264 0.961 . S
H279 C265 0.958 . S
H280 C265 0.961 . S
H281 C265 0.960 . S
C282 C283 1.391 . S
C282 C284 1.394 . S
C282 H298 0.931 . S
C283 C282 1.391 . S
C283 C287 1.376 . S
C284 C282 1.394 . S
C284 C285 1.369 . S
C284 C288 1.531 . S
C285 C284 1.369 . S
C285 C286 1.410 . S
C285 C293 1.503 . S
C286 C285 1.410 . S
C286 C287 1.392 . S
C286 C289 1.511 . S
C287 C283 1.376 . S
C287 C286 1.392 . S
C287 H299 0.929 . S
C288 C284 1.531 . S
C288 H300 0.960 . S
C288 H301 0.962 1_455 S
C288 H302 0.960 . S
C289 C286 1.511 . S
C289 H303 0.961 . S
C289 H304 0.961 . S
C289 H305 0.961 . S
C290 C291 1.370 . S
C290 C292 1.363 . S
C290 H306 0.931 1_455 S
C291 C290 1.370 . S
C291 C295 1.408 . S
C292 C290 1.363 . S
C292 C293 1.370 . S
C292 C296 1.524 1_455 S
C293 C285 1.503 . S
C293 C292 1.370 . S
C293 C294 1.403 . S
C294 C293 1.403 . S
C294 C295 1.404 . S
C294 C297 1.539 . S
C295 C291 1.408 . S
C295 C294 1.404 . S
C295 H307 0.930 . S
C296 C292 1.524 1_655 S
C296 H308 0.956 . S
C296 H309 0.961 . S
C296 H310 0.961 . S
C297 C294 1.539 . S
C297 H311 0.958 . S
C297 H312 0.961 . S
C297 H313 0.960 . S
H298 C282 0.931 . S
H299 C287 0.929 . S
H300 C288 0.960 . S
H301 C288 0.962 1_655 S
H302 C288 0.960 . S
H303 C289 0.961 . S
H304 C289 0.961 . S
H305 C289 0.961 . S
H306 C290 0.931 1_655 S
H307 C295 0.930 . S
H308 C296 0.956 . S
H309 C296 0.961 . S
H310 C296 0.961 . S
H311 C297 0.958 . S
H312 C297 0.961 . S
H313 C297 0.960 . S
C314 C315 1.391 . S
C314 C316 1.394 . S
C314 H330 0.931 . S
C315 C314 1.391 . S
C315 C319 1.376 1_545 S
C316 C314 1.394 . S
C316 C317 1.369 . S
C316 C320 1.531 . S
C317 C316 1.369 . S
C317 C318 1.410 1_545 S
C317 C325 1.503 . S
C318 C317 1.410 1_565 S
C318 C319 1.392 . S
C318 C321 1.511 . S
C319 C315 1.376 1_565 S
C319 C318 1.392 . S
C319 H331 0.929 . S
C320 C316 1.531 . S
C320 H332 0.960 . S
C320 H333 0.962 . S
C320 H334 0.960 . S
C321 C318 1.511 . S
C321 H335 0.961 . S
C321 H336 0.961 . S
C321 H337 0.961 . S
C322 C323 1.370 . S
C322 C324 1.363 . S
C322 H338 0.931 . S
C323 C322 1.370 . S
C323 C327 1.408 . S
C324 C322 1.363 . S
C324 C325 1.370 . S
C324 C328 1.524 . S
C325 C317 1.503 . S
C325 C324 1.370 . S
C325 C326 1.403 . S
C326 C325 1.403 . S
C326 C327 1.404 . S
C326 C329 1.539 . S
C327 C323 1.408 . S
C327 C326 1.404 . S
C327 H339 0.930 . S
C328 C324 1.524 . S
C328 H340 0.956 . S
C328 H341 0.961 . S
C328 H342 0.961 . S
C329 C326 1.539 . S
C329 H343 0.958 . S
C329 H344 0.961 . S
C329 H345 0.960 . S
H330 C314 0.931 . S
H331 C319 0.929 . S
H332 C320 0.960 . S
H333 C320 0.962 . S
H334 C320 0.960 . S
H335 C321 0.961 . S
H336 C321 0.961 . S
H337 C321 0.961 . S
H338 C322 0.931 . S
H339 C327 0.930 . S
H340 C328 0.956 . S
H341 C328 0.961 . S
H342 C328 0.961 . S
H343 C329 0.958 . S
H344 C329 0.961 . S
H345 C329 0.960 . S
C346 C347 1.391 . S
C346 C348 1.394 . S
C346 H362 0.931 . S
C347 C346 1.391 . S
C347 C351 1.376 . S
C348 C346 1.394 . S
C348 C349 1.369 . S
C348 C352 1.531 . S
C349 C348 1.369 . S
C349 C350 1.410 . S
C349 C357 1.503 . S
C350 C349 1.410 . S
C350 C351 1.392 . S
C350 C353 1.511 . S
C351 C347 1.376 . S
C351 C350 1.392 . S
C351 H363 0.929 . S
C352 C348 1.531 . S
C352 H364 0.960 . S
C352 H365 0.962 . S
C352 H366 0.960 . S
C353 C350 1.511 . S
C353 H367 0.961 . S
C353 H368 0.961 . S
C353 H369 0.961 . S
C354 C355 1.370 . S
C354 C356 1.363 . S
C354 H370 0.931 . S
C355 C354 1.370 . S
C355 C359 1.408 . S
C356 C354 1.363 . S
C356 C357 1.370 . S
C356 C360 1.524 . S
C357 C349 1.503 . S
C357 C356 1.370 . S
C357 C358 1.403 . S
C358 C357 1.403 . S
C358 C359 1.404 . S
C358 C361 1.539 . S
C359 C355 1.408 . S
C359 C358 1.404 . S
C359 H371 0.930 . S
C360 C356 1.524 . S
C360 H372 0.956 . S
C360 H373 0.961 . S
C360 H374 0.961 . S
C361 C358 1.539 . S
C361 H375 0.958 . S
C361 H376 0.961 . S
C361 H377 0.960 . S
H362 C346 0.931 . S
H363 C351 0.929 . S
H364 C352 0.960 . S
H365 C352 0.962 . S
H366 C352 0.960 . S
H367 C353 0.961 . S
H368 C353 0.961 . S
H369 C353 0.961 . S
H370 C354 0.931 . S
H371 C359 0.930 . S
H372 C360 0.956 . S
H373 C360 0.961 . S
H374 C360 0.961 . S
H375 C361 0.958 . S
H376 C361 0.961 . S
H377 C361 0.960 . S
C378 C379 1.391 . S
C378 C380 1.394 . S
C378 H394 0.931 . S
C379 C378 1.391 . S
C379 C383 1.387 . S
C380 C378 1.394 . S
C380 C381 1.369 . S
C380 C384 1.531 . S
C381 C380 1.369 . S
C381 C382 1.410 1_545 S
C381 C389 1.503 . S
C382 C381 1.410 1_565 S
C382 C383 1.400 1_565 S
C382 C385 1.511 . S
C383 C379 1.387 . S
C383 C382 1.400 1_545 S
C383 H395 0.910 1_545 S
C384 C380 1.531 . S
C384 H396 0.960 . S
C384 H397 0.962 . S
C384 H398 0.960 . S
C385 C382 1.511 . S
C385 H399 0.961 . S
C385 H400 0.961 . S
C385 H401 0.961 . S
C386 C387 1.370 . S
C386 C388 1.363 . S
C386 H402 0.931 . S
C387 C386 1.370 . S
C387 C391 1.408 . S
C388 C386 1.363 . S
C388 C389 1.370 . S
C388 C392 1.524 . S
C389 C381 1.503 . S
C389 C388 1.370 . S
C389 C390 1.403 . S
C390 C389 1.403 . S
C390 C391 1.404 . S
C390 C393 1.539 . S
C391 C387 1.408 . S
C391 C390 1.404 . S
C391 H403 0.930 . S
C392 C388 1.524 . S
C392 H404 0.956 . S
C392 H405 0.961 . S
C392 H406 0.961 . S
C393 C390 1.539 . S
C393 H407 0.958 . S
C393 H408 0.961 . S
C393 H409 0.960 . S
H394 C378 0.931 . S
H395 C383 0.910 1_565 S
H396 C384 0.960 . S
H397 C384 0.962 . S
H398 C384 0.960 . S
H399 C385 0.961 . S
H400 C385 0.961 . S
H401 C385 0.961 . S
H402 C386 0.931 . S
H403 C391 0.930 . S
H404 C392 0.956 . S
H405 C392 0.961 . S
H406 C392 0.961 . S
H407 C393 0.958 . S
H408 C393 0.961 . S
H409 C393 0.960 . S
C410 C411 1.391 1_556 S
C410 C412 1.394 . S
C410 H426 0.931 . S
C411 C410 1.391 1_554 S
C411 C415 1.376 . S
C412 C410 1.394 . S
C412 C413 1.369 . S
C412 C416 1.531 . S
C413 C412 1.369 . S
C413 C414 1.410 1_556 S
C413 C421 1.503 . S
C414 C413 1.410 1_554 S
C414 C415 1.392 . S
C414 C417 1.511 . S
C415 C411 1.376 . S
C415 C414 1.392 . S
C415 H427 0.929 . S
C416 C412 1.531 . S
C416 H428 0.960 . S
C416 H429 0.962 . S
C416 H430 0.960 . S
C417 C414 1.511 . S
C417 H431 0.961 . S
C417 H432 0.961 1_554 S
C417 H433 0.961 . S
C418 C419 1.370 . S
C418 C420 1.363 . S
C418 H434 0.931 . S
C419 C418 1.370 . S
C419 C423 1.408 . S
C420 C418 1.363 . S
C420 C421 1.370 . S
C420 C424 1.524 . S
C421 C413 1.503 . S
C421 C420 1.370 . S
C421 C422 1.403 . S
C422 C421 1.403 . S
C422 C423 1.404 . S
C422 C425 1.539 . S
C423 C419 1.408 . S
C423 C422 1.404 . S
C423 H435 0.930 . S
C424 C420 1.524 . S
C424 H436 0.956 . S
C424 H437 0.961 . S
C424 H438 0.961 . S
C425 C422 1.539 . S
C425 H439 0.958 . S
C425 H440 0.961 . S
C425 H441 0.960 . S
H426 C410 0.931 . S
H427 C415 0.929 . S
H428 C416 0.960 . S
H429 C416 0.962 . S
H430 C416 0.960 . S
H431 C417 0.961 . S
H432 C417 0.961 1_556 S
H433 C417 0.961 . S
H434 C418 0.931 . S
H435 C423 0.930 . S
H436 C424 0.956 . S
H437 C424 0.961 . S
H438 C424 0.961 . S
H439 C425 0.958 . S
H440 C425 0.961 . S
H441 C425 0.960 . S
C442 C443 1.391 1_655 S
C442 C444 1.394 . S
C442 H458 0.931 . S
C443 C442 1.391 1_455 S
C443 C447 1.376 . S
C444 C442 1.394 . S
C444 C445 1.369 1_655 S
C444 C448 1.531 . S
C445 C444 1.369 1_455 S
C445 C446 1.410 . S
C445 C453 1.503 . S
C446 C445 1.410 . S
C446 C447 1.392 . S
C446 C449 1.511 . S
C447 C443 1.376 . S
C447 C446 1.392 . S
C447 H459 0.929 . S
C448 C444 1.531 . S
C448 H460 0.960 . S
C448 H461 0.962 . S
C448 H462 0.960 . S
C449 C446 1.511 . S
C449 H463 0.961 . S
C449 H464 0.961 . S
C449 H465 0.961 . S
C450 C451 1.370 . S
C450 C452 1.363 . S
C450 H466 0.931 . S
C451 C450 1.370 . S
C451 C455 1.408 . S
C452 C450 1.363 . S
C452 C453 1.370 . S
C452 C456 1.524 . S
C453 C445 1.503 . S
C453 C452 1.370 . S
C453 C454 1.403 . S
C454 C453 1.403 . S
C454 C455 1.404 . S
C454 C457 1.539 . S
C455 C451 1.408 . S
C455 C454 1.404 . S
C455 H467 0.930 . S
C456 C452 1.524 . S
C456 H468 0.956 . S
C456 H469 0.961 . S
C456 H470 0.961 . S
C457 C454 1.539 . S
C457 H471 0.958 1_455 S
C457 H472 0.961 . S
C457 H473 0.960 . S
H458 C442 0.931 . S
H459 C447 0.929 . S
H460 C448 0.960 . S
H461 C448 0.962 . S
H462 C448 0.960 . S
H463 C449 0.961 . S
H464 C449 0.961 . S
H465 C449 0.961 . S
H466 C450 0.931 . S
H467 C455 0.930 . S
H468 C456 0.956 . S
H469 C456 0.961 . S
H470 C456 0.961 . S
H471 C457 0.958 1_655 S
H472 C457 0.961 . S
H473 C457 0.960 . S
C474 C475 1.391 . S
C474 C476 1.394 . S
C474 H490 0.931 . S
C475 C474 1.391 . S
C475 C479 1.376 . S
C476 C474 1.394 . S
C476 C477 1.369 . S
C476 C480 1.531 . S
C477 C476 1.369 . S
C477 C478 1.410 . S
C477 C485 1.503 . S
C478 C477 1.410 . S
C478 C479 1.392 . S
C478 C481 1.511 . S
C479 C475 1.376 . S
C479 C478 1.392 . S
C479 H491 0.929 . S
C480 C476 1.531 . S
C480 H492 0.960 . S
C480 H493 0.962 . S
C480 H494 0.960 . S
C481 C478 1.511 . S
C481 H495 0.961 . S
C481 H496 0.961 . S
C481 H497 0.961 . S
C482 C483 1.370 1_565 S
C482 C484 1.363 1_565 S
C482 H498 0.931 . S
C483 C482 1.370 1_545 S
C483 C487 1.408 . S
C484 C482 1.363 1_545 S
C484 C485 1.370 . S
C484 C488 1.524 1_545 S
C485 C477 1.503 . S
C485 C484 1.370 . S
C485 C486 1.403 . S
C486 C485 1.403 . S
C486 C487 1.404 . S
C486 C489 1.539 . S
C487 C483 1.408 . S
C487 C486 1.404 . S
C487 H499 0.930 . S
C488 C484 1.524 1_565 S
C488 H500 0.956 . S
C488 H501 0.961 . S
C488 H502 0.961 . S
C489 C486 1.539 . S
C489 H503 0.958 . S
C489 H504 0.961 . S
C489 H505 0.960 . S
H490 C474 0.931 . S
H491 C479 0.929 . S
H492 C480 0.960 . S
H493 C480 0.962 . S
H494 C480 0.960 . S
H495 C481 0.961 . S
H496 C481 0.961 . S
H497 C481 0.961 . S
H498 C482 0.931 . S
H499 C487 0.930 . S
H500 C488 0.956 . S
H501 C488 0.961 . S
H502 C488 0.961 . S
H503 C489 0.958 . S
H504 C489 0.961 . S
H505 C489 0.960 . S
C506 C507 1.391 . S
C506 C508 1.394 1_554 S
C506 H522 0.931 . S
C507 C506 1.391 . S
C507 C511 1.376 1_554 S
C508 C506 1.394 1_556 S
C508 C509 1.369 . S
C508 C512 1.531 . S
C509 C508 1.369 . S
C509 C510 1.410 . S
C509 C517 1.503 . S
C510 C509 1.410 . S
C510 C511 1.392 . S
C510 C513 1.511 . S
C511 C507 1.376 1_556 S
C511 C510 1.392 . S
C511 H523 0.929 . S
C512 C508 1.531 . S
C512 H524 0.960 . S
C512 H525 0.962 . S
C512 H526 0.960 1_556 S
C513 C510 1.511 . S
C513 H527 0.961 . S
C513 H528 0.961 . S
C513 H529 0.961 . S
C514 C515 1.370 . S
C514 C516 1.363 . S
C514 H530 0.931 . S
C515 C514 1.370 . S
C515 C519 1.408 . S
C516 C514 1.363 . S
C516 C517 1.370 . S
C516 C520 1.524 . S
C517 C509 1.503 . S
C517 C516 1.370 . S
C517 C518 1.403 . S
C518 C517 1.403 . S
C518 C519 1.404 . S
C518 C521 1.539 . S
C519 C515 1.408 . S
C519 C518 1.404 . S
C519 H531 0.930 . S
C520 C516 1.524 . S
C520 H532 0.956 . S
C520 H533 0.961 . S
C520 H534 0.961 . S
C521 C518 1.539 . S
C521 H535 0.958 1_556 S
C521 H536 0.961 . S
C521 H537 0.960 . S
H522 C506 0.931 . S
H523 C511 0.929 . S
H524 C512 0.960 . S
H525 C512 0.962 . S
H526 C512 0.960 1_554 S
H527 C513 0.961 . S
H528 C513 0.961 . S
H529 C513 0.961 . S
H530 C514 0.931 . S
H531 C519 0.930 . S
H532 C520 0.956 . S
H533 C520 0.961 . S
H534 C520 0.961 . S
H535 C521 0.958 1_554 S
H536 C521 0.961 . S
H537 C521 0.960 . S
C538 C539 1.391 . S
C538 C540 1.394 . S
C538 H554 0.931 . S
C539 C538 1.391 . S
C539 C543 1.376 1_455 S
C540 C538 1.394 . S
C540 C541 1.369 . S
C540 C544 1.531 . S
C541 C540 1.369 . S
C541 C542 1.410 1_455 S
C541 C549 1.503 . S
C542 C541 1.410 1_655 S
C542 C543 1.392 . S
C542 C545 1.511 . S
C543 C539 1.376 1_655 S
C543 C542 1.392 . S
C543 H555 0.929 . S
C544 C540 1.531 . S
C544 H556 0.960 . S
C544 H557 0.962 . S
C544 H558 0.960 . S
C545 C542 1.511 . S
C545 H559 0.961 . S
C545 H560 0.961 . S
C545 H561 0.961 . S
C546 C547 1.370 . S
C546 C548 1.363 . S
C546 H562 0.931 . S
C547 C546 1.370 . S
C547 C551 1.408 . S
C548 C546 1.363 . S
C548 C549 1.370 . S
C548 C552 1.524 . S
C549 C541 1.503 . S
C549 C548 1.370 . S
C549 C550 1.403 . S
C550 C549 1.403 . S
C550 C551 1.404 . S
C550 C553 1.539 . S
C551 C547 1.408 . S
C551 C550 1.404 . S
C551 H563 0.930 . S
C552 C548 1.524 . S
C552 H564 0.956 . S
C552 H565 0.961 1_455 S
C552 H566 0.961 1_455 S
C553 C550 1.539 . S
C553 H567 0.958 . S
C553 H568 0.961 . S
C553 H569 0.960 . S
H554 C538 0.931 . S
H555 C543 0.929 . S
H556 C544 0.960 . S
H557 C544 0.962 . S
H558 C544 0.960 . S
H559 C545 0.961 . S
H560 C545 0.961 . S
H561 C545 0.961 . S
H562 C546 0.931 . S
H563 C551 0.930 . S
H564 C552 0.956 . S
H565 C552 0.961 1_655 S
H566 C552 0.961 1_655 S
H567 C553 0.958 . S
H568 C553 0.961 . S
H569 C553 0.960 . S
C195 C63 1.467 . S
C187 C0 1.468 . S
C219 C25 1.508 . S
C227 C111 1.507 . S
C251 C33 1.519 . S
C259 C183 1.519 . S
C283 C11 1.454 . S
C291 C87 1.455 . S
C323 C135 1.496 . S
C315 C14 1.501 . S
C347 C37 1.528 . S
C355 C159 1.535 . S
C387 C120 1.494 . S
C379 C28 1.499 . S
C411 C9 1.513 . S
C419 C174 1.534 . S
C451 C78 1.559 . S
C443 C19 1.558 . S
C483 C126 1.508 . S
C475 C39 1.502 . S
C515 C168 1.528 . S
C507 C5 1.526 . S
C539 C23 1.569 . S
C547 C72 1.568 . S
