# Generated by pormake.
# Topology rtl, (3,6)-cn, num edge types: 1
# Building blocks:
#     Node 0, Type 0, BuildingBlock: CUQRIR_clean_linker_1, # of connection points: 3
#     Node 1, Type 0, BuildingBlock: CUQRIR_clean_linker_1, # of connection points: 3
#     Node 2, Type 0, BuildingBlock: CUQRIR_clean_linker_1, # of connection points: 3
#     Node 3, Type 0, BuildingBlock: CUQRIR_clean_linker_1, # of connection points: 3
#     Node 4, Type 1, BuildingBlock: KUMBUR_clean_sbu_1, # of connection points: 6
#     Node 5, Type 1, BuildingBlock: KUMBUR_clean_sbu_1, # of connection points: 6
#     Edge 6, Type (0, 1), BuildingBlock: MIFKUJ_clean_linker_0, # of connection points: 2
#     Edge 7, Type (0, 1), BuildingBlock: MIFKUJ_clean_linker_0, # of connection points: 2
#     Edge 8, Type (0, 1), BuildingBlock: MIFKUJ_clean_linker_0, # of connection points: 2
#     Edge 9, Type (0, 1), BuildingBlock: MIFKUJ_clean_linker_0, # of connection points: 2
#     Edge 10, Type (0, 1), BuildingBlock: MIFKUJ_clean_linker_0, # of connection points: 2
#     Edge 11, Type (0, 1), BuildingBlock: MIFKUJ_clean_linker_0, # of connection points: 2
#     Edge 12, Type (0, 1), BuildingBlock: MIFKUJ_clean_linker_0, # of connection points: 2
#     Edge 13, Type (0, 1), BuildingBlock: MIFKUJ_clean_linker_0, # of connection points: 2
#     Edge 14, Type (0, 1), BuildingBlock: MIFKUJ_clean_linker_0, # of connection points: 2
#     Edge 15, Type (0, 1), BuildingBlock: MIFKUJ_clean_linker_0, # of connection points: 2
#     Edge 16, Type (0, 1), BuildingBlock: MIFKUJ_clean_linker_0, # of connection points: 2
#     Edge 17, Type (0, 1), BuildingBlock: MIFKUJ_clean_linker_0, # of connection points: 2
# Relax obj value: 0.062
# Max RMSD: 0.212
# Mean RMSD: 0.168
data_MOF--net-rtl--node1-KUMBUR_clean_sbu_1--node2-CUQRIR_clean_linker_1--edge1-MIFKUJ_clean_linker_0
_symmetry_space_group_name_H-M    P1
_symmetry_Int_Tables_number       1
_symmetry_cell_setting            triclinic
loop_
_symmetry_equiv_pos_as_xyz
'x, y, z'
_cell_length_a     43.099414
_cell_length_b     43.201369
_cell_length_c     31.91194
_cell_angle_alpha  79.488544
_cell_angle_beta   98.701183
_cell_angle_gamma 90.805728
loop_
_atom_site_label
_atom_site_type_symbol
_atom_site_fract_x
_atom_site_fract_y
_atom_site_fract_z
_atom_type_partial_charge
C0 C 0.23052 0.80516 1.00026 0.0
N1 N 0.21128 0.82619 1.01043 0.0
N2 N 0.24709 0.78825 0.03636 0.0
C3 C 0.2345 0.80246 0.95501 0.0
C4 C 0.23731 0.79987 0.06891 0.0
N5 N 0.2156 0.82321 0.05312 0.0
C6 C 0.247 0.78641 0.11594 0.0
H7 H 0.21733 0.78533 0.94354 0.0
H8 H 0.25848 0.79397 0.95386 0.0
H9 H 0.23 0.82544 0.93285 0.0
H10 H 0.26727 0.79975 0.12892 0.0
H11 H 0.25429 0.76133 0.12049 0.0
H12 H 0.22753 0.78827 0.13449 0.0
C13 C 0.72239 0.72733 0.66019 0.0
N14 N 0.6985 0.70809 0.64939 0.0
N15 N 0.73373 0.74218 0.62451 0.0
C16 C 0.73422 0.73255 0.70515 0.0
C17 C 0.71572 0.73148 0.59163 0.0
N18 N 0.69415 0.71101 0.60673 0.0
C19 C 0.71912 0.74068 0.54468 0.0
H20 H 0.72355 0.75463 0.70991 0.0
H21 H 0.76008 0.73537 0.70954 0.0
H22 H 0.72802 0.71313 0.73011 0.0
H23 H 0.73901 0.75661 0.53924 0.0
H24 H 0.69744 0.75303 0.52664 0.0
H25 H 0.72203 0.71919 0.53111 0.0
C26 C 0.79882 0.20766 0.09567 0.0
N27 N 0.81861 0.18743 0.08487 0.0
N28 N 0.78055 0.22323 0.06009 0.0
C29 C 0.79747 0.21217 0.14103 0.0
C30 C 0.78982 0.2117 0.02719 0.0
N31 N 0.81277 0.18951 0.04232 0.0
C32 C 0.77694 0.22274 0.98039 0.0
H33 H 0.77549 0.22425 0.14356 0.0
H34 H 0.8176 0.22671 0.15143 0.0
H35 H 0.7996 0.18909 0.16328 0.0
H36 H 0.76731 0.24706 0.97458 0.0
H37 H 0.75759 0.20706 0.97077 0.0
H38 H 0.79539 0.22185 0.95984 0.0
C39 C 0.31067 0.29349 0.42896 0.0
N40 N 0.33088 0.31599 0.43986 0.0
N41 N 0.29418 0.28269 0.46138 0.0
C42 C 0.30594 0.28343 0.38582 0.0
C43 C 0.30497 0.29945 0.49234 0.0
N44 N 0.32719 0.31992 0.47921 0.0
C45 C 0.29453 0.29487 0.53595 0.0
H46 H 0.29233 0.30203 0.36174 0.0
H47 H 0.29298 0.26101 0.38674 0.0
H48 H 0.32897 0.28082 0.37519 0.0
H49 H 0.28541 0.2708 0.5449 0.0
H50 H 0.27539 0.31202 0.53493 0.0
H51 H 0.31419 0.29898 0.56102 0.0
Tb52 Tb 0.04274 0.98071 0.5215 0.0
C53 C 0.96545 0.10298 0.52153 0.0
N54 N 0.99226 0.09205 0.54806 0.0
C55 C 0.01288 0.14433 0.54027 0.0
C56 C 0.9615 0.13508 0.5027 0.0
C57 C 0.01572 0.11225 0.55816 0.0
C58 C 0.98571 0.15579 0.51229 0.0
C59 C 0.91419 0.09184 0.48462 0.0
C60 C 0.94211 0.08167 0.51259 0.0
C61 C 0.9101 0.12382 0.46578 0.0
C62 C 0.93369 0.14539 0.47479 0.0
Tb63 Tb 0.99443 0.03915 0.57407 0.0
N64 N 0.9475 0.05067 0.53 0.0
C65 C 0.89137 0.0695 0.47626 0.0
C66 C 0.92477 0.02902 0.5234 0.0
C67 C 0.89658 0.03802 0.49605 0.0
H68 H 0.03646 0.10378 0.58063 0.0
H69 H 0.87884 0.02068 0.49038 0.0
H70 H 0.01448 0.91015 0.55325 0.0
H71 H 0.16049 0.02703 0.54698 0.0
H72 H 0.9281 1.00488 0.53913 0.0
H73 H 0.86957 0.07633 0.45492 0.0
H74 H 0.10629 0.02628 0.51061 0.0
H75 H 0.03158 0.16021 0.54823 0.0
H76 H 0.88883 0.1321 0.4441 0.0
H77 H 0.93024 0.16997 0.45993 0.0
H78 H 0.03337 0.86035 0.60109 0.0
H79 H 0.9836 0.18065 0.49846 0.0
H80 H 0.18209 0.98154 0.6019 0.0
N81 N 0.05771 0.93361 0.56467 0.0
C82 C 0.08803 0.93131 0.58445 0.0
C83 C 0.04895 0.88017 0.59683 0.0
C84 C 0.09993 0.90328 0.61179 0.0
C85 C 0.03821 0.90848 0.57001 0.0
C86 C 0.07992 0.87757 0.61791 0.0
N87 N 0.09449 0.98405 0.55088 0.0
C88 C 0.11408 0.00776 0.53746 0.0
C89 C 0.13857 0.95588 0.59738 0.0
C90 C 0.10685 0.95754 0.5779 0.0
C91 C 0.15762 0.98183 0.58755 0.0
C92 C 0.14546 0.00764 0.55679 0.0
H93 H 0.08816 0.85563 0.63871 0.0
H94 H 0.14088 0.88054 0.65321 0.0
H95 H 0.17495 0.9262 0.63926 0.0
O96 O 0.06328 0.98951 0.46455 0.0
O97 O 0.04248 0.97159 0.59176 0.0
O98 O 0.03949 0.02032 0.61035 0.0
O99 O 0.04508 0.94415 0.48665 0.0
O100 O 0.05098 0.03196 0.50873 0.0
O101 O 0.04394 0.04896 0.57119 0.0
O102 O 0.96534 0.02415 0.6209 0.0
O103 O 0.991 0.04671 0.50342 0.0
O104 O 0.99721 0.99805 0.48547 0.0
O105 O 0.99017 0.06756 0.62013 0.0
O106 O 0.98196 0.98897 0.58343 0.0
O107 O 0.99417 0.96667 0.52661 0.0
C108 C 0.04911 0.99078 0.61931 0.0
C109 C 0.04237 0.96009 0.41164 0.0
C110 C 0.04712 0.95119 0.33909 0.0
C111 C 0.01409 0.95318 0.32887 0.0
C112 C 1.00966 0.96187 0.40051 0.0
C113 C 0.99567 0.95886 0.35917 0.0
C114 C 0.061 0.95539 0.38074 0.0
C115 C 0.05652 0.05192 0.53565 0.0
C116 C 0.05725 0.96161 0.45592 0.0
C117 C 0.13124 0.90187 0.63213 0.0
C118 C 0.15056 0.92802 0.62467 0.0
C119 C 0.98692 0.02729 0.47588 0.0
C120 C 0.98106 0.03986 0.68773 0.0
C121 C 0.97392 0.04722 0.76001 0.0
C122 C 0.99896 0.02578 0.77737 0.0
C123 C 1.005 0.01778 0.706 0.0
C124 C 0.96532 0.05427 0.71474 0.0
C125 C 0.01412 0.01101 0.75053 0.0
C126 C 0.97806 0.96746 0.55855 0.0
C127 C 0.97221 0.04779 0.64059 0.0
H128 H 1.00214 0.94939 0.29793 0.0
H129 H 0.99496 0.96489 0.42408 0.0
H130 H 0.97036 0.96008 0.35091 0.0
H131 H 0.08627 0.95466 0.38966 0.0
H132 H 1.007 0.02037 0.81173 0.0
H133 H 0.01644 0.00571 0.68574 0.0
H134 H 0.94605 0.07045 0.70033 0.0
H135 H 0.03296 0.99421 0.76432 0.0
Tb136 Tb 0.48543 0.49248 1.00498 0.0
C137 C 0.60727 0.56216 0.04664 0.0
N138 N 0.59938 0.53286 0.06543 0.0
C139 C 0.64987 0.51272 0.05988 0.0
C140 C 0.63679 0.56774 0.03301 0.0
C141 C 0.62029 0.5083 0.07281 0.0
C142 C 0.65813 0.54254 0.03978 0.0
C143 C 0.5924 0.61692 0.02005 0.0
C144 C 0.58504 0.58627 0.03959 0.0
C145 C 0.62181 0.62262 1.00644 0.0
C146 C 0.64387 0.59808 1.0127 0.0
Tb147 Tb 0.55087 0.52874 0.08591 0.0
N148 N 0.55657 0.57982 0.0527 0.0
C149 C 0.57029 0.64109 0.01583 0.0
C150 C 0.5362 0.60396 0.05186 0.0
C151 C 0.54227 0.63462 0.03228 0.0
H152 H 0.61441 0.48546 0.08941 0.0
H153 H 0.52572 0.65342 0.03104 0.0
H154 H 0.42638 0.54339 0.96813 0.0
H155 H 0.49041 0.37324 0.09502 0.0
H156 H 0.5159 0.60039 0.0679 0.0
H157 H 0.57512 0.66504 1.00167 0.0
H158 H 0.51142 0.4204 0.05378 0.0
H159 H 0.66634 0.49317 0.06566 0.0
H160 H 0.62791 0.646 0.99148 0.0
H161 H 0.66641 0.60285 1.00192 0.0
H162 H 0.37017 0.54665 0.97451 0.0
H163 H 0.68104 0.54586 0.02971 0.0
H164 H 0.43464 0.37202 0.10548 0.0
N165 N 0.43295 0.49751 1.00616 0.0
C166 C 0.41915 0.47215 0.02743 0.0
C167 C 0.38373 0.52562 0.98978 0.0
C168 C 0.38707 0.47277 0.03148 0.0
C169 C 0.41567 0.52388 0.98672 0.0
C170 C 0.36938 0.50001 1.01244 0.0
N171 N 0.46872 0.44673 0.04296 0.0
C172 C 0.4874 0.42071 0.05895 0.0
C173 C 0.42439 0.41911 0.06914 0.0
C174 C 0.43754 0.44571 0.04604 0.0
C175 C 0.44382 0.39295 0.08747 0.0
C176 C 0.47537 0.39364 0.08189 0.0
H177 H 0.34465 0.50146 0.01484 0.0
H178 H 0.34923 0.4464 0.05822 0.0
H179 H 0.38191 0.39942 0.09121 0.0
O180 O 0.49496 0.46135 0.96497 0.0
O181 O 0.47747 0.48916 0.07231 0.0
O182 O 0.52582 0.48788 0.11573 0.0
O183 O 0.45746 0.49535 0.94401 0.0
O184 O 0.5334 0.47249 0.0189 0.0
O185 O 0.55515 0.47815 0.08818 0.0
O186 O 0.54794 0.55299 0.13698 0.0
O187 O 0.5583 0.52796 0.01913 0.0
O188 O 0.50958 0.53474 0.97794 0.0
O189 O 0.58768 0.52354 0.13798 0.0
O190 O 0.50204 0.54617 0.07611 0.0
O191 O 0.48204 0.54283 1.00565 0.0
C192 C 0.49552 0.48215 0.10999 0.0
C193 C 0.48361 0.48079 0.89048 0.0
C194 C 0.4785 0.47289 0.81577 0.0
C195 C 0.50481 0.49202 0.81021 0.0
C196 C 0.50996 0.49946 0.88425 0.0
C197 C 0.52031 0.50528 0.84422 0.0
C198 C 0.46778 0.46768 0.85609 0.0
C199 C 0.55335 0.4639 0.05475 0.0
C200 C 0.4735 0.47359 0.93326 0.0
C201 C 0.37382 0.44635 0.0546 0.0
C202 C 0.39243 0.41958 0.07339 0.0
C203 C 0.54002 0.53938 0.98298 0.0
C204 C 0.57367 0.52782 0.20505 0.0
C205 C 0.58169 0.53508 0.2801 0.0
C206 C 0.57707 0.50265 0.29297 0.0
C207 C 0.56835 0.4957 0.21861 0.0
C208 C 0.58004 0.54749 0.23579 0.0
C209 C 0.57 0.48323 0.26241 0.0
C210 C 0.48157 0.55465 0.04077 0.0
C211 C 0.5741 0.54086 0.15923 0.0
H212 H 0.51335 0.49676 0.77948 0.0
H213 H 0.52278 0.50909 0.91053 0.0
H214 H 0.54062 0.51984 0.8397 0.0
H215 H 0.44778 0.45271 0.86109 0.0
H216 H 0.57962 0.49216 0.32679 0.0
H217 H 0.56366 0.48018 0.19541 0.0
H218 H 0.5838 0.57237 0.22517 0.0
H219 H 0.56633 0.45834 0.27276 0.0
H220 H 0.2325 0.29433 0.45412 0.0
H221 H 0.1909 0.25523 0.4628 0.0
H222 H 0.26001 0.18048 0.48284 0.0
H223 H 0.30123 0.21992 0.47242 0.0
H224 H 0.20884 0.16376 0.4383 0.0
H225 H 0.23249 0.20542 0.56753 0.0
H226 H 0.24059 0.24699 0.61158 0.0
H227 H 0.1443 0.27675 0.5721 0.0
H228 H 0.13578 0.23571 0.52712 0.0
H229 H 0.09821 0.07603 0.59381 0.0
H230 H 0.13851 0.11524 0.57884 0.0
H231 H 0.10477 0.12564 0.44246 0.0
H232 H 0.06556 0.08517 0.4574 0.0
H233 H 0.14007 0.17313 0.54695 0.0
H234 H 0.16216 0.14409 0.38349 0.0
H235 H 0.15864 0.09857 0.34626 0.0
H236 H 0.17254 0.03536 0.46825 0.0
H237 H 0.17653 0.08053 0.50621 0.0
C238 C 0.23845 0.26949 0.45969 0.0
C239 C 0.2697 0.25982 0.46254 0.0
C240 C 0.21487 0.2472 0.46494 0.0
C241 C 0.22234 0.21483 0.47426 0.0
C242 C 0.2536 0.20524 0.4757 0.0
C243 C 0.27711 0.22762 0.46985 0.0
C244 C 0.19786 0.1911 0.48437 0.0
C245 C 0.19377 0.16585 0.462 0.0
C246 C 0.17868 0.19325 0.51613 0.0
C247 C 0.18357 0.21767 0.54363 0.0
C248 C 0.21309 0.22096 0.56802 0.0
C249 C 0.21776 0.24442 0.59316 0.0
C250 C 0.19299 0.26454 0.59457 0.0
C251 C 0.16348 0.26118 0.57092 0.0
C252 C 0.15871 0.23781 0.5456 0.0
C253 C 0.09937 0.08685 0.56068 0.0
C254 C 0.07899 0.07752 0.52671 0.0
C255 C 0.12239 0.10927 0.55211 0.0
C256 C 0.12518 0.12311 0.50943 0.0
C257 C 0.10379 0.11473 0.47558 0.0
C258 C 0.08124 0.09178 0.48411 0.0
C259 C 0.15069 0.14594 0.50048 0.0
C260 C 0.15503 0.17104 0.52313 0.0
C261 C 0.17085 0.14297 0.47014 0.0
C262 C 0.16934 0.11568 0.44764 0.0
C263 C 0.16464 0.12048 0.40235 0.0
C264 C 0.16251 0.09475 0.38114 0.0
C265 C 0.16525 0.0641 0.4049 0.0
C266 C 0.17029 0.05912 0.44992 0.0
C267 C 0.17247 0.08476 0.47129 0.0
H268 H 0.16353 0.04421 0.38842 0.0
H269 H 0.19665 0.28269 0.61406 0.0
H270 H 0.23963 0.73523 1.00299 0.0
H271 H 0.28003 0.69517 1.00505 0.0
H272 H 0.34746 0.74724 0.07813 0.0
H273 H 0.30701 0.78743 0.07547 0.0
H274 H 0.37165 0.72817 1.0127 0.0
H275 H 0.31622 0.68213 0.12779 0.0
H276 H 0.26963 0.66372 0.16099 0.0
H277 H 0.25062 0.59778 0.07492 0.0
H278 H 0.29686 0.61614 0.04074 0.0
H279 H 0.45778 0.568 0.10986 0.0
H280 H 0.41851 0.60822 0.11039 0.0
H281 H 0.4117 0.63585 0.97236 0.0
H282 H 0.45149 0.59604 0.97178 0.0
H283 H 0.35814 0.61536 0.07298 0.0
H284 H 0.39823 0.71086 0.94392 0.0
H285 H 0.44689 0.73057 0.91678 0.0
H286 H 0.49976 0.69982 0.04255 0.0
H287 H 0.45158 0.67919 0.07004 0.0
C288 C 0.26312 0.73793 0.01946 0.0
C289 C 0.27041 0.76416 0.03917 0.0
C290 C 0.28609 0.71509 0.02079 0.0
C291 C 0.31672 0.71815 0.04193 0.0
C292 C 0.32399 0.74443 0.06164 0.0
C293 C 0.30095 0.76718 0.06044 0.0
C294 C 0.34125 0.69406 0.04322 0.0
C295 C 0.36864 0.70351 0.02583 0.0
C296 C 0.33755 0.66193 0.0608 0.0
C297 C 0.30983 0.65073 0.08143 0.0
C298 C 0.30196 0.66388 0.11571 0.0
C299 C 0.27564 0.65343 0.13474 0.0
C300 C 0.25713 0.62965 0.12001 0.0
C301 C 0.26495 0.61623 0.08626 0.0
C302 C 0.29123 0.62663 0.06707 0.0
C303 C 0.448 0.58274 0.07964 0.0
C304 C 0.45754 0.57878 0.04073 0.0
C305 C 0.42547 0.60561 0.07998 0.0
C306 C 0.41229 0.62518 0.04148 0.0
C307 C 0.42179 0.62125 1.00253 0.0
C308 C 0.44429 0.59832 1.00217 0.0
C309 C 0.38838 0.64944 0.04213 0.0
C310 C 0.36106 0.64001 0.05973 0.0
C311 C 0.39232 0.68166 0.02539 0.0
C312 C 0.42142 0.69334 1.00887 0.0
C313 C 0.4203 0.70819 0.96566 0.0
C314 C 0.4478 0.71936 0.95018 0.0
C315 C 0.47646 0.71619 0.97783 0.0
C316 C 0.47765 0.70185 0.02101 0.0
C317 C 0.4503 0.69025 0.03649 0.0
H318 H 0.49771 0.72496 0.96586 0.0
H319 H 0.23676 0.62159 0.13479 0.0
H320 H 0.78657 0.73438 0.59198 0.0
H321 H 0.82906 0.7721 0.58288 0.0
H322 H 0.78283 0.83491 0.64548 0.0
H323 H 0.73933 0.79782 0.65178 0.0
H324 H 0.80241 0.86794 0.5805 0.0
H325 H 0.85183 0.78946 0.69487 0.0
H326 H 0.86906 0.73616 0.73283 0.0
H327 H 0.92418 0.72742 0.63411 0.0
H328 H 0.90693 0.78052 0.59521 0.0
H329 H 0.93923 0.96137 0.62005 0.0
H330 H 0.89866 0.92224 0.63274 0.0
H331 H 0.92137 0.87888 0.52967 0.0
H332 H 0.96126 0.9187 0.51531 0.0
H333 H 0.91499 0.83668 0.61706 0.0
H334 H 0.86187 0.91665 0.50267 0.0
H335 H 0.84626 0.97152 0.47032 0.0
H336 H 0.79967 0.9785 0.57811 0.0
H337 H 0.81535 0.92371 0.61134 0.0
C338 C 0.78563 0.75632 0.60365 0.0
C339 C 0.75973 0.76345 0.62222 0.0
C340 C 0.81002 0.77774 0.59892 0.0
C341 C 0.80952 0.80633 0.614 0.0
C342 C 0.78386 0.81309 0.63352 0.0
C343 C 0.75916 0.79186 0.6375 0.0
C344 C 0.83513 0.8296 0.60793 0.0
C345 C 0.82697 0.86103 0.58917 0.0
C346 C 0.86736 0.82081 0.6186 0.0
C347 C 0.87784 0.78887 0.64192 0.0
C348 C 0.86744 0.77609 0.68108 0.0
C349 C 0.87724 0.74592 0.7028 0.0
C350 C 0.89764 0.72839 0.68584 0.0
C351 C 0.90834 0.74101 0.64718 0.0
C352 C 0.89859 0.77116 0.6253 0.0
C353 C 0.93574 0.94357 0.59997 0.0
C354 C 0.95384 0.94315 0.56682 0.0
C355 C 0.91252 0.92119 0.60738 0.0
C356 C 0.90719 0.89765 0.58228 0.0
C357 C 0.92536 0.89678 0.54958 0.0
C358 C 0.94818 0.91956 0.54151 0.0
C359 C 0.88201 0.87447 0.58959 0.0
C360 C 0.89033 0.84326 0.60861 0.0
C361 C 0.85 0.88352 0.57995 0.0
C362 C 0.84004 0.91622 0.55967 0.0
C363 C 0.8485 0.92997 0.51962 0.0
C364 C 0.83959 0.96103 0.50109 0.0
C365 C 0.82208 0.97853 0.52222 0.0
C366 C 0.81328 0.96493 0.56181 0.0
C367 C 0.82213 0.93386 0.58048 0.0
H368 H 0.81527 1.0026 0.50787 0.0
H369 H 0.9052 0.70504 0.7027 0.0
H370 H 0.78379 0.28558 0.03241 0.0
H371 H 0.74356 0.32548 0.03215 0.0
H372 H 0.68347 0.25227 0.0844 0.0
H373 H 0.72366 0.21255 0.08368 0.0
H374 H 0.64994 0.29435 0.02383 0.0
H375 H 0.72533 0.29709 0.14882 0.0
H376 H 0.7781 0.3008 0.18983 0.0
H377 H 0.78771 0.39378 0.11803 0.0
H378 H 0.73517 0.39042 0.07605 0.0
H379 H 0.58756 0.42849 0.1263 0.0
H380 H 0.6249 0.38576 0.12878 0.0
H381 H 0.60774 0.39843 0.98992 0.0
H382 H 0.57 0.44057 0.98726 0.0
H383 H 0.67841 0.38385 0.09933 0.0
H384 H 0.61388 0.32897 0.95758 0.0
H385 H 0.5596 0.3229 0.92261 0.0
H386 H 0.52519 0.32894 0.04035 0.0
H387 H 0.57927 0.33448 0.07622 0.0
C388 C 0.7618 0.27826 0.04339 0.0
C389 C 0.75649 0.24633 0.05804 0.0
C390 C 0.73897 0.3009 0.0435 0.0
C391 C 0.71062 0.2919 0.05875 0.0
C392 C 0.70511 0.25978 0.07251 0.0
C393 C 0.72795 0.23717 0.07223 0.0
C394 C 0.68702 0.31601 0.0612 0.0
C395 C 0.65617 0.31393 0.0403 0.0
C396 C 0.6949 0.34115 0.08361 0.0
C397 C 0.72642 0.34338 0.10902 0.0
C398 C 0.73879 0.31824 0.14155 0.0
C399 C 0.76865 0.32029 0.165 0.0
C400 C 0.78628 0.34748 0.15648 0.0
C401 C 0.77404 0.37271 0.12456 0.0
C402 C 0.74421 0.37076 0.10094 0.0
C403 C 0.59169 0.42208 0.09632 0.0
C404 C 0.57572 0.43781 0.0566 0.0
C405 C 0.6131 0.39773 0.09777 0.0
C406 C 0.61891 0.38862 0.05958 0.0
C407 C 0.60322 0.40458 0.01988 0.0
C408 C 0.58166 0.42872 0.01841 0.0
C409 C 0.6415 0.36259 0.06113 0.0
C410 C 0.67216 0.36429 0.08283 0.0
C411 C 0.63321 0.33667 0.0404 0.0
C412 C 0.60064 0.33241 0.01946 0.0
C413 C 0.59475 0.32878 0.97608 0.0
C414 C 0.56401 0.32547 0.95609 0.0
C415 C 0.53896 0.32561 0.9792 0.0
C416 C 0.5446 0.32891 0.02244 0.0
C417 C 0.5753 0.33214 0.04261 0.0
H418 H 0.51518 0.32313 0.96363 0.0
H419 H 0.80939 0.34903 0.17468 0.0
H420 H 0.15286 0.83336 0.04356 0.0
H421 H 0.1246 0.86042 0.08809 0.0
H422 H 0.21244 0.87742 0.16433 0.0
H423 H 0.24086 0.85225 0.11812 0.0
H424 H 0.15284 0.84097 0.20452 0.0
H425 H 0.1913 0.93565 0.11731 0.0
H426 H 0.1959 0.96765 0.04622 0.0
H427 H 0.09547 0.97423 0.01503 0.0
H428 H 0.09029 0.94163 0.08561 0.0
H429 H 0.10424 0.91943 0.35537 0.0
H430 H 0.13401 0.90357 0.30416 0.0
H431 H 0.06292 0.94454 0.19927 0.0
H432 H 0.03497 0.96431 0.24981 0.0
H433 H 0.11269 0.95118 0.16989 0.0
H434 H 0.06945 0.86074 0.24782 0.0
H435 H 0.05738 0.82306 0.31101 0.0
H436 H 0.1556 0.80201 0.35133 0.0
H437 H 0.1683 0.83988 0.28867 0.0
C438 C 0.16613 0.84362 0.06909 0.0
C439 C 0.19903 0.84065 0.07757 0.0
C440 C 0.14999 0.85879 0.09466 0.0
C441 C 0.16651 0.87077 0.12945 0.0
C442 C 0.19935 0.86823 0.13762 0.0
C443 C 0.2155 0.85372 0.11148 0.0
C444 C 0.14948 0.8844 0.15884 0.0
C445 C 0.14439 0.86519 0.19744 0.0
C446 C 0.13724 0.91545 0.14828 0.0
C447 C 0.14042 0.93592 0.10654 0.0
C448 C 0.1702 0.94367 0.09514 0.0
C449 C 0.17291 0.96195 0.05495 0.0
C450 C 0.14599 0.97288 0.02606 0.0
C451 C 0.11631 0.96573 0.03743 0.0
C452 C 0.11347 0.94735 0.07751 0.0
C453 C 0.09515 0.92608 0.32145 0.0
C454 C 0.06659 0.94295 0.30732 0.0
C455 C 0.11204 0.91624 0.292 0.0
C456 C 0.10024 0.92163 0.24772 0.0
C457 C 0.07247 0.93954 0.23324 0.0
C458 C 0.05612 0.95041 0.26253 0.0
C459 C 0.11642 0.90796 0.21684 0.0
C460 C 0.12116 0.92699 0.17757 0.0
C461 C 0.12735 0.87621 0.22604 0.0
C462 C 0.11984 0.85339 0.26378 0.0
C463 C 0.08849 0.84823 0.27033 0.0
C464 C 0.08153 0.82682 0.30602 0.0
C465 C 0.10571 0.81022 0.33523 0.0
C466 C 0.1369 0.81493 0.32872 0.0
C467 C 0.14399 0.83634 0.2931 0.0
H468 H 0.10028 0.79365 0.36284 0.0
H469 H 0.14813 0.98695 0.99492 0.0
H470 H 0.71815 0.65871 0.71207 0.0
H471 H 0.68702 0.62888 0.76382 0.0
H472 H 0.60514 0.68492 0.70137 0.0
H473 H 0.63675 0.71505 0.65021 0.0
H474 H 0.61086 0.68041 0.7865 0.0
H475 H 0.61202 0.60869 0.69089 0.0
H476 H 0.63504 0.57655 0.64676 0.0
H477 H 0.6878 0.52252 0.76096 0.0
H478 H 0.6656 0.55479 0.80578 0.0
H479 H 0.51113 0.58138 0.91391 0.0
H480 H 0.53421 0.60925 0.85238 0.0
H481 H 0.62388 0.565 0.90729 0.0
H482 H 0.60051 0.53584 0.96771 0.0
H483 H 0.60889 0.56373 0.82067 0.0
H484 H 0.62268 0.65653 0.90248 0.0
H485 H 0.60111 0.69247 0.94324 0.0
H486 H 0.51608 0.70353 0.85213 0.0
H487 H 0.5379 0.66896 0.80967 0.0
C488 C 0.69348 0.66444 0.70959 0.0
C489 C 0.67976 0.68927 0.67787 0.0
C490 C 0.67565 0.64734 0.73882 0.0
C491 C 0.64363 0.65453 0.73646 0.0
C492 C 0.62978 0.67897 0.70396 0.0
C493 C 0.64768 0.69605 0.67472 0.0
C494 C 0.62511 0.63742 0.76906 0.0
C495 C 0.61001 0.6549 0.7933 0.0
C496 C 0.6241 0.6041 0.77846 0.0
C497 C 0.63732 0.58437 0.75171 0.0
C498 C 0.62872 0.59012 0.70661 0.0
C499 C 0.64161 0.57186 0.68145 0.0
C500 C 0.66291 0.54754 0.70104 0.0
C501 C 0.67132 0.5414 0.74583 0.0
C502 C 0.65858 0.55967 0.77114 0.0
C503 C 0.53579 0.57766 0.91293 0.0
C504 C 0.55416 0.55686 0.94616 0.0
C505 C 0.54905 0.59388 0.87793 0.0
C506 C 0.58099 0.58984 0.8756 0.0
C507 C 0.59926 0.56878 0.90853 0.0
C508 C 0.58596 0.55239 0.94334 0.0
C509 C 0.59526 0.60678 0.83836 0.0
C510 C 0.60956 0.58924 0.81333 0.0
C511 C 0.59516 0.64 0.82765 0.0
C512 C 0.58164 0.65992 0.85346 0.0
C513 C 0.59934 0.66657 0.89135 0.0
C514 C 0.58716 0.68679 0.91457 0.0
C515 C 0.55706 0.69986 0.90069 0.0
C516 C 0.53931 0.69324 0.86301 0.0
C517 C 0.55168 0.67361 0.83913 0.0
H518 H 0.54758 0.71528 0.91896 0.0
H519 H 0.67285 0.53341 0.68151 0.0
H520 H 0.81622 0.12417 0.10141 0.0
H521 H 0.84783 0.08883 0.16161 0.0
H522 H 0.90095 0.16832 0.1959 0.0
H523 H 0.86932 0.20331 0.13584 0.0
H524 H 0.93817 0.1137 0.20694 0.0
H525 H 0.83928 0.1465 0.24268 0.0
H526 H 0.78157 0.1515 0.23218 0.0
H527 H 0.77363 0.05095 0.2486 0.0
H528 H 0.83135 0.0454 0.25865 0.0
H529 H 0.98578 0.08702 0.43087 0.0
H530 H 0.95855 0.10681 0.35808 0.0
H531 H 0.92114 0.01452 0.35059 0.0
H532 H 0.94832 0.99455 0.4238 0.0
H533 H 0.87644 0.06637 0.32141 0.0
H534 H 0.97534 0.0327 0.29684 0.0
H535 H 0.03301 0.02741 0.3099 0.0
H536 H 0.04126 0.12753 0.27318 0.0
H537 H 0.98357 0.1335 0.26057 0.0
C538 C 0.83523 0.1337 0.12129 0.0
C539 C 0.84047 0.16621 0.1146 0.0
C540 C 0.85314 0.11369 0.15561 0.0
C541 C 0.87652 0.12604 0.18347 0.0
C542 C 0.88308 0.15829 0.17481 0.0
C543 C 0.86504 0.17824 0.14077 0.0
C544 C 0.89185 0.10637 0.22421 0.0
C545 C 0.92471 0.10331 0.23194 0.0
C546 C 0.87421 0.09222 0.25649 0.0
C547 C 0.83957 0.09555 0.2509 0.0
C548 C 0.82521 0.12548 0.24374 0.0
C549 C 0.79251 0.12841 0.23791 0.0
C550 C 0.77394 0.10156 0.23957 0.0
C551 C 0.78805 0.07172 0.24723 0.0
C552 C 0.82075 0.06867 0.25301 0.0
C553 C 0.97174 0.07095 0.41372 0.0
C554 C 0.96966 0.03911 0.43248 0.0
C555 C 0.9563 0.08224 0.37216 0.0
C556 C 0.93824 0.06199 0.34883 0.0
C557 C 0.93523 0.0304 0.368 0.0
C558 C 0.951 0.01898 0.40951 0.0
C559 C 0.92272 0.07421 0.30433 0.0
C560 C 0.88987 0.07605 0.29602 0.0
C561 C 0.94036 0.08703 0.27149 0.0
C562 C 0.97509 0.08358 0.278 0.0
C563 C 0.98943 0.05363 0.29178 0.0
C564 C 0.02214 0.05049 0.29909 0.0
C565 C 0.04079 0.07713 0.29244 0.0
C566 C 0.02677 0.10693 0.27832 0.0
C567 C 0.99405 0.1102 0.27102 0.0
H568 H 0.06611 0.07467 0.29817 0.0
H569 H 0.74863 0.10388 0.23504 0.0
H570 H 0.3898 0.3221 0.50352 0.0
H571 H 0.41715 0.35224 0.55568 0.0
H572 H 0.32887 0.39401 0.56602 0.0
H573 H 0.30201 0.36515 0.51195 0.0
H574 H 0.37285 0.43562 0.57368 0.0
H575 H 0.36098 0.32786 0.63741 0.0
H576 H 0.36592 0.27029 0.64457 0.0
H577 H 0.46638 0.27719 0.66153 0.0
H578 H 0.46202 0.33493 0.65374 0.0
H579 H 0.41554 0.47008 0.78625 0.0
H580 H 0.39048 0.44666 0.72526 0.0
H581 H 0.48135 0.41852 0.70315 0.0
H582 H 0.50645 0.44181 0.76394 0.0
H583 H 0.43662 0.37082 0.7012 0.0
H584 H 0.44606 0.48057 0.63939 0.0
H585 H 0.43828 0.53762 0.63459 0.0
H586 H 0.33836 0.52571 0.61811 0.0
H587 H 0.34556 0.46849 0.62343 0.0
C588 C 0.37655 0.33866 0.51571 0.0
C589 C 0.34391 0.34148 0.50374 0.0
C590 C 0.39204 0.35548 0.54608 0.0
C591 C 0.37499 0.37487 0.5657 0.0
C592 C 0.34258 0.37912 0.55166 0.0
C593 C 0.32722 0.36261 0.52091 0.0
C594 C 0.39039 0.38896 0.60276 0.0
C595 C 0.38655 0.42136 0.60169 0.0
C596 C 0.40844 0.37049 0.63941 0.0
C597 C 0.41116 0.33575 0.64455 0.0
C598 C 0.38412 0.31713 0.64238 0.0
C599 C 0.38682 0.28446 0.64657 0.0
C600 C 0.41645 0.2701 0.6534 0.0
C601 C 0.44345 0.28837 0.65617 0.0
C602 C 0.44088 0.32106 0.65187 0.0
C603 C 0.43011 0.45874 0.76851 0.0
C604 C 0.46297 0.45794 0.77973 0.0
C605 C 0.41581 0.44555 0.73354 0.0
C606 C 0.43409 0.43109 0.70942 0.0
C607 C 0.46681 0.42966 0.72119 0.0
C608 C 0.48112 0.44313 0.75576 0.0
C609 C 0.41919 0.41739 0.6719 0.0
C610 C 0.42304 0.38504 0.67304 0.0
C611 C 0.40072 0.43579 0.63573 0.0
C612 C 0.39636 0.47021 0.63223 0.0
C613 C 0.42243 0.49008 0.63509 0.0
C614 C 0.41813 0.52245 0.63221 0.0
C615 C 0.38784 0.53527 0.62615 0.0
C616 C 0.3618 0.51575 0.62285 0.0
C617 C 0.36598 0.48335 0.62576 0.0
H618 H 0.38456 0.56034 0.62394 0.0
H619 H 0.41849 0.2448 0.65665 0.0
H620 H 0.69492 0.64786 0.61612 0.0
H621 H 0.66895 0.61683 0.56392 0.0
H622 H 0.62328 0.70128 0.48748 0.0
H623 H 0.64803 0.73174 0.54095 0.0
H624 H 0.58625 0.65307 0.47978 0.0
H625 H 0.69407 0.67619 0.4685 0.0
H626 H 0.75079 0.67701 0.4952 0.0
H627 H 0.75365 0.57594 0.52405 0.0
H628 H 0.69681 0.57454 0.49807 0.0
H629 H 0.6254 0.58179 0.28282 0.0
H630 H 0.63891 0.61326 0.33929 0.0
H631 H 0.56909 0.56479 0.40956 0.0
H632 H 0.55434 0.53473 0.35211 0.0
H633 H 0.66336 0.59669 0.41908 0.0
H634 H 0.54156 0.61056 0.47151 0.0
H635 H 0.48578 0.61619 0.43892 0.0
H636 H 0.51233 0.65415 0.31562 0.0
H637 H 0.56822 0.64914 0.34756 0.0
C638 C 0.67848 0.65942 0.58888 0.0
C639 C 0.67384 0.69213 0.58179 0.0
C640 C 0.66391 0.64185 0.55888 0.0
C641 C 0.6449 0.6569 0.52106 0.0
C642 C 0.6381 0.68918 0.51608 0.0
C643 C 0.65238 0.70661 0.54636 0.0
C644 C 0.63486 0.63997 0.48476 0.0
C645 C 0.60304 0.64054 0.46668 0.0
C646 C 0.6569 0.62452 0.46663 0.0
C647 C 0.69115 0.62527 0.48172 0.0
C648 C 0.70677 0.65415 0.48075 0.0
C649 C 0.73893 0.65472 0.49576 0.0
C650 C 0.7558 0.62655 0.51141 0.0
C651 C 0.74055 0.59774 0.51197 0.0
C652 C 0.70836 0.59704 0.4971 0.0
C653 C 0.61253 0.57827 0.3099 0.0
C654 C 0.58895 0.5555 0.31312 0.0
C655 C 0.62047 0.59607 0.34239 0.0
C656 C 0.60499 0.59153 0.37874 0.0
C657 C 0.58116 0.56909 0.3817 0.0
C658 C 0.57305 0.55152 0.34909 0.0
C659 C 0.61458 0.60932 0.41432 0.0
C660 C 0.64642 0.60898 0.43227 0.0
C661 C 0.59266 0.6258 0.43135 0.0
C662 C 0.55909 0.62914 0.41188 0.0
C663 C 0.53548 0.6202 0.43748 0.0
C664 C 0.50385 0.62327 0.41911 0.0
C665 C 0.49552 0.63541 0.3752 0.0
C666 C 0.51881 0.64462 0.34959 0.0
C667 C 0.55047 0.64162 0.3678 0.0
H668 H 0.47102 0.63776 0.36104 0.0
H669 H 0.7807 0.62703 0.52302 0.0
H670 H 0.87547 0.18338 0.04582 0.0
H671 H 0.90267 0.15703 0.99972 0.0
H672 H 0.81327 0.1323 0.93396 0.0
H673 H 0.78639 0.15648 0.98239 0.0
H674 H 0.85037 0.08683 0.93965 0.0
H675 H 0.85816 0.1974 0.89261 0.0
H676 H 0.87067 0.25231 0.89938 0.0
H677 H 0.96811 0.22692 0.93835 0.0
H678 H 0.95611 0.17172 0.9324 0.0
H679 H 0.94722 0.10665 0.74585 0.0
H680 H 0.91804 0.12927 0.79299 0.0
H681 H 0.93488 0.04463 0.88911 0.0
H682 H 0.96145 0.02078 0.84084 0.0
H683 H 0.93183 0.14602 0.86493 0.0
H684 H 0.87891 0.03136 0.95116 0.0
H685 H 0.85969 0.98017 0.93483 0.0
H686 H 0.84062 0.02025 0.8 0.0
H687 H 0.85933 0.07176 0.81557 0.0
C688 C 0.86178 0.17169 0.02212 0.0
C689 C 0.82887 0.17223 0.01722 0.0
C690 C 0.87726 0.15704 0.99534 0.0
C691 C 0.86006 0.14332 0.96246 0.0
C692 C 0.82716 0.14287 0.95875 0.0
C693 C 0.81176 0.15698 0.98607 0.0
C694 C 0.87616 0.13005 0.93135 0.0
C695 C 0.86821 0.09979 0.92339 0.0
C696 C 0.89883 0.1472 0.90899 0.0
C697 C 0.90618 0.18037 0.91246 0.0
C698 C 0.88222 0.20348 0.90291 0.0
C699 C 0.88923 0.23466 0.90656 0.0
C700 C 0.92015 0.24308 0.91939 0.0
C701 C 0.94416 0.22035 0.92848 0.0
C702 C 0.93727 0.18912 0.92495 0.0
C703 C 0.94417 0.09249 0.77659 0.0
C704 C 0.95672 0.06168 0.78915 0.0
C705 C 0.92778 0.10569 0.80386 0.0
C706 C 0.92379 0.08859 0.84455 0.0
C707 C 0.93691 0.05816 0.85757 0.0
C708 C 0.9527 0.0447 0.83003 0.0
C709 C 0.90626 0.10265 0.87354 0.0
C710 C 0.914 0.13304 0.88119 0.0
C711 C 0.88241 0.08617 0.89417 0.0
C712 C 0.87083 0.05533 0.88453 0.0
C713 C 0.8705 0.02927 0.91805 0.0
C714 C 0.85972 1.00019 0.90892 0.0
C715 C 0.84904 0.99693 0.86639 0.0
C716 C 0.84901 0.02277 0.83291 0.0
C717 C 0.85974 0.05191 0.84187 0.0
H718 H 0.84073 0.9744 0.85939 0.0
H719 H 0.92553 0.26723 0.92219 0.0
H720 H 0.31163 0.36687 0.38035 0.0
H721 H 0.34137 0.39512 0.32538 0.0
H722 H 0.42154 0.33438 0.37986 0.0
H723 H 0.39134 0.30588 0.43407 0.0
H724 H 0.43656 0.39846 0.35994 0.0
H725 H 0.37849 0.32058 0.29345 0.0
H726 H 0.33081 0.29222 0.27023 0.0
H727 H 0.29157 0.37728 0.18915 0.0
H728 H 0.33876 0.40634 0.21263 0.0
H729 H 0.52282 0.44234 0.18318 0.0
H730 H 0.49701 0.41472 0.24235 0.0
H731 H 0.40857 0.45831 0.17918 0.0
H732 H 0.43418 0.4856 0.12015 0.0
H733 H 0.3988 0.40036 0.20482 0.0
H734 H 0.45419 0.47936 0.27461 0.0
H735 H 0.49639 0.51 0.30858 0.0
H736 H 0.53823 0.42493 0.3864 0.0
H737 H 0.49665 0.39375 0.3525 0.0
C738 C 0.33579 0.36011 0.38077 0.0
C739 C 0.34965 0.3349 0.41167 0.0
C740 C 0.35264 0.37595 0.34933 0.0
C741 C 0.38362 0.36672 0.34839 0.0
C742 C 0.39772 0.34195 0.38008 0.0
C743 C 0.38068 0.32589 0.41116 0.0
C744 C 0.40118 0.38263 0.31402 0.0
C745 C 0.42867 0.39853 0.32597 0.0
C746 C 0.39032 0.38325 0.26976 0.0
C747 C 0.36206 0.36573 0.25518 0.0
C748 C 0.35958 0.33333 0.27098 0.0
C749 C 0.33265 0.31711 0.25774 0.0
C750 C 0.30814 0.33295 0.22831 0.0
C751 C 0.31056 0.36504 0.212 0.0
C752 C 0.3374 0.38141 0.22528 0.0
C753 C 0.498 0.44643 0.18236 0.0
C754 C 0.48062 0.46632 0.14708 0.0
C755 C 0.48321 0.4306 0.21623 0.0
C756 C 0.45078 0.43458 0.21571 0.0
C757 C 0.43355 0.45468 0.18053 0.0
C758 C 0.44825 0.47031 0.1467 0.0
C759 C 0.43432 0.41692 0.25053 0.0
C760 C 0.40696 0.40039 0.23868 0.0
C761 C 0.44524 0.41589 0.29499 0.0
C762 C 0.47241 0.43422 0.31082 0.0
C763 C 0.47276 0.46714 0.29827 0.0
C764 C 0.49645 0.48461 0.31775 0.0
C765 C 0.5197 0.46938 0.34995 0.0
C766 C 0.52005 0.43665 0.36167 0.0
C767 C 0.4965 0.41909 0.34228 0.0
H768 H 0.53735 0.48287 0.36619 0.0
H769 H 0.28732 0.32035 0.21807 0.0
H770 H 0.21852 0.889 0.99509 0.0
H771 H 0.18961 0.92674 0.93491 0.0
H772 H 0.1311 0.85152 0.89746 0.0
H773 H 0.16044 0.81403 0.95692 0.0
H774 H 0.18678 0.91881 0.84655 0.0
H775 H 0.05653 0.88573 0.85716 0.0
H776 H 0.02346 0.86826 0.91343 0.0
H777 H 0.08574 0.91178 1.00304 0.0
H778 H 0.11872 0.93042 0.94703 0.0
H779 H 0.05788 0.92955 0.66075 0.0
H780 H 0.08681 0.91008 0.73266 0.0
H781 H 0.10648 0.00546 0.74965 0.0
H782 H 0.07976 0.02506 0.67647 0.0
H783 H 0.07178 0.93898 0.81604 0.0
H784 H 0.16215 0.99811 0.75923 0.0
H785 H 0.19644 0.01165 0.70348 0.0
H786 H 0.21662 0.91357 0.71101 0.0
H787 H 0.18121 0.89945 0.76529 0.0
C788 C 0.19901 0.88094 0.97438 0.0
C789 C 0.1914 0.84895 0.98017 0.0
C790 C 0.18268 0.9023 0.9401 0.0
C791 C 0.1582 0.89187 0.9119 0.0
C792 C 0.14971 0.86007 0.91911 0.0
C793 C 0.16635 0.83874 0.95285 0.0
C794 C 0.1433 0.91319 0.8725 0.0
C795 C 0.16174 0.92387 0.84026 0.0
C796 C 0.11059 0.91937 0.86424 0.0
C797 C 0.09028 0.90926 0.89784 0.0
C798 C 0.06304 0.89187 0.88872 0.0
C799 C 0.0443 0.88177 0.9206 0.0
C800 C 0.05252 0.88891 0.96178 0.0
C801 C 0.07942 0.90632 0.97112 0.0
C802 C 0.09815 0.91665 0.93929 0.0
C803 C 0.06929 0.94633 0.67913 0.0
C804 C 0.06714 0.97879 0.66244 0.0
C805 C 0.08545 0.9352 0.72043 0.0
C806 C 0.09923 0.95634 0.74605 0.0
C807 C 0.0967 0.98876 0.72991 0.0
C808 C 0.08122 0.99988 0.6882 0.0
C809 C 0.11528 0.94426 0.79023 0.0
C810 C 0.09696 0.9348 0.82301 0.0
C811 C 0.14811 0.93926 0.79918 0.0
C812 C 0.16848 0.94774 0.76553 0.0
C813 C 0.17325 0.97943 0.74818 0.0
C814 C 0.19299 0.98721 0.71696 0.0
C815 C 0.20858 0.96348 0.70355 0.0
C816 C 0.20444 0.93193 0.7213 0.0
C817 C 0.18435 0.92402 0.75201 0.0
H818 H 0.22395 0.96954 0.67951 0.0
H819 H 0.03805 0.88096 0.98646 0.0
loop_
_geom_bond_atom_site_label_1
_geom_bond_atom_site_label_2
_geom_bond_distance
_geom_bond_site_symmetry_2
_ccdc_geom_bond_type
C0 N1 1.317 1_556 S
C0 N2 1.348 1_556 S
C0 C3 1.485 . S
N1 C0 1.317 1_554 S
N1 N5 1.370 . S
N2 C0 1.348 1_554 S
N2 C4 1.346 . S
C3 C0 1.485 . S
C3 H7 0.960 . S
C3 H8 0.961 . S
C3 H9 0.960 . S
C4 N2 1.346 . S
C4 N5 1.307 . S
C4 C6 1.486 . S
N5 N1 1.370 . S
N5 C4 1.307 . S
C6 C4 1.486 . S
C6 H10 0.960 . S
C6 H11 0.960 . S
C6 H12 0.959 . S
H7 C3 0.960 . S
H8 C3 0.961 . S
H9 C3 0.960 . S
H10 C6 0.960 . S
H11 C6 0.960 . S
H12 C6 0.959 . S
C13 N14 1.317 . S
C13 N15 1.348 . S
C13 C16 1.485 . S
N14 C13 1.317 . S
N14 N18 1.370 . S
N15 C13 1.348 . S
N15 C17 1.346 . S
C16 C13 1.485 . S
C16 H20 0.960 . S
C16 H21 0.961 . S
C16 H22 0.960 . S
C17 N15 1.346 . S
C17 N18 1.307 . S
C17 C19 1.486 . S
N18 N14 1.370 . S
N18 C17 1.307 . S
C19 C17 1.486 . S
C19 H23 0.960 . S
C19 H24 0.960 . S
C19 H25 0.959 . S
H20 C16 0.960 . S
H21 C16 0.961 . S
H22 C16 0.960 . S
H23 C19 0.960 . S
H24 C19 0.960 . S
H25 C19 0.959 . S
C26 N27 1.317 . S
C26 N28 1.348 . S
C26 C29 1.485 . S
N27 C26 1.317 . S
N27 N31 1.370 . S
N28 C26 1.348 . S
N28 C30 1.346 . S
C29 C26 1.485 . S
C29 H33 0.960 . S
C29 H34 0.961 . S
C29 H35 0.960 . S
C30 N28 1.346 . S
C30 N31 1.307 . S
C30 C32 1.486 1_554 S
N31 N27 1.370 . S
N31 C30 1.307 . S
C32 C30 1.486 1_556 S
C32 H36 0.960 . S
C32 H37 0.960 . S
C32 H38 0.959 . S
H33 C29 0.960 . S
H34 C29 0.961 . S
H35 C29 0.960 . S
H36 C32 0.960 . S
H37 C32 0.960 . S
H38 C32 0.959 . S
C39 N40 1.317 . S
C39 N41 1.348 . S
C39 C42 1.485 . S
N40 C39 1.317 . S
N40 N44 1.370 . S
N41 C39 1.348 . S
N41 C43 1.346 . S
C42 C39 1.485 . S
C42 H46 0.960 . S
C42 H47 0.961 . S
C42 H48 0.960 . S
C43 N41 1.346 . S
C43 N44 1.307 . S
C43 C45 1.486 . S
N44 N40 1.370 . S
N44 C43 1.307 . S
C45 C43 1.486 . S
C45 H49 0.960 . S
C45 H50 0.960 . S
C45 H51 0.959 . S
H46 C42 0.960 . S
H47 C42 0.961 . S
H48 C42 0.960 . S
H49 C45 0.960 . S
H50 C45 0.960 . S
H51 C45 0.959 . S
Tb52 N81 2.617 . S
Tb52 N87 2.572 . S
Tb52 O96 2.465 . S
Tb52 O97 2.387 . S
Tb52 O99 2.428 . S
Tb52 O100 2.308 1_565 S
Tb52 O104 2.349 1_465 S
Tb52 O107 2.393 1_455 S
Tb52 C116 2.802 . S
C53 N54 1.379 . S
C53 C56 1.416 . S
C53 C60 1.424 . S
N54 C53 1.379 . S
N54 C57 1.334 1_655 S
N54 Tb63 2.617 . S
C55 C57 1.390 . S
C55 C58 1.339 1_455 S
C55 H75 0.930 . S
C56 C53 1.416 . S
C56 C58 1.416 . S
C56 C62 1.448 . S
C57 N54 1.334 1_455 S
C57 C55 1.390 . S
C57 H68 0.930 . S
C58 C55 1.339 1_655 S
C58 C56 1.416 . S
C58 H79 0.930 . S
C59 C60 1.413 . S
C59 C61 1.427 . S
C59 C65 1.416 . S
C60 C53 1.424 . S
C60 C59 1.413 . S
C60 N64 1.361 . S
C61 C59 1.427 . S
C61 C62 1.328 . S
C61 H76 0.929 . S
C62 C56 1.448 . S
C62 C61 1.328 . S
C62 H77 0.930 . S
Tb63 N54 2.617 . S
Tb63 N64 2.572 . S
Tb63 O98 2.349 1_655 S
Tb63 O101 2.393 1_655 S
Tb63 O102 2.465 . S
Tb63 O103 2.387 . S
Tb63 O105 2.428 . S
Tb63 O106 2.308 1_545 S
Tb63 C127 2.802 . S
N64 C60 1.361 . S
N64 Tb63 2.572 . S
N64 C66 1.340 . S
C65 C59 1.416 . S
C65 C67 1.332 . S
C65 H73 0.931 . S
C66 N64 1.340 . S
C66 C67 1.407 . S
C66 H72 0.930 . S
C67 C65 1.332 . S
C67 C66 1.407 . S
C67 H69 0.929 . S
H68 C57 0.930 . S
H69 C67 0.929 . S
H70 C85 0.930 1_655 S
H71 C92 0.929 . S
H72 C66 0.930 . S
H73 C65 0.931 . S
H74 C88 0.930 . S
H75 C55 0.930 . S
H76 C61 0.929 . S
H77 C62 0.930 . S
H78 C83 0.930 1_655 S
H79 C58 0.930 . S
H80 C91 0.931 . S
N81 Tb52 2.617 . S
N81 C82 1.379 . S
N81 C85 1.334 . S
C82 N81 1.379 . S
C82 C84 1.416 . S
C82 C90 1.424 . S
C83 H78 0.930 1_455 S
C83 C85 1.390 . S
C83 C86 1.339 . S
C84 C82 1.416 . S
C84 C86 1.416 . S
C84 C117 1.448 . S
C85 H70 0.930 1_455 S
C85 N81 1.334 . S
C85 C83 1.390 . S
C86 C83 1.339 . S
C86 C84 1.416 . S
C86 H93 0.930 . S
N87 Tb52 2.572 . S
N87 C88 1.340 . S
N87 C90 1.361 . S
C88 H74 0.930 . S
C88 N87 1.340 . S
C88 C92 1.407 . S
C89 C90 1.413 . S
C89 C91 1.416 . S
C89 C118 1.427 . S
C90 C82 1.424 . S
C90 N87 1.361 . S
C90 C89 1.413 . S
C91 H80 0.931 . S
C91 C89 1.416 . S
C91 C92 1.332 . S
C92 H71 0.929 . S
C92 C88 1.407 . S
C92 C91 1.332 . S
H93 C86 0.930 . S
H94 C117 0.930 . S
H95 C118 0.929 . S
O96 Tb52 2.465 . S
O96 C116 1.264 . S
O97 Tb52 2.387 . S
O97 C108 1.264 . S
O98 Tb63 2.349 1_455 S
O98 C108 1.243 1_545 S
O99 Tb52 2.428 . S
O99 C116 1.256 . S
O100 Tb52 2.308 1_545 S
O100 C115 1.266 . S
O101 Tb63 2.393 1_455 S
O101 C115 1.248 . S
O102 Tb63 2.465 . S
O102 C127 1.264 . S
O103 Tb63 2.387 . S
O103 C119 1.264 . S
O104 Tb52 2.349 1_645 S
O104 C119 1.243 . S
O105 Tb63 2.428 . S
O105 C127 1.256 . S
O106 Tb63 2.308 1_565 S
O106 C126 1.266 . S
O107 Tb52 2.393 1_655 S
O107 C126 1.248 . S
C108 O97 1.264 . S
C108 O98 1.243 1_565 S
C109 C112 1.399 . S
C109 C114 1.383 . S
C109 C116 1.496 . S
C110 C111 1.399 . S
C110 C114 1.389 . S
C111 C110 1.399 . S
C111 C113 1.380 . S
C111 H128 0.929 . S
C112 C109 1.399 . S
C112 C113 1.392 . S
C112 H129 0.929 . S
C113 C111 1.380 . S
C113 C112 1.392 . S
C113 H130 0.929 . S
C114 C109 1.383 . S
C114 C110 1.389 . S
C114 H131 0.931 . S
C115 O100 1.266 . S
C115 O101 1.248 . S
C116 Tb52 2.802 . S
C116 O96 1.264 . S
C116 O99 1.256 . S
C116 C109 1.496 . S
C117 C84 1.448 . S
C117 H94 0.930 . S
C117 C118 1.328 . S
C118 C89 1.427 . S
C118 H95 0.929 . S
C118 C117 1.328 . S
C119 O103 1.264 . S
C119 O104 1.243 . S
C120 C123 1.399 . S
C120 C124 1.383 . S
C120 C127 1.496 . S
C121 C122 1.399 . S
C121 C124 1.389 . S
C122 C121 1.399 . S
C122 C125 1.380 . S
C122 H132 0.929 . S
C123 C120 1.399 . S
C123 C125 1.392 . S
C123 H133 0.929 . S
C124 C120 1.383 . S
C124 C121 1.389 . S
C124 H134 0.931 . S
C125 C122 1.380 . S
C125 C123 1.392 . S
C125 H135 0.929 . S
C126 O106 1.266 . S
C126 O107 1.248 . S
C127 Tb63 2.802 . S
C127 O102 1.264 . S
C127 O105 1.256 . S
C127 C120 1.496 . S
H128 C111 0.929 . S
H129 C112 0.929 . S
H130 C113 0.929 . S
H131 C114 0.931 . S
H132 C122 0.929 . S
H133 C123 0.929 . S
H134 C124 0.931 . S
H135 C125 0.929 . S
Tb136 N165 2.617 . S
Tb136 N171 2.572 1_556 S
Tb136 O180 2.465 . S
Tb136 O181 2.387 1_556 S
Tb136 O183 2.428 . S
Tb136 O184 2.308 1_556 S
Tb136 O188 2.349 . S
Tb136 O191 2.393 1_556 S
Tb136 C200 2.802 . S
C137 N138 1.379 . S
C137 C140 1.416 . S
C137 C144 1.424 . S
N138 C137 1.379 . S
N138 C141 1.334 . S
N138 Tb147 2.617 . S
C139 C141 1.390 . S
C139 C142 1.339 . S
C139 H159 0.930 . S
C140 C137 1.416 . S
C140 C142 1.416 . S
C140 C146 1.448 . S
C141 N138 1.334 . S
C141 C139 1.390 . S
C141 H152 0.930 . S
C142 C139 1.339 . S
C142 C140 1.416 . S
C142 H163 0.930 . S
C143 C144 1.413 . S
C143 C145 1.427 . S
C143 C149 1.416 . S
C144 C137 1.424 . S
C144 C143 1.413 . S
C144 N148 1.361 . S
C145 C143 1.427 . S
C145 C146 1.328 . S
C145 H160 0.929 . S
C146 C140 1.448 . S
C146 C145 1.328 . S
C146 H161 0.930 . S
Tb147 N138 2.617 . S
Tb147 N148 2.572 . S
Tb147 O182 2.349 . S
Tb147 O185 2.393 . S
Tb147 O186 2.465 . S
Tb147 O187 2.360 1_554 S
Tb147 O189 2.428 . S
Tb147 O190 2.308 . S
Tb147 C211 2.802 . S
N148 C144 1.361 . S
N148 Tb147 2.572 . S
N148 C150 1.340 . S
C149 C143 1.416 . S
C149 C151 1.332 . S
C149 H157 0.931 . S
C150 N148 1.340 . S
C150 C151 1.407 . S
C150 H156 0.930 . S
C151 C149 1.332 . S
C151 C150 1.407 . S
C151 H153 0.929 . S
H152 C141 0.930 . S
H153 C151 0.929 . S
H154 C169 0.930 . S
H155 C176 0.929 . S
H156 C150 0.930 . S
H157 C149 0.931 . S
H158 C172 0.930 . S
H159 C139 0.930 . S
H160 C145 0.929 . S
H161 C146 0.930 . S
H162 C167 0.930 . S
H163 C142 0.930 . S
H164 C175 0.931 . S
N165 Tb136 2.617 . S
N165 C166 1.379 1_556 S
N165 C169 1.334 . S
C166 N165 1.379 1_554 S
C166 C168 1.416 . S
C166 C174 1.424 . S
C167 H162 0.930 . S
C167 C169 1.390 . S
C167 C170 1.339 1_556 S
C168 C166 1.416 . S
C168 C170 1.416 . S
C168 C201 1.448 . S
C169 H154 0.930 . S
C169 N165 1.334 . S
C169 C167 1.390 . S
C170 C167 1.339 1_554 S
C170 C168 1.416 . S
C170 H177 0.930 . S
N171 Tb136 2.572 1_554 S
N171 C172 1.340 . S
N171 C174 1.361 . S
C172 H158 0.930 . S
C172 N171 1.340 . S
C172 C176 1.407 . S
C173 C174 1.413 . S
C173 C175 1.416 . S
C173 C202 1.427 . S
C174 C166 1.424 . S
C174 N171 1.361 . S
C174 C173 1.413 . S
C175 H164 0.931 . S
C175 C173 1.416 . S
C175 C176 1.332 . S
C176 H155 0.929 . S
C176 C172 1.407 . S
C176 C175 1.332 . S
H177 C170 0.930 . S
H178 C201 0.930 . S
H179 C202 0.929 . S
O180 Tb136 2.465 . S
O180 C200 1.264 . S
O181 Tb136 2.387 1_554 S
O181 C192 1.264 . S
O182 Tb147 2.349 . S
O182 C192 1.243 . S
O183 Tb136 2.428 . S
O183 C200 1.256 . S
O184 Tb136 2.308 1_554 S
O184 C199 1.266 . S
O185 Tb147 2.393 . S
O185 C199 1.248 . S
O186 Tb147 2.465 . S
O186 C211 1.264 . S
O187 Tb147 2.360 1_556 S
O187 C203 1.285 . S
O188 Tb136 2.349 . S
O188 C203 1.243 . S
O189 Tb147 2.428 . S
O189 C211 1.256 . S
O190 Tb147 2.308 . S
O190 C210 1.266 . S
O191 Tb136 2.393 1_554 S
O191 C210 1.247 . S
C192 O181 1.264 . S
C192 O182 1.243 . S
C193 C196 1.399 . S
C193 C198 1.383 . S
C193 C200 1.496 . S
C194 C195 1.399 . S
C194 C198 1.389 . S
C195 C194 1.399 . S
C195 C197 1.380 . S
C195 H212 0.929 . S
C196 C193 1.399 . S
C196 C197 1.392 . S
C196 H213 0.929 . S
C197 C195 1.380 . S
C197 C196 1.392 . S
C197 H214 0.929 . S
C198 C193 1.383 . S
C198 C194 1.389 . S
C198 H215 0.931 . S
C199 O184 1.266 . S
C199 O185 1.248 . S
C200 Tb136 2.802 . S
C200 O180 1.264 . S
C200 O183 1.256 . S
C200 C193 1.496 . S
C201 C168 1.448 . S
C201 H178 0.930 . S
C201 C202 1.328 . S
C202 C173 1.427 . S
C202 H179 0.929 . S
C202 C201 1.328 . S
C203 O187 1.285 . S
C203 O188 1.243 . S
C204 C207 1.399 . S
C204 C208 1.383 . S
C204 C211 1.496 . S
C205 C206 1.399 . S
C205 C208 1.389 . S
C206 C205 1.399 . S
C206 C209 1.380 . S
C206 H216 0.929 . S
C207 C204 1.399 . S
C207 C209 1.392 . S
C207 H217 0.929 . S
C208 C204 1.383 . S
C208 C205 1.389 . S
C208 H218 0.931 . S
C209 C206 1.380 . S
C209 C207 1.392 . S
C209 H219 0.929 . S
C210 O190 1.266 . S
C210 O191 1.247 . S
C211 Tb147 2.802 . S
C211 O186 1.264 . S
C211 O189 1.256 . S
C211 C204 1.496 . S
H212 C195 0.929 . S
H213 C196 0.929 . S
H214 C197 0.929 . S
H215 C198 0.931 . S
H216 C206 0.929 . S
H217 C207 0.929 . S
H218 C208 0.931 . S
H219 C209 0.929 . S
H220 C238 0.951 . S
H221 C240 0.951 . S
H222 C242 0.950 . S
H223 C243 0.950 . S
H224 C245 0.950 . S
H225 C248 0.950 . S
H226 C249 0.950 . S
H227 C251 0.950 . S
H228 C252 0.950 . S
H229 C253 0.951 . S
H230 C255 0.951 . S
H231 C257 0.950 . S
H232 C258 0.950 . S
H233 C260 0.950 . S
H234 C263 0.950 . S
H235 C264 0.950 . S
H236 C266 0.950 . S
H237 C267 0.950 . S
C238 H220 0.951 . S
C238 C239 1.366 . S
C238 C240 1.388 . S
C239 C238 1.366 . S
C239 C243 1.385 . S
C240 H221 0.951 . S
C240 C238 1.388 . S
C240 C241 1.366 . S
C241 C240 1.366 . S
C241 C242 1.414 . S
C241 C244 1.499 . S
C242 H222 0.950 . S
C242 C241 1.414 . S
C242 C243 1.374 . S
C243 H223 0.950 . S
C243 C239 1.385 . S
C243 C242 1.374 . S
C244 C241 1.499 . S
C244 C245 1.373 . S
C244 C246 1.389 . S
C245 H224 0.950 . S
C245 C244 1.373 . S
C245 C261 1.377 . S
C246 C244 1.389 . S
C246 C247 1.524 . S
C246 C260 1.377 . S
C247 C246 1.524 . S
C247 C248 1.397 . S
C247 C252 1.363 . S
C248 H225 0.950 . S
C248 C247 1.397 . S
C248 C249 1.334 . S
C249 H226 0.950 . S
C249 C248 1.334 . S
C249 C250 1.287 . S
C250 C249 1.287 . S
C250 C251 1.524 . S
C250 H269 0.913 . S
C251 H227 0.950 . S
C251 C250 1.524 . S
C251 C252 1.415 . S
C252 H228 0.950 . S
C252 C247 1.363 . S
C252 C251 1.415 . S
C253 H229 0.951 . S
C253 C254 1.366 . S
C253 C255 1.388 . S
C254 C253 1.366 . S
C254 C258 1.385 . S
C255 H230 0.951 . S
C255 C253 1.388 . S
C255 C256 1.366 . S
C256 C255 1.366 . S
C256 C257 1.414 . S
C256 C259 1.499 . S
C257 H231 0.950 . S
C257 C256 1.414 . S
C257 C258 1.374 . S
C258 H232 0.950 . S
C258 C254 1.385 . S
C258 C257 1.374 . S
C259 C256 1.499 . S
C259 C260 1.373 . S
C259 C261 1.389 . S
C260 H233 0.950 . S
C260 C246 1.377 . S
C260 C259 1.373 . S
C261 C245 1.377 . S
C261 C259 1.389 . S
C261 C262 1.524 . S
C262 C261 1.524 . S
C262 C263 1.397 . S
C262 C267 1.363 . S
C263 H234 0.950 . S
C263 C262 1.397 . S
C263 C264 1.334 . S
C264 H235 0.950 . S
C264 C263 1.334 . S
C264 C265 1.287 . S
C265 C264 1.287 . S
C265 C266 1.524 . S
C265 H268 0.999 . S
C266 H236 0.950 . S
C266 C265 1.524 . S
C266 C267 1.415 . S
C267 H237 0.950 . S
C267 C262 1.363 . S
C267 C266 1.415 . S
H268 C265 0.999 . S
H269 C250 0.913 . S
H270 C288 0.951 . S
H271 C290 0.951 . S
H272 C292 0.950 . S
H273 C293 0.950 . S
H274 C295 0.950 . S
H275 C298 0.950 . S
H276 C299 0.950 . S
H277 C301 0.950 . S
H278 C302 0.950 . S
H279 C303 0.951 . S
H280 C305 0.951 . S
H281 C307 0.955 . S
H282 C308 0.966 . S
H283 C310 0.950 . S
H284 C313 0.950 . S
H285 C314 0.950 . S
H286 C316 0.950 . S
H287 C317 0.950 . S
C288 H270 0.951 . S
C288 C289 1.366 . S
C288 C290 1.388 . S
C289 C288 1.366 . S
C289 C293 1.385 . S
C290 H271 0.951 . S
C290 C288 1.388 . S
C290 C291 1.366 . S
C291 C290 1.366 . S
C291 C292 1.414 . S
C291 C294 1.499 . S
C292 H272 0.950 . S
C292 C291 1.414 . S
C292 C293 1.374 . S
C293 H273 0.950 . S
C293 C289 1.385 . S
C293 C292 1.374 . S
C294 C291 1.499 . S
C294 C295 1.373 . S
C294 C296 1.389 . S
C295 H274 0.950 . S
C295 C294 1.373 . S
C295 C311 1.377 . S
C296 C294 1.389 . S
C296 C297 1.524 . S
C296 C310 1.377 . S
C297 C296 1.524 . S
C297 C298 1.397 . S
C297 C302 1.363 . S
C298 H275 0.950 . S
C298 C297 1.397 . S
C298 C299 1.334 . S
C299 H276 0.950 . S
C299 C298 1.334 . S
C299 C300 1.287 . S
C300 C299 1.287 . S
C300 C301 1.524 . S
C300 H319 0.913 . S
C301 H277 0.950 . S
C301 C300 1.524 . S
C301 C302 1.415 . S
C302 H278 0.950 . S
C302 C297 1.363 . S
C302 C301 1.415 . S
C303 H279 0.951 . S
C303 C304 1.366 . S
C303 C305 1.388 . S
C304 C303 1.366 . S
C304 C308 1.385 . S
C305 H280 0.951 . S
C305 C303 1.388 . S
C305 C306 1.366 . S
C306 C305 1.366 . S
C306 C307 1.414 . S
C306 C309 1.499 . S
C307 H281 0.955 . S
C307 C306 1.414 . S
C307 C308 1.374 . S
C308 H282 0.966 . S
C308 C304 1.385 . S
C308 C307 1.374 . S
C309 C306 1.499 . S
C309 C310 1.373 . S
C309 C311 1.389 . S
C310 H283 0.950 . S
C310 C296 1.377 . S
C310 C309 1.373 . S
C311 C295 1.377 . S
C311 C309 1.389 . S
C311 C312 1.524 . S
C312 C311 1.524 . S
C312 C313 1.397 1_554 S
C312 C317 1.363 . S
C313 H284 0.950 . S
C313 C312 1.397 1_556 S
C313 C314 1.334 . S
C314 H285 0.950 . S
C314 C313 1.334 . S
C314 C315 1.287 . S
C315 C314 1.287 . S
C315 C316 1.524 1_556 S
C315 H318 0.999 . S
C316 H286 0.950 . S
C316 C315 1.524 1_554 S
C316 C317 1.415 . S
C317 H287 0.950 . S
C317 C312 1.363 . S
C317 C316 1.415 . S
H318 C315 0.999 . S
H319 C300 0.913 . S
H320 C338 0.951 . S
H321 C340 0.951 . S
H322 C342 0.950 . S
H323 C343 0.950 . S
H324 C345 0.950 . S
H325 C348 0.950 . S
H326 C349 0.950 . S
H327 C351 0.950 . S
H328 C352 0.950 . S
H329 C353 0.951 . S
H330 C355 0.951 . S
H331 C357 0.950 . S
H332 C358 0.950 . S
H333 C360 0.950 . S
H334 C363 0.950 . S
H335 C364 0.950 . S
H336 C366 0.950 . S
H337 C367 0.950 . S
C338 H320 0.951 . S
C338 C339 1.366 . S
C338 C340 1.388 . S
C339 C338 1.366 . S
C339 C343 1.385 . S
C340 H321 0.951 . S
C340 C338 1.388 . S
C340 C341 1.366 . S
C341 C340 1.366 . S
C341 C342 1.414 . S
C341 C344 1.499 . S
C342 H322 0.950 . S
C342 C341 1.414 . S
C342 C343 1.374 . S
C343 H323 0.950 . S
C343 C339 1.385 . S
C343 C342 1.374 . S
C344 C341 1.499 . S
C344 C345 1.373 . S
C344 C346 1.389 . S
C345 H324 0.950 . S
C345 C344 1.373 . S
C345 C361 1.377 . S
C346 C344 1.389 . S
C346 C347 1.524 . S
C346 C360 1.377 . S
C347 C346 1.524 . S
C347 C348 1.397 . S
C347 C352 1.363 . S
C348 H325 0.950 . S
C348 C347 1.397 . S
C348 C349 1.334 . S
C349 H326 0.950 . S
C349 C348 1.334 . S
C349 C350 1.287 . S
C350 C349 1.287 . S
C350 C351 1.524 . S
C350 H369 0.913 . S
C351 H327 0.950 . S
C351 C350 1.524 . S
C351 C352 1.415 . S
C352 H328 0.950 . S
C352 C347 1.363 . S
C352 C351 1.415 . S
C353 H329 0.951 . S
C353 C354 1.366 . S
C353 C355 1.388 . S
C354 C353 1.366 . S
C354 C358 1.385 . S
C355 H330 0.951 . S
C355 C353 1.388 . S
C355 C356 1.366 . S
C356 C355 1.366 . S
C356 C357 1.414 . S
C356 C359 1.499 . S
C357 H331 0.950 . S
C357 C356 1.414 . S
C357 C358 1.374 . S
C358 H332 0.950 . S
C358 C354 1.385 . S
C358 C357 1.374 . S
C359 C356 1.499 . S
C359 C360 1.373 . S
C359 C361 1.389 . S
C360 H333 0.950 . S
C360 C346 1.377 . S
C360 C359 1.373 . S
C361 C345 1.377 . S
C361 C359 1.389 . S
C361 C362 1.524 . S
C362 C361 1.524 . S
C362 C363 1.397 . S
C362 C367 1.363 . S
C363 H334 0.950 . S
C363 C362 1.397 . S
C363 C364 1.334 . S
C364 H335 0.950 . S
C364 C363 1.334 . S
C364 C365 1.287 . S
C365 C364 1.287 . S
C365 C366 1.524 . S
C365 H368 0.999 1_565 S
C366 H336 0.950 . S
C366 C365 1.524 . S
C366 C367 1.415 . S
C367 H337 0.950 . S
C367 C362 1.363 . S
C367 C366 1.415 . S
H368 C365 0.999 1_545 S
H369 C350 0.913 . S
H370 C388 0.951 . S
H371 C390 0.951 . S
H372 C392 0.950 . S
H373 C393 0.950 . S
H374 C395 0.950 . S
H375 C398 0.950 . S
H376 C399 0.950 . S
H377 C401 0.950 . S
H378 C402 0.950 . S
H379 C403 0.951 . S
H380 C405 0.951 . S
H381 C407 0.950 . S
H382 C408 0.950 . S
H383 C410 0.950 . S
H384 C413 0.950 . S
H385 C414 0.950 . S
H386 C416 0.950 . S
H387 C417 0.950 1_554 S
C388 H370 0.951 . S
C388 C389 1.366 . S
C388 C390 1.388 . S
C389 C388 1.366 . S
C389 C393 1.385 . S
C390 H371 0.951 . S
C390 C388 1.388 . S
C390 C391 1.366 . S
C391 C390 1.366 . S
C391 C392 1.414 . S
C391 C394 1.499 . S
C392 H372 0.950 . S
C392 C391 1.414 . S
C392 C393 1.374 . S
C393 H373 0.950 . S
C393 C389 1.385 . S
C393 C392 1.374 . S
C394 C391 1.499 . S
C394 C395 1.373 . S
C394 C396 1.389 . S
C395 H374 0.950 . S
C395 C394 1.373 . S
C395 C411 1.377 . S
C396 C394 1.389 . S
C396 C397 1.524 . S
C396 C410 1.377 . S
C397 C396 1.524 . S
C397 C398 1.397 . S
C397 C402 1.363 . S
C398 H375 0.950 . S
C398 C397 1.397 . S
C398 C399 1.334 . S
C399 H376 0.950 . S
C399 C398 1.334 . S
C399 C400 1.287 . S
C400 C399 1.287 . S
C400 C401 1.524 . S
C400 H419 0.913 . S
C401 H377 0.950 . S
C401 C400 1.524 . S
C401 C402 1.415 . S
C402 H378 0.950 . S
C402 C397 1.363 . S
C402 C401 1.415 . S
C403 H379 0.951 . S
C403 C404 1.366 . S
C403 C405 1.388 . S
C404 C403 1.366 . S
C404 C408 1.385 . S
C405 H380 0.951 . S
C405 C403 1.388 . S
C405 C406 1.366 . S
C406 C405 1.366 . S
C406 C407 1.414 . S
C406 C409 1.499 . S
C407 H381 0.950 . S
C407 C406 1.414 . S
C407 C408 1.374 . S
C408 H382 0.950 . S
C408 C404 1.385 . S
C408 C407 1.374 . S
C409 C406 1.499 . S
C409 C410 1.373 . S
C409 C411 1.389 . S
C410 H383 0.950 . S
C410 C396 1.377 . S
C410 C409 1.373 . S
C411 C395 1.377 . S
C411 C409 1.389 . S
C411 C412 1.524 1_554 S
C412 C411 1.524 1_556 S
C412 C413 1.397 . S
C412 C417 1.363 . S
C413 H384 0.950 . S
C413 C412 1.397 . S
C413 C414 1.334 . S
C414 H385 0.950 . S
C414 C413 1.334 . S
C414 C415 1.287 . S
C415 C414 1.287 . S
C415 C416 1.524 . S
C415 H418 0.999 . S
C416 H386 0.950 . S
C416 C415 1.524 . S
C416 C417 1.415 . S
C417 H387 0.950 1_556 S
C417 C412 1.363 . S
C417 C416 1.415 . S
H418 C415 0.999 . S
H419 C400 0.913 . S
H420 C438 0.951 . S
H421 C440 0.951 . S
H422 C442 0.950 . S
H423 C443 0.950 . S
H424 C445 0.950 . S
H425 C448 0.950 . S
H426 C449 0.950 . S
H427 C451 0.938 1_545 S
H428 C452 0.950 . S
H429 C453 0.951 . S
H430 C455 0.951 . S
H431 C457 0.950 . S
H432 C458 0.950 . S
H433 C460 0.950 . S
H434 C463 0.950 . S
H435 C464 0.950 . S
H436 C466 0.950 . S
H437 C467 0.950 . S
C438 H420 0.951 . S
C438 C439 1.366 . S
C438 C440 1.388 . S
C439 C438 1.366 . S
C439 C443 1.385 . S
C440 H421 0.951 . S
C440 C438 1.388 . S
C440 C441 1.366 . S
C441 C440 1.366 . S
C441 C442 1.414 . S
C441 C444 1.499 . S
C442 H422 0.950 . S
C442 C441 1.414 . S
C442 C443 1.374 . S
C443 H423 0.950 . S
C443 C439 1.385 . S
C443 C442 1.374 . S
C444 C441 1.499 . S
C444 C445 1.373 . S
C444 C446 1.389 . S
C445 H424 0.950 . S
C445 C444 1.373 . S
C445 C461 1.377 . S
C446 C444 1.389 . S
C446 C447 1.524 . S
C446 C460 1.377 . S
C447 C446 1.524 . S
C447 C448 1.397 . S
C447 C452 1.363 . S
C448 H425 0.950 . S
C448 C447 1.397 . S
C448 C449 1.334 . S
C449 H426 0.950 . S
C449 C448 1.334 . S
C449 C450 1.287 1_565 S
C450 C449 1.287 1_545 S
C450 C451 1.522 1_545 S
C450 H469 0.913 . S
C451 H427 0.938 1_565 S
C451 C450 1.522 1_565 S
C451 C452 1.431 . S
C452 H428 0.950 . S
C452 C447 1.363 . S
C452 C451 1.431 . S
C453 H429 0.951 . S
C453 C454 1.366 . S
C453 C455 1.388 . S
C454 C453 1.366 . S
C454 C458 1.385 . S
C455 H430 0.951 . S
C455 C453 1.388 . S
C455 C456 1.366 . S
C456 C455 1.366 . S
C456 C457 1.414 . S
C456 C459 1.499 . S
C457 H431 0.950 . S
C457 C456 1.414 . S
C457 C458 1.374 . S
C458 H432 0.950 . S
C458 C454 1.385 . S
C458 C457 1.374 . S
C459 C456 1.499 . S
C459 C460 1.373 . S
C459 C461 1.389 . S
C460 H433 0.950 . S
C460 C446 1.377 . S
C460 C459 1.373 . S
C461 C445 1.377 . S
C461 C459 1.389 . S
C461 C462 1.524 . S
C462 C461 1.524 . S
C462 C463 1.397 . S
C462 C467 1.363 . S
C463 H434 0.950 . S
C463 C462 1.397 . S
C463 C464 1.334 . S
C464 H435 0.950 . S
C464 C463 1.334 . S
C464 C465 1.287 . S
C465 C464 1.287 . S
C465 C466 1.524 . S
C465 H468 0.999 . S
C466 H436 0.950 . S
C466 C465 1.524 . S
C466 C467 1.415 . S
C467 H437 0.950 . S
C467 C462 1.363 . S
C467 C466 1.415 . S
H468 C465 0.999 . S
H469 C450 0.913 . S
H470 C488 0.951 . S
H471 C490 0.951 . S
H472 C492 0.950 . S
H473 C493 0.950 . S
H474 C495 0.950 . S
H475 C498 0.950 . S
H476 C499 0.950 . S
H477 C501 0.950 . S
H478 C502 0.950 . S
H479 C503 0.951 . S
H480 C505 0.951 . S
H481 C507 0.950 . S
H482 C508 0.950 . S
H483 C510 0.950 . S
H484 C513 0.950 . S
H485 C514 0.950 . S
H486 C516 0.950 . S
H487 C517 0.950 . S
C488 H470 0.951 . S
C488 C489 1.366 . S
C488 C490 1.388 . S
C489 C488 1.366 . S
C489 C493 1.385 . S
C490 H471 0.951 . S
C490 C488 1.388 . S
C490 C491 1.366 . S
C491 C490 1.366 . S
C491 C492 1.414 . S
C491 C494 1.499 . S
C492 H472 0.950 . S
C492 C491 1.414 . S
C492 C493 1.374 . S
C493 H473 0.950 . S
C493 C489 1.385 . S
C493 C492 1.374 . S
C494 C491 1.499 . S
C494 C495 1.373 . S
C494 C496 1.389 . S
C495 H474 0.950 . S
C495 C494 1.373 . S
C495 C511 1.377 . S
C496 C494 1.389 . S
C496 C497 1.524 . S
C496 C510 1.377 . S
C497 C496 1.524 . S
C497 C498 1.397 . S
C497 C502 1.363 . S
C498 H475 0.950 . S
C498 C497 1.397 . S
C498 C499 1.334 . S
C499 H476 0.950 . S
C499 C498 1.334 . S
C499 C500 1.287 . S
C500 C499 1.287 . S
C500 C501 1.524 . S
C500 H519 0.913 . S
C501 H477 0.950 . S
C501 C500 1.524 . S
C501 C502 1.415 . S
C502 H478 0.950 . S
C502 C497 1.363 . S
C502 C501 1.415 . S
C503 H479 0.951 . S
C503 C504 1.366 . S
C503 C505 1.388 . S
C504 C503 1.366 . S
C504 C508 1.385 . S
C505 H480 0.951 . S
C505 C503 1.388 . S
C505 C506 1.366 . S
C506 C505 1.366 . S
C506 C507 1.414 . S
C506 C509 1.499 . S
C507 H481 0.950 . S
C507 C506 1.414 . S
C507 C508 1.374 . S
C508 H482 0.950 . S
C508 C504 1.385 . S
C508 C507 1.374 . S
C509 C506 1.499 . S
C509 C510 1.373 . S
C509 C511 1.389 . S
C510 H483 0.950 . S
C510 C496 1.377 . S
C510 C509 1.373 . S
C511 C495 1.377 . S
C511 C509 1.389 . S
C511 C512 1.524 . S
C512 C511 1.524 . S
C512 C513 1.397 . S
C512 C517 1.363 . S
C513 H484 0.950 . S
C513 C512 1.397 . S
C513 C514 1.334 . S
C514 H485 0.950 . S
C514 C513 1.334 . S
C514 C515 1.287 . S
C515 C514 1.287 . S
C515 C516 1.524 . S
C515 H518 0.999 . S
C516 H486 0.950 . S
C516 C515 1.524 . S
C516 C517 1.415 . S
C517 H487 0.950 . S
C517 C512 1.363 . S
C517 C516 1.415 . S
H518 C515 0.999 . S
H519 C500 0.913 . S
H520 C538 0.951 . S
H521 C540 0.951 . S
H522 C542 0.950 . S
H523 C543 0.950 . S
H524 C545 0.950 . S
H525 C548 0.950 . S
H526 C549 0.950 . S
H527 C551 0.950 . S
H528 C552 0.950 . S
H529 C553 0.951 . S
H530 C555 0.951 . S
H531 C557 0.950 . S
H532 C558 0.950 . S
H533 C560 0.950 . S
H534 C563 0.950 . S
H535 C564 0.950 1_455 S
H536 C566 0.950 . S
H537 C567 0.950 . S
C538 H520 0.951 . S
C538 C539 1.366 . S
C538 C540 1.388 . S
C539 C538 1.366 . S
C539 C543 1.385 . S
C540 H521 0.951 . S
C540 C538 1.388 . S
C540 C541 1.366 . S
C541 C540 1.366 . S
C541 C542 1.414 . S
C541 C544 1.499 . S
C542 H522 0.950 . S
C542 C541 1.414 . S
C542 C543 1.374 . S
C543 H523 0.950 . S
C543 C539 1.385 . S
C543 C542 1.374 . S
C544 C541 1.499 . S
C544 C545 1.373 . S
C544 C546 1.389 . S
C545 H524 0.950 . S
C545 C544 1.373 . S
C545 C561 1.377 . S
C546 C544 1.389 . S
C546 C547 1.524 . S
C546 C560 1.377 . S
C547 C546 1.524 . S
C547 C548 1.397 . S
C547 C552 1.363 . S
C548 H525 0.950 . S
C548 C547 1.397 . S
C548 C549 1.334 . S
C549 H526 0.950 . S
C549 C548 1.334 . S
C549 C550 1.287 . S
C550 C549 1.287 . S
C550 C551 1.524 1_545 S
C550 H569 0.913 . S
C551 H527 0.950 . S
C551 C550 1.524 1_565 S
C551 C552 1.415 1_565 S
C552 H528 0.950 . S
C552 C547 1.363 . S
C552 C551 1.415 1_545 S
C553 H529 0.951 . S
C553 C554 1.366 . S
C553 C555 1.388 . S
C554 C553 1.366 . S
C554 C558 1.385 . S
C555 H530 0.951 . S
C555 C553 1.388 . S
C555 C556 1.366 . S
C556 C555 1.366 . S
C556 C557 1.414 . S
C556 C559 1.499 . S
C557 H531 0.950 . S
C557 C556 1.414 . S
C557 C558 1.374 . S
C558 H532 0.950 . S
C558 C554 1.385 . S
C558 C557 1.374 . S
C559 C556 1.499 . S
C559 C560 1.373 . S
C559 C561 1.389 . S
C560 H533 0.950 . S
C560 C546 1.377 . S
C560 C559 1.373 . S
C561 C545 1.377 . S
C561 C559 1.389 . S
C561 C562 1.524 . S
C562 C561 1.524 . S
C562 C563 1.397 . S
C562 C567 1.363 . S
C563 H534 0.950 . S
C563 C562 1.397 . S
C563 C564 1.334 . S
C564 H535 0.950 1_655 S
C564 C563 1.334 . S
C564 C565 1.287 . S
C565 C564 1.287 . S
C565 C566 1.524 . S
C565 H568 0.999 . S
C566 H536 0.950 . S
C566 C565 1.524 . S
C566 C567 1.415 . S
C567 H537 0.950 . S
C567 C562 1.363 . S
C567 C566 1.415 . S
H568 C565 0.999 . S
H569 C550 0.913 . S
H570 C588 0.951 . S
H571 C590 0.951 . S
H572 C592 0.950 . S
H573 C593 0.950 . S
H574 C595 0.950 . S
H575 C598 0.950 . S
H576 C599 0.950 . S
H577 C601 0.950 . S
H578 C602 0.950 . S
H579 C603 0.951 . S
H580 C605 0.951 . S
H581 C607 0.950 . S
H582 C608 0.950 . S
H583 C610 0.950 . S
H584 C613 0.950 . S
H585 C614 0.950 . S
H586 C616 0.950 . S
H587 C617 0.950 . S
C588 H570 0.951 . S
C588 C589 1.366 . S
C588 C590 1.388 . S
C589 C588 1.366 . S
C589 C593 1.385 . S
C590 H571 0.951 . S
C590 C588 1.388 . S
C590 C591 1.366 . S
C591 C590 1.366 . S
C591 C592 1.414 . S
C591 C594 1.499 . S
C592 H572 0.950 . S
C592 C591 1.414 . S
C592 C593 1.374 . S
C593 H573 0.950 . S
C593 C589 1.385 . S
C593 C592 1.374 . S
C594 C591 1.499 . S
C594 C595 1.373 . S
C594 C596 1.389 . S
C595 H574 0.950 . S
C595 C594 1.373 . S
C595 C611 1.377 . S
C596 C594 1.389 . S
C596 C597 1.524 . S
C596 C610 1.377 . S
C597 C596 1.524 . S
C597 C598 1.397 . S
C597 C602 1.363 . S
C598 H575 0.950 . S
C598 C597 1.397 . S
C598 C599 1.334 . S
C599 H576 0.950 . S
C599 C598 1.334 . S
C599 C600 1.287 . S
C600 C599 1.287 . S
C600 C601 1.524 . S
C600 H619 0.913 . S
C601 H577 0.950 . S
C601 C600 1.524 . S
C601 C602 1.415 . S
C602 H578 0.950 . S
C602 C597 1.363 . S
C602 C601 1.415 . S
C603 H579 0.951 . S
C603 C604 1.366 . S
C603 C605 1.388 . S
C604 C603 1.366 . S
C604 C608 1.385 . S
C605 H580 0.951 . S
C605 C603 1.388 . S
C605 C606 1.366 . S
C606 C605 1.366 . S
C606 C607 1.414 . S
C606 C609 1.499 . S
C607 H581 0.950 . S
C607 C606 1.414 . S
C607 C608 1.374 . S
C608 H582 0.950 . S
C608 C604 1.385 . S
C608 C607 1.374 . S
C609 C606 1.499 . S
C609 C610 1.373 . S
C609 C611 1.389 . S
C610 H583 0.950 . S
C610 C596 1.377 . S
C610 C609 1.373 . S
C611 C595 1.377 . S
C611 C609 1.389 . S
C611 C612 1.524 . S
C612 C611 1.524 . S
C612 C613 1.397 . S
C612 C617 1.363 . S
C613 H584 0.950 . S
C613 C612 1.397 . S
C613 C614 1.334 . S
C614 H585 0.950 . S
C614 C613 1.334 . S
C614 C615 1.287 . S
C615 C614 1.287 . S
C615 C616 1.524 . S
C615 H618 0.999 . S
C616 H586 0.950 . S
C616 C615 1.524 . S
C616 C617 1.415 . S
C617 H587 0.950 . S
C617 C612 1.363 . S
C617 C616 1.415 . S
H618 C615 0.999 . S
H619 C600 0.913 . S
H620 C638 0.951 . S
H621 C640 0.951 . S
H622 C642 0.950 . S
H623 C643 0.950 . S
H624 C645 0.950 . S
H625 C648 0.950 . S
H626 C649 0.950 . S
H627 C651 0.950 . S
H628 C652 0.950 . S
H629 C653 0.951 . S
H630 C655 0.951 . S
H631 C657 0.950 . S
H632 C658 0.950 . S
H633 C660 0.950 . S
H634 C663 0.950 . S
H635 C664 0.950 . S
H636 C666 0.950 . S
H637 C667 0.950 . S
C638 H620 0.951 . S
C638 C639 1.366 . S
C638 C640 1.388 . S
C639 C638 1.366 . S
C639 C643 1.385 . S
C640 H621 0.951 . S
C640 C638 1.388 . S
C640 C641 1.366 . S
C641 C640 1.366 . S
C641 C642 1.414 . S
C641 C644 1.499 . S
C642 H622 0.950 . S
C642 C641 1.414 . S
C642 C643 1.374 . S
C643 H623 0.950 . S
C643 C639 1.385 . S
C643 C642 1.374 . S
C644 C641 1.499 . S
C644 C645 1.373 . S
C644 C646 1.389 . S
C645 H624 0.950 . S
C645 C644 1.373 . S
C645 C661 1.377 . S
C646 C644 1.389 . S
C646 C647 1.524 . S
C646 C660 1.377 . S
C647 C646 1.524 . S
C647 C648 1.397 . S
C647 C652 1.363 . S
C648 H625 0.950 . S
C648 C647 1.397 . S
C648 C649 1.334 . S
C649 H626 0.950 . S
C649 C648 1.334 . S
C649 C650 1.287 . S
C650 C649 1.287 . S
C650 C651 1.524 . S
C650 H669 0.913 . S
C651 H627 0.950 . S
C651 C650 1.524 . S
C651 C652 1.415 . S
C652 H628 0.950 . S
C652 C647 1.363 . S
C652 C651 1.415 . S
C653 H629 0.951 . S
C653 C654 1.366 . S
C653 C655 1.388 . S
C654 C653 1.366 . S
C654 C658 1.385 . S
C655 H630 0.951 . S
C655 C653 1.388 . S
C655 C656 1.366 . S
C656 C655 1.366 . S
C656 C657 1.414 . S
C656 C659 1.499 . S
C657 H631 0.950 . S
C657 C656 1.414 . S
C657 C658 1.374 . S
C658 H632 0.950 . S
C658 C654 1.385 . S
C658 C657 1.374 . S
C659 C656 1.499 . S
C659 C660 1.373 . S
C659 C661 1.389 . S
C660 H633 0.950 . S
C660 C646 1.377 . S
C660 C659 1.373 . S
C661 C645 1.377 . S
C661 C659 1.389 . S
C661 C662 1.524 . S
C662 C661 1.524 . S
C662 C663 1.397 . S
C662 C667 1.363 . S
C663 H634 0.950 . S
C663 C662 1.397 . S
C663 C664 1.334 . S
C664 H635 0.950 . S
C664 C663 1.334 . S
C664 C665 1.287 . S
C665 C664 1.287 . S
C665 C666 1.524 . S
C665 H668 0.999 . S
C666 H636 0.950 . S
C666 C665 1.524 . S
C666 C667 1.415 . S
C667 H637 0.950 . S
C667 C662 1.363 . S
C667 C666 1.415 . S
H668 C665 0.999 . S
H669 C650 0.913 . S
H670 C688 0.951 1_554 S
H671 C690 0.951 . S
H672 C692 0.950 . S
H673 C693 0.950 . S
H674 C695 0.950 . S
H675 C698 0.950 . S
H676 C699 0.950 . S
H677 C701 0.950 . S
H678 C702 0.950 . S
H679 C703 0.951 . S
H680 C705 0.951 . S
H681 C707 0.950 . S
H682 C708 0.950 . S
H683 C710 0.950 . S
H684 C713 0.950 . S
H685 C714 0.950 . S
H686 C716 0.950 . S
H687 C717 0.950 . S
C688 H670 0.951 1_556 S
C688 C689 1.366 . S
C688 C690 1.388 . S
C689 C688 1.366 . S
C689 C693 1.385 . S
C690 H671 0.951 . S
C690 C688 1.388 . S
C690 C691 1.366 . S
C691 C690 1.366 . S
C691 C692 1.414 . S
C691 C694 1.499 . S
C692 H672 0.950 . S
C692 C691 1.414 . S
C692 C693 1.374 . S
C693 H673 0.950 . S
C693 C689 1.385 . S
C693 C692 1.374 . S
C694 C691 1.499 . S
C694 C695 1.373 . S
C694 C696 1.389 . S
C695 H674 0.950 . S
C695 C694 1.373 . S
C695 C711 1.377 . S
C696 C694 1.389 . S
C696 C697 1.524 . S
C696 C710 1.377 . S
C697 C696 1.524 . S
C697 C698 1.397 . S
C697 C702 1.363 . S
C698 H675 0.950 . S
C698 C697 1.397 . S
C698 C699 1.334 . S
C699 H676 0.950 . S
C699 C698 1.334 . S
C699 C700 1.287 . S
C700 C699 1.287 . S
C700 C701 1.524 . S
C700 H719 0.913 . S
C701 H677 0.950 . S
C701 C700 1.524 . S
C701 C702 1.415 . S
C702 H678 0.950 . S
C702 C697 1.363 . S
C702 C701 1.415 . S
C703 H679 0.951 . S
C703 C704 1.366 . S
C703 C705 1.388 . S
C704 C703 1.366 . S
C704 C708 1.385 . S
C705 H680 0.951 . S
C705 C703 1.388 . S
C705 C706 1.366 . S
C706 C705 1.366 . S
C706 C707 1.414 . S
C706 C709 1.499 . S
C707 H681 0.950 . S
C707 C706 1.414 . S
C707 C708 1.374 . S
C708 H682 0.950 . S
C708 C704 1.385 . S
C708 C707 1.374 . S
C709 C706 1.499 . S
C709 C710 1.373 . S
C709 C711 1.389 . S
C710 H683 0.950 . S
C710 C696 1.377 . S
C710 C709 1.373 . S
C711 C695 1.377 . S
C711 C709 1.389 . S
C711 C712 1.524 . S
C712 C711 1.524 . S
C712 C713 1.397 . S
C712 C717 1.363 . S
C713 H684 0.950 . S
C713 C712 1.397 . S
C713 C714 1.334 1_545 S
C714 H685 0.950 . S
C714 C713 1.334 1_565 S
C714 C715 1.287 . S
C715 C714 1.287 . S
C715 C716 1.524 1_565 S
C715 H718 0.999 . S
C716 H686 0.950 . S
C716 C715 1.524 1_545 S
C716 C717 1.415 . S
C717 H687 0.950 . S
C717 C712 1.363 . S
C717 C716 1.415 . S
H718 C715 0.999 . S
H719 C700 0.913 . S
H720 C738 0.951 . S
H721 C740 0.951 . S
H722 C742 0.950 . S
H723 C743 0.950 . S
H724 C745 0.950 . S
H725 C748 0.950 . S
H726 C749 0.950 . S
H727 C751 0.950 . S
H728 C752 0.950 . S
H729 C753 0.951 . S
H730 C755 0.951 . S
H731 C757 0.950 . S
H732 C758 0.950 . S
H733 C760 0.950 . S
H734 C763 0.950 . S
H735 C764 0.950 . S
H736 C766 0.950 . S
H737 C767 0.950 . S
C738 H720 0.951 . S
C738 C739 1.366 . S
C738 C740 1.388 . S
C739 C738 1.366 . S
C739 C743 1.385 . S
C740 H721 0.951 . S
C740 C738 1.388 . S
C740 C741 1.366 . S
C741 C740 1.366 . S
C741 C742 1.414 . S
C741 C744 1.499 . S
C742 H722 0.950 . S
C742 C741 1.414 . S
C742 C743 1.374 . S
C743 H723 0.950 . S
C743 C739 1.385 . S
C743 C742 1.374 . S
C744 C741 1.499 . S
C744 C745 1.373 . S
C744 C746 1.389 . S
C745 H724 0.950 . S
C745 C744 1.373 . S
C745 C761 1.377 . S
C746 C744 1.389 . S
C746 C747 1.524 . S
C746 C760 1.377 . S
C747 C746 1.524 . S
C747 C748 1.397 . S
C747 C752 1.363 . S
C748 H725 0.950 . S
C748 C747 1.397 . S
C748 C749 1.334 . S
C749 H726 0.950 . S
C749 C748 1.334 . S
C749 C750 1.287 . S
C750 C749 1.287 . S
C750 C751 1.524 . S
C750 H769 0.913 . S
C751 H727 0.950 . S
C751 C750 1.524 . S
C751 C752 1.415 . S
C752 H728 0.950 . S
C752 C747 1.363 . S
C752 C751 1.415 . S
C753 H729 0.951 . S
C753 C754 1.366 . S
C753 C755 1.388 . S
C754 C753 1.366 . S
C754 C758 1.385 . S
C755 H730 0.951 . S
C755 C753 1.388 . S
C755 C756 1.366 . S
C756 C755 1.366 . S
C756 C757 1.414 . S
C756 C759 1.499 . S
C757 H731 0.950 . S
C757 C756 1.414 . S
C757 C758 1.374 . S
C758 H732 0.950 . S
C758 C754 1.385 . S
C758 C757 1.374 . S
C759 C756 1.499 . S
C759 C760 1.373 . S
C759 C761 1.389 . S
C760 H733 0.950 . S
C760 C746 1.377 . S
C760 C759 1.373 . S
C761 C745 1.377 . S
C761 C759 1.389 . S
C761 C762 1.524 . S
C762 C761 1.524 . S
C762 C763 1.397 . S
C762 C767 1.363 . S
C763 H734 0.950 . S
C763 C762 1.397 . S
C763 C764 1.334 . S
C764 H735 0.950 . S
C764 C763 1.334 . S
C764 C765 1.287 . S
C765 C764 1.287 . S
C765 C766 1.524 . S
C765 H768 0.999 . S
C766 H736 0.950 . S
C766 C765 1.524 . S
C766 C767 1.415 . S
C767 H737 0.950 . S
C767 C762 1.363 . S
C767 C766 1.415 . S
H768 C765 0.999 . S
H769 C750 0.913 . S
H770 C788 0.951 . S
H771 C790 0.951 . S
H772 C792 0.950 . S
H773 C793 0.950 . S
H774 C795 0.950 . S
H775 C798 0.950 . S
H776 C799 0.950 . S
H777 C801 0.950 . S
H778 C802 0.950 . S
H779 C803 0.951 . S
H780 C805 0.951 . S
H781 C807 0.950 . S
H782 C808 0.950 . S
H783 C810 0.950 . S
H784 C813 0.950 . S
H785 C814 0.950 1_545 S
H786 C816 0.950 . S
H787 C817 0.950 . S
C788 H770 0.951 . S
C788 C789 1.366 . S
C788 C790 1.388 . S
C789 C788 1.366 . S
C789 C793 1.385 . S
C790 H771 0.951 . S
C790 C788 1.388 . S
C790 C791 1.366 . S
C791 C790 1.366 . S
C791 C792 1.414 . S
C791 C794 1.499 . S
C792 H772 0.950 . S
C792 C791 1.414 . S
C792 C793 1.374 . S
C793 H773 0.950 . S
C793 C789 1.385 . S
C793 C792 1.374 . S
C794 C791 1.499 . S
C794 C795 1.373 . S
C794 C796 1.389 . S
C795 H774 0.950 . S
C795 C794 1.373 . S
C795 C811 1.377 . S
C796 C794 1.389 . S
C796 C797 1.524 . S
C796 C810 1.377 . S
C797 C796 1.524 . S
C797 C798 1.397 . S
C797 C802 1.363 . S
C798 H775 0.950 . S
C798 C797 1.397 . S
C798 C799 1.334 . S
C799 H776 0.950 . S
C799 C798 1.334 . S
C799 C800 1.287 . S
C800 C799 1.287 . S
C800 C801 1.524 . S
C800 H819 0.913 . S
C801 H777 0.950 . S
C801 C800 1.524 . S
C801 C802 1.415 . S
C802 H778 0.950 . S
C802 C797 1.363 . S
C802 C801 1.415 . S
C803 H779 0.951 . S
C803 C804 1.366 . S
C803 C805 1.388 . S
C804 C803 1.366 . S
C804 C808 1.385 . S
C805 H780 0.951 . S
C805 C803 1.388 . S
C805 C806 1.366 . S
C806 C805 1.366 . S
C806 C807 1.414 . S
C806 C809 1.499 . S
C807 H781 0.950 . S
C807 C806 1.414 . S
C807 C808 1.374 . S
C808 H782 0.950 . S
C808 C804 1.385 . S
C808 C807 1.374 . S
C809 C806 1.499 . S
C809 C810 1.373 . S
C809 C811 1.389 . S
C810 H783 0.950 . S
C810 C796 1.377 . S
C810 C809 1.373 . S
C811 C795 1.377 . S
C811 C809 1.389 . S
C811 C812 1.524 . S
C812 C811 1.524 . S
C812 C813 1.397 . S
C812 C817 1.363 . S
C813 H784 0.950 . S
C813 C812 1.397 . S
C813 C814 1.334 . S
C814 H785 0.950 1_565 S
C814 C813 1.334 . S
C814 C815 1.287 . S
C815 C814 1.287 . S
C815 C816 1.524 . S
C815 H818 0.999 . S
C816 H786 0.950 . S
C816 C815 1.524 . S
C816 C817 1.415 . S
C817 H787 0.950 . S
C817 C812 1.363 . S
C817 C816 1.415 . S
H818 C815 0.999 . S
H819 C800 0.913 . S
C254 C115 1.692 . S
C239 N41 1.724 . S
C289 N2 1.676 . S
C304 C210 1.657 . S
C339 N15 1.719 . S
C354 C126 1.693 . S
C389 N28 1.670 . S
C404 C199 1.657 . S
C454 C110 1.432 . S
C439 N5 1.615 . S
C504 C203 1.694 . S
C489 N14 1.683 . S
C539 N27 1.591 . S
C554 C119 1.624 . S
C589 N44 1.587 . S
C604 C194 1.433 . S
C654 C205 1.431 . S
C639 N18 1.586 . S
C704 C121 1.430 . S
C689 N31 1.614 1_556 S
C754 C192 1.694 . S
C739 N40 1.693 . S
C789 N1 1.604 1_556 S
C804 C108 1.624 . S
