# Generated by pormake.
# Topology ptr, (4,4)-cn, num edge types: 1
# Building blocks:
#     Node 0, Type 0, BuildingBlock: NAHDIM_clean_sbu_0, # of connection points: 4
#     Node 1, Type 0, BuildingBlock: NAHDIM_clean_sbu_0, # of connection points: 4
#     Node 2, Type 0, BuildingBlock: NAHDIM_clean_sbu_0, # of connection points: 4
#     Node 3, Type 0, BuildingBlock: NAHDIM_clean_sbu_0, # of connection points: 4
#     Node 4, Type 0, BuildingBlock: NAHDIM_clean_sbu_0, # of connection points: 4
#     Node 5, Type 0, BuildingBlock: NAHDIM_clean_sbu_0, # of connection points: 4
#     Node 6, Type 0, BuildingBlock: NAHDIM_clean_sbu_0, # of connection points: 4
#     Node 7, Type 0, BuildingBlock: NAHDIM_clean_sbu_0, # of connection points: 4
#     Node 8, Type 0, BuildingBlock: NAHDIM_clean_sbu_0, # of connection points: 4
#     Node 9, Type 0, BuildingBlock: NAHDIM_clean_sbu_0, # of connection points: 4
#     Node 10, Type 0, BuildingBlock: NAHDIM_clean_sbu_0, # of connection points: 4
#     Node 11, Type 0, BuildingBlock: NAHDIM_clean_sbu_0, # of connection points: 4
#     Node 12, Type 0, BuildingBlock: NAHDIM_clean_sbu_0, # of connection points: 4
#     Node 13, Type 0, BuildingBlock: NAHDIM_clean_sbu_0, # of connection points: 4
#     Node 14, Type 0, BuildingBlock: NAHDIM_clean_sbu_0, # of connection points: 4
#     Node 15, Type 0, BuildingBlock: NAHDIM_clean_sbu_0, # of connection points: 4
#     Node 16, Type 0, BuildingBlock: NAHDIM_clean_sbu_0, # of connection points: 4
#     Node 17, Type 0, BuildingBlock: NAHDIM_clean_sbu_0, # of connection points: 4
#     Node 18, Type 1, BuildingBlock: AZAVOO_clean_linker_0, # of connection points: 4
#     Node 19, Type 1, BuildingBlock: AZAVOO_clean_linker_0, # of connection points: 4
#     Node 20, Type 1, BuildingBlock: AZAVOO_clean_linker_0, # of connection points: 4
#     Node 21, Type 1, BuildingBlock: AZAVOO_clean_linker_0, # of connection points: 4
#     Node 22, Type 1, BuildingBlock: AZAVOO_clean_linker_0, # of connection points: 4
#     Node 23, Type 1, BuildingBlock: AZAVOO_clean_linker_0, # of connection points: 4
#     Node 24, Type 1, BuildingBlock: AZAVOO_clean_linker_0, # of connection points: 4
#     Node 25, Type 1, BuildingBlock: AZAVOO_clean_linker_0, # of connection points: 4
#     Node 26, Type 1, BuildingBlock: AZAVOO_clean_linker_0, # of connection points: 4
#     Node 27, Type 1, BuildingBlock: AZAVOO_clean_linker_0, # of connection points: 4
#     Node 28, Type 1, BuildingBlock: AZAVOO_clean_linker_0, # of connection points: 4
#     Node 29, Type 1, BuildingBlock: AZAVOO_clean_linker_0, # of connection points: 4
#     Node 30, Type 1, BuildingBlock: AZAVOO_clean_linker_0, # of connection points: 4
#     Node 31, Type 1, BuildingBlock: AZAVOO_clean_linker_0, # of connection points: 4
#     Node 32, Type 1, BuildingBlock: AZAVOO_clean_linker_0, # of connection points: 4
#     Node 33, Type 1, BuildingBlock: AZAVOO_clean_linker_0, # of connection points: 4
#     Node 34, Type 1, BuildingBlock: AZAVOO_clean_linker_0, # of connection points: 4
#     Node 35, Type 1, BuildingBlock: AZAVOO_clean_linker_0, # of connection points: 4
#     Edge 36, Type (0, 1), BuildingBlock: CIFDUS_clean_linker_0, # of connection points: 2
#     Edge 37, Type (0, 1), BuildingBlock: CIFDUS_clean_linker_0, # of connection points: 2
#     Edge 38, Type (0, 1), BuildingBlock: CIFDUS_clean_linker_0, # of connection points: 2
#     Edge 39, Type (0, 1), BuildingBlock: CIFDUS_clean_linker_0, # of connection points: 2
#     Edge 40, Type (0, 1), BuildingBlock: CIFDUS_clean_linker_0, # of connection points: 2
#     Edge 41, Type (0, 1), BuildingBlock: CIFDUS_clean_linker_0, # of connection points: 2
#     Edge 42, Type (0, 1), BuildingBlock: CIFDUS_clean_linker_0, # of connection points: 2
#     Edge 43, Type (0, 1), BuildingBlock: CIFDUS_clean_linker_0, # of connection points: 2
#     Edge 44, Type (0, 1), BuildingBlock: CIFDUS_clean_linker_0, # of connection points: 2
#     Edge 45, Type (0, 1), BuildingBlock: CIFDUS_clean_linker_0, # of connection points: 2
#     Edge 46, Type (0, 1), BuildingBlock: CIFDUS_clean_linker_0, # of connection points: 2
#     Edge 47, Type (0, 1), BuildingBlock: CIFDUS_clean_linker_0, # of connection points: 2
#     Edge 48, Type (0, 1), BuildingBlock: CIFDUS_clean_linker_0, # of connection points: 2
#     Edge 49, Type (0, 1), BuildingBlock: CIFDUS_clean_linker_0, # of connection points: 2
#     Edge 50, Type (0, 1), BuildingBlock: CIFDUS_clean_linker_0, # of connection points: 2
#     Edge 51, Type (0, 1), BuildingBlock: CIFDUS_clean_linker_0, # of connection points: 2
#     Edge 52, Type (0, 1), BuildingBlock: CIFDUS_clean_linker_0, # of connection points: 2
#     Edge 53, Type (0, 1), BuildingBlock: CIFDUS_clean_linker_0, # of connection points: 2
#     Edge 54, Type (0, 1), BuildingBlock: CIFDUS_clean_linker_0, # of connection points: 2
#     Edge 55, Type (0, 1), BuildingBlock: CIFDUS_clean_linker_0, # of connection points: 2
#     Edge 56, Type (0, 1), BuildingBlock: CIFDUS_clean_linker_0, # of connection points: 2
#     Edge 57, Type (0, 1), BuildingBlock: CIFDUS_clean_linker_0, # of connection points: 2
#     Edge 58, Type (0, 1), BuildingBlock: CIFDUS_clean_linker_0, # of connection points: 2
#     Edge 59, Type (0, 1), BuildingBlock: CIFDUS_clean_linker_0, # of connection points: 2
#     Edge 60, Type (0, 1), BuildingBlock: CIFDUS_clean_linker_0, # of connection points: 2
#     Edge 61, Type (0, 1), BuildingBlock: CIFDUS_clean_linker_0, # of connection points: 2
#     Edge 62, Type (0, 1), BuildingBlock: CIFDUS_clean_linker_0, # of connection points: 2
#     Edge 63, Type (0, 1), BuildingBlock: CIFDUS_clean_linker_0, # of connection points: 2
#     Edge 64, Type (0, 1), BuildingBlock: CIFDUS_clean_linker_0, # of connection points: 2
#     Edge 65, Type (0, 1), BuildingBlock: CIFDUS_clean_linker_0, # of connection points: 2
#     Edge 66, Type (0, 1), BuildingBlock: CIFDUS_clean_linker_0, # of connection points: 2
#     Edge 67, Type (0, 1), BuildingBlock: CIFDUS_clean_linker_0, # of connection points: 2
#     Edge 68, Type (0, 1), BuildingBlock: CIFDUS_clean_linker_0, # of connection points: 2
#     Edge 69, Type (0, 1), BuildingBlock: CIFDUS_clean_linker_0, # of connection points: 2
#     Edge 70, Type (0, 1), BuildingBlock: CIFDUS_clean_linker_0, # of connection points: 2
#     Edge 71, Type (0, 1), BuildingBlock: CIFDUS_clean_linker_0, # of connection points: 2
#     Edge 72, Type (0, 1), BuildingBlock: CIFDUS_clean_linker_0, # of connection points: 2
#     Edge 73, Type (0, 1), BuildingBlock: CIFDUS_clean_linker_0, # of connection points: 2
#     Edge 74, Type (0, 1), BuildingBlock: CIFDUS_clean_linker_0, # of connection points: 2
#     Edge 75, Type (0, 1), BuildingBlock: CIFDUS_clean_linker_0, # of connection points: 2
#     Edge 76, Type (0, 1), BuildingBlock: CIFDUS_clean_linker_0, # of connection points: 2
#     Edge 77, Type (0, 1), BuildingBlock: CIFDUS_clean_linker_0, # of connection points: 2
#     Edge 78, Type (0, 1), BuildingBlock: CIFDUS_clean_linker_0, # of connection points: 2
#     Edge 79, Type (0, 1), BuildingBlock: CIFDUS_clean_linker_0, # of connection points: 2
#     Edge 80, Type (0, 1), BuildingBlock: CIFDUS_clean_linker_0, # of connection points: 2
#     Edge 81, Type (0, 1), BuildingBlock: CIFDUS_clean_linker_0, # of connection points: 2
#     Edge 82, Type (0, 1), BuildingBlock: CIFDUS_clean_linker_0, # of connection points: 2
#     Edge 83, Type (0, 1), BuildingBlock: CIFDUS_clean_linker_0, # of connection points: 2
#     Edge 84, Type (0, 1), BuildingBlock: CIFDUS_clean_linker_0, # of connection points: 2
#     Edge 85, Type (0, 1), BuildingBlock: CIFDUS_clean_linker_0, # of connection points: 2
#     Edge 86, Type (0, 1), BuildingBlock: CIFDUS_clean_linker_0, # of connection points: 2
#     Edge 87, Type (0, 1), BuildingBlock: CIFDUS_clean_linker_0, # of connection points: 2
#     Edge 88, Type (0, 1), BuildingBlock: CIFDUS_clean_linker_0, # of connection points: 2
#     Edge 89, Type (0, 1), BuildingBlock: CIFDUS_clean_linker_0, # of connection points: 2
#     Edge 90, Type (0, 1), BuildingBlock: CIFDUS_clean_linker_0, # of connection points: 2
#     Edge 91, Type (0, 1), BuildingBlock: CIFDUS_clean_linker_0, # of connection points: 2
#     Edge 92, Type (0, 1), BuildingBlock: CIFDUS_clean_linker_0, # of connection points: 2
#     Edge 93, Type (0, 1), BuildingBlock: CIFDUS_clean_linker_0, # of connection points: 2
#     Edge 94, Type (0, 1), BuildingBlock: CIFDUS_clean_linker_0, # of connection points: 2
#     Edge 95, Type (0, 1), BuildingBlock: CIFDUS_clean_linker_0, # of connection points: 2
#     Edge 96, Type (0, 1), BuildingBlock: CIFDUS_clean_linker_0, # of connection points: 2
#     Edge 97, Type (0, 1), BuildingBlock: CIFDUS_clean_linker_0, # of connection points: 2
#     Edge 98, Type (0, 1), BuildingBlock: CIFDUS_clean_linker_0, # of connection points: 2
#     Edge 99, Type (0, 1), BuildingBlock: CIFDUS_clean_linker_0, # of connection points: 2
#     Edge 100, Type (0, 1), BuildingBlock: CIFDUS_clean_linker_0, # of connection points: 2
#     Edge 101, Type (0, 1), BuildingBlock: CIFDUS_clean_linker_0, # of connection points: 2
#     Edge 102, Type (0, 1), BuildingBlock: CIFDUS_clean_linker_0, # of connection points: 2
#     Edge 103, Type (0, 1), BuildingBlock: CIFDUS_clean_linker_0, # of connection points: 2
#     Edge 104, Type (0, 1), BuildingBlock: CIFDUS_clean_linker_0, # of connection points: 2
#     Edge 105, Type (0, 1), BuildingBlock: CIFDUS_clean_linker_0, # of connection points: 2
#     Edge 106, Type (0, 1), BuildingBlock: CIFDUS_clean_linker_0, # of connection points: 2
#     Edge 107, Type (0, 1), BuildingBlock: CIFDUS_clean_linker_0, # of connection points: 2
# Relax obj value: 0.103
# Max RMSD: 0.292
# Mean RMSD: 0.174
data_MOF--net-ptr--node1-NAHDIM_clean_sbu_0--node2-AZAVOO_clean_linker_0--edge1-CIFDUS_clean_linker_0
_symmetry_space_group_name_H-M    P1
_symmetry_Int_Tables_number       1
_symmetry_cell_setting            triclinic
loop_
_symmetry_equiv_pos_as_xyz
'x, y, z'
_cell_length_a     74.801386
_cell_length_b     72.320661
_cell_length_c     60.975589
_cell_angle_alpha  94.596816
_cell_angle_beta   91.790685
_cell_angle_gamma 122.09787
loop_
_atom_site_label
_atom_site_type_symbol
_atom_site_fract_x
_atom_site_fract_y
_atom_site_fract_z
_atom_type_partial_charge
C0 C 0.03585 0.36852 0.05521 0.0
O1 O 0.01986 0.36753 0.06462 0.0
O2 O 0.99044 0.34196 0.01031 0.0
Zn3 Zn 0.01404 0.37322 0.02008 0.0
O4 O 0.0058 0.38952 0.04162 0.0
C5 C 0.00467 0.38859 0.98507 0.0
O6 O 0.98674 0.37656 0.99392 0.0
O7 O 0.03795 0.37215 0.03507 0.0
C8 C 0.9877 0.38465 0.04722 0.0
O9 O 0.97062 0.36606 0.03882 0.0
C10 C 0.9787 0.32778 0.02281 0.0
O11 O 0.98095 0.33333 0.04421 0.0
O12 O 0.02114 0.38972 0.99323 0.0
C13 C 0.67381 0.63713 0.05964 0.0
O14 O 0.66339 0.64651 0.05493 0.0
O15 O 0.64116 0.64221 0.09375 0.0
Zn16 Zn 0.63676 0.61406 0.07935 0.0
O17 O 0.61839 0.60491 0.05096 0.0
C18 C 0.62996 0.59581 0.12037 0.0
O19 O 0.64569 0.61588 0.12734 0.0
O20 O 0.66534 0.62109 0.07115 0.0
C21 C 0.59847 0.59625 0.04852 0.0
O22 O 0.58765 0.59213 0.06598 0.0
C23 C 0.62832 0.64419 0.10529 0.0
O24 O 0.6101 0.62661 0.10847 0.0
O25 O 0.62376 0.59075 0.09992 0.0
C26 C 0.36202 0.02754 0.01809 0.0
O27 O 0.34896 0.01231 0.03001 0.0
O28 O 0.35403 0.97737 0.02374 0.0
Zn29 Zn 0.38258 0.00341 0.0193 0.0
O30 O 0.39488 0.99587 0.9938 0.0
C31 C 0.39288 0.0119 0.0657 0.0
O32 O 0.37369 0.00828 0.06463 0.0
O33 O 0.37825 0.02766 0.01217 0.0
C34 C 0.41419 0.00892 0.99062 0.0
O35 O 0.42582 0.0268 0.00448 0.0
C36 C 0.35177 0.9616 0.0337 0.0
O37 O 0.36853 0.96094 0.03916 0.0
O38 O 0.40112 0.01173 0.04781 0.0
C39 C 0.97713 0.65524 0.02271 0.0
O40 O 0.99738 0.66451 0.01998 0.0
O41 O 0.01503 0.66279 0.06176 0.0
Zn42 Zn 0.98969 0.63356 0.04837 0.0
O43 O 0.99653 0.61955 0.02286 0.0
C44 C 0.99231 0.61515 0.08664 0.0
O45 O 0.01209 0.6312 0.08602 0.0
O46 O 0.96873 0.64008 0.03532 0.0
C47 C 0.00792 0.61136 0.02351 0.0
O48 O 0.01749 0.61239 0.04241 0.0
C49 C 0.03385 0.67153 0.05621 0.0
O50 O 0.03805 0.6613 0.04043 0.0
O51 O 0.9785 0.61262 0.07192 0.0
C52 C 0.35343 0.3946 0.03362 0.0
O53 O 0.37295 0.40706 0.04275 0.0
O54 O 0.36116 0.35284 0.98501 0.0
Zn55 Zn 0.37372 0.38304 0.00095 0.0
O56 O 0.39537 0.38859 0.02551 0.0
C57 C 0.3991 0.3998 0.96676 0.0
O58 O 0.40003 0.38266 0.97042 0.0
O59 O 0.35007 0.38411 0.01464 0.0
C60 C 0.41294 0.40692 0.02929 0.0
O61 O 0.41764 0.4221 0.0161 0.0
C62 C 0.34604 0.33536 0.99132 0.0
O63 O 0.33801 0.33641 0.0099 0.0
O64 O 0.38793 0.4044 0.97854 0.0
C65 C 0.63857 0.98409 0.07833 0.0
O66 O 0.64965 0.00557 0.08303 0.0
O67 O 0.64359 0.01693 0.04001 0.0
Zn68 Zn 0.61721 0.99791 0.05451 0.0
O69 O 0.61304 0.01348 0.08084 0.0
C70 C 0.59307 0.9772 0.01255 0.0
O71 O 0.60892 0.97471 0.00879 0.0
O72 O 0.6216 0.97516 0.0656 0.0
C73 C 0.59818 0.01709 0.08023 0.0
O74 O 0.58695 0.0128 0.0614 0.0
C75 C 0.65483 0.03755 0.03954 0.0
O76 O 0.64928 0.05021 0.04973 0.0
O77 O 0.59264 0.98553 0.03151 0.0
C78 C 0.67938 0.67701 0.39067 0.0
O79 O 0.65901 0.66689 0.39314 0.0
O80 O 0.64499 0.66732 0.34059 0.0
Zn81 Zn 0.66663 0.69533 0.35933 0.0
O82 O 0.65159 0.70314 0.38145 0.0
C83 C 0.68107 0.71618 0.31943 0.0
O84 O 0.67204 0.69579 0.31035 0.0
O85 O 0.68703 0.69067 0.3765 0.0
C86 C 0.64917 0.71915 0.3803 0.0
O87 O 0.65617 0.73096 0.36369 0.0
C88 C 0.64777 0.65168 0.33551 0.0
O89 O 0.66552 0.65358 0.3425 0.0
O90 O 0.68158 0.71994 0.34023 0.0
C91 C 0.32863 0.961 0.38733 0.0
O92 O 0.31945 0.97115 0.38093 0.0
O93 O 0.30146 0.9755 0.42006 0.0
Zn94 Zn 0.29283 0.94468 0.40907 0.0
O95 O 0.27422 0.93477 0.38061 0.0
C96 C 0.28612 0.93111 0.45248 0.0
O97 O 0.30344 0.95066 0.45734 0.0
O98 O 0.31975 0.94695 0.40097 0.0
C99 C 0.25416 0.92452 0.37751 0.0
O100 O 0.24276 0.91898 0.39454 0.0
C101 C 0.29179 0.98139 0.43273 0.0
O102 O 0.27376 0.96641 0.43965 0.0
O103 O 0.2787 0.92443 0.43241 0.0
C104 C 0.04816 0.37516 0.36154 0.0
O105 O 0.03821 0.36223 0.37671 0.0
O106 O 0.03829 0.32402 0.36518 0.0
Zn107 Zn 0.06603 0.34844 0.35671 0.0
O108 O 0.07416 0.33966 0.32842 0.0
C109 C 0.09326 0.37213 0.39724 0.0
O110 O 0.08598 0.38499 0.39541 0.0
O111 O 0.06181 0.37312 0.35155 0.0
C112 C 0.08018 0.32621 0.32665 0.0
O113 O 0.081 0.317 0.34406 0.0
C114 C 0.0226 0.30886 0.35257 0.0
O115 O 0.02419 0.30694 0.33122 0.0
O116 O 0.0877 0.35639 0.38219 0.0
C117 C 0.62424 0.96532 0.35358 0.0
O118 O 0.63714 0.96268 0.34153 0.0
O119 O 0.67171 0.98974 0.40327 0.0
Zn120 Zn 0.64807 0.96071 0.3882 0.0
O121 O 0.65897 0.94893 0.3649 0.0
C122 C 0.62968 0.94041 0.42839 0.0
O123 O 0.627 0.95679 0.43307 0.0
O124 O 0.62549 0.96459 0.37433 0.0
C125 C 0.67623 0.94956 0.36722 0.0
O126 O 0.68861 0.95926 0.38561 0.0
C127 C 0.67977 0.00707 0.39367 0.0
O128 O 0.67267 0.00586 0.37329 0.0
O129 O 0.63729 0.93901 0.41046 0.0
C130 C 0.99253 0.70428 0.34647 0.0
O131 O 0.99087 0.69065 0.32977 0.0
O132 O 0.03097 0.69299 0.33281 0.0
Zn133 Zn 0.03766 0.72258 0.34573 0.0
O134 O 0.05721 0.73295 0.37336 0.0
C135 C 0.06414 0.74216 0.31196 0.0
O136 O 0.06707 0.72609 0.31467 0.0
O137 O 0.01081 0.71972 0.35474 0.0
C138 C 0.07168 0.72914 0.37724 0.0
O139 O 0.07502 0.71759 0.3621 0.0
C140 C 0.02344 0.67677 0.34403 0.0
O141 O 0.02036 0.67951 0.36483 0.0
O142 O 0.05149 0.74431 0.32372 0.0
C143 C 0.29924 0.30357 0.3945 0.0
O144 O 0.31361 0.3247 0.39595 0.0
O145 O 0.30071 0.34268 0.36528 0.0
Zn146 Zn 0.2743 0.31876 0.37701 0.0
O147 O 0.26656 0.33057 0.40359 0.0
C148 C 0.23787 0.31063 0.34932 0.0
O149 O 0.23821 0.32504 0.36417 0.0
O150 O 0.28051 0.2966 0.3866 0.0
C151 C 0.24959 0.31731 0.41192 0.0
O152 O 0.23765 0.29701 0.40241 0.0
C153 C 0.30027 0.35227 0.34889 0.0
O154 O 0.28197 0.34781 0.3401 0.0
O155 O 0.25105 0.30482 0.35209 0.0
C156 C 0.37173 0.02538 0.72266 0.0
O157 O 0.35175 0.01589 0.72672 0.0
O158 O 0.3326 0.00907 0.67719 0.0
Zn159 Zn 0.35489 0.03922 0.69179 0.0
O160 O 0.34322 0.0488 0.71628 0.0
C161 C 0.36216 0.05365 0.64871 0.0
O162 O 0.35458 0.0327 0.6431 0.0
O163 O 0.37805 0.03716 0.70678 0.0
C164 C 0.33314 0.0584 0.71547 0.0
O165 O 0.32896 0.0632 0.69642 0.0
C166 C 0.31496 0.99672 0.68489 0.0
O167 O 0.31058 0.00371 0.70326 0.0
O168 O 0.36484 0.06074 0.66907 0.0
C169 C 0.00379 0.30122 0.72222 0.0
O170 O 0.00495 0.3173 0.73518 0.0
O171 O 0.96395 0.30894 0.7378 0.0
Zn172 Zn 0.95849 0.27955 0.72584 0.0
O173 O 0.93939 0.26842 0.69772 0.0
C174 C 0.95482 0.26545 0.76853 0.0
O175 O 0.97183 0.28532 0.77274 0.0
O176 O 0.98591 0.28347 0.71727 0.0
C177 C 0.91948 0.25978 0.69511 0.0
O178 O 0.90873 0.25708 0.71248 0.0
C179 C 0.95166 0.31112 0.75012 0.0
O180 O 0.93409 0.29353 0.75468 0.0
O181 O 0.94617 0.25866 0.74887 0.0
C182 C 0.71085 0.69908 0.66929 0.0
O183 O 0.70079 0.67855 0.66031 0.0
O184 O 0.70439 0.65724 0.69603 0.0
Zn185 Zn 0.73264 0.68301 0.69021 0.0
O186 O 0.74387 0.67513 0.66397 0.0
C187 C 0.74545 0.69707 0.73536 0.0
O188 O 0.72719 0.69566 0.73375 0.0
O189 O 0.7268 0.70607 0.68311 0.0
C190 C 0.74573 0.65862 0.66195 0.0
O191 O 0.74071 0.64608 0.678 0.0
C192 C 0.70167 0.64372 0.7096 0.0
O193 O 0.71827 0.64517 0.71958 0.0
O194 O 0.7523 0.6931 0.71793 0.0
C195 C 0.30938 0.31589 0.69105 0.0
O196 O 0.32602 0.31751 0.6826 0.0
O197 O 0.34901 0.32891 0.74212 0.0
Zn198 Zn 0.32435 0.30154 0.725 0.0
O199 O 0.33345 0.28845 0.70081 0.0
C200 C 0.31922 0.26918 0.75119 0.0
O201 O 0.33662 0.27425 0.74188 0.0
O202 O 0.30468 0.30891 0.70987 0.0
C203 C 0.3516 0.29186 0.69744 0.0
O204 O 0.36805 0.30571 0.71135 0.0
C205 C 0.36174 0.34617 0.73349 0.0
O206 O 0.35957 0.34635 0.71208 0.0
O207 O 0.30989 0.279 0.74655 0.0
C208 C 0.6731 0.03804 0.67853 0.0
O209 O 0.67733 0.0226 0.67889 0.0
O210 O 0.70699 0.02938 0.65023 0.0
Zn211 Zn 0.71394 0.05875 0.66445 0.0
O212 O 0.7312 0.06656 0.69328 0.0
C213 C 0.72364 0.08431 0.62688 0.0
O214 O 0.70364 0.07041 0.61982 0.0
O215 O 0.68671 0.0562 0.67184 0.0
C216 C 0.74549 0.06257 0.6975 0.0
O217 O 0.74992 0.05225 0.68203 0.0
C218 C 0.71302 0.02551 0.63217 0.0
O219 O 0.72582 0.04188 0.62124 0.0
O220 O 0.73073 0.08242 0.64521 0.0
C221 C 0.94982 0.62313 0.70598 0.0
O222 O 0.95854 0.63336 0.68879 0.0
O223 O 0.95726 0.67578 0.70038 0.0
Zn224 Zn 0.93119 0.65022 0.71044 0.0
O225 O 0.92305 0.65759 0.73936 0.0
C226 C 0.90497 0.62844 0.66909 0.0
O227 O 0.91734 0.62081 0.66645 0.0
O228 O 0.93725 0.62699 0.71593 0.0
C229 C 0.92736 0.67606 0.74854 0.0
O230 O 0.93855 0.69377 0.73858 0.0
C231 C 0.97591 0.68314 0.70876 0.0
O232 O 0.97854 0.6751 0.72628 0.0
O233 O 0.90746 0.64029 0.68688 0.0
H234 H 0.18622 0.36614 0.00986 0.0
H235 H 0.2713 0.29192 0.18834 0.0
H236 H 0.17187 0.36895 0.12701 0.0
H237 H 0.14872 0.37807 0.10803 0.0
H238 H 0.09553 0.31189 0.11008 0.0
H239 H 0.11903 0.30259 0.1285 0.0
H240 H 0.20313 0.36743 0.10445 0.0
H241 H 0.2012 0.37318 0.06569 0.0
H242 H 0.14682 0.30678 0.05159 0.0
H243 H 0.14912 0.30116 0.09037 0.0
H244 H 0.23136 0.36606 0.13701 0.0
H245 H 0.26055 0.37789 0.11371 0.0
H246 H 0.2265 0.31363 0.07584 0.0
H247 H 0.19673 0.30251 0.09864 0.0
H248 H 0.22621 0.35042 0.18519 0.0
H249 H 0.2541 0.34588 0.20051 0.0
H250 H 0.22769 0.28472 0.15811 0.0
H251 H 0.19976 0.28938 0.14312 0.0
H252 H 0.18861 0.34991 0.20391 0.0
H253 H 0.19311 0.34497 0.24237 0.0
H254 H 0.17421 0.27785 0.22231 0.0
H255 H 0.17002 0.28314 0.18369 0.0
H256 H 0.1591 0.35829 0.17578 0.0
H257 H 0.13786 0.35862 0.20532 0.0
H258 H 0.10943 0.28879 0.20636 0.0
H259 H 0.13077 0.28863 0.17675 0.0
O260 O 0.18676 0.36348 0.02511 0.0
O261 O 0.15877 0.32926 0.01877 0.0
O262 O 0.2734 0.32566 0.20403 0.0
O263 O 0.26048 0.29415 0.18254 0.0
C264 C 0.16206 0.32912 0.13736 0.0
C265 C 0.17744 0.33019 0.12369 0.0
C266 C 0.19367 0.32775 0.13235 0.0
C267 C 0.19377 0.32271 0.15419 0.0
C268 C 0.17789 0.32068 0.16761 0.0
C269 C 0.16209 0.32407 0.15926 0.0
C270 C 0.14716 0.33505 0.1289 0.0
C271 C 0.1552 0.35643 0.12346 0.0
C272 C 0.14203 0.3616 0.11257 0.0
C273 C 0.12047 0.34559 0.1074 0.0
C274 C 0.11215 0.32448 0.11389 0.0
C275 C 0.12547 0.31918 0.12446 0.0
C276 C 0.17643 0.33379 0.10014 0.0
C277 C 0.19097 0.35407 0.09292 0.0
C278 C 0.18975 0.35735 0.07078 0.0
C279 C 0.17389 0.34042 0.05551 0.0
C280 C 0.15927 0.32014 0.06289 0.0
C281 C 0.16054 0.31689 0.08502 0.0
C282 C 0.21205 0.33345 0.11951 0.0
C283 C 0.23035 0.3545 0.12379 0.0
C284 C 0.24706 0.36117 0.11047 0.0
C285 C 0.24601 0.34673 0.09282 0.0
C286 C 0.22776 0.32534 0.089 0.0
C287 C 0.21084 0.31882 0.10214 0.0
C288 C 0.21093 0.32016 0.16316 0.0
C289 C 0.22645 0.33603 0.17931 0.0
C290 C 0.24238 0.33341 0.18798 0.0
C291 C 0.2431 0.3149 0.18056 0.0
C292 C 0.22759 0.29914 0.16422 0.0
C293 C 0.21165 0.30177 0.15559 0.0
C294 C 0.17898 0.31689 0.19105 0.0
C295 C 0.18513 0.33405 0.20787 0.0
C296 C 0.18758 0.33113 0.22985 0.0
C297 C 0.18398 0.31099 0.23544 0.0
C298 C 0.1773 0.29363 0.21853 0.0
C299 C 0.17483 0.29657 0.19651 0.0
C300 C 0.14645 0.32344 0.1741 0.0
C301 C 0.14784 0.34296 0.18195 0.0
C302 C 0.13573 0.34312 0.19886 0.0
C303 C 0.12211 0.32375 0.2083 0.0
C304 C 0.12 0.30401 0.19963 0.0
C305 C 0.13202 0.30386 0.18262 0.0
C306 C 0.17261 0.34396 0.03202 0.0
C307 C 0.25994 0.31198 0.18979 0.0
H308 H 0.66032 0.81393 0.02947 0.0
H309 H 0.70049 0.98028 0.22313 0.0
H310 H 0.65048 0.79944 0.14646 0.0
H311 H 0.6432 0.76314 0.1334 0.0
H312 H 0.70743 0.78416 0.1553 0.0
H313 H 0.71482 0.82092 0.16767 0.0
H314 H 0.65038 0.8302 0.12245 0.0
H315 H 0.64828 0.82128 0.08254 0.0
H316 H 0.71463 0.84316 0.08774 0.0
H317 H 0.71655 0.85226 0.12763 0.0
H318 H 0.64516 0.85766 0.15351 0.0
H319 H 0.63355 0.87673 0.13136 0.0
H320 H 0.69736 0.91801 0.113 0.0
H321 H 0.70885 0.89861 0.13523 0.0
H322 H 0.65521 0.87166 0.20391 0.0
H323 H 0.65393 0.90321 0.21926 0.0
H324 H 0.71582 0.94706 0.19747 0.0
H325 H 0.71702 0.91532 0.18254 0.0
H326 H 0.65889 0.83629 0.22489 0.0
H327 H 0.65464 0.85014 0.2609 0.0
H328 H 0.71655 0.90921 0.26085 0.0
H329 H 0.72101 0.8948 0.22514 0.0
H330 H 0.65619 0.79953 0.19585 0.0
H331 H 0.6565 0.77317 0.21829 0.0
H332 H 0.72203 0.82069 0.24097 0.0
H333 H 0.72171 0.84699 0.21799 0.0
O334 O 0.66152 0.81765 0.04528 0.0
O335 O 0.69564 0.82902 0.04887 0.0
O336 O 0.66889 0.94427 0.22828 0.0
O337 O 0.70056 0.96751 0.21718 0.0
C338 C 0.68679 0.83433 0.16669 0.0
C339 C 0.6851 0.84764 0.15211 0.0
C340 C 0.68452 0.86597 0.16063 0.0
C341 C 0.68732 0.87207 0.18361 0.0
C342 C 0.68985 0.85926 0.19828 0.0
C343 C 0.68907 0.84006 0.18982 0.0
C344 C 0.68324 0.81285 0.15776 0.0
C345 C 0.6631 0.79633 0.14809 0.0
C346 C 0.65888 0.77551 0.14094 0.0
C347 C 0.67469 0.77074 0.14351 0.0
C348 C 0.69499 0.78742 0.15298 0.0
C349 C 0.69923 0.80836 0.16007 0.0
C350 C 0.68369 0.84216 0.12787 0.0
C351 C 0.66449 0.83329 0.11491 0.0
C352 C 0.66332 0.82809 0.09212 0.0
C353 C 0.68131 0.83157 0.08193 0.0
C354 C 0.70049 0.84033 0.09505 0.0
C355 C 0.70164 0.84554 0.11782 0.0
C356 C 0.6778 0.87683 0.14589 0.0
C357 C 0.65655 0.87064 0.14445 0.0
C358 C 0.64994 0.88142 0.13172 0.0
C359 C 0.66455 0.89876 0.12044 0.0
C360 C 0.68582 0.90471 0.12161 0.0
C361 C 0.69239 0.89369 0.13419 0.0
C362 C 0.68628 0.89125 0.1923 0.0
C363 C 0.66849 0.8881 0.20256 0.0
C364 C 0.66779 0.90615 0.21125 0.0
C365 C 0.68481 0.92768 0.20963 0.0
C366 C 0.70247 0.93072 0.19904 0.0
C367 C 0.70319 0.91264 0.19046 0.0
C368 C 0.69022 0.86457 0.22237 0.0
C369 C 0.67194 0.85174 0.23311 0.0
C370 C 0.66942 0.85984 0.25353 0.0
C371 C 0.68506 0.88098 0.26344 0.0
C372 C 0.70423 0.89287 0.25366 0.0
C373 C 0.70682 0.88466 0.23327 0.0
C374 C 0.68901 0.82503 0.20505 0.0
C375 C 0.67063 0.80424 0.20561 0.0
C376 C 0.67086 0.7892 0.21835 0.0
C377 C 0.68938 0.79481 0.23109 0.0
C378 C 0.70757 0.81597 0.23124 0.0
C379 C 0.70741 0.83097 0.2182 0.0
C380 C 0.68001 0.82603 0.05772 0.0
C381 C 0.68419 0.94691 0.21894 0.0
H382 H 0.13357 0.84173 0.01712 0.0
H383 H 0.32179 0.9787 0.18677 0.0
H384 H 0.12821 0.8417 0.13403 0.0
H385 H 0.09765 0.80581 0.11832 0.0
H386 H 0.13007 0.77453 0.13886 0.0
H387 H 0.16048 0.81033 0.15436 0.0
H388 H 0.16701 0.88257 0.10777 0.0
H389 H 0.15261 0.8708 0.0691 0.0
H390 H 0.15728 0.81382 0.07063 0.0
H391 H 0.17193 0.82594 0.10918 0.0
H392 H 0.21741 0.92203 0.12726 0.0
H393 H 0.24432 0.93804 0.10083 0.0
H394 H 0.23986 0.87601 0.08763 0.0
H395 H 0.21403 0.86067 0.11483 0.0
H396 H 0.21651 0.92843 0.18218 0.0
H397 H 0.25172 0.96138 0.19241 0.0
H398 H 0.28026 0.92617 0.16753 0.0
H399 H 0.24499 0.89329 0.15763 0.0
H400 H 0.1799 0.89228 0.21295 0.0
H401 H 0.19448 0.90434 0.25173 0.0
H402 H 0.24191 0.88916 0.238 0.0
H403 H 0.22726 0.87713 0.19952 0.0
H404 H 0.13553 0.8481 0.18622 0.0
H405 H 0.11409 0.8229 0.21258 0.0
H406 H 0.1641 0.81138 0.2272 0.0
H407 H 0.18487 0.8357 0.20014 0.0
O408 O 0.13944 0.84615 0.03235 0.0
O409 O 0.14213 0.8171 0.034 0.0
O410 O 0.29222 0.98327 0.19549 0.0
O411 O 0.30768 0.96591 0.18291 0.0
C412 C 0.16628 0.85023 0.15164 0.0
C413 C 0.17866 0.86218 0.13492 0.0
C414 C 0.19923 0.88082 0.14056 0.0
C415 C 0.20678 0.88858 0.16302 0.0
C416 C 0.19414 0.87697 0.17981 0.0
C417 C 0.17405 0.85754 0.17408 0.0
C418 C 0.14649 0.82855 0.14532 0.0
C419 C 0.12847 0.82701 0.13551 0.0
C420 C 0.11109 0.80657 0.12658 0.0
C421 C 0.11165 0.78749 0.12722 0.0
C422 C 0.12936 0.78903 0.13793 0.0
C423 C 0.14662 0.80939 0.14697 0.0
C424 C 0.17029 0.855 0.11133 0.0
C425 C 0.16494 0.86758 0.09969 0.0
C426 C 0.1567 0.8608 0.07762 0.0
C427 C 0.1537 0.84131 0.06679 0.0
C428 C 0.1593 0.82886 0.07849 0.0
C429 C 0.1676 0.8357 0.10053 0.0
C430 C 0.2138 0.89021 0.12297 0.0
C431 C 0.2222 0.91193 0.11853 0.0
C432 C 0.23743 0.92096 0.10331 0.0
C433 C 0.24434 0.90832 0.09222 0.0
C434 C 0.23519 0.88631 0.09615 0.0
C435 C 0.22023 0.87743 0.11149 0.0
C436 C 0.22821 0.90855 0.16903 0.0
C437 C 0.2304 0.92789 0.17897 0.0
C438 C 0.25052 0.94667 0.18477 0.0
C439 C 0.26882 0.94643 0.18073 0.0
C440 C 0.26652 0.92696 0.17082 0.0
C441 C 0.2464 0.90817 0.16508 0.0
C442 C 0.20273 0.88415 0.20336 0.0
C443 C 0.19343 0.89157 0.21839 0.0
C444 C 0.2017 0.89835 0.2405 0.0
C445 C 0.21946 0.89788 0.24785 0.0
C446 C 0.22849 0.89012 0.23276 0.0
C447 C 0.22015 0.88325 0.21078 0.0
C448 C 0.16178 0.8438 0.19137 0.0
C449 C 0.14184 0.84018 0.19524 0.0
C450 C 0.12969 0.82589 0.21037 0.0
C451 C 0.13735 0.81505 0.22193 0.0
C452 C 0.15758 0.81918 0.21833 0.0
C453 C 0.1696 0.83329 0.20309 0.0
C454 C 0.14476 0.83406 0.04341 0.0
C455 C 0.29023 0.96634 0.18685 0.0
H456 H 0.27125 0.15808 0.04593 0.0
H457 H 0.31915 0.02658 0.87899 0.0
H458 H 0.26226 0.1583 0.92769 0.0
H459 H 0.26713 0.19321 0.94329 0.0
H460 H 0.33243 0.22727 0.92769 0.0
H461 H 0.32727 0.1926 0.91197 0.0
H462 H 0.2604 0.11871 0.95501 0.0
H463 H 0.25899 0.1299 0.99356 0.0
H464 H 0.32254 0.18678 0.99411 0.0
H465 H 0.32383 0.17525 0.95568 0.0
H466 H 0.26866 0.0793 0.935 0.0
H467 H 0.27892 0.06069 0.95967 0.0
H468 H 0.33973 0.12104 0.97643 0.0
H469 H 0.32961 0.13923 0.95129 0.0
H470 H 0.26374 0.07467 0.87988 0.0
H471 H 0.26589 0.04252 0.86964 0.0
H472 H 0.33045 0.07808 0.89927 0.0
H473 H 0.32816 0.11017 0.90913 0.0
H474 H 0.26574 0.10998 0.84817 0.0
H475 H 0.27047 0.09826 0.81093 0.0
H476 H 0.33468 0.11932 0.83276 0.0
H477 H 0.32989 0.131 0.86964 0.0
H478 H 0.26403 0.15132 0.87017 0.0
H479 H 0.26862 0.17356 0.83986 0.0
H480 H 0.33472 0.19474 0.84174 0.0
H481 H 0.32984 0.17225 0.87148 0.0
O482 O 0.27217 0.1539 0.03073 0.0
O483 O 0.30482 0.18296 0.0301 0.0
O484 O 0.28467 0.02152 0.8677 0.0
O485 O 0.31785 0.03904 0.88284 0.0
C486 C 0.29268 0.1519 0.91225 0.0
C487 C 0.29269 0.13947 0.92904 0.0
C488 C 0.29408 0.12096 0.92362 0.0
C489 C 0.29434 0.11418 0.90131 0.0
C490 C 0.29434 0.1266 0.88456 0.0
C491 C 0.29379 0.14561 0.89005 0.0
C492 C 0.29435 0.17301 0.91849 0.0
C493 C 0.27743 0.17343 0.92721 0.0
C494 C 0.2803 0.19331 0.93628 0.0
C495 C 0.30017 0.21303 0.93674 0.0
C496 C 0.31681 0.21251 0.92723 0.0
C497 C 0.31391 0.1927 0.91819 0.0
C498 C 0.2921 0.14629 0.95251 0.0
C499 C 0.27399 0.13357 0.96352 0.0
C500 C 0.27323 0.14001 0.98552 0.0
C501 C 0.29062 0.1593 0.9969 0.0
C502 C 0.30884 0.1719 0.98582 0.0
C503 C 0.30959 0.1654 0.96384 0.0
C504 C 0.29839 0.11059 0.94137 0.0
C505 C 0.28401 0.08856 0.94436 0.0
C506 C 0.28989 0.07801 0.95849 0.0
C507 C 0.31022 0.08938 0.96982 0.0
C508 C 0.32409 0.11178 0.96768 0.0
C509 C 0.31824 0.12226 0.95354 0.0
C510 C 0.2957 0.09464 0.89544 0.0
C511 C 0.2783 0.07545 0.88416 0.0
C512 C 0.27959 0.05713 0.87834 0.0
C513 C 0.29834 0.05771 0.8837 0.0
C514 C 0.31576 0.07704 0.89495 0.0
C515 C 0.31447 0.09536 0.90069 0.0
C516 C 0.29737 0.12097 0.86162 0.0
C517 C 0.28085 0.11221 0.84476 0.0
C518 C 0.28359 0.10561 0.82357 0.0
C519 C 0.30284 0.10762 0.81911 0.0
C520 C 0.31956 0.11721 0.83587 0.0
C521 C 0.31686 0.12389 0.85689 0.0
C522 C 0.29656 0.16005 0.8728 0.0
C523 C 0.27948 0.16088 0.86402 0.0
C524 C 0.28215 0.17362 0.8468 0.0
C525 C 0.30197 0.18569 0.83819 0.0
C526 C 0.31914 0.18525 0.84761 0.0
C527 C 0.31643 0.17253 0.86468 0.0
C528 C 0.28972 0.16617 0.02023 0.0
C529 C 0.29979 0.0383 0.87756 0.0
H530 H 0.8398 0.18244 0.05744 0.0
H531 H 0.69824 0.01178 0.8684 0.0
H532 H 0.84402 0.19079 0.93968 0.0
H533 H 0.87514 0.2248 0.95725 0.0
H534 H 0.91433 0.1991 0.94158 0.0
H535 H 0.88273 0.16448 0.92443 0.0
H536 H 0.81068 0.16193 0.96347 0.0
H537 H 0.81892 0.17279 0.00329 0.0
H538 H 0.86084 0.14865 0.00359 0.0
H539 H 0.85224 0.1376 0.96378 0.0
H540 H 0.77374 0.13179 0.92813 0.0
H541 H 0.74531 0.11882 0.95281 0.0
H542 H 0.77009 0.08501 0.98523 0.0
H543 H 0.7984 0.09785 0.9601 0.0
H544 H 0.77137 0.1193 0.88014 0.0
H545 H 0.73635 0.08851 0.86511 0.0
H546 H 0.74851 0.04377 0.89546 0.0
H547 H 0.78361 0.0747 0.91016 0.0
H548 H 0.81354 0.1537 0.86187 0.0
H549 H 0.80015 0.14298 0.82299 0.0
H550 H 0.79422 0.08051 0.82641 0.0
H551 H 0.80842 0.09175 0.86527 0.0
H552 H 0.853 0.18959 0.89104 0.0
H553 H 0.87739 0.20966 0.86369 0.0
H554 H 0.88126 0.15325 0.84415 0.0
H555 H 0.8573 0.13341 0.8721 0.0
O556 O 0.83666 0.17789 0.0417 0.0
O557 O 0.85807 0.1653 0.04094 0.0
O558 O 0.70657 0.04794 0.85879 0.0
O559 O 0.71201 0.02425 0.87412 0.0
C560 C 0.84158 0.15407 0.92215 0.0
C561 C 0.82587 0.14225 0.93654 0.0
C562 C 0.80562 0.12467 0.92785 0.0
C563 C 0.80147 0.11782 0.90496 0.0
C564 C 0.8174 0.12913 0.89059 0.0
C565 C 0.83746 0.14739 0.89916 0.0
C566 C 0.86109 0.17506 0.93114 0.0
C567 C 0.85929 0.1924 0.94014 0.0
C568 C 0.87702 0.21177 0.95015 0.0
C569 C 0.89698 0.21434 0.95098 0.0
C570 C 0.89902 0.19736 0.94117 0.0
C571 C 0.88109 0.1777 0.93141 0.0
C572 C 0.83065 0.14871 0.9608 0.0
C573 C 0.82145 0.15877 0.9722 0.0
C574 C 0.82628 0.16507 0.99494 0.0
C575 C 0.84051 0.16154 0.00664 0.0
C576 C 0.84979 0.15156 0.99509 0.0
C577 C 0.8449 0.14523 0.97237 0.0
C578 C 0.78796 0.11558 0.94226 0.0
C579 C 0.77288 0.1214 0.94043 0.0
C580 C 0.75685 0.11423 0.9547 0.0
C581 C 0.75559 0.10105 0.97103 0.0
C582 C 0.77064 0.09506 0.9727 0.0
C583 C 0.78676 0.10233 0.95842 0.0
C584 C 0.78009 0.09918 0.89604 0.0
C585 C 0.76649 0.10282 0.8834 0.0
C586 C 0.74647 0.08521 0.8749 0.0
C587 C 0.73964 0.06365 0.87904 0.0
C588 C 0.75328 0.06014 0.89191 0.0
C589 C 0.77332 0.07776 0.90035 0.0
C590 C 0.81197 0.12351 0.86636 0.0
C591 C 0.80988 0.13793 0.85408 0.0
C592 C 0.802 0.13168 0.83196 0.0
C593 C 0.79588 0.11079 0.82175 0.0
C594 C 0.79893 0.09675 0.8338 0.0
C595 C 0.80693 0.10309 0.85598 0.0
C596 C 0.85358 0.16013 0.88379 0.0
C597 C 0.85954 0.18175 0.88129 0.0
C598 C 0.87339 0.19315 0.86562 0.0
C599 C 0.88121 0.18298 0.85187 0.0
C600 C 0.87539 0.1614 0.85451 0.0
C601 C 0.8618 0.15012 0.87046 0.0
C602 C 0.84566 0.16832 0.03078 0.0
C603 C 0.71841 0.04488 0.87001 0.0
H604 H 0.87012 0.69557 0.07208 0.0
H605 H 0.71805 0.69666 0.90217 0.0
H606 H 0.89072 0.72072 0.95964 0.0
H607 H 0.91382 0.70992 0.97559 0.0
H608 H 0.87463 0.64519 0.93969 0.0
H609 H 0.8515 0.65611 0.92398 0.0
H610 H 0.85654 0.72334 0.98897 0.0
H611 H 0.86435 0.71799 0.02639 0.0
H612 H 0.8411 0.65005 0.00416 0.0
H613 H 0.83311 0.65556 0.96692 0.0
H614 H 0.8179 0.72681 0.9703 0.0
H615 H 0.79082 0.72032 0.99566 0.0
H616 H 0.76729 0.65088 0.98733 0.0
H617 H 0.79467 0.65768 0.96265 0.0
H618 H 0.82174 0.73686 0.91643 0.0
H619 H 0.7928 0.74229 0.90763 0.0
H620 H 0.74736 0.67442 0.91616 0.0
H621 H 0.77642 0.66916 0.92464 0.0
H622 H 0.85341 0.73209 0.88281 0.0
H623 H 0.84167 0.73442 0.84551 0.0
H624 H 0.78345 0.67179 0.84719 0.0
H625 H 0.79548 0.66915 0.88389 0.0
H626 H 0.889 0.72768 0.90741 0.0
H627 H 0.90866 0.72809 0.87577 0.0
H628 H 0.8548 0.66501 0.84815 0.0
H629 H 0.83559 0.66456 0.87998 0.0
O630 O 0.86679 0.69729 0.05722 0.0
O631 O 0.85479 0.66253 0.04492 0.0
O632 O 0.7538 0.72977 0.90149 0.0
O633 O 0.7298 0.69499 0.90567 0.0
C634 C 0.85281 0.69381 0.93561 0.0
C635 C 0.84011 0.69341 0.95251 0.0
C636 C 0.82305 0.69597 0.94776 0.0
C637 C 0.81887 0.69944 0.92625 0.0
C638 C 0.83129 0.69946 0.90923 0.0
C639 C 0.84832 0.6967 0.91393 0.0
C640 C 0.86951 0.68922 0.94063 0.0
C641 C 0.88754 0.70445 0.9547 0.0
C642 C 0.90064 0.69821 0.96384 0.0
C643 C 0.89585 0.67661 0.95909 0.0
C644 C 0.87851 0.66184 0.94388 0.0
C645 C 0.86548 0.66813 0.93466 0.0
C646 C 0.84443 0.68989 0.97525 0.0
C647 C 0.8531 0.70731 0.99227 0.0
C648 C 0.85757 0.70421 0.01359 0.0
C649 C 0.85342 0.68361 0.01826 0.0
C650 C 0.84455 0.66614 0.00113 0.0
C651 C 0.84003 0.66925 0.97984 0.0
C652 C 0.80819 0.69271 0.96472 0.0
C653 C 0.80707 0.71029 0.97431 0.0
C654 C 0.79153 0.70651 0.98864 0.0
C655 C 0.77683 0.68505 0.99348 0.0
C656 C 0.77854 0.66764 0.98432 0.0
C657 C 0.7941 0.67146 0.97012 0.0
C658 C 0.80118 0.70269 0.92137 0.0
C659 C 0.80552 0.72322 0.91643 0.0
C660 C 0.78897 0.72626 0.91141 0.0
C661 C 0.76775 0.70879 0.91124 0.0
C662 C 0.76349 0.68823 0.91621 0.0
C663 C 0.78006 0.68521 0.92117 0.0
C664 C 0.82518 0.70057 0.88615 0.0
C665 C 0.83827 0.71876 0.87496 0.0
C666 C 0.83158 0.72009 0.85376 0.0
C667 C 0.81158 0.7034 0.84372 0.0
C668 C 0.7988 0.68499 0.85475 0.0
C669 C 0.80564 0.68349 0.87566 0.0
C670 C 0.86091 0.6961 0.89592 0.0
C671 C 0.88164 0.71385 0.89464 0.0
C672 C 0.89273 0.71414 0.87649 0.0
C673 C 0.88327 0.69661 0.85943 0.0
C674 C 0.86265 0.67863 0.86113 0.0
C675 C 0.85161 0.67837 0.87923 0.0
C676 C 0.85834 0.68041 0.04089 0.0
C677 C 0.7501 0.71191 0.90584 0.0
H678 H 0.80295 0.68064 0.34459 0.0
H679 H 0.91974 0.59881 0.49039 0.0
H680 H 0.81578 0.6837 0.47494 0.0
H681 H 0.79127 0.69399 0.46207 0.0
H682 H 0.74577 0.62623 0.43709 0.0
H683 H 0.77033 0.61606 0.45036 0.0
H684 H 0.83114 0.68226 0.43564 0.0
H685 H 0.82191 0.68815 0.39915 0.0
H686 H 0.79404 0.61926 0.37689 0.0
H687 H 0.8031 0.61356 0.41362 0.0
H688 H 0.86598 0.67977 0.44004 0.0
H689 H 0.89203 0.68947 0.41312 0.0
H690 H 0.87405 0.62164 0.4022 0.0
H691 H 0.84677 0.61186 0.42813 0.0
H692 H 0.88396 0.66579 0.48667 0.0
H693 H 0.91334 0.66058 0.49379 0.0
H694 H 0.8706 0.59054 0.47656 0.0
H695 H 0.84143 0.59604 0.46945 0.0
H696 H 0.8536 0.66365 0.52698 0.0
H697 H 0.86461 0.65676 0.56204 0.0
H698 H 0.83071 0.58738 0.53935 0.0
H699 H 0.81953 0.59443 0.50437 0.0
H700 H 0.82602 0.6778 0.51156 0.0
H701 H 0.81052 0.68332 0.54416 0.0
H702 H 0.76733 0.61306 0.54173 0.0
H703 H 0.78305 0.60772 0.50887 0.0
O704 O 0.80645 0.67794 0.35891 0.0
O705 O 0.79254 0.64245 0.34821 0.0
O706 O 0.9298 0.63749 0.49618 0.0
O707 O 0.90846 0.60136 0.48759 0.0
C708 C 0.81105 0.64381 0.4674 0.0
C709 C 0.82264 0.64365 0.44962 0.0
C710 C 0.83921 0.64 0.45301 0.0
C711 C 0.8429 0.63452 0.47366 0.0
C712 C 0.83089 0.63404 0.49127 0.0
C713 C 0.81552 0.63953 0.48837 0.0
C714 C 0.79468 0.64911 0.46381 0.0
C715 C 0.80022 0.67098 0.46741 0.0
C716 C 0.78635 0.67687 0.45977 0.0
C717 C 0.7667 0.66094 0.44842 0.0
C718 C 0.76073 0.63882 0.44595 0.0
C719 C 0.77468 0.63297 0.45353 0.0
C720 C 0.81753 0.64743 0.42732 0.0
C721 C 0.82288 0.66843 0.42292 0.0
C722 C 0.81767 0.67176 0.40202 0.0
C723 C 0.80716 0.65416 0.38511 0.0
C724 C 0.80207 0.63317 0.38955 0.0
C725 C 0.80725 0.62986 0.41049 0.0
C726 C 0.8545 0.64513 0.43605 0.0
C727 C 0.86741 0.66694 0.43155 0.0
C728 C 0.88249 0.67248 0.41634 0.0
C729 C 0.88538 0.6564 0.40567 0.0
C730 C 0.87214 0.63442 0.40996 0.0
C731 C 0.85672 0.62881 0.42495 0.0
C732 C 0.86066 0.63129 0.47753 0.0
C733 C 0.88104 0.64936 0.48439 0.0
C734 C 0.89775 0.64633 0.48846 0.0
C735 C 0.89431 0.62513 0.48575 0.0
C736 C 0.8738 0.60707 0.47881 0.0
C737 C 0.85712 0.61014 0.47473 0.0
C738 C 0.83576 0.62953 0.51322 0.0
C739 C 0.84821 0.64693 0.52978 0.0
C740 C 0.85445 0.64295 0.54977 0.0
C741 C 0.84851 0.62152 0.55339 0.0
C742 C 0.83562 0.60406 0.53692 0.0
C743 C 0.82919 0.60803 0.51703 0.0
C744 C 0.80535 0.64241 0.50765 0.0
C745 C 0.81297 0.66363 0.51785 0.0
C746 C 0.80413 0.66674 0.53647 0.0
C747 C 0.78759 0.64863 0.54539 0.0
C748 C 0.78011 0.62731 0.53525 0.0
C749 C 0.78893 0.62423 0.51647 0.0
C750 C 0.80158 0.65774 0.36295 0.0
C751 C 0.91197 0.62179 0.49017 0.0
H752 H 0.30454 0.13781 0.37308 0.0
H753 H 0.40124 0.33256 0.54825 0.0
H754 H 0.31612 0.14001 0.49392 0.0
H755 H 0.30086 0.10095 0.48285 0.0
H756 H 0.36347 0.11154 0.48847 0.0
H757 H 0.37871 0.15093 0.49923 0.0
H758 H 0.31772 0.17153 0.46647 0.0
H759 H 0.30644 0.15675 0.42759 0.0
H760 H 0.36634 0.16227 0.42002 0.0
H761 H 0.37751 0.17728 0.45888 0.0
H762 H 0.32628 0.21017 0.49648 0.0
H763 H 0.31802 0.23102 0.47315 0.0
H764 H 0.37388 0.24913 0.43894 0.0
H765 H 0.38219 0.22831 0.46276 0.0
H766 H 0.3425 0.22328 0.54441 0.0
H767 H 0.34872 0.25925 0.55761 0.0
H768 H 0.40528 0.29059 0.52271 0.0
H769 H 0.39903 0.2545 0.5099 0.0
H770 H 0.34256 0.18418 0.56555 0.0
H771 H 0.34541 0.2014 0.60259 0.0
H772 H 0.40751 0.2561 0.59233 0.0
H773 H 0.40498 0.23813 0.55549 0.0
H774 H 0.33333 0.14238 0.54046 0.0
H775 H 0.33718 0.12051 0.56663 0.0
H776 H 0.40448 0.16829 0.57632 0.0
H777 H 0.40072 0.1897 0.5493 0.0
O778 O 0.30935 0.14374 0.38841 0.0
O779 O 0.34034 0.14681 0.38542 0.0
O780 O 0.36929 0.30121 0.56106 0.0
O781 O 0.39841 0.31812 0.54327 0.0
C782 C 0.35718 0.17184 0.50419 0.0
C783 C 0.35545 0.18468 0.48899 0.0
C784 C 0.3599 0.20582 0.49633 0.0
C785 C 0.36681 0.21447 0.51867 0.0
C786 C 0.36927 0.20196 0.5338 0.0
C787 C 0.36457 0.18064 0.52653 0.0
C788 C 0.34851 0.14828 0.49722 0.0
C789 C 0.32655 0.13392 0.49262 0.0
C790 C 0.31785 0.1116 0.48653 0.0
C791 C 0.33096 0.10318 0.48491 0.0
C792 C 0.35301 0.11762 0.48945 0.0
C793 C 0.36173 0.14004 0.49564 0.0
C794 C 0.34853 0.17571 0.46539 0.0
C795 C 0.32845 0.16972 0.45632 0.0
C796 C 0.32202 0.16119 0.43414 0.0
C797 C 0.33551 0.15838 0.42067 0.0
C798 C 0.35558 0.16426 0.42991 0.0
C799 C 0.362 0.17283 0.45208 0.0
C800 C 0.35486 0.21786 0.48132 0.0
C801 C 0.33668 0.21858 0.48389 0.0
C802 C 0.33191 0.23033 0.47043 0.0
C803 C 0.34525 0.24161 0.45415 0.0
C804 C 0.36339 0.24068 0.45145 0.0
C805 C 0.36811 0.22878 0.46492 0.0
C806 C 0.37043 0.23633 0.52638 0.0
C807 C 0.35628 0.23795 0.53974 0.0
C808 C 0.35984 0.2585 0.5472 0.0
C809 C 0.37754 0.27781 0.54125 0.0
C810 C 0.39154 0.27607 0.52764 0.0
C811 C 0.388 0.25549 0.52027 0.0
C812 C 0.37349 0.20996 0.55774 0.0
C813 C 0.35716 0.19943 0.57158 0.0
C814 C 0.3587 0.20944 0.59264 0.0
C815 C 0.37647 0.23034 0.60013 0.0
C816 C 0.39363 0.24 0.58701 0.0
C817 C 0.39218 0.22981 0.56595 0.0
C818 C 0.36681 0.1674 0.54257 0.0
C819 C 0.34898 0.14792 0.54785 0.0
C820 C 0.35117 0.13552 0.56286 0.0
C821 C 0.37115 0.1427 0.57331 0.0
C822 C 0.38893 0.16245 0.56844 0.0
C823 C 0.38679 0.17462 0.55304 0.0
C824 C 0.32863 0.1493 0.39711 0.0
C825 C 0.38142 0.2997 0.54916 0.0
H826 H 0.82019 0.18573 0.32909 0.0
H827 H 0.9889 0.30501 0.51997 0.0
H828 H 0.79966 0.18366 0.44299 0.0
H829 H 0.7672 0.14985 0.42659 0.0
H830 H 0.78968 0.11146 0.45331 0.0
H831 H 0.82172 0.14519 0.46983 0.0
H832 H 0.84226 0.22228 0.42205 0.0
H833 H 0.83303 0.2125 0.38217 0.0
H834 H 0.83293 0.15308 0.38675 0.0
H835 H 0.84238 0.16318 0.42657 0.0
H836 H 0.88695 0.25985 0.45153 0.0
H837 H 0.91757 0.28066 0.43038 0.0
H838 H 0.91782 0.22179 0.41243 0.0
H839 H 0.88739 0.20118 0.43378 0.0
H840 H 0.88476 0.26209 0.50452 0.0
H841 H 0.92009 0.29258 0.51921 0.0
H842 H 0.94675 0.2553 0.4949 0.0
H843 H 0.91131 0.22483 0.48057 0.0
H844 H 0.84658 0.22856 0.53005 0.0
H845 H 0.86035 0.23905 0.56917 0.0
H846 H 0.89986 0.21292 0.55745 0.0
H847 H 0.88617 0.20265 0.51863 0.0
H848 H 0.80147 0.19029 0.49515 0.0
H849 H 0.77485 0.16864 0.52024 0.0
H850 H 0.81349 0.14478 0.54285 0.0
H851 H 0.83983 0.16619 0.51757 0.0
O852 O 0.82392 0.18932 0.34486 0.0
O853 O 0.82401 0.15896 0.34812 0.0
O854 O 0.96023 0.31161 0.52667 0.0
O855 O 0.97474 0.29319 0.51436 0.0
C856 C 0.83333 0.18707 0.46623 0.0
C857 C 0.84831 0.19936 0.45139 0.0
C858 C 0.86864 0.21721 0.45961 0.0
C859 C 0.87398 0.2228 0.48265 0.0
C860 C 0.859 0.21049 0.49748 0.0
C861 C 0.83856 0.19283 0.48927 0.0
C862 C 0.81294 0.16681 0.45764 0.0
C863 C 0.79738 0.1679 0.44544 0.0
C864 C 0.77896 0.14861 0.43601 0.0
C865 C 0.77585 0.12796 0.43865 0.0
C866 C 0.79138 0.12704 0.45126 0.0
C867 C 0.80972 0.14629 0.46067 0.0
C868 C 0.84285 0.19337 0.42718 0.0
C869 C 0.84027 0.20718 0.41438 0.0
C870 C 0.83497 0.20154 0.39162 0.0
C871 C 0.83218 0.18197 0.38127 0.0
C872 C 0.83491 0.16823 0.3942 0.0
C873 C 0.84024 0.17392 0.41694 0.0
C874 C 0.88501 0.22905 0.44421 0.0
C875 C 0.89343 0.25141 0.44273 0.0
C876 C 0.91092 0.26325 0.43075 0.0
C877 C 0.92012 0.25283 0.4199 0.0
C878 C 0.91093 0.23017 0.42045 0.0
C879 C 0.89356 0.21839 0.43261 0.0
C880 C 0.89551 0.24133 0.49138 0.0
C881 C 0.89826 0.26055 0.50242 0.0
C882 C 0.91845 0.27793 0.51076 0.0
C883 C 0.93626 0.27639 0.50818 0.0
C884 C 0.9334 0.25705 0.49713 0.0
C885 C 0.91319 0.23965 0.48886 0.0
C886 C 0.86558 0.21509 0.52152 0.0
C887 C 0.85802 0.22492 0.53607 0.0
C888 C 0.86585 0.23082 0.55835 0.0
C889 C 0.88137 0.22705 0.56627 0.0
C890 C 0.88821 0.21641 0.55174 0.0
C891 C 0.88037 0.21048 0.52961 0.0
C892 C 0.82267 0.18 0.50474 0.0
C893 C 0.80415 0.18038 0.50555 0.0
C894 C 0.78896 0.16799 0.51979 0.0
C895 C 0.79219 0.15517 0.53357 0.0
C896 C 0.81076 0.1548 0.53267 0.0
C897 C 0.82581 0.167 0.51827 0.0
C898 C 0.82647 0.17598 0.35711 0.0
C899 C 0.95775 0.29483 0.51699 0.0
H900 H 0.00028 0.5287 0.38521 0.0
H901 H 0.00189 0.37252 0.20524 0.0
H902 H 0.96261 0.51331 0.27025 0.0
H903 H 0.96842 0.5489 0.28466 0.0
H904 H 0.02669 0.58198 0.25284 0.0
H905 H 0.02083 0.54642 0.23866 0.0
H906 H 0.96854 0.47886 0.29755 0.0
H907 H 0.97635 0.4947 0.33625 0.0
H908 H 0.03631 0.54944 0.32058 0.0
H909 H 0.02841 0.53327 0.28201 0.0
H910 H 0.97042 0.43722 0.27569 0.0
H911 H 0.98533 0.42091 0.29787 0.0
H912 H 0.04774 0.47921 0.29754 0.0
H913 H 0.03281 0.49515 0.2751 0.0
H914 H 0.95241 0.42602 0.22242 0.0
H915 H 0.95083 0.39186 0.21131 0.0
H916 H 0.01904 0.42653 0.2228 0.0
H917 H 0.0204 0.4606 0.23358 0.0
H918 H 0.94762 0.45635 0.19103 0.0
H919 H 0.94227 0.43768 0.15367 0.0
H920 H 0.00843 0.45879 0.15777 0.0
H921 H 0.01361 0.47774 0.19443 0.0
H922 H 0.95544 0.50697 0.21397 0.0
H923 H 0.95807 0.53236 0.18782 0.0
H924 H 0.01783 0.54229 0.1702 0.0
H925 H 0.0153 0.51744 0.19647 0.0
O926 O 0.99756 0.52268 0.36985 0.0
O927 O 0.02815 0.55052 0.3609 0.0
O928 O 0.96703 0.36874 0.20381 0.0
O929 O 0.00205 0.38578 0.20958 0.0
C930 C 0.98913 0.506 0.247 0.0
C931 C 0.99281 0.49539 0.26347 0.0
C932 C 0.99251 0.47598 0.25751 0.0
C933 C 0.98731 0.46645 0.2353 0.0
C934 C 0.98389 0.47717 0.21882 0.0
C935 C 0.98521 0.49719 0.22456 0.0
C936 C 0.99122 0.52733 0.25331 0.0
C937 C 0.97644 0.52827 0.26614 0.0
C938 C 0.97985 0.54855 0.27444 0.0
C939 C 0.99805 0.56818 0.26992 0.0
C940 C 0.01241 0.56713 0.25637 0.0
C941 C 0.00907 0.54686 0.24822 0.0
C942 C 0.9978 0.50502 0.28697 0.0
C943 C 0.98336 0.49425 0.30254 0.0
C944 C 0.98786 0.50335 0.32462 0.0
C945 C 0.00693 0.52338 0.3315 0.0
C946 C 0.02145 0.53403 0.31582 0.0
C947 C 0.01695 0.52488 0.29377 0.0
C948 C 0.00055 0.46734 0.27381 0.0
C949 C 0.98723 0.44659 0.28079 0.0
C950 C 0.99577 0.43736 0.29348 0.0
C951 C 0.01773 0.44875 0.29927 0.0
C952 C 0.03081 0.46996 0.2931 0.0
C953 C 0.02229 0.47916 0.28049 0.0
C954 C 0.98648 0.4457 0.22899 0.0
C955 C 0.96697 0.42617 0.22256 0.0
C956 C 0.96612 0.4067 0.21622 0.0
C957 C 0.98481 0.40645 0.21623 0.0
C958 C 0.00435 0.42612 0.22267 0.0
C959 C 0.00517 0.44559 0.22892 0.0
C960 C 0.98097 0.46829 0.19535 0.0
C961 C 0.96097 0.45726 0.18355 0.0
C962 C 0.95793 0.44649 0.16236 0.0
C963 C 0.97491 0.44673 0.15274 0.0
C964 C 0.99507 0.45856 0.16445 0.0
C965 C 0.99807 0.46929 0.18548 0.0
C966 C 0.98513 0.51028 0.20702 0.0
C967 C 0.96892 0.51442 0.20419 0.0
C968 C 0.97042 0.52885 0.18926 0.0
C969 C 0.98825 0.53944 0.17714 0.0
C970 C 0.00404 0.5346 0.17952 0.0
C971 C 0.00251 0.52022 0.19433 0.0
C972 C 0.0116 0.53308 0.35493 0.0
C973 C 0.98401 0.38582 0.20949 0.0
H974 H 0.49598 0.49628 0.38996 0.0
H975 H 0.35832 0.33067 0.19621 0.0
H976 H 0.50539 0.50775 0.27455 0.0
H977 H 0.53734 0.54164 0.29042 0.0
H978 H 0.57486 0.51477 0.2708 0.0
H979 H 0.54234 0.48013 0.25617 0.0
H980 H 0.46996 0.47837 0.29531 0.0
H981 H 0.47696 0.48821 0.33533 0.0
H982 H 0.51801 0.46303 0.33664 0.0
H983 H 0.51065 0.45301 0.29662 0.0
H984 H 0.43532 0.45082 0.26287 0.0
H985 H 0.40548 0.43513 0.2856 0.0
H986 H 0.42499 0.39306 0.30916 0.0
H987 H 0.45552 0.40985 0.28707 0.0
H988 H 0.43293 0.43774 0.21145 0.0
H989 H 0.39793 0.40775 0.19531 0.0
H990 H 0.40818 0.36115 0.22438 0.0
H991 H 0.44325 0.39129 0.24021 0.0
H992 H 0.47485 0.46948 0.19171 0.0
H993 H 0.46346 0.45747 0.15243 0.0
H994 H 0.45983 0.39669 0.16014 0.0
H995 H 0.47128 0.40892 0.19954 0.0
H996 H 0.51283 0.50682 0.22466 0.0
H997 H 0.53983 0.52917 0.2004 0.0
H998 H 0.54641 0.47456 0.18054 0.0
H999 H 0.51977 0.45238 0.20549 0.0
O1000 O 0.49332 0.49212 0.37415 0.0
O1001 O 0.51429 0.47899 0.37393 0.0
O1002 O 0.36767 0.36746 0.18767 0.0
O1003 O 0.3721 0.34284 0.20236 0.0
C1004 C 0.50167 0.47089 0.25493 0.0
C1005 C 0.4855 0.45883 0.26879 0.0
C1006 C 0.46546 0.44133 0.25947 0.0
C1007 C 0.46193 0.43487 0.23652 0.0
C1008 C 0.47831 0.44633 0.22269 0.0
C1009 C 0.49808 0.46465 0.23183 0.0
C1010 C 0.5215 0.49137 0.26447 0.0
C1011 C 0.52047 0.50904 0.27398 0.0
C1012 C 0.53883 0.52856 0.28271 0.0
C1013 C 0.55876 0.53107 0.28171 0.0
C1014 C 0.55978 0.51333 0.27205 0.0
C1015 C 0.54126 0.49359 0.26357 0.0
C1016 C 0.48958 0.46471 0.29312 0.0
C1017 C 0.48025 0.47475 0.30431 0.0
C1018 C 0.48438 0.48047 0.32715 0.0
C1019 C 0.498 0.47635 0.3392 0.0
C1020 C 0.5074 0.46638 0.32788 0.0
C1021 C 0.50323 0.46064 0.30503 0.0
C1022 C 0.44745 0.43138 0.27335 0.0
C1023 C 0.43313 0.43825 0.27302 0.0
C1024 C 0.41602 0.42915 0.28592 0.0
C1025 C 0.41268 0.41267 0.29912 0.0
C1026 C 0.42721 0.40591 0.29944 0.0
C1027 C 0.44455 0.4153 0.28672 0.0
C1028 C 0.44063 0.41664 0.22687 0.0
C1029 C 0.42761 0.42103 0.21421 0.0
C1030 C 0.40761 0.40387 0.20507 0.0
C1031 C 0.40026 0.38203 0.20854 0.0
C1032 C 0.41335 0.37776 0.22137 0.0
C1033 C 0.43337 0.39493 0.23046 0.0
C1034 C 0.47395 0.4401 0.19843 0.0
C1035 C 0.47207 0.4538 0.1848 0.0
C1036 C 0.46558 0.44691 0.16237 0.0
C1037 C 0.46072 0.42611 0.1532 0.0
C1038 C 0.46328 0.41271 0.16678 0.0
C1039 C 0.4699 0.41969 0.18922 0.0
C1040 C 0.51453 0.47807 0.21705 0.0
C1041 C 0.52032 0.49977 0.21535 0.0
C1042 C 0.5357 0.51249 0.2015 0.0
C1043 C 0.54526 0.50359 0.18876 0.0
C1044 C 0.53924 0.48175 0.19021 0.0
C1045 C 0.52409 0.46912 0.2044 0.0
C1046 C 0.50241 0.48253 0.36346 0.0
C1047 C 0.37903 0.36374 0.19886 0.0
H1048 H 0.52785 0.00288 0.39483 0.0
H1049 H 0.36444 0.99824 0.23545 0.0
H1050 H 0.54125 0.03252 0.28668 0.0
H1051 H 0.56757 0.02481 0.30016 0.0
H1052 H 0.53602 0.96367 0.25722 0.0
H1053 H 0.5094 0.9712 0.2442 0.0
H1054 H 0.50743 0.03121 0.31577 0.0
H1055 H 0.51744 0.0253 0.35192 0.0
H1056 H 0.49916 0.95967 0.32565 0.0
H1057 H 0.48893 0.9657 0.28969 0.0
H1058 H 0.47249 0.03709 0.29726 0.0
H1059 H 0.44635 0.03277 0.32291 0.0
H1060 H 0.41961 0.96267 0.31632 0.0
H1061 H 0.44629 0.96735 0.29128 0.0
H1062 H 0.46927 0.04416 0.24472 0.0
H1063 H 0.43866 0.04743 0.23805 0.0
H1064 H 0.39679 0.97877 0.24644 0.0
H1065 H 0.42751 0.97568 0.25277 0.0
H1066 H 0.50186 0.04299 0.21038 0.0
H1067 H 0.48924 0.04608 0.17393 0.0
H1068 H 0.4328 0.98163 0.17403 0.0
H1069 H 0.44572 0.97836 0.20995 0.0
H1070 H 0.53974 0.03994 0.23334 0.0
H1071 H 0.55867 0.04408 0.20006 0.0
H1072 H 0.50579 0.98171 0.16974 0.0
H1073 H 0.48717 0.97755 0.20303 0.0
O1074 O 0.52348 0.00474 0.3805 0.0
O1075 O 0.51409 0.97124 0.36611 0.0
O1076 O 0.39901 0.03267 0.23394 0.0
O1077 O 0.37682 0.99744 0.23808 0.0
C1078 C 0.50495 0.00459 0.26044 0.0
C1079 C 0.49234 0.00291 0.27796 0.0
C1080 C 0.47465 0.00469 0.27431 0.0
C1081 C 0.46924 0.00779 0.25313 0.0
C1082 C 0.48142 0.00887 0.23547 0.0
C1083 C 0.49939 0.0074 0.23915 0.0
C1084 C 0.52335 0.00236 0.26457 0.0
C1085 C 0.54028 0.01769 0.27984 0.0
C1086 C 0.55518 0.01321 0.28762 0.0
C1087 C 0.55362 0.99353 0.2799 0.0
C1088 C 0.53758 0.97898 0.26338 0.0
C1089 C 0.52246 0.98331 0.25585 0.0
C1090 C 0.49748 0.99889 0.30014 0.0
C1091 C 0.50541 0.0155 0.31793 0.0
C1092 C 0.51121 0.01211 0.33852 0.0
C1093 C 0.50917 0.99203 0.34166 0.0
C1094 C 0.50097 0.97534 0.3238 0.0
C1095 C 0.49511 0.97873 0.30325 0.0
C1096 C 0.46114 0.00252 0.2924 0.0
C1097 C 0.46127 0.0209 0.30181 0.0
C1098 C 0.44623 0.01835 0.31628 0.0
C1099 C 0.4307 0.99732 0.32141 0.0
C1100 C 0.43144 0.9791 0.3129 0.0
C1101 C 0.44661 0.98171 0.29854 0.0
C1102 C 0.4506 0.00974 0.24936 0.0
C1103 C 0.45346 0.02987 0.24511 0.0
C1104 C 0.43596 0.03168 0.24132 0.0
C1105 C 0.41526 0.01335 0.24175 0.0
C1106 C 0.41249 0.9932 0.24604 0.0
C1107 C 0.43001 0.99141 0.24975 0.0
C1108 C 0.4746 0.01053 0.21291 0.0
C1109 C 0.48691 0.02945 0.20237 0.0
C1110 C 0.47972 0.03119 0.18162 0.0
C1111 C 0.45997 0.01418 0.17135 0.0
C1112 C 0.44795 0.99509 0.18175 0.0
C1113 C 0.45528 0.99321 0.20223 0.0
C1114 C 0.51204 0.00853 0.22049 0.0
C1115 C 0.53247 0.02701 0.21965 0.0
C1116 C 0.5432 0.02938 0.20067 0.0
C1117 C 0.53352 0.01338 0.18225 0.0
C1118 C 0.51343 0.99447 0.18355 0.0
C1119 C 0.50285 0.99201 0.20257 0.0
C1120 C 0.51569 0.98862 0.36345 0.0
C1121 C 0.39661 0.01516 0.23769 0.0
H1122 H 0.51969 0.0543 0.69192 0.0
H1123 H 0.60604 0.94711 0.8302 0.0
H1124 H 0.5144 0.04521 0.80834 0.0
H1125 H 0.48986 0.05374 0.79149 0.0
H1126 H 0.43946 0.98535 0.78832 0.0
H1127 H 0.46405 0.97715 0.80554 0.0
H1128 H 0.54536 0.04265 0.77874 0.0
H1129 H 0.54029 0.05342 0.74316 0.0
H1130 H 0.48115 0.99075 0.72846 0.0
H1131 H 0.48656 0.98011 0.76398 0.0
H1132 H 0.57555 0.03084 0.79962 0.0
H1133 H 0.5996 0.03463 0.77151 0.0
H1134 H 0.54874 0.97556 0.73351 0.0
H1135 H 0.52479 0.97183 0.7619 0.0
H1136 H 0.57274 0.01585 0.84796 0.0
H1137 H 0.59896 0.00624 0.85556 0.0
H1138 H 0.56246 0.94725 0.80969 0.0
H1139 H 0.53622 0.95692 0.80248 0.0
H1140 H 0.53988 0.01793 0.87694 0.0
H1141 H 0.54936 0.00841 0.91118 0.0
H1142 H 0.52398 0.94233 0.88043 0.0
H1143 H 0.51412 0.95184 0.84634 0.0
H1144 H 0.51364 0.03611 0.85327 0.0
H1145 H 0.49695 0.04052 0.88534 0.0
H1146 H 0.46281 0.97043 0.8886 0.0
H1147 H 0.47904 0.9661 0.85586 0.0
O1148 O 0.52151 0.0496 0.70578 0.0
O1149 O 0.49118 0.01719 0.69908 0.0
O1150 O 0.61407 0.98181 0.85095 0.0
O1151 O 0.59595 0.95133 0.82746 0.0
C1152 C 0.50665 0.00458 0.81285 0.0
C1153 C 0.51903 0.00448 0.79586 0.0
C1154 C 0.5342 0.999 0.79989 0.0
C1155 C 0.53641 0.99266 0.82058 0.0
C1156 C 0.52366 0.99221 0.83747 0.0
C1157 C 0.50909 0.99871 0.83378 0.0
C1158 C 0.49095 0.01058 0.80812 0.0
C1159 C 0.49789 0.03225 0.80462 0.0
C1160 C 0.48393 0.03701 0.79475 0.0
C1161 C 0.46281 0.02016 0.78824 0.0
C1162 C 0.45558 0.99874 0.79325 0.0
C1163 C 0.46957 0.994 0.80316 0.0
C1164 C 0.51635 0.0106 0.77386 0.0
C1165 C 0.53143 0.03121 0.7677 0.0
C1166 C 0.52844 0.03735 0.74742 0.0
C1167 C 0.51029 0.02296 0.73298 0.0
C1168 C 0.49529 0.00223 0.73919 0.0
C1169 C 0.49834 0.9961 0.75945 0.0
C1170 C 0.54854 0.00102 0.78277 0.0
C1171 C 0.56965 0.01875 0.78521 0.0
C1172 C 0.58326 0.02098 0.76907 0.0
C1173 C 0.57598 0.00545 0.75028 0.0
C1174 C 0.55476 0.9877 0.74788 0.0
C1175 C 0.5411 0.98556 0.76399 0.0
C1176 C 0.55257 0.98705 0.82473 0.0
C1177 C 0.57043 0.00084 0.83962 0.0
C1178 C 0.58539 0.99532 0.8439 0.0
C1179 C 0.58279 0.97595 0.83324 0.0
C1180 C 0.56494 0.96227 0.81818 0.0
C1181 C 0.54996 0.96778 0.81398 0.0
C1182 C 0.52634 0.98559 0.85916 0.0
C1183 C 0.5358 0.00124 0.8778 0.0
C1184 C 0.54122 0.99578 0.89732 0.0
C1185 C 0.53749 0.97466 0.89837 0.0
C1186 C 0.52717 0.95876 0.87998 0.0
C1187 C 0.52149 0.96414 0.86058 0.0
C1188 C 0.49752 0.00079 0.85219 0.0
C1189 C 0.50227 0.02166 0.86067 0.0
C1190 C 0.49292 0.02417 0.87917 0.0
C1191 C 0.47871 0.00585 0.88969 0.0
C1192 C 0.47356 0.98485 0.8808 0.0
C1193 C 0.48288 0.98235 0.86218 0.0
C1194 C 0.50701 0.02965 0.71158 0.0
C1195 C 0.59858 0.96996 0.83781 0.0
H1196 H 0.9707 0.47714 0.68915 0.0
H1197 H 0.04108 0.65034 0.88659 0.0
H1198 H 0.97765 0.46633 0.80518 0.0
H1199 H 0.96884 0.43026 0.78905 0.0
H1200 H 0.0341 0.44992 0.80238 0.0
H1201 H 0.04297 0.48657 0.81771 0.0
H1202 H 0.97479 0.49767 0.78459 0.0
H1203 H 0.96692 0.48733 0.74468 0.0
H1204 H 0.03165 0.50557 0.73882 0.0
H1205 H 0.03937 0.51612 0.77876 0.0
H1206 H 0.97529 0.52775 0.82016 0.0
H1207 H 0.96049 0.54471 0.79943 0.0
H1208 H 0.01861 0.57993 0.76757 0.0
H1209 H 0.03305 0.5621 0.78808 0.0
H1210 H 0.99073 0.54119 0.86684 0.0
H1211 H 0.99265 0.57377 0.88474 0.0
H1212 H 0.05133 0.61516 0.8558 0.0
H1213 H 0.04938 0.58238 0.8383 0.0
H1214 H 0.99471 0.50679 0.88441 0.0
H1215 H 0.99639 0.52164 0.92249 0.0
H1216 H 0.06032 0.57542 0.91726 0.0
H1217 H 0.05848 0.56061 0.87896 0.0
H1218 H 0.98964 0.46631 0.85252 0.0
H1219 H 0.9912 0.44237 0.87729 0.0
H1220 H 0.05695 0.49202 0.89719 0.0
H1221 H 0.0556 0.51525 0.87091 0.0
O1222 O 0.97419 0.48143 0.70489 0.0
O1223 O 0.00762 0.49096 0.70278 0.0
O1224 O 0.00986 0.61515 0.8944 0.0
O1225 O 0.03989 0.63717 0.87964 0.0
C1226 C 0.01582 0.50093 0.82214 0.0
C1227 C 0.01259 0.51418 0.80876 0.0
C1228 C 0.01355 0.53306 0.81852 0.0
C1229 C 0.01928 0.53965 0.84134 0.0
C1230 C 0.0232 0.52684 0.85467 0.0
C1231 C 0.0211 0.50723 0.84517 0.0
C1232 C 0.01099 0.47914 0.81234 0.0
C1233 C 0.99011 0.46296 0.80434 0.0
C1234 C 0.98505 0.44225 0.79541 0.0
C1235 C 0.00074 0.43716 0.79455 0.0
C1236 C 0.02171 0.45342 0.80262 0.0
C1237 C 0.02679 0.47428 0.81147 0.0
C1238 C 0.00773 0.50793 0.78451 0.0
C1239 C 0.98731 0.49966 0.77463 0.0
C1240 C 0.98283 0.49365 0.75184 0.0
C1241 C 0.99868 0.49568 0.73854 0.0
C1242 C 0.0191 0.50385 0.74857 0.0
C1243 C 0.02355 0.50989 0.77136 0.0
C1244 C 0.00526 0.54387 0.80571 0.0
C1245 C 0.98482 0.53916 0.80872 0.0
C1246 C 0.97645 0.54894 0.79692 0.0
C1247 C 0.98844 0.56386 0.78199 0.0
C1248 C 0.0089 0.56838 0.77881 0.0
C1249 C 0.01725 0.55839 0.79058 0.0
C1250 C 0.02005 0.55946 0.8515 0.0
C1251 C 0.00403 0.55731 0.86448 0.0
C1252 C 0.00514 0.57595 0.87463 0.0
C1253 C 0.0222 0.59709 0.87176 0.0
C1254 C 0.03802 0.59914 0.85841 0.0
C1255 C 0.03694 0.58047 0.84835 0.0
C1256 C 0.02647 0.53265 0.87897 0.0
C1257 C 0.00935 0.52132 0.89173 0.0
C1258 C 0.01027 0.52987 0.91337 0.0
C1259 C 0.02844 0.54968 0.92262 0.0
C1260 C 0.04622 0.56003 0.91047 0.0
C1261 C 0.04519 0.55161 0.88868 0.0
C1262 C 0.02256 0.49244 0.85969 0.0
C1263 C 0.00454 0.47181 0.8618 0.0
C1264 C 0.00539 0.45828 0.87628 0.0
C1265 C 0.02414 0.46534 0.88951 0.0
C1266 C 0.04231 0.48593 0.88712 0.0
C1267 C 0.04154 0.49932 0.87226 0.0
C1268 C 0.99385 0.48925 0.71433 0.0
C1269 C 0.02353 0.61695 0.88264 0.0
H1270 H 0.49672 0.50484 0.68343 0.0
H1271 H 0.66636 0.64513 0.87071 0.0
H1272 H 0.47882 0.5192 0.79698 0.0
H1273 H 0.44726 0.48598 0.77837 0.0
H1274 H 0.46575 0.44612 0.80917 0.0
H1275 H 0.4971 0.47936 0.82775 0.0
H1276 H 0.52094 0.55155 0.77267 0.0
H1277 H 0.51109 0.53746 0.73347 0.0
H1278 H 0.50939 0.47879 0.7471 0.0
H1279 H 0.51951 0.49321 0.78617 0.0
H1280 H 0.56659 0.58891 0.79625 0.0
H1281 H 0.59737 0.60358 0.77436 0.0
H1282 H 0.59556 0.54288 0.77457 0.0
H1283 H 0.56496 0.52843 0.79648 0.0
H1284 H 0.56189 0.59844 0.85165 0.0
H1285 H 0.5968 0.63076 0.86453 0.0
H1286 H 0.62514 0.5928 0.85029 0.0
H1287 H 0.59012 0.56055 0.83775 0.0
H1288 H 0.52459 0.56596 0.88293 0.0
H1289 H 0.53865 0.57829 0.92197 0.0
H1290 H 0.58002 0.55417 0.91221 0.0
H1291 H 0.5658 0.5417 0.87366 0.0
H1292 H 0.47964 0.52596 0.85214 0.0
H1293 H 0.45388 0.50333 0.87758 0.0
H1294 H 0.49506 0.48181 0.89837 0.0
H1295 H 0.52025 0.50383 0.87259 0.0
O1296 O 0.50079 0.51019 0.69896 0.0
O1297 O 0.50004 0.4803 0.70687 0.0
O1298 O 0.63698 0.65134 0.87287 0.0
O1299 O 0.65235 0.63258 0.86574 0.0
C1300 C 0.51113 0.52154 0.82152 0.0
C1301 C 0.52624 0.53176 0.80608 0.0
C1302 C 0.54683 0.54955 0.81336 0.0
C1303 C 0.55217 0.55772 0.83596 0.0
C1304 C 0.53736 0.54704 0.85152 0.0
C1305 C 0.5168 0.52896 0.8443 0.0
C1306 C 0.49017 0.50166 0.81374 0.0
C1307 C 0.47573 0.50326 0.80009 0.0
C1308 C 0.45786 0.4843 0.78934 0.0
C1309 C 0.45414 0.46345 0.79214 0.0
C1310 C 0.46804 0.46191 0.80684 0.0
C1311 C 0.48593 0.48088 0.81752 0.0
C1312 C 0.52076 0.52332 0.78224 0.0
C1313 C 0.51851 0.5357 0.76711 0.0
C1314 C 0.51284 0.52759 0.74476 0.0
C1315 C 0.50936 0.50695 0.73716 0.0
C1316 C 0.51187 0.4947 0.7524 0.0
C1317 C 0.5176 0.50287 0.77472 0.0
C1318 C 0.56361 0.55765 0.79788 0.0
C1319 C 0.57266 0.57871 0.79122 0.0
C1320 C 0.59014 0.58699 0.77871 0.0
C1321 C 0.59885 0.57435 0.7729 0.0
C1322 C 0.58926 0.553 0.77901 0.0
C1323 C 0.57173 0.54469 0.79133 0.0
C1324 C 0.57351 0.57725 0.84354 0.0
C1325 C 0.57567 0.59717 0.85131 0.0
C1326 C 0.59562 0.61559 0.85865 0.0
C1327 C 0.61378 0.61438 0.85836 0.0
C1328 C 0.61151 0.59432 0.85065 0.0
C1329 C 0.59154 0.5759 0.84337 0.0
C1330 C 0.54445 0.55328 0.87543 0.0
C1331 C 0.53654 0.5632 0.88936 0.0
C1332 C 0.54453 0.57017 0.91156 0.0
C1333 C 0.56062 0.56744 0.91994 0.0
C1334 C 0.56791 0.55684 0.90606 0.0
C1335 C 0.55981 0.54971 0.88408 0.0
C1336 C 0.50181 0.51656 0.86063 0.0
C1337 C 0.48307 0.51642 0.86232 0.0
C1338 C 0.46847 0.50361 0.87689 0.0
C1339 C 0.4724 0.4907 0.88984 0.0
C1340 C 0.49144 0.49132 0.88837 0.0
C1341 C 0.50594 0.50405 0.87383 0.0
C1342 C 0.50313 0.49828 0.71345 0.0
C1343 C 0.63502 0.63392 0.86611 0.0
H1344 H 0.64612 0.84398 0.7182 0.0
H1345 H 0.64439 0.69394 0.5262 0.0
H1346 H 0.61622 0.84419 0.59817 0.0
H1347 H 0.62743 0.88228 0.61059 0.0
H1348 H 0.69036 0.90444 0.59148 0.0
H1349 H 0.67886 0.86658 0.57877 0.0
H1350 H 0.61413 0.80272 0.6274 0.0
H1351 H 0.62148 0.81572 0.66691 0.0
H1352 H 0.68702 0.86204 0.65673 0.0
H1353 H 0.67947 0.84871 0.61731 0.0
H1354 H 0.61191 0.75839 0.60579 0.0
H1355 H 0.62208 0.73631 0.62489 0.0
H1356 H 0.68813 0.78651 0.62209 0.0
H1357 H 0.67778 0.80845 0.60352 0.0
H1358 H 0.59818 0.74766 0.55941 0.0
H1359 H 0.59536 0.71309 0.54687 0.0
H1360 H 0.66299 0.7487 0.54164 0.0
H1361 H 0.66551 0.78312 0.55414 0.0
H1362 H 0.59762 0.7695 0.52366 0.0
H1363 H 0.59683 0.75577 0.4851 0.0
H1364 H 0.66343 0.8049 0.48498 0.0
H1365 H 0.66436 0.81772 0.52354 0.0
H1366 H 0.60128 0.82252 0.54246 0.0
H1367 H 0.59957 0.84423 0.5143 0.0
H1368 H 0.66657 0.87415 0.5083 0.0
H1369 H 0.66822 0.85284 0.53665 0.0
O1370 O 0.64358 0.83904 0.70255 0.0
O1371 O 0.67709 0.86261 0.69644 0.0
O1372 O 0.61029 0.68985 0.53383 0.0
O1373 O 0.64502 0.70736 0.53109 0.0
C1374 C 0.64043 0.82999 0.58021 0.0
C1375 C 0.64151 0.81698 0.59562 0.0
C1376 C 0.63852 0.79648 0.58821 0.0
C1377 C 0.63371 0.78864 0.56551 0.0
C1378 C 0.63246 0.80156 0.55014 0.0
C1379 C 0.6357 0.8222 0.55752 0.0
C1380 C 0.64673 0.85279 0.58748 0.0
C1381 C 0.63236 0.85737 0.59659 0.0
C1382 C 0.63882 0.87906 0.60375 0.0
C1383 C 0.65977 0.89639 0.60191 0.0
C1384 C 0.67403 0.89157 0.59273 0.0
C1385 C 0.66754 0.86997 0.58556 0.0
C1386 C 0.64621 0.82495 0.61952 0.0
C1387 C 0.63005 0.81568 0.63377 0.0
C1388 C 0.6343 0.82314 0.65631 0.0
C1389 C 0.65482 0.83999 0.66497 0.0
C1390 C 0.67102 0.84911 0.65059 0.0
C1391 C 0.66675 0.8416 0.62807 0.0
C1392 C 0.64413 0.78498 0.60337 0.0
C1393 C 0.62854 0.76478 0.60987 0.0
C1394 C 0.63439 0.75216 0.62058 0.0
C1395 C 0.65593 0.75957 0.62485 0.0
C1396 C 0.67143 0.78041 0.61935 0.0
C1397 C 0.66556 0.79299 0.60871 0.0
C1398 C 0.63202 0.76779 0.55761 0.0
C1399 C 0.61232 0.74791 0.55548 0.0
C1400 C 0.61078 0.72823 0.54834 0.0
C1401 C 0.62897 0.72814 0.54326 0.0
C1402 C 0.64869 0.74818 0.54541 0.0
C1403 C 0.65018 0.76784 0.55251 0.0
C1404 C 0.63096 0.79487 0.52621 0.0
C1405 C 0.61192 0.77745 0.51514 0.0
C1406 C 0.61149 0.76966 0.49324 0.0
C1407 C 0.63001 0.77952 0.48211 0.0
C1408 C 0.64885 0.79735 0.49308 0.0
C1409 C 0.64938 0.80475 0.51503 0.0
C1410 C 0.63482 0.83598 0.54134 0.0
C1411 C 0.61557 0.8339 0.53513 0.0
C1412 C 0.61463 0.84629 0.51917 0.0
C1413 C 0.63291 0.86066 0.50906 0.0
C1414 C 0.65222 0.86297 0.51566 0.0
C1415 C 0.65319 0.85086 0.53181 0.0
C1416 C 0.65926 0.84795 0.68891 0.0
C1417 C 0.62744 0.70726 0.53578 0.0
H1418 H 0.16361 0.83777 0.73864 0.0
H1419 H 0.02887 0.67086 0.54344 0.0
H1420 H 0.1654 0.85091 0.61925 0.0
H1421 H 0.19388 0.88584 0.63853 0.0
H1422 H 0.23835 0.86602 0.62703 0.0
H1423 H 0.20945 0.8307 0.60772 0.0
H1424 H 0.13502 0.81963 0.64463 0.0
H1425 H 0.14276 0.82912 0.68465 0.0
H1426 H 0.18775 0.8089 0.68307 0.0
H1427 H 0.17967 0.79923 0.64305 0.0
H1428 H 0.09991 0.78924 0.61411 0.0
H1429 H 0.07204 0.771 0.63878 0.0
H1430 H 0.09876 0.73361 0.65768 0.0
H1431 H 0.12732 0.753 0.63366 0.0
H1432 H 0.09685 0.7794 0.56222 0.0
H1433 H 0.06252 0.74796 0.54633 0.0
H1434 H 0.07914 0.70386 0.57032 0.0
H1435 H 0.11351 0.73545 0.58592 0.0
H1436 H 0.13916 0.8172 0.54365 0.0
H1437 H 0.12634 0.80827 0.50463 0.0
H1438 H 0.12266 0.74652 0.50406 0.0
H1439 H 0.13653 0.75614 0.54298 0.0
H1440 H 0.17821 0.85307 0.57211 0.0
H1441 H 0.20286 0.87419 0.54531 0.0
H1442 H 0.20887 0.81922 0.52539 0.0
H1443 H 0.18471 0.79839 0.55272 0.0
O1444 O 0.16069 0.83379 0.72282 0.0
O1445 O 0.1837 0.82324 0.7211 0.0
O1446 O 0.03457 0.70695 0.53754 0.0
O1447 O 0.04232 0.68358 0.54957 0.0
C1448 C 0.16727 0.81651 0.60264 0.0
C1449 C 0.15211 0.8029 0.61667 0.0
C1450 C 0.13265 0.7843 0.60759 0.0
C1451 C 0.1286 0.77876 0.5845 0.0
C1452 C 0.14411 0.79186 0.57044 0.0
C1453 C 0.16361 0.81068 0.57953 0.0
C1454 C 0.18537 0.83826 0.6123 0.0
C1455 C 0.1813 0.85413 0.62082 0.0
C1456 C 0.19753 0.87399 0.6319 0.0
C1457 C 0.21822 0.87846 0.63453 0.0
C1458 C 0.2225 0.86291 0.62522 0.0
C1459 C 0.2061 0.84283 0.61422 0.0
C1460 C 0.15658 0.80847 0.64102 0.0
C1461 C 0.14635 0.81702 0.653 0.0
C1462 C 0.1509 0.82255 0.67584 0.0
C1463 C 0.16584 0.81971 0.68708 0.0
C1464 C 0.17613 0.81123 0.67494 0.0
C1465 C 0.17154 0.80569 0.65211 0.0
C1466 C 0.11548 0.77232 0.62208 0.0
C1467 C 0.09968 0.77708 0.62359 0.0
C1468 C 0.08371 0.76652 0.63762 0.0
C1469 C 0.083 0.75066 0.65015 0.0
C1470 C 0.09895 0.74592 0.64852 0.0
C1471 C 0.11515 0.75679 0.63467 0.0
C1472 C 0.10768 0.75967 0.57509 0.0
C1473 C 0.09306 0.76293 0.56394 0.0
C1474 C 0.07346 0.74495 0.55493 0.0
C1475 C 0.0681 0.72338 0.55702 0.0
C1476 C 0.08277 0.72023 0.56838 0.0
C1477 C 0.10238 0.73823 0.57733 0.0
C1478 C 0.13876 0.78732 0.54615 0.0
C1479 C 0.1361 0.802 0.53496 0.0
C1480 C 0.12854 0.79675 0.51273 0.0
C1481 C 0.1232 0.77655 0.50132 0.0
C1482 C 0.12676 0.76227 0.51233 0.0
C1483 C 0.13454 0.76765 0.53457 0.0
C1484 C 0.17985 0.82427 0.5646 0.0
C1485 C 0.18527 0.84579 0.5624 0.0
C1486 C 0.19926 0.85778 0.54702 0.0
C1487 C 0.20773 0.8483 0.5333 0.0
C1488 C 0.20246 0.82685 0.53569 0.0
C1489 C 0.18876 0.815 0.55131 0.0
C1490 C 0.17067 0.82566 0.71134 0.0
C1491 C 0.04731 0.70422 0.54744 0.0
H1492 H 0.21176 0.3709 0.73635 0.0
H1493 H 0.04596 0.34639 0.56141 0.0
H1494 H 0.22292 0.37668 0.61458 0.0
H1495 H 0.24695 0.36832 0.63322 0.0
H1496 H 0.19986 0.29896 0.61918 0.0
H1497 H 0.17602 0.30743 0.60059 0.0
H1498 H 0.19138 0.38491 0.64823 0.0
H1499 H 0.20257 0.38565 0.68662 0.0
H1500 H 0.17367 0.31522 0.67674 0.0
H1501 H 0.1623 0.31469 0.63853 0.0
H1502 H 0.14446 0.38241 0.62998 0.0
H1503 H 0.11795 0.37622 0.65597 0.0
H1504 H 0.10316 0.30993 0.65846 0.0
H1505 H 0.12824 0.31574 0.63132 0.0
H1506 H 0.15014 0.39166 0.58139 0.0
H1507 H 0.12032 0.39539 0.57146 0.0
H1508 H 0.07691 0.32607 0.57575 0.0
H1509 H 0.1069 0.32257 0.58547 0.0
H1510 H 0.17636 0.38982 0.55174 0.0
H1511 H 0.16633 0.392 0.51381 0.0
H1512 H 0.12231 0.32158 0.50508 0.0
H1513 H 0.1328 0.31962 0.54285 0.0
H1514 H 0.20649 0.37817 0.55317 0.0
H1515 H 0.21859 0.36946 0.5193 0.0
H1516 H 0.18164 0.30053 0.5286 0.0
H1517 H 0.16865 0.30935 0.56145 0.0
O1518 O 0.20703 0.37021 0.72119 0.0
O1519 O 0.1921 0.33402 0.71518 0.0
O1520 O 0.08103 0.38092 0.56325 0.0
O1521 O 0.05804 0.34538 0.5653 0.0
C1522 C 0.18156 0.34754 0.60019 0.0
C1523 C 0.17014 0.34975 0.61712 0.0
C1524 C 0.15309 0.35225 0.61186 0.0
C1525 C 0.14874 0.35462 0.58991 0.0
C1526 C 0.16077 0.35338 0.57313 0.0
C1527 C 0.17672 0.34908 0.57812 0.0
C1528 C 0.19788 0.34266 0.60598 0.0
C1529 C 0.21815 0.3597 0.61482 0.0
C1530 C 0.23175 0.3549 0.62557 0.0
C1531 C 0.2251 0.333 0.62784 0.0
C1532 C 0.20526 0.31597 0.61784 0.0
C1533 C 0.19179 0.32077 0.60691 0.0
C1534 C 0.17624 0.3498 0.64057 0.0
C1535 C 0.18743 0.36967 0.65444 0.0
C1536 C 0.19383 0.37004 0.67633 0.0
C1537 C 0.1891 0.3505 0.68473 0.0
C1538 C 0.17765 0.33057 0.67079 0.0
C1539 C 0.17121 0.33023 0.64893 0.0
C1540 C 0.13829 0.34953 0.62879 0.0
C1541 C 0.1354 0.36657 0.63615 0.0
C1542 C 0.12041 0.36305 0.65117 0.0
C1543 C 0.10828 0.3425 0.65925 0.0
C1544 C 0.11182 0.32579 0.65228 0.0
C1545 C 0.12641 0.32918 0.63699 0.0
C1546 C 0.13063 0.35686 0.58413 0.0
C1547 C 0.13417 0.37731 0.58011 0.0
C1548 C 0.11712 0.37939 0.57448 0.0
C1549 C 0.09621 0.36101 0.57281 0.0
C1550 C 0.09278 0.34054 0.5769 0.0
C1551 C 0.10986 0.33849 0.58247 0.0
C1552 C 0.15527 0.35457 0.54993 0.0
C1553 C 0.16466 0.37489 0.54152 0.0
C1554 C 0.15883 0.3761 0.51993 0.0
C1555 C 0.14349 0.35696 0.50642 0.0
C1556 C 0.13438 0.33658 0.51491 0.0
C1557 C 0.14022 0.33542 0.5365 0.0
C1558 C 0.18688 0.34441 0.55987 0.0
C1559 C 0.20128 0.36124 0.54798 0.0
C1560 C 0.20822 0.35622 0.52867 0.0
C1561 C 0.20097 0.33425 0.52107 0.0
C1562 C 0.18724 0.31758 0.53367 0.0
C1563 C 0.18009 0.3226 0.55272 0.0
C1564 C 0.19611 0.35098 0.70792 0.0
C1565 C 0.07804 0.36313 0.56683 0.0
H1566 H 0.95595 0.3752 0.07382 0.0
H1567 H 0.0166 0.42818 0.05773 0.0
H1568 H 0.01655 0.45287 0.0873 0.0
H1569 H 0.00089 0.45865 0.11955 0.0
H1570 H 0.94173 0.40515 0.13793 0.0
H1571 H 0.93922 0.3817 0.10527 0.0
C1572 C 0.96899 0.39222 0.07664 0.0
C1573 C 0.98634 0.3998 0.06377 0.0
C1574 C 0.96912 0.40626 0.09406 0.0
C1575 C 0.00318 0.42188 0.0676 0.0
C1576 C 0.00316 0.43604 0.08448 0.0
C1577 C 0.98741 0.44186 0.1164 0.0
C1578 C 0.97167 0.43361 0.1313 0.0
C1579 C 0.98648 0.42826 0.09813 0.0
C1580 C 0.95403 0.412 0.12666 0.0
C1581 C 0.95268 0.39849 0.1081 0.0
H1582 H 0.59935 0.55238 0.11156 0.0
H1583 H 0.63332 0.60438 0.16519 0.0
H1584 H 0.61074 0.57998 0.19129 0.0
H1585 H 0.57978 0.54469 0.19852 0.0
H1586 H 0.54595 0.49257 0.14515 0.0
H1587 H 0.57017 0.51612 0.11931 0.0
C1588 C 0.60194 0.55832 0.12899 0.0
C1589 C 0.61787 0.58023 0.13637 0.0
C1590 C 0.58888 0.54421 0.14393 0.0
C1591 C 0.62116 0.5876 0.15904 0.0
C1592 C 0.6082 0.57369 0.17398 0.0
C1593 C 0.57783 0.53851 0.18123 0.0
C1594 C 0.56107 0.51707 0.17364 0.0
C1595 C 0.59177 0.55211 0.16654 0.0
C1596 C 0.55882 0.50903 0.15133 0.0
C1597 C 0.57257 0.52252 0.13656 0.0
H1598 H 0.43341 0.02212 0.0748 0.0
H1599 H 0.37605 0.00525 0.10532 0.0
H1600 H 0.39197 0.00498 0.14061 0.0
H1601 H 0.42152 0.00803 0.16262 0.0
H1602 H 0.47929 0.02558 0.13302 0.0
H1603 H 0.46398 0.02728 0.09762 0.0
C1604 C 0.42447 0.01854 0.08921 0.0
C1605 C 0.40352 0.0136 0.08734 0.0
C1606 C 0.43376 0.01847 0.10961 0.0
C1607 C 0.39219 0.00912 0.10622 0.0
C1608 C 0.40125 0.00889 0.12645 0.0
C1609 C 0.43073 0.01221 0.14838 0.0
C1610 C 0.45136 0.01645 0.15025 0.0
C1611 C 0.42189 0.01326 0.12826 0.0
C1612 C 0.46334 0.02227 0.13188 0.0
C1613 C 0.45457 0.02316 0.11167 0.0
H1614 H 0.45483 0.03293 0.97991 0.0
H1615 H 0.39376 0.97515 0.95721 0.0
H1616 H 0.40834 0.96889 0.92418 0.0
H1617 H 0.43822 0.98048 0.90117 0.0
H1618 H 0.49934 0.03791 0.92442 0.0
H1619 H 0.48486 0.04374 0.95764 0.0
C1620 C 0.4447 0.01892 0.96779 0.0
C1621 C 0.42322 0.00459 0.97103 0.0
C1622 C 0.45315 0.01542 0.94882 0.0
C1623 C 0.41036 0.98647 0.95515 0.0
C1624 C 0.41867 0.98288 0.93622 0.0
C1625 C 0.44842 0.99413 0.91361 0.0
C1626 C 0.4698 0.00883 0.91017 0.0
C1627 C 0.44002 0.99733 0.93281 0.0
C1628 C 0.48273 0.02658 0.9264 0.0
C1629 C 0.4745 0.02986 0.9455 0.0
H1630 H 0.03742 0.41246 0.95968 0.0
H1631 H 0.97343 0.39405 0.97037 0.0
H1632 H 0.97407 0.41618 0.94219 0.0
H1633 H 0.99271 0.44139 0.91531 0.0
H1634 H 0.05595 0.45892 0.90236 0.0
H1635 H 0.05582 0.43695 0.93095 0.0
C1636 C 0.02363 0.41327 0.95576 0.0
C1637 C 0.00544 0.4016 0.96718 0.0
C1638 C 0.02398 0.42601 0.93927 0.0
C1639 C 0.98765 0.40277 0.96186 0.0
C1640 C 0.98798 0.41549 0.94575 0.0
C1641 C 0.00637 0.44013 0.91835 0.0
C1642 C 0.02424 0.45172 0.90653 0.0
C1643 C 0.00604 0.4272 0.93441 0.0
C1644 C 0.04202 0.45036 0.91132 0.0
C1645 C 0.04191 0.43767 0.92758 0.0
H1646 H 0.61709 0.60539 0.01019 0.0
H1647 H 0.55581 0.57439 0.03611 0.0
H1648 H 0.53853 0.5638 0.9985 0.0
H1649 H 0.54095 0.56185 0.95803 0.0
H1650 H 0.60255 0.59262 0.93294 0.0
H1651 H 0.61959 0.60486 0.9705 0.0
C1652 C 0.59993 0.59636 0.0077 0.0
C1653 C 0.58777 0.59055 0.02596 0.0
C1654 C 0.59016 0.59025 0.98614 0.0
C1655 C 0.56557 0.57901 0.02235 0.0
C1656 C 0.55567 0.57293 0.00084 0.0
C1657 C 0.55809 0.57146 0.96087 0.0
C1658 C 0.57051 0.57617 0.94282 0.0
C1659 C 0.56782 0.57827 0.98259 0.0
C1660 C 0.59269 0.58854 0.94663 0.0
C1661 C 0.60244 0.59557 0.96807 0.0
H1662 H 0.03627 0.59915 0.01612 0.0
H1663 H 0.98298 0.59801 0.98497 0.0
H1664 H 0.98447 0.5784 0.95143 0.0
H1665 H 0.00066 0.56145 0.93084 0.0
H1666 H 0.05493 0.56379 0.96053 0.0
H1667 H 0.05338 0.58307 0.99479 0.0
C1668 C 0.02499 0.59458 0.00199 0.0
C1669 C 0.00949 0.59997 0.00311 0.0
C1670 C 0.02608 0.58348 0.98255 0.0
C1671 C 0.99511 0.59413 0.98458 0.0
C1672 C 0.99589 0.58285 0.96538 0.0
C1673 C 0.01201 0.56604 0.94493 0.0
C1674 C 0.02766 0.56098 0.94348 0.0
C1675 C 0.01123 0.57739 0.96421 0.0
C1676 C 0.04266 0.56744 0.96149 0.0
C1677 C 0.04176 0.57843 0.981 0.0
H1678 H 0.40749 0.44051 0.95984 0.0
H1679 H 0.41914 0.39035 0.93577 0.0
H1680 H 0.44191 0.41367 0.90928 0.0
H1681 H 0.45965 0.44862 0.89387 0.0
H1682 H 0.44941 0.49966 0.91807 0.0
H1683 H 0.42466 0.47556 0.94329 0.0
C1684 C 0.4149 0.43466 0.94867 0.0
C1685 C 0.41172 0.41377 0.94989 0.0
C1686 C 0.42823 0.44829 0.93352 0.0
C1687 C 0.42143 0.40641 0.93533 0.0
C1688 C 0.43446 0.41972 0.92013 0.0
C1689 C 0.4521 0.45453 0.90476 0.0
C1690 C 0.45654 0.47595 0.90432 0.0
C1691 C 0.4382 0.44077 0.91931 0.0
C1692 C 0.44621 0.48319 0.91809 0.0
C1693 C 0.43216 0.46947 0.93258 0.0
H1694 H 0.58944 0.9598 0.97019 0.0
H1695 H 0.56303 0.98778 0.01334 0.0
H1696 H 0.54219 0.98795 0.98189 0.0
H1697 H 0.53404 0.98344 0.94169 0.0
H1698 H 0.56063 0.95573 0.89858 0.0
H1699 H 0.5786 0.95194 0.93044 0.0
C1700 C 0.57892 0.96566 0.97277 0.0
C1701 C 0.57804 0.97402 0.99406 0.0
C1702 C 0.56708 0.96589 0.95458 0.0
C1703 C 0.56413 0.98135 0.99713 0.0
C1704 C 0.55225 0.98155 0.97913 0.0
C1705 C 0.54363 0.97639 0.93935 0.0
C1706 C 0.54612 0.96998 0.91788 0.0
C1707 C 0.55403 0.97441 0.95772 0.0
C1708 C 0.55835 0.96063 0.915 0.0
C1709 C 0.56875 0.9586 0.93318 0.0
H1710 H 0.56113 0.01448 0.08579 0.0
H1711 H 0.61887 0.02962 0.12164 0.0
H1712 H 0.60451 0.03155 0.15661 0.0
H1713 H 0.57417 0.02534 0.17702 0.0
H1714 H 0.51601 0.00844 0.14084 0.0
H1715 H 0.53188 0.0107 0.10597 0.0
C1716 C 0.57075 0.01857 0.10121 0.0
C1717 C 0.59099 0.02176 0.10109 0.0
C1718 C 0.56217 0.01901 0.12123 0.0
C1719 C 0.60319 0.02698 0.12127 0.0
C1720 C 0.59496 0.028 0.14128 0.0
C1721 C 0.56512 0.02245 0.16148 0.0
C1722 C 0.54391 0.01648 0.16142 0.0
C1723 C 0.57426 0.02347 0.14147 0.0
C1724 C 0.53227 0.01268 0.14122 0.0
C1725 C 0.54135 0.01407 0.12132 0.0
H1726 H 0.01825 0.6184 0.12057 0.0
H1727 H 0.95431 0.57677 0.09021 0.0
H1728 H 0.9469 0.54998 0.11633 0.0
H1729 H 0.95948 0.5375 0.14659 0.0
H1730 H 0.02374 0.57964 0.176 0.0
H1731 H 0.03014 0.60707 0.15138 0.0
C1732 C 0.00262 0.60353 0.11966 0.0
C1733 C 0.98691 0.59955 0.10334 0.0
C1734 C 0.99859 0.5882 0.1345 0.0
C1735 C 0.96672 0.58025 0.10259 0.0
C1736 C 0.9625 0.56489 0.11749 0.0
C1737 C 0.97478 0.5528 0.1477 0.0
C1738 C 0.9912 0.5564 0.16289 0.0
C1739 C 0.97842 0.56855 0.13334 0.0
C1740 C 0.01098 0.57628 0.16416 0.0
C1741 C 0.01463 0.59202 0.15016 0.0
H1742 H 0.40517 0.3814 0.06263 0.0
H1743 H 0.45084 0.44477 0.04278 0.0
H1744 H 0.47068 0.45566 0.0789 0.0
H1745 H 0.47346 0.44834 0.1171 0.0
H1746 H 0.42708 0.38548 0.13728 0.0
H1747 H 0.40938 0.37314 0.09997 0.0
C1748 C 0.41961 0.39749 0.06608 0.0
C1749 C 0.42637 0.41231 0.05007 0.0
C1750 C 0.43081 0.40379 0.087 0.0
C1751 C 0.44517 0.43307 0.05483 0.0
C1752 C 0.45653 0.43936 0.07552 0.0
C1753 C 0.45953 0.43191 0.11328 0.0
C1754 C 0.45154 0.41791 0.12997 0.0
C1755 C 0.44921 0.42505 0.09189 0.0
C1756 C 0.43368 0.39653 0.1247 0.0
C1757 C 0.42344 0.38951 0.1034 0.0
H1758 H 0.65151 0.75786 0.38863 0.0
H1759 H 0.62789 0.69537 0.41353 0.0
H1760 H 0.6173 0.70778 0.44616 0.0
H1761 H 0.61808 0.73766 0.46935 0.0
H1762 H 0.64397 0.80089 0.44566 0.0
H1763 H 0.65016 0.78691 0.41069 0.0
C1764 C 0.64377 0.74684 0.40103 0.0
C1765 C 0.64063 0.72579 0.39873 0.0
C1766 C 0.63821 0.75427 0.42001 0.0
C1767 C 0.63064 0.71173 0.41499 0.0
C1768 C 0.62458 0.71881 0.43366 0.0
C1769 C 0.6246 0.74816 0.45627 0.0
C1770 C 0.63051 0.77018 0.45988 0.0
C1771 C 0.62873 0.74021 0.43659 0.0
C1772 C 0.63933 0.78385 0.4431 0.0
C1773 C 0.64292 0.77589 0.4232 0.0
H1774 H 0.25359 0.88825 0.44846 0.0
H1775 H 0.29243 0.94456 0.49665 0.0
H1776 H 0.27184 0.92386 0.52594 0.0
H1777 H 0.24199 0.8901 0.53777 0.0
H1778 H 0.20371 0.83354 0.48983 0.0
H1779 H 0.22493 0.85391 0.46059 0.0
C1780 C 0.25761 0.89596 0.46538 0.0
C1781 C 0.27446 0.91796 0.47031 0.0
C1782 C 0.24577 0.88392 0.4822 0.0
C1783 C 0.27956 0.92764 0.49237 0.0
C1784 C 0.26775 0.91584 0.50915 0.0
C1785 C 0.23835 0.88229 0.52091 0.0
C1786 C 0.22131 0.86043 0.51591 0.0
C1787 C 0.2507 0.89405 0.50423 0.0
C1788 C 0.21687 0.85034 0.49407 0.0
C1789 C 0.22892 0.86199 0.47735 0.0
H1790 H 0.10686 0.34552 0.40814 0.0
H1791 H 0.10687 0.40316 0.43294 0.0
H1792 H 0.12346 0.40421 0.4685 0.0
H1793 H 0.13549 0.38719 0.49341 0.0
H1794 H 0.13539 0.32951 0.46874 0.0
H1795 H 0.1211 0.32995 0.43234 0.0
C1796 C 0.11069 0.35847 0.42123 0.0
C1797 C 0.10548 0.37415 0.41787 0.0
C1798 C 0.11999 0.35882 0.44176 0.0
C1799 C 0.11061 0.39081 0.43505 0.0
C1800 C 0.12006 0.3914 0.45544 0.0
C1801 C 0.13271 0.37494 0.47998 0.0
C1802 C 0.13639 0.35826 0.48386 0.0
C1803 C 0.12447 0.37527 0.4591 0.0
C1804 C 0.13238 0.34233 0.46631 0.0
C1805 C 0.12431 0.34262 0.44546 0.0
H1806 H 0.07944 0.34192 0.2878 0.0
H1807 H 0.09689 0.30099 0.31783 0.0
H1808 H 0.11038 0.29572 0.28347 0.0
H1809 H 0.1189 0.30432 0.24555 0.0
H1810 H 0.10156 0.34533 0.21563 0.0
H1811 H 0.08642 0.34907 0.24939 0.0
C1812 C 0.08609 0.33175 0.28684 0.0
C1813 C 0.08725 0.32197 0.30545 0.0
C1814 C 0.09392 0.32888 0.26708 0.0
C1815 C 0.09584 0.30876 0.30381 0.0
C1816 C 0.10359 0.30575 0.28416 0.0
C1817 C 0.11147 0.31375 0.24628 0.0
C1818 C 0.11136 0.32453 0.2281 0.0
C1819 C 0.1029 0.31592 0.26577 0.0
C1820 C 0.10202 0.33704 0.22946 0.0
C1821 C 0.09333 0.33914 0.24873 0.0
H1822 H 0.67482 0.71251 0.27482 0.0
H1823 H 0.70168 0.7603 0.33264 0.0
H1824 H 0.70831 0.78935 0.30998 0.0
H1825 H 0.70353 0.80056 0.27423 0.0
H1826 H 0.67526 0.75229 0.21694 0.0
H1827 H 0.67213 0.72405 0.23889 0.0
C1828 C 0.68239 0.72932 0.28246 0.0
C1829 C 0.68761 0.73418 0.30541 0.0
C1830 C 0.68571 0.74583 0.26944 0.0
C1831 C 0.6974 0.75607 0.31501 0.0
C1832 C 0.70115 0.7727 0.30207 0.0
C1833 C 0.697 0.78392 0.26654 0.0
C1834 C 0.68947 0.77842 0.24409 0.0
C1835 C 0.69493 0.76769 0.27935 0.0
C1836 C 0.68088 0.75679 0.2343 0.0
C1837 C 0.67914 0.74067 0.24681 0.0
H1838 H 0.27378 0.93522 0.33976 0.0
H1839 H 0.2117 0.90037 0.36375 0.0
H1840 H 0.19537 0.88965 0.32574 0.0
H1841 H 0.19889 0.88916 0.28554 0.0
H1842 H 0.26124 0.92422 0.26222 0.0
H1843 H 0.27728 0.93577 0.30017 0.0
C1844 C 0.25666 0.92531 0.33676 0.0
C1845 C 0.244 0.91853 0.35462 0.0
C1846 C 0.24742 0.91916 0.31495 0.0
C1847 C 0.22184 0.90579 0.35033 0.0
C1848 C 0.21248 0.89963 0.32859 0.0
C1849 C 0.21597 0.89952 0.28881 0.0
C1850 C 0.22886 0.90568 0.27107 0.0
C1851 C 0.22513 0.90611 0.31075 0.0
C1852 C 0.25098 0.91896 0.27556 0.0
C1853 C 0.26017 0.92566 0.29726 0.0
H1854 H 0.65129 0.92359 0.3307 0.0
H1855 H 0.71305 0.95009 0.36452 0.0
H1856 H 0.72121 0.93078 0.33568 0.0
H1857 H 0.71064 0.9063 0.30065 0.0
H1858 H 0.64872 0.8803 0.26741 0.0
H1859 H 0.64071 0.89923 0.29644 0.0
C1860 C 0.66658 0.92523 0.3318 0.0
C1861 C 0.68156 0.93833 0.34971 0.0
C1862 C 0.67107 0.91398 0.31535 0.0
C1863 C 0.70123 0.94012 0.35089 0.0
C1864 C 0.7059 0.92907 0.33442 0.0
C1865 C 0.6954 0.90478 0.29984 0.0
C1866 C 0.68021 0.89166 0.28204 0.0
C1867 C 0.69091 0.91592 0.31656 0.0
C1868 C 0.66051 0.88983 0.28119 0.0
C1869 C 0.65597 0.90084 0.29767 0.0
H1870 H 0.08817 0.73874 0.28166 0.0
H1871 H 0.0665 0.78055 0.30611 0.0
H1872 H 0.08713 0.80679 0.28027 0.0
H1873 H 0.11214 0.81826 0.25144 0.0
H1874 H 0.13267 0.77554 0.2265 0.0
H1875 H 0.11186 0.7494 0.2521 0.0
C1876 C 0.08791 0.75357 0.28135 0.0
C1877 C 0.0759 0.75773 0.29585 0.0
C1878 C 0.09973 0.76851 0.26648 0.0
C1879 C 0.07563 0.77696 0.29511 0.0
C1880 C 0.08745 0.79199 0.28037 0.0
C1881 C 0.11188 0.80312 0.25145 0.0
C1882 C 0.12413 0.799 0.23721 0.0
C1883 C 0.09965 0.78797 0.26605 0.0
C1884 C 0.12376 0.77938 0.23759 0.0
C1885 C 0.11174 0.76432 0.25211 0.0
H1886 H 0.20967 0.32161 0.33712 0.0
H1887 H 0.23818 0.28628 0.31285 0.0
H1888 H 0.22226 0.2815 0.27569 0.0
H1889 H 0.20382 0.29107 0.24944 0.0
H1890 H 0.17518 0.3263 0.27349 0.0
H1891 H 0.1877 0.32748 0.31137 0.0
C1892 C 0.21215 0.31257 0.32378 0.0
C1893 C 0.22535 0.30459 0.32775 0.0
C1894 C 0.20317 0.31011 0.30234 0.0
C1895 C 0.22822 0.29274 0.31028 0.0
C1896 C 0.21919 0.29006 0.28896 0.0
C1897 C 0.19984 0.29853 0.26298 0.0
C1898 C 0.1888 0.30883 0.25858 0.0
C1899 C 0.20714 0.29922 0.2847 0.0
C1900 C 0.18402 0.31865 0.27637 0.0
C1901 C 0.19111 0.31925 0.29805 0.0
H1902 H 0.21157 0.29598 0.42902 0.0
H1903 H 0.27435 0.35432 0.4409 0.0
H1904 H 0.26493 0.36476 0.47574 0.0
H1905 H 0.23916 0.35662 0.50337 0.0
H1906 H 0.17585 0.29913 0.49017 0.0
H1907 H 0.18536 0.28891 0.45552 0.0
C1908 C 0.2232 0.311 0.4392 0.0
C1909 C 0.24365 0.32427 0.43244 0.0
C1910 C 0.21766 0.31697 0.4591 0.0
C1911 C 0.25847 0.34381 0.44572 0.0
C1912 C 0.25312 0.34976 0.46568 0.0
C1913 C 0.22736 0.34199 0.49283 0.0
C1914 C 0.20689 0.32853 0.49964 0.0
C1915 C 0.23279 0.33638 0.4726 0.0
C1916 C 0.19189 0.30953 0.48574 0.0
C1917 C 0.19724 0.30374 0.46577 0.0
H1918 H 0.6408 0.91034 0.42638 0.0
H1919 H 0.61132 0.93623 0.46747 0.0
H1920 H 0.60852 0.91277 0.49568 0.0
H1921 H 0.61634 0.88631 0.50948 0.0
H1922 H 0.64738 0.86219 0.46866 0.0
H1923 H 0.64769 0.88358 0.43948 0.0
C1924 C 0.63357 0.91075 0.4414 0.0
C1925 C 0.6263 0.92506 0.4448 0.0
C1926 C 0.63243 0.89763 0.45766 0.0
C1927 C 0.61707 0.92541 0.46444 0.0
C1928 C 0.6155 0.91202 0.48059 0.0
C1929 C 0.62296 0.88564 0.49408 0.0
C1930 C 0.63192 0.87283 0.49118 0.0
C1931 C 0.6234 0.89829 0.47751 0.0
C1932 C 0.64061 0.87215 0.47128 0.0
C1933 C 0.64074 0.8843 0.45461 0.0
H1934 H 0.06733 0.75207 0.41166 0.0
H1935 H 0.10386 0.72424 0.39187 0.0
H1936 H 0.12346 0.73688 0.42839 0.0
H1937 H 0.1298 0.75548 0.4662 0.0
H1938 H 0.09212 0.78209 0.48558 0.0
H1939 H 0.07362 0.77052 0.44882 0.0
C1940 C 0.07961 0.74878 0.41524 0.0
C1941 C 0.08408 0.73719 0.39904 0.0
C1942 C 0.09069 0.75597 0.4362 0.0
C1943 C 0.10007 0.73311 0.40404 0.0
C1944 C 0.11128 0.74033 0.42493 0.0
C1945 C 0.11749 0.75866 0.46237 0.0
C1946 C 0.1125 0.7698 0.4786 0.0
C1947 C 0.10664 0.75168 0.44119 0.0
C1948 C 0.09661 0.77396 0.47332 0.0
C1949 C 0.08587 0.76718 0.45233 0.0
H1950 H 0.3135 0.08118 0.72123 0.0
H1951 H 0.33921 0.04981 0.75668 0.0
H1952 H 0.33134 0.06162 0.79147 0.0
H1953 H 0.31842 0.0818 0.81214 0.0
H1954 H 0.29276 0.11356 0.7777 0.0
H1955 H 0.29905 0.10039 0.74219 0.0
C1956 C 0.31727 0.07685 0.73655 0.0
C1957 C 0.32709 0.06478 0.73628 0.0
C1958 C 0.31273 0.08376 0.7567 0.0
C1959 C 0.33178 0.05921 0.75632 0.0
C1960 C 0.32729 0.06594 0.77629 0.0
C1961 C 0.31428 0.08591 0.79684 0.0
C1962 C 0.30541 0.09883 0.79747 0.0
C1963 C 0.31802 0.07842 0.77669 0.0
C1964 C 0.29962 0.10361 0.77756 0.0
C1965 C 0.30331 0.09617 0.75731 0.0
H1966 H 0.92335 0.22222 0.76539 0.0
H1967 H 0.96357 0.27891 0.81271 0.0
H1968 H 0.94496 0.25807 0.84281 0.0
H1969 H 0.91593 0.22437 0.85554 0.0
H1970 H 0.87604 0.16752 0.80845 0.0
H1971 H 0.89597 0.18769 0.77844 0.0
C1972 C 0.92813 0.22996 0.7823 0.0
C1973 C 0.9447 0.25213 0.78677 0.0
C1974 C 0.9174 0.21787 0.79957 0.0
C1975 C 0.95085 0.26187 0.80879 0.0
C1976 C 0.94018 0.24999 0.82603 0.0
C1977 C 0.91171 0.21642 0.8387 0.0
C1978 C 0.89452 0.19459 0.83413 0.0
C1979 C 0.92323 0.2281 0.82158 0.0
C1980 C 0.88932 0.1843 0.81233 0.0
C1981 C 0.90062 0.19585 0.79518 0.0
H1982 H 0.78507 0.70513 0.74497 0.0
H1983 H 0.73007 0.69645 0.77529 0.0
H1984 H 0.74612 0.69852 0.81149 0.0
H1985 H 0.77481 0.7007 0.83439 0.0
H1986 H 0.83032 0.71029 0.80491 0.0
H1987 H 0.81518 0.71017 0.76854 0.0
C1988 C 0.77669 0.70387 0.75953 0.0
C1989 C 0.75632 0.70046 0.75737 0.0
C1990 C 0.78607 0.70516 0.78042 0.0
C1991 C 0.74574 0.69905 0.77642 0.0
C1992 C 0.75487 0.70016 0.79716 0.0
C1993 C 0.78358 0.70285 0.81996 0.0
C1994 C 0.80347 0.70526 0.82212 0.0
C1995 C 0.77485 0.70287 0.7993 0.0
C1996 C 0.81494 0.70841 0.80351 0.0
C1997 C 0.80626 0.70825 0.78277 0.0
H1998 H 0.75345 0.6789 0.62471 0.0
H1999 H 0.75443 0.6266 0.65307 0.0
H2000 H 0.76676 0.61834 0.61921 0.0
H2001 H 0.77814 0.62665 0.58182 0.0
H2002 H 0.77671 0.67879 0.5537 0.0
H2003 H 0.76372 0.68646 0.58726 0.0
C2004 C 0.75636 0.66569 0.62354 0.0
C2005 C 0.75311 0.65347 0.64146 0.0
C2006 C 0.76339 0.66101 0.60406 0.0
C2007 C 0.75684 0.63631 0.63955 0.0
C2008 C 0.76389 0.63157 0.62018 0.0
C2009 C 0.77472 0.6395 0.58296 0.0
C2010 C 0.77848 0.6522 0.56534 0.0
C2011 C 0.76728 0.64386 0.60235 0.0
C2012 C 0.77422 0.66898 0.56715 0.0
C2013 C 0.76674 0.67333 0.5863 0.0
H2014 H 0.38066 0.09813 0.65385 0.0
H2015 H 0.34935 0.04136 0.60483 0.0
H2016 H 0.34998 0.06407 0.57705 0.0
H2017 H 0.35747 0.09961 0.56711 0.0
H2018 H 0.38955 0.15665 0.61551 0.0
H2019 H 0.3907 0.13434 0.64308 0.0
C2020 C 0.37415 0.09077 0.63704 0.0
C2021 C 0.3648 0.06804 0.63151 0.0
C2022 C 0.3746 0.10395 0.62106 0.0
C2023 C 0.35661 0.0588 0.60959 0.0
C2024 C 0.35688 0.07175 0.59368 0.0
C2025 C 0.36477 0.10711 0.5837 0.0
C2026 C 0.37324 0.1296 0.58943 0.0
C2027 C 0.36549 0.09425 0.59932 0.0
C2028 C 0.38296 0.13931 0.6108 0.0
C2029 C 0.38355 0.12657 0.62655 0.0
H2030 H 0.93789 0.26444 0.65673 0.0
H2031 H 0.87698 0.23938 0.68247 0.0
H2032 H 0.8597 0.22745 0.64481 0.0
H2033 H 0.86199 0.22348 0.60442 0.0
H2034 H 0.9233 0.24891 0.57957 0.0
H2035 H 0.94029 0.26127 0.61709 0.0
C2036 C 0.92081 0.25639 0.6542 0.0
C2037 C 0.90876 0.25276 0.67244 0.0
C2038 C 0.91104 0.24957 0.63262 0.0
C2039 C 0.88666 0.24236 0.66873 0.0
C2040 C 0.87676 0.23553 0.6472 0.0
C2041 C 0.87907 0.23188 0.60728 0.0
C2042 C 0.89134 0.23507 0.58925 0.0
C2043 C 0.8888 0.23898 0.629 0.0
C2044 C 0.91346 0.24589 0.59317 0.0
C2045 C 0.92321 0.25307 0.61461 0.0
H2046 H 0.3859 0.28955 0.68752 0.0
H2047 H 0.32171 0.26681 0.66355 0.0
H2048 H 0.32396 0.2459 0.63175 0.0
H2049 H 0.34379 0.23405 0.61063 0.0
H2050 H 0.40775 0.25573 0.63377 0.0
H2051 H 0.40604 0.2773 0.66591 0.0
C2052 C 0.37245 0.28006 0.6753 0.0
C2053 C 0.35366 0.27973 0.678 0.0
C2054 C 0.37377 0.26787 0.65694 0.0
C2055 C 0.33635 0.26731 0.66201 0.0
C2056 C 0.33759 0.25532 0.64377 0.0
C2057 C 0.35726 0.24318 0.62289 0.0
C2058 C 0.37573 0.24301 0.62005 0.0
C2059 C 0.35614 0.2554 0.64114 0.0
C2060 C 0.39331 0.25556 0.63567 0.0
C2061 C 0.39232 0.26784 0.65403 0.0
H2062 H 0.71514 0.09041 0.58516 0.0
H2063 H 0.76571 0.11468 0.63692 0.0
H2064 H 0.79111 0.13927 0.61287 0.0
H2065 H 0.7994 0.15265 0.57665 0.0
H2066 H 0.74927 0.12844 0.52459 0.0
H2067 H 0.72325 0.10527 0.54931 0.0
C2068 C 0.73168 0.10121 0.59124 0.0
C2069 C 0.73849 0.10054 0.61277 0.0
C2070 C 0.74632 0.11528 0.57726 0.0
C2071 C 0.76 0.11473 0.6204 0.0
C2072 C 0.77459 0.1288 0.60665 0.0
C2073 C 0.78277 0.14226 0.57074 0.0
C2074 C 0.77626 0.14208 0.54883 0.0
C2075 C 0.76798 0.12896 0.58496 0.0
C2076 C 0.75463 0.1289 0.54145 0.0
C2077 C 0.73978 0.11558 0.55553 0.0
H2078 H 0.8967 0.60541 0.62858 0.0
H2079 H 0.88072 0.6463 0.66762 0.0
H2080 H 0.86055 0.64649 0.63553 0.0
H2081 H 0.84989 0.63758 0.59568 0.0
H2082 H 0.86625 0.59716 0.55654 0.0
H2083 H 0.88357 0.59402 0.5894 0.0
C2084 C 0.88861 0.61416 0.63016 0.0
C2085 C 0.89046 0.62603 0.65044 0.0
C2086 C 0.87717 0.61437 0.61158 0.0
C2087 C 0.8797 0.63712 0.6522 0.0
C2088 C 0.8682 0.6373 0.63383 0.0
C2089 C 0.85716 0.628 0.59441 0.0
C2090 C 0.85693 0.61775 0.57373 0.0
C2091 C 0.86725 0.62642 0.61333 0.0
C2092 C 0.8661 0.60509 0.57232 0.0
C2093 C 0.87613 0.6034 0.59108 0.0
H2094 H 0.92981 0.71148 0.77167 0.0
H2095 H 0.90685 0.6429 0.77422 0.0
H2096 H 0.89227 0.64361 0.80912 0.0
H2097 H 0.88496 0.66315 0.8384 0.0
H2098 H 0.90671 0.73134 0.83585 0.0
H2099 H 0.92317 0.73143 0.80179 0.0
C2100 C 0.9217 0.69673 0.77991 0.0
C2101 C 0.91934 0.67715 0.7702 0.0
C2102 C 0.91317 0.69717 0.80005 0.0
C2103 C 0.90881 0.65819 0.78117 0.0
C2104 C 0.90045 0.65855 0.80119 0.0
C2105 C 0.89323 0.67802 0.83035 0.0
C2106 C 0.89449 0.69715 0.83959 0.0
C2107 C 0.90234 0.67786 0.81065 0.0
C2108 C 0.90565 0.71642 0.82919 0.0
C2109 C 0.91494 0.71644 0.80962 0.0
H2110 H 0.32961 0.23926 0.75605 0.0
H2111 H 0.2916 0.26276 0.78273 0.0
H2112 H 0.28193 0.2381 0.81161 0.0
H2113 H 0.28644 0.21166 0.83067 0.0
H2114 H 0.32399 0.18802 0.80275 0.0
H2115 H 0.33179 0.21109 0.77304 0.0
C2116 C 0.31912 0.23894 0.76811 0.0
C2117 C 0.31153 0.25298 0.76742 0.0
C2118 C 0.31371 0.22483 0.78456 0.0
C2119 C 0.29769 0.25212 0.78295 0.0
C2120 C 0.29223 0.23809 0.7995 0.0
C2121 C 0.29607 0.21134 0.8179 0.0
C2122 C 0.30494 0.19842 0.81919 0.0
C2123 C 0.30043 0.22461 0.80067 0.0
C2124 C 0.31742 0.19823 0.80251 0.0
C2125 C 0.32179 0.21131 0.78541 0.0
H2126 H 0.74015 0.08478 0.7318 0.0
H2127 H 0.7768 0.05676 0.71317 0.0
H2128 H 0.79576 0.06921 0.75004 0.0
H2129 H 0.80199 0.08837 0.7876 0.0
H2130 H 0.76469 0.1158 0.80551 0.0
H2131 H 0.74607 0.10342 0.76875 0.0
C2132 C 0.75228 0.08134 0.73573 0.0
C2133 C 0.75704 0.06985 0.71973 0.0
C2134 C 0.76309 0.08856 0.75681 0.0
C2135 C 0.77281 0.06559 0.72518 0.0
C2136 C 0.78367 0.07271 0.74625 0.0
C2137 C 0.78973 0.09153 0.78343 0.0
C2138 C 0.78489 0.10318 0.7992 0.0
C2139 C 0.77893 0.08423 0.76221 0.0
C2140 C 0.76903 0.10727 0.79355 0.0
C2141 C 0.75825 0.10005 0.77259 0.0
H2142 H 0.07325 0.37396 0.04374 0.0
H2143 H 0.02981 0.35192 0.09463 0.0
H2144 H 0.05176 0.34235 0.1149 0.0
H2145 H 0.08326 0.34002 0.1183 0.0
H2146 H 0.12757 0.36327 0.06848 0.0
H2147 H 0.10539 0.37254 0.04768 0.0
C2148 C 0.06864 0.36711 0.05928 0.0
C2149 C 0.04991 0.36366 0.0676 0.0
C2150 C 0.08147 0.36179 0.07104 0.0
C2151 C 0.04419 0.35485 0.08784 0.0
C2152 C 0.05669 0.34928 0.09945 0.0
C2153 C 0.08794 0.34702 0.10283 0.0
C2154 C 0.10688 0.35091 0.09484 0.0
C2155 C 0.07532 0.35261 0.0912 0.0
C2156 C 0.11303 0.36025 0.07494 0.0
C2157 C 0.10036 0.3655 0.06306 0.0
H2158 H 0.66499 0.68288 0.10221 0.0
H2159 H 0.60474 0.65515 0.13014 0.0
H2160 H 0.61426 0.6919 0.14525 0.0
H2161 H 0.63935 0.73187 0.14976 0.0
H2162 H 0.69914 0.75947 0.12099 0.0
H2163 H 0.69027 0.72261 0.10731 0.0
C2164 C 0.65391 0.68481 0.11162 0.0
C2165 C 0.63412 0.66628 0.11493 0.0
C2166 C 0.65944 0.70592 0.12018 0.0
C2167 C 0.62004 0.66913 0.12728 0.0
C2168 C 0.62547 0.69013 0.13593 0.0
C2169 C 0.65039 0.72981 0.14038 0.0
C2170 C 0.66982 0.74837 0.13626 0.0
C2171 C 0.64506 0.70863 0.13232 0.0
C2172 C 0.68416 0.74544 0.12452 0.0
C2173 C 0.67903 0.7244 0.11657 0.0
H2174 H 0.31613 0.96289 0.03034 0.0
H2175 H 0.34177 0.92774 0.05804 0.0
H2176 H 0.31016 0.90738 0.07772 0.0
H2177 H 0.27697 0.90206 0.08963 0.0
H2178 H 0.25131 0.93727 0.06221 0.0
H2179 H 0.28156 0.95549 0.04013 0.0
C2180 C 0.31471 0.95056 0.04043 0.0
C2181 C 0.33139 0.94697 0.04283 0.0
C2182 C 0.2967 0.93922 0.05203 0.0
C2183 C 0.32922 0.9309 0.05595 0.0
C2184 C 0.3112 0.91932 0.0673 0.0
C2185 C 0.27772 0.91337 0.07849 0.0
C2186 C 0.2619 0.91833 0.07764 0.0
C2187 C 0.29508 0.92371 0.06584 0.0
C2188 C 0.26341 0.93339 0.06343 0.0
C2189 C 0.28063 0.94371 0.0507 0.0
H2190 H 0.32625 0.02779 0.02357 0.0
H2191 H 0.38545 0.0613 0.99351 0.0
H2192 H 0.37497 0.08415 0.97693 0.0
H2193 H 0.34811 0.09289 0.96901 0.0
H2194 H 0.28868 0.05903 0.99847 0.0
H2195 H 0.3001 0.03782 0.01711 0.0
C2196 C 0.33698 0.04023 0.01357 0.0
C2197 C 0.35658 0.04275 0.00972 0.0
C2198 C 0.33073 0.05308 0.00382 0.0
C2199 C 0.37025 0.05895 0.9967 0.0
C2200 C 0.36425 0.072 0.98716 0.0
C2201 C 0.3378 0.08116 0.97983 0.0
C2202 C 0.31759 0.07756 0.98239 0.0
C2203 C 0.34441 0.06897 0.99035 0.0
C2204 C 0.30424 0.06196 0.99609 0.0
C2205 C 0.31079 0.0499 0.0068 0.0
H2206 H 0.97766 0.3075 0.98299 0.0
H2207 H 0.94348 0.29751 0.04111 0.0
H2208 H 0.91566 0.26086 0.02434 0.0
H2209 H 0.90025 0.23248 0.99244 0.0
H2210 H 0.93468 0.24191 0.9347 0.0
H2211 H 0.96349 0.27795 0.95217 0.0
C2212 C 0.96413 0.29728 0.99199 0.0
C2213 C 0.96246 0.30526 0.01313 0.0
C2214 C 0.94835 0.27617 0.98236 0.0
C2215 C 0.94506 0.29173 0.02478 0.0
C2216 C 0.92915 0.27081 0.0152 0.0
C2217 C 0.91417 0.24243 0.9838 0.0
C2218 C 0.9154 0.23481 0.96232 0.0
C2219 C 0.93053 0.26299 0.99392 0.0
C2220 C 0.93353 0.24754 0.9513 0.0
C2221 C 0.94987 0.26814 0.96121 0.0
H2222 H 0.69452 0.67018 0.03429 0.0
H2223 H 0.69962 0.62129 0.06513 0.0
H2224 H 0.73296 0.63303 0.04868 0.0
H2225 H 0.75971 0.65607 0.02417 0.0
H2226 H 0.75314 0.7035 0.99202 0.0
H2227 H 0.72157 0.69377 0.01087 0.0
C2228 C 0.70293 0.66211 0.03754 0.0
C2229 C 0.69451 0.64477 0.0508 0.0
C2230 C 0.72189 0.66877 0.02789 0.0
C2231 C 0.70571 0.63461 0.0549 0.0
C2232 C 0.72477 0.64131 0.0455 0.0
C2233 C 0.75135 0.66426 0.02127 0.0
C2234 C 0.75882 0.68048 0.00665 0.0
C2235 C 0.73285 0.65818 0.03173 0.0
C2236 C 0.748 0.6912 0.00341 0.0
C2237 C 0.72979 0.68549 0.01401 0.0
H2238 H 0.9341 0.63378 0.01523 0.0
H2239 H 0.99232 0.69263 0.00312 0.0
H2240 H 0.97244 0.70432 0.98225 0.0
H2241 H 0.93859 0.69778 0.96703 0.0
H2242 H 0.88027 0.63883 0.97846 0.0
H2243 H 0.90007 0.6271 0.99966 0.0
C2244 C 0.9424 0.6492 0.00812 0.0
C2245 C 0.96464 0.66231 0.01078 0.0
C2246 C 0.93087 0.65573 0.99581 0.0
C2247 C 0.97519 0.68218 0.00129 0.0
C2248 C 0.96385 0.6889 0.98932 0.0
C2249 C 0.93024 0.6824 0.97421 0.0
C2250 C 0.90804 0.66917 0.9711 0.0
C2251 C 0.9417 0.67578 0.9864 0.0
C2252 C 0.8974 0.64915 0.98033 0.0
C2253 C 0.9087 0.64252 0.9926 0.0
H2254 H 0.31745 0.29431 0.00178 0.0
H2255 H 0.35603 0.32877 0.95009 0.0
H2256 H 0.34367 0.29397 0.92788 0.0
H2257 H 0.3233 0.25386 0.92374 0.0
H2258 H 0.28628 0.21907 0.97609 0.0
H2259 H 0.29612 0.25385 0.99709 0.0
C2260 C 0.32306 0.2942 0.98562 0.0
C2261 C 0.33776 0.31412 0.97771 0.0
C2262 C 0.31607 0.27407 0.97295 0.0
C2263 C 0.34485 0.31369 0.95669 0.0
C2264 C 0.33776 0.29379 0.94392 0.0
C2265 C 0.3174 0.25387 0.93976 0.0
C2266 C 0.30418 0.23389 0.94835 0.0
C2267 C 0.32361 0.2739 0.95201 0.0
C2268 C 0.29629 0.23419 0.96894 0.0
C2269 C 0.30209 0.25409 0.98108 0.0
H2270 H 0.68125 0.0801 0.03126 0.0
H2271 H 0.67149 0.01546 0.02026 0.0
H2272 H 0.70219 0.02962 0.99902 0.0
H2273 H 0.73103 0.05985 0.98228 0.0
H2274 H 0.74114 0.12454 0.99267 0.0
H2275 H 0.7111 0.11085 0.01532 0.0
C2276 C 0.68591 0.06916 0.02429 0.0
C2277 C 0.67399 0.04676 0.02729 0.0
C2278 C 0.70361 0.07737 0.0119 0.0
C2279 C 0.68026 0.03278 0.01814 0.0
C2280 C 0.69786 0.04084 0.00598 0.0
C2281 C 0.72684 0.07101 0.98977 0.0
C2282 C 0.73824 0.09312 0.98582 0.0
C2283 C 0.70955 0.06303 0.00261 0.0
C2284 C 0.73243 0.10735 0.99532 0.0
C2285 C 0.71531 0.09957 0.0083 0.0
H2286 H 0.62038 0.93968 0.07152 0.0
H2287 H 0.67456 0.99924 0.10496 0.0
H2288 H 0.68799 0.97819 0.11967 0.0
H2289 H 0.6839 0.94287 0.12414 0.0
H2290 H 0.62965 0.8831 0.09152 0.0
H2291 H 0.61674 0.90422 0.0753 0.0
C2292 C 0.63512 0.94804 0.08202 0.0
C2293 C 0.64637 0.97098 0.08719 0.0
C2294 C 0.64279 0.93582 0.09052 0.0
C2295 C 0.6655 0.98158 0.10077 0.0
C2296 C 0.67326 0.96958 0.10917 0.0
C2297 C 0.66945 0.93453 0.11317 0.0
C2298 C 0.65778 0.91154 0.10892 0.0
C2299 C 0.66201 0.94671 0.10423 0.0
C2300 C 0.63884 0.90083 0.09505 0.0
C2301 C 0.63147 0.91288 0.08581 0.0
H2302 H 0.02942 0.69953 0.08458 0.0
H2303 H 0.07649 0.69174 0.05355 0.0
H2304 H 0.10462 0.72684 0.07298 0.0
H2305 H 0.11586 0.75966 0.09882 0.0
H2306 H 0.06897 0.76799 0.12928 0.0
H2307 H 0.04066 0.73273 0.1099 0.0
C2308 C 0.04583 0.70549 0.08208 0.0
C2309 C 0.05085 0.69298 0.06769 0.0
C2310 C 0.06192 0.72575 0.09318 0.0
C2311 C 0.07218 0.70103 0.0645 0.0
C2312 C 0.08829 0.72108 0.07564 0.0
C2313 C 0.09943 0.75363 0.10134 0.0
C2314 C 0.09445 0.76622 0.11558 0.0
C2315 C 0.08334 0.73352 0.09005 0.0
C2316 C 0.07313 0.75853 0.11836 0.0
C2317 C 0.05698 0.7384 0.10734 0.0
H2318 H 0.31123 0.36912 0.02031 0.0
H2319 H 0.35531 0.40886 0.07688 0.0
H2320 H 0.32604 0.39729 0.10009 0.0
H2321 H 0.28832 0.3743 0.10485 0.0
H2322 H 0.24381 0.3361 0.0481 0.0
H2323 H 0.273 0.34815 0.02463 0.0
C2324 C 0.31443 0.37546 0.03766 0.0
C2325 C 0.33547 0.38977 0.04682 0.0
C2326 C 0.2975 0.36869 0.051 0.0
C2327 C 0.3393 0.39785 0.06934 0.0
C2328 C 0.32256 0.39114 0.08269 0.0
C2329 C 0.28486 0.36886 0.0873 0.0
C2330 C 0.26379 0.35417 0.07839 0.0
C2331 C 0.30165 0.37632 0.07376 0.0
C2332 C 0.25984 0.34701 0.05561 0.0
C2333 C 0.27653 0.35409 0.04208 0.0
H2334 H 0.7223 0.6978 0.39286 0.0
H2335 H 0.66685 0.6446 0.41758 0.0
H2336 H 0.68897 0.63529 0.43814 0.0
H2337 H 0.72404 0.64173 0.44849 0.0
H2338 H 0.77939 0.69489 0.42372 0.0
H2339 H 0.75737 0.70489 0.40404 0.0
C2340 C 0.71505 0.68419 0.40276 0.0
C2341 C 0.69295 0.67186 0.40358 0.0
C2342 C 0.72786 0.67896 0.41463 0.0
C2343 C 0.68383 0.65437 0.41663 0.0
C2344 C 0.69646 0.649 0.4284 0.0
C2345 C 0.73124 0.6555 0.43879 0.0
C2346 C 0.75328 0.66759 0.43762 0.0
C2347 C 0.71847 0.66109 0.42741 0.0
C2348 C 0.76247 0.68553 0.42515 0.0
C2349 C 0.74988 0.69116 0.41375 0.0
H2350 H 0.2783 -0.00013 0.4633 0.0
H2351 H 0.32732 0.01603 0.41907 0.0
H2352 H 0.34403 0.05494 0.43176 0.0
H2353 H 0.34462 0.08453 0.45506 0.0
H2354 H 0.29591 0.06861 0.49951 0.0
H2355 H 0.2792 0.02952 0.48706 0.0
C2356 C 0.2926 0.0119 0.4564 0.0
C2357 C 0.30148 0.005 0.44024 0.0
C2358 C 0.30224 0.03433 0.46382 0.0
C2359 C 0.3201 0.02084 0.43154 0.0
C2360 C 0.32972 0.04313 0.43879 0.0
C2361 C 0.33049 0.07247 0.4622 0.0
C2362 C 0.32151 0.07944 0.47815 0.0
C2363 C 0.32095 0.05006 0.45494 0.0
C2364 C 0.30301 0.06365 0.48702 0.0
C2365 C 0.29348 0.04131 0.47996 0.0
H2366 H 0.01179 0.31702 0.39234 0.0
H2367 H 0.98723 0.27045 0.3336 0.0
H2368 H 0.95309 0.24891 0.34918 0.0
H2369 H 0.93025 0.24359 0.37961 0.0
H2370 H 0.95525 0.29114 0.4376 0.0
H2371 H 0.9892 0.31222 0.42201 0.0
C2372 C -0.00095 0.30208 0.38294 0.0
C2373 C 0.00209 0.29524 0.36191 0.0
C2374 C 0.9795 0.29009 0.39179 0.0
C2375 C 0.98529 0.27602 0.34986 0.0
C2376 C 0.96578 0.26373 0.35874 0.0
C2377 C 0.94318 0.25857 0.38878 0.0
C2378 C 0.94025 0.26588 0.40965 0.0
C2379 C 0.9627 0.27065 0.37969 0.0
C2380 C 0.95703 0.28538 0.42134 0.0
C2381 C 0.97648 0.29734 0.41253 0.0
H2382 H 0.06489 0.40337 0.33039 0.0
H2383 H 0.01669 0.3801 0.3764 0.0
H2384 H 0.00348 0.40151 0.36181 0.0
H2385 H 0.00433 0.42521 0.33449 0.0
H2386 H 0.05227 0.44793 0.28828 0.0
H2387 H 0.06694 0.42852 0.30456 0.0
C2388 C 0.05162 0.40312 0.33739 0.0
C2389 C 0.04172 0.39001 0.35435 0.0
C2390 C 0.04399 0.41532 0.32882 0.0
C2391 C 0.0246 0.39 0.36329 0.0
C2392 C 0.01697 0.40218 0.35491 0.0
C2393 C 0.018 0.42591 0.32805 0.0
C2394 C 0.02719 0.43796 0.31023 0.0
C2395 C 0.0263 0.4146 0.33741 0.0
C2396 C 0.04506 0.43896 0.30217 0.0
C2397 C 0.05339 0.42777 0.31138 0.0
H2398 H 0.6428 0.61148 0.33238 0.0
H2399 H 0.61466 0.64613 0.30951 0.0
H2400 H 0.58557 0.6121 0.28937 0.0
H2401 H 0.56746 0.57246 0.27953 0.0
H2402 H 0.59393 0.53709 0.30474 0.0
H2403 H 0.62468 0.57158 0.32213 0.0
C2404 C 0.63038 0.6116 0.32284 0.0
C2405 C 0.63083 0.63126 0.32249 0.0
C2406 C 0.61346 0.59188 0.31166 0.0
C2407 C 0.61458 0.63116 0.31017 0.0
C2408 C 0.59797 0.61173 0.29862 0.0
C2409 C 0.57984 0.57221 0.28898 0.0
C2410 C 0.57822 0.55212 0.29097 0.0
C2411 C 0.5971 0.59196 0.29952 0.0
C2412 C 0.59478 0.55227 0.30275 0.0
C2413 C 0.61231 0.57199 0.31287 0.0
H2414 H 0.35072 0.99102 0.35954 0.0
H2415 H 0.35143 0.94194 0.39476 0.0
H2416 H 0.38384 0.9496 0.37829 0.0
H2417 H 0.41134 0.96963 0.35292 0.0
H2418 H 0.40905 0.01758 0.31705 0.0
H2419 H 0.37807 0.01121 0.33514 0.0
C2420 C 0.35793 0.98198 0.36372 0.0
C2421 C 0.3486 0.96584 0.37827 0.0
C2422 C 0.37637 0.98637 0.35416 0.0
C2423 C 0.35827 0.95441 0.38354 0.0
C2424 C 0.37679 0.95878 0.37413 0.0
C2425 C 0.40404 0.97866 0.34907 0.0
C2426 C 0.41265 0.99418 0.33375 0.0
C2427 C 0.38587 0.97461 0.35925 0.0
C2428 C 0.4031 0.00589 0.32911 0.0
C2429 C 0.38522 0.00211 0.33927 0.0
H2430 H 0.61546 0.96413 0.30977 0.0
H2431 H 0.59991 0.97817 0.37404 0.0
H2432 H 0.57696 0.98846 0.35682 0.0
H2433 H 0.56168 0.99391 0.32352 0.0
H2434 H 0.57659 0.97912 0.2593 0.0
H2435 H 0.59949 0.96865 0.2765 0.0
C2436 C 0.60703 0.9694 0.32004 0.0
C2437 C 0.60947 0.97045 0.34318 0.0
C2438 C 0.59384 0.97523 0.31004 0.0
C2439 C 0.5983 0.97717 0.3562 0.0
C2440 C 0.58523 0.98313 0.34637 0.0
C2441 C 0.57012 0.98857 0.31334 0.0
C2442 C 0.56771 0.9875 0.29022 0.0
C2443 C 0.58301 0.98236 0.32333 0.0
C2444 C 0.57828 0.98009 0.27714 0.0
C2445 C 0.59135 0.97413 0.28696 0.0
H2446 H 0.02542 0.6656 0.30103 0.0
H2447 H 0.00804 0.63881 0.36325 0.0
H2448 H 0.99804 0.60268 0.34559 0.0
H2449 H 0.99486 0.57892 0.31262 0.0
H2450 H 0.01206 0.60573 0.25046 0.0
H2451 H 0.0216 0.64176 0.26802 0.0
C2452 C 0.01946 0.65188 0.31076 0.0
C2453 C 0.01753 0.65492 0.33344 0.0
C2454 C 0.0137 0.63119 0.30052 0.0
C2455 C 0.00971 0.63694 0.34577 0.0
C2456 C 0.00397 0.61627 0.33568 0.0
C2457 C 0.00041 0.59258 0.30287 0.0
C2458 C 0.0027 0.58969 0.28028 0.0
C2459 C 0.00591 0.61322 0.31308 0.0
C2460 C 0.01031 0.60762 0.26792 0.0
C2461 C 0.01572 0.62819 0.27793 0.0
H2462 H 0.34054 0.36536 0.36324 0.0
H2463 H 0.30394 0.36975 0.31003 0.0
H2464 H 0.33554 0.38899 0.29016 0.0
H2465 H 0.37287 0.40246 0.28684 0.0
H2466 H 0.41 0.39948 0.34052 0.0
H2467 H 0.37866 0.38126 0.36101 0.0
C2468 C 0.3395 0.3707 0.34739 0.0
C2469 C 0.31986 0.36599 0.33809 0.0
C2470 C 0.35772 0.38169 0.33598 0.0
C2471 C 0.31883 0.37313 0.31758 0.0
C2472 C 0.33688 0.38406 0.30615 0.0
C2473 C 0.37428 0.39824 0.3032 0.0
C2474 C 0.39382 0.4023 0.31203 0.0
C2475 C 0.35632 0.38814 0.31505 0.0
C2476 C 0.39512 0.39622 0.33309 0.0
C2477 C 0.37723 0.38596 0.34492 0.0
H2478 H 0.33823 0.31287 0.40855 0.0
H2479 H 0.27238 0.26012 0.39941 0.0
H2480 H 0.28112 0.23582 0.41574 0.0
H2481 H 0.30716 0.2302 0.43442 0.0
H2482 H 0.37283 0.28317 0.44415 0.0
H2483 H 0.36451 0.30664 0.42536 0.0
C2484 C 0.32578 0.29603 0.41002 0.0
C2485 C 0.30465 0.28839 0.40297 0.0
C2486 C 0.3309 0.28219 0.41948 0.0
C2487 C 0.28876 0.26645 0.40479 0.0
C2488 C 0.29374 0.25255 0.41415 0.0
C2489 C 0.31964 0.24688 0.43238 0.0
C2490 C 0.34054 0.255 0.44078 0.0
C2491 C 0.31469 0.26035 0.42184 0.0
C2492 C 0.35664 0.27649 0.43767 0.0
C2493 C 0.35187 0.28997 0.42709 0.0
H2494 H 0.70105 0.04676 0.37771 0.0
H2495 H 0.69696 0.0151 0.43613 0.0
H2496 H 0.72554 0.04991 0.45546 0.0
H2497 H 0.75214 0.08911 0.45562 0.0
H2498 H 0.7572 0.1206 0.3969 0.0
H2499 H 0.72745 0.08618 0.37805 0.0
C2500 C 0.70637 0.04747 0.39468 0.0
C2501 C 0.69691 0.02831 0.4054 0.0
C2502 C 0.7229 0.06753 0.40571 0.0
C2503 C 0.70399 0.02956 0.42743 0.0
C2504 C 0.72033 0.04947 0.43853 0.0
C2505 C 0.74681 0.08843 0.43866 0.0
C2506 C 0.75694 0.1074 0.42769 0.0
C2507 C 0.72998 0.06851 0.42779 0.0
C2508 C 0.74954 0.10633 0.40584 0.0
C2509 C 0.73264 0.0866 0.39498 0.0
H2510 H 0.95188 0.66943 0.3372 0.0
H2511 H 0.9909 0.72888 0.38168 0.0
H2512 H 0.96106 0.7194 0.40349 0.0
H2513 H 0.92491 0.69318 0.4115 0.0
H2514 H 0.88517 0.63405 0.36689 0.0
H2515 H 0.91453 0.64427 0.34384 0.0
C2516 C 0.95379 0.68045 0.35149 0.0
C2517 C 0.97366 0.69977 0.35784 0.0
C2518 C 0.93658 0.67481 0.36415 0.0
C2519 C 0.97583 0.71387 0.37643 0.0
C2520 C 0.95879 0.70843 0.38899 0.0
C2521 C 0.92244 0.68268 0.3965 0.0
C2522 C 0.90281 0.66285 0.39099 0.0
C2523 C 0.93923 0.68877 0.38322 0.0
C2524 C 0.90019 0.64925 0.37174 0.0
C2525 C 0.91692 0.65516 0.35846 0.0
H2526 H 0.41414 0.04327 0.72008 0.0
H2527 H 0.36211 0.00144 0.75751 0.0
H2528 H 0.38576 0.99689 0.78154 0.0
H2529 H 0.42108 0.00445 0.79192 0.0
H2530 H 0.47306 0.0453 0.75405 0.0
H2531 H 0.44969 0.05091 0.73059 0.0
C2532 C 0.40799 0.03315 0.73348 0.0
C2533 C 0.38637 0.02269 0.73691 0.0
C2534 C 0.4217 0.03056 0.74733 0.0
C2535 C 0.37867 0.00967 0.75441 0.0
C2536 C 0.39219 0.00706 0.76823 0.0
C2537 C 0.42728 0.01452 0.77849 0.0
C2538 C 0.44879 0.0245 0.77484 0.0
C2539 C 0.4137 0.01737 0.76482 0.0
C2540 C 0.45663 0.03773 0.75751 0.0
C2541 C 0.44324 0.04079 0.74393 0.0
H2542 H 0.98746 0.35012 0.74507 0.0
H2543 H 0.92971 0.32176 0.77789 0.0
H2544 H 0.9402 0.35819 0.79505 0.0
H2545 H 0.96572 0.39796 0.80077 0.0
H2546 H 0.02302 0.42645 0.76723 0.0
H2547 H 0.01293 0.38993 0.7507 0.0
C2548 C 0.97711 0.35188 0.75593 0.0
C2549 C 0.95778 0.33323 0.76012 0.0
C2550 C 0.98324 0.37284 0.76576 0.0
C2551 C 0.94464 0.33583 0.77431 0.0
C2552 C 0.95064 0.35665 0.78417 0.0
C2553 C 0.97593 0.39622 0.78968 0.0
C2554 C 0.99506 0.41493 0.78518 0.0
C2555 C 0.96989 0.37525 0.77999 0.0
C2556 C 0.00832 0.41232 0.77117 0.0
C2557 C 0.00249 0.39146 0.76157 0.0
H2558 H 0.69047 0.61575 0.74108 0.0
H2559 H 0.66469 0.63896 0.69397 0.0
H2560 H 0.63027 0.6187 0.70877 0.0
H2561 H 0.60812 0.59653 0.73684 0.0
H2562 H 0.63392 0.57361 0.7841 0.0
H2563 H 0.66762 0.59147 0.76741 0.0
C2564 C 0.67726 0.61616 0.73386 0.0
C2565 C 0.68024 0.62903 0.7166 0.0
C2566 C 0.65753 0.60464 0.74258 0.0
C2567 C 0.6629 0.62929 0.70737 0.0
C2568 C 0.6432 0.61776 0.71586 0.0
C2569 C 0.62113 0.59543 0.74339 0.0
C2570 C 0.61863 0.58391 0.76169 0.0
C2571 C 0.64046 0.60578 0.73377 0.0
C2572 C 0.63546 0.58229 0.7699 0.0
C2573 C 0.65475 0.59257 0.76044 0.0
H2574 H 0.67592 0.68754 0.64284 0.0
H2575 H 0.7281 0.74253 0.68399 0.0
H2576 H 0.7149 0.76578 0.67502 0.0
H2577 H 0.68893 0.77061 0.6548 0.0
H2578 H 0.63756 0.71566 0.61277 0.0
H2579 H 0.64977 0.69213 0.62331 0.0
C2580 C 0.68446 0.70462 0.64986 0.0
C2581 C 0.70306 0.71332 0.66394 0.0
C2582 C 0.67678 0.71784 0.64467 0.0
C2583 C 0.7138 0.73544 0.67301 0.0
C2584 C 0.70623 0.74873 0.66793 0.0
C2585 C 0.68042 0.75349 0.64795 0.0
C2586 C 0.66232 0.74494 0.63305 0.0
C2587 C 0.6878 0.74012 0.65368 0.0
C2588 C 0.6513 0.72262 0.62457 0.0
C2589 C 0.65841 0.70919 0.63039 0.0
H2590 H 0.27672 0.96607 0.69752 0.0
H2591 H 0.31865 0.97789 0.64598 0.0
H2592 H 0.29289 0.94184 0.62636 0.0
H2593 H 0.25781 0.90738 0.62317 0.0
H2594 H 0.216 0.89598 0.67466 0.0
H2595 H 0.24237 0.9314 0.69497 0.0
C2596 C 0.28027 0.96077 0.68202 0.0
C2597 C 0.29954 0.97471 0.67322 0.0
C2598 C 0.26539 0.94008 0.67078 0.0
C2599 C 0.3039 0.96751 0.65313 0.0
C2600 C 0.28919 0.94688 0.64188 0.0
C2601 C 0.25464 0.91259 0.63896 0.0
C2602 C 0.23499 0.89922 0.64736 0.0
C2603 C 0.26982 0.93308 0.65048 0.0
C2604 C 0.23094 0.90618 0.66775 0.0
C2605 C 0.24601 0.92638 0.67939 0.0
H2606 H 0.0435 0.33817 0.72614 0.0
H2607 H 0.00571 0.27232 0.69236 0.0
H2608 H 0.0348 0.27936 0.67025 0.0
H2609 H 0.06977 0.30474 0.65875 0.0
H2610 H 0.10848 0.37024 0.69302 0.0
H2611 H 0.0799 0.36292 0.71632 0.0
C2612 C 0.04171 0.32527 0.71412 0.0
C2613 C 0.02238 0.3048 0.71084 0.0
C2614 C 0.05848 0.32945 0.7013 0.0
C2615 C 0.02036 0.28826 0.69522 0.0
C2616 C 0.03696 0.29228 0.68248 0.0
C2617 C 0.07223 0.31733 0.6716 0.0
C2618 C 0.09132 0.33803 0.67408 0.0
C2619 C 0.05594 0.31291 0.68514 0.0
C2620 C 0.09386 0.35427 0.69049 0.0
C2621 C 0.07758 0.35004 0.70394 0.0
H2622 H 0.268 0.30235 0.69452 0.0
H2623 H 0.32204 0.34321 0.65907 0.0
H2624 H 0.30097 0.35256 0.63674 0.0
H2625 H 0.26691 0.34841 0.62648 0.0
H2626 H 0.2124 0.30643 0.66067 0.0
H2627 H 0.23378 0.29811 0.68413 0.0
C2628 C 0.27515 0.31341 0.68201 0.0
C2629 C 0.29652 0.32208 0.67847 0.0
C2630 C 0.26281 0.31838 0.66886 0.0
C2631 C 0.30557 0.33623 0.66205 0.0
C2632 C 0.29355 0.34161 0.64926 0.0
C2633 C 0.2598 0.33752 0.63913 0.0
C2634 C 0.23816 0.32795 0.6418 0.0
C2635 C 0.27212 0.33265 0.65239 0.0
C2636 C 0.22901 0.31373 0.65814 0.0
C2637 C 0.24124 0.30908 0.67163 0.0
H2638 H 0.68599 0.98865 0.65063 0.0
H2639 H 0.72157 0.0107 0.59365 0.0
H2640 H 0.70755 0.9726 0.57889 0.0
H2641 H 0.68532 0.93314 0.58229 0.0
H2642 H 0.65059 0.91134 0.63981 0.0
H2643 H 0.66382 0.94934 0.654 0.0
C2644 C 0.69074 0.98518 0.63499 0.0
C2645 C 0.70488 0.00252 0.6233 0.0
C2646 C 0.68263 0.9633 0.62661 0.0
C2647 C 0.71077 0.99767 0.60302 0.0
C2648 C 0.70273 0.9759 0.59455 0.0
C2649 C 0.68076 0.93671 0.59801 0.0
C2650 C 0.66702 0.91941 0.60998 0.0
C2651 C 0.6887 0.9586 0.60624 0.0
C2652 C 0.66093 0.9243 0.63011 0.0
C2653 C 0.66863 0.94604 0.63833 0.0
H2654 H 0.01773 0.69925 0.71955 0.0
H2655 H 0.97518 0.70006 0.67064 0.0
H2656 H 0.0045 0.72094 0.64842 0.0
H2657 H 0.04159 0.73699 0.64171 0.0
H2658 H 0.08483 0.73779 0.69096 0.0
H2659 H 0.0557 0.71773 0.7139 0.0
C2660 C 0.01491 0.7042 0.70416 0.0
C2661 C 0.99423 0.69797 0.69676 0.0
C2662 C 0.03187 0.71617 0.69132 0.0
C2663 C 0.99089 0.70456 0.67676 0.0
C2664 C 0.00765 0.71645 0.66395 0.0
C2665 C 0.04482 0.73319 0.65763 0.0
C2666 C 0.06544 0.73891 0.6645 0.0
C2667 C 0.02812 0.72206 0.67092 0.0
C2668 C 0.06908 0.7333 0.68501 0.0
C2669 C 0.05245 0.72198 0.69826 0.0
H2670 H 0.94447 0.6111 0.74724 0.0
H2671 H 0.97204 0.6064 0.68757 0.0
H2672 H 0.98632 0.58732 0.70572 0.0
H2673 H 0.99155 0.57274 0.73898 0.0
H2674 H 0.9656 0.58008 0.79897 0.0
H2675 H 0.95 0.59726 0.78013 0.0
C2676 C 0.9534 0.60572 0.73806 0.0
C2677 C 0.95708 0.61005 0.71604 0.0
C2678 C 0.96194 0.59531 0.7487 0.0
C2679 C 0.96895 0.60321 0.70453 0.0
C2680 C 0.97716 0.59237 0.71492 0.0
C2681 C 0.98264 0.57828 0.74796 0.0
C2682 C 0.97961 0.57492 0.77032 0.0
C2683 C 0.97394 0.58854 0.7371 0.0
C2684 C 0.96784 0.58202 0.78165 0.0
C2685 C 0.95899 0.59198 0.77093 0.0
H2686 H 0.38804 0.38665 0.72089 0.0
H2687 H 0.37236 0.35065 0.77777 0.0
H2688 H 0.39913 0.38388 0.80108 0.0
H2689 H 0.42703 0.4232 0.80529 0.0
H2690 H 0.4428 0.4589 0.74821 0.0
H2691 H 0.41567 0.42582 0.7251 0.0
C2692 C 0.39049 0.38602 0.73837 0.0
C2693 C 0.37825 0.36617 0.74754 0.0
C2694 C 0.40579 0.4052 0.7517 0.0
C2695 C 0.38158 0.36571 0.77026 0.0
C2696 C 0.39687 0.38472 0.78362 0.0
C2697 C 0.42454 0.4237 0.78778 0.0
C2698 C 0.43683 0.44351 0.77853 0.0
C2699 C 0.40906 0.40455 0.77452 0.0
C2700 C 0.43329 0.44397 0.75585 0.0
C2701 C 0.41791 0.42501 0.74257 0.0
H2702 H 0.63974 0.00014 0.68941 0.0
H2703 H 0.66387 0.06927 0.69005 0.0
H2704 H 0.63482 0.06491 0.7111 0.0
H2705 H 0.60438 0.042 0.73204 0.0
H2706 H 0.58093 0.97308 0.73182 0.0
H2707 H 0.6078 0.97676 0.70764 0.0
C2708 C 0.63855 0.01424 0.69396 0.0
C2709 C 0.65408 0.03505 0.68842 0.0
C2710 C 0.62199 0.01165 0.70622 0.0
C2711 C 0.65215 0.05308 0.69417 0.0
C2712 C 0.6356 0.05062 0.7063 0.0
C2713 C 0.60513 0.02779 0.72659 0.0
C2714 C 0.59084 0.00734 0.73383 0.0
C2715 C 0.62075 0.03009 0.71287 0.0
C2716 C 0.59169 0.98896 0.72636 0.0
C2717 C 0.60712 0.99109 0.71266 0.0
loop_
_geom_bond_atom_site_label_1
_geom_bond_atom_site_label_2
_geom_bond_distance
_geom_bond_site_symmetry_2
_ccdc_geom_bond_type
C0 O1 1.160 . S
C0 O7 1.185 . S
O1 C0 1.160 . S
O2 Zn3 1.899 1_655 S
O2 C10 1.284 . S
Zn3 O2 1.899 1_455 S
Zn3 O4 2.032 . S
Zn3 O7 2.086 . S
Zn3 O12 1.977 . S
O4 Zn3 2.032 . S
O4 C8 1.278 1_455 S
C5 O6 1.203 1_455 S
C5 O12 1.267 1_556 S
O6 C5 1.203 1_655 S
O7 C0 1.185 . S
O7 Zn3 2.086 . S
C8 O4 1.278 1_655 S
C8 O9 1.211 . S
O9 C8 1.211 . S
C10 O2 1.284 . S
C10 O11 1.273 . S
O11 C10 1.273 . S
O12 Zn3 1.977 . S
O12 C5 1.267 1_554 S
C13 O14 1.160 . S
C13 O20 1.185 . S
O14 C13 1.160 . S
O15 Zn16 1.899 . S
O15 C23 1.284 . S
Zn16 O15 1.899 . S
Zn16 O17 2.032 . S
Zn16 O20 2.086 . S
Zn16 O25 1.977 . S
O17 Zn16 2.032 . S
O17 C21 1.278 . S
C18 O19 1.203 . S
C18 O25 1.267 . S
O19 C18 1.203 . S
O20 C13 1.185 . S
O20 Zn16 2.086 . S
C21 O17 1.278 . S
C21 O22 1.211 . S
O22 C21 1.211 . S
C23 O15 1.284 . S
C23 O24 1.273 . S
O24 C23 1.273 . S
O25 Zn16 1.977 . S
O25 C18 1.267 . S
C26 O27 1.160 . S
C26 O33 1.185 . S
O27 C26 1.160 . S
O28 Zn29 1.899 1_565 S
O28 C36 1.284 . S
Zn29 O28 1.899 1_545 S
Zn29 O30 2.032 . S
Zn29 O33 2.086 . S
Zn29 O38 1.977 . S
O30 Zn29 2.032 . S
O30 C34 1.280 1_545 S
C31 O32 1.203 1_545 S
C31 O38 1.267 . S
O32 C31 1.203 1_565 S
O33 C26 1.185 . S
O33 Zn29 2.086 . S
C34 O30 1.280 1_565 S
C34 O35 1.236 . S
O35 C34 1.236 . S
C36 O28 1.284 . S
C36 O37 1.273 . S
O37 C36 1.273 . S
O38 Zn29 1.977 . S
O38 C31 1.267 . S
C39 O40 1.160 . S
C39 O46 1.185 . S
O40 C39 1.160 . S
O41 Zn42 1.899 1_455 S
O41 C49 1.284 . S
Zn42 O41 1.899 1_655 S
Zn42 O43 2.016 1_655 S
Zn42 O46 2.086 . S
Zn42 O51 1.977 . S
O43 Zn42 2.016 1_455 S
O43 C47 1.313 . S
C44 O45 1.203 1_655 S
C44 O51 1.267 . S
O45 C44 1.203 1_455 S
O46 C39 1.185 . S
O46 Zn42 2.086 . S
C47 O43 1.313 . S
C47 O48 1.211 . S
O48 C47 1.211 . S
C49 O41 1.284 . S
C49 O50 1.273 . S
O50 C49 1.273 . S
O51 Zn42 1.977 . S
O51 C44 1.267 . S
C52 O53 1.160 . S
C52 O59 1.185 . S
O53 C52 1.160 . S
O54 Zn55 1.899 1_556 S
O54 C62 1.284 . S
Zn55 O54 1.899 1_554 S
Zn55 O56 2.032 . S
Zn55 O59 2.086 . S
Zn55 O64 1.977 1_554 S
O56 Zn55 2.032 . S
O56 C60 1.278 . S
C57 O58 1.203 . S
C57 O64 1.267 . S
O58 C57 1.203 . S
O59 C52 1.185 . S
O59 Zn55 2.086 . S
C60 O56 1.278 . S
C60 O61 1.211 . S
O61 C60 1.211 . S
C62 O54 1.284 . S
C62 O63 1.273 1_556 S
O63 C62 1.273 1_554 S
O64 Zn55 1.977 1_556 S
O64 C57 1.267 . S
C65 O66 1.160 . S
C65 O72 1.185 . S
O66 C65 1.160 . S
O67 Zn68 1.899 1_545 S
O67 C75 1.284 . S
Zn68 O67 1.899 1_565 S
Zn68 O69 2.032 1_565 S
Zn68 O72 2.086 . S
Zn68 O77 1.977 . S
O69 Zn68 2.032 1_545 S
O69 C73 1.278 . S
C70 O71 1.203 1_565 S
C70 O77 1.267 . S
O71 C70 1.203 1_545 S
O72 C65 1.185 . S
O72 Zn68 2.086 . S
C73 O69 1.278 . S
C73 O74 1.211 . S
O74 C73 1.211 . S
C75 O67 1.284 . S
C75 O76 1.273 . S
O76 C75 1.273 . S
O77 Zn68 1.977 . S
O77 C70 1.267 . S
C78 O79 1.160 . S
C78 O85 1.185 . S
O79 C78 1.160 . S
O80 Zn81 1.899 . S
O80 C88 1.284 . S
Zn81 O80 1.899 . S
Zn81 O82 2.032 . S
Zn81 O85 2.086 . S
Zn81 O90 1.977 . S
O82 Zn81 2.032 . S
O82 C86 1.278 . S
C83 O84 1.203 . S
C83 O90 1.267 . S
O84 C83 1.203 . S
O85 C78 1.185 . S
O85 Zn81 2.086 . S
C86 O82 1.278 . S
C86 O87 1.211 . S
O87 C86 1.211 . S
C88 O80 1.284 . S
C88 O89 1.273 . S
O89 C88 1.273 . S
O90 Zn81 1.977 . S
O90 C83 1.267 . S
C91 O92 1.160 . S
C91 O98 1.185 . S
O92 C91 1.160 . S
O93 Zn94 1.899 . S
O93 C101 1.284 . S
Zn94 O93 1.899 . S
Zn94 O95 2.032 . S
Zn94 O98 2.086 . S
Zn94 O103 1.977 . S
O95 Zn94 2.032 . S
O95 C99 1.278 . S
C96 O97 1.203 . S
C96 O103 1.267 . S
O97 C96 1.203 . S
O98 C91 1.185 . S
O98 Zn94 2.086 . S
C99 O95 1.278 . S
C99 O100 1.211 . S
O100 C99 1.211 . S
C101 O93 1.284 . S
C101 O102 1.273 . S
O102 C101 1.273 . S
O103 Zn94 1.977 . S
O103 C96 1.267 . S
C104 O105 1.160 . S
C104 O111 1.185 . S
O105 C104 1.160 . S
O106 Zn107 1.899 . S
O106 C114 1.284 . S
Zn107 O106 1.899 . S
Zn107 O108 2.032 . S
Zn107 O111 2.086 . S
Zn107 O116 1.977 . S
O108 Zn107 2.032 . S
O108 C112 1.278 . S
C109 O110 1.203 . S
C109 O116 1.267 . S
O110 C109 1.203 . S
O111 C104 1.185 . S
O111 Zn107 2.086 . S
C112 O108 1.278 . S
C112 O113 1.211 . S
O113 C112 1.211 . S
C114 O106 1.284 . S
C114 O115 1.273 . S
O115 C114 1.273 . S
O116 Zn107 1.977 . S
O116 C109 1.267 . S
C117 O118 1.160 . S
C117 O124 1.185 . S
O118 C117 1.160 . S
O119 Zn120 1.899 . S
O119 C127 1.283 . S
Zn120 O119 1.899 . S
Zn120 O121 2.032 . S
Zn120 O124 2.086 . S
Zn120 O129 1.977 . S
O121 Zn120 2.032 . S
O121 C125 1.278 . S
C122 O123 1.203 . S
C122 O129 1.267 . S
O123 C122 1.203 . S
O124 C117 1.185 . S
O124 Zn120 2.086 . S
C125 O121 1.278 . S
C125 O126 1.211 . S
O126 C125 1.211 . S
C127 O119 1.283 . S
C127 O128 1.287 . S
O128 C127 1.287 . S
O129 Zn120 1.977 . S
O129 C122 1.267 . S
C130 O131 1.160 . S
C130 O137 1.185 1_655 S
O131 C130 1.160 . S
O132 Zn133 1.899 . S
O132 C140 1.284 . S
Zn133 O132 1.899 . S
Zn133 O134 2.032 . S
Zn133 O137 2.086 . S
Zn133 O142 1.977 . S
O134 Zn133 2.032 . S
O134 C138 1.278 . S
C135 O136 1.203 . S
C135 O142 1.267 . S
O136 C135 1.203 . S
O137 C130 1.185 1_455 S
O137 Zn133 2.086 . S
C138 O134 1.278 . S
C138 O139 1.211 . S
O139 C138 1.211 . S
C140 O132 1.284 . S
C140 O141 1.273 . S
O141 C140 1.273 . S
O142 Zn133 1.977 . S
O142 C135 1.267 . S
C143 O144 1.160 . S
C143 O150 1.185 . S
O144 C143 1.160 . S
O145 Zn146 1.899 . S
O145 C153 1.284 . S
Zn146 O145 1.899 . S
Zn146 O147 2.032 . S
Zn146 O150 2.086 . S
Zn146 O155 1.977 . S
O147 Zn146 2.032 . S
O147 C151 1.278 . S
C148 O149 1.203 . S
C148 O155 1.267 . S
O149 C148 1.203 . S
O150 C143 1.185 . S
O150 Zn146 2.086 . S
C151 O147 1.278 . S
C151 O152 1.211 . S
O152 C151 1.211 . S
C153 O145 1.284 . S
C153 O154 1.273 . S
O154 C153 1.273 . S
O155 Zn146 1.977 . S
O155 C148 1.267 . S
C156 O157 1.160 . S
C156 O163 1.185 . S
O157 C156 1.160 . S
O158 Zn159 1.899 . S
O158 C166 1.284 . S
Zn159 O158 1.899 . S
Zn159 O160 2.032 . S
Zn159 O163 2.086 . S
Zn159 O168 1.977 . S
O160 Zn159 2.032 . S
O160 C164 1.278 . S
C161 O162 1.203 . S
C161 O168 1.267 . S
O162 C161 1.203 . S
O163 C156 1.185 . S
O163 Zn159 2.086 . S
C164 O160 1.278 . S
C164 O165 1.211 . S
O165 C164 1.211 . S
C166 O158 1.284 . S
C166 O167 1.273 . S
O167 C166 1.273 . S
O168 Zn159 1.977 . S
O168 C161 1.267 . S
C169 O170 1.160 . S
C169 O176 1.185 1_455 S
O170 C169 1.160 . S
O171 Zn172 1.899 . S
O171 C179 1.284 . S
Zn172 O171 1.899 . S
Zn172 O173 2.032 . S
Zn172 O176 2.086 . S
Zn172 O181 1.977 . S
O173 Zn172 2.032 . S
O173 C177 1.278 . S
C174 O175 1.203 . S
C174 O181 1.267 . S
O175 C174 1.203 . S
O176 C169 1.185 1_655 S
O176 Zn172 2.086 . S
C177 O173 1.278 . S
C177 O178 1.211 . S
O178 C177 1.211 . S
C179 O171 1.284 . S
C179 O180 1.273 . S
O180 C179 1.273 . S
O181 Zn172 1.977 . S
O181 C174 1.267 . S
C182 O183 1.160 . S
C182 O189 1.185 . S
O183 C182 1.160 . S
O184 Zn185 1.899 . S
O184 C192 1.284 . S
Zn185 O184 1.899 . S
Zn185 O186 2.032 . S
Zn185 O189 2.086 . S
Zn185 O194 1.977 . S
O186 Zn185 2.032 . S
O186 C190 1.278 . S
C187 O188 1.203 . S
C187 O194 1.267 . S
O188 C187 1.203 . S
O189 C182 1.185 . S
O189 Zn185 2.086 . S
C190 O186 1.278 . S
C190 O191 1.211 . S
O191 C190 1.211 . S
C192 O184 1.284 . S
C192 O193 1.273 . S
O193 C192 1.273 . S
O194 Zn185 1.977 . S
O194 C187 1.267 . S
C195 O196 1.160 . S
C195 O202 1.185 . S
O196 C195 1.160 . S
O197 Zn198 1.899 . S
O197 C205 1.284 . S
Zn198 O197 1.899 . S
Zn198 O199 2.032 . S
Zn198 O202 2.086 . S
Zn198 O207 1.977 . S
O199 Zn198 2.032 . S
O199 C203 1.278 . S
C200 O201 1.203 . S
C200 O207 1.267 . S
O201 C200 1.203 . S
O202 C195 1.185 . S
O202 Zn198 2.086 . S
C203 O199 1.278 . S
C203 O204 1.211 . S
O204 C203 1.211 . S
C205 O197 1.284 . S
C205 O206 1.273 . S
O206 C205 1.273 . S
O207 Zn198 1.977 . S
O207 C200 1.267 . S
C208 O209 1.160 . S
C208 O215 1.185 . S
O209 C208 1.160 . S
O210 Zn211 1.899 . S
O210 C218 1.284 . S
Zn211 O210 1.899 . S
Zn211 O212 2.032 . S
Zn211 O215 2.086 . S
Zn211 O220 1.977 . S
O212 Zn211 2.032 . S
O212 C216 1.278 . S
C213 O214 1.203 . S
C213 O220 1.267 . S
O214 C213 1.203 . S
O215 C208 1.185 . S
O215 Zn211 2.086 . S
C216 O212 1.278 . S
C216 O217 1.211 . S
O217 C216 1.211 . S
C218 O210 1.284 . S
C218 O219 1.273 . S
O219 C218 1.273 . S
O220 Zn211 1.977 . S
O220 C213 1.267 . S
C221 O222 1.160 . S
C221 O228 1.185 . S
O222 C221 1.160 . S
O223 Zn224 1.899 . S
O223 C231 1.284 . S
Zn224 O223 1.899 . S
Zn224 O225 2.032 . S
Zn224 O228 2.086 . S
Zn224 O233 1.977 . S
O225 Zn224 2.032 . S
O225 C229 1.278 . S
C226 O227 1.203 . S
C226 O233 1.267 . S
O227 C226 1.203 . S
O228 C221 1.185 . S
O228 Zn224 2.086 . S
C229 O225 1.278 . S
C229 O230 1.211 . S
O230 C229 1.211 . S
C231 O223 1.284 . S
C231 O232 1.273 . S
O232 C231 1.273 . S
O233 Zn224 1.977 . S
O233 C226 1.267 . S
H234 O260 0.856 . S
H235 O263 0.854 . S
H236 C271 0.930 . S
H237 C272 0.930 . S
H238 C274 0.930 . S
H239 C275 0.930 . S
H240 C277 0.931 . S
H241 C278 0.930 . S
H242 C280 0.930 . S
H243 C281 0.929 . S
H244 C283 0.930 . S
H245 C284 0.931 . S
H246 C286 0.930 . S
H247 C287 0.929 . S
H248 C289 0.931 . S
H249 C290 0.930 . S
H250 C292 0.930 . S
H251 C293 0.932 . S
H252 C295 0.930 . S
H253 C296 0.929 . S
H254 C298 0.931 . S
H255 C299 0.930 . S
H256 C301 0.929 . S
H257 C302 0.931 . S
H258 C304 0.930 . S
H259 C305 0.929 . S
O260 H234 0.856 . S
O260 C306 1.300 . S
O261 C306 1.209 . S
O262 C307 1.199 . S
O263 H235 0.854 . S
O263 C307 1.297 . S
C264 C265 1.404 . S
C264 C269 1.397 . S
C264 C270 1.492 . S
C265 C264 1.404 . S
C265 C266 1.396 . S
C265 C276 1.492 . S
C266 C265 1.396 . S
C266 C267 1.397 . S
C266 C282 1.509 . S
C267 C266 1.397 . S
C267 C268 1.412 . S
C267 C288 1.485 . S
C268 C267 1.412 . S
C268 C269 1.388 . S
C268 C294 1.490 . S
C269 C264 1.397 . S
C269 C268 1.388 . S
C269 C300 1.519 . S
C270 C264 1.492 . S
C270 C271 1.363 . S
C270 C275 1.390 . S
C271 H236 0.930 . S
C271 C270 1.363 . S
C271 C272 1.372 . S
C272 H237 0.930 . S
C272 C271 1.372 . S
C272 C273 1.383 . S
C273 C272 1.383 . S
C273 C274 1.395 . S
C274 H238 0.930 . S
C274 C273 1.395 . S
C274 C275 1.362 . S
C275 H239 0.930 . S
C275 C270 1.390 . S
C275 C274 1.362 . S
C276 C265 1.492 . S
C276 C277 1.377 . S
C276 C281 1.397 . S
C277 H240 0.931 . S
C277 C276 1.377 . S
C277 C278 1.376 . S
C278 H241 0.930 . S
C278 C277 1.376 . S
C278 C279 1.376 . S
C279 C278 1.376 . S
C279 C280 1.378 . S
C279 C306 1.486 . S
C280 H242 0.930 . S
C280 C279 1.378 . S
C280 C281 1.376 . S
C281 H243 0.929 . S
C281 C276 1.397 . S
C281 C280 1.376 . S
C282 C266 1.509 . S
C282 C283 1.391 . S
C282 C287 1.386 . S
C283 H244 0.930 . S
C283 C282 1.391 . S
C283 C284 1.375 . S
C284 H245 0.931 . S
C284 C283 1.375 . S
C284 C285 1.375 . S
C285 C284 1.375 . S
C285 C286 1.361 . S
C286 H246 0.930 . S
C286 C285 1.361 . S
C286 C287 1.399 . S
C287 H247 0.929 . S
C287 C282 1.386 . S
C287 C286 1.399 . S
C288 C267 1.485 . S
C288 C289 1.394 . S
C288 C293 1.360 . S
C289 H248 0.931 . S
C289 C288 1.394 . S
C289 C290 1.372 . S
C290 H249 0.930 . S
C290 C289 1.372 . S
C290 C291 1.397 . S
C291 C290 1.397 . S
C291 C292 1.390 . S
C291 C307 1.476 . S
C292 H250 0.930 . S
C292 C291 1.390 . S
C292 C293 1.366 . S
C293 H251 0.932 . S
C293 C288 1.360 . S
C293 C292 1.366 . S
C294 C268 1.490 . S
C294 C295 1.380 . S
C294 C299 1.386 . S
C295 H252 0.930 . S
C295 C294 1.380 . S
C295 C296 1.381 . S
C296 H253 0.929 . S
C296 C295 1.381 . S
C296 C297 1.371 . S
C297 C296 1.371 . S
C297 C298 1.380 . S
C298 H254 0.931 . S
C298 C297 1.380 . S
C298 C299 1.387 . S
C299 H255 0.930 . S
C299 C294 1.386 . S
C299 C298 1.387 . S
C300 C269 1.519 . S
C300 C301 1.377 . S
C300 C305 1.361 . S
C301 H256 0.929 . S
C301 C300 1.377 . S
C301 C302 1.386 . S
C302 H257 0.931 . S
C302 C301 1.386 . S
C302 C303 1.363 . S
C303 C302 1.363 . S
C303 C304 1.385 . S
C304 H258 0.930 . S
C304 C303 1.385 . S
C304 C305 1.396 . S
C305 H259 0.929 . S
C305 C300 1.361 . S
C305 C304 1.396 . S
C306 O260 1.300 . S
C306 O261 1.209 . S
C306 C279 1.486 . S
C307 O262 1.199 . S
C307 O263 1.297 . S
C307 C291 1.476 . S
H308 O334 0.856 . S
H309 O337 0.854 . S
H310 C345 0.930 . S
H311 C346 0.930 . S
H312 C348 0.930 . S
H313 C349 0.930 . S
H314 C351 0.931 . S
H315 C352 0.930 . S
H316 C354 0.930 . S
H317 C355 0.929 . S
H318 C357 0.930 . S
H319 C358 0.931 . S
H320 C360 0.930 . S
H321 C361 0.929 . S
H322 C363 0.931 . S
H323 C364 0.930 . S
H324 C366 0.930 . S
H325 C367 0.932 . S
H326 C369 0.930 . S
H327 C370 0.929 . S
H328 C372 0.931 . S
H329 C373 0.930 . S
H330 C375 0.929 . S
H331 C376 0.931 . S
H332 C378 0.930 . S
H333 C379 0.929 . S
O334 H308 0.856 . S
O334 C380 1.300 . S
O335 C380 1.209 . S
O336 C381 1.199 . S
O337 H309 0.854 . S
O337 C381 1.297 . S
C338 C339 1.404 . S
C338 C343 1.397 . S
C338 C344 1.492 . S
C339 C338 1.404 . S
C339 C340 1.396 . S
C339 C350 1.492 . S
C340 C339 1.396 . S
C340 C341 1.397 . S
C340 C356 1.509 . S
C341 C340 1.397 . S
C341 C342 1.412 . S
C341 C362 1.485 . S
C342 C341 1.412 . S
C342 C343 1.388 . S
C342 C368 1.490 . S
C343 C338 1.397 . S
C343 C342 1.388 . S
C343 C374 1.519 . S
C344 C338 1.492 . S
C344 C345 1.363 . S
C344 C349 1.390 . S
C345 H310 0.930 . S
C345 C344 1.363 . S
C345 C346 1.372 . S
C346 H311 0.930 . S
C346 C345 1.372 . S
C346 C347 1.383 . S
C347 C346 1.383 . S
C347 C348 1.395 . S
C348 H312 0.930 . S
C348 C347 1.395 . S
C348 C349 1.362 . S
C349 H313 0.930 . S
C349 C344 1.390 . S
C349 C348 1.362 . S
C350 C339 1.492 . S
C350 C351 1.377 . S
C350 C355 1.397 . S
C351 H314 0.931 . S
C351 C350 1.377 . S
C351 C352 1.376 . S
C352 H315 0.930 . S
C352 C351 1.376 . S
C352 C353 1.376 . S
C353 C352 1.376 . S
C353 C354 1.378 . S
C353 C380 1.486 . S
C354 H316 0.930 . S
C354 C353 1.378 . S
C354 C355 1.376 . S
C355 H317 0.929 . S
C355 C350 1.397 . S
C355 C354 1.376 . S
C356 C340 1.509 . S
C356 C357 1.391 . S
C356 C361 1.386 . S
C357 H318 0.930 . S
C357 C356 1.391 . S
C357 C358 1.375 . S
C358 H319 0.931 . S
C358 C357 1.375 . S
C358 C359 1.375 . S
C359 C358 1.375 . S
C359 C360 1.361 . S
C360 H320 0.930 . S
C360 C359 1.361 . S
C360 C361 1.399 . S
C361 H321 0.929 . S
C361 C356 1.386 . S
C361 C360 1.399 . S
C362 C341 1.485 . S
C362 C363 1.394 . S
C362 C367 1.360 . S
C363 H322 0.931 . S
C363 C362 1.394 . S
C363 C364 1.372 . S
C364 H323 0.930 . S
C364 C363 1.372 . S
C364 C365 1.397 . S
C365 C364 1.397 . S
C365 C366 1.390 . S
C365 C381 1.476 . S
C366 H324 0.930 . S
C366 C365 1.390 . S
C366 C367 1.366 . S
C367 H325 0.932 . S
C367 C362 1.360 . S
C367 C366 1.366 . S
C368 C342 1.490 . S
C368 C369 1.380 . S
C368 C373 1.386 . S
C369 H326 0.930 . S
C369 C368 1.380 . S
C369 C370 1.381 . S
C370 H327 0.929 . S
C370 C369 1.381 . S
C370 C371 1.371 . S
C371 C370 1.371 . S
C371 C372 1.380 . S
C372 H328 0.931 . S
C372 C371 1.380 . S
C372 C373 1.387 . S
C373 H329 0.930 . S
C373 C368 1.386 . S
C373 C372 1.387 . S
C374 C343 1.519 . S
C374 C375 1.377 . S
C374 C379 1.361 . S
C375 H330 0.929 . S
C375 C374 1.377 . S
C375 C376 1.386 . S
C376 H331 0.931 . S
C376 C375 1.386 . S
C376 C377 1.363 . S
C377 C376 1.363 . S
C377 C378 1.385 . S
C378 H332 0.930 . S
C378 C377 1.385 . S
C378 C379 1.396 . S
C379 H333 0.929 . S
C379 C374 1.361 . S
C379 C378 1.396 . S
C380 O334 1.300 . S
C380 O335 1.209 . S
C380 C353 1.486 . S
C381 O336 1.199 . S
C381 O337 1.297 . S
C381 C365 1.476 . S
H382 O408 0.856 . S
H383 O411 0.854 . S
H384 C419 0.930 . S
H385 C420 0.930 . S
H386 C422 0.930 . S
H387 C423 0.930 . S
H388 C425 0.931 . S
H389 C426 0.930 . S
H390 C428 0.930 . S
H391 C429 0.929 . S
H392 C431 0.930 . S
H393 C432 0.931 . S
H394 C434 0.930 . S
H395 C435 0.929 . S
H396 C437 0.931 . S
H397 C438 0.930 . S
H398 C440 0.930 . S
H399 C441 0.932 . S
H400 C443 0.930 . S
H401 C444 0.929 . S
H402 C446 0.931 . S
H403 C447 0.930 . S
H404 C449 0.929 . S
H405 C450 0.931 . S
H406 C452 0.930 . S
H407 C453 0.929 . S
O408 H382 0.856 . S
O408 C454 1.300 . S
O409 C454 1.209 . S
O410 C455 1.199 . S
O411 H383 0.854 . S
O411 C455 1.297 . S
C412 C413 1.404 . S
C412 C417 1.397 . S
C412 C418 1.492 . S
C413 C412 1.404 . S
C413 C414 1.396 . S
C413 C424 1.492 . S
C414 C413 1.396 . S
C414 C415 1.397 . S
C414 C430 1.509 . S
C415 C414 1.397 . S
C415 C416 1.412 . S
C415 C436 1.485 . S
C416 C415 1.412 . S
C416 C417 1.388 . S
C416 C442 1.490 . S
C417 C412 1.397 . S
C417 C416 1.388 . S
C417 C448 1.519 . S
C418 C412 1.492 . S
C418 C419 1.363 . S
C418 C423 1.390 . S
C419 H384 0.930 . S
C419 C418 1.363 . S
C419 C420 1.372 . S
C420 H385 0.930 . S
C420 C419 1.372 . S
C420 C421 1.383 . S
C421 C420 1.383 . S
C421 C422 1.395 . S
C422 H386 0.930 . S
C422 C421 1.395 . S
C422 C423 1.362 . S
C423 H387 0.930 . S
C423 C418 1.390 . S
C423 C422 1.362 . S
C424 C413 1.492 . S
C424 C425 1.377 . S
C424 C429 1.397 . S
C425 H388 0.931 . S
C425 C424 1.377 . S
C425 C426 1.376 . S
C426 H389 0.930 . S
C426 C425 1.376 . S
C426 C427 1.376 . S
C427 C426 1.376 . S
C427 C428 1.378 . S
C427 C454 1.486 . S
C428 H390 0.930 . S
C428 C427 1.378 . S
C428 C429 1.376 . S
C429 H391 0.929 . S
C429 C424 1.397 . S
C429 C428 1.376 . S
C430 C414 1.509 . S
C430 C431 1.391 . S
C430 C435 1.386 . S
C431 H392 0.930 . S
C431 C430 1.391 . S
C431 C432 1.375 . S
C432 H393 0.931 . S
C432 C431 1.375 . S
C432 C433 1.375 . S
C433 C432 1.375 . S
C433 C434 1.361 . S
C434 H394 0.930 . S
C434 C433 1.361 . S
C434 C435 1.399 . S
C435 H395 0.929 . S
C435 C430 1.386 . S
C435 C434 1.399 . S
C436 C415 1.485 . S
C436 C437 1.394 . S
C436 C441 1.360 . S
C437 H396 0.931 . S
C437 C436 1.394 . S
C437 C438 1.372 . S
C438 H397 0.930 . S
C438 C437 1.372 . S
C438 C439 1.397 . S
C439 C438 1.397 . S
C439 C440 1.390 . S
C439 C455 1.476 . S
C440 H398 0.930 . S
C440 C439 1.390 . S
C440 C441 1.366 . S
C441 H399 0.932 . S
C441 C436 1.360 . S
C441 C440 1.366 . S
C442 C416 1.490 . S
C442 C443 1.380 . S
C442 C447 1.386 . S
C443 H400 0.930 . S
C443 C442 1.380 . S
C443 C444 1.381 . S
C444 H401 0.929 . S
C444 C443 1.381 . S
C444 C445 1.371 . S
C445 C444 1.371 . S
C445 C446 1.380 . S
C446 H402 0.931 . S
C446 C445 1.380 . S
C446 C447 1.387 . S
C447 H403 0.930 . S
C447 C442 1.386 . S
C447 C446 1.387 . S
C448 C417 1.519 . S
C448 C449 1.377 . S
C448 C453 1.361 . S
C449 H404 0.929 . S
C449 C448 1.377 . S
C449 C450 1.386 . S
C450 H405 0.931 . S
C450 C449 1.386 . S
C450 C451 1.363 . S
C451 C450 1.363 . S
C451 C452 1.385 . S
C452 H406 0.930 . S
C452 C451 1.385 . S
C452 C453 1.396 . S
C453 H407 0.929 . S
C453 C448 1.361 . S
C453 C452 1.396 . S
C454 O408 1.300 . S
C454 O409 1.209 . S
C454 C427 1.486 . S
C455 O410 1.199 . S
C455 O411 1.297 . S
C455 C439 1.476 . S
H456 O482 0.856 . S
H457 O485 0.854 . S
H458 C493 0.930 . S
H459 C494 0.930 . S
H460 C496 0.930 . S
H461 C497 0.930 . S
H462 C499 0.931 . S
H463 C500 0.930 . S
H464 C502 0.930 . S
H465 C503 0.929 . S
H466 C505 0.930 . S
H467 C506 0.931 . S
H468 C508 0.930 . S
H469 C509 0.929 . S
H470 C511 0.931 . S
H471 C512 0.930 . S
H472 C514 0.930 . S
H473 C515 0.932 . S
H474 C517 0.930 . S
H475 C518 0.929 . S
H476 C520 0.931 . S
H477 C521 0.930 . S
H478 C523 0.929 . S
H479 C524 0.931 . S
H480 C526 0.930 . S
H481 C527 0.929 . S
O482 H456 0.856 . S
O482 C528 1.300 . S
O483 C528 1.209 . S
O484 C529 1.199 . S
O485 H457 0.854 . S
O485 C529 1.297 . S
C486 C487 1.404 . S
C486 C491 1.397 . S
C486 C492 1.492 . S
C487 C486 1.404 . S
C487 C488 1.396 . S
C487 C498 1.492 . S
C488 C487 1.396 . S
C488 C489 1.397 . S
C488 C504 1.509 . S
C489 C488 1.397 . S
C489 C490 1.412 . S
C489 C510 1.485 . S
C490 C489 1.412 . S
C490 C491 1.388 . S
C490 C516 1.490 . S
C491 C486 1.397 . S
C491 C490 1.388 . S
C491 C522 1.519 . S
C492 C486 1.492 . S
C492 C493 1.363 . S
C492 C497 1.390 . S
C493 H458 0.930 . S
C493 C492 1.363 . S
C493 C494 1.372 . S
C494 H459 0.930 . S
C494 C493 1.372 . S
C494 C495 1.383 . S
C495 C494 1.383 . S
C495 C496 1.395 . S
C496 H460 0.930 . S
C496 C495 1.395 . S
C496 C497 1.362 . S
C497 H461 0.930 . S
C497 C492 1.390 . S
C497 C496 1.362 . S
C498 C487 1.492 . S
C498 C499 1.377 . S
C498 C503 1.397 . S
C499 H462 0.931 . S
C499 C498 1.377 . S
C499 C500 1.376 . S
C500 H463 0.930 . S
C500 C499 1.376 . S
C500 C501 1.376 . S
C501 C500 1.376 . S
C501 C502 1.378 . S
C501 C528 1.486 1_556 S
C502 H464 0.930 . S
C502 C501 1.378 . S
C502 C503 1.376 . S
C503 H465 0.929 . S
C503 C498 1.397 . S
C503 C502 1.376 . S
C504 C488 1.509 . S
C504 C505 1.391 . S
C504 C509 1.386 . S
C505 H466 0.930 . S
C505 C504 1.391 . S
C505 C506 1.375 . S
C506 H467 0.931 . S
C506 C505 1.375 . S
C506 C507 1.375 . S
C507 C506 1.375 . S
C507 C508 1.361 . S
C508 H468 0.930 . S
C508 C507 1.361 . S
C508 C509 1.399 . S
C509 H469 0.929 . S
C509 C504 1.386 . S
C509 C508 1.399 . S
C510 C489 1.485 . S
C510 C511 1.394 . S
C510 C515 1.360 . S
C511 H470 0.931 . S
C511 C510 1.394 . S
C511 C512 1.372 . S
C512 H471 0.930 . S
C512 C511 1.372 . S
C512 C513 1.397 . S
C513 C512 1.397 . S
C513 C514 1.390 . S
C513 C529 1.476 . S
C514 H472 0.930 . S
C514 C513 1.390 . S
C514 C515 1.366 . S
C515 H473 0.932 . S
C515 C510 1.360 . S
C515 C514 1.366 . S
C516 C490 1.490 . S
C516 C517 1.380 . S
C516 C521 1.386 . S
C517 H474 0.930 . S
C517 C516 1.380 . S
C517 C518 1.381 . S
C518 H475 0.929 . S
C518 C517 1.381 . S
C518 C519 1.371 . S
C519 C518 1.371 . S
C519 C520 1.380 . S
C520 H476 0.931 . S
C520 C519 1.380 . S
C520 C521 1.387 . S
C521 H477 0.930 . S
C521 C516 1.386 . S
C521 C520 1.387 . S
C522 C491 1.519 . S
C522 C523 1.377 . S
C522 C527 1.361 . S
C523 H478 0.929 . S
C523 C522 1.377 . S
C523 C524 1.386 . S
C524 H479 0.931 . S
C524 C523 1.386 . S
C524 C525 1.363 . S
C525 C524 1.363 . S
C525 C526 1.385 . S
C526 H480 0.930 . S
C526 C525 1.385 . S
C526 C527 1.396 . S
C527 H481 0.929 . S
C527 C522 1.361 . S
C527 C526 1.396 . S
C528 O482 1.300 . S
C528 O483 1.209 . S
C528 C501 1.486 1_554 S
C529 O484 1.199 . S
C529 O485 1.297 . S
C529 C513 1.476 . S
H530 O556 0.856 . S
H531 O559 0.873 . S
H532 C567 0.930 . S
H533 C568 0.930 . S
H534 C570 0.930 . S
H535 C571 0.930 . S
H536 C573 0.931 . S
H537 C574 0.930 1_554 S
H538 C576 0.930 . S
H539 C577 0.929 . S
H540 C579 0.930 . S
H541 C580 0.931 . S
H542 C582 0.930 . S
H543 C583 0.929 . S
H544 C585 0.931 . S
H545 C586 0.930 . S
H546 C588 0.930 . S
H547 C589 0.932 . S
H548 C591 0.930 . S
H549 C592 0.929 . S
H550 C594 0.931 . S
H551 C595 0.930 . S
H552 C597 0.929 . S
H553 C598 0.931 . S
H554 C600 0.930 . S
H555 C601 0.929 . S
O556 H530 0.856 . S
O556 C602 1.300 . S
O557 C602 1.209 . S
O558 C603 1.199 . S
O559 H531 0.873 . S
O559 C603 1.297 . S
C560 C561 1.404 . S
C560 C565 1.397 . S
C560 C566 1.492 . S
C561 C560 1.404 . S
C561 C562 1.396 . S
C561 C572 1.492 . S
C562 C561 1.396 . S
C562 C563 1.397 . S
C562 C578 1.509 . S
C563 C562 1.397 . S
C563 C564 1.412 . S
C563 C584 1.485 . S
C564 C563 1.412 . S
C564 C565 1.388 . S
C564 C590 1.490 . S
C565 C560 1.397 . S
C565 C564 1.388 . S
C565 C596 1.519 . S
C566 C560 1.492 . S
C566 C567 1.363 . S
C566 C571 1.390 . S
C567 H532 0.930 . S
C567 C566 1.363 . S
C567 C568 1.372 . S
C568 H533 0.930 . S
C568 C567 1.372 . S
C568 C569 1.383 . S
C569 C568 1.383 . S
C569 C570 1.395 . S
C570 H534 0.930 . S
C570 C569 1.395 . S
C570 C571 1.362 . S
C571 H535 0.930 . S
C571 C566 1.390 . S
C571 C570 1.362 . S
C572 C561 1.492 . S
C572 C573 1.377 . S
C572 C577 1.397 . S
C573 H536 0.931 . S
C573 C572 1.377 . S
C573 C574 1.376 . S
C574 H537 0.930 1_556 S
C574 C573 1.376 . S
C574 C575 1.376 1_556 S
C575 C574 1.376 1_554 S
C575 C576 1.378 1_554 S
C575 C602 1.486 . S
C576 H538 0.930 . S
C576 C575 1.378 1_556 S
C576 C577 1.376 . S
C577 H539 0.929 . S
C577 C572 1.397 . S
C577 C576 1.376 . S
C578 C562 1.509 . S
C578 C579 1.391 . S
C578 C583 1.386 . S
C579 H540 0.930 . S
C579 C578 1.391 . S
C579 C580 1.375 . S
C580 H541 0.931 . S
C580 C579 1.375 . S
C580 C581 1.375 . S
C581 C580 1.375 . S
C581 C582 1.361 . S
C582 H542 0.930 . S
C582 C581 1.361 . S
C582 C583 1.399 . S
C583 H543 0.929 . S
C583 C578 1.386 . S
C583 C582 1.399 . S
C584 C563 1.485 . S
C584 C585 1.394 . S
C584 C589 1.360 . S
C585 H544 0.931 . S
C585 C584 1.394 . S
C585 C586 1.372 . S
C586 H545 0.930 . S
C586 C585 1.372 . S
C586 C587 1.397 . S
C587 C586 1.397 . S
C587 C588 1.390 . S
C587 C603 1.476 . S
C588 H546 0.930 . S
C588 C587 1.390 . S
C588 C589 1.366 . S
C589 H547 0.932 . S
C589 C584 1.360 . S
C589 C588 1.366 . S
C590 C564 1.490 . S
C590 C591 1.380 . S
C590 C595 1.386 . S
C591 H548 0.930 . S
C591 C590 1.380 . S
C591 C592 1.381 . S
C592 H549 0.929 . S
C592 C591 1.381 . S
C592 C593 1.371 . S
C593 C592 1.371 . S
C593 C594 1.380 . S
C594 H550 0.931 . S
C594 C593 1.380 . S
C594 C595 1.387 . S
C595 H551 0.930 . S
C595 C590 1.386 . S
C595 C594 1.387 . S
C596 C565 1.519 . S
C596 C597 1.377 . S
C596 C601 1.361 . S
C597 H552 0.929 . S
C597 C596 1.377 . S
C597 C598 1.386 . S
C598 H553 0.931 . S
C598 C597 1.386 . S
C598 C599 1.363 . S
C599 C598 1.363 . S
C599 C600 1.385 . S
C600 H554 0.930 . S
C600 C599 1.385 . S
C600 C601 1.396 . S
C601 H555 0.929 . S
C601 C596 1.361 . S
C601 C600 1.396 . S
C602 O556 1.300 . S
C602 O557 1.209 . S
C602 C575 1.486 . S
C603 O558 1.199 . S
C603 O559 1.297 . S
C603 C587 1.476 . S
H604 O630 0.856 . S
H605 O633 0.854 . S
H606 C641 0.930 . S
H607 C642 0.930 . S
H608 C644 0.930 . S
H609 C645 0.930 . S
H610 C647 0.931 . S
H611 C648 0.930 . S
H612 C650 0.930 . S
H613 C651 0.929 . S
H614 C653 0.930 . S
H615 C654 0.931 . S
H616 C656 0.930 . S
H617 C657 0.929 . S
H618 C659 0.931 . S
H619 C660 0.930 . S
H620 C662 0.930 . S
H621 C663 0.932 . S
H622 C665 0.930 . S
H623 C666 0.929 . S
H624 C668 0.931 . S
H625 C669 0.930 . S
H626 C671 0.929 . S
H627 C672 0.931 . S
H628 C674 0.930 . S
H629 C675 0.929 . S
O630 H604 0.856 . S
O630 C676 1.300 . S
O631 C676 1.209 . S
O632 C677 1.199 . S
O633 H605 0.854 . S
O633 C677 1.297 . S
C634 C635 1.404 . S
C634 C639 1.397 . S
C634 C640 1.492 . S
C635 C634 1.404 . S
C635 C636 1.396 . S
C635 C646 1.492 . S
C636 C635 1.396 . S
C636 C637 1.397 . S
C636 C652 1.509 . S
C637 C636 1.397 . S
C637 C638 1.412 . S
C637 C658 1.485 . S
C638 C637 1.412 . S
C638 C639 1.388 . S
C638 C664 1.490 . S
C639 C634 1.397 . S
C639 C638 1.388 . S
C639 C670 1.519 . S
C640 C634 1.492 . S
C640 C641 1.363 . S
C640 C645 1.390 . S
C641 H606 0.930 . S
C641 C640 1.363 . S
C641 C642 1.372 . S
C642 H607 0.930 . S
C642 C641 1.372 . S
C642 C643 1.383 . S
C643 C642 1.383 . S
C643 C644 1.395 . S
C644 H608 0.930 . S
C644 C643 1.395 . S
C644 C645 1.362 . S
C645 H609 0.930 . S
C645 C640 1.390 . S
C645 C644 1.362 . S
C646 C635 1.492 . S
C646 C647 1.377 . S
C646 C651 1.397 . S
C647 H610 0.931 . S
C647 C646 1.377 . S
C647 C648 1.376 1_556 S
C648 H611 0.930 . S
C648 C647 1.376 1_554 S
C648 C649 1.376 . S
C649 C648 1.376 . S
C649 C650 1.378 1_554 S
C649 C676 1.486 . S
C650 H612 0.930 . S
C650 C649 1.378 1_556 S
C650 C651 1.376 . S
C651 H613 0.929 . S
C651 C646 1.397 . S
C651 C650 1.376 . S
C652 C636 1.509 . S
C652 C653 1.391 . S
C652 C657 1.386 . S
C653 H614 0.930 . S
C653 C652 1.391 . S
C653 C654 1.375 . S
C654 H615 0.931 . S
C654 C653 1.375 . S
C654 C655 1.375 . S
C655 C654 1.375 . S
C655 C656 1.361 . S
C656 H616 0.930 . S
C656 C655 1.361 . S
C656 C657 1.399 . S
C657 H617 0.929 . S
C657 C652 1.386 . S
C657 C656 1.399 . S
C658 C637 1.485 . S
C658 C659 1.394 . S
C658 C663 1.360 . S
C659 H618 0.931 . S
C659 C658 1.394 . S
C659 C660 1.372 . S
C660 H619 0.930 . S
C660 C659 1.372 . S
C660 C661 1.397 . S
C661 C660 1.397 . S
C661 C662 1.390 . S
C661 C677 1.476 . S
C662 H620 0.930 . S
C662 C661 1.390 . S
C662 C663 1.366 . S
C663 H621 0.932 . S
C663 C658 1.360 . S
C663 C662 1.366 . S
C664 C638 1.490 . S
C664 C665 1.380 . S
C664 C669 1.386 . S
C665 H622 0.930 . S
C665 C664 1.380 . S
C665 C666 1.381 . S
C666 H623 0.929 . S
C666 C665 1.381 . S
C666 C667 1.371 . S
C667 C666 1.371 . S
C667 C668 1.380 . S
C668 H624 0.931 . S
C668 C667 1.380 . S
C668 C669 1.387 . S
C669 H625 0.930 . S
C669 C664 1.386 . S
C669 C668 1.387 . S
C670 C639 1.519 . S
C670 C671 1.377 . S
C670 C675 1.361 . S
C671 H626 0.929 . S
C671 C670 1.377 . S
C671 C672 1.386 . S
C672 H627 0.931 . S
C672 C671 1.386 . S
C672 C673 1.363 . S
C673 C672 1.363 . S
C673 C674 1.385 . S
C674 H628 0.930 . S
C674 C673 1.385 . S
C674 C675 1.396 . S
C675 H629 0.929 . S
C675 C670 1.361 . S
C675 C674 1.396 . S
C676 O630 1.300 . S
C676 O631 1.209 . S
C676 C649 1.486 . S
C677 O632 1.199 . S
C677 O633 1.297 . S
C677 C661 1.476 . S
H678 O704 0.856 . S
H679 O707 0.854 . S
H680 C715 0.930 . S
H681 C716 0.930 . S
H682 C718 0.930 . S
H683 C719 0.930 . S
H684 C721 0.931 . S
H685 C722 0.930 . S
H686 C724 0.930 . S
H687 C725 0.929 . S
H688 C727 0.930 . S
H689 C728 0.931 . S
H690 C730 0.930 . S
H691 C731 0.929 . S
H692 C733 0.931 . S
H693 C734 0.930 . S
H694 C736 0.930 . S
H695 C737 0.932 . S
H696 C739 0.930 . S
H697 C740 0.929 . S
H698 C742 0.931 . S
H699 C743 0.930 . S
H700 C745 0.929 . S
H701 C746 0.931 . S
H702 C748 0.930 . S
H703 C749 0.929 . S
O704 H678 0.856 . S
O704 C750 1.300 . S
O705 C750 1.209 . S
O706 C751 1.199 . S
O707 H679 0.854 . S
O707 C751 1.297 . S
C708 C709 1.404 . S
C708 C713 1.397 . S
C708 C714 1.492 . S
C709 C708 1.404 . S
C709 C710 1.396 . S
C709 C720 1.492 . S
C710 C709 1.396 . S
C710 C711 1.397 . S
C710 C726 1.509 . S
C711 C710 1.397 . S
C711 C712 1.412 . S
C711 C732 1.485 . S
C712 C711 1.412 . S
C712 C713 1.388 . S
C712 C738 1.490 . S
C713 C708 1.397 . S
C713 C712 1.388 . S
C713 C744 1.519 . S
C714 C708 1.492 . S
C714 C715 1.363 . S
C714 C719 1.390 . S
C715 H680 0.930 . S
C715 C714 1.363 . S
C715 C716 1.372 . S
C716 H681 0.930 . S
C716 C715 1.372 . S
C716 C717 1.383 . S
C717 C716 1.383 . S
C717 C718 1.395 . S
C718 H682 0.930 . S
C718 C717 1.395 . S
C718 C719 1.362 . S
C719 H683 0.930 . S
C719 C714 1.390 . S
C719 C718 1.362 . S
C720 C709 1.492 . S
C720 C721 1.377 . S
C720 C725 1.397 . S
C721 H684 0.931 . S
C721 C720 1.377 . S
C721 C722 1.376 . S
C722 H685 0.930 . S
C722 C721 1.376 . S
C722 C723 1.376 . S
C723 C722 1.376 . S
C723 C724 1.378 . S
C723 C750 1.486 . S
C724 H686 0.930 . S
C724 C723 1.378 . S
C724 C725 1.376 . S
C725 H687 0.929 . S
C725 C720 1.397 . S
C725 C724 1.376 . S
C726 C710 1.509 . S
C726 C727 1.391 . S
C726 C731 1.386 . S
C727 H688 0.930 . S
C727 C726 1.391 . S
C727 C728 1.375 . S
C728 H689 0.931 . S
C728 C727 1.375 . S
C728 C729 1.375 . S
C729 C728 1.375 . S
C729 C730 1.361 . S
C730 H690 0.930 . S
C730 C729 1.361 . S
C730 C731 1.399 . S
C731 H691 0.929 . S
C731 C726 1.386 . S
C731 C730 1.399 . S
C732 C711 1.485 . S
C732 C733 1.394 . S
C732 C737 1.360 . S
C733 H692 0.931 . S
C733 C732 1.394 . S
C733 C734 1.372 . S
C734 H693 0.930 . S
C734 C733 1.372 . S
C734 C735 1.397 . S
C735 C734 1.397 . S
C735 C736 1.390 . S
C735 C751 1.476 . S
C736 H694 0.930 . S
C736 C735 1.390 . S
C736 C737 1.366 . S
C737 H695 0.932 . S
C737 C732 1.360 . S
C737 C736 1.366 . S
C738 C712 1.490 . S
C738 C739 1.380 . S
C738 C743 1.386 . S
C739 H696 0.930 . S
C739 C738 1.380 . S
C739 C740 1.381 . S
C740 H697 0.929 . S
C740 C739 1.381 . S
C740 C741 1.371 . S
C741 C740 1.371 . S
C741 C742 1.380 . S
C742 H698 0.931 . S
C742 C741 1.380 . S
C742 C743 1.387 . S
C743 H699 0.930 . S
C743 C738 1.386 . S
C743 C742 1.387 . S
C744 C713 1.519 . S
C744 C745 1.377 . S
C744 C749 1.361 . S
C745 H700 0.929 . S
C745 C744 1.377 . S
C745 C746 1.386 . S
C746 H701 0.931 . S
C746 C745 1.386 . S
C746 C747 1.363 . S
C747 C746 1.363 . S
C747 C748 1.385 . S
C748 H702 0.930 . S
C748 C747 1.385 . S
C748 C749 1.396 . S
C749 H703 0.929 . S
C749 C744 1.361 . S
C749 C748 1.396 . S
C750 O704 1.300 . S
C750 O705 1.209 . S
C750 C723 1.486 . S
C751 O706 1.199 . S
C751 O707 1.297 . S
C751 C735 1.476 . S
H752 O778 0.856 . S
H753 O781 0.854 . S
H754 C789 0.930 . S
H755 C790 0.930 . S
H756 C792 0.930 . S
H757 C793 0.930 . S
H758 C795 0.931 . S
H759 C796 0.930 . S
H760 C798 0.930 . S
H761 C799 0.929 . S
H762 C801 0.930 . S
H763 C802 0.931 . S
H764 C804 0.930 . S
H765 C805 0.929 . S
H766 C807 0.931 . S
H767 C808 0.930 . S
H768 C810 0.930 . S
H769 C811 0.932 . S
H770 C813 0.930 . S
H771 C814 0.929 . S
H772 C816 0.931 . S
H773 C817 0.930 . S
H774 C819 0.929 . S
H775 C820 0.931 . S
H776 C822 0.930 . S
H777 C823 0.929 . S
O778 H752 0.856 . S
O778 C824 1.300 . S
O779 C824 1.209 . S
O780 C825 1.199 . S
O781 H753 0.854 . S
O781 C825 1.297 . S
C782 C783 1.404 . S
C782 C787 1.397 . S
C782 C788 1.492 . S
C783 C782 1.404 . S
C783 C784 1.396 . S
C783 C794 1.492 . S
C784 C783 1.396 . S
C784 C785 1.397 . S
C784 C800 1.509 . S
C785 C784 1.397 . S
C785 C786 1.412 . S
C785 C806 1.485 . S
C786 C785 1.412 . S
C786 C787 1.388 . S
C786 C812 1.490 . S
C787 C782 1.397 . S
C787 C786 1.388 . S
C787 C818 1.519 . S
C788 C782 1.492 . S
C788 C789 1.363 . S
C788 C793 1.390 . S
C789 H754 0.930 . S
C789 C788 1.363 . S
C789 C790 1.372 . S
C790 H755 0.930 . S
C790 C789 1.372 . S
C790 C791 1.383 . S
C791 C790 1.383 . S
C791 C792 1.395 . S
C792 H756 0.930 . S
C792 C791 1.395 . S
C792 C793 1.362 . S
C793 H757 0.930 . S
C793 C788 1.390 . S
C793 C792 1.362 . S
C794 C783 1.492 . S
C794 C795 1.377 . S
C794 C799 1.397 . S
C795 H758 0.931 . S
C795 C794 1.377 . S
C795 C796 1.376 . S
C796 H759 0.930 . S
C796 C795 1.376 . S
C796 C797 1.376 . S
C797 C796 1.376 . S
C797 C798 1.378 . S
C797 C824 1.486 . S
C798 H760 0.930 . S
C798 C797 1.378 . S
C798 C799 1.376 . S
C799 H761 0.929 . S
C799 C794 1.397 . S
C799 C798 1.376 . S
C800 C784 1.509 . S
C800 C801 1.391 . S
C800 C805 1.386 . S
C801 H762 0.930 . S
C801 C800 1.391 . S
C801 C802 1.375 . S
C802 H763 0.931 . S
C802 C801 1.375 . S
C802 C803 1.375 . S
C803 C802 1.375 . S
C803 C804 1.361 . S
C804 H764 0.930 . S
C804 C803 1.361 . S
C804 C805 1.399 . S
C805 H765 0.929 . S
C805 C800 1.386 . S
C805 C804 1.399 . S
C806 C785 1.485 . S
C806 C807 1.394 . S
C806 C811 1.360 . S
C807 H766 0.931 . S
C807 C806 1.394 . S
C807 C808 1.372 . S
C808 H767 0.930 . S
C808 C807 1.372 . S
C808 C809 1.397 . S
C809 C808 1.397 . S
C809 C810 1.390 . S
C809 C825 1.476 . S
C810 H768 0.930 . S
C810 C809 1.390 . S
C810 C811 1.366 . S
C811 H769 0.932 . S
C811 C806 1.360 . S
C811 C810 1.366 . S
C812 C786 1.490 . S
C812 C813 1.380 . S
C812 C817 1.386 . S
C813 H770 0.930 . S
C813 C812 1.380 . S
C813 C814 1.381 . S
C814 H771 0.929 . S
C814 C813 1.381 . S
C814 C815 1.371 . S
C815 C814 1.371 . S
C815 C816 1.380 . S
C816 H772 0.931 . S
C816 C815 1.380 . S
C816 C817 1.387 . S
C817 H773 0.930 . S
C817 C812 1.386 . S
C817 C816 1.387 . S
C818 C787 1.519 . S
C818 C819 1.377 . S
C818 C823 1.361 . S
C819 H774 0.929 . S
C819 C818 1.377 . S
C819 C820 1.386 . S
C820 H775 0.931 . S
C820 C819 1.386 . S
C820 C821 1.363 . S
C821 C820 1.363 . S
C821 C822 1.385 . S
C822 H776 0.930 . S
C822 C821 1.385 . S
C822 C823 1.396 . S
C823 H777 0.929 . S
C823 C818 1.361 . S
C823 C822 1.396 . S
C824 O778 1.300 . S
C824 O779 1.209 . S
C824 C797 1.486 . S
C825 O780 1.199 . S
C825 O781 1.297 . S
C825 C809 1.476 . S
H826 O852 0.856 . S
H827 O855 0.854 . S
H828 C863 0.930 . S
H829 C864 0.930 . S
H830 C866 0.930 . S
H831 C867 0.930 . S
H832 C869 0.931 . S
H833 C870 0.930 . S
H834 C872 0.930 . S
H835 C873 0.929 . S
H836 C875 0.930 . S
H837 C876 0.931 . S
H838 C878 0.930 . S
H839 C879 0.929 . S
H840 C881 0.931 . S
H841 C882 0.930 . S
H842 C884 0.930 . S
H843 C885 0.932 . S
H844 C887 0.930 . S
H845 C888 0.929 . S
H846 C890 0.931 . S
H847 C891 0.930 . S
H848 C893 0.929 . S
H849 C894 0.931 . S
H850 C896 0.930 . S
H851 C897 0.929 . S
O852 H826 0.856 . S
O852 C898 1.300 . S
O853 C898 1.209 . S
O854 C899 1.199 . S
O855 H827 0.854 . S
O855 C899 1.297 . S
C856 C857 1.404 . S
C856 C861 1.397 . S
C856 C862 1.492 . S
C857 C856 1.404 . S
C857 C858 1.396 . S
C857 C868 1.492 . S
C858 C857 1.396 . S
C858 C859 1.397 . S
C858 C874 1.509 . S
C859 C858 1.397 . S
C859 C860 1.412 . S
C859 C880 1.485 . S
C860 C859 1.412 . S
C860 C861 1.388 . S
C860 C886 1.490 . S
C861 C856 1.397 . S
C861 C860 1.388 . S
C861 C892 1.519 . S
C862 C856 1.492 . S
C862 C863 1.363 . S
C862 C867 1.390 . S
C863 H828 0.930 . S
C863 C862 1.363 . S
C863 C864 1.372 . S
C864 H829 0.930 . S
C864 C863 1.372 . S
C864 C865 1.383 . S
C865 C864 1.383 . S
C865 C866 1.395 . S
C866 H830 0.930 . S
C866 C865 1.395 . S
C866 C867 1.362 . S
C867 H831 0.930 . S
C867 C862 1.390 . S
C867 C866 1.362 . S
C868 C857 1.492 . S
C868 C869 1.377 . S
C868 C873 1.397 . S
C869 H832 0.931 . S
C869 C868 1.377 . S
C869 C870 1.376 . S
C870 H833 0.930 . S
C870 C869 1.376 . S
C870 C871 1.376 . S
C871 C870 1.376 . S
C871 C872 1.378 . S
C871 C898 1.486 . S
C872 H834 0.930 . S
C872 C871 1.378 . S
C872 C873 1.376 . S
C873 H835 0.929 . S
C873 C868 1.397 . S
C873 C872 1.376 . S
C874 C858 1.509 . S
C874 C875 1.391 . S
C874 C879 1.386 . S
C875 H836 0.930 . S
C875 C874 1.391 . S
C875 C876 1.375 . S
C876 H837 0.931 . S
C876 C875 1.375 . S
C876 C877 1.375 . S
C877 C876 1.375 . S
C877 C878 1.361 . S
C878 H838 0.930 . S
C878 C877 1.361 . S
C878 C879 1.399 . S
C879 H839 0.929 . S
C879 C874 1.386 . S
C879 C878 1.399 . S
C880 C859 1.485 . S
C880 C881 1.394 . S
C880 C885 1.360 . S
C881 H840 0.931 . S
C881 C880 1.394 . S
C881 C882 1.372 . S
C882 H841 0.930 . S
C882 C881 1.372 . S
C882 C883 1.397 . S
C883 C882 1.397 . S
C883 C884 1.390 . S
C883 C899 1.476 . S
C884 H842 0.930 . S
C884 C883 1.390 . S
C884 C885 1.366 . S
C885 H843 0.932 . S
C885 C880 1.360 . S
C885 C884 1.366 . S
C886 C860 1.490 . S
C886 C887 1.380 . S
C886 C891 1.386 . S
C887 H844 0.930 . S
C887 C886 1.380 . S
C887 C888 1.381 . S
C888 H845 0.929 . S
C888 C887 1.381 . S
C888 C889 1.371 . S
C889 C888 1.371 . S
C889 C890 1.380 . S
C890 H846 0.931 . S
C890 C889 1.380 . S
C890 C891 1.387 . S
C891 H847 0.930 . S
C891 C886 1.386 . S
C891 C890 1.387 . S
C892 C861 1.519 . S
C892 C893 1.377 . S
C892 C897 1.361 . S
C893 H848 0.929 . S
C893 C892 1.377 . S
C893 C894 1.386 . S
C894 H849 0.931 . S
C894 C893 1.386 . S
C894 C895 1.363 . S
C895 C894 1.363 . S
C895 C896 1.385 . S
C896 H850 0.930 . S
C896 C895 1.385 . S
C896 C897 1.396 . S
C897 H851 0.929 . S
C897 C892 1.361 . S
C897 C896 1.396 . S
C898 O852 1.300 . S
C898 O853 1.209 . S
C898 C871 1.486 . S
C899 O854 1.199 . S
C899 O855 1.297 . S
C899 C883 1.476 . S
H900 O926 0.856 . S
H901 O929 0.854 . S
H902 C937 0.930 . S
H903 C938 0.930 . S
H904 C940 0.930 . S
H905 C941 0.930 . S
H906 C943 0.931 . S
H907 C944 0.930 1_655 S
H908 C946 0.930 . S
H909 C947 0.929 . S
H910 C949 0.930 . S
H911 C950 0.931 1_655 S
H912 C952 0.930 . S
H913 C953 0.929 . S
H914 C955 0.931 . S
H915 C956 0.930 . S
H916 C958 0.930 . S
H917 C959 0.932 . S
H918 C961 0.930 . S
H919 C962 0.929 . S
H920 C964 0.931 . S
H921 C965 0.930 . S
H922 C967 0.929 . S
H923 C968 0.931 . S
H924 C970 0.930 . S
H925 C971 0.929 . S
O926 H900 0.856 . S
O926 C972 1.300 . S
O927 C972 1.209 . S
O928 C973 1.199 1_655 S
O929 H901 0.854 . S
O929 C973 1.297 . S
C930 C931 1.404 . S
C930 C935 1.393 . S
C930 C936 1.492 . S
C931 C930 1.404 . S
C931 C932 1.396 . S
C931 C942 1.492 . S
C932 C931 1.396 . S
C932 C933 1.397 . S
C932 C948 1.509 . S
C933 C932 1.397 . S
C933 C934 1.435 . S
C933 C954 1.485 . S
C934 C933 1.435 . S
C934 C935 1.396 . S
C934 C960 1.491 1_455 S
C935 C930 1.393 . S
C935 C934 1.396 . S
C935 C966 1.478 1_455 S
C936 C930 1.492 . S
C936 C937 1.363 1_455 S
C936 C941 1.390 . S
C937 H902 0.930 . S
C937 C936 1.363 1_655 S
C937 C938 1.372 . S
C938 H903 0.930 . S
C938 C937 1.372 . S
C938 C939 1.383 . S
C939 C938 1.383 . S
C939 C940 1.395 1_655 S
C940 H904 0.930 . S
C940 C939 1.395 1_455 S
C940 C941 1.362 . S
C941 H905 0.930 . S
C941 C936 1.390 . S
C941 C940 1.362 . S
C942 C931 1.492 . S
C942 C943 1.377 1_455 S
C942 C947 1.397 . S
C943 H906 0.931 . S
C943 C942 1.377 1_655 S
C943 C944 1.376 1_655 S
C944 H907 0.930 1_455 S
C944 C943 1.376 1_455 S
C944 C945 1.376 . S
C945 C944 1.376 . S
C945 C946 1.378 . S
C945 C972 1.486 . S
C946 H908 0.930 . S
C946 C945 1.378 . S
C946 C947 1.376 . S
C947 H909 0.929 . S
C947 C942 1.397 . S
C947 C946 1.376 . S
C948 C932 1.509 . S
C948 C949 1.391 1_455 S
C948 C953 1.386 . S
C949 H910 0.930 . S
C949 C948 1.391 1_655 S
C949 C950 1.375 1_655 S
C950 H911 0.931 1_455 S
C950 C949 1.375 1_455 S
C950 C951 1.375 . S
C951 C950 1.375 . S
C951 C952 1.361 . S
C952 H912 0.930 . S
C952 C951 1.361 . S
C952 C953 1.399 . S
C953 H913 0.929 . S
C953 C948 1.386 . S
C953 C952 1.399 . S
C954 C933 1.485 . S
C954 C955 1.394 1_455 S
C954 C959 1.360 . S
C955 H914 0.931 . S
C955 C954 1.394 1_655 S
C955 C956 1.372 . S
C956 H915 0.930 . S
C956 C955 1.372 . S
C956 C957 1.397 1_655 S
C957 C956 1.397 1_455 S
C957 C958 1.390 . S
C957 C973 1.476 . S
C958 H916 0.930 . S
C958 C957 1.390 . S
C958 C959 1.366 . S
C959 H917 0.932 . S
C959 C954 1.360 . S
C959 C958 1.366 . S
C960 C934 1.491 1_655 S
C960 C961 1.380 . S
C960 C965 1.386 1_655 S
C961 H918 0.930 . S
C961 C960 1.380 . S
C961 C962 1.381 . S
C962 H919 0.929 . S
C962 C961 1.381 . S
C962 C963 1.371 . S
C963 C962 1.371 . S
C963 C964 1.380 1_655 S
C964 H920 0.931 . S
C964 C963 1.380 1_455 S
C964 C965 1.387 . S
C965 H921 0.930 . S
C965 C960 1.386 1_455 S
C965 C964 1.387 . S
C966 C935 1.478 1_655 S
C966 C967 1.429 . S
C966 C971 1.329 1_655 S
C967 H922 0.929 . S
C967 C966 1.429 . S
C967 C968 1.386 . S
C968 H923 0.931 . S
C968 C967 1.386 . S
C968 C969 1.363 . S
C969 C968 1.363 . S
C969 C970 1.385 1_655 S
C970 H924 0.930 . S
C970 C969 1.385 1_455 S
C970 C971 1.396 . S
C971 H925 0.929 . S
C971 C966 1.329 1_455 S
C971 C970 1.396 . S
C972 O926 1.300 . S
C972 O927 1.209 . S
C972 C945 1.486 . S
C973 O928 1.199 1_455 S
C973 O929 1.297 . S
C973 C957 1.476 . S
H974 O1000 0.856 . S
H975 O1003 0.854 . S
H976 C1011 0.930 . S
H977 C1012 0.930 . S
H978 C1014 0.930 . S
H979 C1015 0.930 . S
H980 C1017 0.931 . S
H981 C1018 0.930 . S
H982 C1020 0.930 . S
H983 C1021 0.929 . S
H984 C1023 0.930 . S
H985 C1024 0.931 . S
H986 C1026 0.930 . S
H987 C1027 0.929 . S
H988 C1029 0.931 . S
H989 C1030 0.930 . S
H990 C1032 0.930 . S
H991 C1033 0.932 . S
H992 C1035 0.930 . S
H993 C1036 0.929 . S
H994 C1038 0.931 . S
H995 C1039 0.930 . S
H996 C1041 0.929 . S
H997 C1042 0.931 . S
H998 C1044 0.930 . S
H999 C1045 0.929 . S
O1000 H974 0.856 . S
O1000 C1046 1.300 . S
O1001 C1046 1.209 . S
O1002 C1047 1.199 . S
O1003 H975 0.854 . S
O1003 C1047 1.297 . S
C1004 C1005 1.404 . S
C1004 C1009 1.397 . S
C1004 C1010 1.492 . S
C1005 C1004 1.404 . S
C1005 C1006 1.396 . S
C1005 C1016 1.492 . S
C1006 C1005 1.396 . S
C1006 C1007 1.397 . S
C1006 C1022 1.509 . S
C1007 C1006 1.397 . S
C1007 C1008 1.412 . S
C1007 C1028 1.485 . S
C1008 C1007 1.412 . S
C1008 C1009 1.388 . S
C1008 C1034 1.490 . S
C1009 C1004 1.397 . S
C1009 C1008 1.388 . S
C1009 C1040 1.519 . S
C1010 C1004 1.492 . S
C1010 C1011 1.363 . S
C1010 C1015 1.390 . S
C1011 H976 0.930 . S
C1011 C1010 1.363 . S
C1011 C1012 1.372 . S
C1012 H977 0.930 . S
C1012 C1011 1.372 . S
C1012 C1013 1.383 . S
C1013 C1012 1.383 . S
C1013 C1014 1.395 . S
C1014 H978 0.930 . S
C1014 C1013 1.395 . S
C1014 C1015 1.362 . S
C1015 H979 0.930 . S
C1015 C1010 1.390 . S
C1015 C1014 1.362 . S
C1016 C1005 1.492 . S
C1016 C1017 1.377 . S
C1016 C1021 1.397 . S
C1017 H980 0.931 . S
C1017 C1016 1.377 . S
C1017 C1018 1.376 . S
C1018 H981 0.930 . S
C1018 C1017 1.376 . S
C1018 C1019 1.376 . S
C1019 C1018 1.376 . S
C1019 C1020 1.378 . S
C1019 C1046 1.486 . S
C1020 H982 0.930 . S
C1020 C1019 1.378 . S
C1020 C1021 1.376 . S
C1021 H983 0.929 . S
C1021 C1016 1.397 . S
C1021 C1020 1.376 . S
C1022 C1006 1.509 . S
C1022 C1023 1.391 . S
C1022 C1027 1.386 . S
C1023 H984 0.930 . S
C1023 C1022 1.391 . S
C1023 C1024 1.375 . S
C1024 H985 0.931 . S
C1024 C1023 1.375 . S
C1024 C1025 1.375 . S
C1025 C1024 1.375 . S
C1025 C1026 1.361 . S
C1026 H986 0.930 . S
C1026 C1025 1.361 . S
C1026 C1027 1.399 . S
C1027 H987 0.929 . S
C1027 C1022 1.386 . S
C1027 C1026 1.399 . S
C1028 C1007 1.485 . S
C1028 C1029 1.394 . S
C1028 C1033 1.360 . S
C1029 H988 0.931 . S
C1029 C1028 1.394 . S
C1029 C1030 1.372 . S
C1030 H989 0.930 . S
C1030 C1029 1.372 . S
C1030 C1031 1.397 . S
C1031 C1030 1.397 . S
C1031 C1032 1.390 . S
C1031 C1047 1.476 . S
C1032 H990 0.930 . S
C1032 C1031 1.390 . S
C1032 C1033 1.366 . S
C1033 H991 0.932 . S
C1033 C1028 1.360 . S
C1033 C1032 1.366 . S
C1034 C1008 1.490 . S
C1034 C1035 1.380 . S
C1034 C1039 1.386 . S
C1035 H992 0.930 . S
C1035 C1034 1.380 . S
C1035 C1036 1.381 . S
C1036 H993 0.929 . S
C1036 C1035 1.381 . S
C1036 C1037 1.371 . S
C1037 C1036 1.371 . S
C1037 C1038 1.380 . S
C1038 H994 0.931 . S
C1038 C1037 1.380 . S
C1038 C1039 1.387 . S
C1039 H995 0.930 . S
C1039 C1034 1.386 . S
C1039 C1038 1.387 . S
C1040 C1009 1.519 . S
C1040 C1041 1.377 . S
C1040 C1045 1.361 . S
C1041 H996 0.929 . S
C1041 C1040 1.377 . S
C1041 C1042 1.386 . S
C1042 H997 0.931 . S
C1042 C1041 1.386 . S
C1042 C1043 1.363 . S
C1043 C1042 1.363 . S
C1043 C1044 1.385 . S
C1044 H998 0.930 . S
C1044 C1043 1.385 . S
C1044 C1045 1.396 . S
C1045 H999 0.929 . S
C1045 C1040 1.361 . S
C1045 C1044 1.396 . S
C1046 O1000 1.300 . S
C1046 O1001 1.209 . S
C1046 C1019 1.486 . S
C1047 O1002 1.199 . S
C1047 O1003 1.297 . S
C1047 C1031 1.476 . S
H1048 O1074 0.856 . S
H1049 O1077 0.854 . S
H1050 C1085 0.930 . S
H1051 C1086 0.930 . S
H1052 C1088 0.930 . S
H1053 C1089 0.930 . S
H1054 C1091 0.931 . S
H1055 C1092 0.914 1_545 S
H1056 C1094 0.930 . S
H1057 C1095 0.929 . S
H1058 C1097 0.930 . S
H1059 C1098 0.931 . S
H1060 C1100 0.930 . S
H1061 C1101 0.929 . S
H1062 C1103 0.931 . S
H1063 C1104 0.930 . S
H1064 C1106 0.930 . S
H1065 C1107 0.932 . S
H1066 C1109 0.930 . S
H1067 C1110 0.929 . S
H1068 C1112 0.931 . S
H1069 C1113 0.930 . S
H1070 C1115 0.929 . S
H1071 C1116 0.931 . S
H1072 C1118 0.930 . S
H1073 C1119 0.929 . S
O1074 H1048 0.856 . S
O1074 C1120 1.300 . S
O1075 C1120 1.209 . S
O1076 C1121 1.199 1_545 S
O1077 H1049 0.854 . S
O1077 C1121 1.297 . S
C1078 C1079 1.404 . S
C1078 C1083 1.416 . S
C1078 C1084 1.492 . S
C1079 C1078 1.404 . S
C1079 C1080 1.396 . S
C1079 C1090 1.492 . S
C1080 C1079 1.396 . S
C1080 C1081 1.397 . S
C1080 C1096 1.509 . S
C1081 C1080 1.397 . S
C1081 C1082 1.412 1_565 S
C1081 C1102 1.485 . S
C1082 C1081 1.412 1_545 S
C1082 C1083 1.362 1_545 S
C1082 C1108 1.489 . S
C1083 C1078 1.416 . S
C1083 C1082 1.362 1_565 S
C1083 C1114 1.534 1_565 S
C1084 C1078 1.492 . S
C1084 C1085 1.363 1_565 S
C1084 C1089 1.390 . S
C1085 H1050 0.930 . S
C1085 C1084 1.363 1_545 S
C1085 C1086 1.372 . S
C1086 H1051 0.930 . S
C1086 C1085 1.372 . S
C1086 C1087 1.383 . S
C1087 C1086 1.383 . S
C1087 C1088 1.395 1_545 S
C1088 H1052 0.930 . S
C1088 C1087 1.395 1_565 S
C1088 C1089 1.362 . S
C1089 H1053 0.930 . S
C1089 C1084 1.390 . S
C1089 C1088 1.362 . S
C1090 C1079 1.492 . S
C1090 C1091 1.377 1_565 S
C1090 C1095 1.397 . S
C1091 H1054 0.931 . S
C1091 C1090 1.377 1_545 S
C1091 C1092 1.366 1_545 S
C1092 H1055 0.914 1_565 S
C1092 C1091 1.366 1_565 S
C1092 C1093 1.402 . S
C1093 C1092 1.402 . S
C1093 C1094 1.378 . S
C1093 C1120 1.486 . S
C1094 H1056 0.930 . S
C1094 C1093 1.378 . S
C1094 C1095 1.376 . S
C1095 H1057 0.929 . S
C1095 C1090 1.397 . S
C1095 C1094 1.376 . S
C1096 C1080 1.509 . S
C1096 C1097 1.391 1_565 S
C1096 C1101 1.386 . S
C1097 H1058 0.930 . S
C1097 C1096 1.391 1_545 S
C1097 C1098 1.375 . S
C1098 H1059 0.931 . S
C1098 C1097 1.375 . S
C1098 C1099 1.375 1_545 S
C1099 C1098 1.375 1_565 S
C1099 C1100 1.361 . S
C1100 H1060 0.930 . S
C1100 C1099 1.361 . S
C1100 C1101 1.399 . S
C1101 H1061 0.929 . S
C1101 C1096 1.386 . S
C1101 C1100 1.399 . S
C1102 C1081 1.485 . S
C1102 C1103 1.394 1_565 S
C1102 C1107 1.360 . S
C1103 H1062 0.931 . S
C1103 C1102 1.394 1_545 S
C1103 C1104 1.372 . S
C1104 H1063 0.930 . S
C1104 C1103 1.372 . S
C1104 C1105 1.397 1_545 S
C1105 C1104 1.397 1_565 S
C1105 C1106 1.390 . S
C1105 C1121 1.476 . S
C1106 H1064 0.930 . S
C1106 C1105 1.390 . S
C1106 C1107 1.366 . S
C1107 H1065 0.932 . S
C1107 C1102 1.360 . S
C1107 C1106 1.366 . S
C1108 C1082 1.489 . S
C1108 C1109 1.380 . S
C1108 C1113 1.386 1_545 S
C1109 H1066 0.930 . S
C1109 C1108 1.380 . S
C1109 C1110 1.381 . S
C1110 H1067 0.929 . S
C1110 C1109 1.381 . S
C1110 C1111 1.371 . S
C1111 C1110 1.371 . S
C1111 C1112 1.380 1_545 S
C1112 H1068 0.931 . S
C1112 C1111 1.380 1_565 S
C1112 C1113 1.387 . S
C1113 H1069 0.930 . S
C1113 C1108 1.386 1_565 S
C1113 C1112 1.387 . S
C1114 C1083 1.534 1_545 S
C1114 C1115 1.378 . S
C1114 C1119 1.359 1_545 S
C1115 H1070 0.929 . S
C1115 C1114 1.378 . S
C1115 C1116 1.386 . S
C1116 H1071 0.931 . S
C1116 C1115 1.386 . S
C1116 C1117 1.321 1_545 S
C1117 C1116 1.321 1_565 S
C1117 C1118 1.407 . S
C1118 H1072 0.930 . S
C1118 C1117 1.407 . S
C1118 C1119 1.396 . S
C1119 H1073 0.929 . S
C1119 C1114 1.359 1_565 S
C1119 C1118 1.396 . S
C1120 O1074 1.300 . S
C1120 O1075 1.209 . S
C1120 C1093 1.486 . S
C1121 O1076 1.199 1_565 S
C1121 O1077 1.297 . S
C1121 C1105 1.476 . S
H1122 O1148 0.856 . S
H1123 O1151 0.854 . S
H1124 C1159 0.930 . S
H1125 C1160 0.930 . S
H1126 C1162 0.930 . S
H1127 C1163 0.930 . S
H1128 C1165 0.931 . S
H1129 C1166 0.930 . S
H1130 C1168 0.930 . S
H1131 C1169 0.929 . S
H1132 C1171 0.930 . S
H1133 C1172 0.931 . S
H1134 C1174 0.930 . S
H1135 C1175 0.929 . S
H1136 C1177 0.931 . S
H1137 C1178 0.930 . S
H1138 C1180 0.930 . S
H1139 C1181 0.932 . S
H1140 C1183 0.930 . S
H1141 C1184 0.929 . S
H1142 C1186 0.931 . S
H1143 C1187 0.930 . S
H1144 C1189 0.929 . S
H1145 C1190 0.931 . S
H1146 C1192 0.930 . S
H1147 C1193 0.929 . S
O1148 H1122 0.856 . S
O1148 C1194 1.300 . S
O1149 C1194 1.209 1_565 S
O1150 C1195 1.199 1_545 S
O1151 H1123 0.854 . S
O1151 C1195 1.297 . S
C1152 C1153 1.404 . S
C1152 C1157 1.396 1_545 S
C1152 C1158 1.492 . S
C1153 C1152 1.404 . S
C1153 C1154 1.427 . S
C1153 C1164 1.492 . S
C1154 C1153 1.427 . S
C1154 C1155 1.371 1_545 S
C1154 C1170 1.503 . S
C1155 C1154 1.371 1_565 S
C1155 C1156 1.415 . S
C1155 C1176 1.516 . S
C1156 C1155 1.415 . S
C1156 C1157 1.356 . S
C1156 C1182 1.506 . S
C1157 C1152 1.396 1_565 S
C1157 C1156 1.356 . S
C1157 C1188 1.518 . S
C1158 C1152 1.492 . S
C1158 C1159 1.363 . S
C1158 C1163 1.390 1_545 S
C1159 H1124 0.930 . S
C1159 C1158 1.363 . S
C1159 C1160 1.372 . S
C1160 H1125 0.930 . S
C1160 C1159 1.372 . S
C1160 C1161 1.383 . S
C1161 C1160 1.383 . S
C1161 C1162 1.395 1_545 S
C1162 H1126 0.930 . S
C1162 C1161 1.395 1_565 S
C1162 C1163 1.362 . S
C1163 H1127 0.930 . S
C1163 C1158 1.390 1_565 S
C1163 C1162 1.362 . S
C1164 C1153 1.492 . S
C1164 C1165 1.377 . S
C1164 C1169 1.397 1_545 S
C1165 H1128 0.931 . S
C1165 C1164 1.377 . S
C1165 C1166 1.376 . S
C1166 H1129 0.930 . S
C1166 C1165 1.376 . S
C1166 C1167 1.376 . S
C1167 C1166 1.376 . S
C1167 C1168 1.378 1_545 S
C1167 C1194 1.486 . S
C1168 H1130 0.930 . S
C1168 C1167 1.378 1_565 S
C1168 C1169 1.376 . S
C1169 H1131 0.929 . S
C1169 C1164 1.397 1_565 S
C1169 C1168 1.376 . S
C1170 C1154 1.503 . S
C1170 C1171 1.404 . S
C1170 C1175 1.364 1_545 S
C1171 H1132 0.930 . S
C1171 C1170 1.404 . S
C1171 C1172 1.375 . S
C1172 H1133 0.931 . S
C1172 C1171 1.375 . S
C1172 C1173 1.379 1_545 S
C1173 C1172 1.379 1_565 S
C1173 C1174 1.359 . S
C1174 H1134 0.930 . S
C1174 C1173 1.359 . S
C1174 C1175 1.399 . S
C1175 H1135 0.929 . S
C1175 C1170 1.364 1_565 S
C1175 C1174 1.399 . S
C1176 C1155 1.516 . S
C1176 C1177 1.394 1_565 S
C1176 C1181 1.360 . S
C1177 H1136 0.931 . S
C1177 C1176 1.394 1_545 S
C1177 C1178 1.372 . S
C1178 H1137 0.930 . S
C1178 C1177 1.372 . S
C1178 C1179 1.397 1_545 S
C1179 C1178 1.397 1_565 S
C1179 C1180 1.390 . S
C1179 C1195 1.476 . S
C1180 H1138 0.930 . S
C1180 C1179 1.390 . S
C1180 C1181 1.366 . S
C1181 H1139 0.932 . S
C1181 C1176 1.360 . S
C1181 C1180 1.366 . S
C1182 C1156 1.506 . S
C1182 C1183 1.380 1_565 S
C1182 C1187 1.386 . S
C1183 H1140 0.930 . S
C1183 C1182 1.380 1_545 S
C1183 C1184 1.381 . S
C1184 H1141 0.929 . S
C1184 C1183 1.381 . S
C1184 C1185 1.347 1_545 S
C1185 C1184 1.347 1_565 S
C1185 C1186 1.398 . S
C1186 H1142 0.931 . S
C1186 C1185 1.398 . S
C1186 C1187 1.387 . S
C1187 H1143 0.930 . S
C1187 C1182 1.386 . S
C1187 C1186 1.387 . S
C1188 C1157 1.518 . S
C1188 C1189 1.377 1_565 S
C1188 C1193 1.361 . S
C1189 H1144 0.929 . S
C1189 C1188 1.377 1_545 S
C1189 C1190 1.386 . S
C1190 H1145 0.931 . S
C1190 C1189 1.386 . S
C1190 C1191 1.363 1_545 S
C1191 C1190 1.363 1_565 S
C1191 C1192 1.385 . S
C1192 H1146 0.930 . S
C1192 C1191 1.385 . S
C1192 C1193 1.396 . S
C1193 H1147 0.929 . S
C1193 C1188 1.361 . S
C1193 C1192 1.396 . S
C1194 O1148 1.300 . S
C1194 O1149 1.209 1_545 S
C1194 C1167 1.486 . S
C1195 O1150 1.199 1_565 S
C1195 O1151 1.297 . S
C1195 C1179 1.476 . S
H1196 O1222 0.856 . S
H1197 O1225 0.854 . S
H1198 C1233 0.930 . S
H1199 C1234 0.930 . S
H1200 C1236 0.930 . S
H1201 C1237 0.930 . S
H1202 C1239 0.931 . S
H1203 C1240 0.930 . S
H1204 C1242 0.930 . S
H1205 C1243 0.929 . S
H1206 C1245 0.930 . S
H1207 C1246 0.931 . S
H1208 C1248 0.930 . S
H1209 C1249 0.929 . S
H1210 C1251 0.931 . S
H1211 C1252 0.930 . S
H1212 C1254 0.930 . S
H1213 C1255 0.932 . S
H1214 C1257 0.930 . S
H1215 C1258 0.929 . S
H1216 C1260 0.931 . S
H1217 C1261 0.930 . S
H1218 C1263 0.929 . S
H1219 C1264 0.931 . S
H1220 C1266 0.930 . S
H1221 C1267 0.929 . S
O1222 H1196 0.856 . S
O1222 C1268 1.300 . S
O1223 C1268 1.209 1_455 S
O1224 C1269 1.199 1_655 S
O1225 H1197 0.854 . S
O1225 C1269 1.297 . S
C1226 C1227 1.404 . S
C1226 C1231 1.397 . S
C1226 C1232 1.492 . S
C1227 C1226 1.404 . S
C1227 C1228 1.396 . S
C1227 C1238 1.492 . S
C1228 C1227 1.396 . S
C1228 C1229 1.393 . S
C1228 C1244 1.509 . S
C1229 C1228 1.393 . S
C1229 C1230 1.386 1_655 S
C1229 C1250 1.520 1_655 S
C1230 C1229 1.386 1_455 S
C1230 C1231 1.398 1_455 S
C1230 C1256 1.487 . S
C1231 C1226 1.397 . S
C1231 C1230 1.398 1_655 S
C1231 C1262 1.521 1_655 S
C1232 C1226 1.492 . S
C1232 C1233 1.363 . S
C1232 C1237 1.390 1_655 S
C1233 H1198 0.930 . S
C1233 C1232 1.363 . S
C1233 C1234 1.372 . S
C1234 H1199 0.930 . S
C1234 C1233 1.372 . S
C1234 C1235 1.383 . S
C1235 C1234 1.383 . S
C1235 C1236 1.395 1_655 S
C1236 H1200 0.930 . S
C1236 C1235 1.395 1_455 S
C1236 C1237 1.362 . S
C1237 H1201 0.930 . S
C1237 C1232 1.390 1_455 S
C1237 C1236 1.362 . S
C1238 C1227 1.492 . S
C1238 C1239 1.377 . S
C1238 C1243 1.397 1_655 S
C1239 H1202 0.931 . S
C1239 C1238 1.377 . S
C1239 C1240 1.376 . S
C1240 H1203 0.930 . S
C1240 C1239 1.376 . S
C1240 C1241 1.376 . S
C1241 C1240 1.376 . S
C1241 C1242 1.378 1_655 S
C1241 C1268 1.486 . S
C1242 H1204 0.930 . S
C1242 C1241 1.378 1_455 S
C1242 C1243 1.376 . S
C1243 H1205 0.929 . S
C1243 C1238 1.397 1_455 S
C1243 C1242 1.376 . S
C1244 C1228 1.509 . S
C1244 C1245 1.391 . S
C1244 C1249 1.386 1_655 S
C1245 H1206 0.930 . S
C1245 C1244 1.391 . S
C1245 C1246 1.375 . S
C1246 H1207 0.931 . S
C1246 C1245 1.375 . S
C1246 C1247 1.375 . S
C1247 C1246 1.375 . S
C1247 C1248 1.361 1_655 S
C1248 H1208 0.930 . S
C1248 C1247 1.361 1_455 S
C1248 C1249 1.399 . S
C1249 H1209 0.929 . S
C1249 C1244 1.386 1_455 S
C1249 C1248 1.399 . S
C1250 C1229 1.520 1_455 S
C1250 C1251 1.379 1_455 S
C1250 C1255 1.366 . S
C1251 H1210 0.931 . S
C1251 C1250 1.379 1_655 S
C1251 C1252 1.372 . S
C1252 H1211 0.930 . S
C1252 C1251 1.372 . S
C1252 C1253 1.397 1_655 S
C1253 C1252 1.397 1_455 S
C1253 C1254 1.390 . S
C1253 C1269 1.476 . S
C1254 H1212 0.930 . S
C1254 C1253 1.390 . S
C1254 C1255 1.366 . S
C1255 H1213 0.932 . S
C1255 C1250 1.366 . S
C1255 C1254 1.366 . S
C1256 C1230 1.487 . S
C1256 C1257 1.380 1_455 S
C1256 C1261 1.386 . S
C1257 H1214 0.930 . S
C1257 C1256 1.380 1_655 S
C1257 C1258 1.381 . S
C1258 H1215 0.929 . S
C1258 C1257 1.381 . S
C1258 C1259 1.371 1_655 S
C1259 C1258 1.371 1_455 S
C1259 C1260 1.380 . S
C1260 H1216 0.931 . S
C1260 C1259 1.380 . S
C1260 C1261 1.387 . S
C1261 H1217 0.930 . S
C1261 C1256 1.386 . S
C1261 C1260 1.387 . S
C1262 C1231 1.521 1_455 S
C1262 C1263 1.377 1_455 S
C1262 C1267 1.361 . S
C1263 H1218 0.929 . S
C1263 C1262 1.377 1_655 S
C1263 C1264 1.386 . S
C1264 H1219 0.931 . S
C1264 C1263 1.386 . S
C1264 C1265 1.363 1_655 S
C1265 C1264 1.363 1_455 S
C1265 C1266 1.385 . S
C1266 H1220 0.930 . S
C1266 C1265 1.385 . S
C1266 C1267 1.396 . S
C1267 H1221 0.929 . S
C1267 C1262 1.361 . S
C1267 C1266 1.396 . S
C1268 O1222 1.300 . S
C1268 O1223 1.209 1_655 S
C1268 C1241 1.486 . S
C1269 O1224 1.199 1_455 S
C1269 O1225 1.297 . S
C1269 C1253 1.476 . S
H1270 O1296 0.856 . S
H1271 O1299 0.854 . S
H1272 C1307 0.930 . S
H1273 C1308 0.930 . S
H1274 C1310 0.930 . S
H1275 C1311 0.930 . S
H1276 C1313 0.931 . S
H1277 C1314 0.930 . S
H1278 C1316 0.930 . S
H1279 C1317 0.929 . S
H1280 C1319 0.930 . S
H1281 C1320 0.931 . S
H1282 C1322 0.930 . S
H1283 C1323 0.929 . S
H1284 C1325 0.931 . S
H1285 C1326 0.930 . S
H1286 C1328 0.930 . S
H1287 C1329 0.932 . S
H1288 C1331 0.930 . S
H1289 C1332 0.929 . S
H1290 C1334 0.931 . S
H1291 C1335 0.930 . S
H1292 C1337 0.929 . S
H1293 C1338 0.931 . S
H1294 C1340 0.930 . S
H1295 C1341 0.929 . S
O1296 H1270 0.856 . S
O1296 C1342 1.300 . S
O1297 C1342 1.209 . S
O1298 C1343 1.199 . S
O1299 H1271 0.854 . S
O1299 C1343 1.297 . S
C1300 C1301 1.404 . S
C1300 C1305 1.397 . S
C1300 C1306 1.492 . S
C1301 C1300 1.404 . S
C1301 C1302 1.396 . S
C1301 C1312 1.492 . S
C1302 C1301 1.396 . S
C1302 C1303 1.397 . S
C1302 C1318 1.509 . S
C1303 C1302 1.397 . S
C1303 C1304 1.412 . S
C1303 C1324 1.485 . S
C1304 C1303 1.412 . S
C1304 C1305 1.388 . S
C1304 C1330 1.490 . S
C1305 C1300 1.397 . S
C1305 C1304 1.388 . S
C1305 C1336 1.519 . S
C1306 C1300 1.492 . S
C1306 C1307 1.363 . S
C1306 C1311 1.390 . S
C1307 H1272 0.930 . S
C1307 C1306 1.363 . S
C1307 C1308 1.372 . S
C1308 H1273 0.930 . S
C1308 C1307 1.372 . S
C1308 C1309 1.383 . S
C1309 C1308 1.383 . S
C1309 C1310 1.395 . S
C1310 H1274 0.930 . S
C1310 C1309 1.395 . S
C1310 C1311 1.362 . S
C1311 H1275 0.930 . S
C1311 C1306 1.390 . S
C1311 C1310 1.362 . S
C1312 C1301 1.492 . S
C1312 C1313 1.377 . S
C1312 C1317 1.397 . S
C1313 H1276 0.931 . S
C1313 C1312 1.377 . S
C1313 C1314 1.376 . S
C1314 H1277 0.930 . S
C1314 C1313 1.376 . S
C1314 C1315 1.376 . S
C1315 C1314 1.376 . S
C1315 C1316 1.378 . S
C1315 C1342 1.486 . S
C1316 H1278 0.930 . S
C1316 C1315 1.378 . S
C1316 C1317 1.376 . S
C1317 H1279 0.929 . S
C1317 C1312 1.397 . S
C1317 C1316 1.376 . S
C1318 C1302 1.509 . S
C1318 C1319 1.391 . S
C1318 C1323 1.386 . S
C1319 H1280 0.930 . S
C1319 C1318 1.391 . S
C1319 C1320 1.375 . S
C1320 H1281 0.931 . S
C1320 C1319 1.375 . S
C1320 C1321 1.375 . S
C1321 C1320 1.375 . S
C1321 C1322 1.361 . S
C1322 H1282 0.930 . S
C1322 C1321 1.361 . S
C1322 C1323 1.399 . S
C1323 H1283 0.929 . S
C1323 C1318 1.386 . S
C1323 C1322 1.399 . S
C1324 C1303 1.485 . S
C1324 C1325 1.394 . S
C1324 C1329 1.360 . S
C1325 H1284 0.931 . S
C1325 C1324 1.394 . S
C1325 C1326 1.372 . S
C1326 H1285 0.930 . S
C1326 C1325 1.372 . S
C1326 C1327 1.397 . S
C1327 C1326 1.397 . S
C1327 C1328 1.390 . S
C1327 C1343 1.476 . S
C1328 H1286 0.930 . S
C1328 C1327 1.390 . S
C1328 C1329 1.366 . S
C1329 H1287 0.932 . S
C1329 C1324 1.360 . S
C1329 C1328 1.366 . S
C1330 C1304 1.490 . S
C1330 C1331 1.380 . S
C1330 C1335 1.386 . S
C1331 H1288 0.930 . S
C1331 C1330 1.380 . S
C1331 C1332 1.381 . S
C1332 H1289 0.929 . S
C1332 C1331 1.381 . S
C1332 C1333 1.371 . S
C1333 C1332 1.371 . S
C1333 C1334 1.380 . S
C1334 H1290 0.931 . S
C1334 C1333 1.380 . S
C1334 C1335 1.387 . S
C1335 H1291 0.930 . S
C1335 C1330 1.386 . S
C1335 C1334 1.387 . S
C1336 C1305 1.519 . S
C1336 C1337 1.377 . S
C1336 C1341 1.361 . S
C1337 H1292 0.929 . S
C1337 C1336 1.377 . S
C1337 C1338 1.386 . S
C1338 H1293 0.931 . S
C1338 C1337 1.386 . S
C1338 C1339 1.363 . S
C1339 C1338 1.363 . S
C1339 C1340 1.385 . S
C1340 H1294 0.930 . S
C1340 C1339 1.385 . S
C1340 C1341 1.396 . S
C1341 H1295 0.929 . S
C1341 C1336 1.361 . S
C1341 C1340 1.396 . S
C1342 O1296 1.300 . S
C1342 O1297 1.209 . S
C1342 C1315 1.486 . S
C1343 O1298 1.199 . S
C1343 O1299 1.297 . S
C1343 C1327 1.476 . S
H1344 O1370 0.856 . S
H1345 O1373 0.854 . S
H1346 C1381 0.930 . S
H1347 C1382 0.930 . S
H1348 C1384 0.930 . S
H1349 C1385 0.930 . S
H1350 C1387 0.931 . S
H1351 C1388 0.930 . S
H1352 C1390 0.930 . S
H1353 C1391 0.929 . S
H1354 C1393 0.930 . S
H1355 C1394 0.931 . S
H1356 C1396 0.930 . S
H1357 C1397 0.929 . S
H1358 C1399 0.931 . S
H1359 C1400 0.930 . S
H1360 C1402 0.930 . S
H1361 C1403 0.932 . S
H1362 C1405 0.930 . S
H1363 C1406 0.929 . S
H1364 C1408 0.931 . S
H1365 C1409 0.930 . S
H1366 C1411 0.929 . S
H1367 C1412 0.931 . S
H1368 C1414 0.930 . S
H1369 C1415 0.929 . S
O1370 H1344 0.856 . S
O1370 C1416 1.300 . S
O1371 C1416 1.209 . S
O1372 C1417 1.199 . S
O1373 H1345 0.854 . S
O1373 C1417 1.297 . S
C1374 C1375 1.404 . S
C1374 C1379 1.397 . S
C1374 C1380 1.492 . S
C1375 C1374 1.404 . S
C1375 C1376 1.396 . S
C1375 C1386 1.492 . S
C1376 C1375 1.396 . S
C1376 C1377 1.397 . S
C1376 C1392 1.509 . S
C1377 C1376 1.397 . S
C1377 C1378 1.412 . S
C1377 C1398 1.485 . S
C1378 C1377 1.412 . S
C1378 C1379 1.388 . S
C1378 C1404 1.490 . S
C1379 C1374 1.397 . S
C1379 C1378 1.388 . S
C1379 C1410 1.519 . S
C1380 C1374 1.492 . S
C1380 C1381 1.363 . S
C1380 C1385 1.390 . S
C1381 H1346 0.930 . S
C1381 C1380 1.363 . S
C1381 C1382 1.372 . S
C1382 H1347 0.930 . S
C1382 C1381 1.372 . S
C1382 C1383 1.383 . S
C1383 C1382 1.383 . S
C1383 C1384 1.395 . S
C1384 H1348 0.930 . S
C1384 C1383 1.395 . S
C1384 C1385 1.362 . S
C1385 H1349 0.930 . S
C1385 C1380 1.390 . S
C1385 C1384 1.362 . S
C1386 C1375 1.492 . S
C1386 C1387 1.377 . S
C1386 C1391 1.397 . S
C1387 H1350 0.931 . S
C1387 C1386 1.377 . S
C1387 C1388 1.376 . S
C1388 H1351 0.930 . S
C1388 C1387 1.376 . S
C1388 C1389 1.376 . S
C1389 C1388 1.376 . S
C1389 C1390 1.378 . S
C1389 C1416 1.486 . S
C1390 H1352 0.930 . S
C1390 C1389 1.378 . S
C1390 C1391 1.376 . S
C1391 H1353 0.929 . S
C1391 C1386 1.397 . S
C1391 C1390 1.376 . S
C1392 C1376 1.509 . S
C1392 C1393 1.391 . S
C1392 C1397 1.386 . S
C1393 H1354 0.930 . S
C1393 C1392 1.391 . S
C1393 C1394 1.375 . S
C1394 H1355 0.931 . S
C1394 C1393 1.375 . S
C1394 C1395 1.375 . S
C1395 C1394 1.375 . S
C1395 C1396 1.361 . S
C1396 H1356 0.930 . S
C1396 C1395 1.361 . S
C1396 C1397 1.399 . S
C1397 H1357 0.929 . S
C1397 C1392 1.386 . S
C1397 C1396 1.399 . S
C1398 C1377 1.485 . S
C1398 C1399 1.394 . S
C1398 C1403 1.360 . S
C1399 H1358 0.931 . S
C1399 C1398 1.394 . S
C1399 C1400 1.372 . S
C1400 H1359 0.930 . S
C1400 C1399 1.372 . S
C1400 C1401 1.397 . S
C1401 C1400 1.397 . S
C1401 C1402 1.390 . S
C1401 C1417 1.476 . S
C1402 H1360 0.930 . S
C1402 C1401 1.390 . S
C1402 C1403 1.366 . S
C1403 H1361 0.932 . S
C1403 C1398 1.360 . S
C1403 C1402 1.366 . S
C1404 C1378 1.490 . S
C1404 C1405 1.380 . S
C1404 C1409 1.386 . S
C1405 H1362 0.930 . S
C1405 C1404 1.380 . S
C1405 C1406 1.381 . S
C1406 H1363 0.929 . S
C1406 C1405 1.381 . S
C1406 C1407 1.371 . S
C1407 C1406 1.371 . S
C1407 C1408 1.380 . S
C1408 H1364 0.931 . S
C1408 C1407 1.380 . S
C1408 C1409 1.387 . S
C1409 H1365 0.930 . S
C1409 C1404 1.386 . S
C1409 C1408 1.387 . S
C1410 C1379 1.519 . S
C1410 C1411 1.377 . S
C1410 C1415 1.361 . S
C1411 H1366 0.929 . S
C1411 C1410 1.377 . S
C1411 C1412 1.386 . S
C1412 H1367 0.931 . S
C1412 C1411 1.386 . S
C1412 C1413 1.363 . S
C1413 C1412 1.363 . S
C1413 C1414 1.385 . S
C1414 H1368 0.930 . S
C1414 C1413 1.385 . S
C1414 C1415 1.396 . S
C1415 H1369 0.929 . S
C1415 C1410 1.361 . S
C1415 C1414 1.396 . S
C1416 O1370 1.300 . S
C1416 O1371 1.209 . S
C1416 C1389 1.486 . S
C1417 O1372 1.199 . S
C1417 O1373 1.297 . S
C1417 C1401 1.476 . S
H1418 O1444 0.856 . S
H1419 O1447 0.854 . S
H1420 C1455 0.930 . S
H1421 C1456 0.930 . S
H1422 C1458 0.930 . S
H1423 C1459 0.930 . S
H1424 C1461 0.931 . S
H1425 C1462 0.930 . S
H1426 C1464 0.930 . S
H1427 C1465 0.929 . S
H1428 C1467 0.930 . S
H1429 C1468 0.931 . S
H1430 C1470 0.930 . S
H1431 C1471 0.929 . S
H1432 C1473 0.931 . S
H1433 C1474 0.930 . S
H1434 C1476 0.930 . S
H1435 C1477 0.932 . S
H1436 C1479 0.930 . S
H1437 C1480 0.929 . S
H1438 C1482 0.931 . S
H1439 C1483 0.930 . S
H1440 C1485 0.929 . S
H1441 C1486 0.931 . S
H1442 C1488 0.930 . S
H1443 C1489 0.929 . S
O1444 H1418 0.856 . S
O1444 C1490 1.300 . S
O1445 C1490 1.209 . S
O1446 C1491 1.199 . S
O1447 H1419 0.854 . S
O1447 C1491 1.297 . S
C1448 C1449 1.404 . S
C1448 C1453 1.397 . S
C1448 C1454 1.492 . S
C1449 C1448 1.404 . S
C1449 C1450 1.396 . S
C1449 C1460 1.492 . S
C1450 C1449 1.396 . S
C1450 C1451 1.397 . S
C1450 C1466 1.509 . S
C1451 C1450 1.397 . S
C1451 C1452 1.412 . S
C1451 C1472 1.485 . S
C1452 C1451 1.412 . S
C1452 C1453 1.388 . S
C1452 C1478 1.490 . S
C1453 C1448 1.397 . S
C1453 C1452 1.388 . S
C1453 C1484 1.519 . S
C1454 C1448 1.492 . S
C1454 C1455 1.363 . S
C1454 C1459 1.390 . S
C1455 H1420 0.930 . S
C1455 C1454 1.363 . S
C1455 C1456 1.372 . S
C1456 H1421 0.930 . S
C1456 C1455 1.372 . S
C1456 C1457 1.383 . S
C1457 C1456 1.383 . S
C1457 C1458 1.395 . S
C1458 H1422 0.930 . S
C1458 C1457 1.395 . S
C1458 C1459 1.362 . S
C1459 H1423 0.930 . S
C1459 C1454 1.390 . S
C1459 C1458 1.362 . S
C1460 C1449 1.492 . S
C1460 C1461 1.377 . S
C1460 C1465 1.397 . S
C1461 H1424 0.931 . S
C1461 C1460 1.377 . S
C1461 C1462 1.376 . S
C1462 H1425 0.930 . S
C1462 C1461 1.376 . S
C1462 C1463 1.376 . S
C1463 C1462 1.376 . S
C1463 C1464 1.378 . S
C1463 C1490 1.486 . S
C1464 H1426 0.930 . S
C1464 C1463 1.378 . S
C1464 C1465 1.376 . S
C1465 H1427 0.929 . S
C1465 C1460 1.397 . S
C1465 C1464 1.376 . S
C1466 C1450 1.509 . S
C1466 C1467 1.391 . S
C1466 C1471 1.386 . S
C1467 H1428 0.930 . S
C1467 C1466 1.391 . S
C1467 C1468 1.375 . S
C1468 H1429 0.931 . S
C1468 C1467 1.375 . S
C1468 C1469 1.375 . S
C1469 C1468 1.375 . S
C1469 C1470 1.361 . S
C1470 H1430 0.930 . S
C1470 C1469 1.361 . S
C1470 C1471 1.399 . S
C1471 H1431 0.929 . S
C1471 C1466 1.386 . S
C1471 C1470 1.399 . S
C1472 C1451 1.485 . S
C1472 C1473 1.394 . S
C1472 C1477 1.360 . S
C1473 H1432 0.931 . S
C1473 C1472 1.394 . S
C1473 C1474 1.372 . S
C1474 H1433 0.930 . S
C1474 C1473 1.372 . S
C1474 C1475 1.397 . S
C1475 C1474 1.397 . S
C1475 C1476 1.390 . S
C1475 C1491 1.476 . S
C1476 H1434 0.930 . S
C1476 C1475 1.390 . S
C1476 C1477 1.366 . S
C1477 H1435 0.932 . S
C1477 C1472 1.360 . S
C1477 C1476 1.366 . S
C1478 C1452 1.490 . S
C1478 C1479 1.380 . S
C1478 C1483 1.386 . S
C1479 H1436 0.930 . S
C1479 C1478 1.380 . S
C1479 C1480 1.381 . S
C1480 H1437 0.929 . S
C1480 C1479 1.381 . S
C1480 C1481 1.371 . S
C1481 C1480 1.371 . S
C1481 C1482 1.380 . S
C1482 H1438 0.931 . S
C1482 C1481 1.380 . S
C1482 C1483 1.387 . S
C1483 H1439 0.930 . S
C1483 C1478 1.386 . S
C1483 C1482 1.387 . S
C1484 C1453 1.519 . S
C1484 C1485 1.377 . S
C1484 C1489 1.361 . S
C1485 H1440 0.929 . S
C1485 C1484 1.377 . S
C1485 C1486 1.386 . S
C1486 H1441 0.931 . S
C1486 C1485 1.386 . S
C1486 C1487 1.363 . S
C1487 C1486 1.363 . S
C1487 C1488 1.385 . S
C1488 H1442 0.930 . S
C1488 C1487 1.385 . S
C1488 C1489 1.396 . S
C1489 H1443 0.929 . S
C1489 C1484 1.361 . S
C1489 C1488 1.396 . S
C1490 O1444 1.300 . S
C1490 O1445 1.209 . S
C1490 C1463 1.486 . S
C1491 O1446 1.199 . S
C1491 O1447 1.297 . S
C1491 C1475 1.476 . S
H1492 O1518 0.856 . S
H1493 O1521 0.854 . S
H1494 C1529 0.930 . S
H1495 C1530 0.930 . S
H1496 C1532 0.930 . S
H1497 C1533 0.930 . S
H1498 C1535 0.931 . S
H1499 C1536 0.930 . S
H1500 C1538 0.930 . S
H1501 C1539 0.929 . S
H1502 C1541 0.930 . S
H1503 C1542 0.931 . S
H1504 C1544 0.930 . S
H1505 C1545 0.929 . S
H1506 C1547 0.931 . S
H1507 C1548 0.930 . S
H1508 C1550 0.930 . S
H1509 C1551 0.932 . S
H1510 C1553 0.930 . S
H1511 C1554 0.929 . S
H1512 C1556 0.931 . S
H1513 C1557 0.930 . S
H1514 C1559 0.929 . S
H1515 C1560 0.931 . S
H1516 C1562 0.930 . S
H1517 C1563 0.929 . S
O1518 H1492 0.856 . S
O1518 C1564 1.300 . S
O1519 C1564 1.209 . S
O1520 C1565 1.199 . S
O1521 H1493 0.854 . S
O1521 C1565 1.297 . S
C1522 C1523 1.404 . S
C1522 C1527 1.397 . S
C1522 C1528 1.492 . S
C1523 C1522 1.404 . S
C1523 C1524 1.396 . S
C1523 C1534 1.492 . S
C1524 C1523 1.396 . S
C1524 C1525 1.397 . S
C1524 C1540 1.509 . S
C1525 C1524 1.397 . S
C1525 C1526 1.412 . S
C1525 C1546 1.485 . S
C1526 C1525 1.412 . S
C1526 C1527 1.388 . S
C1526 C1552 1.490 . S
C1527 C1522 1.397 . S
C1527 C1526 1.388 . S
C1527 C1558 1.519 . S
C1528 C1522 1.492 . S
C1528 C1529 1.363 . S
C1528 C1533 1.390 . S
C1529 H1494 0.930 . S
C1529 C1528 1.363 . S
C1529 C1530 1.372 . S
C1530 H1495 0.930 . S
C1530 C1529 1.372 . S
C1530 C1531 1.383 . S
C1531 C1530 1.383 . S
C1531 C1532 1.395 . S
C1532 H1496 0.930 . S
C1532 C1531 1.395 . S
C1532 C1533 1.362 . S
C1533 H1497 0.930 . S
C1533 C1528 1.390 . S
C1533 C1532 1.362 . S
C1534 C1523 1.492 . S
C1534 C1535 1.377 . S
C1534 C1539 1.397 . S
C1535 H1498 0.931 . S
C1535 C1534 1.377 . S
C1535 C1536 1.376 . S
C1536 H1499 0.930 . S
C1536 C1535 1.376 . S
C1536 C1537 1.376 . S
C1537 C1536 1.376 . S
C1537 C1538 1.378 . S
C1537 C1564 1.486 . S
C1538 H1500 0.930 . S
C1538 C1537 1.378 . S
C1538 C1539 1.376 . S
C1539 H1501 0.929 . S
C1539 C1534 1.397 . S
C1539 C1538 1.376 . S
C1540 C1524 1.509 . S
C1540 C1541 1.391 . S
C1540 C1545 1.386 . S
C1541 H1502 0.930 . S
C1541 C1540 1.391 . S
C1541 C1542 1.375 . S
C1542 H1503 0.931 . S
C1542 C1541 1.375 . S
C1542 C1543 1.375 . S
C1543 C1542 1.375 . S
C1543 C1544 1.361 . S
C1544 H1504 0.930 . S
C1544 C1543 1.361 . S
C1544 C1545 1.399 . S
C1545 H1505 0.929 . S
C1545 C1540 1.386 . S
C1545 C1544 1.399 . S
C1546 C1525 1.485 . S
C1546 C1547 1.394 . S
C1546 C1551 1.360 . S
C1547 H1506 0.931 . S
C1547 C1546 1.394 . S
C1547 C1548 1.372 . S
C1548 H1507 0.930 . S
C1548 C1547 1.372 . S
C1548 C1549 1.397 . S
C1549 C1548 1.397 . S
C1549 C1550 1.390 . S
C1549 C1565 1.476 . S
C1550 H1508 0.930 . S
C1550 C1549 1.390 . S
C1550 C1551 1.366 . S
C1551 H1509 0.932 . S
C1551 C1546 1.360 . S
C1551 C1550 1.366 . S
C1552 C1526 1.490 . S
C1552 C1553 1.380 . S
C1552 C1557 1.386 . S
C1553 H1510 0.930 . S
C1553 C1552 1.380 . S
C1553 C1554 1.381 . S
C1554 H1511 0.929 . S
C1554 C1553 1.381 . S
C1554 C1555 1.371 . S
C1555 C1554 1.371 . S
C1555 C1556 1.380 . S
C1556 H1512 0.931 . S
C1556 C1555 1.380 . S
C1556 C1557 1.387 . S
C1557 H1513 0.930 . S
C1557 C1552 1.386 . S
C1557 C1556 1.387 . S
C1558 C1527 1.519 . S
C1558 C1559 1.377 . S
C1558 C1563 1.361 . S
C1559 H1514 0.929 . S
C1559 C1558 1.377 . S
C1559 C1560 1.386 . S
C1560 H1515 0.931 . S
C1560 C1559 1.386 . S
C1560 C1561 1.363 . S
C1561 C1560 1.363 . S
C1561 C1562 1.385 . S
C1562 H1516 0.930 . S
C1562 C1561 1.385 . S
C1562 C1563 1.396 . S
C1563 H1517 0.929 . S
C1563 C1558 1.361 . S
C1563 C1562 1.396 . S
C1564 O1518 1.300 . S
C1564 O1519 1.209 . S
C1564 C1537 1.486 . S
C1565 O1520 1.199 . S
C1565 O1521 1.297 . S
C1565 C1549 1.476 . S
H1566 C1572 0.930 . S
H1567 C1575 0.930 . S
H1568 C1576 0.930 . S
H1569 C1577 0.930 1_455 S
H1570 C1580 0.930 . S
H1571 C1581 0.930 . S
C1572 H1566 0.930 . S
C1572 C1573 1.355 . S
C1572 C1574 1.415 . S
C1573 C1572 1.355 . S
C1573 C1575 1.419 1_655 S
C1574 C1572 1.415 . S
C1574 C1579 1.425 . S
C1574 C1581 1.409 . S
C1575 H1567 0.930 . S
C1575 C1573 1.419 1_455 S
C1575 C1576 1.362 . S
C1576 H1568 0.930 . S
C1576 C1575 1.362 . S
C1576 C1579 1.409 1_455 S
C1577 H1569 0.930 1_655 S
C1577 C1578 1.355 . S
C1577 C1579 1.415 . S
C1578 C1577 1.355 . S
C1578 C1580 1.419 . S
C1579 C1574 1.425 . S
C1579 C1576 1.409 1_655 S
C1579 C1577 1.415 . S
C1580 H1570 0.930 . S
C1580 C1578 1.419 . S
C1580 C1581 1.362 . S
C1581 H1571 0.930 . S
C1581 C1574 1.409 . S
C1581 C1580 1.362 . S
H1582 C1588 0.930 . S
H1583 C1591 0.930 . S
H1584 C1592 0.930 . S
H1585 C1593 0.930 . S
H1586 C1596 0.930 . S
H1587 C1597 0.930 . S
C1588 H1582 0.930 . S
C1588 C1589 1.355 . S
C1588 C1590 1.415 . S
C1589 C1588 1.355 . S
C1589 C1591 1.419 . S
C1590 C1588 1.415 . S
C1590 C1595 1.425 . S
C1590 C1597 1.409 . S
C1591 H1583 0.930 . S
C1591 C1589 1.419 . S
C1591 C1592 1.362 . S
C1592 H1584 0.930 . S
C1592 C1591 1.362 . S
C1592 C1595 1.409 . S
C1593 H1585 0.930 . S
C1593 C1594 1.355 . S
C1593 C1595 1.415 . S
C1594 C1593 1.355 . S
C1594 C1596 1.419 . S
C1595 C1590 1.425 . S
C1595 C1592 1.409 . S
C1595 C1593 1.415 . S
C1596 H1586 0.930 . S
C1596 C1594 1.419 . S
C1596 C1597 1.362 . S
C1597 H1587 0.930 . S
C1597 C1590 1.409 . S
C1597 C1596 1.362 . S
H1598 C1604 0.930 . S
H1599 C1607 0.934 . S
H1600 C1608 0.930 . S
H1601 C1609 0.930 1_565 S
H1602 C1612 0.930 . S
H1603 C1613 0.930 . S
C1604 H1598 0.930 . S
C1604 C1605 1.355 . S
C1604 C1606 1.415 . S
C1605 C1604 1.355 . S
C1605 C1607 1.402 1_545 S
C1606 C1604 1.415 . S
C1606 C1611 1.425 . S
C1606 C1613 1.409 . S
C1607 H1599 0.934 . S
C1607 C1605 1.402 1_565 S
C1607 C1608 1.376 . S
C1608 H1600 0.930 . S
C1608 C1607 1.376 . S
C1608 C1611 1.409 1_565 S
C1609 H1601 0.930 1_545 S
C1609 C1610 1.355 . S
C1609 C1611 1.415 . S
C1610 C1609 1.355 . S
C1610 C1612 1.419 . S
C1611 C1606 1.425 . S
C1611 C1608 1.409 1_545 S
C1611 C1609 1.415 . S
C1612 H1602 0.930 . S
C1612 C1610 1.419 . S
C1612 C1613 1.362 . S
C1613 H1603 0.930 . S
C1613 C1606 1.409 . S
C1613 C1612 1.362 . S
H1614 C1620 0.930 1_545 S
H1615 C1623 0.930 . S
H1616 C1624 0.930 . S
H1617 C1625 0.930 . S
H1618 C1628 0.928 . S
H1619 C1629 0.930 . S
C1620 H1614 0.930 1_565 S
C1620 C1621 1.355 . S
C1620 C1622 1.415 . S
C1621 C1620 1.355 . S
C1621 C1623 1.419 . S
C1622 C1620 1.415 . S
C1622 C1627 1.425 . S
C1622 C1629 1.409 1_565 S
C1623 H1615 0.930 . S
C1623 C1621 1.419 . S
C1623 C1624 1.362 . S
C1624 H1616 0.930 . S
C1624 C1623 1.362 . S
C1624 C1627 1.409 . S
C1625 H1617 0.930 . S
C1625 C1626 1.355 . S
C1625 C1627 1.415 . S
C1626 C1625 1.355 . S
C1626 C1628 1.414 1_565 S
C1627 C1622 1.425 . S
C1627 C1624 1.409 . S
C1627 C1625 1.415 . S
C1628 H1618 0.928 . S
C1628 C1626 1.414 1_545 S
C1628 C1629 1.371 . S
C1629 H1619 0.930 . S
C1629 C1622 1.409 1_545 S
C1629 C1628 1.371 . S
H1630 C1636 0.930 . S
H1631 C1639 0.930 1_655 S
H1632 C1640 0.953 . S
H1633 C1641 0.930 1_655 S
H1634 C1644 0.930 . S
H1635 C1645 0.930 . S
C1636 H1630 0.930 . S
C1636 C1637 1.355 . S
C1636 C1638 1.415 . S
C1637 C1636 1.355 . S
C1637 C1639 1.419 . S
C1638 C1636 1.415 . S
C1638 C1643 1.425 . S
C1638 C1645 1.409 . S
C1639 H1631 0.930 1_455 S
C1639 C1637 1.419 . S
C1639 C1640 1.350 1_455 S
C1640 H1632 0.953 . S
C1640 C1639 1.350 1_655 S
C1640 C1643 1.399 1_655 S
C1641 H1633 0.930 1_455 S
C1641 C1642 1.355 . S
C1641 C1643 1.415 . S
C1642 C1641 1.355 . S
C1642 C1644 1.419 . S
C1643 C1638 1.425 . S
C1643 C1640 1.399 1_455 S
C1643 C1641 1.415 . S
C1644 H1634 0.930 . S
C1644 C1642 1.419 . S
C1644 C1645 1.362 . S
C1645 H1635 0.930 . S
C1645 C1638 1.409 . S
C1645 C1644 1.362 . S
H1646 C1652 0.930 . S
H1647 C1655 0.930 . S
H1648 C1656 0.930 . S
H1649 C1657 0.930 . S
H1650 C1660 0.930 . S
H1651 C1661 0.930 . S
C1652 H1646 0.930 . S
C1652 C1653 1.355 1_556 S
C1652 C1654 1.415 . S
C1653 C1652 1.355 1_554 S
C1653 C1655 1.419 . S
C1654 C1652 1.415 . S
C1654 C1659 1.425 . S
C1654 C1661 1.409 . S
C1655 H1647 0.930 . S
C1655 C1653 1.419 . S
C1655 C1656 1.362 . S
C1656 H1648 0.930 . S
C1656 C1655 1.362 . S
C1656 C1659 1.409 1_554 S
C1657 H1649 0.930 . S
C1657 C1658 1.355 . S
C1657 C1659 1.415 . S
C1658 C1657 1.355 . S
C1658 C1660 1.419 . S
C1659 C1654 1.425 . S
C1659 C1656 1.409 1_556 S
C1659 C1657 1.415 . S
C1660 H1650 0.930 . S
C1660 C1658 1.419 . S
C1660 C1661 1.362 . S
C1661 H1651 0.930 . S
C1661 C1654 1.409 . S
C1661 C1660 1.362 . S
H1662 C1668 0.930 1_554 S
H1663 C1671 0.930 . S
H1664 C1672 0.930 . S
H1665 C1673 0.930 . S
H1666 C1676 0.930 . S
H1667 C1677 0.930 . S
C1668 H1662 0.930 1_556 S
C1668 C1669 1.355 . S
C1668 C1670 1.415 . S
C1669 C1668 1.355 . S
C1669 C1671 1.419 1_455 S
C1670 C1668 1.415 . S
C1670 C1675 1.425 1_455 S
C1670 C1677 1.409 . S
C1671 H1663 0.930 . S
C1671 C1669 1.419 1_655 S
C1671 C1672 1.362 . S
C1672 H1664 0.930 . S
C1672 C1671 1.362 . S
C1672 C1675 1.409 . S
C1673 H1665 0.930 . S
C1673 C1674 1.355 1_655 S
C1673 C1675 1.415 . S
C1674 C1673 1.355 1_455 S
C1674 C1676 1.419 . S
C1675 C1670 1.425 1_655 S
C1675 C1672 1.409 . S
C1675 C1673 1.415 . S
C1676 H1666 0.930 . S
C1676 C1674 1.419 . S
C1676 C1677 1.362 . S
C1677 H1667 0.930 . S
C1677 C1670 1.409 . S
C1677 C1676 1.362 . S
H1678 C1684 0.930 . S
H1679 C1687 0.930 . S
H1680 C1688 0.930 . S
H1681 C1689 0.930 . S
H1682 C1692 0.930 . S
H1683 C1693 0.930 . S
C1684 H1678 0.930 . S
C1684 C1685 1.355 . S
C1684 C1686 1.415 . S
C1685 C1684 1.355 . S
C1685 C1687 1.419 . S
C1686 C1684 1.415 . S
C1686 C1691 1.425 . S
C1686 C1693 1.409 . S
C1687 H1679 0.930 . S
C1687 C1685 1.419 . S
C1687 C1688 1.362 . S
C1688 H1680 0.930 . S
C1688 C1687 1.362 . S
C1688 C1691 1.409 . S
C1689 H1681 0.930 . S
C1689 C1690 1.355 . S
C1689 C1691 1.415 . S
C1690 C1689 1.355 . S
C1690 C1692 1.419 . S
C1691 C1686 1.425 . S
C1691 C1688 1.409 . S
C1691 C1689 1.415 . S
C1692 H1682 0.930 . S
C1692 C1690 1.419 . S
C1692 C1693 1.362 . S
C1693 H1683 0.930 . S
C1693 C1686 1.409 . S
C1693 C1692 1.362 . S
H1694 C1700 0.930 . S
H1695 C1703 0.927 1_545 S
H1696 C1704 0.932 1_554 S
H1697 C1705 0.930 . S
H1698 C1708 0.930 . S
H1699 C1709 0.930 . S
C1700 H1694 0.930 . S
C1700 C1701 1.355 . S
C1700 C1702 1.415 . S
C1701 C1700 1.355 . S
C1701 C1703 1.419 1_556 S
C1702 C1700 1.415 . S
C1702 C1707 1.425 . S
C1702 C1709 1.409 . S
C1703 H1695 0.927 1_565 S
C1703 C1701 1.419 1_554 S
C1703 C1704 1.362 1_564 S
C1704 H1696 0.932 1_556 S
C1704 C1703 1.362 1_546 S
C1704 C1707 1.409 1_545 S
C1705 H1697 0.930 . S
C1705 C1706 1.355 1_545 S
C1705 C1707 1.415 1_545 S
C1706 C1705 1.355 1_565 S
C1706 C1708 1.419 . S
C1707 C1702 1.425 . S
C1707 C1704 1.409 1_565 S
C1707 C1705 1.415 1_565 S
C1708 H1698 0.930 . S
C1708 C1706 1.419 . S
C1708 C1709 1.362 . S
C1709 H1699 0.930 . S
C1709 C1702 1.409 . S
C1709 C1708 1.362 . S
H1710 C1716 0.930 . S
H1711 C1719 0.930 . S
H1712 C1720 0.930 . S
H1713 C1721 0.927 . S
H1714 C1724 0.930 . S
H1715 C1725 0.930 . S
C1716 H1710 0.930 . S
C1716 C1717 1.355 . S
C1716 C1718 1.415 . S
C1717 C1716 1.355 . S
C1717 C1719 1.419 . S
C1718 C1716 1.415 . S
C1718 C1723 1.425 . S
C1718 C1725 1.409 . S
C1719 H1711 0.930 . S
C1719 C1717 1.419 . S
C1719 C1720 1.362 . S
C1720 H1712 0.930 . S
C1720 C1719 1.362 . S
C1720 C1723 1.409 . S
C1721 H1713 0.927 . S
C1721 C1722 1.330 1_565 S
C1721 C1723 1.415 1_565 S
C1722 C1721 1.330 1_545 S
C1722 C1724 1.449 . S
C1723 C1718 1.425 . S
C1723 C1720 1.409 . S
C1723 C1721 1.415 1_545 S
C1724 H1714 0.930 . S
C1724 C1722 1.449 . S
C1724 C1725 1.362 . S
C1725 H1715 0.930 . S
C1725 C1718 1.409 . S
C1725 C1724 1.362 . S
H1726 C1732 0.930 . S
H1727 C1735 0.930 . S
H1728 C1736 0.930 . S
H1729 C1737 0.930 . S
H1730 C1740 0.930 . S
H1731 C1741 0.930 . S
C1732 H1726 0.930 . S
C1732 C1733 1.355 1_455 S
C1732 C1734 1.415 . S
C1733 C1732 1.355 1_655 S
C1733 C1735 1.419 . S
C1734 C1732 1.415 . S
C1734 C1739 1.425 1_455 S
C1734 C1741 1.409 . S
C1735 H1727 0.930 . S
C1735 C1733 1.419 . S
C1735 C1736 1.362 . S
C1736 H1728 0.930 . S
C1736 C1735 1.362 . S
C1736 C1739 1.409 . S
C1737 H1729 0.930 . S
C1737 C1738 1.365 . S
C1737 C1739 1.415 . S
C1738 C1737 1.365 . S
C1738 C1740 1.412 1_655 S
C1739 C1734 1.425 1_655 S
C1739 C1736 1.409 . S
C1739 C1737 1.415 . S
C1740 H1730 0.930 . S
C1740 C1738 1.412 1_455 S
C1740 C1741 1.362 . S
C1741 H1731 0.930 . S
C1741 C1734 1.409 . S
C1741 C1740 1.362 . S
H1742 C1748 0.930 . S
H1743 C1751 0.930 . S
H1744 C1752 0.930 . S
H1745 C1753 0.930 . S
H1746 C1756 0.930 . S
H1747 C1757 0.930 . S
C1748 H1742 0.930 . S
C1748 C1749 1.355 . S
C1748 C1750 1.415 . S
C1749 C1748 1.355 . S
C1749 C1751 1.419 . S
C1750 C1748 1.415 . S
C1750 C1755 1.425 . S
C1750 C1757 1.409 . S
C1751 H1743 0.930 . S
C1751 C1749 1.419 . S
C1751 C1752 1.362 . S
C1752 H1744 0.930 . S
C1752 C1751 1.362 . S
C1752 C1755 1.409 . S
C1753 H1745 0.930 . S
C1753 C1754 1.355 . S
C1753 C1755 1.415 . S
C1754 C1753 1.355 . S
C1754 C1756 1.419 . S
C1755 C1750 1.425 . S
C1755 C1752 1.409 . S
C1755 C1753 1.415 . S
C1756 H1746 0.930 . S
C1756 C1754 1.419 . S
C1756 C1757 1.362 . S
C1757 H1747 0.930 . S
C1757 C1750 1.409 . S
C1757 C1756 1.362 . S
H1758 C1764 0.930 . S
H1759 C1767 0.930 . S
H1760 C1768 0.930 . S
H1761 C1769 0.930 . S
H1762 C1772 0.930 . S
H1763 C1773 0.930 . S
C1764 H1758 0.930 . S
C1764 C1765 1.355 . S
C1764 C1766 1.415 . S
C1765 C1764 1.355 . S
C1765 C1767 1.419 . S
C1766 C1764 1.415 . S
C1766 C1771 1.425 . S
C1766 C1773 1.409 . S
C1767 H1759 0.930 . S
C1767 C1765 1.419 . S
C1767 C1768 1.362 . S
C1768 H1760 0.930 . S
C1768 C1767 1.362 . S
C1768 C1771 1.409 . S
C1769 H1761 0.930 . S
C1769 C1770 1.355 . S
C1769 C1771 1.415 . S
C1770 C1769 1.355 . S
C1770 C1772 1.419 . S
C1771 C1766 1.425 . S
C1771 C1768 1.409 . S
C1771 C1769 1.415 . S
C1772 H1762 0.930 . S
C1772 C1770 1.419 . S
C1772 C1773 1.362 . S
C1773 H1763 0.930 . S
C1773 C1766 1.409 . S
C1773 C1772 1.362 . S
H1774 C1780 0.930 . S
H1775 C1783 0.930 . S
H1776 C1784 0.930 . S
H1777 C1785 0.930 . S
H1778 C1788 0.930 . S
H1779 C1789 0.930 . S
C1780 H1774 0.930 . S
C1780 C1781 1.355 . S
C1780 C1782 1.415 . S
C1781 C1780 1.355 . S
C1781 C1783 1.419 . S
C1782 C1780 1.415 . S
C1782 C1787 1.425 . S
C1782 C1789 1.409 . S
C1783 H1775 0.930 . S
C1783 C1781 1.419 . S
C1783 C1784 1.362 . S
C1784 H1776 0.930 . S
C1784 C1783 1.362 . S
C1784 C1787 1.409 . S
C1785 H1777 0.930 . S
C1785 C1786 1.355 . S
C1785 C1787 1.415 . S
C1786 C1785 1.355 . S
C1786 C1788 1.419 . S
C1787 C1782 1.425 . S
C1787 C1784 1.409 . S
C1787 C1785 1.415 . S
C1788 H1778 0.930 . S
C1788 C1786 1.419 . S
C1788 C1789 1.362 . S
C1789 H1779 0.930 . S
C1789 C1782 1.409 . S
C1789 C1788 1.362 . S
H1790 C1796 0.930 . S
H1791 C1799 0.930 . S
H1792 C1800 0.930 . S
H1793 C1801 0.930 . S
H1794 C1804 0.930 . S
H1795 C1805 0.930 . S
C1796 H1790 0.930 . S
C1796 C1797 1.355 . S
C1796 C1798 1.415 . S
C1797 C1796 1.355 . S
C1797 C1799 1.419 . S
C1798 C1796 1.415 . S
C1798 C1803 1.425 . S
C1798 C1805 1.409 . S
C1799 H1791 0.930 . S
C1799 C1797 1.419 . S
C1799 C1800 1.362 . S
C1800 H1792 0.930 . S
C1800 C1799 1.362 . S
C1800 C1803 1.409 . S
C1801 H1793 0.930 . S
C1801 C1802 1.355 . S
C1801 C1803 1.415 . S
C1802 C1801 1.355 . S
C1802 C1804 1.419 . S
C1803 C1798 1.425 . S
C1803 C1800 1.409 . S
C1803 C1801 1.415 . S
C1804 H1794 0.930 . S
C1804 C1802 1.419 . S
C1804 C1805 1.362 . S
C1805 H1795 0.930 . S
C1805 C1798 1.409 . S
C1805 C1804 1.362 . S
H1806 C1812 0.930 . S
H1807 C1815 0.930 . S
H1808 C1816 0.930 . S
H1809 C1817 0.930 . S
H1810 C1820 0.930 . S
H1811 C1821 0.930 . S
C1812 H1806 0.930 . S
C1812 C1813 1.355 . S
C1812 C1814 1.415 . S
C1813 C1812 1.355 . S
C1813 C1815 1.419 . S
C1814 C1812 1.415 . S
C1814 C1819 1.425 . S
C1814 C1821 1.409 . S
C1815 H1807 0.930 . S
C1815 C1813 1.419 . S
C1815 C1816 1.362 . S
C1816 H1808 0.930 . S
C1816 C1815 1.362 . S
C1816 C1819 1.409 . S
C1817 H1809 0.930 . S
C1817 C1818 1.355 . S
C1817 C1819 1.415 . S
C1818 C1817 1.355 . S
C1818 C1820 1.419 . S
C1819 C1814 1.425 . S
C1819 C1816 1.409 . S
C1819 C1817 1.415 . S
C1820 H1810 0.930 . S
C1820 C1818 1.419 . S
C1820 C1821 1.362 . S
C1821 H1811 0.930 . S
C1821 C1814 1.409 . S
C1821 C1820 1.362 . S
H1822 C1828 0.930 . S
H1823 C1831 0.930 . S
H1824 C1832 0.930 . S
H1825 C1833 0.930 . S
H1826 C1836 0.930 . S
H1827 C1837 0.930 . S
C1828 H1822 0.930 . S
C1828 C1829 1.355 . S
C1828 C1830 1.415 . S
C1829 C1828 1.355 . S
C1829 C1831 1.419 . S
C1830 C1828 1.415 . S
C1830 C1835 1.425 . S
C1830 C1837 1.409 . S
C1831 H1823 0.930 . S
C1831 C1829 1.419 . S
C1831 C1832 1.362 . S
C1832 H1824 0.930 . S
C1832 C1831 1.362 . S
C1832 C1835 1.409 . S
C1833 H1825 0.930 . S
C1833 C1834 1.355 . S
C1833 C1835 1.415 . S
C1834 C1833 1.355 . S
C1834 C1836 1.419 . S
C1835 C1830 1.425 . S
C1835 C1832 1.409 . S
C1835 C1833 1.415 . S
C1836 H1826 0.930 . S
C1836 C1834 1.419 . S
C1836 C1837 1.362 . S
C1837 H1827 0.930 . S
C1837 C1830 1.409 . S
C1837 C1836 1.362 . S
H1838 C1844 0.930 . S
H1839 C1847 0.930 . S
H1840 C1848 0.930 . S
H1841 C1849 0.930 . S
H1842 C1852 0.930 . S
H1843 C1853 0.930 . S
C1844 H1838 0.930 . S
C1844 C1845 1.355 . S
C1844 C1846 1.415 . S
C1845 C1844 1.355 . S
C1845 C1847 1.419 . S
C1846 C1844 1.415 . S
C1846 C1851 1.425 . S
C1846 C1853 1.409 . S
C1847 H1839 0.930 . S
C1847 C1845 1.419 . S
C1847 C1848 1.362 . S
C1848 H1840 0.930 . S
C1848 C1847 1.362 . S
C1848 C1851 1.409 . S
C1849 H1841 0.930 . S
C1849 C1850 1.355 . S
C1849 C1851 1.415 . S
C1850 C1849 1.355 . S
C1850 C1852 1.419 . S
C1851 C1846 1.425 . S
C1851 C1848 1.409 . S
C1851 C1849 1.415 . S
C1852 H1842 0.930 . S
C1852 C1850 1.419 . S
C1852 C1853 1.362 . S
C1853 H1843 0.930 . S
C1853 C1846 1.409 . S
C1853 C1852 1.362 . S
H1854 C1860 0.930 . S
H1855 C1863 0.930 . S
H1856 C1864 0.930 . S
H1857 C1865 0.930 . S
H1858 C1868 0.930 . S
H1859 C1869 0.930 . S
C1860 H1854 0.930 . S
C1860 C1861 1.355 . S
C1860 C1862 1.415 . S
C1861 C1860 1.355 . S
C1861 C1863 1.419 . S
C1862 C1860 1.415 . S
C1862 C1867 1.425 . S
C1862 C1869 1.409 . S
C1863 H1855 0.930 . S
C1863 C1861 1.419 . S
C1863 C1864 1.362 . S
C1864 H1856 0.930 . S
C1864 C1863 1.362 . S
C1864 C1867 1.409 . S
C1865 H1857 0.930 . S
C1865 C1866 1.355 . S
C1865 C1867 1.415 . S
C1866 C1865 1.355 . S
C1866 C1868 1.419 . S
C1867 C1862 1.425 . S
C1867 C1864 1.409 . S
C1867 C1865 1.415 . S
C1868 H1858 0.930 . S
C1868 C1866 1.419 . S
C1868 C1869 1.362 . S
C1869 H1859 0.930 . S
C1869 C1862 1.409 . S
C1869 C1868 1.362 . S
H1870 C1876 0.930 . S
H1871 C1879 0.930 . S
H1872 C1880 0.930 . S
H1873 C1881 0.930 . S
H1874 C1884 0.930 . S
H1875 C1885 0.930 . S
C1876 H1870 0.930 . S
C1876 C1877 1.355 . S
C1876 C1878 1.415 . S
C1877 C1876 1.355 . S
C1877 C1879 1.419 . S
C1878 C1876 1.415 . S
C1878 C1883 1.425 . S
C1878 C1885 1.409 . S
C1879 H1871 0.930 . S
C1879 C1877 1.419 . S
C1879 C1880 1.362 . S
C1880 H1872 0.930 . S
C1880 C1879 1.362 . S
C1880 C1883 1.409 . S
C1881 H1873 0.930 . S
C1881 C1882 1.355 . S
C1881 C1883 1.415 . S
C1882 C1881 1.355 . S
C1882 C1884 1.419 . S
C1883 C1878 1.425 . S
C1883 C1880 1.409 . S
C1883 C1881 1.415 . S
C1884 H1874 0.930 . S
C1884 C1882 1.419 . S
C1884 C1885 1.362 . S
C1885 H1875 0.930 . S
C1885 C1878 1.409 . S
C1885 C1884 1.362 . S
H1886 C1892 0.930 . S
H1887 C1895 0.930 . S
H1888 C1896 0.930 . S
H1889 C1897 0.930 . S
H1890 C1900 0.930 . S
H1891 C1901 0.930 . S
C1892 H1886 0.930 . S
C1892 C1893 1.355 . S
C1892 C1894 1.415 . S
C1893 C1892 1.355 . S
C1893 C1895 1.419 . S
C1894 C1892 1.415 . S
C1894 C1899 1.425 . S
C1894 C1901 1.409 . S
C1895 H1887 0.930 . S
C1895 C1893 1.419 . S
C1895 C1896 1.362 . S
C1896 H1888 0.930 . S
C1896 C1895 1.362 . S
C1896 C1899 1.409 . S
C1897 H1889 0.930 . S
C1897 C1898 1.355 . S
C1897 C1899 1.415 . S
C1898 C1897 1.355 . S
C1898 C1900 1.419 . S
C1899 C1894 1.425 . S
C1899 C1896 1.409 . S
C1899 C1897 1.415 . S
C1900 H1890 0.930 . S
C1900 C1898 1.419 . S
C1900 C1901 1.362 . S
C1901 H1891 0.930 . S
C1901 C1894 1.409 . S
C1901 C1900 1.362 . S
H1902 C1908 0.930 . S
H1903 C1911 0.930 . S
H1904 C1912 0.930 . S
H1905 C1913 0.930 . S
H1906 C1916 0.930 . S
H1907 C1917 0.930 . S
C1908 H1902 0.930 . S
C1908 C1909 1.355 . S
C1908 C1910 1.415 . S
C1909 C1908 1.355 . S
C1909 C1911 1.419 . S
C1910 C1908 1.415 . S
C1910 C1915 1.425 . S
C1910 C1917 1.409 . S
C1911 H1903 0.930 . S
C1911 C1909 1.419 . S
C1911 C1912 1.362 . S
C1912 H1904 0.930 . S
C1912 C1911 1.362 . S
C1912 C1915 1.409 . S
C1913 H1905 0.930 . S
C1913 C1914 1.355 . S
C1913 C1915 1.415 . S
C1914 C1913 1.355 . S
C1914 C1916 1.419 . S
C1915 C1910 1.425 . S
C1915 C1912 1.409 . S
C1915 C1913 1.415 . S
C1916 H1906 0.930 . S
C1916 C1914 1.419 . S
C1916 C1917 1.362 . S
C1917 H1907 0.930 . S
C1917 C1910 1.409 . S
C1917 C1916 1.362 . S
H1918 C1924 0.930 . S
H1919 C1927 0.930 . S
H1920 C1928 0.930 . S
H1921 C1929 0.930 . S
H1922 C1932 0.930 . S
H1923 C1933 0.930 . S
C1924 H1918 0.930 . S
C1924 C1925 1.355 . S
C1924 C1926 1.415 . S
C1925 C1924 1.355 . S
C1925 C1927 1.419 . S
C1926 C1924 1.415 . S
C1926 C1931 1.425 . S
C1926 C1933 1.409 . S
C1927 H1919 0.930 . S
C1927 C1925 1.419 . S
C1927 C1928 1.362 . S
C1928 H1920 0.930 . S
C1928 C1927 1.362 . S
C1928 C1931 1.409 . S
C1929 H1921 0.930 . S
C1929 C1930 1.355 . S
C1929 C1931 1.415 . S
C1930 C1929 1.355 . S
C1930 C1932 1.419 . S
C1931 C1926 1.425 . S
C1931 C1928 1.409 . S
C1931 C1929 1.415 . S
C1932 H1922 0.930 . S
C1932 C1930 1.419 . S
C1932 C1933 1.362 . S
C1933 H1923 0.930 . S
C1933 C1926 1.409 . S
C1933 C1932 1.362 . S
H1934 C1940 0.930 . S
H1935 C1943 0.930 . S
H1936 C1944 0.930 . S
H1937 C1945 0.930 . S
H1938 C1948 0.930 . S
H1939 C1949 0.930 . S
C1940 H1934 0.930 . S
C1940 C1941 1.355 . S
C1940 C1942 1.415 . S
C1941 C1940 1.355 . S
C1941 C1943 1.419 . S
C1942 C1940 1.415 . S
C1942 C1947 1.425 . S
C1942 C1949 1.409 . S
C1943 H1935 0.930 . S
C1943 C1941 1.419 . S
C1943 C1944 1.362 . S
C1944 H1936 0.930 . S
C1944 C1943 1.362 . S
C1944 C1947 1.409 . S
C1945 H1937 0.930 . S
C1945 C1946 1.355 . S
C1945 C1947 1.415 . S
C1946 C1945 1.355 . S
C1946 C1948 1.419 . S
C1947 C1942 1.425 . S
C1947 C1944 1.409 . S
C1947 C1945 1.415 . S
C1948 H1938 0.930 . S
C1948 C1946 1.419 . S
C1948 C1949 1.362 . S
C1949 H1939 0.930 . S
C1949 C1942 1.409 . S
C1949 C1948 1.362 . S
H1950 C1956 0.930 . S
H1951 C1959 0.930 . S
H1952 C1960 0.930 . S
H1953 C1961 0.930 . S
H1954 C1964 0.930 . S
H1955 C1965 0.930 . S
C1956 H1950 0.930 . S
C1956 C1957 1.355 . S
C1956 C1958 1.415 . S
C1957 C1956 1.355 . S
C1957 C1959 1.419 . S
C1958 C1956 1.415 . S
C1958 C1963 1.425 . S
C1958 C1965 1.409 . S
C1959 H1951 0.930 . S
C1959 C1957 1.419 . S
C1959 C1960 1.362 . S
C1960 H1952 0.930 . S
C1960 C1959 1.362 . S
C1960 C1963 1.409 . S
C1961 H1953 0.930 . S
C1961 C1962 1.355 . S
C1961 C1963 1.415 . S
C1962 C1961 1.355 . S
C1962 C1964 1.419 . S
C1963 C1958 1.425 . S
C1963 C1960 1.409 . S
C1963 C1961 1.415 . S
C1964 H1954 0.930 . S
C1964 C1962 1.419 . S
C1964 C1965 1.362 . S
C1965 H1955 0.930 . S
C1965 C1958 1.409 . S
C1965 C1964 1.362 . S
H1966 C1972 0.930 . S
H1967 C1975 0.930 . S
H1968 C1976 0.930 . S
H1969 C1977 0.930 . S
H1970 C1980 0.930 . S
H1971 C1981 0.930 . S
C1972 H1966 0.930 . S
C1972 C1973 1.355 . S
C1972 C1974 1.415 . S
C1973 C1972 1.355 . S
C1973 C1975 1.419 . S
C1974 C1972 1.415 . S
C1974 C1979 1.425 . S
C1974 C1981 1.409 . S
C1975 H1967 0.930 . S
C1975 C1973 1.419 . S
C1975 C1976 1.362 . S
C1976 H1968 0.930 . S
C1976 C1975 1.362 . S
C1976 C1979 1.409 . S
C1977 H1969 0.930 . S
C1977 C1978 1.355 . S
C1977 C1979 1.415 . S
C1978 C1977 1.355 . S
C1978 C1980 1.419 . S
C1979 C1974 1.425 . S
C1979 C1976 1.409 . S
C1979 C1977 1.415 . S
C1980 H1970 0.930 . S
C1980 C1978 1.419 . S
C1980 C1981 1.362 . S
C1981 H1971 0.930 . S
C1981 C1974 1.409 . S
C1981 C1980 1.362 . S
H1982 C1988 0.930 . S
H1983 C1991 0.930 . S
H1984 C1992 0.930 . S
H1985 C1993 0.930 . S
H1986 C1996 0.930 . S
H1987 C1997 0.930 . S
C1988 H1982 0.930 . S
C1988 C1989 1.355 . S
C1988 C1990 1.415 . S
C1989 C1988 1.355 . S
C1989 C1991 1.419 . S
C1990 C1988 1.415 . S
C1990 C1995 1.425 . S
C1990 C1997 1.409 . S
C1991 H1983 0.930 . S
C1991 C1989 1.419 . S
C1991 C1992 1.362 . S
C1992 H1984 0.930 . S
C1992 C1991 1.362 . S
C1992 C1995 1.409 . S
C1993 H1985 0.930 . S
C1993 C1994 1.355 . S
C1993 C1995 1.415 . S
C1994 C1993 1.355 . S
C1994 C1996 1.419 . S
C1995 C1990 1.425 . S
C1995 C1992 1.409 . S
C1995 C1993 1.415 . S
C1996 H1986 0.930 . S
C1996 C1994 1.419 . S
C1996 C1997 1.362 . S
C1997 H1987 0.930 . S
C1997 C1990 1.409 . S
C1997 C1996 1.362 . S
H1998 C2004 0.930 . S
H1999 C2007 0.930 . S
H2000 C2008 0.930 . S
H2001 C2009 0.930 . S
H2002 C2012 0.930 . S
H2003 C2013 0.930 . S
C2004 H1998 0.930 . S
C2004 C2005 1.355 . S
C2004 C2006 1.415 . S
C2005 C2004 1.355 . S
C2005 C2007 1.419 . S
C2006 C2004 1.415 . S
C2006 C2011 1.425 . S
C2006 C2013 1.409 . S
C2007 H1999 0.930 . S
C2007 C2005 1.419 . S
C2007 C2008 1.362 . S
C2008 H2000 0.930 . S
C2008 C2007 1.362 . S
C2008 C2011 1.409 . S
C2009 H2001 0.930 . S
C2009 C2010 1.355 . S
C2009 C2011 1.415 . S
C2010 C2009 1.355 . S
C2010 C2012 1.419 . S
C2011 C2006 1.425 . S
C2011 C2008 1.409 . S
C2011 C2009 1.415 . S
C2012 H2002 0.930 . S
C2012 C2010 1.419 . S
C2012 C2013 1.362 . S
C2013 H2003 0.930 . S
C2013 C2006 1.409 . S
C2013 C2012 1.362 . S
H2014 C2020 0.930 . S
H2015 C2023 0.930 . S
H2016 C2024 0.930 . S
H2017 C2025 0.930 . S
H2018 C2028 0.930 . S
H2019 C2029 0.930 . S
C2020 H2014 0.930 . S
C2020 C2021 1.355 . S
C2020 C2022 1.415 . S
C2021 C2020 1.355 . S
C2021 C2023 1.419 . S
C2022 C2020 1.415 . S
C2022 C2027 1.425 . S
C2022 C2029 1.409 . S
C2023 H2015 0.930 . S
C2023 C2021 1.419 . S
C2023 C2024 1.362 . S
C2024 H2016 0.930 . S
C2024 C2023 1.362 . S
C2024 C2027 1.409 . S
C2025 H2017 0.930 . S
C2025 C2026 1.355 . S
C2025 C2027 1.415 . S
C2026 C2025 1.355 . S
C2026 C2028 1.419 . S
C2027 C2022 1.425 . S
C2027 C2024 1.409 . S
C2027 C2025 1.415 . S
C2028 H2018 0.930 . S
C2028 C2026 1.419 . S
C2028 C2029 1.362 . S
C2029 H2019 0.930 . S
C2029 C2022 1.409 . S
C2029 C2028 1.362 . S
H2030 C2036 0.930 . S
H2031 C2039 0.930 . S
H2032 C2040 0.930 . S
H2033 C2041 0.930 . S
H2034 C2044 0.930 . S
H2035 C2045 0.930 . S
C2036 H2030 0.930 . S
C2036 C2037 1.355 . S
C2036 C2038 1.415 . S
C2037 C2036 1.355 . S
C2037 C2039 1.419 . S
C2038 C2036 1.415 . S
C2038 C2043 1.425 . S
C2038 C2045 1.409 . S
C2039 H2031 0.930 . S
C2039 C2037 1.419 . S
C2039 C2040 1.362 . S
C2040 H2032 0.930 . S
C2040 C2039 1.362 . S
C2040 C2043 1.409 . S
C2041 H2033 0.930 . S
C2041 C2042 1.355 . S
C2041 C2043 1.415 . S
C2042 C2041 1.355 . S
C2042 C2044 1.419 . S
C2043 C2038 1.425 . S
C2043 C2040 1.409 . S
C2043 C2041 1.415 . S
C2044 H2034 0.930 . S
C2044 C2042 1.419 . S
C2044 C2045 1.362 . S
C2045 H2035 0.930 . S
C2045 C2038 1.409 . S
C2045 C2044 1.362 . S
H2046 C2052 0.930 . S
H2047 C2055 0.930 . S
H2048 C2056 0.930 . S
H2049 C2057 0.930 . S
H2050 C2060 0.930 . S
H2051 C2061 0.930 . S
C2052 H2046 0.930 . S
C2052 C2053 1.355 . S
C2052 C2054 1.415 . S
C2053 C2052 1.355 . S
C2053 C2055 1.419 . S
C2054 C2052 1.415 . S
C2054 C2059 1.425 . S
C2054 C2061 1.409 . S
C2055 H2047 0.930 . S
C2055 C2053 1.419 . S
C2055 C2056 1.362 . S
C2056 H2048 0.930 . S
C2056 C2055 1.362 . S
C2056 C2059 1.409 . S
C2057 H2049 0.930 . S
C2057 C2058 1.355 . S
C2057 C2059 1.415 . S
C2058 C2057 1.355 . S
C2058 C2060 1.419 . S
C2059 C2054 1.425 . S
C2059 C2056 1.409 . S
C2059 C2057 1.415 . S
C2060 H2050 0.930 . S
C2060 C2058 1.419 . S
C2060 C2061 1.362 . S
C2061 H2051 0.930 . S
C2061 C2054 1.409 . S
C2061 C2060 1.362 . S
H2062 C2068 0.930 . S
H2063 C2071 0.930 . S
H2064 C2072 0.930 . S
H2065 C2073 0.930 . S
H2066 C2076 0.930 . S
H2067 C2077 0.930 . S
C2068 H2062 0.930 . S
C2068 C2069 1.355 . S
C2068 C2070 1.415 . S
C2069 C2068 1.355 . S
C2069 C2071 1.419 . S
C2070 C2068 1.415 . S
C2070 C2075 1.425 . S
C2070 C2077 1.409 . S
C2071 H2063 0.930 . S
C2071 C2069 1.419 . S
C2071 C2072 1.362 . S
C2072 H2064 0.930 . S
C2072 C2071 1.362 . S
C2072 C2075 1.409 . S
C2073 H2065 0.930 . S
C2073 C2074 1.355 . S
C2073 C2075 1.415 . S
C2074 C2073 1.355 . S
C2074 C2076 1.419 . S
C2075 C2070 1.425 . S
C2075 C2072 1.409 . S
C2075 C2073 1.415 . S
C2076 H2066 0.930 . S
C2076 C2074 1.419 . S
C2076 C2077 1.362 . S
C2077 H2067 0.930 . S
C2077 C2070 1.409 . S
C2077 C2076 1.362 . S
H2078 C2084 0.930 . S
H2079 C2087 0.930 . S
H2080 C2088 0.930 . S
H2081 C2089 0.930 . S
H2082 C2092 0.930 . S
H2083 C2093 0.930 . S
C2084 H2078 0.930 . S
C2084 C2085 1.355 . S
C2084 C2086 1.415 . S
C2085 C2084 1.355 . S
C2085 C2087 1.419 . S
C2086 C2084 1.415 . S
C2086 C2091 1.425 . S
C2086 C2093 1.409 . S
C2087 H2079 0.930 . S
C2087 C2085 1.419 . S
C2087 C2088 1.362 . S
C2088 H2080 0.930 . S
C2088 C2087 1.362 . S
C2088 C2091 1.409 . S
C2089 H2081 0.930 . S
C2089 C2090 1.355 . S
C2089 C2091 1.415 . S
C2090 C2089 1.355 . S
C2090 C2092 1.419 . S
C2091 C2086 1.425 . S
C2091 C2088 1.409 . S
C2091 C2089 1.415 . S
C2092 H2082 0.930 . S
C2092 C2090 1.419 . S
C2092 C2093 1.362 . S
C2093 H2083 0.930 . S
C2093 C2086 1.409 . S
C2093 C2092 1.362 . S
H2094 C2100 0.930 . S
H2095 C2103 0.930 . S
H2096 C2104 0.930 . S
H2097 C2105 0.930 . S
H2098 C2108 0.930 . S
H2099 C2109 0.930 . S
C2100 H2094 0.930 . S
C2100 C2101 1.355 . S
C2100 C2102 1.415 . S
C2101 C2100 1.355 . S
C2101 C2103 1.419 . S
C2102 C2100 1.415 . S
C2102 C2107 1.425 . S
C2102 C2109 1.409 . S
C2103 H2095 0.930 . S
C2103 C2101 1.419 . S
C2103 C2104 1.362 . S
C2104 H2096 0.930 . S
C2104 C2103 1.362 . S
C2104 C2107 1.409 . S
C2105 H2097 0.930 . S
C2105 C2106 1.355 . S
C2105 C2107 1.415 . S
C2106 C2105 1.355 . S
C2106 C2108 1.419 . S
C2107 C2102 1.425 . S
C2107 C2104 1.409 . S
C2107 C2105 1.415 . S
C2108 H2098 0.930 . S
C2108 C2106 1.419 . S
C2108 C2109 1.362 . S
C2109 H2099 0.930 . S
C2109 C2102 1.409 . S
C2109 C2108 1.362 . S
H2110 C2116 0.930 . S
H2111 C2119 0.930 . S
H2112 C2120 0.930 . S
H2113 C2121 0.930 . S
H2114 C2124 0.930 . S
H2115 C2125 0.930 . S
C2116 H2110 0.930 . S
C2116 C2117 1.355 . S
C2116 C2118 1.415 . S
C2117 C2116 1.355 . S
C2117 C2119 1.419 . S
C2118 C2116 1.415 . S
C2118 C2123 1.425 . S
C2118 C2125 1.409 . S
C2119 H2111 0.930 . S
C2119 C2117 1.419 . S
C2119 C2120 1.362 . S
C2120 H2112 0.930 . S
C2120 C2119 1.362 . S
C2120 C2123 1.409 . S
C2121 H2113 0.930 . S
C2121 C2122 1.355 . S
C2121 C2123 1.415 . S
C2122 C2121 1.355 . S
C2122 C2124 1.419 . S
C2123 C2118 1.425 . S
C2123 C2120 1.409 . S
C2123 C2121 1.415 . S
C2124 H2114 0.930 . S
C2124 C2122 1.419 . S
C2124 C2125 1.362 . S
C2125 H2115 0.930 . S
C2125 C2118 1.409 . S
C2125 C2124 1.362 . S
H2126 C2132 0.930 . S
H2127 C2135 0.930 . S
H2128 C2136 0.930 . S
H2129 C2137 0.930 . S
H2130 C2140 0.930 . S
H2131 C2141 0.930 . S
C2132 H2126 0.930 . S
C2132 C2133 1.355 . S
C2132 C2134 1.415 . S
C2133 C2132 1.355 . S
C2133 C2135 1.419 . S
C2134 C2132 1.415 . S
C2134 C2139 1.425 . S
C2134 C2141 1.409 . S
C2135 H2127 0.930 . S
C2135 C2133 1.419 . S
C2135 C2136 1.362 . S
C2136 H2128 0.930 . S
C2136 C2135 1.362 . S
C2136 C2139 1.409 . S
C2137 H2129 0.930 . S
C2137 C2138 1.355 . S
C2137 C2139 1.415 . S
C2138 C2137 1.355 . S
C2138 C2140 1.419 . S
C2139 C2134 1.425 . S
C2139 C2136 1.409 . S
C2139 C2137 1.415 . S
C2140 H2130 0.930 . S
C2140 C2138 1.419 . S
C2140 C2141 1.362 . S
C2141 H2131 0.930 . S
C2141 C2134 1.409 . S
C2141 C2140 1.362 . S
H2142 C2148 0.930 . S
H2143 C2151 0.930 . S
H2144 C2152 0.930 . S
H2145 C2153 0.930 . S
H2146 C2156 0.930 . S
H2147 C2157 0.930 . S
C2148 H2142 0.930 . S
C2148 C2149 1.355 . S
C2148 C2150 1.415 . S
C2149 C2148 1.355 . S
C2149 C2151 1.419 . S
C2150 C2148 1.415 . S
C2150 C2155 1.425 . S
C2150 C2157 1.409 . S
C2151 H2143 0.930 . S
C2151 C2149 1.419 . S
C2151 C2152 1.362 . S
C2152 H2144 0.930 . S
C2152 C2151 1.362 . S
C2152 C2155 1.409 . S
C2153 H2145 0.930 . S
C2153 C2154 1.355 . S
C2153 C2155 1.415 . S
C2154 C2153 1.355 . S
C2154 C2156 1.419 . S
C2155 C2150 1.425 . S
C2155 C2152 1.409 . S
C2155 C2153 1.415 . S
C2156 H2146 0.930 . S
C2156 C2154 1.419 . S
C2156 C2157 1.362 . S
C2157 H2147 0.930 . S
C2157 C2150 1.409 . S
C2157 C2156 1.362 . S
H2158 C2164 0.930 . S
H2159 C2167 0.930 . S
H2160 C2168 0.930 . S
H2161 C2169 0.930 . S
H2162 C2172 0.930 . S
H2163 C2173 0.930 . S
C2164 H2158 0.930 . S
C2164 C2165 1.355 . S
C2164 C2166 1.415 . S
C2165 C2164 1.355 . S
C2165 C2167 1.419 . S
C2166 C2164 1.415 . S
C2166 C2171 1.425 . S
C2166 C2173 1.409 . S
C2167 H2159 0.930 . S
C2167 C2165 1.419 . S
C2167 C2168 1.362 . S
C2168 H2160 0.930 . S
C2168 C2167 1.362 . S
C2168 C2171 1.409 . S
C2169 H2161 0.930 . S
C2169 C2170 1.355 . S
C2169 C2171 1.415 . S
C2170 C2169 1.355 . S
C2170 C2172 1.419 . S
C2171 C2166 1.425 . S
C2171 C2168 1.409 . S
C2171 C2169 1.415 . S
C2172 H2162 0.930 . S
C2172 C2170 1.419 . S
C2172 C2173 1.362 . S
C2173 H2163 0.930 . S
C2173 C2166 1.409 . S
C2173 C2172 1.362 . S
H2174 C2180 0.930 . S
H2175 C2183 0.930 . S
H2176 C2184 0.930 . S
H2177 C2185 0.930 . S
H2178 C2188 0.930 . S
H2179 C2189 0.930 . S
C2180 H2174 0.930 . S
C2180 C2181 1.355 . S
C2180 C2182 1.415 . S
C2181 C2180 1.355 . S
C2181 C2183 1.419 . S
C2182 C2180 1.415 . S
C2182 C2187 1.425 . S
C2182 C2189 1.409 . S
C2183 H2175 0.930 . S
C2183 C2181 1.419 . S
C2183 C2184 1.362 . S
C2184 H2176 0.930 . S
C2184 C2183 1.362 . S
C2184 C2187 1.409 . S
C2185 H2177 0.930 . S
C2185 C2186 1.355 . S
C2185 C2187 1.415 . S
C2186 C2185 1.355 . S
C2186 C2188 1.419 . S
C2187 C2182 1.425 . S
C2187 C2184 1.409 . S
C2187 C2185 1.415 . S
C2188 H2178 0.930 . S
C2188 C2186 1.419 . S
C2188 C2189 1.362 . S
C2189 H2179 0.930 . S
C2189 C2182 1.409 . S
C2189 C2188 1.362 . S
H2190 C2196 0.930 . S
H2191 C2199 0.930 . S
H2192 C2200 0.930 . S
H2193 C2201 0.930 . S
H2194 C2204 0.930 . S
H2195 C2205 0.930 . S
C2196 H2190 0.930 . S
C2196 C2197 1.355 . S
C2196 C2198 1.415 1_554 S
C2197 C2196 1.355 . S
C2197 C2199 1.419 . S
C2198 C2196 1.415 1_556 S
C2198 C2203 1.425 . S
C2198 C2205 1.409 . S
C2199 H2191 0.930 . S
C2199 C2197 1.419 . S
C2199 C2200 1.362 1_554 S
C2200 H2192 0.930 . S
C2200 C2199 1.362 1_556 S
C2200 C2203 1.409 . S
C2201 H2193 0.930 . S
C2201 C2202 1.355 . S
C2201 C2203 1.415 . S
C2202 C2201 1.355 . S
C2202 C2204 1.419 . S
C2203 C2198 1.425 . S
C2203 C2200 1.409 . S
C2203 C2201 1.415 . S
C2204 H2194 0.930 . S
C2204 C2202 1.419 . S
C2204 C2205 1.362 . S
C2205 H2195 0.930 . S
C2205 C2198 1.409 . S
C2205 C2204 1.362 . S
H2206 C2212 0.930 . S
H2207 C2215 0.930 . S
H2208 C2216 0.930 . S
H2209 C2217 0.930 . S
H2210 C2220 0.930 . S
H2211 C2221 0.930 . S
C2212 H2206 0.930 . S
C2212 C2213 1.327 1_556 S
C2212 C2214 1.415 . S
C2213 C2212 1.327 1_554 S
C2213 C2215 1.439 . S
C2214 C2212 1.415 . S
C2214 C2219 1.425 . S
C2214 C2221 1.409 . S
C2215 H2207 0.930 . S
C2215 C2213 1.439 . S
C2215 C2216 1.362 . S
C2216 H2208 0.930 . S
C2216 C2215 1.362 . S
C2216 C2219 1.409 1_554 S
C2217 H2209 0.930 . S
C2217 C2218 1.355 . S
C2217 C2219 1.415 . S
C2218 C2217 1.355 . S
C2218 C2220 1.419 . S
C2219 C2214 1.425 . S
C2219 C2216 1.409 1_556 S
C2219 C2217 1.415 . S
C2220 H2210 0.930 . S
C2220 C2218 1.419 . S
C2220 C2221 1.362 . S
C2221 H2211 0.930 . S
C2221 C2214 1.409 . S
C2221 C2220 1.362 . S
H2222 C2228 0.930 . S
H2223 C2231 0.930 . S
H2224 C2232 0.930 . S
H2225 C2233 0.930 . S
H2226 C2236 0.930 . S
H2227 C2237 0.930 1_556 S
C2228 H2222 0.930 . S
C2228 C2229 1.355 . S
C2228 C2230 1.415 . S
C2229 C2228 1.355 . S
C2229 C2231 1.419 . S
C2230 C2228 1.415 . S
C2230 C2235 1.425 . S
C2230 C2237 1.409 . S
C2231 H2223 0.930 . S
C2231 C2229 1.419 . S
C2231 C2232 1.362 . S
C2232 H2224 0.930 . S
C2232 C2231 1.362 . S
C2232 C2235 1.409 . S
C2233 H2225 0.930 . S
C2233 C2234 1.355 . S
C2233 C2235 1.415 . S
C2234 C2233 1.355 . S
C2234 C2236 1.419 1_554 S
C2235 C2230 1.425 . S
C2235 C2232 1.409 . S
C2235 C2233 1.415 . S
C2236 H2226 0.930 . S
C2236 C2234 1.419 1_556 S
C2236 C2237 1.362 1_556 S
C2237 H2227 0.930 1_554 S
C2237 C2230 1.409 . S
C2237 C2236 1.362 1_554 S
H2238 C2244 0.930 . S
H2239 C2247 0.930 . S
H2240 C2248 0.930 . S
H2241 C2249 0.930 . S
H2242 C2252 0.930 . S
H2243 C2253 0.930 . S
C2244 H2238 0.930 . S
C2244 C2245 1.355 . S
C2244 C2246 1.415 1_554 S
C2245 C2244 1.355 . S
C2245 C2247 1.419 . S
C2246 C2244 1.415 1_556 S
C2246 C2251 1.425 . S
C2246 C2253 1.409 . S
C2247 H2239 0.930 . S
C2247 C2245 1.419 . S
C2247 C2248 1.362 1_554 S
C2248 H2240 0.930 . S
C2248 C2247 1.362 1_556 S
C2248 C2251 1.409 . S
C2249 H2241 0.930 . S
C2249 C2250 1.355 . S
C2249 C2251 1.415 . S
C2250 C2249 1.355 . S
C2250 C2252 1.419 . S
C2251 C2246 1.425 . S
C2251 C2248 1.409 . S
C2251 C2249 1.415 . S
C2252 H2242 0.930 . S
C2252 C2250 1.419 . S
C2252 C2253 1.362 . S
C2253 H2243 0.930 . S
C2253 C2246 1.409 . S
C2253 C2252 1.362 . S
H2254 C2260 0.930 . S
H2255 C2263 0.930 . S
H2256 C2264 0.930 . S
H2257 C2265 0.930 . S
H2258 C2268 0.930 . S
H2259 C2269 0.930 . S
C2260 H2254 0.930 . S
C2260 C2261 1.355 . S
C2260 C2262 1.415 . S
C2261 C2260 1.355 . S
C2261 C2263 1.419 . S
C2262 C2260 1.415 . S
C2262 C2267 1.425 . S
C2262 C2269 1.409 . S
C2263 H2255 0.930 . S
C2263 C2261 1.419 . S
C2263 C2264 1.362 . S
C2264 H2256 0.930 . S
C2264 C2263 1.362 . S
C2264 C2267 1.409 . S
C2265 H2257 0.930 . S
C2265 C2266 1.355 . S
C2265 C2267 1.415 . S
C2266 C2265 1.355 . S
C2266 C2268 1.419 . S
C2267 C2262 1.425 . S
C2267 C2264 1.409 . S
C2267 C2265 1.415 . S
C2268 H2258 0.930 . S
C2268 C2266 1.419 . S
C2268 C2269 1.362 . S
C2269 H2259 0.930 . S
C2269 C2262 1.409 . S
C2269 C2268 1.362 . S
H2270 C2276 0.930 . S
H2271 C2279 0.930 . S
H2272 C2280 0.930 . S
H2273 C2281 0.930 . S
H2274 C2284 0.930 . S
H2275 C2285 0.930 . S
C2276 H2270 0.930 . S
C2276 C2277 1.355 . S
C2276 C2278 1.415 . S
C2277 C2276 1.355 . S
C2277 C2279 1.419 . S
C2278 C2276 1.415 . S
C2278 C2283 1.425 . S
C2278 C2285 1.409 1_554 S
C2279 H2271 0.930 . S
C2279 C2277 1.419 . S
C2279 C2280 1.362 . S
C2280 H2272 0.930 . S
C2280 C2279 1.362 . S
C2280 C2283 1.409 . S
C2281 H2273 0.930 . S
C2281 C2282 1.355 1_554 S
C2281 C2283 1.415 . S
C2282 C2281 1.355 1_556 S
C2282 C2284 1.419 . S
C2283 C2278 1.425 . S
C2283 C2280 1.409 . S
C2283 C2281 1.415 . S
C2284 H2274 0.930 . S
C2284 C2282 1.419 . S
C2284 C2285 1.362 . S
C2285 H2275 0.930 . S
C2285 C2278 1.409 1_556 S
C2285 C2284 1.362 . S
H2286 C2292 0.930 . S
H2287 C2295 0.930 . S
H2288 C2296 0.930 . S
H2289 C2297 0.930 . S
H2290 C2300 0.930 . S
H2291 C2301 0.930 . S
C2292 H2286 0.930 . S
C2292 C2293 1.355 . S
C2292 C2294 1.415 . S
C2293 C2292 1.355 . S
C2293 C2295 1.419 . S
C2294 C2292 1.415 . S
C2294 C2299 1.425 . S
C2294 C2301 1.409 . S
C2295 H2287 0.930 . S
C2295 C2293 1.419 . S
C2295 C2296 1.362 . S
C2296 H2288 0.930 . S
C2296 C2295 1.362 . S
C2296 C2299 1.409 . S
C2297 H2289 0.930 . S
C2297 C2298 1.355 . S
C2297 C2299 1.415 . S
C2298 C2297 1.355 . S
C2298 C2300 1.419 . S
C2299 C2294 1.425 . S
C2299 C2296 1.409 . S
C2299 C2297 1.415 . S
C2300 H2290 0.930 . S
C2300 C2298 1.419 . S
C2300 C2301 1.362 . S
C2301 H2291 0.930 . S
C2301 C2294 1.409 . S
C2301 C2300 1.362 . S
H2302 C2308 0.930 . S
H2303 C2311 0.930 . S
H2304 C2312 0.930 . S
H2305 C2313 0.930 . S
H2306 C2316 0.930 . S
H2307 C2317 0.930 . S
C2308 H2302 0.930 . S
C2308 C2309 1.355 . S
C2308 C2310 1.415 . S
C2309 C2308 1.355 . S
C2309 C2311 1.419 . S
C2310 C2308 1.415 . S
C2310 C2315 1.425 . S
C2310 C2317 1.409 . S
C2311 H2303 0.930 . S
C2311 C2309 1.419 . S
C2311 C2312 1.362 . S
C2312 H2304 0.930 . S
C2312 C2311 1.362 . S
C2312 C2315 1.409 . S
C2313 H2305 0.930 . S
C2313 C2314 1.355 . S
C2313 C2315 1.415 . S
C2314 C2313 1.355 . S
C2314 C2316 1.419 . S
C2315 C2310 1.425 . S
C2315 C2312 1.409 . S
C2315 C2313 1.415 . S
C2316 H2306 0.930 . S
C2316 C2314 1.419 . S
C2316 C2317 1.362 . S
C2317 H2307 0.930 . S
C2317 C2310 1.409 . S
C2317 C2316 1.362 . S
H2318 C2324 0.930 . S
H2319 C2327 0.930 . S
H2320 C2328 0.930 . S
H2321 C2329 0.930 . S
H2322 C2332 0.930 . S
H2323 C2333 0.930 . S
C2324 H2318 0.930 . S
C2324 C2325 1.355 . S
C2324 C2326 1.415 . S
C2325 C2324 1.355 . S
C2325 C2327 1.419 . S
C2326 C2324 1.415 . S
C2326 C2331 1.425 . S
C2326 C2333 1.409 . S
C2327 H2319 0.930 . S
C2327 C2325 1.419 . S
C2327 C2328 1.362 . S
C2328 H2320 0.930 . S
C2328 C2327 1.362 . S
C2328 C2331 1.409 . S
C2329 H2321 0.930 . S
C2329 C2330 1.355 . S
C2329 C2331 1.415 . S
C2330 C2329 1.355 . S
C2330 C2332 1.419 . S
C2331 C2326 1.425 . S
C2331 C2328 1.409 . S
C2331 C2329 1.415 . S
C2332 H2322 0.930 . S
C2332 C2330 1.419 . S
C2332 C2333 1.362 . S
C2333 H2323 0.930 . S
C2333 C2326 1.409 . S
C2333 C2332 1.362 . S
H2334 C2340 0.930 . S
H2335 C2343 0.930 . S
H2336 C2344 0.930 . S
H2337 C2345 0.930 . S
H2338 C2348 0.930 . S
H2339 C2349 0.930 . S
C2340 H2334 0.930 . S
C2340 C2341 1.355 . S
C2340 C2342 1.415 . S
C2341 C2340 1.355 . S
C2341 C2343 1.419 . S
C2342 C2340 1.415 . S
C2342 C2347 1.425 . S
C2342 C2349 1.409 . S
C2343 H2335 0.930 . S
C2343 C2341 1.419 . S
C2343 C2344 1.362 . S
C2344 H2336 0.930 . S
C2344 C2343 1.362 . S
C2344 C2347 1.409 . S
C2345 H2337 0.930 . S
C2345 C2346 1.355 . S
C2345 C2347 1.415 . S
C2346 C2345 1.355 . S
C2346 C2348 1.419 . S
C2347 C2342 1.425 . S
C2347 C2344 1.409 . S
C2347 C2345 1.415 . S
C2348 H2338 0.930 . S
C2348 C2346 1.419 . S
C2348 C2349 1.362 . S
C2349 H2339 0.930 . S
C2349 C2342 1.409 . S
C2349 C2348 1.362 . S
H2350 C2356 0.930 . S
H2351 C2359 0.930 . S
H2352 C2360 0.930 . S
H2353 C2361 0.930 . S
H2354 C2364 0.930 . S
H2355 C2365 0.930 . S
C2356 H2350 0.930 . S
C2356 C2357 1.355 . S
C2356 C2358 1.415 . S
C2357 C2356 1.355 . S
C2357 C2359 1.419 . S
C2358 C2356 1.415 . S
C2358 C2363 1.425 . S
C2358 C2365 1.409 . S
C2359 H2351 0.930 . S
C2359 C2357 1.419 . S
C2359 C2360 1.362 . S
C2360 H2352 0.930 . S
C2360 C2359 1.362 . S
C2360 C2363 1.409 . S
C2361 H2353 0.930 . S
C2361 C2362 1.355 . S
C2361 C2363 1.415 . S
C2362 C2361 1.355 . S
C2362 C2364 1.419 . S
C2363 C2358 1.425 . S
C2363 C2360 1.409 . S
C2363 C2361 1.415 . S
C2364 H2354 0.930 . S
C2364 C2362 1.419 . S
C2364 C2365 1.362 . S
C2365 H2355 0.930 . S
C2365 C2358 1.409 . S
C2365 C2364 1.362 . S
H2366 C2372 0.930 1_455 S
H2367 C2375 0.930 . S
H2368 C2376 0.930 . S
H2369 C2377 0.930 . S
H2370 C2380 0.930 . S
H2371 C2381 0.930 . S
C2372 H2366 0.930 1_655 S
C2372 C2373 1.355 . S
C2372 C2374 1.415 . S
C2373 C2372 1.355 . S
C2373 C2375 1.419 . S
C2374 C2372 1.415 . S
C2374 C2379 1.425 . S
C2374 C2381 1.409 . S
C2375 H2367 0.930 . S
C2375 C2373 1.419 . S
C2375 C2376 1.362 . S
C2376 H2368 0.930 . S
C2376 C2375 1.362 . S
C2376 C2379 1.409 . S
C2377 H2369 0.930 . S
C2377 C2378 1.355 . S
C2377 C2379 1.415 . S
C2378 C2377 1.355 . S
C2378 C2380 1.419 . S
C2379 C2374 1.425 . S
C2379 C2376 1.409 . S
C2379 C2377 1.415 . S
C2380 H2370 0.930 . S
C2380 C2378 1.419 . S
C2380 C2381 1.362 . S
C2381 H2371 0.930 . S
C2381 C2374 1.409 . S
C2381 C2380 1.362 . S
H2382 C2388 0.930 . S
H2383 C2391 0.930 . S
H2384 C2392 0.930 . S
H2385 C2393 0.930 . S
H2386 C2396 0.930 . S
H2387 C2397 0.930 . S
C2388 H2382 0.930 . S
C2388 C2389 1.355 . S
C2388 C2390 1.415 . S
C2389 C2388 1.355 . S
C2389 C2391 1.419 . S
C2390 C2388 1.415 . S
C2390 C2395 1.425 . S
C2390 C2397 1.409 . S
C2391 H2383 0.930 . S
C2391 C2389 1.419 . S
C2391 C2392 1.362 . S
C2392 H2384 0.930 . S
C2392 C2391 1.362 . S
C2392 C2395 1.409 . S
C2393 H2385 0.930 . S
C2393 C2394 1.355 . S
C2393 C2395 1.415 . S
C2394 C2393 1.355 . S
C2394 C2396 1.419 . S
C2395 C2390 1.425 . S
C2395 C2392 1.409 . S
C2395 C2393 1.415 . S
C2396 H2386 0.930 . S
C2396 C2394 1.419 . S
C2396 C2397 1.362 . S
C2397 H2387 0.930 . S
C2397 C2390 1.409 . S
C2397 C2396 1.362 . S
H2398 C2404 0.930 . S
H2399 C2407 0.930 . S
H2400 C2408 0.930 . S
H2401 C2409 0.930 . S
H2402 C2412 0.930 . S
H2403 C2413 0.930 . S
C2404 H2398 0.930 . S
C2404 C2405 1.355 . S
C2404 C2406 1.415 . S
C2405 C2404 1.355 . S
C2405 C2407 1.419 . S
C2406 C2404 1.415 . S
C2406 C2411 1.425 . S
C2406 C2413 1.409 . S
C2407 H2399 0.930 . S
C2407 C2405 1.419 . S
C2407 C2408 1.362 . S
C2408 H2400 0.930 . S
C2408 C2407 1.362 . S
C2408 C2411 1.409 . S
C2409 H2401 0.930 . S
C2409 C2410 1.355 . S
C2409 C2411 1.415 . S
C2410 C2409 1.355 . S
C2410 C2412 1.419 . S
C2411 C2406 1.425 . S
C2411 C2408 1.409 . S
C2411 C2409 1.415 . S
C2412 H2402 0.930 . S
C2412 C2410 1.419 . S
C2412 C2413 1.362 . S
C2413 H2403 0.930 . S
C2413 C2406 1.409 . S
C2413 C2412 1.362 . S
H2414 C2420 0.930 . S
H2415 C2423 0.930 . S
H2416 C2424 0.930 . S
H2417 C2425 0.930 . S
H2418 C2428 0.930 . S
H2419 C2429 0.930 . S
C2420 H2414 0.930 . S
C2420 C2421 1.355 . S
C2420 C2422 1.415 . S
C2421 C2420 1.355 . S
C2421 C2423 1.419 . S
C2422 C2420 1.415 . S
C2422 C2427 1.425 . S
C2422 C2429 1.409 . S
C2423 H2415 0.930 . S
C2423 C2421 1.419 . S
C2423 C2424 1.362 . S
C2424 H2416 0.930 . S
C2424 C2423 1.362 . S
C2424 C2427 1.409 . S
C2425 H2417 0.930 . S
C2425 C2426 1.355 . S
C2425 C2427 1.415 . S
C2426 C2425 1.355 . S
C2426 C2428 1.419 . S
C2427 C2422 1.425 . S
C2427 C2424 1.409 . S
C2427 C2425 1.415 . S
C2428 H2418 0.930 . S
C2428 C2426 1.419 . S
C2428 C2429 1.362 . S
C2429 H2419 0.930 . S
C2429 C2422 1.409 . S
C2429 C2428 1.362 . S
H2430 C2436 0.930 . S
H2431 C2439 0.930 . S
H2432 C2440 0.930 . S
H2433 C2441 0.930 . S
H2434 C2444 0.930 . S
H2435 C2445 0.930 . S
C2436 H2430 0.930 . S
C2436 C2437 1.355 . S
C2436 C2438 1.415 . S
C2437 C2436 1.355 . S
C2437 C2439 1.419 . S
C2438 C2436 1.415 . S
C2438 C2443 1.425 . S
C2438 C2445 1.409 . S
C2439 H2431 0.930 . S
C2439 C2437 1.419 . S
C2439 C2440 1.362 . S
C2440 H2432 0.930 . S
C2440 C2439 1.362 . S
C2440 C2443 1.409 . S
C2441 H2433 0.930 . S
C2441 C2442 1.355 . S
C2441 C2443 1.415 . S
C2442 C2441 1.355 . S
C2442 C2444 1.419 . S
C2443 C2438 1.425 . S
C2443 C2440 1.409 . S
C2443 C2441 1.415 . S
C2444 H2434 0.930 . S
C2444 C2442 1.419 . S
C2444 C2445 1.362 . S
C2445 H2435 0.930 . S
C2445 C2438 1.409 . S
C2445 C2444 1.362 . S
H2446 C2452 0.930 . S
H2447 C2455 0.930 . S
H2448 C2456 0.930 . S
H2449 C2457 0.930 . S
H2450 C2460 0.930 . S
H2451 C2461 0.930 . S
C2452 H2446 0.930 . S
C2452 C2453 1.355 . S
C2452 C2454 1.415 . S
C2453 C2452 1.355 . S
C2453 C2455 1.419 . S
C2454 C2452 1.415 . S
C2454 C2459 1.425 . S
C2454 C2461 1.409 1_455 S
C2455 H2447 0.930 . S
C2455 C2453 1.419 . S
C2455 C2456 1.362 . S
C2456 H2448 0.930 . S
C2456 C2455 1.362 . S
C2456 C2459 1.409 . S
C2457 H2449 0.930 . S
C2457 C2458 1.355 1_455 S
C2457 C2459 1.415 . S
C2458 C2457 1.355 1_655 S
C2458 C2460 1.419 . S
C2459 C2454 1.425 . S
C2459 C2456 1.409 . S
C2459 C2457 1.415 . S
C2460 H2450 0.930 . S
C2460 C2458 1.419 . S
C2460 C2461 1.362 . S
C2461 H2451 0.930 . S
C2461 C2454 1.409 1_655 S
C2461 C2460 1.362 . S
H2462 C2468 0.930 . S
H2463 C2471 0.930 . S
H2464 C2472 0.930 . S
H2465 C2473 0.930 . S
H2466 C2476 0.930 . S
H2467 C2477 0.930 . S
C2468 H2462 0.930 . S
C2468 C2469 1.355 . S
C2468 C2470 1.415 . S
C2469 C2468 1.355 . S
C2469 C2471 1.419 . S
C2470 C2468 1.415 . S
C2470 C2475 1.425 . S
C2470 C2477 1.409 . S
C2471 H2463 0.930 . S
C2471 C2469 1.419 . S
C2471 C2472 1.362 . S
C2472 H2464 0.930 . S
C2472 C2471 1.362 . S
C2472 C2475 1.409 . S
C2473 H2465 0.930 . S
C2473 C2474 1.355 . S
C2473 C2475 1.415 . S
C2474 C2473 1.355 . S
C2474 C2476 1.419 . S
C2475 C2470 1.425 . S
C2475 C2472 1.409 . S
C2475 C2473 1.415 . S
C2476 H2466 0.930 . S
C2476 C2474 1.419 . S
C2476 C2477 1.362 . S
C2477 H2467 0.930 . S
C2477 C2470 1.409 . S
C2477 C2476 1.362 . S
H2478 C2484 0.930 . S
H2479 C2487 0.930 . S
H2480 C2488 0.930 . S
H2481 C2489 0.930 . S
H2482 C2492 0.930 . S
H2483 C2493 0.930 . S
C2484 H2478 0.930 . S
C2484 C2485 1.355 . S
C2484 C2486 1.415 . S
C2485 C2484 1.355 . S
C2485 C2487 1.419 . S
C2486 C2484 1.415 . S
C2486 C2491 1.425 . S
C2486 C2493 1.409 . S
C2487 H2479 0.930 . S
C2487 C2485 1.419 . S
C2487 C2488 1.362 . S
C2488 H2480 0.930 . S
C2488 C2487 1.362 . S
C2488 C2491 1.409 . S
C2489 H2481 0.930 . S
C2489 C2490 1.355 . S
C2489 C2491 1.415 . S
C2490 C2489 1.355 . S
C2490 C2492 1.419 . S
C2491 C2486 1.425 . S
C2491 C2488 1.409 . S
C2491 C2489 1.415 . S
C2492 H2482 0.930 . S
C2492 C2490 1.419 . S
C2492 C2493 1.362 . S
C2493 H2483 0.930 . S
C2493 C2486 1.409 . S
C2493 C2492 1.362 . S
H2494 C2500 0.930 . S
H2495 C2503 0.930 . S
H2496 C2504 0.930 . S
H2497 C2505 0.930 . S
H2498 C2508 0.930 . S
H2499 C2509 0.930 . S
C2500 H2494 0.930 . S
C2500 C2501 1.355 . S
C2500 C2502 1.415 . S
C2501 C2500 1.355 . S
C2501 C2503 1.419 . S
C2502 C2500 1.415 . S
C2502 C2507 1.425 . S
C2502 C2509 1.409 . S
C2503 H2495 0.930 . S
C2503 C2501 1.419 . S
C2503 C2504 1.362 . S
C2504 H2496 0.930 . S
C2504 C2503 1.362 . S
C2504 C2507 1.409 . S
C2505 H2497 0.930 . S
C2505 C2506 1.355 . S
C2505 C2507 1.415 . S
C2506 C2505 1.355 . S
C2506 C2508 1.419 . S
C2507 C2502 1.425 . S
C2507 C2504 1.409 . S
C2507 C2505 1.415 . S
C2508 H2498 0.930 . S
C2508 C2506 1.419 . S
C2508 C2509 1.362 . S
C2509 H2499 0.930 . S
C2509 C2502 1.409 . S
C2509 C2508 1.362 . S
H2510 C2516 0.930 . S
H2511 C2519 0.930 . S
H2512 C2520 0.930 . S
H2513 C2521 0.930 . S
H2514 C2524 0.930 . S
H2515 C2525 0.930 . S
C2516 H2510 0.930 . S
C2516 C2517 1.355 . S
C2516 C2518 1.415 . S
C2517 C2516 1.355 . S
C2517 C2519 1.419 . S
C2518 C2516 1.415 . S
C2518 C2523 1.425 . S
C2518 C2525 1.409 . S
C2519 H2511 0.930 . S
C2519 C2517 1.419 . S
C2519 C2520 1.362 . S
C2520 H2512 0.930 . S
C2520 C2519 1.362 . S
C2520 C2523 1.409 . S
C2521 H2513 0.930 . S
C2521 C2522 1.355 . S
C2521 C2523 1.415 . S
C2522 C2521 1.355 . S
C2522 C2524 1.419 . S
C2523 C2518 1.425 . S
C2523 C2520 1.409 . S
C2523 C2521 1.415 . S
C2524 H2514 0.930 . S
C2524 C2522 1.419 . S
C2524 C2525 1.362 . S
C2525 H2515 0.930 . S
C2525 C2518 1.409 . S
C2525 C2524 1.362 . S
H2526 C2532 0.930 . S
H2527 C2535 0.930 . S
H2528 C2536 0.930 1_565 S
H2529 C2537 0.930 1_565 S
H2530 C2540 0.930 . S
H2531 C2541 0.930 . S
C2532 H2526 0.930 . S
C2532 C2533 1.355 . S
C2532 C2534 1.415 . S
C2533 C2532 1.355 . S
C2533 C2535 1.419 . S
C2534 C2532 1.415 . S
C2534 C2539 1.425 . S
C2534 C2541 1.409 . S
C2535 H2527 0.930 . S
C2535 C2533 1.419 . S
C2535 C2536 1.362 . S
C2536 H2528 0.930 1_545 S
C2536 C2535 1.362 . S
C2536 C2539 1.409 . S
C2537 H2529 0.930 1_545 S
C2537 C2538 1.355 . S
C2537 C2539 1.415 . S
C2538 C2537 1.355 . S
C2538 C2540 1.419 . S
C2539 C2534 1.425 . S
C2539 C2536 1.409 . S
C2539 C2537 1.415 . S
C2540 H2530 0.930 . S
C2540 C2538 1.419 . S
C2540 C2541 1.362 . S
C2541 H2531 0.930 . S
C2541 C2534 1.409 . S
C2541 C2540 1.362 . S
H2542 C2548 0.930 . S
H2543 C2551 0.930 . S
H2544 C2552 0.930 . S
H2545 C2553 0.930 . S
H2546 C2556 0.930 1_455 S
H2547 C2557 0.930 1_455 S
C2548 H2542 0.930 . S
C2548 C2549 1.355 . S
C2548 C2550 1.415 . S
C2549 C2548 1.355 . S
C2549 C2551 1.419 . S
C2550 C2548 1.415 . S
C2550 C2555 1.425 . S
C2550 C2557 1.409 . S
C2551 H2543 0.930 . S
C2551 C2549 1.419 . S
C2551 C2552 1.362 . S
C2552 H2544 0.930 . S
C2552 C2551 1.362 . S
C2552 C2555 1.409 . S
C2553 H2545 0.930 . S
C2553 C2554 1.355 . S
C2553 C2555 1.415 . S
C2554 C2553 1.355 . S
C2554 C2556 1.419 . S
C2555 C2550 1.425 . S
C2555 C2552 1.409 . S
C2555 C2553 1.415 . S
C2556 H2546 0.930 1_655 S
C2556 C2554 1.419 . S
C2556 C2557 1.362 . S
C2557 H2547 0.930 1_655 S
C2557 C2550 1.409 . S
C2557 C2556 1.362 . S
H2558 C2564 0.930 . S
H2559 C2567 0.930 . S
H2560 C2568 0.930 . S
H2561 C2569 0.930 . S
H2562 C2572 0.930 . S
H2563 C2573 0.930 . S
C2564 H2558 0.930 . S
C2564 C2565 1.355 . S
C2564 C2566 1.415 . S
C2565 C2564 1.355 . S
C2565 C2567 1.419 . S
C2566 C2564 1.415 . S
C2566 C2571 1.425 . S
C2566 C2573 1.409 . S
C2567 H2559 0.930 . S
C2567 C2565 1.419 . S
C2567 C2568 1.362 . S
C2568 H2560 0.930 . S
C2568 C2567 1.362 . S
C2568 C2571 1.409 . S
C2569 H2561 0.930 . S
C2569 C2570 1.355 . S
C2569 C2571 1.415 . S
C2570 C2569 1.355 . S
C2570 C2572 1.419 . S
C2571 C2566 1.425 . S
C2571 C2568 1.409 . S
C2571 C2569 1.415 . S
C2572 H2562 0.930 . S
C2572 C2570 1.419 . S
C2572 C2573 1.362 . S
C2573 H2563 0.930 . S
C2573 C2566 1.409 . S
C2573 C2572 1.362 . S
H2574 C2580 0.930 . S
H2575 C2583 0.930 . S
H2576 C2584 0.930 . S
H2577 C2585 0.930 . S
H2578 C2588 0.930 . S
H2579 C2589 0.930 . S
C2580 H2574 0.930 . S
C2580 C2581 1.355 . S
C2580 C2582 1.415 . S
C2581 C2580 1.355 . S
C2581 C2583 1.419 . S
C2582 C2580 1.415 . S
C2582 C2587 1.425 . S
C2582 C2589 1.409 . S
C2583 H2575 0.930 . S
C2583 C2581 1.419 . S
C2583 C2584 1.362 . S
C2584 H2576 0.930 . S
C2584 C2583 1.362 . S
C2584 C2587 1.409 . S
C2585 H2577 0.930 . S
C2585 C2586 1.355 . S
C2585 C2587 1.415 . S
C2586 C2585 1.355 . S
C2586 C2588 1.419 . S
C2587 C2582 1.425 . S
C2587 C2584 1.409 . S
C2587 C2585 1.415 . S
C2588 H2578 0.930 . S
C2588 C2586 1.419 . S
C2588 C2589 1.362 . S
C2589 H2579 0.930 . S
C2589 C2582 1.409 . S
C2589 C2588 1.362 . S
H2590 C2596 0.930 . S
H2591 C2599 0.930 . S
H2592 C2600 0.930 . S
H2593 C2601 0.930 . S
H2594 C2604 0.930 . S
H2595 C2605 0.930 . S
C2596 H2590 0.930 . S
C2596 C2597 1.355 . S
C2596 C2598 1.415 . S
C2597 C2596 1.355 . S
C2597 C2599 1.419 . S
C2598 C2596 1.415 . S
C2598 C2603 1.425 . S
C2598 C2605 1.409 . S
C2599 H2591 0.930 . S
C2599 C2597 1.419 . S
C2599 C2600 1.362 . S
C2600 H2592 0.930 . S
C2600 C2599 1.362 . S
C2600 C2603 1.409 . S
C2601 H2593 0.930 . S
C2601 C2602 1.355 . S
C2601 C2603 1.415 . S
C2602 C2601 1.355 . S
C2602 C2604 1.419 . S
C2603 C2598 1.425 . S
C2603 C2600 1.409 . S
C2603 C2601 1.415 . S
C2604 H2594 0.930 . S
C2604 C2602 1.419 . S
C2604 C2605 1.362 . S
C2605 H2595 0.930 . S
C2605 C2598 1.409 . S
C2605 C2604 1.362 . S
H2606 C2612 0.930 . S
H2607 C2615 0.930 . S
H2608 C2616 0.930 . S
H2609 C2617 0.930 . S
H2610 C2620 0.930 . S
H2611 C2621 0.930 . S
C2612 H2606 0.930 . S
C2612 C2613 1.355 . S
C2612 C2614 1.415 . S
C2613 C2612 1.355 . S
C2613 C2615 1.419 . S
C2614 C2612 1.415 . S
C2614 C2619 1.425 . S
C2614 C2621 1.409 . S
C2615 H2607 0.930 . S
C2615 C2613 1.419 . S
C2615 C2616 1.362 . S
C2616 H2608 0.930 . S
C2616 C2615 1.362 . S
C2616 C2619 1.409 . S
C2617 H2609 0.930 . S
C2617 C2618 1.355 . S
C2617 C2619 1.415 . S
C2618 C2617 1.355 . S
C2618 C2620 1.419 . S
C2619 C2614 1.425 . S
C2619 C2616 1.409 . S
C2619 C2617 1.415 . S
C2620 H2610 0.930 . S
C2620 C2618 1.419 . S
C2620 C2621 1.362 . S
C2621 H2611 0.930 . S
C2621 C2614 1.409 . S
C2621 C2620 1.362 . S
H2622 C2628 0.930 . S
H2623 C2631 0.930 . S
H2624 C2632 0.930 . S
H2625 C2633 0.930 . S
H2626 C2636 0.930 . S
H2627 C2637 0.930 . S
C2628 H2622 0.930 . S
C2628 C2629 1.355 . S
C2628 C2630 1.415 . S
C2629 C2628 1.355 . S
C2629 C2631 1.419 . S
C2630 C2628 1.415 . S
C2630 C2635 1.425 . S
C2630 C2637 1.409 . S
C2631 H2623 0.930 . S
C2631 C2629 1.419 . S
C2631 C2632 1.362 . S
C2632 H2624 0.930 . S
C2632 C2631 1.362 . S
C2632 C2635 1.409 . S
C2633 H2625 0.930 . S
C2633 C2634 1.355 . S
C2633 C2635 1.415 . S
C2634 C2633 1.355 . S
C2634 C2636 1.419 . S
C2635 C2630 1.425 . S
C2635 C2632 1.409 . S
C2635 C2633 1.415 . S
C2636 H2626 0.930 . S
C2636 C2634 1.419 . S
C2636 C2637 1.362 . S
C2637 H2627 0.930 . S
C2637 C2630 1.409 . S
C2637 C2636 1.362 . S
H2638 C2644 0.930 . S
H2639 C2647 0.930 . S
H2640 C2648 0.930 . S
H2641 C2649 0.930 . S
H2642 C2652 0.930 . S
H2643 C2653 0.930 . S
C2644 H2638 0.930 . S
C2644 C2645 1.355 . S
C2644 C2646 1.415 . S
C2645 C2644 1.355 . S
C2645 C2647 1.419 . S
C2646 C2644 1.415 . S
C2646 C2651 1.425 . S
C2646 C2653 1.409 . S
C2647 H2639 0.930 . S
C2647 C2645 1.419 . S
C2647 C2648 1.362 . S
C2648 H2640 0.930 . S
C2648 C2647 1.362 . S
C2648 C2651 1.409 . S
C2649 H2641 0.930 . S
C2649 C2650 1.355 . S
C2649 C2651 1.415 . S
C2650 C2649 1.355 . S
C2650 C2652 1.419 . S
C2651 C2646 1.425 . S
C2651 C2648 1.409 . S
C2651 C2649 1.415 . S
C2652 H2642 0.930 . S
C2652 C2650 1.419 . S
C2652 C2653 1.362 . S
C2653 H2643 0.930 . S
C2653 C2646 1.409 . S
C2653 C2652 1.362 . S
H2654 C2660 0.930 . S
H2655 C2663 0.930 1_655 S
H2656 C2664 0.930 . S
H2657 C2665 0.930 . S
H2658 C2668 0.930 . S
H2659 C2669 0.930 . S
C2660 H2654 0.930 . S
C2660 C2661 1.355 . S
C2660 C2662 1.415 . S
C2661 C2660 1.355 . S
C2661 C2663 1.419 . S
C2662 C2660 1.415 . S
C2662 C2667 1.425 . S
C2662 C2669 1.409 . S
C2663 H2655 0.930 1_455 S
C2663 C2661 1.419 . S
C2663 C2664 1.362 . S
C2664 H2656 0.930 . S
C2664 C2663 1.362 . S
C2664 C2667 1.409 . S
C2665 H2657 0.930 . S
C2665 C2666 1.355 . S
C2665 C2667 1.415 . S
C2666 C2665 1.355 . S
C2666 C2668 1.419 . S
C2667 C2662 1.425 . S
C2667 C2664 1.409 . S
C2667 C2665 1.415 . S
C2668 H2658 0.930 . S
C2668 C2666 1.419 . S
C2668 C2669 1.362 . S
C2669 H2659 0.930 . S
C2669 C2662 1.409 . S
C2669 C2668 1.362 . S
H2670 C2676 0.930 . S
H2671 C2679 0.930 . S
H2672 C2680 0.919 1_455 S
H2673 C2681 0.930 1_455 S
H2674 C2684 0.930 . S
H2675 C2685 0.930 . S
C2676 H2670 0.930 . S
C2676 C2677 1.355 . S
C2676 C2678 1.415 . S
C2677 C2676 1.355 . S
C2677 C2679 1.419 . S
C2678 C2676 1.415 . S
C2678 C2683 1.425 . S
C2678 C2685 1.409 . S
C2679 H2671 0.930 . S
C2679 C2677 1.419 . S
C2679 C2680 1.362 . S
C2680 H2672 0.919 1_655 S
C2680 C2679 1.362 . S
C2680 C2683 1.409 . S
C2681 H2673 0.930 1_655 S
C2681 C2682 1.355 . S
C2681 C2683 1.415 . S
C2682 C2681 1.355 . S
C2682 C2684 1.419 . S
C2683 C2678 1.425 . S
C2683 C2680 1.409 . S
C2683 C2681 1.415 . S
C2684 H2674 0.930 . S
C2684 C2682 1.419 . S
C2684 C2685 1.362 . S
C2685 H2675 0.930 . S
C2685 C2678 1.409 . S
C2685 C2684 1.362 . S
H2686 C2692 0.930 . S
H2687 C2695 0.930 . S
H2688 C2696 0.930 . S
H2689 C2697 0.930 . S
H2690 C2700 0.930 . S
H2691 C2701 0.930 . S
C2692 H2686 0.930 . S
C2692 C2693 1.355 . S
C2692 C2694 1.415 . S
C2693 C2692 1.355 . S
C2693 C2695 1.419 . S
C2694 C2692 1.415 . S
C2694 C2699 1.425 . S
C2694 C2701 1.409 . S
C2695 H2687 0.930 . S
C2695 C2693 1.419 . S
C2695 C2696 1.362 . S
C2696 H2688 0.930 . S
C2696 C2695 1.362 . S
C2696 C2699 1.409 . S
C2697 H2689 0.930 . S
C2697 C2698 1.355 . S
C2697 C2699 1.415 . S
C2698 C2697 1.355 . S
C2698 C2700 1.419 . S
C2699 C2694 1.425 . S
C2699 C2696 1.409 . S
C2699 C2697 1.415 . S
C2700 H2690 0.930 . S
C2700 C2698 1.419 . S
C2700 C2701 1.362 . S
C2701 H2691 0.930 . S
C2701 C2694 1.409 . S
C2701 C2700 1.362 . S
H2702 C2708 0.930 . S
H2703 C2711 0.930 . S
H2704 C2712 0.930 . S
H2705 C2713 0.930 . S
H2706 C2716 0.914 1_565 S
H2707 C2717 0.930 . S
C2708 H2702 0.930 . S
C2708 C2709 1.355 . S
C2708 C2710 1.415 . S
C2709 C2708 1.355 . S
C2709 C2711 1.419 . S
C2710 C2708 1.415 . S
C2710 C2715 1.425 . S
C2710 C2717 1.409 . S
C2711 H2703 0.930 . S
C2711 C2709 1.419 . S
C2711 C2712 1.362 . S
C2712 H2704 0.930 . S
C2712 C2711 1.362 . S
C2712 C2715 1.409 . S
C2713 H2705 0.930 . S
C2713 C2714 1.355 . S
C2713 C2715 1.415 . S
C2714 C2713 1.355 . S
C2714 C2716 1.442 . S
C2715 C2710 1.425 . S
C2715 C2712 1.409 . S
C2715 C2713 1.415 . S
C2716 H2706 0.914 1_545 S
C2716 C2714 1.442 . S
C2716 C2717 1.357 . S
C2717 H2707 0.930 . S
C2717 C2710 1.409 . S
C2717 C2716 1.357 . S
C1573 C8 1.153 . S
C1578 C963 1.179 . S
C1589 C18 1.493 . S
C1594 C1043 1.504 . S
C1610 C1111 1.346 . S
C1605 C31 1.255 . S
C1621 C34 1.660 1_556 S
C1626 C1191 1.665 . S
C1637 C5 1.445 . S
C1642 C1265 1.531 . S
C1653 C21 1.576 . S
C1658 C1333 1.495 . S
C1669 C47 1.135 1_556 S
C1674 C1259 1.159 . S
C1690 C1339 1.421 . S
C1685 C57 1.355 . S
C1706 C1185 1.307 . S
C1701 C70 1.239 1_556 S
C1717 C73 1.639 . S
C1722 C1117 1.679 1_545 S
C1738 C969 1.515 . S
C1733 C44 1.464 . S
C1749 C60 1.395 . S
C1754 C1037 1.419 . S
C1765 C86 1.440 . S
C1770 C1407 1.328 . S
C1781 C96 1.528 . S
C1786 C1487 1.536 . S
C1802 C1555 1.528 . S
C1797 C109 1.578 . S
C1813 C112 1.926 . S
C1818 C303 1.837 . S
C1829 C83 1.709 . S
C1834 C377 1.663 . S
C1845 C99 1.618 . S
C1850 C445 1.532 . S
C1861 C125 1.107 . S
C1866 C371 1.088 . S
C1877 C135 1.453 . S
C1882 C451 1.464 . S
C1898 C297 1.405 . S
C1893 C148 1.406 . S
C1914 C1561 1.811 . S
C1909 C151 1.839 . S
C1930 C1413 1.513 . S
C1925 C122 1.495 . S
C1946 C1481 1.450 . S
C1941 C138 1.455 . S
C1957 C164 1.371 . S
C1962 C519 1.302 . S
C1973 C174 1.545 . S
C1978 C599 1.585 . S
C1989 C187 1.581 . S
C1994 C667 1.550 . S
C2005 C190 1.998 . S
C2010 C747 1.902 . S
C2026 C821 1.638 . S
C2021 C161 1.679 . S
C2042 C889 1.557 . S
C2037 C177 1.665 . S
C2058 C815 1.263 . S
C2053 C203 1.248 . S
C2074 C895 1.440 . S
C2069 C213 1.379 . S
C2085 C226 1.323 . S
C2090 C741 1.337 . S
C2106 C673 1.751 . S
C2101 C229 1.733 . S
C2117 C200 1.552 . S
C2122 C525 1.563 . S
C2138 C593 1.421 . S
C2133 C216 1.428 . S
C2154 C273 1.861 . S
C2149 C0 1.800 . S
C2165 C23 1.412 . S
C2170 C347 1.370 . S
C2186 C433 1.553 . S
C2181 C36 1.551 . S
C2202 C507 1.300 . S
C2197 C26 1.270 . S
C2218 C569 1.565 . S
C2213 C10 1.589 . S
C2234 C655 1.529 1_554 S
C2229 C13 1.490 . S
C2245 C39 1.974 . S
C2250 C643 1.987 . S
C2261 C62 1.652 . S
C2266 C495 1.537 . S
C2277 C75 1.781 . S
C2282 C581 1.702 . S
C2293 C65 1.413 . S
C2298 C359 1.481 . S
C2314 C421 1.667 . S
C2309 C49 1.805 . S
C2325 C52 1.683 . S
C2330 C285 1.756 . S
C2346 C717 1.806 . S
C2341 C78 1.763 . S
C2357 C101 1.507 1_545 S
C2362 C791 1.509 . S
C2373 C114 1.569 1_655 S
C2378 C877 1.543 . S
C2394 C951 1.031 . S
C2389 C104 1.018 . S
C2405 C88 1.471 . S
C2410 C1013 1.426 . S
C2421 C91 1.301 . S
C2426 C1099 1.297 . S
C2437 C117 1.691 . S
C2442 C1087 1.704 1_565 S
C2453 C140 1.332 . S
C2458 C939 1.320 . S
C2474 C1025 1.666 . S
C2469 C153 1.709 . S
C2485 C143 1.504 . S
C2490 C803 1.517 . S
C2501 C127 1.809 1_545 S
C2506 C865 1.686 . S
C2522 C729 1.824 . S
C2517 C130 1.791 . S
C2538 C1161 1.660 . S
C2533 C156 1.628 . S
C2549 C179 1.199 . S
C2554 C1235 1.166 . S
C2565 C192 1.455 . S
C2570 C1321 1.428 . S
C2586 C1395 1.220 . S
C2581 C182 1.214 . S
C2602 C1457 1.563 . S
C2597 C166 1.606 1_565 S
C2613 C169 1.555 . S
C2618 C1543 1.596 . S
C2629 C195 1.939 . S
C2634 C1531 1.933 . S
C2645 C218 1.761 1_565 S
C2650 C1383 1.672 . S
C2666 C1469 1.760 . S
C2661 C231 1.815 1_455 S
C2682 C1247 1.129 . S
C2677 C221 1.086 . S
C2698 C1309 1.558 . S
C2693 C205 1.684 . S
C2709 C208 1.386 . S
C2714 C1173 1.408 1_545 S
