# Generated by pormake.
# Topology eea, (3,6)-cn, num edge types: 1
# Building blocks:
#     Node 0, Type 0, BuildingBlock: ESEHIV_clean_linker_0, # of connection points: 3
#     Node 1, Type 0, BuildingBlock: ESEHIV_clean_linker_0, # of connection points: 3
#     Node 2, Type 0, BuildingBlock: ESEHIV_clean_linker_0, # of connection points: 3
#     Node 3, Type 0, BuildingBlock: ESEHIV_clean_linker_0, # of connection points: 3
#     Node 4, Type 0, BuildingBlock: ESEHIV_clean_linker_0, # of connection points: 3
#     Node 5, Type 0, BuildingBlock: ESEHIV_clean_linker_0, # of connection points: 3
#     Node 6, Type 0, BuildingBlock: ESEHIV_clean_linker_0, # of connection points: 3
#     Node 7, Type 0, BuildingBlock: ESEHIV_clean_linker_0, # of connection points: 3
#     Node 8, Type 0, BuildingBlock: ESEHIV_clean_linker_0, # of connection points: 3
#     Node 9, Type 0, BuildingBlock: ESEHIV_clean_linker_0, # of connection points: 3
#     Node 10, Type 0, BuildingBlock: ESEHIV_clean_linker_0, # of connection points: 3
#     Node 11, Type 0, BuildingBlock: ESEHIV_clean_linker_0, # of connection points: 3
#     Node 12, Type 0, BuildingBlock: ESEHIV_clean_linker_0, # of connection points: 3
#     Node 13, Type 0, BuildingBlock: ESEHIV_clean_linker_0, # of connection points: 3
#     Node 14, Type 0, BuildingBlock: ESEHIV_clean_linker_0, # of connection points: 3
#     Node 15, Type 0, BuildingBlock: ESEHIV_clean_linker_0, # of connection points: 3
#     Node 16, Type 0, BuildingBlock: ESEHIV_clean_linker_0, # of connection points: 3
#     Node 17, Type 0, BuildingBlock: ESEHIV_clean_linker_0, # of connection points: 3
#     Node 18, Type 1, BuildingBlock: KUMBUR_clean_sbu_0, # of connection points: 6
#     Node 19, Type 1, BuildingBlock: KUMBUR_clean_sbu_0, # of connection points: 6
#     Node 20, Type 1, BuildingBlock: KUMBUR_clean_sbu_0, # of connection points: 6
#     Node 21, Type 1, BuildingBlock: KUMBUR_clean_sbu_0, # of connection points: 6
#     Node 22, Type 1, BuildingBlock: KUMBUR_clean_sbu_0, # of connection points: 6
#     Node 23, Type 1, BuildingBlock: KUMBUR_clean_sbu_0, # of connection points: 6
#     Node 24, Type 1, BuildingBlock: KUMBUR_clean_sbu_0, # of connection points: 6
#     Node 25, Type 1, BuildingBlock: KUMBUR_clean_sbu_0, # of connection points: 6
#     Node 26, Type 1, BuildingBlock: KUMBUR_clean_sbu_0, # of connection points: 6
#     Edge 27, Type (0, 1), BuildingBlock: XUDNAN_clean_linker_2, # of connection points: 2
#     Edge 28, Type (0, 1), BuildingBlock: XUDNAN_clean_linker_2, # of connection points: 2
#     Edge 29, Type (0, 1), BuildingBlock: XUDNAN_clean_linker_2, # of connection points: 2
#     Edge 30, Type (0, 1), BuildingBlock: XUDNAN_clean_linker_2, # of connection points: 2
#     Edge 31, Type (0, 1), BuildingBlock: XUDNAN_clean_linker_2, # of connection points: 2
#     Edge 32, Type (0, 1), BuildingBlock: XUDNAN_clean_linker_2, # of connection points: 2
#     Edge 33, Type (0, 1), BuildingBlock: XUDNAN_clean_linker_2, # of connection points: 2
#     Edge 34, Type (0, 1), BuildingBlock: XUDNAN_clean_linker_2, # of connection points: 2
#     Edge 35, Type (0, 1), BuildingBlock: XUDNAN_clean_linker_2, # of connection points: 2
#     Edge 36, Type (0, 1), BuildingBlock: XUDNAN_clean_linker_2, # of connection points: 2
#     Edge 37, Type (0, 1), BuildingBlock: XUDNAN_clean_linker_2, # of connection points: 2
#     Edge 38, Type (0, 1), BuildingBlock: XUDNAN_clean_linker_2, # of connection points: 2
#     Edge 39, Type (0, 1), BuildingBlock: XUDNAN_clean_linker_2, # of connection points: 2
#     Edge 40, Type (0, 1), BuildingBlock: XUDNAN_clean_linker_2, # of connection points: 2
#     Edge 41, Type (0, 1), BuildingBlock: XUDNAN_clean_linker_2, # of connection points: 2
#     Edge 42, Type (0, 1), BuildingBlock: XUDNAN_clean_linker_2, # of connection points: 2
#     Edge 43, Type (0, 1), BuildingBlock: XUDNAN_clean_linker_2, # of connection points: 2
#     Edge 44, Type (0, 1), BuildingBlock: XUDNAN_clean_linker_2, # of connection points: 2
#     Edge 45, Type (0, 1), BuildingBlock: XUDNAN_clean_linker_2, # of connection points: 2
#     Edge 46, Type (0, 1), BuildingBlock: XUDNAN_clean_linker_2, # of connection points: 2
#     Edge 47, Type (0, 1), BuildingBlock: XUDNAN_clean_linker_2, # of connection points: 2
#     Edge 48, Type (0, 1), BuildingBlock: XUDNAN_clean_linker_2, # of connection points: 2
#     Edge 49, Type (0, 1), BuildingBlock: XUDNAN_clean_linker_2, # of connection points: 2
#     Edge 50, Type (0, 1), BuildingBlock: XUDNAN_clean_linker_2, # of connection points: 2
#     Edge 51, Type (0, 1), BuildingBlock: XUDNAN_clean_linker_2, # of connection points: 2
#     Edge 52, Type (0, 1), BuildingBlock: XUDNAN_clean_linker_2, # of connection points: 2
#     Edge 53, Type (0, 1), BuildingBlock: XUDNAN_clean_linker_2, # of connection points: 2
#     Edge 54, Type (0, 1), BuildingBlock: XUDNAN_clean_linker_2, # of connection points: 2
#     Edge 55, Type (0, 1), BuildingBlock: XUDNAN_clean_linker_2, # of connection points: 2
#     Edge 56, Type (0, 1), BuildingBlock: XUDNAN_clean_linker_2, # of connection points: 2
#     Edge 57, Type (0, 1), BuildingBlock: XUDNAN_clean_linker_2, # of connection points: 2
#     Edge 58, Type (0, 1), BuildingBlock: XUDNAN_clean_linker_2, # of connection points: 2
#     Edge 59, Type (0, 1), BuildingBlock: XUDNAN_clean_linker_2, # of connection points: 2
#     Edge 60, Type (0, 1), BuildingBlock: XUDNAN_clean_linker_2, # of connection points: 2
#     Edge 61, Type (0, 1), BuildingBlock: XUDNAN_clean_linker_2, # of connection points: 2
#     Edge 62, Type (0, 1), BuildingBlock: XUDNAN_clean_linker_2, # of connection points: 2
#     Edge 63, Type (0, 1), BuildingBlock: XUDNAN_clean_linker_2, # of connection points: 2
#     Edge 64, Type (0, 1), BuildingBlock: XUDNAN_clean_linker_2, # of connection points: 2
#     Edge 65, Type (0, 1), BuildingBlock: XUDNAN_clean_linker_2, # of connection points: 2
#     Edge 66, Type (0, 1), BuildingBlock: XUDNAN_clean_linker_2, # of connection points: 2
#     Edge 67, Type (0, 1), BuildingBlock: XUDNAN_clean_linker_2, # of connection points: 2
#     Edge 68, Type (0, 1), BuildingBlock: XUDNAN_clean_linker_2, # of connection points: 2
#     Edge 69, Type (0, 1), BuildingBlock: XUDNAN_clean_linker_2, # of connection points: 2
#     Edge 70, Type (0, 1), BuildingBlock: XUDNAN_clean_linker_2, # of connection points: 2
#     Edge 71, Type (0, 1), BuildingBlock: XUDNAN_clean_linker_2, # of connection points: 2
#     Edge 72, Type (0, 1), BuildingBlock: XUDNAN_clean_linker_2, # of connection points: 2
#     Edge 73, Type (0, 1), BuildingBlock: XUDNAN_clean_linker_2, # of connection points: 2
#     Edge 74, Type (0, 1), BuildingBlock: XUDNAN_clean_linker_2, # of connection points: 2
#     Edge 75, Type (0, 1), BuildingBlock: XUDNAN_clean_linker_2, # of connection points: 2
#     Edge 76, Type (0, 1), BuildingBlock: XUDNAN_clean_linker_2, # of connection points: 2
#     Edge 77, Type (0, 1), BuildingBlock: XUDNAN_clean_linker_2, # of connection points: 2
#     Edge 78, Type (0, 1), BuildingBlock: XUDNAN_clean_linker_2, # of connection points: 2
#     Edge 79, Type (0, 1), BuildingBlock: XUDNAN_clean_linker_2, # of connection points: 2
#     Edge 80, Type (0, 1), BuildingBlock: XUDNAN_clean_linker_2, # of connection points: 2
# Relax obj value: 0.008
# Max RMSD: 0.089
# Mean RMSD: 0.073
data_MOF--net-eea--node1-KUMBUR_clean_sbu_0--node2-ESEHIV_clean_linker_0--edge1-XUDNAN_clean_linker_2
_symmetry_space_group_name_H-M    P1
_symmetry_Int_Tables_number       1
_symmetry_cell_setting            triclinic
loop_
_symmetry_equiv_pos_as_xyz
'x, y, z'
_cell_length_a     47.400612
_cell_length_b     48.68949
_cell_length_c     70.461411
_cell_angle_alpha  90.151774
_cell_angle_beta   89.875323
_cell_angle_gamma 120.04379
loop_
_atom_site_label
_atom_site_type_symbol
_atom_site_fract_x
_atom_site_fract_y
_atom_site_fract_z
_atom_type_partial_charge
H0 H 0.28454 0.18925 0.44553 0.0
H1 H 0.2616 0.09265 0.45495 0.0
H2 H 0.22791 0.11701 0.40465 0.0
C3 C 0.27289 0.16467 0.44104 0.0
C4 C 0.25603 0.15572 0.42373 0.0
C5 C 0.27518 0.14208 0.45241 0.0
C6 C 0.2598 0.11017 0.44639 0.0
C7 C 0.24242 0.10092 0.42923 0.0
C8 C 0.24089 0.12391 0.41804 0.0
H9 H 0.83815 0.07364 0.44257 0.0
H10 H 0.93205 0.15836 0.44824 0.0
H11 H 0.90786 0.10326 0.39702 0.0
C12 C 0.86204 0.08999 0.43688 0.0
C13 C 0.87006 0.0853 0.41837 0.0
C14 C 0.88422 0.11623 0.44787 0.0
C15 C 0.91462 0.1382 0.43994 0.0
C16 C 0.92326 0.13343 0.42164 0.0
C17 C 0.901 0.10692 0.41108 0.0
H18 H 0.84134 0.76361 0.4467 0.0
H19 H 0.93282 0.76427 0.44461 0.0
H20 H 0.90173 0.79694 0.39691 0.0
C21 C 0.86298 0.76764 0.4391 0.0
C22 C 0.86853 0.78033 0.42061 0.0
C23 C 0.88633 0.76219 0.44817 0.0
C24 C 0.91471 0.76848 0.43802 0.0
C25 C 0.92064 0.78139 0.41964 0.0
C26 C 0.89735 0.78707 0.4111 0.0
H27 H 0.08368 0.23253 0.58694 0.0
H28 H 0.18024 0.24511 0.58971 0.0
H29 H 0.11711 0.20994 0.6383 0.0
C30 C 0.10265 0.23132 0.59481 0.0
C31 C 0.09678 0.22014 0.61367 0.0
C32 C 0.13245 0.23949 0.58584 0.0
C33 C 0.15686 0.23796 0.5963 0.0
C34 C 0.15159 0.22756 0.61521 0.0
C35 C 0.12126 0.21797 0.62368 0.0
H36 H 0.78022 0.92557 0.57524 0.0
H37 H 0.79236 0.8448 0.58248 0.0
H38 H 0.82099 0.91447 0.62716 0.0
C39 C 0.78805 0.91238 0.58403 0.0
C40 C 0.80137 0.92383 0.60204 0.0
C41 C 0.785 0.88417 0.57694 0.0
C42 C 0.79415 0.86629 0.58822 0.0
C43 C 0.80718 0.87707 0.60648 0.0
C44 C 0.81062 0.90584 0.61325 0.0
H45 H 0.07912 0.82589 0.59831 0.0
H46 H 0.15055 0.92415 0.59013 0.0
H47 H 0.10162 0.89248 0.64402 0.0
C48 C 0.09269 0.84998 0.60368 0.0
C49 C 0.08761 0.85632 0.62247 0.0
C50 C 0.11526 0.87429 0.59186 0.0
C51 C 0.13299 0.90527 0.59914 0.0
C52 C 0.12832 0.91217 0.61792 0.0
C53 C 0.10544 0.8875 0.62954 0.0
H54 H 0.89135 0.48996 0.78703 0.0
H55 H 0.90359 0.40891 0.79189 0.0
H56 H 0.86424 0.42367 0.7405 0.0
C57 C 0.88993 0.46902 0.78065 0.0
C58 C 0.8774 0.45957 0.76216 0.0
C59 C 0.89885 0.45038 0.79137 0.0
C60 C 0.89606 0.42275 0.7835 0.0
C61 C 0.88317 0.41253 0.76526 0.0
C62 C 0.87427 0.43134 0.75458 0.0
H63 H 0.51722 0.41739 0.7782 0.0
H64 H 0.60335 0.50964 0.78027 0.0
H65 H 0.57697 0.4573 0.72818 0.0
C66 C 0.53852 0.43616 0.77122 0.0
C67 C 0.54394 0.43365 0.75171 0.0
C68 C 0.56039 0.46313 0.78179 0.0
C69 C 0.58717 0.48816 0.77252 0.0
C70 C 0.5929 0.48615 0.75319 0.0
C71 C 0.57188 0.45864 0.74304 0.0
H72 H 0.51262 0.09992 0.77844 0.0
H73 H 0.60256 0.09813 0.77379 0.0
H74 H 0.57276 0.13729 0.7288 0.0
C75 C 0.53397 0.10413 0.77043 0.0
C76 C 0.53955 0.11863 0.7525 0.0
C77 C 0.55681 0.09708 0.77854 0.0
C78 C 0.58486 0.10367 0.76795 0.0
C79 C 0.59091 0.11843 0.7501 0.0
C80 C 0.56819 0.12589 0.74256 0.0
H81 H 0.74873 0.57551 0.92595 0.0
H82 H 0.83385 0.56494 0.92709 0.0
H83 H 0.77602 0.54744 0.97745 0.0
C84 C 0.76515 0.57002 0.93355 0.0
C85 C 0.75937 0.56148 0.95286 0.0
C86 C 0.79205 0.5713 0.92406 0.0
C87 C 0.81311 0.56407 0.9342 0.0
C88 C 0.80737 0.55529 0.95341 0.0
C89 C 0.78051 0.55412 0.96261 0.0
H90 H 0.39327 0.23242 0.92638 0.0
H91 H 0.4268 0.16505 0.91988 0.0
H92 H 0.44552 0.21856 0.97136 0.0
C93 C 0.40597 0.22072 0.93169 0.0
C94 C 0.41957 0.2284 0.94995 0.0
C95 C 0.40793 0.19748 0.92064 0.0
C96 C 0.42406 0.18225 0.92826 0.0
C97 C 0.43762 0.18974 0.94655 0.0
C98 C 0.43511 0.2127 0.95723 0.0
H99 H 0.75238 0.16583 0.91855 0.0
H100 H 0.83899 0.25836 0.92118 0.0
H101 H 0.77478 0.22213 0.96916 0.0
C102 C 0.76883 0.18701 0.92645 0.0
C103 C 0.76026 0.19135 0.94488 0.0
C104 C 0.79743 0.21108 0.91772 0.0
C105 C 0.81743 0.23939 0.92785 0.0
C106 C 0.80904 0.24389 0.94626 0.0
C107 C 0.78112 0.21922 0.95479 0.0
H108 H 0.61544 0.8457 0.1006 0.0
H109 H 0.59876 0.75204 0.11235 0.0
H110 H 0.56131 0.7694 0.06117 0.0
C111 C 0.60538 0.82109 0.09648 0.0
C112 C 0.58829 0.81027 0.07925 0.0
C113 C 0.60909 0.80017 0.10857 0.0
C114 C 0.59569 0.76825 0.10323 0.0
C115 C 0.57896 0.75725 0.08598 0.0
C116 C 0.57536 0.77832 0.07411 0.0
H117 H 0.19215 0.74853 0.1229 0.0
H118 H 0.27976 0.83814 0.11548 0.0
H119 H 0.24443 0.76928 0.07009 0.0
C120 C 0.21236 0.7646 0.11397 0.0
C121 C 0.21536 0.75521 0.09557 0.0
C122 C 0.23542 0.79428 0.12126 0.0
C123 C 0.26141 0.81553 0.1097 0.0
C124 C 0.26494 0.80657 0.09117 0.0
C125 C 0.24159 0.77649 0.0842 0.0
H126 H 0.17129 0.42543 0.11308 0.0
H127 H 0.2537 0.4108 0.11036 0.0
H128 H 0.23035 0.45025 0.06257 0.0
C129 C 0.19153 0.42637 0.10531 0.0
C130 C 0.19811 0.43852 0.08669 0.0
C131 C 0.21201 0.41709 0.11424 0.0
C132 C 0.23819 0.4186 0.10388 0.0
C133 C 0.24492 0.43052 0.0853 0.0
C134 C 0.22518 0.44098 0.07691 0.0
H135 H 0.41828 0.91491 0.25861 0.0
H136 H 0.50629 0.90923 0.25486 0.0
H137 H 0.44811 0.87933 0.3055 0.0
C138 C 0.43575 0.90945 0.26487 0.0
C139 C 0.4299 0.8965 0.28325 0.0
C140 C 0.46325 0.91416 0.2543 0.0
C141 C 0.48559 0.90676 0.26285 0.0
C142 C 0.48004 0.89397 0.28128 0.0
C143 C 0.45238 0.88922 0.29131 0.0
H144 H 0.12531 0.61039 0.25659 0.0
H145 H 0.09814 0.5121 0.25891 0.0
H146 H 0.14202 0.57239 0.30762 0.0
C147 C 0.12427 0.59062 0.26425 0.0
C148 C 0.13581 0.5951 0.28299 0.0
C149 C 0.11062 0.56084 0.25543 0.0
C150 C 0.1081 0.53508 0.26574 0.0
C151 C 0.11938 0.539 0.28458 0.0
C152 C 0.13325 0.56914 0.29313 0.0
H153 H 0.41375 0.48154 0.25143 0.0
H154 H 0.49009 0.57944 0.2484 0.0
H155 H 0.43088 0.54386 0.29867 0.0
C156 C 0.42756 0.50483 0.25786 0.0
C157 C 0.41913 0.51005 0.27616 0.0
C158 C 0.45284 0.52991 0.24756 0.0
C159 C 0.47047 0.56007 0.25615 0.0
C160 C 0.46277 0.56545 0.27459 0.0
C161 C 0.43683 0.54027 0.28435 0.0
Tb162 Tb 0.49294 0.9805 0.99178 0.0
C163 C 0.56853 0.0891 0.04808 0.0
C164 C 0.62469 0.10365 0.04265 0.0
C165 C 0.6116 0.14349 0.05335 0.0
C166 C 0.5912 0.08085 0.0426 0.0
C167 C 0.5784 0.12032 0.05394 0.0
C168 C 0.63473 0.13518 0.04768 0.0
C169 C 0.52223 0.10268 0.06183 0.0
N170 N 0.53677 0.06604 0.04842 0.0
C171 C 0.51371 0.07203 0.05591 0.0
C172 C 0.55467 0.12704 0.06062 0.0
Tb173 Tb 0.52499 0.01688 0.03791 0.0
N174 N 0.58046 0.05011 0.03802 0.0
C175 C 0.60237 0.04015 0.03464 0.0
C176 C 0.64707 0.0939 0.03807 0.0
C177 C 0.63586 0.06192 0.0343 0.0
H178 H 0.48856 0.05336 0.0568 0.0
H179 H 0.65298 0.05401 0.03106 0.0
H180 H 0.66033 0.15311 0.04764 0.0
H181 H 0.50379 0.10749 0.06731 0.0
H182 H 0.59431 0.01561 0.03159 0.0
H183 H 0.36483 0.94203 1.00091 0.0
H184 H 0.673 0.11069 0.03783 0.0
H185 H 0.52747 0.94648 0.96822 0.0
H186 H 0.42324 0.9808 0.99945 0.0
H187 H 0.51218 0.89325 0.95594 0.0
H188 H 0.6197 0.16771 0.05763 0.0
H189 H 0.34495 0.88547 0.99382 0.0
H190 H 0.3576 0.84366 0.98256 0.0
H191 H 0.56123 0.15074 0.06526 0.0
H192 H 0.3979 0.83025 0.97019 0.0
N193 N 0.43737 0.94668 0.99236 0.0
C194 C 0.41535 0.95635 0.99629 0.0
C195 C 0.37083 0.90244 0.99322 0.0
C196 C 0.39316 0.89307 0.9878 0.0
C197 C 0.38195 0.93434 0.99715 0.0
C198 C 0.42658 0.9161 0.98741 0.0
H199 H 0.45566 0.8488 0.95982 0.0
N200 N 0.48044 0.93207 0.97956 0.0
C201 C 0.49418 0.89713 0.96303 0.0
C202 C 0.44902 0.9085 0.98071 0.0
C203 C 0.50274 0.92727 0.96998 0.0
C204 C 0.4623 0.87208 0.96529 0.0
C205 C 0.43905 0.87775 0.97388 0.0
O206 O 0.51605 0.99577 0.96516 0.0
O207 O 0.53264 0.01727 1.00773 0.0
O208 O 0.51851 0.05094 0.02125 0.0
O209 O 0.4801 0.01698 0.99922 0.0
O210 O 0.54461 0.99813 0.98569 0.0
O211 O 0.47206 0.9964 0.97131 0.0
O212 O 0.50207 0.00477 0.06472 0.0
O213 O 0.48575 0.97919 0.02213 0.0
O214 O 0.50419 0.94759 1.00641 0.0
O215 O 0.53694 0.97956 0.03153 0.0
O216 O 0.47328 0.99933 0.04347 0.0
O217 O 0.54509 0.00173 0.0593 0.0
C218 C 0.55671 0.01966 0.99861 0.0
C219 C 0.48161 0.98842 0.93925 0.0
C220 C 0.48634 0.99546 0.90465 0.0
C221 C 0.497 0.00728 0.92319 0.0
C222 C 0.45988 0.96435 0.90262 0.0
C223 C 0.45524 0.95763 0.93677 0.0
C224 C 0.44449 0.94573 0.91855 0.0
C225 C 0.49672 0.04492 1.00779 0.0
C226 C 0.49373 1.00105 0.95843 0.0
C227 C 0.40606 0.85416 0.97514 0.0
C228 C 0.38312 0.8618 0.98216 0.0
C229 C 0.46164 0.97685 0.03113 0.0
C230 C 0.53603 0.01222 0.09101 0.0
C231 C 0.52073 0.99412 0.10736 0.0
C232 C 0.53184 0.00666 0.12575 0.0
C233 C 0.55857 0.03771 0.1273 0.0
C234 C 0.56267 0.04295 0.09306 0.0
C235 C 0.57381 0.05556 0.11111 0.0
C236 C 0.52459 0.95365 0.02078 0.0
C237 C 0.52366 0.99881 0.07197 0.0
H238 H 0.51711 0.03121 0.92522 0.0
H239 H 0.45136 0.95408 0.88871 0.0
H240 H 0.44301 0.94276 0.94888 0.0
H241 H 0.42425 0.92184 0.91675 0.0
H242 H 0.50039 0.97022 0.1057 0.0
H243 H 0.56743 0.04856 0.14106 0.0
H244 H 0.57486 0.05722 0.08075 0.0
H245 H 0.59428 0.07941 0.11256 0.0
Tb246 Tb 0.02537 0.50987 1.00083 0.0
C247 C 0.90716 0.45825 0.05442 0.0
C248 C 0.89 0.49732 0.05279 0.0
C249 C 0.85024 0.44224 0.05951 0.0
C250 C 0.91454 0.48908 0.05155 0.0
C251 C 0.87507 0.43449 0.05881 0.0
C252 C 0.8577 0.47362 0.05647 0.0
C253 C 0.895 0.39788 0.06272 0.0
N254 N 0.93183 0.45183 0.05359 0.0
C255 C 0.92646 0.42234 0.05837 0.0
C256 C 0.86911 0.40387 0.06273 0.0
Tb257 Tb 0.98233 0.4931 0.04576 0.0
N258 N 0.94602 0.51116 0.048 0.0
C259 C 0.95494 0.54254 0.04679 0.0
C260 C 0.89878 0.52915 0.05056 0.0
C261 C 0.93146 0.5519 0.04775 0.0
H262 H 0.94626 0.41741 0.0583 0.0
H263 H 0.93861 0.57667 0.04628 0.0
H264 H 0.83844 0.47941 0.05733 0.0
H265 H 0.89076 0.37442 0.06604 0.0
H266 H 0.98 0.56052 0.04454 0.0
H267 H 0.06734 0.42491 0.99933 0.0
H268 H 0.88065 0.53646 0.0513 0.0
H269 H 0.06235 0.58569 0.98855 0.0
H270 H 0.02655 0.44176 1.00133 0.0
H271 H 0.1182 0.62838 0.98112 0.0
H272 H 0.82536 0.42428 0.06271 0.0
H273 H 0.12553 0.46466 0.99462 0.0
H274 H 0.16838 0.52164 0.98905 0.0
H275 H 0.84478 0.38491 0.06615 0.0
H276 H 0.18229 0.5771 0.9841 0.0
N277 N 0.06107 0.4911 0.99832 0.0
C278 C 0.0517 0.45958 0.9992 0.0
C279 C 0.10766 0.47229 0.99547 0.0
C280 C 0.11691 0.50429 0.99355 0.0
C281 C 0.07484 0.4498 0.99809 0.0
C282 C 0.09269 0.51295 0.99493 0.0
H283 H 0.16368 0.61715 0.98099 0.0
N284 N 0.07616 0.55079 0.99314 0.0
C285 C 0.1136 0.60474 0.9843 0.0
C286 C 0.10054 0.54397 0.99227 0.0
C287 C 0.08196 0.58046 0.98846 0.0
C288 C 0.13921 0.59834 0.98428 0.0
C289 C 0.13278 0.56751 0.988 0.0
O290 O 0.0153 0.52507 0.97513 0.0
O291 O 0.9847 0.50653 0.01646 0.0
O292 O 0.95039 0.45633 0.02606 0.0
O293 O 0.98756 0.45895 1.00327 0.0
O294 O 0.00645 0.54261 0.99766 0.0
O295 O 0.01162 0.47916 0.97733 0.0
O296 O 0.99278 0.47893 0.07173 0.0
O297 O 0.02271 0.49613 0.03003 0.0
O298 O 0.05773 0.54678 0.02068 0.0
O299 O 0.01954 0.54365 0.04289 0.0
O300 O 1.0015 0.46059 0.0492 0.0
O301 O 0.99592 0.5245 0.0689 0.0
C302 C 0.9823 0.52891 1.0092 0.0
C303 C 0.02301 0.50328 0.94708 0.0
C304 C 0.0135 0.49849 0.91288 0.0
C305 C 1.00196 0.49576 0.93158 0.0
C306 C 0.04692 0.50972 0.90997 0.0
C307 C 0.05618 0.5143 0.94399 0.0
C308 C 0.06806 0.51762 0.92546 0.0
C309 C 0.95827 0.44449 1.01139 0.0
C310 C 0.00929 0.49928 0.96621 0.0
C311 C 0.15729 0.55933 0.9872 0.0
C312 C 0.14936 0.52776 0.99 0.0
C313 C 0.02516 0.47383 0.03732 0.0
C314 C 0.98454 0.50136 0.09938 0.0
C315 C 1.00567 0.51204 0.11499 0.0
C316 C 0.99355 0.50939 0.13356 0.0
C317 C 0.95968 0.49544 0.13621 0.0
C318 C 0.9509 0.48765 0.10226 0.0
C319 C 0.93857 0.48466 0.12064 0.0
C320 C 0.04922 0.55794 0.03542 0.0
C321 C 0.99849 0.50489 0.08034 0.0
H322 H 0.97645 0.48781 0.93418 0.0
H323 H 0.05662 0.51178 0.89579 0.0
H324 H 0.07276 0.52022 0.95581 0.0
H325 H 0.09368 0.52605 0.9231 0.0
H326 H 0.03162 0.52221 0.11262 0.0
H327 H 0.94953 0.49336 0.15027 0.0
H328 H 0.93426 0.47934 0.09039 0.0
H329 H 0.91258 0.47412 0.12281 0.0
Tb330 Tb 0.51425 0.48483 0.043 0.0
C331 C 0.44829 0.532 0.99036 0.0
C332 C 0.39165 0.49124 0.99253 0.0
C333 C 0.406 0.54578 0.98619 0.0
C334 C 0.42505 0.50089 0.99347 0.0
C335 C 0.43917 0.5548 0.98625 0.0
C336 C 0.38224 0.51399 0.98926 0.0
C337 C 0.49591 0.59256 0.98039 0.0
N338 N 0.4799 0.53942 0.99014 0.0
C339 C 0.5036 0.5689 0.98427 0.0
C340 C 0.46359 0.58561 0.98164 0.0
Tb341 Tb 0.49044 0.49946 0.99747 0.0
N342 N 0.43526 0.47973 0.99618 0.0
C343 C 0.41311 0.44797 0.99677 0.0
C344 C 0.36883 0.45893 0.99423 0.0
C345 C 0.37964 0.43715 0.99603 0.0
H346 H 0.52865 0.57452 0.98316 0.0
H347 H 0.36223 0.41203 0.99698 0.0
H348 H 0.35671 0.50712 0.98862 0.0
H349 H 0.5149 0.61609 0.97635 0.0
H350 H 0.42102 0.43083 0.99831 0.0
H351 H 0.57102 0.57157 0.09879 0.0
H352 H 0.34292 0.45051 0.99366 0.0
H353 H 0.54129 0.44402 0.01821 0.0
H354 H 0.52523 0.53233 0.07918 0.0
H355 H 0.59294 0.44476 1.01352 0.0
H356 H 0.39844 0.56297 0.98323 0.0
H357 H 0.62686 0.58138 0.09297 0.0
H358 H 0.66339 0.56596 0.07564 0.0
H359 H 0.45764 0.60388 0.97844 0.0
H360 H 0.66909 0.53059 0.05285 0.0
N361 N 0.55533 0.52247 0.06132 0.0
C362 C 0.54968 0.53723 0.07622 0.0
C363 C 0.60692 0.5646 0.08414 0.0
C364 C 0.61191 0.54697 0.07017 0.0
C365 C 0.57548 0.55918 0.08745 0.0
C366 C 0.5851 0.52536 0.05914 0.0
H367 H 0.64282 0.4849 0.02991 0.0
N368 N 0.56111 0.48341 0.03725 0.0
C369 C 0.59193 0.46187 0.02291 0.0
C370 C 0.58806 0.50498 0.04675 0.0
C371 C 0.56251 0.46151 0.02568 0.0
C372 C 0.62003 0.48457 0.03217 0.0
C373 C 0.61828 0.5063 0.04444 0.0
O374 O 0.51542 0.44887 0.05912 0.0
O375 O 0.47387 0.47718 0.02493 0.0
O376 O 0.4974 0.53804 0.01678 0.0
O377 O 0.52997 0.53544 0.04107 0.0
O378 O 0.47526 0.49295 0.05226 0.0
O379 O 0.48757 0.46996 0.06849 0.0
O380 O 0.51809 0.51349 0.97213 0.0
O381 O 0.5279 0.49628 1.01351 0.0
O382 O 0.48993 0.43888 0.02844 0.0
O383 O 0.47962 0.4502 0.99789 0.0
O384 O 0.54165 0.53521 0.99635 0.0
O385 O 0.47127 0.47146 0.97292 0.0
C386 C 0.4585 0.48433 0.03687 0.0
C387 C 0.51263 0.45594 0.09263 0.0
C388 C 0.51313 0.47032 0.1262 0.0
C389 C 0.50095 0.46711 0.10755 0.0
C390 C 0.53725 0.46222 0.1297 0.0
C391 C 0.53676 0.44809 0.09664 0.0
C392 C 0.54895 0.4513 0.11503 0.0
C393 C 0.51655 0.54979 0.03188 0.0
C394 C 0.49904 0.4517 0.07312 0.0
C395 C 0.64559 0.52899 0.05457 0.0
C396 C 0.64238 0.54923 0.06747 0.0
C397 C 0.55226 0.52203 1.00779 0.0
C398 C 0.48875 0.49716 0.94332 0.0
C399 C 0.5023 0.49076 0.9273 0.0
C400 C 0.49528 0.49675 0.90882 0.0
C401 C 0.47443 0.50935 0.90675 0.0
C402 C 0.46801 0.50963 0.94088 0.0
C403 C 0.46096 0.51571 0.92267 0.0
C404 C 0.47974 0.43056 1.01076 0.0
C405 C 0.49604 0.48993 0.96236 0.0
H406 H 0.48207 0.47293 0.10473 0.0
H407 H 0.54746 0.4648 0.14377 0.0
H408 H 0.54619 0.43937 0.08559 0.0
H409 H 0.56762 0.44527 0.11793 0.0
H410 H 0.51794 0.48067 0.92926 0.0
H411 H 0.4689 0.51478 0.89283 0.0
H412 H 0.45716 0.51449 0.95301 0.0
H413 H 0.44501 0.52544 0.92087 0.0
Tb414 Tb 0.15345 0.31014 0.32824 0.0
C415 C 0.22213 0.42891 0.37837 0.0
C416 C 0.27991 0.44814 0.376 0.0
C417 C 0.2606 0.48543 0.38086 0.0
C418 C 0.24736 0.42303 0.37557 0.0
C419 C 0.22835 0.46006 0.38144 0.0
C420 C 0.28638 0.47947 0.37818 0.0
C421 C 0.17072 0.43833 0.387 0.0
N422 N 0.19144 0.40373 0.37893 0.0
C423 C 0.16587 0.40784 0.38401 0.0
C424 C 0.20205 0.46461 0.38548 0.0
Tb425 Tb 0.18565 0.35497 0.37241 0.0
N426 N 0.24 0.39243 0.37369 0.0
C427 C 0.26436 0.38513 0.37399 0.0
C428 C 0.30492 0.44087 0.37491 0.0
C429 C 0.29709 0.40918 0.37424 0.0
H430 H 0.14152 0.38772 0.38504 0.0
H431 H 0.31623 0.40322 0.37387 0.0
H432 H 0.31122 0.49913 0.3783 0.0
H433 H 0.1503 0.44153 0.39045 0.0
H434 H 0.25884 0.36079 0.37349 0.0
H435 H 0.02347 0.26085 0.33773 0.0
H436 H 0.33027 0.45945 0.37516 0.0
H437 H 0.19351 0.27886 0.30741 0.0
H438 H 0.08044 0.30335 0.33519 0.0
H439 H 0.18355 0.22596 0.29813 0.0
H440 H 0.26592 0.50961 0.38299 0.0
H441 H 0.0089 0.2049 0.33304 0.0
H442 H 0.02682 0.16584 0.32407 0.0
H443 H 0.20576 0.48818 0.38788 0.0
H444 H 0.07062 0.15625 0.3132 0.0
N445 N 0.09898 0.2722 0.32973 0.0
C446 C 0.07482 0.27925 0.333 0.0
C447 C 0.03413 0.22356 0.33192 0.0
C448 C 0.05857 0.21663 0.32724 0.0
C449 C 0.04225 0.2551 0.3345 0.0
C450 C 0.09103 0.24184 0.32612 0.0
H451 H 0.12918 0.17866 0.30314 0.0
N452 N 0.14564 0.26187 0.31834 0.0
C453 C 0.16415 0.22851 0.30445 0.0
C454 C 0.11537 0.23645 0.32019 0.0
C455 C 0.16968 0.25853 0.30975 0.0
C456 C 0.13348 0.20187 0.30735 0.0
C457 C 0.1084 0.20571 0.31497 0.0
O458 O 0.17469 0.32447 0.30112 0.0
O459 O 0.19326 0.34956 0.34281 0.0
O460 O 0.17772 0.38443 0.3521 0.0
O461 O 0.13652 0.34384 0.33449 0.0
O462 O 0.20455 0.32955 0.32058 0.0
O463 O 0.12912 0.32179 0.30759 0.0
O464 O 0.1618 0.3445 0.39883 0.0
O465 O 0.14768 0.31344 0.35839 0.0
O466 O 0.16917 0.2827 0.34537 0.0
O467 O 0.20246 0.32052 0.36833 0.0
O468 O 0.13336 0.33413 0.37832 0.0
O469 O 0.20693 0.34451 0.39556 0.0
C470 C 0.21679 0.3514 0.33325 0.0
C471 C 0.13857 0.3134 0.27561 0.0
C472 C 0.14237 0.31936 0.241 0.0
C473 C 0.15294 0.33199 0.25936 0.0
C474 C 0.11683 0.28775 0.23929 0.0
C475 C 0.11329 0.28195 0.27354 0.0
C476 C 0.10246 0.26929 0.25545 0.0
C477 C 0.15267 0.37368 0.34036 0.0
C478 C 0.15073 0.32727 0.29451 0.0
C479 C 0.07646 0.18013 0.31692 0.0
C480 C 0.05154 0.18559 0.3231 0.0
C481 C 0.12302 0.30994 0.36728 0.0
C482 C 0.19306 0.35378 0.42649 0.0
C483 C 0.18316 0.33314 0.44219 0.0
C484 C 0.18958 0.34513 0.46091 0.0
C485 C 0.20628 0.37822 0.46357 0.0
C486 C 0.20977 0.38664 0.4295 0.0
C487 C 0.21636 0.39873 0.44797 0.0
C488 C 0.19096 0.29285 0.35936 0.0
C489 C 0.18377 0.34036 0.40724 0.0
H490 H 0.1723 0.35637 0.26108 0.0
H491 H 0.10837 0.27701 0.22546 0.0
H492 H 0.10201 0.26721 0.28587 0.0
H493 H 0.083 0.24495 0.25392 0.0
H494 H 0.16981 0.30772 0.4398 0.0
H495 H 0.21202 0.38831 0.47771 0.0
H496 H 0.21738 0.40285 0.4176 0.0
H497 H 0.22927 0.42414 0.45023 0.0
Tb498 Tb 0.68577 0.83056 0.32436 0.0
C499 C 0.57332 0.78541 0.37975 0.0
C500 C 0.55939 0.82685 0.37895 0.0
C501 C 0.51746 0.77247 0.38558 0.0
C502 C 0.58247 0.81681 0.37715 0.0
C503 C 0.54088 0.76291 0.38439 0.0
C504 C 0.5267 0.80441 0.38283 0.0
C505 C 0.55779 0.72384 0.38762 0.0
N506 N 0.59666 0.77719 0.37846 0.0
C507 C 0.58967 0.7471 0.38302 0.0
C508 C 0.53318 0.73168 0.3881 0.0
Tb509 Tb 0.64785 0.81661 0.37023 0.0
N510 N 0.61429 0.83768 0.3735 0.0
C511 C 0.62507 0.86951 0.37283 0.0
C512 C 0.57 0.85919 0.37716 0.0
C513 C 0.60307 0.88065 0.37432 0.0
H514 H 0.60852 0.74082 0.38255 0.0
H515 H 0.61164 0.90579 0.37324 0.0
H516 H 0.50853 0.8116 0.38412 0.0
H517 H 0.55221 0.69989 0.39077 0.0
H518 H 0.65047 0.88651 0.37057 0.0
H519 H 0.72173 0.7403 0.32698 0.0
H520 H 0.55303 0.86789 0.37835 0.0
H521 H 0.72435 0.90173 0.30432 0.0
H522 H 0.68252 0.75865 0.32592 0.0
H523 H 0.78116 0.94155 0.29616 0.0
H524 H 0.49231 0.75551 0.38897 0.0
H525 H 0.7807 0.77842 0.32429 0.0
H526 H 0.82542 0.83418 0.31825 0.0
H527 H 0.50853 0.71364 0.3917 0.0
H528 H 0.8418 0.88921 0.30989 0.0
N529 N 0.71848 0.80797 0.32346 0.0
C530 C 0.70791 0.77615 0.3247 0.0
C531 C 0.76351 0.78693 0.32384 0.0
C532 C 0.7741 0.81903 0.32096 0.0
C533 C 0.73024 0.76534 0.32531 0.0
C534 C 0.75072 0.82891 0.32064 0.0
H535 H 0.82539 0.92935 0.30122 0.0
N536 N 0.73674 0.86819 0.31489 0.0
C537 C 0.77566 0.91886 0.302 0.0
C538 C 0.76014 0.86005 0.31623 0.0
C539 C 0.74355 0.8963 0.30665 0.0
C540 C 0.80056 0.9119 0.30492 0.0
C541 C 0.79285 0.88189 0.31163 0.0
O542 O 0.64794 0.8169 0.30427 0.0
O543 O 0.648 0.83051 0.34123 0.0
O544 O 0.61371 0.78057 0.35069 0.0
O545 O 0.64904 0.77984 0.32792 0.0
O546 O 0.67304 0.86808 0.3236 0.0
O547 O 0.69544 0.82819 0.29526 0.0
O548 O 0.6564 0.79937 0.39561 0.0
O549 O 0.68765 0.81957 0.3538 0.0
O550 O 0.71688 0.87388 0.34055 0.0
O551 O 0.68761 0.86642 0.36883 0.0
O552 O 0.66553 0.78284 0.3722 0.0
O553 O 0.66332 0.84673 0.394 0.0
C554 C 0.64845 0.85501 0.33501 0.0
C555 C 0.6658 0.8423 0.27445 0.0
C556 C 0.66941 0.85559 0.24078 0.0
C557 C 0.66872 0.83547 0.25534 0.0
C558 C 0.66719 0.88248 0.24544 0.0
C559 C 0.66254 0.86885 0.27861 0.0
C560 C 0.6636 0.88891 0.26424 0.0
C561 C 0.62001 0.76704 0.33624 0.0
C562 C 0.66679 0.82204 0.28978 0.0
C563 C 0.81645 0.87263 0.31306 0.0
C564 C 0.8071 0.84127 0.31778 0.0
C565 C 0.68994 0.79703 0.36088 0.0
C566 C 0.65148 0.82214 0.42409 0.0
C567 C 0.67337 0.83027 0.43918 0.0
C568 C 0.66298 0.82865 0.45806 0.0
C569 C 0.6298 0.81779 0.46158 0.0
C570 C 0.61855 0.81153 0.42776 0.0
C571 C 0.60777 0.80922 0.44649 0.0
C572 C 0.71251 0.88364 0.35732 0.0
C573 C 0.66426 0.82548 0.40478 0.0
H574 H 0.67073 0.81482 0.25183 0.0
H575 H 0.66746 0.89814 0.23446 0.0
H576 H 0.65904 0.87437 0.29285 0.0
H577 H 0.66149 0.90948 0.26767 0.0
H578 H 0.69867 0.8379 0.43612 0.0
H579 H 0.62097 0.81657 0.47591 0.0
H580 H 0.60133 0.8052 0.41625 0.0
H581 H 0.58233 0.8011 0.44931 0.0
Tb582 Tb 0.19292 0.83804 0.37885 0.0
C583 C 0.12589 0.88332 0.32266 0.0
C584 C 0.06919 0.84231 0.32366 0.0
C585 C 0.08376 0.8966 0.3163 0.0
C586 C 0.10253 0.8521 0.32553 0.0
C587 C 0.11694 0.90591 0.31764 0.0
C588 C 0.05991 0.86483 0.31934 0.0
C589 C 0.17416 0.94452 0.31441 0.0
N590 N 0.15758 0.89128 0.32411 0.0
C591 C 0.18177 0.92118 0.31936 0.0
C592 C 0.1416 0.93696 0.31375 0.0
Tb593 Tb 0.16776 0.85178 0.33289 0.0
N594 N 0.11258 0.83117 0.32967 0.0
C595 C 0.09032 0.79947 0.33092 0.0
C596 C 0.04627 0.81014 0.3259 0.0
C597 C 0.05693 0.78859 0.32935 0.0
H598 H 0.20702 0.92729 0.31993 0.0
H599 H 0.03943 0.76357 0.33085 0.0
H600 H 0.03441 0.85783 0.31799 0.0
H601 H 0.19341 0.96832 0.3111 0.0
H602 H 0.09791 0.78238 0.33367 0.0
H603 H 0.32181 0.92444 0.37903 0.0
H604 H 0.02041 0.80164 0.32469 0.0
H605 H 0.15298 0.76303 0.39294 0.0
H606 H 0.26342 0.9066 0.37712 0.0
H607 H 0.16585 0.7215 0.40172 0.0
H608 H 0.07633 0.91364 0.31262 0.0
H609 H 0.34005 0.8857 0.38496 0.0
H610 H 0.32524 0.8294 0.39211 0.0
H611 H 0.13576 0.95505 0.30986 0.0
H612 H 0.28276 0.77411 0.39839 0.0
N613 N 0.24806 0.85769 0.38131 0.0
C614 C 0.27071 0.88923 0.37973 0.0
C615 C 0.31424 0.87764 0.38411 0.0
C616 C 0.29097 0.84568 0.38678 0.0
C617 C 0.30403 0.89956 0.3808 0.0
C618 C 0.25771 0.83645 0.3854 0.0
H619 H 0.22318 0.73365 0.40216 0.0
N620 N 0.20248 0.79823 0.38794 0.0
C621 C 0.18529 0.74505 0.39808 0.0
C622 C 0.23403 0.80557 0.38889 0.0
C623 C 0.1781 0.76869 0.39315 0.0
C624 C 0.21766 0.75197 0.39828 0.0
C625 C 0.24258 0.78268 0.3939 0.0
O626 O 0.16766 0.8244 0.4049 0.0
O627 O 0.15531 0.83887 0.36221 0.0
O628 O 0.1708 0.88824 0.35204 0.0
O629 O 0.20625 0.88825 0.37499 0.0
O630 O 0.14049 0.80437 0.38203 0.0
O631 O 0.21 0.8707 0.40143 0.0
O632 O 0.19455 0.86682 0.30744 0.0
O633 O 0.2052 0.85052 0.34945 0.0
O634 O 0.18875 0.80052 0.36011 0.0
O635 O 0.15497 0.80182 0.33638 0.0
O636 O 0.22013 0.88592 0.33028 0.0
O637 O 0.15177 0.82049 0.30957 0.0
C638 C 0.13005 0.81634 0.36957 0.0
C639 C 0.1992 0.8485 0.43224 0.0
C640 C 0.19268 0.84798 0.46674 0.0
C641 C 0.18218 0.84972 0.4483 0.0
C642 C 0.22046 0.84484 0.46879 0.0
C643 C 0.22678 0.84533 0.43463 0.0
C644 C 0.23729 0.84349 0.45283 0.0
C645 C 0.19052 0.90117 0.36672 0.0
C646 C 0.18794 0.85098 0.4132 0.0
C647 C 0.27564 0.79138 0.3947 0.0
C648 C 0.29982 0.82285 0.39113 0.0
C649 C 0.23054 0.87314 0.34223 0.0
C650 C 0.16582 0.84409 0.27911 0.0
C651 C 0.1805 0.83763 0.26371 0.0
C652 C 0.17217 0.84023 0.24484 0.0
C653 C 0.14915 0.84998 0.24176 0.0
C654 C 0.14296 0.85371 0.2757 0.0
C655 C 0.13479 0.85673 0.25709 0.0
C656 C 0.16979 0.78839 0.34507 0.0
C657 C 0.17497 0.84067 0.29852 0.0
H658 H 0.16107 0.85252 0.4464 0.0
H659 H 0.22894 0.84298 0.48272 0.0
H660 H 0.24027 0.84444 0.42249 0.0
H661 H 0.25857 0.84097 0.45458 0.0
H662 H 0.19853 0.83068 0.2665 0.0
H663 H 0.14164 0.85175 0.22753 0.0
H664 H 0.13138 0.85875 0.28735 0.0
H665 H 0.117 0.86404 0.25453 0.0
Tb666 Tb 0.82495 0.65051 0.66404 0.0
C667 C 0.9081 0.75975 0.71945 0.0
C668 C 0.96122 0.76425 0.71962 0.0
C669 C 0.95621 0.81064 0.72622 0.0
C670 C 0.92719 0.74609 0.71708 0.0
C671 C 0.92222 0.79208 0.72432 0.0
C672 C 0.97568 0.7967 0.72396 0.0
C673 C 0.86796 0.78451 0.72675 0.0
N674 N 0.87538 0.74082 0.71789 0.0
C675 C 0.85512 0.75248 0.72213 0.0
C676 C 0.90168 0.8045 0.72766 0.0
Tb677 Tb 0.85654 0.68881 0.7098 0.0
N678 N 0.91215 0.71457 0.71332 0.0
C679 C 0.92978 0.69931 0.71311 0.0
C680 C 0.97954 0.74904 0.71829 0.0
C681 C 0.96367 0.71633 0.71527 0.0
H682 H 0.82901 0.73736 0.72146 0.0
H683 H 0.97751 0.70418 0.7146 0.0
H684 H 1.00181 0.81109 0.72585 0.0
H685 H 0.85182 0.79374 0.72965 0.0
H686 H 0.91809 0.67408 0.71079 0.0
H687 H 0.70317 0.63322 0.66044 0.0
H688 H 1.00577 0.76215 0.72004 0.0
H689 H 0.85333 0.60294 0.65188 0.0
H690 H 0.76278 0.66417 0.66347 0.0
H691 H 0.83114 0.54653 0.64381 0.0
H692 H 0.96759 0.83558 0.72985 0.0
H693 H 0.6755 0.57515 0.65547 0.0
H694 H 0.68019 0.52657 0.64964 0.0
H695 H 0.91156 0.82925 0.73139 0.0
H696 H 0.71506 0.50289 0.64512 0.0
N697 N 0.76927 0.62401 0.66105 0.0
C698 C 0.75127 0.63888 0.66136 0.0
C699 C 0.70178 0.58862 0.6569 0.0
C700 C 0.72047 0.57382 0.65537 0.0
C701 C 0.71731 0.62139 0.65965 0.0
C702 C 0.75455 0.59244 0.6575 0.0
H703 H 0.77147 0.51021 0.64276 0.0
N704 N 0.80671 0.59862 0.65596 0.0
C705 C 0.81477 0.5554 0.64693 0.0
C706 C 0.774 0.57924 0.65481 0.0
C707 C 0.82726 0.58742 0.65146 0.0
C708 C 0.78108 0.53495 0.64641 0.0
C709 C 0.76021 0.5469 0.65007 0.0
O710 O 0.84881 0.65652 0.63779 0.0
O711 O 0.86625 0.68365 0.68059 0.0
O712 O 0.86169 0.72535 0.68986 0.0
O713 O 0.82126 0.69356 0.66806 0.0
O714 O 0.87477 0.65879 0.66055 0.0
O715 O 0.81345 0.67144 0.64143 0.0
O716 O 0.83061 0.68162 0.73534 0.0
O717 O 0.81506 0.6554 0.69333 0.0
O718 O 0.82015 0.61403 0.6839 0.0
O719 O 0.86033 0.64573 0.70583 0.0
O720 O 0.8074 0.68203 0.71262 0.0
O721 O 0.86752 0.6685 0.73304 0.0
C722 C 0.88862 0.6804 0.67327 0.0
C723 C 0.81989 0.65645 0.61041 0.0
C724 C 0.82222 0.6645 0.57584 0.0
C725 C 0.83384 0.67596 0.59435 0.0
C726 C 0.7962 0.63313 0.5739 0.0
C727 C 0.7939 0.62549 0.60796 0.0
C728 C 0.78215 0.61396 0.58982 0.0
C729 C 0.84162 0.72158 0.67572 0.0
C730 C 0.83294 0.66862 0.62955 0.0
C731 C 0.72619 0.52785 0.64863 0.0
C732 C 0.70635 0.54133 0.6512 0.0
C733 C 0.79313 0.65971 0.70036 0.0
C734 C 0.85741 0.68212 0.76365 0.0
C735 C 0.84504 0.66112 0.77919 0.0
C736 C 0.85398 0.67236 0.79798 0.0
C737 C 0.8757 0.70493 0.80086 0.0
C738 C 0.87913 0.7144 0.76695 0.0
C739 C 0.8882 0.72568 0.78546 0.0
C740 C 0.84017 0.61775 0.69803 0.0
C741 C 0.84652 0.67019 0.74421 0.0
H742 H 0.8536 0.70006 0.59638 0.0
H743 H 0.787 0.623 0.56004 0.0
H744 H 0.78279 0.61017 0.62004 0.0
H745 H 0.76223 0.5899 0.58806 0.0
H746 H 0.82806 0.63618 0.77665 0.0
H747 H 0.88349 0.71434 0.81503 0.0
H748 H 0.88891 0.73091 0.75527 0.0
H749 H 0.905 0.75065 0.78788 0.0
Tb750 Tb 0.36309 0.1733 0.66326 0.0
C751 C 0.24209 0.13338 0.71352 0.0
C752 C 0.22751 0.17429 0.7115 0.0
C753 C 0.1857 0.11979 0.71795 0.0
C754 C 0.25095 0.1646 0.71034 0.0
C755 C 0.20943 0.11056 0.71746 0.0
C756 C 0.19476 0.15164 0.71508 0.0
C757 C 0.22655 0.07176 0.72128 0.0
N758 N 0.26579 0.12555 0.71316 0.0
C759 C 0.25868 0.09537 0.71757 0.0
C760 C 0.20175 0.07933 0.72111 0.0
Tb761 Tb 0.31751 0.16577 0.7066 0.0
N762 N 0.28287 0.18576 0.70713 0.0
C763 C 0.29329 0.2175 0.70635 0.0
C764 C 0.23784 0.20654 0.70952 0.0
C765 C 0.27094 0.22827 0.70717 0.0
H766 H 0.27762 0.08922 0.71765 0.0
H767 H 0.2793 0.25336 0.70602 0.0
H768 H 0.17635 0.15858 0.71587 0.0
H769 H 0.22093 0.04775 0.72429 0.0
H770 H 0.3188 0.23471 0.70471 0.0
H771 H 0.39247 0.08043 0.67432 0.0
H772 H 0.22059 0.21496 0.71022 0.0
H773 H 0.40736 0.24408 0.64391 0.0
H774 H 0.35615 0.10235 0.67018 0.0
H775 H 0.46548 0.28183 0.63738 0.0
H776 H 0.16043 0.10261 0.72088 0.0
H777 H 0.45226 0.11561 0.67252 0.0
H778 H 0.49992 0.17008 0.66601 0.0
H779 H 0.17691 0.06104 0.72411 0.0
H780 H 0.51997 0.22527 0.65596 0.0
N781 N 0.39477 0.15003 0.66648 0.0
C782 C 0.38209 0.11815 0.66923 0.0
C783 C 0.43639 0.12544 0.67064 0.0
C784 C 0.44914 0.15763 0.66662 0.0
C785 C 0.40267 0.10551 0.67161 0.0
C786 C 0.42737 0.16918 0.66444 0.0
H787 H 0.50721 0.26711 0.64489 0.0
N788 N 0.41628 0.20903 0.65584 0.0
C789 C 0.45829 0.25894 0.6436 0.0
C790 C 0.43858 0.19996 0.65895 0.0
C791 C 0.42541 0.23751 0.6473 0.0
C792 C 0.48178 0.25059 0.64791 0.0
C793 C 0.47197 0.22047 0.65529 0.0
O794 O 0.35638 0.18477 0.63544 0.0
O795 O 0.32453 0.17721 0.67687 0.0
O796 O 0.28407 0.1314 0.68589 0.0
O797 O 0.32134 0.12479 0.66773 0.0
O798 O 0.34841 0.20778 0.65506 0.0
O799 O 0.34891 0.13851 0.64195 0.0
O800 O 0.32089 0.15205 0.73448 0.0
O801 O 0.35763 0.16447 0.69328 0.0
O802 O 0.39409 0.21538 0.68037 0.0
O803 O 0.35697 0.21539 0.70269 0.0
O804 O 0.33466 0.13255 0.71408 0.0
O805 O 0.33434 0.20051 0.72791 0.0
C806 C 0.32548 0.19952 0.66732 0.0
C807 C 0.36964 0.15943 0.61155 0.0
C808 C 0.3773 0.16548 0.57722 0.0
C809 C 0.3585 0.1619 0.59351 0.0
C810 C 0.40718 0.16623 0.5792 0.0
C811 C 0.39937 0.15987 0.61317 0.0
C812 C 0.418 0.16325 0.59706 0.0
C813 C 0.29123 0.1152 0.67362 0.0
C814 C 0.3507 0.15769 0.62855 0.0
C815 C 0.49414 0.20978 0.65845 0.0
C816 C 0.48273 0.17836 0.66414 0.0
C817 C 0.35916 0.14346 0.70278 0.0
C818 C 0.31519 0.18233 0.75899 0.0
C819 C 0.32681 0.17771 0.77632 0.0
C820 C 0.31485 0.18222 0.79361 0.0
C821 C 0.29075 0.19094 0.79344 0.0
C822 C 0.29073 0.19059 0.75906 0.0
C823 C 0.27856 0.19477 0.77623 0.0
C824 C 0.38572 0.22896 0.69393 0.0
C825 C 0.33047 0.18035 0.74123 0.0
H826 H 0.33565 0.16177 0.59219 0.0
H827 H 0.42201 0.16879 0.56687 0.0
H828 H 0.40827 0.15768 0.62684 0.0
H829 H 0.44095 0.16367 0.59844 0.0
H830 H 0.34584 0.17152 0.77636 0.0
H831 H 0.28123 0.19452 0.80663 0.0
H832 H 0.28142 0.19433 0.74593 0.0
H833 H 0.25985 0.20133 0.77619 0.0
Tb834 Tb 0.85236 0.15469 0.70354 0.0
C835 C 0.80398 0.22761 0.65431 0.0
C836 C 0.74558 0.19283 0.65341 0.0
C837 C 0.76847 0.24982 0.65035 0.0
C838 C 0.77733 0.19754 0.65518 0.0
C839 C 0.80003 0.25413 0.65146 0.0
C840 C 0.74126 0.21919 0.65135 0.0
C841 C 0.85862 0.28662 0.64957 0.0
N842 N 0.83395 0.23068 0.65548 0.0
C843 C 0.86122 0.25954 0.65241 0.0
C844 C 0.82789 0.28398 0.64936 0.0
Tb845 Tb 0.8359 0.1852 0.66051 0.0
N846 N 0.78263 0.1728 0.65713 0.0
C847 C 0.75706 0.14236 0.656 0.0
C848 C 0.71923 0.16177 0.65338 0.0
C849 C 0.72505 0.13641 0.65445 0.0
H850 H 0.8851 0.26191 0.65264 0.0
H851 H 0.7049 0.11226 0.65411 0.0
H852 H 0.71706 0.2161 0.65012 0.0
H853 H 0.88031 0.30951 0.64762 0.0
H854 H 0.76096 0.1224 0.65684 0.0
H855 H 0.98337 0.22834 0.70936 0.0
H856 H 0.69443 0.1571 0.65215 0.0
H857 H 0.80376 0.07814 0.71196 0.0
H858 H 0.92711 0.2178 0.70699 0.0
H859 H 0.80898 0.03076 0.71704 0.0
H860 H 0.76487 0.26991 0.64833 0.0
H861 H 0.99427 0.18375 0.71107 0.0
H862 H 0.97205 0.12481 0.7131 0.0
H863 H 0.82594 0.30499 0.64716 0.0
H864 H 0.92449 0.07088 0.71522 0.0
N865 N 0.90579 0.16744 0.70663 0.0
C866 C 0.93122 0.19796 0.70772 0.0
C867 C 0.9694 0.17891 0.70998 0.0
C868 C 0.9432 0.14777 0.71003 0.0
C869 C 0.96333 0.20413 0.70907 0.0
C870 C 0.91134 0.14284 0.70845 0.0
H871 H 0.86349 0.03557 0.71696 0.0
N872 N 0.85477 0.10945 0.70854 0.0
C873 C 0.83054 0.05367 0.71483 0.0
C874 C 0.88484 0.1127 0.70945 0.0
C875 C 0.82769 0.08061 0.71195 0.0
C876 C 0.86134 0.05646 0.71473 0.0
C877 C 0.88904 0.08634 0.71231 0.0
O878 O 0.82356 0.13785 0.72824 0.0
O879 O 0.81963 0.16559 0.68848 0.0
O880 O 0.843 0.21914 0.68288 0.0
O881 O 0.87164 0.20641 0.70486 0.0
O882 O 0.79907 0.12533 0.7042 0.0
O883 O 0.87102 0.1798 0.72907 0.0
O884 O 0.86472 0.2018 0.63582 0.0
O885 O 0.86855 0.17418 0.67554 0.0
O886 O 0.84461 0.12043 0.68127 0.0
O887 O 0.81623 0.13345 0.65925 0.0
O888 O 0.88919 0.21451 0.65995 0.0
O889 O 0.8173 0.15979 0.63504 0.0
C890 C 0.79243 0.14315 0.69394 0.0
C891 C 0.85102 0.15122 0.75773 0.0
C892 C 0.84837 0.15521 0.7923 0.0
C893 C 0.84327 0.16316 0.77388 0.0
C894 C 0.86116 0.13475 0.79417 0.0
C895 C 0.86381 0.131 0.75993 0.0
C896 C 0.86876 0.12277 0.7781 0.0
C897 C 0.86044 0.22485 0.69857 0.0
C898 C 0.84538 0.16033 0.73884 0.0
C899 C 0.9207 0.09085 0.7132 0.0
C900 C 0.94776 0.12155 0.71202 0.0
C901 C 0.89579 0.19655 0.6701 0.0
C902 C 0.83755 0.18781 0.60623 0.0
C903 C 0.84298 0.17358 0.59031 0.0
C904 C 0.83871 0.18167 0.57176 0.0
C905 C 0.8289 0.20438 0.56948 0.0
C906 C 0.82762 0.21023 0.60364 0.0
C907 C 0.82336 0.21846 0.58532 0.0
C908 C 0.82708 0.11478 0.66563 0.0
C909 C 0.843 0.1791 0.62528 0.0
H910 H 0.83299 0.17848 0.77202 0.0
H911 H 0.86591 0.12846 0.80805 0.0
H912 H 0.86998 0.12162 0.74768 0.0
H913 H 0.87875 0.1072 0.77974 0.0
H914 H 0.85099 0.15649 0.59242 0.0
H915 H 0.82495 0.2109 0.55547 0.0
H916 H 0.82328 0.2214 0.61571 0.0
H917 H 0.81566 0.23577 0.58337 0.0
H918 H 0.29317 0.87088 0.08481 0.0
H919 H 0.30326 0.78913 0.07155 0.0
H920 H 0.35243 0.82307 0.05261 0.0
H921 H 0.32123 0.90989 0.03847 0.0
H922 H 0.3424 0.94912 0.04866 0.0
H923 H 0.30679 0.91807 0.06027 0.0
H924 H 0.34011 0.92765 0.09122 0.0
H925 H 0.37568 0.95871 0.07967 0.0
H926 H 0.37725 0.92599 0.09048 0.0
H927 H 0.40288 0.86643 0.03722 0.0
H928 H 0.45053 0.91617 0.02624 0.0
H929 H 0.40695 0.96963 0.0482 0.0
C930 C 0.30569 0.86016 0.07785 0.0
C931 C 0.29423 0.82731 0.07955 0.0
C932 C 0.31127 0.81414 0.07021 0.0
C933 C 0.33928 0.83323 0.05945 0.0
C934 C 0.3499 0.86548 0.05802 0.0
C935 C 0.33358 0.87886 0.06688 0.0
C936 C 0.3507 0.91433 0.06349 0.0
C937 C 0.32897 0.92337 0.05204 0.0
C938 C 0.36158 0.93275 0.08234 0.0
C939 C 0.37963 0.91889 0.05182 0.0
C940 C 0.3786 0.89038 0.04871 0.0
C941 C 0.40363 0.88882 0.03924 0.0
C942 C 0.43053 0.91719 0.03294 0.0
C943 C 0.43191 0.94661 0.03582 0.0
C944 C 0.40607 0.94733 0.04538 0.0
H945 H 0.13188 0.4048 0.08139 0.0
H946 H 0.21749 0.49653 0.07118 0.0
H947 H 0.18303 0.51511 0.05593 0.0
H948 H 0.09176 0.40173 0.03641 0.0
H949 H 0.05152 0.38203 0.04668 0.0
H950 H 0.08298 0.3759 0.05656 0.0
H951 H 0.07388 0.39385 0.0896 0.0
H952 H 0.0424 0.39994 0.07979 0.0
H953 H 0.07646 0.43193 0.09197 0.0
H954 H 0.13862 0.5249 0.04425 0.0
H955 H 0.08824 0.52425 0.03528 0.0
H956 H 0.03171 0.42475 0.05018 0.0
C957 C 0.14326 0.42879 0.07593 0.0
C958 C 0.17725 0.44937 0.07752 0.0
C959 C 0.19146 0.48046 0.07005 0.0
C960 C 0.17211 0.49118 0.06138 0.0
C961 C 0.13865 0.47031 0.06001 0.0
C962 C 0.12437 0.43966 0.06688 0.0
C963 C 0.08788 0.42198 0.06347 0.0
C964 C 0.07796 0.39373 0.04998 0.0
C965 C 0.06905 0.41131 0.08233 0.0
C966 C 0.08376 0.44772 0.05407 0.0
C967 C 0.11334 0.47542 0.05222 0.0
C968 C 0.11544 0.50309 0.04517 0.0
C969 C 0.08658 0.50242 0.03991 0.0
C970 C 0.05606 0.47409 0.04115 0.0
C971 C 0.0548 0.44648 0.04844 0.0
H972 H 0.58401 0.7333 0.05173 0.0
H973 H 0.54144 0.70541 0.1079 0.0
H974 H 0.51714 0.64899 0.09886 0.0
H975 H 0.51676 0.66858 0.02547 0.0
H976 H 0.54344 0.66398 1.00915 0.0
H977 H 0.55574 0.70228 0.01945 0.0
H978 H 0.60858 0.70547 0.03219 0.0
H979 H 0.59654 0.66733 0.02183 0.0
H980 H 0.60566 0.67382 0.04682 0.0
H981 H 0.49904 0.59642 0.08437 0.0
H982 H 0.49107 0.55003 0.06589 0.0
H983 H 0.54625 0.61127 0.01916 0.0
C984 C 0.56922 0.71524 0.06201 0.0
C985 C 0.56445 0.72354 0.08049 0.0
C986 C 0.5455 0.69942 0.09373 0.0
C987 C 0.53142 0.6674 0.08867 0.0
C988 C 0.5366 0.66001 0.07035 0.0
C989 C 0.55516 0.68315 0.05723 0.0
C990 C 0.55852 0.66867 0.03888 0.0
C991 C 0.54266 0.67634 0.02225 0.0
C992 C 0.59446 0.67946 0.0347 0.0
C993 C 0.53941 0.63378 0.04388 0.0
C994 C 0.52665 0.62942 0.06203 0.0
C995 C 0.50889 0.59951 0.07016 0.0
C996 C 0.50469 0.57338 0.05964 0.0
C997 C 0.51845 0.57741 0.04134 0.0
C998 C 0.53541 0.6078 0.03313 0.0
H999 H 0.87603 0.28537 0.94814 0.0
H1000 H 0.783 0.27361 0.96648 0.0
H1001 H 0.81145 0.32275 0.98501 0.0
H1002 H 0.91961 0.31759 0.99118 0.0
H1003 H 0.95712 0.3465 0.98008 0.0
H1004 H 0.92991 0.31026 0.96779 0.0
H1005 H 0.92757 0.34257 0.93929 0.0
H1006 H 0.95499 0.37892 0.95144 0.0
H1007 H 0.91607 0.37226 0.94323 0.0
H1008 H 0.84853 0.37051 1.00297 0.0
H1009 H 0.89314 0.41846 0.01731 0.0
H1010 H 0.96364 0.40324 0.98636 0.0
C1011 C 0.8617 0.29334 0.95589 0.0
C1012 C 0.8272 0.27504 0.9562 0.0
C1013 C 0.80939 0.28647 0.96649 0.0
C1014 C 0.82531 0.31456 0.97697 0.0
C1015 C 0.85915 0.33149 0.97679 0.0
C1016 C 0.87728 0.32178 0.96633 0.0
C1017 C 0.91352 0.34509 0.9686 0.0
C1018 C 0.93107 0.32888 0.97744 0.0
C1019 C 0.92894 0.36063 0.9495 0.0
C1020 C 0.91269 0.36894 0.98221 0.0
C1021 C 0.88096 0.36035 0.98674 0.0
C1022 C 0.87352 0.37771 0.99942 0.0
C1023 C 0.89916 0.40489 1.0076 0.0
C1024 C 0.93201 0.41473 1.003 0.0
C1025 C 0.93881 0.39644 0.9901 0.0
H1026 H 0.69396 0.51944 0.94829 0.0
H1027 H 0.76275 0.60053 0.98141 0.0
H1028 H 0.71735 0.59734 1.00062 0.0
H1029 H 0.62878 0.53737 0.94756 0.0
H1030 H 0.59695 0.4966 0.95005 0.0
H1031 H 0.63484 0.50588 0.93879 0.0
H1032 H 0.64173 0.46936 0.96269 0.0
H1033 H 0.60424 0.46049 0.97438 0.0
H1034 H 0.64154 0.4765 0.98779 0.0
H1035 H 0.6641 0.58704 0.01501 0.0
H1036 H 0.60692 0.56941 0.02397 0.0
H1037 H 0.57296 0.49243 0.98342 0.0
C1038 C 0.69927 0.53666 0.95946 0.0
C1039 C 0.73168 0.56056 0.96327 0.0
C1040 C 0.73797 0.58232 0.97823 0.0
C1041 C 0.71239 0.58057 0.98923 0.0
C1042 C 0.68066 0.55657 0.98529 0.0
C1043 C 0.674 0.5349 0.97081 0.0
C1044 C 0.63777 0.51115 0.96975 0.0
C1045 C 0.62377 0.51287 0.95039 0.0
C1046 C 0.63092 0.47737 0.9739 0.0
C1047 C 0.62508 0.52319 0.98561 0.0
C1048 C 0.65022 0.54944 0.9944 0.0
C1049 C 0.64431 0.56606 1.00854 0.0
C1050 C 0.61187 0.55581 1.01365 0.0
C1051 C 0.58589 0.52858 1.00516 0.0
C1052 C 0.59261 0.51226 0.99086 0.0
H1053 H 0.41703 0.12597 0.94619 0.0
H1054 H 0.49493 0.21682 0.9663 0.0
H1055 H 0.5182 0.18952 0.98433 0.0
H1056 H 0.40531 0.08342 0.98826 0.0
H1057 H 0.39841 0.04722 0.97709 0.0
H1058 H 0.38878 0.07369 0.96459 0.0
H1059 H 0.42613 0.07712 0.93668 0.0
H1060 H 0.43546 0.05023 0.94897 0.0
H1061 H 0.46794 0.08839 0.94135 0.0
H1062 H 0.53058 0.15251 1.00211 0.0
H1063 H 0.5347 0.1082 0.01588 0.0
H1064 H 0.44959 0.04132 0.98363 0.0
C1065 C 0.43941 0.14013 0.95402 0.0
C1066 C 0.45402 0.17349 0.95499 0.0
C1067 C 0.48306 0.19119 0.9656 0.0
C1068 C 0.49652 0.17593 0.97584 0.0
C1069 C 0.48088 0.14298 0.97515 0.0
C1070 C 0.45331 0.12527 0.96426 0.0
C1071 C 0.44103 0.09009 0.96628 0.0
C1072 C 0.40633 0.07259 0.97455 0.0
C1073 C 0.44276 0.07561 0.94718 0.0
C1074 C 0.46564 0.09086 0.98025 0.0
C1075 C 0.48837 0.12159 0.9852 0.0
C1076 C 0.51309 0.12832 0.99822 0.0
C1077 C 0.51504 0.10294 1.0061 0.0
C1078 C 0.49245 0.07123 1.00088 0.0
C1079 C 0.4673 0.06525 0.9879 0.0
H1080 H 0.73049 0.12606 0.94928 0.0
H1081 H 0.71737 0.20681 0.95986 0.0
H1082 H 0.66594 0.17227 0.97662 0.0
H1083 H 0.64541 0.06926 0.94088 0.0
H1084 H 0.64663 0.037 0.95258 0.0
H1085 H 0.68284 0.06813 0.94154 0.0
H1086 H 0.71384 0.0784 0.97344 0.0
H1087 H 0.67753 0.04749 0.98457 0.0
H1088 H 0.69778 0.08696 0.99444 0.0
H1089 H 0.61599 0.12975 0.9918 0.0
H1090 H 0.56827 0.08064 1.00269 0.0
H1091 H 0.61261 0.02638 0.98333 0.0
C1092 C 0.71658 0.13628 0.95501 0.0
C1093 C 0.72805 0.16916 0.95343 0.0
C1094 C 0.70923 0.18176 0.96114 0.0
C1095 C 0.68001 0.16237 0.9707 0.0
C1096 C 0.66975 0.13029 0.97246 0.0
C1097 C 0.68719 0.11715 0.96474 0.0
C1098 C 0.67003 0.08171 0.96849 0.0
C1099 C 0.66067 0.06292 0.94976 0.0
C1100 C 0.69106 0.07315 0.98098 0.0
C1101 C 0.64013 0.07708 0.97919 0.0
C1102 C 0.64072 0.10553 0.98147 0.0
C1103 C 0.61541 0.10735 0.99031 0.0
C1104 C 0.58841 0.07924 0.99668 0.0
C1105 C 0.58707 0.04972 0.99447 0.0
C1106 C 0.61338 0.04875 0.98563 0.0
H1107 H 0.87371 0.5906 0.95856 0.0
H1108 H 0.78895 0.49976 0.97179 0.0
H1109 H 0.82399 0.48382 0.98896 0.0
H1110 H 0.92994 0.56321 0.95112 0.0
H1111 H 0.96385 0.59687 0.96229 0.0
H1112 H 0.93206 0.60123 0.95129 0.0
H1113 H 0.9228 0.62305 0.98288 0.0
H1114 H 0.95456 0.61866 0.99396 0.0
H1115 H 0.91435 0.59992 1.00426 0.0
H1116 H 0.86878 0.47612 1.00209 0.0
H1117 H 0.9194 0.47845 1.0122 0.0
H1118 H 0.97503 0.57619 0.99366 0.0
C1119 C 0.86265 0.56739 0.96511 0.0
C1120 C 0.8287 0.54627 0.96382 0.0
C1121 C 0.81491 0.51622 0.97269 0.0
C1122 C 0.8346 0.507 0.98244 0.0
C1123 C 0.86799 0.52835 0.98348 0.0
C1124 C 0.8819 0.55806 0.97526 0.0
C1125 C 0.91842 0.57649 0.97862 0.0
C1126 C 0.93716 0.58494 0.9597 0.0
C1127 C 0.92809 0.6063 0.99065 0.0
C1128 C 0.92295 0.55225 0.98963 0.0
C1129 C 0.89355 0.52461 0.9922 0.0
C1130 C 0.89181 0.49797 1.00063 0.0
C1131 C 0.92083 0.4996 1.00654 0.0
C1132 C 0.9512 0.52794 1.00463 0.0
C1133 C 0.95208 0.55453 0.99597 0.0
H1134 H 0.43648 0.28857 0.9388 0.0
H1135 H 0.40298 0.22542 0.98733 0.0
H1136 H 0.41199 0.27004 1.00807 0.0
H1137 H 0.49974 0.35273 0.96144 0.0
H1138 H 0.49495 0.38299 0.9497 0.0
H1139 H 0.48193 0.34558 0.93808 0.0
H1140 H 0.42378 0.33716 0.93406 0.0
H1141 H 0.4368 0.37486 0.9454 0.0
H1142 H 0.4022 0.33944 0.95455 0.0
H1143 H 0.43151 0.32238 0.0241 0.0
H1144 H 0.45505 0.37844 0.03387 0.0
H1145 H 0.47425 0.40725 0.97481 0.0
C1146 C 0.43 0.28397 0.95367 0.0
C1147 C 0.41905 0.25362 0.9615 0.0
C1148 C 0.41156 0.2486 0.98111 0.0
C1149 C 0.41654 0.27374 0.99298 0.0
C1150 C 0.42867 0.30368 0.98498 0.0
C1151 C 0.43476 0.30884 0.96573 0.0
C1152 C 0.4495 0.34368 0.96094 0.0
C1153 C 0.48354 0.35701 0.95202 0.0
C1154 C 0.4267 0.3491 0.94797 0.0
C1155 C 0.4515 0.3573 0.98056 0.0
C1156 C 0.43935 0.33386 0.99423 0.0
C1157 C 0.44056 0.34092 1.0135 0.0
C1158 C 0.45421 0.37281 0.01893 0.0
C1159 C 0.46626 0.39712 1.0051 0.0
C1160 C 0.46478 0.38913 0.98569 0.0
H1161 H 0.18808 0.73559 0.05984 0.0
H1162 H 0.19044 0.70041 0.1161 0.0
H1163 H 0.14968 0.64647 0.10616 0.0
H1164 H 0.10372 0.6866 0.05149 0.0
H1165 H 0.1075 0.67929 0.02678 0.0
H1166 H 0.13801 0.71541 0.03784 0.0
H1167 H 0.18289 0.70285 0.0276 0.0
H1168 H 0.15247 0.66668 0.01646 0.0
H1169 H 0.1792 0.66541 0.03415 0.0
H1170 H 0.10652 0.59749 0.09137 0.0
H1171 H 0.06474 0.55471 0.07156 0.0
H1172 H 0.09137 0.61945 0.02404 0.0
C1173 C 0.18038 0.71646 0.06998 0.0
C1174 C 0.19214 0.72245 0.08888 0.0
C1175 C 0.18122 0.6967 0.10171 0.0
C1176 C 0.15829 0.66587 0.09616 0.0
C1177 C 0.14678 0.66092 0.07761 0.0
C1178 C 0.15763 0.6853 0.06459 0.0
C1179 C 0.1407 0.67321 0.04559 0.0
C1180 C 0.12133 0.6896 0.04011 0.0
C1181 C 0.16529 0.67729 0.03003 0.0
C1182 C 0.11818 0.63844 0.05018 0.0
C1183 C 0.12223 0.63202 0.06877 0.0
C1184 C 0.10331 0.60212 0.07676 0.0
C1185 C 0.07951 0.57808 0.06547 0.0
C1186 C 0.07494 0.58402 0.04643 0.0
C1187 C 0.09474 0.61442 0.03856 0.0
H1188 H 0.29791 0.48285 0.07023 0.0
H1189 H 0.25478 0.38128 0.07732 0.0
H1190 H 0.30246 0.38336 0.06148 0.0
H1191 H 0.33867 0.48965 0.02425 0.0
H1192 H 0.37464 0.5264 0.03063 0.0
H1193 H 0.33555 0.51683 0.04033 0.0
H1194 H 0.35822 0.52354 0.07444 0.0
H1195 H 0.3975 0.53364 0.06493 0.0
H1196 H 0.3776 0.50143 0.08159 0.0
H1197 H 0.35652 0.39694 0.04769 0.0
H1198 H 0.41461 0.4216 0.03847 0.0
H1199 H 0.42374 0.51456 0.04096 0.0
C1200 C 0.29831 0.46103 0.06802 0.0
C1201 C 0.27263 0.43182 0.07473 0.0
C1202 C 0.27423 0.40381 0.07215 0.0
C1203 C 0.30109 0.40476 0.0631 0.0
C1204 C 0.32626 0.43397 0.05681 0.0
C1205 C 0.32524 0.46166 0.05926 0.0
C1206 C 0.35689 0.4903 0.05289 0.0
C1207 C 0.35109 0.50677 0.03601 0.0
C1208 C 0.37353 0.51358 0.06945 0.0
C1209 C 0.3761 0.47448 0.04692 0.0
C1210 C 0.35775 0.4419 0.04898 0.0
C1211 C 0.37088 0.42233 0.04561 0.0
C1212 C 0.40376 0.43644 0.04031 0.0
C1213 C 0.42296 0.46972 0.03828 0.0
C1214 C 0.409 0.48894 0.04166 0.0
H1215 H 0.57249 0.85509 0.09031 0.0
H1216 H 0.59032 0.8135 0.04037 0.0
H1217 H 0.57544 0.84529 0.01988 0.0
H1218 H 0.50423 0.85784 0.07273 0.0
H1219 H 0.5151 0.89556 0.08339 0.0
H1220 H 0.52799 0.87021 0.09423 0.0
H1221 H 0.58818 0.91563 0.09289 0.0
H1222 H 0.57539 0.9412 0.08222 0.0
H1223 H 0.60539 0.93465 0.07053 0.0
H1224 H 0.55599 0.87962 1.00485 0.0
H1225 H 0.53762 0.91737 0.99645 0.0
H1226 H 0.5344 0.93772 0.05607 0.0
C1227 C 0.57393 0.85311 0.07507 0.0
C1228 C 0.58243 0.83165 0.06696 0.0
C1229 C 0.58341 0.82941 0.04692 0.0
C1230 C 0.57513 0.84745 0.03516 0.0
C1231 C 0.56623 0.86786 0.04363 0.0
C1232 C 0.56598 0.8711 0.06312 0.0
C1233 C 0.55534 0.89462 0.06863 0.0
C1234 C 0.52379 0.87858 0.08044 0.0
C1235 C 0.58271 0.92322 0.07919 0.0
C1236 C 0.54948 0.90392 0.0492 0.0
C1237 C 0.55567 0.88808 0.03497 0.0
C1238 C 0.55115 0.89223 0.01587 0.0
C1239 C 0.54034 0.91343 1.01122 0.0
C1240 C 0.53438 0.93021 0.02558 0.0
C1241 C 0.53902 0.92533 0.04479 0.0
H1242 H 0.95153 0.19795 0.41729 0.0
H1243 H 0.96736 0.11892 0.40678 0.0
H1244 H 0.0199 0.15516 0.39116 0.0
H1245 H 0.98436 0.23691 0.3725 0.0
H1246 H 1.0025 0.27639 0.38226 0.0
H1247 H 0.96663 0.24447 0.39311 0.0
H1248 H 0.99676 0.25638 0.42541 0.0
H1249 H 0.0326 0.28844 0.41465 0.0
H1250 H 0.03516 0.25721 0.42678 0.0
H1251 H 0.07129 0.2003 0.37727 0.0
H1252 H 0.11713 0.25082 0.36565 0.0
H1253 H 0.0666 0.30006 0.38347 0.0
C1254 C 0.96631 0.18844 0.41188 0.0
C1255 C 0.95561 0.15573 0.41334 0.0
C1256 C 0.97523 0.14395 0.4058 0.0
C1257 C 1.00504 0.16432 0.39691 0.0
C1258 C 0.01476 0.19639 0.39549 0.0
C1259 C 0.99595 0.2084 0.4027 0.0
C1260 C 0.01162 0.24367 0.39887 0.0
C1261 C 0.98998 0.25076 0.38592 0.0
C1262 C 0.01951 0.26253 0.41754 0.0
C1263 C 0.04238 0.2497 0.38867 0.0
C1264 C 0.04373 0.22212 0.38686 0.0
C1265 C 0.07028 0.22195 0.37841 0.0
C1266 C 0.09613 0.25074 0.37171 0.0
C1267 C 0.09495 0.27915 0.37311 0.0
C1268 C 0.06779 0.27853 0.38185 0.0
H1269 H 0.80244 0.74213 0.41426 0.0
H1270 H 0.88334 0.83747 0.40568 0.0
H1271 H 0.84718 0.85153 0.38825 0.0
H1272 H 0.76604 0.73464 0.36801 0.0
H1273 H 0.72471 0.71247 0.37656 0.0
H1274 H 0.75668 0.70984 0.38872 0.0
H1275 H 0.74142 0.72702 0.42019 0.0
H1276 H 0.70925 0.72939 0.40812 0.0
H1277 H 0.73999 0.76333 0.42088 0.0
H1278 H 0.80209 0.85577 0.37239 0.0
H1279 H 0.75095 0.84988 0.35957 0.0
H1280 H 0.69948 0.75111 0.37662 0.0
C1281 C 0.81235 0.76602 0.40886 0.0
C1282 C 0.84567 0.78877 0.41135 0.0
C1283 C 0.85791 0.81968 0.40387 0.0
C1284 C 0.83758 0.82788 0.39394 0.0
C1285 C 0.80501 0.80482 0.39142 0.0
C1286 C 0.79241 0.77451 0.39865 0.0
C1287 C 0.75655 0.75421 0.39372 0.0
C1288 C 0.75067 0.72613 0.381 0.0
C1289 C 0.73557 0.74282 0.41181 0.0
C1290 C 0.75093 0.77794 0.38287 0.0
C1291 C 0.77924 0.80698 0.38168 0.0
C1292 C 0.77988 0.833 0.37301 0.0
C1293 C 0.75073 0.82936 0.3656 0.0
C1294 C 0.72142 0.79977 0.36653 0.0
C1295 C 0.7217 0.77379 0.37527 0.0
H1296 H 0.26721 0.06033 0.42869 0.0
H1297 H 0.18198 0.06674 0.4135 0.0
H1298 H 0.15935 0.01588 0.39643 0.0
H1299 H 0.27574 0.02896 0.38628 0.0
H1300 H 0.28678 0.00169 0.3964 0.0
H1301 H 0.29547 0.03719 0.40911 0.0
H1302 H 0.26321 0.00376 0.43824 0.0
H1303 H 0.25491 0.96813 0.42574 0.0
H1304 H 0.22176 0.97206 0.43523 0.0
H1305 H 0.14955 0.96903 0.3775 0.0
H1306 H 0.14849 0.92343 0.36176 0.0
H1307 H 0.23779 0.94417 0.39085 0.0
C1308 C 0.24335 0.05053 0.42227 0.0
C1309 C 0.22654 0.0677 0.42222 0.0
C1310 C 0.19555 0.05427 0.41343 0.0
C1311 C 0.18243 0.02536 0.40374 0.0
C1312 C 0.20026 0.00977 0.4033 0.0
C1313 C 0.22963 0.02136 0.4127 0.0
C1314 C 0.244 1.0 0.40953 0.0
C1315 C 0.27748 0.01805 0.39975 0.0
C1316 C 0.24608 0.9851 0.4283 0.0
C1317 C 0.21859 0.97527 0.39643 0.0
C1318 C 0.1937 0.98154 0.39298 0.0
C1319 C 0.16851 0.96341 0.3804 0.0
C1320 C 0.16828 0.93767 0.37141 0.0
C1321 C 0.19288 0.93 0.37521 0.0
C1322 C 0.21844 0.9492 0.38784 0.0
H1323 H 0.52952 0.60655 0.27459 0.0
H1324 H 0.43855 0.59612 0.29578 0.0
H1325 H 0.46912 0.64617 0.31355 0.0
H1326 H 0.57583 0.63867 0.31669 0.0
H1327 H 0.61296 0.66657 0.30481 0.0
H1328 H 0.58422 0.63034 0.29305 0.0
H1329 H 0.58117 0.66255 0.26472 0.0
H1330 H 0.61012 0.69888 0.27633 0.0
H1331 H 0.57114 0.69319 0.26901 0.0
H1332 H 0.50879 0.69538 0.33024 0.0
H1333 H 0.55539 0.74324 0.34343 0.0
H1334 H 0.62176 0.72403 0.31103 0.0
C1335 C 0.51602 0.61507 0.28271 0.0
C1336 C 0.48155 0.59714 0.2839 0.0
C1337 C 0.4649 0.60903 0.29489 0.0
C1338 C 0.48204 0.63755 0.30498 0.0
C1339 C 0.51591 0.65421 0.30384 0.0
C1340 C 0.53281 0.64371 0.29286 0.0
C1341 C 0.56934 0.66628 0.29434 0.0
C1342 C 0.5866 0.64945 0.30272 0.0
C1343 C 0.58379 0.68111 0.27495 0.0
C1344 C 0.57023 0.69086 0.30803 0.0
C1345 C 0.53906 0.68325 0.31332 0.0
C1346 C 0.53332 0.70169 0.32613 0.0
C1347 C 0.5601 0.7288 0.33367 0.0
C1348 C 0.59241 0.73745 0.32839 0.0
C1349 C 0.59743 0.71814 0.31534 0.0
H1350 H 0.40101 0.93318 0.28925 0.0
H1351 H 0.38938 0.84057 0.30083 0.0
H1352 H 0.33939 0.82598 0.31906 0.0
H1353 H 0.372 0.94316 0.33537 0.0
H1354 H 0.35109 0.96234 0.32575 0.0
H1355 H 0.38659 0.96614 0.31388 0.0
H1356 H 0.35339 0.94445 0.2828 0.0
H1357 H 0.31793 0.94085 0.29458 0.0
H1358 H 0.31599 0.90678 0.28314 0.0
H1359 H 0.28929 0.82007 0.33449 0.0
H1360 H 0.24212 0.82314 0.34588 0.0
H1361 H 0.28625 0.92026 0.32618 0.0
C1362 C 0.38785 0.90984 0.2956 0.0
C1363 C 0.39926 0.88809 0.29372 0.0
C1364 C 0.3814 0.85778 0.3023 0.0
C1365 C 0.35293 0.84924 0.31266 0.0
C1366 C 0.34257 0.87129 0.31447 0.0
C1367 C 0.3594 0.90097 0.30621 0.0
C1368 C 0.34247 0.91989 0.31016 0.0
C1369 C 0.36435 0.94965 0.32199 0.0
C1370 C 0.33181 0.92849 0.29156 0.0
C1371 C 0.3133 0.89599 0.32162 0.0
C1372 C 0.31397 0.86818 0.32396 0.0
C1373 C 0.28882 0.84196 0.33306 0.0
C1374 C 0.26206 0.84403 0.33969 0.0
C1375 C 0.26074 0.87229 0.33762 0.0
C1376 C 0.28693 0.89862 0.3285 0.0
H1377 H 0.16665 0.53614 0.30572 0.0
H1378 H 0.0665 0.47955 0.28671 0.0
H1379 H 0.06314 0.43216 0.30151 0.0
H1380 H 0.18954 0.4795 0.29664 0.0
H1381 H 0.2153 0.48808 0.31716 0.0
H1382 H 0.20912 0.51859 0.30708 0.0
H1383 H 0.18873 0.52698 0.33964 0.0
H1384 H 0.19554 0.4968 0.34973 0.0
H1385 H 0.156 0.49344 0.35162 0.0
H1386 H 0.07188 0.39045 0.31518 0.0
H1387 H 0.09181 0.35622 0.32764 0.0
H1388 H 0.18634 0.43907 0.33874 0.0
C1389 C 0.1438 0.51391 0.30511 0.0
C1390 C 0.11679 0.51146 0.29508 0.0
C1391 C 0.08752 0.48186 0.2942 0.0
C1392 C 0.08532 0.45488 0.30266 0.0
C1393 C 0.11254 0.45792 0.31207 0.0
C1394 C 0.1412 0.48664 0.3135 0.0
C1395 C 0.16746 0.48273 0.32334 0.0
C1396 C 0.1971 0.49282 0.31027 0.0
C1397 C 0.17751 0.50108 0.34221 0.0
C1398 C 0.14929 0.44719 0.32669 0.0
C1399 C 0.11758 0.43351 0.32021 0.0
C1400 C 0.0965 0.40089 0.32057 0.0
C1401 C 0.10815 0.38162 0.3276 0.0
C1402 C 0.1406 0.39495 0.33422 0.0
C1403 C 0.16128 0.42825 0.33402 0.0
H1404 H 0.36456 0.50802 0.29126 0.0
H1405 H 0.41357 0.45342 0.28581 0.0
H1406 H 0.37054 0.41067 0.30528 0.0
H1407 H 0.33246 0.48303 0.33976 0.0
H1408 H 0.29385 0.48019 0.33456 0.0
H1409 H 0.33007 0.50838 0.32203 0.0
H1410 H 0.30237 0.48449 0.2898 0.0
H1411 H 0.26587 0.45691 0.30223 0.0
H1412 H 0.28465 0.44246 0.28577 0.0
H1413 H 0.32145 0.37291 0.32332 0.0
H1414 H 0.26527 0.3387 0.33473 0.0
H1415 H 0.24579 0.41607 0.32817 0.0
C1416 C 0.36627 0.48712 0.29437 0.0
C1417 C 0.39243 0.48396 0.28717 0.0
C1418 C 0.39368 0.45616 0.29118 0.0
C1419 C 0.36956 0.43199 0.30238 0.0
C1420 C 0.3442 0.43586 0.30939 0.0
C1421 C 0.34202 0.46247 0.30531 0.0
C1422 C 0.31036 0.45908 0.31292 0.0
C1423 C 0.3171 0.48416 0.32823 0.0
C1424 C 0.28959 0.46082 0.29671 0.0
C1425 C 0.29468 0.42604 0.32147 0.0
C1426 C 0.31514 0.41354 0.31966 0.0
C1427 C 0.30546 0.38261 0.32511 0.0
C1428 C 0.2736 0.36342 0.3317 0.0
C1429 C 0.25171 0.37513 0.33296 0.0
C1430 C 0.26258 0.40709 0.3282 0.0
H1431 H 0.5468 0.9274 0.28683 0.0
H1432 H 0.46063 0.83526 0.29518 0.0
H1433 H 0.49387 0.81631 0.31127 0.0
H1434 H 0.60319 0.89918 0.27794 0.0
H1435 H 0.63631 0.93118 0.29073 0.0
H1436 H 0.6057 0.9373 0.27965 0.0
H1437 H 0.59466 0.95558 0.31208 0.0
H1438 H 0.62495 0.94893 0.32317 0.0
H1439 H 0.58393 0.92962 0.33232 0.0
H1440 H 0.53603 0.80665 0.32559 0.0
H1441 H 0.58494 0.80648 0.3367 0.0
H1442 H 0.64448 0.90543 0.32102 0.0
C1443 C 0.53511 0.90319 0.29193 0.0
C1444 C 0.50115 0.88274 0.28977 0.0
C1445 C 0.48657 0.85131 0.29678 0.0
C1446 C 0.50523 0.84035 0.30595 0.0
C1447 C 0.53849 0.86117 0.30817 0.0
C1448 C 0.55341 0.89191 0.30138 0.0
C1449 C 0.58965 0.90926 0.30578 0.0
C1450 C 0.6099 0.91984 0.28742 0.0
C1451 C 0.59883 0.93752 0.31913 0.0
C1452 C 0.59275 0.88328 0.31575 0.0
C1453 C 0.56285 0.85582 0.31703 0.0
C1454 C 0.55952 0.82816 0.32491 0.0
C1455 C 0.58754 0.82837 0.33139 0.0
C1456 C 0.61853 0.85619 0.33033 0.0
C1457 C 0.62101 0.88403 0.32246 0.0
H1458 H 0.12287 0.61129 0.31812 0.0
H1459 H 0.18044 0.65112 0.26709 0.0
H1460 H 0.19838 0.70503 0.27894 0.0
H1461 H 0.09428 0.66388 0.32205 0.0
H1462 H 0.09668 0.66771 0.34753 0.0
H1463 H 0.09143 0.63207 0.3365 0.0
H1464 H 0.14301 0.63909 0.35354 0.0
H1465 H 0.14828 0.67466 0.36481 0.0
H1466 H 0.18098 0.67588 0.35105 0.0
H1467 H 0.20395 0.75341 0.29367 0.0
H1468 H 0.20072 0.79487 0.3122 0.0
H1469 H 0.14212 0.72539 0.35481 0.0
C1470 C 0.14004 0.63143 0.30976 0.0
C1471 C 0.15019 0.6271 0.29165 0.0
C1472 C 0.17214 0.65396 0.28091 0.0
C1473 C 0.18259 0.68465 0.28755 0.0
C1474 C 0.17124 0.68813 0.30511 0.0
C1475 C 0.1509 0.66239 0.31626 0.0
C1476 C 0.14084 0.67296 0.33408 0.0
C1477 C 0.1036 0.65828 0.33508 0.0
C1478 C 0.15407 0.66518 0.35193 0.0
C1479 C 0.15772 0.70847 0.33078 0.0
C1480 C 0.17522 0.7166 0.31398 0.0
C1481 C 0.1909 0.74749 0.30702 0.0
C1482 C 0.18875 0.77076 0.31752 0.0
C1483 C 0.17128 0.76303 0.33479 0.0
C1484 C 0.15586 0.73167 0.34168 0.0
H1485 H 0.82738 0.02315 0.42903 0.0
H1486 H 0.85842 0.08641 0.38044 0.0
H1487 H 0.82152 0.04187 0.35989 0.0
H1488 H 0.81982 0.95521 0.40495 0.0
H1489 H 0.78372 0.92694 0.41753 0.0
H1490 H 0.81232 0.96381 0.42872 0.0
H1491 H 0.76612 0.97657 0.43463 0.0
H1492 H 0.73739 0.93963 0.42352 0.0
H1493 H 0.74186 0.97645 0.41492 0.0
H1494 H 0.78312 0.99062 0.34424 0.0
H1495 H 0.74313 0.93588 0.33477 0.0
H1496 H 0.73477 0.90545 0.39331 0.0
C1497 C 0.82612 0.02774 0.41412 0.0
C1498 C 0.84622 0.05835 0.40636 0.0
C1499 C 0.84392 0.06314 0.3867 0.0
C1500 C 0.82283 0.03801 0.3749 0.0
C1501 C 0.80382 0.00815 0.38293 0.0
C1502 C 0.80496 0.00286 0.4021 0.0
C1503 C 0.78185 0.96829 0.407 0.0
C1504 C 0.80055 0.95265 0.41502 0.0
C1505 C 0.75522 0.96505 0.42083 0.0
C1506 C 0.76778 0.95506 0.38756 0.0
C1507 C 0.78097 0.97849 0.3739 0.0
C1508 C 0.77258 0.97205 0.35481 0.0
C1509 C 0.7501 0.94082 0.34952 0.0
C1510 C 0.73616 0.91641 0.36324 0.0
C1511 C 0.74495 0.92373 0.38254 0.0
H1512 H 0.95242 0.74723 0.41476 0.0
H1513 H 0.96023 0.83805 0.40243 0.0
H1514 H 0.01281 0.85556 0.38634 0.0
H1515 H 0.03638 0.77657 0.4246 0.0
H1516 H 0.03795 0.74399 0.41346 0.0
H1517 H 1.00022 0.73798 0.42333 0.0
H1518 H 0.97184 0.71688 0.39082 0.0
H1519 H 0.00961 0.72294 0.38088 0.0
H1520 H 0.98863 0.74107 0.36994 0.0
H1521 H 0.06649 0.86501 0.37404 0.0
H1522 H 0.1166 0.86497 0.36542 0.0
H1523 H 0.07359 0.76713 0.38341 0.0
C1524 C 0.96521 0.77075 0.40862 0.0
C1525 C 0.95213 0.79124 0.40978 0.0
C1526 C 0.96955 0.82181 0.40151 0.0
C1527 C 0.99948 0.83201 0.39238 0.0
C1528 C 0.01165 0.81127 0.39142 0.0
C1529 C 0.99503 0.78121 0.39919 0.0
C1530 C 0.01391 0.76388 0.39638 0.0
C1531 C 0.02263 0.7551 0.41558 0.0
C1532 C 0.99485 0.73444 0.38375 0.0
C1533 C 0.04404 0.78919 0.38626 0.0
C1534 C 0.04214 0.8163 0.38352 0.0
C1535 C 0.06788 0.84363 0.37569 0.0
C1536 C 0.09634 0.84332 0.37063 0.0
C1537 C 0.09874 0.81569 0.37289 0.0
C1538 C 0.0721 0.78831 0.38088 0.0
H1539 H 0.23986 0.20079 0.43372 0.0
H1540 H 0.26622 0.16258 0.38553 0.0
H1541 H 0.25445 0.19526 0.36386 0.0
H1542 H 0.17389 0.2017 0.41264 0.0
H1543 H 0.18127 0.23862 0.42298 0.0
H1544 H 0.19476 0.21473 0.43507 0.0
H1545 H 0.25383 0.26232 0.43587 0.0
H1546 H 0.24034 0.28645 0.42398 0.0
H1547 H 0.27309 0.28227 0.41406 0.0
H1548 H 0.23431 0.22721 0.34723 0.0
H1549 H 0.21182 0.26081 0.33688 0.0
H1550 H 0.20004 0.27983 0.3956 0.0
C1551 C 0.24401 0.20002 0.41866 0.0
C1552 C 0.25377 0.17905 0.41127 0.0
C1553 C 0.2584 0.17824 0.39144 0.0
C1554 C 0.25189 0.19677 0.37904 0.0
C1555 C 0.24116 0.21631 0.38668 0.0
C1556 C 0.23775 0.21853 0.40604 0.0
C1557 C 0.22454 0.24049 0.41042 0.0
C1558 C 0.19167 0.22281 0.42089 0.0
C1559 C 0.24944 0.26962 0.42175 0.0
C1560 C 0.22038 0.24958 0.3905 0.0
C1561 C 0.23008 0.23533 0.37703 0.0
C1562 C 0.22692 0.23876 0.35764 0.0
C1563 C 0.21372 0.25749 0.35187 0.0
C1564 C 0.20398 0.27252 0.36543 0.0
C1565 C 0.20758 0.26869 0.38497 0.0
H1566 H 0.64836 0.49288 0.73599 0.0
H1567 H 0.59581 0.54248 0.74822 0.0
H1568 H 0.63861 0.59019 0.73195 0.0
H1569 H 0.7272 0.5588 0.74515 0.0
H1570 H 0.74745 0.54944 0.72669 0.0
H1571 H 0.71115 0.51827 0.73757 0.0
H1572 H 0.68497 0.50111 0.70442 0.0
H1573 H 0.7206 0.53303 0.69332 0.0
H1574 H 0.68108 0.52917 0.68966 0.0
H1575 H 0.68807 0.63328 0.71684 0.0
H1576 H 0.74372 0.67093 0.70568 0.0
H1577 H 0.76572 0.59467 0.70326 0.0
C1578 C 0.64586 0.51375 0.73497 0.0
C1579 C 0.61884 0.51418 0.74319 0.0
C1580 C 0.6164 0.54189 0.74196 0.0
C1581 C 0.64044 0.56894 0.73266 0.0
C1582 C 0.66688 0.56795 0.72474 0.0
C1583 C 0.67001 0.54125 0.72594 0.0
C1584 C 0.70234 0.54762 0.7176 0.0
C1585 C 0.72327 0.54328 0.73265 0.0
C1586 C 0.69693 0.52647 0.7002 0.0
C1587 C 0.71705 0.58219 0.71192 0.0
C1588 C 0.69588 0.5932 0.71594 0.0
C1589 C 0.70467 0.62484 0.71333 0.0
C1590 C 0.73625 0.64603 0.70698 0.0
C1591 C 0.7586 0.63553 0.70315 0.0
C1592 C 0.74873 0.60309 0.70538 0.0
H1593 H 0.47286 0.08201 0.74818 0.0
H1594 H 0.55461 0.17663 0.73874 0.0
H1595 H 0.5174 0.19302 0.72504 0.0
H1596 H 0.43086 0.07833 0.70458 0.0
H1597 H 0.39061 0.05672 0.71475 0.0
H1598 H 0.42318 0.05205 0.72433 0.0
H1599 H 0.41333 0.06794 0.75771 0.0
H1600 H 0.38043 0.0723 0.74839 0.0
H1601 H 0.41361 0.10485 0.76077 0.0
H1602 H 0.47155 0.19985 0.71352 0.0
H1603 H 0.42029 0.19594 0.70305 0.0
H1604 H 0.3676 0.0963 0.7181 0.0
C1605 C 0.48279 0.1062 0.74332 0.0
C1606 C 0.51662 0.12811 0.74454 0.0
C1607 C 0.52884 0.15946 0.73783 0.0
C1608 C 0.50788 0.16899 0.73008 0.0
C1609 C 0.47474 0.14685 0.72899 0.0
C1610 C 0.46221 0.11604 0.73527 0.0
C1611 C 0.42565 0.09685 0.73197 0.0
C1612 C 0.41707 0.06936 0.71808 0.0
C1613 C 0.40717 0.08478 0.75083 0.0
C1614 C 0.4196 0.12183 0.72311 0.0
C1615 C 0.44831 0.15049 0.72159 0.0
C1616 C 0.44901 0.17739 0.71436 0.0
C1617 C 0.41969 0.17487 0.70828 0.0
C1618 C 0.39008 0.14553 0.70901 0.0
C1619 C 0.39002 0.11884 0.71693 0.0
H1620 H 0.88946 0.39587 0.72843 0.0
H1621 H 0.86281 0.35798 0.78562 0.0
H1622 H 0.85617 0.30727 0.77463 0.0
H1623 H 0.82956 0.32222 0.70511 0.0
H1624 H 0.85577 0.32761 0.68521 0.0
H1625 H 0.85932 0.36166 0.69755 0.0
H1626 H 0.92072 0.38198 0.70321 0.0
H1627 H 0.9171 0.34777 0.69105 0.0
H1628 H 0.9328 0.35661 0.71493 0.0
H1629 H 0.85449 0.26171 0.75833 0.0
H1630 H 0.85219 0.22117 0.73657 0.0
H1631 H 0.87543 0.2857 0.68919 0.0
C1632 C 0.88189 0.37685 0.73862 0.0
C1633 C 0.87749 0.3814 0.75804 0.0
C1634 C 0.86756 0.3557 0.77083 0.0
C1635 C 0.86339 0.3266 0.76471 0.0
C1636 C 0.86852 0.32317 0.74564 0.0
C1637 C 0.87696 0.34727 0.73267 0.0
C1638 C 0.87992 0.33664 0.71284 0.0
C1639 C 0.85463 0.33706 0.69939 0.0
C1640 C 0.91471 0.35697 0.70506 0.0
C1641 C 0.8722 0.303 0.71686 0.0
C1642 C 0.86601 0.29597 0.73593 0.0
C1643 C 0.85917 0.26684 0.74334 0.0
C1644 C 0.85827 0.24407 0.73089 0.0
C1645 C 0.86391 0.2504 0.71124 0.0
C1646 C 0.87086 0.28022 0.70412 0.0
H1647 H 0.16363 0.93302 0.65112 0.0
H1648 H 0.13772 0.96613 0.60059 0.0
H1649 H 0.17443 0.0216 0.61044 0.0
H1650 H 0.1722 0.99763 0.68314 0.0
H1651 H 0.20653 0.99976 0.69544 0.0
H1652 H 0.17572 0.9626 0.68548 0.0
H1653 H 0.22022 0.95834 0.66643 0.0
H1654 H 0.25105 0.99555 0.67621 0.0
H1655 H 0.24678 0.99027 0.65084 0.0
H1656 H 0.2165 0.07324 0.62438 0.0
H1657 H 0.26132 0.11793 0.64187 0.0
H1658 H 0.26093 0.05221 0.68333 0.0
C1659 C 0.16515 0.95199 0.64239 0.0
C1660 C 0.14776 0.94529 0.6251 0.0
C1661 C 0.15092 0.97074 0.61384 0.0
C1662 C 0.17161 0.00231 0.61935 0.0
C1663 C 0.189 0.00816 0.63621 0.0
C1664 C 0.18592 0.98378 0.64766 0.0
C1665 C 0.20887 0.99671 0.66453 0.0
C1666 C 0.18968 0.98869 0.68326 0.0
C1667 C 0.23317 0.98449 0.66449 0.0
C1668 C 0.22584 0.03204 0.6605 0.0
C1669 C 0.2137 0.0381 0.64419 0.0
C1670 C 0.226 0.0688 0.63724 0.0
C1671 C 0.25141 0.09397 0.6472 0.0
C1672 C 0.26425 0.08824 0.66381 0.0
C1673 C 0.25128 0.05699 0.67063 0.0
H1674 H 0.06994 0.25719 0.62228 0.0
H1675 H 0.05276 0.16129 0.62661 0.0
H1676 H 1.00021 0.14467 0.64289 0.0
H1677 H 0.03673 0.25795 0.66885 0.0
H1678 H 0.01945 0.28164 0.66113 0.0
H1679 H 0.05537 0.28576 0.64964 0.0
H1680 H 0.02615 0.27379 0.61705 0.0
H1681 H 0.99028 0.26982 0.62847 0.0
H1682 H 0.98748 0.23788 0.61408 0.0
H1683 H 0.94761 0.138 0.65669 0.0
H1684 H 0.90098 0.14241 0.66832 0.0
H1685 H 0.95484 0.24375 0.65821 0.0
C1686 C 0.05495 0.23269 0.62661 0.0
C1687 C 0.06506 0.21035 0.62305 0.0
C1688 C 0.04521 0.17862 0.62915 0.0
C1689 C 0.01543 0.16903 0.63842 0.0
C1690 C 1.00613 0.19164 0.64181 0.0
C1691 C 0.02547 0.22289 0.63625 0.0
C1692 C 0.01014 0.24258 0.64191 0.0
C1693 C 0.03172 0.26852 0.65624 0.0
C1694 C 1.00309 0.25685 0.62433 0.0
C1695 C 0.97889 0.21745 0.65114 0.0
C1696 C 0.97694 0.18818 0.65088 0.0
C1697 C 0.94927 0.16097 0.65739 0.0
C1698 C 0.9229 0.16374 0.66419 0.0
C1699 C 0.92465 0.19362 0.665 0.0
C1700 C 0.95315 0.22073 0.65837 0.0
H1701 H 0.77723 0.81248 0.61109 0.0
H1702 H 0.8623 0.9007 0.62844 0.0
H1703 H 0.87978 0.87078 0.64876 0.0
H1704 H 0.76155 0.77256 0.65562 0.0
H1705 H 0.74985 0.73443 0.64528 0.0
H1706 H 0.74379 0.76282 0.63224 0.0
H1707 H 0.77749 0.75957 0.60416 0.0
H1708 H 0.7835 0.73105 0.6171 0.0
H1709 H 0.81817 0.76686 0.60841 0.0
H1710 H 0.88799 0.83103 0.66731 0.0
H1711 H 0.88693 0.78431 0.68174 0.0
H1712 H 0.79714 0.72253 0.65154 0.0
C1713 C 0.79969 0.82552 0.61901 0.0
C1714 C 0.8182 0.85897 0.61828 0.0
C1715 C 0.84732 0.87512 0.62905 0.0
C1716 C 0.85759 0.85833 0.64055 0.0
C1717 C 0.83861 0.8254 0.64105 0.0
C1718 C 0.81038 0.80916 0.63048 0.0
C1719 C 0.79457 0.77372 0.63336 0.0
C1720 C 0.76042 0.7601 0.64215 0.0
C1721 C 0.79338 0.75681 0.61465 0.0
C1722 C 0.81826 0.7726 0.64724 0.0
C1723 C 0.84348 0.80261 0.65155 0.0
C1724 C 0.86832 0.8074 0.66406 0.0
C1725 C 0.86742 0.78074 0.67225 0.0
C1726 C 0.84188 0.74976 0.66785 0.0
C1727 C 0.81703 0.74585 0.65522 0.0
H1728 H 0.03175 0.84877 0.63938 0.0
H1729 H 0.08955 0.80328 0.63167 0.0
H1730 H 0.04733 0.7555 0.64812 0.0
H1731 H 0.99658 0.81314 0.68603 0.0
H1732 H 0.95645 0.8068 0.68089 0.0
H1733 H 0.99198 0.83983 0.67043 0.0
H1734 H 0.97007 0.82193 0.63662 0.0
H1735 H 0.93339 0.78977 0.64651 0.0
H1736 H 0.9566 0.7817 0.62935 0.0
H1737 H 0.99635 0.71046 0.66082 0.0
H1738 H 0.93976 0.67103 0.66964 0.0
H1739 H 0.91444 0.74504 0.67008 0.0
C1740 C 0.03581 0.82904 0.64172 0.0
C1741 C 0.06403 0.82972 0.63453 0.0
C1742 C 0.0682 0.8032 0.63725 0.0
C1743 C 0.0444 0.77604 0.64661 0.0
C1744 C 0.01648 0.77571 0.65317 0.0
C1745 C 0.01201 0.8015 0.65092 0.0
C1746 C 0.97839 0.79374 0.65777 0.0
C1747 C 0.98097 0.81461 0.6748 0.0
C1748 C 0.95845 0.79697 0.6416 0.0
C1749 C 0.9644 0.75934 0.66363 0.0
C1750 C 0.98694 0.74956 0.661 0.0
C1751 C 0.97876 0.71802 0.66345 0.0
C1752 C 0.94662 0.69579 0.66842 0.0
C1753 C 0.92314 0.7052 0.67121 0.0
C1754 C 0.93226 0.73746 0.66896 0.0
H1755 H 0.15672 0.17815 0.63061 0.0
H1756 H 0.20811 0.28038 0.6242 0.0
H1757 H 0.25563 0.2842 0.64101 0.0
H1758 H 0.1897 0.17574 0.67724 0.0
H1759 H 0.19469 0.14213 0.67187 0.0
H1760 H 0.16263 0.14597 0.66072 0.0
H1761 H 0.18311 0.14306 0.62736 0.0
H1762 H 0.21437 0.1375 0.638 0.0
H1763 H 0.22527 0.16924 0.62128 0.0
H1764 H 0.2992 0.27705 0.65486 0.0
H1765 H 0.33736 0.2592 0.66466 0.0
H1766 H 0.25892 0.16145 0.66319 0.0
C1767 C 0.17782 0.20129 0.63314 0.0
C1768 C 0.17883 0.22909 0.62634 0.0
C1769 C 0.20698 0.25894 0.62942 0.0
C1770 C 0.23396 0.26131 0.63901 0.0
C1771 C 0.2325 0.23355 0.64538 0.0
C1772 C 0.20529 0.20404 0.64253 0.0
C1773 C 0.21138 0.17788 0.64944 0.0
C1774 C 0.18824 0.15932 0.6658 0.0
C1775 C 0.20836 0.15562 0.63304 0.0
C1776 C 0.24641 0.19733 0.65626 0.0
C1777 C 0.2579 0.22941 0.65387 0.0
C1778 C 0.29032 0.25209 0.65725 0.0
C1779 C 0.31181 0.24179 0.66282 0.0
C1780 C 0.30076 0.20917 0.66534 0.0
C1781 C 0.26756 0.18661 0.66222 0.0
H1782 H 0.79572 0.94226 0.63843 0.0
H1783 H 0.82047 0.97709 0.58053 0.0
H1784 H 0.82712 0.02828 0.59059 0.0
H1785 H 0.75267 0.98224 0.65141 0.0
H1786 H 0.76925 0.99217 0.67507 0.0
H1787 H 0.76501 0.95731 0.66343 0.0
H1788 H 0.82657 0.97761 0.66846 0.0
H1789 H 0.83069 0.01226 0.6803 0.0
H1790 H 0.85618 0.01664 0.6602 0.0
H1791 H 0.82964 0.07483 0.60623 0.0
H1792 H 0.83344 0.11666 0.62746 0.0
H1793 H 0.81153 0.05421 0.67579 0.0
C1794 C 0.80285 0.96069 0.62788 0.0
C1795 C 0.80681 0.9552 0.60856 0.0
C1796 C 0.81611 0.98013 0.59527 0.0
C1797 C 0.82027 0.00948 0.60086 0.0
C1798 C 0.81571 0.01386 0.61987 0.0
C1799 C 0.80776 0.99046 0.63327 0.0
C1800 C 0.80559 0.00206 0.65293 0.0
C1801 C 0.77107 0.98226 0.66119 0.0
C1802 C 0.8313 0.00215 0.66626 0.0
C1803 C 0.81331 0.03551 0.64836 0.0
C1804 C 0.81871 0.04158 0.62915 0.0
C1805 C 0.82556 0.07044 0.62131 0.0
C1806 C 0.82734 0.09395 0.63347 0.0
C1807 C 0.82259 0.08857 0.65324 0.0
C1808 C 0.81551 0.05898 0.66078 0.0
H1809 H 0.50581 0.37047 0.76257 0.0
H1810 H 0.52684 0.43354 0.71441 0.0
H1811 H 0.48999 0.3881 0.69461 0.0
H1812 H 0.49817 0.30349 0.73722 0.0
H1813 H 0.46413 0.27452 0.75094 0.0
H1814 H 0.4931 0.31185 0.76154 0.0
H1815 H 0.44637 0.32265 0.77019 0.0
H1816 H 0.41725 0.28526 0.7597 0.0
H1817 H 0.41935 0.32143 0.75183 0.0
H1818 H 0.45264 0.33578 0.67938 0.0
H1819 H 0.41296 0.28023 0.67074 0.0
H1820 H 0.41166 0.25139 0.729 0.0
C1821 C 0.5025 0.37492 0.74793 0.0
C1822 C 0.52011 0.40584 0.74009 0.0
C1823 C 0.51481 0.41018 0.72076 0.0
C1824 C 0.49358 0.38448 0.70935 0.0
C1825 C 0.4771 0.35445 0.71746 0.0
C1826 C 0.48083 0.34954 0.73636 0.0
C1827 C 0.45931 0.31485 0.74161 0.0
C1828 C 0.47992 0.30033 0.74822 0.0
C1829 C 0.43407 0.31082 0.75673 0.0
C1830 C 0.44316 0.30112 0.72266 0.0
C1831 C 0.4541 0.32437 0.70888 0.0
C1832 C 0.44372 0.3174 0.69008 0.0
C1833 C 0.42141 0.28583 0.68526 0.0
C1834 C 0.40951 0.26182 0.69921 0.0
C1835 C 0.42034 0.26955 0.71815 0.0
H1836 H 0.61722 0.08105 0.74046 0.0
H1837 H 0.63437 0.17705 0.73645 0.0
H1838 H 0.68655 0.19364 0.71987 0.0
H1839 H 0.69912 0.10065 0.74887 0.0
H1840 H 0.69698 0.06894 0.73454 0.0
H1841 H 0.6607 0.06457 0.74562 0.0
H1842 H 0.63222 0.05266 0.7128 0.0
H1843 H 0.66852 0.05708 0.70165 0.0
H1844 H 0.65119 0.08059 0.69368 0.0
H1845 H 0.73929 0.20071 0.70641 0.0
H1846 H 0.78659 0.1969 0.69546 0.0
H1847 H 0.73323 0.09546 0.70524 0.0
C1848 C 0.63198 0.10552 0.73602 0.0
C1849 C 0.62184 0.12782 0.73975 0.0
C1850 C 0.64164 0.15959 0.73362 0.0
C1851 C 0.67131 0.16922 0.72423 0.0
C1852 C 0.68064 0.14668 0.72076 0.0
C1853 C 0.6614 0.11541 0.72628 0.0
C1854 C 0.6771 0.09595 0.72083 0.0
C1855 C 0.68388 0.0817 0.73852 0.0
C1856 C 0.65599 0.07004 0.70638 0.0
C1857 C 0.70848 0.12129 0.71182 0.0
C1858 C 0.71012 0.15042 0.71196 0.0
C1859 C 0.73787 0.17784 0.70576 0.0
C1860 C 0.76464 0.17542 0.69936 0.0
C1861 C 0.76323 0.14569 0.69865 0.0
C1862 C 0.73465 0.11836 0.70499 0.0
H1863 H 0.90633 0.52452 0.75948 0.0
H1864 H 0.82268 0.43694 0.73995 0.0
H1865 H 0.80447 0.46775 0.72107 0.0
H1866 H 0.86355 0.56833 0.76437 0.0
H1867 H 0.8978 0.60524 0.75656 0.0
H1868 H 0.9045 0.57623 0.76837 0.0
H1869 H 0.9391 0.57621 0.73981 0.0
H1870 H 0.93239 0.60512 0.7279 0.0
H1871 H 0.9217 0.56811 0.71633 0.0
H1872 H 0.79533 0.50811 0.7042 0.0
H1873 H 0.79554 0.55521 0.69115 0.0
H1874 H 0.88446 0.61623 0.72231 0.0
C1875 C 0.88404 0.51179 0.75137 0.0
C1876 C 0.86615 0.47826 0.75108 0.0
C1877 C 0.83723 0.46258 0.74011 0.0
C1878 C 0.82652 0.47987 0.72944 0.0
C1879 C 0.84485 0.51284 0.72996 0.0
C1880 C 0.87289 0.52866 0.74071 0.0
C1881 C 0.88798 0.56427 0.73892 0.0
C1882 C 0.88847 0.5794 0.7582 0.0
C1883 C 0.92232 0.5793 0.73022 0.0
C1884 C 0.86414 0.56595 0.72539 0.0
C1885 C 0.83943 0.53606 0.72038 0.0
C1886 C 0.8146 0.53165 0.708 0.0
C1887 C 0.81503 0.55857 0.70058 0.0
C1888 C 0.84016 0.58945 0.70557 0.0
C1889 C 0.86492 0.593 0.71817 0.0
H1890 H 0.52024 0.95438 0.23488 0.0
H1891 H 0.41548 0.89704 0.22728 0.0
H1892 H 0.42159 0.91364 0.19382 0.0
H1893 H 0.53276 0.01887 0.20491 0.0
H1894 H 0.57082 0.02515 0.19531 0.0
H1895 H 0.55829 0.00888 0.21877 0.0
H1896 H 0.56362 0.96028 0.20915 0.0
H1897 H 0.57619 0.97642 0.18566 0.0
H1898 H 0.54178 0.93707 0.18871 0.0
H1899 H 0.43896 0.93697 0.16096 0.0
H1900 H 0.46625 0.96567 0.13163 0.0
H1901 H 0.55995 0.00568 0.16 0.0
C1902 C 0.49856 0.94511 0.22619 0.0
C1903 C 0.4673 0.92459 0.23397 0.0
C1904 C 0.43965 0.91334 0.22196 0.0
C1905 C 0.44287 0.9224 0.20281 0.0
C1906 C 0.47395 0.94264 0.19566 0.0
C1907 C 0.50133 0.95382 0.20697 0.0
C1908 C 0.53194 0.97538 0.19576 0.0
C1909 C 0.54948 0.00907 0.20419 0.0
C1910 C 0.55472 0.96145 0.19476 0.0
C1911 C 0.51746 0.97477 0.17645 0.0
C1912 C 0.48398 0.95568 0.17668 0.0
C1913 C 0.46522 0.95182 0.1606 0.0
C1914 C 0.48103 0.96808 0.1439 0.0
C1915 C 0.51538 0.98804 0.1433 0.0
C1916 C 0.53366 0.99101 0.15988 0.0
H1917 H 0.05402 0.51246 0.24003 0.0
H1918 H 0.14146 0.60076 0.22567 0.0
H1919 H 0.12139 0.59665 0.19293 0.0
H1920 H 0.04655 0.47304 0.19445 0.0
H1921 H 1.00267 0.4535 0.19444 0.0
H1922 H 0.02449 0.46276 0.21659 0.0
H1923 H 0.99595 0.49367 0.2275 0.0
H1924 H 0.97425 0.48472 0.20533 0.0
H1925 H 0.99885 0.52537 0.21292 0.0
H1926 H 0.09102 0.58441 0.16228 0.0
H1927 H 0.05286 0.56409 0.13533 0.0
H1928 H 0.98573 0.48269 0.16906 0.0
C1929 C 0.06916 0.53066 0.22991 0.0
C1930 C 0.09925 0.55703 0.23544 0.0
C1931 C 0.11812 0.58058 0.22183 0.0
C1932 C 0.10703 0.57838 0.20318 0.0
C1933 C 0.07706 0.55239 0.19828 0.0
C1934 C 0.05845 0.52883 0.21119 0.0
C1935 C 0.0268 0.50375 0.2023 0.0
C1936 C 0.02504 0.47134 0.20192 0.0
C1937 C 0.99722 0.50178 0.21263 0.0
C1938 C 0.0304 0.51713 0.18248 0.0
C1939 C 0.05963 0.54515 0.18047 0.0
C1940 C 0.06821 0.56231 0.1636 0.0
C1941 C 0.04641 0.55046 0.14833 0.0
C1942 C 0.01633 0.52164 0.14997 0.0
C1943 C 0.00836 0.50487 0.16735 0.0
H1944 H 0.46175 0.48185 0.23334 0.0
H1945 H 0.46101 0.56718 0.21673 0.0
H1946 H 0.47401 0.56011 0.18372 0.0
H1947 H 0.52951 0.49533 0.2042 0.0
H1948 H 0.51342 0.45406 0.19839 0.0
H1949 H 0.50248 0.46496 0.22049 0.0
H1950 H 0.44132 0.43031 0.21203 0.0
H1951 H 0.45208 0.41932 0.18988 0.0
H1952 H 0.42652 0.43696 0.18996 0.0
H1953 H 0.48737 0.54377 0.15231 0.0
H1954 H 0.50338 0.52133 0.1256 0.0
H1955 H 0.49684 0.44739 0.1627 0.0
C1956 C 0.46403 0.49885 0.2227 0.0
C1957 C 0.46029 0.52507 0.22763 0.0
C1958 C 0.46398 0.54706 0.21333 0.0
C1959 C 0.47118 0.54314 0.19451 0.0
C1960 C 0.47487 0.51717 0.19013 0.0
C1961 C 0.47163 0.4955 0.20384 0.0
C1962 C 0.47817 0.47041 0.19555 0.0
C1963 C 0.50765 0.47126 0.20523 0.0
C1964 C 0.4477 0.43729 0.19694 0.0
C1965 C 0.48571 0.48141 0.17508 0.0
C1966 C 0.48334 0.50823 0.17219 0.0
C1967 C 0.48924 0.52274 0.15442 0.0
C1968 C 0.49814 0.50971 0.13929 0.0
C1969 C 0.5014 0.4826 0.142 0.0
C1970 C 0.49482 0.46827 0.16017 0.0
H1971 H 0.95504 0.49961 0.80628 0.0
H1972 H 0.86434 0.41542 0.82136 0.0
H1973 H 0.88259 0.42084 0.85466 0.0
H1974 H 1.00524 0.48297 0.83401 0.0
H1975 H 0.03296 0.52317 0.84138 0.0
H1976 H 0.01139 0.51573 0.81926 0.0
H1977 H 0.98776 0.55113 0.8299 0.0
H1978 H 0.00968 0.5591 0.85198 0.0
H1979 H 0.96619 0.54312 0.85214 0.0
H1980 H 0.91258 0.43118 0.88487 0.0
H1981 H 0.9515 0.44766 0.91129 0.0
H1982 H 0.02323 0.52636 0.87747 0.0
C1983 C 0.93877 0.48305 0.8168 0.0
C1984 C 0.90816 0.45736 0.81151 0.0
C1985 C 0.88771 0.43541 0.82536 0.0
C1986 C 0.89788 0.43829 0.84424 0.0
C1987 C 0.92858 0.46328 0.84899 0.0
C1988 C 0.94866 0.48552 0.83579 0.0
C1989 C 0.98137 0.50874 0.8445 0.0
C1990 C 0.00938 0.50756 0.83417 0.0
C1991 C 0.98654 0.54253 0.84464 0.0
C1992 C 0.97675 0.49548 0.86444 0.0
C1993 C 0.94603 0.4694 0.8667 0.0
C1994 C 0.93647 0.452 0.88345 0.0
C1995 C 0.95878 0.46168 0.89843 0.0
C1996 C 0.99035 0.48866 0.89665 0.0
C1997 C 0.99934 0.50568 0.87934 0.0
H1998 H 0.50409 0.45195 0.80012 0.0
H1999 H 0.60567 0.48149 0.80998 0.0
H2000 H 0.59933 0.49058 0.84384 0.0
H2001 H 0.50171 0.50915 0.82991 0.0
H2002 H 0.46102 0.48341 0.83866 0.0
H2003 H 0.4726 0.47655 0.81555 0.0
H2004 H 0.4557 0.41899 0.82513 0.0
H2005 H 0.44385 0.4256 0.84826 0.0
H2006 H 0.47293 0.41218 0.84616 0.0
H2007 H 0.5829 0.49934 0.87621 0.0
H2008 H 0.5577 0.50761 0.90471 0.0
H2009 H 0.46654 0.47218 0.8741 0.0
C2010 C 0.52478 0.45971 0.8095 0.0
C2011 C 0.55537 0.46592 0.80243 0.0
C2012 C 0.58207 0.47672 0.81508 0.0
C2013 C 0.57867 0.48183 0.83435 0.0
C2014 C 0.54839 0.47606 0.84082 0.0
C2015 C 0.52186 0.46516 0.82881 0.0
C2016 C 0.49248 0.46239 0.83922 0.0
C2017 C 0.48131 0.48418 0.8303 0.0
C2018 C 0.46459 0.42773 0.83972 0.0
C2019 C 0.50679 0.4739 0.85883 0.0
C2020 C 0.53899 0.48139 0.85948 0.0
C2021 C 0.55759 0.49325 0.87592 0.0
C2022 C 0.54298 0.49772 0.8921 0.0
C2023 C 0.51005 0.4905 0.89177 0.0
C2024 C 0.49181 0.47821 0.87485 0.0
H2025 H 0.49973 0.05419 0.79692 0.0
H2026 H 0.6041 0.11281 0.8057 0.0
H2027 H 0.59749 0.09365 0.83862 0.0
H2028 H 0.47645 0.06761 0.84347 0.0
H2029 H 0.44246 0.0278 0.84562 0.0
H2030 H 0.45541 0.04558 0.82253 0.0
H2031 H 0.4621 0.99828 0.81165 0.0
H2032 H 0.44918 0.98037 0.83471 0.0
H2033 H 0.48774 0.98799 0.82515 0.0
H2034 H 0.57964 0.06787 0.87081 0.0
H2035 H 0.55191 0.0372 0.8995 0.0
H2036 H 0.45881 0.99773 0.87049 0.0
C2037 C 0.52123 0.06319 0.80575 0.0
C2038 C 0.55253 0.08485 0.79846 0.0
C2039 C 0.57993 0.09568 0.81063 0.0
C2040 C 0.57641 0.08515 0.82948 0.0
C2041 C 0.54528 0.06389 0.83616 0.0
C2042 C 0.51815 0.05307 0.82468 0.0
C2043 C 0.4874 0.03039 0.83541 0.0
C2044 C 0.46405 0.04364 0.83684 0.0
C2045 C 0.47062 0.99729 0.82618 0.0
C2046 C 0.50152 0.03001 0.85466 0.0
C2047 C 0.53495 0.04951 0.8548 0.0
C2048 C 0.55342 0.05268 0.87089 0.0
C2049 C 0.53736 0.0353 0.88722 0.0
C2050 C 0.50304 0.01496 0.88746 0.0
C2051 C 0.48506 0.01266 0.87087 0.0
H2052 H 0.1274 0.28701 0.5675 0.0
H2053 H 0.15183 0.21329 0.55833 0.0
H2054 H 0.16605 0.23032 0.52499 0.0
H2055 H 0.09386 0.28398 0.51979 0.0
H2056 H 0.1111 0.32638 0.51855 0.0
H2057 H 0.10003 0.30664 0.54121 0.0
H2058 H 0.15872 0.34359 0.55343 0.0
H2059 H 0.17001 0.36332 0.53079 0.0
H2060 H 0.1927 0.34597 0.54045 0.0
H2061 H 0.17994 0.25665 0.49304 0.0
H2062 H 0.19426 0.29156 0.46504 0.0
H2063 H 0.16238 0.34947 0.49477 0.0
C2064 C 0.13517 0.27415 0.55832 0.0
C2065 C 0.13832 0.24867 0.56544 0.0
C2066 C 0.14924 0.23283 0.55314 0.0
C2067 C 0.15728 0.24229 0.53418 0.0
C2068 C 0.15448 0.26781 0.52765 0.0
C2069 C 0.14373 0.28359 0.53932 0.0
C2070 C 0.14481 0.31145 0.52899 0.0
C2071 C 0.1104 0.30683 0.52702 0.0
C2072 C 0.16794 0.34294 0.53901 0.0
C2073 C 0.15829 0.30912 0.50984 0.0
C2074 C 0.16329 0.28352 0.50931 0.0
C2075 C 0.17594 0.27666 0.49325 0.0
C2076 C 0.18388 0.29658 0.47737 0.0
C2077 C 0.17947 0.3233 0.47761 0.0
C2078 C 0.16631 0.32941 0.49413 0.0
H2079 H 0.72799 0.83401 0.56369 0.0
H2080 H 0.8181 0.9165 0.5459 0.0
H2081 H 0.79787 0.90875 0.51294 0.0
H2082 H 0.71354 0.78705 0.51872 0.0
H2083 H 0.67015 0.77152 0.51977 0.0
H2084 H 0.6935 0.78074 0.54138 0.0
H2085 H 0.6711 0.81728 0.55176 0.0
H2086 H 0.64813 0.80863 0.53009 0.0
H2087 H 0.67664 0.84919 0.53641 0.0
H2088 H 0.7659 0.89687 0.48345 0.0
H2089 H 0.72521 0.87922 0.45796 0.0
H2090 H 0.65534 0.80299 0.49399 0.0
C2091 C 0.74372 0.84964 0.55265 0.0
C2092 C 0.77471 0.87554 0.55707 0.0
C2093 C 0.79445 0.89631 0.54256 0.0
C2094 C 0.78315 0.89213 0.52387 0.0
C2095 C 0.75208 0.86701 0.51998 0.0
C2096 C 0.7327 0.84582 0.53384 0.0
C2097 C 0.69936 0.8223 0.526 0.0
C2098 C 0.69382 0.78839 0.52649 0.0
C2099 C 0.67222 0.8245 0.5367 0.0
C2100 C 0.70278 0.83425 0.5058 0.0
C2101 C 0.73348 0.85991 0.50266 0.0
C2102 C 0.74202 0.8763 0.48554 0.0
C2103 C 0.7187 0.86596 0.47111 0.0
C2104 C 0.68714 0.83931 0.47377 0.0
C2105 C 0.67919 0.82337 0.49144 0.0
H2106 H 0.17331 0.89525 0.57291 0.0
H2107 H 0.0686 0.83734 0.56579 0.0
H2108 H 0.07681 0.82508 0.53286 0.0
H2109 H 0.19125 0.92802 0.52538 0.0
H2110 H 0.22867 0.92704 0.52359 0.0
H2111 H 0.21444 0.93168 0.54644 0.0
H2112 H 0.21635 0.88262 0.55892 0.0
H2113 H 0.23052 0.87778 0.53611 0.0
H2114 H 0.19436 0.84539 0.54644 0.0
H2115 H 0.09659 0.81898 0.50063 0.0
H2116 H 0.12643 0.81817 0.47202 0.0
H2117 H 0.21819 0.88031 0.50018 0.0
C2118 C 0.15209 0.88026 0.56436 0.0
C2119 C 0.12028 0.86727 0.57194 0.0
C2120 C 0.09319 0.84731 0.56036 0.0
C2121 C 0.09761 0.84036 0.54161 0.0
C2122 C 0.12928 0.85349 0.53461 0.0
C2123 C 0.15606 0.87296 0.54565 0.0
C2124 C 0.18754 0.88345 0.53487 0.0
C2125 C 0.20659 0.9197 0.53243 0.0
C2126 C 0.20842 0.87159 0.54467 0.0
C2127 C 0.1743 0.86675 0.51607 0.0
C2128 C 0.14064 0.84973 0.51616 0.0
C2129 C 0.12295 0.8323 0.50039 0.0
C2130 C 0.14012 0.83213 0.48416 0.0
C2131 C 0.17467 0.84915 0.48381 0.0
C2132 C 0.19181 0.86676 0.50003 0.0
H2133 H 0.58966 0.7717 0.14336 0.0
H2134 H 0.66718 0.85438 0.11529 0.0
H2135 H 0.69488 0.87423 0.14614 0.0
H2136 H 0.5853 0.81159 0.18353 0.0
H2137 H 0.57702 0.78017 0.20002 0.0
H2138 H 0.56528 0.77093 0.17555 0.0
H2139 H 0.59835 0.74181 0.17317 0.0
H2140 H 0.61037 0.75117 0.19766 0.0
H2141 H 0.64094 0.76254 0.17943 0.0
H2142 H 0.71149 0.88732 0.18004 0.0
H2143 H 0.71446 0.89405 0.21491 0.0
H2144 H 0.62678 0.80256 0.22107 0.0
C2145 C 0.61284 0.79364 0.14367 0.0
C2146 C 0.62642 0.81146 0.12695 0.0
C2147 C 0.65631 0.84047 0.12796 0.0
C2148 C 0.67234 0.85176 0.14537 0.0
C2149 C 0.6582 0.83371 0.16161 0.0
C2150 C 0.62909 0.80529 0.16093 0.0
C2151 C 0.61772 0.79177 0.18063 0.0
C2152 C 0.58437 0.78844 0.1852 0.0
C2153 C 0.6168 0.75993 0.18285 0.0
C2154 C 0.64458 0.81743 0.19256 0.0
C2155 C 0.6679 0.84121 0.18127 0.0
C2156 C 0.69372 0.86862 0.18902 0.0
C2157 C 0.69526 0.87224 0.20878 0.0
C2158 C 0.67116 0.84858 0.22055 0.0
C2159 C 0.64599 0.82051 0.21235 0.0
H2160 H 0.22787 0.84227 0.13687 0.0
H2161 H 0.23648 0.76027 0.15122 0.0
H2162 H 0.22543 0.76577 0.18486 0.0
H2163 H 0.26325 0.8871 0.18196 0.0
H2164 H 0.23504 0.9017 0.18277 0.0
H2165 H 0.24768 0.89385 0.16022 0.0
H2166 H 0.18723 0.85652 0.15116 0.0
H2167 H 0.17442 0.86398 0.17372 0.0
H2168 H 0.16159 0.82384 0.16655 0.0
H2169 H 0.20793 0.77632 0.21597 0.0
H2170 H 0.18631 0.79207 0.24305 0.0
H2171 H 0.18962 0.86822 0.2093 0.0
C2172 C 0.22831 0.82613 0.14725 0.0
C2173 C 0.2333 0.80102 0.14158 0.0
C2174 C 0.23287 0.77974 0.15538 0.0
C2175 C 0.22665 0.7827 0.17449 0.0
C2176 C 0.22092 0.80711 0.17962 0.0
C2177 C 0.2219 0.82864 0.16648 0.0
C2178 C 0.21262 0.85128 0.17565 0.0
C2179 C 0.24137 0.88552 0.17512 0.0
C2180 C 0.18215 0.84873 0.16621 0.0
C2181 C 0.20545 0.83852 0.19579 0.0
C2182 C 0.21071 0.81323 0.19776 0.0
C2183 C 0.2043 0.79649 0.21472 0.0
C2184 C 0.19215 0.80577 0.2301 0.0
C2185 C 0.18648 0.83165 0.22852 0.0
C2186 C 0.19351 0.84828 0.21107 0.0
H2187 H 0.15443 0.37713 0.13304 0.0
H2188 H 0.25892 0.43459 0.14148 0.0
H2189 H 0.25225 0.41708 0.17479 0.0
H2190 H 0.13106 0.39117 0.18002 0.0
H2191 H 0.09717 0.35131 0.18219 0.0
H2192 H 0.10994 0.36913 0.15909 0.0
H2193 H 0.11665 0.32189 0.14812 0.0
H2194 H 0.10403 0.30399 0.1712 0.0
H2195 H 0.14255 0.31176 0.16149 0.0
H2196 H 0.23475 0.39215 0.2069 0.0
H2197 H 0.20755 0.36131 0.2356 0.0
H2198 H 0.11404 0.32084 0.20697 0.0
C2199 C 0.17584 0.38629 0.14196 0.0
C2200 C 0.20725 0.40709 0.13454 0.0
C2201 C 0.23467 0.41825 0.14669 0.0
C2202 C 0.23112 0.40861 0.1657 0.0
C2203 C 0.19995 0.38783 0.17249 0.0
C2204 C 0.17275 0.37684 0.16104 0.0
C2205 C 0.14211 0.35406 0.17184 0.0
C2206 C 0.11869 0.36721 0.17337 0.0
C2207 C 0.12536 0.32097 0.16261 0.0
C2208 C 0.15642 0.35375 0.19104 0.0
C2209 C 0.18981 0.37354 0.19111 0.0
C2210 C 0.20855 0.37679 0.20707 0.0
C2211 C 0.19281 0.35928 0.22338 0.0
C2212 C 0.15855 0.33868 0.22371 0.0
C2213 C 0.14025 0.33613 0.20724 0.0
H2214 H 0.79536 0.6228 0.9057 0.0
H2215 H 0.80343 0.53901 0.89614 0.0
H2216 H 0.81676 0.55389 0.86241 0.0
H2217 H 0.7607 0.62367 0.85927 0.0
H2218 H 0.78371 0.66631 0.85746 0.0
H2219 H 0.77224 0.64773 0.88044 0.0
H2220 H 0.83278 0.67784 0.89084 0.0
H2221 H 0.84442 0.69643 0.86789 0.0
H2222 H 0.86262 0.67422 0.87681 0.0
H2223 H 0.83108 0.57893 0.82981 0.0
H2224 H 0.848 0.6135 0.80149 0.0
H2225 H 0.83205 0.6818 0.83233 0.0
C2226 C 0.7994 0.60735 0.89641 0.0
C2227 C 0.79817 0.57962 0.90352 0.0
C2228 C 0.8043 0.56037 0.891 0.0
C2229 C 0.81176 0.56857 0.8718 0.0
C2230 C 0.8132 0.59625 0.86527 0.0
C2231 C 0.8073 0.61543 0.87721 0.0
C2232 C 0.8123 0.64485 0.86687 0.0
C2233 C 0.78033 0.64568 0.86595 0.0
C2234 C 0.83966 0.67512 0.87616 0.0
C2235 C 0.82229 0.63942 0.84735 0.0
C2236 C 0.82226 0.61105 0.84665 0.0
C2237 C 0.83104 0.60113 0.83019 0.0
C2238 C 0.84046 0.62086 0.81411 0.0
C2239 C 0.84141 0.65041 0.81461 0.0
C2240 C 0.83185 0.65949 0.83149 0.0
H2241 H 0.40237 0.23656 0.89425 0.0
H2242 H 0.37906 0.13902 0.90296 0.0
H2243 H 0.35514 0.12525 0.87098 0.0
H2244 H 0.32716 0.21617 0.87084 0.0
H2245 H 0.34562 0.24951 0.85488 0.0
H2246 H 0.36314 0.25232 0.87795 0.0
H2247 H 0.41862 0.26768 0.86229 0.0
H2248 H 0.40125 0.26482 0.83916 0.0
H2249 H 0.42061 0.24197 0.84454 0.0
H2250 H 0.33407 0.12206 0.83771 0.0
H2251 H 0.31358 0.12904 0.80677 0.0
H2252 H 0.34563 0.22689 0.8212 0.0
C2253 C 0.39199 0.21218 0.88963 0.0
C2254 C 0.39309 0.18904 0.90127 0.0
C2255 C 0.37948 0.15754 0.89429 0.0
C2256 C 0.36554 0.14935 0.87614 0.0
C2257 C 0.36488 0.17274 0.86515 0.0
C2258 C 0.37741 0.20342 0.87172 0.0
C2259 C 0.37233 0.22377 0.85744 0.0
C2260 C 0.35077 0.23616 0.86578 0.0
C2261 C 0.40516 0.25117 0.85045 0.0
C2262 C 0.35485 0.19968 0.84186 0.0
C2263 C 0.35122 0.17049 0.84644 0.0
C2264 C 0.33657 0.14474 0.83402 0.0
C2265 C 0.32509 0.14888 0.81652 0.0
C2266 C 0.32787 0.17836 0.81182 0.0
C2267 C 0.34296 0.20403 0.82464 0.0
H2268 H 0.79323 0.15855 0.89979 0.0
H2269 H 0.81902 0.25638 0.88992 0.0
H2270 H 0.83388 0.25235 0.85693 0.0
H2271 H 0.85695 0.15984 0.87205 0.0
H2272 H 0.83231 0.1203 0.86271 0.0
H2273 H 0.82285 0.1304 0.88553 0.0
H2274 H 0.7641 0.11227 0.87424 0.0
H2275 H 0.77334 0.10198 0.85139 0.0
H2276 H 0.75801 0.12914 0.85297 0.0
H2277 H 0.84749 0.23849 0.82527 0.0
H2278 H 0.85857 0.21553 0.79698 0.0
H2279 H 0.82224 0.12595 0.82666 0.0
C2280 C 0.80171 0.17902 0.89064 0.0
C2281 C 0.80529 0.20791 0.89759 0.0
C2282 C 0.8167 0.2342 0.88513 0.0
C2283 C 0.82498 0.23209 0.86628 0.0
C2284 C 0.82158 0.20346 0.85997 0.0
C2285 C 0.8101 0.17733 0.87171 0.0
C2286 C 0.80919 0.14952 0.86136 0.0
C2287 C 0.83167 0.13943 0.87099 0.0
C2288 C 0.77407 0.12158 0.8599 0.0
C2289 C 0.82226 0.16424 0.84205 0.0
C2290 C 0.82913 0.19534 0.84156 0.0
C2291 C 0.84194 0.21406 0.82542 0.0
C2292 C 0.84796 0.20069 0.80935 0.0
C2293 C 0.84114 0.1688 0.80943 0.0
C2294 C 0.82802 0.15045 0.82609 0.0
H2295 H 0.25886 0.11261 0.48725 0.0
H2296 H 0.3356 0.19387 0.45766 0.0
H2297 H 0.36888 0.21001 0.48683 0.0
H2298 H 0.26918 0.15198 0.53286 0.0
H2299 H 0.26112 0.11745 0.54642 0.0
H2300 H 0.24273 0.11285 0.52341 0.0
H2301 H 0.26738 0.07852 0.51233 0.0
H2302 H 0.28578 0.08296 0.53529 0.0
H2303 H 0.31071 0.09418 0.51422 0.0
H2304 H 0.39513 0.21562 0.51847 0.0
H2305 H 0.41201 0.21117 0.55096 0.0
H2306 H 0.31799 0.12706 0.56043 0.0
C2307 C 0.28266 0.13381 0.48694 0.0
C2308 C 0.29462 0.15206 0.47019 0.0
C2309 C 0.32578 0.17978 0.47039 0.0
C2310 C 0.34491 0.18906 0.48686 0.0
C2311 C 0.33246 0.17051 0.50308 0.0
C2312 C 0.30199 0.14356 0.50332 0.0
C2313 C 0.29462 0.12761 0.52258 0.0
C2314 C 0.26516 0.12747 0.53187 0.0
C2315 C 0.28932 0.09382 0.521 0.0
C2316 C 0.3259 0.14953 0.53304 0.0
C2317 C 0.34739 0.17411 0.52151 0.0
C2318 C 0.37842 0.19664 0.52769 0.0
C2319 C 0.38783 0.19388 0.5461 0.0
C2320 C 0.36624 0.16889 0.55817 0.0
C2321 C 0.33476 0.14665 0.55158 0.0
H2322 H 0.89457 0.17115 0.46566 0.0
H2323 H 0.85466 0.0703 0.47502 0.0
H2324 H 0.83962 0.0762 0.50772 0.0
H2325 H 0.92824 0.19669 0.51297 0.0
H2326 H 0.91823 0.22783 0.51406 0.0
H2327 H 0.92647 0.2158 0.49149 0.0
H2328 H 0.87049 0.20506 0.47896 0.0
H2329 H 0.86204 0.21696 0.5015 0.0
H2330 H 0.83395 0.17847 0.49182 0.0
H2331 H 0.82843 0.09289 0.53939 0.0
H2332 H 0.82077 0.11896 0.56743 0.0
H2333 H 0.86835 0.20913 0.53775 0.0
C2334 C 0.88295 0.15036 0.47465 0.0
C2335 C 0.87572 0.12021 0.4677 0.0
C2336 C 0.86008 0.09355 0.47989 0.0
C2337 C 0.85162 0.0967 0.49854 0.0
C2338 C 0.85892 0.12667 0.50489 0.0
C2339 C 0.87421 0.15305 0.49332 0.0
C2340 C 0.8787 0.18245 0.50353 0.0
C2341 C 0.91507 0.20715 0.50564 0.0
C2342 C 0.86019 0.19655 0.49334 0.0
C2343 C 0.86335 0.16843 0.52259 0.0
C2344 C 0.85228 0.13626 0.52311 0.0
C2345 C 0.83712 0.11811 0.53917 0.0
C2346 C 0.83304 0.13319 0.55509 0.0
C2347 C 0.84396 0.16615 0.55488 0.0
C2348 C 0.85941 0.18387 0.53835 0.0
H2349 H 0.8299 0.71969 0.46748 0.0
H2350 H 0.93391 0.7822 0.47549 0.0
H2351 H 0.92866 0.76506 0.50875 0.0
H2352 H 0.80619 0.73367 0.51431 0.0
H2353 H 0.77354 0.69329 0.51695 0.0
H2354 H 0.78531 0.71053 0.49365 0.0
H2355 H 0.79435 0.66448 0.48317 0.0
H2356 H 0.7827 0.64715 0.50645 0.0
H2357 H 0.82157 0.65622 0.49662 0.0
H2358 H 0.91269 0.73983 0.54108 0.0
H2359 H 0.88697 0.70885 0.56997 0.0
H2360 H 0.79268 0.66528 0.54198 0.0
C2361 C 0.85155 0.73003 0.47624 0.0
C2362 C 0.88244 0.75203 0.46857 0.0
C2363 C 0.91008 0.76471 0.48068 0.0
C2364 C 0.90733 0.75535 0.49973 0.0
C2365 C 0.87669 0.73345 0.50673 0.0
C2366 C 0.84923 0.72108 0.49541 0.0
C2367 C 0.81921 0.69777 0.50652 0.0
C2368 C 0.79461 0.70953 0.50794 0.0
C2369 C 0.80354 0.66443 0.49766 0.0
C2370 C 0.83419 0.69872 0.52573 0.0
C2371 C 0.86737 0.7195 0.52555 0.0
C2372 C 0.88663 0.72374 0.54144 0.0
C2373 C 0.87167 0.70614 0.55791 0.0
C2374 C 0.83762 0.68451 0.55853 0.0
C2375 C 0.81877 0.6812 0.54212 0.0
loop_
_geom_bond_atom_site_label_1
_geom_bond_atom_site_label_2
_geom_bond_distance
_geom_bond_site_symmetry_2
_ccdc_geom_bond_type
H0 C3 0.931 . S
H1 C6 0.928 . S
H2 C8 0.930 . S
C3 H0 0.931 . S
C3 C4 1.413 . S
C3 C5 1.360 . S
C4 C3 1.413 . S
C4 C8 1.429 . S
C5 C3 1.360 . S
C5 C6 1.372 . S
C6 H1 0.928 . S
C6 C5 1.372 . S
C6 C7 1.404 . S
C7 C6 1.404 . S
C7 C8 1.391 . S
C8 H2 0.930 . S
C8 C4 1.429 . S
C8 C7 1.391 . S
H9 C12 0.931 . S
H10 C15 0.928 . S
H11 C17 0.930 . S
C12 H9 0.931 . S
C12 C13 1.413 . S
C12 C14 1.360 . S
C13 C12 1.413 . S
C13 C17 1.429 . S
C14 C12 1.360 . S
C14 C15 1.372 . S
C15 H10 0.928 . S
C15 C14 1.372 . S
C15 C16 1.404 . S
C16 C15 1.404 . S
C16 C17 1.391 . S
C17 H11 0.930 . S
C17 C13 1.429 . S
C17 C16 1.391 . S
H18 C21 0.931 . S
H19 C24 0.928 . S
H20 C26 0.930 . S
C21 H18 0.931 . S
C21 C22 1.413 . S
C21 C23 1.360 . S
C22 C21 1.413 . S
C22 C26 1.429 . S
C23 C21 1.360 . S
C23 C24 1.372 . S
C24 H19 0.928 . S
C24 C23 1.372 . S
C24 C25 1.404 . S
C25 C24 1.404 . S
C25 C26 1.391 . S
C26 H20 0.930 . S
C26 C22 1.429 . S
C26 C25 1.391 . S
H27 C30 0.931 . S
H28 C33 0.928 . S
H29 C35 0.930 . S
C30 H27 0.931 . S
C30 C31 1.413 . S
C30 C32 1.360 . S
C31 C30 1.413 . S
C31 C35 1.429 . S
C32 C30 1.360 . S
C32 C33 1.372 . S
C33 H28 0.928 . S
C33 C32 1.372 . S
C33 C34 1.404 . S
C34 C33 1.404 . S
C34 C35 1.391 . S
C35 H29 0.930 . S
C35 C31 1.429 . S
C35 C34 1.391 . S
H36 C39 0.931 . S
H37 C42 0.928 . S
H38 C44 0.930 . S
C39 H36 0.931 . S
C39 C40 1.413 . S
C39 C41 1.360 . S
C40 C39 1.413 . S
C40 C44 1.429 . S
C41 C39 1.360 . S
C41 C42 1.372 . S
C42 H37 0.928 . S
C42 C41 1.372 . S
C42 C43 1.404 . S
C43 C42 1.404 . S
C43 C44 1.391 . S
C44 H38 0.930 . S
C44 C40 1.429 . S
C44 C43 1.391 . S
H45 C48 0.931 . S
H46 C51 0.928 . S
H47 C53 0.930 . S
C48 H45 0.931 . S
C48 C49 1.413 . S
C48 C50 1.360 . S
C49 C48 1.413 . S
C49 C53 1.429 . S
C50 C48 1.360 . S
C50 C51 1.372 . S
C51 H46 0.928 . S
C51 C50 1.372 . S
C51 C52 1.404 . S
C52 C51 1.404 . S
C52 C53 1.391 . S
C53 H47 0.930 . S
C53 C49 1.429 . S
C53 C52 1.391 . S
H54 C57 0.931 . S
H55 C60 0.928 . S
H56 C62 0.930 . S
C57 H54 0.931 . S
C57 C58 1.413 . S
C57 C59 1.360 . S
C58 C57 1.413 . S
C58 C62 1.429 . S
C59 C57 1.360 . S
C59 C60 1.372 . S
C60 H55 0.928 . S
C60 C59 1.372 . S
C60 C61 1.404 . S
C61 C60 1.404 . S
C61 C62 1.391 . S
C62 H56 0.930 . S
C62 C58 1.429 . S
C62 C61 1.391 . S
H63 C66 0.931 . S
H64 C69 0.928 . S
H65 C71 0.930 . S
C66 H63 0.931 . S
C66 C67 1.413 . S
C66 C68 1.360 . S
C67 C66 1.413 . S
C67 C71 1.429 . S
C68 C66 1.360 . S
C68 C69 1.372 . S
C69 H64 0.928 . S
C69 C68 1.372 . S
C69 C70 1.404 . S
C70 C69 1.404 . S
C70 C71 1.391 . S
C71 H65 0.930 . S
C71 C67 1.429 . S
C71 C70 1.391 . S
H72 C75 0.931 . S
H73 C78 0.928 . S
H74 C80 0.930 . S
C75 H72 0.931 . S
C75 C76 1.413 . S
C75 C77 1.360 . S
C76 C75 1.413 . S
C76 C80 1.429 . S
C77 C75 1.360 . S
C77 C78 1.372 . S
C78 H73 0.928 . S
C78 C77 1.372 . S
C78 C79 1.404 . S
C79 C78 1.404 . S
C79 C80 1.391 . S
C80 H74 0.930 . S
C80 C76 1.429 . S
C80 C79 1.391 . S
H81 C84 0.931 . S
H82 C87 0.928 . S
H83 C89 0.930 . S
C84 H81 0.931 . S
C84 C85 1.413 . S
C84 C86 1.360 . S
C85 C84 1.413 . S
C85 C89 1.429 . S
C86 C84 1.360 . S
C86 C87 1.372 . S
C87 H82 0.928 . S
C87 C86 1.372 . S
C87 C88 1.404 . S
C88 C87 1.404 . S
C88 C89 1.391 . S
C89 H83 0.930 . S
C89 C85 1.429 . S
C89 C88 1.391 . S
H90 C93 0.931 . S
H91 C96 0.928 . S
H92 C98 0.930 . S
C93 H90 0.931 . S
C93 C94 1.413 . S
C93 C95 1.360 . S
C94 C93 1.413 . S
C94 C98 1.429 . S
C95 C93 1.360 . S
C95 C96 1.372 . S
C96 H91 0.928 . S
C96 C95 1.372 . S
C96 C97 1.404 . S
C97 C96 1.404 . S
C97 C98 1.391 . S
C98 H92 0.930 . S
C98 C94 1.429 . S
C98 C97 1.391 . S
H99 C102 0.931 . S
H100 C105 0.928 . S
H101 C107 0.930 . S
C102 H99 0.931 . S
C102 C103 1.413 . S
C102 C104 1.360 . S
C103 C102 1.413 . S
C103 C107 1.429 . S
C104 C102 1.360 . S
C104 C105 1.372 . S
C105 H100 0.928 . S
C105 C104 1.372 . S
C105 C106 1.404 . S
C106 C105 1.404 . S
C106 C107 1.391 . S
C107 H101 0.930 . S
C107 C103 1.429 . S
C107 C106 1.391 . S
H108 C111 0.931 . S
H109 C114 0.928 . S
H110 C116 0.930 . S
C111 H108 0.931 . S
C111 C112 1.413 . S
C111 C113 1.360 . S
C112 C111 1.413 . S
C112 C116 1.429 . S
C113 C111 1.360 . S
C113 C114 1.372 . S
C114 H109 0.928 . S
C114 C113 1.372 . S
C114 C115 1.404 . S
C115 C114 1.404 . S
C115 C116 1.391 . S
C116 H110 0.930 . S
C116 C112 1.429 . S
C116 C115 1.391 . S
H117 C120 0.931 . S
H118 C123 0.928 . S
H119 C125 0.930 . S
C120 H117 0.931 . S
C120 C121 1.413 . S
C120 C122 1.360 . S
C121 C120 1.413 . S
C121 C125 1.429 . S
C122 C120 1.360 . S
C122 C123 1.372 . S
C123 H118 0.928 . S
C123 C122 1.372 . S
C123 C124 1.404 . S
C124 C123 1.404 . S
C124 C125 1.391 . S
C125 H119 0.930 . S
C125 C121 1.429 . S
C125 C124 1.391 . S
H126 C129 0.931 . S
H127 C132 0.928 . S
H128 C134 0.930 . S
C129 H126 0.931 . S
C129 C130 1.413 . S
C129 C131 1.360 . S
C130 C129 1.413 . S
C130 C134 1.429 . S
C131 C129 1.360 . S
C131 C132 1.372 . S
C132 H127 0.928 . S
C132 C131 1.372 . S
C132 C133 1.404 . S
C133 C132 1.404 . S
C133 C134 1.391 . S
C134 H128 0.930 . S
C134 C130 1.429 . S
C134 C133 1.391 . S
H135 C138 0.931 . S
H136 C141 0.928 . S
H137 C143 0.930 . S
C138 H135 0.931 . S
C138 C139 1.413 . S
C138 C140 1.360 . S
C139 C138 1.413 . S
C139 C143 1.429 . S
C140 C138 1.360 . S
C140 C141 1.372 . S
C141 H136 0.928 . S
C141 C140 1.372 . S
C141 C142 1.404 . S
C142 C141 1.404 . S
C142 C143 1.391 . S
C143 H137 0.930 . S
C143 C139 1.429 . S
C143 C142 1.391 . S
H144 C147 0.931 . S
H145 C150 0.928 . S
H146 C152 0.930 . S
C147 H144 0.931 . S
C147 C148 1.413 . S
C147 C149 1.360 . S
C148 C147 1.413 . S
C148 C152 1.429 . S
C149 C147 1.360 . S
C149 C150 1.372 . S
C150 H145 0.928 . S
C150 C149 1.372 . S
C150 C151 1.404 . S
C151 C150 1.404 . S
C151 C152 1.391 . S
C152 H146 0.930 . S
C152 C148 1.429 . S
C152 C151 1.391 . S
H153 C156 0.931 . S
H154 C159 0.928 . S
H155 C161 0.930 . S
C156 H153 0.931 . S
C156 C157 1.413 . S
C156 C158 1.360 . S
C157 C156 1.413 . S
C157 C161 1.429 . S
C158 C156 1.360 . S
C158 C159 1.372 . S
C159 H154 0.928 . S
C159 C158 1.372 . S
C159 C160 1.404 . S
C160 C159 1.404 . S
C160 C161 1.391 . S
C161 H155 0.930 . S
C161 C157 1.429 . S
C161 C160 1.391 . S
Tb162 N193 2.660 . S
Tb162 N200 2.600 . S
Tb162 O206 2.546 . S
Tb162 O207 2.616 1_565 S
Tb162 O209 2.320 1_565 S
Tb162 O210 2.552 1_565 S
Tb162 O211 2.413 . S
Tb162 O213 2.362 1_556 S
Tb162 O214 2.421 . S
Tb162 C226 2.833 . S
C163 C166 1.432 . S
C163 C167 1.414 . S
C163 N170 1.359 . S
C164 C166 1.417 . S
C164 C168 1.432 . S
C164 C176 1.410 . S
C165 C167 1.444 . S
C165 C168 1.317 . S
C165 H188 0.929 . S
C166 C163 1.432 . S
C166 C164 1.417 . S
C166 N174 1.360 . S
C167 C163 1.414 . S
C167 C165 1.444 . S
C167 C172 1.385 . S
C168 C164 1.432 . S
C168 C165 1.317 . S
C168 H180 0.930 . S
C169 C171 1.392 . S
C169 C172 1.370 . S
C169 H181 0.931 . S
N170 C163 1.359 . S
N170 C171 1.327 . S
N170 Tb173 2.600 . S
C171 C169 1.392 . S
C171 N170 1.327 . S
C171 H178 0.930 . S
C172 C167 1.385 . S
C172 C169 1.370 . S
C172 H191 0.930 . S
Tb173 N170 2.600 . S
Tb173 N174 2.660 . S
Tb173 O207 2.351 1_554 S
Tb173 O208 2.421 . S
Tb173 O212 2.546 . S
Tb173 O213 2.610 1_545 S
Tb173 O215 2.320 1_545 S
Tb173 O216 2.552 1_545 S
Tb173 O217 2.413 . S
Tb173 C237 2.833 . S
N174 C166 1.360 . S
N174 Tb173 2.660 . S
N174 C175 1.305 . S
C175 N174 1.305 . S
C175 C177 1.407 . S
C175 H182 0.930 . S
C176 C164 1.410 . S
C176 C177 1.345 . S
C176 H184 0.930 . S
C177 C175 1.407 . S
C177 C176 1.345 . S
C177 H179 0.930 . S
H178 C171 0.930 . S
H179 C177 0.930 . S
H180 C168 0.930 . S
H181 C169 0.931 . S
H182 C175 0.930 . S
H183 C197 0.930 . S
H184 C176 0.930 . S
H185 C203 0.930 . S
H186 C194 0.930 . S
H187 C201 0.931 . S
H188 C165 0.929 . S
H189 C195 0.930 . S
H190 C228 0.930 . S
H191 C172 0.930 . S
H192 C227 0.929 . S
N193 Tb162 2.660 . S
N193 C194 1.305 . S
N193 C198 1.360 . S
C194 H186 0.930 . S
C194 N193 1.305 . S
C194 C197 1.407 . S
C195 H189 0.930 . S
C195 C196 1.410 . S
C195 C197 1.345 . S
C196 C195 1.410 . S
C196 C198 1.417 . S
C196 C228 1.432 . S
C197 H183 0.930 . S
C197 C194 1.407 . S
C197 C195 1.345 . S
C198 N193 1.360 . S
C198 C196 1.417 . S
C198 C202 1.432 . S
H199 C204 0.930 . S
N200 Tb162 2.600 . S
N200 C202 1.359 . S
N200 C203 1.327 . S
C201 H187 0.931 . S
C201 C203 1.392 . S
C201 C204 1.370 . S
C202 C198 1.432 . S
C202 N200 1.359 . S
C202 C205 1.414 . S
C203 H185 0.930 . S
C203 N200 1.327 . S
C203 C201 1.392 . S
C204 H199 0.930 . S
C204 C201 1.370 . S
C204 C205 1.385 . S
C205 C202 1.414 . S
C205 C204 1.385 . S
C205 C227 1.444 . S
O206 Tb162 2.546 . S
O206 C226 1.251 . S
O207 Tb162 2.616 1_545 S
O207 Tb173 2.351 1_556 S
O207 C218 1.292 . S
O208 Tb173 2.421 . S
O208 C225 1.262 1_554 S
O209 Tb162 2.320 1_545 S
O209 C225 1.260 . S
O210 Tb162 2.552 1_545 S
O210 C218 1.243 . S
O211 Tb162 2.413 . S
O211 C226 1.256 . S
O212 Tb173 2.546 . S
O212 C237 1.251 . S
O213 Tb162 2.362 1_554 S
O213 Tb173 2.610 1_565 S
O213 C229 1.283 . S
O214 Tb162 2.421 . S
O214 C236 1.262 1_556 S
O215 Tb173 2.320 1_565 S
O215 C236 1.260 . S
O216 Tb173 2.552 1_565 S
O216 C229 1.243 . S
O217 Tb173 2.413 . S
O217 C237 1.256 . S
C218 O207 1.292 . S
C218 O210 1.243 . S
C219 C221 1.382 1_565 S
C219 C223 1.393 . S
C219 C226 1.500 . S
C220 C221 1.400 . S
C220 C222 1.384 1_545 S
C221 C219 1.382 1_545 S
C221 C220 1.400 . S
C221 H238 0.930 . S
C222 C220 1.384 1_565 S
C222 C224 1.392 . S
C222 H239 0.931 . S
C223 C219 1.393 . S
C223 C224 1.401 . S
C223 H240 0.930 . S
C224 C222 1.392 . S
C224 C223 1.401 . S
C224 H241 0.930 . S
C225 O208 1.262 1_556 S
C225 O209 1.260 . S
C226 Tb162 2.833 . S
C226 O206 1.251 . S
C226 O211 1.256 . S
C226 C219 1.500 . S
C227 H192 0.929 . S
C227 C205 1.444 . S
C227 C228 1.317 . S
C228 H190 0.930 . S
C228 C196 1.432 . S
C228 C227 1.317 . S
C229 O213 1.283 . S
C229 O216 1.243 . S
C230 C231 1.382 1_545 S
C230 C234 1.393 . S
C230 C237 1.500 . S
C231 C230 1.382 1_565 S
C231 C232 1.400 . S
C231 H242 0.930 . S
C232 C231 1.400 . S
C232 C233 1.384 1_565 S
C233 C232 1.384 1_545 S
C233 C235 1.392 . S
C233 H243 0.931 . S
C234 C230 1.393 . S
C234 C235 1.401 . S
C234 H244 0.930 . S
C235 C233 1.392 . S
C235 C234 1.401 . S
C235 H245 0.930 . S
C236 O214 1.262 1_554 S
C236 O215 1.260 . S
C237 Tb173 2.833 . S
C237 O212 1.251 . S
C237 O217 1.256 . S
C237 C230 1.500 . S
H238 C221 0.930 . S
H239 C222 0.931 . S
H240 C223 0.930 . S
H241 C224 0.930 . S
H242 C231 0.930 . S
H243 C233 0.931 . S
H244 C234 0.930 . S
H245 C235 0.930 . S
Tb246 N277 2.660 . S
Tb246 N284 2.600 . S
Tb246 O290 2.546 . S
Tb246 O291 2.625 1_455 S
Tb246 O293 2.320 1_455 S
Tb246 O294 2.552 1_455 S
Tb246 O295 2.413 . S
Tb246 O297 2.362 1_556 S
Tb246 O298 2.423 . S
Tb246 C310 2.833 . S
C247 C250 1.432 . S
C247 C251 1.414 . S
C247 N254 1.359 . S
C248 C250 1.417 . S
C248 C252 1.432 . S
C248 C260 1.410 . S
C249 C251 1.444 . S
C249 C252 1.317 . S
C249 H272 0.929 . S
C250 C247 1.432 . S
C250 C248 1.417 . S
C250 N258 1.360 . S
C251 C247 1.414 . S
C251 C249 1.444 . S
C251 C256 1.385 . S
C252 C248 1.432 . S
C252 C249 1.317 . S
C252 H264 0.930 . S
C253 C255 1.392 . S
C253 C256 1.370 . S
C253 H265 0.931 . S
N254 C247 1.359 . S
N254 C255 1.327 . S
N254 Tb257 2.600 . S
C255 C253 1.392 . S
C255 N254 1.327 . S
C255 H262 0.930 . S
C256 C251 1.385 . S
C256 C253 1.370 . S
C256 H275 0.930 . S
Tb257 N254 2.600 . S
Tb257 N258 2.660 . S
Tb257 O291 2.335 1_554 S
Tb257 O292 2.421 . S
Tb257 O296 2.546 . S
Tb257 O297 2.610 1_655 S
Tb257 O299 2.320 1_655 S
Tb257 O300 2.552 1_655 S
Tb257 O301 2.413 . S
Tb257 C321 2.833 . S
N258 C250 1.360 . S
N258 Tb257 2.660 . S
N258 C259 1.305 . S
C259 N258 1.305 . S
C259 C261 1.407 . S
C259 H266 0.930 . S
C260 C248 1.410 . S
C260 C261 1.345 . S
C260 H268 0.930 . S
C261 C259 1.407 . S
C261 C260 1.345 . S
C261 H263 0.930 . S
H262 C255 0.930 . S
H263 C261 0.930 . S
H264 C252 0.930 . S
H265 C253 0.931 . S
H266 C259 0.930 . S
H267 C281 0.930 . S
H268 C260 0.930 . S
H269 C287 0.930 . S
H270 C278 0.930 . S
H271 C285 0.931 . S
H272 C249 0.929 . S
H273 C279 0.930 . S
H274 C312 0.930 . S
H275 C256 0.930 . S
H276 C311 0.929 . S
N277 Tb246 2.660 . S
N277 C278 1.305 . S
N277 C282 1.360 . S
C278 H270 0.930 . S
C278 N277 1.305 . S
C278 C281 1.407 . S
C279 H273 0.930 . S
C279 C280 1.410 . S
C279 C281 1.345 . S
C280 C279 1.410 . S
C280 C282 1.417 . S
C280 C312 1.432 . S
C281 H267 0.930 . S
C281 C278 1.407 . S
C281 C279 1.345 . S
C282 N277 1.360 . S
C282 C280 1.417 . S
C282 C286 1.432 . S
H283 C288 0.930 . S
N284 Tb246 2.600 . S
N284 C286 1.359 . S
N284 C287 1.327 . S
C285 H271 0.931 . S
C285 C287 1.392 . S
C285 C288 1.370 . S
C286 C282 1.432 . S
C286 N284 1.359 . S
C286 C289 1.414 . S
C287 H269 0.930 . S
C287 N284 1.327 . S
C287 C285 1.392 . S
C288 H283 0.930 . S
C288 C285 1.370 . S
C288 C289 1.385 . S
C289 C286 1.414 . S
C289 C288 1.385 . S
C289 C311 1.444 . S
O290 Tb246 2.546 . S
O290 C310 1.251 . S
O291 Tb246 2.625 1_655 S
O291 Tb257 2.335 1_556 S
O291 C302 1.305 . S
O292 Tb257 2.421 . S
O292 C309 1.262 1_554 S
O293 Tb246 2.320 1_655 S
O293 C309 1.260 . S
O294 Tb246 2.552 1_655 S
O294 C302 1.243 . S
O295 Tb246 2.413 . S
O295 C310 1.256 . S
O296 Tb257 2.546 . S
O296 C321 1.251 . S
O297 Tb246 2.362 1_554 S
O297 Tb257 2.610 1_455 S
O297 C313 1.283 . S
O298 Tb246 2.423 . S
O298 C320 1.258 1_556 S
O299 Tb257 2.320 1_455 S
O299 C320 1.260 . S
O300 Tb257 2.552 1_455 S
O300 C313 1.243 . S
O301 Tb257 2.413 . S
O301 C321 1.256 . S
C302 O291 1.305 . S
C302 O294 1.243 . S
C303 C305 1.382 1_455 S
C303 C307 1.393 . S
C303 C310 1.500 . S
C304 C305 1.400 . S
C304 C306 1.384 1_655 S
C305 C303 1.382 1_655 S
C305 C304 1.400 . S
C305 H322 0.930 . S
C306 C304 1.384 1_455 S
C306 C308 1.392 . S
C306 H323 0.931 . S
C307 C303 1.393 . S
C307 C308 1.401 . S
C307 H324 0.930 . S
C308 C306 1.392 . S
C308 C307 1.401 . S
C308 H325 0.930 . S
C309 O292 1.262 1_556 S
C309 O293 1.260 . S
C310 Tb246 2.833 . S
C310 O290 1.251 . S
C310 O295 1.256 . S
C310 C303 1.500 . S
C311 H276 0.929 . S
C311 C289 1.444 . S
C311 C312 1.317 . S
C312 H274 0.930 . S
C312 C280 1.432 . S
C312 C311 1.317 . S
C313 O297 1.283 . S
C313 O300 1.243 . S
C314 C315 1.382 1_655 S
C314 C318 1.393 . S
C314 C321 1.500 . S
C315 C314 1.382 1_455 S
C315 C316 1.400 . S
C315 H326 0.930 . S
C316 C315 1.400 . S
C316 C317 1.384 1_455 S
C317 C316 1.384 1_655 S
C317 C319 1.392 . S
C317 H327 0.931 . S
C318 C314 1.393 . S
C318 C319 1.401 . S
C318 H328 0.930 . S
C319 C317 1.392 . S
C319 C318 1.401 . S
C319 H329 0.930 . S
C320 O298 1.258 1_554 S
C320 O299 1.260 . S
C321 Tb257 2.833 . S
C321 O296 1.251 . S
C321 O301 1.256 . S
C321 C314 1.500 . S
H322 C305 0.930 . S
H323 C306 0.931 . S
H324 C307 0.930 . S
H325 C308 0.930 . S
H326 C315 0.930 . S
H327 C317 0.931 . S
H328 C318 0.930 . S
H329 C319 0.930 . S
Tb330 N361 2.660 . S
Tb330 N368 2.600 . S
Tb330 O374 2.546 . S
Tb330 O375 2.610 . S
Tb330 O377 2.320 . S
Tb330 O378 2.552 . S
Tb330 O379 2.413 . S
Tb330 O381 2.304 1_554 S
Tb330 O382 2.421 . S
Tb330 C394 2.833 . S
C331 C334 1.432 . S
C331 C335 1.414 . S
C331 N338 1.359 . S
C332 C334 1.417 . S
C332 C336 1.432 . S
C332 C344 1.410 . S
C333 C335 1.444 . S
C333 C336 1.317 . S
C333 H356 0.929 . S
C334 C331 1.432 . S
C334 C332 1.417 . S
C334 N342 1.360 . S
C335 C331 1.414 . S
C335 C333 1.444 . S
C335 C340 1.385 . S
C336 C332 1.432 . S
C336 C333 1.317 . S
C336 H348 0.930 . S
C337 C339 1.392 . S
C337 C340 1.370 . S
C337 H349 0.931 . S
N338 C331 1.359 . S
N338 C339 1.327 . S
N338 Tb341 2.600 . S
C339 C337 1.392 . S
C339 N338 1.327 . S
C339 H346 0.930 . S
C340 C335 1.385 . S
C340 C337 1.370 . S
C340 H359 0.930 . S
Tb341 N338 2.600 . S
Tb341 N342 2.660 . S
Tb341 O375 2.362 1_556 S
Tb341 O376 2.421 . S
Tb341 O380 2.546 . S
Tb341 O381 2.644 . S
Tb341 O383 2.320 . S
Tb341 O384 2.552 . S
Tb341 O385 2.413 . S
Tb341 C405 2.833 . S
N342 C334 1.360 . S
N342 Tb341 2.660 . S
N342 C343 1.305 . S
C343 N342 1.305 . S
C343 C345 1.407 . S
C343 H350 0.930 . S
C344 C332 1.410 . S
C344 C345 1.345 . S
C344 H352 0.930 . S
C345 C343 1.407 . S
C345 C344 1.345 . S
C345 H347 0.930 . S
H346 C339 0.930 . S
H347 C345 0.930 . S
H348 C336 0.930 . S
H349 C337 0.931 . S
H350 C343 0.930 . S
H351 C365 0.930 . S
H352 C344 0.930 . S
H353 C371 0.930 . S
H354 C362 0.930 . S
H355 C369 0.931 . S
H356 C333 0.929 . S
H357 C363 0.930 . S
H358 C396 0.930 . S
H359 C340 0.930 . S
H360 C395 0.929 . S
N361 Tb330 2.660 . S
N361 C362 1.305 . S
N361 C366 1.360 . S
C362 H354 0.930 . S
C362 N361 1.305 . S
C362 C365 1.407 . S
C363 H357 0.930 . S
C363 C364 1.410 . S
C363 C365 1.345 . S
C364 C363 1.410 . S
C364 C366 1.417 . S
C364 C396 1.432 . S
C365 H351 0.930 . S
C365 C362 1.407 . S
C365 C363 1.345 . S
C366 N361 1.360 . S
C366 C364 1.417 . S
C366 C370 1.432 . S
H367 C372 0.930 . S
N368 Tb330 2.600 . S
N368 C370 1.359 . S
N368 C371 1.327 . S
C369 H355 0.931 . S
C369 C371 1.392 . S
C369 C372 1.370 . S
C370 C366 1.432 . S
C370 N368 1.359 . S
C370 C373 1.414 . S
C371 H353 0.930 . S
C371 N368 1.327 . S
C371 C369 1.392 . S
C372 H367 0.930 . S
C372 C369 1.370 . S
C372 C373 1.385 . S
C373 C370 1.414 . S
C373 C372 1.385 . S
C373 C395 1.444 . S
O374 Tb330 2.546 . S
O374 C394 1.251 . S
O375 Tb330 2.610 . S
O375 Tb341 2.362 1_554 S
O375 C386 1.283 . S
O376 Tb341 2.421 . S
O376 C393 1.262 1_556 S
O377 Tb330 2.320 . S
O377 C393 1.260 . S
O378 Tb330 2.552 . S
O378 C386 1.243 . S
O379 Tb330 2.413 . S
O379 C394 1.256 . S
O380 Tb341 2.546 . S
O380 C405 1.251 . S
O381 Tb330 2.304 1_556 S
O381 Tb341 2.644 . S
O381 C397 1.331 . S
O382 Tb330 2.421 . S
O382 C404 1.262 1_554 S
O383 Tb341 2.320 . S
O383 C404 1.260 . S
O384 Tb341 2.552 . S
O384 C397 1.243 . S
O385 Tb341 2.413 . S
O385 C405 1.256 . S
C386 O375 1.283 . S
C386 O378 1.243 . S
C387 C389 1.382 . S
C387 C391 1.393 . S
C387 C394 1.500 . S
C388 C389 1.400 . S
C388 C390 1.384 . S
C389 C387 1.382 . S
C389 C388 1.400 . S
C389 H406 0.930 . S
C390 C388 1.384 . S
C390 C392 1.392 . S
C390 H407 0.931 . S
C391 C387 1.393 . S
C391 C392 1.401 . S
C391 H408 0.930 . S
C392 C390 1.392 . S
C392 C391 1.401 . S
C392 H409 0.930 . S
C393 O376 1.262 1_554 S
C393 O377 1.260 . S
C394 Tb330 2.833 . S
C394 O374 1.251 . S
C394 O379 1.256 . S
C394 C387 1.500 . S
C395 H360 0.929 . S
C395 C373 1.444 . S
C395 C396 1.317 . S
C396 H358 0.930 . S
C396 C364 1.432 . S
C396 C395 1.317 . S
C397 O381 1.331 . S
C397 O384 1.243 . S
C398 C399 1.382 . S
C398 C402 1.393 . S
C398 C405 1.500 . S
C399 C398 1.382 . S
C399 C400 1.400 . S
C399 H410 0.930 . S
C400 C399 1.400 . S
C400 C401 1.384 . S
C401 C400 1.384 . S
C401 C403 1.392 . S
C401 H411 0.931 . S
C402 C398 1.393 . S
C402 C403 1.401 . S
C402 H412 0.930 . S
C403 C401 1.392 . S
C403 C402 1.401 . S
C403 H413 0.930 . S
C404 O382 1.262 1_556 S
C404 O383 1.260 . S
C405 Tb341 2.833 . S
C405 O380 1.251 . S
C405 O385 1.256 . S
C405 C398 1.500 . S
H406 C389 0.930 . S
H407 C390 0.931 . S
H408 C391 0.930 . S
H409 C392 0.930 . S
H410 C399 0.930 . S
H411 C401 0.931 . S
H412 C402 0.930 . S
H413 C403 0.930 . S
Tb414 N445 2.660 . S
Tb414 N452 2.600 . S
Tb414 O458 2.546 . S
Tb414 O459 2.610 . S
Tb414 O461 2.320 . S
Tb414 O462 2.552 . S
Tb414 O463 2.413 . S
Tb414 O465 2.362 . S
Tb414 O466 2.421 . S
Tb414 C478 2.833 . S
C415 C418 1.432 . S
C415 C419 1.414 . S
C415 N422 1.359 . S
C416 C418 1.417 . S
C416 C420 1.432 . S
C416 C428 1.410 . S
C417 C419 1.444 . S
C417 C420 1.317 . S
C417 H440 0.929 . S
C418 C415 1.432 . S
C418 C416 1.417 . S
C418 N426 1.360 . S
C419 C415 1.414 . S
C419 C417 1.444 . S
C419 C424 1.385 . S
C420 C416 1.432 . S
C420 C417 1.317 . S
C420 H432 0.930 . S
C421 C423 1.392 . S
C421 C424 1.370 . S
C421 H433 0.931 . S
N422 C415 1.359 . S
N422 C423 1.327 . S
N422 Tb425 2.600 . S
C423 C421 1.392 . S
C423 N422 1.327 . S
C423 H430 0.930 . S
C424 C419 1.385 . S
C424 C421 1.370 . S
C424 H443 0.930 . S
Tb425 N422 2.600 . S
Tb425 N426 2.660 . S
Tb425 O459 2.362 . S
Tb425 O460 2.421 . S
Tb425 O464 2.546 . S
Tb425 O465 2.610 . S
Tb425 O467 2.320 . S
Tb425 O468 2.552 . S
Tb425 O469 2.413 . S
Tb425 C489 2.833 . S
N426 C418 1.360 . S
N426 Tb425 2.660 . S
N426 C427 1.305 . S
C427 N426 1.305 . S
C427 C429 1.407 . S
C427 H434 0.930 . S
C428 C416 1.410 . S
C428 C429 1.345 . S
C428 H436 0.930 . S
C429 C427 1.407 . S
C429 C428 1.345 . S
C429 H431 0.930 . S
H430 C423 0.930 . S
H431 C429 0.930 . S
H432 C420 0.930 . S
H433 C421 0.931 . S
H434 C427 0.930 . S
H435 C449 0.930 . S
H436 C428 0.930 . S
H437 C455 0.930 . S
H438 C446 0.930 . S
H439 C453 0.931 . S
H440 C417 0.929 . S
H441 C447 0.930 . S
H442 C480 0.930 . S
H443 C424 0.930 . S
H444 C479 0.929 . S
N445 Tb414 2.660 . S
N445 C446 1.305 . S
N445 C450 1.360 . S
C446 H438 0.930 . S
C446 N445 1.305 . S
C446 C449 1.407 . S
C447 H441 0.930 . S
C447 C448 1.410 . S
C447 C449 1.345 . S
C448 C447 1.410 . S
C448 C450 1.417 . S
C448 C480 1.432 . S
C449 H435 0.930 . S
C449 C446 1.407 . S
C449 C447 1.345 . S
C450 N445 1.360 . S
C450 C448 1.417 . S
C450 C454 1.432 . S
H451 C456 0.930 . S
N452 Tb414 2.600 . S
N452 C454 1.359 . S
N452 C455 1.327 . S
C453 H439 0.931 . S
C453 C455 1.392 . S
C453 C456 1.370 . S
C454 C450 1.432 . S
C454 N452 1.359 . S
C454 C457 1.414 . S
C455 H437 0.930 . S
C455 N452 1.327 . S
C455 C453 1.392 . S
C456 H451 0.930 . S
C456 C453 1.370 . S
C456 C457 1.385 . S
C457 C454 1.414 . S
C457 C456 1.385 . S
C457 C479 1.444 . S
O458 Tb414 2.546 . S
O458 C478 1.251 . S
O459 Tb414 2.610 . S
O459 Tb425 2.362 . S
O459 C470 1.283 . S
O460 Tb425 2.421 . S
O460 C477 1.262 . S
O461 Tb414 2.320 . S
O461 C477 1.260 . S
O462 Tb414 2.552 . S
O462 C470 1.243 . S
O463 Tb414 2.413 . S
O463 C478 1.256 . S
O464 Tb425 2.546 . S
O464 C489 1.251 . S
O465 Tb414 2.362 . S
O465 Tb425 2.610 . S
O465 C481 1.283 . S
O466 Tb414 2.421 . S
O466 C488 1.262 . S
O467 Tb425 2.320 . S
O467 C488 1.260 . S
O468 Tb425 2.552 . S
O468 C481 1.243 . S
O469 Tb425 2.413 . S
O469 C489 1.256 . S
C470 O459 1.283 . S
C470 O462 1.243 . S
C471 C473 1.382 . S
C471 C475 1.393 . S
C471 C478 1.500 . S
C472 C473 1.400 . S
C472 C474 1.384 . S
C473 C471 1.382 . S
C473 C472 1.400 . S
C473 H490 0.930 . S
C474 C472 1.384 . S
C474 C476 1.392 . S
C474 H491 0.931 . S
C475 C471 1.393 . S
C475 C476 1.401 . S
C475 H492 0.930 . S
C476 C474 1.392 . S
C476 C475 1.401 . S
C476 H493 0.930 . S
C477 O460 1.262 . S
C477 O461 1.260 . S
C478 Tb414 2.833 . S
C478 O458 1.251 . S
C478 O463 1.256 . S
C478 C471 1.500 . S
C479 H444 0.929 . S
C479 C457 1.444 . S
C479 C480 1.317 . S
C480 H442 0.930 . S
C480 C448 1.432 . S
C480 C479 1.317 . S
C481 O465 1.283 . S
C481 O468 1.243 . S
C482 C483 1.382 . S
C482 C486 1.393 . S
C482 C489 1.500 . S
C483 C482 1.382 . S
C483 C484 1.400 . S
C483 H494 0.930 . S
C484 C483 1.400 . S
C484 C485 1.384 . S
C485 C484 1.384 . S
C485 C487 1.392 . S
C485 H495 0.931 . S
C486 C482 1.393 . S
C486 C487 1.401 . S
C486 H496 0.930 . S
C487 C485 1.392 . S
C487 C486 1.401 . S
C487 H497 0.930 . S
C488 O466 1.262 . S
C488 O467 1.260 . S
C489 Tb425 2.833 . S
C489 O464 1.251 . S
C489 O469 1.256 . S
C489 C482 1.500 . S
H490 C473 0.930 . S
H491 C474 0.931 . S
H492 C475 0.930 . S
H493 C476 0.930 . S
H494 C483 0.930 . S
H495 C485 0.931 . S
H496 C486 0.930 . S
H497 C487 0.930 . S
Tb498 N529 2.660 . S
Tb498 N536 2.600 . S
Tb498 O542 2.546 . S
Tb498 O543 2.610 . S
Tb498 O545 2.320 . S
Tb498 O546 2.552 . S
Tb498 O547 2.413 . S
Tb498 O549 2.362 . S
Tb498 O550 2.421 . S
Tb498 C562 2.833 . S
C499 C502 1.432 . S
C499 C503 1.414 . S
C499 N506 1.359 . S
C500 C502 1.417 . S
C500 C504 1.432 . S
C500 C512 1.410 . S
C501 C503 1.444 . S
C501 C504 1.317 . S
C501 H524 0.929 . S
C502 C499 1.432 . S
C502 C500 1.417 . S
C502 N510 1.360 . S
C503 C499 1.414 . S
C503 C501 1.444 . S
C503 C508 1.385 . S
C504 C500 1.432 . S
C504 C501 1.317 . S
C504 H516 0.930 . S
C505 C507 1.392 . S
C505 C508 1.370 . S
C505 H517 0.931 . S
N506 C499 1.359 . S
N506 C507 1.327 . S
N506 Tb509 2.600 . S
C507 C505 1.392 . S
C507 N506 1.327 . S
C507 H514 0.930 . S
C508 C503 1.385 . S
C508 C505 1.370 . S
C508 H527 0.930 . S
Tb509 N506 2.600 . S
Tb509 N510 2.660 . S
Tb509 O543 2.362 . S
Tb509 O544 2.421 . S
Tb509 O548 2.546 . S
Tb509 O549 2.610 . S
Tb509 O551 2.320 . S
Tb509 O552 2.552 . S
Tb509 O553 2.413 . S
Tb509 C573 2.833 . S
N510 C502 1.360 . S
N510 Tb509 2.660 . S
N510 C511 1.305 . S
C511 N510 1.305 . S
C511 C513 1.407 . S
C511 H518 0.930 . S
C512 C500 1.410 . S
C512 C513 1.345 . S
C512 H520 0.930 . S
C513 C511 1.407 . S
C513 C512 1.345 . S
C513 H515 0.930 . S
H514 C507 0.930 . S
H515 C513 0.930 . S
H516 C504 0.930 . S
H517 C505 0.931 . S
H518 C511 0.930 . S
H519 C533 0.930 . S
H520 C512 0.930 . S
H521 C539 0.930 . S
H522 C530 0.930 . S
H523 C537 0.931 . S
H524 C501 0.929 . S
H525 C531 0.930 . S
H526 C564 0.930 . S
H527 C508 0.930 . S
H528 C563 0.929 . S
N529 Tb498 2.660 . S
N529 C530 1.305 . S
N529 C534 1.360 . S
C530 H522 0.930 . S
C530 N529 1.305 . S
C530 C533 1.407 . S
C531 H525 0.930 . S
C531 C532 1.410 . S
C531 C533 1.345 . S
C532 C531 1.410 . S
C532 C534 1.417 . S
C532 C564 1.432 . S
C533 H519 0.930 . S
C533 C530 1.407 . S
C533 C531 1.345 . S
C534 N529 1.360 . S
C534 C532 1.417 . S
C534 C538 1.432 . S
H535 C540 0.930 . S
N536 Tb498 2.600 . S
N536 C538 1.359 . S
N536 C539 1.327 . S
C537 H523 0.931 . S
C537 C539 1.392 . S
C537 C540 1.370 . S
C538 C534 1.432 . S
C538 N536 1.359 . S
C538 C541 1.414 . S
C539 H521 0.930 . S
C539 N536 1.327 . S
C539 C537 1.392 . S
C540 H535 0.930 . S
C540 C537 1.370 . S
C540 C541 1.385 . S
C541 C538 1.414 . S
C541 C540 1.385 . S
C541 C563 1.444 . S
O542 Tb498 2.546 . S
O542 C562 1.251 . S
O543 Tb498 2.610 . S
O543 Tb509 2.362 . S
O543 C554 1.283 . S
O544 Tb509 2.421 . S
O544 C561 1.262 . S
O545 Tb498 2.320 . S
O545 C561 1.260 . S
O546 Tb498 2.552 . S
O546 C554 1.243 . S
O547 Tb498 2.413 . S
O547 C562 1.256 . S
O548 Tb509 2.546 . S
O548 C573 1.251 . S
O549 Tb498 2.362 . S
O549 Tb509 2.610 . S
O549 C565 1.283 . S
O550 Tb498 2.421 . S
O550 C572 1.262 . S
O551 Tb509 2.320 . S
O551 C572 1.260 . S
O552 Tb509 2.552 . S
O552 C565 1.243 . S
O553 Tb509 2.413 . S
O553 C573 1.256 . S
C554 O543 1.283 . S
C554 O546 1.243 . S
C555 C557 1.382 . S
C555 C559 1.393 . S
C555 C562 1.500 . S
C556 C557 1.400 . S
C556 C558 1.384 . S
C557 C555 1.382 . S
C557 C556 1.400 . S
C557 H574 0.930 . S
C558 C556 1.384 . S
C558 C560 1.392 . S
C558 H575 0.931 . S
C559 C555 1.393 . S
C559 C560 1.401 . S
C559 H576 0.930 . S
C560 C558 1.392 . S
C560 C559 1.401 . S
C560 H577 0.930 . S
C561 O544 1.262 . S
C561 O545 1.260 . S
C562 Tb498 2.833 . S
C562 O542 1.251 . S
C562 O547 1.256 . S
C562 C555 1.500 . S
C563 H528 0.929 . S
C563 C541 1.444 . S
C563 C564 1.317 . S
C564 H526 0.930 . S
C564 C532 1.432 . S
C564 C563 1.317 . S
C565 O549 1.283 . S
C565 O552 1.243 . S
C566 C567 1.382 . S
C566 C570 1.393 . S
C566 C573 1.500 . S
C567 C566 1.382 . S
C567 C568 1.400 . S
C567 H578 0.930 . S
C568 C567 1.400 . S
C568 C569 1.384 . S
C569 C568 1.384 . S
C569 C571 1.392 . S
C569 H579 0.931 . S
C570 C566 1.393 . S
C570 C571 1.401 . S
C570 H580 0.930 . S
C571 C569 1.392 . S
C571 C570 1.401 . S
C571 H581 0.930 . S
C572 O550 1.262 . S
C572 O551 1.260 . S
C573 Tb509 2.833 . S
C573 O548 1.251 . S
C573 O553 1.256 . S
C573 C566 1.500 . S
H574 C557 0.930 . S
H575 C558 0.931 . S
H576 C559 0.930 . S
H577 C560 0.930 . S
H578 C567 0.930 . S
H579 C569 0.931 . S
H580 C570 0.930 . S
H581 C571 0.930 . S
Tb582 N613 2.660 . S
Tb582 N620 2.600 . S
Tb582 O626 2.546 . S
Tb582 O627 2.610 . S
Tb582 O629 2.320 . S
Tb582 O630 2.552 . S
Tb582 O631 2.413 . S
Tb582 O633 2.362 . S
Tb582 O634 2.421 . S
Tb582 C646 2.833 . S
C583 C586 1.432 . S
C583 C587 1.414 . S
C583 N590 1.359 . S
C584 C586 1.417 . S
C584 C588 1.432 . S
C584 C596 1.410 . S
C585 C587 1.444 . S
C585 C588 1.317 . S
C585 H608 0.929 . S
C586 C583 1.432 . S
C586 C584 1.417 . S
C586 N594 1.360 . S
C587 C583 1.414 . S
C587 C585 1.444 . S
C587 C592 1.385 . S
C588 C584 1.432 . S
C588 C585 1.317 . S
C588 H600 0.930 . S
C589 C591 1.392 . S
C589 C592 1.370 . S
C589 H601 0.931 . S
N590 C583 1.359 . S
N590 C591 1.327 . S
N590 Tb593 2.600 . S
C591 C589 1.392 . S
C591 N590 1.327 . S
C591 H598 0.930 . S
C592 C587 1.385 . S
C592 C589 1.370 . S
C592 H611 0.930 . S
Tb593 N590 2.600 . S
Tb593 N594 2.660 . S
Tb593 O627 2.362 . S
Tb593 O628 2.421 . S
Tb593 O632 2.546 . S
Tb593 O633 2.610 . S
Tb593 O635 2.320 . S
Tb593 O636 2.552 . S
Tb593 O637 2.413 . S
Tb593 C657 2.833 . S
N594 C586 1.360 . S
N594 Tb593 2.660 . S
N594 C595 1.305 . S
C595 N594 1.305 . S
C595 C597 1.407 . S
C595 H602 0.930 . S
C596 C584 1.410 . S
C596 C597 1.345 . S
C596 H604 0.930 . S
C597 C595 1.407 . S
C597 C596 1.345 . S
C597 H599 0.930 . S
H598 C591 0.930 . S
H599 C597 0.930 . S
H600 C588 0.930 . S
H601 C589 0.931 . S
H602 C595 0.930 . S
H603 C617 0.930 . S
H604 C596 0.930 . S
H605 C623 0.930 . S
H606 C614 0.930 . S
H607 C621 0.931 . S
H608 C585 0.929 . S
H609 C615 0.930 . S
H610 C648 0.930 . S
H611 C592 0.930 . S
H612 C647 0.929 . S
N613 Tb582 2.660 . S
N613 C614 1.305 . S
N613 C618 1.360 . S
C614 H606 0.930 . S
C614 N613 1.305 . S
C614 C617 1.407 . S
C615 H609 0.930 . S
C615 C616 1.410 . S
C615 C617 1.345 . S
C616 C615 1.410 . S
C616 C618 1.417 . S
C616 C648 1.432 . S
C617 H603 0.930 . S
C617 C614 1.407 . S
C617 C615 1.345 . S
C618 N613 1.360 . S
C618 C616 1.417 . S
C618 C622 1.432 . S
H619 C624 0.930 . S
N620 Tb582 2.600 . S
N620 C622 1.359 . S
N620 C623 1.327 . S
C621 H607 0.931 . S
C621 C623 1.392 . S
C621 C624 1.370 . S
C622 C618 1.432 . S
C622 N620 1.359 . S
C622 C625 1.414 . S
C623 H605 0.930 . S
C623 N620 1.327 . S
C623 C621 1.392 . S
C624 H619 0.930 . S
C624 C621 1.370 . S
C624 C625 1.385 . S
C625 C622 1.414 . S
C625 C624 1.385 . S
C625 C647 1.444 . S
O626 Tb582 2.546 . S
O626 C646 1.251 . S
O627 Tb582 2.610 . S
O627 Tb593 2.362 . S
O627 C638 1.283 . S
O628 Tb593 2.421 . S
O628 C645 1.262 . S
O629 Tb582 2.320 . S
O629 C645 1.260 . S
O630 Tb582 2.552 . S
O630 C638 1.243 . S
O631 Tb582 2.413 . S
O631 C646 1.256 . S
O632 Tb593 2.546 . S
O632 C657 1.251 . S
O633 Tb582 2.362 . S
O633 Tb593 2.610 . S
O633 C649 1.283 . S
O634 Tb582 2.421 . S
O634 C656 1.262 . S
O635 Tb593 2.320 . S
O635 C656 1.260 . S
O636 Tb593 2.552 . S
O636 C649 1.243 . S
O637 Tb593 2.413 . S
O637 C657 1.256 . S
C638 O627 1.283 . S
C638 O630 1.243 . S
C639 C641 1.382 . S
C639 C643 1.393 . S
C639 C646 1.500 . S
C640 C641 1.400 . S
C640 C642 1.384 . S
C641 C639 1.382 . S
C641 C640 1.400 . S
C641 H658 0.930 . S
C642 C640 1.384 . S
C642 C644 1.392 . S
C642 H659 0.931 . S
C643 C639 1.393 . S
C643 C644 1.401 . S
C643 H660 0.930 . S
C644 C642 1.392 . S
C644 C643 1.401 . S
C644 H661 0.930 . S
C645 O628 1.262 . S
C645 O629 1.260 . S
C646 Tb582 2.833 . S
C646 O626 1.251 . S
C646 O631 1.256 . S
C646 C639 1.500 . S
C647 H612 0.929 . S
C647 C625 1.444 . S
C647 C648 1.317 . S
C648 H610 0.930 . S
C648 C616 1.432 . S
C648 C647 1.317 . S
C649 O633 1.283 . S
C649 O636 1.243 . S
C650 C651 1.382 . S
C650 C654 1.393 . S
C650 C657 1.500 . S
C651 C650 1.382 . S
C651 C652 1.400 . S
C651 H662 0.930 . S
C652 C651 1.400 . S
C652 C653 1.384 . S
C653 C652 1.384 . S
C653 C655 1.392 . S
C653 H663 0.931 . S
C654 C650 1.393 . S
C654 C655 1.401 . S
C654 H664 0.930 . S
C655 C653 1.392 . S
C655 C654 1.401 . S
C655 H665 0.930 . S
C656 O634 1.262 . S
C656 O635 1.260 . S
C657 Tb593 2.833 . S
C657 O632 1.251 . S
C657 O637 1.256 . S
C657 C650 1.500 . S
H658 C641 0.930 . S
H659 C642 0.931 . S
H660 C643 0.930 . S
H661 C644 0.930 . S
H662 C651 0.930 . S
H663 C653 0.931 . S
H664 C654 0.930 . S
H665 C655 0.930 . S
Tb666 N697 2.660 . S
Tb666 N704 2.600 . S
Tb666 O710 2.546 . S
Tb666 O711 2.610 . S
Tb666 O713 2.320 . S
Tb666 O714 2.552 . S
Tb666 O715 2.413 . S
Tb666 O717 2.362 . S
Tb666 O718 2.421 . S
Tb666 C730 2.833 . S
C667 C670 1.432 . S
C667 C671 1.414 . S
C667 N674 1.359 . S
C668 C670 1.417 . S
C668 C672 1.432 . S
C668 C680 1.410 . S
C669 C671 1.444 . S
C669 C672 1.317 . S
C669 H692 0.929 . S
C670 C667 1.432 . S
C670 C668 1.417 . S
C670 N678 1.360 . S
C671 C667 1.414 . S
C671 C669 1.444 . S
C671 C676 1.385 . S
C672 C668 1.432 . S
C672 C669 1.317 . S
C672 H684 0.930 . S
C673 C675 1.392 . S
C673 C676 1.370 . S
C673 H685 0.931 . S
N674 C667 1.359 . S
N674 C675 1.327 . S
N674 Tb677 2.600 . S
C675 C673 1.392 . S
C675 N674 1.327 . S
C675 H682 0.930 . S
C676 C671 1.385 . S
C676 C673 1.370 . S
C676 H695 0.930 . S
Tb677 N674 2.600 . S
Tb677 N678 2.660 . S
Tb677 O711 2.362 . S
Tb677 O712 2.421 . S
Tb677 O716 2.546 . S
Tb677 O717 2.610 . S
Tb677 O719 2.320 . S
Tb677 O720 2.552 . S
Tb677 O721 2.413 . S
Tb677 C741 2.833 . S
N678 C670 1.360 . S
N678 Tb677 2.660 . S
N678 C679 1.305 . S
C679 N678 1.305 . S
C679 C681 1.407 . S
C679 H686 0.930 . S
C680 C668 1.410 . S
C680 C681 1.345 . S
C680 H688 0.930 . S
C681 C679 1.407 . S
C681 C680 1.345 . S
C681 H683 0.930 . S
H682 C675 0.930 . S
H683 C681 0.930 . S
H684 C672 0.930 . S
H685 C673 0.931 . S
H686 C679 0.930 . S
H687 C701 0.930 . S
H688 C680 0.930 . S
H689 C707 0.930 . S
H690 C698 0.930 . S
H691 C705 0.931 . S
H692 C669 0.929 . S
H693 C699 0.930 . S
H694 C732 0.930 . S
H695 C676 0.930 . S
H696 C731 0.929 . S
N697 Tb666 2.660 . S
N697 C698 1.305 . S
N697 C702 1.360 . S
C698 H690 0.930 . S
C698 N697 1.305 . S
C698 C701 1.407 . S
C699 H693 0.930 . S
C699 C700 1.410 . S
C699 C701 1.345 . S
C700 C699 1.410 . S
C700 C702 1.417 . S
C700 C732 1.432 . S
C701 H687 0.930 . S
C701 C698 1.407 . S
C701 C699 1.345 . S
C702 N697 1.360 . S
C702 C700 1.417 . S
C702 C706 1.432 . S
H703 C708 0.930 . S
N704 Tb666 2.600 . S
N704 C706 1.359 . S
N704 C707 1.327 . S
C705 H691 0.931 . S
C705 C707 1.392 . S
C705 C708 1.370 . S
C706 C702 1.432 . S
C706 N704 1.359 . S
C706 C709 1.414 . S
C707 H689 0.930 . S
C707 N704 1.327 . S
C707 C705 1.392 . S
C708 H703 0.930 . S
C708 C705 1.370 . S
C708 C709 1.385 . S
C709 C706 1.414 . S
C709 C708 1.385 . S
C709 C731 1.444 . S
O710 Tb666 2.546 . S
O710 C730 1.251 . S
O711 Tb666 2.610 . S
O711 Tb677 2.362 . S
O711 C722 1.283 . S
O712 Tb677 2.421 . S
O712 C729 1.262 . S
O713 Tb666 2.320 . S
O713 C729 1.260 . S
O714 Tb666 2.552 . S
O714 C722 1.243 . S
O715 Tb666 2.413 . S
O715 C730 1.256 . S
O716 Tb677 2.546 . S
O716 C741 1.251 . S
O717 Tb666 2.362 . S
O717 Tb677 2.610 . S
O717 C733 1.283 . S
O718 Tb666 2.421 . S
O718 C740 1.262 . S
O719 Tb677 2.320 . S
O719 C740 1.260 . S
O720 Tb677 2.552 . S
O720 C733 1.243 . S
O721 Tb677 2.413 . S
O721 C741 1.256 . S
C722 O711 1.283 . S
C722 O714 1.243 . S
C723 C725 1.382 . S
C723 C727 1.393 . S
C723 C730 1.500 . S
C724 C725 1.400 . S
C724 C726 1.384 . S
C725 C723 1.382 . S
C725 C724 1.400 . S
C725 H742 0.930 . S
C726 C724 1.384 . S
C726 C728 1.392 . S
C726 H743 0.931 . S
C727 C723 1.393 . S
C727 C728 1.401 . S
C727 H744 0.930 . S
C728 C726 1.392 . S
C728 C727 1.401 . S
C728 H745 0.930 . S
C729 O712 1.262 . S
C729 O713 1.260 . S
C730 Tb666 2.833 . S
C730 O710 1.251 . S
C730 O715 1.256 . S
C730 C723 1.500 . S
C731 H696 0.929 . S
C731 C709 1.444 . S
C731 C732 1.317 . S
C732 H694 0.930 . S
C732 C700 1.432 . S
C732 C731 1.317 . S
C733 O717 1.283 . S
C733 O720 1.243 . S
C734 C735 1.382 . S
C734 C738 1.393 . S
C734 C741 1.500 . S
C735 C734 1.382 . S
C735 C736 1.400 . S
C735 H746 0.930 . S
C736 C735 1.400 . S
C736 C737 1.384 . S
C737 C736 1.384 . S
C737 C739 1.392 . S
C737 H747 0.931 . S
C738 C734 1.393 . S
C738 C739 1.401 . S
C738 H748 0.930 . S
C739 C737 1.392 . S
C739 C738 1.401 . S
C739 H749 0.930 . S
C740 O718 1.262 . S
C740 O719 1.260 . S
C741 Tb677 2.833 . S
C741 O716 1.251 . S
C741 O721 1.256 . S
C741 C734 1.500 . S
H742 C725 0.930 . S
H743 C726 0.931 . S
H744 C727 0.930 . S
H745 C728 0.930 . S
H746 C735 0.930 . S
H747 C737 0.931 . S
H748 C738 0.930 . S
H749 C739 0.930 . S
Tb750 N781 2.660 . S
Tb750 N788 2.600 . S
Tb750 O794 2.546 . S
Tb750 O795 2.610 . S
Tb750 O797 2.320 . S
Tb750 O798 2.552 . S
Tb750 O799 2.413 . S
Tb750 O801 2.362 . S
Tb750 O802 2.421 . S
Tb750 C814 2.833 . S
C751 C754 1.432 . S
C751 C755 1.414 . S
C751 N758 1.359 . S
C752 C754 1.417 . S
C752 C756 1.432 . S
C752 C764 1.410 . S
C753 C755 1.444 . S
C753 C756 1.317 . S
C753 H776 0.929 . S
C754 C751 1.432 . S
C754 C752 1.417 . S
C754 N762 1.360 . S
C755 C751 1.414 . S
C755 C753 1.444 . S
C755 C760 1.385 . S
C756 C752 1.432 . S
C756 C753 1.317 . S
C756 H768 0.930 . S
C757 C759 1.392 . S
C757 C760 1.370 . S
C757 H769 0.931 . S
N758 C751 1.359 . S
N758 C759 1.327 . S
N758 Tb761 2.600 . S
C759 C757 1.392 . S
C759 N758 1.327 . S
C759 H766 0.930 . S
C760 C755 1.385 . S
C760 C757 1.370 . S
C760 H779 0.930 . S
Tb761 N758 2.600 . S
Tb761 N762 2.660 . S
Tb761 O795 2.362 . S
Tb761 O796 2.421 . S
Tb761 O800 2.546 . S
Tb761 O801 2.610 . S
Tb761 O803 2.320 . S
Tb761 O804 2.552 . S
Tb761 O805 2.413 . S
Tb761 C825 2.833 . S
N762 C754 1.360 . S
N762 Tb761 2.660 . S
N762 C763 1.305 . S
C763 N762 1.305 . S
C763 C765 1.407 . S
C763 H770 0.930 . S
C764 C752 1.410 . S
C764 C765 1.345 . S
C764 H772 0.930 . S
C765 C763 1.407 . S
C765 C764 1.345 . S
C765 H767 0.930 . S
H766 C759 0.930 . S
H767 C765 0.930 . S
H768 C756 0.930 . S
H769 C757 0.931 . S
H770 C763 0.930 . S
H771 C785 0.930 . S
H772 C764 0.930 . S
H773 C791 0.930 . S
H774 C782 0.930 . S
H775 C789 0.931 . S
H776 C753 0.929 . S
H777 C783 0.930 . S
H778 C816 0.930 . S
H779 C760 0.930 . S
H780 C815 0.929 . S
N781 Tb750 2.660 . S
N781 C782 1.305 . S
N781 C786 1.360 . S
C782 H774 0.930 . S
C782 N781 1.305 . S
C782 C785 1.407 . S
C783 H777 0.930 . S
C783 C784 1.410 . S
C783 C785 1.345 . S
C784 C783 1.410 . S
C784 C786 1.417 . S
C784 C816 1.432 . S
C785 H771 0.930 . S
C785 C782 1.407 . S
C785 C783 1.345 . S
C786 N781 1.360 . S
C786 C784 1.417 . S
C786 C790 1.432 . S
H787 C792 0.930 . S
N788 Tb750 2.600 . S
N788 C790 1.359 . S
N788 C791 1.327 . S
C789 H775 0.931 . S
C789 C791 1.392 . S
C789 C792 1.370 . S
C790 C786 1.432 . S
C790 N788 1.359 . S
C790 C793 1.414 . S
C791 H773 0.930 . S
C791 N788 1.327 . S
C791 C789 1.392 . S
C792 H787 0.930 . S
C792 C789 1.370 . S
C792 C793 1.385 . S
C793 C790 1.414 . S
C793 C792 1.385 . S
C793 C815 1.444 . S
O794 Tb750 2.546 . S
O794 C814 1.251 . S
O795 Tb750 2.610 . S
O795 Tb761 2.362 . S
O795 C806 1.283 . S
O796 Tb761 2.421 . S
O796 C813 1.262 . S
O797 Tb750 2.320 . S
O797 C813 1.260 . S
O798 Tb750 2.552 . S
O798 C806 1.243 . S
O799 Tb750 2.413 . S
O799 C814 1.256 . S
O800 Tb761 2.546 . S
O800 C825 1.251 . S
O801 Tb750 2.362 . S
O801 Tb761 2.610 . S
O801 C817 1.283 . S
O802 Tb750 2.421 . S
O802 C824 1.262 . S
O803 Tb761 2.320 . S
O803 C824 1.260 . S
O804 Tb761 2.552 . S
O804 C817 1.243 . S
O805 Tb761 2.413 . S
O805 C825 1.256 . S
C806 O795 1.283 . S
C806 O798 1.243 . S
C807 C809 1.382 . S
C807 C811 1.393 . S
C807 C814 1.500 . S
C808 C809 1.400 . S
C808 C810 1.384 . S
C809 C807 1.382 . S
C809 C808 1.400 . S
C809 H826 0.930 . S
C810 C808 1.384 . S
C810 C812 1.392 . S
C810 H827 0.931 . S
C811 C807 1.393 . S
C811 C812 1.401 . S
C811 H828 0.930 . S
C812 C810 1.392 . S
C812 C811 1.401 . S
C812 H829 0.930 . S
C813 O796 1.262 . S
C813 O797 1.260 . S
C814 Tb750 2.833 . S
C814 O794 1.251 . S
C814 O799 1.256 . S
C814 C807 1.500 . S
C815 H780 0.929 . S
C815 C793 1.444 . S
C815 C816 1.317 . S
C816 H778 0.930 . S
C816 C784 1.432 . S
C816 C815 1.317 . S
C817 O801 1.283 . S
C817 O804 1.243 . S
C818 C819 1.382 . S
C818 C822 1.393 . S
C818 C825 1.500 . S
C819 C818 1.382 . S
C819 C820 1.400 . S
C819 H830 0.930 . S
C820 C819 1.400 . S
C820 C821 1.384 . S
C821 C820 1.384 . S
C821 C823 1.392 . S
C821 H831 0.931 . S
C822 C818 1.393 . S
C822 C823 1.401 . S
C822 H832 0.930 . S
C823 C821 1.392 . S
C823 C822 1.401 . S
C823 H833 0.930 . S
C824 O802 1.262 . S
C824 O803 1.260 . S
C825 Tb761 2.833 . S
C825 O800 1.251 . S
C825 O805 1.256 . S
C825 C818 1.500 . S
H826 C809 0.930 . S
H827 C810 0.931 . S
H828 C811 0.930 . S
H829 C812 0.930 . S
H830 C819 0.930 . S
H831 C821 0.931 . S
H832 C822 0.930 . S
H833 C823 0.930 . S
Tb834 N865 2.660 . S
Tb834 N872 2.600 . S
Tb834 O878 2.546 . S
Tb834 O879 2.610 . S
Tb834 O881 2.320 . S
Tb834 O882 2.552 . S
Tb834 O883 2.413 . S
Tb834 O885 2.362 . S
Tb834 O886 2.421 . S
Tb834 C898 2.833 . S
C835 C838 1.432 . S
C835 C839 1.414 . S
C835 N842 1.359 . S
C836 C838 1.417 . S
C836 C840 1.432 . S
C836 C848 1.410 . S
C837 C839 1.444 . S
C837 C840 1.317 . S
C837 H860 0.929 . S
C838 C835 1.432 . S
C838 C836 1.417 . S
C838 N846 1.360 . S
C839 C835 1.414 . S
C839 C837 1.444 . S
C839 C844 1.385 . S
C840 C836 1.432 . S
C840 C837 1.317 . S
C840 H852 0.930 . S
C841 C843 1.392 . S
C841 C844 1.370 . S
C841 H853 0.931 . S
N842 C835 1.359 . S
N842 C843 1.327 . S
N842 Tb845 2.600 . S
C843 C841 1.392 . S
C843 N842 1.327 . S
C843 H850 0.930 . S
C844 C839 1.385 . S
C844 C841 1.370 . S
C844 H863 0.930 . S
Tb845 N842 2.600 . S
Tb845 N846 2.660 . S
Tb845 O879 2.362 . S
Tb845 O880 2.421 . S
Tb845 O884 2.546 . S
Tb845 O885 2.610 . S
Tb845 O887 2.320 . S
Tb845 O888 2.552 . S
Tb845 O889 2.413 . S
Tb845 C909 2.833 . S
N846 C838 1.360 . S
N846 Tb845 2.660 . S
N846 C847 1.305 . S
C847 N846 1.305 . S
C847 C849 1.407 . S
C847 H854 0.930 . S
C848 C836 1.410 . S
C848 C849 1.345 . S
C848 H856 0.930 . S
C849 C847 1.407 . S
C849 C848 1.345 . S
C849 H851 0.930 . S
H850 C843 0.930 . S
H851 C849 0.930 . S
H852 C840 0.930 . S
H853 C841 0.931 . S
H854 C847 0.930 . S
H855 C869 0.930 . S
H856 C848 0.930 . S
H857 C875 0.930 . S
H858 C866 0.930 . S
H859 C873 0.931 . S
H860 C837 0.929 . S
H861 C867 0.930 . S
H862 C900 0.930 . S
H863 C844 0.930 . S
H864 C899 0.929 . S
N865 Tb834 2.660 . S
N865 C866 1.305 . S
N865 C870 1.360 . S
C866 H858 0.930 . S
C866 N865 1.305 . S
C866 C869 1.407 . S
C867 H861 0.930 . S
C867 C868 1.410 . S
C867 C869 1.345 . S
C868 C867 1.410 . S
C868 C870 1.417 . S
C868 C900 1.432 . S
C869 H855 0.930 . S
C869 C866 1.407 . S
C869 C867 1.345 . S
C870 N865 1.360 . S
C870 C868 1.417 . S
C870 C874 1.432 . S
H871 C876 0.930 . S
N872 Tb834 2.600 . S
N872 C874 1.359 . S
N872 C875 1.327 . S
C873 H859 0.931 . S
C873 C875 1.392 . S
C873 C876 1.370 . S
C874 C870 1.432 . S
C874 N872 1.359 . S
C874 C877 1.414 . S
C875 H857 0.930 . S
C875 N872 1.327 . S
C875 C873 1.392 . S
C876 H871 0.930 . S
C876 C873 1.370 . S
C876 C877 1.385 . S
C877 C874 1.414 . S
C877 C876 1.385 . S
C877 C899 1.444 . S
O878 Tb834 2.546 . S
O878 C898 1.251 . S
O879 Tb834 2.610 . S
O879 Tb845 2.362 . S
O879 C890 1.283 . S
O880 Tb845 2.421 . S
O880 C897 1.262 . S
O881 Tb834 2.320 . S
O881 C897 1.260 . S
O882 Tb834 2.552 . S
O882 C890 1.243 . S
O883 Tb834 2.413 . S
O883 C898 1.256 . S
O884 Tb845 2.546 . S
O884 C909 1.251 . S
O885 Tb834 2.362 . S
O885 Tb845 2.610 . S
O885 C901 1.283 . S
O886 Tb834 2.421 . S
O886 C908 1.262 . S
O887 Tb845 2.320 . S
O887 C908 1.260 . S
O888 Tb845 2.552 . S
O888 C901 1.243 . S
O889 Tb845 2.413 . S
O889 C909 1.256 . S
C890 O879 1.283 . S
C890 O882 1.243 . S
C891 C893 1.382 . S
C891 C895 1.393 . S
C891 C898 1.500 . S
C892 C893 1.400 . S
C892 C894 1.384 . S
C893 C891 1.382 . S
C893 C892 1.400 . S
C893 H910 0.930 . S
C894 C892 1.384 . S
C894 C896 1.392 . S
C894 H911 0.931 . S
C895 C891 1.393 . S
C895 C896 1.401 . S
C895 H912 0.930 . S
C896 C894 1.392 . S
C896 C895 1.401 . S
C896 H913 0.930 . S
C897 O880 1.262 . S
C897 O881 1.260 . S
C898 Tb834 2.833 . S
C898 O878 1.251 . S
C898 O883 1.256 . S
C898 C891 1.500 . S
C899 H864 0.929 . S
C899 C877 1.444 . S
C899 C900 1.317 . S
C900 H862 0.930 . S
C900 C868 1.432 . S
C900 C899 1.317 . S
C901 O885 1.283 . S
C901 O888 1.243 . S
C902 C903 1.382 . S
C902 C906 1.393 . S
C902 C909 1.500 . S
C903 C902 1.382 . S
C903 C904 1.400 . S
C903 H914 0.930 . S
C904 C903 1.400 . S
C904 C905 1.384 . S
C905 C904 1.384 . S
C905 C907 1.392 . S
C905 H915 0.931 . S
C906 C902 1.393 . S
C906 C907 1.401 . S
C906 H916 0.930 . S
C907 C905 1.392 . S
C907 C906 1.401 . S
C907 H917 0.930 . S
C908 O886 1.262 . S
C908 O887 1.260 . S
C909 Tb845 2.833 . S
C909 O884 1.251 . S
C909 O889 1.256 . S
C909 C902 1.500 . S
H910 C893 0.930 . S
H911 C894 0.931 . S
H912 C895 0.930 . S
H913 C896 0.930 . S
H914 C903 0.930 . S
H915 C905 0.931 . S
H916 C906 0.930 . S
H917 C907 0.930 . S
H918 C930 0.930 . S
H919 C932 0.930 . S
H920 C933 0.930 . S
H921 C937 0.959 . S
H922 C937 0.959 . S
H923 C937 0.961 . S
H924 C938 0.960 . S
H925 C938 0.961 . S
H926 C938 0.959 . S
H927 C941 0.929 . S
H928 C942 0.931 . S
H929 C944 0.930 . S
C930 H918 0.930 . S
C930 C931 1.399 . S
C930 C935 1.399 . S
C931 C930 1.399 . S
C931 C932 1.376 . S
C932 H919 0.930 . S
C932 C931 1.376 . S
C932 C933 1.388 . S
C933 H920 0.930 . S
C933 C932 1.388 . S
C933 C934 1.390 . S
C934 C933 1.390 . S
C934 C935 1.394 . S
C934 C940 1.465 . S
C935 C930 1.399 . S
C935 C934 1.394 . S
C935 C936 1.516 . S
C936 C935 1.516 . S
C936 C937 1.502 . S
C936 C938 1.561 . S
C936 C939 1.526 . S
C937 H921 0.959 . S
C937 H922 0.959 . S
C937 H923 0.961 . S
C937 C936 1.502 . S
C938 H924 0.960 . S
C938 H925 0.961 . S
C938 H926 0.959 . S
C938 C936 1.561 . S
C939 C936 1.526 . S
C939 C940 1.396 . S
C939 C944 1.390 . S
C940 C934 1.465 . S
C940 C939 1.396 . S
C940 C941 1.399 . S
C941 H927 0.929 . S
C941 C940 1.399 . S
C941 C942 1.385 . S
C942 H928 0.931 . S
C942 C941 1.385 . S
C942 C943 1.389 . S
C943 C942 1.389 . S
C943 C944 1.387 . S
C944 H929 0.930 . S
C944 C939 1.390 . S
C944 C943 1.387 . S
H945 C957 0.930 . S
H946 C959 0.930 . S
H947 C960 0.930 . S
H948 C964 0.959 . S
H949 C964 0.959 . S
H950 C964 0.961 . S
H951 C965 0.960 . S
H952 C965 0.961 . S
H953 C965 0.959 . S
H954 C968 0.929 . S
H955 C969 0.899 1_556 S
H956 C971 0.930 . S
C957 H945 0.930 . S
C957 C958 1.399 . S
C957 C962 1.399 . S
C958 C957 1.399 . S
C958 C959 1.376 . S
C959 H946 0.930 . S
C959 C958 1.376 . S
C959 C960 1.388 . S
C960 H947 0.930 . S
C960 C959 1.388 . S
C960 C961 1.390 . S
C961 C960 1.390 . S
C961 C962 1.394 . S
C961 C967 1.465 . S
C962 C957 1.399 . S
C962 C961 1.394 . S
C962 C963 1.516 . S
C963 C962 1.516 . S
C963 C964 1.502 . S
C963 C965 1.561 . S
C963 C966 1.526 . S
C964 H948 0.959 . S
C964 H949 0.959 . S
C964 H950 0.961 . S
C964 C963 1.502 . S
C965 H951 0.960 . S
C965 H952 0.961 . S
C965 H953 0.959 . S
C965 C963 1.561 . S
C966 C963 1.526 . S
C966 C967 1.396 . S
C966 C971 1.390 . S
C967 C961 1.465 . S
C967 C966 1.396 . S
C967 C968 1.399 . S
C968 H954 0.929 . S
C968 C967 1.399 . S
C968 C969 1.385 . S
C969 H955 0.899 1_554 S
C969 C968 1.385 . S
C969 C970 1.389 . S
C970 C969 1.389 . S
C970 C971 1.387 . S
C971 H956 0.930 . S
C971 C966 1.390 . S
C971 C970 1.387 . S
H972 C984 0.930 . S
H973 C986 0.930 . S
H974 C987 0.930 . S
H975 C991 0.959 . S
H976 C991 0.959 . S
H977 C991 0.961 . S
H978 C992 0.960 . S
H979 C992 0.961 1_556 S
H980 C992 0.959 . S
H981 C995 0.929 . S
H982 C996 0.931 . S
H983 C998 0.930 . S
C984 H972 0.930 . S
C984 C985 1.399 . S
C984 C989 1.399 . S
C985 C984 1.399 . S
C985 C986 1.376 . S
C986 H973 0.930 . S
C986 C985 1.376 . S
C986 C987 1.388 . S
C987 H974 0.930 . S
C987 C986 1.388 . S
C987 C988 1.390 . S
C988 C987 1.390 . S
C988 C989 1.394 . S
C988 C994 1.465 . S
C989 C984 1.399 . S
C989 C988 1.394 . S
C989 C990 1.516 . S
C990 C989 1.516 . S
C990 C991 1.502 . S
C990 C992 1.561 . S
C990 C993 1.526 . S
C991 H975 0.959 . S
C991 H976 0.959 . S
C991 H977 0.961 . S
C991 C990 1.502 . S
C992 H978 0.960 . S
C992 H979 0.961 1_554 S
C992 H980 0.959 . S
C992 C990 1.561 . S
C993 C990 1.526 . S
C993 C994 1.396 . S
C993 C998 1.390 . S
C994 C988 1.465 . S
C994 C993 1.396 . S
C994 C995 1.399 . S
C995 H981 0.929 . S
C995 C994 1.399 . S
C995 C996 1.385 . S
C996 H982 0.931 . S
C996 C995 1.385 . S
C996 C997 1.389 . S
C997 C996 1.389 . S
C997 C998 1.387 . S
C998 H983 0.930 . S
C998 C993 1.390 . S
C998 C997 1.387 . S
H999 C1011 0.930 . S
H1000 C1013 0.930 . S
H1001 C1014 0.930 . S
H1002 C1018 0.959 . S
H1003 C1018 0.959 . S
H1004 C1018 0.961 . S
H1005 C1019 0.960 . S
H1006 C1019 0.961 . S
H1007 C1019 0.959 . S
H1008 C1022 0.929 . S
H1009 C1023 0.931 1_554 S
H1010 C1025 0.930 . S
C1011 H999 0.930 . S
C1011 C1012 1.399 . S
C1011 C1016 1.399 . S
C1012 C1011 1.399 . S
C1012 C1013 1.376 . S
C1013 H1000 0.930 . S
C1013 C1012 1.376 . S
C1013 C1014 1.388 . S
C1014 H1001 0.930 . S
C1014 C1013 1.388 . S
C1014 C1015 1.390 . S
C1015 C1014 1.390 . S
C1015 C1016 1.394 . S
C1015 C1021 1.465 . S
C1016 C1011 1.399 . S
C1016 C1015 1.394 . S
C1016 C1017 1.516 . S
C1017 C1016 1.516 . S
C1017 C1018 1.502 . S
C1017 C1019 1.561 . S
C1017 C1020 1.526 . S
C1018 H1002 0.959 . S
C1018 H1003 0.959 . S
C1018 H1004 0.961 . S
C1018 C1017 1.502 . S
C1019 H1005 0.960 . S
C1019 H1006 0.961 . S
C1019 H1007 0.959 . S
C1019 C1017 1.561 . S
C1020 C1017 1.526 . S
C1020 C1021 1.396 . S
C1020 C1025 1.390 . S
C1021 C1015 1.465 . S
C1021 C1020 1.396 . S
C1021 C1022 1.399 . S
C1022 H1008 0.929 . S
C1022 C1021 1.399 . S
C1022 C1023 1.385 . S
C1023 H1009 0.931 1_556 S
C1023 C1022 1.385 . S
C1023 C1024 1.389 . S
C1024 C1023 1.389 . S
C1024 C1025 1.387 . S
C1025 H1010 0.930 . S
C1025 C1020 1.390 . S
C1025 C1024 1.387 . S
H1026 C1038 0.930 . S
H1027 C1040 0.930 . S
H1028 C1041 0.930 . S
H1029 C1045 0.959 . S
H1030 C1045 0.959 . S
H1031 C1045 0.961 . S
H1032 C1046 0.960 . S
H1033 C1046 0.961 . S
H1034 C1046 0.959 . S
H1035 C1049 0.929 1_554 S
H1036 C1050 0.931 1_554 S
H1037 C1052 0.930 . S
C1038 H1026 0.930 . S
C1038 C1039 1.399 . S
C1038 C1043 1.399 . S
C1039 C1038 1.399 . S
C1039 C1040 1.376 . S
C1040 H1027 0.930 . S
C1040 C1039 1.376 . S
C1040 C1041 1.388 . S
C1041 H1028 0.930 . S
C1041 C1040 1.388 . S
C1041 C1042 1.390 . S
C1042 C1041 1.390 . S
C1042 C1043 1.394 . S
C1042 C1048 1.465 . S
C1043 C1038 1.399 . S
C1043 C1042 1.394 . S
C1043 C1044 1.516 . S
C1044 C1043 1.516 . S
C1044 C1045 1.502 . S
C1044 C1046 1.561 . S
C1044 C1047 1.526 . S
C1045 H1029 0.959 . S
C1045 H1030 0.959 . S
C1045 H1031 0.961 . S
C1045 C1044 1.502 . S
C1046 H1032 0.960 . S
C1046 H1033 0.961 . S
C1046 H1034 0.959 . S
C1046 C1044 1.561 . S
C1047 C1044 1.526 . S
C1047 C1048 1.396 . S
C1047 C1052 1.390 . S
C1048 C1042 1.465 . S
C1048 C1047 1.396 . S
C1048 C1049 1.399 . S
C1049 H1035 0.929 1_556 S
C1049 C1048 1.399 . S
C1049 C1050 1.385 . S
C1050 H1036 0.931 1_556 S
C1050 C1049 1.385 . S
C1050 C1051 1.389 . S
C1051 C1050 1.389 . S
C1051 C1052 1.387 . S
C1052 H1037 0.930 . S
C1052 C1047 1.390 . S
C1052 C1051 1.387 . S
H1053 C1065 0.930 . S
H1054 C1067 0.930 . S
H1055 C1068 0.930 . S
H1056 C1072 0.959 . S
H1057 C1072 0.959 . S
H1058 C1072 0.961 . S
H1059 C1073 0.960 . S
H1060 C1073 0.961 . S
H1061 C1073 0.959 . S
H1062 C1076 0.929 . S
H1063 C1077 0.931 . S
H1064 C1079 0.930 . S
C1065 H1053 0.930 . S
C1065 C1066 1.399 . S
C1065 C1070 1.399 . S
C1066 C1065 1.399 . S
C1066 C1067 1.376 . S
C1067 H1054 0.930 . S
C1067 C1066 1.376 . S
C1067 C1068 1.388 . S
C1068 H1055 0.930 . S
C1068 C1067 1.388 . S
C1068 C1069 1.390 . S
C1069 C1068 1.390 . S
C1069 C1070 1.394 . S
C1069 C1075 1.465 . S
C1070 C1065 1.399 . S
C1070 C1069 1.394 . S
C1070 C1071 1.516 . S
C1071 C1070 1.516 . S
C1071 C1072 1.502 . S
C1071 C1073 1.561 . S
C1071 C1074 1.526 . S
C1072 H1056 0.959 . S
C1072 H1057 0.959 . S
C1072 H1058 0.961 . S
C1072 C1071 1.502 . S
C1073 H1059 0.960 . S
C1073 H1060 0.961 . S
C1073 H1061 0.959 . S
C1073 C1071 1.561 . S
C1074 C1071 1.526 . S
C1074 C1075 1.396 . S
C1074 C1079 1.390 . S
C1075 C1069 1.465 . S
C1075 C1074 1.396 . S
C1075 C1076 1.399 . S
C1076 H1062 0.929 . S
C1076 C1075 1.399 . S
C1076 C1077 1.385 . S
C1077 H1063 0.931 . S
C1077 C1076 1.385 . S
C1077 C1078 1.389 . S
C1078 C1077 1.389 . S
C1078 C1079 1.387 . S
C1079 H1064 0.930 . S
C1079 C1074 1.390 . S
C1079 C1078 1.387 . S
H1080 C1092 0.930 . S
H1081 C1094 0.930 . S
H1082 C1095 0.930 . S
H1083 C1099 0.959 . S
H1084 C1099 0.959 . S
H1085 C1099 0.961 . S
H1086 C1100 0.960 . S
H1087 C1100 0.961 . S
H1088 C1100 0.959 . S
H1089 C1103 0.929 1_554 S
H1090 C1104 0.909 1_554 S
H1091 C1106 0.930 . S
C1092 H1080 0.930 . S
C1092 C1093 1.399 . S
C1092 C1097 1.399 . S
C1093 C1092 1.399 . S
C1093 C1094 1.376 . S
C1094 H1081 0.930 . S
C1094 C1093 1.376 . S
C1094 C1095 1.388 . S
C1095 H1082 0.930 . S
C1095 C1094 1.388 . S
C1095 C1096 1.390 . S
C1096 C1095 1.390 . S
C1096 C1097 1.394 . S
C1096 C1102 1.465 . S
C1097 C1092 1.399 . S
C1097 C1096 1.394 . S
C1097 C1098 1.516 . S
C1098 C1097 1.516 . S
C1098 C1099 1.502 . S
C1098 C1100 1.561 . S
C1098 C1101 1.526 . S
C1099 H1083 0.959 . S
C1099 H1084 0.959 . S
C1099 H1085 0.961 . S
C1099 C1098 1.502 . S
C1100 H1086 0.960 . S
C1100 H1087 0.961 . S
C1100 H1088 0.959 . S
C1100 C1098 1.561 . S
C1101 C1098 1.526 . S
C1101 C1102 1.396 . S
C1101 C1106 1.390 . S
C1102 C1096 1.465 . S
C1102 C1101 1.396 . S
C1102 C1103 1.399 . S
C1103 H1089 0.929 1_556 S
C1103 C1102 1.399 . S
C1103 C1104 1.390 . S
C1104 H1090 0.909 1_556 S
C1104 C1103 1.390 . S
C1104 C1105 1.406 . S
C1105 C1104 1.406 . S
C1105 C1106 1.387 . S
C1106 H1091 0.930 . S
C1106 C1101 1.390 . S
C1106 C1105 1.387 . S
H1107 C1119 0.930 . S
H1108 C1121 0.930 . S
H1109 C1122 0.930 . S
H1110 C1126 0.959 . S
H1111 C1126 0.959 . S
H1112 C1126 0.961 . S
H1113 C1127 0.965 . S
H1114 C1127 0.961 1_554 S
H1115 C1127 0.959 . S
H1116 C1130 0.929 . S
H1117 C1131 0.931 . S
H1118 C1133 0.930 . S
C1119 H1107 0.930 . S
C1119 C1120 1.399 . S
C1119 C1124 1.399 . S
C1120 C1119 1.399 . S
C1120 C1121 1.376 . S
C1121 H1108 0.930 . S
C1121 C1120 1.376 . S
C1121 C1122 1.388 . S
C1122 H1109 0.930 . S
C1122 C1121 1.388 . S
C1122 C1123 1.390 . S
C1123 C1122 1.390 . S
C1123 C1124 1.394 . S
C1123 C1129 1.465 . S
C1124 C1119 1.399 . S
C1124 C1123 1.394 . S
C1124 C1125 1.516 . S
C1125 C1124 1.516 . S
C1125 C1126 1.502 . S
C1125 C1127 1.561 . S
C1125 C1128 1.526 . S
C1126 H1110 0.959 . S
C1126 H1111 0.959 . S
C1126 H1112 0.961 . S
C1126 C1125 1.502 . S
C1127 H1113 0.965 . S
C1127 H1114 0.961 1_556 S
C1127 H1115 0.959 . S
C1127 C1125 1.561 . S
C1128 C1125 1.526 . S
C1128 C1129 1.396 . S
C1128 C1133 1.390 . S
C1129 C1123 1.465 . S
C1129 C1128 1.396 . S
C1129 C1130 1.399 . S
C1130 H1116 0.929 . S
C1130 C1129 1.399 . S
C1130 C1131 1.385 . S
C1131 H1117 0.931 . S
C1131 C1130 1.385 . S
C1131 C1132 1.389 . S
C1132 C1131 1.389 . S
C1132 C1133 1.387 . S
C1133 H1118 0.930 . S
C1133 C1128 1.390 . S
C1133 C1132 1.387 . S
H1134 C1146 0.930 . S
H1135 C1148 0.930 . S
H1136 C1149 0.930 . S
H1137 C1153 0.959 . S
H1138 C1153 0.959 . S
H1139 C1153 0.961 . S
H1140 C1154 0.960 . S
H1141 C1154 0.961 . S
H1142 C1154 0.959 . S
H1143 C1157 0.929 . S
H1144 C1158 0.931 1_554 S
H1145 C1160 0.930 . S
C1146 H1134 0.930 . S
C1146 C1147 1.399 . S
C1146 C1151 1.399 . S
C1147 C1146 1.399 . S
C1147 C1148 1.376 . S
C1148 H1135 0.930 . S
C1148 C1147 1.376 . S
C1148 C1149 1.388 . S
C1149 H1136 0.930 . S
C1149 C1148 1.388 . S
C1149 C1150 1.390 . S
C1150 C1149 1.390 . S
C1150 C1151 1.394 . S
C1150 C1156 1.465 . S
C1151 C1146 1.399 . S
C1151 C1150 1.394 . S
C1151 C1152 1.516 . S
C1152 C1151 1.516 . S
C1152 C1153 1.502 . S
C1152 C1154 1.561 . S
C1152 C1155 1.526 . S
C1153 H1137 0.959 . S
C1153 H1138 0.959 . S
C1153 H1139 0.961 . S
C1153 C1152 1.502 . S
C1154 H1140 0.960 . S
C1154 H1141 0.961 . S
C1154 H1142 0.959 . S
C1154 C1152 1.561 . S
C1155 C1152 1.526 . S
C1155 C1156 1.396 . S
C1155 C1160 1.390 . S
C1156 C1150 1.465 . S
C1156 C1155 1.396 . S
C1156 C1157 1.399 . S
C1157 H1143 0.929 . S
C1157 C1156 1.399 . S
C1157 C1158 1.385 . S
C1158 H1144 0.931 1_556 S
C1158 C1157 1.385 . S
C1158 C1159 1.389 . S
C1159 C1158 1.389 . S
C1159 C1160 1.387 . S
C1160 H1145 0.930 . S
C1160 C1155 1.390 . S
C1160 C1159 1.387 . S
H1161 C1173 0.930 . S
H1162 C1175 0.930 . S
H1163 C1176 0.930 . S
H1164 C1180 0.959 . S
H1165 C1180 0.959 . S
H1166 C1180 0.961 . S
H1167 C1181 0.960 . S
H1168 C1181 0.951 1_556 S
H1169 C1181 0.959 . S
H1170 C1184 0.929 . S
H1171 C1185 0.931 . S
H1172 C1187 0.930 . S
C1173 H1161 0.930 . S
C1173 C1174 1.399 . S
C1173 C1178 1.399 . S
C1174 C1173 1.399 . S
C1174 C1175 1.376 . S
C1175 H1162 0.930 . S
C1175 C1174 1.376 . S
C1175 C1176 1.388 . S
C1176 H1163 0.930 . S
C1176 C1175 1.388 . S
C1176 C1177 1.390 . S
C1177 C1176 1.390 . S
C1177 C1178 1.394 . S
C1177 C1183 1.465 . S
C1178 C1173 1.399 . S
C1178 C1177 1.394 . S
C1178 C1179 1.516 . S
C1179 C1178 1.516 . S
C1179 C1180 1.502 . S
C1179 C1181 1.561 . S
C1179 C1182 1.526 . S
C1180 H1164 0.959 . S
C1180 H1165 0.959 . S
C1180 H1166 0.961 . S
C1180 C1179 1.502 . S
C1181 H1167 0.960 . S
C1181 H1168 0.951 1_554 S
C1181 H1169 0.959 . S
C1181 C1179 1.561 . S
C1182 C1179 1.526 . S
C1182 C1183 1.396 . S
C1182 C1187 1.390 . S
C1183 C1177 1.465 . S
C1183 C1182 1.396 . S
C1183 C1184 1.399 . S
C1184 H1170 0.929 . S
C1184 C1183 1.399 . S
C1184 C1185 1.385 . S
C1185 H1171 0.931 . S
C1185 C1184 1.385 . S
C1185 C1186 1.389 . S
C1186 C1185 1.389 . S
C1186 C1187 1.387 . S
C1187 H1172 0.930 . S
C1187 C1182 1.390 . S
C1187 C1186 1.387 . S
H1188 C1200 0.930 . S
H1189 C1202 0.930 . S
H1190 C1203 0.930 . S
H1191 C1207 0.959 . S
H1192 C1207 0.959 . S
H1193 C1207 0.961 . S
H1194 C1208 0.960 . S
H1195 C1208 0.961 . S
H1196 C1208 0.959 . S
H1197 C1211 0.929 . S
H1198 C1212 0.931 . S
H1199 C1214 0.930 . S
C1200 H1188 0.930 . S
C1200 C1201 1.399 . S
C1200 C1205 1.399 . S
C1201 C1200 1.399 . S
C1201 C1202 1.376 . S
C1202 H1189 0.930 . S
C1202 C1201 1.376 . S
C1202 C1203 1.388 . S
C1203 H1190 0.930 . S
C1203 C1202 1.388 . S
C1203 C1204 1.390 . S
C1204 C1203 1.390 . S
C1204 C1205 1.394 . S
C1204 C1210 1.465 . S
C1205 C1200 1.399 . S
C1205 C1204 1.394 . S
C1205 C1206 1.516 . S
C1206 C1205 1.516 . S
C1206 C1207 1.502 . S
C1206 C1208 1.561 . S
C1206 C1209 1.526 . S
C1207 H1191 0.959 . S
C1207 H1192 0.959 . S
C1207 H1193 0.961 . S
C1207 C1206 1.502 . S
C1208 H1194 0.960 . S
C1208 H1195 0.961 . S
C1208 H1196 0.959 . S
C1208 C1206 1.561 . S
C1209 C1206 1.526 . S
C1209 C1210 1.396 . S
C1209 C1214 1.390 . S
C1210 C1204 1.465 . S
C1210 C1209 1.396 . S
C1210 C1211 1.399 . S
C1211 H1197 0.929 . S
C1211 C1210 1.399 . S
C1211 C1212 1.385 . S
C1212 H1198 0.931 . S
C1212 C1211 1.385 . S
C1212 C1213 1.389 . S
C1213 C1212 1.389 . S
C1213 C1214 1.387 . S
C1214 H1199 0.930 . S
C1214 C1209 1.390 . S
C1214 C1213 1.387 . S
H1215 C1227 0.930 . S
H1216 C1229 0.930 . S
H1217 C1230 0.930 . S
H1218 C1234 0.959 . S
H1219 C1234 0.959 . S
H1220 C1234 0.961 . S
H1221 C1235 0.960 . S
H1222 C1235 0.961 . S
H1223 C1235 0.959 . S
H1224 C1238 0.929 . S
H1225 C1239 0.931 1_556 S
H1226 C1241 0.930 . S
C1227 H1215 0.930 . S
C1227 C1228 1.399 . S
C1227 C1232 1.399 . S
C1228 C1227 1.399 . S
C1228 C1229 1.376 . S
C1229 H1216 0.930 . S
C1229 C1228 1.376 . S
C1229 C1230 1.388 . S
C1230 H1217 0.930 . S
C1230 C1229 1.388 . S
C1230 C1231 1.390 . S
C1231 C1230 1.390 . S
C1231 C1232 1.394 . S
C1231 C1237 1.465 . S
C1232 C1227 1.399 . S
C1232 C1231 1.394 . S
C1232 C1233 1.516 . S
C1233 C1232 1.516 . S
C1233 C1234 1.502 . S
C1233 C1235 1.561 . S
C1233 C1236 1.526 . S
C1234 H1218 0.959 . S
C1234 H1219 0.959 . S
C1234 H1220 0.961 . S
C1234 C1233 1.502 . S
C1235 H1221 0.960 . S
C1235 H1222 0.961 . S
C1235 H1223 0.959 . S
C1235 C1233 1.561 . S
C1236 C1233 1.526 . S
C1236 C1237 1.396 . S
C1236 C1241 1.390 . S
C1237 C1231 1.465 . S
C1237 C1236 1.396 . S
C1237 C1238 1.399 . S
C1238 H1224 0.929 . S
C1238 C1237 1.399 . S
C1238 C1239 1.385 . S
C1239 H1225 0.931 1_554 S
C1239 C1238 1.385 . S
C1239 C1240 1.389 . S
C1240 C1239 1.389 . S
C1240 C1241 1.387 . S
C1241 H1226 0.930 . S
C1241 C1236 1.390 . S
C1241 C1240 1.387 . S
H1242 C1254 0.930 . S
H1243 C1256 0.930 . S
H1244 C1257 0.930 . S
H1245 C1261 0.959 . S
H1246 C1261 0.959 . S
H1247 C1261 0.961 . S
H1248 C1262 0.960 . S
H1249 C1262 0.961 . S
H1250 C1262 0.959 . S
H1251 C1265 0.929 . S
H1252 C1266 0.931 . S
H1253 C1268 0.930 . S
C1254 H1242 0.930 . S
C1254 C1255 1.399 . S
C1254 C1259 1.399 . S
C1255 C1254 1.399 . S
C1255 C1256 1.376 . S
C1256 H1243 0.930 . S
C1256 C1255 1.376 . S
C1256 C1257 1.388 . S
C1257 H1244 0.930 . S
C1257 C1256 1.388 . S
C1257 C1258 1.390 . S
C1258 C1257 1.390 . S
C1258 C1259 1.394 . S
C1258 C1264 1.465 1_655 S
C1259 C1254 1.399 . S
C1259 C1258 1.394 . S
C1259 C1260 1.516 1_655 S
C1260 C1259 1.516 1_455 S
C1260 C1261 1.502 . S
C1260 C1262 1.561 . S
C1260 C1263 1.526 . S
C1261 H1245 0.959 . S
C1261 H1246 0.959 . S
C1261 H1247 0.961 . S
C1261 C1260 1.502 . S
C1262 H1248 0.960 . S
C1262 H1249 0.961 . S
C1262 H1250 0.959 . S
C1262 C1260 1.561 . S
C1263 C1260 1.526 . S
C1263 C1264 1.396 . S
C1263 C1268 1.390 . S
C1264 C1258 1.465 1_455 S
C1264 C1263 1.396 . S
C1264 C1265 1.399 . S
C1265 H1251 0.929 . S
C1265 C1264 1.399 . S
C1265 C1266 1.385 . S
C1266 H1252 0.931 . S
C1266 C1265 1.385 . S
C1266 C1267 1.389 . S
C1267 C1266 1.389 . S
C1267 C1268 1.387 . S
C1268 H1253 0.930 . S
C1268 C1263 1.390 . S
C1268 C1267 1.387 . S
H1269 C1281 0.930 . S
H1270 C1283 0.930 . S
H1271 C1284 0.930 . S
H1272 C1288 0.959 . S
H1273 C1288 0.959 . S
H1274 C1288 0.961 . S
H1275 C1289 0.960 . S
H1276 C1289 0.961 . S
H1277 C1289 0.959 . S
H1278 C1292 0.929 . S
H1279 C1293 0.931 . S
H1280 C1295 0.930 . S
C1281 H1269 0.930 . S
C1281 C1282 1.399 . S
C1281 C1286 1.399 . S
C1282 C1281 1.399 . S
C1282 C1283 1.376 . S
C1283 H1270 0.930 . S
C1283 C1282 1.376 . S
C1283 C1284 1.388 . S
C1284 H1271 0.930 . S
C1284 C1283 1.388 . S
C1284 C1285 1.390 . S
C1285 C1284 1.390 . S
C1285 C1286 1.394 . S
C1285 C1291 1.465 . S
C1286 C1281 1.399 . S
C1286 C1285 1.394 . S
C1286 C1287 1.516 . S
C1287 C1286 1.516 . S
C1287 C1288 1.502 . S
C1287 C1289 1.561 . S
C1287 C1290 1.526 . S
C1288 H1272 0.959 . S
C1288 H1273 0.959 . S
C1288 H1274 0.961 . S
C1288 C1287 1.502 . S
C1289 H1275 0.960 . S
C1289 H1276 0.961 . S
C1289 H1277 0.959 . S
C1289 C1287 1.561 . S
C1290 C1287 1.526 . S
C1290 C1291 1.396 . S
C1290 C1295 1.390 . S
C1291 C1285 1.465 . S
C1291 C1290 1.396 . S
C1291 C1292 1.399 . S
C1292 H1278 0.929 . S
C1292 C1291 1.399 . S
C1292 C1293 1.385 . S
C1293 H1279 0.931 . S
C1293 C1292 1.385 . S
C1293 C1294 1.389 . S
C1294 C1293 1.389 . S
C1294 C1295 1.387 . S
C1295 H1280 0.930 . S
C1295 C1290 1.390 . S
C1295 C1294 1.387 . S
H1296 C1308 0.930 . S
H1297 C1310 0.930 . S
H1298 C1311 0.930 . S
H1299 C1315 0.959 . S
H1300 C1315 0.959 . S
H1301 C1315 0.961 1_545 S
H1302 C1316 0.960 . S
H1303 C1316 0.961 . S
H1304 C1316 0.959 . S
H1305 C1319 0.929 . S
H1306 C1320 0.931 . S
H1307 C1322 0.930 . S
C1308 H1296 0.930 . S
C1308 C1309 1.399 . S
C1308 C1313 1.399 . S
C1309 C1308 1.399 . S
C1309 C1310 1.376 . S
C1310 H1297 0.930 . S
C1310 C1309 1.376 . S
C1310 C1311 1.388 . S
C1311 H1298 0.930 . S
C1311 C1310 1.388 . S
C1311 C1312 1.390 . S
C1312 C1311 1.390 . S
C1312 C1313 1.394 . S
C1312 C1318 1.465 1_545 S
C1313 C1308 1.399 . S
C1313 C1312 1.394 . S
C1313 C1314 1.516 1_545 S
C1314 C1313 1.516 1_565 S
C1314 C1315 1.502 . S
C1314 C1316 1.561 . S
C1314 C1317 1.526 . S
C1315 H1299 0.959 . S
C1315 H1300 0.959 . S
C1315 H1301 0.961 1_565 S
C1315 C1314 1.502 . S
C1316 H1302 0.960 . S
C1316 H1303 0.961 . S
C1316 H1304 0.959 . S
C1316 C1314 1.561 . S
C1317 C1314 1.526 . S
C1317 C1318 1.396 . S
C1317 C1322 1.390 . S
C1318 C1312 1.465 1_565 S
C1318 C1317 1.396 . S
C1318 C1319 1.399 . S
C1319 H1305 0.929 . S
C1319 C1318 1.399 . S
C1319 C1320 1.385 . S
C1320 H1306 0.931 . S
C1320 C1319 1.385 . S
C1320 C1321 1.389 . S
C1321 C1320 1.389 . S
C1321 C1322 1.387 . S
C1322 H1307 0.930 . S
C1322 C1317 1.390 . S
C1322 C1321 1.387 . S
H1323 C1335 0.930 . S
H1324 C1337 0.930 . S
H1325 C1338 0.930 . S
H1326 C1342 0.959 . S
H1327 C1342 0.959 . S
H1328 C1342 0.961 . S
H1329 C1343 0.960 . S
H1330 C1343 0.961 . S
H1331 C1343 0.959 . S
H1332 C1346 0.929 . S
H1333 C1347 0.931 . S
H1334 C1349 0.930 . S
C1335 H1323 0.930 . S
C1335 C1336 1.399 . S
C1335 C1340 1.399 . S
C1336 C1335 1.399 . S
C1336 C1337 1.376 . S
C1337 H1324 0.930 . S
C1337 C1336 1.376 . S
C1337 C1338 1.388 . S
C1338 H1325 0.930 . S
C1338 C1337 1.388 . S
C1338 C1339 1.390 . S
C1339 C1338 1.390 . S
C1339 C1340 1.394 . S
C1339 C1345 1.465 . S
C1340 C1335 1.399 . S
C1340 C1339 1.394 . S
C1340 C1341 1.516 . S
C1341 C1340 1.516 . S
C1341 C1342 1.502 . S
C1341 C1343 1.561 . S
C1341 C1344 1.526 . S
C1342 H1326 0.959 . S
C1342 H1327 0.959 . S
C1342 H1328 0.961 . S
C1342 C1341 1.502 . S
C1343 H1329 0.960 . S
C1343 H1330 0.961 . S
C1343 H1331 0.959 . S
C1343 C1341 1.561 . S
C1344 C1341 1.526 . S
C1344 C1345 1.396 . S
C1344 C1349 1.390 . S
C1345 C1339 1.465 . S
C1345 C1344 1.396 . S
C1345 C1346 1.399 . S
C1346 H1332 0.929 . S
C1346 C1345 1.399 . S
C1346 C1347 1.385 . S
C1347 H1333 0.931 . S
C1347 C1346 1.385 . S
C1347 C1348 1.389 . S
C1348 C1347 1.389 . S
C1348 C1349 1.387 . S
C1349 H1334 0.930 . S
C1349 C1344 1.390 . S
C1349 C1348 1.387 . S
H1350 C1362 0.930 . S
H1351 C1364 0.930 . S
H1352 C1365 0.930 . S
H1353 C1369 0.959 . S
H1354 C1369 0.959 . S
H1355 C1369 0.961 . S
H1356 C1370 0.960 . S
H1357 C1370 0.961 . S
H1358 C1370 0.959 . S
H1359 C1373 0.929 . S
H1360 C1374 0.931 . S
H1361 C1376 0.930 . S
C1362 H1350 0.930 . S
C1362 C1363 1.399 . S
C1362 C1367 1.399 . S
C1363 C1362 1.399 . S
C1363 C1364 1.376 . S
C1364 H1351 0.930 . S
C1364 C1363 1.376 . S
C1364 C1365 1.388 . S
C1365 H1352 0.930 . S
C1365 C1364 1.388 . S
C1365 C1366 1.390 . S
C1366 C1365 1.390 . S
C1366 C1367 1.394 . S
C1366 C1372 1.465 . S
C1367 C1362 1.399 . S
C1367 C1366 1.394 . S
C1367 C1368 1.516 . S
C1368 C1367 1.516 . S
C1368 C1369 1.502 . S
C1368 C1370 1.561 . S
C1368 C1371 1.526 . S
C1369 H1353 0.959 . S
C1369 H1354 0.959 . S
C1369 H1355 0.961 . S
C1369 C1368 1.502 . S
C1370 H1356 0.960 . S
C1370 H1357 0.961 . S
C1370 H1358 0.959 . S
C1370 C1368 1.561 . S
C1371 C1368 1.526 . S
C1371 C1372 1.396 . S
C1371 C1376 1.390 . S
C1372 C1366 1.465 . S
C1372 C1371 1.396 . S
C1372 C1373 1.399 . S
C1373 H1359 0.929 . S
C1373 C1372 1.399 . S
C1373 C1374 1.385 . S
C1374 H1360 0.931 . S
C1374 C1373 1.385 . S
C1374 C1375 1.389 . S
C1375 C1374 1.389 . S
C1375 C1376 1.387 . S
C1376 H1361 0.930 . S
C1376 C1371 1.390 . S
C1376 C1375 1.387 . S
H1377 C1389 0.930 . S
H1378 C1391 0.930 . S
H1379 C1392 0.930 . S
H1380 C1396 0.959 . S
H1381 C1396 0.959 . S
H1382 C1396 0.961 . S
H1383 C1397 0.960 . S
H1384 C1397 0.961 . S
H1385 C1397 0.959 . S
H1386 C1400 0.929 . S
H1387 C1401 0.931 . S
H1388 C1403 0.930 . S
C1389 H1377 0.930 . S
C1389 C1390 1.399 . S
C1389 C1394 1.399 . S
C1390 C1389 1.399 . S
C1390 C1391 1.376 . S
C1391 H1378 0.930 . S
C1391 C1390 1.376 . S
C1391 C1392 1.388 . S
C1392 H1379 0.930 . S
C1392 C1391 1.388 . S
C1392 C1393 1.390 . S
C1393 C1392 1.390 . S
C1393 C1394 1.394 . S
C1393 C1399 1.465 . S
C1394 C1389 1.399 . S
C1394 C1393 1.394 . S
C1394 C1395 1.516 . S
C1395 C1394 1.516 . S
C1395 C1396 1.502 . S
C1395 C1397 1.561 . S
C1395 C1398 1.526 . S
C1396 H1380 0.959 . S
C1396 H1381 0.959 . S
C1396 H1382 0.961 . S
C1396 C1395 1.502 . S
C1397 H1383 0.960 . S
C1397 H1384 0.961 . S
C1397 H1385 0.959 . S
C1397 C1395 1.561 . S
C1398 C1395 1.526 . S
C1398 C1399 1.396 . S
C1398 C1403 1.390 . S
C1399 C1393 1.465 . S
C1399 C1398 1.396 . S
C1399 C1400 1.399 . S
C1400 H1386 0.929 . S
C1400 C1399 1.399 . S
C1400 C1401 1.385 . S
C1401 H1387 0.931 . S
C1401 C1400 1.385 . S
C1401 C1402 1.389 . S
C1402 C1401 1.389 . S
C1402 C1403 1.387 . S
C1403 H1388 0.930 . S
C1403 C1398 1.390 . S
C1403 C1402 1.387 . S
H1404 C1416 0.930 . S
H1405 C1418 0.930 . S
H1406 C1419 0.930 . S
H1407 C1423 0.959 . S
H1408 C1423 0.959 . S
H1409 C1423 0.961 . S
H1410 C1424 0.960 . S
H1411 C1424 0.961 . S
H1412 C1424 0.959 . S
H1413 C1427 0.929 . S
H1414 C1428 0.931 . S
H1415 C1430 0.930 . S
C1416 H1404 0.930 . S
C1416 C1417 1.399 . S
C1416 C1421 1.399 . S
C1417 C1416 1.399 . S
C1417 C1418 1.376 . S
C1418 H1405 0.930 . S
C1418 C1417 1.376 . S
C1418 C1419 1.388 . S
C1419 H1406 0.930 . S
C1419 C1418 1.388 . S
C1419 C1420 1.390 . S
C1420 C1419 1.390 . S
C1420 C1421 1.394 . S
C1420 C1426 1.465 . S
C1421 C1416 1.399 . S
C1421 C1420 1.394 . S
C1421 C1422 1.516 . S
C1422 C1421 1.516 . S
C1422 C1423 1.502 . S
C1422 C1424 1.561 . S
C1422 C1425 1.526 . S
C1423 H1407 0.959 . S
C1423 H1408 0.959 . S
C1423 H1409 0.961 . S
C1423 C1422 1.502 . S
C1424 H1410 0.960 . S
C1424 H1411 0.961 . S
C1424 H1412 0.959 . S
C1424 C1422 1.561 . S
C1425 C1422 1.526 . S
C1425 C1426 1.396 . S
C1425 C1430 1.390 . S
C1426 C1420 1.465 . S
C1426 C1425 1.396 . S
C1426 C1427 1.399 . S
C1427 H1413 0.929 . S
C1427 C1426 1.399 . S
C1427 C1428 1.385 . S
C1428 H1414 0.931 . S
C1428 C1427 1.385 . S
C1428 C1429 1.389 . S
C1429 C1428 1.389 . S
C1429 C1430 1.387 . S
C1430 H1415 0.930 . S
C1430 C1425 1.390 . S
C1430 C1429 1.387 . S
H1431 C1443 0.930 . S
H1432 C1445 0.930 . S
H1433 C1446 0.930 . S
H1434 C1450 0.959 . S
H1435 C1450 0.959 . S
H1436 C1450 0.961 . S
H1437 C1451 0.960 . S
H1438 C1451 0.961 . S
H1439 C1451 0.959 . S
H1440 C1454 0.929 . S
H1441 C1455 0.931 . S
H1442 C1457 0.930 . S
C1443 H1431 0.930 . S
C1443 C1444 1.399 . S
C1443 C1448 1.399 . S
C1444 C1443 1.399 . S
C1444 C1445 1.376 . S
C1445 H1432 0.930 . S
C1445 C1444 1.376 . S
C1445 C1446 1.388 . S
C1446 H1433 0.930 . S
C1446 C1445 1.388 . S
C1446 C1447 1.390 . S
C1447 C1446 1.390 . S
C1447 C1448 1.394 . S
C1447 C1453 1.465 . S
C1448 C1443 1.399 . S
C1448 C1447 1.394 . S
C1448 C1449 1.516 . S
C1449 C1448 1.516 . S
C1449 C1450 1.502 . S
C1449 C1451 1.561 . S
C1449 C1452 1.526 . S
C1450 H1434 0.959 . S
C1450 H1435 0.959 . S
C1450 H1436 0.961 . S
C1450 C1449 1.502 . S
C1451 H1437 0.960 . S
C1451 H1438 0.961 . S
C1451 H1439 0.959 . S
C1451 C1449 1.561 . S
C1452 C1449 1.526 . S
C1452 C1453 1.396 . S
C1452 C1457 1.390 . S
C1453 C1447 1.465 . S
C1453 C1452 1.396 . S
C1453 C1454 1.399 . S
C1454 H1440 0.929 . S
C1454 C1453 1.399 . S
C1454 C1455 1.385 . S
C1455 H1441 0.931 . S
C1455 C1454 1.385 . S
C1455 C1456 1.389 . S
C1456 C1455 1.389 . S
C1456 C1457 1.387 . S
C1457 H1442 0.930 . S
C1457 C1452 1.390 . S
C1457 C1456 1.387 . S
H1458 C1470 0.930 . S
H1459 C1472 0.930 . S
H1460 C1473 0.930 . S
H1461 C1477 0.959 . S
H1462 C1477 0.959 . S
H1463 C1477 0.961 . S
H1464 C1478 0.960 . S
H1465 C1478 0.961 . S
H1466 C1478 0.959 . S
H1467 C1481 0.929 . S
H1468 C1482 0.931 . S
H1469 C1484 0.930 . S
C1470 H1458 0.930 . S
C1470 C1471 1.399 . S
C1470 C1475 1.399 . S
C1471 C1470 1.399 . S
C1471 C1472 1.376 . S
C1472 H1459 0.930 . S
C1472 C1471 1.376 . S
C1472 C1473 1.388 . S
C1473 H1460 0.930 . S
C1473 C1472 1.388 . S
C1473 C1474 1.390 . S
C1474 C1473 1.390 . S
C1474 C1475 1.394 . S
C1474 C1480 1.465 . S
C1475 C1470 1.399 . S
C1475 C1474 1.394 . S
C1475 C1476 1.516 . S
C1476 C1475 1.516 . S
C1476 C1477 1.502 . S
C1476 C1478 1.561 . S
C1476 C1479 1.526 . S
C1477 H1461 0.959 . S
C1477 H1462 0.959 . S
C1477 H1463 0.961 . S
C1477 C1476 1.502 . S
C1478 H1464 0.960 . S
C1478 H1465 0.961 . S
C1478 H1466 0.959 . S
C1478 C1476 1.561 . S
C1479 C1476 1.526 . S
C1479 C1480 1.396 . S
C1479 C1484 1.390 . S
C1480 C1474 1.465 . S
C1480 C1479 1.396 . S
C1480 C1481 1.399 . S
C1481 H1467 0.929 . S
C1481 C1480 1.399 . S
C1481 C1482 1.385 . S
C1482 H1468 0.931 . S
C1482 C1481 1.385 . S
C1482 C1483 1.389 . S
C1483 C1482 1.389 . S
C1483 C1484 1.387 . S
C1484 H1469 0.930 . S
C1484 C1479 1.390 . S
C1484 C1483 1.387 . S
H1485 C1497 0.930 . S
H1486 C1499 0.930 . S
H1487 C1500 0.930 . S
H1488 C1504 0.959 . S
H1489 C1504 0.959 . S
H1490 C1504 0.961 . S
H1491 C1505 0.960 . S
H1492 C1505 0.961 . S
H1493 C1505 0.959 . S
H1494 C1508 0.929 . S
H1495 C1509 0.931 . S
H1496 C1511 0.930 . S
C1497 H1485 0.930 . S
C1497 C1498 1.399 . S
C1497 C1502 1.399 . S
C1498 C1497 1.399 . S
C1498 C1499 1.376 . S
C1499 H1486 0.930 . S
C1499 C1498 1.376 . S
C1499 C1500 1.388 . S
C1500 H1487 0.930 . S
C1500 C1499 1.388 . S
C1500 C1501 1.390 . S
C1501 C1500 1.390 . S
C1501 C1502 1.394 . S
C1501 C1507 1.465 1_545 S
C1502 C1497 1.399 . S
C1502 C1501 1.394 . S
C1502 C1503 1.516 1_545 S
C1503 C1502 1.516 1_565 S
C1503 C1504 1.502 . S
C1503 C1505 1.561 . S
C1503 C1506 1.526 . S
C1504 H1488 0.959 . S
C1504 H1489 0.959 . S
C1504 H1490 0.961 . S
C1504 C1503 1.502 . S
C1505 H1491 0.960 . S
C1505 H1492 0.961 . S
C1505 H1493 0.959 . S
C1505 C1503 1.561 . S
C1506 C1503 1.526 . S
C1506 C1507 1.396 . S
C1506 C1511 1.390 . S
C1507 C1501 1.465 1_565 S
C1507 C1506 1.396 . S
C1507 C1508 1.399 . S
C1508 H1494 0.929 . S
C1508 C1507 1.399 . S
C1508 C1509 1.385 . S
C1509 H1495 0.931 . S
C1509 C1508 1.385 . S
C1509 C1510 1.389 . S
C1510 C1509 1.389 . S
C1510 C1511 1.387 . S
C1511 H1496 0.930 . S
C1511 C1506 1.390 . S
C1511 C1510 1.387 . S
H1512 C1524 0.930 . S
H1513 C1526 0.930 . S
H1514 C1527 0.930 . S
H1515 C1531 0.959 . S
H1516 C1531 0.959 . S
H1517 C1531 0.961 . S
H1518 C1532 0.960 1_655 S
H1519 C1532 0.961 . S
H1520 C1532 0.959 1_655 S
H1521 C1535 0.929 . S
H1522 C1536 0.931 . S
H1523 C1538 0.930 . S
C1524 H1512 0.930 . S
C1524 C1525 1.399 . S
C1524 C1529 1.399 . S
C1525 C1524 1.399 . S
C1525 C1526 1.376 . S
C1526 H1513 0.930 . S
C1526 C1525 1.376 . S
C1526 C1527 1.388 . S
C1527 H1514 0.930 . S
C1527 C1526 1.388 . S
C1527 C1528 1.390 . S
C1528 C1527 1.390 . S
C1528 C1529 1.394 . S
C1528 C1534 1.465 1_655 S
C1529 C1524 1.399 . S
C1529 C1528 1.394 . S
C1529 C1530 1.516 1_655 S
C1530 C1529 1.516 1_455 S
C1530 C1531 1.502 . S
C1530 C1532 1.561 . S
C1530 C1533 1.526 . S
C1531 H1515 0.959 . S
C1531 H1516 0.959 . S
C1531 H1517 0.961 . S
C1531 C1530 1.502 . S
C1532 H1518 0.960 1_455 S
C1532 H1519 0.961 . S
C1532 H1520 0.959 1_455 S
C1532 C1530 1.561 . S
C1533 C1530 1.526 . S
C1533 C1534 1.396 . S
C1533 C1538 1.390 . S
C1534 C1528 1.465 1_455 S
C1534 C1533 1.396 . S
C1534 C1535 1.399 . S
C1535 H1521 0.929 . S
C1535 C1534 1.399 . S
C1535 C1536 1.385 . S
C1536 H1522 0.931 . S
C1536 C1535 1.385 . S
C1536 C1537 1.389 . S
C1537 C1536 1.389 . S
C1537 C1538 1.387 . S
C1538 H1523 0.930 . S
C1538 C1533 1.390 . S
C1538 C1537 1.387 . S
H1539 C1551 0.930 . S
H1540 C1553 0.930 . S
H1541 C1554 0.930 . S
H1542 C1558 0.959 . S
H1543 C1558 0.959 . S
H1544 C1558 0.961 . S
H1545 C1559 0.960 . S
H1546 C1559 0.961 . S
H1547 C1559 0.959 . S
H1548 C1562 0.929 . S
H1549 C1563 0.931 . S
H1550 C1565 0.930 . S
C1551 H1539 0.930 . S
C1551 C1552 1.399 . S
C1551 C1556 1.399 . S
C1552 C1551 1.399 . S
C1552 C1553 1.376 . S
C1553 H1540 0.930 . S
C1553 C1552 1.376 . S
C1553 C1554 1.388 . S
C1554 H1541 0.930 . S
C1554 C1553 1.388 . S
C1554 C1555 1.390 . S
C1555 C1554 1.390 . S
C1555 C1556 1.394 . S
C1555 C1561 1.465 . S
C1556 C1551 1.399 . S
C1556 C1555 1.394 . S
C1556 C1557 1.516 . S
C1557 C1556 1.516 . S
C1557 C1558 1.502 . S
C1557 C1559 1.561 . S
C1557 C1560 1.526 . S
C1558 H1542 0.959 . S
C1558 H1543 0.959 . S
C1558 H1544 0.961 . S
C1558 C1557 1.502 . S
C1559 H1545 0.960 . S
C1559 H1546 0.961 . S
C1559 H1547 0.959 . S
C1559 C1557 1.561 . S
C1560 C1557 1.526 . S
C1560 C1561 1.396 . S
C1560 C1565 1.390 . S
C1561 C1555 1.465 . S
C1561 C1560 1.396 . S
C1561 C1562 1.399 . S
C1562 H1548 0.929 . S
C1562 C1561 1.399 . S
C1562 C1563 1.385 . S
C1563 H1549 0.931 . S
C1563 C1562 1.385 . S
C1563 C1564 1.389 . S
C1564 C1563 1.389 . S
C1564 C1565 1.387 . S
C1565 H1550 0.930 . S
C1565 C1560 1.390 . S
C1565 C1564 1.387 . S
H1566 C1578 0.930 . S
H1567 C1580 0.930 . S
H1568 C1581 0.930 . S
H1569 C1585 0.959 . S
H1570 C1585 0.959 . S
H1571 C1585 0.961 . S
H1572 C1586 0.960 . S
H1573 C1586 0.961 . S
H1574 C1586 0.959 . S
H1575 C1589 0.929 . S
H1576 C1590 0.931 . S
H1577 C1592 0.930 . S
C1578 H1566 0.930 . S
C1578 C1579 1.399 . S
C1578 C1583 1.399 . S
C1579 C1578 1.399 . S
C1579 C1580 1.376 . S
C1580 H1567 0.930 . S
C1580 C1579 1.376 . S
C1580 C1581 1.388 . S
C1581 H1568 0.930 . S
C1581 C1580 1.388 . S
C1581 C1582 1.390 . S
C1582 C1581 1.390 . S
C1582 C1583 1.394 . S
C1582 C1588 1.465 . S
C1583 C1578 1.399 . S
C1583 C1582 1.394 . S
C1583 C1584 1.516 . S
C1584 C1583 1.516 . S
C1584 C1585 1.502 . S
C1584 C1586 1.561 . S
C1584 C1587 1.526 . S
C1585 H1569 0.959 . S
C1585 H1570 0.959 . S
C1585 H1571 0.961 . S
C1585 C1584 1.502 . S
C1586 H1572 0.960 . S
C1586 H1573 0.961 . S
C1586 H1574 0.959 . S
C1586 C1584 1.561 . S
C1587 C1584 1.526 . S
C1587 C1588 1.396 . S
C1587 C1592 1.390 . S
C1588 C1582 1.465 . S
C1588 C1587 1.396 . S
C1588 C1589 1.399 . S
C1589 H1575 0.929 . S
C1589 C1588 1.399 . S
C1589 C1590 1.385 . S
C1590 H1576 0.931 . S
C1590 C1589 1.385 . S
C1590 C1591 1.389 . S
C1591 C1590 1.389 . S
C1591 C1592 1.387 . S
C1592 H1577 0.930 . S
C1592 C1587 1.390 . S
C1592 C1591 1.387 . S
H1593 C1605 0.930 . S
H1594 C1607 0.930 . S
H1595 C1608 0.930 . S
H1596 C1612 0.959 . S
H1597 C1612 0.959 . S
H1598 C1612 0.961 . S
H1599 C1613 0.960 . S
H1600 C1613 0.961 . S
H1601 C1613 0.959 . S
H1602 C1616 0.929 . S
H1603 C1617 0.931 . S
H1604 C1619 0.930 . S
C1605 H1593 0.930 . S
C1605 C1606 1.399 . S
C1605 C1610 1.399 . S
C1606 C1605 1.399 . S
C1606 C1607 1.376 . S
C1607 H1594 0.930 . S
C1607 C1606 1.376 . S
C1607 C1608 1.388 . S
C1608 H1595 0.930 . S
C1608 C1607 1.388 . S
C1608 C1609 1.390 . S
C1609 C1608 1.390 . S
C1609 C1610 1.394 . S
C1609 C1615 1.465 . S
C1610 C1605 1.399 . S
C1610 C1609 1.394 . S
C1610 C1611 1.516 . S
C1611 C1610 1.516 . S
C1611 C1612 1.502 . S
C1611 C1613 1.561 . S
C1611 C1614 1.526 . S
C1612 H1596 0.959 . S
C1612 H1597 0.959 . S
C1612 H1598 0.961 . S
C1612 C1611 1.502 . S
C1613 H1599 0.960 . S
C1613 H1600 0.961 . S
C1613 H1601 0.959 . S
C1613 C1611 1.561 . S
C1614 C1611 1.526 . S
C1614 C1615 1.396 . S
C1614 C1619 1.390 . S
C1615 C1609 1.465 . S
C1615 C1614 1.396 . S
C1615 C1616 1.399 . S
C1616 H1602 0.929 . S
C1616 C1615 1.399 . S
C1616 C1617 1.385 . S
C1617 H1603 0.931 . S
C1617 C1616 1.385 . S
C1617 C1618 1.389 . S
C1618 C1617 1.389 . S
C1618 C1619 1.387 . S
C1619 H1604 0.930 . S
C1619 C1614 1.390 . S
C1619 C1618 1.387 . S
H1620 C1632 0.930 . S
H1621 C1634 0.930 . S
H1622 C1635 0.930 . S
H1623 C1639 0.959 . S
H1624 C1639 0.959 . S
H1625 C1639 0.961 . S
H1626 C1640 0.960 . S
H1627 C1640 0.961 . S
H1628 C1640 0.959 . S
H1629 C1643 0.929 . S
H1630 C1644 0.931 . S
H1631 C1646 0.930 . S
C1632 H1620 0.930 . S
C1632 C1633 1.399 . S
C1632 C1637 1.399 . S
C1633 C1632 1.399 . S
C1633 C1634 1.376 . S
C1634 H1621 0.930 . S
C1634 C1633 1.376 . S
C1634 C1635 1.388 . S
C1635 H1622 0.930 . S
C1635 C1634 1.388 . S
C1635 C1636 1.390 . S
C1636 C1635 1.390 . S
C1636 C1637 1.394 . S
C1636 C1642 1.465 . S
C1637 C1632 1.399 . S
C1637 C1636 1.394 . S
C1637 C1638 1.516 . S
C1638 C1637 1.516 . S
C1638 C1639 1.502 . S
C1638 C1640 1.561 . S
C1638 C1641 1.526 . S
C1639 H1623 0.959 . S
C1639 H1624 0.959 . S
C1639 H1625 0.961 . S
C1639 C1638 1.502 . S
C1640 H1626 0.960 . S
C1640 H1627 0.961 . S
C1640 H1628 0.959 . S
C1640 C1638 1.561 . S
C1641 C1638 1.526 . S
C1641 C1642 1.396 . S
C1641 C1646 1.390 . S
C1642 C1636 1.465 . S
C1642 C1641 1.396 . S
C1642 C1643 1.399 . S
C1643 H1629 0.929 . S
C1643 C1642 1.399 . S
C1643 C1644 1.385 . S
C1644 H1630 0.931 . S
C1644 C1643 1.385 . S
C1644 C1645 1.389 . S
C1645 C1644 1.389 . S
C1645 C1646 1.387 . S
C1646 H1631 0.930 . S
C1646 C1641 1.390 . S
C1646 C1645 1.387 . S
H1647 C1659 0.930 . S
H1648 C1661 0.930 . S
H1649 C1662 0.930 1_545 S
H1650 C1666 0.959 . S
H1651 C1666 0.959 . S
H1652 C1666 0.961 . S
H1653 C1667 0.960 . S
H1654 C1667 0.963 . S
H1655 C1667 0.962 . S
H1656 C1670 0.929 . S
H1657 C1671 0.931 . S
H1658 C1673 0.930 . S
C1659 H1647 0.930 . S
C1659 C1660 1.399 . S
C1659 C1664 1.399 . S
C1660 C1659 1.399 . S
C1660 C1661 1.376 . S
C1661 H1648 0.930 . S
C1661 C1660 1.376 . S
C1661 C1662 1.388 . S
C1662 H1649 0.930 1_565 S
C1662 C1661 1.388 . S
C1662 C1663 1.392 1_565 S
C1663 C1662 1.392 1_545 S
C1663 C1664 1.370 1_545 S
C1663 C1669 1.485 . S
C1664 C1659 1.399 . S
C1664 C1663 1.370 1_565 S
C1664 C1665 1.516 . S
C1665 C1664 1.516 . S
C1665 C1666 1.502 . S
C1665 C1667 1.561 . S
C1665 C1668 1.526 1_565 S
C1666 H1650 0.959 . S
C1666 H1651 0.959 . S
C1666 H1652 0.961 . S
C1666 C1665 1.502 . S
C1667 H1653 0.960 . S
C1667 H1654 0.963 . S
C1667 H1655 0.962 . S
C1667 C1665 1.561 . S
C1668 C1665 1.526 1_545 S
C1668 C1669 1.396 . S
C1668 C1673 1.390 . S
C1669 C1663 1.485 . S
C1669 C1668 1.396 . S
C1669 C1670 1.399 . S
C1670 H1656 0.929 . S
C1670 C1669 1.399 . S
C1670 C1671 1.385 . S
C1671 H1657 0.931 . S
C1671 C1670 1.385 . S
C1671 C1672 1.389 . S
C1672 C1671 1.389 . S
C1672 C1673 1.387 . S
C1673 H1658 0.930 . S
C1673 C1668 1.390 . S
C1673 C1672 1.387 . S
H1674 C1686 0.930 . S
H1675 C1688 0.930 . S
H1676 C1689 0.918 1_655 S
H1677 C1693 0.959 . S
H1678 C1693 0.959 . S
H1679 C1693 0.961 . S
H1680 C1694 0.960 . S
H1681 C1694 0.961 1_655 S
H1682 C1694 0.959 1_655 S
H1683 C1697 0.929 . S
H1684 C1698 0.931 . S
H1685 C1700 0.930 . S
C1686 H1674 0.930 . S
C1686 C1687 1.399 . S
C1686 C1691 1.399 . S
C1687 C1686 1.399 . S
C1687 C1688 1.376 . S
C1688 H1675 0.930 . S
C1688 C1687 1.376 . S
C1688 C1689 1.424 . S
C1689 H1676 0.918 1_455 S
C1689 C1688 1.424 . S
C1689 C1690 1.368 1_455 S
C1690 C1689 1.368 1_655 S
C1690 C1691 1.394 1_655 S
C1690 C1696 1.465 . S
C1691 C1686 1.399 . S
C1691 C1690 1.394 1_455 S
C1691 C1692 1.516 . S
C1692 C1691 1.516 . S
C1692 C1693 1.502 . S
C1692 C1694 1.561 . S
C1692 C1695 1.526 1_455 S
C1693 H1677 0.959 . S
C1693 H1678 0.959 . S
C1693 H1679 0.961 . S
C1693 C1692 1.502 . S
C1694 H1680 0.960 . S
C1694 H1681 0.961 1_455 S
C1694 H1682 0.959 1_455 S
C1694 C1692 1.561 . S
C1695 C1692 1.526 1_655 S
C1695 C1696 1.396 . S
C1695 C1700 1.390 . S
C1696 C1690 1.465 . S
C1696 C1695 1.396 . S
C1696 C1697 1.399 . S
C1697 H1683 0.929 . S
C1697 C1696 1.399 . S
C1697 C1698 1.385 . S
C1698 H1684 0.931 . S
C1698 C1697 1.385 . S
C1698 C1699 1.389 . S
C1699 C1698 1.389 . S
C1699 C1700 1.387 . S
C1700 H1685 0.930 . S
C1700 C1695 1.390 . S
C1700 C1699 1.387 . S
H1701 C1713 0.930 . S
H1702 C1715 0.930 . S
H1703 C1716 0.930 . S
H1704 C1720 0.959 . S
H1705 C1720 0.959 . S
H1706 C1720 0.961 . S
H1707 C1721 0.960 . S
H1708 C1721 0.961 . S
H1709 C1721 0.959 . S
H1710 C1724 0.929 . S
H1711 C1725 0.931 . S
H1712 C1727 0.930 . S
C1713 H1701 0.930 . S
C1713 C1714 1.399 . S
C1713 C1718 1.399 . S
C1714 C1713 1.399 . S
C1714 C1715 1.376 . S
C1715 H1702 0.930 . S
C1715 C1714 1.376 . S
C1715 C1716 1.388 . S
C1716 H1703 0.930 . S
C1716 C1715 1.388 . S
C1716 C1717 1.390 . S
C1717 C1716 1.390 . S
C1717 C1718 1.394 . S
C1717 C1723 1.465 . S
C1718 C1713 1.399 . S
C1718 C1717 1.394 . S
C1718 C1719 1.516 . S
C1719 C1718 1.516 . S
C1719 C1720 1.502 . S
C1719 C1721 1.561 . S
C1719 C1722 1.526 . S
C1720 H1704 0.959 . S
C1720 H1705 0.959 . S
C1720 H1706 0.961 . S
C1720 C1719 1.502 . S
C1721 H1707 0.960 . S
C1721 H1708 0.961 . S
C1721 H1709 0.959 . S
C1721 C1719 1.561 . S
C1722 C1719 1.526 . S
C1722 C1723 1.396 . S
C1722 C1727 1.390 . S
C1723 C1717 1.465 . S
C1723 C1722 1.396 . S
C1723 C1724 1.399 . S
C1724 H1710 0.929 . S
C1724 C1723 1.399 . S
C1724 C1725 1.385 . S
C1725 H1711 0.931 . S
C1725 C1724 1.385 . S
C1725 C1726 1.389 . S
C1726 C1725 1.389 . S
C1726 C1727 1.387 . S
C1727 H1712 0.930 . S
C1727 C1722 1.390 . S
C1727 C1726 1.387 . S
H1728 C1740 0.930 . S
H1729 C1742 0.930 . S
H1730 C1743 0.930 . S
H1731 C1747 0.959 . S
H1732 C1747 0.959 . S
H1733 C1747 0.961 . S
H1734 C1748 0.960 . S
H1735 C1748 0.961 . S
H1736 C1748 0.959 . S
H1737 C1751 0.929 . S
H1738 C1752 0.931 . S
H1739 C1754 0.930 . S
C1740 H1728 0.930 . S
C1740 C1741 1.399 . S
C1740 C1745 1.399 . S
C1741 C1740 1.399 . S
C1741 C1742 1.376 . S
C1742 H1729 0.930 . S
C1742 C1741 1.376 . S
C1742 C1743 1.388 . S
C1743 H1730 0.930 . S
C1743 C1742 1.388 . S
C1743 C1744 1.390 . S
C1744 C1743 1.390 . S
C1744 C1745 1.394 . S
C1744 C1750 1.465 1_455 S
C1745 C1740 1.399 . S
C1745 C1744 1.394 . S
C1745 C1746 1.516 1_455 S
C1746 C1745 1.516 1_655 S
C1746 C1747 1.502 . S
C1746 C1748 1.561 . S
C1746 C1749 1.526 . S
C1747 H1731 0.959 . S
C1747 H1732 0.959 . S
C1747 H1733 0.961 . S
C1747 C1746 1.502 . S
C1748 H1734 0.960 . S
C1748 H1735 0.961 . S
C1748 H1736 0.959 . S
C1748 C1746 1.561 . S
C1749 C1746 1.526 . S
C1749 C1750 1.396 . S
C1749 C1754 1.390 . S
C1750 C1744 1.465 1_655 S
C1750 C1749 1.396 . S
C1750 C1751 1.399 . S
C1751 H1737 0.929 . S
C1751 C1750 1.399 . S
C1751 C1752 1.385 . S
C1752 H1738 0.931 . S
C1752 C1751 1.385 . S
C1752 C1753 1.389 . S
C1753 C1752 1.389 . S
C1753 C1754 1.387 . S
C1754 H1739 0.930 . S
C1754 C1749 1.390 . S
C1754 C1753 1.387 . S
H1755 C1767 0.930 . S
H1756 C1769 0.930 . S
H1757 C1770 0.930 . S
H1758 C1774 0.959 . S
H1759 C1774 0.959 . S
H1760 C1774 0.961 . S
H1761 C1775 0.960 . S
H1762 C1775 0.961 . S
H1763 C1775 0.959 . S
H1764 C1778 0.929 . S
H1765 C1779 0.931 . S
H1766 C1781 0.930 . S
C1767 H1755 0.930 . S
C1767 C1768 1.399 . S
C1767 C1772 1.399 . S
C1768 C1767 1.399 . S
C1768 C1769 1.376 . S
C1769 H1756 0.930 . S
C1769 C1768 1.376 . S
C1769 C1770 1.388 . S
C1770 H1757 0.930 . S
C1770 C1769 1.388 . S
C1770 C1771 1.390 . S
C1771 C1770 1.390 . S
C1771 C1772 1.394 . S
C1771 C1777 1.465 . S
C1772 C1767 1.399 . S
C1772 C1771 1.394 . S
C1772 C1773 1.516 . S
C1773 C1772 1.516 . S
C1773 C1774 1.502 . S
C1773 C1775 1.561 . S
C1773 C1776 1.526 . S
C1774 H1758 0.959 . S
C1774 H1759 0.959 . S
C1774 H1760 0.961 . S
C1774 C1773 1.502 . S
C1775 H1761 0.960 . S
C1775 H1762 0.961 . S
C1775 H1763 0.959 . S
C1775 C1773 1.561 . S
C1776 C1773 1.526 . S
C1776 C1777 1.396 . S
C1776 C1781 1.390 . S
C1777 C1771 1.465 . S
C1777 C1776 1.396 . S
C1777 C1778 1.399 . S
C1778 H1764 0.929 . S
C1778 C1777 1.399 . S
C1778 C1779 1.385 . S
C1779 H1765 0.931 . S
C1779 C1778 1.385 . S
C1779 C1780 1.389 . S
C1780 C1779 1.389 . S
C1780 C1781 1.387 . S
C1781 H1766 0.930 . S
C1781 C1776 1.390 . S
C1781 C1780 1.387 . S
H1782 C1794 0.930 . S
H1783 C1796 0.930 . S
H1784 C1797 0.930 1_545 S
H1785 C1801 0.959 . S
H1786 C1801 0.959 . S
H1787 C1801 0.961 . S
H1788 C1802 0.960 . S
H1789 C1802 0.961 . S
H1790 C1802 0.959 . S
H1791 C1805 0.929 . S
H1792 C1806 0.931 . S
H1793 C1808 0.930 . S
C1794 H1782 0.930 . S
C1794 C1795 1.399 . S
C1794 C1799 1.399 . S
C1795 C1794 1.399 . S
C1795 C1796 1.376 . S
C1796 H1783 0.930 . S
C1796 C1795 1.376 . S
C1796 C1797 1.388 . S
C1797 H1784 0.930 1_565 S
C1797 C1796 1.388 . S
C1797 C1798 1.390 . S
C1798 C1797 1.390 . S
C1798 C1799 1.394 . S
C1798 C1804 1.465 1_565 S
C1799 C1794 1.399 . S
C1799 C1798 1.394 . S
C1799 C1800 1.516 . S
C1800 C1799 1.516 . S
C1800 C1801 1.502 . S
C1800 C1802 1.561 . S
C1800 C1803 1.526 1_565 S
C1801 H1785 0.959 . S
C1801 H1786 0.959 . S
C1801 H1787 0.961 . S
C1801 C1800 1.502 . S
C1802 H1788 0.960 . S
C1802 H1789 0.961 . S
C1802 H1790 0.959 . S
C1802 C1800 1.561 . S
C1803 C1800 1.526 1_545 S
C1803 C1804 1.396 . S
C1803 C1808 1.390 . S
C1804 C1798 1.465 1_545 S
C1804 C1803 1.396 . S
C1804 C1805 1.399 . S
C1805 H1791 0.929 . S
C1805 C1804 1.399 . S
C1805 C1806 1.385 . S
C1806 H1792 0.931 . S
C1806 C1805 1.385 . S
C1806 C1807 1.389 . S
C1807 C1806 1.389 . S
C1807 C1808 1.387 . S
C1808 H1793 0.930 . S
C1808 C1803 1.390 . S
C1808 C1807 1.387 . S
H1809 C1821 0.930 . S
H1810 C1823 0.930 . S
H1811 C1824 0.930 . S
H1812 C1828 0.959 . S
H1813 C1828 0.959 . S
H1814 C1828 0.961 . S
H1815 C1829 0.960 . S
H1816 C1829 0.961 . S
H1817 C1829 0.959 . S
H1818 C1832 0.929 . S
H1819 C1833 0.931 . S
H1820 C1835 0.930 . S
C1821 H1809 0.930 . S
C1821 C1822 1.399 . S
C1821 C1826 1.399 . S
C1822 C1821 1.399 . S
C1822 C1823 1.376 . S
C1823 H1810 0.930 . S
C1823 C1822 1.376 . S
C1823 C1824 1.388 . S
C1824 H1811 0.930 . S
C1824 C1823 1.388 . S
C1824 C1825 1.390 . S
C1825 C1824 1.390 . S
C1825 C1826 1.394 . S
C1825 C1831 1.465 . S
C1826 C1821 1.399 . S
C1826 C1825 1.394 . S
C1826 C1827 1.516 . S
C1827 C1826 1.516 . S
C1827 C1828 1.502 . S
C1827 C1829 1.561 . S
C1827 C1830 1.526 . S
C1828 H1812 0.959 . S
C1828 H1813 0.959 . S
C1828 H1814 0.961 . S
C1828 C1827 1.502 . S
C1829 H1815 0.960 . S
C1829 H1816 0.961 . S
C1829 H1817 0.959 . S
C1829 C1827 1.561 . S
C1830 C1827 1.526 . S
C1830 C1831 1.396 . S
C1830 C1835 1.390 . S
C1831 C1825 1.465 . S
C1831 C1830 1.396 . S
C1831 C1832 1.399 . S
C1832 H1818 0.929 . S
C1832 C1831 1.399 . S
C1832 C1833 1.385 . S
C1833 H1819 0.931 . S
C1833 C1832 1.385 . S
C1833 C1834 1.389 . S
C1834 C1833 1.389 . S
C1834 C1835 1.387 . S
C1835 H1820 0.930 . S
C1835 C1830 1.390 . S
C1835 C1834 1.387 . S
H1836 C1848 0.930 . S
H1837 C1850 0.930 . S
H1838 C1851 0.930 . S
H1839 C1855 0.959 . S
H1840 C1855 0.959 . S
H1841 C1855 0.961 . S
H1842 C1856 0.960 . S
H1843 C1856 0.961 . S
H1844 C1856 0.959 . S
H1845 C1859 0.929 . S
H1846 C1860 0.931 . S
H1847 C1862 0.930 . S
C1848 H1836 0.930 . S
C1848 C1849 1.399 . S
C1848 C1853 1.399 . S
C1849 C1848 1.399 . S
C1849 C1850 1.376 . S
C1850 H1837 0.930 . S
C1850 C1849 1.376 . S
C1850 C1851 1.388 . S
C1851 H1838 0.930 . S
C1851 C1850 1.388 . S
C1851 C1852 1.390 . S
C1852 C1851 1.390 . S
C1852 C1853 1.394 . S
C1852 C1858 1.465 . S
C1853 C1848 1.399 . S
C1853 C1852 1.394 . S
C1853 C1854 1.516 . S
C1854 C1853 1.516 . S
C1854 C1855 1.502 . S
C1854 C1856 1.561 . S
C1854 C1857 1.526 . S
C1855 H1839 0.959 . S
C1855 H1840 0.959 . S
C1855 H1841 0.961 . S
C1855 C1854 1.502 . S
C1856 H1842 0.960 . S
C1856 H1843 0.961 . S
C1856 H1844 0.959 . S
C1856 C1854 1.561 . S
C1857 C1854 1.526 . S
C1857 C1858 1.396 . S
C1857 C1862 1.390 . S
C1858 C1852 1.465 . S
C1858 C1857 1.396 . S
C1858 C1859 1.399 . S
C1859 H1845 0.929 . S
C1859 C1858 1.399 . S
C1859 C1860 1.385 . S
C1860 H1846 0.931 . S
C1860 C1859 1.385 . S
C1860 C1861 1.389 . S
C1861 C1860 1.389 . S
C1861 C1862 1.387 . S
C1862 H1847 0.930 . S
C1862 C1857 1.390 . S
C1862 C1861 1.387 . S
H1863 C1875 0.930 . S
H1864 C1877 0.930 . S
H1865 C1878 0.930 . S
H1866 C1882 0.959 . S
H1867 C1882 0.959 . S
H1868 C1882 0.961 . S
H1869 C1883 0.960 . S
H1870 C1883 0.961 . S
H1871 C1883 0.959 . S
H1872 C1886 0.929 . S
H1873 C1887 0.931 . S
H1874 C1889 0.930 . S
C1875 H1863 0.930 . S
C1875 C1876 1.399 . S
C1875 C1880 1.399 . S
C1876 C1875 1.399 . S
C1876 C1877 1.376 . S
C1877 H1864 0.930 . S
C1877 C1876 1.376 . S
C1877 C1878 1.388 . S
C1878 H1865 0.930 . S
C1878 C1877 1.388 . S
C1878 C1879 1.390 . S
C1879 C1878 1.390 . S
C1879 C1880 1.394 . S
C1879 C1885 1.465 . S
C1880 C1875 1.399 . S
C1880 C1879 1.394 . S
C1880 C1881 1.516 . S
C1881 C1880 1.516 . S
C1881 C1882 1.502 . S
C1881 C1883 1.561 . S
C1881 C1884 1.526 . S
C1882 H1866 0.959 . S
C1882 H1867 0.959 . S
C1882 H1868 0.961 . S
C1882 C1881 1.502 . S
C1883 H1869 0.960 . S
C1883 H1870 0.961 . S
C1883 H1871 0.959 . S
C1883 C1881 1.561 . S
C1884 C1881 1.526 . S
C1884 C1885 1.396 . S
C1884 C1889 1.390 . S
C1885 C1879 1.465 . S
C1885 C1884 1.396 . S
C1885 C1886 1.399 . S
C1886 H1872 0.929 . S
C1886 C1885 1.399 . S
C1886 C1887 1.385 . S
C1887 H1873 0.931 . S
C1887 C1886 1.385 . S
C1887 C1888 1.389 . S
C1888 C1887 1.389 . S
C1888 C1889 1.387 . S
C1889 H1874 0.930 . S
C1889 C1884 1.390 . S
C1889 C1888 1.387 . S
H1890 C1902 0.930 . S
H1891 C1904 0.930 . S
H1892 C1905 0.930 . S
H1893 C1909 0.959 . S
H1894 C1909 0.959 . S
H1895 C1909 0.961 . S
H1896 C1910 0.960 . S
H1897 C1910 0.961 . S
H1898 C1910 0.959 . S
H1899 C1913 0.929 . S
H1900 C1914 0.931 . S
H1901 C1916 0.930 . S
C1902 H1890 0.930 . S
C1902 C1903 1.399 . S
C1902 C1907 1.399 . S
C1903 C1902 1.399 . S
C1903 C1904 1.376 . S
C1904 H1891 0.930 . S
C1904 C1903 1.376 . S
C1904 C1905 1.388 . S
C1905 H1892 0.930 . S
C1905 C1904 1.388 . S
C1905 C1906 1.390 . S
C1906 C1905 1.390 . S
C1906 C1907 1.394 . S
C1906 C1912 1.465 . S
C1907 C1902 1.399 . S
C1907 C1906 1.394 . S
C1907 C1908 1.516 . S
C1908 C1907 1.516 . S
C1908 C1909 1.502 1_565 S
C1908 C1910 1.561 . S
C1908 C1911 1.526 . S
C1909 H1893 0.959 . S
C1909 H1894 0.959 . S
C1909 H1895 0.961 . S
C1909 C1908 1.502 1_545 S
C1910 H1896 0.960 . S
C1910 H1897 0.961 . S
C1910 H1898 0.959 . S
C1910 C1908 1.561 . S
C1911 C1908 1.526 . S
C1911 C1912 1.396 . S
C1911 C1916 1.390 . S
C1912 C1906 1.465 . S
C1912 C1911 1.396 . S
C1912 C1913 1.399 . S
C1913 H1899 0.929 . S
C1913 C1912 1.399 . S
C1913 C1914 1.385 . S
C1914 H1900 0.931 . S
C1914 C1913 1.385 . S
C1914 C1915 1.389 . S
C1915 C1914 1.389 . S
C1915 C1916 1.387 . S
C1916 H1901 0.930 . S
C1916 C1911 1.390 . S
C1916 C1915 1.387 . S
H1917 C1929 0.930 . S
H1918 C1931 0.930 . S
H1919 C1932 0.930 . S
H1920 C1936 0.959 . S
H1921 C1936 0.959 . S
H1922 C1936 0.961 . S
H1923 C1937 0.960 . S
H1924 C1937 0.961 1_655 S
H1925 C1937 0.959 1_655 S
H1926 C1940 0.929 . S
H1927 C1941 0.931 . S
H1928 C1943 0.930 . S
C1929 H1917 0.930 . S
C1929 C1930 1.399 . S
C1929 C1934 1.399 . S
C1930 C1929 1.399 . S
C1930 C1931 1.376 . S
C1931 H1918 0.930 . S
C1931 C1930 1.376 . S
C1931 C1932 1.388 . S
C1932 H1919 0.930 . S
C1932 C1931 1.388 . S
C1932 C1933 1.390 . S
C1933 C1932 1.390 . S
C1933 C1934 1.394 . S
C1933 C1939 1.465 . S
C1934 C1929 1.399 . S
C1934 C1933 1.394 . S
C1934 C1935 1.516 . S
C1935 C1934 1.516 . S
C1935 C1936 1.502 . S
C1935 C1937 1.561 . S
C1935 C1938 1.526 . S
C1936 H1920 0.959 . S
C1936 H1921 0.959 . S
C1936 H1922 0.961 . S
C1936 C1935 1.502 . S
C1937 H1923 0.960 . S
C1937 H1924 0.961 1_455 S
C1937 H1925 0.959 1_455 S
C1937 C1935 1.561 . S
C1938 C1935 1.526 . S
C1938 C1939 1.396 . S
C1938 C1943 1.390 . S
C1939 C1933 1.465 . S
C1939 C1938 1.396 . S
C1939 C1940 1.399 . S
C1940 H1926 0.929 . S
C1940 C1939 1.399 . S
C1940 C1941 1.385 . S
C1941 H1927 0.931 . S
C1941 C1940 1.385 . S
C1941 C1942 1.389 . S
C1942 C1941 1.389 . S
C1942 C1943 1.387 . S
C1943 H1928 0.930 . S
C1943 C1938 1.390 . S
C1943 C1942 1.387 . S
H1944 C1956 0.930 . S
H1945 C1958 0.930 . S
H1946 C1959 0.930 . S
H1947 C1963 0.959 . S
H1948 C1963 0.959 . S
H1949 C1963 0.961 . S
H1950 C1964 0.960 . S
H1951 C1964 0.961 . S
H1952 C1964 0.959 . S
H1953 C1967 0.929 . S
H1954 C1968 0.931 . S
H1955 C1970 0.930 . S
C1956 H1944 0.930 . S
C1956 C1957 1.399 . S
C1956 C1961 1.399 . S
C1957 C1956 1.399 . S
C1957 C1958 1.376 . S
C1958 H1945 0.930 . S
C1958 C1957 1.376 . S
C1958 C1959 1.388 . S
C1959 H1946 0.930 . S
C1959 C1958 1.388 . S
C1959 C1960 1.390 . S
C1960 C1959 1.390 . S
C1960 C1961 1.394 . S
C1960 C1966 1.465 . S
C1961 C1956 1.399 . S
C1961 C1960 1.394 . S
C1961 C1962 1.516 . S
C1962 C1961 1.516 . S
C1962 C1963 1.502 . S
C1962 C1964 1.561 . S
C1962 C1965 1.526 . S
C1963 H1947 0.959 . S
C1963 H1948 0.959 . S
C1963 H1949 0.961 . S
C1963 C1962 1.502 . S
C1964 H1950 0.960 . S
C1964 H1951 0.961 . S
C1964 H1952 0.959 . S
C1964 C1962 1.561 . S
C1965 C1962 1.526 . S
C1965 C1966 1.396 . S
C1965 C1970 1.390 . S
C1966 C1960 1.465 . S
C1966 C1965 1.396 . S
C1966 C1967 1.399 . S
C1967 H1953 0.929 . S
C1967 C1966 1.399 . S
C1967 C1968 1.385 . S
C1968 H1954 0.931 . S
C1968 C1967 1.385 . S
C1968 C1969 1.389 . S
C1969 C1968 1.389 . S
C1969 C1970 1.387 . S
C1970 H1955 0.930 . S
C1970 C1965 1.390 . S
C1970 C1969 1.387 . S
H1971 C1983 0.930 . S
H1972 C1985 0.930 . S
H1973 C1986 0.930 . S
H1974 C1990 0.959 . S
H1975 C1990 0.959 . S
H1976 C1990 0.961 . S
H1977 C1991 0.960 . S
H1978 C1991 0.961 . S
H1979 C1991 0.959 . S
H1980 C1994 0.929 . S
H1981 C1995 0.931 . S
H1982 C1997 0.926 1_455 S
C1983 H1971 0.930 . S
C1983 C1984 1.399 . S
C1983 C1988 1.399 . S
C1984 C1983 1.399 . S
C1984 C1985 1.376 . S
C1985 H1972 0.930 . S
C1985 C1984 1.376 . S
C1985 C1986 1.388 . S
C1986 H1973 0.930 . S
C1986 C1985 1.388 . S
C1986 C1987 1.390 . S
C1987 C1986 1.390 . S
C1987 C1988 1.394 . S
C1987 C1993 1.465 . S
C1988 C1983 1.399 . S
C1988 C1987 1.394 . S
C1988 C1989 1.516 . S
C1989 C1988 1.516 . S
C1989 C1990 1.502 1_655 S
C1989 C1991 1.561 . S
C1989 C1992 1.526 . S
C1990 H1974 0.959 . S
C1990 H1975 0.959 . S
C1990 H1976 0.961 . S
C1990 C1989 1.502 1_455 S
C1991 H1977 0.960 . S
C1991 H1978 0.961 . S
C1991 H1979 0.959 . S
C1991 C1989 1.561 . S
C1992 C1989 1.526 . S
C1992 C1993 1.396 . S
C1992 C1997 1.390 . S
C1993 C1987 1.465 . S
C1993 C1992 1.396 . S
C1993 C1994 1.399 . S
C1994 H1980 0.929 . S
C1994 C1993 1.399 . S
C1994 C1995 1.385 . S
C1995 H1981 0.931 . S
C1995 C1994 1.385 . S
C1995 C1996 1.389 . S
C1996 C1995 1.389 . S
C1996 C1997 1.387 . S
C1997 H1982 0.926 1_655 S
C1997 C1992 1.390 . S
C1997 C1996 1.387 . S
H1998 C2010 0.930 . S
H1999 C2012 0.930 . S
H2000 C2013 0.930 . S
H2001 C2017 0.959 . S
H2002 C2017 0.959 . S
H2003 C2017 0.961 . S
H2004 C2018 0.960 . S
H2005 C2018 0.961 . S
H2006 C2018 0.959 . S
H2007 C2021 0.929 . S
H2008 C2022 0.931 . S
H2009 C2024 0.930 . S
C2010 H1998 0.930 . S
C2010 C2011 1.399 . S
C2010 C2015 1.399 . S
C2011 C2010 1.399 . S
C2011 C2012 1.376 . S
C2012 H1999 0.930 . S
C2012 C2011 1.376 . S
C2012 C2013 1.388 . S
C2013 H2000 0.930 . S
C2013 C2012 1.388 . S
C2013 C2014 1.390 . S
C2014 C2013 1.390 . S
C2014 C2015 1.394 . S
C2014 C2020 1.465 . S
C2015 C2010 1.399 . S
C2015 C2014 1.394 . S
C2015 C2016 1.516 . S
C2016 C2015 1.516 . S
C2016 C2017 1.502 . S
C2016 C2018 1.561 . S
C2016 C2019 1.526 . S
C2017 H2001 0.959 . S
C2017 H2002 0.959 . S
C2017 H2003 0.961 . S
C2017 C2016 1.502 . S
C2018 H2004 0.960 . S
C2018 H2005 0.961 . S
C2018 H2006 0.959 . S
C2018 C2016 1.561 . S
C2019 C2016 1.526 . S
C2019 C2020 1.396 . S
C2019 C2024 1.390 . S
C2020 C2014 1.465 . S
C2020 C2019 1.396 . S
C2020 C2021 1.399 . S
C2021 H2007 0.929 . S
C2021 C2020 1.399 . S
C2021 C2022 1.385 . S
C2022 H2008 0.931 . S
C2022 C2021 1.385 . S
C2022 C2023 1.389 . S
C2023 C2022 1.389 . S
C2023 C2024 1.387 . S
C2024 H2009 0.930 . S
C2024 C2019 1.390 . S
C2024 C2023 1.387 . S
H2025 C2037 0.930 . S
H2026 C2039 0.930 . S
H2027 C2040 0.930 . S
H2028 C2044 0.959 . S
H2029 C2044 0.959 1_565 S
H2030 C2044 0.961 . S
H2031 C2045 0.960 . S
H2032 C2045 0.961 . S
H2033 C2045 0.959 1_545 S
H2034 C2048 0.929 . S
H2035 C2049 0.931 . S
H2036 C2051 0.930 . S
C2037 H2025 0.930 . S
C2037 C2038 1.399 . S
C2037 C2042 1.399 . S
C2038 C2037 1.399 . S
C2038 C2039 1.376 . S
C2039 H2026 0.930 . S
C2039 C2038 1.376 . S
C2039 C2040 1.388 . S
C2040 H2027 0.930 . S
C2040 C2039 1.388 . S
C2040 C2041 1.390 . S
C2041 C2040 1.390 . S
C2041 C2042 1.394 . S
C2041 C2047 1.465 . S
C2042 C2037 1.399 . S
C2042 C2041 1.394 . S
C2042 C2043 1.516 . S
C2043 C2042 1.516 . S
C2043 C2044 1.502 . S
C2043 C2045 1.561 1_545 S
C2043 C2046 1.526 . S
C2044 H2028 0.959 . S
C2044 H2029 0.959 1_545 S
C2044 H2030 0.961 . S
C2044 C2043 1.502 . S
C2045 H2031 0.960 . S
C2045 H2032 0.961 . S
C2045 H2033 0.959 1_565 S
C2045 C2043 1.561 1_565 S
C2046 C2043 1.526 . S
C2046 C2047 1.396 . S
C2046 C2051 1.390 . S
C2047 C2041 1.465 . S
C2047 C2046 1.396 . S
C2047 C2048 1.399 . S
C2048 H2034 0.929 . S
C2048 C2047 1.399 . S
C2048 C2049 1.385 . S
C2049 H2035 0.931 . S
C2049 C2048 1.385 . S
C2049 C2050 1.389 . S
C2050 C2049 1.389 . S
C2050 C2051 1.387 . S
C2051 H2036 0.930 . S
C2051 C2046 1.390 . S
C2051 C2050 1.387 . S
H2052 C2064 0.930 . S
H2053 C2066 0.930 . S
H2054 C2067 0.930 . S
H2055 C2071 0.959 . S
H2056 C2071 0.959 . S
H2057 C2071 0.961 . S
H2058 C2072 0.960 . S
H2059 C2072 0.961 . S
H2060 C2072 0.959 . S
H2061 C2075 0.929 . S
H2062 C2076 0.931 . S
H2063 C2078 0.930 . S
C2064 H2052 0.930 . S
C2064 C2065 1.399 . S
C2064 C2069 1.399 . S
C2065 C2064 1.399 . S
C2065 C2066 1.376 . S
C2066 H2053 0.930 . S
C2066 C2065 1.376 . S
C2066 C2067 1.388 . S
C2067 H2054 0.930 . S
C2067 C2066 1.388 . S
C2067 C2068 1.390 . S
C2068 C2067 1.390 . S
C2068 C2069 1.394 . S
C2068 C2074 1.465 . S
C2069 C2064 1.399 . S
C2069 C2068 1.394 . S
C2069 C2070 1.516 . S
C2070 C2069 1.516 . S
C2070 C2071 1.502 . S
C2070 C2072 1.561 . S
C2070 C2073 1.526 . S
C2071 H2055 0.959 . S
C2071 H2056 0.959 . S
C2071 H2057 0.961 . S
C2071 C2070 1.502 . S
C2072 H2058 0.960 . S
C2072 H2059 0.961 . S
C2072 H2060 0.959 . S
C2072 C2070 1.561 . S
C2073 C2070 1.526 . S
C2073 C2074 1.396 . S
C2073 C2078 1.390 . S
C2074 C2068 1.465 . S
C2074 C2073 1.396 . S
C2074 C2075 1.399 . S
C2075 H2061 0.929 . S
C2075 C2074 1.399 . S
C2075 C2076 1.385 . S
C2076 H2062 0.931 . S
C2076 C2075 1.385 . S
C2076 C2077 1.389 . S
C2077 C2076 1.389 . S
C2077 C2078 1.387 . S
C2078 H2063 0.930 . S
C2078 C2073 1.390 . S
C2078 C2077 1.387 . S
H2079 C2091 0.930 . S
H2080 C2093 0.930 . S
H2081 C2094 0.930 . S
H2082 C2098 0.959 . S
H2083 C2098 0.959 . S
H2084 C2098 0.961 . S
H2085 C2099 0.960 . S
H2086 C2099 0.961 . S
H2087 C2099 0.959 . S
H2088 C2102 0.929 . S
H2089 C2103 0.931 . S
H2090 C2105 0.930 . S
C2091 H2079 0.930 . S
C2091 C2092 1.399 . S
C2091 C2096 1.399 . S
C2092 C2091 1.399 . S
C2092 C2093 1.376 . S
C2093 H2080 0.930 . S
C2093 C2092 1.376 . S
C2093 C2094 1.388 . S
C2094 H2081 0.930 . S
C2094 C2093 1.388 . S
C2094 C2095 1.390 . S
C2095 C2094 1.390 . S
C2095 C2096 1.394 . S
C2095 C2101 1.465 . S
C2096 C2091 1.399 . S
C2096 C2095 1.394 . S
C2096 C2097 1.516 . S
C2097 C2096 1.516 . S
C2097 C2098 1.502 . S
C2097 C2099 1.561 . S
C2097 C2100 1.526 . S
C2098 H2082 0.959 . S
C2098 H2083 0.959 . S
C2098 H2084 0.961 . S
C2098 C2097 1.502 . S
C2099 H2085 0.960 . S
C2099 H2086 0.961 . S
C2099 H2087 0.959 . S
C2099 C2097 1.561 . S
C2100 C2097 1.526 . S
C2100 C2101 1.396 . S
C2100 C2105 1.390 . S
C2101 C2095 1.465 . S
C2101 C2100 1.396 . S
C2101 C2102 1.399 . S
C2102 H2088 0.929 . S
C2102 C2101 1.399 . S
C2102 C2103 1.385 . S
C2103 H2089 0.931 . S
C2103 C2102 1.385 . S
C2103 C2104 1.389 . S
C2104 C2103 1.389 . S
C2104 C2105 1.387 . S
C2105 H2090 0.930 . S
C2105 C2100 1.390 . S
C2105 C2104 1.387 . S
H2106 C2118 0.930 . S
H2107 C2120 0.930 . S
H2108 C2121 0.930 . S
H2109 C2125 0.959 . S
H2110 C2125 0.959 . S
H2111 C2125 0.961 . S
H2112 C2126 0.960 . S
H2113 C2126 0.961 . S
H2114 C2126 0.959 . S
H2115 C2129 0.929 . S
H2116 C2130 0.931 . S
H2117 C2132 0.930 . S
C2118 H2106 0.930 . S
C2118 C2119 1.399 . S
C2118 C2123 1.399 . S
C2119 C2118 1.399 . S
C2119 C2120 1.376 . S
C2120 H2107 0.930 . S
C2120 C2119 1.376 . S
C2120 C2121 1.388 . S
C2121 H2108 0.930 . S
C2121 C2120 1.388 . S
C2121 C2122 1.390 . S
C2122 C2121 1.390 . S
C2122 C2123 1.394 . S
C2122 C2128 1.465 . S
C2123 C2118 1.399 . S
C2123 C2122 1.394 . S
C2123 C2124 1.516 . S
C2124 C2123 1.516 . S
C2124 C2125 1.502 . S
C2124 C2126 1.561 . S
C2124 C2127 1.526 . S
C2125 H2109 0.959 . S
C2125 H2110 0.959 . S
C2125 H2111 0.961 . S
C2125 C2124 1.502 . S
C2126 H2112 0.960 . S
C2126 H2113 0.961 . S
C2126 H2114 0.959 . S
C2126 C2124 1.561 . S
C2127 C2124 1.526 . S
C2127 C2128 1.396 . S
C2127 C2132 1.390 . S
C2128 C2122 1.465 . S
C2128 C2127 1.396 . S
C2128 C2129 1.399 . S
C2129 H2115 0.929 . S
C2129 C2128 1.399 . S
C2129 C2130 1.385 . S
C2130 H2116 0.931 . S
C2130 C2129 1.385 . S
C2130 C2131 1.389 . S
C2131 C2130 1.389 . S
C2131 C2132 1.387 . S
C2132 H2117 0.930 . S
C2132 C2127 1.390 . S
C2132 C2131 1.387 . S
H2133 C2145 0.930 . S
H2134 C2147 0.930 . S
H2135 C2148 0.930 . S
H2136 C2152 0.959 . S
H2137 C2152 0.959 . S
H2138 C2152 0.961 . S
H2139 C2153 0.960 . S
H2140 C2153 0.961 . S
H2141 C2153 0.959 . S
H2142 C2156 0.929 . S
H2143 C2157 0.931 . S
H2144 C2159 0.930 . S
C2145 H2133 0.930 . S
C2145 C2146 1.399 . S
C2145 C2150 1.399 . S
C2146 C2145 1.399 . S
C2146 C2147 1.376 . S
C2147 H2134 0.930 . S
C2147 C2146 1.376 . S
C2147 C2148 1.388 . S
C2148 H2135 0.930 . S
C2148 C2147 1.388 . S
C2148 C2149 1.390 . S
C2149 C2148 1.390 . S
C2149 C2150 1.394 . S
C2149 C2155 1.465 . S
C2150 C2145 1.399 . S
C2150 C2149 1.394 . S
C2150 C2151 1.516 . S
C2151 C2150 1.516 . S
C2151 C2152 1.502 . S
C2151 C2153 1.561 . S
C2151 C2154 1.526 . S
C2152 H2136 0.959 . S
C2152 H2137 0.959 . S
C2152 H2138 0.961 . S
C2152 C2151 1.502 . S
C2153 H2139 0.960 . S
C2153 H2140 0.961 . S
C2153 H2141 0.959 . S
C2153 C2151 1.561 . S
C2154 C2151 1.526 . S
C2154 C2155 1.396 . S
C2154 C2159 1.390 . S
C2155 C2149 1.465 . S
C2155 C2154 1.396 . S
C2155 C2156 1.399 . S
C2156 H2142 0.929 . S
C2156 C2155 1.399 . S
C2156 C2157 1.385 . S
C2157 H2143 0.931 . S
C2157 C2156 1.385 . S
C2157 C2158 1.389 . S
C2158 C2157 1.389 . S
C2158 C2159 1.387 . S
C2159 H2144 0.930 . S
C2159 C2154 1.390 . S
C2159 C2158 1.387 . S
H2160 C2172 0.930 . S
H2161 C2174 0.930 . S
H2162 C2175 0.930 . S
H2163 C2179 0.959 . S
H2164 C2179 0.959 . S
H2165 C2179 0.961 . S
H2166 C2180 0.960 . S
H2167 C2180 0.961 . S
H2168 C2180 0.959 . S
H2169 C2183 0.929 . S
H2170 C2184 0.931 . S
H2171 C2186 0.930 . S
C2172 H2160 0.930 . S
C2172 C2173 1.399 . S
C2172 C2177 1.399 . S
C2173 C2172 1.399 . S
C2173 C2174 1.376 . S
C2174 H2161 0.930 . S
C2174 C2173 1.376 . S
C2174 C2175 1.388 . S
C2175 H2162 0.930 . S
C2175 C2174 1.388 . S
C2175 C2176 1.390 . S
C2176 C2175 1.390 . S
C2176 C2177 1.394 . S
C2176 C2182 1.465 . S
C2177 C2172 1.399 . S
C2177 C2176 1.394 . S
C2177 C2178 1.516 . S
C2178 C2177 1.516 . S
C2178 C2179 1.502 . S
C2178 C2180 1.561 . S
C2178 C2181 1.526 . S
C2179 H2163 0.959 . S
C2179 H2164 0.959 . S
C2179 H2165 0.961 . S
C2179 C2178 1.502 . S
C2180 H2166 0.960 . S
C2180 H2167 0.961 . S
C2180 H2168 0.959 . S
C2180 C2178 1.561 . S
C2181 C2178 1.526 . S
C2181 C2182 1.396 . S
C2181 C2186 1.390 . S
C2182 C2176 1.465 . S
C2182 C2181 1.396 . S
C2182 C2183 1.399 . S
C2183 H2169 0.929 . S
C2183 C2182 1.399 . S
C2183 C2184 1.385 . S
C2184 H2170 0.931 . S
C2184 C2183 1.385 . S
C2184 C2185 1.389 . S
C2185 C2184 1.389 . S
C2185 C2186 1.387 . S
C2186 H2171 0.930 . S
C2186 C2181 1.390 . S
C2186 C2185 1.387 . S
H2187 C2199 0.930 . S
H2188 C2201 0.930 . S
H2189 C2202 0.930 . S
H2190 C2206 0.959 . S
H2191 C2206 0.959 . S
H2192 C2206 0.961 . S
H2193 C2207 0.960 . S
H2194 C2207 0.961 . S
H2195 C2207 0.959 . S
H2196 C2210 0.929 . S
H2197 C2211 0.931 . S
H2198 C2213 0.930 . S
C2199 H2187 0.930 . S
C2199 C2200 1.399 . S
C2199 C2204 1.399 . S
C2200 C2199 1.399 . S
C2200 C2201 1.376 . S
C2201 H2188 0.930 . S
C2201 C2200 1.376 . S
C2201 C2202 1.388 . S
C2202 H2189 0.930 . S
C2202 C2201 1.388 . S
C2202 C2203 1.390 . S
C2203 C2202 1.390 . S
C2203 C2204 1.394 . S
C2203 C2209 1.465 . S
C2204 C2199 1.399 . S
C2204 C2203 1.394 . S
C2204 C2205 1.516 . S
C2205 C2204 1.516 . S
C2205 C2206 1.502 . S
C2205 C2207 1.561 . S
C2205 C2208 1.526 . S
C2206 H2190 0.959 . S
C2206 H2191 0.959 . S
C2206 H2192 0.961 . S
C2206 C2205 1.502 . S
C2207 H2193 0.960 . S
C2207 H2194 0.961 . S
C2207 H2195 0.959 . S
C2207 C2205 1.561 . S
C2208 C2205 1.526 . S
C2208 C2209 1.396 . S
C2208 C2213 1.390 . S
C2209 C2203 1.465 . S
C2209 C2208 1.396 . S
C2209 C2210 1.399 . S
C2210 H2196 0.929 . S
C2210 C2209 1.399 . S
C2210 C2211 1.385 . S
C2211 H2197 0.931 . S
C2211 C2210 1.385 . S
C2211 C2212 1.389 . S
C2212 C2211 1.389 . S
C2212 C2213 1.387 . S
C2213 H2198 0.930 . S
C2213 C2208 1.390 . S
C2213 C2212 1.387 . S
H2214 C2226 0.930 . S
H2215 C2228 0.930 . S
H2216 C2229 0.930 . S
H2217 C2233 0.959 . S
H2218 C2233 0.959 . S
H2219 C2233 0.961 . S
H2220 C2234 0.960 . S
H2221 C2234 0.961 . S
H2222 C2234 0.959 . S
H2223 C2237 0.929 . S
H2224 C2238 0.931 . S
H2225 C2240 0.930 . S
C2226 H2214 0.930 . S
C2226 C2227 1.399 . S
C2226 C2231 1.399 . S
C2227 C2226 1.399 . S
C2227 C2228 1.376 . S
C2228 H2215 0.930 . S
C2228 C2227 1.376 . S
C2228 C2229 1.388 . S
C2229 H2216 0.930 . S
C2229 C2228 1.388 . S
C2229 C2230 1.390 . S
C2230 C2229 1.390 . S
C2230 C2231 1.394 . S
C2230 C2236 1.465 . S
C2231 C2226 1.399 . S
C2231 C2230 1.394 . S
C2231 C2232 1.516 . S
C2232 C2231 1.516 . S
C2232 C2233 1.502 . S
C2232 C2234 1.561 . S
C2232 C2235 1.526 . S
C2233 H2217 0.959 . S
C2233 H2218 0.959 . S
C2233 H2219 0.961 . S
C2233 C2232 1.502 . S
C2234 H2220 0.960 . S
C2234 H2221 0.961 . S
C2234 H2222 0.959 . S
C2234 C2232 1.561 . S
C2235 C2232 1.526 . S
C2235 C2236 1.396 . S
C2235 C2240 1.390 . S
C2236 C2230 1.465 . S
C2236 C2235 1.396 . S
C2236 C2237 1.399 . S
C2237 H2223 0.929 . S
C2237 C2236 1.399 . S
C2237 C2238 1.385 . S
C2238 H2224 0.931 . S
C2238 C2237 1.385 . S
C2238 C2239 1.389 . S
C2239 C2238 1.389 . S
C2239 C2240 1.387 . S
C2240 H2225 0.930 . S
C2240 C2235 1.390 . S
C2240 C2239 1.387 . S
H2241 C2253 0.930 . S
H2242 C2255 0.930 . S
H2243 C2256 0.930 . S
H2244 C2260 0.959 . S
H2245 C2260 0.959 . S
H2246 C2260 0.961 . S
H2247 C2261 0.960 . S
H2248 C2261 0.961 . S
H2249 C2261 0.959 . S
H2250 C2264 0.929 . S
H2251 C2265 0.931 . S
H2252 C2267 0.930 . S
C2253 H2241 0.930 . S
C2253 C2254 1.399 . S
C2253 C2258 1.399 . S
C2254 C2253 1.399 . S
C2254 C2255 1.376 . S
C2255 H2242 0.930 . S
C2255 C2254 1.376 . S
C2255 C2256 1.388 . S
C2256 H2243 0.930 . S
C2256 C2255 1.388 . S
C2256 C2257 1.390 . S
C2257 C2256 1.390 . S
C2257 C2258 1.394 . S
C2257 C2263 1.465 . S
C2258 C2253 1.399 . S
C2258 C2257 1.394 . S
C2258 C2259 1.516 . S
C2259 C2258 1.516 . S
C2259 C2260 1.502 . S
C2259 C2261 1.561 . S
C2259 C2262 1.526 . S
C2260 H2244 0.959 . S
C2260 H2245 0.959 . S
C2260 H2246 0.961 . S
C2260 C2259 1.502 . S
C2261 H2247 0.960 . S
C2261 H2248 0.961 . S
C2261 H2249 0.959 . S
C2261 C2259 1.561 . S
C2262 C2259 1.526 . S
C2262 C2263 1.396 . S
C2262 C2267 1.390 . S
C2263 C2257 1.465 . S
C2263 C2262 1.396 . S
C2263 C2264 1.399 . S
C2264 H2250 0.929 . S
C2264 C2263 1.399 . S
C2264 C2265 1.385 . S
C2265 H2251 0.931 . S
C2265 C2264 1.385 . S
C2265 C2266 1.389 . S
C2266 C2265 1.389 . S
C2266 C2267 1.387 . S
C2267 H2252 0.930 . S
C2267 C2262 1.390 . S
C2267 C2266 1.387 . S
H2268 C2280 0.930 . S
H2269 C2282 0.930 . S
H2270 C2283 0.930 . S
H2271 C2287 0.959 . S
H2272 C2287 0.959 . S
H2273 C2287 0.961 . S
H2274 C2288 0.960 . S
H2275 C2288 0.961 . S
H2276 C2288 0.959 . S
H2277 C2291 0.929 . S
H2278 C2292 0.931 . S
H2279 C2294 0.930 . S
C2280 H2268 0.930 . S
C2280 C2281 1.399 . S
C2280 C2285 1.399 . S
C2281 C2280 1.399 . S
C2281 C2282 1.376 . S
C2282 H2269 0.930 . S
C2282 C2281 1.376 . S
C2282 C2283 1.388 . S
C2283 H2270 0.930 . S
C2283 C2282 1.388 . S
C2283 C2284 1.390 . S
C2284 C2283 1.390 . S
C2284 C2285 1.394 . S
C2284 C2290 1.465 . S
C2285 C2280 1.399 . S
C2285 C2284 1.394 . S
C2285 C2286 1.516 . S
C2286 C2285 1.516 . S
C2286 C2287 1.502 . S
C2286 C2288 1.561 . S
C2286 C2289 1.526 . S
C2287 H2271 0.959 . S
C2287 H2272 0.959 . S
C2287 H2273 0.961 . S
C2287 C2286 1.502 . S
C2288 H2274 0.960 . S
C2288 H2275 0.961 . S
C2288 H2276 0.959 . S
C2288 C2286 1.561 . S
C2289 C2286 1.526 . S
C2289 C2290 1.396 . S
C2289 C2294 1.390 . S
C2290 C2284 1.465 . S
C2290 C2289 1.396 . S
C2290 C2291 1.399 . S
C2291 H2277 0.929 . S
C2291 C2290 1.399 . S
C2291 C2292 1.385 . S
C2292 H2278 0.931 . S
C2292 C2291 1.385 . S
C2292 C2293 1.389 . S
C2293 C2292 1.389 . S
C2293 C2294 1.387 . S
C2294 H2279 0.930 . S
C2294 C2289 1.390 . S
C2294 C2293 1.387 . S
H2295 C2307 0.930 . S
H2296 C2309 0.930 . S
H2297 C2310 0.930 . S
H2298 C2314 0.959 . S
H2299 C2314 0.959 . S
H2300 C2314 0.961 . S
H2301 C2315 0.960 . S
H2302 C2315 0.961 . S
H2303 C2315 0.959 . S
H2304 C2318 0.929 . S
H2305 C2319 0.931 . S
H2306 C2321 0.930 . S
C2307 H2295 0.930 . S
C2307 C2308 1.399 . S
C2307 C2312 1.399 . S
C2308 C2307 1.399 . S
C2308 C2309 1.376 . S
C2309 H2296 0.930 . S
C2309 C2308 1.376 . S
C2309 C2310 1.388 . S
C2310 H2297 0.930 . S
C2310 C2309 1.388 . S
C2310 C2311 1.390 . S
C2311 C2310 1.390 . S
C2311 C2312 1.394 . S
C2311 C2317 1.465 . S
C2312 C2307 1.399 . S
C2312 C2311 1.394 . S
C2312 C2313 1.516 . S
C2313 C2312 1.516 . S
C2313 C2314 1.502 . S
C2313 C2315 1.561 . S
C2313 C2316 1.526 . S
C2314 H2298 0.959 . S
C2314 H2299 0.959 . S
C2314 H2300 0.961 . S
C2314 C2313 1.502 . S
C2315 H2301 0.960 . S
C2315 H2302 0.961 . S
C2315 H2303 0.959 . S
C2315 C2313 1.561 . S
C2316 C2313 1.526 . S
C2316 C2317 1.396 . S
C2316 C2321 1.390 . S
C2317 C2311 1.465 . S
C2317 C2316 1.396 . S
C2317 C2318 1.399 . S
C2318 H2304 0.929 . S
C2318 C2317 1.399 . S
C2318 C2319 1.385 . S
C2319 H2305 0.931 . S
C2319 C2318 1.385 . S
C2319 C2320 1.389 . S
C2320 C2319 1.389 . S
C2320 C2321 1.387 . S
C2321 H2306 0.930 . S
C2321 C2316 1.390 . S
C2321 C2320 1.387 . S
H2322 C2334 0.930 . S
H2323 C2336 0.930 . S
H2324 C2337 0.930 . S
H2325 C2341 0.959 . S
H2326 C2341 0.959 . S
H2327 C2341 0.961 . S
H2328 C2342 0.960 . S
H2329 C2342 0.961 . S
H2330 C2342 0.959 . S
H2331 C2345 0.929 . S
H2332 C2346 0.931 . S
H2333 C2348 0.930 . S
C2334 H2322 0.930 . S
C2334 C2335 1.399 . S
C2334 C2339 1.399 . S
C2335 C2334 1.399 . S
C2335 C2336 1.376 . S
C2336 H2323 0.930 . S
C2336 C2335 1.376 . S
C2336 C2337 1.388 . S
C2337 H2324 0.930 . S
C2337 C2336 1.388 . S
C2337 C2338 1.390 . S
C2338 C2337 1.390 . S
C2338 C2339 1.394 . S
C2338 C2344 1.465 . S
C2339 C2334 1.399 . S
C2339 C2338 1.394 . S
C2339 C2340 1.516 . S
C2340 C2339 1.516 . S
C2340 C2341 1.502 . S
C2340 C2342 1.561 . S
C2340 C2343 1.526 . S
C2341 H2325 0.959 . S
C2341 H2326 0.959 . S
C2341 H2327 0.961 . S
C2341 C2340 1.502 . S
C2342 H2328 0.960 . S
C2342 H2329 0.961 . S
C2342 H2330 0.959 . S
C2342 C2340 1.561 . S
C2343 C2340 1.526 . S
C2343 C2344 1.396 . S
C2343 C2348 1.390 . S
C2344 C2338 1.465 . S
C2344 C2343 1.396 . S
C2344 C2345 1.399 . S
C2345 H2331 0.929 . S
C2345 C2344 1.399 . S
C2345 C2346 1.385 . S
C2346 H2332 0.931 . S
C2346 C2345 1.385 . S
C2346 C2347 1.389 . S
C2347 C2346 1.389 . S
C2347 C2348 1.387 . S
C2348 H2333 0.930 . S
C2348 C2343 1.390 . S
C2348 C2347 1.387 . S
H2349 C2361 0.930 . S
H2350 C2363 0.930 . S
H2351 C2364 0.930 . S
H2352 C2368 0.959 . S
H2353 C2368 0.959 . S
H2354 C2368 0.961 . S
H2355 C2369 0.960 . S
H2356 C2369 0.961 . S
H2357 C2369 0.959 . S
H2358 C2372 0.929 . S
H2359 C2373 0.931 . S
H2360 C2375 0.930 . S
C2361 H2349 0.930 . S
C2361 C2362 1.399 . S
C2361 C2366 1.399 . S
C2362 C2361 1.399 . S
C2362 C2363 1.376 . S
C2363 H2350 0.930 . S
C2363 C2362 1.376 . S
C2363 C2364 1.388 . S
C2364 H2351 0.930 . S
C2364 C2363 1.388 . S
C2364 C2365 1.390 . S
C2365 C2364 1.390 . S
C2365 C2366 1.394 . S
C2365 C2371 1.465 . S
C2366 C2361 1.399 . S
C2366 C2365 1.394 . S
C2366 C2367 1.516 . S
C2367 C2366 1.516 . S
C2367 C2368 1.502 . S
C2367 C2369 1.561 . S
C2367 C2370 1.526 . S
C2368 H2352 0.959 . S
C2368 H2353 0.959 . S
C2368 H2354 0.961 . S
C2368 C2367 1.502 . S
C2369 H2355 0.960 . S
C2369 H2356 0.961 . S
C2369 H2357 0.959 . S
C2369 C2367 1.561 . S
C2370 C2367 1.526 . S
C2370 C2371 1.396 . S
C2370 C2375 1.390 . S
C2371 C2365 1.465 . S
C2371 C2370 1.396 . S
C2371 C2372 1.399 . S
C2372 H2358 0.929 . S
C2372 C2371 1.399 . S
C2372 C2373 1.385 . S
C2373 H2359 0.931 . S
C2373 C2372 1.385 . S
C2373 C2374 1.389 . S
C2374 C2373 1.389 . S
C2374 C2375 1.387 . S
C2375 H2360 0.930 . S
C2375 C2370 1.390 . S
C2375 C2374 1.387 . S
C931 C124 1.418 . S
C943 C229 1.335 . S
C958 C130 1.478 . S
C970 C313 1.447 . S
C985 C115 1.459 . S
C997 C393 1.415 . S
C1012 C106 1.430 . S
C1024 C309 1.407 . S
C1051 C397 1.387 . S
C1039 C85 1.427 . S
C1066 C97 1.382 . S
C1078 C225 1.393 . S
C1105 C218 1.413 . S
C1093 C103 1.458 . S
C1132 C302 1.374 . S
C1120 C88 1.443 . S
C1147 C94 1.468 . S
C1159 C404 1.386 . S
C1174 C121 1.420 . S
C1186 C320 1.421 . S
C1201 C133 1.407 . S
C1213 C386 1.301 . S
C1240 C236 1.359 . S
C1228 C112 1.429 . S
C1267 C481 1.400 . S
C1255 C16 1.428 . S
C1282 C22 1.470 . S
C1294 C565 1.443 . S
C1309 C7 1.455 . S
C1321 C645 1.430 . S
C1336 C160 1.431 . S
C1348 C561 1.404 . S
C1363 C139 1.417 . S
C1375 C649 1.350 . S
C1390 C151 1.400 . S
C1402 C477 1.341 . S
C1417 C157 1.449 . S
C1429 C470 1.323 . S
C1444 C142 1.447 . S
C1456 C554 1.406 . S
C1483 C656 1.428 . S
C1471 C148 1.447 . S
C1498 C13 1.439 . S
C1510 C572 1.371 . S
C1537 C638 1.376 . S
C1525 C25 1.403 . S
C1552 C4 1.430 . S
C1564 C488 1.346 . S
C1591 C733 1.382 . S
C1579 C70 1.434 . S
C1606 C76 1.471 . S
C1618 C817 1.391 . S
C1645 C897 1.425 . S
C1633 C61 1.455 . S
C1672 C813 1.426 . S
C1660 C52 1.422 . S
C1699 C901 1.344 . S
C1687 C31 1.418 . S
C1714 C43 1.390 . S
C1726 C729 1.373 . S
C1741 C49 1.461 . S
C1753 C722 1.368 . S
C1768 C34 1.456 . S
C1780 C806 1.349 . S
C1807 C908 1.447 . S
C1795 C40 1.443 . S
C1822 C67 1.437 . S
C1834 C824 1.384 . S
C1849 C79 1.397 . S
C1861 C890 1.365 . S
C1876 C58 1.413 . S
C1888 C740 1.409 . S
C1903 C140 1.474 . S
C1915 C232 1.395 . S
C1942 C316 1.384 . S
C1930 C149 1.502 . S
C1957 C158 1.497 . S
C1969 C388 1.420 . S
C1984 C59 1.516 . S
C1996 C304 1.435 . S
C2011 C68 1.480 . S
C2023 C400 1.340 . S
C2050 C220 1.389 . S
C2038 C77 1.472 . S
C2065 C32 1.472 . S
C2077 C484 1.388 . S
C2092 C41 1.502 . S
C2104 C568 1.375 . S
C2119 C50 1.499 . S
C2131 C640 1.412 . S
C2146 C113 1.519 . S
C2158 C556 1.318 . S
C2185 C652 1.378 . S
C2173 C122 1.480 . S
C2200 C131 1.472 . S
C2212 C472 1.393 . S
C2227 C86 1.473 . S
C2239 C736 1.411 . S
C2254 C95 1.499 . S
C2266 C820 1.303 . S
C2293 C892 1.423 . S
C2281 C104 1.498 . S
C2308 C5 1.519 . S
C2320 C808 1.323 . S
C2335 C14 1.480 . S
C2347 C904 1.374 . S
C2362 C23 1.472 . S
C2374 C724 1.387 . S
