# Generated by pormake.
# Topology csq, (4,8)-cn, num edge types: 1
# Building blocks:
#     Node 0, Type 0, BuildingBlock: MIFKUJ_clean_linker_1, # of connection points: 4
#     Node 1, Type 0, BuildingBlock: MIFKUJ_clean_linker_1, # of connection points: 4
#     Node 2, Type 0, BuildingBlock: MIFKUJ_clean_linker_1, # of connection points: 4
#     Node 3, Type 0, BuildingBlock: MIFKUJ_clean_linker_1, # of connection points: 4
#     Node 4, Type 0, BuildingBlock: MIFKUJ_clean_linker_1, # of connection points: 4
#     Node 5, Type 0, BuildingBlock: MIFKUJ_clean_linker_1, # of connection points: 4
#     Node 6, Type 1, BuildingBlock: TAGTUT_clean_sbu_3, # of connection points: 8
#     Node 7, Type 1, BuildingBlock: TAGTUT_clean_sbu_3, # of connection points: 8
#     Node 8, Type 1, BuildingBlock: TAGTUT_clean_sbu_3, # of connection points: 8
#     Edge 9, Type (0, 1), None
#     Edge 10, Type (0, 1), None
#     Edge 11, Type (0, 1), None
#     Edge 12, Type (0, 1), None
#     Edge 13, Type (0, 1), None
#     Edge 14, Type (0, 1), None
#     Edge 15, Type (0, 1), None
#     Edge 16, Type (0, 1), None
#     Edge 17, Type (0, 1), None
#     Edge 18, Type (0, 1), None
#     Edge 19, Type (0, 1), None
#     Edge 20, Type (0, 1), None
#     Edge 21, Type (0, 1), None
#     Edge 22, Type (0, 1), None
#     Edge 23, Type (0, 1), None
#     Edge 24, Type (0, 1), None
#     Edge 25, Type (0, 1), None
#     Edge 26, Type (0, 1), None
#     Edge 27, Type (0, 1), None
#     Edge 28, Type (0, 1), None
#     Edge 29, Type (0, 1), None
#     Edge 30, Type (0, 1), None
#     Edge 31, Type (0, 1), None
#     Edge 32, Type (0, 1), None
# Relax obj value: 0.032
# Max RMSD: 0.101
# Mean RMSD: 0.041
data_MOF--net-csq--node1-TAGTUT_clean_sbu_3--node2-MIFKUJ_clean_linker_1--edge1-none
_symmetry_space_group_name_H-M    P1
_symmetry_Int_Tables_number       1
_symmetry_cell_setting            triclinic
loop_
_symmetry_equiv_pos_as_xyz
'x, y, z'
_cell_length_a     35.8741
_cell_length_b     35.393559
_cell_length_c     12.219478
_cell_angle_alpha  93.168709
_cell_angle_beta   93.684878
_cell_angle_gamma 120.01782
loop_
_atom_site_label
_atom_site_type_symbol
_atom_site_fract_x
_atom_site_fract_y
_atom_site_fract_z
_atom_type_partial_charge
H0 H 0.26271 0.41879 0.40595 0.0
H1 H 0.31609 0.40475 0.49796 0.0
H2 H 0.41835 0.53216 0.42863 0.0
H3 H 0.36419 0.54587 0.33762 0.0
H4 H 0.24533 0.49331 0.43381 0.0
H5 H 0.28506 0.40961 0.15038 0.0
H6 H 0.34475 0.40558 0.07463 0.0
H7 H 0.40763 0.54335 0.03059 0.0
H8 H 0.34776 0.54739 0.10772 0.0
H9 H 0.1893 0.48707 0.96022 0.0
H10 H 0.12129 0.46146 0.84704 0.0
H11 H 0.05108 0.38062 0.09681 0.0
H12 H 0.11978 0.40163 0.20476 0.0
H13 H 0.23542 0.46108 0.02949 0.0
H14 H 0.16265 0.5242 0.25137 0.0
H15 H 0.10448 0.52107 0.35508 0.0
H16 H 0.10871 0.42306 0.54279 0.0
H17 H 0.16633 0.42683 0.44152 0.0
C18 C 0.30974 0.48367 0.36766 0.0
C19 C 0.29662 0.44397 0.41289 0.0
C20 C 0.32721 0.43568 0.46328 0.0
C21 C 0.37145 0.46711 0.46945 0.0
C22 C 0.3845 0.50703 0.42397 0.0
C23 C 0.35373 0.51534 0.37385 0.0
C24 C 0.2775 0.48749 0.29721 0.0
C25 C 0.24318 0.48772 0.34481 0.0
C26 C 0.27591 0.48075 0.18223 0.0
C27 C 0.31152 0.47851 0.13205 0.0
C28 C 0.31179 0.439 0.12496 0.0
C29 C 0.34632 0.43698 0.08409 0.0
C30 C 0.38154 0.47451 0.05042 0.0
C31 C 0.38186 0.51441 0.06033 0.0
C32 C 0.3471 0.51642 0.10114 0.0
C33 C 0.15987 0.44793 0.0938 0.0
C34 C 0.15963 0.46249 0.98941 0.0
C35 C 0.12078 0.44745 0.92404 0.0
C36 C 0.08137 0.41876 0.9633 0.0
C37 C 0.08131 0.40221 0.06462 0.0
C38 C 0.12051 0.41554 0.12779 0.0
C39 C 0.20138 0.46619 0.16511 0.0
C40 C 0.23771 0.4698 0.11713 0.0
C41 C 0.20502 0.47765 0.28032 0.0
C42 C 0.16887 0.47568 0.33856 0.0
C43 C 0.15083 0.50205 0.31487 0.0
C44 C 0.11777 0.50039 0.37441 0.0
C45 C 0.10178 0.47173 0.4571 0.0
C46 C 0.11988 0.44533 0.47938 0.0
C47 C 0.15309 0.44755 0.42171 0.0
H48 H 0.82153 0.36273 0.12067 0.0
H49 H 0.87608 0.41911 0.0194 0.0
H50 H 0.86959 0.31725 0.79204 0.0
H51 H 0.81777 0.26208 0.89561 0.0
H52 H 0.74304 0.2376 0.93518 0.0
H53 H 0.80265 0.31577 0.39721 0.0
H54 H 0.8677 0.37664 0.50274 0.0
H55 H 0.94533 0.37002 0.25532 0.0
H56 H 0.88099 0.30786 0.15339 0.0
H57 H 0.74589 0.14143 0.28513 0.0
H58 H 0.69121 0.0725 0.34964 0.0
H59 H 0.59267 0.10533 0.26349 0.0
H60 H 0.64736 0.17438 0.20501 0.0
H61 H 0.77324 0.23472 0.33595 0.0
H62 H 0.72201 0.12487 0.01903 0.0
H63 H 0.665 0.05861 0.90821 0.0
H64 H 0.5878 0.1204 0.87008 0.0
H65 H 0.64538 0.18678 0.97902 0.0
C66 C 0.81647 0.30825 0.01745 0.0
C67 C 0.83197 0.3528 0.04888 0.0
C68 C 0.86266 0.3849 0.99014 0.0
C69 C 0.87757 0.37263 0.89851 0.0
C70 C 0.85911 0.32798 0.86244 0.0
C71 C 0.8294 0.29623 0.92201 0.0
C72 C 0.78694 0.27328 0.08215 0.0
C73 C 0.74992 0.23753 0.02294 0.0
C74 C 0.79628 0.27257 0.1971 0.0
C75 C 0.83637 0.30796 0.26463 0.0
C76 C 0.83377 0.32679 0.36655 0.0
C77 C 0.87104 0.36137 0.4276 0.0
C78 C 0.91161 0.37816 0.3873 0.0
C79 C 0.91447 0.35786 0.2884 0.0
C80 C 0.87749 0.32273 0.22893 0.0
C81 C 0.70043 0.16279 0.2418 0.0
C82 C 0.71259 0.13387 0.28241 0.0
C83 C 0.68133 0.09429 0.31645 0.0
C84 C 0.63768 0.08315 0.30808 0.0
C85 C 0.62585 0.11241 0.2675 0.0
C86 C 0.65712 0.15224 0.23645 0.0
C87 C 0.73091 0.20044 0.18753 0.0
C88 C 0.76718 0.23605 0.24854 0.0
C89 C 0.72285 0.20063 0.07358 0.0
C90 C 0.68815 0.1609 0.00536 0.0
C91 C 0.69274 0.12401 0.98665 0.0
C92 C 0.65996 0.08603 0.92452 0.0
C93 C 0.62161 0.08396 0.8815 0.0
C94 C 0.61656 0.12055 0.9037 0.0
C95 C 0.64973 0.15884 0.96412 0.0
H96 H 0.59675 0.71008 0.02046 0.0
H97 H 0.60399 0.65097 0.93094 0.0
H98 H 0.50002 0.62312 0.68259 0.0
H99 H 0.49147 0.68092 0.77473 0.0
H100 H 0.53165 0.76337 0.84216 0.0
H101 H 0.57132 0.72888 0.27788 0.0
H102 H 0.57078 0.6733 0.38678 0.0
H103 H 0.47807 0.57187 0.13933 0.0
H104 H 0.47764 0.62827 0.03109 0.0
H105 H 0.44625 0.78767 0.17995 0.0
H106 H 0.45184 0.84146 0.32594 0.0
H107 H 0.59084 0.8992 0.36608 0.0
H108 H 0.58524 0.84732 0.21614 0.0
H109 H 0.50927 0.74261 0.23567 0.0
H110 H 0.44822 0.79761 0.98646 0.0
H111 H 0.43845 0.85408 0.90737 0.0
H112 H 0.56309 0.90769 0.78296 0.0
H113 H 0.57348 0.85105 0.86599 0.0
C114 C 0.54219 0.69818 0.90701 0.0
C115 C 0.5762 0.69193 0.94528 0.0
C116 C 0.58098 0.65894 0.89295 0.0
C117 C 0.55234 0.63267 0.80088 0.0
C118 C 0.5227 0.64338 0.75302 0.0
C119 C 0.51738 0.6759 0.80658 0.0
C120 C 0.53033 0.72521 0.97563 0.0
C121 C 0.52696 0.75895 0.92835 0.0
C122 C 0.52251 0.71809 0.08728 0.0
C123 C 0.52467 0.68305 0.14564 0.0
C124 C 0.55069 0.69469 0.24668 0.0
C125 C 0.55017 0.66268 0.30948 0.0
C126 C 0.52379 0.61784 0.27299 0.0
C127 C 0.49816 0.60602 0.17083 0.0
C128 C 0.49842 0.63829 0.10798 0.0
C129 C 0.51553 0.81543 0.18383 0.0
C130 C 0.47787 0.81257 0.21877 0.0
C131 C 0.48099 0.84224 0.30404 0.0
C132 C 0.52168 0.87357 0.35835 0.0
C133 C 0.55907 0.87461 0.32721 0.0
C134 C 0.55601 0.84596 0.23977 0.0
C135 C 0.5132 0.78167 0.10415 0.0
C136 C 0.51385 0.7466 0.14916 0.0
C137 C 0.51824 0.78742 0.99127 0.0
C138 C 0.51235 0.82106 0.93675 0.0
C139 C 0.47383 0.82168 0.94368 0.0
C140 C 0.4679 0.85349 0.89628 0.0
C141 C 0.49996 0.8852 0.83868 0.0
C142 C 0.53763 0.88329 0.82561 0.0
C143 C 0.54374 0.85132 0.87426 0.0
H144 H 0.84292 0.47359 0.08471 0.0
H145 H 0.9146 0.49012 0.16049 0.0
H146 H 0.95067 0.6255 0.24052 0.0
H147 H 0.87904 0.60888 0.16047 0.0
H148 H 0.79391 0.53952 0.23347 0.0
H149 H 0.81326 0.45403 0.87355 0.0
H150 H 0.87549 0.46261 0.78126 0.0
H151 H 0.92574 0.60233 0.79476 0.0
H152 H 0.864 0.59341 0.88825 0.0
H153 H 0.72131 0.58326 0.98246 0.0
H154 H 0.66024 0.58605 0.89114 0.0
H155 H 0.5951 0.44666 0.79506 0.0
H156 H 0.65712 0.44409 0.8854 0.0
H157 H 0.75163 0.50534 0.82892 0.0
H158 H 0.75612 0.59224 0.24853 0.0
H159 H 0.70141 0.59734 0.35038 0.0
H160 H 0.60721 0.46408 0.22191 0.0
H161 H 0.66166 0.45898 0.12452 0.0
C162 C 0.85586 0.53992 0.12014 0.0
C163 C 0.86672 0.50701 0.11634 0.0
C164 C 0.90789 0.51671 0.15721 0.0
C165 C 0.93802 0.55912 0.2056 0.0
C166 C 0.92792 0.59265 0.20267 0.0
C167 C 0.88691 0.58304 0.15997 0.0
C168 C 0.81282 0.52978 0.07468 0.0
C169 C 0.78427 0.53164 0.14547 0.0
C170 C 0.80102 0.51956 0.96017 0.0
C171 C 0.83358 0.52299 0.88571 0.0
C172 C 0.8373 0.48633 0.85448 0.0
C173 C 0.87335 0.49144 0.80374 0.0
C174 C 0.90602 0.53328 0.78183 0.0
C175 C 0.9014 0.56968 0.81071 0.0
C176 C 0.86577 0.56459 0.86267 0.0
C177 C 0.69358 0.51361 0.93853 0.0
C178 C 0.69361 0.55323 0.94294 0.0
C179 C 0.65873 0.55471 0.89228 0.0
C180 C 0.62328 0.51648 0.83789 0.0
C181 C 0.62202 0.47626 0.83869 0.0
C182 C 0.65747 0.4749 0.88809 0.0
C183 C 0.73188 0.51367 0.98781 0.0
C184 C 0.76027 0.5112 0.91743 0.0
C185 C 0.74348 0.52346 0.10301 0.0
C186 C 0.71292 0.52534 0.17768 0.0
C187 C 0.72384 0.56393 0.24432 0.0
C188 C 0.69247 0.56695 0.30178 0.0
C189 C 0.6496 0.53151 0.29264 0.0
C190 C 0.63955 0.49247 0.22938 0.0
C191 C 0.67081 0.48933 0.17372 0.0
H192 H 0.26902 0.90827 0.13315 0.0
H193 H 0.32322 0.9726 0.05238 0.0
H194 H 0.31989 0.88803 0.77942 0.0
H195 H 0.27064 0.82388 0.86664 0.0
H196 H 0.20004 0.78232 0.93549 0.0
H197 H 0.26334 0.88346 0.32553 0.0
H198 H 0.32287 0.93864 0.45205 0.0
H199 H 0.4093 0.90088 0.31562 0.0
H200 H 0.34838 0.84585 0.18404 0.0
H201 H 0.21563 0.68803 0.28542 0.0
H202 H 0.1709 0.63761 0.41536 0.0
H203 H 0.09051 0.69643 0.40812 0.0
H204 H 0.13349 0.74456 0.27388 0.0
H205 H 0.25107 0.78855 0.32661 0.0
H206 H 0.18193 0.6663 0.08591 0.0
H207 H 0.12841 0.59671 0.98517 0.0
H208 H 0.06947 0.66033 0.81488 0.0
H209 H 0.12213 0.73062 0.92176 0.0
C210 C 0.26819 0.8612 0.01002 0.0
C211 C 0.28018 0.90353 0.05637 0.0
C212 C 0.30981 0.94032 0.00846 0.0
C213 C 0.32519 0.93484 0.91004 0.0
C214 C 0.30775 0.89278 0.85488 0.0
C215 C 0.27994 0.85608 0.90536 0.0
C216 C 0.24671 0.8227 0.07329 0.0
C217 C 0.21081 0.7837 0.02131 0.0
C218 C 0.26303 0.8232 0.18241 0.0
C219 C 0.30165 0.86144 0.24366 0.0
C220 C 0.29535 0.88798 0.32024 0.0
C221 C 0.32967 0.9194 0.39331 0.0
C222 C 0.37117 0.92419 0.39492 0.0
C223 C 0.37786 0.89811 0.31652 0.0
C224 C 0.34322 0.86694 0.241 0.0
C225 C 0.17621 0.71812 0.26633 0.0
C226 C 0.18814 0.68967 0.3116 0.0
C227 C 0.16351 0.66195 0.38787 0.0
C228 C 0.12805 0.66402 0.42352 0.0
C229 C 0.11839 0.69501 0.38422 0.0
C230 C 0.14201 0.7215 0.30519 0.0
C231 C 0.20307 0.74946 0.19125 0.0
C232 C 0.2404 0.78692 0.24033 0.0
C233 C 0.18918 0.74633 0.07809 0.0
C234 C 0.15542 0.70387 0.01568 0.0
C235 C 0.15696 0.66556 0.02974 0.0
C236 C 0.12687 0.62582 0.96998 0.0
C237 C 0.09508 0.6233 0.89177 0.0
C238 C 0.09408 0.66161 0.87373 0.0
C239 C 0.12395 0.7016 0.93562 0.0
H240 H 0.53358 0.22011 0.06619 0.0
H241 H 0.5465 0.16982 0.94955 0.0
H242 H 0.45081 0.0606 0.10318 0.0
H243 H 0.43366 0.10892 0.20699 0.0
H244 H 0.46824 0.22587 0.04863 0.0
H245 H 0.53648 0.20025 0.35859 0.0
H246 H 0.54995 0.14688 0.44457 0.0
H247 H 0.41742 0.07595 0.51859 0.0
H248 H 0.40346 0.12903 0.42964 0.0
H249 H 0.38583 0.28326 0.22337 0.0
H250 H 0.39406 0.35241 0.30272 0.0
H251 H 0.47694 0.35482 0.57885 0.0
H252 H 0.47312 0.2898 0.49522 0.0
H253 H 0.43275 0.21581 0.43512 0.0
H254 H 0.39814 0.23883 0.98411 0.0
H255 H 0.40307 0.2935 0.86124 0.0
H256 H 0.50734 0.39558 0.08676 0.0
H257 H 0.50174 0.34105 0.20847 0.0
C258 C 0.48272 0.16838 0.14611 0.0
C259 C 0.51583 0.18536 0.07578 0.0
C260 C 0.52389 0.15705 0.01096 0.0
C261 C 0.50034 0.11204 0.02054 0.0
C262 C 0.47025 0.09562 0.09778 0.0
C263 C 0.46048 0.12332 0.1574 0.0
C264 C 0.4682 0.19661 0.19894 0.0
C265 C 0.46139 0.22455 0.134 0.0
C266 C 0.45844 0.19404 0.30967 0.0
C267 C 0.46869 0.168 0.385 0.0
C268 C 0.51055 0.17397 0.39589 0.0
C269 C 0.51835 0.14377 0.446 0.0
C270 C 0.48479 0.10772 0.4888 0.0
C271 C 0.44396 0.10403 0.48799 0.0
C272 C 0.43596 0.13416 0.4366 0.0
C273 C 0.43066 0.28243 0.3498 0.0
C274 C 0.40556 0.29854 0.30122 0.0
C275 C 0.40946 0.33741 0.34762 0.0
C276 C 0.43685 0.35904 0.44535 0.0
C277 C 0.45574 0.33879 0.50318 0.0
C278 C 0.45353 0.30135 0.45461 0.0
C279 C 0.43771 0.24956 0.28936 0.0
C280 C 0.44092 0.21857 0.35087 0.0
C281 C 0.44778 0.25234 0.17805 0.0
C282 C 0.44884 0.28591 0.10718 0.0
C283 C 0.42182 0.27311 0.00719 0.0
C284 C 0.42496 0.30436 0.93633 0.0
C285 C 0.45576 0.3491 0.96299 0.0
C286 C 0.48329 0.36152 0.06243 0.0
C287 C 0.47986 0.33039 0.13335 0.0
C288 C 0.06636 0.46807 0.5211 0.0
C289 C 0.04327 0.41862 0.91429 0.0
C290 C 0.91695 0.40472 0.85251 0.0
Mg291 Mg 0.02606 0.51862 0.39279 0.0
Mg292 Mg 0.00362 0.58578 0.53705 0.0
O293 O -0.00731 0.52843 0.50621 0.0
Mg294 Mg 0.00548 0.50209 0.62954 0.0
O295 O 0.01908 0.47308 0.74525 0.0
Mg296 Mg 0.98885 0.41146 0.67358 0.0
Mg297 Mg 0.00653 0.48054 0.88871 0.0
C298 C 0.94305 0.53881 0.72203 0.0
O299 O 0.05469 0.56941 0.73609 0.0
O300 O 0.9882 0.53924 0.27491 0.0
O301 O 0.04251 0.55096 0.90998 0.0
O302 O 0.08074 0.58938 0.41758 0.0
O303 O 0.97548 0.58549 0.37945 0.0
O304 O 0.07112 0.63275 0.53738 0.0
O305 O 0.95567 0.43286 0.53946 0.0
O306 O 0.97108 0.44763 0.36756 0.0
C307 C 0.94913 0.42084 0.43546 0.0
C308 C 0.97198 0.56423 0.2875 0.0
O309 O 0.95188 0.5077 0.7149 0.0
O310 O 0.02856 0.40132 0.81447 0.0
O311 O 0.96312 0.57355 0.67207 0.0
O312 O 0.93191 0.39059 0.77855 0.0
O313 O 0.0366 0.44776 0.96009 0.0
O314 O 0.93901 0.44352 0.90019 0.0
O315 O 0.05781 0.49913 0.53135 0.0
O316 O 0.04554 0.43341 0.5696 0.0
C317 C 0.09398 0.62656 0.47081 0.0
C318 C 0.06094 0.57939 0.84173 0.0
C319 C 0.48993 0.06972 0.50559 0.0
C320 C 0.60579 0.04569 0.3599 0.0
C321 C 0.52636 0.91145 0.42532 0.0
Mg322 Mg 0.43039 0.02534 0.69846 0.0
Mg323 Mg 0.46244 0.98568 0.89451 0.0
O324 O 0.448 0.9821 0.74334 0.0
Mg325 Mg 0.4948 -0.00365 0.6481 0.0
O326 O 0.53876 0.01165 0.54538 0.0
Mg327 Mg 0.50094 0.99036 0.40231 0.0
Mg328 Mg 0.58232 -0.00254 0.56924 0.0
C329 C 0.49589 0.92339 0.8122 0.0
O330 O 0.55192 0.0409 0.78009 0.0
O331 O 0.3725 0.98717 0.7992 0.0
O332 O 0.60534 0.02822 0.73844 0.0
O333 O 0.46904 0.07385 0.85021 0.0
O334 O 0.39899 0.96466 0.9374 0.0
O335 O 0.50445 0.05126 0.95942 0.0
O336 O 0.44124 0.95511 0.50222 0.0
O337 O 0.39522 0.97706 0.5483 0.0
C338 C 0.40515 0.95447 0.48388 0.0
C339 C 0.36824 0.9673 0.88635 0.0
O340 O 0.49976 0.93649 0.71447 0.0
O341 O 0.56545 0.03028 0.32862 0.0
O342 O 0.48508 0.94023 0.89058 0.0
O343 O 0.50668 0.92974 0.38402 0.0
O344 O 0.61934 0.03655 0.44824 0.0
O345 O 0.55597 0.93008 0.50622 0.0
O346 O 0.48871 0.05551 0.60006 0.0
O347 O 0.49581 0.05139 0.42114 0.0
C348 C 0.49592 0.08048 0.93293 0.0
C349 C 0.59043 0.04726 0.7996 0.0
C350 C 0.54274 0.58758 0.7824 0.0
C351 C 0.41027 0.46862 0.97897 0.0
C352 C 0.45723 0.3836 0.89476 0.0
Mg353 Mg 0.58192 0.5726 0.5591 0.0
Mg354 Mg 0.51595 0.49497 0.36786 0.0
O355 O 0.53873 0.50945 0.51664 0.0
Mg356 Mg 0.5005 0.49433 0.63892 0.0
O357 O 0.46491 0.48094 0.76616 0.0
Mg358 Mg 0.50816 0.49509 0.8947 0.0
Mg359 Mg 0.41565 0.42454 0.7581 0.0
C360 C 0.45577 0.40623 0.46974 0.0
O361 O 0.44331 0.49012 0.53961 0.0
O362 O 0.62406 0.56282 0.42947 0.0
O363 O 0.38841 0.42935 0.59859 0.0
O364 O 0.55349 0.59757 0.42364 0.0
O365 O 0.57547 0.50502 0.31154 0.0
O366 O 0.50331 0.54376 0.30379 0.0
O367 O 0.55247 0.49502 0.75905 0.0
O368 O 0.60976 0.54939 0.69299 0.0
C369 C 0.59324 0.52087 0.7616 0.0
C370 C 0.61469 0.53395 0.34697 0.0
O371 O 0.4704 0.42321 0.56996 0.0
O372 O 0.45209 0.49197 0.99757 0.0
O373 O 0.46489 0.42874 0.38625 0.0
O374 O 0.48483 0.42355 0.92764 0.0
O375 O 0.39079 0.44083 0.89427 0.0
O376 O 0.42856 0.37406 0.81381 0.0
O377 O 0.53283 0.56824 0.68477 0.0
O378 O 0.53358 0.56614 0.86696 0.0
C379 C 0.52595 0.58441 0.33817 0.0
C380 C 0.40306 0.46075 0.53576 0.0
loop_
_geom_bond_atom_site_label_1
_geom_bond_atom_site_label_2
_geom_bond_distance
_geom_bond_site_symmetry_2
_ccdc_geom_bond_type
H0 C19 0.949 . S
H1 C20 0.950 . S
H2 C22 0.950 . S
H3 C23 0.950 . S
H4 C25 0.950 . S
H5 C28 0.950 . S
H6 C29 0.950 . S
H7 C31 0.956 . S
H8 C32 0.949 . S
H9 C34 0.949 . S
H10 C35 0.950 1_556 S
H11 C37 0.950 . S
H12 C38 0.950 . S
H13 C40 0.950 . S
H14 C43 0.950 . S
H15 C44 0.950 . S
H16 C46 0.951 . S
H17 C47 0.949 . S
C18 C19 1.376 . S
C18 C23 1.386 . S
C18 C24 1.483 . S
C19 H0 0.949 . S
C19 C18 1.376 . S
C19 C20 1.397 . S
C20 H1 0.950 . S
C20 C19 1.397 . S
C20 C21 1.391 . S
C21 C20 1.391 . S
C21 C22 1.405 . S
C22 H2 0.950 . S
C22 C21 1.405 . S
C22 C23 1.367 . S
C23 H3 0.950 . S
C23 C18 1.386 . S
C23 C22 1.367 . S
C24 C18 1.483 . S
C24 C25 1.382 . S
C24 C26 1.403 . S
C25 H4 0.950 . S
C25 C24 1.382 . S
C25 C41 1.411 . S
C26 C24 1.403 . S
C26 C27 1.489 . S
C26 C40 1.411 . S
C27 C26 1.489 . S
C27 C28 1.383 . S
C27 C32 1.382 . S
C28 H5 0.950 . S
C28 C27 1.383 . S
C28 C29 1.395 . S
C29 H6 0.950 . S
C29 C28 1.395 . S
C29 C30 1.288 . S
C30 C29 1.288 . S
C30 C31 1.391 1_554 S
C31 H7 0.956 . S
C31 C30 1.391 1_556 S
C31 C32 1.388 1_556 S
C32 H8 0.949 . S
C32 C27 1.382 . S
C32 C31 1.388 1_554 S
C33 C34 1.376 . S
C33 C38 1.386 . S
C33 C39 1.483 . S
C34 H9 0.949 . S
C34 C33 1.376 . S
C34 C35 1.397 . S
C35 H10 0.950 1_554 S
C35 C34 1.397 . S
C35 C36 1.391 1_554 S
C36 C35 1.391 1_556 S
C36 C37 1.405 1_556 S
C37 H11 0.950 . S
C37 C36 1.405 1_554 S
C37 C38 1.367 . S
C38 H12 0.950 . S
C38 C33 1.386 . S
C38 C37 1.367 . S
C39 C33 1.483 . S
C39 C40 1.382 . S
C39 C41 1.403 . S
C40 H13 0.950 . S
C40 C26 1.411 . S
C40 C39 1.382 . S
C41 C25 1.411 . S
C41 C39 1.403 . S
C41 C42 1.489 . S
C42 C41 1.489 . S
C42 C43 1.383 . S
C42 C47 1.382 . S
C43 H14 0.950 . S
C43 C42 1.383 . S
C43 C44 1.395 . S
C44 H15 0.950 . S
C44 C43 1.395 . S
C44 C45 1.288 . S
C45 C44 1.288 . S
C45 C46 1.392 . S
C46 H16 0.951 . S
C46 C45 1.392 . S
C46 C47 1.392 . S
C47 H17 0.949 . S
C47 C42 1.382 . S
C47 C46 1.392 . S
H48 C67 0.949 . S
H49 C68 0.950 . S
H50 C70 0.950 . S
H51 C71 0.950 . S
H52 C73 0.950 1_556 S
H53 C76 0.950 . S
H54 C77 0.950 . S
H55 C79 0.951 . S
H56 C80 0.949 . S
H57 C82 0.949 . S
H58 C83 0.950 . S
H59 C85 0.950 . S
H60 C86 0.950 . S
H61 C88 0.950 . S
H62 C91 0.950 1_554 S
H63 C92 0.950 . S
H64 C94 0.951 . S
H65 C95 0.949 . S
C66 C67 1.376 1_554 S
C66 C71 1.386 . S
C66 C72 1.483 . S
C67 H48 0.949 . S
C67 C66 1.376 1_556 S
C67 C68 1.397 . S
C68 H49 0.950 . S
C68 C67 1.397 . S
C68 C69 1.391 . S
C69 C68 1.391 . S
C69 C70 1.405 . S
C70 H50 0.950 . S
C70 C69 1.405 . S
C70 C71 1.367 1_556 S
C71 H51 0.950 . S
C71 C66 1.386 . S
C71 C70 1.367 1_554 S
C72 C66 1.483 . S
C72 C73 1.382 . S
C72 C74 1.403 . S
C73 H52 0.950 1_554 S
C73 C72 1.382 . S
C73 C89 1.411 . S
C74 C72 1.403 . S
C74 C75 1.489 . S
C74 C88 1.411 . S
C75 C74 1.489 . S
C75 C76 1.383 . S
C75 C80 1.382 . S
C76 H53 0.950 . S
C76 C75 1.383 . S
C76 C77 1.395 . S
C77 H54 0.950 . S
C77 C76 1.395 . S
C77 C78 1.288 . S
C78 C77 1.288 . S
C78 C79 1.392 . S
C79 H55 0.951 . S
C79 C78 1.392 . S
C79 C80 1.392 . S
C80 H56 0.949 . S
C80 C75 1.382 . S
C80 C79 1.392 . S
C81 C82 1.376 . S
C81 C86 1.386 . S
C81 C87 1.483 . S
C82 H57 0.949 . S
C82 C81 1.376 . S
C82 C83 1.397 . S
C83 H58 0.950 . S
C83 C82 1.397 . S
C83 C84 1.391 . S
C84 C83 1.391 . S
C84 C85 1.405 . S
C85 H59 0.950 . S
C85 C84 1.405 . S
C85 C86 1.367 . S
C86 H60 0.950 . S
C86 C81 1.386 . S
C86 C85 1.367 . S
C87 C81 1.483 . S
C87 C88 1.382 . S
C87 C89 1.403 . S
C88 H61 0.950 . S
C88 C74 1.411 . S
C88 C87 1.382 . S
C89 C73 1.411 . S
C89 C87 1.403 . S
C89 C90 1.489 1_554 S
C90 C89 1.489 1_556 S
C90 C91 1.383 . S
C90 C95 1.382 . S
C91 H62 0.950 1_556 S
C91 C90 1.383 . S
C91 C92 1.395 . S
C92 H63 0.950 . S
C92 C91 1.395 . S
C92 C93 1.288 . S
C93 C92 1.288 . S
C93 C94 1.392 . S
C94 H64 0.951 . S
C94 C93 1.392 . S
C94 C95 1.392 . S
C95 H65 0.949 . S
C95 C90 1.382 . S
C95 C94 1.392 . S
H96 C115 0.949 . S
H97 C116 0.950 . S
H98 C118 0.950 . S
H99 C119 0.950 . S
H100 C121 0.950 . S
H101 C124 0.950 . S
H102 C125 0.950 . S
H103 C127 0.951 . S
H104 C128 0.949 . S
H105 C130 0.949 . S
H106 C131 0.950 . S
H107 C133 0.950 . S
H108 C134 0.950 . S
H109 C136 0.950 . S
H110 C139 0.950 . S
H111 C140 0.950 . S
H112 C142 0.951 . S
H113 C143 0.949 . S
C114 C115 1.376 . S
C114 C119 1.386 . S
C114 C120 1.483 . S
C115 H96 0.949 . S
C115 C114 1.376 . S
C115 C116 1.397 . S
C116 H97 0.950 . S
C116 C115 1.397 . S
C116 C117 1.391 . S
C117 C116 1.391 . S
C117 C118 1.405 . S
C118 H98 0.950 . S
C118 C117 1.405 . S
C118 C119 1.367 . S
C119 H99 0.950 . S
C119 C114 1.386 . S
C119 C118 1.367 . S
C120 C114 1.483 . S
C120 C121 1.382 . S
C120 C122 1.403 1_556 S
C121 H100 0.950 . S
C121 C120 1.382 . S
C121 C137 1.411 . S
C122 C120 1.403 1_554 S
C122 C123 1.489 . S
C122 C136 1.411 . S
C123 C122 1.489 . S
C123 C124 1.383 . S
C123 C128 1.382 . S
C124 H101 0.950 . S
C124 C123 1.383 . S
C124 C125 1.395 . S
C125 H102 0.950 . S
C125 C124 1.395 . S
C125 C126 1.288 . S
C126 C125 1.288 . S
C126 C127 1.392 . S
C127 H103 0.951 . S
C127 C126 1.392 . S
C127 C128 1.392 . S
C128 H104 0.949 . S
C128 C123 1.382 . S
C128 C127 1.392 . S
C129 C130 1.376 . S
C129 C134 1.386 . S
C129 C135 1.483 . S
C130 H105 0.949 . S
C130 C129 1.376 . S
C130 C131 1.397 . S
C131 H106 0.950 . S
C131 C130 1.397 . S
C131 C132 1.391 . S
C132 C131 1.391 . S
C132 C133 1.405 . S
C133 H107 0.950 . S
C133 C132 1.405 . S
C133 C134 1.367 . S
C134 H108 0.950 . S
C134 C129 1.386 . S
C134 C133 1.367 . S
C135 C129 1.483 . S
C135 C136 1.382 . S
C135 C137 1.403 1_554 S
C136 H109 0.950 . S
C136 C122 1.411 . S
C136 C135 1.382 . S
C137 C121 1.411 . S
C137 C135 1.403 1_556 S
C137 C138 1.489 . S
C138 C137 1.489 . S
C138 C139 1.383 . S
C138 C143 1.382 . S
C139 H110 0.950 . S
C139 C138 1.383 . S
C139 C140 1.395 . S
C140 H111 0.950 . S
C140 C139 1.395 . S
C140 C141 1.288 . S
C141 C140 1.288 . S
C141 C142 1.392 . S
C142 H112 0.951 . S
C142 C141 1.392 . S
C142 C143 1.392 . S
C143 H113 0.949 . S
C143 C138 1.382 . S
C143 C142 1.392 . S
H144 C163 0.949 . S
H145 C164 0.950 . S
H146 C166 0.950 . S
H147 C167 0.950 . S
H148 C169 0.950 . S
H149 C172 0.950 . S
H150 C173 0.950 . S
H151 C175 0.951 . S
H152 C176 0.949 . S
H153 C178 0.949 . S
H154 C179 0.950 . S
H155 C181 0.950 . S
H156 C182 0.950 . S
H157 C184 0.950 . S
H158 C187 0.950 . S
H159 C188 0.950 . S
H160 C190 0.951 . S
H161 C191 0.949 . S
C162 C163 1.376 . S
C162 C167 1.386 . S
C162 C168 1.483 . S
C163 H144 0.949 . S
C163 C162 1.376 . S
C163 C164 1.397 . S
C164 H145 0.950 . S
C164 C163 1.397 . S
C164 C165 1.391 . S
C165 C164 1.391 . S
C165 C166 1.405 . S
C166 H146 0.950 . S
C166 C165 1.405 . S
C166 C167 1.367 . S
C167 H147 0.950 . S
C167 C162 1.386 . S
C167 C166 1.367 . S
C168 C162 1.483 . S
C168 C169 1.382 . S
C168 C170 1.403 1_554 S
C169 H148 0.950 . S
C169 C168 1.382 . S
C169 C185 1.411 . S
C170 C168 1.403 1_556 S
C170 C171 1.489 . S
C170 C184 1.411 . S
C171 C170 1.489 . S
C171 C172 1.383 . S
C171 C176 1.382 . S
C172 H149 0.950 . S
C172 C171 1.383 . S
C172 C173 1.395 . S
C173 H150 0.950 . S
C173 C172 1.395 . S
C173 C174 1.288 . S
C174 C173 1.288 . S
C174 C175 1.392 . S
C175 H151 0.951 . S
C175 C174 1.392 . S
C175 C176 1.392 . S
C176 H152 0.949 . S
C176 C171 1.382 . S
C176 C175 1.392 . S
C177 C178 1.376 . S
C177 C182 1.386 . S
C177 C183 1.483 . S
C178 H153 0.949 . S
C178 C177 1.376 . S
C178 C179 1.397 . S
C179 H154 0.950 . S
C179 C178 1.397 . S
C179 C180 1.391 . S
C180 C179 1.391 . S
C180 C181 1.405 . S
C181 H155 0.950 . S
C181 C180 1.405 . S
C181 C182 1.367 . S
C182 H156 0.950 . S
C182 C177 1.386 . S
C182 C181 1.367 . S
C183 C177 1.483 . S
C183 C184 1.382 . S
C183 C185 1.403 1_556 S
C184 H157 0.950 . S
C184 C170 1.411 . S
C184 C183 1.382 . S
C185 C169 1.411 . S
C185 C183 1.403 1_554 S
C185 C186 1.489 . S
C186 C185 1.489 . S
C186 C187 1.383 . S
C186 C191 1.382 . S
C187 H158 0.950 . S
C187 C186 1.383 . S
C187 C188 1.395 . S
C188 H159 0.950 . S
C188 C187 1.395 . S
C188 C189 1.288 . S
C189 C188 1.288 . S
C189 C190 1.392 . S
C190 H160 0.951 . S
C190 C189 1.392 . S
C190 C191 1.392 . S
C191 H161 0.949 . S
C191 C186 1.382 . S
C191 C190 1.392 . S
H192 C211 0.949 . S
H193 C212 0.950 . S
H194 C214 0.950 . S
H195 C215 0.950 . S
H196 C217 0.950 1_556 S
H197 C220 0.950 . S
H198 C221 0.950 . S
H199 C223 0.951 . S
H200 C224 0.949 . S
H201 C226 0.949 . S
H202 C227 0.950 . S
H203 C229 0.950 . S
H204 C230 0.950 . S
H205 C232 0.950 . S
H206 C235 0.950 . S
H207 C236 0.950 . S
H208 C238 0.951 . S
H209 C239 0.949 . S
C210 C211 1.376 1_554 S
C210 C215 1.386 . S
C210 C216 1.483 . S
C211 H192 0.949 . S
C211 C210 1.376 1_556 S
C211 C212 1.397 . S
C212 H193 0.950 . S
C212 C211 1.397 . S
C212 C213 1.391 . S
C213 C212 1.391 . S
C213 C214 1.405 . S
C214 H194 0.950 . S
C214 C213 1.405 . S
C214 C215 1.367 1_556 S
C215 H195 0.950 . S
C215 C210 1.386 . S
C215 C214 1.367 1_554 S
C216 C210 1.483 . S
C216 C217 1.382 . S
C216 C218 1.403 . S
C217 H196 0.950 1_554 S
C217 C216 1.382 . S
C217 C233 1.411 . S
C218 C216 1.403 . S
C218 C219 1.489 . S
C218 C232 1.411 . S
C219 C218 1.489 . S
C219 C220 1.383 . S
C219 C224 1.382 . S
C220 H197 0.950 . S
C220 C219 1.383 . S
C220 C221 1.395 . S
C221 H198 0.950 . S
C221 C220 1.395 . S
C221 C222 1.288 . S
C222 C221 1.288 . S
C222 C223 1.392 . S
C223 H199 0.951 . S
C223 C222 1.392 . S
C223 C224 1.392 . S
C224 H200 0.949 . S
C224 C219 1.382 . S
C224 C223 1.392 . S
C225 C226 1.376 . S
C225 C230 1.386 . S
C225 C231 1.483 . S
C226 H201 0.949 . S
C226 C225 1.376 . S
C226 C227 1.397 . S
C227 H202 0.950 . S
C227 C226 1.397 . S
C227 C228 1.391 . S
C228 C227 1.391 . S
C228 C229 1.405 . S
C229 H203 0.950 . S
C229 C228 1.405 . S
C229 C230 1.367 . S
C230 H204 0.950 . S
C230 C225 1.386 . S
C230 C229 1.367 . S
C231 C225 1.483 . S
C231 C232 1.382 . S
C231 C233 1.403 . S
C232 H205 0.950 . S
C232 C218 1.411 . S
C232 C231 1.382 . S
C233 C217 1.411 . S
C233 C231 1.403 . S
C233 C234 1.489 . S
C234 C233 1.489 . S
C234 C235 1.383 . S
C234 C239 1.382 1_554 S
C235 H206 0.950 . S
C235 C234 1.383 . S
C235 C236 1.395 1_554 S
C236 H207 0.950 . S
C236 C235 1.395 1_556 S
C236 C237 1.288 . S
C237 C236 1.288 . S
C237 C238 1.392 . S
C238 H208 0.951 . S
C238 C237 1.392 . S
C238 C239 1.392 . S
C239 H209 0.949 . S
C239 C234 1.382 1_556 S
C239 C238 1.392 . S
H240 C259 0.949 . S
H241 C260 0.950 . S
H242 C262 0.950 . S
H243 C263 0.950 . S
H244 C265 0.950 . S
H245 C268 0.950 . S
H246 C269 0.950 . S
H247 C271 0.951 . S
H248 C272 0.949 . S
H249 C274 0.949 . S
H250 C275 0.950 . S
H251 C277 0.950 . S
H252 C278 0.950 . S
H253 C280 0.950 . S
H254 C283 0.950 . S
H255 C284 0.950 . S
H256 C286 0.951 . S
H257 C287 0.949 . S
C258 C259 1.376 . S
C258 C263 1.386 . S
C258 C264 1.483 . S
C259 H240 0.949 . S
C259 C258 1.376 . S
C259 C260 1.397 1_554 S
C260 H241 0.950 . S
C260 C259 1.397 1_556 S
C260 C261 1.391 . S
C261 C260 1.391 . S
C261 C262 1.405 1_556 S
C262 H242 0.950 . S
C262 C261 1.405 1_554 S
C262 C263 1.367 . S
C263 H243 0.950 . S
C263 C258 1.386 . S
C263 C262 1.367 . S
C264 C258 1.483 . S
C264 C265 1.382 . S
C264 C266 1.403 . S
C265 H244 0.950 . S
C265 C264 1.382 . S
C265 C281 1.411 . S
C266 C264 1.403 . S
C266 C267 1.489 . S
C266 C280 1.411 . S
C267 C266 1.489 . S
C267 C268 1.383 . S
C267 C272 1.382 . S
C268 H245 0.950 . S
C268 C267 1.383 . S
C268 C269 1.395 . S
C269 H246 0.950 . S
C269 C268 1.395 . S
C269 C270 1.288 . S
C270 C269 1.288 . S
C270 C271 1.392 . S
C271 H247 0.951 . S
C271 C270 1.392 . S
C271 C272 1.392 . S
C272 H248 0.949 . S
C272 C267 1.382 . S
C272 C271 1.392 . S
C273 C274 1.376 . S
C273 C278 1.386 . S
C273 C279 1.483 . S
C274 H249 0.949 . S
C274 C273 1.376 . S
C274 C275 1.397 . S
C275 H250 0.950 . S
C275 C274 1.397 . S
C275 C276 1.391 . S
C276 C275 1.391 . S
C276 C277 1.405 . S
C277 H251 0.950 . S
C277 C276 1.405 . S
C277 C278 1.367 . S
C278 H252 0.950 . S
C278 C273 1.386 . S
C278 C277 1.367 . S
C279 C273 1.483 . S
C279 C280 1.382 . S
C279 C281 1.403 . S
C280 H253 0.950 . S
C280 C266 1.411 . S
C280 C279 1.382 . S
C281 C265 1.411 . S
C281 C279 1.403 . S
C281 C282 1.489 . S
C282 C281 1.489 . S
C282 C283 1.383 . S
C282 C287 1.382 . S
C283 H254 0.950 . S
C283 C282 1.383 . S
C283 C284 1.395 . S
C284 H255 0.950 . S
C284 C283 1.395 . S
C284 C285 1.288 1_554 S
C285 C284 1.288 1_556 S
C285 C286 1.392 . S
C286 H256 0.951 . S
C286 C285 1.392 . S
C286 C287 1.392 1_556 S
C287 H257 0.949 . S
C287 C282 1.382 . S
C287 C286 1.392 1_554 S
C288 O315 1.312 . S
C288 O316 1.208 . S
C289 O310 1.331 . S
C289 O313 1.244 . S
C290 O312 1.264 . S
C290 O314 1.273 . S
Mg291 O293 1.936 1_455 S
Mg291 O300 2.081 1_455 S
Mg291 O302 2.023 . S
Mg291 O306 2.031 1_455 S
Mg291 O315 2.291 . S
Mg292 O293 1.963 . S
Mg292 O303 1.942 . S
Mg292 O304 1.955 1_655 S
Mg292 O311 1.986 . S
O293 Mg291 1.936 1_655 S
O293 Mg292 1.963 . S
O293 Mg294 1.915 1_655 S
Mg294 O293 1.915 1_455 S
Mg294 O295 1.915 . S
Mg294 O299 2.013 . S
Mg294 O305 2.114 1_455 S
Mg294 O309 2.013 1_455 S
Mg294 O315 2.114 . S
O295 Mg294 1.915 . S
O295 Mg296 1.936 . S
O295 Mg297 1.963 . S
Mg296 O295 1.936 . S
Mg296 O305 2.291 1_455 S
Mg296 O310 2.081 . S
Mg296 O312 2.023 1_455 S
Mg296 O316 2.031 . S
Mg297 O295 1.963 . S
Mg297 O301 1.986 . S
Mg297 O313 1.942 . S
Mg297 O314 1.955 1_455 S
C298 O309 1.191 . S
C298 O311 1.307 . S
O299 Mg294 2.013 . S
O299 C318 1.191 . S
O300 Mg291 2.081 1_655 S
O300 C308 1.331 . S
O301 Mg297 1.986 . S
O301 C318 1.307 . S
O302 Mg291 2.023 . S
O302 C317 1.264 . S
O303 Mg292 1.942 . S
O303 C308 1.244 . S
O304 Mg292 1.955 1_455 S
O304 C317 1.273 . S
O305 Mg294 2.114 1_655 S
O305 Mg296 2.291 1_655 S
O305 C307 1.312 . S
O306 Mg291 2.031 1_655 S
O306 C307 1.208 . S
C307 O305 1.312 . S
C307 O306 1.208 . S
C308 O300 1.331 . S
C308 O303 1.244 . S
O309 Mg294 2.013 1_655 S
O309 C298 1.191 . S
O310 C289 1.331 . S
O310 Mg296 2.081 . S
O311 Mg292 1.986 . S
O311 C298 1.307 . S
O312 C290 1.264 . S
O312 Mg296 2.023 1_655 S
O313 C289 1.244 . S
O313 Mg297 1.942 . S
O314 C290 1.273 . S
O314 Mg297 1.955 1_655 S
O315 C288 1.312 . S
O315 Mg291 2.291 . S
O315 Mg294 2.114 . S
O316 C288 1.208 . S
O316 Mg296 2.031 . S
C317 O302 1.264 . S
C317 O304 1.273 . S
C318 O299 1.191 . S
C318 O301 1.307 . S
C319 O346 1.312 . S
C319 O347 1.208 . S
C320 O341 1.331 . S
C320 O344 1.244 . S
C321 O343 1.264 . S
C321 O345 1.273 . S
Mg322 O324 1.936 1_545 S
Mg322 O331 2.081 1_545 S
Mg322 O333 2.023 . S
Mg322 O337 2.031 1_545 S
Mg322 O346 2.291 . S
Mg323 O324 1.963 . S
Mg323 O334 1.942 . S
Mg323 O335 1.955 1_565 S
Mg323 O342 1.986 . S
O324 Mg322 1.936 1_565 S
O324 Mg323 1.963 . S
O324 Mg325 1.915 1_565 S
Mg325 O324 1.915 1_545 S
Mg325 O326 1.915 . S
Mg325 O330 2.013 . S
Mg325 O336 2.114 1_545 S
Mg325 O340 2.013 1_545 S
Mg325 O346 2.114 . S
O326 Mg325 1.915 . S
O326 Mg327 1.936 . S
O326 Mg328 1.963 . S
Mg327 O326 1.936 . S
Mg327 O336 2.291 1_545 S
Mg327 O341 2.081 . S
Mg327 O343 2.023 1_545 S
Mg327 O347 2.031 . S
Mg328 O326 1.963 . S
Mg328 O332 1.986 . S
Mg328 O344 1.942 . S
Mg328 O345 1.955 1_545 S
C329 O340 1.191 . S
C329 O342 1.307 . S
O330 Mg325 2.013 . S
O330 C349 1.191 . S
O331 Mg322 2.081 1_565 S
O331 C339 1.331 . S
O332 Mg328 1.986 . S
O332 C349 1.307 . S
O333 Mg322 2.023 . S
O333 C348 1.264 . S
O334 Mg323 1.942 . S
O334 C339 1.244 . S
O335 Mg323 1.955 1_545 S
O335 C348 1.273 . S
O336 Mg325 2.114 1_565 S
O336 Mg327 2.291 1_565 S
O336 C338 1.312 . S
O337 Mg322 2.031 1_565 S
O337 C338 1.208 . S
C338 O336 1.312 . S
C338 O337 1.208 . S
C339 O331 1.331 . S
C339 O334 1.244 . S
O340 Mg325 2.013 1_565 S
O340 C329 1.191 . S
O341 C320 1.331 . S
O341 Mg327 2.081 . S
O342 Mg323 1.986 . S
O342 C329 1.307 . S
O343 C321 1.264 . S
O343 Mg327 2.023 1_565 S
O344 C320 1.244 . S
O344 Mg328 1.942 . S
O345 C321 1.273 . S
O345 Mg328 1.955 1_565 S
O346 C319 1.312 . S
O346 Mg322 2.291 . S
O346 Mg325 2.114 . S
O347 C319 1.208 . S
O347 Mg327 2.031 . S
C348 O333 1.264 . S
C348 O335 1.273 . S
C349 O330 1.191 . S
C349 O332 1.307 . S
C350 O377 1.312 . S
C350 O378 1.208 . S
C351 O372 1.331 . S
C351 O375 1.244 . S
C352 O374 1.264 . S
C352 O376 1.273 . S
Mg353 O355 1.936 . S
Mg353 O362 2.081 . S
Mg353 O364 2.023 . S
Mg353 O368 2.031 . S
Mg353 O377 2.291 . S
Mg354 O355 1.963 . S
Mg354 O365 1.942 . S
Mg354 O366 1.955 . S
Mg354 O373 1.986 . S
O355 Mg353 1.936 . S
O355 Mg354 1.963 . S
O355 Mg356 1.915 . S
Mg356 O355 1.915 . S
Mg356 O357 1.915 . S
Mg356 O361 2.013 . S
Mg356 O367 2.114 . S
Mg356 O371 2.013 . S
Mg356 O377 2.114 . S
O357 Mg356 1.915 . S
O357 Mg358 1.936 . S
O357 Mg359 1.963 . S
Mg358 O357 1.936 . S
Mg358 O367 2.291 . S
Mg358 O372 2.081 . S
Mg358 O374 2.023 . S
Mg358 O378 2.031 . S
Mg359 O357 1.963 . S
Mg359 O363 1.986 . S
Mg359 O375 1.942 . S
Mg359 O376 1.955 . S
C360 O371 1.191 . S
C360 O373 1.307 . S
O361 Mg356 2.013 . S
O361 C380 1.191 . S
O362 Mg353 2.081 . S
O362 C370 1.331 . S
O363 Mg359 1.986 . S
O363 C380 1.307 . S
O364 Mg353 2.023 . S
O364 C379 1.264 . S
O365 Mg354 1.942 . S
O365 C370 1.244 . S
O366 Mg354 1.955 . S
O366 C379 1.273 . S
O367 Mg356 2.114 . S
O367 Mg358 2.291 . S
O367 C369 1.312 . S
O368 Mg353 2.031 . S
O368 C369 1.208 . S
C369 O367 1.312 . S
C369 O368 1.208 . S
C370 O362 1.331 . S
C370 O365 1.244 . S
O371 Mg356 2.013 . S
O371 C360 1.191 . S
O372 C351 1.331 . S
O372 Mg358 2.081 . S
O373 Mg354 1.986 . S
O373 C360 1.307 . S
O374 C352 1.264 . S
O374 Mg358 2.023 . S
O375 C351 1.244 . S
O375 Mg359 1.942 . S
O376 C352 1.273 . S
O376 Mg359 1.955 . S
O377 C350 1.312 . S
O377 Mg353 2.291 . S
O377 Mg356 2.114 . S
O378 C350 1.208 . S
O378 Mg358 2.031 . S
C379 O364 1.264 . S
C379 O366 1.273 . S
C380 O361 1.191 . S
C380 O363 1.307 . S
C45 C288 2.370 . S
C84 C320 1.638 . S
C379 C126 2.008 . S
C308 C165 1.321 . S
C222 C338 2.081 . S
C360 C276 1.802 . S
C329 C141 2.425 . S
C180 C369 1.733 . S
C318 C237 2.403 . S
C261 C348 1.446 . S
C30 C351 1.872 1_554 S
C290 C69 1.717 . S
C298 C174 2.263 . S
C339 C213 1.467 . S
C352 C285 2.018 . S
C289 C36 1.335 . S
C349 C93 1.955 . S
C117 C350 1.691 . S
C319 C270 2.297 . S
C380 C21 1.656 . S
C307 C78 2.203 . S
C321 C132 1.473 . S
C189 C370 1.856 . S
C228 C317 1.647 . S
