# Generated by pormake.
# Topology the, (3,8)-cn, num edge types: 1
# Building blocks:
#     Node 0, Type 0, BuildingBlock: ESEHIV_clean_linker_0, # of connection points: 3
#     Node 1, Type 0, BuildingBlock: ESEHIV_clean_linker_0, # of connection points: 3
#     Node 2, Type 0, BuildingBlock: ESEHIV_clean_linker_0, # of connection points: 3
#     Node 3, Type 0, BuildingBlock: ESEHIV_clean_linker_0, # of connection points: 3
#     Node 4, Type 0, BuildingBlock: ESEHIV_clean_linker_0, # of connection points: 3
#     Node 5, Type 0, BuildingBlock: ESEHIV_clean_linker_0, # of connection points: 3
#     Node 6, Type 0, BuildingBlock: ESEHIV_clean_linker_0, # of connection points: 3
#     Node 7, Type 0, BuildingBlock: ESEHIV_clean_linker_0, # of connection points: 3
#     Node 8, Type 1, BuildingBlock: GIZVER_clean_sbu_0, # of connection points: 8
#     Node 9, Type 1, BuildingBlock: GIZVER_clean_sbu_0, # of connection points: 8
#     Node 10, Type 1, BuildingBlock: GIZVER_clean_sbu_0, # of connection points: 8
#     Edge 11, Type (0, 1), BuildingBlock: XUDNAN_clean_linker_2, # of connection points: 2
#     Edge 12, Type (0, 1), BuildingBlock: XUDNAN_clean_linker_2, # of connection points: 2
#     Edge 13, Type (0, 1), BuildingBlock: XUDNAN_clean_linker_2, # of connection points: 2
#     Edge 14, Type (0, 1), BuildingBlock: XUDNAN_clean_linker_2, # of connection points: 2
#     Edge 15, Type (0, 1), BuildingBlock: XUDNAN_clean_linker_2, # of connection points: 2
#     Edge 16, Type (0, 1), BuildingBlock: XUDNAN_clean_linker_2, # of connection points: 2
#     Edge 17, Type (0, 1), BuildingBlock: XUDNAN_clean_linker_2, # of connection points: 2
#     Edge 18, Type (0, 1), BuildingBlock: XUDNAN_clean_linker_2, # of connection points: 2
#     Edge 19, Type (0, 1), BuildingBlock: XUDNAN_clean_linker_2, # of connection points: 2
#     Edge 20, Type (0, 1), BuildingBlock: XUDNAN_clean_linker_2, # of connection points: 2
#     Edge 21, Type (0, 1), BuildingBlock: XUDNAN_clean_linker_2, # of connection points: 2
#     Edge 22, Type (0, 1), BuildingBlock: XUDNAN_clean_linker_2, # of connection points: 2
#     Edge 23, Type (0, 1), BuildingBlock: XUDNAN_clean_linker_2, # of connection points: 2
#     Edge 24, Type (0, 1), BuildingBlock: XUDNAN_clean_linker_2, # of connection points: 2
#     Edge 25, Type (0, 1), BuildingBlock: XUDNAN_clean_linker_2, # of connection points: 2
#     Edge 26, Type (0, 1), BuildingBlock: XUDNAN_clean_linker_2, # of connection points: 2
#     Edge 27, Type (0, 1), BuildingBlock: XUDNAN_clean_linker_2, # of connection points: 2
#     Edge 28, Type (0, 1), BuildingBlock: XUDNAN_clean_linker_2, # of connection points: 2
#     Edge 29, Type (0, 1), BuildingBlock: XUDNAN_clean_linker_2, # of connection points: 2
#     Edge 30, Type (0, 1), BuildingBlock: XUDNAN_clean_linker_2, # of connection points: 2
#     Edge 31, Type (0, 1), BuildingBlock: XUDNAN_clean_linker_2, # of connection points: 2
#     Edge 32, Type (0, 1), BuildingBlock: XUDNAN_clean_linker_2, # of connection points: 2
#     Edge 33, Type (0, 1), BuildingBlock: XUDNAN_clean_linker_2, # of connection points: 2
#     Edge 34, Type (0, 1), BuildingBlock: XUDNAN_clean_linker_2, # of connection points: 2
# Relax obj value: 0.048
# Max RMSD: 0.137
# Mean RMSD: 0.072
data_MOF--net-the--node1-GIZVER_clean_sbu_0--node2-ESEHIV_clean_linker_0--edge1-XUDNAN_clean_linker_2
_symmetry_space_group_name_H-M    P1
_symmetry_Int_Tables_number       1
_symmetry_cell_setting            triclinic
loop_
_symmetry_equiv_pos_as_xyz
'x, y, z'
_cell_length_a     39.119138
_cell_length_b     36.886297
_cell_length_c     34.037313
_cell_angle_alpha  86.190227
_cell_angle_beta   95.4274
_cell_angle_gamma 104.09724
loop_
_atom_site_label
_atom_site_type_symbol
_atom_site_fract_x
_atom_site_fract_y
_atom_site_fract_z
_atom_type_partial_charge
H0 H 0.34413 0.4338 0.41073 0.0
H1 H 0.39496 0.34488 0.39857 0.0
H2 H 0.33475 0.34346 0.49856 0.0
C3 C 0.35159 0.40859 0.42281 0.0
C4 C 0.33835 0.39148 0.45803 0.0
C5 C 0.37166 0.3918 0.40107 0.0
C6 C 0.38042 0.3586 0.41601 0.0
C7 C 0.36724 0.34098 0.45129 0.0
C8 C 0.34601 0.35748 0.47208 0.0
H9 H 0.73479 0.28528 0.36765 0.0
H10 H 0.74037 0.39248 0.30532 0.0
H11 H 0.65124 0.30024 0.28272 0.0
C12 C 0.72371 0.30388 0.3472 0.0
C13 C 0.69039 0.2893 0.32758 0.0
C14 C 0.7428 0.34122 0.33965 0.0
C15 C 0.72744 0.36344 0.31091 0.0
C16 C 0.69471 0.34882 0.28963 0.0
C17 C 0.67648 0.3118 0.29856 0.0
H18 H 0.66749 0.73029 0.30906 0.0
H19 H 0.762 0.69062 0.31079 0.0
H20 H 0.75236 0.76678 0.39753 0.0
C21 C 0.6941 0.73047 0.3213 0.0
C22 C 0.70795 0.7513 0.35487 0.0
C23 C 0.71355 0.70872 0.30469 0.0
C24 C 0.74733 0.70798 0.32277 0.0
C25 C 0.76176 0.72812 0.35677 0.0
C26 C 0.74203 0.75073 0.37172 0.0
H27 H 0.2855 0.74175 0.36245 0.0
H28 H 0.373 0.72175 0.30796 0.0
H29 H 0.28225 0.63128 0.3242 0.0
C30 C 0.29707 0.7223 0.34902 0.0
C31 C 0.27875 0.68439 0.3457 0.0
C32 C 0.33133 0.73554 0.33679 0.0
C33 C 0.34654 0.71163 0.31754 0.0
C34 C 0.32819 0.67436 0.3117 0.0
C35 C 0.29493 0.66065 0.32682 0.0
H36 H 0.30313 0.73317 0.6825 0.0
H37 H 0.30109 0.64569 0.77079 0.0
H38 H 0.40021 0.72402 0.74902 0.0
C39 C 0.31763 0.71915 0.70474 0.0
C40 C 0.35426 0.73319 0.7133 0.0
C41 C 0.29891 0.68678 0.72405 0.0
C42 C 0.31639 0.66975 0.75512 0.0
C43 C 0.35318 0.68273 0.76496 0.0
C44 C 0.37186 0.71455 0.74344 0.0
H45 H 0.33443 0.37202 0.74707 0.0
H46 H 0.37833 0.27473 0.75227 0.0
H47 H 0.30507 0.2935 0.65573 0.0
C48 C 0.33605 0.34569 0.73609 0.0
C49 C 0.31571 0.33366 0.70102 0.0
C50 C 0.35896 0.32482 0.7557 0.0
C51 C 0.36158 0.292 0.73816 0.0
C52 C 0.343 0.281 0.70175 0.0
C53 C 0.31921 0.30135 0.68403 0.0
H54 H 0.66259 0.30713 0.73618 0.0
H55 H 0.74493 0.28565 0.67317 0.0
H56 H 0.76809 0.37886 0.74813 0.0
C57 C 0.69002 0.3147 0.72961 0.0
C58 C 0.71351 0.3469 0.74542 0.0
C59 C 0.70143 0.29243 0.70395 0.0
C60 C 0.73633 0.3027 0.69319 0.0
C61 C 0.76045 0.33403 0.70895 0.0
C62 C 0.74903 0.35527 0.73563 0.0
H63 H 0.64777 0.69305 0.64496 0.0
H64 H 0.70308 0.6083 0.63009 0.0
H65 H 0.71023 0.70125 0.5456 0.0
C66 C 0.66415 0.68151 0.62767 0.0
C67 C 0.67714 0.70071 0.59302 0.0
C68 C 0.67309 0.64793 0.64081 0.0
C69 C 0.69532 0.63371 0.61933 0.0
C70 C 0.70915 0.65314 0.58525 0.0
C71 C 0.69932 0.68609 0.57173 0.0
Co72 Co 0.10029 0.49152 0.55559 0.0
Co73 Co 0.066 0.46971 0.4863 0.0
Co74 Co 0.0212 0.51313 0.53036 0.0
O75 O 0.05063 0.47507 0.53671 0.0
H76 H 0.0386 0.45145 0.5486 0.0
O77 O 0.99361 0.55216 0.52434 0.0
Co78 Co 0.97006 0.56899 0.47619 0.0
Co79 Co 0.94884 0.53101 0.53386 0.0
H80 H 1.00343 0.57241 0.54177 0.0
O81 O 0.09129 0.43346 0.47587 0.0
O82 O 0.11323 0.48898 0.50207 0.0
O83 O 0.05732 0.50573 0.4447 0.0
O84 O 0.05107 0.54444 0.48915 0.0
O85 O 0.98966 0.48192 0.48879 0.0
O86 O 0.94944 0.58963 0.43428 0.0
O87 O 0.97372 0.61575 0.49144 0.0
O88 O 0.96111 0.52115 0.45496 0.0
O89 O 0.99057 0.48183 0.57211 0.0
O90 O 0.93688 0.47818 0.5425 0.0
O91 O 0.92248 0.55211 0.49732 0.0
O92 O 0.92872 0.55718 0.56387 0.0
C93 C 0.13946 0.46623 0.57956 0.0
C94 C 0.08564 0.55555 0.56968 0.0
C95 C 0.0611 0.53874 0.45584 0.0
C96 C 0.11836 0.45932 0.48797 0.0
C97 C 0.9556 0.61764 0.45745 0.0
C98 C 0.96732 0.4889 0.46119 0.0
C99 C 0.95758 0.46514 0.56725 0.0
C100 C 0.91298 0.5631 0.52943 0.0
O101 O 0.1453 0.50231 0.57353 0.0
O102 O 0.10795 0.44534 0.57009 0.0
O103 O 0.05263 0.54344 0.57327 0.0
O104 O 0.0994 0.54144 0.54426 0.0
Co105 Co 0.54849 0.94218 0.4955 0.0
Co106 Co 0.56607 0.97262 0.56582 0.0
Co107 Co 0.51646 0.01666 0.51571 0.0
O108 O 0.55723 0.9927 0.51422 0.0
H109 H 0.57811 1.00959 0.50479 0.0
O110 O 0.47562 0.03967 0.51723 0.0
Co111 Co 0.48138 0.08781 0.53858 0.0
Co112 Co 0.46507 0.0606 0.46745 0.0
H113 H 0.45491 0.02184 0.52577 0.0
O114 O 0.60926 0.96069 0.58011 0.0
O115 O 0.56037 0.92456 0.54976 0.0
O116 O 0.53059 0.9662 0.6036 0.0
O117 O 0.49179 0.97834 0.55582 0.0
O118 O 0.54387 0.0493 0.55877 0.0
O119 O 0.48208 0.13112 0.55963 0.0
O120 O 0.43603 0.08145 0.54994 0.0
O121 O 0.53024 0.10023 0.53098 0.0
O122 O 0.54098 0.05524 0.47532 0.0
O123 O 0.49936 0.06468 0.4291 0.0
O124 O 0.47069 0.10836 0.48508 0.0
O125 O 0.42175 0.0735 0.45391 0.0
C126 C 0.57654 0.90845 0.47303 0.0
C127 C 0.48248 0.94832 0.47761 0.0
C128 C 0.4989 0.96272 0.58929 0.0
C129 C 0.59264 0.92905 0.56539 0.0
C130 C 0.44891 0.11492 0.56309 0.0
C131 C 0.54974 0.08497 0.55535 0.0
C132 C 0.53164 0.06794 0.44106 0.0
C133 C 0.43871 0.10488 0.46897 0.0
O134 O 0.54323 0.89741 0.47855 0.0
O135 O 0.59347 0.94257 0.48198 0.0
O136 O 0.48863 0.98391 0.47286 0.0
O137 O 0.50076 0.93415 0.5044 0.0
Co138 Co 0.49247 0.53962 0.11174 0.0
Co139 Co 0.48051 0.47145 0.08737 0.0
Co140 Co 0.5302 0.52314 0.02922 0.0
O141 O 0.48883 0.51816 0.06116 0.0
H142 H 0.4678 0.52086 0.04508 0.0
O143 O 0.57143 0.52891 0.99616 0.0
Co144 Co 0.56627 0.49953 0.95023 0.0
Co145 Co 0.57816 0.57133 0.96128 0.0
H146 H 0.59305 0.52864 1.01234 0.0
O147 O 0.43688 0.44945 0.10556 0.0
O148 O 0.48312 0.48862 0.1375 0.0
O149 O 0.51663 0.44393 0.09012 0.0
O150 O 0.55653 0.49317 0.06852 0.0
O151 O 0.50383 0.47571 1.00311 0.0
O152 O 0.56591 0.47128 0.90937 0.0
O153 O 0.61236 0.49864 0.95034 0.0
O154 O 0.51754 0.49705 0.94375 0.0
O155 O 0.50378 0.55278 0.98948 0.0
O156 O 0.54074 0.59739 0.95616 0.0
O157 O 0.57304 0.54495 0.91528 0.0
O158 O 0.61924 0.59114 0.93414 0.0
C159 C 0.45859 0.55501 0.14694 0.0
C160 C 0.56197 0.56774 0.09562 0.0
C161 C 0.54857 0.46134 0.08727 0.0
C162 C 0.45203 0.46566 0.13753 0.0
C163 C 0.59951 0.47759 0.92049 0.0
C164 C 0.49777 0.474 0.96582 0.0
C165 C 0.5098 0.58159 0.96548 0.0
C166 C 0.60244 0.56828 0.90754 0.0
O167 O 0.49194 0.55908 0.15821 0.0
O168 O 0.44612 0.54067 0.11288 0.0
O169 O 0.55667 0.56913 0.05783 0.0
O170 O 0.54156 0.54353 0.11662 0.0
H171 H 0.27169 0.3544 0.47381 0.0
H172 H 0.34526 0.46317 0.47879 0.0
H173 H 0.29679 0.49178 0.492 0.0
H174 H 0.20397 0.38208 0.42139 0.0
H175 H 0.1683 0.35214 0.44655 0.0
H176 H 0.20934 0.33857 0.44555 0.0
H177 H 0.2156 0.33261 0.52189 0.0
H178 H 0.1744 0.34596 0.52383 0.0
H179 H 0.2142 0.37192 0.5499 0.0
H180 H 0.23973 0.50969 0.49305 0.0
H181 H 0.17809 0.51529 0.49029 0.0
H182 H 0.14099 0.39471 0.48444 0.0
C183 C 0.2778 0.38393 0.47948 0.0
C184 C 0.31211 0.40665 0.4758 0.0
C185 C 0.31909 0.44541 0.48193 0.0
C186 C 0.29176 0.46184 0.48931 0.0
C187 C 0.25778 0.43899 0.4906 0.0
C188 C 0.25077 0.40078 0.48661 0.0
C189 C 0.21152 0.3831 0.48603 0.0
C190 C 0.19748 0.36279 0.44759 0.0
C191 C 0.20341 0.35678 0.52257 0.0
C192 C 0.19741 0.41754 0.48818 0.0
C193 C 0.22461 0.44941 0.49124 0.0
C194 C 0.21824 0.48487 0.49148 0.0
C195 C 0.18314 0.48774 0.4897 0.0
C196 C 0.15486 0.45536 0.4874 0.0
C197 C 0.16212 0.41987 0.48628 0.0
H198 H 0.67873 0.25495 0.40127 0.0
H199 H 0.6544 0.2363 0.27612 0.0
H200 H 0.61529 0.17473 0.29192 0.0
H201 H 0.67763 0.15679 0.43349 0.0
H202 H 0.65694 0.15927 0.47805 0.0
H203 H 0.68548 0.20063 0.4573 0.0
H204 H 0.63542 0.23529 0.45539 0.0
H205 H 0.60625 0.19418 0.4755 0.0
H206 H 0.59325 0.21583 0.42937 0.0
H207 H 0.57379 0.11867 0.32079 0.0
H208 H 0.53432 0.07096 0.36117 0.0
H209 H 0.58754 0.1234 0.46776 0.0
C210 C 0.66586 0.2375 0.37722 0.0
C211 C 0.66967 0.25056 0.33739 0.0
C212 C 0.65168 0.22715 0.30681 0.0
C213 C 0.62956 0.19199 0.3155 0.0
C214 C 0.62582 0.1803 0.35497 0.0
C215 C 0.64366 0.20218 0.3854 0.0
C216 C 0.63327 0.18391 0.42526 0.0
C217 C 0.66524 0.17459 0.44997 0.0
C218 C 0.61603 0.20879 0.44768 0.0
C219 C 0.60655 0.14861 0.41242 0.0
C220 C 0.60261 0.14714 0.37171 0.0
C221 C 0.5772 0.11905 0.3527 0.0
C222 C 0.55492 0.09206 0.3758 0.0
C223 C 0.55852 0.09297 0.41749 0.0
C224 C 0.58508 0.12129 0.43598 0.0
H225 H 0.81873 0.7096 0.32636 0.0
H226 H 0.78211 0.73204 0.43707 0.0
H227 H 0.83476 0.7172 0.47282 0.0
H228 H 0.84041 0.62712 0.36541 0.0
H229 H 0.87716 0.63158 0.33575 0.0
H230 H 0.84101 0.652 0.31796 0.0
H231 H 0.88509 0.71658 0.30945 0.0
H232 H 0.92136 0.6963 0.32777 0.0
H233 H 0.91416 0.73597 0.35112 0.0
H234 H 0.88969 0.69549 0.49769 0.0
H235 H 0.9352 0.65918 0.51027 0.0
H236 H 0.92981 0.64109 0.38501 0.0
C237 C 0.82138 0.71163 0.35808 0.0
C238 C 0.79575 0.72273 0.3783 0.0
C239 C 0.80145 0.72513 0.42005 0.0
C240 C 0.83139 0.71643 0.44093 0.0
C241 C 0.85538 0.70473 0.41999 0.0
C242 C 0.8503 0.70165 0.37955 0.0
C243 C 0.87669 0.68285 0.36467 0.0
C244 C 0.85768 0.64622 0.34479 0.0
C245 C 0.90075 0.70953 0.33659 0.0
C246 C 0.89712 0.67531 0.40315 0.0
C247 C 0.88518 0.68923 0.43458 0.0
C248 C 0.89941 0.68476 0.47322 0.0
C249 C 0.92549 0.66429 0.48005 0.0
C250 C 0.93615 0.6474 0.44859 0.0
C251 C 0.92241 0.65395 0.40958 0.0
H252 H 0.39046 0.75073 0.38731 0.0
H253 H 0.31796 0.80408 0.31494 0.0
H254 H 0.34995 0.86571 0.34076 0.0
H255 H 0.3938 0.80315 0.47128 0.0
H256 H 0.43967 0.80516 0.4861 0.0
H257 H 0.4135 0.76652 0.45864 0.0
H258 H 0.45869 0.78034 0.40525 0.0
H259 H 0.48503 0.81878 0.43291 0.0
H260 H 0.47029 0.82656 0.38198 0.0
H261 H 0.39021 0.92184 0.37677 0.0
H262 H 0.43246 0.96561 0.42113 0.0
H263 H 0.4741 0.87294 0.47312 0.0
C264 C 0.38193 0.77559 0.37622 0.0
C265 C 0.35237 0.773 0.34849 0.0
C266 C 0.341 0.80578 0.33569 0.0
C267 C 0.35896 0.84078 0.35026 0.0
C268 C 0.38785 0.84236 0.3781 0.0
C269 C 0.39905 0.81047 0.39106 0.0
C270 C 0.42896 0.81888 0.4232 0.0
C271 C 0.41833 0.79714 0.4621 0.0
C272 C 0.46274 0.81066 0.41001 0.0
C273 C 0.43291 0.86044 0.42645 0.0
C274 C 0.40938 0.87377 0.39995 0.0
C275 C 0.40871 0.91158 0.39763 0.0
C276 C 0.43276 0.93626 0.42295 0.0
C277 C 0.45676 0.9229 0.45062 0.0
C278 C 0.45639 0.88436 0.45228 0.0
H279 H 0.27518 0.67185 0.64775 0.0
H280 H 0.23968 0.66054 0.76571 0.0
H281 H 0.17892 0.63011 0.73869 0.0
H282 H 0.19623 0.69036 0.59426 0.0
H283 H 0.19913 0.66301 0.55327 0.0
H284 H 0.23875 0.68579 0.58189 0.0
H285 H 0.25584 0.62216 0.59577 0.0
H286 H 0.21645 0.59938 0.56693 0.0
H287 H 0.22479 0.58321 0.61723 0.0
H288 H 0.12145 0.59915 0.69716 0.0
H289 H 0.07581 0.56648 0.64719 0.0
H290 H 0.15108 0.59811 0.55801 0.0
C291 C 0.2545 0.66354 0.66787 0.0
C292 C 0.262 0.66907 0.70876 0.0
C293 C 0.23444 0.65673 0.73425 0.0
C294 C 0.19986 0.63961 0.71911 0.0
C295 C 0.19338 0.63474 0.67846 0.0
C296 C 0.22018 0.64614 0.65336 0.0
C297 C 0.20738 0.63574 0.61134 0.0
C298 C 0.21056 0.67082 0.58356 0.0
C299 C 0.2273 0.60851 0.597 0.0
C300 C 0.16913 0.61667 0.61648 0.0
C301 C 0.16121 0.61653 0.65522 0.0
C302 C 0.12745 0.59932 0.66674 0.0
C303 C 0.10159 0.58104 0.63816 0.0
C304 C 0.10985 0.57981 0.59873 0.0
C305 C 0.14388 0.59861 0.58791 0.0
H306 H 0.40827 0.27197 0.68934 0.0
H307 H 0.29643 0.22262 0.66446 0.0
H308 H 0.31098 0.17457 0.62568 0.0
H309 H 0.43303 0.26061 0.5948 0.0
H310 H 0.47475 0.24982 0.6116 0.0
H311 H 0.45656 0.27904 0.63999 0.0
H312 H 0.45818 0.23542 0.70208 0.0
H313 H 0.47796 0.20644 0.67524 0.0
H314 H 0.43803 0.18612 0.6991 0.0
H315 H 0.33854 0.13117 0.59039 0.0
H316 H 0.37634 0.09753 0.56027 0.0
H317 H 0.46977 0.17793 0.60593 0.0
C318 C 0.38682 0.25066 0.6763 0.0
C319 C 0.3512 0.25067 0.68034 0.0
C320 C 0.32389 0.22299 0.66184 0.0
C321 C 0.33192 0.19562 0.63983 0.0
C322 C 0.36739 0.1966 0.63625 0.0
C323 C 0.39436 0.22351 0.65394 0.0
C324 C 0.43026 0.21941 0.6446 0.0
C325 C 0.44981 0.25427 0.62134 0.0
C326 C 0.4524 0.21136 0.68251 0.0
C327 C 0.41941 0.18569 0.6192 0.0
C328 C 0.38306 0.17276 0.61483 0.0
C329 C 0.36702 0.14116 0.59355 0.0
C330 C 0.3887 0.12217 0.57664 0.0
C331 C 0.42601 0.13506 0.58072 0.0
C332 C 0.44135 0.16744 0.60205 0.0
H333 H 0.78079 0.33782 0.63375 0.0
H334 H 0.82282 0.35838 0.75485 0.0
H335 H 0.88242 0.38464 0.73204 0.0
H336 H 0.86108 0.31551 0.5983 0.0
H337 H 0.85489 0.33926 0.55109 0.0
H338 H 0.81712 0.31646 0.57762 0.0
H339 H 0.79683 0.37857 0.57453 0.0
H340 H 0.83426 0.40121 0.54783 0.0
H341 H 0.82711 0.42014 0.59301 0.0
H342 H 0.93582 0.41661 0.69478 0.0
H343 H 0.9756 0.45425 0.64671 0.0
H344 H 0.89865 0.41086 0.55079 0.0
C345 C 0.80273 0.34664 0.65564 0.0
C346 C 0.79711 0.34581 0.69612 0.0
C347 C 0.82641 0.35886 0.72364 0.0
C348 C 0.86045 0.3735 0.71099 0.0
C349 C 0.86493 0.37463 0.67071 0.0
C350 C 0.83678 0.36134 0.64348 0.0
C351 C 0.84746 0.36944 0.60162 0.0
C352 C 0.845 0.33299 0.58095 0.0
C353 C 0.82511 0.3938 0.57789 0.0
C354 C 0.88556 0.39075 0.6094 0.0
C355 C 0.89555 0.39289 0.64939 0.0
C356 C 0.92853 0.41442 0.6634 0.0
C357 C 0.95114 0.43552 0.63592 0.0
C358 C 0.94032 0.4352 0.59508 0.0
C359 C 0.90783 0.4112 0.58184 0.0
H360 H 0.61385 0.7204 0.59058 0.0
H361 H 0.72429 0.76416 0.56919 0.0
H362 H 0.7133 0.8268 0.55384 0.0
H363 H 0.57748 0.77834 0.51501 0.0
H364 H 0.54433 0.78627 0.54455 0.0
H365 H 0.55877 0.74327 0.55131 0.0
H366 H 0.57624 0.75355 0.62518 0.0
H367 H 0.56061 0.79577 0.62034 0.0
H368 H 0.60523 0.79714 0.64035 0.0
H369 H 0.69249 0.88564 0.54988 0.0
H370 H 0.66178 0.9365 0.55311 0.0
H371 H 0.56448 0.85433 0.57424 0.0
C372 C 0.63558 0.7431 0.58218 0.0
C373 C 0.66983 0.73746 0.58083 0.0
C374 C 0.69768 0.76777 0.56974 0.0
C375 C 0.69175 0.80345 0.56109 0.0
C376 C 0.65779 0.8082 0.5634 0.0
C377 C 0.63009 0.77883 0.57334 0.0
C378 C 0.59667 0.79187 0.57609 0.0
C379 C 0.56758 0.7739 0.54487 0.0
C380 C 0.58396 0.78413 0.61797 0.0
C381 C 0.61016 0.83331 0.56711 0.0
C382 C 0.64551 0.84218 0.55995 0.0
C383 C 0.66467 0.87906 0.55475 0.0
C384 C 0.6472 0.90768 0.55705 0.0
C385 C 0.61096 0.89901 0.56391 0.0
C386 C 0.59215 0.86144 0.56848 0.0
H387 H 0.42891 0.31778 0.46015 0.0
H388 H 0.31572 0.27875 0.46735 0.0
H389 H 0.32201 0.21362 0.47732 0.0
H390 H 0.44016 0.24716 0.40569 0.0
H391 H 0.48182 0.2426 0.43044 0.0
H392 H 0.46949 0.28657 0.42943 0.0
H393 H 0.47662 0.28664 0.50646 0.0
H394 H 0.49058 0.2435 0.50671 0.0
H395 H 0.45426 0.24587 0.53433 0.0
H396 H 0.33951 0.1526 0.47611 0.0
H397 H 0.36814 0.10024 0.47175 0.0
H398 H 0.47021 0.17922 0.46917 0.0
C399 C 0.40565 0.29552 0.46481 0.0
C400 C 0.37188 0.30309 0.4632 0.0
C401 C 0.34187 0.27344 0.46905 0.0
C402 C 0.34518 0.23641 0.47457 0.0
C403 C 0.37874 0.22972 0.47484 0.0
C404 C 0.40858 0.25851 0.47101 0.0
C405 C 0.44133 0.24365 0.4704 0.0
C406 C 0.45923 0.25571 0.43168 0.0
C407 C 0.46724 0.25567 0.50663 0.0
C408 C 0.42503 0.20205 0.47279 0.0
C409 C 0.38893 0.19452 0.4754 0.0
C410 C 0.36786 0.15812 0.47486 0.0
C411 C 0.38424 0.12864 0.47198 0.0
C412 C 0.42128 0.13586 0.47024 0.0
C413 C 0.44185 0.17298 0.47092 0.0
H414 H 0.7975 0.40265 0.31889 0.0
H415 H 0.77018 0.31681 0.41262 0.0
H416 H 0.82854 0.33948 0.44659 0.0
H417 H 0.89103 0.40934 0.32142 0.0
H418 H 0.90266 0.4597 0.31628 0.0
H419 H 0.86044 0.43377 0.29533 0.0
H420 H 0.8282 0.47141 0.33454 0.0
H421 H 0.8703 0.49788 0.35493 0.0
H422 H 0.83749 0.47348 0.38735 0.0
H423 H 0.8905 0.37146 0.47161 0.0
H424 H 0.94494 0.41789 0.49253 0.0
H425 H 0.92829 0.48901 0.38927 0.0
C426 C 0.80311 0.38836 0.34659 0.0
C427 C 0.77845 0.3566 0.36162 0.0
C428 C 0.7883 0.33969 0.39846 0.0
C429 C 0.82166 0.35265 0.41857 0.0
C430 C 0.84509 0.38346 0.40251 0.0
C431 C 0.83584 0.4018 0.36798 0.0
C432 C 0.86416 0.4371 0.35966 0.0
C433 C 0.88054 0.43482 0.32086 0.0
C434 C 0.84914 0.47203 0.3591 0.0
C435 C 0.89063 0.43576 0.39507 0.0
C436 C 0.87955 0.40395 0.41879 0.0
C437 C 0.8994 0.39649 0.45327 0.0
C438 C 0.93056 0.42296 0.46474 0.0
C439 C 0.94111 0.45716 0.44254 0.0
C440 C 0.9212 0.46302 0.40668 0.0
H441 H 0.72285 0.8237 0.38157 0.0
H442 H 0.64119 0.72031 0.37416 0.0
H443 H 0.60144 0.74916 0.40648 0.0
H444 H 0.70163 0.84927 0.47825 0.0
H445 H 0.7099 0.89858 0.46508 0.0
H446 H 0.73365 0.86977 0.44338 0.0
H447 H 0.71214 0.89132 0.37336 0.0
H448 H 0.68844 0.92026 0.3948 0.0
H449 H 0.66541 0.8856 0.36047 0.0
H450 H 0.56992 0.78781 0.43657 0.0
H451 H 0.54604 0.83536 0.46292 0.0
H452 H 0.64593 0.91716 0.45129 0.0
C453 C 0.69667 0.8072 0.38709 0.0
C454 C 0.68494 0.76979 0.37494 0.0
C455 C 0.6505 0.74911 0.38252 0.0
C456 C 0.62783 0.76516 0.40118 0.0
C457 C 0.63987 0.80203 0.41225 0.0
C458 C 0.67336 0.823 0.40564 0.0
C459 C 0.67856 0.86264 0.41947 0.0
C460 C 0.70768 0.87053 0.45357 0.0
C461 C 0.68662 0.89167 0.38496 0.0
C462 C 0.64242 0.86071 0.43382 0.0
C463 C 0.62099 0.82515 0.42968 0.0
C464 C 0.58639 0.81578 0.43996 0.0
C465 C 0.57302 0.84336 0.45475 0.0
C466 C 0.59377 0.88052 0.4587 0.0
C467 C 0.62928 0.88919 0.44849 0.0
H468 H 0.22405 0.62187 0.32597 0.0
H469 H 0.25395 0.71152 0.40881 0.0
H470 H 0.19731 0.68916 0.43725 0.0
H471 H 0.12957 0.61333 0.3142 0.0
H472 H 0.11863 0.5629 0.31621 0.0
H473 H 0.1596 0.58864 0.29748 0.0
H474 H 0.19481 0.55359 0.34879 0.0
H475 H 0.1539 0.52736 0.36709 0.0
H476 H 0.1881 0.55364 0.40047 0.0
H477 H 0.1382 0.65669 0.45899 0.0
H478 H 0.08578 0.61041 0.47995 0.0
H479 H 0.09666 0.53689 0.38969 0.0
C480 C 0.21911 0.63707 0.35006 0.0
C481 C 0.24389 0.66971 0.36361 0.0
C482 C 0.23542 0.68788 0.39572 0.0
C483 C 0.20313 0.67511 0.41267 0.0
C484 C 0.1795 0.64334 0.39827 0.0
C485 C 0.18739 0.62396 0.36839 0.0
C486 C 0.15913 0.58801 0.3618 0.0
C487 C 0.14064 0.58826 0.31993 0.0
C488 C 0.17493 0.55363 0.37004 0.0
C489 C 0.13426 0.59033 0.39272 0.0
C490 C 0.14624 0.62292 0.41281 0.0
C491 C 0.1285 0.63107 0.44345 0.0
C492 C 0.09852 0.60455 0.455 0.0
C493 C 0.08682 0.56979 0.43656 0.0
C494 C 0.1045 0.56324 0.40419 0.0
H495 H 0.41444 0.7894 0.7352 0.0
H496 H 0.3393 0.75187 0.63497 0.0
H497 H 0.36436 0.80924 0.59725 0.0
H498 H 0.42119 0.88785 0.72253 0.0
H499 H 0.4685 0.90167 0.73285 0.0
H500 H 0.44364 0.8585 0.75447 0.0
H501 H 0.48259 0.82162 0.72443 0.0
H502 H 0.50796 0.86477 0.70335 0.0
H503 H 0.48755 0.82655 0.67208 0.0
H504 H 0.39382 0.87186 0.5712 0.0
H505 H 0.43547 0.9299 0.5516 0.0
H506 H 0.49875 0.92485 0.66306 0.0
C507 C 0.40336 0.79296 0.70525 0.0
C508 C 0.3734 0.76638 0.68921 0.0
C509 C 0.3606 0.77234 0.64937 0.0
C510 C 0.37494 0.80489 0.62727 0.0
C511 C 0.40317 0.83103 0.6445 0.0
C512 C 0.41822 0.82499 0.68196 0.0
C513 C 0.45062 0.85653 0.69161 0.0
C514 C 0.44568 0.87737 0.7275 0.0
C515 C 0.48417 0.84146 0.69825 0.0
C516 C 0.45089 0.88123 0.65388 0.0
C517 C 0.42269 0.86614 0.62764 0.0
C518 C 0.4163 0.8838 0.59126 0.0
C519 C 0.44011 0.9171 0.58055 0.0
C520 C 0.47067 0.93221 0.60563 0.0
C521 C 0.47569 0.91421 0.6432 0.0
H522 H 0.24316 0.31992 0.69042 0.0
H523 H 0.33972 0.40081 0.6639 0.0
H524 H 0.30462 0.44158 0.62754 0.0
H525 H 0.19183 0.32878 0.60112 0.0
H526 H 0.15081 0.32878 0.62117 0.0
H527 H 0.18131 0.30435 0.64738 0.0
H528 H 0.18616 0.34021 0.70985 0.0
H529 H 0.15342 0.36344 0.68678 0.0
H530 H 0.19544 0.39058 0.70688 0.0
H531 H 0.26035 0.47479 0.598 0.0
H532 H 0.2088 0.49947 0.57501 0.0
H533 H 0.13889 0.39687 0.61741 0.0
C534 C 0.25668 0.34616 0.67667 0.0
C535 C 0.29403 0.35745 0.6796 0.0
C536 C 0.31112 0.39198 0.66184 0.0
C537 C 0.29142 0.41515 0.64113 0.0
C538 C 0.25465 0.40346 0.63883 0.0
C539 C 0.2373 0.36997 0.65626 0.0
C540 C 0.19744 0.36528 0.65083 0.0
C541 C 0.17927 0.32976 0.62875 0.0
C542 C 0.18223 0.36486 0.69097 0.0
C543 C 0.19519 0.40077 0.62634 0.0
C544 C 0.22866 0.42254 0.62057 0.0
C545 C 0.234 0.45788 0.60189 0.0
C546 C 0.20443 0.47165 0.58897 0.0
C547 C 0.16972 0.44989 0.59379 0.0
C548 C 0.16506 0.4138 0.61255 0.0
H549 H 0.67594 0.2779 0.62733 0.0
H550 H 0.67348 0.22876 0.7465 0.0
H551 H 0.63747 0.16864 0.72106 0.0
H552 H 0.58525 0.23247 0.59563 0.0
H553 H 0.59519 0.22681 0.54608 0.0
H554 H 0.62143 0.26517 0.57394 0.0
H555 H 0.67791 0.24367 0.56262 0.0
H556 H 0.65174 0.20479 0.53543 0.0
H557 H 0.68078 0.19662 0.57761 0.0
H558 H 0.60387 0.11289 0.68172 0.0
H559 H 0.5678 0.06894 0.63321 0.0
H560 H 0.58842 0.15605 0.54054 0.0
C561 C 0.66756 0.25445 0.64796 0.0
C562 C 0.67736 0.25771 0.68883 0.0
C563 C 0.66597 0.22667 0.71512 0.0
C564 C 0.64577 0.19244 0.70088 0.0
C565 C 0.63682 0.1899 0.66032 0.0
C566 C 0.64676 0.22032 0.63431 0.0
C567 C 0.63231 0.21074 0.59235 0.0
C568 C 0.60703 0.23525 0.57606 0.0
C569 C 0.66248 0.21416 0.56543 0.0
C570 C 0.61263 0.17026 0.59881 0.0
C571 C 0.61611 0.1585 0.63807 0.0
C572 C 0.60078 0.12191 0.65095 0.0
C573 C 0.58057 0.09704 0.62319 0.0
C574 C 0.57531 0.10914 0.58323 0.0
C575 C 0.59195 0.1461 0.57096 0.0
H576 H 0.76799 0.63768 0.62325 0.0
H577 H 0.71462 0.64473 0.50645 0.0
H578 H 0.76367 0.62663 0.47738 0.0
H579 H 0.85723 0.67443 0.59378 0.0
H580 H 0.87534 0.64399 0.62901 0.0
H581 H 0.83696 0.6594 0.6394 0.0
H582 H 0.80233 0.59027 0.64963 0.0
H583 H 0.8406 0.57474 0.63943 0.0
H584 H 0.79907 0.55819 0.61095 0.0
H585 H 0.81729 0.60289 0.46271 0.0
H586 H 0.87007 0.57681 0.4638 0.0
H587 H 0.88722 0.58842 0.59073 0.0
C588 C 0.76647 0.63513 0.59156 0.0
C589 C 0.73744 0.64184 0.56705 0.0
C590 C 0.73671 0.63933 0.52563 0.0
C591 C 0.7644 0.6292 0.50895 0.0
C592 C 0.79259 0.62235 0.53422 0.0
C593 C 0.7938 0.62553 0.57461 0.0
C594 C 0.82635 0.61614 0.59574 0.0
C595 C 0.85039 0.65055 0.61564 0.0
C596 C 0.81648 0.58286 0.62567 0.0
C597 C 0.84281 0.60579 0.56117 0.0
C598 C 0.82332 0.60979 0.5258 0.0
C599 C 0.83284 0.59992 0.49024 0.0
C600 C 0.86277 0.58508 0.49117 0.0
C601 C 0.8827 0.58054 0.52739 0.0
C602 C 0.8727 0.59161 0.56252 0.0
H603 H 0.43479 0.40958 0.36635 0.0
H604 H 0.32276 0.40449 0.34351 0.0
H605 H 0.33167 0.42538 0.27411 0.0
H606 H 0.46424 0.49356 0.30177 0.0
H607 H 0.50027 0.4773 0.28565 0.0
H608 H 0.48544 0.46341 0.33415 0.0
H609 H 0.47573 0.39363 0.31814 0.0
H610 H 0.49041 0.40743 0.26963 0.0
H611 H 0.44767 0.37617 0.27501 0.0
H612 H 0.35143 0.44206 0.20673 0.0
H613 H 0.3821 0.45724 0.14527 0.0
H614 H 0.48182 0.45489 0.21169 0.0
C615 C 0.41231 0.41316 0.34666 0.0
C616 C 0.37816 0.40572 0.36011 0.0
C617 C 0.34921 0.41058 0.33373 0.0
C618 C 0.35397 0.4223 0.29431 0.0
C619 C 0.3879 0.42941 0.28186 0.0
C620 C 0.41669 0.42544 0.30721 0.0
C621 C 0.45027 0.43478 0.28593 0.0
C622 C 0.47661 0.46932 0.3029 0.0
C623 C 0.46699 0.40098 0.28726 0.0
C624 C 0.43557 0.4434 0.24454 0.0
C625 C 0.39954 0.4402 0.24292 0.0
C626 C 0.37971 0.44512 0.20763 0.0
C627 C 0.39723 0.45352 0.17295 0.0
C628 C 0.43414 0.45743 0.17414 0.0
C629 C 0.45358 0.45252 0.21033 0.0
H630 H 0.41529 0.70941 0.81325 0.0
H631 H 0.3352 0.60725 0.78745 0.0
H632 H 0.36279 0.57368 0.84064 0.0
H633 H 0.48641 0.66183 0.82721 0.0
H634 H 0.51079 0.6919 0.86515 0.0
H635 H 0.48257 0.70952 0.82766 0.0
H636 H 0.44919 0.72856 0.8821 0.0
H637 H 0.47702 0.71051 0.91976 0.0
H638 H 0.42964 0.69377 0.91843 0.0
H639 H 0.39824 0.5503 0.89753 0.0
H640 H 0.44486 0.53647 0.94602 0.0
H641 H 0.50688 0.65042 0.92962 0.0
C642 C 0.40342 0.67998 0.81836 0.0
C643 C 0.37182 0.66187 0.79637 0.0
C644 C 0.35799 0.62297 0.80462 0.0
C645 C 0.37379 0.60323 0.83477 0.0
C646 C 0.40425 0.62212 0.85612 0.0
C647 C 0.41951 0.65935 0.84768 0.0
C648 C 0.45419 0.67195 0.87279 0.0
C649 C 0.48533 0.68453 0.84664 0.0
C650 C 0.45238 0.70305 0.89987 0.0
C651 C 0.45588 0.63593 0.89655 0.0
C652 C 0.42634 0.6078 0.88701 0.0
C653 C 0.42155 0.5721 0.90517 0.0
C654 C 0.4481 0.56458 0.93298 0.0
C655 C 0.47952 0.59235 0.94185 0.0
C656 C 0.48312 0.62865 0.92364 0.0
H657 H 0.3478 0.37287 0.81101 0.0
H658 H 0.42309 0.30959 0.78533 0.0
H659 H 0.45986 0.33209 0.84478 0.0
H660 H 0.41473 0.45324 0.83443 0.0
H661 H 0.39144 0.46752 0.8716 0.0
H662 H 0.36708 0.44062 0.83144 0.0
H663 H 0.33509 0.39106 0.88179 0.0
H664 H 0.35986 0.41763 0.92215 0.0
H665 H 0.36081 0.36934 0.91868 0.0
H666 H 0.49158 0.36469 0.90434 0.0
H667 H 0.51993 0.41262 0.95237 0.0
H668 H 0.42939 0.46156 0.93416 0.0
C669 C 0.3719 0.36346 0.81735 0.0
C670 C 0.38136 0.33824 0.79292 0.0
C671 C 0.41356 0.32723 0.80363 0.0
C672 C 0.43514 0.34021 0.83755 0.0
C673 C 0.42497 0.36503 0.86044 0.0
C674 C 0.39451 0.37723 0.85032 0.0
C675 C 0.39221 0.40811 0.87662 0.0
C676 C 0.39133 0.44452 0.85206 0.0
C677 C 0.36008 0.39578 0.90127 0.0
C678 C 0.42654 0.41184 0.90254 0.0
C679 C 0.44448 0.38587 0.89346 0.0
C680 C 0.47758 0.38482 0.91205 0.0
C681 C 0.49337 0.41191 0.93949 0.0
C682 C 0.47634 0.43995 0.94756 0.0
C683 C 0.44227 0.43952 0.92945 0.0
H684 H 0.65657 0.33043 0.79331 0.0
H685 H 0.74107 0.4229 0.75522 0.0
H686 H 0.7239 0.46371 0.79936 0.0
H687 H 0.59357 0.3885 0.79161 0.0
H688 H 0.57168 0.36313 0.83292 0.0
H689 H 0.59257 0.33958 0.80096 0.0
H690 H 0.62992 0.31917 0.86152 0.0
H691 H 0.6094 0.34299 0.8936 0.0
H692 H 0.65687 0.35416 0.89324 0.0
H693 H 0.69933 0.49482 0.85014 0.0
H694 H 0.66281 0.51604 0.89531 0.0
H695 H 0.58863 0.40755 0.89202 0.0
C696 C 0.67151 0.35922 0.79363 0.0
C697 C 0.70132 0.37235 0.77118 0.0
C698 C 0.71946 0.41076 0.77322 0.0
C699 C 0.7096 0.43468 0.79802 0.0
C700 C 0.68068 0.42056 0.81998 0.0
C701 C 0.66127 0.38402 0.81723 0.0
C702 C 0.62953 0.37681 0.84166 0.0
C703 C 0.59478 0.3664 0.81521 0.0
C704 C 0.63157 0.34648 0.87445 0.0
C705 C 0.63443 0.41491 0.85877 0.0
C706 C 0.66455 0.43952 0.8465 0.0
C707 C 0.67549 0.47591 0.85964 0.0
C708 C 0.65477 0.48765 0.88546 0.0
C709 C 0.62301 0.46346 0.89697 0.0
C710 C 0.61279 0.42663 0.88346 0.0
H711 H 0.68432 0.67632 0.7143 0.0
H712 H 0.63523 0.57612 0.65113 0.0
H713 H 0.61481 0.54343 0.71367 0.0
H714 H 0.71465 0.62752 0.803 0.0
H715 H 0.70678 0.66033 0.836 0.0
H716 H 0.71801 0.67563 0.78645 0.0
H717 H 0.66111 0.70028 0.77376 0.0
H718 H 0.64982 0.68524 0.82327 0.0
H719 H 0.61887 0.66902 0.78183 0.0
H720 H 0.59539 0.52407 0.78114 0.0
H721 H 0.58067 0.5174 0.85011 0.0
H722 H 0.64734 0.62797 0.87181 0.0
C723 C 0.66923 0.6475 0.71382 0.0
C724 C 0.66092 0.62863 0.67814 0.0
C725 C 0.64164 0.59086 0.67835 0.0
C726 C 0.63005 0.57217 0.71363 0.0
C727 C 0.63863 0.59152 0.7484 0.0
C728 C 0.65809 0.6282 0.74891 0.0
C729 C 0.66366 0.64248 0.79034 0.0
C730 C 0.70312 0.65205 0.80479 0.0
C731 C 0.64739 0.67624 0.79241 0.0
C732 C 0.64346 0.60841 0.81288 0.0
C733 C 0.62922 0.57941 0.78802 0.0
C734 C 0.60711 0.5462 0.80112 0.0
C735 C 0.59904 0.54261 0.84056 0.0
C736 C 0.61371 0.57164 0.86688 0.0
C737 C 0.63655 0.60483 0.85279 0.0
H738 H 0.66588 0.72219 0.24244 0.0
H739 H 0.72376 0.63969 0.28887 0.0
H740 H 0.69869 0.6008 0.23278 0.0
H741 H 0.58701 0.65439 0.21663 0.0
H742 H 0.57445 0.68043 0.17324 0.0
H743 H 0.6011 0.70474 0.21383 0.0
H744 H 0.64837 0.7371 0.16611 0.0
H745 H 0.62202 0.71232 0.12547 0.0
H746 H 0.6671 0.7089 0.13694 0.0
H747 H 0.66431 0.56785 0.17495 0.0
H748 H 0.61748 0.54014 0.12426 0.0
H749 H 0.57805 0.64048 0.11703 0.0
C750 C 0.67352 0.69606 0.24097 0.0
C751 C 0.69791 0.68499 0.27012 0.0
C752 C 0.70659 0.65017 0.26654 0.0
C753 C 0.6922 0.62749 0.23471 0.0
C754 C 0.66856 0.6394 0.20664 0.0
C755 C 0.65877 0.67256 0.20975 0.0
C756 C 0.62981 0.67674 0.17796 0.0
C757 C 0.5961 0.6792 0.19653 0.0
C758 C 0.6426 0.7108 0.14996 0.0
C759 C 0.62443 0.64041 0.15703 0.0
C760 C 0.64765 0.61969 0.17363 0.0
C761 C 0.64643 0.58409 0.16125 0.0
C762 C 0.61998 0.56867 0.1322 0.0
C763 C 0.59511 0.58873 0.11585 0.0
C764 C 0.59778 0.62532 0.12786 0.0
H765 H 0.34542 0.67979 0.23487 0.0
H766 H 0.34857 0.61257 0.34387 0.0
H767 H 0.3792 0.57222 0.31214 0.0
H768 H 0.32889 0.60079 0.16904 0.0
H769 H 0.35552 0.62764 0.13185 0.0
H770 H 0.33309 0.65056 0.16281 0.0
H771 H 0.39263 0.69602 0.18431 0.0
H772 H 0.41521 0.6733 0.15342 0.0
H773 H 0.42916 0.67729 0.20528 0.0
H774 H 0.41539 0.54408 0.27096 0.0
H775 H 0.44995 0.52647 0.22147 0.0
H776 H 0.41759 0.60646 0.13608 0.0
C777 C 0.35237 0.65634 0.25181 0.0
C778 C 0.34483 0.64919 0.29181 0.0
C779 C 0.35409 0.6183 0.31318 0.0
C780 C 0.37148 0.59533 0.2954 0.0
C781 C 0.37875 0.60318 0.25595 0.0
C782 C 0.36901 0.63257 0.23418 0.0
C783 C 0.37998 0.63486 0.19226 0.0
C784 C 0.34743 0.62805 0.16221 0.0
C785 C 0.40578 0.67261 0.18331 0.0
C786 C 0.39824 0.6028 0.19412 0.0
C787 C 0.3974 0.58509 0.23129 0.0
C788 C 0.41532 0.55703 0.24148 0.0
C789 C 0.43472 0.54701 0.21313 0.0
C790 C 0.43521 0.564 0.17462 0.0
C791 C 0.41648 0.59206 0.16489 0.0
H792 H 0.62461 0.35 0.27066 0.0
H793 H 0.73026 0.39902 0.23486 0.0
H794 H 0.70491 0.43321 0.17913 0.0
H795 H 0.58316 0.3343 0.17338 0.0
H796 H 0.54254 0.3449 0.1843 0.0
H797 H 0.56918 0.32637 0.22285 0.0
H798 H 0.57202 0.38313 0.26507 0.0
H799 H 0.54521 0.4017 0.22676 0.0
H800 H 0.58764 0.42987 0.24434 0.0
H801 H 0.66709 0.46154 0.12583 0.0
H802 H 0.62058 0.48141 0.08107 0.0
H803 H 0.54023 0.41037 0.1501 0.0
C804 C 0.64258 0.36774 0.25112 0.0
C805 C 0.67961 0.37161 0.25744 0.0
C806 C 0.7019 0.39586 0.23127 0.0
C807 C 0.6877 0.41521 0.19924 0.0
C808 C 0.65107 0.41005 0.1935 0.0
C809 C 0.62886 0.38693 0.21885 0.0
C810 C 0.5904 0.38539 0.20587 0.0
C811 C 0.57014 0.34536 0.19601 0.0
C812 C 0.5728 0.40096 0.23738 0.0
C813 C 0.59435 0.41103 0.16907 0.0
C814 C 0.62951 0.42527 0.16248 0.0
C815 C 0.63949 0.45036 0.13068 0.0
C816 C 0.61288 0.46142 0.10531 0.0
C817 C 0.57667 0.44717 0.11163 0.0
C818 C 0.56756 0.42136 0.14385 0.0
loop_
_geom_bond_atom_site_label_1
_geom_bond_atom_site_label_2
_geom_bond_distance
_geom_bond_site_symmetry_2
_ccdc_geom_bond_type
H0 C3 0.931 . S
H1 C6 0.928 . S
H2 C8 0.930 . S
C3 H0 0.931 . S
C3 C4 1.413 . S
C3 C5 1.360 . S
C4 C3 1.413 . S
C4 C8 1.429 . S
C5 C3 1.360 . S
C5 C6 1.372 . S
C6 H1 0.928 . S
C6 C5 1.372 . S
C6 C7 1.404 . S
C7 C6 1.404 . S
C7 C8 1.391 . S
C8 H2 0.930 . S
C8 C4 1.429 . S
C8 C7 1.391 . S
H9 C12 0.931 . S
H10 C15 0.928 . S
H11 C17 0.930 . S
C12 H9 0.931 . S
C12 C13 1.413 . S
C12 C14 1.360 . S
C13 C12 1.413 . S
C13 C17 1.429 . S
C14 C12 1.360 . S
C14 C15 1.372 . S
C15 H10 0.928 . S
C15 C14 1.372 . S
C15 C16 1.404 . S
C16 C15 1.404 . S
C16 C17 1.391 . S
C17 H11 0.930 . S
C17 C13 1.429 . S
C17 C16 1.391 . S
H18 C21 0.931 . S
H19 C24 0.928 . S
H20 C26 0.930 . S
C21 H18 0.931 . S
C21 C22 1.413 . S
C21 C23 1.360 . S
C22 C21 1.413 . S
C22 C26 1.429 . S
C23 C21 1.360 . S
C23 C24 1.372 . S
C24 H19 0.928 . S
C24 C23 1.372 . S
C24 C25 1.404 . S
C25 C24 1.404 . S
C25 C26 1.391 . S
C26 H20 0.930 . S
C26 C22 1.429 . S
C26 C25 1.391 . S
H27 C30 0.931 . S
H28 C33 0.928 . S
H29 C35 0.930 . S
C30 H27 0.931 . S
C30 C31 1.413 . S
C30 C32 1.360 . S
C31 C30 1.413 . S
C31 C35 1.429 . S
C32 C30 1.360 . S
C32 C33 1.372 . S
C33 H28 0.928 . S
C33 C32 1.372 . S
C33 C34 1.404 . S
C34 C33 1.404 . S
C34 C35 1.391 . S
C35 H29 0.930 . S
C35 C31 1.429 . S
C35 C34 1.391 . S
H36 C39 0.931 . S
H37 C42 0.928 . S
H38 C44 0.930 . S
C39 H36 0.931 . S
C39 C40 1.413 . S
C39 C41 1.360 . S
C40 C39 1.413 . S
C40 C44 1.429 . S
C41 C39 1.360 . S
C41 C42 1.372 . S
C42 H37 0.928 . S
C42 C41 1.372 . S
C42 C43 1.404 . S
C43 C42 1.404 . S
C43 C44 1.391 . S
C44 H38 0.930 . S
C44 C40 1.429 . S
C44 C43 1.391 . S
H45 C48 0.931 . S
H46 C51 0.928 . S
H47 C53 0.930 . S
C48 H45 0.931 . S
C48 C49 1.413 . S
C48 C50 1.360 . S
C49 C48 1.413 . S
C49 C53 1.429 . S
C50 C48 1.360 . S
C50 C51 1.372 . S
C51 H46 0.928 . S
C51 C50 1.372 . S
C51 C52 1.404 . S
C52 C51 1.404 . S
C52 C53 1.391 . S
C53 H47 0.930 . S
C53 C49 1.429 . S
C53 C52 1.391 . S
H54 C57 0.931 . S
H55 C60 0.928 . S
H56 C62 0.930 . S
C57 H54 0.931 . S
C57 C58 1.413 . S
C57 C59 1.360 . S
C58 C57 1.413 . S
C58 C62 1.429 . S
C59 C57 1.360 . S
C59 C60 1.372 . S
C60 H55 0.928 . S
C60 C59 1.372 . S
C60 C61 1.404 . S
C61 C60 1.404 . S
C61 C62 1.391 . S
C62 H56 0.930 . S
C62 C58 1.429 . S
C62 C61 1.391 . S
H63 C66 0.931 . S
H64 C69 0.928 . S
H65 C71 0.930 . S
C66 H63 0.931 . S
C66 C67 1.413 . S
C66 C68 1.360 . S
C67 C66 1.413 . S
C67 C71 1.429 . S
C68 C66 1.360 . S
C68 C69 1.372 . S
C69 H64 0.928 . S
C69 C68 1.372 . S
C69 C70 1.404 . S
C70 C69 1.404 . S
C70 C71 1.391 . S
C71 H65 0.930 . S
C71 C67 1.429 . S
C71 C70 1.391 . S
Co72 O75 2.042 . S
Co72 O82 2.264 . S
Co72 O101 2.286 . S
Co72 O102 2.069 . S
Co72 O104 2.015 . S
Co73 O75 2.122 . S
Co73 O81 2.073 . S
Co73 O82 2.327 . S
Co73 O83 1.976 . S
Co74 O75 2.087 . S
Co74 O77 2.087 1_455 S
Co74 O84 2.111 . S
Co74 O85 2.143 1_455 S
Co74 O89 2.111 1_455 S
Co74 O103 2.143 . S
O75 Co72 2.042 . S
O75 Co73 2.122 . S
O75 Co74 2.087 . S
O75 H76 0.980 . S
H76 O75 0.980 . S
O77 Co74 2.087 1_655 S
O77 Co78 2.042 . S
O77 Co79 2.122 . S
O77 H80 0.980 . S
Co78 O77 2.042 . S
Co78 O86 2.286 . S
Co78 O87 2.069 . S
Co78 O88 2.015 . S
Co78 O91 2.264 . S
Co79 O77 2.122 . S
Co79 O90 1.976 . S
Co79 O91 2.327 . S
Co79 O92 2.073 . S
H80 O77 0.980 . S
O81 Co73 2.073 . S
O81 C96 1.245 . S
O82 Co72 2.264 . S
O82 Co73 2.327 . S
O82 C96 1.257 . S
O83 Co73 1.976 . S
O83 C95 1.251 . S
O84 Co74 2.111 . S
O84 C95 1.274 . S
O85 Co74 2.143 1_655 S
O85 C98 1.246 . S
O86 Co78 2.286 . S
O86 C97 1.259 . S
O87 Co78 2.069 . S
O87 C97 1.289 . S
O88 Co78 2.015 . S
O88 C98 1.257 . S
O89 Co74 2.111 1_655 S
O89 C99 1.274 . S
O90 Co79 1.976 . S
O90 C99 1.251 . S
O91 Co78 2.264 . S
O91 Co79 2.327 . S
O91 C100 1.257 . S
O92 Co79 2.073 . S
O92 C100 1.245 . S
C93 O101 1.259 . S
C93 O102 1.289 . S
C94 O103 1.246 . S
C94 O104 1.257 . S
C95 O83 1.251 . S
C95 O84 1.274 . S
C96 O81 1.245 . S
C96 O82 1.257 . S
C97 O86 1.259 . S
C97 O87 1.289 . S
C98 O85 1.246 . S
C98 O88 1.257 . S
C99 O89 1.274 . S
C99 O90 1.251 . S
C100 O91 1.257 . S
C100 O92 1.245 . S
O101 Co72 2.286 . S
O101 C93 1.259 . S
O102 Co72 2.069 . S
O102 C93 1.289 . S
O103 Co74 2.143 . S
O103 C94 1.246 . S
O104 Co72 2.015 . S
O104 C94 1.257 . S
Co105 O108 2.042 . S
Co105 O115 2.264 . S
Co105 O134 2.286 . S
Co105 O135 2.069 . S
Co105 O137 2.015 . S
Co106 O108 2.122 . S
Co106 O114 2.073 . S
Co106 O115 2.327 . S
Co106 O116 1.976 . S
Co107 O108 2.087 1_545 S
Co107 O110 2.087 . S
Co107 O117 2.111 1_545 S
Co107 O118 2.143 . S
Co107 O122 2.111 . S
Co107 O136 2.143 1_545 S
O108 Co105 2.042 . S
O108 Co106 2.122 . S
O108 Co107 2.087 1_565 S
O108 H109 0.980 . S
H109 O108 0.980 . S
O110 Co107 2.087 . S
O110 Co111 2.042 . S
O110 Co112 2.122 . S
O110 H113 0.980 . S
Co111 O110 2.042 . S
Co111 O119 2.286 . S
Co111 O120 2.069 . S
Co111 O121 2.015 . S
Co111 O124 2.264 . S
Co112 O110 2.122 . S
Co112 O123 1.976 . S
Co112 O124 2.327 . S
Co112 O125 2.073 . S
H113 O110 0.980 . S
O114 Co106 2.073 . S
O114 C129 1.245 . S
O115 Co105 2.264 . S
O115 Co106 2.327 . S
O115 C129 1.257 . S
O116 Co106 1.976 . S
O116 C128 1.251 . S
O117 Co107 2.111 1_565 S
O117 C128 1.274 . S
O118 Co107 2.143 . S
O118 C131 1.246 . S
O119 Co111 2.286 . S
O119 C130 1.259 . S
O120 Co111 2.069 . S
O120 C130 1.289 . S
O121 Co111 2.015 . S
O121 C131 1.257 . S
O122 Co107 2.111 . S
O122 C132 1.274 . S
O123 Co112 1.976 . S
O123 C132 1.251 . S
O124 Co111 2.264 . S
O124 Co112 2.327 . S
O124 C133 1.257 . S
O125 Co112 2.073 . S
O125 C133 1.245 . S
C126 O134 1.259 . S
C126 O135 1.289 . S
C127 O136 1.246 . S
C127 O137 1.257 . S
C128 O116 1.251 . S
C128 O117 1.274 . S
C129 O114 1.245 . S
C129 O115 1.257 . S
C130 O119 1.259 . S
C130 O120 1.289 . S
C131 O118 1.246 . S
C131 O121 1.257 . S
C132 O122 1.274 . S
C132 O123 1.251 . S
C133 O124 1.257 . S
C133 O125 1.245 . S
O134 Co105 2.286 . S
O134 C126 1.259 . S
O135 Co105 2.069 . S
O135 C126 1.289 . S
O136 Co107 2.143 1_565 S
O136 C127 1.246 . S
O137 Co105 2.015 . S
O137 C127 1.257 . S
Co138 O141 2.042 . S
Co138 O148 2.264 . S
Co138 O167 2.286 . S
Co138 O168 2.069 . S
Co138 O170 2.015 . S
Co139 O141 2.122 . S
Co139 O147 2.073 . S
Co139 O148 2.327 . S
Co139 O149 1.976 . S
Co140 O141 2.087 . S
Co140 O143 2.087 1_554 S
Co140 O150 2.111 . S
Co140 O151 2.143 1_554 S
Co140 O155 2.111 1_554 S
Co140 O169 2.143 . S
O141 Co138 2.042 . S
O141 Co139 2.122 . S
O141 Co140 2.087 . S
O141 H142 0.980 . S
H142 O141 0.980 . S
O143 Co140 2.087 1_556 S
O143 Co144 2.042 . S
O143 Co145 2.122 . S
O143 H146 0.980 . S
Co144 O143 2.042 . S
Co144 O152 2.286 . S
Co144 O153 2.069 . S
Co144 O154 2.015 . S
Co144 O157 2.264 . S
Co145 O143 2.122 . S
Co145 O156 1.976 . S
Co145 O157 2.327 . S
Co145 O158 2.073 . S
H146 O143 0.980 . S
O147 Co139 2.073 . S
O147 C162 1.245 . S
O148 Co138 2.264 . S
O148 Co139 2.327 . S
O148 C162 1.257 . S
O149 Co139 1.976 . S
O149 C161 1.251 . S
O150 Co140 2.111 . S
O150 C161 1.274 . S
O151 Co140 2.143 1_556 S
O151 C164 1.246 . S
O152 Co144 2.286 . S
O152 C163 1.259 . S
O153 Co144 2.069 . S
O153 C163 1.289 . S
O154 Co144 2.015 . S
O154 C164 1.257 . S
O155 Co140 2.111 1_556 S
O155 C165 1.274 . S
O156 Co145 1.976 . S
O156 C165 1.251 . S
O157 Co144 2.264 . S
O157 Co145 2.327 . S
O157 C166 1.257 . S
O158 Co145 2.073 . S
O158 C166 1.245 . S
C159 O167 1.259 . S
C159 O168 1.289 . S
C160 O169 1.246 . S
C160 O170 1.257 . S
C161 O149 1.251 . S
C161 O150 1.274 . S
C162 O147 1.245 . S
C162 O148 1.257 . S
C163 O152 1.259 . S
C163 O153 1.289 . S
C164 O151 1.246 . S
C164 O154 1.257 . S
C165 O155 1.274 . S
C165 O156 1.251 . S
C166 O157 1.257 . S
C166 O158 1.245 . S
O167 Co138 2.286 . S
O167 C159 1.259 . S
O168 Co138 2.069 . S
O168 C159 1.289 . S
O169 Co140 2.143 . S
O169 C160 1.246 . S
O170 Co138 2.015 . S
O170 C160 1.257 . S
H171 C183 0.930 . S
H172 C185 0.930 . S
H173 C186 0.930 . S
H174 C190 0.959 . S
H175 C190 0.959 . S
H176 C190 0.961 . S
H177 C191 0.960 . S
H178 C191 0.961 . S
H179 C191 0.959 . S
H180 C194 0.929 . S
H181 C195 0.931 . S
H182 C197 0.930 . S
C183 H171 0.930 . S
C183 C184 1.399 . S
C183 C188 1.399 . S
C184 C183 1.399 . S
C184 C185 1.376 . S
C185 H172 0.930 . S
C185 C184 1.376 . S
C185 C186 1.388 . S
C186 H173 0.930 . S
C186 C185 1.388 . S
C186 C187 1.390 . S
C187 C186 1.390 . S
C187 C188 1.394 . S
C187 C193 1.465 . S
C188 C183 1.399 . S
C188 C187 1.394 . S
C188 C189 1.516 . S
C189 C188 1.516 . S
C189 C190 1.502 . S
C189 C191 1.561 . S
C189 C192 1.526 . S
C190 H174 0.959 . S
C190 H175 0.959 . S
C190 H176 0.961 . S
C190 C189 1.502 . S
C191 H177 0.960 . S
C191 H178 0.961 . S
C191 H179 0.959 . S
C191 C189 1.561 . S
C192 C189 1.526 . S
C192 C193 1.396 . S
C192 C197 1.390 . S
C193 C187 1.465 . S
C193 C192 1.396 . S
C193 C194 1.399 . S
C194 H180 0.929 . S
C194 C193 1.399 . S
C194 C195 1.385 . S
C195 H181 0.931 . S
C195 C194 1.385 . S
C195 C196 1.389 . S
C196 C195 1.389 . S
C196 C197 1.387 . S
C197 H182 0.930 . S
C197 C192 1.390 . S
C197 C196 1.387 . S
H198 C210 0.930 . S
H199 C212 0.930 . S
H200 C213 0.930 . S
H201 C217 0.959 . S
H202 C217 0.959 . S
H203 C217 0.961 . S
H204 C218 0.960 . S
H205 C218 0.961 . S
H206 C218 0.959 . S
H207 C221 0.929 . S
H208 C222 0.931 . S
H209 C224 0.930 . S
C210 H198 0.930 . S
C210 C211 1.399 . S
C210 C215 1.399 . S
C211 C210 1.399 . S
C211 C212 1.376 . S
C212 H199 0.930 . S
C212 C211 1.376 . S
C212 C213 1.388 . S
C213 H200 0.930 . S
C213 C212 1.388 . S
C213 C214 1.390 . S
C214 C213 1.390 . S
C214 C215 1.394 . S
C214 C220 1.465 . S
C215 C210 1.399 . S
C215 C214 1.394 . S
C215 C216 1.516 . S
C216 C215 1.516 . S
C216 C217 1.502 . S
C216 C218 1.561 . S
C216 C219 1.526 . S
C217 H201 0.959 . S
C217 H202 0.959 . S
C217 H203 0.961 . S
C217 C216 1.502 . S
C218 H204 0.960 . S
C218 H205 0.961 . S
C218 H206 0.959 . S
C218 C216 1.561 . S
C219 C216 1.526 . S
C219 C220 1.396 . S
C219 C224 1.390 . S
C220 C214 1.465 . S
C220 C219 1.396 . S
C220 C221 1.399 . S
C221 H207 0.929 . S
C221 C220 1.399 . S
C221 C222 1.385 . S
C222 H208 0.931 . S
C222 C221 1.385 . S
C222 C223 1.389 . S
C223 C222 1.389 . S
C223 C224 1.387 . S
C224 H209 0.930 . S
C224 C219 1.390 . S
C224 C223 1.387 . S
H225 C237 0.930 . S
H226 C239 0.930 . S
H227 C240 0.930 . S
H228 C244 0.959 . S
H229 C244 0.959 . S
H230 C244 0.961 . S
H231 C245 0.960 . S
H232 C245 0.961 . S
H233 C245 0.959 . S
H234 C248 0.929 . S
H235 C249 0.931 . S
H236 C251 0.930 . S
C237 H225 0.930 . S
C237 C238 1.399 . S
C237 C242 1.399 . S
C238 C237 1.399 . S
C238 C239 1.376 . S
C239 H226 0.930 . S
C239 C238 1.376 . S
C239 C240 1.388 . S
C240 H227 0.930 . S
C240 C239 1.388 . S
C240 C241 1.390 . S
C241 C240 1.390 . S
C241 C242 1.394 . S
C241 C247 1.465 . S
C242 C237 1.399 . S
C242 C241 1.394 . S
C242 C243 1.516 . S
C243 C242 1.516 . S
C243 C244 1.502 . S
C243 C245 1.561 . S
C243 C246 1.526 . S
C244 H228 0.959 . S
C244 H229 0.959 . S
C244 H230 0.961 . S
C244 C243 1.502 . S
C245 H231 0.960 . S
C245 H232 0.961 . S
C245 H233 0.959 . S
C245 C243 1.561 . S
C246 C243 1.526 . S
C246 C247 1.396 . S
C246 C251 1.390 . S
C247 C241 1.465 . S
C247 C246 1.396 . S
C247 C248 1.399 . S
C248 H234 0.929 . S
C248 C247 1.399 . S
C248 C249 1.385 . S
C249 H235 0.931 . S
C249 C248 1.385 . S
C249 C250 1.389 . S
C250 C249 1.389 . S
C250 C251 1.387 . S
C251 H236 0.930 . S
C251 C246 1.390 . S
C251 C250 1.387 . S
H252 C264 0.930 . S
H253 C266 0.930 . S
H254 C267 0.930 . S
H255 C271 0.959 . S
H256 C271 0.959 . S
H257 C271 0.961 . S
H258 C272 0.960 . S
H259 C272 0.961 . S
H260 C272 0.959 . S
H261 C275 0.929 . S
H262 C276 0.931 . S
H263 C278 0.930 . S
C264 H252 0.930 . S
C264 C265 1.399 . S
C264 C269 1.399 . S
C265 C264 1.399 . S
C265 C266 1.376 . S
C266 H253 0.930 . S
C266 C265 1.376 . S
C266 C267 1.388 . S
C267 H254 0.930 . S
C267 C266 1.388 . S
C267 C268 1.390 . S
C268 C267 1.390 . S
C268 C269 1.394 . S
C268 C274 1.465 . S
C269 C264 1.399 . S
C269 C268 1.394 . S
C269 C270 1.516 . S
C270 C269 1.516 . S
C270 C271 1.502 . S
C270 C272 1.561 . S
C270 C273 1.526 . S
C271 H255 0.959 . S
C271 H256 0.959 . S
C271 H257 0.961 . S
C271 C270 1.502 . S
C272 H258 0.960 . S
C272 H259 0.961 . S
C272 H260 0.959 . S
C272 C270 1.561 . S
C273 C270 1.526 . S
C273 C274 1.396 . S
C273 C278 1.390 . S
C274 C268 1.465 . S
C274 C273 1.396 . S
C274 C275 1.399 . S
C275 H261 0.929 . S
C275 C274 1.399 . S
C275 C276 1.385 . S
C276 H262 0.931 . S
C276 C275 1.385 . S
C276 C277 1.389 . S
C277 C276 1.389 . S
C277 C278 1.387 . S
C278 H263 0.930 . S
C278 C273 1.390 . S
C278 C277 1.387 . S
H279 C291 0.930 . S
H280 C293 0.930 . S
H281 C294 0.930 . S
H282 C298 0.959 . S
H283 C298 0.959 . S
H284 C298 0.961 . S
H285 C299 0.960 . S
H286 C299 0.961 . S
H287 C299 0.959 . S
H288 C302 0.929 . S
H289 C303 0.931 . S
H290 C305 0.930 . S
C291 H279 0.930 . S
C291 C292 1.399 . S
C291 C296 1.399 . S
C292 C291 1.399 . S
C292 C293 1.376 . S
C293 H280 0.930 . S
C293 C292 1.376 . S
C293 C294 1.388 . S
C294 H281 0.930 . S
C294 C293 1.388 . S
C294 C295 1.390 . S
C295 C294 1.390 . S
C295 C296 1.394 . S
C295 C301 1.465 . S
C296 C291 1.399 . S
C296 C295 1.394 . S
C296 C297 1.516 . S
C297 C296 1.516 . S
C297 C298 1.502 . S
C297 C299 1.561 . S
C297 C300 1.526 . S
C298 H282 0.959 . S
C298 H283 0.959 . S
C298 H284 0.961 . S
C298 C297 1.502 . S
C299 H285 0.960 . S
C299 H286 0.961 . S
C299 H287 0.959 . S
C299 C297 1.561 . S
C300 C297 1.526 . S
C300 C301 1.396 . S
C300 C305 1.390 . S
C301 C295 1.465 . S
C301 C300 1.396 . S
C301 C302 1.399 . S
C302 H288 0.929 . S
C302 C301 1.399 . S
C302 C303 1.385 . S
C303 H289 0.931 . S
C303 C302 1.385 . S
C303 C304 1.389 . S
C304 C303 1.389 . S
C304 C305 1.387 . S
C305 H290 0.930 . S
C305 C300 1.390 . S
C305 C304 1.387 . S
H306 C318 0.930 . S
H307 C320 0.930 . S
H308 C321 0.930 . S
H309 C325 0.959 . S
H310 C325 0.959 . S
H311 C325 0.961 . S
H312 C326 0.960 . S
H313 C326 0.961 . S
H314 C326 0.959 . S
H315 C329 0.929 . S
H316 C330 0.931 . S
H317 C332 0.930 . S
C318 H306 0.930 . S
C318 C319 1.399 . S
C318 C323 1.399 . S
C319 C318 1.399 . S
C319 C320 1.376 . S
C320 H307 0.930 . S
C320 C319 1.376 . S
C320 C321 1.388 . S
C321 H308 0.930 . S
C321 C320 1.388 . S
C321 C322 1.390 . S
C322 C321 1.390 . S
C322 C323 1.394 . S
C322 C328 1.465 . S
C323 C318 1.399 . S
C323 C322 1.394 . S
C323 C324 1.516 . S
C324 C323 1.516 . S
C324 C325 1.502 . S
C324 C326 1.561 . S
C324 C327 1.526 . S
C325 H309 0.959 . S
C325 H310 0.959 . S
C325 H311 0.961 . S
C325 C324 1.502 . S
C326 H312 0.960 . S
C326 H313 0.961 . S
C326 H314 0.959 . S
C326 C324 1.561 . S
C327 C324 1.526 . S
C327 C328 1.396 . S
C327 C332 1.390 . S
C328 C322 1.465 . S
C328 C327 1.396 . S
C328 C329 1.399 . S
C329 H315 0.929 . S
C329 C328 1.399 . S
C329 C330 1.385 . S
C330 H316 0.931 . S
C330 C329 1.385 . S
C330 C331 1.389 . S
C331 C330 1.389 . S
C331 C332 1.387 . S
C332 H317 0.930 . S
C332 C327 1.390 . S
C332 C331 1.387 . S
H333 C345 0.930 . S
H334 C347 0.930 . S
H335 C348 0.930 . S
H336 C352 0.959 . S
H337 C352 0.959 . S
H338 C352 0.961 . S
H339 C353 0.960 . S
H340 C353 0.961 . S
H341 C353 0.959 . S
H342 C356 0.929 . S
H343 C357 0.931 . S
H344 C359 0.930 . S
C345 H333 0.930 . S
C345 C346 1.399 . S
C345 C350 1.399 . S
C346 C345 1.399 . S
C346 C347 1.376 . S
C347 H334 0.930 . S
C347 C346 1.376 . S
C347 C348 1.388 . S
C348 H335 0.930 . S
C348 C347 1.388 . S
C348 C349 1.390 . S
C349 C348 1.390 . S
C349 C350 1.394 . S
C349 C355 1.465 . S
C350 C345 1.399 . S
C350 C349 1.394 . S
C350 C351 1.516 . S
C351 C350 1.516 . S
C351 C352 1.502 . S
C351 C353 1.561 . S
C351 C354 1.526 . S
C352 H336 0.959 . S
C352 H337 0.959 . S
C352 H338 0.961 . S
C352 C351 1.502 . S
C353 H339 0.960 . S
C353 H340 0.961 . S
C353 H341 0.959 . S
C353 C351 1.561 . S
C354 C351 1.526 . S
C354 C355 1.396 . S
C354 C359 1.390 . S
C355 C349 1.465 . S
C355 C354 1.396 . S
C355 C356 1.399 . S
C356 H342 0.929 . S
C356 C355 1.399 . S
C356 C357 1.385 . S
C357 H343 0.931 . S
C357 C356 1.385 . S
C357 C358 1.389 . S
C358 C357 1.389 . S
C358 C359 1.387 . S
C359 H344 0.930 . S
C359 C354 1.390 . S
C359 C358 1.387 . S
H360 C372 0.930 . S
H361 C374 0.930 . S
H362 C375 0.930 . S
H363 C379 0.959 . S
H364 C379 0.959 . S
H365 C379 0.961 . S
H366 C380 0.960 . S
H367 C380 0.961 . S
H368 C380 0.959 . S
H369 C383 0.929 . S
H370 C384 0.931 . S
H371 C386 0.930 . S
C372 H360 0.930 . S
C372 C373 1.399 . S
C372 C377 1.399 . S
C373 C372 1.399 . S
C373 C374 1.376 . S
C374 H361 0.930 . S
C374 C373 1.376 . S
C374 C375 1.388 . S
C375 H362 0.930 . S
C375 C374 1.388 . S
C375 C376 1.390 . S
C376 C375 1.390 . S
C376 C377 1.394 . S
C376 C382 1.465 . S
C377 C372 1.399 . S
C377 C376 1.394 . S
C377 C378 1.516 . S
C378 C377 1.516 . S
C378 C379 1.502 . S
C378 C380 1.561 . S
C378 C381 1.526 . S
C379 H363 0.959 . S
C379 H364 0.959 . S
C379 H365 0.961 . S
C379 C378 1.502 . S
C380 H366 0.960 . S
C380 H367 0.961 . S
C380 H368 0.959 . S
C380 C378 1.561 . S
C381 C378 1.526 . S
C381 C382 1.396 . S
C381 C386 1.390 . S
C382 C376 1.465 . S
C382 C381 1.396 . S
C382 C383 1.399 . S
C383 H369 0.929 . S
C383 C382 1.399 . S
C383 C384 1.385 . S
C384 H370 0.931 . S
C384 C383 1.385 . S
C384 C385 1.389 . S
C385 C384 1.389 . S
C385 C386 1.387 . S
C386 H371 0.930 . S
C386 C381 1.390 . S
C386 C385 1.387 . S
H387 C399 0.930 . S
H388 C401 0.930 . S
H389 C402 0.930 . S
H390 C406 0.959 . S
H391 C406 0.959 . S
H392 C406 0.961 . S
H393 C407 0.960 . S
H394 C407 0.961 . S
H395 C407 0.959 . S
H396 C410 0.929 . S
H397 C411 0.931 . S
H398 C413 0.930 . S
C399 H387 0.930 . S
C399 C400 1.399 . S
C399 C404 1.399 . S
C400 C399 1.399 . S
C400 C401 1.376 . S
C401 H388 0.930 . S
C401 C400 1.376 . S
C401 C402 1.388 . S
C402 H389 0.930 . S
C402 C401 1.388 . S
C402 C403 1.390 . S
C403 C402 1.390 . S
C403 C404 1.394 . S
C403 C409 1.465 . S
C404 C399 1.399 . S
C404 C403 1.394 . S
C404 C405 1.516 . S
C405 C404 1.516 . S
C405 C406 1.502 . S
C405 C407 1.561 . S
C405 C408 1.526 . S
C406 H390 0.959 . S
C406 H391 0.959 . S
C406 H392 0.961 . S
C406 C405 1.502 . S
C407 H393 0.960 . S
C407 H394 0.961 . S
C407 H395 0.959 . S
C407 C405 1.561 . S
C408 C405 1.526 . S
C408 C409 1.396 . S
C408 C413 1.390 . S
C409 C403 1.465 . S
C409 C408 1.396 . S
C409 C410 1.399 . S
C410 H396 0.929 . S
C410 C409 1.399 . S
C410 C411 1.385 . S
C411 H397 0.931 . S
C411 C410 1.385 . S
C411 C412 1.389 . S
C412 C411 1.389 . S
C412 C413 1.387 . S
C413 H398 0.930 . S
C413 C408 1.390 . S
C413 C412 1.387 . S
H414 C426 0.930 . S
H415 C428 0.930 . S
H416 C429 0.930 . S
H417 C433 0.959 . S
H418 C433 0.959 . S
H419 C433 0.961 . S
H420 C434 0.960 . S
H421 C434 0.961 . S
H422 C434 0.959 . S
H423 C437 0.929 . S
H424 C438 0.931 . S
H425 C440 0.930 . S
C426 H414 0.930 . S
C426 C427 1.399 . S
C426 C431 1.399 . S
C427 C426 1.399 . S
C427 C428 1.376 . S
C428 H415 0.930 . S
C428 C427 1.376 . S
C428 C429 1.388 . S
C429 H416 0.930 . S
C429 C428 1.388 . S
C429 C430 1.390 . S
C430 C429 1.390 . S
C430 C431 1.394 . S
C430 C436 1.465 . S
C431 C426 1.399 . S
C431 C430 1.394 . S
C431 C432 1.516 . S
C432 C431 1.516 . S
C432 C433 1.502 . S
C432 C434 1.561 . S
C432 C435 1.526 . S
C433 H417 0.959 . S
C433 H418 0.959 . S
C433 H419 0.961 . S
C433 C432 1.502 . S
C434 H420 0.960 . S
C434 H421 0.961 . S
C434 H422 0.959 . S
C434 C432 1.561 . S
C435 C432 1.526 . S
C435 C436 1.396 . S
C435 C440 1.390 . S
C436 C430 1.465 . S
C436 C435 1.396 . S
C436 C437 1.399 . S
C437 H423 0.929 . S
C437 C436 1.399 . S
C437 C438 1.385 . S
C438 H424 0.931 . S
C438 C437 1.385 . S
C438 C439 1.389 . S
C439 C438 1.389 . S
C439 C440 1.387 . S
C440 H425 0.930 . S
C440 C435 1.390 . S
C440 C439 1.387 . S
H441 C453 0.930 . S
H442 C455 0.930 . S
H443 C456 0.930 . S
H444 C460 0.959 . S
H445 C460 0.959 . S
H446 C460 0.961 . S
H447 C461 0.960 . S
H448 C461 0.961 . S
H449 C461 0.959 . S
H450 C464 0.929 . S
H451 C465 0.931 . S
H452 C467 0.930 . S
C453 H441 0.930 . S
C453 C454 1.399 . S
C453 C458 1.399 . S
C454 C453 1.399 . S
C454 C455 1.376 . S
C455 H442 0.930 . S
C455 C454 1.376 . S
C455 C456 1.388 . S
C456 H443 0.930 . S
C456 C455 1.388 . S
C456 C457 1.390 . S
C457 C456 1.390 . S
C457 C458 1.394 . S
C457 C463 1.465 . S
C458 C453 1.399 . S
C458 C457 1.394 . S
C458 C459 1.516 . S
C459 C458 1.516 . S
C459 C460 1.502 . S
C459 C461 1.561 . S
C459 C462 1.526 . S
C460 H444 0.959 . S
C460 H445 0.959 . S
C460 H446 0.961 . S
C460 C459 1.502 . S
C461 H447 0.960 . S
C461 H448 0.961 . S
C461 H449 0.959 . S
C461 C459 1.561 . S
C462 C459 1.526 . S
C462 C463 1.396 . S
C462 C467 1.390 . S
C463 C457 1.465 . S
C463 C462 1.396 . S
C463 C464 1.399 . S
C464 H450 0.929 . S
C464 C463 1.399 . S
C464 C465 1.385 . S
C465 H451 0.931 . S
C465 C464 1.385 . S
C465 C466 1.389 . S
C466 C465 1.389 . S
C466 C467 1.387 . S
C467 H452 0.930 . S
C467 C462 1.390 . S
C467 C466 1.387 . S
H468 C480 0.930 . S
H469 C482 0.930 . S
H470 C483 0.930 . S
H471 C487 0.959 . S
H472 C487 0.959 . S
H473 C487 0.961 . S
H474 C488 0.960 . S
H475 C488 0.961 . S
H476 C488 0.959 . S
H477 C491 0.929 . S
H478 C492 0.931 . S
H479 C494 0.930 . S
C480 H468 0.930 . S
C480 C481 1.399 . S
C480 C485 1.399 . S
C481 C480 1.399 . S
C481 C482 1.376 . S
C482 H469 0.930 . S
C482 C481 1.376 . S
C482 C483 1.388 . S
C483 H470 0.930 . S
C483 C482 1.388 . S
C483 C484 1.390 . S
C484 C483 1.390 . S
C484 C485 1.394 . S
C484 C490 1.465 . S
C485 C480 1.399 . S
C485 C484 1.394 . S
C485 C486 1.516 . S
C486 C485 1.516 . S
C486 C487 1.502 . S
C486 C488 1.561 . S
C486 C489 1.526 . S
C487 H471 0.959 . S
C487 H472 0.959 . S
C487 H473 0.961 . S
C487 C486 1.502 . S
C488 H474 0.960 . S
C488 H475 0.961 . S
C488 H476 0.959 . S
C488 C486 1.561 . S
C489 C486 1.526 . S
C489 C490 1.396 . S
C489 C494 1.390 . S
C490 C484 1.465 . S
C490 C489 1.396 . S
C490 C491 1.399 . S
C491 H477 0.929 . S
C491 C490 1.399 . S
C491 C492 1.385 . S
C492 H478 0.931 . S
C492 C491 1.385 . S
C492 C493 1.389 . S
C493 C492 1.389 . S
C493 C494 1.387 . S
C494 H479 0.930 . S
C494 C489 1.390 . S
C494 C493 1.387 . S
H495 C507 0.930 . S
H496 C509 0.930 . S
H497 C510 0.930 . S
H498 C514 0.959 . S
H499 C514 0.959 . S
H500 C514 0.961 . S
H501 C515 0.960 . S
H502 C515 0.961 . S
H503 C515 0.959 . S
H504 C518 0.929 . S
H505 C519 0.931 . S
H506 C521 0.930 . S
C507 H495 0.930 . S
C507 C508 1.399 . S
C507 C512 1.399 . S
C508 C507 1.399 . S
C508 C509 1.376 . S
C509 H496 0.930 . S
C509 C508 1.376 . S
C509 C510 1.388 . S
C510 H497 0.930 . S
C510 C509 1.388 . S
C510 C511 1.390 . S
C511 C510 1.390 . S
C511 C512 1.394 . S
C511 C517 1.465 . S
C512 C507 1.399 . S
C512 C511 1.394 . S
C512 C513 1.516 . S
C513 C512 1.516 . S
C513 C514 1.502 . S
C513 C515 1.561 . S
C513 C516 1.526 . S
C514 H498 0.959 . S
C514 H499 0.959 . S
C514 H500 0.961 . S
C514 C513 1.502 . S
C515 H501 0.960 . S
C515 H502 0.961 . S
C515 H503 0.959 . S
C515 C513 1.561 . S
C516 C513 1.526 . S
C516 C517 1.396 . S
C516 C521 1.390 . S
C517 C511 1.465 . S
C517 C516 1.396 . S
C517 C518 1.399 . S
C518 H504 0.929 . S
C518 C517 1.399 . S
C518 C519 1.385 . S
C519 H505 0.931 . S
C519 C518 1.385 . S
C519 C520 1.389 . S
C520 C519 1.389 . S
C520 C521 1.387 . S
C521 H506 0.930 . S
C521 C516 1.390 . S
C521 C520 1.387 . S
H522 C534 0.930 . S
H523 C536 0.930 . S
H524 C537 0.930 . S
H525 C541 0.959 . S
H526 C541 0.959 . S
H527 C541 0.961 . S
H528 C542 0.960 . S
H529 C542 0.961 . S
H530 C542 0.959 . S
H531 C545 0.929 . S
H532 C546 0.931 . S
H533 C548 0.930 . S
C534 H522 0.930 . S
C534 C535 1.399 . S
C534 C539 1.399 . S
C535 C534 1.399 . S
C535 C536 1.376 . S
C536 H523 0.930 . S
C536 C535 1.376 . S
C536 C537 1.388 . S
C537 H524 0.930 . S
C537 C536 1.388 . S
C537 C538 1.390 . S
C538 C537 1.390 . S
C538 C539 1.394 . S
C538 C544 1.465 . S
C539 C534 1.399 . S
C539 C538 1.394 . S
C539 C540 1.516 . S
C540 C539 1.516 . S
C540 C541 1.502 . S
C540 C542 1.561 . S
C540 C543 1.526 . S
C541 H525 0.959 . S
C541 H526 0.959 . S
C541 H527 0.961 . S
C541 C540 1.502 . S
C542 H528 0.960 . S
C542 H529 0.961 . S
C542 H530 0.959 . S
C542 C540 1.561 . S
C543 C540 1.526 . S
C543 C544 1.396 . S
C543 C548 1.390 . S
C544 C538 1.465 . S
C544 C543 1.396 . S
C544 C545 1.399 . S
C545 H531 0.929 . S
C545 C544 1.399 . S
C545 C546 1.385 . S
C546 H532 0.931 . S
C546 C545 1.385 . S
C546 C547 1.389 . S
C547 C546 1.389 . S
C547 C548 1.387 . S
C548 H533 0.930 . S
C548 C543 1.390 . S
C548 C547 1.387 . S
H549 C561 0.930 . S
H550 C563 0.930 . S
H551 C564 0.930 . S
H552 C568 0.959 . S
H553 C568 0.959 . S
H554 C568 0.961 . S
H555 C569 0.960 . S
H556 C569 0.961 . S
H557 C569 0.959 . S
H558 C572 0.929 . S
H559 C573 0.931 . S
H560 C575 0.930 . S
C561 H549 0.930 . S
C561 C562 1.399 . S
C561 C566 1.399 . S
C562 C561 1.399 . S
C562 C563 1.376 . S
C563 H550 0.930 . S
C563 C562 1.376 . S
C563 C564 1.388 . S
C564 H551 0.930 . S
C564 C563 1.388 . S
C564 C565 1.390 . S
C565 C564 1.390 . S
C565 C566 1.394 . S
C565 C571 1.465 . S
C566 C561 1.399 . S
C566 C565 1.394 . S
C566 C567 1.516 . S
C567 C566 1.516 . S
C567 C568 1.502 . S
C567 C569 1.561 . S
C567 C570 1.526 . S
C568 H552 0.959 . S
C568 H553 0.959 . S
C568 H554 0.961 . S
C568 C567 1.502 . S
C569 H555 0.960 . S
C569 H556 0.961 . S
C569 H557 0.959 . S
C569 C567 1.561 . S
C570 C567 1.526 . S
C570 C571 1.396 . S
C570 C575 1.390 . S
C571 C565 1.465 . S
C571 C570 1.396 . S
C571 C572 1.399 . S
C572 H558 0.929 . S
C572 C571 1.399 . S
C572 C573 1.385 . S
C573 H559 0.931 . S
C573 C572 1.385 . S
C573 C574 1.389 . S
C574 C573 1.389 . S
C574 C575 1.387 . S
C575 H560 0.930 . S
C575 C570 1.390 . S
C575 C574 1.387 . S
H576 C588 0.930 . S
H577 C590 0.930 . S
H578 C591 0.930 . S
H579 C595 0.959 . S
H580 C595 0.959 . S
H581 C595 0.961 . S
H582 C596 0.960 . S
H583 C596 0.961 . S
H584 C596 0.959 . S
H585 C599 0.929 . S
H586 C600 0.931 . S
H587 C602 0.930 . S
C588 H576 0.930 . S
C588 C589 1.399 . S
C588 C593 1.399 . S
C589 C588 1.399 . S
C589 C590 1.376 . S
C590 H577 0.930 . S
C590 C589 1.376 . S
C590 C591 1.388 . S
C591 H578 0.930 . S
C591 C590 1.388 . S
C591 C592 1.390 . S
C592 C591 1.390 . S
C592 C593 1.394 . S
C592 C598 1.465 . S
C593 C588 1.399 . S
C593 C592 1.394 . S
C593 C594 1.516 . S
C594 C593 1.516 . S
C594 C595 1.502 . S
C594 C596 1.561 . S
C594 C597 1.526 . S
C595 H579 0.959 . S
C595 H580 0.959 . S
C595 H581 0.961 . S
C595 C594 1.502 . S
C596 H582 0.960 . S
C596 H583 0.961 . S
C596 H584 0.959 . S
C596 C594 1.561 . S
C597 C594 1.526 . S
C597 C598 1.396 . S
C597 C602 1.390 . S
C598 C592 1.465 . S
C598 C597 1.396 . S
C598 C599 1.399 . S
C599 H585 0.929 . S
C599 C598 1.399 . S
C599 C600 1.385 . S
C600 H586 0.931 . S
C600 C599 1.385 . S
C600 C601 1.389 . S
C601 C600 1.389 . S
C601 C602 1.387 . S
C602 H587 0.930 . S
C602 C597 1.390 . S
C602 C601 1.387 . S
H603 C615 0.930 . S
H604 C617 0.930 . S
H605 C618 0.930 . S
H606 C622 0.959 . S
H607 C622 0.959 . S
H608 C622 0.961 . S
H609 C623 0.960 . S
H610 C623 0.961 . S
H611 C623 0.959 . S
H612 C626 0.929 . S
H613 C627 0.931 . S
H614 C629 0.930 . S
C615 H603 0.930 . S
C615 C616 1.399 . S
C615 C620 1.399 . S
C616 C615 1.399 . S
C616 C617 1.376 . S
C617 H604 0.930 . S
C617 C616 1.376 . S
C617 C618 1.388 . S
C618 H605 0.930 . S
C618 C617 1.388 . S
C618 C619 1.390 . S
C619 C618 1.390 . S
C619 C620 1.394 . S
C619 C625 1.465 . S
C620 C615 1.399 . S
C620 C619 1.394 . S
C620 C621 1.516 . S
C621 C620 1.516 . S
C621 C622 1.502 . S
C621 C623 1.561 . S
C621 C624 1.526 . S
C622 H606 0.959 . S
C622 H607 0.959 . S
C622 H608 0.961 . S
C622 C621 1.502 . S
C623 H609 0.960 . S
C623 H610 0.961 . S
C623 H611 0.959 . S
C623 C621 1.561 . S
C624 C621 1.526 . S
C624 C625 1.396 . S
C624 C629 1.390 . S
C625 C619 1.465 . S
C625 C624 1.396 . S
C625 C626 1.399 . S
C626 H612 0.929 . S
C626 C625 1.399 . S
C626 C627 1.385 . S
C627 H613 0.931 . S
C627 C626 1.385 . S
C627 C628 1.389 . S
C628 C627 1.389 . S
C628 C629 1.387 . S
C629 H614 0.930 . S
C629 C624 1.390 . S
C629 C628 1.387 . S
H630 C642 0.930 . S
H631 C644 0.930 . S
H632 C645 0.930 . S
H633 C649 0.959 . S
H634 C649 0.959 . S
H635 C649 0.961 . S
H636 C650 0.960 . S
H637 C650 0.961 . S
H638 C650 0.959 . S
H639 C653 0.929 . S
H640 C654 0.931 . S
H641 C656 0.930 . S
C642 H630 0.930 . S
C642 C643 1.399 . S
C642 C647 1.399 . S
C643 C642 1.399 . S
C643 C644 1.376 . S
C644 H631 0.930 . S
C644 C643 1.376 . S
C644 C645 1.388 . S
C645 H632 0.930 . S
C645 C644 1.388 . S
C645 C646 1.390 . S
C646 C645 1.390 . S
C646 C647 1.394 . S
C646 C652 1.465 . S
C647 C642 1.399 . S
C647 C646 1.394 . S
C647 C648 1.516 . S
C648 C647 1.516 . S
C648 C649 1.502 . S
C648 C650 1.561 . S
C648 C651 1.526 . S
C649 H633 0.959 . S
C649 H634 0.959 . S
C649 H635 0.961 . S
C649 C648 1.502 . S
C650 H636 0.960 . S
C650 H637 0.961 . S
C650 H638 0.959 . S
C650 C648 1.561 . S
C651 C648 1.526 . S
C651 C652 1.396 . S
C651 C656 1.390 . S
C652 C646 1.465 . S
C652 C651 1.396 . S
C652 C653 1.399 . S
C653 H639 0.929 . S
C653 C652 1.399 . S
C653 C654 1.385 . S
C654 H640 0.931 . S
C654 C653 1.385 . S
C654 C655 1.389 . S
C655 C654 1.389 . S
C655 C656 1.387 . S
C656 H641 0.930 . S
C656 C651 1.390 . S
C656 C655 1.387 . S
H657 C669 0.930 . S
H658 C671 0.930 . S
H659 C672 0.930 . S
H660 C676 0.959 . S
H661 C676 0.959 . S
H662 C676 0.961 . S
H663 C677 0.960 . S
H664 C677 0.961 . S
H665 C677 0.959 . S
H666 C680 0.929 . S
H667 C681 0.931 . S
H668 C683 0.930 . S
C669 H657 0.930 . S
C669 C670 1.399 . S
C669 C674 1.399 . S
C670 C669 1.399 . S
C670 C671 1.376 . S
C671 H658 0.930 . S
C671 C670 1.376 . S
C671 C672 1.388 . S
C672 H659 0.930 . S
C672 C671 1.388 . S
C672 C673 1.390 . S
C673 C672 1.390 . S
C673 C674 1.394 . S
C673 C679 1.465 . S
C674 C669 1.399 . S
C674 C673 1.394 . S
C674 C675 1.516 . S
C675 C674 1.516 . S
C675 C676 1.502 . S
C675 C677 1.561 . S
C675 C678 1.526 . S
C676 H660 0.959 . S
C676 H661 0.959 . S
C676 H662 0.961 . S
C676 C675 1.502 . S
C677 H663 0.960 . S
C677 H664 0.961 . S
C677 H665 0.959 . S
C677 C675 1.561 . S
C678 C675 1.526 . S
C678 C679 1.396 . S
C678 C683 1.390 . S
C679 C673 1.465 . S
C679 C678 1.396 . S
C679 C680 1.399 . S
C680 H666 0.929 . S
C680 C679 1.399 . S
C680 C681 1.385 . S
C681 H667 0.931 . S
C681 C680 1.385 . S
C681 C682 1.389 . S
C682 C681 1.389 . S
C682 C683 1.387 . S
C683 H668 0.930 . S
C683 C678 1.390 . S
C683 C682 1.387 . S
H684 C696 0.930 . S
H685 C698 0.930 . S
H686 C699 0.930 . S
H687 C703 0.959 . S
H688 C703 0.959 . S
H689 C703 0.961 . S
H690 C704 0.960 . S
H691 C704 0.961 . S
H692 C704 0.959 . S
H693 C707 0.929 . S
H694 C708 0.931 . S
H695 C710 0.930 . S
C696 H684 0.930 . S
C696 C697 1.399 . S
C696 C701 1.399 . S
C697 C696 1.399 . S
C697 C698 1.376 . S
C698 H685 0.930 . S
C698 C697 1.376 . S
C698 C699 1.388 . S
C699 H686 0.930 . S
C699 C698 1.388 . S
C699 C700 1.390 . S
C700 C699 1.390 . S
C700 C701 1.394 . S
C700 C706 1.465 . S
C701 C696 1.399 . S
C701 C700 1.394 . S
C701 C702 1.516 . S
C702 C701 1.516 . S
C702 C703 1.502 . S
C702 C704 1.561 . S
C702 C705 1.526 . S
C703 H687 0.959 . S
C703 H688 0.959 . S
C703 H689 0.961 . S
C703 C702 1.502 . S
C704 H690 0.960 . S
C704 H691 0.961 . S
C704 H692 0.959 . S
C704 C702 1.561 . S
C705 C702 1.526 . S
C705 C706 1.396 . S
C705 C710 1.390 . S
C706 C700 1.465 . S
C706 C705 1.396 . S
C706 C707 1.399 . S
C707 H693 0.929 . S
C707 C706 1.399 . S
C707 C708 1.385 . S
C708 H694 0.931 . S
C708 C707 1.385 . S
C708 C709 1.389 . S
C709 C708 1.389 . S
C709 C710 1.387 . S
C710 H695 0.930 . S
C710 C705 1.390 . S
C710 C709 1.387 . S
H711 C723 0.930 . S
H712 C725 0.930 . S
H713 C726 0.930 . S
H714 C730 0.959 . S
H715 C730 0.959 . S
H716 C730 0.961 . S
H717 C731 0.960 . S
H718 C731 0.961 . S
H719 C731 0.959 . S
H720 C734 0.929 . S
H721 C735 0.931 . S
H722 C737 0.930 . S
C723 H711 0.930 . S
C723 C724 1.399 . S
C723 C728 1.399 . S
C724 C723 1.399 . S
C724 C725 1.376 . S
C725 H712 0.930 . S
C725 C724 1.376 . S
C725 C726 1.388 . S
C726 H713 0.930 . S
C726 C725 1.388 . S
C726 C727 1.390 . S
C727 C726 1.390 . S
C727 C728 1.394 . S
C727 C733 1.465 . S
C728 C723 1.399 . S
C728 C727 1.394 . S
C728 C729 1.516 . S
C729 C728 1.516 . S
C729 C730 1.502 . S
C729 C731 1.561 . S
C729 C732 1.526 . S
C730 H714 0.959 . S
C730 H715 0.959 . S
C730 H716 0.961 . S
C730 C729 1.502 . S
C731 H717 0.960 . S
C731 H718 0.961 . S
C731 H719 0.959 . S
C731 C729 1.561 . S
C732 C729 1.526 . S
C732 C733 1.396 . S
C732 C737 1.390 . S
C733 C727 1.465 . S
C733 C732 1.396 . S
C733 C734 1.399 . S
C734 H720 0.929 . S
C734 C733 1.399 . S
C734 C735 1.385 . S
C735 H721 0.931 . S
C735 C734 1.385 . S
C735 C736 1.389 . S
C736 C735 1.389 . S
C736 C737 1.387 . S
C737 H722 0.930 . S
C737 C732 1.390 . S
C737 C736 1.387 . S
H738 C750 0.930 . S
H739 C752 0.930 . S
H740 C753 0.930 . S
H741 C757 0.959 . S
H742 C757 0.959 . S
H743 C757 0.961 . S
H744 C758 0.960 . S
H745 C758 0.961 . S
H746 C758 0.959 . S
H747 C761 0.929 . S
H748 C762 0.931 . S
H749 C764 0.930 . S
C750 H738 0.930 . S
C750 C751 1.399 . S
C750 C755 1.399 . S
C751 C750 1.399 . S
C751 C752 1.376 . S
C752 H739 0.930 . S
C752 C751 1.376 . S
C752 C753 1.388 . S
C753 H740 0.930 . S
C753 C752 1.388 . S
C753 C754 1.390 . S
C754 C753 1.390 . S
C754 C755 1.394 . S
C754 C760 1.465 . S
C755 C750 1.399 . S
C755 C754 1.394 . S
C755 C756 1.516 . S
C756 C755 1.516 . S
C756 C757 1.502 . S
C756 C758 1.561 . S
C756 C759 1.526 . S
C757 H741 0.959 . S
C757 H742 0.959 . S
C757 H743 0.961 . S
C757 C756 1.502 . S
C758 H744 0.960 . S
C758 H745 0.961 . S
C758 H746 0.959 . S
C758 C756 1.561 . S
C759 C756 1.526 . S
C759 C760 1.396 . S
C759 C764 1.390 . S
C760 C754 1.465 . S
C760 C759 1.396 . S
C760 C761 1.399 . S
C761 H747 0.929 . S
C761 C760 1.399 . S
C761 C762 1.385 . S
C762 H748 0.931 . S
C762 C761 1.385 . S
C762 C763 1.389 . S
C763 C762 1.389 . S
C763 C764 1.387 . S
C764 H749 0.930 . S
C764 C759 1.390 . S
C764 C763 1.387 . S
H765 C777 0.930 . S
H766 C779 0.930 . S
H767 C780 0.930 . S
H768 C784 0.959 . S
H769 C784 0.959 . S
H770 C784 0.961 . S
H771 C785 0.960 . S
H772 C785 0.961 . S
H773 C785 0.959 . S
H774 C788 0.929 . S
H775 C789 0.931 . S
H776 C791 0.930 . S
C777 H765 0.930 . S
C777 C778 1.399 . S
C777 C782 1.399 . S
C778 C777 1.399 . S
C778 C779 1.376 . S
C779 H766 0.930 . S
C779 C778 1.376 . S
C779 C780 1.388 . S
C780 H767 0.930 . S
C780 C779 1.388 . S
C780 C781 1.390 . S
C781 C780 1.390 . S
C781 C782 1.394 . S
C781 C787 1.465 . S
C782 C777 1.399 . S
C782 C781 1.394 . S
C782 C783 1.516 . S
C783 C782 1.516 . S
C783 C784 1.502 . S
C783 C785 1.561 . S
C783 C786 1.526 . S
C784 H768 0.959 . S
C784 H769 0.959 . S
C784 H770 0.961 . S
C784 C783 1.502 . S
C785 H771 0.960 . S
C785 H772 0.961 . S
C785 H773 0.959 . S
C785 C783 1.561 . S
C786 C783 1.526 . S
C786 C787 1.396 . S
C786 C791 1.390 . S
C787 C781 1.465 . S
C787 C786 1.396 . S
C787 C788 1.399 . S
C788 H774 0.929 . S
C788 C787 1.399 . S
C788 C789 1.385 . S
C789 H775 0.931 . S
C789 C788 1.385 . S
C789 C790 1.389 . S
C790 C789 1.389 . S
C790 C791 1.387 . S
C791 H776 0.930 . S
C791 C786 1.390 . S
C791 C790 1.387 . S
H792 C804 0.930 . S
H793 C806 0.930 . S
H794 C807 0.930 . S
H795 C811 0.959 . S
H796 C811 0.959 . S
H797 C811 0.961 . S
H798 C812 0.960 . S
H799 C812 0.961 . S
H800 C812 0.959 . S
H801 C815 0.929 . S
H802 C816 0.931 . S
H803 C818 0.930 . S
C804 H792 0.930 . S
C804 C805 1.399 . S
C804 C809 1.399 . S
C805 C804 1.399 . S
C805 C806 1.376 . S
C806 H793 0.930 . S
C806 C805 1.376 . S
C806 C807 1.388 . S
C807 H794 0.930 . S
C807 C806 1.388 . S
C807 C808 1.390 . S
C808 C807 1.390 . S
C808 C809 1.394 . S
C808 C814 1.465 . S
C809 C804 1.399 . S
C809 C808 1.394 . S
C809 C810 1.516 . S
C810 C809 1.516 . S
C810 C811 1.502 . S
C810 C812 1.561 . S
C810 C813 1.526 . S
C811 H795 0.959 . S
C811 H796 0.959 . S
C811 H797 0.961 . S
C811 C810 1.502 . S
C812 H798 0.960 . S
C812 H799 0.961 . S
C812 H800 0.959 . S
C812 C810 1.561 . S
C813 C810 1.526 . S
C813 C814 1.396 . S
C813 C818 1.390 . S
C814 C808 1.465 . S
C814 C813 1.396 . S
C814 C815 1.399 . S
C815 H801 0.929 . S
C815 C814 1.399 . S
C815 C816 1.385 . S
C816 H802 0.931 . S
C816 C815 1.385 . S
C816 C817 1.389 . S
C817 C816 1.389 . S
C817 C818 1.387 . S
C818 H803 0.930 . S
C818 C813 1.390 . S
C818 C817 1.387 . S
C196 C96 1.091 . S
C184 C4 1.208 . S
C223 C132 1.565 . S
C211 C13 1.714 . S
C250 C97 1.324 . S
C238 C25 1.331 . S
C277 C127 1.488 . S
C265 C32 1.519 . S
C304 C94 1.368 . S
C292 C41 1.475 . S
C319 C52 1.588 . S
C331 C130 1.591 . S
C346 C61 1.247 . S
C358 C99 1.060 . S
C385 C129 1.394 . S
C373 C67 1.417 . S
C412 C133 1.387 . S
C400 C7 1.411 . S
C439 C98 1.400 . S
C427 C14 1.485 . S
C466 C126 1.577 . S
C454 C22 1.570 . S
C493 C95 1.176 . S
C481 C31 1.226 . S
C520 C128 1.607 . S
C508 C40 1.684 . S
C535 C49 1.331 . S
C547 C93 1.339 . S
C562 C59 1.510 . S
C574 C131 1.414 . S
C601 C100 1.172 . S
C589 C70 1.206 . S
C628 C162 1.583 . S
C616 C5 1.690 . S
C643 C43 1.918 . S
C655 C165 1.787 . S
C682 C164 1.511 . S
C670 C50 1.604 . S
C697 C58 1.930 . S
C709 C163 1.932 . S
C736 C166 1.599 . S
C724 C68 1.676 . S
C751 C23 1.615 . S
C763 C160 1.588 . S
C790 C159 1.878 . S
C778 C34 1.899 . S
C805 C16 1.958 . S
C817 C161 1.809 . S
