# Generated by pormake.
# Topology zzz, (3,6)-cn, num edge types: 1
# Building blocks:
#     Node 0, Type 0, BuildingBlock: CUQRIR_clean_linker_1, # of connection points: 3
#     Node 1, Type 0, BuildingBlock: CUQRIR_clean_linker_1, # of connection points: 3
#     Node 2, Type 0, BuildingBlock: CUQRIR_clean_linker_1, # of connection points: 3
#     Node 3, Type 0, BuildingBlock: CUQRIR_clean_linker_1, # of connection points: 3
#     Node 4, Type 0, BuildingBlock: CUQRIR_clean_linker_1, # of connection points: 3
#     Node 5, Type 0, BuildingBlock: CUQRIR_clean_linker_1, # of connection points: 3
#     Node 6, Type 0, BuildingBlock: CUQRIR_clean_linker_1, # of connection points: 3
#     Node 7, Type 0, BuildingBlock: CUQRIR_clean_linker_1, # of connection points: 3
#     Node 8, Type 1, BuildingBlock: BETFEN_clean_sbu_0, # of connection points: 6
#     Node 9, Type 1, BuildingBlock: BETFEN_clean_sbu_0, # of connection points: 6
#     Node 10, Type 1, BuildingBlock: BETFEN_clean_sbu_0, # of connection points: 6
#     Node 11, Type 1, BuildingBlock: BETFEN_clean_sbu_0, # of connection points: 6
#     Edge 12, Type (0, 1), BuildingBlock: KIFKEQ_clean_linker_1, # of connection points: 2
#     Edge 13, Type (0, 1), BuildingBlock: KIFKEQ_clean_linker_1, # of connection points: 2
#     Edge 14, Type (0, 1), BuildingBlock: KIFKEQ_clean_linker_1, # of connection points: 2
#     Edge 15, Type (0, 1), BuildingBlock: KIFKEQ_clean_linker_1, # of connection points: 2
#     Edge 16, Type (0, 1), BuildingBlock: KIFKEQ_clean_linker_1, # of connection points: 2
#     Edge 17, Type (0, 1), BuildingBlock: KIFKEQ_clean_linker_1, # of connection points: 2
#     Edge 18, Type (0, 1), BuildingBlock: KIFKEQ_clean_linker_1, # of connection points: 2
#     Edge 19, Type (0, 1), BuildingBlock: KIFKEQ_clean_linker_1, # of connection points: 2
#     Edge 20, Type (0, 1), BuildingBlock: KIFKEQ_clean_linker_1, # of connection points: 2
#     Edge 21, Type (0, 1), BuildingBlock: KIFKEQ_clean_linker_1, # of connection points: 2
#     Edge 22, Type (0, 1), BuildingBlock: KIFKEQ_clean_linker_1, # of connection points: 2
#     Edge 23, Type (0, 1), BuildingBlock: KIFKEQ_clean_linker_1, # of connection points: 2
#     Edge 24, Type (0, 1), BuildingBlock: KIFKEQ_clean_linker_1, # of connection points: 2
#     Edge 25, Type (0, 1), BuildingBlock: KIFKEQ_clean_linker_1, # of connection points: 2
#     Edge 26, Type (0, 1), BuildingBlock: KIFKEQ_clean_linker_1, # of connection points: 2
#     Edge 27, Type (0, 1), BuildingBlock: KIFKEQ_clean_linker_1, # of connection points: 2
#     Edge 28, Type (0, 1), BuildingBlock: KIFKEQ_clean_linker_1, # of connection points: 2
#     Edge 29, Type (0, 1), BuildingBlock: KIFKEQ_clean_linker_1, # of connection points: 2
#     Edge 30, Type (0, 1), BuildingBlock: KIFKEQ_clean_linker_1, # of connection points: 2
#     Edge 31, Type (0, 1), BuildingBlock: KIFKEQ_clean_linker_1, # of connection points: 2
#     Edge 32, Type (0, 1), BuildingBlock: KIFKEQ_clean_linker_1, # of connection points: 2
#     Edge 33, Type (0, 1), BuildingBlock: KIFKEQ_clean_linker_1, # of connection points: 2
#     Edge 34, Type (0, 1), BuildingBlock: KIFKEQ_clean_linker_1, # of connection points: 2
#     Edge 35, Type (0, 1), BuildingBlock: KIFKEQ_clean_linker_1, # of connection points: 2
# Relax obj value: 0.311
# Max RMSD: 0.196
# Mean RMSD: 0.159
data_MOF--net-zzz--node1-BETFEN_clean_sbu_0--node2-CUQRIR_clean_linker_1--edge1-KIFKEQ_clean_linker_1
_symmetry_space_group_name_H-M    P1
_symmetry_Int_Tables_number       1
_symmetry_cell_setting            triclinic
loop_
_symmetry_equiv_pos_as_xyz
'x, y, z'
_cell_length_a     49.11816
_cell_length_b     49.214236
_cell_length_c     12.261287
_cell_angle_alpha  90.026943
_cell_angle_beta   89.872752
_cell_angle_gamma 89.632704
loop_
_atom_site_label
_atom_site_type_symbol
_atom_site_fract_x
_atom_site_fract_y
_atom_site_fract_z
_atom_type_partial_charge
C0 C 0.75276 0.51484 0.41387 0.0
N1 N 0.77452 0.49902 0.44055 0.0
N2 N 0.73433 0.50054 0.35438 0.0
C3 C 0.74986 0.54425 0.44404 0.0
C4 C 0.7461 0.47563 0.34453 0.0
N5 N 0.77032 0.47468 0.39694 0.0
C6 C 0.73519 0.45304 0.2742 0.0
H7 H 0.75981 0.54825 0.52358 0.0
H8 H 0.72808 0.5503 0.44806 0.0
H9 H 0.76012 0.55677 0.38113 0.0
H10 H 0.72793 0.46131 0.19515 0.0
H11 H 0.71762 0.44354 0.31603 0.0
H12 H 0.75053 0.43688 0.25882 0.0
C13 C 0.03282 0.75223 0.42033 0.0
N14 N 0.04879 0.77366 0.44709 0.0
N15 N 0.04728 0.73314 0.3637 0.0
C16 C 1.00309 0.75035 0.44719 0.0
C17 C 0.07246 0.74416 0.35564 0.0
N18 N 0.07339 0.7686 0.40627 0.0
C19 C 0.09539 0.73231 0.28842 0.0
H20 H 0.99866 0.76071 0.52573 0.0
H21 H 0.99661 0.72882 0.45157 0.0
H22 H 0.99123 0.76073 0.38236 0.0
H23 H 0.08758 0.72527 0.20842 0.0
H24 H 0.10408 0.71447 0.33156 0.0
H25 H 0.11209 0.74698 0.27505 0.0
C26 C 0.80118 0.03772 0.42694 0.0
N27 N 0.77939 0.05375 0.45153 0.0
N28 N 0.81994 0.05171 0.36775 0.0
C29 C 0.80379 1.00839 0.45856 0.0
C30 C 0.80838 0.07664 0.35601 0.0
N31 N 0.7839 0.0779 0.40682 0.0
C32 C 0.81958 0.09877 0.28394 0.0
H33 H 0.7936 1.00471 0.53804 0.0
H34 H 0.82552 1.0022 0.46338 0.0
H35 H 0.79361 0.99574 0.39601 0.0
H36 H 0.82624 0.0901 0.20458 0.0
H37 H 0.83761 0.10787 0.32372 0.0
H38 H 0.8046 0.1153 0.26934 0.0
C39 C 0.51998 0.7991 0.42107 0.0
N40 N 0.50393 0.7775 0.44502 0.0
N41 N 0.50586 0.81822 0.36355 0.0
C42 C 0.54942 0.80119 0.45178 0.0
C43 C 0.48085 0.80704 0.35201 0.0
N44 N 0.47965 0.7825 0.40155 0.0
C45 C 0.45846 0.81884 0.28219 0.0
H46 H 0.55325 0.79064 0.5303 0.0
H47 H 0.55564 0.82277 0.45804 0.0
H48 H 0.56196 0.79112 0.38794 0.0
H49 H 0.46696 0.82624 0.20378 0.0
H50 H 0.4491 0.83641 0.32509 0.0
H51 H 0.44211 0.804 0.26552 0.0
C52 C 0.29993 0.53505 0.12376 0.0
N53 N 0.27801 0.55097 0.10019 0.0
N54 N 0.31869 0.5491 0.18254 0.0
C55 C 0.30269 0.50578 0.09139 0.0
C56 C 0.30697 0.57395 0.19518 0.0
N57 N 0.28245 0.57511 0.14518 0.0
C58 C 0.31815 0.59611 0.26702 0.0
H59 H 0.29275 0.49299 0.15421 0.0
H60 H 0.32446 0.49975 0.08538 0.0
H61 H 0.29238 0.5021 0.01235 0.0
H62 H 0.33589 0.60552 0.22603 0.0
H63 H 0.32525 0.58741 0.34556 0.0
H64 H 0.30301 0.6124 0.28336 0.0
C65 C 1.02041 0.29989 0.12303 0.0
N66 N 1.00358 0.27947 0.09231 0.0
N67 N 1.00623 0.32 0.17422 0.0
C68 C 0.05079 0.29916 0.11168 0.0
C69 C 0.98038 0.31072 0.17553 0.0
N70 N 0.97868 0.28614 0.12637 0.0
C71 C 0.95742 0.32421 0.23674 0.0
H72 H 0.05957 0.28868 0.18373 0.0
H73 H 0.05906 0.32007 0.10837 0.0
H74 H 0.05685 0.28768 0.03746 0.0
H75 H 0.95839 0.34659 0.22665 0.0
H76 H 0.95951 0.3196 0.32493 0.0
H77 H 0.9374 0.31675 0.20803 0.0
C78 C 0.25362 1.01423 0.13478 0.0
N79 N 0.27574 0.99851 0.11184 0.0
N80 N 0.23502 1.00016 0.19457 0.0
C81 C 0.25047 0.04333 0.10051 0.0
C82 C 0.24704 0.9755 0.20842 0.0
N83 N 0.27157 0.97446 0.15803 0.0
C84 C 0.23613 0.95344 0.28152 0.0
H85 H 0.2602 0.05653 0.16239 0.0
H86 H 0.22863 0.04902 0.09422 0.0
H87 H 0.26079 0.0468 0.02117 0.0
H88 H 0.21886 0.94332 0.24031 0.0
H89 H 0.22844 0.96234 0.35898 0.0
H90 H 0.25162 0.93764 0.30002 0.0
C91 C 0.53369 0.25177 0.12863 0.0
N92 N 0.54992 0.27293 0.10072 0.0
N93 N 0.54798 0.23259 0.18512 0.0
C94 C 0.5039 0.25022 0.10315 0.0
C95 C 0.57331 0.24328 0.19189 0.0
N96 N 0.57451 0.26763 0.14078 0.0
C97 C 0.59612 0.23126 0.25885 0.0
H98 H 0.49228 0.26084 0.16828 0.0
H99 H 0.49714 0.22876 0.09963 0.0
H100 H 0.49947 0.2605 0.02456 0.0
H101 H 0.60428 0.21296 0.21691 0.0
H102 H 0.58833 0.22487 0.33986 0.0
H103 H 0.6132 0.2456 0.26999 0.0
Pr104 Pr 0.04016 1.02111 0.87392 0.0
Pr105 Pr 1.01095 0.03142 0.67065 0.0
C106 C 0.05862 1.00722 0.07304 0.0
C107 C 0.07644 0.98787 0.12976 0.0
C108 C 0.10241 0.9811 0.08975 0.0
C109 C 0.11793 0.96098 0.14116 0.0
C110 C 0.10764 0.94716 0.23286 0.0
C111 C 0.0821 0.95511 0.2752 0.0
C112 C 0.06678 0.97533 0.22438 0.0
C113 C 0.07587 0.03131 0.6987 0.0
C114 C 0.0282 0.96798 0.71222 0.0
C115 C 0.99229 0.04588 0.47238 0.0
C116 C 0.97521 0.06613 0.41681 0.0
C117 C 0.94962 0.07395 0.45771 0.0
C118 C 0.93483 0.09473 0.407 0.0
C119 C 0.94546 0.10818 0.31498 0.0
C120 C 0.97066 0.09932 0.27224 0.0
C121 C 0.98525 0.07845 0.32233 0.0
C122 C 0.97555 1.02111 0.84665 0.0
C123 C 1.02278 0.08445 0.8323 0.0
O124 O 0.03619 0.99748 0.03145 0.0
O125 O 0.07023 1.02549 0.01148 0.0
O126 O 0.055 1.01655 0.6944 0.0
O127 O 0.07912 0.04093 0.79622 0.0
O128 O 1.02412 0.98645 0.63619 0.0
O129 O 0.03153 0.97567 0.81489 0.0
O130 O 1.0154 0.0545 0.51205 0.0
O131 O 0.98011 0.02824 0.53509 0.0
O132 O 0.9963 0.03603 0.84999 0.0
O133 O 0.97211 1.01144 0.74931 0.0
O134 O 1.02651 0.06594 0.90835 0.0
O135 O 1.01979 0.07681 0.72947 0.0
H136 H 0.1104 0.99079 0.01723 0.0
H137 H 0.13768 0.95585 0.10743 0.0
H138 H 0.07304 0.94474 0.34395 0.0
H139 H 0.04685 0.98047 0.25681 0.0
H140 H 0.94133 0.06449 0.53019 0.0
H141 H 0.9153 0.10053 0.44116 0.0
H142 H 0.98004 0.10939 0.20345 0.0
H143 H 1.0049 0.07256 0.28928 0.0
Pr144 Pr 0.53206 0.04195 0.88122 0.0
Pr145 Pr 0.52303 1.01154 0.68297 0.0
C146 C 0.54571 0.06258 0.07699 0.0
C147 C 0.56482 0.08148 0.12781 0.0
C148 C 0.57207 0.10599 0.07741 0.0
C149 C 0.59224 0.12231 0.12311 0.0
C150 C 0.60564 0.11424 0.21937 0.0
C151 C 0.59717 0.09023 0.27185 0.0
C152 C 0.57692 0.07412 0.22661 0.0
C153 C 0.52039 0.0765 0.7037 0.0
C154 C 0.58574 0.03055 0.72126 0.0
C155 C 0.50962 0.99082 0.4871 0.0
C156 C 0.49068 0.97186 0.4356 0.0
C157 C 0.48398 0.94697 0.48424 0.0
C158 C 0.46396 0.93055 0.43801 0.0
C159 C 0.45018 0.93892 0.34306 0.0
C160 C 0.45813 0.96329 0.29211 0.0
C161 C 0.47823 0.9795 0.33784 0.0
C162 C 0.53478 0.97708 0.86052 0.0
C163 C 0.46929 1.02298 0.84278 0.0
O164 O 0.55611 0.03999 0.03832 0.0
O165 O 0.52675 0.07303 0.01506 0.0
O166 O 0.53606 0.0561 0.70051 0.0
O167 O 0.51053 0.0798 0.80094 0.0
O168 O 0.56736 0.02589 0.64578 0.0
O169 O 0.5779 0.03406 0.82367 0.0
O170 O 0.49908 1.01336 0.52558 0.0
O171 O 0.52855 0.98043 0.5494 0.0
O172 O 0.51896 0.99738 0.86354 0.0
O173 O 0.54483 0.97393 0.76351 0.0
O174 O 0.48764 0.0278 0.91826 0.0
O175 O 0.47716 1.01932 0.74047 0.0
H176 H 0.56275 0.11214 1.00122 0.0
H177 H 0.5978 0.14085 0.08142 0.0
H178 H 0.60721 0.08284 0.34461 0.0
H179 H 0.57144 0.05532 0.2668 0.0
H180 H 0.49358 0.94059 0.55954 0.0
H181 H 0.45875 0.91173 0.47842 0.0
H182 H 0.44778 0.97086 0.22031 0.0
H183 H 0.48331 0.99859 0.29893 0.0
Pr184 Pr 0.5116 0.52988 0.86876 0.0
Pr185 Pr 0.54137 0.51983 0.66801 0.0
C186 C 0.4919 0.54381 0.06634 0.0
C187 C 0.47363 0.56326 0.12047 0.0
C188 C 0.44847 0.57076 0.07508 0.0
C189 C 0.43273 0.59118 0.1238 0.0
C190 C 0.44202 0.60458 0.21806 0.0
C191 C 0.46664 0.59584 0.26583 0.0
C192 C 0.48217 0.57533 0.21764 0.0
C193 C 0.47641 0.51933 0.69248 0.0
C194 C 0.52375 0.58312 0.70879 0.0
C195 C 0.56089 0.50583 0.4702 0.0
C196 C 0.57903 0.48635 0.41547 0.0
C197 C 0.60452 0.47926 0.45883 0.0
C198 C 0.6203 0.459 0.4092 0.0
C199 C 0.61073 0.44535 0.31593 0.0
C200 C 0.58568 0.45362 0.27038 0.0
C201 C 0.57011 0.47397 0.31947 0.0
C202 C 0.5765 0.53048 0.8441 0.0
C203 C 0.52958 0.46666 0.82917 0.0
O204 O 0.51456 0.55358 0.02649 0.0
O205 O 0.48077 0.52543 1.00414 0.0
O206 O 0.49711 0.53434 0.68883 0.0
O207 O 0.47313 0.50954 0.78969 0.0
O208 O 0.52792 0.56466 0.63279 0.0
O209 O 0.52026 0.57538 0.81126 0.0
O210 O 0.53821 0.49617 0.5102 0.0
O211 O 0.57215 0.52414 0.53239 0.0
O212 O 0.55586 0.51538 0.84774 0.0
O213 O 0.57979 0.54025 0.74686 0.0
O214 O 0.52537 0.48521 0.90476 0.0
O215 O 0.53295 0.47428 0.72645 0.0
H216 H 0.44137 0.56145 1.00038 0.0
H217 H 0.41368 0.59696 0.08585 0.0
H218 H 0.47492 0.60585 0.33691 0.0
H219 H 0.50147 0.56963 0.25413 0.0
H220 H 0.61193 0.48881 0.53255 0.0
H221 H 0.63966 0.45362 0.44547 0.0
H222 H 0.57715 0.4434 0.20029 0.0
H223 H 0.55056 0.47935 0.28452 0.0
Pr224 Pr 1.0213 0.51013 0.87366 0.0
Pr225 Pr 0.03023 0.54063 0.67628 0.0
C226 C 1.0083 0.48923 0.07004 0.0
C227 C 0.98928 0.47119 0.12702 0.0
C228 C 0.98433 0.44454 0.09135 0.0
C229 C 0.96479 0.42865 0.14392 0.0
C230 C 0.94969 0.43928 0.232 0.0
C231 C 0.95576 0.46556 0.27012 0.0
C232 C 0.97547 0.48121 0.21861 0.0
C233 C 0.03255 0.47588 0.6943 0.0
C234 C 0.9675 0.52171 0.71517 0.0
C235 C 0.04367 0.56149 0.48048 0.0
C236 C 0.06288 0.58016 0.42853 0.0
C237 C 0.07011 0.60488 0.47731 0.0
C238 C 0.09039 0.62095 0.4306 0.0
C239 C 0.1039 0.6124 0.33499 0.0
C240 C 0.09543 0.58823 0.28396 0.0
C241 C 0.07507 0.57237 0.33018 0.0
C242 C 1.01876 0.57504 0.85459 0.0
C243 C 0.08412 0.52876 0.83394 0.0
O244 O 0.99845 0.5123 0.03398 0.0
O245 O 1.02612 0.47813 1.00422 0.0
O246 O 1.01671 0.49615 0.69329 0.0
O247 O 0.04339 0.4729 0.78985 0.0
O248 O 0.98591 0.52643 0.63957 0.0
O249 O 0.97533 0.5181 0.81747 0.0
O250 O 0.05385 0.53869 0.51773 0.0
O251 O 1.02506 0.57211 0.54403 0.0
O252 O 0.03453 0.55469 0.85688 0.0
O253 O 1.00858 0.57823 0.758 0.0
O254 O 0.06579 0.52401 0.90983 0.0
O255 O 0.07617 0.53251 0.73192 0.0
H256 H 0.99505 0.43621 0.02154 0.0
H257 H 0.96089 0.4084 0.11339 0.0
H258 H 0.94431 0.47479 0.33617 0.0
H259 H 0.97922 0.50161 0.24807 0.0
H260 H 0.06072 0.61138 0.55306 0.0
H261 H 0.09598 0.63964 0.47111 0.0
H262 H 0.10554 0.58052 0.21168 0.0
H263 H 0.06959 0.55342 0.29114 0.0
H264 H 0.22834 0.04473 0.32302 0.0
H265 H 0.18582 0.97618 0.18934 0.0
H266 H 0.18846 0.05621 0.43421 0.0
H267 H 0.14725 0.98561 0.30842 0.0
H268 H 0.07282 1.01398 0.48676 0.0
H269 H 0.10948 1.0109 0.35268 0.0
H270 H 0.16583 0.04275 0.59058 0.0
H271 H 0.12877 0.04724 0.72147 0.0
C272 C 0.21029 0.03235 0.3163 0.0
C273 C 0.21025 1.00952 0.24747 0.0
C274 C 0.18753 0.03855 0.38178 0.0
C275 C 0.16431 1.02176 0.38167 0.0
C276 C 0.16417 0.99948 0.30956 0.0
C277 C 0.18656 0.99374 0.24236 0.0
C278 C 0.09301 1.0206 0.50972 0.0
C279 C 0.09787 0.03078 0.61495 0.0
C280 C 0.11421 1.01862 0.43304 0.0
C281 C 0.14103 0.0263 0.45999 0.0
C282 C 0.14559 0.03701 0.56505 0.0
C283 C 0.1243 0.0394 0.64097 0.0
H284 H 0.5692 0.18205 0.17204 0.0
H285 H 0.50596 0.2288 0.32881 0.0
H286 H 0.5603 0.14417 0.29387 0.0
H287 H 0.49499 0.18991 0.44468 0.0
H288 H 0.50624 0.12998 0.72846 0.0
H289 H 0.50956 0.16642 0.59528 0.0
H290 H 0.53572 0.10822 0.35143 0.0
H291 H 0.53421 0.07224 0.48789 0.0
C292 C 0.5529 0.18391 0.23114 0.0
C293 C 0.53851 0.20852 0.24147 0.0
C294 C 0.54747 0.16197 0.30036 0.0
C295 C 0.52696 0.16357 0.38064 0.0
C296 C 0.51139 0.18779 0.38622 0.0
C297 C 0.51726 0.21003 0.31818 0.0
C298 C 0.51262 0.12499 0.64619 0.0
C299 C 0.52017 0.09823 0.61912 0.0
C300 C 0.51432 0.14595 0.56889 0.0
C301 C 0.5231 0.14071 0.46122 0.0
C302 C 0.52961 0.11354 0.43354 0.0
C303 C 0.52849 0.09271 0.51166 0.0
H304 H 0.36838 0.572 0.17385 0.0
H305 H 0.32444 0.50538 0.31596 0.0
H306 H 0.40671 0.56274 0.29363 0.0
H307 H 0.36393 0.49411 0.42891 0.0
H308 H 0.42328 0.50407 0.71548 0.0
H309 H 0.3866 0.50806 0.58333 0.0
H310 H 0.44389 0.53778 0.34366 0.0
H311 H 0.48013 0.53535 0.47906 0.0
C312 C 0.36726 0.55489 0.22903 0.0
C313 C 0.34327 0.53962 0.23613 0.0
C314 C 0.38949 0.54926 0.29688 0.0
C315 C 0.38882 0.52766 0.37216 0.0
C316 C 0.36529 0.5113 0.37423 0.0
C317 C 0.34273 0.51736 0.30778 0.0
C318 C 0.42803 0.51136 0.63434 0.0
C319 C 0.45461 0.51959 0.60821 0.0
C320 C 0.40695 0.51345 0.55765 0.0
C321 C 0.41187 0.52342 0.45161 0.0
C322 C 0.43885 0.53068 0.42467 0.0
C323 C 0.45982 0.52906 0.50215 0.0
H324 H 1.0098 0.3726 0.11513 0.0
H325 H 1.02322 0.31754 0.38194 0.0
H326 H 1.0198 0.4113 0.23462 0.0
H327 H 0.03206 0.3559 0.50374 0.0
H328 H 0.06282 0.42903 0.6894 0.0
H329 H 0.06067 0.39194 0.55731 0.0
H330 H 0.99895 0.43589 0.37808 0.0
H331 H 1.00176 0.47326 0.50829 0.0
C332 C 1.01542 0.36889 0.19918 0.0
C333 C 1.01632 0.34221 0.23926 0.0
C334 C 1.02068 0.391 0.2683 0.0
C335 C 1.0265 0.38697 0.37981 0.0
C336 C 0.0281 0.36002 0.41851 0.0
C337 C 1.02307 0.33795 0.34902 0.0
C338 C 0.04897 0.43086 0.62115 0.0
C339 C 0.03242 0.4541 0.6098 0.0
C340 C 0.04757 0.40947 0.54555 0.0
C341 C 0.02949 0.41064 0.45652 0.0
C342 C 1.01339 0.43426 0.44418 0.0
C343 C 1.01488 0.4557 0.51948 0.0
H344 H 0.86986 0.07411 0.37333 0.0
H345 H 0.82477 1.00806 0.23325 0.0
H346 H 0.90766 0.06461 0.25045 0.0
H347 H 0.86376 0.99647 0.11742 0.0
H348 H 0.98012 0.03666 0.05994 0.0
H349 H 0.94438 0.03929 0.19785 0.0
H350 H 0.88602 1.01034 0.96158 0.0
H351 H 0.92224 1.0062 0.82669 0.0
C352 C 0.86839 0.05706 0.31794 0.0
C353 C 0.84423 0.04204 0.31229 0.0
C354 C 0.89031 0.05128 0.24835 0.0
C355 C 0.88916 0.02973 0.17288 0.0
C356 C 0.86547 1.0136 0.17225 0.0
C357 C 0.84322 1.01984 0.24035 0.0
C358 C 0.95968 0.03057 0.03814 0.0
C359 C 0.95402 1.0213 0.93223 0.0
C360 C 0.939 0.03229 0.11708 0.0
C361 C 0.91188 1.02532 0.09181 0.0
C362 C 0.9065 1.01551 0.98592 0.0
C363 C 0.92731 1.01332 0.9077 0.0
H364 H 0.48303 0.86811 0.37582 0.0
H365 H 0.54948 0.82386 0.22881 0.0
H366 H 0.49223 0.90671 0.25809 0.0
H367 H 0.5607 0.86358 0.11791 0.0
H368 H 0.51886 0.98025 0.07457 0.0
H369 H 0.51683 0.94367 0.2085 0.0
H370 H 0.54686 0.88709 0.96567 0.0
H371 H 0.55056 0.92409 0.83526 0.0
C372 C 0.50009 0.86696 0.31996 0.0
C373 C 0.51531 0.84281 0.31088 0.0
C374 C 0.50568 0.88935 0.25327 0.0
C375 C 0.52721 0.88869 0.1772 0.0
C376 C 0.54355 0.86496 0.17319 0.0
C377 C 0.53752 0.84225 0.23847 0.0
C378 C 0.52531 0.96002 0.05053 0.0
C379 C 0.53479 0.9551 0.9441 0.0
C380 C 0.52391 0.93885 0.12713 0.0
C381 C 0.53134 0.91195 0.09886 0.0
C382 C 0.54133 0.90734 0.99244 0.0
C383 C 0.54326 0.92862 0.91672 0.0
H384 H 0.68481 0.47721 0.36056 0.0
H385 H 0.72861 0.54417 0.22028 0.0
H386 H 0.64662 0.48638 0.23998 0.0
H387 H 0.68916 0.55542 0.10706 0.0
H388 H 0.57298 0.51412 0.05711 0.0
H389 H 0.60935 0.51146 0.19186 0.0
H390 H 0.66639 0.54172 0.95231 0.0
H391 H 0.62958 0.5459 0.82079 0.0
C392 C 0.68594 0.49435 0.30555 0.0
C393 C 0.70986 0.50976 0.29925 0.0
C394 C 0.66377 0.49995 0.23741 0.0
C395 C 0.66436 0.52171 0.16287 0.0
C396 C 0.68785 0.53814 0.1613 0.0
C397 C 0.71038 0.53208 0.22789 0.0
C398 C 0.59327 0.52048 0.03391 0.0
C399 C 0.59837 0.53014 0.92807 0.0
C400 C 0.61431 0.51873 0.111 0.0
C401 C 0.64125 0.52607 0.08386 0.0
C402 C 0.64607 0.53625 0.97808 0.0
C403 C 0.62491 0.53846 0.90177 0.0
H404 H 1.00465 0.72822 0.22425 0.0
H405 H 0.06958 0.68298 0.37579 0.0
H406 H 0.99366 0.68882 0.11144 0.0
H407 H 0.0607 0.64466 0.25622 0.0
H408 H 0.03417 0.57161 0.06889 0.0
H409 H 0.03623 0.60807 0.20336 0.0
H410 H 1.00767 0.66515 0.96026 0.0
H411 H 1.00386 0.62826 0.82939 0.0
C412 C 1.01634 0.70969 0.23436 0.0
C413 C 0.03805 0.70877 0.30875 0.0
C414 C 1.01046 0.68715 0.16799 0.0
C415 C 1.02647 0.66321 0.17274 0.0
C416 C 0.04751 0.66221 0.25057 0.0
C417 C 0.05294 0.68444 0.31835 0.0
C418 C 0.02805 0.59193 0.04491 0.0
C419 C 1.0189 0.597 0.93832 0.0
C420 C 0.02948 0.61304 0.12183 0.0
C421 C 1.02244 0.64004 0.09373 0.0
C422 C 1.01286 0.64482 0.98701 0.0
C423 C 1.01087 0.6236 0.911 0.0
H424 H 0.94471 0.2612 0.98506 0.0
H425 H 0.96838 0.26551 0.32218 0.0
H426 H 0.92074 0.21847 0.02095 0.0
H427 H 0.94502 0.22341 0.35955 0.0
H428 H 0.91623 0.14684 0.42863 0.0
H429 H 0.90827 0.19332 0.37317 0.0
H430 H 0.93994 0.17471 0.05238 0.0
H431 H 0.94508 0.1275 0.10385 0.0
C432 C 0.94394 0.25333 0.06742 0.0
C433 C 0.95843 0.26616 0.15096 0.0
C434 C 0.93034 0.22896 0.08815 0.0
C435 C 0.93116 0.21722 0.19287 0.0
C436 C 0.94345 0.23182 0.27821 0.0
C437 C 0.95697 0.25598 0.25721 0.0
C438 C 0.92021 0.15212 0.34448 0.0
C439 C 0.9326 0.13353 0.2723 0.0
C440 C 0.91591 0.17904 0.31302 0.0
C441 C 0.92468 0.18808 0.21015 0.0
C442 C 0.93326 0.16868 0.13298 0.0
C443 C 0.9368 0.14157 0.16342 0.0
H444 H 0.29473 0.93582 0.03043 0.0
H445 H 0.29725 0.97293 0.34792 0.0
H446 H 0.33724 0.911 0.07041 0.0
H447 H 0.33905 0.94858 0.38952 0.0
H448 H 0.41167 0.91373 0.46923 0.0
H449 H 0.36452 0.90734 0.41959 0.0
H450 H 0.38342 0.92844 0.08614 0.0
H451 H 0.43118 0.93243 0.13348 0.0
C452 C 0.30418 0.93804 0.10957 0.0
C453 C 0.29326 0.95619 0.18632 0.0
C454 C 0.3283 0.92388 0.1327 0.0
C455 C 0.34151 0.92767 0.23329 0.0
C456 C 0.32923 0.94457 0.31222 0.0
C457 C 0.30545 0.95875 0.28859 0.0
C458 C 0.40626 0.91554 0.38402 0.0
C459 C 0.42503 0.92503 0.30629 0.0
C460 C 0.37903 0.91209 0.3558 0.0
C461 C 0.37006 0.91875 0.25037 0.0
C462 C 0.38954 0.92364 0.16875 0.0
C463 C 0.41693 0.92642 0.19641 0.0
H464 H 0.58086 0.29196 0.332 0.0
H465 H 0.61063 0.29045 1.00182 0.0
H466 H 0.60555 0.33352 0.36684 0.0
H467 H 0.63578 0.33273 0.03496 0.0
H468 H 0.63887 0.4071 0.43471 0.0
H469 H 0.64574 0.36015 0.38329 0.0
H470 H 0.61798 0.37831 0.05715 0.0
H471 H 0.61372 0.42593 0.10519 0.0
C472 C 0.59365 0.30024 0.26822 0.0
C473 C 0.59387 0.28847 0.16452 0.0
C474 C 0.608 0.32395 0.28786 0.0
C475 C 0.62273 0.33657 0.20349 0.0
C476 C 0.62452 0.32359 0.10136 0.0
C477 C 0.61018 0.29957 0.08216 0.0
C478 C 0.63564 0.4016 0.3503 0.0
C479 C 0.62428 0.42015 0.27555 0.0
C480 C 0.63936 0.37446 0.32112 0.0
C481 C 0.63106 0.36526 0.218 0.0
C482 C 0.62411 0.38455 0.13811 0.0
C483 C 0.62113 0.41188 0.16642 0.0
H484 H 0.25933 0.61372 0.01764 0.0
H485 H 0.25704 0.57709 0.33599 0.0
H486 H 0.21698 0.63877 0.0587 0.0
H487 H 0.21539 0.60166 0.3786 0.0
H488 H 0.12297 0.61846 0.1249 0.0
H489 H 0.17074 0.62182 0.07627 0.0
H490 H 0.19009 0.64287 0.40909 0.0
H491 H 0.14292 0.63703 0.46009 0.0
C492 C 0.24998 0.61165 0.09718 0.0
C493 C 0.26091 0.59357 0.1739 0.0
C494 C 0.22594 0.62594 0.12091 0.0
C495 C 0.21282 0.62234 0.22205 0.0
C496 C 0.22512 0.60552 0.30086 0.0
C497 C 0.24884 0.59122 0.27667 0.0
C498 C 0.13733 0.62429 0.18747 0.0
C499 C 0.1293 0.62584 0.29756 0.0
C500 C 0.16474 0.62672 0.15905 0.0
C501 C 0.18433 0.63144 0.24007 0.0
C502 C 0.1755 0.63823 0.34574 0.0
C503 C 0.14824 0.63511 0.37474 0.0
H504 H 0.10837 0.7921 0.54727 0.0
H505 H 0.08058 0.79269 0.2148 0.0
H506 H 0.13271 0.83492 0.5158 0.0
H507 H 0.10455 0.83479 0.18157 0.0
H508 H 0.13713 0.90926 0.11691 0.0
H509 H 0.1443 0.86239 0.16871 0.0
H510 H 0.11361 0.88002 0.49169 0.0
H511 H 0.10892 0.92758 0.4435 0.0
C512 C 0.10824 0.80111 0.46677 0.0
C513 C 0.09268 0.78958 0.38327 0.0
C514 C 0.1221 0.82546 0.44855 0.0
C515 C 0.1206 0.83835 0.34626 0.0
C516 C 0.10673 0.82531 0.26078 0.0
C517 C 0.09283 0.80127 0.27945 0.0
C518 C 0.13328 0.90368 0.20086 0.0
C519 C 0.12107 0.92204 0.27447 0.0
C520 C 0.13718 0.87658 0.23021 0.0
C521 C 0.12827 0.86724 0.3324 0.0
C522 C 0.12029 0.88639 0.4115 0.0
C523 C 0.11707 0.91367 0.38306 0.0
H524 H 0.75869 0.08004 0.21611 0.0
H525 H 0.76067 0.11643 0.53504 0.0
H526 H 0.71708 0.1046 0.17401 0.0
H527 H 0.71835 0.1415 0.49448 0.0
H528 H 0.62452 0.12089 0.42925 0.0
H529 H 0.67221 0.12467 0.47732 0.0
H530 H 0.69156 0.14551 0.144 0.0
H531 H 0.64451 0.13912 0.09347 0.0
C532 C 0.75043 0.09413 0.27568 0.0
C533 C 0.7624 0.0964 0.37847 0.0
C534 C 0.72674 0.10843 0.25177 0.0
C535 C 0.71434 0.12518 0.33089 0.0
C536 C 0.72737 0.12872 0.43203 0.0
C537 C 0.75139 0.11442 0.45549 0.0
C538 C 0.63885 0.12672 0.36638 0.0
C539 C 0.63088 0.12799 0.2563 0.0
C540 C 0.66622 0.12942 0.39451 0.0
C541 C 0.68582 0.13418 0.3132 0.0
C542 C 0.67698 0.1408 0.20756 0.0
C543 C 0.64978 0.13736 0.17882 0.0
H544 H 0.47571 0.75778 0.21006 0.0
H545 H 0.44216 0.75969 0.53435 0.0
H546 H 0.45112 0.71634 0.17093 0.0
H547 H 0.41707 0.71759 0.49682 0.0
H548 H 0.41611 0.64367 0.096 0.0
H549 H 0.41025 0.69079 0.14707 0.0
H550 H 0.43445 0.6716 0.47679 0.0
H551 H 0.43781 0.6239 0.42853 0.0
C552 C 0.46217 0.74959 0.27148 0.0
C553 C 0.46075 0.76147 0.37483 0.0
C554 C 0.44788 0.72598 0.24935 0.0
C555 C 0.43199 0.71358 0.33084 0.0
C556 C 0.4292 0.72659 0.43259 0.0
C557 C 0.44348 0.7505 0.45428 0.0
C558 C 0.41875 0.64902 0.18091 0.0
C559 C 0.42883 0.63011 0.25699 0.0
C560 C 0.41562 0.67625 0.20991 0.0
C561 C 0.42321 0.68511 0.31438 0.0
C562 C 0.42888 0.66558 0.3949 0.0
C563 C 0.43132 0.6382 0.3666 0.0
H564 H 0.79307 0.43862 0.53653 0.0
H565 H 0.7963 0.46911 0.20801 0.0
H566 H 0.83618 0.41392 0.50678 0.0
H567 H 0.83864 0.44463 0.17632 0.0
H568 H 0.92966 0.43773 0.44151 0.0
H569 H 0.8818 0.43326 0.48732 0.0
H570 H 0.86557 0.40331 0.16287 0.0
H571 H 0.91293 0.40973 0.11429 0.0
C572 C 0.80275 0.43932 0.45722 0.0
C573 C 0.79188 0.4557 0.37445 0.0
C574 C 0.82722 0.42521 0.43994 0.0
C575 C 0.84084 0.42722 0.33918 0.0
C576 C 0.82854 0.44206 0.2542 0.0
C577 C 0.8044 0.45626 0.27206 0.0
C578 C 0.91601 0.42953 0.38071 0.0
C579 C 0.92485 0.42549 0.27265 0.0
C580 C 0.88857 0.42655 0.40756 0.0
C581 C 0.86975 0.41895 0.32714 0.0
C582 C 0.87955 0.41003 0.22541 0.0
C583 C 0.90687 0.41351 0.19789 0.0
H584 H 0.03108 0.23871 0.19247 0.0
H585 H 0.99096 0.26031 0.89343 0.0
H586 H 0.03715 0.19201 0.12645 0.0
H587 H 0.99566 0.21355 0.8278 0.0
H588 H 1.02513 0.1305 0.70338 0.0
H589 H 1.02334 0.17803 0.76189 0.0
H590 H 1.01277 0.15204 0.09582 0.0
H591 H 1.01572 0.10493 0.03783 0.0
C592 C 1.02398 0.23345 0.11169 0.0
C593 C 1.01083 0.25311 0.04746 0.0
C594 C 0.02697 0.20657 0.07415 0.0
C595 C 1.01668 0.19854 0.97151 0.0
C596 C 1.00422 0.21868 0.90637 0.0
C597 C 1.00143 0.24554 0.94384 0.0
C598 C 1.02248 0.13497 0.78925 0.0
C599 C 1.02079 0.11372 0.8656 0.0
C600 C 1.02133 0.16234 0.82312 0.0
C601 C 1.01816 0.16929 0.93433 0.0
C602 C 1.01599 0.14787 0.01004 0.0
C603 C 1.01745 0.12064 0.9764 0.0
H604 H 0.31253 0.03447 0.1884 0.0
H605 H 0.29705 0.9792 0.92454 0.0
H606 H 0.35866 0.04218 0.11825 0.0
H607 H 0.34336 0.98577 0.8555 0.0
H608 H 0.42364 1.01756 0.71267 0.0
H609 H 0.376 1.01453 0.77057 0.0
H610 H 0.40114 1.01931 0.10734 0.0
H611 H 0.44827 1.02305 0.04965 0.0
C612 C 0.31894 1.02437 0.11412 0.0
C613 C 0.30123 1.00641 0.06135 0.0
C614 C 0.34553 0.02837 0.07455 0.0
C615 C 0.35517 1.0144 0.98125 0.0
C616 C 0.33688 0.99716 0.92661 0.0
C617 C 0.31032 0.99326 0.9662 0.0
C618 C 0.41897 1.01804 0.79901 0.0
C619 C 0.43999 1.02072 0.87606 0.0
C620 C 0.39157 1.01619 0.83252 0.0
C621 C 0.38436 1.01688 0.94411 0.0
C622 C 0.40552 1.01935 0.02076 0.0
C623 C 0.43277 1.0213 0.98738 0.0
H624 H 0.51826 0.31254 0.18837 0.0
H625 H 0.56565 0.29195 0.90478 0.0
H626 H 0.51171 0.3588 0.11831 0.0
H627 H 0.56034 0.33832 0.83539 0.0
H628 H 0.53048 0.42041 0.70023 0.0
H629 H 0.53239 0.37291 0.75975 0.0
H630 H 0.53615 0.39939 0.09532 0.0
H631 H 0.53335 0.44637 0.03624 0.0
C632 C 0.52683 0.31788 0.1099 0.0
C633 C 0.54223 0.29867 0.05144 0.0
C634 C 0.52354 0.34453 0.07021 0.0
C635 C 0.53574 0.35276 0.97109 0.0
C636 C 0.55034 0.33301 0.91112 0.0
C637 C 0.55349 0.30638 0.9508 0.0
C638 C 0.53166 0.41605 0.78666 0.0
C639 C 0.53154 0.43741 0.86304 0.0
C640 C 0.53286 0.38872 0.82111 0.0
C641 C 0.53415 0.38193 0.93299 0.0
C642 C 0.53443 0.40344 1.00882 0.0
C643 C 0.53304 0.43061 0.97455 0.0
H644 H 0.25709 0.57021 0.9125 0.0
H645 H 0.24067 0.51557 0.17762 0.0
H646 H 0.21074 0.5642 0.84397 0.0
H647 H 0.19448 0.5084 0.10795 0.0
H648 H 0.10519 0.52857 0.0403 0.0
H649 H 0.15235 0.53172 0.09713 0.0
H650 H 0.17756 0.53606 0.75992 0.0
H651 H 0.12986 0.53364 0.70287 0.0
C652 C 0.2436 0.55639 0.95455 0.0
C653 C 0.25246 0.54328 0.04994 0.0
C654 C 0.21701 0.55282 0.91524 0.0
C655 C 0.19842 0.53594 0.97038 0.0
C656 C 0.20783 0.52196 0.06386 0.0
C657 C 0.23445 0.52564 0.10316 0.0
C658 C 0.1207 0.53011 0.97772 0.0
C659 C 0.11348 0.53074 0.86653 0.0
C660 C 0.14798 0.53171 0.01062 0.0
C661 C 0.16918 0.53386 0.93364 0.0
C662 C 0.16197 0.53462 0.82216 0.0
C663 C 0.13453 0.53312 0.78912 0.0
H664 H 1.01824 0.81336 0.3551 0.0
H665 H 0.0629 0.79275 0.64474 0.0
H666 H 1.01162 0.85981 0.42319 0.0
H667 H 0.05754 0.83929 0.71236 0.0
H668 H 0.02781 0.92196 0.84204 0.0
H669 H 0.02967 0.87437 0.78384 0.0
H670 H 0.03599 0.90022 0.4481 0.0
H671 H 0.03313 0.94733 0.50588 0.0
C672 C 1.02616 0.81875 0.43451 0.0
C673 C 0.04079 0.79945 0.4953 0.0
C674 C 1.02286 0.84551 0.4731 0.0
C675 C 0.03429 0.85378 0.57342 0.0
C676 C 0.04811 0.83396 0.63564 0.0
C677 C 0.05126 0.80721 0.59707 0.0
C678 C 0.02953 0.91744 0.75584 0.0
C679 C 0.03009 0.93867 0.67901 0.0
C680 C 0.03072 0.89005 0.72215 0.0
C681 C 0.03271 0.88304 0.61059 0.0
C682 C 0.0337 0.90443 0.53432 0.0
C683 C 0.03228 0.93168 0.56782 0.0
H684 H 0.7421 1.01845 0.37376 0.0
H685 H 0.7584 0.07286 0.63971 0.0
H686 H 0.69593 1.0111 0.44411 0.0
H687 H 0.71206 0.06665 0.70897 0.0
H688 H 0.63149 0.03528 0.85126 0.0
H689 H 0.67914 0.03802 0.79306 0.0
H690 H 0.65376 0.03447 0.45633 0.0
H691 H 0.60663 0.03099 0.51427 0.0
C692 C 0.73586 0.02843 0.44852 0.0
C693 C 0.75381 0.04605 0.50183 0.0
C694 C 0.70925 1.02464 0.48821 0.0
C695 C 0.69984 0.03849 0.58218 0.0
C696 C 0.71836 0.05537 0.63733 0.0
C697 C 0.74494 0.05906 0.59761 0.0
C698 C 0.63612 0.03501 0.76486 0.0
C699 C 0.61504 0.03274 0.68788 0.0
C700 C 0.66352 0.0367 0.7312 0.0
C701 C 0.67065 0.03624 0.61951 0.0
C702 C 0.64943 0.03422 0.54295 0.0
C703 C 0.62218 0.03243 0.57648 0.0
H704 H 0.53722 0.73878 0.36064 0.0
H705 H 0.48649 0.7575 0.63696 0.0
H706 H 0.54375 0.69233 0.4289 0.0
H707 H 0.49186 0.71097 0.70444 0.0
H708 H 0.522 0.60408 0.50215 0.0
H709 H 0.51946 0.65128 0.44529 0.0
H710 H 0.5198 0.6766 0.78263 0.0
H711 H 0.52152 0.62895 0.83977 0.0
C712 C 0.52792 0.733 0.43725 0.0
C713 C 0.51159 0.75174 0.49416 0.0
C714 C 0.53121 0.70624 0.47581 0.0
C715 C 0.51811 0.69745 0.57223 0.0
C716 C 0.50256 0.71674 0.63084 0.0
C717 C 0.49939 0.74346 0.59225 0.0
C718 C 0.52162 0.61964 0.56469 0.0
C719 C 0.52209 0.61247 0.67598 0.0
C720 C 0.52037 0.64692 0.53175 0.0
C721 C 0.51973 0.66817 0.60878 0.0
C722 C 0.52004 0.661 0.72037 0.0
C723 C 0.52115 0.63358 0.75344 0.0
H724 H 0.79365 0.48301 0.6361 0.0
H725 H 0.81319 0.53184 0.35654 0.0
H726 H 0.83982 0.48894 0.70683 0.0
H727 H 0.85918 0.539 0.42802 0.0
H728 H 0.94734 0.51817 0.50816 0.0
H729 H 0.90039 0.51487 0.44904 0.0
H730 H 0.87365 0.51726 0.7848 0.0
H731 H 0.92118 0.51972 0.84441 0.0
C732 C 0.80778 0.49561 0.59132 0.0
C733 C 0.79988 0.50707 0.49129 0.0
C734 C 0.83428 0.49911 0.63177 0.0
C735 C 0.85368 0.51429 0.57319 0.0
C736 C 0.8452 0.52672 0.47494 0.0
C737 C 0.8187 0.52307 0.43447 0.0
C738 C 0.93153 0.51808 0.56991 0.0
C739 C 0.93826 0.51938 0.68149 0.0
C740 C 0.90438 0.5164 0.53563 0.0
C741 C 0.88281 0.51617 0.61149 0.0
C742 C 0.88953 0.51721 0.72345 0.0
C743 C 0.91686 0.51872 0.75793 0.0
loop_
_geom_bond_atom_site_label_1
_geom_bond_atom_site_label_2
_geom_bond_distance
_geom_bond_site_symmetry_2
_ccdc_geom_bond_type
C0 N1 1.317 . S
C0 N2 1.348 . S
C0 C3 1.485 . S
N1 C0 1.317 . S
N1 N5 1.370 . S
N2 C0 1.348 . S
N2 C4 1.346 . S
C3 C0 1.485 . S
C3 H7 0.960 . S
C3 H8 0.961 . S
C3 H9 0.960 . S
C4 N2 1.346 . S
C4 N5 1.307 . S
C4 C6 1.486 . S
N5 N1 1.370 . S
N5 C4 1.307 . S
C6 C4 1.486 . S
C6 H10 0.960 . S
C6 H11 0.960 . S
C6 H12 0.959 . S
H7 C3 0.960 . S
H8 C3 0.961 . S
H9 C3 0.960 . S
H10 C6 0.960 . S
H11 C6 0.960 . S
H12 C6 0.959 . S
C13 N14 1.317 . S
C13 N15 1.350 . S
C13 C16 1.485 . S
N14 C13 1.317 . S
N14 N18 1.371 . S
N15 C13 1.350 . S
N15 C17 1.345 1_655 S
C16 C13 1.485 . S
C16 H20 0.960 1_655 S
C16 H21 0.961 . S
C16 H22 0.960 . S
C17 N15 1.345 1_455 S
C17 N18 1.307 1_455 S
C17 C19 1.486 . S
N18 N14 1.371 . S
N18 C17 1.307 1_655 S
C19 C17 1.486 . S
C19 H23 0.922 1_455 S
C19 H24 0.991 . S
C19 H25 0.967 . S
H20 C16 0.960 1_455 S
H21 C16 0.961 . S
H22 C16 0.960 . S
H23 C19 0.922 1_655 S
H24 C19 0.991 . S
H25 C19 0.967 . S
C26 N27 1.317 . S
C26 N28 1.350 . S
C26 C29 1.485 . S
N27 C26 1.317 . S
N27 N31 1.371 . S
N28 C26 1.350 . S
N28 C30 1.345 1_565 S
C29 C26 1.485 . S
C29 H33 0.960 1_565 S
C29 H34 0.961 . S
C29 H35 0.960 . S
C30 N28 1.345 1_545 S
C30 N31 1.307 1_545 S
C30 C32 1.486 . S
N31 N27 1.371 . S
N31 C30 1.307 1_565 S
C32 C30 1.486 . S
C32 H36 0.922 1_545 S
C32 H37 0.991 . S
C32 H38 0.967 . S
H33 C29 0.960 1_545 S
H34 C29 0.961 . S
H35 C29 0.960 . S
H36 C32 0.922 1_565 S
H37 C32 0.991 . S
H38 C32 0.967 . S
C39 N40 1.317 . S
C39 N41 1.348 . S
C39 C42 1.485 . S
N40 C39 1.317 . S
N40 N44 1.370 . S
N41 C39 1.348 . S
N41 C43 1.346 . S
C42 C39 1.485 . S
C42 H46 0.960 . S
C42 H47 0.961 . S
C42 H48 0.960 . S
C43 N41 1.346 . S
C43 N44 1.307 . S
C43 C45 1.486 . S
N44 N40 1.370 . S
N44 C43 1.307 . S
C45 C43 1.486 . S
C45 H49 0.960 . S
C45 H50 0.960 . S
C45 H51 0.959 . S
H46 C42 0.960 . S
H47 C42 0.961 . S
H48 C42 0.960 . S
H49 C45 0.960 . S
H50 C45 0.960 . S
H51 C45 0.959 . S
C52 N53 1.317 . S
C52 N54 1.348 1_556 S
C52 C55 1.485 . S
N53 C52 1.317 . S
N53 N57 1.370 1_556 S
N54 C52 1.348 1_554 S
N54 C56 1.346 . S
C55 C52 1.485 . S
C55 H59 0.960 . S
C55 H60 0.961 . S
C55 H61 0.960 . S
C56 N54 1.346 . S
C56 N57 1.307 . S
C56 C58 1.486 . S
N57 N53 1.370 1_554 S
N57 C56 1.307 . S
C58 C56 1.486 . S
C58 H62 0.960 . S
C58 H63 0.960 . S
C58 H64 0.959 . S
H59 C55 0.960 . S
H60 C55 0.961 . S
H61 C55 0.960 . S
H62 C58 0.960 . S
H63 C58 0.960 . S
H64 C58 0.959 . S
C65 N66 1.317 . S
C65 N67 1.350 1_556 S
C65 C68 1.485 . S
N66 C65 1.317 . S
N66 N70 1.370 1_556 S
N67 C65 1.350 1_554 S
N67 C69 1.345 1_655 S
C68 C65 1.485 . S
C68 H72 0.960 1_655 S
C68 H73 0.961 . S
C68 H74 0.960 . S
C69 N67 1.345 1_455 S
C69 N70 1.307 1_455 S
C69 C71 1.486 . S
N70 N66 1.370 1_554 S
N70 C69 1.307 1_655 S
C71 C69 1.486 . S
C71 H75 0.960 1_455 S
C71 H76 0.960 . S
C71 H77 0.959 . S
H72 C68 0.960 1_455 S
H73 C68 0.961 . S
H74 C68 0.960 . S
H75 C71 0.960 1_655 S
H76 C71 0.960 . S
H77 C71 0.959 . S
C78 N79 1.317 . S
C78 N80 1.350 1_556 S
C78 C81 1.485 . S
N79 C78 1.317 . S
N79 N83 1.370 1_556 S
N80 C78 1.350 1_554 S
N80 C82 1.345 1_565 S
C81 C78 1.485 . S
C81 H85 0.960 1_565 S
C81 H86 0.961 . S
C81 H87 0.960 . S
C82 N80 1.345 1_545 S
C82 N83 1.307 1_545 S
C82 C84 1.487 . S
N83 N79 1.370 1_554 S
N83 C82 1.307 1_565 S
C84 C82 1.487 . S
C84 H88 0.960 1_545 S
C84 H89 0.960 . S
C84 H90 0.959 . S
H85 C81 0.960 1_545 S
H86 C81 0.961 . S
H87 C81 0.960 . S
H88 C84 0.960 1_565 S
H89 C84 0.960 . S
H90 C84 0.959 . S
C91 N92 1.317 . S
C91 N93 1.348 1_556 S
C91 C94 1.485 . S
N92 C91 1.317 . S
N92 N96 1.370 1_556 S
N93 C91 1.348 1_554 S
N93 C95 1.346 . S
C94 C91 1.485 . S
C94 H98 0.960 . S
C94 H99 0.961 . S
C94 H100 0.960 . S
C95 N93 1.346 . S
C95 N96 1.307 . S
C95 C97 1.486 . S
N96 N92 1.370 1_554 S
N96 C95 1.307 . S
C97 C95 1.486 . S
C97 H101 0.960 . S
C97 H102 0.960 . S
C97 H103 0.959 . S
H98 C94 0.960 . S
H99 C94 0.961 . S
H100 C94 0.960 . S
H101 C97 0.960 . S
H102 C97 0.960 . S
H103 C97 0.959 . S
Pr104 C106 2.880 . S
Pr104 O124 2.562 . S
Pr104 O125 2.490 . S
Pr104 O126 2.695 1_565 S
Pr104 O127 2.512 . S
Pr104 O129 2.437 . S
Pr104 O132 2.436 1_455 S
Pr104 O134 2.438 1_565 S
Pr105 C115 2.880 . S
Pr105 O126 2.436 1_655 S
Pr105 O128 2.438 1_545 S
Pr105 O130 2.562 . S
Pr105 O131 2.490 . S
Pr105 O132 2.695 1_545 S
Pr105 O133 2.512 . S
Pr105 O135 2.437 . S
C106 Pr104 2.880 . S
C106 C107 1.491 1_556 S
C106 O124 1.254 . S
C106 O125 1.225 . S
C107 C106 1.491 1_554 S
C107 C108 1.392 . S
C107 C112 1.356 . S
C108 C107 1.392 . S
C108 C109 1.368 . S
C108 H136 0.929 . S
C109 C108 1.368 . S
C109 C110 1.386 . S
C109 H137 0.929 . S
C110 C109 1.386 . S
C110 C111 1.373 . S
C111 C110 1.373 . S
C111 C112 1.409 . S
C111 H138 0.931 1_455 S
C112 C107 1.356 . S
C112 C111 1.409 . S
C112 H139 0.930 1_455 S
C113 O126 1.270 1_565 S
C113 O127 1.248 . S
C114 O128 1.267 . S
C114 O129 1.278 1_655 S
C115 Pr105 2.880 . S
C115 C116 1.491 . S
C115 O130 1.254 . S
C115 O131 1.225 . S
C116 C115 1.491 . S
C116 C117 1.392 . S
C116 C121 1.356 . S
C117 C116 1.392 . S
C117 C118 1.368 . S
C117 H140 0.929 . S
C118 C117 1.368 . S
C118 C119 1.386 . S
C118 H141 0.929 . S
C119 C118 1.386 . S
C119 C120 1.373 . S
C120 C119 1.373 . S
C120 C121 1.409 . S
C120 H142 0.931 1_655 S
C121 C116 1.356 . S
C121 C120 1.409 . S
C121 H143 0.930 1_655 S
C122 O132 1.270 1_545 S
C122 O133 1.248 . S
C123 O134 1.267 . S
C123 O135 1.278 1_455 S
O124 Pr104 2.562 . S
O124 C106 1.254 . S
O125 Pr104 2.490 . S
O125 C106 1.225 . S
O126 Pr104 2.695 1_545 S
O126 Pr105 2.436 1_455 S
O126 C113 1.270 1_545 S
O127 Pr104 2.512 . S
O127 C113 1.248 . S
O128 Pr105 2.438 1_565 S
O128 C114 1.267 . S
O129 Pr104 2.437 . S
O129 C114 1.278 1_455 S
O130 Pr105 2.562 . S
O130 C115 1.254 . S
O131 Pr105 2.490 . S
O131 C115 1.225 . S
O132 Pr104 2.436 1_655 S
O132 Pr105 2.695 1_565 S
O132 C122 1.270 1_565 S
O133 Pr105 2.512 . S
O133 C122 1.248 . S
O134 Pr104 2.438 1_545 S
O134 C123 1.267 . S
O135 Pr105 2.437 . S
O135 C123 1.278 1_655 S
H136 C108 0.929 . S
H137 C109 0.929 . S
H138 C111 0.931 1_655 S
H139 C112 0.930 1_655 S
H140 C117 0.929 . S
H141 C118 0.929 . S
H142 C120 0.931 1_455 S
H143 C121 0.930 1_455 S
Pr144 C146 2.880 . S
Pr144 O164 2.562 . S
Pr144 O165 2.490 . S
Pr144 O166 2.695 . S
Pr144 O167 2.512 . S
Pr144 O169 2.437 . S
Pr144 O172 2.436 1_545 S
Pr144 O174 2.438 . S
Pr145 C155 2.880 . S
Pr145 O166 2.436 1_565 S
Pr145 O168 2.438 . S
Pr145 O170 2.562 . S
Pr145 O171 2.490 . S
Pr145 O172 2.695 . S
Pr145 O173 2.512 . S
Pr145 O175 2.437 . S
C146 Pr144 2.880 . S
C146 C147 1.491 1_556 S
C146 O164 1.254 . S
C146 O165 1.225 . S
C147 C146 1.491 1_554 S
C147 C148 1.392 . S
C147 C152 1.356 . S
C148 C147 1.392 . S
C148 C149 1.368 . S
C148 H176 0.929 . S
C149 C148 1.368 . S
C149 C150 1.386 . S
C149 H177 0.929 . S
C150 C149 1.386 . S
C150 C151 1.373 . S
C151 C150 1.373 . S
C151 C152 1.409 . S
C151 H178 0.931 1_545 S
C152 C147 1.356 . S
C152 C151 1.409 . S
C152 H179 0.930 1_545 S
C153 O166 1.270 . S
C153 O167 1.248 . S
C154 O168 1.267 . S
C154 O169 1.278 1_565 S
C155 Pr145 2.880 . S
C155 C156 1.491 . S
C155 O170 1.254 . S
C155 O171 1.225 . S
C156 C155 1.491 . S
C156 C157 1.392 . S
C156 C161 1.356 . S
C157 C156 1.392 . S
C157 C158 1.368 . S
C157 H180 0.929 . S
C158 C157 1.368 . S
C158 C159 1.386 . S
C158 H181 0.929 . S
C159 C158 1.386 . S
C159 C160 1.373 . S
C160 C159 1.373 . S
C160 C161 1.409 . S
C160 H182 0.931 1_565 S
C161 C156 1.356 . S
C161 C160 1.409 . S
C161 H183 0.930 1_565 S
C162 O172 1.270 . S
C162 O173 1.248 . S
C163 O174 1.267 . S
C163 O175 1.278 1_545 S
O164 Pr144 2.562 . S
O164 C146 1.254 . S
O165 Pr144 2.490 . S
O165 C146 1.225 . S
O166 Pr144 2.695 . S
O166 Pr145 2.436 1_545 S
O166 C153 1.270 . S
O167 Pr144 2.512 . S
O167 C153 1.248 . S
O168 Pr145 2.438 . S
O168 C154 1.267 . S
O169 Pr144 2.437 . S
O169 C154 1.278 1_545 S
O170 Pr145 2.562 . S
O170 C155 1.254 . S
O171 Pr145 2.490 . S
O171 C155 1.225 . S
O172 Pr144 2.436 1_565 S
O172 Pr145 2.695 . S
O172 C162 1.270 . S
O173 Pr145 2.512 . S
O173 C162 1.248 . S
O174 Pr144 2.438 . S
O174 C163 1.267 . S
O175 Pr145 2.437 . S
O175 C163 1.278 1_565 S
H176 C148 0.929 . S
H177 C149 0.929 . S
H178 C151 0.931 1_565 S
H179 C152 0.930 1_565 S
H180 C157 0.929 . S
H181 C158 0.929 . S
H182 C160 0.931 1_545 S
H183 C161 0.930 1_545 S
Pr184 C186 2.879 1_556 S
Pr184 O204 2.562 . S
Pr184 O205 2.490 . S
Pr184 O206 2.695 . S
Pr184 O207 2.512 . S
Pr184 O209 2.437 . S
Pr184 O212 2.436 . S
Pr184 O214 2.438 . S
Pr185 C195 2.880 . S
Pr185 O206 2.436 . S
Pr185 O208 2.438 . S
Pr185 O210 2.562 . S
Pr185 O211 2.490 . S
Pr185 O212 2.695 . S
Pr185 O213 2.512 . S
Pr185 O215 2.437 . S
C186 Pr184 2.879 1_554 S
C186 C187 1.492 . S
C186 O204 1.254 1_554 S
C186 O205 1.224 1_554 S
C187 C186 1.492 . S
C187 C188 1.392 . S
C187 C192 1.356 . S
C188 C187 1.392 . S
C188 C189 1.368 . S
C188 H216 0.929 . S
C189 C188 1.368 . S
C189 C190 1.386 . S
C189 H217 0.929 . S
C190 C189 1.386 . S
C190 C191 1.373 . S
C191 C190 1.373 . S
C191 C192 1.409 . S
C191 H218 0.931 . S
C192 C187 1.356 . S
C192 C191 1.409 . S
C192 H219 0.930 . S
C193 O206 1.270 . S
C193 O207 1.248 . S
C194 O208 1.267 . S
C194 O209 1.278 . S
C195 Pr185 2.880 . S
C195 C196 1.491 . S
C195 O210 1.254 . S
C195 O211 1.225 . S
C196 C195 1.491 . S
C196 C197 1.392 . S
C196 C201 1.356 . S
C197 C196 1.392 . S
C197 C198 1.368 . S
C197 H220 0.929 . S
C198 C197 1.368 . S
C198 C199 1.386 . S
C198 H221 0.929 . S
C199 C198 1.386 . S
C199 C200 1.373 . S
C200 C199 1.373 . S
C200 C201 1.409 . S
C200 H222 0.931 . S
C201 C196 1.356 . S
C201 C200 1.409 . S
C201 H223 0.930 . S
C202 O212 1.270 . S
C202 O213 1.248 . S
C203 O214 1.267 . S
C203 O215 1.278 . S
O204 Pr184 2.562 . S
O204 C186 1.254 1_556 S
O205 Pr184 2.490 . S
O205 C186 1.224 1_556 S
O206 Pr184 2.695 . S
O206 Pr185 2.436 . S
O206 C193 1.270 . S
O207 Pr184 2.512 . S
O207 C193 1.248 . S
O208 Pr185 2.438 . S
O208 C194 1.267 . S
O209 Pr184 2.437 . S
O209 C194 1.278 . S
O210 Pr185 2.562 . S
O210 C195 1.254 . S
O211 Pr185 2.490 . S
O211 C195 1.225 . S
O212 Pr184 2.436 . S
O212 Pr185 2.695 . S
O212 C202 1.270 . S
O213 Pr185 2.512 . S
O213 C202 1.248 . S
O214 Pr184 2.438 . S
O214 C203 1.267 . S
O215 Pr185 2.437 . S
O215 C203 1.278 . S
H216 C188 0.929 . S
H217 C189 0.929 . S
H218 C191 0.931 . S
H219 C192 0.930 . S
H220 C197 0.929 . S
H221 C198 0.929 . S
H222 C200 0.931 . S
H223 C201 0.930 . S
Pr224 C226 2.880 . S
Pr224 O244 2.562 . S
Pr224 O245 2.490 . S
Pr224 O246 2.695 1_655 S
Pr224 O247 2.512 . S
Pr224 O249 2.437 . S
Pr224 O252 2.436 . S
Pr224 O254 2.438 1_655 S
Pr225 C235 2.880 . S
Pr225 O246 2.436 . S
Pr225 O248 2.438 1_455 S
Pr225 O250 2.562 . S
Pr225 O251 2.490 . S
Pr225 O252 2.695 1_455 S
Pr225 O253 2.512 . S
Pr225 O255 2.437 . S
C226 Pr224 2.880 . S
C226 C227 1.491 1_556 S
C226 O244 1.254 . S
C226 O245 1.225 . S
C227 C226 1.491 1_554 S
C227 C228 1.392 . S
C227 C232 1.356 . S
C228 C227 1.392 . S
C228 C229 1.368 . S
C228 H256 0.929 . S
C229 C228 1.368 . S
C229 C230 1.386 . S
C229 H257 0.929 . S
C230 C229 1.386 . S
C230 C231 1.373 . S
C231 C230 1.373 . S
C231 C232 1.409 . S
C231 H258 0.931 . S
C232 C227 1.356 . S
C232 C231 1.409 . S
C232 H259 0.930 . S
C233 O246 1.260 1_655 S
C233 O247 1.266 . S
C234 O248 1.267 . S
C234 O249 1.278 . S
C235 Pr225 2.880 . S
C235 C236 1.491 . S
C235 O250 1.254 . S
C235 O251 1.225 . S
C236 C235 1.491 . S
C236 C237 1.392 . S
C236 C241 1.356 . S
C237 C236 1.392 . S
C237 C238 1.368 . S
C237 H260 0.929 . S
C238 C237 1.368 . S
C238 C239 1.386 . S
C238 H261 0.929 . S
C239 C238 1.386 . S
C239 C240 1.373 . S
C240 C239 1.373 . S
C240 C241 1.409 . S
C240 H262 0.931 . S
C241 C236 1.356 . S
C241 C240 1.409 . S
C241 H263 0.930 . S
C242 O252 1.257 1_455 S
C242 O253 1.271 . S
C243 O254 1.267 . S
C243 O255 1.278 . S
O244 Pr224 2.562 . S
O244 C226 1.254 . S
O245 Pr224 2.490 . S
O245 C226 1.225 . S
O246 Pr224 2.695 1_455 S
O246 Pr225 2.436 . S
O246 C233 1.260 1_455 S
O247 Pr224 2.512 . S
O247 C233 1.266 . S
O248 Pr225 2.438 1_655 S
O248 C234 1.267 . S
O249 Pr224 2.437 . S
O249 C234 1.278 . S
O250 Pr225 2.562 . S
O250 C235 1.254 . S
O251 Pr225 2.490 . S
O251 C235 1.225 . S
O252 Pr224 2.436 . S
O252 Pr225 2.695 1_655 S
O252 C242 1.257 1_655 S
O253 Pr225 2.512 . S
O253 C242 1.271 . S
O254 Pr224 2.438 1_455 S
O254 C243 1.267 . S
O255 Pr225 2.437 . S
O255 C243 1.278 . S
H256 C228 0.929 . S
H257 C229 0.929 . S
H258 C231 0.931 . S
H259 C232 0.930 . S
H260 C237 0.929 . S
H261 C238 0.929 . S
H262 C240 0.931 . S
H263 C241 0.930 . S
H264 C272 0.950 . S
H265 C277 0.950 . S
H266 C274 0.950 . S
H267 C276 0.950 . S
H268 C278 0.950 . S
H269 C280 0.950 . S
H270 C282 0.950 . S
H271 C283 0.950 . S
C272 H264 0.950 . S
C272 C273 1.399 . S
C272 C274 1.391 . S
C273 C272 1.399 . S
C273 C277 1.380 1_545 S
C274 H266 0.950 . S
C274 C272 1.391 . S
C274 C275 1.421 . S
C275 C274 1.421 . S
C275 C276 1.378 1_545 S
C275 C281 1.491 . S
C276 H267 0.950 . S
C276 C275 1.378 1_565 S
C276 C277 1.391 . S
C277 H265 0.950 . S
C277 C273 1.380 1_565 S
C277 C276 1.391 . S
C278 H268 0.950 . S
C278 C279 1.362 1_565 S
C278 C280 1.391 . S
C279 C278 1.362 1_545 S
C279 C283 1.417 . S
C280 H269 0.950 . S
C280 C278 1.391 . S
C280 C281 1.384 1_565 S
C281 C275 1.491 . S
C281 C280 1.384 1_545 S
C281 C282 1.415 . S
C282 H270 0.950 . S
C282 C281 1.415 . S
C282 C283 1.391 . S
C283 H271 0.950 . S
C283 C279 1.417 . S
C283 C282 1.391 . S
H284 C292 0.950 . S
H285 C297 0.950 . S
H286 C294 0.950 . S
H287 C296 0.950 . S
H288 C298 0.950 . S
H289 C300 0.950 . S
H290 C302 0.950 . S
H291 C303 0.950 . S
C292 H284 0.950 . S
C292 C293 1.386 . S
C292 C294 1.391 . S
C293 C292 1.386 . S
C293 C297 1.393 . S
C294 H286 0.950 . S
C294 C292 1.391 . S
C294 C295 1.400 . S
C295 C294 1.400 . S
C295 C296 1.398 . S
C295 C301 1.491 . S
C296 H287 0.950 . S
C296 C295 1.398 . S
C296 C297 1.391 . S
C297 H285 0.950 . S
C297 C293 1.393 . S
C297 C296 1.391 . S
C298 H288 0.950 . S
C298 C299 1.386 . S
C298 C300 1.391 . S
C299 C298 1.386 . S
C299 C303 1.393 . S
C300 H289 0.950 . S
C300 C298 1.391 . S
C300 C301 1.400 . S
C301 C295 1.491 . S
C301 C300 1.400 . S
C301 C302 1.398 . S
C302 H290 0.950 . S
C302 C301 1.398 . S
C302 C303 1.391 . S
C303 H291 0.950 . S
C303 C299 1.393 . S
C303 C302 1.391 . S
H304 C312 0.950 . S
H305 C317 0.950 . S
H306 C314 0.950 . S
H307 C316 0.950 . S
H308 C318 0.950 . S
H309 C320 0.950 . S
H310 C322 0.950 . S
H311 C323 0.950 . S
C312 H304 0.950 . S
C312 C313 1.386 . S
C312 C314 1.391 . S
C313 C312 1.386 . S
C313 C317 1.393 . S
C314 H306 0.950 . S
C314 C312 1.391 . S
C314 C315 1.400 . S
C315 C314 1.400 . S
C315 C316 1.398 . S
C315 C321 1.491 . S
C316 H307 0.950 . S
C316 C315 1.398 . S
C316 C317 1.391 . S
C317 H305 0.950 . S
C317 C313 1.393 . S
C317 C316 1.391 . S
C318 H308 0.950 . S
C318 C319 1.386 . S
C318 C320 1.391 . S
C319 C318 1.386 . S
C319 C323 1.393 . S
C320 H309 0.950 . S
C320 C318 1.391 . S
C320 C321 1.400 . S
C321 C315 1.491 . S
C321 C320 1.400 . S
C321 C322 1.398 . S
C322 H310 0.950 . S
C322 C321 1.398 . S
C322 C323 1.391 . S
C323 H311 0.950 . S
C323 C319 1.393 . S
C323 C322 1.391 . S
H324 C332 0.950 . S
H325 C337 0.950 . S
H326 C334 0.950 . S
H327 C336 0.950 . S
H328 C338 0.950 . S
H329 C340 0.950 . S
H330 C342 0.950 . S
H331 C343 0.950 . S
C332 H324 0.950 . S
C332 C333 1.360 1_655 S
C332 C334 1.391 . S
C333 C332 1.360 1_455 S
C333 C337 1.420 . S
C334 H326 0.950 . S
C334 C332 1.391 . S
C334 C335 1.400 1_655 S
C335 C334 1.400 1_455 S
C335 C336 1.398 . S
C335 C341 1.491 . S
C336 H327 0.950 . S
C336 C335 1.398 . S
C336 C337 1.391 . S
C337 H325 0.950 . S
C337 C333 1.420 . S
C337 C336 1.391 . S
C338 H328 0.950 . S
C338 C339 1.386 . S
C338 C340 1.391 . S
C339 C338 1.386 . S
C339 C343 1.393 1_455 S
C340 H329 0.950 . S
C340 C338 1.391 . S
C340 C341 1.432 . S
C341 C335 1.491 . S
C341 C340 1.432 . S
C341 C342 1.367 1_455 S
C342 H330 0.950 . S
C342 C341 1.367 1_655 S
C342 C343 1.391 . S
C343 H331 0.950 . S
C343 C339 1.393 1_655 S
C343 C342 1.391 . S
H344 C352 0.950 . S
H345 C357 0.950 . S
H346 C354 0.950 . S
H347 C356 0.950 . S
H348 C358 0.950 . S
H349 C360 0.950 . S
H350 C362 0.950 . S
H351 C363 0.950 . S
C352 H344 0.950 . S
C352 C353 1.393 . S
C352 C354 1.391 . S
C353 C352 1.393 . S
C353 C357 1.387 1_545 S
C354 H346 0.950 . S
C354 C352 1.391 . S
C354 C355 1.401 . S
C355 C354 1.401 . S
C355 C356 1.398 1_545 S
C355 C361 1.489 1_545 S
C356 H347 0.950 . S
C356 C355 1.398 1_565 S
C356 C357 1.391 . S
C357 H345 0.950 . S
C357 C353 1.387 1_565 S
C357 C356 1.391 . S
C358 H348 0.950 . S
C358 C359 1.386 1_554 S
C358 C360 1.391 . S
C359 C358 1.386 1_556 S
C359 C363 1.393 1_565 S
C360 H349 0.950 . S
C360 C358 1.391 . S
C360 C361 1.407 . S
C361 C355 1.489 1_565 S
C361 C360 1.407 . S
C361 C362 1.394 1_565 S
C362 H350 0.950 . S
C362 C361 1.394 1_545 S
C362 C363 1.391 1_554 S
C363 H351 0.950 . S
C363 C359 1.393 1_545 S
C363 C362 1.391 1_556 S
H364 C372 0.950 . S
H365 C377 0.950 . S
H366 C374 0.950 . S
H367 C376 0.950 . S
H368 C378 0.950 . S
H369 C380 0.950 . S
H370 C382 0.950 . S
H371 C383 0.950 . S
C372 H364 0.950 . S
C372 C373 1.386 . S
C372 C374 1.391 . S
C373 C372 1.386 . S
C373 C377 1.393 . S
C374 H366 0.950 . S
C374 C372 1.391 . S
C374 C375 1.400 . S
C375 C374 1.400 . S
C375 C376 1.398 . S
C375 C381 1.491 . S
C376 H367 0.950 . S
C376 C375 1.398 . S
C376 C377 1.391 . S
C377 H365 0.950 . S
C377 C373 1.393 . S
C377 C376 1.391 . S
C378 H368 0.950 . S
C378 C379 1.386 1_554 S
C378 C380 1.391 . S
C379 C378 1.386 1_556 S
C379 C383 1.393 . S
C380 H369 0.950 . S
C380 C378 1.391 . S
C380 C381 1.400 . S
C381 C375 1.491 . S
C381 C380 1.400 . S
C381 C382 1.398 . S
C382 H370 0.950 . S
C382 C381 1.398 . S
C382 C383 1.391 1_554 S
C383 H371 0.950 . S
C383 C379 1.393 . S
C383 C382 1.391 1_556 S
H384 C392 0.950 . S
H385 C397 0.950 . S
H386 C394 0.950 . S
H387 C396 0.950 . S
H388 C398 0.950 . S
H389 C400 0.950 . S
H390 C402 0.950 . S
H391 C403 0.950 . S
C392 H384 0.950 . S
C392 C393 1.386 . S
C392 C394 1.391 . S
C393 C392 1.386 . S
C393 C397 1.393 . S
C394 H386 0.950 . S
C394 C392 1.391 . S
C394 C395 1.400 . S
C395 C394 1.400 . S
C395 C396 1.398 . S
C395 C401 1.491 . S
C396 H387 0.950 . S
C396 C395 1.398 . S
C396 C397 1.391 . S
C397 H385 0.950 . S
C397 C393 1.393 . S
C397 C396 1.391 . S
C398 H388 0.950 . S
C398 C399 1.386 1_554 S
C398 C400 1.391 . S
C399 C398 1.386 1_556 S
C399 C403 1.393 . S
C400 H389 0.950 . S
C400 C398 1.391 . S
C400 C401 1.400 . S
C401 C395 1.491 . S
C401 C400 1.400 . S
C401 C402 1.398 . S
C402 H390 0.950 . S
C402 C401 1.398 . S
C402 C403 1.391 1_554 S
C403 H391 0.950 . S
C403 C399 1.393 . S
C403 C402 1.391 1_556 S
H404 C412 0.950 . S
H405 C417 0.950 . S
H406 C414 0.950 . S
H407 C416 0.950 . S
H408 C418 0.950 . S
H409 C420 0.950 . S
H410 C422 0.950 . S
H411 C423 0.950 . S
C412 H404 0.950 . S
C412 C413 1.382 1_655 S
C412 C414 1.391 . S
C413 C412 1.382 1_455 S
C413 C417 1.397 . S
C414 H406 0.950 . S
C414 C412 1.391 . S
C414 C415 1.402 . S
C415 C414 1.402 . S
C415 C416 1.396 1_655 S
C415 C421 1.491 . S
C416 H407 0.950 . S
C416 C415 1.396 1_455 S
C416 C417 1.391 . S
C417 H405 0.950 . S
C417 C413 1.397 . S
C417 C416 1.391 . S
C418 H408 0.950 . S
C418 C419 1.386 1_454 S
C418 C420 1.391 . S
C419 C418 1.386 1_656 S
C419 C423 1.393 . S
C420 H409 0.950 . S
C420 C418 1.391 . S
C420 C421 1.400 1_455 S
C421 C415 1.491 . S
C421 C420 1.400 1_655 S
C421 C422 1.398 . S
C422 H410 0.950 . S
C422 C421 1.398 . S
C422 C423 1.391 1_554 S
C423 H411 0.950 . S
C423 C419 1.393 . S
C423 C422 1.391 1_556 S
H424 C432 0.950 . S
H425 C437 0.950 . S
H426 C434 0.950 . S
H427 C436 0.950 . S
H428 C438 0.950 . S
H429 C440 0.950 1_455 S
H430 C442 0.950 . S
H431 C443 0.950 . S
C432 H424 0.950 . S
C432 C433 1.386 1_655 S
C432 C434 1.391 . S
C433 C432 1.386 1_455 S
C433 C437 1.393 . S
C434 H426 0.950 . S
C434 C432 1.391 . S
C434 C435 1.400 . S
C435 C434 1.400 . S
C435 C436 1.398 1_655 S
C435 C441 1.491 . S
C436 H427 0.950 . S
C436 C435 1.398 1_455 S
C436 C437 1.391 . S
C437 H425 0.950 . S
C437 C433 1.393 . S
C437 C436 1.391 . S
C438 H428 0.950 . S
C438 C439 1.386 . S
C438 C440 1.391 . S
C439 C438 1.386 . S
C439 C443 1.393 . S
C440 H429 0.950 1_655 S
C440 C438 1.391 . S
C440 C441 1.400 . S
C441 C435 1.491 . S
C441 C440 1.400 . S
C441 C442 1.398 . S
C442 H430 0.950 . S
C442 C441 1.398 . S
C442 C443 1.391 . S
C443 H431 0.950 . S
C443 C439 1.393 . S
C443 C442 1.391 . S
H444 C452 0.950 . S
H445 C457 0.950 . S
H446 C454 0.950 . S
H447 C456 0.950 . S
H448 C458 0.950 . S
H449 C460 0.950 1_545 S
H450 C462 0.950 . S
H451 C463 0.950 . S
C452 H444 0.950 . S
C452 C453 1.386 1_565 S
C452 C454 1.391 . S
C453 C452 1.386 1_545 S
C453 C457 1.393 . S
C454 H446 0.950 . S
C454 C452 1.391 . S
C454 C455 1.400 . S
C455 C454 1.400 . S
C455 C456 1.398 1_565 S
C455 C461 1.491 . S
C456 H447 0.950 . S
C456 C455 1.398 1_545 S
C456 C457 1.391 . S
C457 H445 0.950 . S
C457 C453 1.393 . S
C457 C456 1.391 . S
C458 H448 0.950 . S
C458 C459 1.386 . S
C458 C460 1.391 . S
C459 C458 1.386 . S
C459 C463 1.393 . S
C460 H449 0.950 1_565 S
C460 C458 1.391 . S
C460 C461 1.400 . S
C461 C455 1.491 . S
C461 C460 1.400 . S
C461 C462 1.398 . S
C462 H450 0.950 . S
C462 C461 1.398 . S
C462 C463 1.391 . S
C463 H451 0.950 . S
C463 C459 1.393 . S
C463 C462 1.391 . S
H464 C472 0.950 1_556 S
H465 C477 0.950 . S
H466 C474 0.950 . S
H467 C476 0.950 . S
H468 C478 0.950 . S
H469 C480 0.950 . S
H470 C482 0.950 . S
H471 C483 0.950 . S
C472 H464 0.950 1_554 S
C472 C473 1.386 . S
C472 C474 1.391 . S
C473 C472 1.386 . S
C473 C477 1.393 . S
C474 H466 0.950 . S
C474 C472 1.391 . S
C474 C475 1.400 . S
C475 C474 1.400 . S
C475 C476 1.398 . S
C475 C481 1.491 . S
C476 H467 0.950 . S
C476 C475 1.398 . S
C476 C477 1.391 . S
C477 H465 0.950 . S
C477 C473 1.393 . S
C477 C476 1.391 . S
C478 H468 0.950 . S
C478 C479 1.386 . S
C478 C480 1.391 . S
C479 C478 1.386 . S
C479 C483 1.393 . S
C480 H469 0.950 . S
C480 C478 1.391 . S
C480 C481 1.400 . S
C481 C475 1.491 . S
C481 C480 1.400 . S
C481 C482 1.398 . S
C482 H470 0.950 . S
C482 C481 1.398 . S
C482 C483 1.391 . S
C483 H471 0.950 . S
C483 C479 1.393 . S
C483 C482 1.391 . S
H484 C492 0.950 . S
H485 C497 0.950 . S
H486 C494 0.950 . S
H487 C496 0.950 . S
H488 C498 0.950 . S
H489 C500 0.950 . S
H490 C502 0.950 . S
H491 C503 0.950 . S
C492 H484 0.950 . S
C492 C493 1.386 . S
C492 C494 1.391 . S
C493 C492 1.386 . S
C493 C497 1.393 . S
C494 H486 0.950 . S
C494 C492 1.391 . S
C494 C495 1.400 . S
C495 C494 1.400 . S
C495 C496 1.398 . S
C495 C501 1.491 . S
C496 H487 0.950 . S
C496 C495 1.398 . S
C496 C497 1.391 . S
C497 H485 0.950 . S
C497 C493 1.393 . S
C497 C496 1.391 . S
C498 H488 0.950 . S
C498 C499 1.386 . S
C498 C500 1.391 . S
C499 C498 1.386 . S
C499 C503 1.393 . S
C500 H489 0.950 . S
C500 C498 1.391 . S
C500 C501 1.400 . S
C501 C495 1.491 . S
C501 C500 1.400 . S
C501 C502 1.398 . S
C502 H490 0.950 . S
C502 C501 1.398 . S
C502 C503 1.391 . S
C503 H491 0.950 . S
C503 C499 1.393 . S
C503 C502 1.391 . S
H504 C512 0.950 . S
H505 C517 0.950 1_655 S
H506 C514 0.950 . S
H507 C516 0.950 . S
H508 C518 0.950 . S
H509 C520 0.950 . S
H510 C522 0.950 . S
H511 C523 0.950 . S
C512 H504 0.950 . S
C512 C513 1.386 1_455 S
C512 C514 1.391 . S
C513 C512 1.386 1_655 S
C513 C517 1.393 1_655 S
C514 H506 0.950 . S
C514 C512 1.391 . S
C514 C515 1.400 . S
C515 C514 1.400 . S
C515 C516 1.398 . S
C515 C521 1.491 . S
C516 H507 0.950 . S
C516 C515 1.398 . S
C516 C517 1.391 . S
C517 H505 0.950 1_455 S
C517 C513 1.393 1_455 S
C517 C516 1.391 . S
C518 H508 0.950 . S
C518 C519 1.386 . S
C518 C520 1.391 . S
C519 C518 1.386 . S
C519 C523 1.393 . S
C520 H509 0.950 . S
C520 C518 1.391 . S
C520 C521 1.400 . S
C521 C515 1.491 . S
C521 C520 1.400 . S
C521 C522 1.398 . S
C522 H510 0.950 . S
C522 C521 1.398 . S
C522 C523 1.391 . S
C523 H511 0.950 . S
C523 C519 1.393 . S
C523 C522 1.391 . S
H524 C532 0.950 . S
H525 C537 0.950 . S
H526 C534 0.950 . S
H527 C536 0.950 . S
H528 C538 0.950 . S
H529 C540 0.950 . S
H530 C542 0.950 . S
H531 C543 0.950 . S
C532 H524 0.950 . S
C532 C533 1.386 . S
C532 C534 1.391 1_565 S
C533 C532 1.386 . S
C533 C537 1.393 1_565 S
C534 H526 0.950 . S
C534 C532 1.391 1_545 S
C534 C535 1.400 . S
C535 C534 1.400 . S
C535 C536 1.398 . S
C535 C541 1.491 . S
C536 H527 0.950 . S
C536 C535 1.398 . S
C536 C537 1.391 . S
C537 H525 0.950 . S
C537 C533 1.393 1_545 S
C537 C536 1.391 . S
C538 H528 0.950 . S
C538 C539 1.386 . S
C538 C540 1.391 . S
C539 C538 1.386 . S
C539 C543 1.393 . S
C540 H529 0.950 . S
C540 C538 1.391 . S
C540 C541 1.400 . S
C541 C535 1.491 . S
C541 C540 1.400 . S
C541 C542 1.398 . S
C542 H530 0.950 . S
C542 C541 1.398 . S
C542 C543 1.391 . S
C543 H531 0.950 . S
C543 C539 1.393 . S
C543 C542 1.391 . S
H544 C552 0.950 . S
H545 C557 0.950 . S
H546 C554 0.950 . S
H547 C556 0.950 . S
H548 C558 0.950 . S
H549 C560 0.950 . S
H550 C562 0.950 . S
H551 C563 0.950 . S
C552 H544 0.950 . S
C552 C553 1.386 . S
C552 C554 1.391 . S
C553 C552 1.386 . S
C553 C557 1.393 . S
C554 H546 0.950 . S
C554 C552 1.391 . S
C554 C555 1.400 . S
C555 C554 1.400 . S
C555 C556 1.398 . S
C555 C561 1.491 . S
C556 H547 0.950 . S
C556 C555 1.398 . S
C556 C557 1.391 . S
C557 H545 0.950 . S
C557 C553 1.393 . S
C557 C556 1.391 . S
C558 H548 0.950 . S
C558 C559 1.386 . S
C558 C560 1.391 . S
C559 C558 1.386 . S
C559 C563 1.393 . S
C560 H549 0.950 . S
C560 C558 1.391 . S
C560 C561 1.400 . S
C561 C555 1.491 . S
C561 C560 1.400 . S
C561 C562 1.398 . S
C562 H550 0.950 . S
C562 C561 1.398 . S
C562 C563 1.391 . S
C563 H551 0.950 . S
C563 C559 1.393 . S
C563 C562 1.391 . S
H564 C572 0.950 . S
H565 C577 0.950 . S
H566 C574 0.950 . S
H567 C576 0.950 . S
H568 C578 0.950 . S
H569 C580 0.950 . S
H570 C582 0.950 . S
H571 C583 0.950 . S
C572 H564 0.950 . S
C572 C573 1.386 . S
C572 C574 1.391 . S
C573 C572 1.386 . S
C573 C577 1.393 . S
C574 H566 0.950 . S
C574 C572 1.391 . S
C574 C575 1.400 . S
C575 C574 1.400 . S
C575 C576 1.398 . S
C575 C581 1.491 . S
C576 H567 0.950 . S
C576 C575 1.398 . S
C576 C577 1.391 . S
C577 H565 0.950 . S
C577 C573 1.393 . S
C577 C576 1.391 . S
C578 H568 0.950 . S
C578 C579 1.386 . S
C578 C580 1.391 . S
C579 C578 1.386 . S
C579 C583 1.393 . S
C580 H569 0.950 . S
C580 C578 1.391 . S
C580 C581 1.400 . S
C581 C575 1.491 . S
C581 C580 1.400 . S
C581 C582 1.398 . S
C582 H570 0.950 . S
C582 C581 1.398 . S
C582 C583 1.391 . S
C583 H571 0.950 . S
C583 C579 1.393 . S
C583 C582 1.391 . S
H584 C592 0.950 1_554 S
H585 C597 0.950 . S
H586 C594 0.950 1_554 S
H587 C596 0.950 . S
H588 C598 0.950 . S
H589 C600 0.950 . S
H590 C602 0.950 . S
H591 C603 0.950 . S
C592 H584 0.950 1_556 S
C592 C593 1.386 . S
C592 C594 1.391 . S
C593 C592 1.386 . S
C593 C597 1.393 1_455 S
C594 H586 0.950 1_556 S
C594 C592 1.391 . S
C594 C595 1.400 . S
C595 C594 1.400 . S
C595 C596 1.398 1_455 S
C595 C601 1.491 . S
C596 H587 0.950 . S
C596 C595 1.398 1_655 S
C596 C597 1.391 . S
C597 H585 0.950 . S
C597 C593 1.393 1_655 S
C597 C596 1.391 . S
C598 H588 0.950 . S
C598 C599 1.386 1_655 S
C598 C600 1.391 . S
C599 C598 1.386 1_455 S
C599 C603 1.393 . S
C600 H589 0.950 . S
C600 C598 1.391 . S
C600 C601 1.400 1_655 S
C601 C595 1.491 . S
C601 C600 1.400 1_455 S
C601 C602 1.398 . S
C602 H590 0.950 . S
C602 C601 1.398 . S
C602 C603 1.391 . S
C603 H591 0.950 . S
C603 C599 1.393 . S
C603 C602 1.391 . S
H604 C612 0.950 . S
H605 C617 0.950 . S
H606 C614 0.950 . S
H607 C616 0.950 . S
H608 C618 0.950 . S
H609 C620 0.950 . S
H610 C622 0.950 . S
H611 C623 0.950 . S
C612 H604 0.950 . S
C612 C613 1.386 . S
C612 C614 1.391 . S
C613 C612 1.386 . S
C613 C617 1.393 1_545 S
C614 H606 0.950 . S
C614 C612 1.391 . S
C614 C615 1.400 . S
C615 C614 1.400 . S
C615 C616 1.398 1_545 S
C615 C621 1.491 . S
C616 H607 0.950 . S
C616 C615 1.398 1_565 S
C616 C617 1.391 . S
C617 H605 0.950 . S
C617 C613 1.393 1_565 S
C617 C616 1.391 . S
C618 H608 0.950 . S
C618 C619 1.386 1_565 S
C618 C620 1.391 . S
C619 C618 1.386 1_545 S
C619 C623 1.393 . S
C620 H609 0.950 . S
C620 C618 1.391 . S
C620 C621 1.400 1_565 S
C621 C615 1.491 . S
C621 C620 1.400 1_545 S
C621 C622 1.398 . S
C622 H610 0.950 . S
C622 C621 1.398 . S
C622 C623 1.391 . S
C623 H611 0.950 . S
C623 C619 1.393 . S
C623 C622 1.391 . S
H624 C632 0.950 . S
H625 C637 0.950 . S
H626 C634 0.950 . S
H627 C636 0.950 . S
H628 C638 0.950 . S
H629 C640 0.950 . S
H630 C642 0.950 . S
H631 C643 0.950 . S
C632 H624 0.950 . S
C632 C633 1.386 . S
C632 C634 1.391 . S
C633 C632 1.386 . S
C633 C637 1.393 . S
C634 H626 0.950 . S
C634 C632 1.391 . S
C634 C635 1.400 . S
C635 C634 1.400 . S
C635 C636 1.398 . S
C635 C641 1.491 . S
C636 H627 0.950 . S
C636 C635 1.398 . S
C636 C637 1.391 . S
C637 H625 0.950 . S
C637 C633 1.393 . S
C637 C636 1.391 . S
C638 H628 0.950 . S
C638 C639 1.386 . S
C638 C640 1.391 . S
C639 C638 1.386 . S
C639 C643 1.393 . S
C640 H629 0.950 . S
C640 C638 1.391 . S
C640 C641 1.400 . S
C641 C635 1.491 . S
C641 C640 1.400 . S
C641 C642 1.398 . S
C642 H630 0.950 . S
C642 C641 1.398 . S
C642 C643 1.391 . S
C643 H631 0.950 . S
C643 C639 1.393 . S
C643 C642 1.391 . S
H644 C652 0.950 . S
H645 C657 0.950 1_554 S
H646 C654 0.950 . S
H647 C656 0.950 . S
H648 C658 0.950 . S
H649 C660 0.950 . S
H650 C662 0.950 . S
H651 C663 0.950 . S
C652 H644 0.950 . S
C652 C653 1.386 . S
C652 C654 1.391 . S
C653 C652 1.386 . S
C653 C657 1.393 . S
C654 H646 0.950 . S
C654 C652 1.391 . S
C654 C655 1.400 . S
C655 C654 1.400 . S
C655 C656 1.398 . S
C655 C661 1.491 . S
C656 H647 0.950 . S
C656 C655 1.398 . S
C656 C657 1.391 . S
C657 H645 0.950 1_556 S
C657 C653 1.393 . S
C657 C656 1.391 . S
C658 H648 0.950 . S
C658 C659 1.386 . S
C658 C660 1.391 . S
C659 C658 1.386 . S
C659 C663 1.393 . S
C660 H649 0.950 . S
C660 C658 1.391 . S
C660 C661 1.400 . S
C661 C655 1.491 . S
C661 C660 1.400 . S
C661 C662 1.398 . S
C662 H650 0.950 . S
C662 C661 1.398 . S
C662 C663 1.391 . S
C663 H651 0.950 . S
C663 C659 1.393 . S
C663 C662 1.391 . S
H664 C672 0.950 . S
H665 C677 0.950 . S
H666 C674 0.950 . S
H667 C676 0.950 . S
H668 C678 0.950 . S
H669 C680 0.950 . S
H670 C682 0.950 . S
H671 C683 0.950 . S
C672 H664 0.950 . S
C672 C673 1.386 . S
C672 C674 1.391 . S
C673 C672 1.386 . S
C673 C677 1.393 1_655 S
C674 H666 0.950 . S
C674 C672 1.391 . S
C674 C675 1.400 . S
C675 C674 1.400 . S
C675 C676 1.398 1_655 S
C675 C681 1.491 . S
C676 H667 0.950 . S
C676 C675 1.398 1_455 S
C676 C677 1.391 . S
C677 H665 0.950 . S
C677 C673 1.393 1_455 S
C677 C676 1.391 . S
C678 H668 0.950 . S
C678 C679 1.386 1_455 S
C678 C680 1.391 . S
C679 C678 1.386 1_655 S
C679 C683 1.393 . S
C680 H669 0.950 . S
C680 C678 1.391 . S
C680 C681 1.400 1_455 S
C681 C675 1.491 . S
C681 C680 1.400 1_655 S
C681 C682 1.398 . S
C682 H670 0.950 . S
C682 C681 1.398 . S
C682 C683 1.391 . S
C683 H671 0.950 . S
C683 C679 1.393 . S
C683 C682 1.391 . S
H684 C692 0.950 . S
H685 C697 0.950 . S
H686 C694 0.950 . S
H687 C696 0.950 . S
H688 C698 0.950 . S
H689 C700 0.950 . S
H690 C702 0.950 . S
H691 C703 0.950 . S
C692 H684 0.950 . S
C692 C693 1.386 . S
C692 C694 1.391 . S
C693 C692 1.386 . S
C693 C697 1.393 1_565 S
C694 H686 0.950 . S
C694 C692 1.391 . S
C694 C695 1.400 . S
C695 C694 1.400 . S
C695 C696 1.398 1_565 S
C695 C701 1.491 . S
C696 H687 0.950 . S
C696 C695 1.398 1_545 S
C696 C697 1.391 . S
C697 H685 0.950 . S
C697 C693 1.393 1_545 S
C697 C696 1.391 . S
C698 H688 0.950 . S
C698 C699 1.386 1_545 S
C698 C700 1.391 . S
C699 C698 1.386 1_565 S
C699 C703 1.393 . S
C700 H689 0.950 . S
C700 C698 1.391 . S
C700 C701 1.400 1_545 S
C701 C695 1.491 . S
C701 C700 1.400 1_565 S
C701 C702 1.398 . S
C702 H690 0.950 . S
C702 C701 1.398 . S
C702 C703 1.391 . S
C703 H691 0.950 . S
C703 C699 1.393 . S
C703 C702 1.391 . S
H704 C712 0.950 . S
H705 C717 0.950 . S
H706 C714 0.950 . S
H707 C716 0.950 . S
H708 C718 0.950 . S
H709 C720 0.950 . S
H710 C722 0.950 . S
H711 C723 0.950 . S
C712 H704 0.950 . S
C712 C713 1.386 . S
C712 C714 1.391 . S
C713 C712 1.386 . S
C713 C717 1.393 . S
C714 H706 0.950 . S
C714 C712 1.391 . S
C714 C715 1.400 . S
C715 C714 1.400 . S
C715 C716 1.398 . S
C715 C721 1.491 . S
C716 H707 0.950 . S
C716 C715 1.398 . S
C716 C717 1.391 . S
C717 H705 0.950 . S
C717 C713 1.393 . S
C717 C716 1.391 . S
C718 H708 0.950 . S
C718 C719 1.386 . S
C718 C720 1.391 . S
C719 C718 1.386 . S
C719 C723 1.393 . S
C720 H709 0.950 . S
C720 C718 1.391 . S
C720 C721 1.400 . S
C721 C715 1.491 . S
C721 C720 1.400 . S
C721 C722 1.398 . S
C722 H710 0.950 . S
C722 C721 1.398 . S
C722 C723 1.391 . S
C723 H711 0.950 . S
C723 C719 1.393 . S
C723 C722 1.391 . S
H724 C732 0.950 . S
H725 C737 0.950 . S
H726 C734 0.950 . S
H727 C736 0.950 . S
H728 C738 0.950 . S
H729 C740 0.950 . S
H730 C742 0.950 . S
H731 C743 0.950 . S
C732 H724 0.950 . S
C732 C733 1.386 . S
C732 C734 1.391 . S
C733 C732 1.386 . S
C733 C737 1.393 . S
C734 H726 0.950 . S
C734 C732 1.391 . S
C734 C735 1.400 . S
C735 C734 1.400 . S
C735 C736 1.398 . S
C735 C741 1.491 . S
C736 H727 0.950 . S
C736 C735 1.398 . S
C736 C737 1.391 . S
C737 H725 0.950 . S
C737 C733 1.393 . S
C737 C736 1.391 . S
C738 H728 0.950 . S
C738 C739 1.386 . S
C738 C740 1.391 . S
C739 C738 1.386 . S
C739 C743 1.393 . S
C740 H729 0.950 . S
C740 C738 1.391 . S
C740 C741 1.400 . S
C741 C735 1.491 . S
C741 C740 1.400 . S
C741 C742 1.398 . S
C742 H730 0.950 . S
C742 C741 1.398 . S
C742 C743 1.391 . S
C743 H731 0.950 . S
C743 C739 1.393 . S
C743 C742 1.391 . S
C273 N80 1.882 1_545 S
C279 C113 1.938 1_545 S
C299 C153 1.963 . S
C293 N93 1.877 . S
C319 C193 1.972 . S
C313 N54 1.888 . S
C339 C233 1.955 1_455 S
C333 N67 1.871 1_455 S
C359 C122 1.950 1_565 S
C353 N28 1.880 1_545 S
C373 N41 1.892 . S
C379 C162 1.962 . S
C393 N2 1.898 . S
C399 C202 1.968 . S
C413 N15 1.882 1_455 S
C419 C242 1.957 1_655 S
C439 C119 0.475 . S
C433 N70 0.440 1_455 S
C459 C159 0.488 . S
C453 N83 0.460 1_545 S
C479 C199 0.513 . S
C473 N96 0.468 . S
C493 N57 0.437 . S
C499 C239 0.459 . S
C513 N18 0.402 . S
C519 C110 0.432 . S
C539 C150 0.506 . S
C533 N31 0.462 . S
C559 C190 0.445 . S
C553 N44 0.421 . S
C573 N5 0.449 . S
C579 C230 0.509 . S
C593 N66 2.167 1_455 S
C599 C123 2.256 . S
C613 N79 2.133 1_545 S
C619 C163 2.223 . S
C639 C203 2.212 . S
C633 N92 2.120 . S
C659 C243 2.236 . S
C653 N53 2.166 . S
C673 N14 2.173 . S
C679 C114 2.257 . S
C699 C154 2.219 . S
C693 N27 2.142 . S
C719 C194 2.214 . S
C713 N40 2.129 . S
C733 N1 2.149 . S
C739 C234 2.252 . S
