# Generated by pormake.
# Topology pyr, (3,6)-cn, num edge types: 1
# Building blocks:
#     Node 0, Type 0, BuildingBlock: PAMTOO_clean_linker_0, # of connection points: 3
#     Node 1, Type 0, BuildingBlock: PAMTOO_clean_linker_0, # of connection points: 3
#     Node 2, Type 0, BuildingBlock: PAMTOO_clean_linker_0, # of connection points: 3
#     Node 3, Type 0, BuildingBlock: PAMTOO_clean_linker_0, # of connection points: 3
#     Node 4, Type 0, BuildingBlock: PAMTOO_clean_linker_0, # of connection points: 3
#     Node 5, Type 0, BuildingBlock: PAMTOO_clean_linker_0, # of connection points: 3
#     Node 6, Type 0, BuildingBlock: PAMTOO_clean_linker_0, # of connection points: 3
#     Node 7, Type 0, BuildingBlock: PAMTOO_clean_linker_0, # of connection points: 3
#     Node 8, Type 1, BuildingBlock: BETFEN_clean_sbu_0, # of connection points: 6
#     Node 9, Type 1, BuildingBlock: BETFEN_clean_sbu_0, # of connection points: 6
#     Node 10, Type 1, BuildingBlock: BETFEN_clean_sbu_0, # of connection points: 6
#     Node 11, Type 1, BuildingBlock: BETFEN_clean_sbu_0, # of connection points: 6
#     Edge 12, Type (0, 1), BuildingBlock: CIFDUS_clean_linker_0, # of connection points: 2
#     Edge 13, Type (0, 1), BuildingBlock: CIFDUS_clean_linker_0, # of connection points: 2
#     Edge 14, Type (0, 1), BuildingBlock: CIFDUS_clean_linker_0, # of connection points: 2
#     Edge 15, Type (0, 1), BuildingBlock: CIFDUS_clean_linker_0, # of connection points: 2
#     Edge 16, Type (0, 1), BuildingBlock: CIFDUS_clean_linker_0, # of connection points: 2
#     Edge 17, Type (0, 1), BuildingBlock: CIFDUS_clean_linker_0, # of connection points: 2
#     Edge 18, Type (0, 1), BuildingBlock: CIFDUS_clean_linker_0, # of connection points: 2
#     Edge 19, Type (0, 1), BuildingBlock: CIFDUS_clean_linker_0, # of connection points: 2
#     Edge 20, Type (0, 1), BuildingBlock: CIFDUS_clean_linker_0, # of connection points: 2
#     Edge 21, Type (0, 1), BuildingBlock: CIFDUS_clean_linker_0, # of connection points: 2
#     Edge 22, Type (0, 1), BuildingBlock: CIFDUS_clean_linker_0, # of connection points: 2
#     Edge 23, Type (0, 1), BuildingBlock: CIFDUS_clean_linker_0, # of connection points: 2
#     Edge 24, Type (0, 1), BuildingBlock: CIFDUS_clean_linker_0, # of connection points: 2
#     Edge 25, Type (0, 1), BuildingBlock: CIFDUS_clean_linker_0, # of connection points: 2
#     Edge 26, Type (0, 1), BuildingBlock: CIFDUS_clean_linker_0, # of connection points: 2
#     Edge 27, Type (0, 1), BuildingBlock: CIFDUS_clean_linker_0, # of connection points: 2
#     Edge 28, Type (0, 1), BuildingBlock: CIFDUS_clean_linker_0, # of connection points: 2
#     Edge 29, Type (0, 1), BuildingBlock: CIFDUS_clean_linker_0, # of connection points: 2
#     Edge 30, Type (0, 1), BuildingBlock: CIFDUS_clean_linker_0, # of connection points: 2
#     Edge 31, Type (0, 1), BuildingBlock: CIFDUS_clean_linker_0, # of connection points: 2
#     Edge 32, Type (0, 1), BuildingBlock: CIFDUS_clean_linker_0, # of connection points: 2
#     Edge 33, Type (0, 1), BuildingBlock: CIFDUS_clean_linker_0, # of connection points: 2
#     Edge 34, Type (0, 1), BuildingBlock: CIFDUS_clean_linker_0, # of connection points: 2
#     Edge 35, Type (0, 1), BuildingBlock: CIFDUS_clean_linker_0, # of connection points: 2
# Relax obj value: 0.206
# Max RMSD: 0.306
# Mean RMSD: 0.148
data_MOF--net-pyr--node1-BETFEN_clean_sbu_0--node2-PAMTOO_clean_linker_0--edge1-CIFDUS_clean_linker_0
_symmetry_space_group_name_H-M    P1
_symmetry_Int_Tables_number       1
_symmetry_cell_setting            triclinic
loop_
_symmetry_equiv_pos_as_xyz
'x, y, z'
_cell_length_a     31.147219
_cell_length_b     35.501042
_cell_length_c     32.261588
_cell_angle_alpha  92.967557
_cell_angle_beta   100.38872
_cell_angle_gamma 115.0709
loop_
_atom_site_label
_atom_site_type_symbol
_atom_site_fract_x
_atom_site_fract_y
_atom_site_fract_z
_atom_type_partial_charge
H0 H 0.40594 0.34873 0.31479 0.0
H1 H 0.53922 0.34903 0.38044 0.0
H2 H 0.54259 0.43291 0.28865 0.0
H3 H 0.65604 0.40177 0.33665 0.0
C4 C 0.61993 0.39553 0.31699 0.0
O5 O 0.595 0.40719 0.34247 0.0
H6 H 0.62691 0.41611 0.29173 0.0
C7 C 0.44495 0.35991 0.31944 0.0
C8 C 0.47097 0.39185 0.2972 0.0
C9 C 0.46907 0.34444 0.34981 0.0
C10 C 0.51983 0.36048 0.35706 0.0
C11 C 0.54607 0.39185 0.33464 0.0
C12 C 0.52184 0.40806 0.30526 0.0
H13 H 0.26372 0.88214 0.78417 0.0
H14 H 0.22339 0.80652 0.6622 0.0
H15 H 0.33594 0.80587 0.76022 0.0
H16 H 0.33675 0.82672 0.65904 0.0
C17 C 0.31562 0.79182 0.6525 0.0
O18 O 0.28696 0.77686 0.68155 0.0
H19 H 0.29169 0.78419 0.62019 0.0
C20 C 0.26756 0.85934 0.76334 0.0
C21 C 0.30256 0.84504 0.77776 0.0
C22 C 0.23894 0.84596 0.72166 0.0
C23 C 0.24442 0.8167 0.69475 0.0
C24 C 0.27957 0.80262 0.70867 0.0
C25 C 0.30859 0.81675 0.75 0.0
H26 H 0.72897 0.30956 0.93012 0.0
H27 H 0.60976 0.27475 0.82157 0.0
H28 H 0.73485 0.39384 0.83796 0.0
H29 H 0.63437 0.38894 0.82178 0.0
C30 C 0.6205 0.36596 0.79206 0.0
O31 O 0.64924 0.34538 0.79053 0.0
H32 H 0.58307 0.34256 0.79258 0.0
C33 C 0.7124 0.31657 0.90096 0.0
C34 C 0.73775 0.35504 0.88694 0.0
C35 C 0.66637 0.28694 0.87783 0.0
C36 C 0.6452 0.29684 0.84018 0.0
C37 C 0.66997 0.33548 0.82614 0.0
C38 C 0.7162 0.36422 0.84926 0.0
H39 H 0.9083 0.72388 0.44191 0.0
H40 H 0.88058 0.61351 0.35811 0.0
H41 H 1.00082 0.73164 0.35549 0.0
H42 H 0.951 0.68158 0.2727 0.0
C43 C 0.9411 0.64928 0.28074 0.0
O44 O 0.95613 0.65135 0.32433 0.0
H45 H 0.90085 0.63095 0.27134 0.0
C46 C 0.91652 0.70905 0.41625 0.0
C47 C 0.95664 0.73344 0.39959 0.0
C48 C 0.88815 0.66581 0.40163 0.0
C49 C 0.90155 0.64669 0.37002 0.0
C50 C 0.94225 0.67038 0.35345 0.0
C51 C 0.96967 0.7136 0.36844 0.0
H52 H 0.72064 0.74005 0.80445 0.0
H53 H 0.60002 0.646 0.84428 0.0
H54 H 0.6799 0.60906 0.76853 0.0
H55 H 0.58322 0.52966 0.83637 0.0
C56 C 0.61077 0.56306 0.84399 0.0
O57 O 0.60781 0.58211 0.80788 0.0
H58 H 0.60053 0.57764 0.8695 0.0
C59 C 0.69785 0.7073 0.80592 0.0
C60 C 0.70544 0.67605 0.7845 0.0
C61 C 0.6606 0.69714 0.82815 0.0
C62 C 0.62903 0.65467 0.82726 0.0
C63 C 0.63656 0.62298 0.80641 0.0
C64 C 0.67455 0.63367 0.78482 0.0
H65 H 0.88332 0.16987 0.34294 0.0
H66 H 0.81076 0.24765 0.36021 0.0
H67 H 0.90956 0.23897 0.46576 0.0
H68 H 0.82681 0.23998 0.4937 0.0
C69 C 0.8094 0.24578 0.46304 0.0
O70 O 0.84541 0.26736 0.44189 0.0
H71 H 0.78306 0.21471 0.44421 0.0
C72 C 0.87777 0.19232 0.3627 0.0
C73 C 0.90183 0.20371 0.40591 0.0
C74 C 0.8449 0.2081 0.34552 0.0
C75 C 0.83654 0.23563 0.37228 0.0
C76 C 0.85951 0.24634 0.41545 0.0
C77 C 0.89302 0.23134 0.43199 0.0
H78 H 0.41684 0.75511 0.17689 0.0
H79 H 0.42364 0.661 0.25215 0.0
H80 H 0.54943 0.77932 0.26696 0.0
H81 H 0.47263 0.71124 0.3391 0.0
C82 C 0.50851 0.71219 0.33754 0.0
O83 O 0.51227 0.70722 0.29574 0.0
H84 H 0.53746 0.74343 0.35362 0.0
C85 C 0.43803 0.74505 0.20008 0.0
C86 C 0.48683 0.77244 0.21896 0.0
C87 C 0.41541 0.70456 0.21072 0.0
C88 C 0.44072 0.69207 0.2432 0.0
C89 C 0.48851 0.71957 0.2641 0.0
C90 C 0.51182 0.75932 0.25159 0.0
H91 H 0.12019 0.30614 0.79214 0.0
H92 H 0.23571 0.42948 0.79579 0.0
H93 H 0.21936 0.32651 0.70863 0.0
H94 H 0.32002 0.38893 0.76305 0.0
C95 C 0.31685 0.41595 0.74907 0.0
O96 O 0.26858 0.40683 0.73389 0.0
H97 H 0.33336 0.44309 0.77504 0.0
C98 C 0.15152 0.32674 0.78074 0.0
C99 C 0.16719 0.31032 0.7488 0.0
C100 C 0.17635 0.36963 0.79846 0.0
C101 C 0.21698 0.39626 0.78344 0.0
C102 C 0.23218 0.38055 0.75097 0.0
C103 C 0.20761 0.33784 0.73418 0.0
Pr104 Pr 1.01658 0.995 0.57965 0.0
Pr105 Pr 0.11365 0.05088 0.56211 0.0
C106 C 0.93675 0.93041 0.59283 0.0
C107 C 0.9232 0.89808 0.62151 0.0
C108 C 0.91777 0.90787 0.66239 0.0
C109 C 0.90248 0.87673 0.6884 0.0
C110 C 0.89218 0.835 0.67423 0.0
C111 C 0.89829 0.82531 0.63355 0.0
C112 C 0.91353 0.85652 0.60743 0.0
C113 C 0.06384 0.0742 0.63019 0.0
C114 C 0.1149 0.98842 0.62979 0.0
C115 C 0.19679 0.11321 0.55171 0.0
C116 C 0.22169 0.13628 0.51993 0.0
C117 C 0.22179 0.1154 0.48178 0.0
C118 C 0.24936 0.13804 0.45397 0.0
C119 C 0.27719 0.18184 0.46391 0.0
C120 C 0.27558 0.20264 0.50149 0.0
C121 C 0.24819 0.18003 0.52925 0.0
C122 C 0.06571 0.97241 0.5101 0.0
C123 C 1.01475 0.059 0.5128 0.0
O124 O 0.96145 0.92663 0.56549 0.0
O125 O 0.95092 0.96946 0.60897 0.0
O126 O 0.08392 0.05129 0.6218 0.0
O127 O 1.01738 0.05562 0.61387 0.0
O128 O 0.13934 0.0273 0.62317 0.0
O129 O 0.06843 0.96689 0.61151 0.0
O130 O 0.16074 0.11975 0.56003 0.0
O131 O 0.18976 0.07419 0.55164 0.0
O132 O 0.04618 0.99537 0.51956 0.0
O133 O 0.11225 0.99093 0.52553 0.0
O134 O 0.98842 1.02163 0.52227 0.0
O135 O 0.06227 0.07877 0.52805 0.0
H136 H 0.92441 0.93943 0.67413 0.0
H137 H 0.89711 0.88519 0.71914 0.0
H138 H 0.89086 0.79355 0.62174 0.0
H139 H 0.9171 0.84796 0.57595 0.0
H140 H 0.20144 0.08157 0.47388 0.0
H141 H 0.25001 0.12112 0.42535 0.0
H142 H 0.29578 0.23645 0.50961 0.0
H143 H 0.24841 0.19668 0.55848 0.0
Pr144 Pr 0.53624 0.04078 0.06628 0.0
Pr145 Pr 0.61995 0.03198 0.04661 0.0
C146 C 0.47204 0.05283 0.10438 0.0
C147 C 0.47642 0.08914 0.13252 0.0
C148 C 0.44885 0.11064 0.11877 0.0
C149 C 0.45866 0.14914 0.14142 0.0
C150 C 0.49642 0.16702 0.17824 0.0
C151 C 0.52195 0.14412 0.19333 0.0
C152 C 0.51188 0.10555 0.17085 0.0
C153 C 0.57932 0.09513 1.01049 0.0
C154 C 0.64593 0.09673 0.12953 0.0
C155 C 0.68618 1.01991 1.01173 0.0
C156 C 0.68833 0.98315 0.99031 0.0
C157 C 0.72222 0.96952 1.00973 0.0
C158 C 0.72303 0.93337 0.9915 0.0
C159 C 0.69027 0.91022 0.95308 0.0
C160 C 0.65664 0.92419 0.93339 0.0
C161 C 0.65557 0.9602 0.95186 0.0
C162 C 0.57384 0.9753 0.09983 0.0
C163 C 0.51075 0.97632 0.98258 0.0
O164 O 0.49651 0.03257 0.1199 0.0
O165 O 0.47431 0.05863 0.06501 0.0
O166 O 0.60262 0.08848 0.04329 0.0
O167 O 0.53276 0.07462 1.00645 0.0
O168 O 0.66431 0.09105 0.09751 0.0
O169 O 0.59881 0.0765 0.12725 0.0
O170 O 0.65611 0.0332 0.99146 0.0
O171 O 0.68659 1.02031 0.05231 0.0
O172 O 0.55247 0.9834 0.067 0.0
O173 O 0.62048 0.99722 0.10649 0.0
O174 O 0.49213 0.98252 1.01431 0.0
O175 O 0.55801 0.99611 0.98509 0.0
H176 H 0.42106 0.09853 0.08948 0.0
H177 H 0.4376 0.1655 0.12937 0.0
H178 H 0.55151 0.15694 0.22132 0.0
H179 H 0.53341 0.08952 0.18258 0.0
H180 H 0.74768 0.98652 0.03949 0.0
H181 H 0.74895 0.92326 1.00792 0.0
H182 H 0.63142 0.90756 0.90346 0.0
H183 H 0.62887 0.96982 0.93611 0.0
Pr184 Pr 0.61179 0.59194 0.59923 0.0
Pr185 Pr 0.57276 0.50048 0.54058 0.0
C186 C 0.62238 0.66369 0.64169 0.0
C187 C 0.5909 0.68417 0.64594 0.0
C188 C 0.6008 0.71136 0.68316 0.0
C189 C 0.56957 0.72935 0.68838 0.0
C190 C 0.52788 0.72031 0.65641 0.0
C191 C 0.51834 0.69305 0.61908 0.0
C192 C 0.54941 0.67497 0.61401 0.0
C193 C 0.64212 0.53445 0.63379 0.0
C194 C 0.50059 0.51543 0.59682 0.0
C195 C 0.56511 0.42344 0.5187 0.0
C196 C 0.58596 0.40201 0.4945 0.0
C197 C 0.62367 0.4246 0.47444 0.0
C198 C 0.65053 0.40552 0.45999 0.0
C199 C 0.64012 0.36376 0.46577 0.0
C200 C 0.59987 0.34053 0.48291 0.0
C201 C 0.57338 0.35963 0.49753 0.0
C202 C 0.5477 0.55608 0.49468 0.0
C203 C 0.67382 0.58269 0.52923 0.0
O204 O 0.63337 0.66168 0.60454 0.0
O205 O 0.61174 0.62889 0.65832 0.0
O206 O 0.60081 0.52645 0.61177 0.0
O207 O 0.67023 0.57471 0.64004 0.0
O208 O 0.51059 0.48708 0.57771 0.0
O209 O 0.52906 0.55638 0.60117 0.0
O210 O 0.59541 0.44922 0.55258 0.0
O211 O 0.536 0.43743 0.49763 0.0
O212 O 0.5697 0.56181 0.53275 0.0
O213 O 0.5354 0.51773 0.4778 0.0
O214 O 0.66319 0.6085 0.55183 0.0
O215 O 0.65027 0.54112 0.52629 0.0
H216 H 0.63235 0.71824 0.7084 0.0
H217 H 0.57762 0.74973 0.71774 0.0
H218 H 0.48699 0.68587 0.59358 0.0
H219 H 0.54083 0.65358 0.58528 0.0
H220 H 0.63414 0.45757 0.47227 0.0
H221 H 0.68129 0.42423 0.44691 0.0
H222 H 0.59023 0.30802 0.48687 0.0
H223 H 0.54447 0.34179 0.51304 0.0
Pr224 Pr 0.05967 0.53777 1.00944 0.0
Pr225 Pr 0.09485 0.49861 0.08473 0.0
C226 C 1.00804 0.56103 0.94893 0.0
C227 C 0.95752 0.5555 0.93643 0.0
C228 C 0.93635 0.56975 0.96472 0.0
C229 C 0.8885 0.56428 0.95199 0.0
C230 C 0.86079 0.54417 0.91092 0.0
C231 C 0.88169 0.52913 0.88305 0.0
C232 C 0.92966 0.53493 0.89564 0.0
C233 C 0.15711 0.58306 0.05078 0.0
C234 C 1.03491 0.55096 0.10514 0.0
C235 C 0.14418 0.47349 0.1453 0.0
C236 C 0.18652 0.46427 0.15303 0.0
C237 C 0.19383 0.43947 0.12224 0.0
C238 C 0.23291 0.42924 0.13153 0.0
C239 C 0.26548 0.44396 0.17157 0.0
C240 C 0.25894 0.47004 0.20163 0.0
C241 C 0.21979 0.48002 0.19243 0.0
C242 C 0.99701 0.45512 0.04412 0.0
C243 C 0.11381 0.48055 0.98771 0.0
O244 O 1.01421 0.52714 0.943 0.0
O245 O 1.03536 0.58563 0.98446 0.0
O246 O 0.12234 0.56537 0.06848 0.0
O247 O 0.14191 0.58064 1.01003 0.0
O248 O 0.069 0.5401 0.12258 0.0
O249 O 1.02023 0.54649 0.06314 0.0
O250 O 0.15334 0.51289 0.14426 0.0
O251 O 0.10553 0.44729 0.11698 0.0
O252 O 1.03193 0.47156 1.02632 0.0
O253 O 1.01216 0.45804 0.08497 0.0
O254 O 0.08074 0.49291 0.97148 0.0
O255 O 0.13041 0.48546 1.0295 0.0
H256 H 0.95668 0.5852 0.99662 0.0
H257 H 0.87308 0.57567 0.97435 0.0
H258 H 0.86134 0.51374 0.85113 0.0
H259 H 0.94512 0.52345 0.87338 0.0
H260 H 0.16898 0.42742 0.09133 0.0
H261 H 0.2373 0.4094 0.10763 0.0
H262 H 0.28297 0.48141 0.23295 0.0
H263 H 0.21487 0.49936 0.2165 0.0
H264 H 0.38268 0.27452 0.32341 0.0
H265 H 0.49256 0.3478 0.43544 0.0
H266 H 0.44454 0.30205 0.4805 0.0
H267 H 0.36918 0.244 0.48822 0.0
H268 H 0.25627 0.17334 0.37674 0.0
H269 H 0.3075 0.21521 0.33115 0.0
C270 C 0.39608 0.28029 0.35769 0.0
C271 C 0.44138 0.31421 0.37618 0.0
C272 C 0.36753 0.25455 0.3834 0.0
C273 C 0.4585 0.32122 0.42054 0.0
C274 C 0.43073 0.29542 0.44629 0.0
C275 C 0.35561 0.23793 0.45396 0.0
C276 C 0.30879 0.20592 0.43594 0.0
C277 C 0.38488 0.26244 0.42809 0.0
C278 C 0.29226 0.1977 0.39141 0.0
C279 C 0.32142 0.22175 0.36535 0.0
H280 H 0.40082 0.87553 0.79899 0.0
H281 H 0.27652 0.85411 0.85254 0.0
H282 H 0.33017 0.89072 0.92168 0.0
H283 H 0.41221 0.93317 0.96523 0.0
H284 H 0.53672 0.95589 0.91128 0.0
H285 H 0.48313 0.91389 0.84417 0.0
C286 C 0.38552 0.87816 0.82604 0.0
C287 C 0.33486 0.86237 0.8207 0.0
C288 C 0.41658 0.89974 0.8655 0.0
C289 C 0.31548 0.86645 0.85585 0.0
C290 C 0.34609 0.88733 0.89534 0.0
C291 C 0.4277 0.92868 0.93895 0.0
C292 C 0.47839 0.94802 0.9432 0.0
C293 C 0.3967 0.90489 0.90027 0.0
C294 C 0.49781 0.94164 0.90883 0.0
C295 C 0.46719 0.91762 0.87038 0.0
H296 H 0.69438 0.43648 0.77704 0.0
H297 H 0.54602 0.34722 0.72269 0.0
H298 H 0.54195 0.38952 0.66597 0.0
H299 H 0.57757 0.45497 0.63633 0.0
H300 H 0.7237 0.54776 0.69353 0.0
H301 H 0.73165 0.50145 0.74514 0.0
C302 C 0.66122 0.42658 0.75282 0.0
C303 C 0.62017 0.38947 0.75453 0.0
C304 C 0.65872 0.45181 0.72113 0.0
C305 C 0.57783 0.37598 0.72225 0.0
C306 C 0.57548 0.40019 0.68994 0.0
C307 C 0.6115 0.46485 0.65963 0.0
C308 C 0.65002 0.50475 0.66115 0.0
C309 C 0.61526 0.43863 0.68971 0.0
C310 C 0.69359 0.51715 0.69168 0.0
C311 C 0.69806 0.49075 0.72126 0.0
H312 H 0.91536 0.62373 0.19572 0.0
H313 H 1.01991 0.63075 0.30712 0.0
H314 H 0.05692 0.60045 0.26307 0.0
H315 H 0.06054 0.57275 0.19232 0.0
H316 H 0.95678 0.56774 0.08091 0.0
H317 H 0.91888 0.59622 0.12533 0.0
C318 C 0.94602 0.61827 0.21038 0.0
C319 C 0.96405 0.62886 0.25483 0.0
C320 C 0.96755 0.60127 0.18472 0.0
C321 C 1.00451 0.62237 0.2732 0.0
C322 C 1.0259 0.60512 0.24791 0.0
C323 C 1.02954 0.57774 0.1777 0.0
C324 C 1.01174 0.56795 0.13305 0.0
C325 C 1.00782 0.59452 0.20357 0.0
C326 C 0.97157 0.57493 0.11497 0.0
C327 C 0.94971 0.59125 0.14043 0.0
H328 H 0.57642 0.36218 0.23384 0.0
H329 H 0.6035 0.32644 0.35783 0.0
H330 H 0.56486 0.25226 0.32657 0.0
H331 H 0.52674 0.19806 0.26325 0.0
H332 H 0.50246 0.23487 0.13893 0.0
H333 H 0.53537 0.30785 0.17105 0.0
C334 C 0.57378 0.33805 0.25391 0.0
C335 C 0.59374 0.34959 0.29787 0.0
C336 C 0.55165 0.29565 0.23565 0.0
C337 C 0.58943 0.31817 0.32376 0.0
C338 C 0.56709 0.27583 0.30591 0.0
C339 C 0.52866 0.22202 0.24316 0.0
C340 C 0.51212 0.21077 0.19866 0.0
C341 C 0.54875 0.26426 0.26176 0.0
C342 C 0.51414 0.2423 0.17327 0.0
C343 C 0.53346 0.28423 0.19157 0.0
H344 H 0.26089 0.92867 0.73174 0.0
H345 H 0.14561 0.80722 0.67373 0.0
H346 H 0.09515 0.84059 0.64289 0.0
H347 H 0.08591 0.90464 0.62942 0.0
H348 H 0.203 1.02601 0.68559 0.0
H349 H 0.25032 0.99217 0.72102 0.0
C350 C 0.22436 0.90942 0.713 0.0
C351 C 0.20688 0.86554 0.70515 0.0
C352 C 0.19596 0.92881 0.6951 0.0
C353 C 0.15993 0.84109 0.67999 0.0
C354 C 0.13107 0.86014 0.6625 0.0
C355 C 0.12148 0.92366 0.64993 0.0
C356 C 0.14096 0.96777 0.65487 0.0
C357 C 0.14898 0.90402 0.66942 0.0
C358 C 0.18729 0.992 0.68116 0.0
C359 C 0.2144 0.97269 0.70137 0.0
H360 H 0.77085 0.37546 0.97288 0.0
H361 H 0.81726 0.39931 0.85465 0.0
H362 H 0.90197 0.43528 0.89371 0.0
H363 H 0.96277 0.45113 0.96021 0.0
H364 H 0.91685 0.4247 0.07816 0.0
H365 H 0.8317 0.3968 0.04015 0.0
C366 C 0.7995 0.38858 0.95564 0.0
C367 C 0.78779 0.38383 0.91085 0.0
C368 C 0.84811 0.40769 0.97811 0.0
C369 C 0.82518 0.4024 0.88909 0.0
C370 C 0.87369 0.42252 0.91136 0.0
C371 C 0.93414 0.43975 0.97766 0.0
C372 C 0.94583 0.4395 1.02176 0.0
C373 C 0.88555 0.42392 0.95565 0.0
C374 C 0.90853 0.42465 0.04407 0.0
C375 C 0.85997 0.40893 1.02241 0.0
H376 H 0.82506 0.69234 0.42636 0.0
H377 H 0.85448 0.58409 0.41977 0.0
H378 H 0.78941 0.54766 0.45664 0.0
H379 H 0.72696 0.54838 0.49509 0.0
H380 H 0.70475 0.66034 0.50569 0.0
H381 H 0.76506 0.69361 0.46437 0.0
C382 C 0.81796 0.66097 0.43337 0.0
C383 C 0.84556 0.64148 0.42063 0.0
C384 C 0.78194 0.6409 0.45603 0.0
C385 C 0.83397 0.60007 0.4288 0.0
C386 C 0.79697 0.57929 0.45036 0.0
C387 C 0.73542 0.58005 0.48836 0.0
C388 C 0.71148 0.60185 0.50406 0.0
C389 C 0.77117 0.59967 0.46481 0.0
C390 C 0.7229 0.64287 0.49479 0.0
C391 C 0.7573 0.66198 0.47084 0.0
H392 H 0.38988 0.34921 0.235 0.0
H393 H 0.49206 0.47453 0.29537 0.0
H394 H 0.43946 0.50284 0.25743 0.0
H395 H 0.35971 0.49051 0.21418 0.0
H396 H 0.25635 0.3644 0.15659 0.0
H397 H 0.31429 0.3379 0.18577 0.0
C398 C 0.40087 0.38279 0.23928 0.0
C399 C 0.44438 0.40973 0.2682 0.0
C400 C 0.37005 0.39861 0.21811 0.0
C401 C 0.45876 0.45323 0.27313 0.0
C402 C 0.4285 0.46934 0.25174 0.0
C403 C 0.35013 0.4573 0.20772 0.0
C404 C 0.30361 0.42942 0.18365 0.0
C405 C 0.38332 0.44213 0.22529 0.0
C406 C 0.29197 0.38658 0.17481 0.0
C407 C 0.32495 0.37133 0.19178 0.0
H408 H 0.70631 0.23923 0.91719 0.0
H409 H 0.56878 0.24347 0.87587 0.0
H410 H 0.52911 0.18217 0.91033 0.0
H411 H 0.53483 0.13127 0.95757 0.0
H412 H 0.6741 0.13245 1.00502 0.0
H413 H 0.7121 0.18866 0.96381 0.0
C414 C 0.66772 0.22717 0.91598 0.0
C415 C 0.64087 0.24662 0.89436 0.0
C416 C 0.64559 0.19319 0.93752 0.0
C417 C 0.59049 0.22922 0.89192 0.0
C418 C 0.56781 0.19437 0.91207 0.0
C419 C 0.57346 0.14372 0.95867 0.0
C420 C 0.60177 0.12797 0.9844 0.0
C421 C 0.59521 0.17672 0.93574 0.0
C422 C 0.65173 0.14435 0.98567 0.0
C423 C 0.67338 0.17637 0.96205 0.0
H424 H 0.92118 0.78983 0.41456 0.0
H425 H 0.0558 0.78024 0.4223 0.0
H426 H 0.10156 0.85367 0.4558 0.0
H427 H 0.10301 0.91962 0.48667 0.0
H428 H 0.96797 0.92858 0.47864 0.0
H429 H 0.92275 0.85635 0.44212 0.0
C430 C 0.96057 0.80379 0.42354 0.0
C431 C 0.98494 0.77931 0.41614 0.0
C432 C 0.98657 0.84589 0.44314 0.0
C433 C 1.03606 0.79828 0.4273 0.0
C434 C 0.06223 0.84023 0.44678 0.0
C435 C 0.0637 0.90582 0.47666 0.0
C436 C 1.03887 0.92941 0.48567 0.0
C437 C 1.03786 0.86418 0.45541 0.0
C438 C 0.98796 0.9111 0.47235 0.0
C439 C 0.96207 0.86978 0.45141 0.0
H440 H 0.41416 0.82781 0.68245 0.0
H441 H 0.29189 0.7103 0.62447 0.0
H442 H 0.34641 0.6771 0.62232 0.0
H443 H 0.42892 0.68238 0.63474 0.0
H444 H 0.55171 0.80086 0.69011 0.0
H445 H 0.4969 0.83272 0.69611 0.0
C446 C 0.39961 0.79494 0.66943 0.0
C447 C 0.34932 0.77149 0.65316 0.0
C448 C 0.4312 0.77633 0.6679 0.0
C449 C 0.33062 0.72884 0.63681 0.0
C450 C 0.36173 0.70997 0.63557 0.0
C451 C 0.44377 0.71526 0.64783 0.0
C452 C 0.49442 0.73922 0.66168 0.0
C453 C 0.41212 0.73356 0.65054 0.0
C454 C 0.51289 0.78155 0.67952 0.0
C455 C 0.48159 0.79989 0.68272 0.0
H456 H 0.79932 0.73283 0.81278 0.0
H457 H 0.69807 0.64946 0.70145 0.0
H458 H 0.7516 0.68914 0.65615 0.0
H459 H 0.81858 0.7558 0.64812 0.0
H460 H 0.91957 0.8391 0.76036 0.0
H461 H 0.87478 0.79122 0.80556 0.0
C462 C 0.78974 0.72272 0.77868 0.0
C463 C 0.7441 0.68939 0.76006 0.0
C464 C 0.82015 0.74627 0.75307 0.0
C465 C 0.73247 0.67573 0.71616 0.0
C466 C 0.76298 0.6986 0.69034 0.0
C467 C 0.83173 0.76291 0.68242 0.0
C468 C 0.8716 0.80162 0.70083 0.0
C469 C 0.80558 0.73531 0.70831 0.0
C470 C 0.8881 0.81017 0.74538 0.0
C471 C 0.86267 0.78272 0.77128 0.0
H472 H 0.74903 0.18713 0.31683 0.0
H473 H 0.87522 0.19342 0.27415 0.0
H474 H 0.82533 0.16199 0.20242 0.0
H475 H 0.74478 0.12887 0.15309 0.0
H476 H 0.61965 0.1239 0.19675 0.0
H477 H 0.67063 0.1599 0.26653 0.0
C478 C 0.76604 0.18263 0.29171 0.0
C479 C 0.81586 0.1926 0.30099 0.0
C480 C 0.73728 0.16473 0.25066 0.0
C481 C 0.83682 0.18552 0.26807 0.0
C482 C 0.80837 0.16774 0.22699 0.0
C483 C 0.72879 0.13618 0.17769 0.0
C484 C 0.67829 0.12323 0.1698 0.0
C485 C 0.75837 0.1566 0.21809 0.0
C486 C 0.65821 0.13299 0.20205 0.0
C487 C 0.68738 0.1536 0.24205 0.0
H488 H 0.5489 0.71775 0.42095 0.0
H489 H 0.47539 0.62859 0.30609 0.0
H490 H 0.48021 0.57237 0.34456 0.0
H491 H 0.50587 0.54863 0.41113 0.0
H492 H 0.57781 0.63781 0.52611 0.0
H493 H 0.57287 0.69383 0.48764 0.0
C494 C 0.53445 0.68607 0.40433 0.0
C495 C 0.51331 0.67763 0.36049 0.0
C496 C 0.53674 0.65385 0.4268 0.0
C497 C 0.49316 0.63616 0.33956 0.0
C498 C 0.49563 0.60395 0.36161 0.0
C499 C 0.52023 0.58031 0.42773 0.0
C500 C 0.54212 0.58913 0.47144 0.0
C501 C 0.51741 0.61244 0.40525 0.0
C502 C 0.56066 0.63027 0.49255 0.0
C503 C 0.55799 0.66234 0.47051 0.0
H504 H 0.22411 0.41194 0.87908 0.0
H505 H 0.08656 0.36668 0.78906 0.0
H506 H 0.05543 0.3973 0.83897 0.0
H507 H 0.06741 0.43779 0.90788 0.0
H508 H 0.20242 0.47873 1.00066 0.0
H509 H 0.23428 0.44895 0.95047 0.0
C510 C 0.18731 0.40877 0.87057 0.0
C511 C 0.15771 0.38717 0.83029 0.0
C512 C 0.1692 0.42572 0.9 0.0
C513 C 0.10995 0.38297 0.81984 0.0
C514 C 0.0922 0.4006 0.84836 0.0
C515 C 0.10384 0.44023 0.91717 0.0
C516 C 0.13262 0.46089 0.95796 0.0
C517 C 0.1215 0.42218 0.88846 0.0
C518 C 0.17945 0.46307 0.96957 0.0
C519 C 0.19774 0.44611 0.94077 0.0
H520 H 0.73404 0.76635 0.87726 0.0
H521 H 0.5778 0.70514 0.83449 0.0
H522 H 0.5729 0.76507 0.87089 0.0
H523 H 0.61378 0.8363 0.91225 0.0
H524 H 0.77072 0.89852 0.94941 0.0
H525 H 0.77446 0.83672 0.91747 0.0
C526 C 0.69884 0.76617 0.87555 0.0
C527 C 0.65639 0.73153 0.85274 0.0
C528 C 0.69646 0.80099 0.89544 0.0
C529 C 0.61103 0.73132 0.85197 0.0
C530 C 0.60827 0.76572 0.87249 0.0
C531 C 0.64882 0.8365 0.91305 0.0
C532 C 0.69189 0.87213 0.93341 0.0
C533 C 0.65086 0.80101 0.8938 0.0
C534 C 0.73692 0.87143 0.93469 0.0
C535 C 0.73917 0.83617 0.91616 0.0
H536 H 0.87688 0.12045 0.39915 0.0
H537 H 0.99342 0.24138 0.45648 0.0
H538 H 1.04052 0.20719 0.49234 0.0
H539 H 0.04642 0.1427 0.51024 0.0
H540 H 0.9272 1.02186 0.4562 0.0
H541 H 0.88343 0.05615 0.41583 0.0
C542 C 0.91294 0.13927 0.41896 0.0
C543 C 0.93193 0.18331 0.42499 0.0
C544 C 0.93915 0.11938 0.44017 0.0
C545 C 0.97819 0.2074 0.45145 0.0
C546 C 1.00504 0.18787 0.47189 0.0
C547 C 1.01112 0.12389 0.48921 0.0
C548 C 0.9901 0.07982 0.48613 0.0
C549 C 0.98562 0.14386 0.46691 0.0
C550 C 0.94406 0.05585 0.45923 0.0
C551 C 0.91902 0.07542 0.43613 0.0
H552 H 0.38193 0.68871 0.12538 0.0
H553 H 0.33726 0.65616 0.24275 0.0
H554 H 0.25301 0.61468 0.20312 0.0
H555 H 0.19176 0.59233 0.13568 0.0
H556 H 0.23686 0.62399 1.01827 0.0
H557 H 0.32153 0.66241 0.05755 0.0
C558 C 0.35369 0.67243 0.14224 0.0
C559 C 0.36549 0.67579 0.1869 0.0
C560 C 0.3056 0.64916 0.11935 0.0
C561 C 0.32894 0.65392 0.20837 0.0
C562 C 0.28083 0.63053 0.18577 0.0
C563 C 0.22021 0.6071 0.11864 0.0
C564 C 0.20824 0.60536 0.07419 0.0
C565 C 0.26869 0.6286 0.14136 0.0
C566 C 0.24528 0.62509 0.05251 0.0
C567 C 0.29361 0.64693 0.07493 0.0
H568 H 0.35635 0.49115 0.71916 0.0
H569 H 0.33817 0.36386 0.69959 0.0
H570 H 0.38942 0.38211 0.64743 0.0
H571 H 0.44531 0.43586 0.61219 0.0
H572 H 0.46395 0.56357 0.63264 0.0
H573 H 0.40652 0.54353 0.67898 0.0
C574 C 0.36335 0.46742 0.70311 0.0
C575 C 0.34438 0.42645 0.71378 0.0
C576 C 0.39313 0.47826 0.67334 0.0
C577 C 0.35302 0.39576 0.69234 0.0
C578 C 0.38233 0.40621 0.66254 0.0
C579 C 0.43618 0.45919 0.62608 0.0
C580 C 0.45941 0.50129 0.61891 0.0
C581 C 0.40347 0.4476 0.65342 0.0
C582 C 0.44703 0.53099 0.63755 0.0
C583 C 0.4142 0.5196 0.66429 0.0
H584 H 0.64161 0.5024 0.83272 0.0
H585 H 0.69152 0.62997 0.89128 0.0
H586 H 0.77315 0.63561 0.91668 0.0
H587 H 0.83021 0.60423 0.92217 0.0
H588 H 0.77939 0.47512 0.86778 0.0
H589 H 0.69762 0.46954 0.84261 0.0
C590 C 0.67042 0.53132 0.85117 0.0
C591 C 0.66087 0.56585 0.85986 0.0
C592 C 0.71689 0.53393 0.86668 0.0
C593 C 0.69831 0.60316 0.88389 0.0
C594 C 0.74485 0.60632 0.89854 0.0
C595 C 0.80119 0.5748 0.90491 0.0
C596 C 0.81088 0.54024 0.89662 0.0
C597 C 0.75453 0.5719 0.89016 0.0
C598 C 0.77301 0.50239 0.87392 0.0
C599 C 0.72637 0.49921 0.85933 0.0
H600 H 0.46806 0.79122 0.13858 0.0
H601 H 0.56051 0.8477 0.26375 0.0
H602 H 0.5968 0.91508 0.23767 0.0
H603 H 0.60039 0.95869 0.1793 0.0
H604 H 0.49842 0.90278 0.05846 0.0
H605 H 0.46584 0.83481 0.08376 0.0
C606 C 0.49505 0.81824 0.16094 0.0
C607 C 0.51068 0.81387 0.2035 0.0
C608 C 0.51369 0.85732 0.14655 0.0
C609 C 0.54777 0.84947 0.23075 0.0
C610 C 0.56826 0.8883 0.21597 0.0
C611 C 0.57077 0.93158 0.1588 0.0
C612 C 0.55182 0.93557 0.11712 0.0
C613 C 0.5512 0.89267 0.17399 0.0
C614 C 0.51333 0.90048 0.09076 0.0
C615 C 0.49492 0.86157 0.1051 0.0
H616 H 0.2054 0.25725 0.72754 0.0
H617 H 0.0686 0.26149 0.72526 0.0
H618 H 1.02475 0.18895 0.68945 0.0
H619 H 1.02507 0.1248 0.65626 0.0
H620 H 0.16186 0.12066 0.65856 0.0
H621 H 0.20571 0.19256 0.69626 0.0
C622 C 0.16598 0.24238 0.71913 0.0
C623 C 0.14048 0.26509 0.72914 0.0
C624 C 0.1409 0.2006 0.69826 0.0
C625 C 0.08931 0.24485 0.71852 0.0
C626 C 0.06415 0.20337 0.69769 0.0
C627 C 0.06448 0.1396 0.66518 0.0
C628 C 0.09012 0.11733 0.65453 0.0
C629 C 0.08952 0.18101 0.68709 0.0
C630 C 0.14119 0.13697 0.66641 0.0
C631 C 0.16632 0.17816 0.68794 0.0
H632 H 0.78147 0.29423 0.41085 0.0
H633 H 0.77077 0.24806 0.53146 0.0
H634 H 0.71746 0.28012 0.54261 0.0
H635 H 0.67308 0.32005 0.51786 0.0
H636 H 0.6849 0.36884 0.39863 0.0
H637 H 0.73914 0.33747 0.38728 0.0
C638 C 0.76815 0.29195 0.43989 0.0
C639 C 0.781 0.26977 0.47087 0.0
C640 C 0.73748 0.31057 0.44612 0.0
C641 C 0.76229 0.26585 0.50772 0.0
C642 C 0.7316 0.28394 0.51397 0.0
C643 C 0.68702 0.32344 0.4891 0.0
C644 C 0.67377 0.34567 0.4585 0.0
C645 C 0.71873 0.30607 0.48328 0.0
C646 C 0.69377 0.35119 0.42227 0.0
C647 C 0.72489 0.33336 0.41586 0.0
loop_
_geom_bond_atom_site_label_1
_geom_bond_atom_site_label_2
_geom_bond_distance
_geom_bond_site_symmetry_2
_ccdc_geom_bond_type
H0 C7 0.929 . S
H1 C10 0.930 . S
H2 C12 0.929 . S
H3 C4 0.969 . S
C4 H3 0.969 . S
C4 O5 1.550 . S
C4 H6 0.973 . S
O5 C4 1.550 . S
O5 C11 1.412 . S
H6 C4 0.973 . S
C7 H0 0.929 . S
C7 C8 1.400 . S
C7 C9 1.364 . S
C8 C7 1.400 . S
C8 C12 1.377 . S
C9 C7 1.364 . S
C9 C10 1.374 . S
C10 H1 0.930 . S
C10 C9 1.374 . S
C10 C11 1.383 . S
C11 O5 1.412 . S
C11 C10 1.383 . S
C11 C12 1.394 . S
C12 H2 0.929 . S
C12 C8 1.377 . S
C12 C11 1.394 . S
H13 C20 0.929 . S
H14 C23 0.930 . S
H15 C25 0.929 . S
H16 C17 0.969 . S
C17 H16 0.969 . S
C17 O18 1.550 . S
C17 H19 0.973 . S
O18 C17 1.550 . S
O18 C24 1.412 . S
H19 C17 0.973 . S
C20 H13 0.929 . S
C20 C21 1.400 . S
C20 C22 1.364 . S
C21 C20 1.400 . S
C21 C25 1.377 . S
C22 C20 1.364 . S
C22 C23 1.374 . S
C23 H14 0.930 . S
C23 C22 1.374 . S
C23 C24 1.383 . S
C24 O18 1.412 . S
C24 C23 1.383 . S
C24 C25 1.394 . S
C25 H15 0.929 . S
C25 C21 1.377 . S
C25 C24 1.394 . S
H26 C33 0.929 . S
H27 C36 0.930 . S
H28 C38 0.929 . S
H29 C30 0.969 . S
C30 H29 0.969 . S
C30 O31 1.550 . S
C30 H32 0.973 . S
O31 C30 1.550 . S
O31 C37 1.412 . S
H32 C30 0.973 . S
C33 H26 0.929 . S
C33 C34 1.400 . S
C33 C35 1.364 . S
C34 C33 1.400 . S
C34 C38 1.377 . S
C35 C33 1.364 . S
C35 C36 1.374 . S
C36 H27 0.930 . S
C36 C35 1.374 . S
C36 C37 1.383 . S
C37 O31 1.412 . S
C37 C36 1.383 . S
C37 C38 1.394 . S
C38 H28 0.929 . S
C38 C34 1.377 . S
C38 C37 1.394 . S
H39 C46 0.929 . S
H40 C49 0.930 . S
H41 C51 0.929 . S
H42 C43 0.969 . S
C43 H42 0.969 . S
C43 O44 1.550 . S
C43 H45 0.973 . S
O44 C43 1.550 . S
O44 C50 1.412 . S
H45 C43 0.973 . S
C46 H39 0.929 . S
C46 C47 1.400 . S
C46 C48 1.364 . S
C47 C46 1.400 . S
C47 C51 1.377 . S
C48 C46 1.364 . S
C48 C49 1.374 . S
C49 H40 0.930 . S
C49 C48 1.374 . S
C49 C50 1.383 . S
C50 O44 1.412 . S
C50 C49 1.383 . S
C50 C51 1.394 . S
C51 H41 0.929 . S
C51 C47 1.377 . S
C51 C50 1.394 . S
H52 C59 0.929 . S
H53 C62 0.930 . S
H54 C64 0.929 . S
H55 C56 0.969 . S
C56 H55 0.969 . S
C56 O57 1.550 . S
C56 H58 0.973 . S
O57 C56 1.550 . S
O57 C63 1.412 . S
H58 C56 0.973 . S
C59 H52 0.929 . S
C59 C60 1.400 . S
C59 C61 1.364 . S
C60 C59 1.400 . S
C60 C64 1.377 . S
C61 C59 1.364 . S
C61 C62 1.374 . S
C62 H53 0.930 . S
C62 C61 1.374 . S
C62 C63 1.383 . S
C63 O57 1.412 . S
C63 C62 1.383 . S
C63 C64 1.394 . S
C64 H54 0.929 . S
C64 C60 1.377 . S
C64 C63 1.394 . S
H65 C72 0.929 . S
H66 C75 0.930 . S
H67 C77 0.929 . S
H68 C69 0.969 . S
C69 H68 0.969 . S
C69 O70 1.550 . S
C69 H71 0.973 . S
O70 C69 1.550 . S
O70 C76 1.412 . S
H71 C69 0.973 . S
C72 H65 0.929 . S
C72 C73 1.400 . S
C72 C74 1.364 . S
C73 C72 1.400 . S
C73 C77 1.377 . S
C74 C72 1.364 . S
C74 C75 1.374 . S
C75 H66 0.930 . S
C75 C74 1.374 . S
C75 C76 1.383 . S
C76 O70 1.412 . S
C76 C75 1.383 . S
C76 C77 1.394 . S
C77 H67 0.929 . S
C77 C73 1.377 . S
C77 C76 1.394 . S
H78 C85 0.929 . S
H79 C88 0.930 . S
H80 C90 0.929 . S
H81 C82 0.969 . S
C82 H81 0.969 . S
C82 O83 1.550 . S
C82 H84 0.973 . S
O83 C82 1.550 . S
O83 C89 1.412 . S
H84 C82 0.973 . S
C85 H78 0.929 . S
C85 C86 1.400 . S
C85 C87 1.364 . S
C86 C85 1.400 . S
C86 C90 1.377 . S
C87 C85 1.364 . S
C87 C88 1.374 . S
C88 H79 0.930 . S
C88 C87 1.374 . S
C88 C89 1.383 . S
C89 O83 1.412 . S
C89 C88 1.383 . S
C89 C90 1.394 . S
C90 H80 0.929 . S
C90 C86 1.377 . S
C90 C89 1.394 . S
H91 C98 0.929 . S
H92 C101 0.930 . S
H93 C103 0.929 . S
H94 C95 0.969 . S
C95 H94 0.969 . S
C95 O96 1.550 . S
C95 H97 0.973 . S
O96 C95 1.550 . S
O96 C102 1.412 . S
H97 C95 0.973 . S
C98 H91 0.929 . S
C98 C99 1.400 . S
C98 C100 1.364 . S
C99 C98 1.400 . S
C99 C103 1.377 . S
C100 C98 1.364 . S
C100 C101 1.374 . S
C101 H92 0.930 . S
C101 C100 1.374 . S
C101 C102 1.383 . S
C102 O96 1.412 . S
C102 C101 1.383 . S
C102 C103 1.394 . S
C103 H93 0.929 . S
C103 C99 1.377 . S
C103 C102 1.394 . S
Pr104 C106 2.880 . S
Pr104 O124 2.562 . S
Pr104 O125 2.490 . S
Pr104 O126 2.695 1_665 S
Pr104 O127 2.512 1_665 S
Pr104 O129 2.437 1_655 S
Pr104 O132 2.436 . S
Pr104 O134 2.438 1_565 S
Pr105 C115 2.880 . S
Pr105 O126 2.436 . S
Pr105 O128 2.438 1_545 S
Pr105 O130 2.562 . S
Pr105 O131 2.490 . S
Pr105 O132 2.695 1_445 S
Pr105 O133 2.512 1_545 S
Pr105 O135 2.437 . S
C106 Pr104 2.880 . S
C106 C107 1.491 . S
C106 O124 1.254 . S
C106 O125 1.225 . S
C107 C106 1.491 . S
C107 C108 1.392 . S
C107 C112 1.356 . S
C108 C107 1.392 . S
C108 C109 1.368 . S
C108 H136 0.929 . S
C109 C108 1.368 . S
C109 C110 1.386 . S
C109 H137 0.929 . S
C110 C109 1.386 . S
C110 C111 1.373 . S
C111 C110 1.373 . S
C111 C112 1.409 . S
C111 H138 0.931 . S
C112 C107 1.356 . S
C112 C111 1.409 . S
C112 H139 0.930 . S
C113 O126 1.270 . S
C113 O127 1.248 . S
C114 O128 1.267 . S
C114 O129 1.278 . S
C115 Pr105 2.880 . S
C115 C116 1.491 . S
C115 O130 1.254 . S
C115 O131 1.225 . S
C116 C115 1.491 . S
C116 C117 1.392 . S
C116 C121 1.356 . S
C117 C116 1.392 . S
C117 C118 1.368 . S
C117 H140 0.929 . S
C118 C117 1.368 . S
C118 C119 1.386 . S
C118 H141 0.929 . S
C119 C118 1.386 . S
C119 C120 1.373 . S
C120 C119 1.373 . S
C120 C121 1.409 . S
C120 H142 0.931 . S
C121 C116 1.356 . S
C121 C120 1.409 . S
C121 H143 0.930 . S
C122 O132 1.270 . S
C122 O133 1.248 1_655 S
C123 O134 1.267 . S
C123 O135 1.278 1_655 S
O124 Pr104 2.562 . S
O124 C106 1.254 . S
O125 Pr104 2.490 . S
O125 C106 1.225 . S
O126 Pr104 2.695 1_445 S
O126 Pr105 2.436 . S
O126 C113 1.270 . S
O127 Pr104 2.512 1_445 S
O127 C113 1.248 . S
O128 Pr105 2.438 1_565 S
O128 C114 1.267 . S
O129 Pr104 2.437 1_455 S
O129 C114 1.278 . S
O130 Pr105 2.562 . S
O130 C115 1.254 . S
O131 Pr105 2.490 . S
O131 C115 1.225 . S
O132 Pr104 2.436 . S
O132 Pr105 2.695 1_665 S
O132 C122 1.270 . S
O133 Pr105 2.512 1_565 S
O133 C122 1.248 1_455 S
O134 Pr104 2.438 1_545 S
O134 C123 1.267 . S
O135 Pr105 2.437 . S
O135 C123 1.278 1_455 S
H136 C108 0.929 . S
H137 C109 0.929 . S
H138 C111 0.931 . S
H139 C112 0.930 . S
H140 C117 0.929 . S
H141 C118 0.929 . S
H142 C120 0.931 . S
H143 C121 0.930 . S
Pr144 C146 2.880 . S
Pr144 O164 2.562 . S
Pr144 O165 2.490 . S
Pr144 O166 2.695 1_554 S
Pr144 O167 2.512 1_554 S
Pr144 O169 2.437 . S
Pr144 O172 2.436 1_545 S
Pr144 O174 2.438 1_544 S
Pr145 C155 2.880 1_554 S
Pr145 O166 2.436 1_564 S
Pr145 O168 2.438 1_565 S
Pr145 O170 2.562 1_554 S
Pr145 O171 2.490 1_554 S
Pr145 O172 2.695 . S
Pr145 O173 2.512 . S
Pr145 O175 2.437 1_554 S
C146 Pr144 2.880 . S
C146 C147 1.491 . S
C146 O164 1.254 . S
C146 O165 1.225 . S
C147 C146 1.491 . S
C147 C148 1.392 . S
C147 C152 1.356 . S
C148 C147 1.392 . S
C148 C149 1.368 . S
C148 H176 0.929 . S
C149 C148 1.368 . S
C149 C150 1.386 . S
C149 H177 0.929 . S
C150 C149 1.386 . S
C150 C151 1.373 . S
C151 C150 1.373 . S
C151 C152 1.409 . S
C151 H178 0.931 . S
C152 C147 1.356 . S
C152 C151 1.409 . S
C152 H179 0.930 . S
C153 O166 1.270 . S
C153 O167 1.248 . S
C154 O168 1.267 . S
C154 O169 1.278 . S
C155 Pr145 2.880 1_556 S
C155 C156 1.491 . S
C155 O170 1.254 . S
C155 O171 1.225 . S
C156 C155 1.491 . S
C156 C157 1.392 . S
C156 C161 1.356 . S
C157 C156 1.392 . S
C157 C158 1.368 . S
C157 H180 0.929 . S
C158 C157 1.368 . S
C158 C159 1.386 . S
C158 H181 0.929 . S
C159 C158 1.386 . S
C159 C160 1.373 . S
C160 C159 1.373 . S
C160 C161 1.409 . S
C160 H182 0.931 . S
C161 C156 1.356 . S
C161 C160 1.409 . S
C161 H183 0.930 . S
C162 O172 1.270 . S
C162 O173 1.248 . S
C163 O174 1.267 . S
C163 O175 1.278 . S
O164 Pr144 2.562 . S
O164 C146 1.254 . S
O165 Pr144 2.490 . S
O165 C146 1.225 . S
O166 Pr144 2.695 1_556 S
O166 Pr145 2.436 1_546 S
O166 C153 1.270 . S
O167 Pr144 2.512 1_556 S
O167 C153 1.248 . S
O168 Pr145 2.438 1_545 S
O168 C154 1.267 . S
O169 Pr144 2.437 . S
O169 C154 1.278 . S
O170 Pr145 2.562 1_556 S
O170 C155 1.254 . S
O171 Pr145 2.490 1_556 S
O171 C155 1.225 . S
O172 Pr144 2.436 1_565 S
O172 Pr145 2.695 . S
O172 C162 1.270 . S
O173 Pr145 2.512 . S
O173 C162 1.248 . S
O174 Pr144 2.438 1_566 S
O174 C163 1.267 . S
O175 Pr145 2.437 1_556 S
O175 C163 1.278 . S
H176 C148 0.929 . S
H177 C149 0.929 . S
H178 C151 0.931 . S
H179 C152 0.930 . S
H180 C157 0.929 . S
H181 C158 0.929 . S
H182 C160 0.931 . S
H183 C161 0.930 . S
Pr184 C186 2.880 . S
Pr184 O204 2.562 . S
Pr184 O205 2.490 . S
Pr184 O206 2.695 . S
Pr184 O207 2.512 . S
Pr184 O209 2.437 . S
Pr184 O212 2.436 . S
Pr184 O214 2.438 . S
Pr185 C195 2.880 . S
Pr185 O206 2.436 . S
Pr185 O208 2.438 . S
Pr185 O210 2.562 . S
Pr185 O211 2.490 . S
Pr185 O212 2.695 . S
Pr185 O213 2.512 . S
Pr185 O215 2.437 . S
C186 Pr184 2.880 . S
C186 C187 1.491 . S
C186 O204 1.254 . S
C186 O205 1.225 . S
C187 C186 1.491 . S
C187 C188 1.392 . S
C187 C192 1.356 . S
C188 C187 1.392 . S
C188 C189 1.368 . S
C188 H216 0.929 . S
C189 C188 1.368 . S
C189 C190 1.386 . S
C189 H217 0.929 . S
C190 C189 1.386 . S
C190 C191 1.373 . S
C191 C190 1.373 . S
C191 C192 1.409 . S
C191 H218 0.931 . S
C192 C187 1.356 . S
C192 C191 1.409 . S
C192 H219 0.930 . S
C193 O206 1.270 . S
C193 O207 1.248 . S
C194 O208 1.267 . S
C194 O209 1.278 . S
C195 Pr185 2.880 . S
C195 C196 1.491 . S
C195 O210 1.254 . S
C195 O211 1.225 . S
C196 C195 1.491 . S
C196 C197 1.392 . S
C196 C201 1.356 . S
C197 C196 1.392 . S
C197 C198 1.368 . S
C197 H220 0.929 . S
C198 C197 1.368 . S
C198 C199 1.386 . S
C198 H221 0.929 . S
C199 C198 1.386 . S
C199 C200 1.373 . S
C200 C199 1.373 . S
C200 C201 1.409 . S
C200 H222 0.931 . S
C201 C196 1.356 . S
C201 C200 1.409 . S
C201 H223 0.930 . S
C202 O212 1.270 . S
C202 O213 1.248 . S
C203 O214 1.267 . S
C203 O215 1.278 . S
O204 Pr184 2.562 . S
O204 C186 1.254 . S
O205 Pr184 2.490 . S
O205 C186 1.225 . S
O206 Pr184 2.695 . S
O206 Pr185 2.436 . S
O206 C193 1.270 . S
O207 Pr184 2.512 . S
O207 C193 1.248 . S
O208 Pr185 2.438 . S
O208 C194 1.267 . S
O209 Pr184 2.437 . S
O209 C194 1.278 . S
O210 Pr185 2.562 . S
O210 C195 1.254 . S
O211 Pr185 2.490 . S
O211 C195 1.225 . S
O212 Pr184 2.436 . S
O212 Pr185 2.695 . S
O212 C202 1.270 . S
O213 Pr185 2.512 . S
O213 C202 1.248 . S
O214 Pr184 2.438 . S
O214 C203 1.267 . S
O215 Pr185 2.437 . S
O215 C203 1.278 . S
H216 C188 0.929 . S
H217 C189 0.929 . S
H218 C191 0.931 . S
H219 C192 0.930 . S
H220 C197 0.929 . S
H221 C198 0.929 . S
H222 C200 0.931 . S
H223 C201 0.930 . S
Pr224 C226 2.880 1_454 S
Pr224 O244 2.562 1_454 S
Pr224 O245 2.490 1_454 S
Pr224 O246 2.695 . S
Pr224 O247 2.512 . S
Pr224 O249 2.437 1_455 S
Pr224 O252 2.436 1_455 S
Pr224 O254 2.438 1_554 S
Pr225 C235 2.880 . S
Pr225 O246 2.436 . S
Pr225 O248 2.438 1_455 S
Pr225 O250 2.562 . S
Pr225 O251 2.490 . S
Pr225 O252 2.695 1_455 S
Pr225 O253 2.512 1_455 S
Pr225 O255 2.437 . S
C226 Pr224 2.880 1_656 S
C226 C227 1.491 . S
C226 O244 1.254 . S
C226 O245 1.225 . S
C227 C226 1.491 . S
C227 C228 1.392 . S
C227 C232 1.356 . S
C228 C227 1.392 . S
C228 C229 1.368 . S
C228 H256 0.929 . S
C229 C228 1.368 . S
C229 C230 1.386 . S
C229 H257 0.929 . S
C230 C229 1.386 . S
C230 C231 1.373 . S
C231 C230 1.373 . S
C231 C232 1.409 . S
C231 H258 0.931 . S
C232 C227 1.356 . S
C232 C231 1.409 . S
C232 H259 0.930 . S
C233 O246 1.270 . S
C233 O247 1.248 . S
C234 O248 1.267 . S
C234 O249 1.278 . S
C235 Pr225 2.880 . S
C235 C236 1.491 . S
C235 O250 1.254 . S
C235 O251 1.225 . S
C236 C235 1.491 . S
C236 C237 1.392 . S
C236 C241 1.356 . S
C237 C236 1.392 . S
C237 C238 1.368 . S
C237 H260 0.929 . S
C238 C237 1.368 . S
C238 C239 1.386 . S
C238 H261 0.929 . S
C239 C238 1.386 . S
C239 C240 1.373 . S
C240 C239 1.373 . S
C240 C241 1.409 . S
C240 H262 0.931 . S
C241 C236 1.356 . S
C241 C240 1.409 . S
C241 H263 0.930 . S
C242 O252 1.270 . S
C242 O253 1.248 . S
C243 O254 1.267 1_554 S
C243 O255 1.278 . S
O244 Pr224 2.562 1_656 S
O244 C226 1.254 . S
O245 Pr224 2.490 1_656 S
O245 C226 1.225 . S
O246 Pr224 2.695 . S
O246 Pr225 2.436 . S
O246 C233 1.270 . S
O247 Pr224 2.512 . S
O247 C233 1.248 . S
O248 Pr225 2.438 1_655 S
O248 C234 1.267 . S
O249 Pr224 2.437 1_655 S
O249 C234 1.278 . S
O250 Pr225 2.562 . S
O250 C235 1.254 . S
O251 Pr225 2.490 . S
O251 C235 1.225 . S
O252 Pr224 2.436 1_655 S
O252 Pr225 2.695 1_655 S
O252 C242 1.270 . S
O253 Pr225 2.512 1_655 S
O253 C242 1.248 . S
O254 Pr224 2.438 1_556 S
O254 C243 1.267 1_556 S
O255 Pr225 2.437 . S
O255 C243 1.278 . S
H256 C228 0.929 . S
H257 C229 0.929 . S
H258 C231 0.931 . S
H259 C232 0.930 . S
H260 C237 0.929 . S
H261 C238 0.929 . S
H262 C240 0.931 . S
H263 C241 0.930 . S
H264 C270 0.930 . S
H265 C273 0.930 . S
H266 C274 0.930 . S
H267 C275 0.930 . S
H268 C278 0.930 . S
H269 C279 0.930 . S
C270 H264 0.930 . S
C270 C271 1.355 . S
C270 C272 1.415 . S
C271 C270 1.355 . S
C271 C273 1.419 . S
C272 C270 1.415 . S
C272 C277 1.425 . S
C272 C279 1.409 . S
C273 H265 0.930 . S
C273 C271 1.419 . S
C273 C274 1.362 . S
C274 H266 0.930 . S
C274 C273 1.362 . S
C274 C277 1.409 . S
C275 H267 0.930 . S
C275 C276 1.355 . S
C275 C277 1.415 . S
C276 C275 1.355 . S
C276 C278 1.419 . S
C277 C272 1.425 . S
C277 C274 1.409 . S
C277 C275 1.415 . S
C278 H268 0.930 . S
C278 C276 1.419 . S
C278 C279 1.362 . S
C279 H269 0.930 . S
C279 C272 1.409 . S
C279 C278 1.362 . S
H280 C286 0.930 . S
H281 C289 0.930 . S
H282 C290 0.930 . S
H283 C291 0.930 . S
H284 C294 0.930 . S
H285 C295 0.930 . S
C286 H280 0.930 . S
C286 C287 1.355 . S
C286 C288 1.415 . S
C287 C286 1.355 . S
C287 C289 1.419 . S
C288 C286 1.415 . S
C288 C293 1.425 . S
C288 C295 1.409 . S
C289 H281 0.930 . S
C289 C287 1.419 . S
C289 C290 1.362 . S
C290 H282 0.930 . S
C290 C289 1.362 . S
C290 C293 1.409 . S
C291 H283 0.930 . S
C291 C292 1.355 . S
C291 C293 1.415 . S
C292 C291 1.355 . S
C292 C294 1.419 . S
C293 C288 1.425 . S
C293 C290 1.409 . S
C293 C291 1.415 . S
C294 H284 0.930 . S
C294 C292 1.419 . S
C294 C295 1.362 . S
C295 H285 0.930 . S
C295 C288 1.409 . S
C295 C294 1.362 . S
H296 C302 0.930 . S
H297 C305 0.930 . S
H298 C306 0.930 . S
H299 C307 0.930 . S
H300 C310 0.930 . S
H301 C311 0.930 . S
C302 H296 0.930 . S
C302 C303 1.355 . S
C302 C304 1.415 . S
C303 C302 1.355 . S
C303 C305 1.419 . S
C304 C302 1.415 . S
C304 C309 1.425 . S
C304 C311 1.409 . S
C305 H297 0.930 . S
C305 C303 1.419 . S
C305 C306 1.362 . S
C306 H298 0.930 . S
C306 C305 1.362 . S
C306 C309 1.409 . S
C307 H299 0.930 . S
C307 C308 1.355 . S
C307 C309 1.415 . S
C308 C307 1.355 . S
C308 C310 1.419 . S
C309 C304 1.425 . S
C309 C306 1.409 . S
C309 C307 1.415 . S
C310 H300 0.930 . S
C310 C308 1.419 . S
C310 C311 1.362 . S
C311 H301 0.930 . S
C311 C304 1.409 . S
C311 C310 1.362 . S
H312 C318 0.930 . S
H313 C321 0.930 . S
H314 C322 0.930 . S
H315 C323 0.930 . S
H316 C326 0.930 . S
H317 C327 0.930 . S
C318 H312 0.930 . S
C318 C319 1.355 . S
C318 C320 1.415 . S
C319 C318 1.355 . S
C319 C321 1.419 . S
C320 C318 1.415 . S
C320 C325 1.425 . S
C320 C327 1.409 . S
C321 H313 0.930 . S
C321 C319 1.419 . S
C321 C322 1.362 . S
C322 H314 0.930 . S
C322 C321 1.362 . S
C322 C325 1.409 . S
C323 H315 0.930 . S
C323 C324 1.355 . S
C323 C325 1.415 . S
C324 C323 1.355 . S
C324 C326 1.419 . S
C325 C320 1.425 . S
C325 C322 1.409 . S
C325 C323 1.415 . S
C326 H316 0.930 . S
C326 C324 1.419 . S
C326 C327 1.362 . S
C327 H317 0.930 . S
C327 C320 1.409 . S
C327 C326 1.362 . S
H328 C334 0.930 . S
H329 C337 0.930 . S
H330 C338 0.930 . S
H331 C339 0.930 . S
H332 C342 0.930 . S
H333 C343 0.930 . S
C334 H328 0.930 . S
C334 C335 1.355 . S
C334 C336 1.415 . S
C335 C334 1.355 . S
C335 C337 1.419 . S
C336 C334 1.415 . S
C336 C341 1.425 . S
C336 C343 1.409 . S
C337 H329 0.930 . S
C337 C335 1.419 . S
C337 C338 1.362 . S
C338 H330 0.930 . S
C338 C337 1.362 . S
C338 C341 1.409 . S
C339 H331 0.930 . S
C339 C340 1.355 . S
C339 C341 1.415 . S
C340 C339 1.355 . S
C340 C342 1.419 . S
C341 C336 1.425 . S
C341 C338 1.409 . S
C341 C339 1.415 . S
C342 H332 0.930 . S
C342 C340 1.419 . S
C342 C343 1.362 . S
C343 H333 0.930 . S
C343 C336 1.409 . S
C343 C342 1.362 . S
H344 C350 0.930 . S
H345 C353 0.930 . S
H346 C354 0.930 . S
H347 C355 0.930 . S
H348 C358 0.930 . S
H349 C359 0.930 . S
C350 H344 0.930 . S
C350 C351 1.355 . S
C350 C352 1.415 . S
C351 C350 1.355 . S
C351 C353 1.419 . S
C352 C350 1.415 . S
C352 C357 1.425 . S
C352 C359 1.409 . S
C353 H345 0.930 . S
C353 C351 1.419 . S
C353 C354 1.362 . S
C354 H346 0.930 . S
C354 C353 1.362 . S
C354 C357 1.409 . S
C355 H347 0.930 . S
C355 C356 1.355 . S
C355 C357 1.415 . S
C356 C355 1.355 . S
C356 C358 1.419 . S
C357 C352 1.425 . S
C357 C354 1.409 . S
C357 C355 1.415 . S
C358 H348 0.930 . S
C358 C356 1.419 . S
C358 C359 1.362 . S
C359 H349 0.930 . S
C359 C352 1.409 . S
C359 C358 1.362 . S
H360 C366 0.930 . S
H361 C369 0.930 . S
H362 C370 0.930 . S
H363 C371 0.930 . S
H364 C374 0.930 1_554 S
H365 C375 0.930 . S
C366 H360 0.930 . S
C366 C367 1.355 . S
C366 C368 1.415 . S
C367 C366 1.355 . S
C367 C369 1.419 . S
C368 C366 1.415 . S
C368 C373 1.425 . S
C368 C375 1.409 . S
C369 H361 0.930 . S
C369 C367 1.419 . S
C369 C370 1.362 . S
C370 H362 0.930 . S
C370 C369 1.362 . S
C370 C373 1.409 . S
C371 H363 0.930 . S
C371 C372 1.355 . S
C371 C373 1.415 . S
C372 C371 1.355 . S
C372 C374 1.419 . S
C373 C368 1.425 . S
C373 C370 1.409 . S
C373 C371 1.415 . S
C374 H364 0.930 1_556 S
C374 C372 1.419 . S
C374 C375 1.362 . S
C375 H365 0.930 . S
C375 C368 1.409 . S
C375 C374 1.362 . S
H376 C382 0.930 . S
H377 C385 0.930 . S
H378 C386 0.930 . S
H379 C387 0.930 . S
H380 C390 0.930 . S
H381 C391 0.930 . S
C382 H376 0.930 . S
C382 C383 1.355 . S
C382 C384 1.415 . S
C383 C382 1.355 . S
C383 C385 1.419 . S
C384 C382 1.415 . S
C384 C389 1.425 . S
C384 C391 1.409 . S
C385 H377 0.930 . S
C385 C383 1.419 . S
C385 C386 1.362 . S
C386 H378 0.930 . S
C386 C385 1.362 . S
C386 C389 1.409 . S
C387 H379 0.930 . S
C387 C388 1.355 . S
C387 C389 1.415 . S
C388 C387 1.355 . S
C388 C390 1.419 . S
C389 C384 1.425 . S
C389 C386 1.409 . S
C389 C387 1.415 . S
C390 H380 0.930 . S
C390 C388 1.419 . S
C390 C391 1.362 . S
C391 H381 0.930 . S
C391 C384 1.409 . S
C391 C390 1.362 . S
H392 C398 0.930 . S
H393 C401 0.930 . S
H394 C402 0.930 . S
H395 C403 0.930 . S
H396 C406 0.930 . S
H397 C407 0.930 . S
C398 H392 0.930 . S
C398 C399 1.355 . S
C398 C400 1.415 . S
C399 C398 1.355 . S
C399 C401 1.419 . S
C400 C398 1.415 . S
C400 C405 1.425 . S
C400 C407 1.409 . S
C401 H393 0.930 . S
C401 C399 1.419 . S
C401 C402 1.362 . S
C402 H394 0.930 . S
C402 C401 1.362 . S
C402 C405 1.409 . S
C403 H395 0.930 . S
C403 C404 1.355 . S
C403 C405 1.415 . S
C404 C403 1.355 . S
C404 C406 1.419 . S
C405 C400 1.425 . S
C405 C402 1.409 . S
C405 C403 1.415 . S
C406 H396 0.930 . S
C406 C404 1.419 . S
C406 C407 1.362 . S
C407 H397 0.930 . S
C407 C400 1.409 . S
C407 C406 1.362 . S
H408 C414 0.930 . S
H409 C417 0.930 . S
H410 C418 0.930 . S
H411 C419 0.930 . S
H412 C422 0.930 . S
H413 C423 0.930 . S
C414 H408 0.930 . S
C414 C415 1.355 . S
C414 C416 1.415 . S
C415 C414 1.355 . S
C415 C417 1.419 . S
C416 C414 1.415 . S
C416 C421 1.425 . S
C416 C423 1.409 . S
C417 H409 0.930 . S
C417 C415 1.419 . S
C417 C418 1.362 . S
C418 H410 0.930 . S
C418 C417 1.362 . S
C418 C421 1.409 . S
C419 H411 0.930 . S
C419 C420 1.355 . S
C419 C421 1.415 . S
C420 C419 1.355 . S
C420 C422 1.419 . S
C421 C416 1.425 . S
C421 C418 1.409 . S
C421 C419 1.415 . S
C422 H412 0.930 . S
C422 C420 1.419 . S
C422 C423 1.362 . S
C423 H413 0.930 . S
C423 C416 1.409 . S
C423 C422 1.362 . S
H424 C430 0.930 . S
H425 C433 0.930 . S
H426 C434 0.930 . S
H427 C435 0.930 . S
H428 C438 0.930 . S
H429 C439 0.930 . S
C430 H424 0.930 . S
C430 C431 1.355 . S
C430 C432 1.415 . S
C431 C430 1.355 . S
C431 C433 1.419 . S
C432 C430 1.415 . S
C432 C437 1.425 . S
C432 C439 1.409 . S
C433 H425 0.930 . S
C433 C431 1.419 . S
C433 C434 1.362 . S
C434 H426 0.930 . S
C434 C433 1.362 . S
C434 C437 1.409 . S
C435 H427 0.930 . S
C435 C436 1.355 . S
C435 C437 1.415 . S
C436 C435 1.355 . S
C436 C438 1.419 . S
C437 C432 1.425 . S
C437 C434 1.409 . S
C437 C435 1.415 . S
C438 H428 0.930 . S
C438 C436 1.419 . S
C438 C439 1.362 . S
C439 H429 0.930 . S
C439 C432 1.409 . S
C439 C438 1.362 . S
H440 C446 0.930 . S
H441 C449 0.930 . S
H442 C450 0.930 . S
H443 C451 0.930 . S
H444 C454 0.930 . S
H445 C455 0.930 . S
C446 H440 0.930 . S
C446 C447 1.355 . S
C446 C448 1.415 . S
C447 C446 1.355 . S
C447 C449 1.419 . S
C448 C446 1.415 . S
C448 C453 1.425 . S
C448 C455 1.409 . S
C449 H441 0.930 . S
C449 C447 1.419 . S
C449 C450 1.362 . S
C450 H442 0.930 . S
C450 C449 1.362 . S
C450 C453 1.409 . S
C451 H443 0.930 . S
C451 C452 1.355 . S
C451 C453 1.415 . S
C452 C451 1.355 . S
C452 C454 1.419 . S
C453 C448 1.425 . S
C453 C450 1.409 . S
C453 C451 1.415 . S
C454 H444 0.930 . S
C454 C452 1.419 . S
C454 C455 1.362 . S
C455 H445 0.930 . S
C455 C448 1.409 . S
C455 C454 1.362 . S
H456 C462 0.930 . S
H457 C465 0.930 . S
H458 C466 0.930 . S
H459 C467 0.930 . S
H460 C470 0.930 . S
H461 C471 0.930 . S
C462 H456 0.930 . S
C462 C463 1.355 . S
C462 C464 1.415 . S
C463 C462 1.355 . S
C463 C465 1.419 . S
C464 C462 1.415 . S
C464 C469 1.425 . S
C464 C471 1.409 . S
C465 H457 0.930 . S
C465 C463 1.419 . S
C465 C466 1.362 . S
C466 H458 0.930 . S
C466 C465 1.362 . S
C466 C469 1.409 . S
C467 H459 0.930 . S
C467 C468 1.355 . S
C467 C469 1.415 . S
C468 C467 1.355 . S
C468 C470 1.419 . S
C469 C464 1.425 . S
C469 C466 1.409 . S
C469 C467 1.415 . S
C470 H460 0.930 . S
C470 C468 1.419 . S
C470 C471 1.362 . S
C471 H461 0.930 . S
C471 C464 1.409 . S
C471 C470 1.362 . S
H472 C478 0.930 . S
H473 C481 0.930 . S
H474 C482 0.930 . S
H475 C483 0.930 . S
H476 C486 0.930 . S
H477 C487 0.930 . S
C478 H472 0.930 . S
C478 C479 1.355 . S
C478 C480 1.415 . S
C479 C478 1.355 . S
C479 C481 1.419 . S
C480 C478 1.415 . S
C480 C485 1.425 . S
C480 C487 1.409 . S
C481 H473 0.930 . S
C481 C479 1.419 . S
C481 C482 1.362 . S
C482 H474 0.930 . S
C482 C481 1.362 . S
C482 C485 1.409 . S
C483 H475 0.930 . S
C483 C484 1.355 . S
C483 C485 1.415 . S
C484 C483 1.355 . S
C484 C486 1.419 . S
C485 C480 1.425 . S
C485 C482 1.409 . S
C485 C483 1.415 . S
C486 H476 0.930 . S
C486 C484 1.419 . S
C486 C487 1.362 . S
C487 H477 0.930 . S
C487 C480 1.409 . S
C487 C486 1.362 . S
H488 C494 0.930 . S
H489 C497 0.930 . S
H490 C498 0.930 . S
H491 C499 0.930 . S
H492 C502 0.930 . S
H493 C503 0.930 . S
C494 H488 0.930 . S
C494 C495 1.355 . S
C494 C496 1.415 . S
C495 C494 1.355 . S
C495 C497 1.419 . S
C496 C494 1.415 . S
C496 C501 1.425 . S
C496 C503 1.409 . S
C497 H489 0.930 . S
C497 C495 1.419 . S
C497 C498 1.362 . S
C498 H490 0.930 . S
C498 C497 1.362 . S
C498 C501 1.409 . S
C499 H491 0.930 . S
C499 C500 1.355 . S
C499 C501 1.415 . S
C500 C499 1.355 . S
C500 C502 1.419 . S
C501 C496 1.425 . S
C501 C498 1.409 . S
C501 C499 1.415 . S
C502 H492 0.930 . S
C502 C500 1.419 . S
C502 C503 1.362 . S
C503 H493 0.930 . S
C503 C496 1.409 . S
C503 C502 1.362 . S
H504 C510 0.930 . S
H505 C513 0.930 . S
H506 C514 0.930 . S
H507 C515 0.930 . S
H508 C518 0.930 . S
H509 C519 0.930 . S
C510 H504 0.930 . S
C510 C511 1.355 . S
C510 C512 1.415 . S
C511 C510 1.355 . S
C511 C513 1.419 . S
C512 C510 1.415 . S
C512 C517 1.425 . S
C512 C519 1.409 . S
C513 H505 0.930 . S
C513 C511 1.419 . S
C513 C514 1.362 . S
C514 H506 0.930 . S
C514 C513 1.362 . S
C514 C517 1.409 . S
C515 H507 0.930 . S
C515 C516 1.355 . S
C515 C517 1.415 . S
C516 C515 1.355 . S
C516 C518 1.419 . S
C517 C512 1.425 . S
C517 C514 1.409 . S
C517 C515 1.415 . S
C518 H508 0.930 . S
C518 C516 1.419 . S
C518 C519 1.362 . S
C519 H509 0.930 . S
C519 C512 1.409 . S
C519 C518 1.362 . S
H520 C526 0.930 . S
H521 C529 0.930 . S
H522 C530 0.930 . S
H523 C531 0.930 . S
H524 C534 0.930 . S
H525 C535 0.930 . S
C526 H520 0.930 . S
C526 C527 1.355 . S
C526 C528 1.415 . S
C527 C526 1.355 . S
C527 C529 1.419 . S
C528 C526 1.415 . S
C528 C533 1.425 . S
C528 C535 1.409 . S
C529 H521 0.930 . S
C529 C527 1.419 . S
C529 C530 1.362 . S
C530 H522 0.930 . S
C530 C529 1.362 . S
C530 C533 1.409 . S
C531 H523 0.930 . S
C531 C532 1.355 . S
C531 C533 1.415 . S
C532 C531 1.355 . S
C532 C534 1.419 . S
C533 C528 1.425 . S
C533 C530 1.409 . S
C533 C531 1.415 . S
C534 H524 0.930 . S
C534 C532 1.419 . S
C534 C535 1.362 . S
C535 H525 0.930 . S
C535 C528 1.409 . S
C535 C534 1.362 . S
H536 C542 0.930 . S
H537 C545 0.930 . S
H538 C546 0.930 . S
H539 C547 0.930 . S
H540 C550 0.930 . S
H541 C551 0.930 . S
C542 H536 0.930 . S
C542 C543 1.355 . S
C542 C544 1.415 . S
C543 C542 1.355 . S
C543 C545 1.419 . S
C544 C542 1.415 . S
C544 C549 1.425 . S
C544 C551 1.409 . S
C545 H537 0.930 . S
C545 C543 1.419 . S
C545 C546 1.362 . S
C546 H538 0.930 . S
C546 C545 1.362 . S
C546 C549 1.409 . S
C547 H539 0.930 . S
C547 C548 1.355 . S
C547 C549 1.415 . S
C548 C547 1.355 . S
C548 C550 1.419 . S
C549 C544 1.425 . S
C549 C546 1.409 . S
C549 C547 1.415 . S
C550 H540 0.930 . S
C550 C548 1.419 . S
C550 C551 1.362 . S
C551 H541 0.930 . S
C551 C544 1.409 . S
C551 C550 1.362 . S
H552 C558 0.930 . S
H553 C561 0.930 . S
H554 C562 0.930 . S
H555 C563 0.930 . S
H556 C566 0.930 . S
H557 C567 0.930 . S
C558 H552 0.930 . S
C558 C559 1.355 . S
C558 C560 1.415 . S
C559 C558 1.355 . S
C559 C561 1.419 . S
C560 C558 1.415 . S
C560 C565 1.425 . S
C560 C567 1.409 . S
C561 H553 0.930 . S
C561 C559 1.419 . S
C561 C562 1.362 . S
C562 H554 0.930 . S
C562 C561 1.362 . S
C562 C565 1.409 . S
C563 H555 0.930 . S
C563 C564 1.355 . S
C563 C565 1.415 . S
C564 C563 1.355 . S
C564 C566 1.419 . S
C565 C560 1.425 . S
C565 C562 1.409 . S
C565 C563 1.415 . S
C566 H556 0.930 . S
C566 C564 1.419 . S
C566 C567 1.362 . S
C567 H557 0.930 . S
C567 C560 1.409 . S
C567 C566 1.362 . S
H568 C574 0.930 . S
H569 C577 0.930 . S
H570 C578 0.930 . S
H571 C579 0.930 . S
H572 C582 0.930 . S
H573 C583 0.930 . S
C574 H568 0.930 . S
C574 C575 1.355 . S
C574 C576 1.415 . S
C575 C574 1.355 . S
C575 C577 1.419 . S
C576 C574 1.415 . S
C576 C581 1.425 . S
C576 C583 1.409 . S
C577 H569 0.930 . S
C577 C575 1.419 . S
C577 C578 1.362 . S
C578 H570 0.930 . S
C578 C577 1.362 . S
C578 C581 1.409 . S
C579 H571 0.930 . S
C579 C580 1.355 . S
C579 C581 1.415 . S
C580 C579 1.355 . S
C580 C582 1.419 . S
C581 C576 1.425 . S
C581 C578 1.409 . S
C581 C579 1.415 . S
C582 H572 0.930 . S
C582 C580 1.419 . S
C582 C583 1.362 . S
C583 H573 0.930 . S
C583 C576 1.409 . S
C583 C582 1.362 . S
H584 C590 0.930 . S
H585 C593 0.930 . S
H586 C594 0.930 . S
H587 C595 0.930 . S
H588 C598 0.930 . S
H589 C599 0.930 . S
C590 H584 0.930 . S
C590 C591 1.355 . S
C590 C592 1.415 . S
C591 C590 1.355 . S
C591 C593 1.419 . S
C592 C590 1.415 . S
C592 C597 1.425 . S
C592 C599 1.409 . S
C593 H585 0.930 . S
C593 C591 1.419 . S
C593 C594 1.362 . S
C594 H586 0.930 . S
C594 C593 1.362 . S
C594 C597 1.409 . S
C595 H587 0.930 . S
C595 C596 1.355 . S
C595 C597 1.415 . S
C596 C595 1.355 . S
C596 C598 1.419 . S
C597 C592 1.425 . S
C597 C594 1.409 . S
C597 C595 1.415 . S
C598 H588 0.930 . S
C598 C596 1.419 . S
C598 C599 1.362 . S
C599 H589 0.930 . S
C599 C592 1.409 . S
C599 C598 1.362 . S
H600 C606 0.930 . S
H601 C609 0.930 . S
H602 C610 0.930 . S
H603 C611 0.930 . S
H604 C614 0.930 . S
H605 C615 0.930 . S
C606 H600 0.930 . S
C606 C607 1.355 . S
C606 C608 1.415 . S
C607 C606 1.355 . S
C607 C609 1.419 . S
C608 C606 1.415 . S
C608 C613 1.425 . S
C608 C615 1.409 . S
C609 H601 0.930 . S
C609 C607 1.419 . S
C609 C610 1.362 . S
C610 H602 0.930 . S
C610 C609 1.362 . S
C610 C613 1.409 . S
C611 H603 0.930 . S
C611 C612 1.355 . S
C611 C613 1.415 . S
C612 C611 1.355 . S
C612 C614 1.419 . S
C613 C608 1.425 . S
C613 C610 1.409 . S
C613 C611 1.415 . S
C614 H604 0.930 . S
C614 C612 1.419 . S
C614 C615 1.362 . S
C615 H605 0.930 . S
C615 C608 1.409 . S
C615 C614 1.362 . S
H616 C622 0.930 . S
H617 C625 0.930 . S
H618 C626 0.930 . S
H619 C627 0.930 . S
H620 C630 0.930 . S
H621 C631 0.930 . S
C622 H616 0.930 . S
C622 C623 1.355 . S
C622 C624 1.415 . S
C623 C622 1.355 . S
C623 C625 1.419 . S
C624 C622 1.415 . S
C624 C629 1.425 . S
C624 C631 1.409 . S
C625 H617 0.930 . S
C625 C623 1.419 . S
C625 C626 1.362 . S
C626 H618 0.930 . S
C626 C625 1.362 . S
C626 C629 1.409 . S
C627 H619 0.930 . S
C627 C628 1.355 . S
C627 C629 1.415 . S
C628 C627 1.355 . S
C628 C630 1.419 . S
C629 C624 1.425 . S
C629 C626 1.409 . S
C629 C627 1.415 . S
C630 H620 0.930 . S
C630 C628 1.419 . S
C630 C631 1.362 . S
C631 H621 0.930 . S
C631 C624 1.409 . S
C631 C630 1.362 . S
H632 C638 0.930 . S
H633 C641 0.930 . S
H634 C642 0.930 . S
H635 C643 0.930 . S
H636 C646 0.930 . S
H637 C647 0.930 . S
C638 H632 0.930 . S
C638 C639 1.355 . S
C638 C640 1.415 . S
C639 C638 1.355 . S
C639 C641 1.419 . S
C640 C638 1.415 . S
C640 C645 1.425 . S
C640 C647 1.409 . S
C641 H633 0.930 . S
C641 C639 1.419 . S
C641 C642 1.362 . S
C642 H634 0.930 . S
C642 C641 1.362 . S
C642 C645 1.409 . S
C643 H635 0.930 . S
C643 C644 1.355 . S
C643 C645 1.415 . S
C644 C643 1.355 . S
C644 C646 1.419 . S
C645 C640 1.425 . S
C645 C642 1.409 . S
C645 C643 1.415 . S
C646 H636 0.930 . S
C646 C644 1.419 . S
C646 C647 1.362 . S
C647 H637 0.930 . S
C647 C640 1.409 . S
C647 C646 1.362 . S
C271 C9 1.385 . S
C276 C119 1.416 . S
C287 C21 1.450 . S
C292 C163 1.464 . S
C308 C193 2.121 . S
C303 C30 2.066 . S
C319 C43 2.484 . S
C324 C234 2.507 . S
C340 C150 0.780 . S
C335 C4 0.667 . S
C356 C114 2.844 . S
C351 C22 2.832 . S
C372 C242 0.934 1_556 S
C367 C34 0.951 . S
C388 C203 1.996 . S
C383 C48 2.067 . S
C399 C8 1.422 . S
C404 C239 1.461 . S
C420 C153 1.836 . S
C415 C35 1.850 . S
C431 C47 2.136 . S
C436 C122 2.091 . S
C447 C17 2.134 . S
C452 C190 2.105 . S
C468 C110 1.007 . S
C463 C60 1.012 . S
C479 C74 1.443 . S
C484 C154 1.464 . S
C495 C82 1.593 . S
C500 C202 1.791 . S
C511 C100 2.983 . S
C516 C243 2.956 1_556 S
C527 C61 1.195 . S
C532 C159 1.215 . S
C548 C123 2.261 . S
C543 C73 2.227 . S
C564 C233 1.401 . S
C559 C87 1.436 . S
C580 C194 2.113 . S
C575 C95 2.207 . S
C591 C56 1.135 . S
C596 C230 1.108 . S
C612 C162 2.173 . S
C607 C86 2.210 . S
C628 C113 1.997 . S
C623 C99 2.016 . S
C639 C69 1.763 . S
C644 C199 1.896 . S
