# Generated by pormake.
# Topology zzz, (3,6)-cn, num edge types: 1
# Building blocks:
#     Node 0, Type 0, BuildingBlock: ESEHIV_clean_linker_0, # of connection points: 3
#     Node 1, Type 0, BuildingBlock: ESEHIV_clean_linker_0, # of connection points: 3
#     Node 2, Type 0, BuildingBlock: ESEHIV_clean_linker_0, # of connection points: 3
#     Node 3, Type 0, BuildingBlock: ESEHIV_clean_linker_0, # of connection points: 3
#     Node 4, Type 0, BuildingBlock: ESEHIV_clean_linker_0, # of connection points: 3
#     Node 5, Type 0, BuildingBlock: ESEHIV_clean_linker_0, # of connection points: 3
#     Node 6, Type 0, BuildingBlock: ESEHIV_clean_linker_0, # of connection points: 3
#     Node 7, Type 0, BuildingBlock: ESEHIV_clean_linker_0, # of connection points: 3
#     Node 8, Type 1, BuildingBlock: KUMBUR_clean_sbu_1, # of connection points: 6
#     Node 9, Type 1, BuildingBlock: KUMBUR_clean_sbu_1, # of connection points: 6
#     Node 10, Type 1, BuildingBlock: KUMBUR_clean_sbu_1, # of connection points: 6
#     Node 11, Type 1, BuildingBlock: KUMBUR_clean_sbu_1, # of connection points: 6
#     Edge 12, Type (0, 1), BuildingBlock: ZUJKAS_clean_linker_0, # of connection points: 2
#     Edge 13, Type (0, 1), BuildingBlock: ZUJKAS_clean_linker_0, # of connection points: 2
#     Edge 14, Type (0, 1), BuildingBlock: ZUJKAS_clean_linker_0, # of connection points: 2
#     Edge 15, Type (0, 1), BuildingBlock: ZUJKAS_clean_linker_0, # of connection points: 2
#     Edge 16, Type (0, 1), BuildingBlock: ZUJKAS_clean_linker_0, # of connection points: 2
#     Edge 17, Type (0, 1), BuildingBlock: ZUJKAS_clean_linker_0, # of connection points: 2
#     Edge 18, Type (0, 1), BuildingBlock: ZUJKAS_clean_linker_0, # of connection points: 2
#     Edge 19, Type (0, 1), BuildingBlock: ZUJKAS_clean_linker_0, # of connection points: 2
#     Edge 20, Type (0, 1), BuildingBlock: ZUJKAS_clean_linker_0, # of connection points: 2
#     Edge 21, Type (0, 1), BuildingBlock: ZUJKAS_clean_linker_0, # of connection points: 2
#     Edge 22, Type (0, 1), BuildingBlock: ZUJKAS_clean_linker_0, # of connection points: 2
#     Edge 23, Type (0, 1), BuildingBlock: ZUJKAS_clean_linker_0, # of connection points: 2
#     Edge 24, Type (0, 1), BuildingBlock: ZUJKAS_clean_linker_0, # of connection points: 2
#     Edge 25, Type (0, 1), BuildingBlock: ZUJKAS_clean_linker_0, # of connection points: 2
#     Edge 26, Type (0, 1), BuildingBlock: ZUJKAS_clean_linker_0, # of connection points: 2
#     Edge 27, Type (0, 1), BuildingBlock: ZUJKAS_clean_linker_0, # of connection points: 2
#     Edge 28, Type (0, 1), BuildingBlock: ZUJKAS_clean_linker_0, # of connection points: 2
#     Edge 29, Type (0, 1), BuildingBlock: ZUJKAS_clean_linker_0, # of connection points: 2
#     Edge 30, Type (0, 1), BuildingBlock: ZUJKAS_clean_linker_0, # of connection points: 2
#     Edge 31, Type (0, 1), BuildingBlock: ZUJKAS_clean_linker_0, # of connection points: 2
#     Edge 32, Type (0, 1), BuildingBlock: ZUJKAS_clean_linker_0, # of connection points: 2
#     Edge 33, Type (0, 1), BuildingBlock: ZUJKAS_clean_linker_0, # of connection points: 2
#     Edge 34, Type (0, 1), BuildingBlock: ZUJKAS_clean_linker_0, # of connection points: 2
#     Edge 35, Type (0, 1), BuildingBlock: ZUJKAS_clean_linker_0, # of connection points: 2
# Relax obj value: 0.311
# Max RMSD: 0.207
# Mean RMSD: 0.181
data_MOF--net-zzz--node1-KUMBUR_clean_sbu_1--node2-ESEHIV_clean_linker_0--edge1-ZUJKAS_clean_linker_0
_symmetry_space_group_name_H-M    P1
_symmetry_Int_Tables_number       1
_symmetry_cell_setting            triclinic
loop_
_symmetry_equiv_pos_as_xyz
'x, y, z'
_cell_length_a     57.235195
_cell_length_b     57.379178
_cell_length_c     21.235756
_cell_angle_alpha  89.981603
_cell_angle_beta   89.80916
_cell_angle_gamma 90.355132
loop_
_atom_site_label
_atom_site_type_symbol
_atom_site_fract_x
_atom_site_fract_y
_atom_site_fract_z
_atom_type_partial_charge
H0 H 0.80458 0.5862 0.15473 0.0
H1 H 0.73972 0.58583 0.05426 0.0
H2 H 0.74584 0.54683 0.22672 0.0
C3 C 0.78634 0.58113 0.15174 0.0
C4 C 0.77664 0.56683 0.19907 0.0
C5 C 0.77335 0.58754 0.0987 0.0
C6 C 0.74995 0.5806 0.09477 0.0
C7 C 0.73981 0.56581 0.13979 0.0
C8 C 0.75337 0.55848 0.19191 0.0
H9 H 0.95152 0.80758 0.18262 0.0
H10 H 0.95326 0.74593 0.06855 0.0
H11 H 0.99745 0.75122 0.23163 0.0
C12 C 0.95761 0.78999 0.1744 0.0
C13 C 0.97378 0.78023 0.21653 0.0
C14 C 0.95078 0.77815 0.11961 0.0
C15 C 0.95916 0.7556 0.10946 0.0
C16 C 0.97662 0.74599 0.14742 0.0
C17 C 0.98389 0.75831 0.2019 0.0
H18 H 0.72794 0.97719 0.2064 0.0
H19 H 0.78722 0.98296 0.08466 0.0
H20 H 0.79412 1.00043 0.28182 0.0
C21 C 0.74649 0.98072 0.20088 0.0
C22 C 0.75964 0.98844 0.25261 0.0
C23 C 0.75636 0.97878 0.14101 0.0
C24 C 0.77985 0.98419 0.1317 0.0
C25 C 0.7938 0.99171 0.18204 0.0
C26 C 0.78361 0.99423 0.24291 0.0
H27 H 0.57127 0.73359 0.19936 0.0
H28 H 0.53449 0.79629 0.24899 0.0
H29 H 0.57501 0.79298 0.07741 0.0
C30 C 0.56721 0.7517 0.18991 0.0
C31 C 0.57488 0.76196 0.13367 0.0
C32 C 0.55282 0.76379 0.23216 0.0
C33 C 0.546 0.78692 0.21747 0.0
C34 C 0.55464 0.7979 0.16198 0.0
C35 C 0.56905 0.78512 0.1211 0.0
H36 H 0.23071 0.46459 0.10126 0.0
H37 H 0.29248 0.46303 0.21541 0.0
H38 H 0.29127 0.50468 0.04649 0.0
C39 C 0.24886 0.46934 0.10873 0.0
C40 C 0.25982 0.48446 0.06574 0.0
C41 C 0.26027 0.46195 0.16349 0.0
C42 C 0.28351 0.46876 0.17327 0.0
C43 C 0.29492 0.48413 0.13183 0.0
C44 C 0.28287 0.49238 0.07809 0.0
H45 H 0.0676 0.22621 0.16291 0.0
H46 H 0.0716 0.29076 0.26385 0.0
H47 H 0.04192 0.28931 0.07752 0.0
C48 C 0.06514 0.24494 0.1642 0.0
C49 C 0.05476 0.25618 0.11265 0.0
C50 C 0.071 0.25727 0.21881 0.0
C51 C 0.0673 0.2813 0.22113 0.0
C52 C 0.05694 0.29313 0.17083 0.0
C53 C 0.0505 0.2805 0.11609 0.0
H54 H 0.29903 0.08316 0.07947 0.0
H55 H 0.25009 0.08527 0.23299 0.0
H56 H 0.23999 0.03652 0.08099 0.0
C57 C 0.28323 0.07687 0.10225 0.0
C58 C 0.27087 0.05853 0.07411 0.0
C59 C 0.27666 0.086 0.16085 0.0
C60 C 0.25544 0.07854 0.18758 0.0
C61 C 0.24144 0.06144 0.15823 0.0
C62 C 0.24985 0.05055 0.10255 0.0
H63 H 0.45454 0.30435 0.1163 0.0
H64 H 0.49827 0.24672 0.06262 0.0
H65 H 0.45817 0.24362 0.23415 0.0
C66 C 0.46102 0.28694 0.12519 0.0
C67 C 0.45439 0.27524 0.18055 0.0
C68 C 0.47686 0.27702 0.08247 0.0
C69 C 0.48579 0.25446 0.09469 0.0
C70 C 0.47815 0.24197 0.14866 0.0
C71 C 0.46267 0.25265 0.19086 0.0
Tb72 Tb 0.99456 0.0301 0.61835 0.0
C73 C 0.0873 0.02539 0.7766 0.0
N74 N 0.08034 0.01202 0.72743 0.0
C75 C 0.11876 0.01499 0.68216 0.0
C76 C 0.11003 0.03488 0.77957 0.0
C77 C 0.09605 1.0058 0.68192 0.0
C78 C 0.12569 0.02991 0.73071 0.0
C79 C 0.0785 0.04107 0.87971 0.0
C80 C 0.07193 0.02837 0.8258 0.0
C81 C 0.10076 0.0515 0.882 0.0
C82 C 0.11652 0.04841 0.83197 0.0
Tb83 Tb 0.04213 0.99974 0.72861 0.0
N84 N 0.05059 0.0182 0.82126 0.0
C85 C 0.06264 0.04246 0.92991 0.0
C86 C 0.03563 0.01816 0.87161 0.0
C87 C 0.04124 0.03064 0.92619 0.0
H88 H 0.09124 0.99351 0.6457 0.0
H89 H 0.02909 0.03114 0.9653 0.0
H90 H 0.94689 1.00484 0.67323 0.0
H91 H 0.03036 0.03421 0.38151 0.0
H92 H 0.0191 1.00905 0.8688 0.0
H93 H 0.06696 0.05212 0.97218 0.0
H94 H 0.02409 0.04819 0.48955 0.0
H95 H 0.13097 1.01034 0.64528 0.0
H96 H 0.10611 0.06156 0.92271 0.0
H97 H 0.13384 0.05606 0.83492 0.0
H98 H 0.91769 0.97583 0.63651 0.0
H99 H 0.14334 0.03685 0.7311 0.0
H100 H 1.00734 1.00081 0.34107 0.0
N101 N 0.96693 1.00345 0.58887 0.0
C102 C 0.96844 0.99525 0.52908 0.0
C103 C 0.93198 0.98103 0.606 0.0
C104 C 0.95242 0.97856 0.5063 0.0
C105 C 0.94848 0.9974 0.62666 0.0
C106 C 0.93413 0.97133 0.54584 0.0
N107 N 1.00016 0.02096 0.51399 0.0
C108 C 0.01494 0.03272 0.47423 0.0
C109 C 0.98825 0.99594 0.42832 0.0
C110 C 0.98607 1.00386 0.49089 0.0
C111 C 1.00505 1.00641 0.38941 0.0
C112 C 0.01813 0.02521 0.41213 0.0
H113 H 0.92143 0.95853 0.53012 0.0
H114 H 0.94325 0.95671 0.42678 0.0
H115 H 0.97466 0.97193 0.35838 0.0
O116 O 0.98005 0.05618 0.56071 0.0
O117 O 0.99533 0.99186 0.63492 0.0
O118 O 0.03405 0.98438 0.63726 0.0
O119 O 0.96568 0.04877 0.65182 0.0
O120 O 0.03155 0.03886 0.59639 0.0
O121 O 0.05129 1.00604 0.62888 0.0
O122 O 0.02951 0.97117 0.77972 0.0
O123 O 0.03165 0.03548 0.75353 0.0
O124 O 0.02042 0.05371 0.66124 0.0
O125 O 0.06517 0.97205 0.74848 0.0
O126 O 1.00489 0.99564 0.75495 0.0
O127 O 0.98622 0.02853 0.71881 0.0
C128 C 0.01294 0.9783 0.62054 0.0
C129 C 0.9672 0.08784 0.62344 0.0
C130 C 0.99036 0.12323 0.64008 0.0
C131 C 0.97181 0.13258 0.67545 0.0
C132 C 0.94885 0.09757 0.65829 0.0
C133 C 0.95116 0.11985 0.68402 0.0
C134 C 0.98776 0.10084 0.61383 0.0
C135 C 0.04982 0.02492 0.59369 0.0
C136 C 0.96591 0.06317 0.6048 0.0
C137 C 0.95514 0.96983 0.44494 0.0
C138 C 0.97308 0.97844 0.40608 0.0
C139 C 0.02805 0.05431 0.71972 0.0
C140 C 0.0436 0.93677 0.73485 0.0
C141 C 0.01541 0.90651 0.70538 0.0
C142 C 0.03138 0.89784 0.66105 0.0
C143 C 0.05936 0.92794 0.69001 0.0
C144 C 0.02187 0.92564 0.74272 0.0
C145 C 0.05326 0.90851 0.65363 0.0
C146 C 0.9881 0.01124 0.759 0.0
C147 C 0.04809 0.95893 0.7686 0.0
H148 H 0.97332 0.1496 0.69708 0.0
H149 H 0.93299 0.08767 0.66704 0.0
H150 H 0.93704 0.12714 0.71154 0.0
H151 H 1.00183 0.09337 0.58639 0.0
H152 H 0.0269 0.88296 0.63202 0.0
H153 H 0.07615 0.93627 0.68215 0.0
H154 H 1.00978 0.93204 0.77805 0.0
H155 H 0.06542 0.90189 0.61892 0.0
Tb156 Tb 0.5184 0.04435 0.70467 0.0
C157 C 0.52744 0.94955 0.53183 0.0
N158 N 0.52439 0.97237 0.51862 0.0
C159 C 0.55025 0.96905 0.42989 0.0
C160 C 0.54268 0.93558 0.49613 0.0
C161 C 0.53461 0.98201 0.46646 0.0
C162 C 0.55463 0.94581 0.44545 0.0
C163 C 0.51419 0.91577 0.59 0.0
C164 C 0.51348 0.93986 0.57754 0.0
C165 C 0.53038 0.90185 0.55756 0.0
C166 C 0.54462 0.91175 0.51055 0.0
Tb167 Tb 0.50061 0.99296 0.58492 0.0
N168 N 0.49774 0.95388 0.60595 0.0
C169 C 0.49798 0.90638 0.63265 0.0
C170 C 0.48082 0.94458 0.6442 0.0
C171 C 0.48098 0.92081 0.65912 0.0
H172 H 0.53101 0.99986 0.45369 0.0
H173 H 0.46796 0.91363 0.69083 0.0
H174 H 0.48163 0.08756 0.68729 0.0
H175 H 0.61211 0.05204 0.73775 0.0
H176 H 0.46763 0.95565 0.66468 0.0
H177 H 0.49794 0.88795 0.64375 0.0
H178 H 0.57273 0.03578 0.7578 0.0
H179 H 0.55879 0.97695 0.3896 0.0
H180 H 0.53143 0.88331 0.56684 0.0
H181 H 0.55643 0.90071 0.48422 0.0
H182 H 0.48169 0.12699 0.639 0.0
H183 H 0.56654 0.93572 0.41674 0.0
H184 H 0.61707 0.08601 0.6669 0.0
N185 N 0.51745 0.08159 0.66706 0.0
C186 C 0.53788 0.09084 0.64668 0.0
C187 C 0.49761 0.11693 0.64042 0.0
C188 C 0.53892 0.11312 0.61896 0.0
C189 C 0.49762 0.09472 0.6678 0.0
C190 C 0.51825 0.12592 0.61422 0.0
N191 N 0.55571 0.05928 0.69558 0.0
C192 C 0.57468 0.05055 0.7266 0.0
C193 C 0.57998 0.0893 0.64938 0.0
C194 C 0.55796 0.07911 0.66145 0.0
C195 C 0.59979 0.07877 0.67499 0.0
C196 C 0.59704 0.0597 0.71532 0.0
H197 H 0.51825 0.14313 0.59322 0.0
H198 H 0.56193 0.13934 0.5785 0.0
H199 H 0.59805 0.11842 0.60539 0.0
O200 O 0.52353 0.06657 0.78262 0.0
O201 O 0.49937 0.05134 0.61641 0.0
O202 O 0.51456 0.0258 0.54549 0.0
O203 O 0.497 0.04029 0.78448 0.0
O204 O 0.54638 0.02008 0.67304 0.0
O205 O 0.53529 1.0088 0.57357 0.0
O206 O 0.47024 0.01104 0.55927 0.0
O207 O 0.50908 0.98036 0.68005 0.0
O208 O 0.52514 1.00959 0.74452 0.0
O209 O 0.47981 0.97917 0.51245 0.0
O210 O 0.4786 0.99871 0.66866 0.0
O211 O 0.4824 0.038 0.67425 0.0
C212 C 0.5072 0.04681 0.55951 0.0
C213 C 0.51567 0.04771 0.87889 0.0
C214 C 0.54248 0.02452 0.94153 0.0
C215 C 0.52765 0.02729 0.99399 0.0
C216 C 0.50108 0.05037 0.93142 0.0
C217 C 0.50715 0.04027 0.98889 0.0
C218 C 0.53636 0.03502 0.8843 0.0
C219 C 0.55159 0.01339 0.61524 0.0
C220 C 0.50805 0.05585 0.81701 0.0
C221 C 0.56072 0.12241 0.60095 0.0
C222 C 0.58129 0.11049 0.61621 0.0
C223 C 0.51871 0.98778 0.73297 0.0
C224 C 0.46536 1.01003 0.4497 0.0
C225 C 0.452 0.04378 0.38972 0.0
C226 C 0.46523 0.03601 0.33784 0.0
C227 C 0.47842 1.00268 0.39725 0.0
C228 C 0.45207 0.03045 0.44536 0.0
C229 C 0.4783 0.01564 0.34175 0.0
C230 C 0.47095 0.01888 0.68901 0.0
C231 C 0.46679 0.99771 0.51058 0.0
H232 H 0.53169 0.01918 0.03866 0.0
H233 H 0.48482 0.05983 0.92763 0.0
H234 H 0.49577 0.04219 0.02934 0.0
H235 H 0.54751 0.03309 0.84349 0.0
H236 H 0.46561 0.04564 0.29405 0.0
H237 H 0.48894 0.98708 0.39911 0.0
H238 H 0.4417 0.03581 0.48553 0.0
H239 H 0.48848 1.00992 0.30163 0.0
Tb240 Tb 0.54249 0.50303 0.58369 0.0
C241 C 0.46751 0.48857 0.77129 0.0
N242 N 0.46619 0.50002 0.71537 0.0
C243 C 0.43166 0.47846 0.68848 0.0
C244 C 0.45154 0.47065 0.78658 0.0
C245 C 0.44806 0.49597 0.6751 0.0
C246 C 0.43356 0.46556 0.74409 0.0
C247 C 0.48746 0.48288 0.87051 0.0
C248 C 0.48531 0.49462 0.81249 0.0
C249 C 0.47212 0.46441 0.88507 0.0
C250 C 0.45415 0.45837 0.84333 0.0
Tb251 Tb 0.49367 0.52822 0.69864 0.0
N252 N 0.49991 0.51254 0.79665 0.0
C253 C 0.50455 0.49046 0.91285 0.0
C254 C 0.51494 0.52141 0.84062 0.0
C255 C 0.518 0.51013 0.89837 0.0
H256 H 0.44645 0.50604 0.63239 0.0
H257 H 0.53039 0.51692 0.93222 0.0
H258 H 0.59002 0.49244 0.66838 0.0
H259 H 0.53414 0.5382 0.34972 0.0
H260 H 0.52413 0.53758 0.83262 0.0
H261 H 0.50681 0.4819 0.95788 0.0
H262 H 0.52133 0.51654 0.44464 0.0
H263 H 0.41757 0.47492 0.65591 0.0
H264 H 0.47371 0.455 0.92908 0.0
H265 H 0.44227 0.44429 0.85556 0.0
H266 H 0.63085 0.50632 0.67264 0.0
H267 H 0.42093 0.45189 0.75407 0.0
H268 H 0.57385 0.55556 0.34525 0.0
N269 N 0.5813 0.51301 0.58852 0.0
C270 C 0.58975 0.52635 0.54089 0.0
C271 C 0.61939 0.51238 0.6357 0.0
C272 C 0.61323 0.5339 0.53951 0.0
C273 C 0.59607 0.50495 0.63396 0.0
C274 C 0.62794 0.52723 0.58873 0.0
N275 N 0.55303 0.52255 0.49414 0.0
C276 C 0.5386 0.52423 0.4432 0.0
C277 C 0.58339 0.5432 0.43799 0.0
C278 C 0.57516 0.53094 0.49121 0.0
C279 C 0.56825 0.54619 0.38701 0.0
C280 C 0.54583 0.53642 0.38938 0.0
H281 H 0.6461 0.53268 0.58959 0.0
H282 H 0.63931 0.55322 0.48623 0.0
H283 H 0.6131 0.56138 0.39709 0.0
O284 O 0.52778 0.47474 0.53606 0.0
O285 O 0.53153 0.5391 0.56397 0.0
O286 O 0.51776 0.55442 0.65805 0.0
O287 O 0.56478 0.47605 0.5533 0.0
O288 O 0.50582 0.50079 0.55087 0.0
O289 O 0.48373 0.52946 0.59961 0.0
O290 O 0.47697 0.54638 0.77159 0.0
O291 O 0.49627 0.49107 0.66996 0.0
O292 O 0.5351 0.4855 0.67246 0.0
O293 O 0.46675 0.55164 0.6758 0.0
O294 O 0.52985 0.53894 0.72206 0.0
O295 O 0.55108 0.50795 0.68422 0.0
C296 C 0.52527 0.55689 0.59949 0.0
C297 C 0.54511 0.43952 0.56503 0.0
C298 C 0.52139 0.40443 0.58175 0.0
C299 C 0.53911 0.39533 0.62001 0.0
C300 C 0.56256 0.43022 0.60383 0.0
C301 C 0.55947 0.40825 0.63126 0.0
C302 C 0.52457 0.42661 0.55497 0.0
C303 C 0.48763 0.51488 0.55303 0.0
C304 C 0.54713 0.463 0.53686 0.0
C305 C 0.62137 0.54708 0.48802 0.0
C306 C 0.60648 0.55169 0.43721 0.0
C307 C 0.51409 0.47797 0.68525 0.0
C308 C 0.46822 0.58436 0.74139 0.0
C309 C 0.49425 0.61727 0.76283 0.0
C310 C 0.47491 0.63229 0.75836 0.0
C311 C 0.44925 0.5995 0.73667 0.0
C312 C 0.49061 0.59331 0.75355 0.0
C313 C 0.45265 0.62342 0.74492 0.0
C314 C 0.54904 0.5263 0.72115 0.0
C315 C 0.46503 0.5592 0.73322 0.0
H316 H 0.53748 0.37804 0.63997 0.0
H317 H 0.57848 0.4399 0.61324 0.0
H318 H 0.57301 0.40111 0.66091 0.0
H319 H 0.51085 0.43404 0.52635 0.0
H320 H 0.47673 0.65081 0.76674 0.0
H321 H 0.4319 0.59283 0.72685 0.0
H322 H 0.50522 0.58145 0.75519 0.0
H323 H 0.43794 0.63512 0.74177 0.0
Tb324 Tb 0.02785 0.54463 0.5972 0.0
C325 C 0.02404 0.45256 0.7602 0.0
N326 N 0.01186 0.459 0.70838 0.0
C327 C 0.01642 0.42056 0.66538 0.0
C328 C 0.03368 0.43011 0.76576 0.0
C329 C 1.00694 0.44295 0.66264 0.0
C330 C 0.03016 0.4142 0.71673 0.0
C331 C 0.03728 0.46211 0.86537 0.0
C332 C 0.02577 0.4682 0.80923 0.0
C333 C 0.04767 0.44007 0.87048 0.0
C334 C 0.04589 0.4241 0.8207 0.0
Tb335 Tb 0.99825 0.49653 0.70768 0.0
N336 N 0.01591 0.48942 0.80191 0.0
C337 C 0.03781 0.47831 0.91464 0.0
C338 C 0.01515 0.50478 0.85105 0.0
C339 C 0.02643 0.49964 0.90769 0.0
H340 H 0.99525 0.4471 0.62461 0.0
H341 H 0.02625 0.51207 0.946 0.0
H342 H 1.00701 0.59219 0.66298 0.0
H343 H 0.02125 0.51082 0.35891 0.0
H344 H 1.00607 0.5211 0.84629 0.0
H345 H 0.04653 0.47435 0.95854 0.0
H346 H 0.03889 0.51456 0.46346 0.0
H347 H 0.01279 0.40809 0.62838 0.0
H348 H 0.05679 0.4351 0.91299 0.0
H349 H 0.05358 0.40699 0.82569 0.0
H350 H 0.9794 0.62352 0.63488 0.0
H351 H 0.03728 0.39677 0.71909 0.0
H352 H 0.98942 0.53726 0.32713 0.0
N353 N 1.00231 0.57387 0.57693 0.0
C354 C 0.99278 0.57397 0.51838 0.0
C355 C 0.98287 0.60958 0.60191 0.0
C356 C 0.97696 0.59143 0.50028 0.0
C357 C 0.99834 0.59176 0.6179 0.0
C358 C 0.97195 0.6093 0.54309 0.0
N359 N 0.01489 0.54032 0.4956 0.0
C360 C 0.02389 0.52504 0.45258 0.0
C361 C 0.98896 0.55556 0.41626 0.0
C362 C 0.99874 0.55623 0.47709 0.0
C363 C 0.99653 0.5384 0.37426 0.0
C364 C 0.0144 0.52337 0.39214 0.0
H365 H 0.95986 0.62304 0.53101 0.0
H366 H 0.95415 0.60345 0.42593 0.0
H367 H 0.96465 0.57205 0.35233 0.0
O368 O 0.04964 0.56068 0.53017 0.0
O369 O 0.98959 0.54373 0.61553 0.0
O370 O 0.98202 0.50498 0.61757 0.0
O371 O 0.05216 0.56992 0.62767 0.0
O372 O 0.03633 0.50808 0.57303 0.0
O373 O 1.0039 0.4875 0.60762 0.0
O374 O 0.96911 0.50749 0.75896 0.0
O375 O 0.03434 0.50711 0.73164 0.0
O376 O 0.05134 0.51843 0.63759 0.0
O377 O 0.97169 0.47196 0.7283 0.0
O378 O 0.99387 0.53363 0.73317 0.0
O379 O 0.02673 0.5533 0.69756 0.0
C380 C 0.97577 0.52607 0.60186 0.0
C381 C 0.08701 0.5674 0.5701 0.0
C382 C 0.11931 0.54036 0.55362 0.0
C383 C 0.13505 0.55905 0.56305 0.0
C384 C 0.10289 0.58564 0.57983 0.0
C385 C 0.12686 0.5814 0.57666 0.0
C386 C 0.09525 0.54483 0.55836 0.0
C387 C 0.02257 0.48951 0.57133 0.0
C388 C 0.0618 0.57164 0.57241 0.0
C389 C 0.9666 0.59038 0.44048 0.0
C390 C 0.97251 0.57243 0.39867 0.0
C391 C 0.05288 0.51177 0.69679 0.0
C392 C 0.93506 0.4908 0.71738 0.0
C393 C 0.90255 0.51623 0.69035 0.0
C394 C 0.89403 0.49921 0.64872 0.0
C395 C 0.9264 0.47396 0.67526 0.0
C396 C 0.92279 0.5117 0.72507 0.0
C397 C 0.90594 0.47817 0.64134 0.0
C398 C 1.00977 0.55024 0.73866 0.0
C399 C 0.95782 0.4881 0.7492 0.0
H400 H 0.15371 0.55672 0.5582 0.0
H401 H 0.09677 0.60311 0.58953 0.0
H402 H 0.13914 0.59558 0.58362 0.0
H403 H 0.08272 0.53079 0.55295 0.0
H404 H 0.8783 0.50222 0.62176 0.0
H405 H 0.93558 0.45774 0.66778 0.0
H406 H 0.92907 0.52464 0.75827 0.0
H407 H 0.89942 0.46519 0.60877 0.0
H408 H 0.20761 0.09129 0.19705 0.0
H409 H 0.17366 0.08305 0.26354 0.0
H410 H 0.18917 1.00967 0.25639 0.0
H411 H 0.2237 0.01799 0.19032 0.0
H412 H 0.13373 0.0569 0.2518 0.0
H413 H 0.18839 0.02195 0.44525 0.0
H414 H 0.20079 0.03702 0.37835 0.0
H415 H 0.19156 1.00713 0.37128 0.0
C416 C 0.20367 0.07333 0.209 0.0
C417 C 0.21854 0.05532 0.18871 0.0
C418 C 0.18419 0.06864 0.24712 0.0
C419 C 0.17899 0.04579 0.26649 0.0
C420 C 0.19303 0.02753 0.24343 0.0
H421 H 0.07658 0.99173 0.53678 0.0
H422 H 0.10685 0.99683 0.45664 0.0
C423 C 0.21262 0.03225 0.20491 0.0
C424 C 0.15945 0.04155 0.31254 0.0
H425 H 0.14763 0.02164 0.46145 0.0
C426 C 0.13679 0.04912 0.29757 0.0
C427 C 0.16331 0.03157 0.37269 0.0
C428 C 0.18733 0.02412 0.39334 0.0
C429 C 0.11799 0.04676 0.34041 0.0
C430 C 0.12192 0.03695 0.40069 0.0
C431 C 0.14452 0.0292 0.41544 0.0
C432 C 0.10285 0.03417 0.44889 0.0
C433 C 0.09399 0.05441 0.32019 0.0
C434 C 0.09037 0.05347 0.47211 0.0
C435 C 0.073 0.0506 0.51863 0.0
C436 C 0.06783 0.02839 0.54334 0.0
C437 C 0.08029 1.00916 0.51975 0.0
C438 C 0.0976 0.01203 0.4735 0.0
H439 H 0.0926 0.05556 0.26811 0.0
H440 H 0.08031 0.04223 0.33787 0.0
H441 H 0.09044 0.07195 0.33988 0.0
H442 H 0.09433 0.07084 0.45505 0.0
H443 H 0.06386 0.0658 0.53594 0.0
H444 H 0.45217 0.20246 0.15704 0.0
H445 H 0.46151 0.16745 0.21741 0.0
H446 H 0.53161 0.19329 0.2456 0.0
H447 H 0.522 0.22873 0.18591 0.0
H448 H 0.49253 0.13204 0.21413 0.0
H449 H 0.50851 0.18675 0.42546 0.0
H450 H 0.49637 0.1984 0.35389 0.0
H451 H 0.52724 0.1932 0.35965 0.0
C452 C 0.46983 0.20028 0.17418 0.0
C453 C 0.48643 0.21824 0.16605 0.0
C454 C 0.47512 0.18032 0.20926 0.0
C455 C 0.49711 0.17784 0.23767 0.0
C456 C 0.51434 0.19495 0.22553 0.0
H457 H 0.53353 0.05035 0.45143 0.0
H458 H 0.5326 0.08137 0.37169 0.0
C459 C 0.50901 0.21502 0.19032 0.0
C460 C 0.50112 0.1582 0.28298 0.0
H461 H 0.51253 0.1462 0.43799 0.0
C462 C 0.49717 0.13516 0.26289 0.0
C463 C 0.50663 0.16214 0.34724 0.0
C464 C 0.50973 0.18644 0.37324 0.0
C465 C 0.49845 0.11616 0.30491 0.0
C466 C 0.50423 0.12008 0.36887 0.0
C467 C 0.50834 0.14308 0.38892 0.0
C468 C 0.50482 0.10078 0.41651 0.0
C469 C 0.49235 0.09214 0.28132 0.0
C470 C 0.48966 0.10122 0.46866 0.0
C471 C 0.49013 0.08346 0.51403 0.0
C472 C 0.50607 0.06501 0.50935 0.0
C473 C 0.52105 0.06434 0.45667 0.0
C474 C 0.5205 0.08208 0.41092 0.0
H475 H 0.4835 0.09262 0.23486 0.0
H476 H 0.50852 0.08173 0.27639 0.0
H477 H 0.48073 0.08324 0.31561 0.0
H478 H 0.4772 0.11522 0.47397 0.0
H479 H 0.47772 0.08406 0.55251 0.0
H480 H 0.30692 0.52575 0.1847 0.0
H481 H 0.34234 0.53393 0.24624 0.0
H482 H 0.37075 0.46769 0.19005 0.0
H483 H 0.33536 0.45955 0.12892 0.0
H484 H 0.3552 0.50485 0.34759 0.0
H485 H 0.42789 0.51139 0.17498 0.0
H486 H 0.39766 0.51507 0.15296 0.0
H487 H 0.40922 0.48638 0.16512 0.0
C488 C 0.32122 0.51347 0.18314 0.0
C489 C 0.31864 0.49229 0.15058 0.0
C490 C 0.34135 0.518 0.21899 0.0
C491 C 0.35942 0.50153 0.22261 0.0
C492 C 0.35738 0.48093 0.18719 0.0
H493 H 0.4831 0.48202 0.45872 0.0
H494 H 0.45239 0.47919 0.37871 0.0
C495 C 0.33719 0.47632 0.15186 0.0
C496 C 0.37894 0.50455 0.26884 0.0
H497 H 0.43849 0.5075 0.28273 0.0
C498 C 0.3734 0.50567 0.33329 0.0
C499 C 0.40275 0.50524 0.25056 0.0
C500 C 0.40983 0.50465 0.18213 0.0
C501 C 0.39088 0.50701 0.37976 0.0
C502 C 0.41475 0.50794 0.36158 0.0
C503 C 0.4203 0.50683 0.29702 0.0
C504 C 0.43406 0.51014 0.4089 0.0
C505 C 0.38354 0.50659 0.4481 0.0
C506 C 0.43448 0.52873 0.45198 0.0
C507 C 0.4519 0.5303 0.49808 0.0
C508 C 0.46968 0.51348 0.502 0.0
C509 C 0.46972 0.49527 0.45748 0.0
C510 C 0.45213 0.49364 0.41153 0.0
H511 H 0.36587 0.49875 0.45422 0.0
H512 H 0.39609 0.49661 0.47719 0.0
H513 H 0.38287 0.52471 0.46619 0.0
H514 H 0.42123 0.54211 0.45013 0.0
H515 H 0.45137 0.54477 0.53078 0.0
H516 H 0.08776 0.32928 0.17464 0.0
H517 H 0.08202 0.36632 0.2299 0.0
H518 H 1.00911 0.34953 0.25556 0.0
H519 H 0.01483 0.31254 0.19933 0.0
H520 H 0.01808 0.39841 0.23491 0.0
H521 H 0.07469 0.36201 0.4222 0.0
H522 H 0.08796 0.3633 0.34552 0.0
H523 H 0.06326 0.34442 0.35886 0.0
C524 C 0.07029 0.33401 0.18946 0.0
C525 C 0.05166 0.31819 0.18156 0.0
C526 C 0.06709 0.35501 0.22208 0.0
C527 C 0.04525 0.36054 0.24838 0.0
C528 C 0.02616 0.34567 0.23602 0.0
H529 H 0.98994 0.46126 0.51586 0.0
H530 H 0.99592 0.43122 0.43608 0.0
C531 C 0.02936 0.32465 0.20313 0.0
C532 C 0.04284 0.38053 0.29329 0.0
H533 H 0.06143 0.40045 0.43683 0.0
C534 C 0.02758 0.39887 0.27901 0.0
C535 C 0.05518 0.38122 0.3511 0.0
C536 C 0.07105 0.36162 0.37085 0.0
C537 C 0.02456 0.41789 0.32037 0.0
C538 C 0.03674 0.41843 0.37848 0.0
C539 C 0.05214 0.40019 0.3924 0.0
C540 C 0.03314 0.43723 0.42654 0.0
C541 C 1.00864 0.43744 0.30084 0.0
C542 C 0.05212 0.45038 0.44964 0.0
C543 C 0.04877 0.46743 0.49632 0.0
C544 C 0.02639 0.47157 0.52146 0.0
C545 C 1.00746 0.45839 0.49823 0.0
C546 C 0.01081 0.44138 0.45176 0.0
H547 H 1.00658 0.43813 0.24887 0.0
H548 H 0.99109 0.43452 0.32183 0.0
H549 H 0.01535 0.45457 0.31739 0.0
H550 H 0.06957 0.44747 0.43148 0.0
H551 H 0.06373 0.47722 0.51318 0.0
H552 H 0.81183 0.03258 0.13838 0.0
H553 H 0.84799 0.03712 0.07696 0.0
H554 H 0.86673 0.96634 0.12084 0.0
H555 H 0.8306 0.96189 0.18265 0.0
H556 H 0.90627 0.99846 0.11459 0.0
H557 H 0.8492 1.00376 0.90428 0.0
H558 H 0.84315 0.02497 0.96426 0.0
H559 H 0.83842 0.99455 0.98032 0.0
C560 C 0.82423 0.01839 0.13743 0.0
C561 C 0.81865 0.99707 0.16667 0.0
C562 C 0.84472 0.02084 0.10137 0.0
C563 C 0.85996 1.00193 0.09312 0.0
C564 C 0.85531 0.98119 0.1263 0.0
H565 H 0.98117 0.9756 0.84495 0.0
H566 H 0.95112 0.97286 0.92734 0.0
C567 C 0.83478 0.97874 0.16232 0.0
C568 C 0.87932 1.00302 0.04543 0.0
H569 H 0.88964 1.00905 0.88732 0.0
C570 C 0.90265 1.00074 0.06489 0.0
C571 C 0.87469 1.00581 0.98033 0.0
C572 C 0.85002 1.00721 0.95571 0.0
C573 C 0.9214 1.00185 0.02142 0.0
C574 C 0.91674 1.0048 0.95631 0.0
C575 C 0.89336 1.00686 0.93701 0.0
C576 C 0.93567 1.0064 0.90731 0.0
C577 C 0.94605 1.00054 0.04594 0.0
C578 C 0.93687 0.02585 0.86715 0.0
C579 C 0.95387 0.02735 0.81961 0.0
C580 C 0.97023 1.00939 0.81049 0.0
C581 C 0.96904 0.98986 0.85067 0.0
C582 C 0.95191 0.98835 0.89828 0.0
H583 H 0.94691 1.00466 0.09701 0.0
H584 H 0.9527 0.98259 0.03923 0.0
H585 H 0.95779 0.01273 0.0201 0.0
H586 H 0.92459 0.04 0.87262 0.0
H587 H 0.95413 0.04271 0.78996 0.0
H588 H 0.5109 0.81723 0.14698 0.0
H589 H 0.50164 0.85267 0.08694 0.0
H590 H 0.57525 0.86723 0.06519 0.0
H591 H 0.58436 0.83279 0.12739 0.0
H592 H 0.5539 0.90644 0.07413 0.0
H593 H 0.50531 0.85306 0.90001 0.0
H594 H 0.49264 0.85239 0.97733 0.0
H595 H 0.52116 0.84019 0.96421 0.0
C596 C 0.52503 0.82848 0.13126 0.0
C597 C 0.54838 0.82208 0.14174 0.0
C598 C 0.51976 0.84852 0.09569 0.0
C599 C 0.53774 0.86236 0.06908 0.0
C600 C 0.56096 0.85691 0.08414 0.0
H601 H 0.53274 0.94245 0.72162 0.0
H602 H 0.53695 0.91332 0.80521 0.0
C603 C 0.56618 0.83716 0.12003 0.0
C604 C 0.53291 0.88166 0.02295 0.0
H605 H 0.50739 0.8934 0.88073 0.0
C606 C 0.5436 0.90357 0.03203 0.0
C607 C 0.5199 0.87801 0.96693 0.0
C608 C 0.50928 0.8546 0.95103 0.0
C609 C 0.54198 0.92158 0.98697 0.0
C610 C 0.52855 0.91808 0.93166 0.0
C611 C 0.51758 0.89631 0.92301 0.0
C612 C 0.52637 0.93628 0.88098 0.0
C613 C 0.55576 0.94372 0.99775 0.0
C614 C 0.51876 0.95902 0.89475 0.0
C615 C 0.51665 0.97579 0.84689 0.0
C616 C 0.52187 0.97023 0.78391 0.0
C617 C 0.52888 0.94738 0.76977 0.0
C618 C 0.53123 0.93068 0.81768 0.0
H619 H 0.57022 0.9411 0.03177 0.0
H620 H 0.56332 0.95027 0.95295 0.0
H621 H 0.54407 0.95729 0.0173 0.0
H622 H 0.51402 0.96377 0.9424 0.0
H623 H 0.5104 0.99298 0.85897 0.0
H624 H 0.70032 0.59169 0.13729 0.0
H625 H 0.66501 0.58288 0.07738 0.0
H626 H 0.68994 0.5132 0.04393 0.0
H627 H 0.72569 0.52233 0.10301 0.0
H628 H 0.67927 0.53402 0.93587 0.0
H629 H 0.60495 0.54788 0.09808 0.0
H630 H 0.62433 0.57254 0.09636 0.0
H631 H 0.63456 0.54499 0.12583 0.0
C632 C 0.69772 0.57412 0.11987 0.0
C633 C 0.71559 0.55754 0.12619 0.0
C634 C 0.67749 0.56909 0.08518 0.0
C635 C 0.67449 0.54727 0.05611 0.0
C636 C 0.69166 0.53015 0.06595 0.0
H637 H 0.57704 0.49344 0.77478 0.0
H638 H 0.60691 0.4987 0.85535 0.0
C639 C 0.71197 0.53522 0.10068 0.0
C640 C 0.65514 0.54344 1.00949 0.0
H641 H 0.59602 0.5483 0.98762 0.0
C642 C 0.66106 0.53687 0.94764 0.0
C643 C 0.63127 0.5474 0.02401 0.0
C644 C 0.62336 0.55337 0.08985 0.0
C645 C 0.64405 0.53461 0.90015 0.0
C646 C 0.62025 0.53876 0.91455 0.0
C647 C 0.61424 0.54527 0.9763 0.0
C648 C 0.60143 0.53573 0.86635 0.0
C649 C 0.65177 0.5283 0.83432 0.0
C650 C 0.58783 0.55468 0.8463 0.0
C651 C 0.57078 0.55176 0.79925 0.0
C652 C 0.5669 0.52979 0.77153 0.0
C653 C 0.58008 0.51078 0.79324 0.0
C654 C 0.59711 0.51372 0.83981 0.0
H655 H 0.6708 0.53134 0.82727 0.0
H656 H 0.64813 0.50954 0.8259 0.0
H657 H 0.64205 0.53851 0.79864 0.0
H658 H 0.59068 0.57183 0.8663 0.0
H659 H 0.56082 0.56672 0.78407 0.0
H660 H 0.99814 0.74126 0.03513 0.0
H661 H 1.00623 0.70541 0.97874 0.0
H662 H 0.98977 0.66567 0.14592 0.0
H663 H 0.97982 0.70203 0.20142 0.0
H664 H 0.03325 0.67221 0.97843 0.0
H665 H 0.94658 0.63328 0.03238 0.0
H666 H 0.95415 0.66257 0.05524 0.0
H667 H 0.96401 0.63812 0.10115 0.0
C668 C 0.99662 0.72489 0.06038 0.0
C669 C 0.98815 0.72453 0.12267 0.0
C670 C 1.00121 0.70425 0.02788 0.0
C671 C 0.99792 0.68243 0.05681 0.0
C672 C 0.99155 0.68207 0.12119 0.0
H673 H 0.04373 0.56394 0.81989 0.0
H674 H 0.04141 0.59345 0.90286 0.0
C675 C 0.9864 0.70292 0.1536 0.0
C676 C 1.00046 0.66063 0.01778 0.0
H677 H 0.97222 0.6107 0.97112 0.0
C678 C 0.01982 0.65881 0.97705 0.0
C679 C 0.98289 0.64305 0.01454 0.0
C680 C 0.96063 0.6444 0.05264 0.0
C681 C 0.02177 0.64075 0.93237 0.0
C682 C 1.0046 0.62278 0.93045 0.0
C683 C 0.98554 0.62421 0.97235 0.0
C684 C 1.00552 0.60301 0.88376 0.0
C685 C 0.04163 0.64211 0.88546 0.0
C686 C 0.9857 0.59694 0.8478 0.0
C687 C 0.98676 0.5792 0.80222 0.0
C688 C 1.00779 0.56747 0.79054 0.0
C689 C 0.02741 0.57302 0.82728 0.0
C690 C 0.02613 0.59014 0.8743 0.0
H691 H 0.04804 0.6603 0.87951 0.0
H692 H 0.05649 0.63161 0.90285 0.0
H693 H 0.03631 0.63546 0.83855 0.0
H694 H 0.96947 0.6063 0.85391 0.0
H695 H 0.97138 0.57527 0.77447 0.0
H696 H 0.10532 0.22443 0.2338 0.0
H697 H 0.11222 0.20038 0.32775 0.0
H698 H 0.05731 0.23696 0.42561 0.0
H699 H 0.0512 0.2614 0.33383 0.0
H700 H 0.09165 0.22569 0.5057 0.0
H701 H 0.0677 0.14805 0.36018 0.0
H702 H 0.09373 0.16387 0.33931 0.0
H703 H 0.0656 0.17711 0.32889 0.0
C704 C 0.09511 0.2275 0.276 0.0
C705 C 0.07765 0.24462 0.27665 0.0
C706 C 0.09899 0.21375 0.32944 0.0
C707 C 0.08496 0.21653 0.38334 0.0
C708 C 0.06846 0.23452 0.38481 0.0
H709 H 0.99414 0.17006 0.61874 0.0
H710 H 0.02773 0.191 0.57725 0.0
C711 C 0.06491 0.24846 0.33219 0.0
C712 C 0.08475 0.19937 0.43556 0.0
H713 H 0.06275 0.14533 0.46794 0.0
C714 C 0.08604 0.20785 0.49761 0.0
C715 C 0.07784 0.17592 0.42523 0.0
C716 C 0.076 0.1656 0.35996 0.0
C717 C 0.07769 0.19457 0.54847 0.0
C718 C 0.06808 0.1723 0.5368 0.0
C719 C 0.06996 0.16257 0.47644 0.0
C720 C 0.05102 0.16142 0.5803 0.0
C721 C 0.07745 0.20517 0.61339 0.0
C722 C 0.05312 0.13798 0.59788 0.0
C723 C 0.03384 0.12591 0.62229 0.0
C724 C 0.01202 0.13698 0.62804 0.0
C725 C 0.01061 0.16096 0.61536 0.0
C726 C 0.02993 0.17305 0.59182 0.0
H727 H 0.0925 0.21725 0.61972 0.0
H728 H 0.06121 0.21541 0.61953 0.0
H729 H 0.07796 0.19154 0.65052 0.0
H730 H 0.06921 0.12867 0.58901 0.0
H731 H 0.03575 0.10761 0.63337 0.0
H732 H 0.26748 0.12086 0.2489 0.0
H733 H 0.29596 0.14022 0.31799 0.0
H734 H 0.35196 0.10518 0.22126 0.0
H735 H 0.32442 0.08453 0.15728 0.0
H736 H 0.32685 0.11121 0.39342 0.0
H737 H 0.37908 0.1717 0.25011 0.0
H738 H 0.34821 0.16659 0.23662 0.0
H739 H 0.3698 0.14759 0.2024 0.0
C740 C 0.28588 0.11739 0.24202 0.0
C741 C 0.29341 0.10104 0.19668 0.0
C742 C 0.30211 0.12882 0.28092 0.0
C743 C 0.32608 0.12467 0.27346 0.0
C744 C 0.3336 0.10936 0.22633 0.0
H745 H 0.42781 0.05943 0.28745 0.0
H746 H 0.40064 0.09157 0.28251 0.0
C747 C 0.31759 0.09752 0.18921 0.0
C748 C 0.3435 0.13168 0.3211 0.0
H749 H 0.40198 0.14116 0.30862 0.0
C750 C 0.34318 0.11892 0.3774 0.0
C751 C 0.36454 0.14245 0.3015 0.0
C752 C 0.36534 0.1581 0.2446 0.0
C753 C 0.36416 0.11196 0.40554 0.0
C754 C 0.38558 0.11851 0.37683 0.0
C755 C 0.38554 0.13558 0.32947 0.0
C756 C 0.40572 0.1025 0.37913 0.0
C757 C 0.3632 0.09471 0.45916 0.0
C758 C 0.41811 0.09829 0.43471 0.0
C759 C 0.43374 0.07966 0.43778 0.0
C760 C 0.43739 0.0651 0.38517 0.0
C761 C 0.42584 0.07033 0.32869 0.0
C762 C 0.41024 0.0888 0.32576 0.0
H763 H 0.34512 0.09199 0.47707 0.0
H764 H 0.37016 0.07765 0.44339 0.0
H765 H 0.37421 0.10101 0.49862 0.0
H766 H 0.41504 0.10878 0.47626 0.0
H767 H 0.44247 0.07635 0.48191 0.0
H768 H 0.45997 0.32057 0.21624 0.0
H769 H 0.4478 0.33806 0.31454 0.0
H770 H 0.40962 0.27563 0.36387 0.0
H771 H 0.42119 0.25795 0.2634 0.0
H772 H 0.40454 0.34525 0.38883 0.0
H773 H 0.46517 0.27945 0.49043 0.0
H774 H 0.46464 0.28364 0.4063 0.0
H775 H 0.43998 0.27063 0.44553 0.0
C776 C 0.44813 0.31079 0.24622 0.0
C777 C 0.44194 0.28764 0.23215 0.0
C778 C 0.44121 0.32086 0.30282 0.0
C779 C 0.42811 0.30801 0.34684 0.0
C780 C 0.41996 0.28572 0.33073 0.0
H781 H 0.49576 0.37484 0.65862 0.0
H782 H 0.46237 0.35018 0.62784 0.0
C783 C 0.42673 0.27563 0.27352 0.0
C784 C 0.42733 0.31681 0.41219 0.0
H785 H 0.46544 0.31681 0.53491 0.0
C786 C 0.41697 0.33856 0.42271 0.0
C787 C 0.44302 0.30783 0.45738 0.0
C788 C 0.45388 0.28408 0.4499 0.0
C789 C 0.42498 0.35315 0.47106 0.0
C790 C 0.44404 0.34586 0.50821 0.0
C791 C 0.45117 0.32256 0.50532 0.0
C792 C 0.46121 0.36305 0.53211 0.0
C793 C 0.41502 0.37729 0.47693 0.0
C794 C 0.47183 0.37804 0.48828 0.0
C795 C 0.49106 0.39151 0.50495 0.0
C796 C 0.50017 0.39055 0.56625 0.0
C797 C 0.48925 0.37587 0.61087 0.0
C798 C 0.47001 0.36204 0.59371 0.0
H799 H 0.3959 0.37698 0.46805 0.0
H800 H 0.41832 0.38482 0.52428 0.0
H801 H 0.42316 0.3888 0.4409 0.0
H802 H 0.46606 0.3784 0.43974 0.0
H803 H 0.49935 0.40197 0.46869 0.0
H804 H 0.22676 0.42737 0.15505 0.0
H805 H 0.197 0.41839 0.235 0.0
H806 H 0.23288 0.46283 0.36729 0.0
H807 H 0.2623 0.4719 0.28867 0.0
H808 H 0.20662 0.42501 0.42534 0.0
H809 H 0.15565 0.47652 0.25023 0.0
H810 H 0.16766 0.44902 0.22658 0.0
H811 H 0.18679 0.47328 0.24208 0.0
C812 C 0.22864 0.43463 0.20184 0.0
C813 C 0.24658 0.45079 0.21499 0.0
C814 C 0.21173 0.42936 0.24751 0.0
C815 C 0.21251 0.44037 0.30648 0.0
C816 C 0.23196 0.45413 0.32205 0.0
H817 H 0.16096 0.51901 0.58325 0.0
H818 H 0.17804 0.48566 0.53097 0.0
C819 C 0.24883 0.45934 0.27674 0.0
C820 C 0.19134 0.44263 0.34605 0.0
H821 H 0.14359 0.47745 0.35371 0.0
C822 C 0.19232 0.43583 0.40951 0.0
C823 C 0.17253 0.45647 0.32511 0.0
C824 C 0.17045 0.46437 0.25744 0.0
C825 C 0.17617 0.44437 0.45371 0.0
C826 C 0.15919 0.46063 0.43398 0.0
C827 C 0.15669 0.46519 0.36936 0.0
C828 C 0.14689 0.47643 0.47841 0.0
C829 C 0.17814 0.43659 0.52127 0.0
C830 C 0.12353 0.48246 0.46745 0.0
C831 C 0.1142 0.5026 0.49402 0.0
C832 C 0.12776 0.51682 0.53416 0.0
C833 C 0.15022 0.50917 0.55078 0.0
C834 C 0.15985 0.48949 0.52224 0.0
H835 H 0.18278 0.41784 0.52355 0.0
H836 H 0.19243 0.44648 0.54451 0.0
H837 H 0.16163 0.43932 0.54782 0.0
H838 H 0.11309 0.47268 0.43404 0.0
H839 H 0.09692 0.50768 0.47911 0.0
H840 H 0.91601 0.81158 0.12718 0.0
H841 H 0.90246 0.8367 0.04129 0.0
H842 H 0.94467 0.79793 0.90983 0.0
H843 H 0.95864 0.77375 0.99355 0.0
H844 H 0.93238 0.86391 0.98189 0.0
H845 H 0.89073 0.81181 0.7982 0.0
H846 H 0.89197 0.80193 0.87902 0.0
H847 H 0.91549 0.79569 0.82469 0.0
C848 C 0.92196 0.80812 0.07967 0.0
C849 C 0.93846 0.79052 0.06773 0.0
C850 C 0.91396 0.82232 0.03054 0.0
C851 C 0.92208 0.81891 0.96867 0.0
C852 C 0.93733 0.80043 0.95641 0.0
H853 H 1.00676 0.86013 0.71981 0.0
H854 H 0.97241 0.84278 0.76981 0.0
C855 C 0.94545 0.78652 1.00505 0.0
C856 C 0.91966 0.83713 0.91964 0.0
H857 H 0.9222 0.8398 0.75944 0.0
C858 C 0.92907 0.85918 0.93327 0.0
C859 C 0.91487 0.83123 0.8563 0.0
C860 C 0.90244 0.80892 0.83905 0.0
C861 C 0.93768 0.87361 0.88513 0.0
C862 C 0.9364 0.8658 0.8219 0.0
C863 C 0.92363 0.84552 0.80796 0.0
C864 C 0.95293 0.87499 0.7741 0.0
C865 C 0.9507 0.89561 0.90308 0.0
C866 C 0.95267 0.89847 0.75592 0.0
C867 C 0.97245 0.90846 0.72783 0.0
C868 C 0.99256 0.89501 0.71699 0.0
C869 C 0.99158 0.87091 0.72781 0.0
C870 C 0.9719 0.86099 0.75635 0.0
H871 H 0.95121 0.89834 0.95485 0.0
H872 H 0.96895 0.89496 0.88525 0.0
H873 H 0.94208 0.91091 0.88152 0.0
H874 H 0.93801 0.90945 0.76804 0.0
H875 H 0.97262 0.92704 0.71878 0.0
H876 H 0.73709 1.01064 0.06529 0.0
H877 H 0.70255 1.00498 1.00015 0.0
H878 H 0.70608 0.93068 0.03115 0.0
H879 H 0.74003 0.9367 0.10011 0.0
H880 H 0.68628 0.9824 0.90059 0.0
H881 H 0.64626 0.94476 0.1184 0.0
H882 H 0.67535 0.95679 0.11841 0.0
H883 H 0.66975 0.9288 0.08312 0.0
C884 C 0.73088 0.99307 0.05644 0.0
C885 C 0.74086 0.97411 0.08757 0.0
C886 C 0.71117 0.98978 0.0192 0.0
C887 C 0.70129 0.96745 1.01225 0.0
C888 C 0.71298 0.94813 0.03747 0.0
H889 H 0.56162 0.99487 0.85377 0.0
H890 H 0.59851 0.97398 0.8606 0.0
C891 C 0.73246 0.9515 0.07612 0.0
C892 C 0.67711 0.96563 0.98794 0.0
H893 H 0.62126 0.95815 0.04133 0.0
C894 C 0.67199 0.97663 0.93057 0.0
C895 C 0.65851 0.95792 0.02718 0.0
C896 C 0.6626 0.94652 0.09034 0.0
C897 C 0.64899 0.98261 0.91484 0.0
C898 C 0.63064 0.97651 0.95666 0.0
C899 C 0.6355 0.96301 1.01001 0.0
C900 C 0.60733 0.98739 0.95279 0.0
C901 C 0.64489 0.99721 0.85678 0.0
C902 C 0.59961 1.00118 1.00328 0.0
C903 C 0.57836 0.01279 1.00011 0.0
C904 C 0.56439 0.01096 0.94617 0.0
C905 C 0.57199 0.99681 0.89594 0.0
C906 C 0.59318 0.98495 0.89948 0.0
H907 H 0.66148 1.00351 0.83527 0.0
H908 H 0.63552 0.98661 0.82108 0.0
H909 H 0.63394 0.01255 0.86822 0.0
H910 H 0.61036 1.00346 0.04478 0.0
H911 H 0.57329 0.02382 0.03913 0.0
H912 H 0.5643 0.76144 1.00907 0.0
H913 H 0.57349 0.73106 0.93394 0.0
H914 H 0.61865 0.69833 0.06951 0.0
H915 H 0.6093 0.72894 0.14612 0.0
H916 H 0.61098 0.706 0.87736 0.0
H917 H 0.56283 0.65403 0.05944 0.0
H918 H 0.56516 0.68524 0.06603 0.0
H919 H 0.59026 0.6673 0.07986 0.0
C920 C 0.57695 0.74839 0.02237 0.0
C921 C 0.58568 0.74731 0.08406 0.0
C922 C 0.58225 0.73098 0.97911 0.0
C923 C 0.59632 0.71217 0.99666 0.0
C924 C 0.60738 0.7125 0.05555 0.0
H925 H 0.52815 0.59512 0.83229 0.0
H926 H 0.56389 0.61165 0.87394 0.0
C927 C 0.60195 0.72991 0.09927 0.0
C928 C 0.59456 0.69059 0.95892 0.0
H929 H 0.56049 0.64185 0.95637 0.0
C930 C 0.60062 0.69146 0.89482 0.0
C931 C 0.58142 0.6714 0.98196 0.0
C932 C 0.57442 0.66929 0.05045 0.0
C933 C 0.59166 0.67506 0.85205 0.0
C934 C 0.57583 0.65783 0.874 0.0
C935 C 0.57235 0.65522 0.93912 0.0
C936 C 0.55912 0.64563 0.8318 0.0
C937 C 0.5983 0.67714 0.78353 0.0
C938 C 0.54506 0.65873 0.79095 0.0
C939 C 0.52486 0.64902 0.7649 0.0
C940 C 0.51782 0.62625 0.78083 0.0
C941 C 0.53285 0.61265 0.81815 0.0
C942 C 0.55341 0.62215 0.84253 0.0
H943 H 0.617 0.68216 0.77876 0.0
H944 H 0.59525 0.66061 0.75758 0.0
H945 H 0.58788 0.69118 0.76142 0.0
H946 H 0.54863 0.67703 0.78277 0.0
H947 H 0.51422 0.65982 0.73476 0.0
H948 H 0.8066 0.62264 0.09611 0.0
H949 H 0.83033 0.63464 1.00507 0.0
H950 H 0.79039 0.58816 0.88665 0.0
H951 H 0.76707 0.57629 0.97574 0.0
H952 H 0.85753 0.60543 0.95133 0.0
H953 H 0.80268 0.63757 0.76115 0.0
H954 H 0.79282 0.63802 0.84214 0.0
H955 H 0.78767 0.61279 0.79296 0.0
C956 C 0.80256 0.61551 0.05018 0.0
C957 C 0.78496 0.59847 0.0433 0.0
C958 C 0.81595 0.62256 0.99812 0.0
C959 C 0.8119 0.61271 0.93849 0.0
C960 C 0.79338 0.59681 0.93124 0.0
H961 H 0.85615 0.5218 0.713 0.0
H962 H 0.83739 0.55645 0.7558 0.0
C963 C 0.78007 0.58983 0.98281 0.0
C964 C 0.8297 0.61417 0.88768 0.0
H965 H 0.83165 0.60608 0.72879 0.0
C966 C 0.85232 0.60669 0.9024 0.0
C967 C 0.82323 0.61634 0.82371 0.0
C968 C 0.8003 0.62691 0.8044 0.0
C969 C 0.86697 0.5974 0.85591 0.0
C970 C 0.85872 0.59588 0.79324 0.0
C971 C 0.8377 0.60677 0.77711 0.0
C972 C 0.86839 0.57821 0.74995 0.0
C973 C 0.88981 0.58659 0.87573 0.0
C974 C 0.89162 0.57942 0.72909 0.0
C975 C 0.90242 0.55951 0.70523 0.0
C976 C 0.89002 0.53829 0.70137 0.0
C977 C 0.8661 0.53788 0.71577 0.0
C978 C 0.85537 0.55772 0.73994 0.0
H979 H 0.89305 0.58842 0.92705 0.0
H980 H 0.88991 0.56776 0.86373 0.0
H981 H 0.90448 0.59512 0.85017 0.0
H982 H 0.90183 0.59518 0.73557 0.0
H983 H 0.92082 0.56033 0.69326 0.0
H984 H 0.07362 0.25395 0.99365 0.0
H985 H 0.06804 0.22229 0.91677 0.0
H986 H 0.01495 0.19182 0.03608 0.0
H987 H 0.02073 0.22316 0.11274 0.0
H988 H 0.04909 0.16071 1.00591 0.0
H989 H 0.01801 0.20397 0.7881 0.0
H990 H 0.04416 0.2163 0.82121 0.0
H991 H 0.01713 0.21803 0.86419 0.0
C992 C 0.06015 0.24097 1.00209 0.0
C993 C 0.04733 0.24126 0.05869 0.0
C994 C 0.05701 0.22279 0.95826 0.0
C995 C 0.04096 0.20457 0.97019 0.0
C996 C 0.0274 0.20558 0.02543 0.0
H997 H 0.99428 0.08615 0.74446 0.0
H998 H 0.99823 0.12331 0.80123 0.0
C999 C 0.03055 0.22364 0.06904 0.0
C1000 C 0.03978 0.18331 0.92912 0.0
H1001 H 0.02779 0.16392 0.77988 0.0
C1002 C 0.04443 0.16149 0.95648 0.0
C1003 C 0.03363 0.18413 0.86454 0.0
C1004 C 0.02774 0.20681 0.83267 0.0
C1005 C 0.04314 0.14067 0.92151 0.0
C1006 C 0.03726 0.1415 0.85683 0.0
C1007 C 0.03248 0.16325 0.8293 0.0
C1008 C 0.03531 0.11982 0.81799 0.0
C1009 C 0.04758 0.11782 0.95452 0.0
C1010 C 0.05486 0.10556 0.80742 0.0
C1011 C 0.05261 0.08447 0.77445 0.0
C1012 C 0.03082 0.07725 0.75105 0.0
C1013 C 0.01136 0.09161 0.76074 0.0
C1014 C 0.0136 0.11276 0.79348 0.0
H1015 H 0.0468 0.11963 1.00657 0.0
H1016 H 0.03466 0.10438 0.93982 0.0
H1017 H 0.06524 0.11148 0.94165 0.0
H1018 H 0.07185 0.11067 0.82516 0.0
H1019 H 0.06792 0.07382 0.76713 0.0
H1020 H 0.28036 0.07843 0.96069 0.0
H1021 H 0.31127 0.06697 0.88788 0.0
H1022 H 0.32051 1.00304 0.9914 0.0
H1023 H 0.28986 0.01501 0.06577 0.0
H1024 H 0.361 0.02445 0.97864 0.0
H1025 H 0.32046 0.02426 0.74333 0.0
H1026 H 0.31526 0.05136 0.78266 0.0
H1027 H 0.30323 0.02473 0.81462 0.0
C1028 C 0.28818 0.06141 0.96611 0.0
C1029 C 0.28227 0.04743 0.01837 0.0
C1030 C 0.30603 0.05485 0.92444 0.0
C1031 C 0.31834 0.03397 0.93327 0.0
C1032 C 0.31134 0.0192 0.98306 0.0
H1033 H 0.44535 0.98297 0.74114 0.0
H1034 H 0.40842 0.98529 0.79985 0.0
C1035 C 0.29349 0.02584 0.02506 0.0
C1036 C 0.34005 0.02908 0.89546 0.0
H1037 H 0.36246 0.02882 0.74542 0.0
C1038 C 0.36114 0.02503 0.92761 0.0
C1039 C 0.34058 0.02986 0.82862 0.0
C1040 C 0.3186 0.03254 0.79036 0.0
C1041 C 0.38256 0.02257 0.89524 0.0
C1042 C 0.38313 0.02423 0.82882 0.0
C1043 C 0.36209 0.02777 0.79641 0.0
C1044 C 0.40552 0.02274 0.79255 0.0
C1045 C 0.40468 0.01887 0.93221 0.0
C1046 C 0.41626 0.043 0.76874 0.0
C1047 C 0.43749 0.04177 0.73553 0.0
C1048 C 0.44838 0.02018 0.72459 0.0
C1049 C 0.43747 0.99988 0.74823 0.0
C1050 C 0.41634 1.00117 0.78198 0.0
H1051 H 0.40168 0.0198 0.98386 0.0
H1052 H 0.41198 1.00151 0.92068 0.0
H1053 H 0.41796 0.03218 0.91877 0.0
H1054 H 0.40829 0.05985 0.77634 0.0
H1055 H 0.44531 0.05777 0.71813 0.0
H1056 H 0.51665 0.30313 0.07134 0.0
H1057 H 0.52366 0.33533 0.99719 0.0
H1058 H 0.46012 0.31754 0.89928 0.0
H1059 H 0.45282 0.28587 0.97467 0.0
H1060 H 0.52949 0.34098 0.87249 0.0
H1061 H 0.44717 0.38423 0.94246 0.0
H1062 H 0.4584 0.35928 0.98387 0.0
H1063 H 0.44253 0.35551 0.91148 0.0
C1064 C 0.50459 0.30568 0.03277 0.0
C1065 C 0.48441 0.29172 0.02809 0.0
C1066 C 0.50846 0.32427 0.9907 0.0
C1067 C 0.49212 0.32943 0.94329 0.0
C1068 C 0.4727 0.31449 0.9363 0.0
H1069 H 0.47872 0.44554 0.67474 0.0
H1070 H 0.47391 0.40904 0.73423 0.0
C1071 C 0.46874 0.29606 0.97867 0.0
C1072 C 0.49504 0.35079 0.90287 0.0
H1073 H 0.46795 0.40118 0.85732 0.0
C1074 C 0.516 0.35411 0.86926 0.0
C1075 C 0.47759 0.36822 0.89863 0.0
C1076 C 0.45527 0.36681 0.9365 0.0
C1077 C 0.51984 0.37392 0.8311 0.0
C1078 C 0.50233 0.39127 0.82647 0.0
C1079 C 0.48134 0.38792 0.85996 0.0
C1080 C 0.50556 0.41327 0.78882 0.0
C1081 C 0.54266 0.37577 0.79576 0.0
C1082 C 0.52478 0.42813 0.79957 0.0
C1083 C 0.52761 0.44885 0.76521 0.0
C1084 C 0.51099 0.45563 0.72025 0.0
C1085 C 0.49169 0.44091 0.70952 0.0
C1086 C 0.48897 0.42001 0.74351 0.0
H1087 H 0.54971 0.35827 0.78438 0.0
H1088 H 0.54078 0.38572 0.75147 0.0
H1089 H 0.55567 0.38486 0.8258 0.0
H1090 H 0.53754 0.42387 0.83522 0.0
H1091 H 0.54258 0.45989 0.77495 0.0
H1092 H 0.24756 0.45958 0.96206 0.0
H1093 H 0.21537 0.46784 0.88971 0.0
H1094 H 0.20529 0.53447 0.97911 0.0
H1095 H 0.23763 0.52613 0.05158 0.0
H1096 H 0.16477 0.50753 0.9749 0.0
H1097 H 0.20527 0.5106 0.73771 0.0
H1098 H 0.21317 0.48536 0.78271 0.0
H1099 H 0.22207 0.51382 0.80911 0.0
C1100 C 0.23915 0.47642 0.96434 0.0
C1101 C 0.24557 0.49249 1.01132 0.0
C1102 C 0.22063 0.48111 0.92313 0.0
C1103 C 0.20789 0.50191 0.92823 0.0
C1104 C 0.21489 0.51839 0.97365 0.0
H1105 H 0.08925 0.54282 0.68881 0.0
H1106 H 0.1273 0.54109 0.7417 0.0
C1107 C 0.23358 0.51377 0.0146 0.0
C1108 C 0.18589 0.50521 0.8911 0.0
H1109 H 0.1637 0.50621 0.74135 0.0
C1110 C 0.16462 0.50744 0.92383 0.0
C1111 C 0.18551 0.50522 0.82434 0.0
C1112 C 0.20774 0.50384 0.78626 0.0
C1113 C 0.14311 0.50899 0.89198 0.0
C1114 C 0.14264 0.50811 0.82531 0.0
C1115 C 0.16394 0.50663 0.7924 0.0
C1116 C 0.12015 0.50847 0.78942 0.0
C1117 C 0.12098 0.51162 0.93009 0.0
C1118 C 0.1036 0.49046 0.79683 0.0
C1119 C 0.08206 0.49126 0.76557 0.0
C1120 C 0.07643 0.51009 0.72626 0.0
C1121 C 0.09321 0.52783 0.71759 0.0
C1122 C 0.1149 0.52697 0.74844 0.0
H1123 H 0.12465 0.51773 0.97873 0.0
H1124 H 0.1089 0.5241 0.90728 0.0
H1125 H 0.11197 0.49448 0.93334 0.0
H1126 H 0.10734 0.47572 0.82695 0.0
H1127 H 0.06995 0.47697 0.77159 0.0
H1128 H 0.01706 0.79837 0.24501 0.0
H1129 H 0.02575 0.82945 0.3216 0.0
H1130 H 0.95429 0.82724 0.38615 0.0
H1131 H 0.94566 0.79639 0.30995 0.0
H1132 H 1.00336 0.87324 0.32075 0.0
H1133 H 0.99039 0.83051 0.55246 0.0
H1134 H 0.99505 0.81418 0.48081 0.0
H1135 H 0.96675 0.82599 0.49833 0.0
C1136 C 1.00347 0.80395 0.27716 0.0
C1137 C 0.98076 0.79465 0.27211 0.0
C1138 C 1.00836 0.8219 0.32053 0.0
C1139 C 0.99075 0.83067 0.36037 0.0
C1140 C 0.96835 0.8206 0.35713 0.0
H1141 H 0.97411 0.94983 0.6148 0.0
H1142 H 0.96889 0.91421 0.55199 0.0
C1143 C 0.96341 0.8029 0.31351 0.0
C1144 C 0.995 0.85173 0.40079 0.0
H1145 H 0.99202 0.87202 0.55243 0.0
C1146 C 1.00114 0.87288 0.37148 0.0
C1147 C 0.99177 0.85149 0.46702 0.0
C1148 C 0.98582 0.8293 0.50174 0.0
C1149 C 1.00362 0.89373 0.40604 0.0
C1150 C 1.00051 0.8935 0.47233 0.0
C1151 C 0.99444 0.87233 0.50175 0.0
C1152 C 1.00368 0.91499 0.51167 0.0
C1153 C 1.00879 0.91603 0.37074 0.0
C1154 C 0.02505 0.9272 0.51127 0.0
C1155 C 0.02794 0.94763 0.54669 0.0
C1156 C 1.00955 0.95642 0.58366 0.0
C1157 C 0.98837 0.94388 0.58552 0.0
C1158 C 0.98547 0.92338 0.55002 0.0
H1159 H 1.00388 0.91463 0.3203 0.0
H1160 H 0.99933 0.93097 0.3918 0.0
H1161 H 0.0278 0.91979 0.37297 0.0
H1162 H 0.03963 0.92087 0.48367 0.0
H1163 H 0.0446 0.95665 0.54473 0.0
H1164 H 0.73166 0.9564 0.31044 0.0
H1165 H 0.70135 0.96367 0.38836 0.0
H1166 H 0.72777 0.03359 0.41416 0.0
H1167 H 0.75733 0.02674 0.33192 0.0
H1168 H 0.69504 0.9735 0.50249 0.0
H1169 H 0.6635 0.0503 0.36956 0.0
H1170 H 0.68654 0.03207 0.34018 0.0
H1171 H 0.69258 0.05384 0.39919 0.0
C1172 C 0.7313 0.97327 0.33338 0.0
C1173 C 0.74677 0.9911 0.31393 0.0
C1174 C 0.71383 0.97745 0.37822 0.0
C1175 C 0.7114 0.99952 0.40612 0.0
C1176 C 0.72842 0.01668 0.39173 0.0
H1177 H 0.59275 1.00693 0.68256 0.0
H1178 H 0.63284 1.00621 0.64088 0.0
C1179 C 0.74576 0.0126 0.3456 0.0
C1180 C 0.69024 1.00442 0.44665 0.0
H1181 H 0.64272 0.04012 0.46071 0.0
C1182 C 0.68367 0.98816 0.49335 0.0
C1183 C 0.675 0.02338 0.43496 0.0
C1184 C 0.67958 0.04077 0.38292 0.0
C1185 C 0.66223 0.98971 0.52635 0.0
C1186 C 0.64707 1.00873 0.51479 0.0
C1187 C 0.65414 0.02552 0.4701 0.0
C1188 C 0.62289 1.01048 0.54307 0.0
C1189 C 0.65557 0.97013 0.57049 0.0
C1190 C 0.6037 0.01433 0.50334 0.0
C1191 C 0.58098 0.01577 0.5275 0.0
C1192 C 0.5764 0.01302 0.59229 0.0
C1193 C 0.59553 1.00938 0.63256 0.0
C1194 C 0.61853 1.00849 0.60839 0.0
H1195 H 0.66585 0.95414 0.56103 0.0
H1196 H 0.65916 0.97557 0.61966 0.0
H1197 H 0.63673 0.96569 0.56646 0.0
H1198 H 0.60621 0.01602 0.45295 0.0
H1199 H 0.56692 0.01911 0.49485 0.0
H1200 H 0.50957 0.74489 0.25497 0.0
H1201 H 0.50046 0.71327 0.32953 0.0
H1202 H 0.56993 0.71884 0.40609 0.0
H1203 H 0.57884 0.75044 0.3323 0.0
H1204 H 0.52209 0.67173 0.32889 0.0
H1205 H 0.53278 0.7098 0.56609 0.0
H1206 H 0.52967 0.72757 0.49644 0.0
H1207 H 0.55762 0.71548 0.51659 0.0
C1208 C 0.52245 0.74011 0.28985 0.0
C1209 C 0.54471 0.75063 0.28891 0.0
C1210 C 0.51737 0.72178 0.33196 0.0
C1211 C 0.53439 0.71362 0.37432 0.0
C1212 C 0.55622 0.725 0.3754 0.0
H1213 H 0.55476 0.5728 0.50693 0.0
H1214 H 0.55542 0.61067 0.45507 0.0
C1215 C 0.56131 0.74321 0.33326 0.0
C1216 C 0.53046 0.69168 0.41175 0.0
H1217 H 0.53501 0.66798 0.5595 0.0
C1218 C 0.52465 0.67106 0.37943 0.0
C1219 C 0.53357 0.69054 0.47796 0.0
C1220 C 0.53852 0.71208 0.51641 0.0
C1221 C 0.52275 0.64943 0.41068 0.0
C1222 C 0.52711 0.64808 0.47627 0.0
C1223 C 0.53197 0.66881 0.50917 0.0
C1224 C 0.52732 0.62521 0.51068 0.0
C1225 C 0.51604 0.62816 0.37289 0.0
C1226 C 0.51191 0.62068 0.56108 0.0
C1227 C 0.51151 0.59872 0.5908 0.0
C1228 C 0.52669 0.58084 0.57143 0.0
C1229 C 0.54253 0.58578 0.52238 0.0
C1230 C 0.54292 0.60759 0.4926 0.0
H1231 H 0.50679 0.63296 0.32889 0.0
H1232 H 0.53209 0.61858 0.35948 0.0
H1233 H 0.50466 0.61624 0.4007 0.0
H1234 H 0.49971 0.63391 0.5763 0.0
H1235 H 0.49873 0.59549 0.62731 0.0
H1236 H 0.79954 0.59647 0.2777 0.0
H1237 H 0.83092 0.58744 0.35161 0.0
H1238 H 0.82117 0.51412 0.31534 0.0
H1239 H 0.78964 0.52321 0.2406 0.0
H1240 H 0.83375 0.56034 0.46105 0.0
H1241 H 0.89063 0.52478 0.27219 0.0
H1242 H 0.86458 0.5412 0.25544 0.0
H1243 H 0.86235 0.51126 0.27954 0.0
C1244 C 0.80375 0.57837 0.28643 0.0
C1245 C 0.79201 0.56056 0.25336 0.0
C1246 C 0.8218 0.57323 0.32857 0.0
C1247 C 0.82888 0.55012 0.33839 0.0
C1248 C 0.81641 0.53214 0.30783 0.0
H1249 H 0.95102 0.49382 0.53401 0.0
H1250 H 0.91495 0.49924 0.47454 0.0
C1251 C 0.79813 0.5373 0.26579 0.0
C1252 C 0.84972 0.54525 0.37899 0.0
H1253 H 0.90561 0.52424 0.3753 0.0
C1254 C 0.84943 0.55237 0.4423 0.0
C1255 C 0.87033 0.53493 0.35483 0.0
C1256 C 0.87222 0.52774 0.28668 0.0
C1257 C 0.86888 0.54922 0.48206 0.0
C1258 C 0.88967 0.53915 0.45784 0.0
C1259 C 0.88985 0.53191 0.39447 0.0
C1260 C 0.91134 0.53585 0.49695 0.0
C1261 C 0.86657 0.5561 0.55021 0.0
C1262 C 0.92166 0.55448 0.53028 0.0
C1263 C 0.94218 0.55125 0.56542 0.0
C1264 C 0.9534 0.52953 0.56679 0.0
C1265 C 0.94302 0.51088 0.53383 0.0
C1266 C 0.92236 0.514 0.49938 0.0
H1267 H 0.84802 0.55614 0.56585 0.0
H1268 H 0.87639 0.54397 0.58051 0.0
H1269 H 0.87369 0.57395 0.55688 0.0
H1270 H 0.91405 0.57168 0.52859 0.0
H1271 H 0.94927 0.56582 0.59161 0.0
loop_
_geom_bond_atom_site_label_1
_geom_bond_atom_site_label_2
_geom_bond_distance
_geom_bond_site_symmetry_2
_ccdc_geom_bond_type
H0 C3 0.931 . S
H1 C6 0.928 . S
H2 C8 0.930 . S
C3 H0 0.931 . S
C3 C4 1.413 . S
C3 C5 1.360 . S
C4 C3 1.413 . S
C4 C8 1.429 . S
C5 C3 1.360 . S
C5 C6 1.372 . S
C6 H1 0.928 . S
C6 C5 1.372 . S
C6 C7 1.404 . S
C7 C6 1.404 . S
C7 C8 1.391 . S
C8 H2 0.930 . S
C8 C4 1.429 . S
C8 C7 1.391 . S
H9 C12 0.931 . S
H10 C15 0.928 . S
H11 C17 0.930 . S
C12 H9 0.931 . S
C12 C13 1.413 . S
C12 C14 1.360 . S
C13 C12 1.413 . S
C13 C17 1.429 . S
C14 C12 1.360 . S
C14 C15 1.372 . S
C15 H10 0.928 . S
C15 C14 1.372 . S
C15 C16 1.404 . S
C16 C15 1.404 . S
C16 C17 1.391 . S
C17 H11 0.930 . S
C17 C13 1.429 . S
C17 C16 1.391 . S
H18 C21 0.931 . S
H19 C24 0.928 . S
H20 C26 0.930 . S
C21 H18 0.931 . S
C21 C22 1.413 . S
C21 C23 1.360 . S
C22 C21 1.413 . S
C22 C26 1.429 . S
C23 C21 1.360 . S
C23 C24 1.372 . S
C24 H19 0.928 . S
C24 C23 1.372 . S
C24 C25 1.404 . S
C25 C24 1.404 . S
C25 C26 1.391 . S
C26 H20 0.930 . S
C26 C22 1.429 . S
C26 C25 1.391 . S
H27 C30 0.931 . S
H28 C33 0.928 . S
H29 C35 0.930 . S
C30 H27 0.931 . S
C30 C31 1.413 . S
C30 C32 1.360 . S
C31 C30 1.413 . S
C31 C35 1.429 . S
C32 C30 1.360 . S
C32 C33 1.372 . S
C33 H28 0.928 . S
C33 C32 1.372 . S
C33 C34 1.404 . S
C34 C33 1.404 . S
C34 C35 1.391 . S
C35 H29 0.930 . S
C35 C31 1.429 . S
C35 C34 1.391 . S
H36 C39 0.931 . S
H37 C42 0.928 . S
H38 C44 0.930 . S
C39 H36 0.931 . S
C39 C40 1.413 1_554 S
C39 C41 1.360 . S
C40 C39 1.413 1_556 S
C40 C44 1.429 . S
C41 C39 1.360 . S
C41 C42 1.372 . S
C42 H37 0.928 . S
C42 C41 1.372 . S
C42 C43 1.404 . S
C43 C42 1.404 . S
C43 C44 1.391 1_554 S
C44 H38 0.930 . S
C44 C40 1.429 . S
C44 C43 1.391 1_556 S
H45 C48 0.931 . S
H46 C51 0.928 . S
H47 C53 0.930 . S
C48 H45 0.931 . S
C48 C49 1.413 1_554 S
C48 C50 1.360 . S
C49 C48 1.413 1_556 S
C49 C53 1.429 . S
C50 C48 1.360 . S
C50 C51 1.372 . S
C51 H46 0.928 . S
C51 C50 1.372 . S
C51 C52 1.404 . S
C52 C51 1.404 . S
C52 C53 1.391 1_554 S
C53 H47 0.930 . S
C53 C49 1.429 . S
C53 C52 1.391 1_556 S
H54 C57 0.931 . S
H55 C60 0.928 . S
H56 C62 0.930 . S
C57 H54 0.931 . S
C57 C58 1.413 1_554 S
C57 C59 1.360 . S
C58 C57 1.413 1_556 S
C58 C62 1.429 . S
C59 C57 1.360 . S
C59 C60 1.372 . S
C60 H55 0.928 . S
C60 C59 1.372 . S
C60 C61 1.404 . S
C61 C60 1.404 . S
C61 C62 1.391 1_554 S
C62 H56 0.930 . S
C62 C58 1.429 . S
C62 C61 1.391 1_556 S
H63 C66 0.931 . S
H64 C69 0.928 . S
H65 C71 0.930 . S
C66 H63 0.931 . S
C66 C67 1.413 . S
C66 C68 1.360 1_554 S
C67 C66 1.413 . S
C67 C71 1.429 . S
C68 C66 1.360 1_556 S
C68 C69 1.372 . S
C69 H64 0.928 . S
C69 C68 1.372 . S
C69 C70 1.404 1_556 S
C70 C69 1.404 1_554 S
C70 C71 1.391 . S
C71 H65 0.930 . S
C71 C67 1.429 . S
C71 C70 1.391 . S
Tb72 N101 2.617 . S
Tb72 N107 2.572 . S
Tb72 O116 2.465 . S
Tb72 O117 2.387 1_545 S
Tb72 O119 2.428 . S
Tb72 O120 2.308 1_655 S
Tb72 O124 2.349 1_655 S
Tb72 O127 2.393 . S
Tb72 C136 2.802 . S
C73 N74 1.379 . S
C73 C76 1.416 . S
C73 C80 1.424 . S
N74 C73 1.379 . S
N74 C77 1.335 1_545 S
N74 Tb83 2.617 1_545 S
C75 C77 1.392 1_545 S
C75 C78 1.339 . S
C75 H95 0.930 . S
C76 C73 1.416 . S
C76 C78 1.416 . S
C76 C82 1.448 . S
C77 N74 1.335 1_565 S
C77 C75 1.392 1_565 S
C77 H88 0.928 . S
C78 C75 1.339 . S
C78 C76 1.416 . S
C78 H99 0.930 . S
C79 C80 1.413 . S
C79 C81 1.427 . S
C79 C85 1.416 . S
C80 C73 1.424 . S
C80 C79 1.413 . S
C80 N84 1.361 . S
C81 C79 1.427 . S
C81 C82 1.328 . S
C81 H96 0.929 . S
C82 C76 1.448 . S
C82 C81 1.328 . S
C82 H97 0.930 . S
Tb83 N74 2.617 1_565 S
Tb83 N84 2.572 1_565 S
Tb83 O118 2.349 . S
Tb83 O121 2.393 . S
Tb83 O122 2.465 . S
Tb83 O123 2.387 1_565 S
Tb83 O125 2.428 . S
Tb83 O126 2.308 1_465 S
Tb83 C147 2.802 . S
N84 C80 1.361 . S
N84 Tb83 2.572 1_545 S
N84 C86 1.340 . S
C85 C79 1.416 . S
C85 C87 1.332 . S
C85 H93 0.931 . S
C86 N84 1.340 . S
C86 C87 1.407 . S
C86 H92 0.907 1_455 S
C87 C85 1.332 . S
C87 C86 1.407 . S
C87 H89 0.929 . S
H88 C77 0.928 . S
H89 C87 0.929 . S
H90 C105 0.930 . S
H91 C112 0.929 1_455 S
H92 C86 0.907 1_655 S
H93 C85 0.931 . S
H94 C108 0.930 1_455 S
H95 C75 0.930 . S
H96 C81 0.929 . S
H97 C82 0.930 . S
H98 C103 0.930 . S
H99 C78 0.930 . S
H100 C111 0.931 . S
N101 Tb72 2.617 . S
N101 C102 1.379 . S
N101 C105 1.334 . S
C102 N101 1.379 . S
C102 C104 1.416 1_545 S
C102 C110 1.424 . S
C103 H98 0.930 . S
C103 C105 1.390 . S
C103 C106 1.332 1_545 S
C104 C102 1.416 1_565 S
C104 C106 1.418 . S
C104 C137 1.448 . S
C105 H90 0.930 . S
C105 N101 1.334 . S
C105 C103 1.390 . S
C106 C103 1.332 1_565 S
C106 C104 1.418 . S
C106 H113 0.936 . S
N107 Tb72 2.572 . S
N107 C108 1.340 . S
N107 C110 1.361 . S
C108 H94 0.930 1_655 S
C108 N107 1.340 . S
C108 C112 1.407 1_545 S
C109 C110 1.413 1_565 S
C109 C111 1.416 . S
C109 C138 1.427 . S
C110 C102 1.424 . S
C110 N107 1.361 . S
C110 C109 1.413 1_545 S
C111 H100 0.931 . S
C111 C109 1.416 . S
C111 C112 1.332 . S
C112 H91 0.929 1_655 S
C112 C108 1.407 1_565 S
C112 C111 1.332 . S
H113 C106 0.936 . S
H114 C137 0.930 . S
H115 C138 0.929 . S
O116 Tb72 2.465 . S
O116 C136 1.264 . S
O117 Tb72 2.387 1_565 S
O117 C128 1.264 . S
O118 Tb83 2.349 . S
O118 C128 1.243 1_455 S
O119 Tb72 2.428 . S
O119 C136 1.256 . S
O120 Tb72 2.308 1_455 S
O120 C135 1.266 . S
O121 Tb83 2.393 . S
O121 C135 1.248 1_565 S
O122 Tb83 2.465 . S
O122 C147 1.264 . S
O123 Tb83 2.387 1_545 S
O123 C139 1.264 . S
O124 Tb72 2.349 1_455 S
O124 C139 1.243 . S
O125 Tb83 2.428 . S
O125 C147 1.256 . S
O126 Tb83 2.308 1_645 S
O126 C146 1.266 . S
O127 Tb72 2.393 . S
O127 C146 1.248 . S
C128 O117 1.264 . S
C128 O118 1.243 1_655 S
C129 C132 1.399 . S
C129 C134 1.383 . S
C129 C136 1.496 . S
C130 C131 1.399 . S
C130 C134 1.389 . S
C131 C130 1.399 . S
C131 C133 1.380 . S
C131 H148 0.929 . S
C132 C129 1.399 . S
C132 C133 1.392 . S
C132 H149 0.929 . S
C133 C131 1.380 . S
C133 C132 1.392 . S
C133 H150 0.929 . S
C134 C129 1.383 . S
C134 C130 1.389 . S
C134 H151 0.931 1_655 S
C135 O120 1.266 . S
C135 O121 1.248 1_545 S
C136 Tb72 2.802 . S
C136 O116 1.264 . S
C136 O119 1.256 . S
C136 C129 1.496 . S
C137 C104 1.448 . S
C137 H114 0.930 . S
C137 C138 1.328 . S
C138 C109 1.427 . S
C138 H115 0.929 . S
C138 C137 1.328 . S
C139 O123 1.264 . S
C139 O124 1.243 . S
C140 C143 1.399 . S
C140 C144 1.383 . S
C140 C147 1.496 . S
C141 C142 1.399 . S
C141 C144 1.389 . S
C142 C141 1.399 . S
C142 C145 1.380 . S
C142 H152 0.929 . S
C143 C140 1.399 . S
C143 C145 1.392 . S
C143 H153 0.929 . S
C144 C140 1.383 . S
C144 C141 1.389 . S
C144 H154 0.931 . S
C145 C142 1.380 . S
C145 C143 1.392 . S
C145 H155 0.929 . S
C146 O126 1.266 . S
C146 O127 1.248 . S
C147 Tb83 2.802 . S
C147 O122 1.264 . S
C147 O125 1.256 . S
C147 C140 1.496 . S
H148 C131 0.929 . S
H149 C132 0.929 . S
H150 C133 0.929 . S
H151 C134 0.931 1_455 S
H152 C142 0.929 . S
H153 C143 0.929 . S
H154 C144 0.931 . S
H155 C145 0.929 . S
Tb156 N185 2.617 . S
Tb156 N191 2.572 . S
Tb156 O200 2.465 . S
Tb156 O201 2.387 . S
Tb156 O203 2.428 . S
Tb156 O204 2.308 . S
Tb156 O208 2.349 1_545 S
Tb156 O211 2.393 . S
Tb156 C220 2.802 . S
C157 N158 1.379 . S
C157 C160 1.416 . S
C157 C164 1.424 . S
N158 C157 1.379 . S
N158 C161 1.334 . S
N158 Tb167 2.617 . S
C159 C161 1.390 . S
C159 C162 1.339 . S
C159 H179 0.930 . S
C160 C157 1.416 . S
C160 C162 1.416 . S
C160 C166 1.448 . S
C161 N158 1.334 . S
C161 C159 1.390 . S
C161 H172 0.930 . S
C162 C159 1.339 . S
C162 C160 1.416 . S
C162 H183 0.930 . S
C163 C164 1.413 . S
C163 C165 1.427 . S
C163 C169 1.416 . S
C164 C157 1.424 . S
C164 C163 1.413 . S
C164 N168 1.361 . S
C165 C163 1.427 . S
C165 C166 1.328 . S
C165 H180 0.929 . S
C166 C160 1.448 . S
C166 C165 1.328 . S
C166 H181 0.930 . S
Tb167 N158 2.617 . S
Tb167 N168 2.572 . S
Tb167 O202 2.349 1_565 S
Tb167 O205 2.393 . S
Tb167 O206 2.465 . S
Tb167 O207 2.387 . S
Tb167 O209 2.428 . S
Tb167 O210 2.308 1_565 S
Tb167 C231 2.802 . S
N168 C164 1.361 . S
N168 Tb167 2.572 . S
N168 C170 1.340 . S
C169 C163 1.416 . S
C169 C171 1.332 . S
C169 H177 0.931 . S
C170 N168 1.340 . S
C170 C171 1.407 . S
C170 H176 0.930 . S
C171 C169 1.332 . S
C171 C170 1.407 . S
C171 H173 0.929 . S
H172 C161 0.930 . S
H173 C171 0.929 . S
H174 C189 0.930 . S
H175 C196 0.929 . S
H176 C170 0.930 . S
H177 C169 0.931 . S
H178 C192 0.930 . S
H179 C159 0.930 . S
H180 C165 0.929 . S
H181 C166 0.930 . S
H182 C187 0.930 . S
H183 C162 0.930 . S
H184 C195 0.931 . S
N185 Tb156 2.617 . S
N185 C186 1.379 . S
N185 C189 1.334 . S
C186 N185 1.379 . S
C186 C188 1.416 . S
C186 C194 1.424 . S
C187 H182 0.930 . S
C187 C189 1.390 . S
C187 C190 1.339 . S
C188 C186 1.416 . S
C188 C190 1.416 . S
C188 C221 1.448 . S
C189 H174 0.930 . S
C189 N185 1.334 . S
C189 C187 1.390 . S
C190 C187 1.339 . S
C190 C188 1.416 . S
C190 H197 0.930 . S
N191 Tb156 2.572 . S
N191 C192 1.340 . S
N191 C194 1.361 . S
C192 H178 0.930 . S
C192 N191 1.340 . S
C192 C196 1.407 . S
C193 C194 1.413 . S
C193 C195 1.416 . S
C193 C222 1.427 . S
C194 C186 1.424 . S
C194 N191 1.361 . S
C194 C193 1.413 . S
C195 H184 0.931 . S
C195 C193 1.416 . S
C195 C196 1.332 . S
C196 H175 0.929 . S
C196 C192 1.407 . S
C196 C195 1.332 . S
H197 C190 0.930 . S
H198 C221 0.930 . S
H199 C222 0.929 . S
O200 Tb156 2.465 . S
O200 C220 1.264 . S
O201 Tb156 2.387 . S
O201 C212 1.264 . S
O202 Tb167 2.349 1_545 S
O202 C212 1.243 . S
O203 Tb156 2.428 . S
O203 C220 1.256 . S
O204 Tb156 2.308 . S
O204 C219 1.259 1_545 S
O205 Tb167 2.393 . S
O205 C219 1.252 . S
O206 Tb167 2.465 . S
O206 C231 1.264 . S
O207 Tb167 2.387 . S
O207 C223 1.264 . S
O208 Tb156 2.349 1_565 S
O208 C223 1.243 . S
O209 Tb167 2.428 . S
O209 C231 1.256 . S
O210 Tb167 2.308 1_545 S
O210 C230 1.266 . S
O211 Tb156 2.393 . S
O211 C230 1.248 . S
C212 O201 1.264 . S
C212 O202 1.243 . S
C213 C216 1.399 . S
C213 C218 1.383 . S
C213 C220 1.496 . S
C214 C215 1.399 . S
C214 C218 1.389 . S
C215 C214 1.399 . S
C215 C217 1.380 . S
C215 H232 0.929 . S
C216 C213 1.399 . S
C216 C217 1.392 . S
C216 H233 0.929 . S
C217 C215 1.380 . S
C217 C216 1.392 . S
C217 H234 0.929 . S
C218 C213 1.383 . S
C218 C214 1.389 . S
C218 H235 0.931 . S
C219 O204 1.259 1_565 S
C219 O205 1.252 . S
C220 Tb156 2.802 . S
C220 O200 1.264 . S
C220 O203 1.256 . S
C220 C213 1.496 . S
C221 C188 1.448 . S
C221 H198 0.930 . S
C221 C222 1.328 . S
C222 C193 1.427 . S
C222 H199 0.929 . S
C222 C221 1.328 . S
C223 O207 1.264 . S
C223 O208 1.243 . S
C224 C227 1.399 . S
C224 C228 1.383 1_565 S
C224 C231 1.496 . S
C225 C226 1.399 1_545 S
C225 C228 1.389 . S
C226 C225 1.399 1_565 S
C226 C229 1.380 . S
C226 H236 0.929 . S
C227 C224 1.399 . S
C227 C229 1.392 . S
C227 H237 0.929 . S
C228 C224 1.383 1_545 S
C228 C225 1.389 . S
C228 H238 0.931 . S
C229 C226 1.380 . S
C229 C227 1.392 . S
C229 H239 0.929 . S
C230 O210 1.266 . S
C230 O211 1.248 . S
C231 Tb167 2.802 . S
C231 O206 1.264 . S
C231 O209 1.256 . S
C231 C224 1.496 . S
H232 C215 0.929 . S
H233 C216 0.929 . S
H234 C217 0.929 . S
H235 C218 0.931 . S
H236 C226 0.929 . S
H237 C227 0.929 . S
H238 C228 0.931 . S
H239 C229 0.929 . S
Tb240 N269 2.617 . S
Tb240 N275 2.572 . S
Tb240 O284 2.465 . S
Tb240 O285 2.387 . S
Tb240 O287 2.428 . S
Tb240 O288 2.308 . S
Tb240 O292 2.349 . S
Tb240 O295 2.393 . S
Tb240 C304 2.802 . S
C241 N242 1.379 . S
C241 C244 1.416 . S
C241 C248 1.424 . S
N242 C241 1.379 . S
N242 C245 1.334 . S
N242 Tb251 2.617 . S
C243 C245 1.390 . S
C243 C246 1.339 . S
C243 H263 0.930 . S
C244 C241 1.416 . S
C244 C246 1.416 . S
C244 C250 1.448 . S
C245 N242 1.334 . S
C245 C243 1.390 . S
C245 H256 0.930 . S
C246 C243 1.339 . S
C246 C244 1.416 . S
C246 H267 0.930 . S
C247 C248 1.413 . S
C247 C249 1.427 . S
C247 C253 1.416 . S
C248 C241 1.424 . S
C248 C247 1.413 . S
C248 N252 1.361 . S
C249 C247 1.427 . S
C249 C250 1.328 . S
C249 H264 0.929 . S
C250 C244 1.448 . S
C250 C249 1.328 . S
C250 H265 0.930 . S
Tb251 N242 2.617 . S
Tb251 N252 2.572 . S
Tb251 O286 2.349 . S
Tb251 O289 2.393 . S
Tb251 O290 2.465 . S
Tb251 O291 2.387 . S
Tb251 O293 2.428 . S
Tb251 O294 2.308 . S
Tb251 C315 2.802 . S
N252 C248 1.361 . S
N252 Tb251 2.572 . S
N252 C254 1.340 . S
C253 C247 1.416 . S
C253 C255 1.332 . S
C253 H261 0.931 . S
C254 N252 1.340 . S
C254 C255 1.407 . S
C254 H260 0.930 . S
C255 C253 1.332 . S
C255 C254 1.407 . S
C255 H257 0.929 . S
H256 C245 0.930 . S
H257 C255 0.929 . S
H258 C273 0.930 . S
H259 C280 0.929 . S
H260 C254 0.930 . S
H261 C253 0.931 . S
H262 C276 0.930 . S
H263 C243 0.930 . S
H264 C249 0.929 . S
H265 C250 0.930 . S
H266 C271 0.930 . S
H267 C246 0.930 . S
H268 C279 0.931 . S
N269 Tb240 2.617 . S
N269 C270 1.379 . S
N269 C273 1.334 . S
C270 N269 1.379 . S
C270 C272 1.416 . S
C270 C278 1.424 . S
C271 H266 0.930 . S
C271 C273 1.390 . S
C271 C274 1.339 . S
C272 C270 1.416 . S
C272 C274 1.416 . S
C272 C305 1.448 . S
C273 H258 0.930 . S
C273 N269 1.334 . S
C273 C271 1.390 . S
C274 C271 1.339 . S
C274 C272 1.416 . S
C274 H281 0.930 . S
N275 Tb240 2.572 . S
N275 C276 1.340 . S
N275 C278 1.361 . S
C276 H262 0.930 . S
C276 N275 1.340 . S
C276 C280 1.407 . S
C277 C278 1.413 . S
C277 C279 1.416 . S
C277 C306 1.427 . S
C278 C270 1.424 . S
C278 N275 1.361 . S
C278 C277 1.413 . S
C279 H268 0.931 . S
C279 C277 1.416 . S
C279 C280 1.332 . S
C280 H259 0.929 . S
C280 C276 1.407 . S
C280 C279 1.332 . S
H281 C274 0.930 . S
H282 C305 0.930 . S
H283 C306 0.929 . S
O284 Tb240 2.465 . S
O284 C304 1.264 . S
O285 Tb240 2.387 . S
O285 C296 1.264 . S
O286 Tb251 2.349 . S
O286 C296 1.243 . S
O287 Tb240 2.428 . S
O287 C304 1.256 . S
O288 Tb240 2.308 . S
O288 C303 1.266 . S
O289 Tb251 2.393 . S
O289 C303 1.248 . S
O290 Tb251 2.465 . S
O290 C315 1.264 . S
O291 Tb251 2.387 . S
O291 C307 1.264 . S
O292 Tb240 2.349 . S
O292 C307 1.243 . S
O293 Tb251 2.428 . S
O293 C315 1.256 . S
O294 Tb251 2.308 . S
O294 C314 1.266 . S
O295 Tb240 2.393 . S
O295 C314 1.248 . S
C296 O285 1.264 . S
C296 O286 1.243 . S
C297 C300 1.399 . S
C297 C302 1.383 . S
C297 C304 1.496 . S
C298 C299 1.399 . S
C298 C302 1.389 . S
C299 C298 1.399 . S
C299 C301 1.380 . S
C299 H316 0.929 . S
C300 C297 1.399 . S
C300 C301 1.392 . S
C300 H317 0.929 . S
C301 C299 1.380 . S
C301 C300 1.392 . S
C301 H318 0.929 . S
C302 C297 1.383 . S
C302 C298 1.389 . S
C302 H319 0.931 . S
C303 O288 1.266 . S
C303 O289 1.248 . S
C304 Tb240 2.802 . S
C304 O284 1.264 . S
C304 O287 1.256 . S
C304 C297 1.496 . S
C305 C272 1.448 . S
C305 H282 0.930 . S
C305 C306 1.328 . S
C306 C277 1.427 . S
C306 H283 0.929 . S
C306 C305 1.328 . S
C307 O291 1.264 . S
C307 O292 1.243 . S
C308 C311 1.399 . S
C308 C312 1.383 . S
C308 C315 1.496 . S
C309 C310 1.399 . S
C309 C312 1.389 . S
C310 C309 1.399 . S
C310 C313 1.380 . S
C310 H320 0.929 . S
C311 C308 1.399 . S
C311 C313 1.392 . S
C311 H321 0.929 . S
C312 C308 1.383 . S
C312 C309 1.389 . S
C312 H322 0.931 . S
C313 C310 1.380 . S
C313 C311 1.392 . S
C313 H323 0.929 . S
C314 O294 1.266 . S
C314 O295 1.248 . S
C315 Tb251 2.802 . S
C315 O290 1.264 . S
C315 O293 1.256 . S
C315 C308 1.496 . S
H316 C299 0.929 . S
H317 C300 0.929 . S
H318 C301 0.929 . S
H319 C302 0.931 . S
H320 C310 0.929 . S
H321 C311 0.929 . S
H322 C312 0.931 . S
H323 C313 0.929 . S
Tb324 N353 2.617 . S
Tb324 N359 2.572 . S
Tb324 O368 2.465 . S
Tb324 O369 2.387 1_455 S
Tb324 O371 2.428 . S
Tb324 O372 2.308 . S
Tb324 O376 2.349 . S
Tb324 O379 2.393 . S
Tb324 C388 2.802 . S
C325 N326 1.379 1_455 S
C325 C328 1.416 . S
C325 C332 1.424 . S
N326 C325 1.379 1_655 S
N326 C329 1.334 . S
N326 Tb335 2.617 . S
C327 C329 1.390 1_455 S
C327 C330 1.339 . S
C327 H347 0.931 1_455 S
C328 C325 1.416 . S
C328 C330 1.416 . S
C328 C334 1.448 . S
C329 N326 1.334 . S
C329 C327 1.390 1_655 S
C329 H340 0.930 . S
C330 C327 1.339 . S
C330 C328 1.416 . S
C330 H351 0.930 . S
C331 C332 1.413 . S
C331 C333 1.427 . S
C331 C337 1.416 . S
C332 C325 1.424 . S
C332 C331 1.413 . S
C332 N336 1.361 . S
C333 C331 1.427 . S
C333 C334 1.328 . S
C333 H348 0.929 . S
C334 C328 1.448 . S
C334 C333 1.328 . S
C334 H349 0.930 . S
Tb335 N326 2.617 . S
Tb335 N336 2.572 1_655 S
Tb335 O370 2.349 . S
Tb335 O373 2.393 . S
Tb335 O374 2.465 . S
Tb335 O375 2.387 1_655 S
Tb335 O377 2.428 . S
Tb335 O378 2.320 . S
Tb335 C399 2.802 . S
N336 C332 1.361 . S
N336 Tb335 2.572 1_455 S
N336 C338 1.340 . S
C337 C331 1.416 . S
C337 C339 1.332 . S
C337 H345 0.931 . S
C338 N336 1.340 . S
C338 C339 1.407 . S
C338 H344 0.930 1_455 S
C339 C337 1.332 . S
C339 C338 1.407 . S
C339 H341 0.929 . S
H340 C329 0.930 . S
H341 C339 0.929 . S
H342 C357 0.930 . S
H343 C364 0.929 . S
H344 C338 0.930 1_655 S
H345 C337 0.931 . S
H346 C360 0.930 . S
H347 C327 0.931 1_655 S
H348 C333 0.929 . S
H349 C334 0.930 . S
H350 C355 0.930 . S
H351 C330 0.930 . S
H352 C363 0.931 . S
N353 Tb324 2.617 . S
N353 C354 1.379 . S
N353 C357 1.334 . S
C354 N353 1.379 . S
C354 C356 1.416 1_455 S
C354 C362 1.427 . S
C355 H350 0.930 . S
C355 C357 1.390 . S
C355 C358 1.339 1_455 S
C356 C354 1.416 1_655 S
C356 C358 1.416 . S
C356 C389 1.448 . S
C357 H342 0.930 . S
C357 N353 1.334 . S
C357 C355 1.390 . S
C358 C355 1.339 1_655 S
C358 C356 1.416 . S
C358 H365 0.930 . S
N359 Tb324 2.572 . S
N359 C360 1.340 . S
N359 C362 1.372 . S
C360 H346 0.930 . S
C360 N359 1.340 . S
C360 C364 1.407 1_455 S
C361 C362 1.399 1_655 S
C361 C363 1.416 . S
C361 C390 1.427 . S
C362 C354 1.427 . S
C362 N359 1.372 . S
C362 C361 1.399 1_455 S
C363 H352 0.931 . S
C363 C361 1.416 . S
C363 C364 1.332 . S
C364 H343 0.929 . S
C364 C360 1.407 1_655 S
C364 C363 1.332 . S
H365 C358 0.930 . S
H366 C389 0.930 . S
H367 C390 0.929 . S
O368 Tb324 2.465 . S
O368 C388 1.264 . S
O369 Tb324 2.387 1_655 S
O369 C380 1.264 . S
O370 Tb335 2.349 . S
O370 C380 1.243 . S
O371 Tb324 2.428 . S
O371 C388 1.256 . S
O372 Tb324 2.308 . S
O372 C387 1.266 . S
O373 Tb335 2.393 . S
O373 C387 1.248 1_655 S
O374 Tb335 2.465 . S
O374 C399 1.264 . S
O375 Tb335 2.387 1_455 S
O375 C391 1.264 . S
O376 Tb324 2.349 . S
O376 C391 1.243 . S
O377 Tb335 2.428 . S
O377 C399 1.256 . S
O378 Tb335 2.320 . S
O378 C398 1.258 1_655 S
O379 Tb324 2.393 . S
O379 C398 1.248 . S
C380 O369 1.264 . S
C380 O370 1.243 . S
C381 C384 1.399 . S
C381 C386 1.383 . S
C381 C388 1.496 . S
C382 C383 1.399 . S
C382 C386 1.389 . S
C383 C382 1.399 . S
C383 C385 1.380 . S
C383 H400 0.929 . S
C384 C381 1.399 . S
C384 C385 1.392 . S
C384 H401 0.929 . S
C385 C383 1.380 . S
C385 C384 1.392 . S
C385 H402 0.929 . S
C386 C381 1.383 . S
C386 C382 1.389 . S
C386 H403 0.931 . S
C387 O372 1.266 . S
C387 O373 1.248 1_455 S
C388 Tb324 2.802 . S
C388 O368 1.264 . S
C388 O371 1.256 . S
C388 C381 1.496 . S
C389 C356 1.448 . S
C389 H366 0.930 . S
C389 C390 1.328 . S
C390 C361 1.427 . S
C390 H367 0.929 . S
C390 C389 1.328 . S
C391 O375 1.264 . S
C391 O376 1.243 . S
C392 C395 1.399 . S
C392 C396 1.383 . S
C392 C399 1.496 . S
C393 C394 1.399 . S
C393 C396 1.389 . S
C394 C393 1.399 . S
C394 C397 1.380 . S
C394 H404 0.929 . S
C395 C392 1.399 . S
C395 C397 1.392 . S
C395 H405 0.929 . S
C396 C392 1.383 . S
C396 C393 1.389 . S
C396 H406 0.931 . S
C397 C394 1.380 . S
C397 C395 1.392 . S
C397 H407 0.929 . S
C398 O378 1.258 1_455 S
C398 O379 1.248 . S
C399 Tb335 2.802 . S
C399 O374 1.264 . S
C399 O377 1.256 . S
C399 C392 1.496 . S
H400 C383 0.929 . S
H401 C384 0.929 . S
H402 C385 0.929 . S
H403 C386 0.931 . S
H404 C394 0.929 . S
H405 C395 0.929 . S
H406 C396 0.931 . S
H407 C397 0.929 . S
H408 C416 0.929 . S
H409 C418 0.930 . S
H410 C420 0.930 . S
H411 C423 0.929 . S
H412 C426 0.930 . S
H413 C428 0.960 . S
H414 C428 0.960 . S
H415 C428 0.960 . S
C416 H408 0.929 . S
C416 C417 1.377 . S
C416 C418 1.384 . S
C417 C416 1.377 . S
C417 C423 1.390 . S
C418 H409 0.930 . S
C418 C416 1.384 . S
C418 C419 1.372 . S
C419 C418 1.372 . S
C419 C420 1.400 . S
C419 C424 1.490 . S
C420 H410 0.930 . S
C420 C419 1.400 . S
C420 C423 1.386 . S
H421 C437 0.888 1_565 S
H422 C438 0.931 1_565 S
C423 H411 0.929 . S
C423 C417 1.390 . S
C423 C420 1.386 . S
C424 C419 1.490 . S
C424 C426 1.395 . S
C424 C427 1.403 . S
H425 C431 0.930 . S
C426 H412 0.930 . S
C426 C424 1.395 . S
C426 C429 1.403 . S
C427 C424 1.403 . S
C427 C428 1.524 . S
C427 C431 1.400 . S
C428 H413 0.960 . S
C428 H414 0.960 . S
C428 H415 0.960 . S
C428 C427 1.524 . S
C429 C426 1.403 . S
C429 C430 1.392 . S
C429 C433 1.495 . S
C430 C429 1.392 . S
C430 C431 1.385 . S
C430 C432 1.478 . S
C431 H425 0.930 . S
C431 C427 1.400 . S
C431 C430 1.385 . S
C432 C430 1.478 . S
C432 C434 1.381 . S
C432 C438 1.383 . S
C433 C429 1.495 . S
C433 H439 0.959 . S
C433 H440 0.961 . S
C433 H441 0.960 . S
C434 C432 1.381 . S
C434 C435 1.394 . S
C434 H442 0.930 . S
C435 C434 1.394 . S
C435 C436 1.383 . S
C435 H443 0.929 . S
C436 C435 1.383 . S
C436 C437 1.411 . S
C437 H421 0.888 1_545 S
C437 C436 1.411 . S
C437 C438 1.387 . S
C438 H422 0.931 1_545 S
C438 C432 1.383 . S
C438 C437 1.387 . S
H439 C433 0.959 . S
H440 C433 0.961 . S
H441 C433 0.960 . S
H442 C434 0.930 . S
H443 C435 0.929 . S
H444 C452 0.929 . S
H445 C454 0.930 . S
H446 C456 0.930 . S
H447 C459 0.929 . S
H448 C462 0.930 . S
H449 C464 0.960 . S
H450 C464 0.960 . S
H451 C464 0.960 . S
C452 H444 0.929 . S
C452 C453 1.377 . S
C452 C454 1.384 . S
C453 C452 1.377 . S
C453 C459 1.390 . S
C454 H445 0.930 . S
C454 C452 1.384 . S
C454 C455 1.372 . S
C455 C454 1.372 . S
C455 C456 1.400 . S
C455 C460 1.490 . S
C456 H446 0.930 . S
C456 C455 1.400 . S
C456 C459 1.386 . S
H457 C473 0.930 . S
H458 C474 0.931 . S
C459 H447 0.929 . S
C459 C453 1.390 . S
C459 C456 1.386 . S
C460 C455 1.490 . S
C460 C462 1.395 . S
C460 C463 1.403 . S
H461 C467 0.930 . S
C462 H448 0.930 . S
C462 C460 1.395 . S
C462 C465 1.403 . S
C463 C460 1.403 . S
C463 C464 1.524 . S
C463 C467 1.400 . S
C464 H449 0.960 . S
C464 H450 0.960 . S
C464 H451 0.960 . S
C464 C463 1.524 . S
C465 C462 1.403 . S
C465 C466 1.392 . S
C465 C469 1.495 . S
C466 C465 1.392 . S
C466 C467 1.385 . S
C466 C468 1.478 . S
C467 H461 0.930 . S
C467 C463 1.400 . S
C467 C466 1.385 . S
C468 C466 1.478 . S
C468 C470 1.381 . S
C468 C474 1.383 . S
C469 C465 1.495 . S
C469 H475 0.959 . S
C469 H476 0.961 . S
C469 H477 0.960 . S
C470 C468 1.381 . S
C470 C471 1.394 . S
C470 H478 0.930 . S
C471 C470 1.394 . S
C471 C472 1.383 . S
C471 H479 0.929 . S
C472 C471 1.383 . S
C472 C473 1.377 . S
C473 H457 0.930 . S
C473 C472 1.377 . S
C473 C474 1.379 . S
C474 H458 0.931 . S
C474 C468 1.383 . S
C474 C473 1.379 . S
H475 C469 0.959 . S
H476 C469 0.961 . S
H477 C469 0.960 . S
H478 C470 0.930 . S
H479 C471 0.929 . S
H480 C488 0.929 . S
H481 C490 0.930 . S
H482 C492 0.930 . S
H483 C495 0.929 . S
H484 C498 0.930 . S
H485 C500 0.960 . S
H486 C500 0.960 . S
H487 C500 0.960 . S
C488 H480 0.929 . S
C488 C489 1.377 . S
C488 C490 1.384 . S
C489 C488 1.377 . S
C489 C495 1.390 . S
C490 H481 0.930 . S
C490 C488 1.384 . S
C490 C491 1.372 . S
C491 C490 1.372 . S
C491 C492 1.400 . S
C491 C496 1.490 . S
C492 H482 0.930 . S
C492 C491 1.400 . S
C492 C495 1.386 . S
H493 C509 0.930 . S
H494 C510 0.931 . S
C495 H483 0.929 . S
C495 C489 1.390 . S
C495 C492 1.386 . S
C496 C491 1.490 . S
C496 C498 1.395 . S
C496 C499 1.403 . S
H497 C503 0.930 . S
C498 H484 0.930 . S
C498 C496 1.395 . S
C498 C501 1.403 . S
C499 C496 1.403 . S
C499 C500 1.524 . S
C499 C503 1.400 . S
C500 H485 0.960 . S
C500 H486 0.960 . S
C500 H487 0.960 . S
C500 C499 1.524 . S
C501 C498 1.403 . S
C501 C502 1.392 . S
C501 C505 1.495 . S
C502 C501 1.392 . S
C502 C503 1.385 . S
C502 C504 1.478 . S
C503 H497 0.930 . S
C503 C499 1.400 . S
C503 C502 1.385 . S
C504 C502 1.478 . S
C504 C506 1.381 . S
C504 C510 1.383 . S
C505 C501 1.495 . S
C505 H511 0.959 . S
C505 H512 0.961 . S
C505 H513 0.960 . S
C506 C504 1.381 . S
C506 C507 1.394 . S
C506 H514 0.930 . S
C507 C506 1.394 . S
C507 C508 1.383 . S
C507 H515 0.929 . S
C508 C507 1.383 . S
C508 C509 1.377 . S
C509 H493 0.930 . S
C509 C508 1.377 . S
C509 C510 1.379 . S
C510 H494 0.931 . S
C510 C504 1.383 . S
C510 C509 1.379 . S
H511 C505 0.959 . S
H512 C505 0.961 . S
H513 C505 0.960 . S
H514 C506 0.930 . S
H515 C507 0.929 . S
H516 C524 0.929 . S
H517 C526 0.930 . S
H518 C528 0.930 . S
H519 C531 0.929 . S
H520 C534 0.930 . S
H521 C536 0.960 . S
H522 C536 0.960 . S
H523 C536 0.960 . S
C524 H516 0.929 . S
C524 C525 1.377 . S
C524 C526 1.384 . S
C525 C524 1.377 . S
C525 C531 1.390 . S
C526 H517 0.930 . S
C526 C524 1.384 . S
C526 C527 1.372 . S
C527 C526 1.372 . S
C527 C528 1.400 . S
C527 C532 1.490 . S
C528 H518 0.930 . S
C528 C527 1.400 . S
C528 C531 1.386 . S
H529 C545 0.930 . S
H530 C546 0.931 . S
C531 H519 0.929 . S
C531 C525 1.390 . S
C531 C528 1.386 . S
C532 C527 1.490 . S
C532 C534 1.395 . S
C532 C535 1.403 . S
H533 C539 0.930 . S
C534 H520 0.930 . S
C534 C532 1.395 . S
C534 C537 1.403 . S
C535 C532 1.403 . S
C535 C536 1.524 . S
C535 C539 1.400 . S
C536 H521 0.960 . S
C536 H522 0.960 . S
C536 H523 0.960 . S
C536 C535 1.524 . S
C537 C534 1.403 . S
C537 C538 1.392 . S
C537 C541 1.495 1_455 S
C538 C537 1.392 . S
C538 C539 1.385 . S
C538 C540 1.478 . S
C539 H533 0.930 . S
C539 C535 1.400 . S
C539 C538 1.385 . S
C540 C538 1.478 . S
C540 C542 1.381 . S
C540 C546 1.383 . S
C541 C537 1.495 1_655 S
C541 H547 0.959 . S
C541 H548 0.961 . S
C541 H549 0.960 . S
C542 C540 1.381 . S
C542 C543 1.394 . S
C542 H550 0.930 . S
C543 C542 1.394 . S
C543 C544 1.383 . S
C543 H551 0.929 . S
C544 C543 1.383 . S
C544 C545 1.377 . S
C545 H529 0.930 . S
C545 C544 1.377 . S
C545 C546 1.379 . S
C546 H530 0.931 . S
C546 C540 1.383 . S
C546 C545 1.379 . S
H547 C541 0.959 . S
H548 C541 0.961 . S
H549 C541 0.960 . S
H550 C542 0.930 . S
H551 C543 0.929 . S
H552 C560 0.929 . S
H553 C562 0.930 1_545 S
H554 C564 0.930 . S
H555 C567 0.929 . S
H556 C570 0.930 . S
H557 C572 0.960 1_545 S
H558 C572 0.960 1_545 S
H559 C572 0.960 . S
C560 H552 0.929 . S
C560 C561 1.377 . S
C560 C562 1.384 . S
C561 C560 1.377 . S
C561 C567 1.390 . S
C562 H553 0.930 1_565 S
C562 C560 1.384 . S
C562 C563 1.372 . S
C563 C562 1.372 . S
C563 C564 1.400 . S
C563 C568 1.490 . S
C564 H554 0.930 . S
C564 C563 1.400 . S
C564 C567 1.386 . S
H565 C581 0.930 . S
H566 C582 0.931 . S
C567 H555 0.929 . S
C567 C561 1.390 . S
C567 C564 1.386 . S
C568 C563 1.490 . S
C568 C570 1.395 . S
C568 C571 1.403 1_554 S
H569 C575 0.930 . S
C570 H556 0.930 . S
C570 C568 1.395 . S
C570 C573 1.403 1_554 S
C571 C568 1.403 1_556 S
C571 C572 1.524 . S
C571 C575 1.400 . S
C572 H557 0.960 1_565 S
C572 H558 0.960 1_565 S
C572 H559 0.960 . S
C572 C571 1.524 . S
C573 C570 1.403 1_556 S
C573 C574 1.392 . S
C573 C577 1.495 . S
C574 C573 1.392 . S
C574 C575 1.385 . S
C574 C576 1.478 . S
C575 H569 0.930 . S
C575 C571 1.400 . S
C575 C574 1.385 . S
C576 C574 1.478 . S
C576 C578 1.381 1_565 S
C576 C582 1.383 . S
C577 C573 1.495 . S
C577 H583 0.959 1_556 S
C577 H584 0.961 . S
C577 H585 0.960 . S
C578 C576 1.381 1_545 S
C578 C579 1.394 . S
C578 H586 0.930 . S
C579 C578 1.394 . S
C579 C580 1.363 1_545 S
C579 H587 0.929 . S
C580 C579 1.363 1_565 S
C580 C581 1.403 . S
C581 H565 0.930 . S
C581 C580 1.403 . S
C581 C582 1.379 . S
C582 H566 0.931 . S
C582 C576 1.383 . S
C582 C581 1.379 . S
H583 C577 0.959 1_554 S
H584 C577 0.961 . S
H585 C577 0.960 . S
H586 C578 0.930 . S
H587 C579 0.929 . S
H588 C596 0.929 . S
H589 C598 0.930 . S
H590 C600 0.930 . S
H591 C603 0.929 . S
H592 C606 0.930 . S
H593 C608 0.960 . S
H594 C608 0.960 . S
H595 C608 0.960 . S
C596 H588 0.929 . S
C596 C597 1.377 . S
C596 C598 1.384 . S
C597 C596 1.377 . S
C597 C603 1.390 . S
C598 H589 0.930 . S
C598 C596 1.384 . S
C598 C599 1.372 . S
C599 C598 1.372 . S
C599 C600 1.400 . S
C599 C604 1.490 . S
C600 H590 0.930 . S
C600 C599 1.400 . S
C600 C603 1.386 . S
H601 C617 0.930 . S
H602 C618 0.931 . S
C603 H591 0.929 . S
C603 C597 1.390 . S
C603 C600 1.386 . S
C604 C599 1.490 . S
C604 C606 1.395 . S
C604 C607 1.403 1_554 S
H605 C611 0.930 . S
C606 H592 0.930 . S
C606 C604 1.395 . S
C606 C609 1.403 1_554 S
C607 C604 1.403 1_556 S
C607 C608 1.524 . S
C607 C611 1.400 . S
C608 H593 0.960 . S
C608 H594 0.960 . S
C608 H595 0.960 . S
C608 C607 1.524 . S
C609 C606 1.403 1_556 S
C609 C610 1.392 . S
C609 C613 1.495 . S
C610 C609 1.392 . S
C610 C611 1.385 . S
C610 C612 1.478 . S
C611 H605 0.930 . S
C611 C607 1.400 . S
C611 C610 1.385 . S
C612 C610 1.478 . S
C612 C614 1.381 . S
C612 C618 1.383 . S
C613 C609 1.495 . S
C613 H619 0.959 1_556 S
C613 H620 0.961 . S
C613 H621 0.960 . S
C614 C612 1.381 . S
C614 C615 1.394 . S
C614 H622 0.930 . S
C615 C614 1.394 . S
C615 C616 1.383 . S
C615 H623 0.929 . S
C616 C615 1.383 . S
C616 C617 1.377 . S
C617 H601 0.930 . S
C617 C616 1.377 . S
C617 C618 1.379 . S
C618 H602 0.931 . S
C618 C612 1.383 . S
C618 C617 1.379 . S
H619 C613 0.959 1_554 S
H620 C613 0.961 . S
H621 C613 0.960 . S
H622 C614 0.930 . S
H623 C615 0.929 . S
H624 C632 0.929 . S
H625 C634 0.930 . S
H626 C636 0.930 . S
H627 C639 0.929 . S
H628 C642 0.930 . S
H629 C644 0.960 . S
H630 C644 0.960 . S
H631 C644 0.960 . S
C632 H624 0.929 . S
C632 C633 1.377 . S
C632 C634 1.384 . S
C633 C632 1.377 . S
C633 C639 1.390 . S
C634 H625 0.930 . S
C634 C632 1.384 . S
C634 C635 1.372 . S
C635 C634 1.372 . S
C635 C636 1.400 . S
C635 C640 1.490 . S
C636 H626 0.930 . S
C636 C635 1.400 . S
C636 C639 1.386 . S
H637 C653 0.930 . S
H638 C654 0.931 . S
C639 H627 0.929 . S
C639 C633 1.390 . S
C639 C636 1.386 . S
C640 C635 1.490 . S
C640 C642 1.395 1_554 S
C640 C643 1.403 . S
H641 C647 0.930 . S
C642 H628 0.930 . S
C642 C640 1.395 1_556 S
C642 C645 1.403 . S
C643 C640 1.403 . S
C643 C644 1.524 . S
C643 C647 1.400 1_554 S
C644 H629 0.960 . S
C644 H630 0.960 . S
C644 H631 0.960 . S
C644 C643 1.524 . S
C645 C642 1.403 . S
C645 C646 1.392 . S
C645 C649 1.495 . S
C646 C645 1.392 . S
C646 C647 1.385 . S
C646 C648 1.478 . S
C647 H641 0.930 . S
C647 C643 1.400 1_556 S
C647 C646 1.385 . S
C648 C646 1.478 . S
C648 C650 1.381 . S
C648 C654 1.383 . S
C649 C645 1.495 . S
C649 H655 0.959 . S
C649 H656 0.961 . S
C649 H657 0.960 . S
C650 C648 1.381 . S
C650 C651 1.394 . S
C650 H658 0.930 . S
C651 C650 1.394 . S
C651 C652 1.383 . S
C651 H659 0.929 . S
C652 C651 1.383 . S
C652 C653 1.377 . S
C653 H637 0.930 . S
C653 C652 1.377 . S
C653 C654 1.379 . S
C654 H638 0.931 . S
C654 C648 1.383 . S
C654 C653 1.379 . S
H655 C649 0.959 . S
H656 C649 0.961 . S
H657 C649 0.960 . S
H658 C650 0.930 . S
H659 C651 0.929 . S
H660 C668 0.929 . S
H661 C670 0.930 . S
H662 C672 0.930 . S
H663 C675 0.929 . S
H664 C678 0.930 1_455 S
H665 C680 0.960 . S
H666 C680 0.960 . S
H667 C680 0.960 . S
C668 H660 0.929 . S
C668 C669 1.377 . S
C668 C670 1.384 . S
C669 C668 1.377 . S
C669 C675 1.390 . S
C670 H661 0.930 . S
C670 C668 1.384 . S
C670 C671 1.372 . S
C671 C670 1.372 . S
C671 C672 1.400 . S
C671 C676 1.490 . S
C672 H662 0.930 . S
C672 C671 1.400 . S
C672 C675 1.386 . S
H673 C689 0.930 . S
H674 C690 0.934 . S
C675 H663 0.929 . S
C675 C669 1.390 . S
C675 C672 1.386 . S
C676 C671 1.490 . S
C676 C678 1.395 1_554 S
C676 C679 1.403 . S
H677 C683 0.930 . S
C678 H664 0.930 1_655 S
C678 C676 1.395 1_556 S
C678 C681 1.403 1_655 S
C679 C676 1.403 . S
C679 C680 1.524 . S
C679 C683 1.400 1_554 S
C680 H665 0.960 . S
C680 H666 0.960 . S
C680 H667 0.960 . S
C680 C679 1.524 . S
C681 C678 1.403 1_455 S
C681 C682 1.392 1_455 S
C681 C685 1.495 . S
C682 C681 1.392 1_655 S
C682 C683 1.385 . S
C682 C684 1.478 . S
C683 H677 0.930 . S
C683 C679 1.400 1_556 S
C683 C682 1.385 . S
C684 C682 1.478 . S
C684 C686 1.381 . S
C684 C690 1.379 1_655 S
C685 C681 1.495 . S
C685 H691 0.959 . S
C685 H692 0.961 . S
C685 H693 0.960 . S
C686 C684 1.381 . S
C686 C687 1.394 . S
C686 H694 0.930 . S
C687 C686 1.394 . S
C687 C688 1.383 . S
C687 H695 0.929 . S
C688 C687 1.383 . S
C688 C689 1.377 1_655 S
C689 H673 0.930 . S
C689 C688 1.377 1_455 S
C689 C690 1.381 . S
C690 H674 0.934 . S
C690 C684 1.379 1_455 S
C690 C689 1.381 . S
H691 C685 0.959 . S
H692 C685 0.961 . S
H693 C685 0.960 . S
H694 C686 0.930 . S
H695 C687 0.929 . S
H696 C704 0.929 . S
H697 C706 0.930 . S
H698 C708 0.930 . S
H699 C711 0.929 . S
H700 C714 0.930 . S
H701 C716 0.960 . S
H702 C716 0.960 . S
H703 C716 0.960 . S
C704 H696 0.929 . S
C704 C705 1.377 . S
C704 C706 1.384 . S
C705 C704 1.377 . S
C705 C711 1.390 . S
C706 H697 0.930 . S
C706 C704 1.384 . S
C706 C707 1.372 . S
C707 C706 1.372 . S
C707 C708 1.400 . S
C707 C712 1.490 . S
C708 H698 0.930 . S
C708 C707 1.400 . S
C708 C711 1.386 . S
H709 C725 0.930 . S
H710 C726 0.931 . S
C711 H699 0.929 . S
C711 C705 1.390 . S
C711 C708 1.386 . S
C712 C707 1.490 . S
C712 C714 1.395 . S
C712 C715 1.403 . S
H713 C719 0.930 . S
C714 H700 0.930 . S
C714 C712 1.395 . S
C714 C717 1.403 . S
C715 C712 1.403 . S
C715 C716 1.524 . S
C715 C719 1.400 . S
C716 H701 0.960 . S
C716 H702 0.960 . S
C716 H703 0.960 . S
C716 C715 1.524 . S
C717 C714 1.403 . S
C717 C718 1.392 . S
C717 C721 1.495 . S
C718 C717 1.392 . S
C718 C719 1.385 . S
C718 C720 1.478 . S
C719 H713 0.930 . S
C719 C715 1.400 . S
C719 C718 1.385 . S
C720 C718 1.478 . S
C720 C722 1.381 . S
C720 C726 1.383 1_455 S
C721 C717 1.495 . S
C721 H727 0.959 . S
C721 H728 0.961 . S
C721 H729 0.960 . S
C722 C720 1.381 . S
C722 C723 1.394 . S
C722 H730 0.930 . S
C723 C722 1.394 . S
C723 C724 1.383 1_455 S
C723 H731 0.929 . S
C724 C723 1.383 1_655 S
C724 C725 1.377 . S
C725 H709 0.930 . S
C725 C724 1.377 . S
C725 C726 1.379 . S
C726 H710 0.931 . S
C726 C720 1.383 1_655 S
C726 C725 1.379 . S
H727 C721 0.959 . S
H728 C721 0.961 . S
H729 C721 0.960 . S
H730 C722 0.930 . S
H731 C723 0.929 . S
H732 C740 0.929 . S
H733 C742 0.930 . S
H734 C744 0.930 . S
H735 C747 0.929 . S
H736 C750 0.930 . S
H737 C752 0.960 . S
H738 C752 0.960 . S
H739 C752 0.960 . S
C740 H732 0.929 . S
C740 C741 1.377 . S
C740 C742 1.384 . S
C741 C740 1.377 . S
C741 C747 1.390 . S
C742 H733 0.930 . S
C742 C740 1.384 . S
C742 C743 1.372 . S
C743 C742 1.372 . S
C743 C744 1.400 . S
C743 C748 1.490 . S
C744 H734 0.930 . S
C744 C743 1.400 . S
C744 C747 1.386 . S
H745 C761 0.930 . S
H746 C762 0.931 1_565 S
C747 H735 0.929 . S
C747 C741 1.390 . S
C747 C744 1.386 . S
C748 C743 1.490 . S
C748 C750 1.395 . S
C748 C751 1.403 . S
H749 C755 0.930 . S
C750 H736 0.930 . S
C750 C748 1.395 . S
C750 C753 1.403 . S
C751 C748 1.403 . S
C751 C752 1.524 . S
C751 C755 1.400 . S
C752 H737 0.960 . S
C752 H738 0.960 . S
C752 H739 0.960 . S
C752 C751 1.524 . S
C753 C750 1.403 . S
C753 C754 1.392 . S
C753 C757 1.495 1_545 S
C754 C753 1.392 . S
C754 C755 1.385 . S
C754 C756 1.478 . S
C755 H749 0.930 . S
C755 C751 1.400 . S
C755 C754 1.385 . S
C756 C754 1.478 . S
C756 C758 1.381 . S
C756 C762 1.383 . S
C757 C753 1.495 1_565 S
C757 H763 0.959 . S
C757 H764 0.961 . S
C757 H765 0.960 . S
C758 C756 1.381 . S
C758 C759 1.394 . S
C758 H766 0.930 . S
C759 C758 1.394 . S
C759 C760 1.383 . S
C759 H767 0.929 . S
C760 C759 1.383 . S
C760 C761 1.377 1_545 S
C761 H745 0.930 . S
C761 C760 1.377 1_565 S
C761 C762 1.379 1_565 S
C762 H746 0.931 1_545 S
C762 C756 1.383 . S
C762 C761 1.379 1_545 S
H763 C757 0.959 . S
H764 C757 0.961 . S
H765 C757 0.960 . S
H766 C758 0.930 . S
H767 C759 0.929 . S
H768 C776 0.929 . S
H769 C778 0.930 . S
H770 C780 0.930 . S
H771 C783 0.929 . S
H772 C786 0.930 . S
H773 C788 0.960 . S
H774 C788 0.960 . S
H775 C788 0.960 . S
C776 H768 0.929 . S
C776 C777 1.377 . S
C776 C778 1.384 . S
C777 C776 1.377 . S
C777 C783 1.390 . S
C778 H769 0.930 . S
C778 C776 1.384 . S
C778 C779 1.372 . S
C779 C778 1.372 . S
C779 C780 1.400 . S
C779 C784 1.490 . S
C780 H770 0.930 . S
C780 C779 1.400 . S
C780 C783 1.386 . S
H781 C797 0.930 . S
H782 C798 0.931 . S
C783 H771 0.929 . S
C783 C777 1.390 . S
C783 C780 1.386 . S
C784 C779 1.490 . S
C784 C786 1.395 . S
C784 C787 1.403 . S
H785 C791 0.930 . S
C786 H772 0.930 . S
C786 C784 1.395 . S
C786 C789 1.403 . S
C787 C784 1.403 . S
C787 C788 1.524 . S
C787 C791 1.400 . S
C788 H773 0.960 . S
C788 H774 0.960 . S
C788 H775 0.960 . S
C788 C787 1.524 . S
C789 C786 1.403 . S
C789 C790 1.392 . S
C789 C793 1.495 . S
C790 C789 1.392 . S
C790 C791 1.385 . S
C790 C792 1.478 . S
C791 H785 0.930 . S
C791 C787 1.400 . S
C791 C790 1.385 . S
C792 C790 1.478 . S
C792 C794 1.381 . S
C792 C798 1.383 . S
C793 C789 1.495 . S
C793 H799 0.959 . S
C793 H800 0.961 . S
C793 H801 0.960 . S
C794 C792 1.381 . S
C794 C795 1.394 . S
C794 H802 0.930 . S
C795 C794 1.394 . S
C795 C796 1.383 . S
C795 H803 0.929 . S
C796 C795 1.383 . S
C796 C797 1.377 . S
C797 H781 0.930 . S
C797 C796 1.377 . S
C797 C798 1.379 . S
C798 H782 0.931 . S
C798 C792 1.383 . S
C798 C797 1.379 . S
H799 C793 0.959 . S
H800 C793 0.961 . S
H801 C793 0.960 . S
H802 C794 0.930 . S
H803 C795 0.929 . S
H804 C812 0.929 . S
H805 C814 0.930 . S
H806 C816 0.930 . S
H807 C819 0.929 . S
H808 C822 0.930 . S
H809 C824 0.960 . S
H810 C824 0.960 . S
H811 C824 0.960 . S
C812 H804 0.929 . S
C812 C813 1.377 . S
C812 C814 1.384 . S
C813 C812 1.377 . S
C813 C819 1.390 . S
C814 H805 0.930 . S
C814 C812 1.384 . S
C814 C815 1.372 . S
C815 C814 1.372 . S
C815 C816 1.400 . S
C815 C820 1.490 . S
C816 H806 0.930 . S
C816 C815 1.400 . S
C816 C819 1.386 . S
H817 C833 0.930 . S
H818 C834 0.931 . S
C819 H807 0.929 . S
C819 C813 1.390 . S
C819 C816 1.386 . S
C820 C815 1.490 . S
C820 C822 1.395 . S
C820 C823 1.403 . S
H821 C827 0.930 . S
C822 H808 0.930 . S
C822 C820 1.395 . S
C822 C825 1.403 . S
C823 C820 1.403 . S
C823 C824 1.524 . S
C823 C827 1.400 . S
C824 H809 0.960 . S
C824 H810 0.960 . S
C824 H811 0.960 . S
C824 C823 1.524 . S
C825 C822 1.403 . S
C825 C826 1.392 . S
C825 C829 1.495 . S
C826 C825 1.392 . S
C826 C827 1.385 . S
C826 C828 1.478 . S
C827 H821 0.930 . S
C827 C823 1.400 . S
C827 C826 1.385 . S
C828 C826 1.478 . S
C828 C830 1.381 . S
C828 C834 1.383 . S
C829 C825 1.495 . S
C829 H835 0.959 . S
C829 H836 0.961 . S
C829 H837 0.960 . S
C830 C828 1.381 . S
C830 C831 1.394 . S
C830 H838 0.930 . S
C831 C830 1.394 . S
C831 C832 1.383 . S
C831 H839 0.929 . S
C832 C831 1.383 . S
C832 C833 1.377 . S
C833 H817 0.930 . S
C833 C832 1.377 . S
C833 C834 1.379 . S
C834 H818 0.931 . S
C834 C828 1.383 . S
C834 C833 1.379 . S
H835 C829 0.959 . S
H836 C829 0.961 . S
H837 C829 0.960 . S
H838 C830 0.930 . S
H839 C831 0.929 . S
H840 C848 0.929 . S
H841 C850 0.930 . S
H842 C852 0.930 1_455 S
H843 C855 0.929 . S
H844 C858 0.930 . S
H845 C860 0.960 . S
H846 C860 0.960 . S
H847 C860 0.960 . S
C848 H840 0.929 . S
C848 C849 1.377 . S
C848 C850 1.384 . S
C849 C848 1.377 . S
C849 C855 1.390 . S
C850 H841 0.930 . S
C850 C848 1.384 . S
C850 C851 1.372 . S
C851 C850 1.372 . S
C851 C852 1.400 . S
C851 C856 1.490 . S
C852 H842 0.930 1_655 S
C852 C851 1.400 . S
C852 C855 1.386 . S
H853 C869 0.930 . S
H854 C870 0.931 . S
C855 H843 0.929 . S
C855 C849 1.390 . S
C855 C852 1.386 . S
C856 C851 1.490 . S
C856 C858 1.395 . S
C856 C859 1.403 1_554 S
H857 C863 0.930 . S
C858 H844 0.930 . S
C858 C856 1.395 . S
C858 C861 1.403 . S
C859 C856 1.403 1_556 S
C859 C860 1.524 . S
C859 C863 1.400 . S
C860 H845 0.960 . S
C860 H846 0.960 . S
C860 H847 0.960 . S
C860 C859 1.524 . S
C861 C858 1.403 . S
C861 C862 1.392 1_554 S
C861 C865 1.495 . S
C862 C861 1.392 1_556 S
C862 C863 1.385 . S
C862 C864 1.481 . S
C863 H857 0.930 . S
C863 C859 1.400 . S
C863 C862 1.385 . S
C864 C862 1.481 . S
C864 C866 1.390 . S
C864 C870 1.370 1_655 S
C865 C861 1.495 . S
C865 H871 0.959 . S
C865 H872 0.961 1_655 S
C865 H873 0.960 . S
C866 C864 1.390 . S
C866 C867 1.394 . S
C866 H874 0.930 . S
C867 C866 1.394 . S
C867 C868 1.383 1_655 S
C867 H875 0.929 . S
C868 C867 1.383 1_455 S
C868 C869 1.377 . S
C869 H853 0.930 . S
C869 C868 1.377 . S
C869 C870 1.379 . S
C870 H854 0.931 . S
C870 C864 1.370 1_455 S
C870 C869 1.379 . S
H871 C865 0.959 . S
H872 C865 0.961 1_455 S
H873 C865 0.960 . S
H874 C866 0.930 . S
H875 C867 0.929 . S
H876 C884 0.929 1_545 S
H877 C886 0.930 1_545 S
H878 C888 0.930 . S
H879 C891 0.929 . S
H880 C894 0.934 1_556 S
H881 C896 0.960 . S
H882 C896 0.960 . S
H883 C896 0.960 . S
C884 H876 0.929 1_565 S
C884 C885 1.377 . S
C884 C886 1.384 . S
C885 C884 1.377 . S
C885 C891 1.390 . S
C886 H877 0.930 1_565 S
C886 C884 1.384 . S
C886 C887 1.372 . S
C887 C886 1.372 . S
C887 C888 1.400 . S
C887 C892 1.490 . S
C888 H878 0.930 . S
C888 C887 1.400 . S
C888 C891 1.386 . S
H889 C905 0.930 . S
H890 C906 0.931 . S
C891 H879 0.929 . S
C891 C885 1.390 . S
C891 C888 1.386 . S
C892 C887 1.490 . S
C892 C894 1.395 . S
C892 C895 1.403 . S
H893 C899 0.930 . S
C894 H880 0.934 1_554 S
C894 C892 1.395 . S
C894 C897 1.403 1_564 S
C895 C892 1.403 . S
C895 C896 1.524 . S
C895 C899 1.400 . S
C896 H881 0.960 . S
C896 H882 0.960 . S
C896 H883 0.960 . S
C896 C895 1.524 . S
C897 C894 1.403 1_546 S
C897 C898 1.387 1_545 S
C897 C901 1.495 . S
C898 C897 1.387 1_565 S
C898 C899 1.402 1_556 S
C898 C900 1.469 1_565 S
C899 H893 0.930 . S
C899 C895 1.400 . S
C899 C898 1.402 1_554 S
C900 C898 1.469 1_545 S
C900 C902 1.381 . S
C900 C906 1.383 1_545 S
C901 C897 1.495 . S
C901 H907 0.959 . S
C901 H908 0.961 . S
C901 H909 0.960 . S
C902 C900 1.381 . S
C902 C903 1.394 . S
C902 H910 0.930 . S
C903 C902 1.394 . S
C903 C904 1.383 . S
C903 H911 0.929 . S
C904 C903 1.383 . S
C904 C905 1.377 1_545 S
C905 H889 0.930 . S
C905 C904 1.377 1_565 S
C905 C906 1.379 . S
C906 H890 0.931 . S
C906 C900 1.383 1_565 S
C906 C905 1.379 . S
H907 C901 0.959 . S
H908 C901 0.961 . S
H909 C901 0.960 . S
H910 C902 0.930 . S
H911 C903 0.929 . S
H912 C920 0.929 . S
H913 C922 0.930 . S
H914 C924 0.930 . S
H915 C927 0.929 . S
H916 C930 0.930 . S
H917 C932 0.960 . S
H918 C932 0.960 . S
H919 C932 0.960 . S
C920 H912 0.929 . S
C920 C921 1.377 . S
C920 C922 1.384 . S
C921 C920 1.377 . S
C921 C927 1.390 . S
C922 H913 0.930 . S
C922 C920 1.384 . S
C922 C923 1.372 . S
C923 C922 1.372 . S
C923 C924 1.400 . S
C923 C928 1.490 . S
C924 H914 0.930 . S
C924 C923 1.400 . S
C924 C927 1.386 . S
H925 C941 0.930 . S
H926 C942 0.931 . S
C927 H915 0.929 . S
C927 C921 1.390 . S
C927 C924 1.386 . S
C928 C923 1.490 . S
C928 C930 1.395 1_554 S
C928 C931 1.403 . S
H929 C935 0.930 . S
C930 H916 0.930 . S
C930 C928 1.395 1_556 S
C930 C933 1.403 . S
C931 C928 1.403 . S
C931 C932 1.524 . S
C931 C935 1.400 . S
C932 H917 0.960 . S
C932 H918 0.960 . S
C932 H919 0.960 . S
C932 C931 1.524 . S
C933 C930 1.403 . S
C933 C934 1.392 . S
C933 C937 1.495 . S
C934 C933 1.392 . S
C934 C935 1.385 1_556 S
C934 C936 1.478 . S
C935 H929 0.930 . S
C935 C931 1.400 . S
C935 C934 1.385 1_554 S
C936 C934 1.478 . S
C936 C938 1.381 . S
C936 C942 1.383 . S
C937 C933 1.495 . S
C937 H943 0.959 . S
C937 H944 0.961 . S
C937 H945 0.960 . S
C938 C936 1.381 . S
C938 C939 1.394 . S
C938 H946 0.930 . S
C939 C938 1.394 . S
C939 C940 1.383 . S
C939 H947 0.929 . S
C940 C939 1.383 . S
C940 C941 1.377 . S
C941 H925 0.930 . S
C941 C940 1.377 . S
C941 C942 1.379 . S
C942 H926 0.931 . S
C942 C936 1.383 . S
C942 C941 1.379 . S
H943 C937 0.959 . S
H944 C937 0.961 . S
H945 C937 0.960 . S
H946 C938 0.930 . S
H947 C939 0.929 . S
H948 C956 0.929 . S
H949 C958 0.930 . S
H950 C960 0.930 . S
H951 C963 0.929 . S
H952 C966 0.930 . S
H953 C968 0.960 . S
H954 C968 0.960 . S
H955 C968 0.960 . S
C956 H948 0.929 . S
C956 C957 1.377 . S
C956 C958 1.384 . S
C957 C956 1.377 . S
C957 C963 1.390 . S
C958 H949 0.930 . S
C958 C956 1.384 . S
C958 C959 1.372 . S
C959 C958 1.372 . S
C959 C960 1.400 . S
C959 C964 1.490 . S
C960 H950 0.930 . S
C960 C959 1.400 . S
C960 C963 1.386 . S
H961 C977 0.930 . S
H962 C978 0.931 . S
C963 H951 0.929 . S
C963 C957 1.390 . S
C963 C960 1.386 . S
C964 C959 1.490 . S
C964 C966 1.395 . S
C964 C967 1.402 . S
H965 C971 0.930 . S
C966 H952 0.930 . S
C966 C964 1.395 . S
C966 C969 1.403 . S
C967 C964 1.402 . S
C967 C968 1.524 1_554 S
C967 C971 1.400 1_554 S
C968 H953 0.960 . S
C968 H954 0.960 . S
C968 H955 0.960 . S
C968 C967 1.524 1_556 S
C969 C966 1.403 . S
C969 C970 1.392 1_554 S
C969 C973 1.495 . S
C970 C969 1.392 1_556 S
C970 C971 1.385 . S
C970 C972 1.478 . S
C971 H965 0.930 . S
C971 C967 1.400 1_556 S
C971 C970 1.385 . S
C972 C970 1.478 . S
C972 C974 1.381 . S
C972 C978 1.383 . S
C973 C969 1.495 . S
C973 H979 0.959 . S
C973 H980 0.961 . S
C973 H981 0.960 . S
C974 C972 1.381 . S
C974 C975 1.394 . S
C974 H982 0.930 . S
C975 C974 1.394 . S
C975 C976 1.383 . S
C975 H983 0.929 . S
C976 C975 1.383 . S
C976 C977 1.377 . S
C977 H961 0.930 . S
C977 C976 1.377 . S
C977 C978 1.379 . S
C978 H962 0.931 . S
C978 C972 1.383 . S
C978 C977 1.379 . S
H979 C973 0.959 . S
H980 C973 0.961 . S
H981 C973 0.960 . S
H982 C974 0.930 . S
H983 C975 0.929 . S
H984 C992 0.929 . S
H985 C994 0.930 . S
H986 C996 0.930 . S
H987 C999 0.929 . S
H988 C1002 0.930 . S
H989 C1004 0.960 . S
H990 C1004 0.960 . S
H991 C1004 0.960 . S
C992 H984 0.929 . S
C992 C993 1.377 . S
C992 C994 1.384 . S
C993 C992 1.377 . S
C993 C999 1.390 . S
C994 H985 0.930 . S
C994 C992 1.384 . S
C994 C995 1.372 . S
C995 C994 1.372 . S
C995 C996 1.400 . S
C995 C1000 1.490 . S
C996 H986 0.930 . S
C996 C995 1.400 . S
C996 C999 1.386 . S
H997 C1013 0.930 1_655 S
H998 C1014 0.931 1_655 S
C999 H987 0.929 . S
C999 C993 1.390 . S
C999 C996 1.386 . S
C1000 C995 1.490 . S
C1000 C1002 1.395 . S
C1000 C1003 1.403 . S
H1001 C1007 0.930 . S
C1002 H988 0.930 . S
C1002 C1000 1.395 . S
C1002 C1005 1.403 . S
C1003 C1000 1.403 . S
C1003 C1004 1.524 . S
C1003 C1007 1.400 . S
C1004 H989 0.960 . S
C1004 H990 0.960 . S
C1004 H991 0.960 . S
C1004 C1003 1.524 . S
C1005 C1002 1.403 . S
C1005 C1006 1.392 . S
C1005 C1009 1.495 . S
C1006 C1005 1.392 . S
C1006 C1007 1.385 . S
C1006 C1008 1.478 . S
C1007 H1001 0.930 . S
C1007 C1003 1.400 . S
C1007 C1006 1.385 . S
C1008 C1006 1.478 . S
C1008 C1010 1.381 . S
C1008 C1014 1.383 . S
C1009 C1005 1.495 . S
C1009 H1015 0.959 . S
C1009 H1016 0.961 . S
C1009 H1017 0.960 . S
C1010 C1008 1.381 . S
C1010 C1011 1.394 . S
C1010 H1018 0.930 . S
C1011 C1010 1.394 . S
C1011 C1012 1.383 . S
C1011 H1019 0.929 . S
C1012 C1011 1.383 . S
C1012 C1013 1.377 . S
C1013 H997 0.930 1_455 S
C1013 C1012 1.377 . S
C1013 C1014 1.379 . S
C1014 H998 0.931 1_455 S
C1014 C1008 1.383 . S
C1014 C1013 1.379 . S
H1015 C1009 0.959 . S
H1016 C1009 0.961 . S
H1017 C1009 0.960 . S
H1018 C1010 0.930 . S
H1019 C1011 0.929 . S
H1020 C1028 0.929 . S
H1021 C1030 0.930 . S
H1022 C1032 0.930 . S
H1023 C1035 0.929 . S
H1024 C1038 0.930 . S
H1025 C1040 0.960 . S
H1026 C1040 0.960 . S
H1027 C1040 0.960 . S
C1028 H1020 0.929 . S
C1028 C1029 1.377 . S
C1028 C1030 1.384 . S
C1029 C1028 1.377 . S
C1029 C1035 1.390 . S
C1030 H1021 0.930 . S
C1030 C1028 1.384 . S
C1030 C1031 1.372 . S
C1031 C1030 1.372 . S
C1031 C1032 1.400 . S
C1031 C1036 1.490 . S
C1032 H1022 0.930 . S
C1032 C1031 1.400 . S
C1032 C1035 1.386 . S
H1033 C1049 0.930 1_565 S
H1034 C1050 0.905 1_565 S
C1035 H1023 0.929 . S
C1035 C1029 1.390 . S
C1035 C1032 1.386 . S
C1036 C1031 1.490 . S
C1036 C1038 1.395 . S
C1036 C1039 1.403 . S
H1037 C1043 0.930 . S
C1038 H1024 0.930 . S
C1038 C1036 1.395 . S
C1038 C1041 1.403 . S
C1039 C1036 1.403 . S
C1039 C1040 1.524 . S
C1039 C1043 1.400 . S
C1040 H1025 0.960 . S
C1040 H1026 0.960 . S
C1040 H1027 0.960 . S
C1040 C1039 1.524 . S
C1041 C1038 1.403 . S
C1041 C1042 1.392 . S
C1041 C1045 1.495 . S
C1042 C1041 1.392 . S
C1042 C1043 1.385 . S
C1042 C1044 1.478 . S
C1043 H1037 0.930 . S
C1043 C1039 1.400 . S
C1043 C1042 1.385 . S
C1044 C1042 1.478 . S
C1044 C1046 1.381 . S
C1044 C1050 1.383 . S
C1045 C1041 1.495 . S
C1045 H1051 0.959 . S
C1045 H1052 0.961 . S
C1045 H1053 0.960 . S
C1046 C1044 1.381 . S
C1046 C1047 1.394 . S
C1046 H1054 0.930 . S
C1047 C1046 1.394 . S
C1047 C1048 1.383 . S
C1047 H1055 0.929 . S
C1048 C1047 1.383 . S
C1048 C1049 1.377 . S
C1049 H1033 0.930 1_545 S
C1049 C1048 1.377 . S
C1049 C1050 1.379 . S
C1050 H1034 0.905 1_545 S
C1050 C1044 1.383 . S
C1050 C1049 1.379 . S
H1051 C1045 0.959 . S
H1052 C1045 0.961 . S
H1053 C1045 0.960 . S
H1054 C1046 0.930 . S
H1055 C1047 0.929 . S
H1056 C1064 0.929 . S
H1057 C1066 0.930 . S
H1058 C1068 0.930 . S
H1059 C1071 0.929 . S
H1060 C1074 0.930 . S
H1061 C1076 0.960 . S
H1062 C1076 0.960 . S
H1063 C1076 0.960 . S
C1064 H1056 0.929 . S
C1064 C1065 1.377 . S
C1064 C1066 1.384 . S
C1065 C1064 1.377 . S
C1065 C1071 1.390 . S
C1066 H1057 0.930 . S
C1066 C1064 1.384 . S
C1066 C1067 1.372 . S
C1067 C1066 1.372 . S
C1067 C1068 1.400 . S
C1067 C1072 1.490 . S
C1068 H1058 0.930 . S
C1068 C1067 1.400 . S
C1068 C1071 1.386 . S
H1069 C1085 0.930 . S
H1070 C1086 0.931 . S
C1071 H1059 0.929 . S
C1071 C1065 1.390 . S
C1071 C1068 1.386 . S
C1072 C1067 1.490 . S
C1072 C1074 1.395 . S
C1072 C1075 1.403 . S
H1073 C1079 0.930 . S
C1074 H1060 0.930 . S
C1074 C1072 1.395 . S
C1074 C1077 1.403 . S
C1075 C1072 1.403 . S
C1075 C1076 1.524 . S
C1075 C1079 1.400 . S
C1076 H1061 0.960 . S
C1076 H1062 0.960 . S
C1076 H1063 0.960 . S
C1076 C1075 1.524 . S
C1077 C1074 1.403 . S
C1077 C1078 1.392 . S
C1077 C1081 1.495 . S
C1078 C1077 1.392 . S
C1078 C1079 1.385 . S
C1078 C1080 1.478 . S
C1079 H1073 0.930 . S
C1079 C1075 1.400 . S
C1079 C1078 1.385 . S
C1080 C1078 1.478 . S
C1080 C1082 1.381 . S
C1080 C1086 1.383 . S
C1081 C1077 1.495 . S
C1081 H1087 0.959 . S
C1081 H1088 0.961 . S
C1081 H1089 0.960 . S
C1082 C1080 1.381 . S
C1082 C1083 1.394 . S
C1082 H1090 0.930 . S
C1083 C1082 1.394 . S
C1083 C1084 1.383 . S
C1083 H1091 0.929 . S
C1084 C1083 1.383 . S
C1084 C1085 1.377 . S
C1085 H1069 0.930 . S
C1085 C1084 1.377 . S
C1085 C1086 1.379 . S
C1086 H1070 0.931 . S
C1086 C1080 1.383 . S
C1086 C1085 1.379 . S
H1087 C1081 0.959 . S
H1088 C1081 0.961 . S
H1089 C1081 0.960 . S
H1090 C1082 0.930 . S
H1091 C1083 0.929 . S
H1092 C1100 0.929 . S
H1093 C1102 0.930 . S
H1094 C1104 0.930 . S
H1095 C1107 0.929 . S
H1096 C1110 0.930 . S
H1097 C1112 0.960 . S
H1098 C1112 0.960 . S
H1099 C1112 0.960 . S
C1100 H1092 0.929 . S
C1100 C1101 1.377 . S
C1100 C1102 1.384 . S
C1101 C1100 1.377 . S
C1101 C1107 1.390 . S
C1102 H1093 0.930 . S
C1102 C1100 1.384 . S
C1102 C1103 1.372 . S
C1103 C1102 1.372 . S
C1103 C1104 1.400 . S
C1103 C1108 1.490 . S
C1104 H1094 0.930 . S
C1104 C1103 1.400 . S
C1104 C1107 1.386 . S
H1105 C1121 0.930 . S
H1106 C1122 0.931 . S
C1107 H1095 0.929 . S
C1107 C1101 1.390 . S
C1107 C1104 1.386 . S
C1108 C1103 1.490 . S
C1108 C1110 1.395 . S
C1108 C1111 1.403 . S
H1109 C1115 0.930 . S
C1110 H1096 0.930 . S
C1110 C1108 1.395 . S
C1110 C1113 1.403 . S
C1111 C1108 1.403 . S
C1111 C1112 1.524 . S
C1111 C1115 1.400 . S
C1112 H1097 0.960 . S
C1112 H1098 0.960 . S
C1112 H1099 0.960 . S
C1112 C1111 1.524 . S
C1113 C1110 1.403 . S
C1113 C1114 1.392 . S
C1113 C1117 1.495 . S
C1114 C1113 1.392 . S
C1114 C1115 1.385 . S
C1114 C1116 1.478 . S
C1115 H1109 0.930 . S
C1115 C1111 1.400 . S
C1115 C1114 1.385 . S
C1116 C1114 1.478 . S
C1116 C1118 1.381 . S
C1116 C1122 1.383 . S
C1117 C1113 1.495 . S
C1117 H1123 0.959 . S
C1117 H1124 0.961 . S
C1117 H1125 0.960 . S
C1118 C1116 1.381 . S
C1118 C1119 1.394 . S
C1118 H1126 0.930 . S
C1119 C1118 1.394 . S
C1119 C1120 1.383 . S
C1119 H1127 0.929 . S
C1120 C1119 1.383 . S
C1120 C1121 1.377 . S
C1121 H1105 0.930 . S
C1121 C1120 1.377 . S
C1121 C1122 1.379 . S
C1122 H1106 0.931 . S
C1122 C1116 1.383 . S
C1122 C1121 1.379 . S
H1123 C1117 0.959 . S
H1124 C1117 0.961 . S
H1125 C1117 0.960 . S
H1126 C1118 0.930 . S
H1127 C1119 0.929 . S
H1128 C1136 0.901 1_455 S
H1129 C1138 0.930 1_455 S
H1130 C1140 0.930 . S
H1131 C1143 0.929 . S
H1132 C1146 0.930 1_455 S
H1133 C1148 0.960 . S
H1134 C1148 0.960 . S
H1135 C1148 0.960 . S
C1136 H1128 0.901 1_655 S
C1136 C1137 1.377 . S
C1136 C1138 1.384 . S
C1137 C1136 1.377 . S
C1137 C1143 1.390 . S
C1138 H1129 0.930 1_655 S
C1138 C1136 1.384 . S
C1138 C1139 1.372 . S
C1139 C1138 1.372 . S
C1139 C1140 1.400 . S
C1139 C1144 1.490 . S
C1140 H1130 0.930 . S
C1140 C1139 1.400 . S
C1140 C1143 1.386 . S
H1141 C1157 0.930 . S
H1142 C1158 0.931 . S
C1143 H1131 0.929 . S
C1143 C1137 1.390 . S
C1143 C1140 1.386 . S
C1144 C1139 1.490 . S
C1144 C1146 1.395 . S
C1144 C1147 1.403 . S
H1145 C1151 0.930 . S
C1146 H1132 0.930 1_655 S
C1146 C1144 1.395 . S
C1146 C1149 1.403 1_655 S
C1147 C1144 1.403 . S
C1147 C1148 1.524 . S
C1147 C1151 1.400 . S
C1148 H1133 0.960 . S
C1148 H1134 0.960 . S
C1148 H1135 0.960 . S
C1148 C1147 1.524 . S
C1149 C1146 1.403 1_455 S
C1149 C1150 1.392 1_455 S
C1149 C1153 1.495 . S
C1150 C1149 1.392 1_655 S
C1150 C1151 1.385 . S
C1150 C1152 1.478 . S
C1151 H1145 0.930 . S
C1151 C1147 1.400 . S
C1151 C1150 1.385 . S
C1152 C1150 1.478 . S
C1152 C1154 1.381 1_655 S
C1152 C1158 1.383 . S
C1153 C1149 1.495 . S
C1153 H1159 0.959 . S
C1153 H1160 0.961 . S
C1153 H1161 0.960 . S
C1154 C1152 1.381 1_455 S
C1154 C1155 1.394 . S
C1154 H1162 0.930 . S
C1155 C1154 1.394 . S
C1155 C1156 1.383 1_455 S
C1155 H1163 0.929 . S
C1156 C1155 1.383 1_655 S
C1156 C1157 1.377 . S
C1157 H1141 0.930 . S
C1157 C1156 1.377 . S
C1157 C1158 1.379 . S
C1158 H1142 0.931 . S
C1158 C1152 1.383 . S
C1158 C1157 1.379 . S
H1159 C1153 0.959 . S
H1160 C1153 0.961 . S
H1161 C1153 0.960 . S
H1162 C1154 0.930 . S
H1163 C1155 0.929 . S
H1164 C1172 0.929 . S
H1165 C1174 0.930 . S
H1166 C1176 0.930 1_545 S
H1167 C1179 0.961 . S
H1168 C1182 0.930 . S
H1169 C1184 0.960 . S
H1170 C1184 0.960 . S
H1171 C1184 0.960 . S
C1172 H1164 0.929 . S
C1172 C1173 1.377 . S
C1172 C1174 1.384 . S
C1173 C1172 1.377 . S
C1173 C1179 1.390 . S
C1174 H1165 0.930 . S
C1174 C1172 1.384 . S
C1174 C1175 1.372 . S
C1175 C1174 1.372 . S
C1175 C1176 1.400 . S
C1175 C1180 1.490 . S
C1176 H1166 0.930 1_565 S
C1176 C1175 1.400 . S
C1176 C1179 1.386 . S
H1177 C1193 0.930 . S
H1178 C1194 0.937 . S
C1179 H1167 0.961 . S
C1179 C1173 1.390 . S
C1179 C1176 1.386 . S
C1180 C1175 1.490 . S
C1180 C1182 1.395 . S
C1180 C1183 1.446 . S
H1181 C1187 0.919 1_545 S
C1182 H1168 0.930 . S
C1182 C1180 1.395 . S
C1182 C1185 1.403 . S
C1183 C1180 1.446 . S
C1183 C1184 1.484 1_565 S
C1183 C1187 1.399 . S
C1184 H1169 0.960 . S
C1184 H1170 0.960 . S
C1184 H1171 0.960 . S
C1184 C1183 1.484 1_545 S
C1185 C1182 1.403 . S
C1185 C1186 1.392 . S
C1185 C1189 1.495 . S
C1186 C1185 1.392 . S
C1186 C1187 1.396 . S
C1186 C1188 1.478 . S
C1187 H1181 0.919 1_565 S
C1187 C1183 1.399 . S
C1187 C1186 1.396 . S
C1188 C1186 1.478 . S
C1188 C1190 1.381 . S
C1188 C1194 1.374 1_565 S
C1189 C1185 1.495 . S
C1189 H1195 0.959 . S
C1189 H1196 0.961 . S
C1189 H1197 0.960 . S
C1190 C1188 1.381 . S
C1190 C1191 1.394 . S
C1190 H1198 0.930 . S
C1191 C1190 1.394 . S
C1191 C1192 1.383 . S
C1191 H1199 0.929 . S
C1192 C1191 1.383 . S
C1192 C1193 1.377 1_565 S
C1193 H1177 0.930 . S
C1193 C1192 1.377 1_545 S
C1193 C1194 1.382 . S
C1194 H1178 0.937 . S
C1194 C1188 1.374 1_545 S
C1194 C1193 1.382 . S
H1195 C1189 0.959 . S
H1196 C1189 0.961 . S
H1197 C1189 0.960 . S
H1198 C1190 0.930 . S
H1199 C1191 0.929 . S
H1200 C1208 0.929 . S
H1201 C1210 0.930 . S
H1202 C1212 0.930 . S
H1203 C1215 0.929 . S
H1204 C1218 0.930 . S
H1205 C1220 0.960 . S
H1206 C1220 0.960 . S
H1207 C1220 0.960 . S
C1208 H1200 0.929 . S
C1208 C1209 1.377 . S
C1208 C1210 1.384 . S
C1209 C1208 1.377 . S
C1209 C1215 1.390 . S
C1210 H1201 0.930 . S
C1210 C1208 1.384 . S
C1210 C1211 1.372 . S
C1211 C1210 1.372 . S
C1211 C1212 1.400 . S
C1211 C1216 1.490 . S
C1212 H1202 0.930 . S
C1212 C1211 1.400 . S
C1212 C1215 1.386 . S
H1213 C1229 0.930 . S
H1214 C1230 0.931 . S
C1215 H1203 0.929 . S
C1215 C1209 1.390 . S
C1215 C1212 1.386 . S
C1216 C1211 1.490 . S
C1216 C1218 1.395 . S
C1216 C1219 1.403 . S
H1217 C1223 0.930 . S
C1218 H1204 0.930 . S
C1218 C1216 1.395 . S
C1218 C1221 1.403 . S
C1219 C1216 1.403 . S
C1219 C1220 1.524 . S
C1219 C1223 1.400 . S
C1220 H1205 0.960 . S
C1220 H1206 0.960 . S
C1220 H1207 0.960 . S
C1220 C1219 1.524 . S
C1221 C1218 1.403 . S
C1221 C1222 1.392 . S
C1221 C1225 1.495 . S
C1222 C1221 1.392 . S
C1222 C1223 1.385 . S
C1222 C1224 1.478 . S
C1223 H1217 0.930 . S
C1223 C1219 1.400 . S
C1223 C1222 1.385 . S
C1224 C1222 1.478 . S
C1224 C1226 1.381 . S
C1224 C1230 1.383 . S
C1225 C1221 1.495 . S
C1225 H1231 0.959 . S
C1225 H1232 0.961 . S
C1225 H1233 0.960 . S
C1226 C1224 1.381 . S
C1226 C1227 1.394 . S
C1226 H1234 0.930 . S
C1227 C1226 1.394 . S
C1227 C1228 1.383 . S
C1227 H1235 0.929 . S
C1228 C1227 1.383 . S
C1228 C1229 1.377 . S
C1229 H1213 0.930 . S
C1229 C1228 1.377 . S
C1229 C1230 1.379 . S
C1230 H1214 0.931 . S
C1230 C1224 1.383 . S
C1230 C1229 1.379 . S
H1231 C1225 0.959 . S
H1232 C1225 0.961 . S
H1233 C1225 0.960 . S
H1234 C1226 0.930 . S
H1235 C1227 0.929 . S
H1236 C1244 0.929 . S
H1237 C1246 0.930 . S
H1238 C1248 0.930 . S
H1239 C1251 0.929 . S
H1240 C1254 0.930 . S
H1241 C1256 0.960 . S
H1242 C1256 0.960 . S
H1243 C1256 0.960 . S
C1244 H1236 0.929 . S
C1244 C1245 1.377 . S
C1244 C1246 1.384 . S
C1245 C1244 1.377 . S
C1245 C1251 1.390 . S
C1246 H1237 0.930 . S
C1246 C1244 1.384 . S
C1246 C1247 1.372 . S
C1247 C1246 1.372 . S
C1247 C1248 1.400 . S
C1247 C1252 1.490 . S
C1248 H1238 0.930 . S
C1248 C1247 1.400 . S
C1248 C1251 1.386 . S
H1249 C1265 0.930 . S
H1250 C1266 0.931 . S
C1251 H1239 0.929 . S
C1251 C1245 1.390 . S
C1251 C1248 1.386 . S
C1252 C1247 1.490 . S
C1252 C1254 1.395 . S
C1252 C1255 1.403 . S
H1253 C1259 0.930 . S
C1254 H1240 0.930 . S
C1254 C1252 1.395 . S
C1254 C1257 1.403 . S
C1255 C1252 1.403 . S
C1255 C1256 1.524 . S
C1255 C1259 1.400 . S
C1256 H1241 0.960 . S
C1256 H1242 0.960 . S
C1256 H1243 0.960 . S
C1256 C1255 1.524 . S
C1257 C1254 1.403 . S
C1257 C1258 1.392 . S
C1257 C1261 1.495 . S
C1258 C1257 1.392 . S
C1258 C1259 1.385 . S
C1258 C1260 1.478 . S
C1259 H1253 0.930 . S
C1259 C1255 1.400 . S
C1259 C1258 1.385 . S
C1260 C1258 1.478 . S
C1260 C1262 1.381 . S
C1260 C1266 1.383 . S
C1261 C1257 1.495 . S
C1261 H1267 0.959 . S
C1261 H1268 0.961 . S
C1261 H1269 0.960 . S
C1262 C1260 1.381 . S
C1262 C1263 1.394 . S
C1262 H1270 0.930 . S
C1263 C1262 1.394 . S
C1263 C1264 1.383 . S
C1263 H1271 0.929 . S
C1264 C1263 1.383 . S
C1264 C1265 1.377 . S
C1265 H1249 0.930 . S
C1265 C1264 1.377 . S
C1265 C1266 1.379 . S
C1266 H1250 0.931 . S
C1266 C1260 1.383 . S
C1266 C1265 1.379 . S
H1267 C1261 0.959 . S
H1268 C1261 0.961 . S
H1269 C1261 0.960 . S
H1270 C1262 0.930 . S
H1271 C1263 0.929 . S
C417 C61 1.736 . S
C436 C135 1.817 . S
C472 C212 1.833 . S
C453 C70 1.753 . S
C508 C303 1.811 . S
C489 C43 1.730 . S
C544 C387 1.788 . S
C525 C52 1.724 . S
C580 C146 1.810 1_565 S
C561 C25 1.740 . S
C597 C34 1.753 . S
C616 C223 1.827 . S
C633 C7 1.734 . S
C652 C314 1.818 . S
C669 C16 1.721 . S
C688 C398 1.794 1_655 S
C724 C130 0.433 . S
C705 C50 0.341 . S
C760 C225 0.605 . S
C741 C59 0.321 . S
C796 C298 0.545 . S
C777 C67 0.316 . S
C813 C41 0.322 . S
C832 C382 0.485 . S
C849 C14 0.332 . S
C868 C141 0.498 . S
C904 C214 0.638 . S
C885 C23 0.277 . S
C940 C309 0.471 . S
C921 C31 0.322 . S
C957 C5 0.320 . S
C976 C393 0.504 . S
C993 C49 1.790 . S
C1012 C139 1.951 . S
C1029 C58 1.776 . S
C1048 C230 1.907 . S
C1084 C307 1.956 . S
C1065 C68 1.792 . S
C1120 C391 1.972 . S
C1101 C40 1.807 . S
C1137 C13 1.792 . S
C1156 C128 1.948 . S
C1192 C219 1.930 . S
C1173 C22 1.768 . S
C1228 C296 1.966 . S
C1209 C32 1.801 . S
C1245 C4 1.801 . S
C1264 C380 1.960 . S
