# Generated by pormake.
# Topology pyr, (3,6)-cn, num edge types: 1
# Building blocks:
#     Node 0, Type 0, BuildingBlock: BETDAH_clean_linker_0, # of connection points: 3
#     Node 1, Type 0, BuildingBlock: BETDAH_clean_linker_0, # of connection points: 3
#     Node 2, Type 0, BuildingBlock: BETDAH_clean_linker_0, # of connection points: 3
#     Node 3, Type 0, BuildingBlock: BETDAH_clean_linker_0, # of connection points: 3
#     Node 4, Type 0, BuildingBlock: BETDAH_clean_linker_0, # of connection points: 3
#     Node 5, Type 0, BuildingBlock: BETDAH_clean_linker_0, # of connection points: 3
#     Node 6, Type 0, BuildingBlock: BETDAH_clean_linker_0, # of connection points: 3
#     Node 7, Type 0, BuildingBlock: BETDAH_clean_linker_0, # of connection points: 3
#     Node 8, Type 1, BuildingBlock: INOVEN_clean_sbu_0, # of connection points: 6
#     Node 9, Type 1, BuildingBlock: INOVEN_clean_sbu_0, # of connection points: 6
#     Node 10, Type 1, BuildingBlock: INOVEN_clean_sbu_0, # of connection points: 6
#     Node 11, Type 1, BuildingBlock: INOVEN_clean_sbu_0, # of connection points: 6
#     Edge 12, Type (0, 1), BuildingBlock: ZUJKAS_clean_linker_0, # of connection points: 2
#     Edge 13, Type (0, 1), BuildingBlock: ZUJKAS_clean_linker_0, # of connection points: 2
#     Edge 14, Type (0, 1), BuildingBlock: ZUJKAS_clean_linker_0, # of connection points: 2
#     Edge 15, Type (0, 1), BuildingBlock: ZUJKAS_clean_linker_0, # of connection points: 2
#     Edge 16, Type (0, 1), BuildingBlock: ZUJKAS_clean_linker_0, # of connection points: 2
#     Edge 17, Type (0, 1), BuildingBlock: ZUJKAS_clean_linker_0, # of connection points: 2
#     Edge 18, Type (0, 1), BuildingBlock: ZUJKAS_clean_linker_0, # of connection points: 2
#     Edge 19, Type (0, 1), BuildingBlock: ZUJKAS_clean_linker_0, # of connection points: 2
#     Edge 20, Type (0, 1), BuildingBlock: ZUJKAS_clean_linker_0, # of connection points: 2
#     Edge 21, Type (0, 1), BuildingBlock: ZUJKAS_clean_linker_0, # of connection points: 2
#     Edge 22, Type (0, 1), BuildingBlock: ZUJKAS_clean_linker_0, # of connection points: 2
#     Edge 23, Type (0, 1), BuildingBlock: ZUJKAS_clean_linker_0, # of connection points: 2
#     Edge 24, Type (0, 1), BuildingBlock: ZUJKAS_clean_linker_0, # of connection points: 2
#     Edge 25, Type (0, 1), BuildingBlock: ZUJKAS_clean_linker_0, # of connection points: 2
#     Edge 26, Type (0, 1), BuildingBlock: ZUJKAS_clean_linker_0, # of connection points: 2
#     Edge 27, Type (0, 1), BuildingBlock: ZUJKAS_clean_linker_0, # of connection points: 2
#     Edge 28, Type (0, 1), BuildingBlock: ZUJKAS_clean_linker_0, # of connection points: 2
#     Edge 29, Type (0, 1), BuildingBlock: ZUJKAS_clean_linker_0, # of connection points: 2
#     Edge 30, Type (0, 1), BuildingBlock: ZUJKAS_clean_linker_0, # of connection points: 2
#     Edge 31, Type (0, 1), BuildingBlock: ZUJKAS_clean_linker_0, # of connection points: 2
#     Edge 32, Type (0, 1), BuildingBlock: ZUJKAS_clean_linker_0, # of connection points: 2
#     Edge 33, Type (0, 1), BuildingBlock: ZUJKAS_clean_linker_0, # of connection points: 2
#     Edge 34, Type (0, 1), BuildingBlock: ZUJKAS_clean_linker_0, # of connection points: 2
#     Edge 35, Type (0, 1), BuildingBlock: ZUJKAS_clean_linker_0, # of connection points: 2
# Relax obj value: 0.109
# Max RMSD: 0.189
# Mean RMSD: 0.141
data_MOF--net-pyr--node1-INOVEN_clean_sbu_0--node2-BETDAH_clean_linker_0--edge1-ZUJKAS_clean_linker_0
_symmetry_space_group_name_H-M    P1
_symmetry_Int_Tables_number       1
_symmetry_cell_setting            triclinic
loop_
_symmetry_equiv_pos_as_xyz
'x, y, z'
_cell_length_a     48.410011
_cell_length_b     52.592256
_cell_length_c     48.449556
_cell_angle_alpha  91.703333
_cell_angle_beta   89.728721
_cell_angle_gamma 105.26369
loop_
_atom_site_label
_atom_site_type_symbol
_atom_site_fract_x
_atom_site_fract_y
_atom_site_fract_z
_atom_type_partial_charge
H0 H 0.34224 0.25118 0.25317 0.0
H1 H 0.37079 0.29687 0.1812 0.0
H2 H 0.3129 0.31981 0.23801 0.0
C3 C 0.34248 0.26789 0.24056 0.0
C4 C 0.32567 0.28494 0.24841 0.0
C5 C 0.35871 0.27162 0.21621 0.0
C6 C 0.35886 0.29363 0.20032 0.0
C7 C 0.34246 0.31099 0.208 0.0
C8 C 0.3257 0.3065 0.23199 0.0
N9 N 0.34305 0.33254 0.19088 0.0
C10 C 0.32185 0.34594 0.19064 0.0
H11 H 0.29242 0.83639 0.69506 0.0
H12 H 0.28407 0.91299 0.67367 0.0
H13 H 0.2929 0.8575 0.61013 0.0
C14 C 0.29056 0.85048 0.67976 0.0
C15 C 0.29324 0.84413 0.65182 0.0
C16 C 0.28895 0.87579 0.68814 0.0
C17 C 0.28522 0.89324 0.66791 0.0
C18 C 0.28556 0.88602 0.63978 0.0
C19 C 0.29042 0.86191 0.63185 0.0
N20 N 0.28267 0.90341 0.61911 0.0
C21 C 0.26026 0.91507 0.62016 0.0
H22 H 0.70559 0.36101 0.92486 0.0
H23 H 0.69782 0.41664 0.86322 0.0
H24 H 0.63096 0.34544 0.87326 0.0
C25 C 0.69387 0.36677 0.90825 0.0
C26 C 0.66726 0.34983 0.90037 0.0
C27 C 0.70552 0.39095 0.89514 0.0
C28 C 0.68948 0.39829 0.87365 0.0
C29 C 0.6625 0.38168 0.86574 0.0
C30 C 0.65186 0.35777 0.87921 0.0
N31 N 0.64436 0.38792 0.8452 0.0
C32 C 0.64988 0.40794 0.82591 0.0
H33 H 0.83619 0.74204 0.41549 0.0
H34 H 0.90477 0.73821 0.35976 0.0
H35 H 0.83521 0.66957 0.37143 0.0
C36 C 0.84523 0.73124 0.4001 0.0
C37 C 0.83161 0.70446 0.3945 0.0
C38 C 0.87142 0.74389 0.38758 0.0
C39 C 0.88416 0.72918 0.36884 0.0
C40 C 0.87091 0.70231 0.36294 0.0
C41 C 0.84486 0.69032 0.37583 0.0
N42 N 0.88568 0.68561 0.34892 0.0
C43 C 0.89591 0.68753 0.3218 0.0
H44 H 0.76032 0.79188 0.82683 0.0
H45 H 0.71468 0.77822 0.90366 0.0
H46 H 0.69653 0.83292 0.84675 0.0
C47 C 0.74412 0.79549 0.84081 0.0
C48 C 0.72873 0.81353 0.83365 0.0
C49 C 0.73977 0.78294 0.86619 0.0
C50 C 0.71841 0.78759 0.88388 0.0
C51 C 0.70282 0.80555 0.8771 0.0
C52 C 0.7083 0.81884 0.85207 0.0
N53 N 0.68193 0.80975 0.89607 0.0
C54 C 0.67236 0.83246 0.89791 0.0
H55 H 0.76559 0.19003 0.42335 0.0
H56 H 0.82328 0.25245 0.46987 0.0
H57 H 0.74452 0.26369 0.43846 0.0
C58 C 0.77054 0.20965 0.43285 0.0
C59 C 0.75183 0.22562 0.42942 0.0
C60 C 0.79631 0.21918 0.44726 0.0
C61 C 0.80353 0.24498 0.45834 0.0
C62 C 0.78473 0.26086 0.45586 0.0
C63 C 0.75889 0.25125 0.44112 0.0
N64 N 0.79213 0.28621 0.46882 0.0
C65 C 0.77142 0.29816 0.47814 0.0
H66 H 0.34143 0.7621 0.19181 0.0
H67 H 0.34779 0.70187 0.24837 0.0
H68 H 0.41388 0.77472 0.24596 0.0
C69 C 0.3532 0.75499 0.20745 0.0
C70 C 0.37933 0.77155 0.21696 0.0
C71 C 0.34175 0.72951 0.21775 0.0
C72 C 0.35614 0.72124 0.24001 0.0
C73 C 0.38212 0.73799 0.25053 0.0
C74 C 0.39343 0.76263 0.23851 0.0
N75 N 0.39898 0.7313 0.27205 0.0
C76 C 0.39345 0.71025 0.29019 0.0
H77 H 0.2067 0.36917 0.67122 0.0
H78 H 0.19577 0.42972 0.72923 0.0
H79 H 0.13003 0.35713 0.71986 0.0
C80 C 0.19422 0.37578 0.68716 0.0
C81 C 0.16705 0.35956 0.69394 0.0
C82 C 0.20498 0.40109 0.69971 0.0
C83 C 0.18805 0.41025 0.7197 0.0
C84 C 0.16087 0.39421 0.72687 0.0
C85 C 0.15085 0.3692 0.71393 0.0
N86 N 0.14151 0.40252 0.74521 0.0
C87 C 0.14674 0.42178 0.76652 0.0
Gd88 Gd 0.03433 0.06386 0.51113 0.0
Gd89 Gd 1.0059 0.03941 0.56789 0.0
C90 C 0.04234 0.10123 0.56537 0.0
C91 C 0.04791 0.08119 0.46257 0.0
C92 C 0.07145 0.10186 0.45099 0.0
C93 C 0.09574 0.09537 0.44008 0.0
C94 C 0.06996 0.12819 0.45073 0.0
C95 C 0.11658 0.14107 0.42884 0.0
C96 C 0.09236 0.14762 0.4398 0.0
C97 C 0.11813 0.1148 0.4292 0.0
C98 C 0.06914 0.05051 0.54776 0.0
C99 C 0.99366 1.00285 0.51187 0.0
C100 C 0.99563 1.01431 0.61309 0.0
C101 C 0.96947 0.99852 0.62605 0.0
C102 C 0.94552 1.00852 0.63018 0.0
C103 C 0.96781 0.97243 0.6328 0.0
C104 C 0.91868 0.96652 0.64798 0.0
C105 C 0.9426 0.95652 0.64359 0.0
C106 C 0.92038 0.99267 0.64118 0.0
C107 C 0.96984 0.06014 0.5388 0.0
O108 O 0.03924 0.10032 0.53813 0.0
O109 O 0.03557 0.07959 0.58034 0.0
O110 O 0.05489 0.06062 0.47208 0.0
O111 O 0.02947 0.08917 0.47824 0.0
O112 O 0.07823 0.06895 0.53011 0.0
O113 O 0.04349 0.03865 0.54296 0.0
O114 O 0.99005 1.00435 0.53894 0.0
O115 O 0.0084 0.02298 0.4974 0.0
O116 O 0.99863 0.03981 0.61194 0.0
O117 O 1.00306 1.0039 0.59027 0.0
O118 O 0.96278 0.04902 0.56232 0.0
O119 O 0.99453 0.05875 0.53303 0.0
H120 H 0.0974 0.07522 0.43978 0.0
H121 H 0.0515 0.13383 0.4589 0.0
H122 H 0.09071 0.16777 0.43989 0.0
H123 H 0.13632 0.10911 0.42042 0.0
H124 H 0.94607 0.02846 0.6247 0.0
H125 H 0.98598 0.96429 0.62952 0.0
H126 H 0.94201 0.93653 0.64895 0.0
H127 H 0.90216 1.00079 0.64412 0.0
Gd128 Gd 0.55341 0.06626 0.0748 0.0
Gd129 Gd 0.50223 0.0554 0.03977 0.0
C130 C 0.49861 0.08577 0.09557 0.0
C131 C 0.60069 0.09172 0.09773 0.0
C132 C 0.60911 0.10056 0.12627 0.0
C133 C 0.6117 0.08266 0.14647 0.0
C134 C 0.61339 0.12728 0.13373 0.0
C135 C 0.62248 0.11822 0.18114 0.0
C136 C 0.61978 0.13599 0.16091 0.0
C137 C 0.61839 0.09145 0.17369 0.0
C138 C 0.51762 0.02259 0.09626 0.0
C139 C 0.55196 0.02728 0.02304 0.0
C140 C 0.45855 0.04191 1.00724 0.0
C141 C 0.44667 0.0245 0.98362 0.0
C142 C 0.4473 0.03551 0.95753 0.0
C143 C 0.43239 0.99784 0.98701 0.0
C144 C 0.41783 0.99414 0.93896 0.0
C145 C 0.41813 0.98269 0.96471 0.0
C146 C 0.43312 0.02042 0.93536 0.0
C147 C 0.53934 0.10346 0.03365 0.0
O148 O 0.52664 0.08981 0.09707 0.0
O149 O 0.48326 0.06946 0.07702 0.0
O150 O 0.59452 0.0663 0.09211 0.0
O151 O 0.58297 0.10333 0.08628 0.0
O152 O 0.54249 0.0347 0.10618 0.0
O153 O 0.51194 0.03457 0.07557 0.0
O154 O 0.52503 0.02755 0.01941 0.0
O155 O 0.56839 0.04271 0.04171 0.0
O156 O 0.48134 0.06089 1.00228 0.0
O157 O 0.45918 0.03143 0.03132 0.0
O158 O 0.51223 0.09968 0.03783 0.0
O159 O 0.54587 0.08174 0.03441 0.0
H160 H 0.60848 0.0619 0.14134 0.0
H161 H 0.6114 0.14145 0.11858 0.0
H162 H 0.62239 0.15666 0.16612 0.0
H163 H 0.62074 0.07738 0.18879 0.0
H164 H 0.45802 0.05607 0.95442 0.0
H165 H 0.43145 0.98892 1.00698 0.0
H166 H 0.40635 0.96242 0.96786 0.0
H167 H 0.43352 0.0295 0.91552 0.0
Gd168 Gd 0.51943 0.53889 0.54235 0.0
Gd169 Gd 0.52666 0.58401 0.57733 0.0
C170 C 0.5482 0.53861 0.6034 0.0
C171 C 0.52558 0.49799 0.51499 0.0
C172 C 0.54301 0.47986 0.52078 0.0
C173 C 0.53263 0.45297 0.51406 0.0
C174 C 0.56946 0.48908 0.53441 0.0
C175 C 0.57564 0.4448 0.53335 0.0
C176 C 0.58566 0.4717 0.54061 0.0
C177 C 0.54884 0.43551 0.5203 0.0
C178 C 0.47037 0.53879 0.56984 0.0
C179 C 0.49769 0.58451 0.51655 0.0
C180 C 0.52314 0.62528 0.60559 0.0
C181 C 0.50605 0.64407 0.60241 0.0
C182 C 0.51866 0.67101 0.60706 0.0
C183 C 0.47756 0.6354 0.59335 0.0
C184 C 0.47387 0.68049 0.59501 0.0
C185 C 0.46154 0.65344 0.58989 0.0
C186 C 0.50269 0.68917 0.60332 0.0
C187 C 0.57546 0.58382 0.54956 0.0
O188 O 0.54579 0.52899 0.57771 0.0
O189 O 0.53925 0.55958 0.60967 0.0
O190 O 0.50447 0.49713 0.53207 0.0
O191 O 0.53975 0.52204 0.50934 0.0
O192 O 0.47176 0.53311 0.54375 0.0
O193 O 0.49529 0.54501 0.58024 0.0
O194 O 0.4992 0.59356 0.5425 0.0
O195 O 0.50745 0.56395 0.51015 0.0
O196 O 0.54228 0.62585 0.58644 0.0
O197 O 0.50905 0.60135 0.61184 0.0
O198 O 0.5743 0.58955 0.57561 0.0
O199 O 0.5505 0.57776 0.53941 0.0
H200 H 0.51208 0.44553 0.50388 0.0
H201 H 0.57768 0.50975 0.54019 0.0
H202 H 0.6061 0.4793 0.55093 0.0
H203 H 0.5408 0.4149 0.51422 0.0
H204 H 0.54083 0.67797 0.61356 0.0
H205 H 0.46758 0.61466 0.58917 0.0
H206 H 0.43925 0.64607 0.58397 0.0
H207 H 0.5128 0.70993 0.60712 0.0
Gd208 Gd 0.0319 0.54064 0.05356 0.0
Gd209 Gd 0.02914 0.59324 0.02692 0.0
C210 C 0.08164 0.59529 0.06782 0.0
C211 C 0.05048 0.49982 0.06132 0.0
C212 C 0.07265 0.49341 0.0787 0.0
C213 C 0.06476 0.47406 0.09869 0.0
C214 C 0.10192 0.50544 0.07449 0.0
C215 C 0.11493 0.47739 0.10837 0.0
C216 C 0.1228 0.49744 0.08911 0.0
C217 C 0.0857 0.4662 0.1135 0.0
C218 C 0.00921 0.56985 0.0907 0.0
C219 C 0.97545 0.5394 0.01848 0.0
C220 C 0.01385 0.6333 1.00889 0.0
C221 C 0.98874 0.63877 0.99529 0.0
C222 C 0.98804 0.64072 0.96643 0.0
C223 C 0.96605 0.6436 1.01099 0.0
C224 C 0.94306 0.65315 0.96935 0.0
C225 C 0.94344 0.65064 0.99815 0.0
C226 C 0.96543 0.64774 0.95361 0.0
C227 C 0.0584 0.56361 0.99802 0.0
O228 O 0.07418 0.56915 0.06608 0.0
O229 O 0.06603 0.60944 0.05636 0.0
O230 O 0.02757 0.5034 0.07375 0.0
O231 O 0.05982 0.51651 0.04166 0.0
O232 O 0.01195 0.54642 0.09535 0.0
O233 O 0.01805 0.5755 0.06656 0.0
O234 O 0.98545 0.56536 1.01602 0.0
O235 O 0.99024 0.52513 0.03096 0.0
O236 O 0.02862 0.62025 0.99423 0.0
O237 O 0.01105 0.6263 0.0347 0.0
O238 O 0.06658 0.58919 1.00055 0.0
O239 O 0.03511 0.55521 1.0109 0.0
H240 H 0.04239 0.46449 0.10233 0.0
H241 H 0.10884 0.52061 0.05943 0.0
H242 H 0.14516 0.50664 0.08498 0.0
H243 H 0.07901 0.45057 0.12809 0.0
H244 H 1.00525 0.63728 0.95373 0.0
H245 H 0.96602 0.64252 0.03328 0.0
H246 H 0.92678 0.65504 1.01094 0.0
H247 H 0.96563 0.6492 0.93135 0.0
H248 H 0.26987 0.28645 0.25193 0.0
H249 H 0.2359 0.26881 0.28844 0.0
H250 H 0.30325 0.24973 0.33479 0.0
H251 H 0.33765 0.26839 0.29894 0.0
H252 H 0.22525 0.21628 0.30039 0.0
H253 H 0.25976 0.27867 0.39501 0.0
H254 H 0.27156 0.28963 0.36089 0.0
H255 H 0.28766 0.26734 0.37822 0.0
C256 C 0.27769 0.27941 0.27035 0.0
C257 C 0.30639 0.27864 0.2725 0.0
C258 C 0.25822 0.2692 0.2911 0.0
C259 C 0.26715 0.25814 0.31432 0.0
C260 C 0.29606 0.25861 0.31726 0.0
H261 H 0.17447 0.14867 0.43367 0.0
H262 H 0.21188 0.17883 0.40733 0.0
C263 C 0.31559 0.26897 0.2966 0.0
C264 C 0.24562 0.24295 0.33336 0.0
H265 H 0.22481 0.23772 0.40082 0.0
C266 C 0.22497 0.22114 0.3223 0.0
C267 C 0.24575 0.24911 0.36197 0.0
C268 C 0.26722 0.27259 0.37475 0.0
C269 C 0.20439 0.20521 0.33911 0.0
C270 C 0.20426 0.21158 0.3676 0.0
C271 C 0.22504 0.23315 0.37885 0.0
C272 C 0.18237 0.19588 0.38581 0.0
C273 C 0.18318 0.18144 0.32638 0.0
C274 C 0.1537 0.19614 0.38271 0.0
C275 C 0.13237 0.1789 0.39745 0.0
C276 C 0.13947 0.16122 0.41558 0.0
C277 C 0.16841 0.16187 0.41955 0.0
C278 C 0.18976 0.17916 0.40475 0.0
H279 H 0.1899 0.17621 0.30548 0.0
H280 H 0.18045 0.1641 0.33966 0.0
H281 H 0.16204 0.18575 0.32446 0.0
H282 H 0.14778 0.20907 0.36817 0.0
H283 H 0.11025 0.17866 0.39379 0.0
H284 H 0.26852 0.91131 0.72009 0.0
H285 H 0.28703 0.93064 0.76523 0.0
H286 H 0.34396 0.87995 0.7668 0.0
H287 H 0.32777 0.86228 0.72147 0.0
H288 H 0.29069 0.90897 0.817 0.0
H289 H 0.39842 0.95283 0.77379 0.0
H290 H 0.36749 0.93925 0.7522 0.0
H291 H 0.38656 0.91792 0.76724 0.0
C292 C 0.285 0.90434 0.73004 0.0
C293 C 0.29651 0.88516 0.71701 0.0
C294 C 0.29536 0.91524 0.75586 0.0
C295 C 0.3172 0.90699 0.76888 0.0
C296 C 0.32748 0.88689 0.75673 0.0
H297 H 0.41577 0.94448 0.91952 0.0
H298 H 0.38854 0.92148 0.8793 0.0
C299 C 0.31767 0.87642 0.73091 0.0
C300 C 0.33043 0.91996 0.79462 0.0
H301 H 0.395 0.95203 0.82291 0.0
C302 C 0.31342 0.91859 0.81832 0.0
C303 C 0.3601 0.93254 0.79605 0.0
C304 C 0.37914 0.93598 0.77088 0.0
C305 C 0.3256 0.929 0.84373 0.0
C306 C 0.3553 0.94079 0.84517 0.0
C307 C 0.37224 0.94247 0.82151 0.0
C308 C 0.36913 0.95307 0.87075 0.0
C309 C 0.30695 0.92719 0.86899 0.0
C310 C 0.36691 0.97819 0.8788 0.0
C311 C 0.38242 0.99129 0.90141 0.0
C312 C 0.40034 0.9794 0.91614 0.0
C313 C 0.40194 0.95389 0.90846 0.0
C314 C 0.38652 0.94083 0.88566 0.0
H315 H 0.28481 0.91486 0.86506 0.0
H316 H 0.31641 0.91882 0.88624 0.0
H317 H 0.30591 0.94728 0.87571 0.0
H318 H 0.35375 0.98787 0.86717 0.0
H319 H 0.38063 1.01085 0.90722 0.0
H320 H 0.63894 0.39073 0.77328 0.0
H321 H 0.6245 0.41413 0.73513 0.0
H322 H 0.63504 0.48342 0.78806 0.0
H323 H 0.64971 0.45991 0.82623 0.0
H324 H 0.57817 0.4339 0.73232 0.0
H325 H 0.67604 0.51552 0.71917 0.0
H326 H 0.6758 0.48695 0.73901 0.0
H327 H 0.66244 0.51313 0.7538 0.0
C328 C 0.63894 0.41121 0.77653 0.0
C329 C 0.64614 0.4237 0.80253 0.0
C330 C 0.63041 0.42453 0.75475 0.0
C331 C 0.62892 0.4508 0.75833 0.0
C332 C 0.63657 0.46344 0.78433 0.0
H333 H 0.56391 0.55738 0.65614 0.0
H334 H 0.58355 0.53619 0.69283 0.0
C335 C 0.64503 0.45002 0.80621 0.0
C336 C 0.61789 0.46421 0.73535 0.0
H337 H 0.63458 0.5184 0.69463 0.0
C338 C 0.59066 0.4523 0.72401 0.0
C339 C 0.63393 0.48832 0.72434 0.0
C340 C 0.66378 0.50166 0.73448 0.0
C341 C 0.57899 0.46388 0.70254 0.0
C342 C 0.59503 0.48795 0.69152 0.0
C343 C 0.6222 0.49995 0.7029 0.0
C344 C 0.58374 0.50109 0.66854 0.0
C345 C 0.54918 0.45054 0.69225 0.0
C346 C 0.57762 0.48877 0.64223 0.0
C347 C 0.56651 0.50099 0.621 0.0
C348 C 0.56106 0.52582 0.62553 0.0
C349 C 0.5676 0.53823 0.65179 0.0
C350 C 0.57894 0.52613 0.67288 0.0
H351 H 0.53722 0.43575 0.70688 0.0
H352 H 0.53683 0.46524 0.68891 0.0
H353 H 0.5506 0.44021 0.6722 0.0
H354 H 0.58147 0.46966 0.63807 0.0
H355 H 0.56188 0.49079 0.60113 0.0
H356 H 0.94992 0.70574 0.30184 0.0
H357 H 0.96938 0.69078 0.25916 0.0
H358 H 0.88598 0.6398 0.23924 0.0
H359 H 0.86657 0.65523 0.28147 0.0
H360 H 0.97351 0.64256 0.24522 0.0
H361 H 0.90717 0.67131 0.16537 0.0
H362 H 0.90825 0.6835 0.20067 0.0
H363 H 0.88589 0.65133 0.19109 0.0
C364 C 0.93563 0.69194 0.28787 0.0
C365 C 0.9066 0.68211 0.2946 0.0
C366 C 0.94679 0.6832 0.26356 0.0
C367 C 0.92918 0.66439 0.24542 0.0
C368 C 0.90001 0.65485 0.25217 0.0
H369 H 0.97303 0.5513 0.13264 0.0
H370 H 0.95427 0.57609 0.1683 0.0
C371 C 0.88887 0.66366 0.27641 0.0
C372 C 0.94163 0.65338 0.22069 0.0
H373 H 0.93311 0.64007 0.15096 0.0
C374 C 0.96478 0.64233 0.22461 0.0
C375 C 0.93059 0.65306 0.19352 0.0
C376 C 0.9068 0.66567 0.18731 0.0
C377 C 0.97639 0.63034 0.2026 0.0
C378 C 0.96466 0.62915 0.17573 0.0
C379 C 0.94211 0.64085 0.17151 0.0
C380 C 0.97461 0.61441 0.15238 0.0
C381 C 1.00115 0.61879 0.20817 0.0
C382 C 0.99177 0.62758 0.13087 0.0
C383 C 1.00241 0.6133 0.11009 0.0
C384 C 0.99618 0.58561 0.11057 0.0
C385 C 0.97843 0.5726 0.13173 0.0
C386 C 0.96767 0.58676 0.1522 0.0
H387 H 0.01043 0.62444 0.22909 0.0
H388 H 0.99373 0.59696 0.20647 0.0
H389 H 0.01821 0.62538 0.19255 0.0
H390 H 0.99753 0.64891 0.13056 0.0
H391 H 0.01626 0.62394 0.09428 0.0
H392 H 0.40982 0.28014 0.18813 0.0
H393 H 0.43307 0.24727 0.17012 0.0
H394 H 0.36781 0.18572 0.20724 0.0
H395 H 0.3428 0.21787 0.22275 0.0
H396 H 0.45694 0.21437 0.19234 0.0
H397 H 0.36433 0.15593 0.13134 0.0
H398 H 0.3646 0.18721 0.14765 0.0
H399 H 0.35571 0.15753 0.16723 0.0
C400 C 0.40001 0.25958 0.19201 0.0
C401 C 0.37417 0.25185 0.20676 0.0
C402 C 0.41358 0.24079 0.18198 0.0
C403 C 0.40189 0.2139 0.18679 0.0
C404 C 0.37683 0.20622 0.20251 0.0
H405 H 0.50405 0.10026 0.15057 0.0
H406 H 0.48009 0.13 0.17525 0.0
C407 C 0.36284 0.22486 0.21191 0.0
C408 C 0.41585 0.19394 0.1752 0.0
H409 H 0.40317 0.1368 0.13647 0.0
C410 C 0.44524 0.19747 0.17997 0.0
C411 C 0.40066 0.17203 0.15879 0.0
C412 C 0.36968 0.16809 0.1507 0.0
C413 C 0.45994 0.17995 0.16854 0.0
C414 C 0.44452 0.15754 0.15293 0.0
C415 C 0.41502 0.15381 0.14861 0.0
C416 C 0.45866 0.13877 0.13891 0.0
C417 C 0.49198 0.18636 0.1724 0.0
C418 C 0.45363 0.1328 0.11064 0.0
C419 C 0.46618 0.11504 0.097 0.0
C420 C 0.48462 0.1033 0.11113 0.0
C421 C 0.48997 0.10924 0.13932 0.0
C422 C 0.47655 0.12644 0.15328 0.0
H423 H 0.50126 0.2076 0.17766 0.0
H424 H 0.49693 0.1749 0.1897 0.0
H425 H 0.50267 0.18128 0.15349 0.0
H426 H 0.4401 0.14207 0.09897 0.0
H427 H 0.46205 0.111 0.07512 0.0
H428 H 0.23266 0.92672 0.6652 0.0
H429 H 0.19066 0.94487 0.66545 0.0
H430 H 0.19088 0.94322 0.57627 0.0
H431 H 0.2324 0.92492 0.57612 0.0
H432 H 0.19182 0.99246 0.64332 0.0
H433 H 0.10632 0.91444 0.59296 0.0
H434 H 0.13771 0.9078 0.60803 0.0
H435 H 0.13888 0.92002 0.57357 0.0
C436 C 0.22337 0.93008 0.64578 0.0
C437 C 0.23548 0.92494 0.62062 0.0
C438 C 0.19943 0.94017 0.64593 0.0
C439 C 0.18743 0.94486 0.62089 0.0
C440 C 0.19935 0.93904 0.59578 0.0
H441 H 0.12507 0.05133 0.5406 0.0
H442 H 0.15166 0.0261 0.56667 0.0
C443 C 0.22321 0.92901 0.59566 0.0
C444 C 0.16518 0.95923 0.62049 0.0
H445 H 0.1042 0.95989 0.58611 0.0
C446 C 0.17218 0.98509 0.63157 0.0
C447 C 0.13947 0.94943 0.60542 0.0
C448 C 0.13003 0.92127 0.59459 0.0
C449 C 0.15552 1.00229 0.62553 0.0
C450 C 0.13158 0.99324 0.60808 0.0
C451 C 0.12296 0.96672 0.59922 0.0
C452 C 0.11747 1.01165 0.5958 0.0
C453 C 0.16446 0.03044 0.63633 0.0
C454 C 0.09007 1.01233 0.60433 0.0
C455 C 0.07519 0.02692 0.58973 0.0
C456 C 0.08726 0.04038 0.56621 0.0
C457 C 0.11541 0.04107 0.55875 0.0
C458 C 0.13046 0.02664 0.57349 0.0
H459 H 0.18011 0.03306 0.65356 0.0
H460 H 0.17452 0.04343 0.61938 0.0
H461 H 0.14549 0.03685 0.64355 0.0
H462 H 0.07993 1.00096 0.62165 0.0
H463 H 0.05397 0.02712 0.59631 0.0
H464 H 0.75252 0.37564 0.91316 0.0
H465 H 0.79656 0.40268 0.93364 0.0
H466 H 0.76994 0.47279 0.91709 0.0
H467 H 0.72438 0.44558 0.89863 0.0
H468 H 0.83981 0.43688 0.91552 0.0
H469 H 0.7915 0.48927 0.99535 0.0
H470 H 0.77035 0.46198 0.97484 0.0
H471 H 0.78097 0.49455 0.96103 0.0
C472 C 0.75553 0.39678 0.91432 0.0
C473 C 0.73416 0.40817 0.90469 0.0
C474 C 0.78112 0.41235 0.92585 0.0
C475 C 0.78661 0.43994 0.92777 0.0
C476 C 0.76604 0.45156 0.9169 0.0
H477 H 0.93774 0.56072 0.99047 0.0
H478 H 0.8924 0.53735 0.96816 0.0
C479 C 0.74007 0.4359 0.90577 0.0
C480 C 0.81408 0.45615 0.94069 0.0
H481 H 0.84192 0.50373 0.99038 0.0
C482 C 0.84011 0.45143 0.93193 0.0
C483 C 0.81488 0.47526 0.96225 0.0
C484 C 0.78793 0.48041 0.97413 0.0
C485 C 0.86655 0.46509 0.94386 0.0
C486 C 0.8673 0.48414 0.96534 0.0
C487 C 0.84144 0.48923 0.97387 0.0
C488 C 0.89462 0.49849 0.97955 0.0
C489 C 0.89356 0.45916 0.93312 0.0
C490 C 0.91086 0.48459 0.99394 0.0
C491 C 0.93677 0.49789 1.00676 0.0
C492 C 0.94718 0.52552 1.00569 0.0
C493 C 0.93057 0.53947 0.99173 0.0
C494 C 0.90456 0.52612 0.97894 0.0
H495 H 0.89037 0.44954 0.91222 0.0
H496 H 0.91136 0.47742 0.9322 0.0
H497 H 0.90003 0.4455 0.94723 0.0
H498 H 0.90346 0.46336 0.99528 0.0
H499 H 0.94873 0.48637 0.01738 0.0
H500 H 0.81438 0.65327 0.41236 0.0
H501 H 0.77045 0.63169 0.43623 0.0
H502 H 0.74435 0.704 0.43693 0.0
H503 H 0.78709 0.72519 0.41106 0.0
H504 H 0.75128 0.63913 0.48458 0.0
H505 H 0.67201 0.65533 0.40996 0.0
H506 H 0.70962 0.66223 0.40199 0.0
H507 H 0.69592 0.68581 0.42174 0.0
C508 C 0.79903 0.66452 0.41682 0.0
C509 C 0.80447 0.69106 0.40925 0.0
C510 C 0.77392 0.65214 0.43089 0.0
C511 C 0.75354 0.66592 0.43804 0.0
C512 C 0.75912 0.69254 0.43103 0.0
H513 H 0.62638 0.61598 0.56743 0.0
H514 H 0.66887 0.6353 0.54037 0.0
C515 C 0.78401 0.70484 0.41657 0.0
C516 C 0.7271 0.65263 0.45364 0.0
H517 H 0.65411 0.64089 0.45441 0.0
C518 C 0.73003 0.63938 0.4778 0.0
C519 C 0.69916 0.65246 0.44478 0.0
C520 C 0.69393 0.66448 0.41805 0.0
C521 C 0.70613 0.62637 0.4934 0.0
C522 C 0.67829 0.62733 0.4853 0.0
C523 C 0.67531 0.64025 0.46092 0.0
C524 C 0.65209 0.61532 0.50187 0.0
C525 C 0.71113 0.61123 0.51804 0.0
C526 C 0.62766 0.59833 0.48928 0.0
C527 C 0.60284 0.58772 0.50471 0.0
C528 C 0.60198 0.5937 0.53313 0.0
C529 C 0.62642 0.6106 0.54568 0.0
C530 C 0.65094 0.62156 0.5302 0.0
H531 H 0.73112 0.60476 0.51572 0.0
H532 H 0.71354 0.62421 0.53683 0.0
H533 H 0.69304 0.59355 0.52115 0.0
H534 H 0.62776 0.59328 0.46745 0.0
H535 H 0.58431 0.57493 0.49441 0.0
H536 H 0.30394 0.35846 0.1422 0.0
H537 H 0.26764 0.38228 0.13423 0.0
H538 H 0.25451 0.38804 0.22213 0.0
H539 H 0.2913 0.3643 0.23009 0.0
H540 H 0.21011 0.36741 0.14985 0.0
H541 H 0.26723 0.46472 0.19716 0.0
H542 H 0.28526 0.43959 0.18835 0.0
H543 H 0.2631 0.43658 0.21852 0.0
C544 C 0.29333 0.36493 0.15977 0.0
C545 C 0.30026 0.35982 0.18668 0.0
C546 C 0.27265 0.37848 0.15524 0.0
C547 C 0.25864 0.3872 0.17759 0.0
C548 C 0.26545 0.38189 0.20463 0.0
H549 H 0.11946 0.46543 0.16267 0.0
H550 H 0.15405 0.44421 0.18266 0.0
C551 C 0.28624 0.36827 0.20916 0.0
C552 C 0.23641 0.40114 0.17208 0.0
H553 H 0.22167 0.46119 0.17779 0.0
C554 C 0.21252 0.38784 0.15619 0.0
C555 C 0.23961 0.4278 0.1804 0.0
C556 C 0.26524 0.44318 0.19689 0.0
C557 C 0.1921 0.40063 0.14784 0.0
C558 C 0.19577 0.42745 0.15539 0.0
C559 C 0.21904 0.44059 0.17209 0.0
C560 C 0.17659 0.4424 0.14433 0.0
C561 C 0.16698 0.38556 0.13048 0.0
C562 C 0.17834 0.44879 0.11639 0.0
C563 C 0.1588 0.46088 0.10499 0.0
C564 C 0.13705 0.46671 0.12134 0.0
C565 C 0.13584 0.46094 0.14956 0.0
C566 C 0.15561 0.44899 0.16102 0.0
H567 H 0.16409 0.36391 0.13109 0.0
H568 H 0.14693 0.39014 0.13758 0.0
H569 H 0.17059 0.39156 0.1087 0.0
H570 H 0.19444 0.44383 0.10323 0.0
H571 H 0.1601 0.46479 0.08314 0.0
H572 H 0.67095 0.3382 0.95534 0.0
H573 H 0.65208 0.29591 0.97747 0.0
H574 H 0.61693 0.26042 0.89975 0.0
H575 H 0.63661 0.3023 0.87706 0.0
H576 H 0.57856 0.25523 0.95478 0.0
H577 H 0.67876 0.2224 0.95804 0.0
H578 H 0.68076 0.25675 0.96504 0.0
H579 H 0.67171 0.24284 0.93103 0.0
C580 C 0.65964 0.32139 0.94272 0.0
C581 C 0.65549 0.32394 0.91422 0.0
C582 C 0.6487 0.29719 0.95553 0.0
C583 C 0.63319 0.27494 0.94027 0.0
C584 C 0.62884 0.27732 0.91195 0.0
H585 H 0.57862 0.11027 0.99144 0.0
H586 H 0.60132 0.15169 0.96857 0.0
C587 C 0.63995 0.30143 0.89905 0.0
C588 C 0.62084 0.24944 0.95405 0.0
H589 H 0.63825 0.19583 0.97993 0.0
C590 C 0.59155 0.2422 0.9603 0.0
C591 C 0.6377 0.23226 0.96079 0.0
C592 C 0.669 0.23869 0.95337 0.0
C593 C 0.5787 0.21841 0.97338 0.0
C594 C 0.59576 0.20152 0.98122 0.0
C595 C 0.62506 0.20867 0.97439 0.0
C596 C 0.5836 0.17642 0.99626 0.0
C597 C 0.54673 0.21146 0.97786 0.0
C598 C 0.56694 0.1763 0.02016 0.0
C599 C 0.55344 0.1526 0.03274 0.0
C600 C 0.55723 0.12847 0.02254 0.0
C601 C 0.57549 0.12861 0.99987 0.0
C602 C 0.58837 0.15232 0.98674 0.0
H603 H 0.53598 0.22125 0.96281 0.0
H604 H 0.53709 0.18986 0.97596 0.0
H605 H 0.54225 0.21846 0.99882 0.0
H606 H 0.56385 0.19453 0.02887 0.0
H607 H 0.53965 0.15309 0.05032 0.0
H608 H 0.92835 0.76596 0.40017 0.0
H609 H 0.95045 0.81049 0.41921 0.0
H610 H 0.86935 0.82945 0.41432 0.0
H611 H 0.84715 0.78522 0.3951 0.0
H612 H 0.92734 0.86947 0.39311 0.0
H613 H 0.92357 0.83556 0.5012 0.0
H614 H 0.93363 0.81577 0.47383 0.0
H615 H 0.89767 0.81883 0.47552 0.0
C616 C 0.91532 0.77975 0.40262 0.0
C617 C 0.88591 0.77188 0.39609 0.0
C618 C 0.92795 0.80513 0.41373 0.0
C619 C 0.9115 0.82324 0.41835 0.0
C620 C 0.88244 0.8158 0.411 0.0
H621 H 0.94543 0.96448 0.52484 0.0
H622 H 0.92569 0.92188 0.50098 0.0
C623 C 0.86978 0.79045 0.40007 0.0
C624 C 0.92429 0.84966 0.43158 0.0
H625 H 0.94357 0.88064 0.49426 0.0
C626 C 0.93104 0.872 0.4152 0.0
C627 C 0.92857 0.85292 0.46044 0.0
C628 C 0.92046 0.82962 0.479 0.0
C629 C 0.942 0.89755 0.42689 0.0
C630 C 0.94699 0.90088 0.45583 0.0
C631 C 0.94003 0.87835 0.47214 0.0
C632 C 0.95879 0.9274 0.46977 0.0
C633 C 0.94717 0.92067 0.40805 0.0
C634 C 0.98413 0.94496 0.46051 0.0
C635 C 0.99497 0.96969 0.47371 0.0
C636 C 0.98134 0.97713 0.49713 0.0
C637 C 0.95642 0.95937 0.50683 0.0
C638 C 0.94516 0.93493 0.49319 0.0
H639 H 0.93382 0.91572 0.38906 0.0
H640 H 0.94246 0.9381 0.41854 0.0
H641 H 0.96992 0.92603 0.40153 0.0
H642 H 0.99585 0.93947 0.44327 0.0
H643 H 0.01453 0.98269 0.46603 0.0
H644 H 0.33745 0.83105 0.67602 0.0
H645 H 0.3614 0.79823 0.6601 0.0
H646 H 0.30035 0.77446 0.59345 0.0
H647 H 0.27593 0.80772 0.60944 0.0
H648 H 0.34057 0.74321 0.65153 0.0
H649 H 0.37955 0.79662 0.55517 0.0
H650 H 0.36484 0.8119 0.58345 0.0
H651 H 0.34161 0.7874 0.56154 0.0
C652 C 0.32856 0.81839 0.65842 0.0
C653 C 0.30469 0.82168 0.64404 0.0
C654 C 0.3424 0.7998 0.64925 0.0
C655 C 0.33269 0.78424 0.62554 0.0
C656 C 0.30823 0.78665 0.61163 0.0
H657 H 0.43269 0.68143 0.55686 0.0
H658 H 0.39642 0.70612 0.56103 0.0
C659 C 0.29432 0.80545 0.62079 0.0
C660 C 0.34953 0.76656 0.6152 0.0
H661 H 0.3993 0.76203 0.56659 0.0
C662 C 0.35301 0.74691 0.63268 0.0
C663 C 0.3657 0.77173 0.59067 0.0
C664 C 0.363 0.79312 0.57159 0.0
C665 C 0.37338 0.73304 0.62698 0.0
C666 C 0.39069 0.73924 0.60329 0.0
C667 C 0.38603 0.7577 0.58485 0.0
C668 C 0.41463 0.72752 0.59829 0.0
C669 C 0.37685 0.71249 0.64683 0.0
C670 C 0.43738 0.73254 0.61717 0.0
C671 C 0.45777 0.71827 0.61515 0.0
C672 C 0.45579 0.69903 0.59398 0.0
C673 C 0.4343 0.69573 0.57373 0.0
C674 C 0.41375 0.70987 0.57594 0.0
H675 H 0.35731 0.70522 0.65949 0.0
H676 H 0.3817 0.69543 0.63567 0.0
H677 H 0.3949 0.72135 0.66111 0.0
H678 H 0.43851 0.74654 0.63427 0.0
H679 H 0.47398 0.7212 0.63112 0.0
H680 H 0.73497 0.79355 0.78211 0.0
H681 H 0.75972 0.8183 0.74311 0.0
H682 H 0.76557 0.89126 0.78852 0.0
H683 H 0.7411 0.86668 0.82774 0.0
H684 H 0.75259 0.87582 0.71529 0.0
H685 H 0.84981 0.86935 0.77322 0.0
H686 H 0.81658 0.84386 0.77481 0.0
H687 H 0.81974 0.87506 0.79217 0.0
C688 C 0.74079 0.8149 0.78342 0.0
C689 C 0.73642 0.82825 0.80798 0.0
C690 C 0.75475 0.82895 0.76114 0.0
C691 C 0.7644 0.85646 0.76316 0.0
C692 C 0.75799 0.86997 0.78669 0.0
H693 H 0.88685 0.98094 0.68911 0.0
H694 H 0.84636 0.95264 0.71334 0.0
C695 C 0.74397 0.85594 0.80899 0.0
C696 C 0.78517 0.87068 0.74302 0.0
H697 H 0.85703 0.89479 0.73345 0.0
C698 C 0.77542 0.87987 0.71905 0.0
C699 C 0.81485 0.87553 0.74807 0.0
C700 C 0.8261 0.86543 0.77338 0.0
C701 C 0.79491 0.89468 0.70026 0.0
C702 C 0.82451 0.90026 0.70588 0.0
C703 C 0.8342 0.89041 0.72943 0.0
C704 C 0.84597 0.91767 0.68857 0.0
C705 C 0.78404 0.90479 0.67484 0.0
C706 C 0.85876 0.90719 0.66659 0.0
C707 C 0.88188 0.92329 0.65269 0.0
C708 C 0.8925 0.95 0.66074 0.0
C709 C 0.87891 0.96054 0.68223 0.0
C710 C 0.85587 0.94444 0.69611 0.0
H711 H 0.76034 0.89809 0.67301 0.0
H712 H 0.79075 0.92668 0.67544 0.0
H713 H 0.7937 0.89795 0.65615 0.0
H714 H 0.85141 0.88646 0.66077 0.0
H715 H 0.89178 0.91475 0.636 0.0
H716 H 0.73532 0.25108 0.38704 0.0
H717 H 0.70251 0.23057 0.34957 0.0
H718 H 0.68003 0.15739 0.3925 0.0
H719 H 0.71248 0.17782 0.4303 0.0
H720 H 0.71712 0.17206 0.33119 0.0
H721 H 0.60525 0.17947 0.34663 0.0
H722 H 0.6351 0.20617 0.35823 0.0
H723 H 0.62731 0.17537 0.37531 0.0
C724 C 0.72239 0.23101 0.3891 0.0
C725 C 0.72657 0.2159 0.41134 0.0
C726 C 0.70375 0.21934 0.3677 0.0
C727 C 0.689 0.1926 0.36852 0.0
C728 C 0.69114 0.17814 0.39181 0.0
H729 H 0.60094 0.09497 0.22936 0.0
H730 H 0.61561 0.11086 0.27657 0.0
C731 C 0.70974 0.18977 0.41322 0.0
C732 C 0.67659 0.1787 0.34299 0.0
H733 H 0.61597 0.16143 0.30375 0.0
C734 C 0.69495 0.1695 0.32521 0.0
C735 C 0.64767 0.17521 0.33577 0.0
C736 C 0.62746 0.18447 0.3549 0.0
C737 C 0.68528 0.15754 0.29968 0.0
C738 C 0.65668 0.15524 0.29172 0.0
C739 C 0.63794 0.16346 0.31001 0.0
C740 C 0.64671 0.14607 0.26368 0.0
C741 C 0.70583 0.14778 0.28128 0.0
C742 C 0.65919 0.16089 0.24116 0.0
C743 C 0.65125 0.15179 0.21438 0.0
C744 C 0.63037 0.12785 0.2097 0.0
C745 C 0.61738 0.1133 0.23239 0.0
C746 C 0.62549 0.12242 0.25927 0.0
H747 H 0.72393 0.14429 0.29325 0.0
H748 H 0.69477 0.12922 0.27001 0.0
H749 H 0.71487 0.16288 0.26582 0.0
H750 H 0.67541 0.17936 0.24431 0.0
H751 H 0.66187 0.16329 0.19735 0.0
H752 H 0.42051 0.6711 0.28803 0.0
H753 H 0.43548 0.64915 0.32718 0.0
H754 H 0.39395 0.6924 0.38326 0.0
H755 H 0.37853 0.71385 0.34402 0.0
H756 H 0.47059 0.66965 0.36868 0.0
H757 H 0.36604 0.62104 0.41507 0.0
H758 H 0.36892 0.63488 0.38123 0.0
H759 H 0.37121 0.65584 0.41167 0.0
C760 C 0.41375 0.67523 0.30865 0.0
C761 C 0.39756 0.69362 0.31282 0.0
C762 C 0.42262 0.66287 0.33116 0.0
C763 C 0.4156 0.66857 0.35853 0.0
C764 C 0.39908 0.68683 0.36257 0.0
H765 H 0.46915 0.62385 0.5212 0.0
H766 H 0.44944 0.64469 0.48388 0.0
C767 C 0.39018 0.69914 0.34003 0.0
C768 C 0.42699 0.65667 0.38267 0.0
H769 H 0.40744 0.62207 0.44189 0.0
C770 C 0.45663 0.65913 0.38453 0.0
C771 C 0.40913 0.64298 0.4038 0.0
C772 C 0.37704 0.63827 0.40278 0.0
C773 C 0.46874 0.64867 0.40662 0.0
C774 C 0.45088 0.63488 0.42762 0.0
C775 C 0.4213 0.63263 0.426 0.0
C776 C 0.46246 0.62194 0.45072 0.0
C777 C 0.50078 0.65292 0.40754 0.0
C778 C 0.47606 0.60183 0.44491 0.0
C779 C 0.48717 0.58977 0.4662 0.0
C780 C 0.48514 0.5974 0.49414 0.0
C781 C 0.47128 0.61741 0.50003 0.0
C782 C 0.45991 0.62936 0.47863 0.0
H783 H 0.51202 0.66954 0.39457 0.0
H784 H 0.50899 0.65696 0.42903 0.0
H785 H 0.50618 0.63483 0.39957 0.0
H786 H 0.478 0.59528 0.42375 0.0
H787 H 0.49757 0.57448 0.46062 0.0
H788 H 0.1784 0.4698 0.78808 0.0
H789 H 0.1658 0.49411 0.82863 0.0
H790 H 0.0886 0.43185 0.8393 0.0
H791 H 0.10139 0.40764 0.79951 0.0
H792 H 0.11847 0.51345 0.83868 0.0
H793 H 0.12079 0.43912 0.91649 0.0
H794 H 0.1357 0.43796 0.88241 0.0
H795 H 0.09774 0.42576 0.88779 0.0
C796 C 0.15897 0.46127 0.79937 0.0
C797 C 0.14106 0.43666 0.79093 0.0
C798 C 0.15168 0.47518 0.82249 0.0
C799 C 0.12645 0.46467 0.83763 0.0
C800 C 0.10854 0.4402 0.82873 0.0
H801 H 0.03494 0.51272 0.97841 0.0
H802 H 0.05182 0.48946 0.93978 0.0
C803 C 0.11582 0.42639 0.80582 0.0
C804 C 0.11819 0.47933 0.86217 0.0
H805 H 0.09888 0.47305 0.93036 0.0
C806 C 0.1145 0.5047 0.85879 0.0
C807 C 0.11262 0.46799 0.88852 0.0
C808 C 0.11716 0.44132 0.89416 0.0
C809 C 0.10476 0.51861 0.88056 0.0
C810 C 0.09915 0.50725 0.90695 0.0
C811 C 0.10303 0.48193 0.91033 0.0
C812 C 0.08927 0.52123 0.9312 0.0
C813 C 0.09957 0.54498 0.87464 0.0
C814 C 0.10489 0.54666 0.9401 0.0
C815 C 0.09514 0.56004 0.96209 0.0
C816 C 0.0697 0.54827 0.97619 0.0
C817 C 0.0546 0.52243 0.96804 0.0
C818 C 0.06426 0.50911 0.94586 0.0
H819 H 0.09615 0.54702 0.85224 0.0
H820 H 0.08065 0.54792 0.88606 0.0
H821 H 0.11861 0.56089 0.88116 0.0
H822 H 0.1247 0.5563 0.92999 0.0
H823 H 0.10748 0.57979 0.9679 0.0
H824 H 0.68743 0.86488 0.94195 0.0
H825 H 0.66606 0.90025 0.95731 0.0
H826 H 0.6121 0.88618 0.88482 0.0
H827 H 0.63331 0.85034 0.86964 0.0
H828 H 0.66258 0.94657 0.93198 0.0
H829 H 0.55452 0.87896 0.94846 0.0
H830 H 0.5859 0.86702 0.94315 0.0
H831 H 0.56928 0.87811 0.91446 0.0
C832 C 0.67123 0.86961 0.92919 0.0
C833 C 0.66189 0.85512 0.90472 0.0
C834 C 0.65902 0.88973 0.93796 0.0
C835 C 0.63717 0.89558 0.92245 0.0
C836 C 0.62854 0.88165 0.89736 0.0
H837 H 0.53133 1.00106 0.97447 0.0
H838 H 0.55187 0.97046 0.94727 0.0
C839 C 0.64077 0.86141 0.8886 0.0
C840 C 0.62321 0.91584 0.93318 0.0
H841 H 0.56046 0.92385 0.95981 0.0
C842 C 0.64019 0.94167 0.93787 0.0
C843 C 0.59395 0.90943 0.9407 0.0
C844 C 0.5748 0.88186 0.93667 0.0
C845 C 0.62888 0.96119 0.95027 0.0
C846 C 0.59992 0.95453 0.95889 0.0
C847 C 0.58266 0.92892 0.95332 0.0
C848 C 0.5876 0.97341 0.975 0.0
C849 C 0.64814 0.98876 0.95393 0.0
C850 C 0.60051 0.9849 0.99985 0.0
C851 C 0.58909 1.00261 1.01516 0.0
C852 C 0.56408 1.00881 1.0063 0.0
C853 C 0.55069 0.99679 0.98177 0.0
C854 C 0.5624 0.9793 0.96623 0.0
H855 H 0.66553 0.99272 0.93833 0.0
H856 H 0.63596 1.00383 0.95228 0.0
H857 H 0.65836 0.99095 0.97463 0.0
H858 H 0.61935 0.97998 1.0076 0.0
H859 H 0.59965 1.0111 0.03422 0.0
H860 H 0.85399 0.2309 0.43921 0.0
H861 H 0.88566 0.20235 0.44721 0.0
H862 H 0.81309 0.14043 0.47257 0.0
H863 H 0.7814 0.16868 0.46428 0.0
H864 H 0.89378 0.18239 0.49651 0.0
H865 H 0.85333 0.10078 0.42006 0.0
H866 H 0.84444 0.13197 0.41849 0.0
H867 H 0.82542 0.10711 0.44148 0.0
C868 C 0.84488 0.21112 0.44632 0.0
C869 C 0.81537 0.20188 0.45111 0.0
C870 C 0.86287 0.19484 0.45069 0.0
C871 C 0.85156 0.16917 0.45992 0.0
C872 C 0.82207 0.1599 0.46462 0.0
H873 H 0.91234 0.05292 0.54072 0.0
H874 H 0.8845 0.07917 0.5179 0.0
C875 C 0.80406 0.17608 0.46006 0.0
C876 C 0.87082 0.15289 0.46715 0.0
H877 H 0.88212 0.09195 0.45714 0.0
C878 C 0.89159 0.16279 0.48758 0.0
C879 C 0.86773 0.12734 0.45545 0.0
C880 C 0.8467 0.11627 0.43246 0.0
C881 C 0.90868 0.14736 0.49748 0.0
C882 C 0.90495 0.12154 0.48641 0.0
C883 C 0.88471 0.11181 0.46551 0.0
C884 C 0.92111 0.10405 0.49738 0.0
C885 C 0.92988 0.15838 0.52039 0.0
C886 C 0.95063 0.10928 0.49286 0.0
C887 C 0.96643 0.09444 0.50587 0.0
C888 C 0.95285 0.07414 0.52331 0.0
C889 C 0.92317 0.06847 0.52723 0.0
C890 C 0.90732 0.08328 0.51417 0.0
H891 H 0.92694 0.1771 0.52954 0.0
H892 H 0.92784 0.1439 0.537 0.0
H893 H 0.95195 0.16228 0.51208 0.0
H894 H 0.96153 0.12537 0.48003 0.0
H895 H 0.98936 0.09969 0.50337 0.0
H896 H 0.32869 0.72488 0.16254 0.0
H897 H 0.28411 0.7021 0.13992 0.0
H898 H 0.25021 0.66969 0.21754 0.0
H899 H 0.2946 0.69431 0.24096 0.0
H900 H 0.25782 0.65403 0.13078 0.0
H901 H 0.18475 0.69662 0.19459 0.0
H902 H 0.22316 0.70856 0.19729 0.0
H903 H 0.20452 0.67894 0.21422 0.0
C904 C 0.31169 0.71329 0.17511 0.0
C905 C 0.31527 0.71217 0.20392 0.0
C906 C 0.28609 0.69996 0.16194 0.0
C907 C 0.26312 0.68454 0.1769 0.0
C908 C 0.26704 0.68213 0.20547 0.0
H909 H 0.11847 0.57251 0.09457 0.0
H910 H 0.16147 0.594 0.12107 0.0
C911 C 0.29273 0.69588 0.21885 0.0
C912 C 0.23566 0.67095 0.16204 0.0
H913 H 0.16305 0.66353 0.16127 0.0
C914 C 0.23716 0.65617 0.1376 0.0
C915 C 0.20845 0.67387 0.17039 0.0
C916 C 0.20505 0.69056 0.19539 0.0
C917 C 0.21266 0.64435 0.12157 0.0
C918 C 0.18547 0.6467 0.13032 0.0
C919 C 0.18381 0.66153 0.15461 0.0
C920 C 0.15865 0.63373 0.11451 0.0
C921 C 0.21617 0.62999 0.0949 0.0
C922 C 0.14216 0.64876 0.10224 0.0
C923 C 0.11734 0.63647 0.08692 0.0
C924 C 0.10827 0.60878 0.08367 0.0
C925 C 0.12472 0.59384 0.09631 0.0
C926 C 0.14948 0.60613 0.11151 0.0
H927 H 0.23882 0.63493 0.08796 0.0
H928 H 0.20903 0.60842 0.09792 0.0
H929 H 0.20282 0.63483 0.07829 0.0
H930 H 0.14868 0.67008 0.10425 0.0
H931 H 0.10526 0.64868 0.07767 0.0
H932 H 0.25515 0.38677 0.69355 0.0
H933 H 0.30071 0.41251 0.67513 0.0
H934 H 0.26467 0.47847 0.66522 0.0
H935 H 0.2193 0.45298 0.68464 0.0
H936 H 0.31387 0.43062 0.62698 0.0
H937 H 0.33863 0.51715 0.69908 0.0
H938 H 0.31022 0.48802 0.70551 0.0
H939 H 0.3045 0.51259 0.68267 0.0
C940 C 0.25705 0.40691 0.68783 0.0
C941 C 0.23355 0.41784 0.69081 0.0
C942 C 0.28318 0.42166 0.67721 0.0
C943 C 0.28663 0.44776 0.66902 0.0
C944 C 0.26316 0.45877 0.67209 0.0
H945 H 0.41607 0.52192 0.54958 0.0
H946 H 0.37219 0.5011 0.57426 0.0
C947 C 0.23708 0.4441 0.68314 0.0
C948 C 0.31416 0.46262 0.65589 0.0
H949 H 0.3665 0.52108 0.65777 0.0
C950 C 0.32536 0.45034 0.63393 0.0
C951 C 0.32971 0.4883 0.66495 0.0
C952 C 0.32032 0.50218 0.68953 0.0
C953 C 0.35107 0.46296 0.62066 0.0
C954 C 0.36587 0.48909 0.62886 0.0
C955 C 0.35507 0.50124 0.65114 0.0
C956 C 0.39243 0.50397 0.61437 0.0
C957 C 0.36242 0.44785 0.59831 0.0
C958 C 0.41844 0.5139 0.62876 0.0
C959 C 0.44369 0.5262 0.61463 0.0
C960 C 0.44343 0.52886 0.5858 0.0
C961 C 0.41714 0.51998 0.57172 0.0
C962 C 0.39199 0.50785 0.58581 0.0
H963 H 0.35382 0.42621 0.60031 0.0
H964 H 0.35571 0.45312 0.57785 0.0
H965 H 0.38616 0.45268 0.59885 0.0
H966 H 0.4194 0.51142 0.65081 0.0
H967 H 0.46355 0.53285 0.62612 0.0
H968 H 0.79739 0.79209 0.85736 0.0
H969 H 0.82919 0.76621 0.8722 0.0
H970 H 0.7584 0.71211 0.91155 0.0
H971 H 0.72588 0.73707 0.89524 0.0
H972 H 0.84181 0.75796 0.9241 0.0
H973 H 0.79494 0.66145 0.87074 0.0
H974 H 0.78525 0.69109 0.86195 0.0
H975 H 0.7699 0.67308 0.89175 0.0
C976 C 0.78829 0.77429 0.8685 0.0
C977 C 0.7589 0.76655 0.87483 0.0
C978 C 0.80664 0.75964 0.87721 0.0
C979 C 0.79616 0.73701 0.89267 0.0
C980 C 0.76688 0.72916 0.89911 0.0
H981 H 0.88544 0.63992 0.98043 0.0
H982 H 0.84911 0.65931 0.96124 0.0
C983 C 0.74838 0.7437 0.89012 0.0
C984 C 0.81641 0.72281 0.9034 0.0
H985 H 0.83166 0.66294 0.90368 0.0
C986 C 0.83962 0.73721 0.91952 0.0
C987 C 0.81348 0.69569 0.8975 0.0
C988 C 0.78971 0.67944 0.87933 0.0
C989 C 0.85992 0.72528 0.92997 0.0
C990 C 0.85707 0.69825 0.92398 0.0
C991 C 0.83372 0.68368 0.90818 0.0
C992 C 0.87843 0.68499 0.93388 0.0
C993 C 0.88412 0.74165 0.94761 0.0
C994 C 0.90672 0.69261 0.92432 0.0
C995 C 0.92751 0.68173 0.93532 0.0
C996 C 0.92036 0.66293 0.95604 0.0
C997 C 0.89171 0.65463 0.96481 0.0
C998 C 0.87091 0.66553 0.95375 0.0
H999 H 0.87965 0.76024 0.95543 0.0
H1000 H 0.88817 0.73039 0.96549 0.0
H1001 H 0.90396 0.74692 0.93507 0.0
H1002 H 0.91284 0.70741 0.90876 0.0
H1003 H 0.94938 0.68875 0.92825 0.0
H1004 H 0.41241 0.81806 0.24114 0.0
H1005 H 0.43363 0.86005 0.21925 0.0
H1006 H 0.39583 0.82747 0.14144 0.0
H1007 H 0.37574 0.78504 0.16254 0.0
H1008 H 0.47137 0.86622 0.16633 0.0
H1009 H 0.37225 0.90029 0.15809 0.0
H1010 H 0.37642 0.87745 0.18391 0.0
H1011 H 0.3704 0.8665 0.14854 0.0
C1012 C 0.40877 0.81954 0.2193 0.0
C1013 C 0.39204 0.79777 0.20386 0.0
C1014 C 0.42077 0.84377 0.20685 0.0
C1015 C 0.41605 0.84707 0.17876 0.0
C1016 C 0.39942 0.82557 0.16324 0.0
H1017 H 0.46996 0.98644 0.07363 0.0
H1018 H 0.44464 0.94339 0.09233 0.0
C1019 C 0.38774 0.80125 0.17553 0.0
C1020 C 0.42936 0.87266 0.16541 0.0
H1021 H 0.41446 0.92745 0.13936 0.0
C1022 C 0.45894 0.87962 0.16047 0.0
C1023 C 0.4131 0.88997 0.1573 0.0
C1024 C 0.38127 0.88342 0.16225 0.0
C1025 C 0.47269 0.90334 0.1477 0.0
C1026 C 0.45665 0.92122 0.14041 0.0
C1027 C 0.4269 0.91398 0.14494 0.0
C1028 C 0.47069 0.94788 0.1293 0.0
C1029 C 0.50428 0.90866 0.14165 0.0
C1030 C 0.49309 0.96524 0.14411 0.0
C1031 C 0.50757 0.98953 0.13341 0.0
C1032 C 0.49981 0.99757 0.10779 0.0
C1033 C 0.4765 0.98084 0.0934 0.0
C1034 C 0.46207 0.95621 0.10408 0.0
H1035 H 0.51096 0.89003 0.13959 0.0
H1036 H 0.51003 0.91973 0.12238 0.0
H1037 H 0.51664 0.9205 0.15901 0.0
H1038 H 0.49964 0.9599 0.16398 0.0
H1039 H 0.52519 1.002 0.14524 0.0
H1040 H 0.11091 0.33471 0.67997 0.0
H1041 H 0.0915 0.29082 0.65917 0.0
H1042 H 0.17638 0.27981 0.65352 0.0
H1043 H 0.19613 0.32333 0.67557 0.0
H1044 H 0.13678 0.26655 0.6021 0.0
H1045 H 0.09111 0.21813 0.69866 0.0
H1046 H 0.08559 0.25004 0.69237 0.0
H1047 H 0.12108 0.24712 0.69866 0.0
C1048 C 0.12561 0.32296 0.67484 0.0
C1049 C 0.15526 0.33285 0.67998 0.0
C1050 C 0.11437 0.29781 0.66267 0.0
C1051 C 0.1324 0.28186 0.65495 0.0
C1052 C 0.16201 0.29172 0.65934 0.0
H1053 H 0.0742 0.11236 0.61318 0.0
H1054 H 0.09707 0.15583 0.63411 0.0
C1055 C 0.17329 0.3168 0.67184 0.0
C1056 C 0.12017 0.25494 0.64233 0.0
H1057 H 0.07924 0.19323 0.65706 0.0
C1058 C 0.12428 0.25046 0.61409 0.0
C1059 C 0.1042 0.23383 0.65802 0.0
C1060 C 0.10026 0.23725 0.68867 0.0
C1061 C 0.11248 0.22563 0.60104 0.0
C1062 C 0.09544 0.20464 0.6165 0.0
C1063 C 0.09194 0.20912 0.64495 0.0
C1064 C 0.08121 0.17797 0.60372 0.0
C1065 C 0.11904 0.22216 0.57089 0.0
C1066 C 0.06404 0.17548 0.57991 0.0
C1067 C 0.05149 0.15064 0.56759 0.0
C1068 C 0.05491 0.12745 0.57924 0.0
C1069 C 0.07107 0.12978 0.60368 0.0
C1070 C 0.0842 0.15471 0.61566 0.0
H1071 H 0.13933 0.2364 0.56484 0.0
H1072 H 0.12078 0.2019 0.56595 0.0
H1073 H 0.10164 0.22597 0.55815 0.0
H1074 H 0.0602 0.19277 0.57077 0.0
H1075 H 0.0388 0.14958 0.54902 0.0
H1076 H 0.7454 0.32956 0.45159 0.0
H1077 H 0.70752 0.34838 0.47013 0.0
H1078 H 0.70891 0.30851 0.54652 0.0
H1079 H 0.74705 0.28991 0.52801 0.0
H1080 H 0.65218 0.32145 0.49202 0.0
H1081 H 0.72344 0.388 0.56911 0.0
H1082 H 0.73741 0.37271 0.54034 0.0
H1083 H 0.72202 0.35347 0.56925 0.0
C1084 C 0.73754 0.32494 0.47232 0.0
C1085 C 0.74902 0.30879 0.48869 0.0
C1086 C 0.71594 0.3355 0.48281 0.0
C1087 C 0.70575 0.32997 0.50975 0.0
C1088 C 0.71683 0.31323 0.52585 0.0
H1089 H 0.56055 0.39505 0.55376 0.0
H1090 H 0.59035 0.36384 0.55499 0.0
C1091 C 0.73847 0.30268 0.51533 0.0
C1092 C 0.68417 0.34259 0.52099 0.0
H1093 H 0.67687 0.39269 0.56426 0.0
C1094 C 0.65725 0.3367 0.50818 0.0
C1095 C 0.69114 0.36242 0.54203 0.0
C1096 C 0.72009 0.36976 0.55598 0.0
C1097 C 0.63755 0.3512 0.51479 0.0
C1098 C 0.64499 0.37182 0.53503 0.0
C1099 C 0.67129 0.37671 0.54893 0.0
C1100 C 0.62796 0.39113 0.53861 0.0
C1101 C 0.60981 0.34558 0.49876 0.0
C1102 C 0.63974 0.41697 0.53012 0.0
C1103 C 0.62295 0.43472 0.52952 0.0
C1104 C 0.59406 0.42688 0.53738 0.0
C1105 C 0.58266 0.40138 0.54721 0.0
C1106 C 0.5996 0.38362 0.54796 0.0
H1107 H 0.6092 0.33137 0.4812 0.0
H1108 H 0.59167 0.3371 0.51268 0.0
H1109 H 0.60653 0.36408 0.49059 0.0
H1110 H 0.66159 0.42305 0.52274 0.0
H1111 H 0.63221 0.45416 0.52161 0.0
loop_
_geom_bond_atom_site_label_1
_geom_bond_atom_site_label_2
_geom_bond_distance
_geom_bond_site_symmetry_2
_ccdc_geom_bond_type
H0 C3 0.929 . S
H1 C6 0.929 . S
H2 C8 0.930 . S
C3 H0 0.929 . S
C3 C4 1.398 . S
C3 C5 1.396 . S
C4 C3 1.398 . S
C4 C8 1.407 . S
C5 C3 1.396 . S
C5 C6 1.394 . S
C6 H1 0.929 . S
C6 C5 1.394 . S
C6 C7 1.382 . S
C7 C6 1.382 . S
C7 C8 1.392 . S
C7 N9 1.420 . S
C8 H2 0.930 . S
C8 C4 1.407 . S
C8 C7 1.392 . S
N9 C7 1.420 . S
N9 C10 1.244 . S
C10 N9 1.244 . S
H11 C14 0.929 . S
H12 C17 0.929 . S
H13 C19 0.930 . S
C14 H11 0.929 . S
C14 C15 1.398 . S
C14 C16 1.396 . S
C15 C14 1.398 . S
C15 C19 1.407 . S
C16 C14 1.396 . S
C16 C17 1.394 . S
C17 H12 0.929 . S
C17 C16 1.394 . S
C17 C18 1.382 . S
C18 C17 1.382 . S
C18 C19 1.392 . S
C18 N20 1.420 . S
C19 H13 0.930 . S
C19 C15 1.407 . S
C19 C18 1.392 . S
N20 C18 1.420 . S
N20 C21 1.244 . S
C21 N20 1.244 . S
H22 C25 0.929 . S
H23 C28 0.929 . S
H24 C30 0.930 . S
C25 H22 0.929 . S
C25 C26 1.398 . S
C25 C27 1.396 . S
C26 C25 1.398 . S
C26 C30 1.407 . S
C27 C25 1.396 . S
C27 C28 1.394 . S
C28 H23 0.929 . S
C28 C27 1.394 . S
C28 C29 1.382 . S
C29 C28 1.382 . S
C29 C30 1.392 . S
C29 N31 1.420 . S
C30 H24 0.930 . S
C30 C26 1.407 . S
C30 C29 1.392 . S
N31 C29 1.420 . S
N31 C32 1.244 . S
C32 N31 1.244 . S
H33 C36 0.929 . S
H34 C39 0.929 . S
H35 C41 0.930 . S
C36 H33 0.929 . S
C36 C37 1.398 . S
C36 C38 1.396 . S
C37 C36 1.398 . S
C37 C41 1.407 . S
C38 C36 1.396 . S
C38 C39 1.394 . S
C39 H34 0.929 . S
C39 C38 1.394 . S
C39 C40 1.382 . S
C40 C39 1.382 . S
C40 C41 1.392 . S
C40 N42 1.420 . S
C41 H35 0.930 . S
C41 C37 1.407 . S
C41 C40 1.392 . S
N42 C40 1.420 . S
N42 C43 1.244 . S
C43 N42 1.244 . S
H44 C47 0.929 . S
H45 C50 0.929 . S
H46 C52 0.930 . S
C47 H44 0.929 . S
C47 C48 1.398 . S
C47 C49 1.396 . S
C48 C47 1.398 . S
C48 C52 1.407 . S
C49 C47 1.396 . S
C49 C50 1.394 . S
C50 H45 0.929 . S
C50 C49 1.394 . S
C50 C51 1.382 . S
C51 C50 1.382 . S
C51 C52 1.392 . S
C51 N53 1.420 . S
C52 H46 0.930 . S
C52 C48 1.407 . S
C52 C51 1.392 . S
N53 C51 1.420 . S
N53 C54 1.244 . S
C54 N53 1.244 . S
H55 C58 0.929 . S
H56 C61 0.929 . S
H57 C63 0.930 . S
C58 H55 0.929 . S
C58 C59 1.398 . S
C58 C60 1.396 . S
C59 C58 1.398 . S
C59 C63 1.407 . S
C60 C58 1.396 . S
C60 C61 1.394 . S
C61 H56 0.929 . S
C61 C60 1.394 . S
C61 C62 1.382 . S
C62 C61 1.382 . S
C62 C63 1.392 . S
C62 N64 1.420 . S
C63 H57 0.930 . S
C63 C59 1.407 . S
C63 C62 1.392 . S
N64 C62 1.420 . S
N64 C65 1.244 . S
C65 N64 1.244 . S
H66 C69 0.929 . S
H67 C72 0.929 . S
H68 C74 0.930 . S
C69 H66 0.929 . S
C69 C70 1.398 . S
C69 C71 1.396 . S
C70 C69 1.398 . S
C70 C74 1.407 . S
C71 C69 1.396 . S
C71 C72 1.394 . S
C72 H67 0.929 . S
C72 C71 1.394 . S
C72 C73 1.382 . S
C73 C72 1.382 . S
C73 C74 1.392 . S
C73 N75 1.420 . S
C74 H68 0.930 . S
C74 C70 1.407 . S
C74 C73 1.392 . S
N75 C73 1.420 . S
N75 C76 1.244 . S
C76 N75 1.244 . S
H77 C80 0.929 . S
H78 C83 0.929 . S
H79 C85 0.930 . S
C80 H77 0.929 . S
C80 C81 1.398 . S
C80 C82 1.396 . S
C81 C80 1.398 . S
C81 C85 1.407 . S
C82 C80 1.396 . S
C82 C83 1.394 . S
C83 H78 0.929 . S
C83 C82 1.394 . S
C83 C84 1.382 . S
C84 C83 1.382 . S
C84 C85 1.392 . S
C84 N86 1.420 . S
C85 H79 0.930 . S
C85 C81 1.407 . S
C85 C84 1.392 . S
N86 C84 1.420 . S
N86 C87 1.244 . S
C87 N86 1.244 . S
Gd88 C91 2.818 . S
Gd88 O108 2.377 . S
Gd88 O110 2.448 . S
Gd88 O111 2.506 . S
Gd88 O112 2.435 . S
Gd88 O113 2.717 . S
Gd88 O115 2.395 1_545 S
Gd88 O119 2.327 1_455 S
Gd89 C100 2.818 1_545 S
Gd89 O109 2.395 1_655 S
Gd89 O113 2.327 1_655 S
Gd89 O114 2.377 1_545 S
Gd89 O116 2.447 1_545 S
Gd89 O117 2.506 1_545 S
Gd89 O118 2.435 . S
Gd89 O119 2.717 . S
C90 O108 1.240 . S
C90 O109 1.240 . S
C91 Gd88 2.818 . S
C91 C92 1.510 . S
C91 O110 1.249 . S
C91 O111 1.252 . S
C92 C91 1.510 . S
C92 C93 1.404 . S
C92 C94 1.352 . S
C93 C92 1.404 . S
C93 C97 1.389 . S
C93 H120 0.930 . S
C94 C92 1.352 . S
C94 C96 1.374 . S
C94 H121 0.931 . S
C95 C96 1.359 . S
C95 C97 1.364 . S
C96 C94 1.374 . S
C96 C95 1.359 . S
C96 H122 0.931 . S
C97 C93 1.389 . S
C97 C95 1.364 . S
C97 H123 0.931 . S
C98 O112 1.256 . S
C98 O113 1.257 . S
C99 O114 1.240 . S
C99 O115 1.240 1_655 S
C100 Gd89 2.818 1_565 S
C100 C101 1.510 . S
C100 O116 1.254 . S
C100 O117 1.252 . S
C101 C100 1.510 . S
C101 C102 1.404 . S
C101 C103 1.352 . S
C102 C101 1.404 . S
C102 C106 1.389 . S
C102 H124 0.930 . S
C103 C101 1.352 . S
C103 C105 1.374 . S
C103 H125 0.931 . S
C104 C105 1.359 . S
C104 C106 1.364 . S
C105 C103 1.374 . S
C105 C104 1.359 . S
C105 H126 0.931 . S
C106 C102 1.389 . S
C106 C104 1.364 . S
C106 H127 0.931 . S
C107 O118 1.256 . S
C107 O119 1.257 . S
O108 Gd88 2.377 . S
O108 C90 1.240 . S
O109 Gd89 2.395 1_455 S
O109 C90 1.240 . S
O110 Gd88 2.448 . S
O110 C91 1.249 . S
O111 Gd88 2.506 . S
O111 C91 1.252 . S
O112 Gd88 2.435 . S
O112 C98 1.256 . S
O113 Gd88 2.717 . S
O113 Gd89 2.327 1_455 S
O113 C98 1.257 . S
O114 Gd89 2.377 1_565 S
O114 C99 1.240 . S
O115 Gd88 2.395 1_565 S
O115 C99 1.240 1_455 S
O116 Gd89 2.447 1_565 S
O116 C100 1.254 . S
O117 Gd89 2.506 1_565 S
O117 C100 1.252 . S
O118 Gd89 2.435 . S
O118 C107 1.256 . S
O119 Gd88 2.327 1_655 S
O119 Gd89 2.717 . S
O119 C107 1.257 . S
H120 C93 0.930 . S
H121 C94 0.931 . S
H122 C96 0.931 . S
H123 C97 0.931 . S
H124 C102 0.930 . S
H125 C103 0.931 . S
H126 C105 0.931 . S
H127 C106 0.931 . S
Gd128 C131 2.818 . S
Gd128 O148 2.377 . S
Gd128 O150 2.448 . S
Gd128 O151 2.506 . S
Gd128 O152 2.435 1_545 S
Gd128 O153 2.717 . S
Gd128 O155 2.395 . S
Gd128 O159 2.327 . S
Gd129 C140 2.818 1_544 S
Gd129 O149 2.395 . S
Gd129 O153 2.327 . S
Gd129 O154 2.377 . S
Gd129 O156 2.448 1_554 S
Gd129 O157 2.506 1_544 S
Gd129 O158 2.436 1_554 S
Gd129 O159 2.717 . S
C130 O148 1.240 . S
C130 O149 1.240 . S
C131 Gd128 2.818 . S
C131 C132 1.510 . S
C131 O150 1.249 . S
C131 O151 1.252 . S
C132 C131 1.510 . S
C132 C133 1.404 . S
C132 C134 1.352 . S
C133 C132 1.404 . S
C133 C137 1.389 . S
C133 H160 0.930 . S
C134 C132 1.352 . S
C134 C136 1.374 . S
C134 H161 0.931 . S
C135 C136 1.359 . S
C135 C137 1.364 . S
C136 C134 1.374 . S
C136 C135 1.359 . S
C136 H162 0.931 . S
C137 C133 1.389 . S
C137 C135 1.364 . S
C137 H163 0.931 . S
C138 O152 1.256 . S
C138 O153 1.257 1_565 S
C139 O154 1.240 1_565 S
C139 O155 1.240 1_565 S
C140 Gd129 2.818 1_566 S
C140 C141 1.510 . S
C140 O156 1.249 1_565 S
C140 O157 1.252 . S
C141 C140 1.510 . S
C141 C142 1.404 . S
C141 C143 1.352 . S
C142 C141 1.404 . S
C142 C146 1.389 . S
C142 H164 0.930 1_565 S
C143 C141 1.352 . S
C143 C145 1.374 . S
C143 H165 0.931 . S
C144 C145 1.359 . S
C144 C146 1.364 . S
C145 C143 1.374 . S
C145 C144 1.359 . S
C145 H166 0.931 . S
C146 C142 1.389 . S
C146 C144 1.364 . S
C146 H167 0.931 . S
C147 O158 1.257 1_554 S
C147 O159 1.257 . S
O148 Gd128 2.377 . S
O148 C130 1.240 . S
O149 Gd129 2.395 . S
O149 C130 1.240 . S
O150 Gd128 2.448 . S
O150 C131 1.249 . S
O151 Gd128 2.506 . S
O151 C131 1.252 . S
O152 Gd128 2.435 1_565 S
O152 C138 1.256 . S
O153 Gd128 2.717 . S
O153 Gd129 2.327 . S
O153 C138 1.257 1_545 S
O154 Gd129 2.377 . S
O154 C139 1.240 1_545 S
O155 Gd128 2.395 . S
O155 C139 1.240 1_545 S
O156 Gd129 2.448 1_556 S
O156 C140 1.249 1_545 S
O157 Gd129 2.506 1_566 S
O157 C140 1.252 . S
O158 Gd129 2.436 1_556 S
O158 C147 1.257 1_556 S
O159 Gd128 2.327 . S
O159 Gd129 2.717 . S
O159 C147 1.257 . S
H160 C133 0.930 . S
H161 C134 0.931 . S
H162 C136 0.931 . S
H163 C137 0.931 . S
H164 C142 0.930 1_545 S
H165 C143 0.931 . S
H166 C145 0.931 . S
H167 C146 0.931 . S
Gd168 C171 2.818 . S
Gd168 O188 2.377 . S
Gd168 O190 2.448 . S
Gd168 O191 2.506 . S
Gd168 O192 2.435 . S
Gd168 O193 2.717 . S
Gd168 O195 2.395 . S
Gd168 O199 2.327 . S
Gd169 C180 2.818 . S
Gd169 O189 2.395 . S
Gd169 O193 2.327 . S
Gd169 O194 2.377 . S
Gd169 O196 2.448 . S
Gd169 O197 2.506 . S
Gd169 O198 2.435 . S
Gd169 O199 2.717 . S
C170 O188 1.240 . S
C170 O189 1.240 . S
C171 Gd168 2.818 . S
C171 C172 1.510 . S
C171 O190 1.249 . S
C171 O191 1.252 . S
C172 C171 1.510 . S
C172 C173 1.404 . S
C172 C174 1.352 . S
C173 C172 1.404 . S
C173 C177 1.389 . S
C173 H200 0.930 . S
C174 C172 1.352 . S
C174 C176 1.374 . S
C174 H201 0.931 . S
C175 C176 1.359 . S
C175 C177 1.364 . S
C176 C174 1.374 . S
C176 C175 1.359 . S
C176 H202 0.931 . S
C177 C173 1.389 . S
C177 C175 1.364 . S
C177 H203 0.931 . S
C178 O192 1.256 . S
C178 O193 1.257 . S
C179 O194 1.240 . S
C179 O195 1.240 . S
C180 Gd169 2.818 . S
C180 C181 1.510 . S
C180 O196 1.249 . S
C180 O197 1.252 . S
C181 C180 1.510 . S
C181 C182 1.404 . S
C181 C183 1.352 . S
C182 C181 1.404 . S
C182 C186 1.389 . S
C182 H204 0.930 . S
C183 C181 1.352 . S
C183 C185 1.374 . S
C183 H205 0.931 . S
C184 C185 1.359 . S
C184 C186 1.364 . S
C185 C183 1.374 . S
C185 C184 1.359 . S
C185 H206 0.931 . S
C186 C182 1.389 . S
C186 C184 1.364 . S
C186 H207 0.931 . S
C187 O198 1.256 . S
C187 O199 1.257 . S
O188 Gd168 2.377 . S
O188 C170 1.240 . S
O189 Gd169 2.395 . S
O189 C170 1.240 . S
O190 Gd168 2.448 . S
O190 C171 1.249 . S
O191 Gd168 2.506 . S
O191 C171 1.252 . S
O192 Gd168 2.435 . S
O192 C178 1.256 . S
O193 Gd168 2.717 . S
O193 Gd169 2.327 . S
O193 C178 1.257 . S
O194 Gd169 2.377 . S
O194 C179 1.240 . S
O195 Gd168 2.395 . S
O195 C179 1.240 . S
O196 Gd169 2.448 . S
O196 C180 1.249 . S
O197 Gd169 2.506 . S
O197 C180 1.252 . S
O198 Gd169 2.435 . S
O198 C187 1.256 . S
O199 Gd168 2.327 . S
O199 Gd169 2.717 . S
O199 C187 1.257 . S
H200 C173 0.930 . S
H201 C174 0.931 . S
H202 C176 0.931 . S
H203 C177 0.931 . S
H204 C182 0.930 . S
H205 C183 0.931 . S
H206 C185 0.931 . S
H207 C186 0.931 . S
Gd208 C211 2.818 . S
Gd208 O228 2.377 . S
Gd208 O230 2.448 . S
Gd208 O231 2.506 . S
Gd208 O232 2.435 . S
Gd208 O233 2.717 . S
Gd208 O235 2.395 1_455 S
Gd208 O239 2.327 1_554 S
Gd209 C220 2.818 1_455 S
Gd209 O229 2.395 1_556 S
Gd209 O233 2.327 1_556 S
Gd209 O234 2.377 1_455 S
Gd209 O236 2.448 . S
Gd209 O237 2.506 1_455 S
Gd209 O238 2.435 . S
Gd209 O239 2.717 . S
C210 O228 1.240 . S
C210 O229 1.240 . S
C211 Gd208 2.818 . S
C211 C212 1.510 . S
C211 O230 1.249 . S
C211 O231 1.252 . S
C212 C211 1.510 . S
C212 C213 1.404 . S
C212 C214 1.352 . S
C213 C212 1.404 . S
C213 C217 1.389 . S
C213 H240 0.930 . S
C214 C212 1.352 . S
C214 C216 1.374 . S
C214 H241 0.931 . S
C215 C216 1.359 . S
C215 C217 1.364 . S
C216 C214 1.374 . S
C216 C215 1.359 . S
C216 H242 0.931 . S
C217 C213 1.389 . S
C217 C215 1.364 . S
C217 H243 0.931 . S
C218 O232 1.256 . S
C218 O233 1.257 . S
C219 O234 1.240 . S
C219 O235 1.240 1_556 S
C220 Gd209 2.818 1_655 S
C220 C221 1.510 . S
C220 O236 1.249 1_655 S
C220 O237 1.252 . S
C221 C220 1.510 . S
C221 C222 1.404 . S
C221 C223 1.352 . S
C222 C221 1.404 . S
C222 C226 1.389 . S
C222 H244 0.930 . S
C223 C221 1.352 . S
C223 C225 1.374 . S
C223 H245 0.931 . S
C224 C225 1.359 . S
C224 C226 1.364 . S
C225 C223 1.374 . S
C225 C224 1.359 . S
C225 H246 0.931 . S
C226 C222 1.389 . S
C226 C224 1.364 . S
C226 H247 0.931 . S
C227 O238 1.256 . S
C227 O239 1.257 . S
O228 Gd208 2.377 . S
O228 C210 1.240 . S
O229 Gd209 2.395 1_554 S
O229 C210 1.240 . S
O230 Gd208 2.448 . S
O230 C211 1.249 . S
O231 Gd208 2.506 . S
O231 C211 1.252 . S
O232 Gd208 2.435 . S
O232 C218 1.256 . S
O233 Gd208 2.717 . S
O233 Gd209 2.327 1_554 S
O233 C218 1.257 . S
O234 Gd209 2.377 1_655 S
O234 C219 1.240 . S
O235 Gd208 2.395 1_655 S
O235 C219 1.240 1_554 S
O236 Gd209 2.448 . S
O236 C220 1.249 1_455 S
O237 Gd209 2.506 1_655 S
O237 C220 1.252 . S
O238 Gd209 2.435 . S
O238 C227 1.256 . S
O239 Gd208 2.327 1_556 S
O239 Gd209 2.717 . S
O239 C227 1.257 . S
H240 C213 0.930 . S
H241 C214 0.931 . S
H242 C216 0.931 . S
H243 C217 0.931 . S
H244 C222 0.930 . S
H245 C223 0.931 . S
H246 C225 0.931 . S
H247 C226 0.931 . S
H248 C256 0.929 . S
H249 C258 0.930 . S
H250 C260 0.930 . S
H251 C263 0.929 . S
H252 C266 0.930 . S
H253 C268 0.960 . S
H254 C268 0.960 . S
H255 C268 0.960 . S
C256 H248 0.929 . S
C256 C257 1.377 . S
C256 C258 1.384 . S
C257 C256 1.377 . S
C257 C263 1.390 . S
C258 H249 0.930 . S
C258 C256 1.384 . S
C258 C259 1.372 . S
C259 C258 1.372 . S
C259 C260 1.400 . S
C259 C264 1.490 . S
C260 H250 0.930 . S
C260 C259 1.400 . S
C260 C263 1.386 . S
H261 C277 0.930 . S
H262 C278 0.931 . S
C263 H251 0.929 . S
C263 C257 1.390 . S
C263 C260 1.386 . S
C264 C259 1.490 . S
C264 C266 1.395 . S
C264 C267 1.403 . S
H265 C271 0.930 . S
C266 H252 0.930 . S
C266 C264 1.395 . S
C266 C269 1.403 . S
C267 C264 1.403 . S
C267 C268 1.524 . S
C267 C271 1.400 . S
C268 H253 0.960 . S
C268 H254 0.960 . S
C268 H255 0.960 . S
C268 C267 1.524 . S
C269 C266 1.403 . S
C269 C270 1.392 . S
C269 C273 1.495 . S
C270 C269 1.392 . S
C270 C271 1.385 . S
C270 C272 1.478 . S
C271 H265 0.930 . S
C271 C267 1.400 . S
C271 C270 1.385 . S
C272 C270 1.478 . S
C272 C274 1.381 . S
C272 C278 1.383 . S
C273 C269 1.495 . S
C273 H279 0.959 . S
C273 H280 0.961 . S
C273 H281 0.960 . S
C274 C272 1.381 . S
C274 C275 1.394 . S
C274 H282 0.930 . S
C275 C274 1.394 . S
C275 C276 1.383 . S
C275 H283 0.929 . S
C276 C275 1.383 . S
C276 C277 1.377 . S
C277 H261 0.930 . S
C277 C276 1.377 . S
C277 C278 1.379 . S
C278 H262 0.931 . S
C278 C272 1.383 . S
C278 C277 1.379 . S
H279 C273 0.959 . S
H280 C273 0.961 . S
H281 C273 0.960 . S
H282 C274 0.930 . S
H283 C275 0.929 . S
H284 C292 0.929 . S
H285 C294 0.930 . S
H286 C296 0.930 . S
H287 C299 0.929 . S
H288 C302 0.930 . S
H289 C304 0.960 . S
H290 C304 0.960 . S
H291 C304 0.960 . S
C292 H284 0.929 . S
C292 C293 1.377 . S
C292 C294 1.384 . S
C293 C292 1.377 . S
C293 C299 1.390 . S
C294 H285 0.930 . S
C294 C292 1.384 . S
C294 C295 1.372 . S
C295 C294 1.372 . S
C295 C296 1.400 . S
C295 C300 1.490 . S
C296 H286 0.930 . S
C296 C295 1.400 . S
C296 C299 1.386 . S
H297 C313 0.930 . S
H298 C314 0.931 . S
C299 H287 0.929 . S
C299 C293 1.390 . S
C299 C296 1.386 . S
C300 C295 1.490 . S
C300 C302 1.395 . S
C300 C303 1.403 . S
H301 C307 0.930 . S
C302 H288 0.930 . S
C302 C300 1.395 . S
C302 C305 1.403 . S
C303 C300 1.403 . S
C303 C304 1.524 . S
C303 C307 1.400 . S
C304 H289 0.960 . S
C304 H290 0.960 . S
C304 H291 0.960 . S
C304 C303 1.524 . S
C305 C302 1.403 . S
C305 C306 1.392 . S
C305 C309 1.495 . S
C306 C305 1.392 . S
C306 C307 1.385 . S
C306 C308 1.478 . S
C307 H301 0.930 . S
C307 C303 1.400 . S
C307 C306 1.385 . S
C308 C306 1.478 . S
C308 C310 1.381 . S
C308 C314 1.383 . S
C309 C305 1.495 . S
C309 H315 0.959 . S
C309 H316 0.961 . S
C309 H317 0.960 . S
C310 C308 1.381 . S
C310 C311 1.394 . S
C310 H318 0.930 . S
C311 C310 1.394 . S
C311 C312 1.383 . S
C311 H319 0.929 . S
C312 C311 1.383 . S
C312 C313 1.377 . S
C313 H297 0.930 . S
C313 C312 1.377 . S
C313 C314 1.379 . S
C314 H298 0.931 . S
C314 C308 1.383 . S
C314 C313 1.379 . S
H315 C309 0.959 . S
H316 C309 0.961 . S
H317 C309 0.960 . S
H318 C310 0.930 . S
H319 C311 0.929 . S
H320 C328 0.929 . S
H321 C330 0.930 . S
H322 C332 0.930 . S
H323 C335 0.929 . S
H324 C338 0.930 . S
H325 C340 0.960 . S
H326 C340 0.960 . S
H327 C340 0.960 . S
C328 H320 0.929 . S
C328 C329 1.377 . S
C328 C330 1.384 . S
C329 C328 1.377 . S
C329 C335 1.390 . S
C330 H321 0.930 . S
C330 C328 1.384 . S
C330 C331 1.372 . S
C331 C330 1.372 . S
C331 C332 1.400 . S
C331 C336 1.490 . S
C332 H322 0.930 . S
C332 C331 1.400 . S
C332 C335 1.386 . S
H333 C349 0.930 . S
H334 C350 0.931 . S
C335 H323 0.929 . S
C335 C329 1.390 . S
C335 C332 1.386 . S
C336 C331 1.490 . S
C336 C338 1.395 . S
C336 C339 1.403 . S
H337 C343 0.930 . S
C338 H324 0.930 . S
C338 C336 1.395 . S
C338 C341 1.403 . S
C339 C336 1.403 . S
C339 C340 1.524 . S
C339 C343 1.400 . S
C340 H325 0.960 . S
C340 H326 0.960 . S
C340 H327 0.960 . S
C340 C339 1.524 . S
C341 C338 1.403 . S
C341 C342 1.392 . S
C341 C345 1.495 . S
C342 C341 1.392 . S
C342 C343 1.385 . S
C342 C344 1.478 . S
C343 H337 0.930 . S
C343 C339 1.400 . S
C343 C342 1.385 . S
C344 C342 1.478 . S
C344 C346 1.381 . S
C344 C350 1.383 . S
C345 C341 1.495 . S
C345 H351 0.959 . S
C345 H352 0.961 . S
C345 H353 0.960 . S
C346 C344 1.381 . S
C346 C347 1.394 . S
C346 H354 0.930 . S
C347 C346 1.394 . S
C347 C348 1.383 . S
C347 H355 0.929 . S
C348 C347 1.383 . S
C348 C349 1.377 . S
C349 H333 0.930 . S
C349 C348 1.377 . S
C349 C350 1.379 . S
C350 H334 0.931 . S
C350 C344 1.383 . S
C350 C349 1.379 . S
H351 C345 0.959 . S
H352 C345 0.961 . S
H353 C345 0.960 . S
H354 C346 0.930 . S
H355 C347 0.929 . S
H356 C364 0.929 . S
H357 C366 0.930 . S
H358 C368 0.930 . S
H359 C371 0.929 . S
H360 C374 0.930 . S
H361 C376 0.960 . S
H362 C376 0.960 . S
H363 C376 0.960 . S
C364 H356 0.929 . S
C364 C365 1.377 . S
C364 C366 1.384 . S
C365 C364 1.377 . S
C365 C371 1.390 . S
C366 H357 0.930 . S
C366 C364 1.384 . S
C366 C367 1.372 . S
C367 C366 1.372 . S
C367 C368 1.400 . S
C367 C372 1.490 . S
C368 H358 0.930 . S
C368 C367 1.400 . S
C368 C371 1.386 . S
H369 C385 0.930 . S
H370 C386 0.931 . S
C371 H359 0.929 . S
C371 C365 1.390 . S
C371 C368 1.386 . S
C372 C367 1.490 . S
C372 C374 1.395 . S
C372 C375 1.403 . S
H373 C379 0.930 . S
C374 H360 0.930 . S
C374 C372 1.395 . S
C374 C377 1.403 . S
C375 C372 1.403 . S
C375 C376 1.524 . S
C375 C379 1.400 . S
C376 H361 0.960 . S
C376 H362 0.960 . S
C376 H363 0.960 . S
C376 C375 1.524 . S
C377 C374 1.403 . S
C377 C378 1.392 . S
C377 C381 1.495 . S
C378 C377 1.392 . S
C378 C379 1.385 . S
C378 C380 1.478 . S
C379 H373 0.930 . S
C379 C375 1.400 . S
C379 C378 1.385 . S
C380 C378 1.478 . S
C380 C382 1.381 . S
C380 C386 1.383 . S
C381 C377 1.495 . S
C381 H387 0.959 . S
C381 H388 0.961 . S
C381 H389 0.960 . S
C382 C380 1.381 . S
C382 C383 1.394 . S
C382 H390 0.921 1_655 S
C383 C382 1.394 . S
C383 C384 1.383 . S
C383 H391 0.929 1_655 S
C384 C383 1.383 . S
C384 C385 1.377 . S
C385 H369 0.930 . S
C385 C384 1.377 . S
C385 C386 1.379 . S
C386 H370 0.931 . S
C386 C380 1.383 . S
C386 C385 1.379 . S
H387 C381 0.959 . S
H388 C381 0.961 . S
H389 C381 0.960 . S
H390 C382 0.921 1_455 S
H391 C383 0.929 1_455 S
H392 C400 0.929 . S
H393 C402 0.930 . S
H394 C404 0.930 . S
H395 C407 0.929 . S
H396 C410 0.930 . S
H397 C412 0.960 . S
H398 C412 0.960 . S
H399 C412 0.960 . S
C400 H392 0.929 . S
C400 C401 1.377 . S
C400 C402 1.384 . S
C401 C400 1.377 . S
C401 C407 1.390 . S
C402 H393 0.930 . S
C402 C400 1.384 . S
C402 C403 1.372 . S
C403 C402 1.372 . S
C403 C404 1.400 . S
C403 C408 1.490 . S
C404 H394 0.930 . S
C404 C403 1.400 . S
C404 C407 1.386 . S
H405 C421 0.930 . S
H406 C422 0.931 . S
C407 H395 0.929 . S
C407 C401 1.390 . S
C407 C404 1.386 . S
C408 C403 1.490 . S
C408 C410 1.395 . S
C408 C411 1.403 . S
H409 C415 0.930 . S
C410 H396 0.930 . S
C410 C408 1.395 . S
C410 C413 1.403 . S
C411 C408 1.403 . S
C411 C412 1.524 . S
C411 C415 1.400 . S
C412 H397 0.960 . S
C412 H398 0.960 . S
C412 H399 0.960 . S
C412 C411 1.524 . S
C413 C410 1.403 . S
C413 C414 1.392 . S
C413 C417 1.495 . S
C414 C413 1.392 . S
C414 C415 1.385 . S
C414 C416 1.478 . S
C415 H409 0.930 . S
C415 C411 1.400 . S
C415 C414 1.385 . S
C416 C414 1.478 . S
C416 C418 1.381 . S
C416 C422 1.383 . S
C417 C413 1.495 . S
C417 H423 0.959 . S
C417 H424 0.961 . S
C417 H425 0.960 . S
C418 C416 1.381 . S
C418 C419 1.394 . S
C418 H426 0.930 . S
C419 C418 1.394 . S
C419 C420 1.383 . S
C419 H427 0.929 . S
C420 C419 1.383 . S
C420 C421 1.377 . S
C421 H405 0.930 . S
C421 C420 1.377 . S
C421 C422 1.379 . S
C422 H406 0.931 . S
C422 C416 1.383 . S
C422 C421 1.379 . S
H423 C417 0.959 . S
H424 C417 0.961 . S
H425 C417 0.960 . S
H426 C418 0.930 . S
H427 C419 0.929 . S
H428 C436 0.929 . S
H429 C438 0.930 . S
H430 C440 0.930 . S
H431 C443 0.929 . S
H432 C446 0.930 . S
H433 C448 0.960 . S
H434 C448 0.960 . S
H435 C448 0.960 . S
C436 H428 0.929 . S
C436 C437 1.377 . S
C436 C438 1.384 . S
C437 C436 1.377 . S
C437 C443 1.390 . S
C438 H429 0.930 . S
C438 C436 1.384 . S
C438 C439 1.372 . S
C439 C438 1.372 . S
C439 C440 1.400 . S
C439 C444 1.490 . S
C440 H430 0.930 . S
C440 C439 1.400 . S
C440 C443 1.386 . S
H441 C457 0.930 . S
H442 C458 0.931 . S
C443 H431 0.929 . S
C443 C437 1.390 . S
C443 C440 1.386 . S
C444 C439 1.490 . S
C444 C446 1.395 . S
C444 C447 1.403 . S
H445 C451 0.930 . S
C446 H432 0.930 . S
C446 C444 1.395 . S
C446 C449 1.403 . S
C447 C444 1.403 . S
C447 C448 1.524 . S
C447 C451 1.400 . S
C448 H433 0.960 . S
C448 H434 0.960 . S
C448 H435 0.960 . S
C448 C447 1.524 . S
C449 C446 1.403 . S
C449 C450 1.392 . S
C449 C453 1.495 1_565 S
C450 C449 1.392 . S
C450 C451 1.385 . S
C450 C452 1.478 . S
C451 H445 0.930 . S
C451 C447 1.400 . S
C451 C450 1.385 . S
C452 C450 1.478 . S
C452 C454 1.381 . S
C452 C458 1.383 . S
C453 C449 1.495 1_545 S
C453 H459 0.959 . S
C453 H460 0.961 . S
C453 H461 0.960 . S
C454 C452 1.381 . S
C454 C455 1.394 1_565 S
C454 H462 0.930 . S
C455 C454 1.394 1_545 S
C455 C456 1.383 . S
C455 H463 0.929 . S
C456 C455 1.383 . S
C456 C457 1.377 1_545 S
C457 H441 0.930 . S
C457 C456 1.377 1_565 S
C457 C458 1.379 . S
C458 H442 0.931 . S
C458 C452 1.383 . S
C458 C457 1.379 . S
H459 C453 0.959 . S
H460 C453 0.961 . S
H461 C453 0.960 . S
H462 C454 0.930 . S
H463 C455 0.929 . S
H464 C472 0.929 . S
H465 C474 0.930 . S
H466 C476 0.930 . S
H467 C479 0.929 . S
H468 C482 0.930 . S
H469 C484 0.960 . S
H470 C484 0.960 . S
H471 C484 0.960 . S
C472 H464 0.929 . S
C472 C473 1.377 . S
C472 C474 1.384 . S
C473 C472 1.377 . S
C473 C479 1.390 . S
C474 H465 0.930 . S
C474 C472 1.384 . S
C474 C475 1.372 . S
C475 C474 1.372 . S
C475 C476 1.400 . S
C475 C480 1.490 . S
C476 H466 0.930 . S
C476 C475 1.400 . S
C476 C479 1.386 . S
H477 C493 0.930 . S
H478 C494 0.931 . S
C479 H467 0.929 . S
C479 C473 1.390 . S
C479 C476 1.386 . S
C480 C475 1.490 . S
C480 C482 1.395 . S
C480 C483 1.403 . S
H481 C487 0.930 . S
C482 H468 0.930 . S
C482 C480 1.395 . S
C482 C485 1.403 . S
C483 C480 1.403 . S
C483 C484 1.524 . S
C483 C487 1.400 . S
C484 H469 0.960 . S
C484 H470 0.960 . S
C484 H471 0.960 . S
C484 C483 1.524 . S
C485 C482 1.403 . S
C485 C486 1.392 . S
C485 C489 1.495 . S
C486 C485 1.392 . S
C486 C487 1.385 . S
C486 C488 1.478 . S
C487 H481 0.930 . S
C487 C483 1.400 . S
C487 C486 1.385 . S
C488 C486 1.478 . S
C488 C490 1.381 . S
C488 C494 1.383 . S
C489 C485 1.495 . S
C489 H495 0.959 . S
C489 H496 0.961 . S
C489 H497 0.960 . S
C490 C488 1.381 . S
C490 C491 1.394 . S
C490 H498 0.930 . S
C491 C490 1.394 . S
C491 C492 1.383 . S
C491 H499 0.929 . S
C492 C491 1.383 . S
C492 C493 1.377 . S
C493 H477 0.930 . S
C493 C492 1.377 . S
C493 C494 1.379 . S
C494 H478 0.931 . S
C494 C488 1.383 . S
C494 C493 1.379 . S
H495 C489 0.959 . S
H496 C489 0.961 . S
H497 C489 0.960 . S
H498 C490 0.930 . S
H499 C491 0.929 . S
H500 C508 0.929 . S
H501 C510 0.930 . S
H502 C512 0.930 . S
H503 C515 0.929 . S
H504 C518 0.930 . S
H505 C520 0.960 . S
H506 C520 0.960 . S
H507 C520 0.960 . S
C508 H500 0.929 . S
C508 C509 1.377 . S
C508 C510 1.384 . S
C509 C508 1.377 . S
C509 C515 1.390 . S
C510 H501 0.930 . S
C510 C508 1.384 . S
C510 C511 1.372 . S
C511 C510 1.372 . S
C511 C512 1.400 . S
C511 C516 1.490 . S
C512 H502 0.930 . S
C512 C511 1.400 . S
C512 C515 1.386 . S
H513 C529 0.930 . S
H514 C530 0.931 . S
C515 H503 0.929 . S
C515 C509 1.390 . S
C515 C512 1.386 . S
C516 C511 1.490 . S
C516 C518 1.395 . S
C516 C519 1.403 . S
H517 C523 0.930 . S
C518 H504 0.930 . S
C518 C516 1.395 . S
C518 C521 1.403 . S
C519 C516 1.403 . S
C519 C520 1.524 . S
C519 C523 1.400 . S
C520 H505 0.960 . S
C520 H506 0.960 . S
C520 H507 0.960 . S
C520 C519 1.524 . S
C521 C518 1.403 . S
C521 C522 1.392 . S
C521 C525 1.495 . S
C522 C521 1.392 . S
C522 C523 1.385 . S
C522 C524 1.478 . S
C523 H517 0.930 . S
C523 C519 1.400 . S
C523 C522 1.385 . S
C524 C522 1.478 . S
C524 C526 1.381 . S
C524 C530 1.383 . S
C525 C521 1.495 . S
C525 H531 0.959 . S
C525 H532 0.961 . S
C525 H533 0.960 . S
C526 C524 1.381 . S
C526 C527 1.394 . S
C526 H534 0.930 . S
C527 C526 1.394 . S
C527 C528 1.383 . S
C527 H535 0.929 . S
C528 C527 1.383 . S
C528 C529 1.377 . S
C529 H513 0.930 . S
C529 C528 1.377 . S
C529 C530 1.379 . S
C530 H514 0.931 . S
C530 C524 1.383 . S
C530 C529 1.379 . S
H531 C525 0.959 . S
H532 C525 0.961 . S
H533 C525 0.960 . S
H534 C526 0.930 . S
H535 C527 0.929 . S
H536 C544 0.929 . S
H537 C546 0.930 . S
H538 C548 0.930 . S
H539 C551 0.929 . S
H540 C554 0.930 . S
H541 C556 0.960 . S
H542 C556 0.960 . S
H543 C556 0.960 . S
C544 H536 0.929 . S
C544 C545 1.377 . S
C544 C546 1.384 . S
C545 C544 1.377 . S
C545 C551 1.390 . S
C546 H537 0.930 . S
C546 C544 1.384 . S
C546 C547 1.372 . S
C547 C546 1.372 . S
C547 C548 1.400 . S
C547 C552 1.490 . S
C548 H538 0.930 . S
C548 C547 1.400 . S
C548 C551 1.386 . S
H549 C565 0.930 . S
H550 C566 0.931 . S
C551 H539 0.929 . S
C551 C545 1.390 . S
C551 C548 1.386 . S
C552 C547 1.490 . S
C552 C554 1.395 . S
C552 C555 1.403 . S
H553 C559 0.930 . S
C554 H540 0.930 . S
C554 C552 1.395 . S
C554 C557 1.403 . S
C555 C552 1.403 . S
C555 C556 1.524 . S
C555 C559 1.400 . S
C556 H541 0.960 . S
C556 H542 0.960 . S
C556 H543 0.960 . S
C556 C555 1.524 . S
C557 C554 1.403 . S
C557 C558 1.392 . S
C557 C561 1.495 . S
C558 C557 1.392 . S
C558 C559 1.385 . S
C558 C560 1.478 . S
C559 H553 0.930 . S
C559 C555 1.400 . S
C559 C558 1.385 . S
C560 C558 1.478 . S
C560 C562 1.381 . S
C560 C566 1.383 . S
C561 C557 1.495 . S
C561 H567 0.959 . S
C561 H568 0.961 . S
C561 H569 0.960 . S
C562 C560 1.381 . S
C562 C563 1.394 . S
C562 H570 0.930 . S
C563 C562 1.394 . S
C563 C564 1.383 . S
C563 H571 0.929 . S
C564 C563 1.383 . S
C564 C565 1.377 . S
C565 H549 0.930 . S
C565 C564 1.377 . S
C565 C566 1.379 . S
C566 H550 0.931 . S
C566 C560 1.383 . S
C566 C565 1.379 . S
H567 C561 0.959 . S
H568 C561 0.961 . S
H569 C561 0.960 . S
H570 C562 0.930 . S
H571 C563 0.929 . S
H572 C580 0.929 . S
H573 C582 0.930 . S
H574 C584 0.930 . S
H575 C587 0.929 . S
H576 C590 0.930 . S
H577 C592 0.960 . S
H578 C592 0.960 . S
H579 C592 0.960 . S
C580 H572 0.929 . S
C580 C581 1.377 . S
C580 C582 1.384 . S
C581 C580 1.377 . S
C581 C587 1.390 . S
C582 H573 0.930 . S
C582 C580 1.384 . S
C582 C583 1.372 . S
C583 C582 1.372 . S
C583 C584 1.400 . S
C583 C588 1.490 . S
C584 H574 0.930 . S
C584 C583 1.400 . S
C584 C587 1.386 . S
H585 C601 0.930 . S
H586 C602 0.931 . S
C587 H575 0.929 . S
C587 C581 1.390 . S
C587 C584 1.386 . S
C588 C583 1.490 . S
C588 C590 1.395 . S
C588 C591 1.403 . S
H589 C595 0.930 . S
C590 H576 0.930 . S
C590 C588 1.395 . S
C590 C593 1.403 . S
C591 C588 1.403 . S
C591 C592 1.524 . S
C591 C595 1.400 . S
C592 H577 0.960 . S
C592 H578 0.960 . S
C592 H579 0.960 . S
C592 C591 1.524 . S
C593 C590 1.403 . S
C593 C594 1.392 . S
C593 C597 1.495 . S
C594 C593 1.392 . S
C594 C595 1.385 . S
C594 C596 1.478 . S
C595 H589 0.930 . S
C595 C591 1.400 . S
C595 C594 1.385 . S
C596 C594 1.478 . S
C596 C598 1.381 1_556 S
C596 C602 1.383 . S
C597 C593 1.495 . S
C597 H603 0.959 . S
C597 H604 0.961 . S
C597 H605 0.960 . S
C598 C596 1.381 1_554 S
C598 C599 1.394 . S
C598 H606 0.930 . S
C599 C598 1.394 . S
C599 C600 1.385 1_554 S
C599 H607 0.929 . S
C600 C599 1.385 1_556 S
C600 C601 1.374 . S
C601 H585 0.930 . S
C601 C600 1.374 . S
C601 C602 1.379 . S
C602 H586 0.931 . S
C602 C596 1.383 . S
C602 C601 1.379 . S
H603 C597 0.959 . S
H604 C597 0.961 . S
H605 C597 0.960 . S
H606 C598 0.930 . S
H607 C599 0.929 . S
H608 C616 0.929 . S
H609 C618 0.930 . S
H610 C620 0.930 . S
H611 C623 0.929 . S
H612 C626 0.930 . S
H613 C628 0.960 . S
H614 C628 0.960 . S
H615 C628 0.960 . S
C616 H608 0.929 . S
C616 C617 1.377 . S
C616 C618 1.384 . S
C617 C616 1.377 . S
C617 C623 1.390 . S
C618 H609 0.930 . S
C618 C616 1.384 . S
C618 C619 1.372 . S
C619 C618 1.372 . S
C619 C620 1.400 . S
C619 C624 1.490 . S
C620 H610 0.930 . S
C620 C619 1.400 . S
C620 C623 1.386 . S
H621 C637 0.930 . S
H622 C638 0.931 . S
C623 H611 0.929 . S
C623 C617 1.390 . S
C623 C620 1.386 . S
C624 C619 1.490 . S
C624 C626 1.395 . S
C624 C627 1.403 . S
H625 C631 0.930 . S
C626 H612 0.930 . S
C626 C624 1.395 . S
C626 C629 1.403 . S
C627 C624 1.403 . S
C627 C628 1.524 . S
C627 C631 1.400 . S
C628 H613 0.960 . S
C628 H614 0.960 . S
C628 H615 0.960 . S
C628 C627 1.524 . S
C629 C626 1.403 . S
C629 C630 1.392 . S
C629 C633 1.495 . S
C630 C629 1.392 . S
C630 C631 1.385 . S
C630 C632 1.478 . S
C631 H625 0.930 . S
C631 C627 1.400 . S
C631 C630 1.385 . S
C632 C630 1.478 . S
C632 C634 1.381 . S
C632 C638 1.383 . S
C633 C629 1.495 . S
C633 H639 0.959 . S
C633 H640 0.961 . S
C633 H641 0.960 . S
C634 C632 1.381 . S
C634 C635 1.394 . S
C634 H642 0.930 . S
C635 C634 1.394 . S
C635 C636 1.383 . S
C635 H643 0.929 1_655 S
C636 C635 1.383 . S
C636 C637 1.377 . S
C637 H621 0.930 . S
C637 C636 1.377 . S
C637 C638 1.379 . S
C638 H622 0.931 . S
C638 C632 1.383 . S
C638 C637 1.379 . S
H639 C633 0.959 . S
H640 C633 0.961 . S
H641 C633 0.960 . S
H642 C634 0.930 . S
H643 C635 0.929 1_455 S
H644 C652 0.929 . S
H645 C654 0.930 . S
H646 C656 0.930 . S
H647 C659 0.929 . S
H648 C662 0.930 . S
H649 C664 0.960 . S
H650 C664 0.960 . S
H651 C664 0.960 . S
C652 H644 0.929 . S
C652 C653 1.377 . S
C652 C654 1.384 . S
C653 C652 1.377 . S
C653 C659 1.390 . S
C654 H645 0.930 . S
C654 C652 1.384 . S
C654 C655 1.372 . S
C655 C654 1.372 . S
C655 C656 1.400 . S
C655 C660 1.490 . S
C656 H646 0.930 . S
C656 C655 1.400 . S
C656 C659 1.386 . S
H657 C673 0.930 . S
H658 C674 0.931 . S
C659 H647 0.929 . S
C659 C653 1.390 . S
C659 C656 1.386 . S
C660 C655 1.490 . S
C660 C662 1.395 . S
C660 C663 1.403 . S
H661 C667 0.930 . S
C662 H648 0.930 . S
C662 C660 1.395 . S
C662 C665 1.403 . S
C663 C660 1.403 . S
C663 C664 1.524 . S
C663 C667 1.400 . S
C664 H649 0.960 . S
C664 H650 0.960 . S
C664 H651 0.960 . S
C664 C663 1.524 . S
C665 C662 1.403 . S
C665 C666 1.392 . S
C665 C669 1.495 . S
C666 C665 1.392 . S
C666 C667 1.385 . S
C666 C668 1.478 . S
C667 H661 0.930 . S
C667 C663 1.400 . S
C667 C666 1.385 . S
C668 C666 1.478 . S
C668 C670 1.381 . S
C668 C674 1.383 . S
C669 C665 1.495 . S
C669 H675 0.959 . S
C669 H676 0.961 . S
C669 H677 0.960 . S
C670 C668 1.381 . S
C670 C671 1.394 . S
C670 H678 0.930 . S
C671 C670 1.394 . S
C671 C672 1.383 . S
C671 H679 0.929 . S
C672 C671 1.383 . S
C672 C673 1.377 . S
C673 H657 0.930 . S
C673 C672 1.377 . S
C673 C674 1.379 . S
C674 H658 0.931 . S
C674 C668 1.383 . S
C674 C673 1.379 . S
H675 C669 0.959 . S
H676 C669 0.961 . S
H677 C669 0.960 . S
H678 C670 0.930 . S
H679 C671 0.929 . S
H680 C688 0.929 . S
H681 C690 0.930 . S
H682 C692 0.930 . S
H683 C695 0.929 . S
H684 C698 0.930 . S
H685 C700 0.960 . S
H686 C700 0.960 . S
H687 C700 0.960 . S
C688 H680 0.929 . S
C688 C689 1.377 . S
C688 C690 1.384 . S
C689 C688 1.377 . S
C689 C695 1.390 . S
C690 H681 0.930 . S
C690 C688 1.384 . S
C690 C691 1.372 . S
C691 C690 1.372 . S
C691 C692 1.400 . S
C691 C696 1.490 . S
C692 H682 0.930 . S
C692 C691 1.400 . S
C692 C695 1.386 . S
H693 C709 0.930 . S
H694 C710 0.931 . S
C695 H683 0.929 . S
C695 C689 1.390 . S
C695 C692 1.386 . S
C696 C691 1.490 . S
C696 C698 1.395 . S
C696 C699 1.403 . S
H697 C703 0.930 . S
C698 H684 0.930 . S
C698 C696 1.395 . S
C698 C701 1.403 . S
C699 C696 1.403 . S
C699 C700 1.524 . S
C699 C703 1.400 . S
C700 H685 0.960 . S
C700 H686 0.960 . S
C700 H687 0.960 . S
C700 C699 1.524 . S
C701 C698 1.403 . S
C701 C702 1.392 . S
C701 C705 1.495 . S
C702 C701 1.392 . S
C702 C703 1.385 . S
C702 C704 1.478 . S
C703 H697 0.930 . S
C703 C699 1.400 . S
C703 C702 1.385 . S
C704 C702 1.478 . S
C704 C706 1.381 . S
C704 C710 1.383 . S
C705 C701 1.495 . S
C705 H711 0.959 . S
C705 H712 0.961 . S
C705 H713 0.960 . S
C706 C704 1.381 . S
C706 C707 1.394 . S
C706 H714 0.930 . S
C707 C706 1.394 . S
C707 C708 1.383 . S
C707 H715 0.929 . S
C708 C707 1.383 . S
C708 C709 1.377 . S
C709 H693 0.930 . S
C709 C708 1.377 . S
C709 C710 1.379 . S
C710 H694 0.931 . S
C710 C704 1.383 . S
C710 C709 1.379 . S
H711 C705 0.959 . S
H712 C705 0.961 . S
H713 C705 0.960 . S
H714 C706 0.930 . S
H715 C707 0.929 . S
H716 C724 0.929 . S
H717 C726 0.930 . S
H718 C728 0.930 . S
H719 C731 0.929 . S
H720 C734 0.930 . S
H721 C736 0.960 . S
H722 C736 0.960 . S
H723 C736 0.960 . S
C724 H716 0.929 . S
C724 C725 1.377 . S
C724 C726 1.384 . S
C725 C724 1.377 . S
C725 C731 1.390 . S
C726 H717 0.930 . S
C726 C724 1.384 . S
C726 C727 1.372 . S
C727 C726 1.372 . S
C727 C728 1.400 . S
C727 C732 1.490 . S
C728 H718 0.930 . S
C728 C727 1.400 . S
C728 C731 1.386 . S
H729 C745 0.930 . S
H730 C746 0.931 . S
C731 H719 0.929 . S
C731 C725 1.390 . S
C731 C728 1.386 . S
C732 C727 1.490 . S
C732 C734 1.395 . S
C732 C735 1.403 . S
H733 C739 0.930 . S
C734 H720 0.930 . S
C734 C732 1.395 . S
C734 C737 1.403 . S
C735 C732 1.403 . S
C735 C736 1.524 . S
C735 C739 1.400 . S
C736 H721 0.960 . S
C736 H722 0.960 . S
C736 H723 0.960 . S
C736 C735 1.524 . S
C737 C734 1.403 . S
C737 C738 1.392 . S
C737 C741 1.495 . S
C738 C737 1.392 . S
C738 C739 1.385 . S
C738 C740 1.478 . S
C739 H733 0.930 . S
C739 C735 1.400 . S
C739 C738 1.385 . S
C740 C738 1.478 . S
C740 C742 1.381 . S
C740 C746 1.383 . S
C741 C737 1.495 . S
C741 H747 0.959 . S
C741 H748 0.961 . S
C741 H749 0.960 . S
C742 C740 1.381 . S
C742 C743 1.394 . S
C742 H750 0.930 . S
C743 C742 1.394 . S
C743 C744 1.383 . S
C743 H751 0.929 . S
C744 C743 1.383 . S
C744 C745 1.377 . S
C745 H729 0.930 . S
C745 C744 1.377 . S
C745 C746 1.379 . S
C746 H730 0.931 . S
C746 C740 1.383 . S
C746 C745 1.379 . S
H747 C741 0.959 . S
H748 C741 0.961 . S
H749 C741 0.960 . S
H750 C742 0.930 . S
H751 C743 0.929 . S
H752 C760 0.929 . S
H753 C762 0.930 . S
H754 C764 0.930 . S
H755 C767 0.929 . S
H756 C770 0.930 . S
H757 C772 0.960 . S
H758 C772 0.960 . S
H759 C772 0.960 . S
C760 H752 0.929 . S
C760 C761 1.377 . S
C760 C762 1.384 . S
C761 C760 1.377 . S
C761 C767 1.390 . S
C762 H753 0.930 . S
C762 C760 1.384 . S
C762 C763 1.372 . S
C763 C762 1.372 . S
C763 C764 1.400 . S
C763 C768 1.490 . S
C764 H754 0.930 . S
C764 C763 1.400 . S
C764 C767 1.386 . S
H765 C781 0.930 . S
H766 C782 0.931 . S
C767 H755 0.929 . S
C767 C761 1.390 . S
C767 C764 1.386 . S
C768 C763 1.490 . S
C768 C770 1.395 . S
C768 C771 1.403 . S
H769 C775 0.930 . S
C770 H756 0.930 . S
C770 C768 1.395 . S
C770 C773 1.403 . S
C771 C768 1.403 . S
C771 C772 1.524 . S
C771 C775 1.400 . S
C772 H757 0.960 . S
C772 H758 0.960 . S
C772 H759 0.960 . S
C772 C771 1.524 . S
C773 C770 1.403 . S
C773 C774 1.392 . S
C773 C777 1.495 . S
C774 C773 1.392 . S
C774 C775 1.385 . S
C774 C776 1.478 . S
C775 H769 0.930 . S
C775 C771 1.400 . S
C775 C774 1.385 . S
C776 C774 1.478 . S
C776 C778 1.381 . S
C776 C782 1.383 . S
C777 C773 1.495 . S
C777 H783 0.959 . S
C777 H784 0.961 . S
C777 H785 0.960 . S
C778 C776 1.381 . S
C778 C779 1.394 . S
C778 H786 0.930 . S
C779 C778 1.394 . S
C779 C780 1.383 . S
C779 H787 0.929 . S
C780 C779 1.383 . S
C780 C781 1.377 . S
C781 H765 0.930 . S
C781 C780 1.377 . S
C781 C782 1.379 . S
C782 H766 0.931 . S
C782 C776 1.383 . S
C782 C781 1.379 . S
H783 C777 0.959 . S
H784 C777 0.961 . S
H785 C777 0.960 . S
H786 C778 0.930 . S
H787 C779 0.929 . S
H788 C796 0.929 . S
H789 C798 0.930 . S
H790 C800 0.930 . S
H791 C803 0.929 . S
H792 C806 0.930 . S
H793 C808 0.960 . S
H794 C808 0.960 . S
H795 C808 0.960 . S
C796 H788 0.929 . S
C796 C797 1.377 . S
C796 C798 1.384 . S
C797 C796 1.377 . S
C797 C803 1.390 . S
C798 H789 0.930 . S
C798 C796 1.384 . S
C798 C799 1.372 . S
C799 C798 1.372 . S
C799 C800 1.400 . S
C799 C804 1.490 . S
C800 H790 0.930 . S
C800 C799 1.400 . S
C800 C803 1.386 . S
H801 C817 0.930 . S
H802 C818 0.931 . S
C803 H791 0.929 . S
C803 C797 1.390 . S
C803 C800 1.386 . S
C804 C799 1.490 . S
C804 C806 1.395 . S
C804 C807 1.403 . S
H805 C811 0.930 . S
C806 H792 0.930 . S
C806 C804 1.395 . S
C806 C809 1.403 . S
C807 C804 1.403 . S
C807 C808 1.524 . S
C807 C811 1.400 . S
C808 H793 0.960 . S
C808 H794 0.960 . S
C808 H795 0.960 . S
C808 C807 1.524 . S
C809 C806 1.403 . S
C809 C810 1.392 . S
C809 C813 1.495 . S
C810 C809 1.392 . S
C810 C811 1.385 . S
C810 C812 1.478 . S
C811 H805 0.930 . S
C811 C807 1.400 . S
C811 C810 1.385 . S
C812 C810 1.478 . S
C812 C814 1.381 . S
C812 C818 1.383 . S
C813 C809 1.495 . S
C813 H819 0.959 . S
C813 H820 0.961 . S
C813 H821 0.960 . S
C814 C812 1.381 . S
C814 C815 1.394 . S
C814 H822 0.930 . S
C815 C814 1.394 . S
C815 C816 1.383 . S
C815 H823 0.929 . S
C816 C815 1.383 . S
C816 C817 1.377 . S
C817 H801 0.930 . S
C817 C816 1.377 . S
C817 C818 1.379 . S
C818 H802 0.931 . S
C818 C812 1.383 . S
C818 C817 1.379 . S
H819 C813 0.959 . S
H820 C813 0.961 . S
H821 C813 0.960 . S
H822 C814 0.930 . S
H823 C815 0.929 . S
H824 C832 0.929 . S
H825 C834 0.930 . S
H826 C836 0.930 . S
H827 C839 0.929 . S
H828 C842 0.930 . S
H829 C844 0.960 . S
H830 C844 0.960 . S
H831 C844 0.960 . S
C832 H824 0.929 . S
C832 C833 1.377 . S
C832 C834 1.384 . S
C833 C832 1.377 . S
C833 C839 1.390 . S
C834 H825 0.930 . S
C834 C832 1.384 . S
C834 C835 1.372 . S
C835 C834 1.372 . S
C835 C836 1.400 . S
C835 C840 1.490 . S
C836 H826 0.930 . S
C836 C835 1.400 . S
C836 C839 1.386 . S
H837 C853 0.930 . S
H838 C854 0.931 . S
C839 H827 0.929 . S
C839 C833 1.390 . S
C839 C836 1.386 . S
C840 C835 1.490 . S
C840 C842 1.395 . S
C840 C843 1.403 . S
H841 C847 0.930 . S
C842 H828 0.930 . S
C842 C840 1.395 . S
C842 C845 1.403 . S
C843 C840 1.403 . S
C843 C844 1.524 . S
C843 C847 1.400 . S
C844 H829 0.960 . S
C844 H830 0.960 . S
C844 H831 0.960 . S
C844 C843 1.524 . S
C845 C842 1.403 . S
C845 C846 1.392 . S
C845 C849 1.495 . S
C846 C845 1.392 . S
C846 C847 1.385 . S
C846 C848 1.478 . S
C847 H841 0.930 . S
C847 C843 1.400 . S
C847 C846 1.385 . S
C848 C846 1.478 . S
C848 C850 1.381 . S
C848 C854 1.383 . S
C849 C845 1.495 . S
C849 H855 0.959 . S
C849 H856 0.961 . S
C849 H857 0.960 . S
C850 C848 1.381 . S
C850 C851 1.400 . S
C850 H858 0.930 . S
C851 C850 1.400 . S
C851 C852 1.389 . S
C851 H859 0.918 1_556 S
C852 C851 1.389 . S
C852 C853 1.377 . S
C853 H837 0.930 . S
C853 C852 1.377 . S
C853 C854 1.379 . S
C854 H838 0.931 . S
C854 C848 1.383 . S
C854 C853 1.379 . S
H855 C849 0.959 . S
H856 C849 0.961 . S
H857 C849 0.960 . S
H858 C850 0.930 . S
H859 C851 0.918 1_554 S
H860 C868 0.929 . S
H861 C870 0.930 . S
H862 C872 0.930 . S
H863 C875 0.929 . S
H864 C878 0.930 . S
H865 C880 0.960 . S
H866 C880 0.960 . S
H867 C880 0.960 . S
C868 H860 0.929 . S
C868 C869 1.377 . S
C868 C870 1.384 . S
C869 C868 1.377 . S
C869 C875 1.390 . S
C870 H861 0.930 . S
C870 C868 1.384 . S
C870 C871 1.372 . S
C871 C870 1.372 . S
C871 C872 1.400 . S
C871 C876 1.490 . S
C872 H862 0.930 . S
C872 C871 1.400 . S
C872 C875 1.386 . S
H873 C889 0.930 . S
H874 C890 0.931 . S
C875 H863 0.929 . S
C875 C869 1.390 . S
C875 C872 1.386 . S
C876 C871 1.490 . S
C876 C878 1.395 . S
C876 C879 1.403 . S
H877 C883 0.930 . S
C878 H864 0.930 . S
C878 C876 1.395 . S
C878 C881 1.403 . S
C879 C876 1.403 . S
C879 C880 1.524 . S
C879 C883 1.400 . S
C880 H865 0.960 . S
C880 H866 0.960 . S
C880 H867 0.960 . S
C880 C879 1.524 . S
C881 C878 1.403 . S
C881 C882 1.392 . S
C881 C885 1.495 . S
C882 C881 1.392 . S
C882 C883 1.385 . S
C882 C884 1.478 . S
C883 H877 0.930 . S
C883 C879 1.400 . S
C883 C882 1.385 . S
C884 C882 1.478 . S
C884 C886 1.381 . S
C884 C890 1.383 . S
C885 C881 1.495 . S
C885 H891 0.959 . S
C885 H892 0.961 . S
C885 H893 0.960 . S
C886 C884 1.381 . S
C886 C887 1.394 . S
C886 H894 0.930 . S
C887 C886 1.394 . S
C887 C888 1.383 . S
C887 H895 0.929 . S
C888 C887 1.383 . S
C888 C889 1.377 . S
C889 H873 0.930 . S
C889 C888 1.377 . S
C889 C890 1.379 . S
C890 H874 0.931 . S
C890 C884 1.383 . S
C890 C889 1.379 . S
H891 C885 0.959 . S
H892 C885 0.961 . S
H893 C885 0.960 . S
H894 C886 0.930 . S
H895 C887 0.929 . S
H896 C904 0.929 . S
H897 C906 0.930 . S
H898 C908 0.930 . S
H899 C911 0.929 . S
H900 C914 0.930 . S
H901 C916 0.960 . S
H902 C916 0.960 . S
H903 C916 0.960 . S
C904 H896 0.929 . S
C904 C905 1.377 . S
C904 C906 1.384 . S
C905 C904 1.377 . S
C905 C911 1.390 . S
C906 H897 0.930 . S
C906 C904 1.384 . S
C906 C907 1.372 . S
C907 C906 1.372 . S
C907 C908 1.400 . S
C907 C912 1.490 . S
C908 H898 0.930 . S
C908 C907 1.400 . S
C908 C911 1.386 . S
H909 C925 0.930 . S
H910 C926 0.931 . S
C911 H899 0.929 . S
C911 C905 1.390 . S
C911 C908 1.386 . S
C912 C907 1.490 . S
C912 C914 1.395 . S
C912 C915 1.403 . S
H913 C919 0.930 . S
C914 H900 0.930 . S
C914 C912 1.395 . S
C914 C917 1.403 . S
C915 C912 1.403 . S
C915 C916 1.524 . S
C915 C919 1.400 . S
C916 H901 0.960 . S
C916 H902 0.960 . S
C916 H903 0.960 . S
C916 C915 1.524 . S
C917 C914 1.403 . S
C917 C918 1.392 . S
C917 C921 1.495 . S
C918 C917 1.392 . S
C918 C919 1.385 . S
C918 C920 1.478 . S
C919 H913 0.930 . S
C919 C915 1.400 . S
C919 C918 1.385 . S
C920 C918 1.478 . S
C920 C922 1.381 . S
C920 C926 1.383 . S
C921 C917 1.495 . S
C921 H927 0.959 . S
C921 H928 0.961 . S
C921 H929 0.960 . S
C922 C920 1.381 . S
C922 C923 1.394 . S
C922 H930 0.930 . S
C923 C922 1.394 . S
C923 C924 1.383 . S
C923 H931 0.929 . S
C924 C923 1.383 . S
C924 C925 1.377 . S
C925 H909 0.930 . S
C925 C924 1.377 . S
C925 C926 1.379 . S
C926 H910 0.931 . S
C926 C920 1.383 . S
C926 C925 1.379 . S
H927 C921 0.959 . S
H928 C921 0.961 . S
H929 C921 0.960 . S
H930 C922 0.930 . S
H931 C923 0.929 . S
H932 C940 0.929 . S
H933 C942 0.930 . S
H934 C944 0.930 . S
H935 C947 0.929 . S
H936 C950 0.930 . S
H937 C952 0.960 . S
H938 C952 0.960 . S
H939 C952 0.960 . S
C940 H932 0.929 . S
C940 C941 1.377 . S
C940 C942 1.384 . S
C941 C940 1.377 . S
C941 C947 1.390 . S
C942 H933 0.930 . S
C942 C940 1.384 . S
C942 C943 1.372 . S
C943 C942 1.372 . S
C943 C944 1.400 . S
C943 C948 1.490 . S
C944 H934 0.930 . S
C944 C943 1.400 . S
C944 C947 1.386 . S
H945 C961 0.930 . S
H946 C962 0.931 . S
C947 H935 0.929 . S
C947 C941 1.390 . S
C947 C944 1.386 . S
C948 C943 1.490 . S
C948 C950 1.395 . S
C948 C951 1.403 . S
H949 C955 0.930 . S
C950 H936 0.930 . S
C950 C948 1.395 . S
C950 C953 1.403 . S
C951 C948 1.403 . S
C951 C952 1.524 . S
C951 C955 1.400 . S
C952 H937 0.960 . S
C952 H938 0.960 . S
C952 H939 0.960 . S
C952 C951 1.524 . S
C953 C950 1.403 . S
C953 C954 1.392 . S
C953 C957 1.495 . S
C954 C953 1.392 . S
C954 C955 1.385 . S
C954 C956 1.478 . S
C955 H949 0.930 . S
C955 C951 1.400 . S
C955 C954 1.385 . S
C956 C954 1.478 . S
C956 C958 1.381 . S
C956 C962 1.383 . S
C957 C953 1.495 . S
C957 H963 0.959 . S
C957 H964 0.961 . S
C957 H965 0.960 . S
C958 C956 1.381 . S
C958 C959 1.394 . S
C958 H966 0.930 . S
C959 C958 1.394 . S
C959 C960 1.383 . S
C959 H967 0.929 . S
C960 C959 1.383 . S
C960 C961 1.377 . S
C961 H945 0.930 . S
C961 C960 1.377 . S
C961 C962 1.379 . S
C962 H946 0.931 . S
C962 C956 1.383 . S
C962 C961 1.379 . S
H963 C957 0.959 . S
H964 C957 0.961 . S
H965 C957 0.960 . S
H966 C958 0.930 . S
H967 C959 0.929 . S
H968 C976 0.929 . S
H969 C978 0.930 . S
H970 C980 0.930 . S
H971 C983 0.929 . S
H972 C986 0.930 . S
H973 C988 0.960 . S
H974 C988 0.960 . S
H975 C988 0.960 . S
C976 H968 0.929 . S
C976 C977 1.377 . S
C976 C978 1.384 . S
C977 C976 1.377 . S
C977 C983 1.390 . S
C978 H969 0.930 . S
C978 C976 1.384 . S
C978 C979 1.372 . S
C979 C978 1.372 . S
C979 C980 1.400 . S
C979 C984 1.490 . S
C980 H970 0.930 . S
C980 C979 1.400 . S
C980 C983 1.386 . S
H981 C997 0.930 . S
H982 C998 0.931 . S
C983 H971 0.929 . S
C983 C977 1.390 . S
C983 C980 1.386 . S
C984 C979 1.490 . S
C984 C986 1.395 . S
C984 C987 1.403 . S
H985 C991 0.930 . S
C986 H972 0.930 . S
C986 C984 1.395 . S
C986 C989 1.403 . S
C987 C984 1.403 . S
C987 C988 1.524 . S
C987 C991 1.400 . S
C988 H973 0.960 . S
C988 H974 0.960 . S
C988 H975 0.960 . S
C988 C987 1.524 . S
C989 C986 1.403 . S
C989 C990 1.392 . S
C989 C993 1.495 . S
C990 C989 1.392 . S
C990 C991 1.385 . S
C990 C992 1.478 . S
C991 H985 0.930 . S
C991 C987 1.400 . S
C991 C990 1.385 . S
C992 C990 1.478 . S
C992 C994 1.381 . S
C992 C998 1.383 . S
C993 C989 1.495 . S
C993 H999 0.959 . S
C993 H1000 0.961 . S
C993 H1001 0.960 . S
C994 C992 1.381 . S
C994 C995 1.394 . S
C994 H1002 0.930 . S
C995 C994 1.394 . S
C995 C996 1.383 . S
C995 H1003 0.929 . S
C996 C995 1.383 . S
C996 C997 1.377 . S
C997 H981 0.930 . S
C997 C996 1.377 . S
C997 C998 1.379 . S
C998 H982 0.931 . S
C998 C992 1.383 . S
C998 C997 1.379 . S
H999 C993 0.959 . S
H1000 C993 0.961 . S
H1001 C993 0.960 . S
H1002 C994 0.930 . S
H1003 C995 0.929 . S
H1004 C1012 0.929 . S
H1005 C1014 0.930 . S
H1006 C1016 0.930 . S
H1007 C1019 0.929 . S
H1008 C1022 0.930 . S
H1009 C1024 0.960 . S
H1010 C1024 0.960 . S
H1011 C1024 0.960 . S
C1012 H1004 0.929 . S
C1012 C1013 1.377 . S
C1012 C1014 1.384 . S
C1013 C1012 1.377 . S
C1013 C1019 1.390 . S
C1014 H1005 0.930 . S
C1014 C1012 1.384 . S
C1014 C1015 1.372 . S
C1015 C1014 1.372 . S
C1015 C1016 1.400 . S
C1015 C1020 1.490 . S
C1016 H1006 0.930 . S
C1016 C1015 1.400 . S
C1016 C1019 1.386 . S
H1017 C1033 0.930 . S
H1018 C1034 0.931 . S
C1019 H1007 0.929 . S
C1019 C1013 1.390 . S
C1019 C1016 1.386 . S
C1020 C1015 1.490 . S
C1020 C1022 1.395 . S
C1020 C1023 1.403 . S
H1021 C1027 0.930 . S
C1022 H1008 0.930 . S
C1022 C1020 1.395 . S
C1022 C1025 1.403 . S
C1023 C1020 1.403 . S
C1023 C1024 1.524 . S
C1023 C1027 1.400 . S
C1024 H1009 0.960 . S
C1024 H1010 0.960 . S
C1024 H1011 0.960 . S
C1024 C1023 1.524 . S
C1025 C1022 1.403 . S
C1025 C1026 1.392 . S
C1025 C1029 1.495 . S
C1026 C1025 1.392 . S
C1026 C1027 1.385 . S
C1026 C1028 1.478 . S
C1027 H1021 0.930 . S
C1027 C1023 1.400 . S
C1027 C1026 1.385 . S
C1028 C1026 1.478 . S
C1028 C1030 1.381 . S
C1028 C1034 1.383 . S
C1029 C1025 1.495 . S
C1029 H1035 0.959 . S
C1029 H1036 0.961 . S
C1029 H1037 0.960 . S
C1030 C1028 1.381 . S
C1030 C1031 1.394 . S
C1030 H1038 0.930 . S
C1031 C1030 1.394 . S
C1031 C1032 1.383 . S
C1031 H1039 0.929 . S
C1032 C1031 1.383 . S
C1032 C1033 1.377 . S
C1033 H1017 0.930 . S
C1033 C1032 1.377 . S
C1033 C1034 1.379 . S
C1034 H1018 0.931 . S
C1034 C1028 1.383 . S
C1034 C1033 1.379 . S
H1035 C1029 0.959 . S
H1036 C1029 0.961 . S
H1037 C1029 0.960 . S
H1038 C1030 0.930 . S
H1039 C1031 0.929 . S
H1040 C1048 0.929 . S
H1041 C1050 0.930 . S
H1042 C1052 0.930 . S
H1043 C1055 0.929 . S
H1044 C1058 0.930 . S
H1045 C1060 0.960 . S
H1046 C1060 0.960 . S
H1047 C1060 0.960 . S
C1048 H1040 0.929 . S
C1048 C1049 1.377 . S
C1048 C1050 1.384 . S
C1049 C1048 1.377 . S
C1049 C1055 1.390 . S
C1050 H1041 0.930 . S
C1050 C1048 1.384 . S
C1050 C1051 1.372 . S
C1051 C1050 1.372 . S
C1051 C1052 1.400 . S
C1051 C1056 1.490 . S
C1052 H1042 0.930 . S
C1052 C1051 1.400 . S
C1052 C1055 1.386 . S
H1053 C1069 0.930 . S
H1054 C1070 0.931 . S
C1055 H1043 0.929 . S
C1055 C1049 1.390 . S
C1055 C1052 1.386 . S
C1056 C1051 1.490 . S
C1056 C1058 1.395 . S
C1056 C1059 1.403 . S
H1057 C1063 0.930 . S
C1058 H1044 0.930 . S
C1058 C1056 1.395 . S
C1058 C1061 1.403 . S
C1059 C1056 1.403 . S
C1059 C1060 1.524 . S
C1059 C1063 1.400 . S
C1060 H1045 0.960 . S
C1060 H1046 0.960 . S
C1060 H1047 0.960 . S
C1060 C1059 1.524 . S
C1061 C1058 1.403 . S
C1061 C1062 1.392 . S
C1061 C1065 1.495 . S
C1062 C1061 1.392 . S
C1062 C1063 1.385 . S
C1062 C1064 1.478 . S
C1063 H1057 0.930 . S
C1063 C1059 1.400 . S
C1063 C1062 1.385 . S
C1064 C1062 1.478 . S
C1064 C1066 1.381 . S
C1064 C1070 1.383 . S
C1065 C1061 1.495 . S
C1065 H1071 0.959 . S
C1065 H1072 0.961 . S
C1065 H1073 0.960 . S
C1066 C1064 1.381 . S
C1066 C1067 1.394 . S
C1066 H1074 0.930 . S
C1067 C1066 1.394 . S
C1067 C1068 1.383 . S
C1067 H1075 0.929 . S
C1068 C1067 1.383 . S
C1068 C1069 1.377 . S
C1069 H1053 0.930 . S
C1069 C1068 1.377 . S
C1069 C1070 1.379 . S
C1070 H1054 0.931 . S
C1070 C1064 1.383 . S
C1070 C1069 1.379 . S
H1071 C1065 0.959 . S
H1072 C1065 0.961 . S
H1073 C1065 0.960 . S
H1074 C1066 0.930 . S
H1075 C1067 0.929 . S
H1076 C1084 0.929 . S
H1077 C1086 0.930 . S
H1078 C1088 0.930 . S
H1079 C1091 0.929 . S
H1080 C1094 0.930 . S
H1081 C1096 0.960 . S
H1082 C1096 0.960 . S
H1083 C1096 0.960 . S
C1084 H1076 0.929 . S
C1084 C1085 1.377 . S
C1084 C1086 1.384 . S
C1085 C1084 1.377 . S
C1085 C1091 1.390 . S
C1086 H1077 0.930 . S
C1086 C1084 1.384 . S
C1086 C1087 1.372 . S
C1087 C1086 1.372 . S
C1087 C1088 1.400 . S
C1087 C1092 1.490 . S
C1088 H1078 0.930 . S
C1088 C1087 1.400 . S
C1088 C1091 1.386 . S
H1089 C1105 0.930 . S
H1090 C1106 0.931 . S
C1091 H1079 0.929 . S
C1091 C1085 1.390 . S
C1091 C1088 1.386 . S
C1092 C1087 1.490 . S
C1092 C1094 1.395 . S
C1092 C1095 1.403 . S
H1093 C1099 0.930 . S
C1094 H1080 0.930 . S
C1094 C1092 1.395 . S
C1094 C1097 1.403 . S
C1095 C1092 1.403 . S
C1095 C1096 1.524 . S
C1095 C1099 1.400 . S
C1096 H1081 0.960 . S
C1096 H1082 0.960 . S
C1096 H1083 0.960 . S
C1096 C1095 1.524 . S
C1097 C1094 1.403 . S
C1097 C1098 1.392 . S
C1097 C1101 1.495 . S
C1098 C1097 1.392 . S
C1098 C1099 1.385 . S
C1098 C1100 1.478 . S
C1099 H1093 0.930 . S
C1099 C1095 1.400 . S
C1099 C1098 1.385 . S
C1100 C1098 1.478 . S
C1100 C1102 1.381 . S
C1100 C1106 1.383 . S
C1101 C1097 1.495 . S
C1101 H1107 0.959 . S
C1101 H1108 0.961 . S
C1101 H1109 0.960 . S
C1102 C1100 1.381 . S
C1102 C1103 1.394 . S
C1102 H1110 0.930 . S
C1103 C1102 1.394 . S
C1103 C1104 1.383 . S
C1103 H1111 0.929 . S
C1104 C1103 1.383 . S
C1104 C1105 1.377 . S
C1105 H1089 0.930 . S
C1105 C1104 1.377 . S
C1105 C1106 1.379 . S
C1106 H1090 0.931 . S
C1106 C1100 1.383 . S
C1106 C1105 1.379 . S
H1107 C1101 0.959 . S
H1108 C1101 0.961 . S
H1109 C1101 0.960 . S
H1110 C1102 0.930 . S
H1111 C1103 0.929 . S
C257 C4 1.129 . S
C276 C95 1.141 . S
C293 C16 1.295 . S
C312 C144 1.289 . S
C348 C170 1.894 . S
C329 C32 1.926 . S
C365 C43 2.160 . S
C384 C218 2.092 1_655 S
C420 C130 2.822 . S
C401 C5 2.740 . S
C456 C98 0.544 . S
C437 C21 0.530 . S
C492 C219 1.774 . S
C473 C27 1.816 . S
C528 C187 1.401 . S
C509 C37 1.407 . S
C545 C10 1.546 . S
C564 C215 1.552 . S
C600 C147 2.503 1_556 S
C581 C26 2.590 . S
C617 C38 2.034 . S
C636 C99 2.022 . S
C653 C15 0.940 . S
C672 C184 0.929 . S
C708 C104 1.364 . S
C689 C48 1.350 . S
C725 C59 1.029 . S
C744 C135 1.016 . S
C761 C76 2.380 . S
C780 C179 2.341 . S
C797 C87 1.965 . S
C816 C227 1.925 . S
C833 C54 1.993 . S
C852 C139 2.044 1_556 S
C888 C107 1.564 . S
C869 C60 1.615 . S
C924 C210 1.681 . S
C905 C71 1.678 . S
C960 C178 1.339 . S
C941 C82 1.409 . S
C977 C49 1.828 . S
C996 C224 1.893 . S
C1032 C138 1.899 . S
C1013 C70 1.977 . S
C1068 C90 2.543 . S
C1049 C81 2.551 . S
C1085 C65 0.793 . S
C1104 C175 0.792 . S
