# Generated by pormake.
# Topology pyr, (3,6)-cn, num edge types: 1
# Building blocks:
#     Node 0, Type 0, BuildingBlock: CUQRIR_clean_linker_1, # of connection points: 3
#     Node 1, Type 0, BuildingBlock: CUQRIR_clean_linker_1, # of connection points: 3
#     Node 2, Type 0, BuildingBlock: CUQRIR_clean_linker_1, # of connection points: 3
#     Node 3, Type 0, BuildingBlock: CUQRIR_clean_linker_1, # of connection points: 3
#     Node 4, Type 0, BuildingBlock: CUQRIR_clean_linker_1, # of connection points: 3
#     Node 5, Type 0, BuildingBlock: CUQRIR_clean_linker_1, # of connection points: 3
#     Node 6, Type 0, BuildingBlock: CUQRIR_clean_linker_1, # of connection points: 3
#     Node 7, Type 0, BuildingBlock: CUQRIR_clean_linker_1, # of connection points: 3
#     Node 8, Type 1, BuildingBlock: BETDIP_clean_sbu_0, # of connection points: 6
#     Node 9, Type 1, BuildingBlock: BETDIP_clean_sbu_0, # of connection points: 6
#     Node 10, Type 1, BuildingBlock: BETDIP_clean_sbu_0, # of connection points: 6
#     Node 11, Type 1, BuildingBlock: BETDIP_clean_sbu_0, # of connection points: 6
#     Edge 12, Type (0, 1), BuildingBlock: UVAHIK_clean_linker_0, # of connection points: 2
#     Edge 13, Type (0, 1), BuildingBlock: UVAHIK_clean_linker_0, # of connection points: 2
#     Edge 14, Type (0, 1), BuildingBlock: UVAHIK_clean_linker_0, # of connection points: 2
#     Edge 15, Type (0, 1), BuildingBlock: UVAHIK_clean_linker_0, # of connection points: 2
#     Edge 16, Type (0, 1), BuildingBlock: UVAHIK_clean_linker_0, # of connection points: 2
#     Edge 17, Type (0, 1), BuildingBlock: UVAHIK_clean_linker_0, # of connection points: 2
#     Edge 18, Type (0, 1), BuildingBlock: UVAHIK_clean_linker_0, # of connection points: 2
#     Edge 19, Type (0, 1), BuildingBlock: UVAHIK_clean_linker_0, # of connection points: 2
#     Edge 20, Type (0, 1), BuildingBlock: UVAHIK_clean_linker_0, # of connection points: 2
#     Edge 21, Type (0, 1), BuildingBlock: UVAHIK_clean_linker_0, # of connection points: 2
#     Edge 22, Type (0, 1), BuildingBlock: UVAHIK_clean_linker_0, # of connection points: 2
#     Edge 23, Type (0, 1), BuildingBlock: UVAHIK_clean_linker_0, # of connection points: 2
#     Edge 24, Type (0, 1), BuildingBlock: UVAHIK_clean_linker_0, # of connection points: 2
#     Edge 25, Type (0, 1), BuildingBlock: UVAHIK_clean_linker_0, # of connection points: 2
#     Edge 26, Type (0, 1), BuildingBlock: UVAHIK_clean_linker_0, # of connection points: 2
#     Edge 27, Type (0, 1), BuildingBlock: UVAHIK_clean_linker_0, # of connection points: 2
#     Edge 28, Type (0, 1), BuildingBlock: UVAHIK_clean_linker_0, # of connection points: 2
#     Edge 29, Type (0, 1), BuildingBlock: UVAHIK_clean_linker_0, # of connection points: 2
#     Edge 30, Type (0, 1), BuildingBlock: UVAHIK_clean_linker_0, # of connection points: 2
#     Edge 31, Type (0, 1), BuildingBlock: UVAHIK_clean_linker_0, # of connection points: 2
#     Edge 32, Type (0, 1), BuildingBlock: UVAHIK_clean_linker_0, # of connection points: 2
#     Edge 33, Type (0, 1), BuildingBlock: UVAHIK_clean_linker_0, # of connection points: 2
#     Edge 34, Type (0, 1), BuildingBlock: UVAHIK_clean_linker_0, # of connection points: 2
#     Edge 35, Type (0, 1), BuildingBlock: UVAHIK_clean_linker_0, # of connection points: 2
# Relax obj value: 0.165
# Max RMSD: 0.276
# Mean RMSD: 0.170
data_MOF--net-pyr--node1-BETDIP_clean_sbu_0--node2-CUQRIR_clean_linker_1--edge1-UVAHIK_clean_linker_0
_symmetry_space_group_name_H-M    P1
_symmetry_Int_Tables_number       1
_symmetry_cell_setting            triclinic
loop_
_symmetry_equiv_pos_as_xyz
'x, y, z'
_cell_length_a     44.687282
_cell_length_b     46.823404
_cell_length_c     45.226037
_cell_angle_alpha  88.036845
_cell_angle_beta   93.600377
_cell_angle_gamma 106.30207
loop_
_atom_site_label
_atom_site_type_symbol
_atom_site_fract_x
_atom_site_fract_y
_atom_site_fract_z
_atom_type_partial_charge
C0 C 0.33517 0.35076 0.24194 0.0
N1 N 0.34958 0.32939 0.2489 0.0
N2 N 0.34022 0.36076 0.21371 0.0
C3 C 0.31151 0.3578 0.2606 0.0
C4 C 0.35799 0.34446 0.20366 0.0
N5 N 0.36385 0.32562 0.22509 0.0
C6 C 0.36718 0.34505 0.17223 0.0
H7 H 0.2883 0.34197 0.25528 0.0
H8 H 0.30981 0.38071 0.25595 0.0
H9 H 0.3176 0.3554 0.28453 0.0
H10 H 0.36811 0.36689 0.1614 0.0
H11 H 0.34953 0.32744 0.15976 0.0
H12 H 0.39017 0.34046 0.17151 0.0
C13 C 0.15867 0.78618 0.73428 0.0
N14 N 0.15462 0.80868 0.75012 0.0
N15 N 0.17377 0.76958 0.75115 0.0
C16 C 0.15114 0.78236 0.70153 0.0
C17 C 0.17846 0.78276 0.77791 0.0
N18 N 0.16683 0.80653 0.77735 0.0
C19 C 0.19852 0.77511 0.80323 0.0
H20 H 0.13193 0.79209 0.69405 0.0
H21 H 0.14438 0.75845 0.69589 0.0
H22 H 0.17223 0.79376 0.6895 0.0
H23 H 0.22152 0.79216 0.80434 0.0
H24 H 0.20213 0.75288 0.80049 0.0
H25 H 0.18749 0.77532 0.82448 0.0
C26 C 0.59898 0.376 0.86705 0.0
N27 N 0.61724 0.37174 0.89099 0.0
N28 N 0.61209 0.40228 0.85313 0.0
C29 C 0.56724 0.35563 0.85866 0.0
C30 C 0.63903 0.41381 0.8695 0.0
N31 N 0.64202 0.39542 0.89254 0.0
C32 C 0.66295 0.44265 0.86251 0.0
H33 H 0.56982 0.33891 0.84295 0.0
H34 H 0.55189 0.36829 0.84773 0.0
H35 H 0.556 0.34368 0.87846 0.0
H36 H 0.65747 0.46095 0.87404 0.0
H37 H 0.66265 0.44757 0.83834 0.0
H38 H 0.6868 0.4421 0.8703 0.0
C39 C 0.83302 0.7042 0.35663 0.0
N40 N 0.85931 0.72498 0.34824 0.0
N41 N 0.82268 0.71218 0.38182 0.0
C42 C 0.81671 0.67663 0.33948 0.0
C43 C 0.84376 0.73841 0.38868 0.0
N44 N 0.86612 0.74626 0.36858 0.0
C45 C 0.84208 0.75686 0.41485 0.0
H46 H 0.80179 0.68261 0.32114 0.0
H47 H 0.80157 0.65936 0.35348 0.0
H48 H 0.834 0.66725 0.32972 0.0
H49 H 0.8282 0.74304 0.43234 0.0
H50 H 0.83086 0.77438 0.40732 0.0
H51 H 0.86577 0.76799 0.42446 0.0
C52 C 0.64199 0.82134 0.89512 0.0
N53 N 0.66504 0.81467 0.88116 0.0
N54 N 0.63019 0.84075 0.87863 0.0
C55 C 0.63266 0.81096 0.92593 0.0
C56 C 0.64673 0.84537 0.85395 0.0
N57 N 0.66774 0.82937 0.85537 0.0
C58 C 0.64517 0.86838 0.83029 0.0
H59 H 0.6391 0.79027 0.93229 0.0
H60 H 0.60714 0.80676 0.92751 0.0
H61 H 0.64457 0.82866 0.94182 0.0
H62 H 0.66705 0.88689 0.83181 0.0
H63 H 0.6249 0.87729 0.83251 0.0
H64 H 0.64325 0.85852 0.80807 0.0
C65 C 0.85068 0.34066 0.45428 0.0
N66 N 0.85448 0.32285 0.43275 0.0
N67 N 0.83148 0.35716 0.44425 0.0
C68 C 0.8655 0.3417 0.48512 0.0
C69 C 0.82359 0.34845 0.41583 0.0
N70 N 0.83783 0.32782 0.40879 0.0
C71 C 0.79844 0.35681 0.39656 0.0
H72 H 0.85092 0.32356 0.49877 0.0
H73 H 0.86742 0.36331 0.49552 0.0
H74 H 0.88901 0.33815 0.48471 0.0
H75 H 0.80858 0.37886 0.38599 0.0
H76 H 0.77913 0.35853 0.41003 0.0
H77 H 0.78855 0.34049 0.37886 0.0
C78 C 0.33206 0.70348 0.25815 0.0
N79 N 0.35709 0.72479 0.26925 0.0
N80 N 0.31828 0.71412 0.23439 0.0
C81 C 0.32031 0.67266 0.27128 0.0
C82 C 0.3358 0.7427 0.23152 0.0
N83 N 0.35924 0.74927 0.25282 0.0
C84 C 0.33102 0.76383 0.20701 0.0
H85 H 0.33153 0.65765 0.26058 0.0
H86 H 0.29464 0.66397 0.26734 0.0
H87 H 0.32629 0.67233 0.29544 0.0
H88 H 0.31631 0.77731 0.21478 0.0
H89 H 0.31916 0.75158 0.18703 0.0
H90 H 0.35365 0.77928 0.20095 0.0
C91 C 0.10823 0.3737 0.76543 0.0
N92 N 0.12526 0.3711 0.74224 0.0
N93 N 0.12018 0.40037 0.77897 0.0
C94 C 0.081 0.34937 0.77592 0.0
C95 C 0.14516 0.41393 0.76285 0.0
N96 N 0.14837 0.39622 0.74073 0.0
C97 C 0.16615 0.44482 0.76841 0.0
H98 H 0.05921 0.35189 0.76437 0.0
H99 H 0.07902 0.35064 0.80014 0.0
H100 H 0.08338 0.32715 0.77071 0.0
H101 H 0.15306 0.45907 0.77765 0.0
H102 H 0.1768 0.45559 0.74794 0.0
H103 H 0.18536 0.44338 0.78464 0.0
Tb104 Tb 0.98132 0.0438 0.55762 0.0
Tb105 Tb 0.04836 0.07287 0.5372 0.0
C106 C 0.93049 1.00755 0.57057 0.0
C107 C 0.91745 0.98797 0.59558 0.0
C108 C 0.90026 0.9585 0.58992 0.0
C109 C 0.88577 0.93993 0.61278 0.0
C110 C 0.88796 0.95056 0.64179 0.0
C111 C 0.90609 0.97988 0.64757 0.0
C112 C 0.92078 0.99839 0.6247 0.0
C113 C 0.01042 0.09674 0.5799 0.0
C114 C 0.03872 1.02614 0.59083 0.0
C115 C 0.10105 0.10922 0.53206 0.0
C116 C 0.12158 0.12437 0.50871 0.0
C117 C 0.13679 0.15478 0.5114 0.0
C118 C 0.15761 0.16959 0.49045 0.0
C119 C 0.16376 0.15418 0.46646 0.0
C120 C 0.14825 0.12372 0.46361 0.0
C121 C 0.12721 0.10893 0.48451 0.0
C122 C 0.01902 1.02626 0.50307 0.0
C123 C 0.98988 0.08895 0.50495 0.0
O124 O 0.95186 1.00015 0.55655 0.0
O125 O 0.93711 0.03629 0.5744 0.0
O126 O 0.02272 0.07625 0.57478 0.0
O127 O 0.98047 0.08674 0.57472 0.0
O128 O 0.00816 1.02223 0.58829 0.0
O129 O 0.05855 0.04574 0.57447 0.0
O130 O 0.0755 0.11732 0.53452 0.0
O131 O 0.09654 0.08038 0.53523 0.0
O132 O 0.00937 0.03727 0.52429 0.0
O133 O 0.04729 0.04283 0.49984 0.0
O134 O 0.02015 0.09805 0.51262 0.0
O135 O 0.97123 0.0642 0.51588 0.0
H136 H 0.8976 0.94997 0.56765 0.0
H137 H 0.87252 0.91733 0.60762 0.0
H138 H 0.90805 0.98893 0.66955 0.0
H139 H 0.93411 1.02101 0.62971 0.0
H140 H 0.13285 0.16704 0.52999 0.0
H141 H 0.16944 0.19299 0.49341 0.0
H142 H 0.15228 0.11137 0.44516 0.0
H143 H 0.11562 0.08545 0.48186 0.0
Tb144 Tb 0.53688 0.07862 0.10059 0.0
Tb145 Tb 0.46804 0.05294 0.08855 0.0
C146 C 0.59196 0.11175 0.10627 0.0
C147 C 0.61369 0.12859 0.1292 0.0
C148 C 0.64462 0.14218 0.12235 0.0
C149 C 0.66609 0.15791 0.14387 0.0
C150 C 0.65694 0.16029 0.17265 0.0
C151 C 0.62577 0.1466 0.17942 0.0
C152 C 0.60427 0.13084 0.15781 0.0
C153 C 0.512 1.02856 0.12993 0.0
C154 C 0.48902 0.09949 0.13802 0.0
C155 C 0.41322 1.01993 0.08072 0.0
C156 C 0.39255 1.00651 0.05522 0.0
C157 C 0.37383 0.97708 0.05747 0.0
C158 C 0.35337 0.9642 1.03384 0.0
C159 C 0.35108 0.98062 1.00754 0.0
C160 C 0.37012 1.0101 1.00534 0.0
C161 C 0.39076 1.02286 1.02887 0.0
C162 C 0.49339 0.10275 0.05877 0.0
C163 C 0.51551 1.03228 0.05057 0.0
O164 O 0.56786 0.12145 0.09826 0.0
O165 O 0.58446 0.08281 0.10943 0.0
O166 O 0.49987 0.0495 0.12458 0.0
O167 O 0.54022 0.03651 0.1213 0.0
O168 O 0.51738 0.10637 0.12785 0.0
O169 O 0.46749 0.07501 0.12971 0.0
O170 O 0.4373 1.0097 0.08722 0.0
O171 O 0.42032 0.04892 0.08238 0.0
O172 O 0.50507 0.08172 0.06475 0.0
O173 O 0.46491 0.0949 0.06672 0.0
O174 O 0.48734 1.0252 0.06112 0.0
O175 O 0.53725 0.05644 0.05935 0.0
H176 H 0.65223 0.14046 0.10036 0.0
H177 H 0.68999 0.16782 0.13808 0.0
H178 H 0.61795 0.14833 0.2013 0.0
H179 H 0.58038 0.12041 0.16338 0.0
H180 H 0.37499 0.96407 0.07757 0.0
H181 H 0.33955 0.94128 1.03613 0.0
H182 H 0.36876 1.02354 0.98561 0.0
H183 H 0.40508 0.04561 1.02653 0.0
Tb184 Tb 0.48132 0.58518 0.56785 0.0
Tb185 Tb 0.48016 0.52722 0.54155 0.0
C186 C 0.46686 0.63131 0.58019 0.0
C187 C 0.44127 0.63682 0.59577 0.0
C188 C 0.43335 0.66348 0.59045 0.0
C189 C 0.40793 0.66836 0.60382 0.0
C190 C 0.38992 0.64655 0.62266 0.0
C191 C 0.39812 0.61989 0.62807 0.0
C192 C 0.4236 0.61507 0.61473 0.0
C193 C 0.50974 0.55288 0.60162 0.0
C194 C 0.42206 0.52728 0.57612 0.0
C195 C 0.49479 0.48208 0.52641 0.0
C196 C 0.52503 0.47536 0.5251 0.0
C197 C 0.54569 0.4778 0.55029 0.0
C198 C 0.57449 0.47196 0.54848 0.0
C199 C 0.58337 0.46394 0.52143 0.0
C200 C 0.56283 0.46173 0.49622 0.0
C201 C 0.53386 0.46725 0.49809 0.0
C202 C 0.4538 0.5619 0.50813 0.0
C203 C 0.54013 0.58316 0.53606 0.0
O204 O 0.45843 0.6174 0.55511 0.0
O205 O 0.4869 0.62088 0.59637 0.0
O206 O 0.48493 0.54328 0.58567 0.0
O207 O 0.51805 0.58175 0.60067 0.0
O208 O 0.4341 0.55663 0.57762 0.0
O209 O 0.43714 0.5103 0.56429 0.0
O210 O 0.4859 0.48529 0.55282 0.0
O211 O 0.48984 0.50226 0.5075 0.0
O212 O 0.47838 0.56948 0.52434 0.0
O213 O 0.4434 0.53307 0.50885 0.0
O214 O 0.52947 0.55386 0.5395 0.0
O215 O 0.52274 0.60065 0.54224 0.0
H216 H 0.4467 0.68043 0.57577 0.0
H217 H 0.40252 0.68932 0.59957 0.0
H218 H 0.38455 0.60255 0.64223 0.0
H219 H 0.42931 0.59426 0.61902 0.0
H220 H 0.53975 0.48435 0.57139 0.0
H221 H 0.59 0.47407 0.56818 0.0
H222 H 0.56899 0.45529 0.47516 0.0
H223 H 0.51837 0.4653 0.47839 0.0
Tb224 Tb 0.9783 0.58429 0.03857 0.0
Tb225 Tb 0.98294 0.5372 0.08364 0.0
C226 C 0.95992 0.61767 1.00138 0.0
C227 C 0.93761 0.63532 0.99704 0.0
C228 C 0.91693 0.63655 1.01875 0.0
C229 C 0.89402 0.65143 1.01261 0.0
C230 C 0.89142 0.6649 0.98462 0.0
C231 C 0.91285 0.66424 0.9634 0.0
C232 C 0.93574 0.64958 0.96959 0.0
C233 C 0.03453 0.59079 0.06357 0.0
C234 C 0.95853 0.58919 0.10532 0.0
C235 C 0.00195 0.5018 0.11783 0.0
C236 C 0.02948 0.49048 0.11913 0.0
C237 C 0.05633 0.50579 0.10456 0.0
C238 C 0.08325 0.49611 0.10771 0.0
C239 C 0.08371 0.47091 0.12539 0.0
C240 C 0.05636 0.45515 0.13913 0.0
C241 C 0.0295 0.46492 0.13607 0.0
C242 C 0.92682 0.53014 0.0578 0.0
C243 C 0.00628 0.53474 1.01786 0.0
O244 O 0.94774 0.58881 1.003 0.0
O245 O 0.98344 0.62725 1.02066 0.0
O246 O 0.00908 0.58183 0.07597 0.0
O247 O 0.02918 0.59895 1.03653 0.0
O248 O 0.95726 0.59793 0.07704 0.0
O249 O 0.96968 0.56658 0.11356 0.0
O250 O 0.00778 0.53027 0.12261 0.0
O251 O 0.98172 0.49308 0.09548 0.0
O252 O 0.95254 0.53914 0.04583 0.0
O253 O 0.93205 0.5227 0.08509 0.0
O254 O 0.00799 0.52674 0.04629 0.0
O255 O 0.99276 0.55554 1.00908 0.0
H256 H 0.91804 0.62547 0.04004 0.0
H257 H 0.8777 0.65154 1.02931 0.0
H258 H 0.9117 0.67483 0.94184 0.0
H259 H 0.95157 0.6488 0.95263 0.0
H260 H 0.05672 0.52562 0.09135 0.0
H261 H 0.10396 0.50894 0.09708 0.0
H262 H 0.05577 0.43536 0.15247 0.0
H263 H 0.0089 0.45279 0.14732 0.0
C264 C 0.35128 0.31408 0.30142 0.0
C265 C 0.34061 0.30744 0.27202 0.0
C266 C 0.33812 0.29479 0.32442 0.0
C267 C 0.28426 0.21964 0.34051 0.0
H268 H 0.26233 0.26049 0.40538 0.0
C269 C 0.2091 0.15698 0.43528 0.0
C270 C 0.1866 0.16991 0.44478 0.0
C271 C 0.2314 0.17245 0.41578 0.0
C272 C 0.26815 0.24872 0.38737 0.0
H273 H 0.309 0.27564 0.24301 0.0
H274 H 0.28564 0.24191 0.28288 0.0
H275 H 0.29654 0.28892 0.36863 0.0
H276 H 0.16915 0.20871 0.44057 0.0
H277 H 0.20761 0.23547 0.40625 0.0
H278 H 0.25441 0.17961 0.35849 0.0
C279 C 0.30453 0.26149 0.28851 0.0
C280 C 0.28823 0.26498 0.36653 0.0
C281 C 0.31779 0.28072 0.26565 0.0
C282 C 0.18653 0.19838 0.43402 0.0
C283 C 0.20867 0.21375 0.41445 0.0
C284 C 0.26402 0.20336 0.36132 0.0
C285 C 0.31387 0.2687 0.31826 0.0
C286 C 0.29605 0.25075 0.34249 0.0
C287 C 0.23156 0.20111 0.40529 0.0
C288 C 0.25519 0.21783 0.38463 0.0
H289 H 0.3688 0.33478 0.30656 0.0
H290 H 0.34617 0.3008 0.34704 0.0
H291 H 0.29012 0.20791 0.32248 0.0
H292 H 0.20992 0.13519 0.44347 0.0
H293 H 0.24885 0.16217 0.40936 0.0
C294 C 0.20067 0.85616 0.78943 0.0
C295 C 0.17727 0.83077 0.79758 0.0
C296 C 0.21597 0.87699 0.81062 0.0
C297 C 0.21522 0.90182 0.88729 0.0
H298 H 0.30509 0.9179 0.88538 0.0
C299 C 0.29954 0.94754 0.98779 0.0
C300 C 0.32907 0.96701 0.98248 0.0
C301 C 0.27927 0.93408 0.96427 0.0
C302 C 0.2801 0.91421 0.88603 0.0
H303 H 0.15011 0.80768 0.83338 0.0
H304 H 0.1769 0.8442 0.8709 0.0
H305 H 0.27159 0.89019 0.84563 0.0
H306 H 0.36016 0.98779 0.94804 0.0
H307 H 0.32445 0.96525 0.90711 0.0
H308 H 0.22382 0.92574 0.92791 0.0
C309 C 0.18327 0.84822 0.84811 0.0
C310 C 0.26087 0.89827 0.86319 0.0
C311 C 0.16798 0.82734 0.8268 0.0
C312 C 0.33752 0.97316 0.95301 0.0
C313 C 0.31716 0.9599 0.92951 0.0
C314 C 0.23453 0.91804 0.9101 0.0
C315 C 0.2082 0.87268 0.8404 0.0
C316 C 0.22823 0.89167 0.86368 0.0
C317 C 0.28793 0.93989 0.93484 0.0
C318 C 0.26722 0.92417 0.90989 0.0
H319 H 0.20839 0.85887 0.76702 0.0
H320 H 0.23483 0.89581 0.80397 0.0
H321 H 0.19014 0.89719 0.88813 0.0
H322 H 0.29202 0.94266 1.01016 0.0
H323 H 0.25711 0.91856 0.96926 0.0
C324 C 0.59023 0.39833 0.80125 0.0
C325 C 0.60032 0.41513 0.827 0.0
C326 C 0.58004 0.41126 0.77556 0.0
C327 C 0.59217 0.48093 0.73558 0.0
H328 H 0.50852 0.45138 0.69959 0.0
C329 C 0.54436 0.54965 0.64631 0.0
C330 C 0.52173 0.53518 0.62476 0.0
C331 C 0.55449 0.53351 0.66946 0.0
C332 C 0.53221 0.45965 0.70885 0.0
H333 H 0.60667 0.45817 0.8464 0.0
H334 H 0.59034 0.48122 0.80106 0.0
H335 H 0.52479 0.42545 0.74273 0.0
H336 H 0.49233 0.49234 0.61025 0.0
H337 H 0.51126 0.4638 0.6496 0.0
H338 H 0.60036 0.51445 0.70152 0.0
C339 C 0.59019 0.45805 0.80086 0.0
C340 C 0.54138 0.44484 0.73373 0.0
C341 C 0.59966 0.44495 0.82668 0.0
C342 C 0.50996 0.50408 0.62643 0.0
C343 C 0.52056 0.48778 0.6493 0.0
C344 C 0.58331 0.49535 0.71036 0.0
C345 C 0.58041 0.44136 0.77505 0.0
C346 C 0.57124 0.45569 0.74759 0.0
C347 C 0.54274 0.5023 0.67142 0.0
C348 C 0.55296 0.48533 0.69692 0.0
H349 H 0.59085 0.37541 0.80084 0.0
H350 H 0.57268 0.398 0.75586 0.0
H351 H 0.61548 0.48947 0.74571 0.0
H352 H 0.55373 0.57365 0.64575 0.0
H353 H 0.57099 0.54576 0.68625 0.0
C354 C 0.859 0.7202 0.29398 0.0
C355 C 0.87559 0.72344 0.32174 0.0
C356 C 0.86995 0.70901 0.26967 0.0
C357 C 0.93685 0.69593 0.23492 0.0
H358 H 0.87796 0.62401 0.20438 0.0
C359 C 0.95016 0.63631 0.12529 0.0
C360 C 0.94841 0.60586 0.12886 0.0
C361 C 0.94267 0.65225 0.14835 0.0
C362 C 0.89466 0.6441 0.21255 0.0
H363 H 0.91794 0.71934 0.34497 0.0
H364 H 0.93821 0.70134 0.30184 0.0
H365 H 0.86376 0.65066 0.24459 0.0
H366 H 0.93658 0.56837 0.15957 0.0
H367 H 0.92214 0.59574 0.19901 0.0
H368 H 0.96742 0.68969 0.20218 0.0
C369 C 0.91628 0.70699 0.29916 0.0
C370 C 0.88649 0.65945 0.23557 0.0
C371 C 0.9049 0.71763 0.32379 0.0
C372 C 0.93825 0.59173 0.15592 0.0
C373 C 0.92993 0.60744 0.17859 0.0
C374 C 0.94472 0.68098 0.21126 0.0
C375 C 0.8983 0.70138 0.27209 0.0
C376 C 0.90748 0.6855 0.24725 0.0
C377 C 0.93234 0.63801 0.17531 0.0
C378 C 0.9238 0.65469 0.19988 0.0
H379 H 0.83631 0.72433 0.29173 0.0
H380 H 0.85564 0.70533 0.24916 0.0
H381 H 0.95356 0.71591 0.2433 0.0
H382 H 0.95807 0.64804 0.10492 0.0
H383 H 0.94463 0.6757 0.14497 0.0
C384 C 0.36412 0.27746 0.20541 0.0
C385 C 0.37895 0.30272 0.22202 0.0
C386 C 0.37865 0.25493 0.20288 0.0
C387 C 0.45235 0.24119 0.19827 0.0
H388 H 0.41131 0.1597 0.22115 0.0
C389 C 0.50248 0.14589 0.16824 0.0
C390 C 0.48027 0.12025 0.15746 0.0
C391 C 0.49305 0.16747 0.18294 0.0
C392 C 0.42303 0.18227 0.21439 0.0
H393 H 0.41995 0.32479 0.24901 0.0
H394 H 0.44634 0.28568 0.24355 0.0
H395 H 0.38828 0.19931 0.2323 0.0
H396 H 0.4309 0.09659 0.1548 0.0
H397 H 0.41448 0.13424 0.17914 0.0
H398 H 0.48587 0.2243 0.17841 0.0
C399 C 0.42336 0.28316 0.23293 0.0
C400 C 0.4099 0.20491 0.221 0.0
C401 C 0.40844 0.30536 0.23602 0.0
C402 C 0.4487 0.116 0.16289 0.0
C403 C 0.43926 0.13765 0.17715 0.0
C404 C 0.46516 0.21848 0.19105 0.0
C405 C 0.40846 0.25773 0.21645 0.0
C406 C 0.42415 0.23441 0.21248 0.0
C407 C 0.46117 0.16402 0.18682 0.0
C408 C 0.45026 0.18859 0.19839 0.0
H409 H 0.34125 0.2752 0.19465 0.0
H410 H 0.36688 0.23556 0.1899 0.0
H411 H 0.46361 0.26386 0.1914 0.0
H412 H 0.52703 0.14971 0.16459 0.0
H413 H 0.51068 0.18718 0.19061 0.0
C414 C 0.11759 0.83881 0.75031 0.0
C415 C 0.1438 0.8333 0.73888 0.0
C416 C 0.1063 0.86208 0.73861 0.0
C417 C 0.12868 0.93271 0.69668 0.0
H418 H 0.04157 0.91301 0.66889 0.0
C419 C 0.08221 1.00635 0.61185 0.0
C420 C 0.0513 1.00776 0.61285 0.0
C421 C 0.0935 0.9873 0.63105 0.0
C422 C 0.06579 0.91917 0.67705 0.0
H423 H 0.17998 0.84819 0.70776 0.0
H424 H 0.16054 0.88917 0.68728 0.0
H425 H 0.06149 0.8758 0.69618 0.0
H426 H 0.00836 0.99111 0.63566 0.0
H427 H 0.02834 0.95849 0.66974 0.0
H428 H 0.13313 0.97604 0.6777 0.0
C429 C 0.14845 0.87543 0.70502 0.0
C430 C 0.07719 0.89777 0.69261 0.0
C431 C 0.15939 0.85194 0.71644 0.0
C432 C 0.03223 0.99039 0.63414 0.0
C433 C 0.04364 0.97154 0.65358 0.0
C434 C 0.11722 0.95425 0.68146 0.0
C435 C 0.12156 0.8805 0.71572 0.0
C436 C 0.10887 0.90415 0.70203 0.0
C437 C 0.07428 0.96939 0.65197 0.0
C438 C 0.08577 0.94756 0.67086 0.0
H439 H 0.10557 0.8247 0.76785 0.0
H440 H 0.08567 0.86567 0.74738 0.0
H441 H 0.15313 0.9383 0.70407 0.0
H442 H 0.0975 1.01928 0.5956 0.0
H443 H 0.11702 0.98593 0.62873 0.0
C444 C 0.66655 0.41623 0.94005 0.0
C445 C 0.6677 0.40084 0.91435 0.0
C446 C 0.69356 0.4276 0.95817 0.0
C447 C 0.7783 0.4291 0.96919 0.0
H448 H 0.78487 0.50482 1.00515 0.0
C449 C 0.89529 0.51128 1.0112 0.0
C450 C 0.89651 0.51806 0.04136 0.0
C451 C 0.86687 0.49654 0.99659 0.0
C452 C 0.78326 0.48363 0.9953 0.0
H453 H 0.6974 0.38506 0.88712 0.0
H454 H 0.74506 0.40579 0.91776 0.0
H455 H 0.73622 0.47832 0.979 0.0
H456 H 0.86904 0.51601 0.07955 0.0
H457 H 0.81904 0.49132 0.05356 0.0
H458 H 0.82619 0.43562 0.98442 0.0
C459 C 0.72329 0.40819 0.92501 0.0
C460 C 0.75524 0.46816 0.98053 0.0
C461 C 0.69604 0.39623 0.90736 0.0
C462 C 0.86868 0.511 0.05629 0.0
C463 C 0.84016 0.49691 0.04149 0.0
C464 C 0.80652 0.44495 0.9834 0.0
C465 C 0.72263 0.42475 0.95034 0.0
C466 C 0.75225 0.4406 0.96723 0.0
C467 C 0.83911 0.48901 1.01168 0.0
C468 C 0.80923 0.47234 0.99656 0.0
H469 H 0.64498 0.42062 0.94534 0.0
H470 H 0.69171 0.43945 0.97779 0.0
H471 H 0.77697 0.40778 0.95987 0.0
H472 H 0.91643 0.51638 0.99919 0.0
H473 H 0.86657 0.49086 0.97353 0.0
C474 C 0.78954 0.66947 0.40959 0.0
C475 C 0.79429 0.69794 0.39654 0.0
C476 C 0.76261 0.65639 0.42505 0.0
C477 C 0.70112 0.67569 0.46498 0.0
H478 H 0.65499 0.59293 0.45437 0.0
C479 C 0.57986 0.62631 0.51346 0.0
C480 C 0.57087 0.59627 0.52272 0.0
C481 C 0.60765 0.63824 0.49903 0.0
C482 C 0.66777 0.61595 0.45807 0.0
H483 H 0.7748 0.7351 0.38951 0.0
H484 H 0.72792 0.7126 0.41672 0.0
H485 H 0.70199 0.61419 0.42741 0.0
H486 H 0.58474 0.55539 0.52443 0.0
H487 H 0.63356 0.57634 0.50016 0.0
H488 H 0.66744 0.67754 0.49594 0.0
C489 C 0.74491 0.70025 0.41507 0.0
C490 C 0.69477 0.62819 0.44244 0.0
C491 C 0.77164 0.71312 0.39937 0.0
C492 C 0.5908 0.57861 0.5176 0.0
C493 C 0.61878 0.59063 0.50337 0.0
C494 C 0.67434 0.66341 0.48082 0.0
C495 C 0.74002 0.67173 0.42824 0.0
C496 C 0.71168 0.65832 0.44547 0.0
C497 C 0.62758 0.62061 0.4936 0.0
C498 C 0.65699 0.63339 0.47746 0.0
H499 H 0.80697 0.65758 0.40819 0.0
H500 H 0.75985 0.63457 0.43516 0.0
H501 H 0.71381 0.69882 0.46832 0.0
H502 H 0.56504 0.64056 0.5167 0.0
H503 H 0.61305 0.66122 0.49149 0.0
C504 C 0.2965 0.36038 0.17805 0.0
C505 C 0.3217 0.37635 0.1963 0.0
C506 C 0.27479 0.37427 0.1654 0.0
C507 C 0.24314 0.43618 0.18095 0.0
H508 H 0.19532 0.41346 0.10672 0.0
C509 C 0.12138 0.45261 0.159 0.0
C510 C 0.11296 0.46186 0.13058 0.0
C511 C 0.14916 0.44478 0.1643 0.0
C512 C 0.20869 0.42036 0.12734 0.0
H513 H 0.34537 0.41922 0.21465 0.0
H514 H 0.30791 0.44413 0.1919 0.0
H515 H 0.24172 0.39664 0.11869 0.0
H516 H 0.12709 0.46984 0.08531 0.0
H517 H 0.17602 0.45662 0.09474 0.0
H518 H 0.21027 0.45992 0.18963 0.0
C519 C 0.30445 0.42077 0.1877 0.0
C520 C 0.23511 0.41048 0.13432 0.0
C521 C 0.32603 0.40675 0.20046 0.0
C522 C 0.13302 0.46303 0.10753 0.0
C523 C 0.16091 0.4552 0.11285 0.0
C524 C 0.21685 0.44609 0.17394 0.0
C525 C 0.278 0.40444 0.17081 0.0
C526 C 0.2523 0.4178 0.16149 0.0
C527 C 0.16935 0.44613 0.14136 0.0
C528 C 0.1989 0.43777 0.14737 0.0
H529 H 0.29271 0.33676 0.17503 0.0
H530 H 0.25456 0.3609 0.15288 0.0
H531 H 0.25553 0.44199 0.20222 0.0
H532 H 0.10671 0.45182 0.17736 0.0
H533 H 0.15468 0.43742 0.18642 0.0
C534 C 0.60861 0.34791 0.94061 0.0
C535 C 0.61159 0.34572 0.91016 0.0
C536 C 0.59949 0.3222 0.95845 0.0
C537 C 0.58761 0.23957 0.95883 0.0
H538 H 0.53081 0.24036 1.0199 0.0
C539 C 0.53947 0.13634 1.0343 0.0
C540 C 0.50865 0.13068 0.04284 0.0
C541 C 0.55401 0.163 1.01965 0.0
C542 C 0.5464 0.23957 1.00276 0.0
H543 H 0.60819 0.31528 0.87449 0.0
H544 H 0.59128 0.27036 0.90507 0.0
H545 H 0.5529 0.28555 0.99158 0.0
H546 H 0.46863 0.14818 0.0423 0.0
H547 H 0.49337 0.19412 1.01579 0.0
H548 H 0.57979 0.19319 0.96893 0.0
C549 C 0.59664 0.29174 0.91564 0.0
C550 C 0.55957 0.26576 0.98678 0.0
C551 C 0.60607 0.31744 0.89797 0.0
C552 C 0.4925 0.15202 1.03613 0.0
C553 C 0.50686 0.17853 1.02116 0.0
C554 C 0.57416 0.21329 0.97459 0.0
C555 C 0.59274 0.29368 0.9461 0.0
C556 C 0.58021 0.26613 0.9644 0.0
C557 C 0.5379 0.18451 1.01278 0.0
C558 C 0.55314 0.21282 0.99665 0.0
H559 H 0.61209 0.36941 0.9504 0.0
H560 H 0.59725 0.32473 0.98184 0.0
H561 H 0.60374 0.23894 0.94214 0.0
H562 H 0.55245 0.12019 0.03903 0.0
H563 H 0.57801 0.16682 1.014 0.0
C564 C 0.91643 0.77828 0.38824 0.0
C565 C 0.88991 0.77456 0.36876 0.0
C566 C 0.93269 0.80652 0.39921 0.0
C567 C 0.91855 0.88032 0.41218 0.0
H568 H 0.00567 0.90237 0.43959 0.0
C569 C 0.97226 0.98231 0.48919 0.0
C570 C 0.00364 0.99844 0.48625 0.0
C571 C 0.95898 0.95572 0.47359 0.0
C572 C 0.98135 0.89691 0.43188 0.0
H573 H 0.86079 0.79791 0.34429 0.0
H574 H 0.88994 0.84737 0.36178 0.0
H575 H 0.98395 0.85668 0.41227 0.0
H576 H 0.04527 0.99955 0.46364 0.0
H577 H 0.0223 0.95417 0.43615 0.0
H578 H 0.91612 0.92089 0.43123 0.0
C579 C 0.89793 0.82846 0.3694 0.0
C580 C 0.9687 0.87026 0.41638 0.0
C581 C 0.88164 0.80017 0.35861 0.0
C582 C 0.0211 0.98763 0.46676 0.0
C583 C 0.0079 0.96126 0.4511 0.0
C584 C 0.93123 0.90703 0.42758 0.0
C585 C 0.92289 0.83199 0.39096 0.0
C586 C 0.93701 0.86136 0.40628 0.0
C587 C 0.97666 0.94457 0.45436 0.0
C588 C 0.96288 0.91585 0.43781 0.0
H589 H 0.92265 0.75887 0.39728 0.0
H590 H 0.9515 0.80788 0.41585 0.0
H591 H 0.89394 0.8743 0.40543 0.0
H592 H 0.95788 0.99025 0.50338 0.0
H593 H 0.93493 0.9437 0.477 0.0
C594 C 0.17798 0.72336 0.72931 0.0
C595 C 0.19211 0.75196 0.74014 0.0
C596 C 0.19627 0.70669 0.71825 0.0
C597 C 0.27746 0.70167 0.72062 0.0
H598 H 0.25415 0.66389 0.64439 0.0
C599 C 0.35766 0.64405 0.66667 0.0
C600 C 0.36289 0.65185 0.63676 0.0
C601 C 0.3334 0.65081 0.6804 0.0
C602 C 0.26092 0.67428 0.66574 0.0
H603 H 0.23568 0.78608 0.74755 0.0
H604 H 0.26778 0.75718 0.72847 0.0
H605 H 0.21835 0.68667 0.66696 0.0
H606 H 0.34579 0.67146 0.59742 0.0
H607 H 0.30398 0.6839 0.62153 0.0
H608 H 0.32052 0.69057 0.71893 0.0
C609 C 0.2428 0.74722 0.7289 0.0
C610 C 0.24029 0.68704 0.67878 0.0
C611 C 0.22456 0.7638 0.7397 0.0
C612 C 0.34267 0.66559 0.62063 0.0
C613 C 0.31842 0.67234 0.63434 0.0
C614 C 0.29801 0.6889 0.70764 0.0
C615 C 0.22891 0.71847 0.7181 0.0
C616 C 0.24873 0.70153 0.706 0.0
C617 C 0.31383 0.66547 0.66451 0.0
C618 C 0.29029 0.67565 0.67974 0.0
H619 H 0.1529 0.71404 0.72946 0.0
H620 H 0.18497 0.68458 0.71008 0.0
H621 H 0.28441 0.71234 0.74182 0.0
H622 H 0.37291 0.63356 0.67974 0.0
H623 H 0.33025 0.64496 0.7036 0.0
C624 C 0.72405 0.84739 0.84782 0.0
C625 C 0.69356 0.83389 0.83662 0.0
C626 C 0.74876 0.85484 0.82895 0.0
C627 C 0.7707 0.84414 0.75269 0.0
H628 H 0.82696 0.92329 0.7636 0.0
C629 C 0.83935 0.91382 0.65893 0.0
C630 C 0.86988 0.9318 0.66546 0.0
C631 C 0.82134 0.89786 0.68136 0.0
C632 C 0.81185 0.90093 0.76051 0.0
H633 H 0.66477 0.81644 0.79764 0.0
H634 H 0.70767 0.83018 0.76417 0.0
H635 H 0.78893 0.90227 0.80027 0.0
H636 H 0.90583 0.94598 0.70067 0.0
H637 H 0.87405 0.91842 0.73997 0.0
H638 H 0.79295 0.84348 0.7122 0.0
C639 C 0.71283 0.83459 0.78756 0.0
C640 C 0.79002 0.88881 0.78158 0.0
C641 C 0.68821 0.82696 0.80654 0.0
C642 C 0.88223 0.93277 0.69492 0.0
C643 C 0.86409 0.91692 0.71742 0.0
C644 C 0.79243 0.85636 0.73151 0.0
C645 C 0.74335 0.84919 0.79843 0.0
C646 C 0.76876 0.8605 0.77766 0.0
C647 C 0.83331 0.8996 0.71091 0.0
C648 C 0.81283 0.88512 0.73493 0.0
H649 H 0.72851 0.85308 0.871 0.0
H650 H 0.772 0.86563 0.83817 0.0
H651 H 0.75507 0.82206 0.74924 0.0
H652 H 0.82883 0.91292 0.63663 0.0
H653 H 0.79753 0.88512 0.67569 0.0
C654 C 0.81204 0.27929 0.38688 0.0
C655 C 0.82959 0.30899 0.38345 0.0
C656 C 0.79923 0.26224 0.3621 0.0
C657 C 0.77119 0.27269 0.28595 0.0
H658 H 0.75885 0.18756 0.28158 0.0
C659 C 0.70146 0.20412 0.18809 0.0
C660 C 0.67996 0.17696 0.19545 0.0
C661 C 0.72329 0.21976 0.20943 0.0
C662 C 0.76199 0.21131 0.28259 0.0
H663 H 0.84891 0.34408 0.35208 0.0
H664 H 0.82684 0.31418 0.30827 0.0
H665 H 0.79287 0.21554 0.32138 0.0
H666 H 0.66482 0.14471 0.23087 0.0
H667 H 0.70253 0.17235 0.26834 0.0
H668 H 0.73982 0.26843 0.24763 0.0
C669 C 0.82269 0.30407 0.33008 0.0
C670 C 0.78152 0.22733 0.30531 0.0
C671 C 0.8355 0.32109 0.35495 0.0
C672 C 0.68085 0.16573 0.2246 0.0
C673 C 0.70273 0.18136 0.24595 0.0
C674 C 0.75172 0.2567 0.26324 0.0
C675 C 0.80365 0.27471 0.33342 0.0
C676 C 0.78595 0.25813 0.3075 0.0
C677 C 0.72412 0.2086 0.23861 0.0
C678 C 0.74652 0.22577 0.26157 0.0
H679 H 0.80678 0.26987 0.40878 0.0
H680 H 0.78435 0.23988 0.3655 0.0
H681 H 0.77361 0.29629 0.28729 0.0
H682 H 0.70119 0.2135 0.16588 0.0
H683 H 0.7396 0.24058 0.20304 0.0
C684 C 0.39908 0.7065 0.29292 0.0
C685 C 0.37616 0.72139 0.29514 0.0
C686 C 0.41072 0.69416 0.31818 0.0
C687 C 0.38362 0.66139 0.3896 0.0
H688 H 0.4687 0.65727 0.40442 0.0
C689 C 0.41718 0.57227 0.46726 0.0
C690 C 0.44413 0.58213 0.48604 0.0
C691 C 0.40934 0.59148 0.44554 0.0
C692 C 0.44486 0.65835 0.40072 0.0
H693 H 0.34824 0.73629 0.32514 0.0
H694 H 0.3688 0.7151 0.36968 0.0
H695 H 0.45665 0.68954 0.36453 0.0
H696 H 0.48378 0.61991 0.49706 0.0
H697 H 0.47019 0.65319 0.4593 0.0
H698 H 0.37175 0.62986 0.4255 0.0
C699 C 0.37784 0.71289 0.34847 0.0
C700 C 0.43795 0.67672 0.37776 0.0
C701 C 0.36646 0.72545 0.32318 0.0
C702 C 0.46283 0.61161 0.48293 0.0
C703 C 0.45518 0.63066 0.46114 0.0
C704 C 0.39048 0.64278 0.41236 0.0
C705 C 0.39925 0.69614 0.3461 0.0
C706 C 0.40723 0.6784 0.37185 0.0
C707 C 0.42849 0.62081 0.44201 0.0
C708 C 0.42116 0.64093 0.41812 0.0
H709 H 0.40616 0.70253 0.27133 0.0
H710 H 0.427 0.68124 0.31551 0.0
H711 H 0.35963 0.66182 0.38537 0.0
H712 H 0.40237 0.54966 0.46916 0.0
H713 H 0.38871 0.58315 0.43101 0.0
C714 C 0.07709 0.41065 0.80568 0.0
C715 C 0.10887 0.41196 0.80432 0.0
C716 C 0.06639 0.42261 0.82977 0.0
C717 C 0.0921 0.47971 0.88737 0.0
H718 H 0.01843 0.43595 0.92751 0.0
C719 C 0.02783 0.53476 0.96753 0.0
C720 C 0.01981 0.52027 0.99494 0.0
C721 C 0.03957 0.52116 0.94542 0.0
C722 C 0.0391 0.44845 0.91661 0.0
H723 H 0.15399 0.42632 0.82802 0.0
H724 H 0.13568 0.44836 0.86922 0.0
H725 H 0.03655 0.41292 0.88673 0.0
H726 H 0.01794 0.47974 1.02024 0.0
H727 H 0.03755 0.45559 0.98122 0.0
H728 H 0.09418 0.51554 0.91665 0.0
C729 C 0.11898 0.43799 0.85165 0.0
C730 C 0.04938 0.43532 0.89307 0.0
C731 C 0.12954 0.42546 0.82791 0.0
C732 C 0.02393 0.49166 0.99952 0.0
C733 C 0.03501 0.47773 0.97706 0.0
C734 C 0.08141 0.49309 0.91042 0.0
C735 C 0.08724 0.43679 0.85297 0.0
C736 C 0.07611 0.45071 0.87814 0.0
C737 C 0.04306 0.49232 0.94967 0.0
C738 C 0.0548 0.47766 0.92547 0.0
H739 H 0.06056 0.40084 0.7878 0.0
H740 H 0.04184 0.42145 0.82986 0.0
H741 H 0.11264 0.49235 0.87635 0.0
H742 H 0.0251 0.5568 0.96311 0.0
H743 H 0.04533 0.53305 0.92465 0.0
C744 C 0.63129 0.89017 0.89555 0.0
C745 C 0.61455 0.86054 0.89017 0.0
C746 C 0.61768 0.90885 0.90982 0.0
C747 C 0.54331 0.91852 0.93286 0.0
H748 H 0.5977 0.96599 0.99403 0.0
C749 C 0.50251 0.98539 1.0212 0.0
C750 C 0.52293 1.01346 1.02816 0.0
C751 C 0.51123 0.96666 1.00202 0.0
C752 C 0.5823 0.95316 0.9768 0.0
H753 H 0.57043 0.82715 0.89434 0.0
H754 H 0.54636 0.85981 0.92006 0.0
H755 H 0.61724 0.93342 0.96464 0.0
H756 H 0.5677 0.04455 1.01913 0.0
H757 H 0.58263 1.01215 0.98565 0.0
H758 H 0.50824 0.93835 0.9455 0.0
C759 C 0.5699 0.86872 0.91288 0.0
C760 C 0.59351 0.9345 0.95993 0.0
C761 C 0.58359 0.85002 0.89839 0.0
C762 C 0.55157 1.02292 1.01458 0.0
C763 C 0.56021 1.00431 0.99546 0.0
C764 C 0.53202 0.93728 0.94988 0.0
C765 C 0.58712 0.89814 0.91934 0.0
C766 C 0.57433 0.91725 0.93752 0.0
C767 C 0.54051 0.97572 0.98953 0.0
C768 C 0.55159 0.95506 0.97177 0.0
H769 H 0.6553 0.89853 0.88951 0.0
H770 H 0.63136 0.93155 0.91399 0.0
H771 H 0.52802 0.90551 0.91569 0.0
H772 H 0.48024 0.9775 1.03128 0.0
H773 H 0.49562 0.9447 0.9979 0.0
C774 C 0.85856 0.27547 0.45523 0.0
C775 C 0.86969 0.29959 0.43584 0.0
C776 C 0.87192 0.25182 0.45683 0.0
C777 C 0.94315 0.2326 0.44987 0.0
H778 H 0.89075 0.15184 0.43899 0.0
C779 C 0.99443 0.13359 0.47144 0.0
C780 C 0.97569 0.10921 0.48688 0.0
C781 C 0.98167 0.15551 0.45868 0.0
C782 C 0.90573 0.17418 0.44239 0.0
H783 H 0.90302 0.31834 0.40292 0.0
H784 H 0.92763 0.27726 0.40659 0.0
H785 H 0.86822 0.19347 0.43096 0.0
H786 H 0.92857 0.08805 0.49989 0.0
H787 H 0.9067 0.12646 0.47883 0.0
H788 H 0.98021 0.21368 0.46323 0.0
C789 C 0.90838 0.27658 0.42026 0.0
C790 C 0.8928 0.19799 0.43759 0.0
C791 C 0.89449 0.29995 0.4182 0.0
C792 C 0.94366 0.10642 0.48798 0.0
C793 C 0.93104 0.12854 0.4757 0.0
C794 C 0.95598 0.20879 0.45529 0.0
C795 C 0.89697 0.25221 0.43941 0.0
C796 C 0.9113 0.22732 0.44175 0.0
C797 C 0.95001 0.1538 0.46153 0.0
C798 C 0.9373 0.17918 0.45217 0.0
H799 H 0.83906 0.27471 0.46858 0.0
H800 H 0.86287 0.23331 0.47186 0.0
H801 H 0.95779 0.2551 0.45336 0.0
H802 H 0.01917 0.13624 0.47 0.0
H803 H 0.99689 0.1742 0.4473 0.0
C804 C 0.26606 0.71223 0.21214 0.0
C805 C 0.2906 0.69911 0.21698 0.0
C806 C 0.23961 0.69834 0.19442 0.0
C807 C 0.19285 0.6264 0.16658 0.0
H808 H 0.16254 0.6739 0.10617 0.0
C809 C 0.06839 0.59303 0.11003 0.0
C810 C 0.06553 0.59844 0.0794 0.0
C811 C 0.09745 0.60233 0.12545 0.0
C812 C 0.17089 0.66028 0.12274 0.0
H813 H 0.3068 0.66115 0.2076 0.0
H814 H 0.25993 0.63621 0.17705 0.0
H815 H 0.21019 0.69641 0.13618 0.0
H816 H 0.09081 0.61703 0.04067 0.0
H817 H 0.14162 0.63385 0.06776 0.0
H818 H 0.15306 0.59042 0.15349 0.0
C819 C 0.26129 0.65734 0.18688 0.0
C820 C 0.19797 0.67323 0.14008 0.0
C821 C 0.28798 0.67149 0.20433 0.0
C822 C 0.09236 0.61267 0.06431 0.0
C823 C 0.12137 0.62233 0.07979 0.0
C824 C 0.16547 0.61353 0.14946 0.0
C825 C 0.23701 0.67082 0.18151 0.0
C826 C 0.20907 0.65651 0.16232 0.0
C827 C 0.12412 0.61761 0.11058 0.0
C828 C 0.15415 0.63042 0.1275 0.0
H829 H 0.26741 0.73327 0.22213 0.0
H830 H 0.22103 0.709 0.19101 0.0
H831 H 0.20087 0.61307 0.18366 0.0
H832 H 0.04806 0.58245 0.12228 0.0
H833 H 0.09882 0.59868 0.14922 0.0
C834 C 0.19872 0.3941 0.72232 0.0
C835 C 0.17183 0.40408 0.71891 0.0
C836 C 0.22396 0.40568 0.70425 0.0
C837 C 0.26433 0.47373 0.66626 0.0
H838 H 0.30206 0.42537 0.62131 0.0
C839 C 0.37051 0.52883 0.5952 0.0
C840 C 0.39197 0.51282 0.59015 0.0
C841 C 0.34262 0.51515 0.60908 0.0
C842 C 0.29243 0.43941 0.63413 0.0
H843 H 0.15024 0.43397 0.69414 0.0
H844 H 0.19472 0.45498 0.66302 0.0
H845 H 0.25614 0.40177 0.64884 0.0
H846 H 0.40108 0.46991 0.59654 0.0
H847 H 0.35391 0.44666 0.62192 0.0
H848 H 0.30119 0.51121 0.65327 0.0
C849 C 0.19604 0.43773 0.67923 0.0
C850 C 0.26576 0.42571 0.64973 0.0
C851 C 0.17051 0.42557 0.69678 0.0
C852 C 0.38492 0.48287 0.59961 0.0
C853 C 0.35747 0.46939 0.6141 0.0
C854 C 0.29146 0.4874 0.6513 0.0
C855 C 0.22324 0.42818 0.68298 0.0
C856 C 0.25132 0.4427 0.66591 0.0
C857 C 0.33562 0.48517 0.61907 0.0
C858 C 0.30612 0.47054 0.63486 0.0
H859 H 0.20074 0.37834 0.73986 0.0
H860 H 0.24468 0.39807 0.70787 0.0
H861 H 0.25395 0.48742 0.67881 0.0
H862 H 0.3751 0.55193 0.58815 0.0
H863 H 0.32651 0.52823 0.61169 0.0
C864 C 0.70265 0.80673 0.9206 0.0
C865 C 0.68617 0.79858 0.89335 0.0
C866 C 0.72361 0.79153 0.9322 0.0
C867 C 0.74486 0.72114 0.92584 0.0
H868 H 0.82333 0.76555 0.9644 0.0
C869 C 0.84883 0.6725 0.9495 0.0
C870 C 0.86584 0.67866 0.97685 0.0
C871 C 0.82552 0.68619 0.9413 0.0
C872 C 0.80133 0.75281 0.95406 0.0
H873 H 0.67916 0.76915 0.85628 0.0
H874 H 0.71642 0.74268 0.87612 0.0
H875 H 0.78577 0.79166 0.94546 0.0
H876 H 0.87151 0.70359 1.01729 0.0
H877 H 0.83055 0.72771 1.00288 0.0
H878 H 0.76082 0.68239 0.93391 0.0
C879 C 0.71253 0.76025 0.88902 0.0
C880 C 0.77979 0.76774 0.94319 0.0
C881 C 0.69142 0.77541 0.87753 0.0
C882 C 0.85868 0.69841 0.99612 0.0
C883 C 0.83546 0.71234 0.98778 0.0
C884 C 0.76647 0.70625 0.93656 0.0
C885 C 0.72881 0.76808 0.91656 0.0
C886 C 0.75139 0.75211 0.92876 0.0
C887 C 0.81877 0.70645 0.96021 0.0
C888 C 0.79502 0.72196 0.95058 0.0
H889 H 0.69949 0.8251 0.93276 0.0
H890 H 0.73558 0.79804 0.95352 0.0
H891 H 0.72297 0.70835 0.91536 0.0
H892 H 0.85362 0.6571 0.93436 0.0
H893 H 0.81327 0.68141 0.91981 0.0
C894 C 0.41114 0.78273 0.24421 0.0
C895 C 0.3819 0.77776 0.25621 0.0
C896 C 0.42862 0.81173 0.23694 0.0
C897 C 0.41248 0.88108 0.21164 0.0
H898 H 0.50236 0.91431 0.21547 0.0
C899 C 0.46989 0.99713 0.16082 0.0
C900 C 0.49815 1.0011 0.14716 0.0
C901 C 0.45719 0.97121 0.17744 0.0
C902 C 0.47721 0.90524 0.21389 0.0
H903 H 0.34895 0.79876 0.27218 0.0
H904 H 0.37962 0.84951 0.26029 0.0
H905 H 0.47917 0.86704 0.24083 0.0
H906 H 0.53512 0.98101 0.13981 0.0
H907 H 0.51262 0.93545 0.16786 0.0
H908 H 0.41026 0.91831 0.18383 0.0
C909 C 0.38903 0.83118 0.25608 0.0
C910 C 0.46396 0.87821 0.22862 0.0
C911 C 0.37171 0.80226 0.26337 0.0
C912 C 0.51337 0.97861 0.15027 0.0
C913 C 0.50056 0.95257 0.1666 0.0
C914 C 0.42569 0.90786 0.19669 0.0
C915 C 0.41692 0.83613 0.24142 0.0
C916 C 0.43141 0.86578 0.22761 0.0
C917 C 0.47228 0.94847 0.1805 0.0
C918 C 0.45827 0.92033 0.19744 0.0
H919 H 0.41899 0.76403 0.23793 0.0
H920 H 0.44995 0.81476 0.22559 0.0
H921 H 0.38735 0.87182 0.20982 0.0
H922 H 0.4577 1.01417 0.15889 0.0
H923 H 0.43566 0.96919 0.18811 0.0
C924 C 0.08948 0.33856 0.70532 0.0
C925 C 0.11817 0.34645 0.72187 0.0
C926 C 0.08068 0.31282 0.68808 0.0
C927 C 0.09774 0.23954 0.67951 0.0
H928 H 0.04611 0.23696 0.60701 0.0
C929 C 0.05736 0.13364 0.60505 0.0
C930 C 0.02615 0.12617 0.59367 0.0
C931 C 0.07089 0.16102 0.61926 0.0
C932 C 0.06032 0.2371 0.62732 0.0
H933 H 0.15991 0.33309 0.73365 0.0
H934 H 0.14534 0.28872 0.70282 0.0
H935 H 0.06544 0.2834 0.63369 0.0
H936 H 0.985 0.142 0.58791 0.0
H937 H 0.00829 0.18926 0.61228 0.0
H938 H 0.09249 0.19309 0.67298 0.0
C939 C 0.12934 0.30228 0.70321 0.0
C940 C 0.07144 0.2639 0.64278 0.0
C941 C 0.13807 0.32808 0.72051 0.0
C942 C 0.0091 0.14695 0.59637 0.0
C943 C 0.02259 0.17427 0.61026 0.0
C944 C 0.08671 0.21271 0.66394 0.0
C945 C 0.10031 0.29399 0.68687 0.0
C946 C 0.09001 0.26558 0.6694 0.0
C947 C 0.05365 0.18179 0.62213 0.0
C948 C 0.06742 0.21092 0.63779 0.0
H949 H 0.0735 0.35209 0.70631 0.0
H950 H 0.05794 0.30724 0.67643 0.0
H951 H 0.11159 0.23954 0.70002 0.0
H952 H 0.07119 0.11817 0.60335 0.0
H953 H 0.09493 0.166 0.62782 0.0
C954 C 0.81333 0.40146 0.45067 0.0
C955 C 0.81619 0.3738 0.46125 0.0
C956 C 0.79287 0.41468 0.4633 0.0
C957 C 0.72111 0.39157 0.50479 0.0
H958 H 0.7287 0.47615 0.50243 0.0
C959 C 0.62304 0.43832 0.54066 0.0
C960 C 0.61371 0.45731 0.51959 0.0
C961 C 0.65079 0.43068 0.53802 0.0
C962 C 0.72635 0.45248 0.50324 0.0
H963 H 0.80173 0.33919 0.49454 0.0
H964 H 0.76759 0.36302 0.51796 0.0
H965 H 0.77352 0.45875 0.49168 0.0
H966 H 0.6266 0.48418 0.47995 0.0
H967 H 0.67528 0.47089 0.47538 0.0
H968 H 0.67396 0.38535 0.51623 0.0
C969 C 0.78018 0.37413 0.4992 0.0
C970 C 0.75195 0.44247 0.497 0.0
C971 C 0.80021 0.3607 0.48619 0.0
C972 C 0.63313 0.46927 0.49634 0.0
C973 C 0.66109 0.46191 0.4939 0.0
C974 C 0.69575 0.4016 0.51138 0.0
C975 C 0.77519 0.40064 0.48712 0.0
C976 C 0.74947 0.41182 0.49715 0.0
C977 C 0.66993 0.44218 0.51446 0.0
C978 C 0.69792 0.43209 0.51016 0.0
H979 H 0.82558 0.41194 0.43149 0.0
H980 H 0.7896 0.43495 0.45318 0.0
H981 H 0.71792 0.36779 0.50448 0.0
H982 H 0.60841 0.42868 0.55872 0.0
H983 H 0.65715 0.41552 0.55424 0.0
loop_
_geom_bond_atom_site_label_1
_geom_bond_atom_site_label_2
_geom_bond_distance
_geom_bond_site_symmetry_2
_ccdc_geom_bond_type
C0 N1 1.317 . S
C0 N2 1.348 . S
C0 C3 1.485 . S
N1 C0 1.317 . S
N1 N5 1.370 . S
N2 C0 1.348 . S
N2 C4 1.346 . S
C3 C0 1.485 . S
C3 H7 0.960 . S
C3 H8 0.961 . S
C3 H9 0.960 . S
C4 N2 1.346 . S
C4 N5 1.307 . S
C4 C6 1.486 . S
N5 N1 1.370 . S
N5 C4 1.307 . S
C6 C4 1.486 . S
C6 H10 0.960 . S
C6 H11 0.960 . S
C6 H12 0.959 . S
H7 C3 0.960 . S
H8 C3 0.961 . S
H9 C3 0.960 . S
H10 C6 0.960 . S
H11 C6 0.960 . S
H12 C6 0.959 . S
C13 N14 1.317 . S
C13 N15 1.348 . S
C13 C16 1.485 . S
N14 C13 1.317 . S
N14 N18 1.370 . S
N15 C13 1.348 . S
N15 C17 1.346 . S
C16 C13 1.485 . S
C16 H20 0.960 . S
C16 H21 0.961 . S
C16 H22 0.960 . S
C17 N15 1.346 . S
C17 N18 1.307 . S
C17 C19 1.486 . S
N18 N14 1.370 . S
N18 C17 1.307 . S
C19 C17 1.486 . S
C19 H23 0.960 . S
C19 H24 0.960 . S
C19 H25 0.959 . S
H20 C16 0.960 . S
H21 C16 0.961 . S
H22 C16 0.960 . S
H23 C19 0.960 . S
H24 C19 0.960 . S
H25 C19 0.959 . S
C26 N27 1.317 . S
C26 N28 1.348 . S
C26 C29 1.485 . S
N27 C26 1.317 . S
N27 N31 1.370 . S
N28 C26 1.348 . S
N28 C30 1.346 . S
C29 C26 1.485 . S
C29 H33 0.960 . S
C29 H34 0.961 . S
C29 H35 0.960 . S
C30 N28 1.346 . S
C30 N31 1.307 . S
C30 C32 1.486 . S
N31 N27 1.370 . S
N31 C30 1.307 . S
C32 C30 1.486 . S
C32 H36 0.960 . S
C32 H37 0.960 . S
C32 H38 0.959 . S
H33 C29 0.960 . S
H34 C29 0.961 . S
H35 C29 0.960 . S
H36 C32 0.960 . S
H37 C32 0.960 . S
H38 C32 0.959 . S
C39 N40 1.317 . S
C39 N41 1.348 . S
C39 C42 1.485 . S
N40 C39 1.317 . S
N40 N44 1.370 . S
N41 C39 1.348 . S
N41 C43 1.346 . S
C42 C39 1.485 . S
C42 H46 0.960 . S
C42 H47 0.961 . S
C42 H48 0.960 . S
C43 N41 1.346 . S
C43 N44 1.307 . S
C43 C45 1.486 . S
N44 N40 1.370 . S
N44 C43 1.307 . S
C45 C43 1.486 . S
C45 H49 0.960 . S
C45 H50 0.960 . S
C45 H51 0.959 . S
H46 C42 0.960 . S
H47 C42 0.961 . S
H48 C42 0.960 . S
H49 C45 0.960 . S
H50 C45 0.960 . S
H51 C45 0.959 . S
C52 N53 1.317 . S
C52 N54 1.348 . S
C52 C55 1.485 . S
N53 C52 1.317 . S
N53 N57 1.370 . S
N54 C52 1.348 . S
N54 C56 1.346 . S
C55 C52 1.485 . S
C55 H59 0.960 . S
C55 H60 0.961 . S
C55 H61 0.960 . S
C56 N54 1.346 . S
C56 N57 1.307 . S
C56 C58 1.486 . S
N57 N53 1.370 . S
N57 C56 1.307 . S
C58 C56 1.486 . S
C58 H62 0.960 . S
C58 H63 0.960 . S
C58 H64 0.959 . S
H59 C55 0.960 . S
H60 C55 0.961 . S
H61 C55 0.960 . S
H62 C58 0.960 . S
H63 C58 0.960 . S
H64 C58 0.959 . S
C65 N66 1.317 . S
C65 N67 1.348 . S
C65 C68 1.485 . S
N66 C65 1.317 . S
N66 N70 1.370 . S
N67 C65 1.348 . S
N67 C69 1.346 . S
C68 C65 1.485 . S
C68 H72 0.960 . S
C68 H73 0.961 . S
C68 H74 0.960 . S
C69 N67 1.346 . S
C69 N70 1.307 . S
C69 C71 1.486 . S
N70 N66 1.370 . S
N70 C69 1.307 . S
C71 C69 1.486 . S
C71 H75 0.960 . S
C71 H76 0.960 . S
C71 H77 0.959 . S
H72 C68 0.960 . S
H73 C68 0.961 . S
H74 C68 0.960 . S
H75 C71 0.960 . S
H76 C71 0.960 . S
H77 C71 0.959 . S
C78 N79 1.317 . S
C78 N80 1.348 . S
C78 C81 1.485 . S
N79 C78 1.317 . S
N79 N83 1.370 . S
N80 C78 1.348 . S
N80 C82 1.346 . S
C81 C78 1.485 . S
C81 H85 0.960 . S
C81 H86 0.961 . S
C81 H87 0.960 . S
C82 N80 1.346 . S
C82 N83 1.307 . S
C82 C84 1.486 . S
N83 N79 1.370 . S
N83 C82 1.307 . S
C84 C82 1.486 . S
C84 H88 0.960 . S
C84 H89 0.960 . S
C84 H90 0.959 . S
H85 C81 0.960 . S
H86 C81 0.961 . S
H87 C81 0.960 . S
H88 C84 0.960 . S
H89 C84 0.960 . S
H90 C84 0.959 . S
C91 N92 1.317 . S
C91 N93 1.348 . S
C91 C94 1.485 . S
N92 C91 1.317 . S
N92 N96 1.370 . S
N93 C91 1.348 . S
N93 C95 1.346 . S
C94 C91 1.485 . S
C94 H98 0.960 . S
C94 H99 0.961 . S
C94 H100 0.960 . S
C95 N93 1.346 . S
C95 N96 1.307 . S
C95 C97 1.486 . S
N96 N92 1.370 . S
N96 C95 1.307 . S
C97 C95 1.486 . S
C97 H101 0.960 . S
C97 H102 0.960 . S
C97 H103 0.959 . S
H98 C94 0.960 . S
H99 C94 0.961 . S
H100 C94 0.960 . S
H101 C97 0.960 . S
H102 C97 0.960 . S
H103 C97 0.959 . S
Tb104 C106 2.809 1_545 S
Tb104 O124 2.484 1_545 S
Tb104 O125 2.440 1_545 S
Tb104 O126 2.658 1_655 S
Tb104 O127 2.409 1_655 S
Tb104 O128 2.378 1_645 S
Tb104 O132 2.325 1_645 S
Tb104 O135 2.341 . S
Tb105 C115 2.809 . S
Tb105 O126 2.325 . S
Tb105 O129 2.341 1_545 S
Tb105 O130 2.484 . S
Tb105 O131 2.440 . S
Tb105 O132 2.658 1_545 S
Tb105 O133 2.409 1_545 S
Tb105 O134 2.378 . S
C106 Tb104 2.809 1_565 S
C106 C107 1.514 . S
C106 O124 1.248 . S
C106 O125 1.266 . S
C107 C106 1.514 . S
C107 C108 1.359 . S
C107 C112 1.348 . S
C108 C107 1.359 . S
C108 C109 1.380 . S
C108 H136 0.929 . S
C109 C108 1.380 . S
C109 C110 1.347 . S
C109 H137 0.931 . S
C110 C109 1.347 . S
C110 C111 1.369 . S
C111 C110 1.369 . S
C111 C112 1.408 . S
C111 H138 0.930 . S
C112 C107 1.348 . S
C112 C111 1.408 . S
C112 H139 0.930 . S
C113 O126 1.281 . S
C113 O127 1.254 . S
C114 O128 1.236 . S
C114 O129 1.266 . S
C115 Tb105 2.809 . S
C115 C116 1.514 . S
C115 O130 1.248 . S
C115 O131 1.266 . S
C116 C115 1.514 . S
C116 C117 1.359 . S
C116 C121 1.348 . S
C117 C116 1.359 . S
C117 C118 1.380 . S
C117 H140 0.929 . S
C118 C117 1.380 . S
C118 C119 1.347 . S
C118 H141 0.931 . S
C119 C118 1.347 . S
C119 C120 1.369 . S
C120 C119 1.369 . S
C120 C121 1.408 . S
C120 H142 0.930 . S
C121 C116 1.348 . S
C121 C120 1.408 . S
C121 H143 0.930 . S
C122 O132 1.281 . S
C122 O133 1.254 . S
C123 O134 1.236 . S
C123 O135 1.266 1_455 S
O124 Tb104 2.484 1_565 S
O124 C106 1.248 . S
O125 Tb104 2.440 1_565 S
O125 C106 1.266 . S
O126 Tb104 2.658 1_455 S
O126 Tb105 2.325 . S
O126 C113 1.281 . S
O127 Tb104 2.409 1_455 S
O127 C113 1.254 . S
O128 Tb104 2.378 1_465 S
O128 C114 1.236 . S
O129 Tb105 2.341 1_565 S
O129 C114 1.266 . S
O130 Tb105 2.484 . S
O130 C115 1.248 . S
O131 Tb105 2.440 . S
O131 C115 1.266 . S
O132 Tb104 2.325 1_465 S
O132 Tb105 2.658 1_565 S
O132 C122 1.281 . S
O133 Tb105 2.409 1_565 S
O133 C122 1.254 . S
O134 Tb105 2.378 . S
O134 C123 1.236 . S
O135 Tb104 2.341 . S
O135 C123 1.266 1_655 S
H136 C108 0.929 . S
H137 C109 0.931 . S
H138 C111 0.930 . S
H139 C112 0.930 . S
H140 C117 0.929 . S
H141 C118 0.931 . S
H142 C120 0.930 . S
H143 C121 0.930 . S
Tb144 C146 2.809 . S
Tb144 O164 2.484 . S
Tb144 O165 2.440 . S
Tb144 O166 2.658 1_545 S
Tb144 O167 2.409 1_545 S
Tb144 O168 2.378 . S
Tb144 O172 2.325 . S
Tb144 O175 2.341 . S
Tb145 C155 2.809 1_544 S
Tb145 O166 2.325 1_545 S
Tb145 O169 2.341 . S
Tb145 O170 2.484 1_545 S
Tb145 O171 2.440 1_554 S
Tb145 O172 2.658 . S
Tb145 O173 2.409 . S
Tb145 O174 2.378 . S
C146 Tb144 2.809 . S
C146 C147 1.514 . S
C146 O164 1.248 . S
C146 O165 1.266 . S
C147 C146 1.514 . S
C147 C148 1.359 . S
C147 C152 1.348 . S
C148 C147 1.359 . S
C148 C149 1.380 . S
C148 H176 0.929 . S
C149 C148 1.380 . S
C149 C150 1.347 . S
C149 H177 0.931 . S
C150 C149 1.347 . S
C150 C151 1.369 . S
C151 C150 1.369 . S
C151 C152 1.408 . S
C151 H178 0.930 . S
C152 C147 1.348 . S
C152 C151 1.408 . S
C152 H179 0.930 . S
C153 O166 1.281 . S
C153 O167 1.254 . S
C154 O168 1.236 . S
C154 O169 1.266 . S
C155 Tb145 2.809 1_566 S
C155 C156 1.514 . S
C155 O170 1.248 1_556 S
C155 O171 1.266 1_565 S
C156 C155 1.514 . S
C156 C157 1.359 . S
C156 C161 1.348 . S
C157 C156 1.359 . S
C157 C158 1.380 . S
C157 H180 0.929 . S
C158 C157 1.380 . S
C158 C159 1.347 . S
C158 H181 0.931 . S
C159 C158 1.347 . S
C159 C160 1.369 . S
C160 C159 1.369 . S
C160 C161 1.408 . S
C160 H182 0.930 . S
C161 C156 1.348 . S
C161 C160 1.408 . S
C161 H183 0.930 . S
C162 O172 1.281 . S
C162 O173 1.254 . S
C163 O174 1.236 1_565 S
C163 O175 1.266 1_565 S
O164 Tb144 2.484 . S
O164 C146 1.248 . S
O165 Tb144 2.440 . S
O165 C146 1.266 . S
O166 Tb144 2.658 1_565 S
O166 Tb145 2.325 1_565 S
O166 C153 1.281 . S
O167 Tb144 2.409 1_565 S
O167 C153 1.254 . S
O168 Tb144 2.378 . S
O168 C154 1.236 . S
O169 Tb145 2.341 . S
O169 C154 1.266 . S
O170 Tb145 2.484 1_565 S
O170 C155 1.248 1_554 S
O171 Tb145 2.440 1_556 S
O171 C155 1.266 1_545 S
O172 Tb144 2.325 . S
O172 Tb145 2.658 . S
O172 C162 1.281 . S
O173 Tb145 2.409 . S
O173 C162 1.254 . S
O174 Tb145 2.378 . S
O174 C163 1.236 1_545 S
O175 Tb144 2.341 . S
O175 C163 1.266 1_545 S
H176 C148 0.929 . S
H177 C149 0.931 . S
H178 C151 0.930 . S
H179 C152 0.930 . S
H180 C157 0.929 . S
H181 C158 0.931 . S
H182 C160 0.930 . S
H183 C161 0.930 . S
Tb184 C186 2.809 . S
Tb184 O204 2.484 . S
Tb184 O205 2.440 . S
Tb184 O206 2.658 . S
Tb184 O207 2.409 . S
Tb184 O208 2.378 . S
Tb184 O212 2.325 . S
Tb184 O215 2.341 . S
Tb185 C195 2.809 . S
Tb185 O206 2.325 . S
Tb185 O209 2.341 . S
Tb185 O210 2.484 . S
Tb185 O211 2.440 . S
Tb185 O212 2.658 . S
Tb185 O213 2.409 . S
Tb185 O214 2.378 . S
C186 Tb184 2.809 . S
C186 C187 1.514 . S
C186 O204 1.248 . S
C186 O205 1.266 . S
C187 C186 1.514 . S
C187 C188 1.359 . S
C187 C192 1.348 . S
C188 C187 1.359 . S
C188 C189 1.380 . S
C188 H216 0.929 . S
C189 C188 1.380 . S
C189 C190 1.347 . S
C189 H217 0.931 . S
C190 C189 1.347 . S
C190 C191 1.369 . S
C191 C190 1.369 . S
C191 C192 1.408 . S
C191 H218 0.930 . S
C192 C187 1.348 . S
C192 C191 1.408 . S
C192 H219 0.930 . S
C193 O206 1.281 . S
C193 O207 1.254 . S
C194 O208 1.236 . S
C194 O209 1.266 . S
C195 Tb185 2.809 . S
C195 C196 1.514 . S
C195 O210 1.248 . S
C195 O211 1.266 . S
C196 C195 1.514 . S
C196 C197 1.359 . S
C196 C201 1.348 . S
C197 C196 1.359 . S
C197 C198 1.380 . S
C197 H220 0.929 . S
C198 C197 1.380 . S
C198 C199 1.347 . S
C198 H221 0.931 . S
C199 C198 1.347 . S
C199 C200 1.369 . S
C200 C199 1.369 . S
C200 C201 1.408 . S
C200 H222 0.930 . S
C201 C196 1.348 . S
C201 C200 1.408 . S
C201 H223 0.930 . S
C202 O212 1.281 . S
C202 O213 1.254 . S
C203 O214 1.236 . S
C203 O215 1.266 . S
O204 Tb184 2.484 . S
O204 C186 1.248 . S
O205 Tb184 2.440 . S
O205 C186 1.266 . S
O206 Tb184 2.658 . S
O206 Tb185 2.325 . S
O206 C193 1.281 . S
O207 Tb184 2.409 . S
O207 C193 1.254 . S
O208 Tb184 2.378 . S
O208 C194 1.236 . S
O209 Tb185 2.341 . S
O209 C194 1.266 . S
O210 Tb185 2.484 . S
O210 C195 1.248 . S
O211 Tb185 2.440 . S
O211 C195 1.266 . S
O212 Tb184 2.325 . S
O212 Tb185 2.658 . S
O212 C202 1.281 . S
O213 Tb185 2.409 . S
O213 C202 1.254 . S
O214 Tb185 2.378 . S
O214 C203 1.236 . S
O215 Tb184 2.341 . S
O215 C203 1.266 . S
H216 C188 0.929 . S
H217 C189 0.931 . S
H218 C191 0.930 . S
H219 C192 0.930 . S
H220 C197 0.929 . S
H221 C198 0.931 . S
H222 C200 0.930 . S
H223 C201 0.930 . S
Tb224 C226 2.834 . S
Tb224 O244 2.516 . S
Tb224 O245 2.454 . S
Tb224 O246 2.639 1_656 S
Tb224 O247 2.388 1_656 S
Tb224 O248 2.393 1_556 S
Tb224 O252 2.337 . S
Tb224 O255 2.318 1_655 S
Tb225 C235 2.809 . S
Tb225 O246 2.325 . S
Tb225 O249 2.341 1_455 S
Tb225 O250 2.484 . S
Tb225 O251 2.440 . S
Tb225 O252 2.658 1_454 S
Tb225 O253 2.409 1_455 S
Tb225 O254 2.378 1_554 S
C226 Tb224 2.834 . S
C226 C227 1.514 . S
C226 O244 1.248 . S
C226 O245 1.266 . S
C227 C226 1.514 . S
C227 C228 1.359 . S
C227 C232 1.348 . S
C228 C227 1.359 . S
C228 C229 1.380 . S
C228 H256 0.929 . S
C229 C228 1.380 . S
C229 C230 1.347 . S
C229 H257 0.931 . S
C230 C229 1.347 . S
C230 C231 1.369 . S
C231 C230 1.369 . S
C231 C232 1.408 . S
C231 H258 0.930 . S
C232 C227 1.348 . S
C232 C231 1.408 . S
C232 H259 0.930 . S
C233 O246 1.281 . S
C233 O247 1.254 . S
C234 O248 1.236 . S
C234 O249 1.266 . S
C235 Tb225 2.809 . S
C235 C236 1.514 . S
C235 O250 1.248 . S
C235 O251 1.266 . S
C236 C235 1.514 . S
C236 C237 1.359 . S
C236 C241 1.348 . S
C237 C236 1.359 . S
C237 C238 1.380 . S
C237 H260 0.929 . S
C238 C237 1.380 . S
C238 C239 1.347 . S
C238 H261 0.931 . S
C239 C238 1.347 . S
C239 C240 1.369 . S
C240 C239 1.369 . S
C240 C241 1.408 . S
C240 H262 0.930 . S
C241 C236 1.348 . S
C241 C240 1.408 . S
C241 H263 0.930 . S
C242 O252 1.281 . S
C242 O253 1.254 1_556 S
C243 O254 1.236 . S
C243 O255 1.266 . S
O244 Tb224 2.516 . S
O244 C226 1.248 . S
O245 Tb224 2.454 . S
O245 C226 1.266 . S
O246 Tb224 2.639 1_454 S
O246 Tb225 2.325 . S
O246 C233 1.281 . S
O247 Tb224 2.388 1_454 S
O247 C233 1.254 . S
O248 Tb224 2.393 1_554 S
O248 C234 1.236 . S
O249 Tb225 2.341 1_655 S
O249 C234 1.266 . S
O250 Tb225 2.484 . S
O250 C235 1.248 . S
O251 Tb225 2.440 . S
O251 C235 1.266 . S
O252 Tb224 2.337 . S
O252 Tb225 2.658 1_656 S
O252 C242 1.281 . S
O253 Tb225 2.409 1_655 S
O253 C242 1.254 1_554 S
O254 Tb225 2.378 1_556 S
O254 C243 1.236 . S
O255 Tb224 2.318 1_455 S
O255 C243 1.266 . S
H256 C228 0.929 . S
H257 C229 0.931 . S
H258 C231 0.930 . S
H259 C232 0.930 . S
H260 C237 0.929 . S
H261 C238 0.931 . S
H262 C240 0.930 . S
H263 C241 0.930 . S
C264 C265 1.349 . S
C264 C266 1.327 . S
C264 H289 0.950 . S
C265 C264 1.349 . S
C265 C281 1.349 . S
C266 C264 1.327 . S
C266 C285 1.429 . S
C266 H290 0.950 . S
C267 C284 1.574 . S
C267 C286 1.368 . S
C267 H291 0.949 . S
H268 C272 0.949 . S
C269 C270 1.349 . S
C269 C271 1.327 . S
C269 H292 0.950 . S
C270 C269 1.349 . S
C270 C282 1.349 . S
C271 C269 1.327 . S
C271 C287 1.429 . S
C271 H293 0.950 . S
C272 H268 0.949 . S
C272 C280 1.574 . S
C272 C288 1.368 . S
H273 C281 0.950 . S
H274 C279 0.950 . S
H275 C280 0.949 . S
H276 C282 0.950 . S
H277 C283 0.950 . S
H278 C284 0.949 . S
C279 H274 0.950 . S
C279 C281 1.327 . S
C279 C285 1.429 . S
C280 C272 1.574 . S
C280 H275 0.949 . S
C280 C286 1.368 . S
C281 C265 1.349 . S
C281 H273 0.950 . S
C281 C279 1.327 . S
C282 C270 1.349 . S
C282 H276 0.950 . S
C282 C283 1.327 . S
C283 H277 0.950 . S
C283 C282 1.327 . S
C283 C287 1.429 . S
C284 C267 1.574 . S
C284 H278 0.949 . S
C284 C288 1.368 . S
C285 C266 1.429 . S
C285 C279 1.429 . S
C285 C286 1.523 . S
C286 C267 1.368 . S
C286 C280 1.368 . S
C286 C285 1.523 . S
C287 C271 1.429 . S
C287 C283 1.429 . S
C287 C288 1.523 . S
C288 C272 1.368 . S
C288 C284 1.368 . S
C288 C287 1.523 . S
H289 C264 0.950 . S
H290 C266 0.950 . S
H291 C267 0.949 . S
H292 C269 0.950 . S
H293 C271 0.950 . S
C294 C295 1.349 . S
C294 C296 1.327 . S
C294 H319 0.950 . S
C295 C294 1.349 . S
C295 C311 1.349 . S
C296 C294 1.327 . S
C296 C315 1.429 . S
C296 H320 0.950 . S
C297 C314 1.574 . S
C297 C316 1.368 . S
C297 H321 0.949 . S
H298 C302 0.949 . S
C299 C300 1.349 . S
C299 C301 1.327 . S
C299 H322 0.950 . S
C300 C299 1.349 . S
C300 C312 1.349 . S
C301 C299 1.327 . S
C301 C317 1.429 . S
C301 H323 0.950 . S
C302 H298 0.949 . S
C302 C310 1.574 . S
C302 C318 1.368 . S
H303 C311 0.950 . S
H304 C309 0.950 . S
H305 C310 0.949 . S
H306 C312 0.950 . S
H307 C313 0.950 . S
H308 C314 0.949 . S
C309 H304 0.950 . S
C309 C311 1.327 . S
C309 C315 1.429 . S
C310 C302 1.574 . S
C310 H305 0.949 . S
C310 C316 1.368 . S
C311 C295 1.349 . S
C311 H303 0.950 . S
C311 C309 1.327 . S
C312 C300 1.349 . S
C312 H306 0.950 . S
C312 C313 1.327 . S
C313 H307 0.950 . S
C313 C312 1.327 . S
C313 C317 1.429 . S
C314 C297 1.574 . S
C314 H308 0.949 . S
C314 C318 1.368 . S
C315 C296 1.429 . S
C315 C309 1.429 . S
C315 C316 1.523 . S
C316 C297 1.368 . S
C316 C310 1.368 . S
C316 C315 1.523 . S
C317 C301 1.429 . S
C317 C313 1.429 . S
C317 C318 1.523 . S
C318 C302 1.368 . S
C318 C314 1.368 . S
C318 C317 1.523 . S
H319 C294 0.950 . S
H320 C296 0.950 . S
H321 C297 0.949 . S
H322 C299 0.950 . S
H323 C301 0.950 . S
C324 C325 1.349 . S
C324 C326 1.327 . S
C324 H349 0.950 . S
C325 C324 1.349 . S
C325 C341 1.349 . S
C326 C324 1.327 . S
C326 C345 1.429 . S
C326 H350 0.950 . S
C327 C344 1.574 . S
C327 C346 1.368 . S
C327 H351 0.949 . S
H328 C332 0.949 . S
C329 C330 1.349 . S
C329 C331 1.327 . S
C329 H352 0.950 . S
C330 C329 1.349 . S
C330 C342 1.349 . S
C331 C329 1.327 . S
C331 C347 1.429 . S
C331 H353 0.950 . S
C332 H328 0.949 . S
C332 C340 1.574 . S
C332 C348 1.368 . S
H333 C341 0.950 . S
H334 C339 0.950 . S
H335 C340 0.949 . S
H336 C342 0.950 . S
H337 C343 0.950 . S
H338 C344 0.949 . S
C339 H334 0.950 . S
C339 C341 1.327 . S
C339 C345 1.429 . S
C340 C332 1.574 . S
C340 H335 0.949 . S
C340 C346 1.368 . S
C341 C325 1.349 . S
C341 H333 0.950 . S
C341 C339 1.327 . S
C342 C330 1.349 . S
C342 H336 0.950 . S
C342 C343 1.327 . S
C343 H337 0.950 . S
C343 C342 1.327 . S
C343 C347 1.429 . S
C344 C327 1.574 . S
C344 H338 0.949 . S
C344 C348 1.368 . S
C345 C326 1.429 . S
C345 C339 1.429 . S
C345 C346 1.523 . S
C346 C327 1.368 . S
C346 C340 1.368 . S
C346 C345 1.523 . S
C347 C331 1.429 . S
C347 C343 1.429 . S
C347 C348 1.523 . S
C348 C332 1.368 . S
C348 C344 1.368 . S
C348 C347 1.523 . S
H349 C324 0.950 . S
H350 C326 0.950 . S
H351 C327 0.949 . S
H352 C329 0.950 . S
H353 C331 0.950 . S
C354 C355 1.349 . S
C354 C356 1.327 . S
C354 H379 0.950 . S
C355 C354 1.349 . S
C355 C371 1.349 . S
C356 C354 1.327 . S
C356 C375 1.429 . S
C356 H380 0.950 . S
C357 C374 1.574 . S
C357 C376 1.368 . S
C357 H381 0.949 . S
H358 C362 0.949 . S
C359 C360 1.349 . S
C359 C361 1.327 . S
C359 H382 0.950 . S
C360 C359 1.349 . S
C360 C372 1.349 . S
C361 C359 1.327 . S
C361 C377 1.429 . S
C361 H383 0.950 . S
C362 H358 0.949 . S
C362 C370 1.574 . S
C362 C378 1.368 . S
H363 C371 0.950 . S
H364 C369 0.950 . S
H365 C370 0.949 . S
H366 C372 0.950 . S
H367 C373 0.950 . S
H368 C374 0.949 . S
C369 H364 0.950 . S
C369 C371 1.327 . S
C369 C375 1.429 . S
C370 C362 1.574 . S
C370 H365 0.949 . S
C370 C376 1.368 . S
C371 C355 1.349 . S
C371 H363 0.950 . S
C371 C369 1.327 . S
C372 C360 1.349 . S
C372 H366 0.950 . S
C372 C373 1.327 . S
C373 H367 0.950 . S
C373 C372 1.327 . S
C373 C377 1.429 . S
C374 C357 1.574 . S
C374 H368 0.949 . S
C374 C378 1.368 . S
C375 C356 1.429 . S
C375 C369 1.429 . S
C375 C376 1.523 . S
C376 C357 1.368 . S
C376 C370 1.368 . S
C376 C375 1.523 . S
C377 C361 1.429 . S
C377 C373 1.429 . S
C377 C378 1.523 . S
C378 C362 1.368 . S
C378 C374 1.368 . S
C378 C377 1.523 . S
H379 C354 0.950 . S
H380 C356 0.950 . S
H381 C357 0.949 . S
H382 C359 0.950 . S
H383 C361 0.950 . S
C384 C385 1.349 . S
C384 C386 1.327 . S
C384 H409 0.950 . S
C385 C384 1.349 . S
C385 C401 1.349 . S
C386 C384 1.327 . S
C386 C405 1.429 . S
C386 H410 0.950 . S
C387 C404 1.574 . S
C387 C406 1.368 . S
C387 H411 0.949 . S
H388 C392 0.949 . S
C389 C390 1.349 . S
C389 C391 1.327 . S
C389 H412 0.950 . S
C390 C389 1.349 . S
C390 C402 1.349 . S
C391 C389 1.327 . S
C391 C407 1.429 . S
C391 H413 0.950 . S
C392 H388 0.949 . S
C392 C400 1.574 . S
C392 C408 1.368 . S
H393 C401 0.950 . S
H394 C399 0.950 . S
H395 C400 0.949 . S
H396 C402 0.950 . S
H397 C403 0.950 . S
H398 C404 0.949 . S
C399 H394 0.950 . S
C399 C401 1.327 . S
C399 C405 1.429 . S
C400 C392 1.574 . S
C400 H395 0.949 . S
C400 C406 1.368 . S
C401 C385 1.349 . S
C401 H393 0.950 . S
C401 C399 1.327 . S
C402 C390 1.349 . S
C402 H396 0.950 . S
C402 C403 1.327 . S
C403 H397 0.950 . S
C403 C402 1.327 . S
C403 C407 1.429 . S
C404 C387 1.574 . S
C404 H398 0.949 . S
C404 C408 1.368 . S
C405 C386 1.429 . S
C405 C399 1.429 . S
C405 C406 1.523 . S
C406 C387 1.368 . S
C406 C400 1.368 . S
C406 C405 1.523 . S
C407 C391 1.429 . S
C407 C403 1.429 . S
C407 C408 1.523 . S
C408 C392 1.368 . S
C408 C404 1.368 . S
C408 C407 1.523 . S
H409 C384 0.950 . S
H410 C386 0.950 . S
H411 C387 0.949 . S
H412 C389 0.950 . S
H413 C391 0.950 . S
C414 C415 1.349 . S
C414 C416 1.327 . S
C414 H439 0.950 . S
C415 C414 1.349 . S
C415 C431 1.349 . S
C416 C414 1.327 . S
C416 C435 1.429 . S
C416 H440 0.950 . S
C417 C434 1.574 . S
C417 C436 1.368 . S
C417 H441 0.949 . S
H418 C422 0.949 . S
C419 C420 1.349 . S
C419 C421 1.327 . S
C419 H442 0.950 . S
C420 C419 1.349 . S
C420 C432 1.349 . S
C421 C419 1.327 . S
C421 C437 1.429 . S
C421 H443 0.950 . S
C422 H418 0.949 . S
C422 C430 1.574 . S
C422 C438 1.368 . S
H423 C431 0.950 . S
H424 C429 0.950 . S
H425 C430 0.949 . S
H426 C432 0.950 . S
H427 C433 0.950 . S
H428 C434 0.949 . S
C429 H424 0.950 . S
C429 C431 1.327 . S
C429 C435 1.429 . S
C430 C422 1.574 . S
C430 H425 0.949 . S
C430 C436 1.368 . S
C431 C415 1.349 . S
C431 H423 0.950 . S
C431 C429 1.327 . S
C432 C420 1.349 . S
C432 H426 0.950 . S
C432 C433 1.327 . S
C433 H427 0.950 . S
C433 C432 1.327 . S
C433 C437 1.429 . S
C434 C417 1.574 . S
C434 H428 0.949 . S
C434 C438 1.368 . S
C435 C416 1.429 . S
C435 C429 1.429 . S
C435 C436 1.523 . S
C436 C417 1.368 . S
C436 C430 1.368 . S
C436 C435 1.523 . S
C437 C421 1.429 . S
C437 C433 1.429 . S
C437 C438 1.523 . S
C438 C422 1.368 . S
C438 C434 1.368 . S
C438 C437 1.523 . S
H439 C414 0.950 . S
H440 C416 0.950 . S
H441 C417 0.949 . S
H442 C419 0.950 . S
H443 C421 0.950 . S
C444 C445 1.349 . S
C444 C446 1.327 . S
C444 H469 0.950 . S
C445 C444 1.349 . S
C445 C461 1.349 . S
C446 C444 1.327 . S
C446 C465 1.429 . S
C446 H470 0.950 . S
C447 C464 1.574 . S
C447 C466 1.368 . S
C447 H471 0.949 . S
H448 C452 0.949 . S
C449 C450 1.349 . S
C449 C451 1.327 . S
C449 H472 0.950 . S
C450 C449 1.349 . S
C450 C462 1.349 . S
C451 C449 1.327 . S
C451 C467 1.429 . S
C451 H473 0.950 . S
C452 H448 0.949 . S
C452 C460 1.574 . S
C452 C468 1.368 . S
H453 C461 0.950 . S
H454 C459 0.950 . S
H455 C460 0.949 . S
H456 C462 0.950 . S
H457 C463 0.950 . S
H458 C464 0.949 . S
C459 H454 0.950 . S
C459 C461 1.327 . S
C459 C465 1.429 . S
C460 C452 1.574 . S
C460 H455 0.949 . S
C460 C466 1.368 . S
C461 C445 1.349 . S
C461 H453 0.950 . S
C461 C459 1.327 . S
C462 C450 1.349 . S
C462 H456 0.950 . S
C462 C463 1.327 . S
C463 H457 0.950 . S
C463 C462 1.327 . S
C463 C467 1.429 . S
C464 C447 1.574 . S
C464 H458 0.949 . S
C464 C468 1.368 . S
C465 C446 1.429 . S
C465 C459 1.429 . S
C465 C466 1.523 . S
C466 C447 1.368 . S
C466 C460 1.368 . S
C466 C465 1.523 . S
C467 C451 1.429 . S
C467 C463 1.429 . S
C467 C468 1.523 . S
C468 C452 1.368 . S
C468 C464 1.368 . S
C468 C467 1.523 . S
H469 C444 0.950 . S
H470 C446 0.950 . S
H471 C447 0.949 . S
H472 C449 0.950 . S
H473 C451 0.950 . S
C474 C475 1.349 . S
C474 C476 1.327 . S
C474 H499 0.950 . S
C475 C474 1.349 . S
C475 C491 1.349 . S
C476 C474 1.327 . S
C476 C495 1.429 . S
C476 H500 0.950 . S
C477 C494 1.574 . S
C477 C496 1.368 . S
C477 H501 0.949 . S
H478 C482 0.949 . S
C479 C480 1.349 . S
C479 C481 1.327 . S
C479 H502 0.950 . S
C480 C479 1.349 . S
C480 C492 1.349 . S
C481 C479 1.327 . S
C481 C497 1.429 . S
C481 H503 0.950 . S
C482 H478 0.949 . S
C482 C490 1.574 . S
C482 C498 1.368 . S
H483 C491 0.950 . S
H484 C489 0.950 . S
H485 C490 0.949 . S
H486 C492 0.950 . S
H487 C493 0.950 . S
H488 C494 0.949 . S
C489 H484 0.950 . S
C489 C491 1.327 . S
C489 C495 1.429 . S
C490 C482 1.574 . S
C490 H485 0.949 . S
C490 C496 1.368 . S
C491 C475 1.349 . S
C491 H483 0.950 . S
C491 C489 1.327 . S
C492 C480 1.349 . S
C492 H486 0.950 . S
C492 C493 1.327 . S
C493 H487 0.950 . S
C493 C492 1.327 . S
C493 C497 1.429 . S
C494 C477 1.574 . S
C494 H488 0.949 . S
C494 C498 1.368 . S
C495 C476 1.429 . S
C495 C489 1.429 . S
C495 C496 1.523 . S
C496 C477 1.368 . S
C496 C490 1.368 . S
C496 C495 1.523 . S
C497 C481 1.429 . S
C497 C493 1.429 . S
C497 C498 1.523 . S
C498 C482 1.368 . S
C498 C494 1.368 . S
C498 C497 1.523 . S
H499 C474 0.950 . S
H500 C476 0.950 . S
H501 C477 0.949 . S
H502 C479 0.950 . S
H503 C481 0.950 . S
C504 C505 1.349 . S
C504 C506 1.327 . S
C504 H529 0.950 . S
C505 C504 1.349 . S
C505 C521 1.349 . S
C506 C504 1.327 . S
C506 C525 1.429 . S
C506 H530 0.950 . S
C507 C524 1.574 . S
C507 C526 1.368 . S
C507 H531 0.949 . S
H508 C512 0.949 . S
C509 C510 1.349 . S
C509 C511 1.327 . S
C509 H532 0.950 . S
C510 C509 1.349 . S
C510 C522 1.349 . S
C511 C509 1.327 . S
C511 C527 1.429 . S
C511 H533 0.950 . S
C512 H508 0.949 . S
C512 C520 1.574 . S
C512 C528 1.368 . S
H513 C521 0.950 . S
H514 C519 0.950 . S
H515 C520 0.949 . S
H516 C522 0.950 . S
H517 C523 0.950 . S
H518 C524 0.949 . S
C519 H514 0.950 . S
C519 C521 1.327 . S
C519 C525 1.429 . S
C520 C512 1.574 . S
C520 H515 0.949 . S
C520 C526 1.368 . S
C521 C505 1.349 . S
C521 H513 0.950 . S
C521 C519 1.327 . S
C522 C510 1.349 . S
C522 H516 0.950 . S
C522 C523 1.327 . S
C523 H517 0.950 . S
C523 C522 1.327 . S
C523 C527 1.429 . S
C524 C507 1.574 . S
C524 H518 0.949 . S
C524 C528 1.368 . S
C525 C506 1.429 . S
C525 C519 1.429 . S
C525 C526 1.523 . S
C526 C507 1.368 . S
C526 C520 1.368 . S
C526 C525 1.523 . S
C527 C511 1.429 . S
C527 C523 1.429 . S
C527 C528 1.523 . S
C528 C512 1.368 . S
C528 C524 1.368 . S
C528 C527 1.523 . S
H529 C504 0.950 . S
H530 C506 0.950 . S
H531 C507 0.949 . S
H532 C509 0.950 . S
H533 C511 0.950 . S
C534 C535 1.349 . S
C534 C536 1.327 . S
C534 H559 0.950 . S
C535 C534 1.349 . S
C535 C551 1.349 . S
C536 C534 1.327 . S
C536 C555 1.429 . S
C536 H560 0.950 . S
C537 C554 1.574 . S
C537 C556 1.368 . S
C537 H561 0.949 . S
H538 C542 0.949 . S
C539 C540 1.349 . S
C539 C541 1.327 . S
C539 H562 0.950 . S
C540 C539 1.349 . S
C540 C552 1.347 1_556 S
C541 C539 1.327 . S
C541 C557 1.429 . S
C541 H563 0.950 . S
C542 H538 0.949 . S
C542 C550 1.574 . S
C542 C558 1.368 . S
H543 C551 0.950 . S
H544 C549 0.950 . S
H545 C550 0.949 . S
H546 C552 0.956 . S
H547 C553 0.950 . S
H548 C554 0.949 . S
C549 H544 0.950 . S
C549 C551 1.327 . S
C549 C555 1.429 . S
C550 C542 1.574 . S
C550 H545 0.949 . S
C550 C556 1.368 . S
C551 C535 1.349 . S
C551 H543 0.950 . S
C551 C549 1.327 . S
C552 C540 1.347 1_554 S
C552 H546 0.956 . S
C552 C553 1.322 1_554 S
C553 H547 0.950 . S
C553 C552 1.322 1_556 S
C553 C557 1.429 . S
C554 C537 1.574 . S
C554 H548 0.949 . S
C554 C558 1.368 . S
C555 C536 1.429 . S
C555 C549 1.429 . S
C555 C556 1.523 . S
C556 C537 1.368 . S
C556 C550 1.368 . S
C556 C555 1.523 . S
C557 C541 1.429 . S
C557 C553 1.429 . S
C557 C558 1.523 . S
C558 C542 1.368 . S
C558 C554 1.368 . S
C558 C557 1.523 . S
H559 C534 0.950 . S
H560 C536 0.950 . S
H561 C537 0.949 . S
H562 C539 0.950 . S
H563 C541 0.950 . S
C564 C565 1.349 . S
C564 C566 1.327 . S
C564 H589 0.950 . S
C565 C564 1.349 . S
C565 C581 1.349 . S
C566 C564 1.327 . S
C566 C585 1.429 . S
C566 H590 0.950 . S
C567 C584 1.574 . S
C567 C586 1.368 . S
C567 H591 0.949 . S
H568 C572 0.949 . S
C569 C570 1.349 . S
C569 C571 1.327 . S
C569 H592 0.950 . S
C570 C569 1.349 . S
C570 C582 1.349 . S
C571 C569 1.327 . S
C571 C587 1.429 . S
C571 H593 0.950 . S
C572 H568 0.949 . S
C572 C580 1.574 . S
C572 C588 1.368 . S
H573 C581 0.950 . S
H574 C579 0.950 . S
H575 C580 0.949 . S
H576 C582 0.950 1_455 S
H577 C583 0.950 . S
H578 C584 0.949 . S
C579 H574 0.950 . S
C579 C581 1.327 . S
C579 C585 1.429 . S
C580 C572 1.574 . S
C580 H575 0.949 . S
C580 C586 1.368 . S
C581 C565 1.349 . S
C581 H573 0.950 . S
C581 C579 1.327 . S
C582 C570 1.349 . S
C582 H576 0.950 1_655 S
C582 C583 1.327 . S
C583 H577 0.950 . S
C583 C582 1.327 . S
C583 C587 1.429 . S
C584 C567 1.574 . S
C584 H578 0.949 . S
C584 C588 1.368 . S
C585 C566 1.429 . S
C585 C579 1.429 . S
C585 C586 1.523 . S
C586 C567 1.368 . S
C586 C580 1.368 . S
C586 C585 1.523 . S
C587 C571 1.429 . S
C587 C583 1.429 . S
C587 C588 1.523 . S
C588 C572 1.368 . S
C588 C584 1.368 . S
C588 C587 1.523 . S
H589 C564 0.950 . S
H590 C566 0.950 . S
H591 C567 0.949 . S
H592 C569 0.950 . S
H593 C571 0.950 . S
C594 C595 1.349 . S
C594 C596 1.327 . S
C594 H619 0.950 . S
C595 C594 1.349 . S
C595 C611 1.349 . S
C596 C594 1.327 . S
C596 C615 1.429 . S
C596 H620 0.950 . S
C597 C614 1.574 . S
C597 C616 1.368 . S
C597 H621 0.949 . S
H598 C602 0.949 . S
C599 C600 1.349 . S
C599 C601 1.327 . S
C599 H622 0.950 . S
C600 C599 1.349 . S
C600 C612 1.349 . S
C601 C599 1.327 . S
C601 C617 1.429 . S
C601 H623 0.950 . S
C602 H598 0.949 . S
C602 C610 1.574 . S
C602 C618 1.368 . S
H603 C611 0.950 . S
H604 C609 0.950 . S
H605 C610 0.949 . S
H606 C612 0.950 . S
H607 C613 0.950 . S
H608 C614 0.949 . S
C609 H604 0.950 . S
C609 C611 1.327 . S
C609 C615 1.429 . S
C610 C602 1.574 . S
C610 H605 0.949 . S
C610 C616 1.368 . S
C611 C595 1.349 . S
C611 H603 0.950 . S
C611 C609 1.327 . S
C612 C600 1.349 . S
C612 H606 0.950 . S
C612 C613 1.327 . S
C613 H607 0.950 . S
C613 C612 1.327 . S
C613 C617 1.429 . S
C614 C597 1.574 . S
C614 H608 0.949 . S
C614 C618 1.368 . S
C615 C596 1.429 . S
C615 C609 1.429 . S
C615 C616 1.523 . S
C616 C597 1.368 . S
C616 C610 1.368 . S
C616 C615 1.523 . S
C617 C601 1.429 . S
C617 C613 1.429 . S
C617 C618 1.523 . S
C618 C602 1.368 . S
C618 C614 1.368 . S
C618 C617 1.523 . S
H619 C594 0.950 . S
H620 C596 0.950 . S
H621 C597 0.949 . S
H622 C599 0.950 . S
H623 C601 0.950 . S
C624 C625 1.349 . S
C624 C626 1.327 . S
C624 H649 0.950 . S
C625 C624 1.349 . S
C625 C641 1.349 . S
C626 C624 1.327 . S
C626 C645 1.429 . S
C626 H650 0.950 . S
C627 C644 1.574 . S
C627 C646 1.368 . S
C627 H651 0.949 . S
H628 C632 0.949 . S
C629 C630 1.349 . S
C629 C631 1.327 . S
C629 H652 0.950 . S
C630 C629 1.349 . S
C630 C642 1.349 . S
C631 C629 1.327 . S
C631 C647 1.429 . S
C631 H653 0.950 . S
C632 H628 0.949 . S
C632 C640 1.574 . S
C632 C648 1.368 . S
H633 C641 0.950 . S
H634 C639 0.950 . S
H635 C640 0.949 . S
H636 C642 0.950 . S
H637 C643 0.950 . S
H638 C644 0.949 . S
C639 H634 0.950 . S
C639 C641 1.327 . S
C639 C645 1.429 . S
C640 C632 1.574 . S
C640 H635 0.949 . S
C640 C646 1.368 . S
C641 C625 1.349 . S
C641 H633 0.950 . S
C641 C639 1.327 . S
C642 C630 1.349 . S
C642 H636 0.950 . S
C642 C643 1.327 . S
C643 H637 0.950 . S
C643 C642 1.327 . S
C643 C647 1.429 . S
C644 C627 1.574 . S
C644 H638 0.949 . S
C644 C648 1.368 . S
C645 C626 1.429 . S
C645 C639 1.429 . S
C645 C646 1.523 . S
C646 C627 1.368 . S
C646 C640 1.368 . S
C646 C645 1.523 . S
C647 C631 1.429 . S
C647 C643 1.429 . S
C647 C648 1.523 . S
C648 C632 1.368 . S
C648 C644 1.368 . S
C648 C647 1.523 . S
H649 C624 0.950 . S
H650 C626 0.950 . S
H651 C627 0.949 . S
H652 C629 0.950 . S
H653 C631 0.950 . S
C654 C655 1.349 . S
C654 C656 1.327 . S
C654 H679 0.950 . S
C655 C654 1.349 . S
C655 C671 1.349 . S
C656 C654 1.327 . S
C656 C675 1.429 . S
C656 H680 0.950 . S
C657 C674 1.574 . S
C657 C676 1.368 . S
C657 H681 0.949 . S
H658 C662 0.949 . S
C659 C660 1.349 . S
C659 C661 1.327 . S
C659 H682 0.950 . S
C660 C659 1.349 . S
C660 C672 1.349 . S
C661 C659 1.327 . S
C661 C677 1.429 . S
C661 H683 0.950 . S
C662 H658 0.949 . S
C662 C670 1.574 . S
C662 C678 1.368 . S
H663 C671 0.950 . S
H664 C669 0.950 . S
H665 C670 0.949 . S
H666 C672 0.950 . S
H667 C673 0.950 . S
H668 C674 0.949 . S
C669 H664 0.950 . S
C669 C671 1.327 . S
C669 C675 1.429 . S
C670 C662 1.574 . S
C670 H665 0.949 . S
C670 C676 1.368 . S
C671 C655 1.349 . S
C671 H663 0.950 . S
C671 C669 1.327 . S
C672 C660 1.349 . S
C672 H666 0.950 . S
C672 C673 1.327 . S
C673 H667 0.950 . S
C673 C672 1.327 . S
C673 C677 1.429 . S
C674 C657 1.574 . S
C674 H668 0.949 . S
C674 C678 1.368 . S
C675 C656 1.429 . S
C675 C669 1.429 . S
C675 C676 1.523 . S
C676 C657 1.368 . S
C676 C670 1.368 . S
C676 C675 1.523 . S
C677 C661 1.429 . S
C677 C673 1.429 . S
C677 C678 1.523 . S
C678 C662 1.368 . S
C678 C674 1.368 . S
C678 C677 1.523 . S
H679 C654 0.950 . S
H680 C656 0.950 . S
H681 C657 0.949 . S
H682 C659 0.950 . S
H683 C661 0.950 . S
C684 C685 1.349 . S
C684 C686 1.327 . S
C684 H709 0.950 . S
C685 C684 1.349 . S
C685 C701 1.349 . S
C686 C684 1.327 . S
C686 C705 1.429 . S
C686 H710 0.950 . S
C687 C704 1.574 . S
C687 C706 1.368 . S
C687 H711 0.949 . S
H688 C692 0.949 . S
C689 C690 1.349 . S
C689 C691 1.327 . S
C689 H712 0.950 . S
C690 C689 1.349 . S
C690 C702 1.349 . S
C691 C689 1.327 . S
C691 C707 1.429 . S
C691 H713 0.950 . S
C692 H688 0.949 . S
C692 C700 1.574 . S
C692 C708 1.368 . S
H693 C701 0.950 . S
H694 C699 0.950 . S
H695 C700 0.949 . S
H696 C702 0.950 . S
H697 C703 0.950 . S
H698 C704 0.949 . S
C699 H694 0.950 . S
C699 C701 1.327 . S
C699 C705 1.429 . S
C700 C692 1.574 . S
C700 H695 0.949 . S
C700 C706 1.368 . S
C701 C685 1.349 . S
C701 H693 0.950 . S
C701 C699 1.327 . S
C702 C690 1.349 . S
C702 H696 0.950 . S
C702 C703 1.327 . S
C703 H697 0.950 . S
C703 C702 1.327 . S
C703 C707 1.429 . S
C704 C687 1.574 . S
C704 H698 0.949 . S
C704 C708 1.368 . S
C705 C686 1.429 . S
C705 C699 1.429 . S
C705 C706 1.523 . S
C706 C687 1.368 . S
C706 C700 1.368 . S
C706 C705 1.523 . S
C707 C691 1.429 . S
C707 C703 1.429 . S
C707 C708 1.523 . S
C708 C692 1.368 . S
C708 C704 1.368 . S
C708 C707 1.523 . S
H709 C684 0.950 . S
H710 C686 0.950 . S
H711 C687 0.949 . S
H712 C689 0.950 . S
H713 C691 0.950 . S
C714 C715 1.349 . S
C714 C716 1.327 . S
C714 H739 0.950 . S
C715 C714 1.349 . S
C715 C731 1.349 . S
C716 C714 1.327 . S
C716 C735 1.429 . S
C716 H740 0.950 . S
C717 C734 1.574 . S
C717 C736 1.368 . S
C717 H741 0.949 . S
H718 C722 0.949 . S
C719 C720 1.349 . S
C719 C721 1.327 . S
C719 H742 0.950 . S
C720 C719 1.349 . S
C720 C732 1.349 . S
C721 C719 1.327 . S
C721 C737 1.429 . S
C721 H743 0.950 . S
C722 H718 0.949 . S
C722 C730 1.574 . S
C722 C738 1.368 . S
H723 C731 0.950 . S
H724 C729 0.950 . S
H725 C730 0.949 . S
H726 C732 0.950 . S
H727 C733 0.950 . S
H728 C734 0.949 . S
C729 H724 0.950 . S
C729 C731 1.327 . S
C729 C735 1.429 . S
C730 C722 1.574 . S
C730 H725 0.949 . S
C730 C736 1.368 . S
C731 C715 1.349 . S
C731 H723 0.950 . S
C731 C729 1.327 . S
C732 C720 1.349 . S
C732 H726 0.950 . S
C732 C733 1.327 . S
C733 H727 0.950 . S
C733 C732 1.327 . S
C733 C737 1.429 . S
C734 C717 1.574 . S
C734 H728 0.949 . S
C734 C738 1.368 . S
C735 C716 1.429 . S
C735 C729 1.429 . S
C735 C736 1.523 . S
C736 C717 1.368 . S
C736 C730 1.368 . S
C736 C735 1.523 . S
C737 C721 1.429 . S
C737 C733 1.429 . S
C737 C738 1.523 . S
C738 C722 1.368 . S
C738 C734 1.368 . S
C738 C737 1.523 . S
H739 C714 0.950 . S
H740 C716 0.950 . S
H741 C717 0.949 . S
H742 C719 0.950 . S
H743 C721 0.950 . S
C744 C745 1.349 . S
C744 C746 1.327 . S
C744 H769 0.950 . S
C745 C744 1.349 . S
C745 C761 1.349 . S
C746 C744 1.327 . S
C746 C765 1.429 . S
C746 H770 0.950 . S
C747 C764 1.574 . S
C747 C766 1.368 . S
C747 H771 0.949 . S
H748 C752 0.949 1_554 S
C749 C750 1.349 1_556 S
C749 C751 1.327 . S
C749 H772 0.950 . S
C750 C749 1.349 1_554 S
C750 C762 1.349 . S
C751 C749 1.327 . S
C751 C767 1.429 . S
C751 H773 0.950 . S
C752 H748 0.949 1_556 S
C752 C760 1.574 . S
C752 C768 1.368 . S
H753 C761 0.950 . S
H754 C759 0.950 . S
H755 C760 0.949 . S
H756 C762 0.950 . S
H757 C763 0.950 . S
H758 C764 0.949 . S
C759 H754 0.950 . S
C759 C761 1.327 . S
C759 C765 1.429 . S
C760 C752 1.574 . S
C760 H755 0.949 . S
C760 C766 1.368 . S
C761 C745 1.349 . S
C761 H753 0.950 . S
C761 C759 1.327 . S
C762 C750 1.349 . S
C762 H756 0.950 . S
C762 C763 1.327 . S
C763 H757 0.950 . S
C763 C762 1.327 . S
C763 C767 1.429 1_554 S
C764 C747 1.574 . S
C764 H758 0.949 . S
C764 C768 1.368 . S
C765 C746 1.429 . S
C765 C759 1.429 . S
C765 C766 1.523 . S
C766 C747 1.368 . S
C766 C760 1.368 . S
C766 C765 1.523 . S
C767 C751 1.429 . S
C767 C763 1.429 1_556 S
C767 C768 1.523 . S
C768 C752 1.368 . S
C768 C764 1.368 . S
C768 C767 1.523 . S
H769 C744 0.950 . S
H770 C746 0.950 . S
H771 C747 0.949 . S
H772 C749 0.950 . S
H773 C751 0.950 . S
C774 C775 1.349 . S
C774 C776 1.327 . S
C774 H799 0.950 . S
C775 C774 1.349 . S
C775 C791 1.349 . S
C776 C774 1.327 . S
C776 C795 1.429 . S
C776 H800 0.950 . S
C777 C794 1.574 . S
C777 C796 1.368 . S
C777 H801 0.949 . S
H778 C782 0.949 . S
C779 C780 1.349 1_455 S
C779 C781 1.327 1_455 S
C779 H802 0.950 . S
C780 C779 1.349 1_655 S
C780 C792 1.349 . S
C781 C779 1.327 1_655 S
C781 C797 1.429 . S
C781 H803 0.950 . S
C782 H778 0.949 . S
C782 C790 1.574 . S
C782 C798 1.368 . S
H783 C791 0.950 . S
H784 C789 0.950 . S
H785 C790 0.949 . S
H786 C792 0.950 . S
H787 C793 0.950 . S
H788 C794 0.949 . S
C789 H784 0.950 . S
C789 C791 1.327 . S
C789 C795 1.429 . S
C790 C782 1.574 . S
C790 H785 0.949 . S
C790 C796 1.368 . S
C791 C775 1.349 . S
C791 H783 0.950 . S
C791 C789 1.327 . S
C792 C780 1.349 . S
C792 H786 0.950 . S
C792 C793 1.327 . S
C793 H787 0.950 . S
C793 C792 1.327 . S
C793 C797 1.429 . S
C794 C777 1.574 . S
C794 H788 0.949 . S
C794 C798 1.368 . S
C795 C776 1.429 . S
C795 C789 1.429 . S
C795 C796 1.523 . S
C796 C777 1.368 . S
C796 C790 1.368 . S
C796 C795 1.523 . S
C797 C781 1.429 . S
C797 C793 1.429 . S
C797 C798 1.523 . S
C798 C782 1.368 . S
C798 C794 1.368 . S
C798 C797 1.523 . S
H799 C774 0.950 . S
H800 C776 0.950 . S
H801 C777 0.949 . S
H802 C779 0.950 . S
H803 C781 0.950 . S
C804 C805 1.349 . S
C804 C806 1.327 . S
C804 H829 0.950 . S
C805 C804 1.349 . S
C805 C821 1.349 . S
C806 C804 1.327 . S
C806 C825 1.429 . S
C806 H830 0.950 . S
C807 C824 1.574 . S
C807 C826 1.368 . S
C807 H831 0.949 . S
H808 C812 0.949 . S
C809 C810 1.349 . S
C809 C811 1.327 . S
C809 H832 0.950 . S
C810 C809 1.349 . S
C810 C822 1.349 . S
C811 C809 1.327 . S
C811 C827 1.429 . S
C811 H833 0.950 . S
C812 H808 0.949 . S
C812 C820 1.574 . S
C812 C828 1.368 . S
H813 C821 0.950 . S
H814 C819 0.950 . S
H815 C820 0.949 . S
H816 C822 0.950 . S
H817 C823 0.950 . S
H818 C824 0.949 . S
C819 H814 0.950 . S
C819 C821 1.327 . S
C819 C825 1.429 . S
C820 C812 1.574 . S
C820 H815 0.949 . S
C820 C826 1.368 . S
C821 C805 1.349 . S
C821 H813 0.950 . S
C821 C819 1.327 . S
C822 C810 1.349 . S
C822 H816 0.950 . S
C822 C823 1.327 . S
C823 H817 0.950 . S
C823 C822 1.327 . S
C823 C827 1.429 . S
C824 C807 1.574 . S
C824 H818 0.949 . S
C824 C828 1.368 . S
C825 C806 1.429 . S
C825 C819 1.429 . S
C825 C826 1.523 . S
C826 C807 1.368 . S
C826 C820 1.368 . S
C826 C825 1.523 . S
C827 C811 1.429 . S
C827 C823 1.429 . S
C827 C828 1.523 . S
C828 C812 1.368 . S
C828 C824 1.368 . S
C828 C827 1.523 . S
H829 C804 0.950 . S
H830 C806 0.950 . S
H831 C807 0.949 . S
H832 C809 0.950 . S
H833 C811 0.950 . S
C834 C835 1.349 . S
C834 C836 1.327 . S
C834 H859 0.950 . S
C835 C834 1.349 . S
C835 C851 1.349 . S
C836 C834 1.327 . S
C836 C855 1.429 . S
C836 H860 0.950 . S
C837 C854 1.574 . S
C837 C856 1.368 . S
C837 H861 0.949 . S
H838 C842 0.949 . S
C839 C840 1.349 . S
C839 C841 1.327 . S
C839 H862 0.950 . S
C840 C839 1.349 . S
C840 C852 1.349 . S
C841 C839 1.327 . S
C841 C857 1.429 . S
C841 H863 0.950 . S
C842 H838 0.949 . S
C842 C850 1.574 . S
C842 C858 1.368 . S
H843 C851 0.950 . S
H844 C849 0.950 . S
H845 C850 0.949 . S
H846 C852 0.950 . S
H847 C853 0.950 . S
H848 C854 0.949 . S
C849 H844 0.950 . S
C849 C851 1.327 . S
C849 C855 1.429 . S
C850 C842 1.574 . S
C850 H845 0.949 . S
C850 C856 1.368 . S
C851 C835 1.349 . S
C851 H843 0.950 . S
C851 C849 1.327 . S
C852 C840 1.349 . S
C852 H846 0.950 . S
C852 C853 1.327 . S
C853 H847 0.950 . S
C853 C852 1.327 . S
C853 C857 1.429 . S
C854 C837 1.574 . S
C854 H848 0.949 . S
C854 C858 1.368 . S
C855 C836 1.429 . S
C855 C849 1.429 . S
C855 C856 1.523 . S
C856 C837 1.368 . S
C856 C850 1.368 . S
C856 C855 1.523 . S
C857 C841 1.429 . S
C857 C853 1.429 . S
C857 C858 1.523 . S
C858 C842 1.368 . S
C858 C854 1.368 . S
C858 C857 1.523 . S
H859 C834 0.950 . S
H860 C836 0.950 . S
H861 C837 0.949 . S
H862 C839 0.950 . S
H863 C841 0.950 . S
C864 C865 1.349 . S
C864 C866 1.327 . S
C864 H889 0.950 . S
C865 C864 1.349 . S
C865 C881 1.349 . S
C866 C864 1.327 . S
C866 C885 1.429 . S
C866 H890 0.950 . S
C867 C884 1.574 . S
C867 C886 1.368 . S
C867 H891 0.949 . S
H868 C872 0.949 . S
C869 C870 1.349 . S
C869 C871 1.327 . S
C869 H892 0.950 . S
C870 C869 1.349 . S
C870 C882 1.349 . S
C871 C869 1.327 . S
C871 C887 1.429 . S
C871 H893 0.950 . S
C872 H868 0.949 . S
C872 C880 1.574 . S
C872 C888 1.368 . S
H873 C881 0.950 . S
H874 C879 0.950 . S
H875 C880 0.949 . S
H876 C882 0.950 . S
H877 C883 0.950 . S
H878 C884 0.949 . S
C879 H874 0.950 . S
C879 C881 1.327 . S
C879 C885 1.429 . S
C880 C872 1.574 . S
C880 H875 0.949 . S
C880 C886 1.368 . S
C881 C865 1.349 . S
C881 H873 0.950 . S
C881 C879 1.327 . S
C882 C870 1.349 . S
C882 H876 0.950 . S
C882 C883 1.327 . S
C883 H877 0.950 . S
C883 C882 1.327 . S
C883 C887 1.429 . S
C884 C867 1.574 . S
C884 H878 0.949 . S
C884 C888 1.368 . S
C885 C866 1.429 . S
C885 C879 1.429 . S
C885 C886 1.523 . S
C886 C867 1.368 . S
C886 C880 1.368 . S
C886 C885 1.523 . S
C887 C871 1.429 . S
C887 C883 1.429 . S
C887 C888 1.523 . S
C888 C872 1.368 . S
C888 C884 1.368 . S
C888 C887 1.523 . S
H889 C864 0.950 . S
H890 C866 0.950 . S
H891 C867 0.949 . S
H892 C869 0.950 . S
H893 C871 0.950 . S
C894 C895 1.349 . S
C894 C896 1.327 . S
C894 H919 0.950 . S
C895 C894 1.349 . S
C895 C911 1.349 . S
C896 C894 1.327 . S
C896 C915 1.429 . S
C896 H920 0.950 . S
C897 C914 1.574 . S
C897 C916 1.368 . S
C897 H921 0.949 . S
H898 C902 0.949 . S
C899 C900 1.349 . S
C899 C901 1.327 . S
C899 H922 0.950 . S
C900 C899 1.349 . S
C900 C912 1.349 . S
C901 C899 1.327 . S
C901 C917 1.429 . S
C901 H923 0.950 . S
C902 H898 0.949 . S
C902 C910 1.574 . S
C902 C918 1.368 . S
H903 C911 0.950 . S
H904 C909 0.950 . S
H905 C910 0.949 . S
H906 C912 0.950 . S
H907 C913 0.950 . S
H908 C914 0.949 . S
C909 H904 0.950 . S
C909 C911 1.327 . S
C909 C915 1.429 . S
C910 C902 1.574 . S
C910 H905 0.949 . S
C910 C916 1.368 . S
C911 C895 1.349 . S
C911 H903 0.950 . S
C911 C909 1.327 . S
C912 C900 1.349 . S
C912 H906 0.950 . S
C912 C913 1.327 . S
C913 H907 0.950 . S
C913 C912 1.327 . S
C913 C917 1.429 . S
C914 C897 1.574 . S
C914 H908 0.949 . S
C914 C918 1.368 . S
C915 C896 1.429 . S
C915 C909 1.429 . S
C915 C916 1.523 . S
C916 C897 1.368 . S
C916 C910 1.368 . S
C916 C915 1.523 . S
C917 C901 1.429 . S
C917 C913 1.429 . S
C917 C918 1.523 . S
C918 C902 1.368 . S
C918 C914 1.368 . S
C918 C917 1.523 . S
H919 C894 0.950 . S
H920 C896 0.950 . S
H921 C897 0.949 . S
H922 C899 0.950 . S
H923 C901 0.950 . S
C924 C925 1.349 . S
C924 C926 1.327 . S
C924 H949 0.950 . S
C925 C924 1.349 . S
C925 C941 1.349 . S
C926 C924 1.327 . S
C926 C945 1.429 . S
C926 H950 0.950 . S
C927 C944 1.574 . S
C927 C946 1.368 . S
C927 H951 0.949 . S
H928 C932 0.949 . S
C929 C930 1.349 . S
C929 C931 1.327 . S
C929 H952 0.950 . S
C930 C929 1.349 . S
C930 C942 1.349 . S
C931 C929 1.327 . S
C931 C947 1.429 . S
C931 H953 0.950 . S
C932 H928 0.949 . S
C932 C940 1.574 . S
C932 C948 1.368 . S
H933 C941 0.950 . S
H934 C939 0.950 . S
H935 C940 0.949 . S
H936 C942 0.950 . S
H937 C943 0.950 . S
H938 C944 0.949 . S
C939 H934 0.950 . S
C939 C941 1.327 . S
C939 C945 1.429 . S
C940 C932 1.574 . S
C940 H935 0.949 . S
C940 C946 1.368 . S
C941 C925 1.349 . S
C941 H933 0.950 . S
C941 C939 1.327 . S
C942 C930 1.349 . S
C942 H936 0.950 . S
C942 C943 1.327 . S
C943 H937 0.950 . S
C943 C942 1.327 . S
C943 C947 1.429 . S
C944 C927 1.574 . S
C944 H938 0.949 . S
C944 C948 1.368 . S
C945 C926 1.429 . S
C945 C939 1.429 . S
C945 C946 1.523 . S
C946 C927 1.368 . S
C946 C940 1.368 . S
C946 C945 1.523 . S
C947 C931 1.429 . S
C947 C943 1.429 . S
C947 C948 1.523 . S
C948 C932 1.368 . S
C948 C944 1.368 . S
C948 C947 1.523 . S
H949 C924 0.950 . S
H950 C926 0.950 . S
H951 C927 0.949 . S
H952 C929 0.950 . S
H953 C931 0.950 . S
C954 C955 1.349 . S
C954 C956 1.327 . S
C954 H979 0.950 . S
C955 C954 1.349 . S
C955 C971 1.349 . S
C956 C954 1.327 . S
C956 C975 1.429 . S
C956 H980 0.950 . S
C957 C974 1.574 . S
C957 C976 1.368 . S
C957 H981 0.949 . S
H958 C962 0.949 . S
C959 C960 1.349 . S
C959 C961 1.327 . S
C959 H982 0.950 . S
C960 C959 1.349 . S
C960 C972 1.349 . S
C961 C959 1.327 . S
C961 C977 1.429 . S
C961 H983 0.950 . S
C962 H958 0.949 . S
C962 C970 1.574 . S
C962 C978 1.368 . S
H963 C971 0.950 . S
H964 C969 0.950 . S
H965 C970 0.949 . S
H966 C972 0.950 . S
H967 C973 0.950 . S
H968 C974 0.949 . S
C969 H964 0.950 . S
C969 C971 1.327 . S
C969 C975 1.429 . S
C970 C962 1.574 . S
C970 H965 0.949 . S
C970 C976 1.368 . S
C971 C955 1.349 . S
C971 H963 0.950 . S
C971 C969 1.327 . S
C972 C960 1.349 . S
C972 H966 0.950 . S
C972 C973 1.327 . S
C973 H967 0.950 . S
C973 C972 1.327 . S
C973 C977 1.429 . S
C974 C957 1.574 . S
C974 H968 0.949 . S
C974 C978 1.368 . S
C975 C956 1.429 . S
C975 C969 1.429 . S
C975 C976 1.523 . S
C976 C957 1.368 . S
C976 C970 1.368 . S
C976 C975 1.523 . S
C977 C961 1.429 . S
C977 C973 1.429 . S
C977 C978 1.523 . S
C978 C962 1.368 . S
C978 C974 1.368 . S
C978 C977 1.523 . S
H979 C954 0.950 . S
H980 C956 0.950 . S
H981 C957 0.949 . S
H982 C959 0.950 . S
H983 C961 0.950 . S
C265 N1 1.073 . S
C270 C119 1.103 . S
C295 N18 1.157 . S
C300 C159 1.199 . S
C330 C193 1.677 . S
C325 N28 1.704 . S
C355 N40 2.820 . S
C360 C234 2.822 . S
C390 C154 1.818 . S
C385 N5 1.812 . S
C420 C114 1.898 . S
C415 N14 1.821 . S
C450 C242 1.592 . S
C445 N31 1.602 . S
C480 C203 1.453 . S
C475 N41 1.481 . S
C505 N2 0.965 . S
C510 C239 0.969 . S
C540 C162 2.167 1_556 S
C535 N27 2.216 . S
C565 N44 2.548 . S
C570 C122 2.570 1_655 S
C595 N15 1.135 . S
C600 C190 1.156 . S
C630 C110 1.735 . S
C625 N57 1.770 . S
C655 N70 0.839 . S
C660 C150 0.855 . S
C685 N79 2.007 . S
C690 C202 2.053 . S
C715 N93 2.526 . S
C720 C243 2.468 . S
C745 N54 1.267 . S
C750 C163 1.286 . S
C780 C123 2.547 1_655 S
C775 N66 2.537 . S
C810 C233 0.931 . S
C805 N80 0.933 . S
C840 C194 1.701 . S
C835 N96 1.748 . S
C865 N53 1.053 . S
C870 C230 1.072 . S
C900 C153 1.613 . S
C895 N83 1.584 . S
C930 C113 2.540 . S
C925 N92 2.666 . S
C955 N67 1.411 . S
C960 C199 1.428 . S
