# Generated by pormake.
# Topology dag, (6,3)-cn, num edge types: 1
# Building blocks:
#     Node 0, Type 0, BuildingBlock: OJICUG_clean_sbu_0, # of connection points: 6
#     Node 1, Type 0, BuildingBlock: OJICUG_clean_sbu_0, # of connection points: 6
#     Node 2, Type 0, BuildingBlock: OJICUG_clean_sbu_0, # of connection points: 6
#     Node 3, Type 0, BuildingBlock: OJICUG_clean_sbu_0, # of connection points: 6
#     Node 4, Type 1, BuildingBlock: QEWDON_clean_linker_0, # of connection points: 3
#     Node 5, Type 1, BuildingBlock: QEWDON_clean_linker_0, # of connection points: 3
#     Node 6, Type 1, BuildingBlock: QEWDON_clean_linker_0, # of connection points: 3
#     Node 7, Type 1, BuildingBlock: QEWDON_clean_linker_0, # of connection points: 3
#     Node 8, Type 1, BuildingBlock: QEWDON_clean_linker_0, # of connection points: 3
#     Node 9, Type 1, BuildingBlock: QEWDON_clean_linker_0, # of connection points: 3
#     Node 10, Type 1, BuildingBlock: QEWDON_clean_linker_0, # of connection points: 3
#     Node 11, Type 1, BuildingBlock: QEWDON_clean_linker_0, # of connection points: 3
#     Edge 12, Type (0, 1), BuildingBlock: AJUNOK_clean_linker_0, # of connection points: 2
#     Edge 13, Type (0, 1), BuildingBlock: AJUNOK_clean_linker_0, # of connection points: 2
#     Edge 14, Type (0, 1), BuildingBlock: AJUNOK_clean_linker_0, # of connection points: 2
#     Edge 15, Type (0, 1), BuildingBlock: AJUNOK_clean_linker_0, # of connection points: 2
#     Edge 16, Type (0, 1), BuildingBlock: AJUNOK_clean_linker_0, # of connection points: 2
#     Edge 17, Type (0, 1), BuildingBlock: AJUNOK_clean_linker_0, # of connection points: 2
#     Edge 18, Type (0, 1), BuildingBlock: AJUNOK_clean_linker_0, # of connection points: 2
#     Edge 19, Type (0, 1), BuildingBlock: AJUNOK_clean_linker_0, # of connection points: 2
#     Edge 20, Type (0, 1), BuildingBlock: AJUNOK_clean_linker_0, # of connection points: 2
#     Edge 21, Type (0, 1), BuildingBlock: AJUNOK_clean_linker_0, # of connection points: 2
#     Edge 22, Type (0, 1), BuildingBlock: AJUNOK_clean_linker_0, # of connection points: 2
#     Edge 23, Type (0, 1), BuildingBlock: AJUNOK_clean_linker_0, # of connection points: 2
#     Edge 24, Type (0, 1), BuildingBlock: AJUNOK_clean_linker_0, # of connection points: 2
#     Edge 25, Type (0, 1), BuildingBlock: AJUNOK_clean_linker_0, # of connection points: 2
#     Edge 26, Type (0, 1), BuildingBlock: AJUNOK_clean_linker_0, # of connection points: 2
#     Edge 27, Type (0, 1), BuildingBlock: AJUNOK_clean_linker_0, # of connection points: 2
#     Edge 28, Type (0, 1), BuildingBlock: AJUNOK_clean_linker_0, # of connection points: 2
#     Edge 29, Type (0, 1), BuildingBlock: AJUNOK_clean_linker_0, # of connection points: 2
#     Edge 30, Type (0, 1), BuildingBlock: AJUNOK_clean_linker_0, # of connection points: 2
#     Edge 31, Type (0, 1), BuildingBlock: AJUNOK_clean_linker_0, # of connection points: 2
#     Edge 32, Type (0, 1), BuildingBlock: AJUNOK_clean_linker_0, # of connection points: 2
#     Edge 33, Type (0, 1), BuildingBlock: AJUNOK_clean_linker_0, # of connection points: 2
#     Edge 34, Type (0, 1), BuildingBlock: AJUNOK_clean_linker_0, # of connection points: 2
#     Edge 35, Type (0, 1), BuildingBlock: AJUNOK_clean_linker_0, # of connection points: 2
# Relax obj value: 0.045
# Max RMSD: 0.077
# Mean RMSD: 0.072
data_MOF--net-dag--node1-OJICUG_clean_sbu_0--node2-QEWDON_clean_linker_0--edge1-AJUNOK_clean_linker_0
_symmetry_space_group_name_H-M    P1
_symmetry_Int_Tables_number       1
_symmetry_cell_setting            triclinic
loop_
_symmetry_equiv_pos_as_xyz
'x, y, z'
_cell_length_a     29.913702
_cell_length_b     29.939931
_cell_length_c     31.525481
_cell_angle_alpha  90.29512
_cell_angle_beta   89.931804
_cell_angle_gamma 90.043847
loop_
_atom_site_label
_atom_site_type_symbol
_atom_site_fract_x
_atom_site_fract_y
_atom_site_fract_z
_atom_type_partial_charge
Sc0 Sc 0.09015 0.8827 0.01514 0.0
Sc1 Sc 0.1226 0.77043 0.00813 0.0
Sc2 Sc 0.20394 0.85729 0.01408 0.0
O3 O 0.13898 0.8366 0.01195 0.0
C4 C 0.16322 0.93227 0.95722 0.0
C5 C 0.05349 0.81602 0.9443 0.0
C6 C 0.20998 0.77392 0.94971 0.0
C7 C 0.04689 0.80516 0.07081 0.0
C8 C 0.15762 0.92358 0.08106 0.0
C9 C 0.20103 0.77455 0.07729 0.0
O10 O 0.12532 0.9283 0.97501 0.0
O11 O 0.0734 0.78154 0.95852 0.0
O12 O 0.22551 0.80879 0.96758 0.0
O13 O 0.0496 0.84483 0.05743 0.0
O14 O 0.19191 0.90927 0.0613 0.0
O15 O 0.16877 0.75477 0.05859 0.0
O16 O 0.11803 0.91349 0.07037 0.0
O17 O 0.07105 0.77361 0.0566 0.0
O18 O 0.21698 0.81182 0.06518 0.0
O19 O 0.05766 0.85489 0.96032 0.0
O20 O 0.19554 0.9056 0.96381 0.0
O21 O 0.17229 0.75721 0.95963 0.0
Sc22 Sc 0.71451 0.61818 0.492 0.0
Sc23 Sc 0.63043 0.70241 0.49706 0.0
Sc24 Sc 0.60168 0.58885 0.50404 0.0
O25 O 0.64896 0.63658 0.49786 0.0
C26 C 0.66733 0.5411 0.43824 0.0
C27 C 0.70457 0.69586 0.42374 0.0
C28 C 0.55355 0.65677 0.44149 0.0
C29 C 0.72114 0.70621 0.55049 0.0
C30 C 0.67953 0.55239 0.56376 0.0
C31 C 0.56439 0.6641 0.56718 0.0
O32 O 0.70163 0.56385 0.44809 0.0
O33 O 0.67235 0.7154 0.44262 0.0
O34 O 0.56016 0.61794 0.45623 0.0
O35 O 0.73662 0.6701 0.53488 0.0
O36 O 0.63899 0.55548 0.5522 0.0
O37 O 0.58515 0.69675 0.5506 0.0
O38 O 0.71153 0.5725 0.54519 0.0
O39 O 0.68295 0.72162 0.54055 0.0
O40 O 0.56753 0.62427 0.55362 0.0
O41 O 0.72299 0.66057 0.43762 0.0
O42 O 0.6294 0.54676 0.45539 0.0
O43 O 0.57538 0.69102 0.45361 0.0
Sc44 Sc 0.87777 0.21529 0.98642 0.0
Sc45 Sc 0.79567 0.12917 0.99035 0.0
Sc46 Sc 0.90879 0.10258 0.98096 0.0
O47 O 0.86072 0.14924 0.98644 0.0
C48 C 0.95099 0.17766 0.92209 0.0
C49 C 0.79659 0.20702 0.92091 0.0
C50 C 0.83543 0.05896 0.923 0.0
C51 C 0.793 0.21701 0.04874 0.0
C52 C 0.94877 0.17173 0.04882 0.0
C53 C 0.84065 0.0566 0.04688 0.0
O54 O 0.9298 0.20998 0.9387 0.0
O55 O 0.77982 0.17225 0.93796 0.0
O56 O 0.87594 0.06939 0.92945 0.0
O57 O 0.82897 0.23303 0.03382 0.0
O58 O 0.94588 0.13312 0.03187 0.0
O59 O 0.80804 0.08334 0.04195 0.0
O60 O 0.92635 0.20559 0.0367 0.0
O61 O 0.77725 0.17976 0.03635 0.0
O62 O 0.87678 0.05933 0.02577 0.0
O63 O 0.83097 0.22719 0.93549 0.0
O64 O 0.94625 0.13774 0.93418 0.0
O65 O 0.80331 0.07457 0.945 0.0
Sc66 Sc 0.39633 0.38877 0.49412 0.0
Sc67 Sc 0.28398 0.3598 0.51019 0.0
Sc68 Sc 0.36745 0.27539 0.49934 0.0
O69 O 0.34912 0.34121 0.50097 0.0
C70 C 0.42978 0.31552 0.42712 0.0
C71 C 0.31582 0.42762 0.4391 0.0
C72 C 0.274 0.27318 0.45026 0.0
C73 C 0.33461 0.4343 0.56455 0.0
C74 C 0.44708 0.31889 0.55248 0.0
C75 C 0.29715 0.28035 0.57621 0.0
O76 O 0.42721 0.35505 0.4416 0.0
O77 O 0.28457 0.40654 0.45781 0.0
O78 O 0.31266 0.25748 0.45792 0.0
O79 O 0.3718 0.42814 0.54614 0.0
O80 O 0.42449 0.28503 0.54076 0.0
O81 O 0.27791 0.31595 0.56401 0.0
O82 O 0.44021 0.35796 0.53861 0.0
O83 O 0.29924 0.4133 0.5545 0.0
O84 O 0.32845 0.26168 0.55527 0.0
O85 O 0.35673 0.42433 0.44926 0.0
O86 O 0.41013 0.2824 0.44409 0.0
O87 O 0.2596 0.30897 0.46737 0.0
H88 H 0.15864 0.06881 0.24674 0.0
C89 C 0.13914 0.0898 0.22583 0.0
C90 C 0.13551 0.07875 0.18266 0.0
C91 C 0.1152 0.12628 0.24246 0.0
H92 H 0.10389 0.0947 0.12342 0.0
C93 C 0.10842 0.10474 0.15627 0.0
C94 C 0.08309 0.14018 0.17277 0.0
C95 C 0.08694 0.15114 0.21595 0.0
C96 C 0.11441 0.13444 0.28856 0.0
H97 H 0.06671 0.17779 0.22926 0.0
C98 C 0.1483 0.15932 0.30856 0.0
C99 C 0.1459 0.16825 0.35243 0.0
C100 C 0.07849 0.11804 0.3125 0.0
H101 H 0.05212 0.09888 0.29743 0.0
C102 C 0.07629 0.12636 0.35601 0.0
H103 H 0.17564 0.17264 0.2899 0.0
C104 C 0.10963 0.15143 0.37588 0.0
H105 H 0.10717 0.15765 0.40969 0.0
H106 H 0.04852 0.11357 0.37435 0.0
H107 H 0.42442 0.67735 0.73491 0.0
C108 C 0.40443 0.65332 0.71741 0.0
C109 C 0.41411 0.64466 0.67461 0.0
C110 C 0.37095 0.62882 0.7384 0.0
H111 H 0.39929 0.60309 0.62052 0.0
C112 C 0.39 0.61162 0.65286 0.0
C113 C 0.35815 0.58553 0.67391 0.0
C114 C 0.34831 0.59445 0.71667 0.0
C115 C 0.36609 0.63328 0.78478 0.0
H116 H 0.32529 0.57299 0.73365 0.0
C117 C 0.33373 0.66162 0.80309 0.0
C118 C 0.33152 0.66665 0.84754 0.0
C119 C 0.39546 0.60956 0.81098 0.0
H120 H 0.4205 0.58765 0.7973 0.0
C121 C 0.39299 0.61416 0.85493 0.0
H122 H 0.31123 0.68031 0.78294 0.0
C123 C 0.36143 0.64267 0.87314 0.0
H124 H 0.36022 0.64592 0.90738 0.0
H125 H 0.41581 0.5958 0.87495 0.0
H126 H 0.85902 0.77566 0.19179 0.0
C127 C 0.85464 0.80967 0.18094 0.0
C128 C 0.89065 0.83233 0.16229 0.0
C129 C 0.81228 0.83013 0.18322 0.0
H130 H 0.91168 0.8926 0.13123 0.0
C131 C 0.88419 0.87562 0.14686 0.0
C132 C 0.84197 0.89573 0.14746 0.0
C133 C 0.80609 0.87313 0.16624 0.0
C134 C 0.77338 0.80476 0.19902 0.0
H135 H 0.77305 0.88799 0.16587 0.0
C136 C 0.77292 0.78745 0.24039 0.0
C137 C 0.7359 0.76289 0.2547 0.0
C138 C 0.73655 0.79738 0.17227 0.0
H139 H 0.73638 0.81031 0.14023 0.0
C140 C 0.69999 0.77257 0.1864 0.0
H141 H 0.80103 0.79329 0.26139 0.0
C142 C 0.69964 0.75529 0.22741 0.0
H143 H 0.67086 0.7364 0.23807 0.0
H144 H 0.67184 0.76679 0.16554 0.0
H145 H 0.73286 0.36804 0.67501 0.0
C146 C 0.69894 0.35861 0.66683 0.0
C147 C 0.66938 0.3906 0.65072 0.0
C148 C 0.68483 0.31411 0.67137 0.0
H149 H 0.60398 0.40192 0.62461 0.0
C150 C 0.62605 0.37762 0.63906 0.0
C151 C 0.61171 0.33327 0.64313 0.0
C152 C 0.64133 0.30153 0.65952 0.0
C153 C 0.71586 0.27999 0.68695 0.0
H154 H 0.63075 0.2671 0.66296 0.0
C155 C 0.72519 0.27695 0.73042 0.0
C156 C 0.7519 0.24202 0.74565 0.0
C157 C 0.73401 0.24865 0.65858 0.0
H158 H 0.72677 0.25054 0.62497 0.0
C159 C 0.76132 0.21443 0.67354 0.0
H160 H 0.71027 0.3006 0.75242 0.0
C161 C 0.77002 0.21088 0.71689 0.0
H162 H 0.79079 0.18373 0.72803 0.0
H163 H 0.77529 0.19027 0.65158 0.0
H164 H 0.67596 0.40596 0.27016 0.0
C165 C 0.6503 0.38547 0.28466 0.0
C166 C 0.63958 0.39162 0.3277 0.0
C167 C 0.62613 0.35478 0.25967 0.0
H168 H 0.59487 0.37244 0.3781 0.0
C169 C 0.60498 0.36623 0.34553 0.0
C170 C 0.57981 0.33656 0.32069 0.0
C171 C 0.59037 0.33093 0.27765 0.0
C172 C 0.63342 0.35324 0.21343 0.0
H173 H 0.56975 0.30953 0.25788 0.0
C174 C 0.66616 0.32535 0.19517 0.0
C175 C 0.67338 0.32596 0.15103 0.0
C176 C 0.60767 0.38102 0.18741 0.0
H177 H 0.58236 0.40264 0.20106 0.0
C178 C 0.61466 0.38142 0.14367 0.0
H179 H 0.68621 0.30388 0.21514 0.0
C180 C 0.64742 0.35422 0.12555 0.0
H181 H 0.65245 0.35504 0.09151 0.0
H182 H 0.59477 0.40303 0.12378 0.0
H183 H 0.23415 0.10511 0.84484 0.0
C184 C 0.20072 0.11895 0.84314 0.0
C185 C 0.16484 0.09545 0.86077 0.0
C186 C 0.19381 0.16126 0.82494 0.0
H187 H 0.09427 0.09614 0.8736 0.0
C188 C 0.12196 0.11395 0.85913 0.0
C189 C 0.1146 0.15633 0.84196 0.0
C190 C 0.15064 0.1801 0.8247 0.0
C191 C 0.23242 0.18659 0.80858 0.0
H192 H 0.14541 0.2134 0.81234 0.0
C193 C 0.23336 0.20108 0.76627 0.0
C194 C 0.27159 0.22238 0.75008 0.0
C195 C 0.26945 0.19459 0.8349 0.0
H196 H 0.26925 0.18375 0.86764 0.0
C197 C 0.30703 0.21658 0.81916 0.0
H198 H 0.20525 0.19408 0.74559 0.0
C199 C 0.3083 0.23016 0.77692 0.0
H200 H 0.33801 0.24669 0.76511 0.0
H201 H 0.33545 0.22268 0.83961 0.0
H202 H 0.37036 0.70944 0.32854 0.0
C203 C 0.35888 0.67566 0.33433 0.0
C204 C 0.38804 0.64395 0.35178 0.0
C205 C 0.31444 0.66391 0.32506 0.0
H206 H 0.39394 0.57628 0.3741 0.0
C207 C 0.37225 0.60051 0.35906 0.0
C208 C 0.32795 0.58858 0.35003 0.0
C209 C 0.29901 0.62048 0.33305 0.0
C210 C 0.28299 0.69753 0.30937 0.0
H211 H 0.26445 0.6118 0.32667 0.0
C212 C 0.27677 0.70311 0.26564 0.0
C213 C 0.24405 0.73269 0.25083 0.0
C214 C 0.257 0.72208 0.33825 0.0
H215 H 0.26137 0.71777 0.3721 0.0
C216 C 0.22467 0.75179 0.32353 0.0
H217 H 0.29652 0.68375 0.24331 0.0
C218 C 0.21794 0.75689 0.28 0.0
H219 H 0.19253 0.77987 0.26904 0.0
H220 H 0.20452 0.77057 0.34588 0.0
H221 H 0.92669 0.80945 0.76969 0.0
C222 C 0.90513 0.83377 0.78501 0.0
C223 C 0.91051 0.84315 0.82832 0.0
C224 C 0.8735 0.85736 0.76098 0.0
H225 H 0.89058 0.88553 0.88019 0.0
C226 C 0.8843 0.87646 0.84735 0.0
C227 C 0.85413 0.90177 0.82337 0.0
C228 C 0.84816 0.89144 0.78019 0.0
C229 C 0.87251 0.85146 0.71456 0.0
H230 H 0.82581 0.91148 0.76107 0.0
C231 C 0.84056 0.82381 0.69484 0.0
C232 C 0.84167 0.81727 0.65055 0.0
C233 C 0.90499 0.87299 0.6899 0.0
H234 H 0.92979 0.89436 0.7047 0.0
C235 C 0.90585 0.86695 0.64603 0.0
H236 H 0.8158 0.8067 0.71393 0.0
C237 C 0.87457 0.83913 0.62644 0.0
H238 H 0.87595 0.83476 0.59232 0.0
H239 H 0.93101 0.88367 0.62717 0.0
C240 C 0.18742 0.99682 0.106 0.0
C241 C 0.1626 0.95794 0.11441 0.0
C242 C 0.18185 0.0354 0.13099 0.0
C243 C 0.15221 0.03578 0.16567 0.0
H244 H 0.20804 0.99877 0.07779 0.0
H245 H 0.19833 0.06596 0.12139 0.0
S246 S 0.08432 0.94061 0.20401 0.0
N247 N 0.11083 0.92076 0.16198 0.0
N248 N 0.10127 0.99285 0.20951 0.0
C249 C 0.13049 0.99589 0.17661 0.0
C250 C 0.13547 0.957 0.15078 0.0
C251 C 0.53372 0.64831 0.63874 0.0
C252 C 0.53086 0.67216 0.60055 0.0
C253 C 0.49646 0.64396 0.66547 0.0
C254 C 0.45493 0.66241 0.65427 0.0
H255 H 0.56404 0.63035 0.64651 0.0
H256 H 0.49912 0.62268 0.69306 0.0
S257 S 0.43086 0.73021 0.55915 0.0
N258 N 0.48433 0.71723 0.5545 0.0
N259 N 0.4138 0.70768 0.6041 0.0
C260 C 0.4524 0.68861 0.61757 0.0
C261 C 0.49058 0.69385 0.59083 0.0
C262 C 0.8502 0.9755 0.05587 0.0
C263 C 0.83516 0.01624 0.07296 0.0
C264 C 0.85003 0.93657 0.07984 0.0
C265 C 0.83529 0.93673 0.12216 0.0
H266 H 0.86293 0.97378 0.02368 0.0
H267 H 0.86273 0.90618 0.0654 0.0
S268 S 0.78992 0.03407 0.18114 0.0
N269 N 0.8025 0.05419 0.13384 0.0
N270 N 0.80295 0.98041 0.1797 0.0
C271 C 0.81818 0.9767 0.13926 0.0
C272 C 0.81797 0.01667 0.11445 0.0
C273 C 0.48999 0.34539 0.61475 0.0
C274 C 0.48453 0.31361 0.58225 0.0
C275 C 0.53014 0.34873 0.63713 0.0
C276 C 0.56665 0.32095 0.62725 0.0
H277 H 0.46382 0.36942 0.62137 0.0
H278 H 0.5336 0.37514 0.66054 0.0
S279 S 0.56764 0.22946 0.54742 0.0
N280 N 0.51699 0.25105 0.54385 0.0
N281 N 0.59341 0.25811 0.58507 0.0
C282 C 0.56047 0.28679 0.59695 0.0
C283 C 0.51913 0.28299 0.57455 0.0
C284 C 0.65932 0.51019 0.36517 0.0
C285 C 0.67153 0.50406 0.40774 0.0
C286 C 0.65311 0.47338 0.33798 0.0
C287 C 0.65831 0.42936 0.35279 0.0
H288 H 0.65205 0.5434 0.35355 0.0
H289 H 0.64088 0.47931 0.30617 0.0
S290 S 0.69428 0.39641 0.46072 0.0
N291 N 0.69205 0.45152 0.46265 0.0
N292 N 0.68029 0.38225 0.41177 0.0
C293 C 0.67331 0.42321 0.39462 0.0
C294 C 0.67984 0.46063 0.4221 0.0
C295 C 0.02287 0.21341 0.90133 0.0
C296 C 0.98642 0.18592 0.89056 0.0
C297 C 0.06421 0.2085 0.88053 0.0
C298 C 0.06986 0.17624 0.84834 0.0
H299 H 0.02099 0.23504 0.92893 0.0
H300 H 0.09296 0.22624 0.89299 0.0
S301 S 0.98192 0.10391 0.80234 0.0
N302 N 0.95646 0.13121 0.84109 0.0
N303 N 0.03386 0.12259 0.80173 0.0
C304 C 0.03204 0.1532 0.83366 0.0
C305 C 0.99032 0.15779 0.85499 0.0
C306 C 0.3337 0.46589 0.37196 0.0
C307 C 0.30533 0.46184 0.40731 0.0
C308 C 0.337 0.50616 0.34993 0.0
C309 C 0.31225 0.54375 0.36275 0.0
H310 H 0.35644 0.43903 0.36368 0.0
H311 H 0.36201 0.50911 0.3252 0.0
S312 S 0.2284 0.54829 0.44927 0.0
N313 N 0.24789 0.4967 0.45071 0.0
N314 N 0.25443 0.57289 0.40946 0.0
C315 C 0.28021 0.5387 0.39501 0.0
C316 C 0.27664 0.49746 0.41733 0.0
C317 C 0.02745 0.83198 0.87111 0.0
C318 C 0.02022 0.81108 0.91032 0.0
C319 C 0.99217 0.83818 0.84243 0.0
C320 C 0.94843 0.82467 0.85266 0.0
H321 H 0.05996 0.84591 0.86368 0.0
H322 H 0.99843 0.85684 0.81366 0.0
S323 S 0.91282 0.76638 0.95036 0.0
N324 N 0.96706 0.7744 0.95679 0.0
N325 N 0.90039 0.7873 0.90343 0.0
C326 C 0.94135 0.80169 0.89078 0.0
C327 C 0.9774 0.7946 0.91954 0.0
C328 C 0.81101 0.98137 0.90725 0.0
C329 C 0.82709 0.02256 0.89245 0.0
C330 C 0.81581 0.94237 0.88274 0.0
C331 C 0.83622 0.94353 0.84247 0.0
H332 H 0.79836 0.97856 0.93935 0.0
H333 H 0.80649 0.91065 0.8966 0.0
S334 S 0.87691 0.04472 0.78711 0.0
N335 N 0.85923 0.06337 0.83358 0.0
N336 N 0.86755 0.99036 0.78707 0.0
C337 C 0.84833 0.98533 0.82583 0.0
C338 C 0.84406 0.02481 0.85103 0.0
C339 C 0.46038 0.33564 0.35651 0.0
C340 C 0.46215 0.3082 0.39254 0.0
C341 C 0.49762 0.34039 0.32986 0.0
C342 C 0.53806 0.31863 0.33901 0.0
H343 H 0.43114 0.35607 0.35071 0.0
H344 H 0.49609 0.36444 0.30433 0.0
S345 S 0.55875 0.24036 0.42732 0.0
N346 N 0.50619 0.25596 0.43375 0.0
N347 N 0.57676 0.26617 0.38436 0.0
C348 C 0.53925 0.2887 0.37308 0.0
C349 C 0.50104 0.28312 0.3997 0.0
C350 C 0.15363 0.01356 0.95027 0.0
C351 C 0.17047 0.9736 0.93302 0.0
C352 C 0.1544 0.05312 0.92726 0.0
C353 C 0.1716 0.05433 0.88582 0.0
H354 H 0.13876 0.01407 0.98165 0.0
H355 H 0.14002 0.08282 0.94157 0.0
S356 S 0.22282 0.95962 0.82729 0.0
N357 N 0.20779 0.93799 0.87332 0.0
N358 N 0.20851 0.01293 0.82923 0.0
C359 C 0.19076 0.01524 0.86884 0.0
C360 C 0.19034 0.97466 0.89267 0.0
C361 C 0.50935 0.62828 0.3805 0.0
C362 C 0.51634 0.66173 0.4112 0.0
C363 C 0.4691 0.62555 0.35812 0.0
C364 C 0.4339 0.6556 0.36625 0.0
H365 H 0.53432 0.60258 0.37535 0.0
H366 H 0.46436 0.59786 0.33631 0.0
S367 S 0.43745 0.75216 0.44042 0.0
N368 N 0.48693 0.72834 0.4455 0.0
N369 N 0.41034 0.72235 0.40449 0.0
C370 C 0.4418 0.69133 0.39447 0.0
C371 C 0.48327 0.69453 0.41679 0.0
C372 C 0.30588 0.50643 0.59411 0.0
C373 C 0.33319 0.46847 0.59835 0.0
C374 C 0.31159 0.54373 0.62092 0.0
C375 C 0.34389 0.54348 0.6533 0.0
H376 H 0.28229 0.50853 0.56815 0.0
H377 H 0.2924 0.5737 0.61492 0.0
S378 S 0.42083 0.45077 0.67945 0.0
N379 N 0.39168 0.43197 0.63861 0.0
N380 N 0.40144 0.50136 0.68962 0.0
C381 C 0.36924 0.50464 0.65941 0.0
C382 C 0.36411 0.46724 0.63175 0.0
C383 C 0.01259 0.82532 0.13951 0.0
C384 C 0.01306 0.79697 0.10382 0.0
C385 C 0.97351 0.83162 0.16324 0.0
C386 C 0.93348 0.81017 0.15167 0.0
H387 H 0.0414 0.846 0.14666 0.0
H388 H 0.97331 0.85718 0.18771 0.0
S389 S 0.91948 0.72684 0.06538 0.0
N390 N 0.97238 0.74236 0.06185 0.0
N391 N 0.89837 0.75468 0.10612 0.0
C392 C 0.935 0.77772 0.11928 0.0
C393 C 0.97502 0.77107 0.09526 0.0
C394 C 0.71938 0.4842 0.58773 0.0
C395 C 0.68904 0.5189 0.59657 0.0
C396 C 0.71669 0.44347 0.60952 0.0
C397 C 0.68378 0.43665 0.64075 0.0
H398 H 0.74188 0.48666 0.56088 0.0
H399 H 0.73723 0.41583 0.59879 0.0
S400 S 0.60377 0.52079 0.68187 0.0
N401 N 0.6306 0.54661 0.64328 0.0
N402 N 0.62599 0.47038 0.68454 0.0
C403 C 0.65735 0.4731 0.65342 0.0
C404 C 0.65986 0.51423 0.63117 0.0
C405 C 0.02615 0.18345 0.07431 0.0
C406 C 0.98082 0.17647 0.08376 0.0
C407 C 0.05929 0.17549 0.10478 0.0
C408 C 0.04806 0.16021 0.1456 0.0
H409 H 0.03623 0.1921 0.04236 0.0
H410 H 0.09406 0.17852 0.09555 0.0
S411 S 0.93354 0.13936 0.1862 0.0
N412 N 0.92595 0.15591 0.13682 0.0
N413 N 0.98807 0.14088 0.19433 0.0
C414 C 0.00254 0.15596 0.15612 0.0
C415 C 0.9689 0.16396 0.12502 0.0
C416 C 0.18453 0.73589 0.14527 0.0
C417 C 0.21585 0.75716 0.11877 0.0
C418 C 0.19443 0.72691 0.18776 0.0
C419 C 0.23626 0.73803 0.20496 0.0
H420 H 0.15117 0.72843 0.13389 0.0
H421 H 0.16882 0.71223 0.20764 0.0
S422 S 0.33143 0.78983 0.14831 0.0
N423 N 0.29151 0.78629 0.11226 0.0
N424 N 0.31029 0.76833 0.19213 0.0
C425 C 0.26877 0.75686 0.17841 0.0
C426 C 0.25852 0.76671 0.13528 0.0
C427 C 0.79701 0.72614 0.57819 0.0
C428 C 0.75038 0.7327 0.57937 0.0
C429 C 0.82602 0.75289 0.60218 0.0
C430 C 0.80968 0.78692 0.62886 0.0
H431 H 0.81151 0.70102 0.55751 0.0
H432 H 0.86169 0.74731 0.59938 0.0
S433 S 0.69066 0.81624 0.64603 0.0
N434 N 0.68919 0.77475 0.61131 0.0
N435 N 0.74406 0.82477 0.65662 0.0
C436 C 0.76321 0.79292 0.63172 0.0
C437 C 0.73352 0.76596 0.60688 0.0
C438 C 0.73077 0.22513 0.10217 0.0
C439 C 0.76653 0.24443 0.07944 0.0
C440 C 0.70214 0.25132 0.12748 0.0
C441 C 0.70799 0.29775 0.13066 0.0
H442 H 0.72403 0.18967 0.09956 0.0
H443 H 0.67408 0.23545 0.14311 0.0
S444 S 0.79762 0.36478 0.08072 0.0
N445 N 0.80736 0.31317 0.06451 0.0
N446 N 0.75305 0.36183 0.1115 0.0
C447 C 0.7444 0.31728 0.10972 0.0
C448 C 0.77383 0.29077 0.08434 0.0
C449 C 0.31669 0.23286 0.63843 0.0
C450 C 0.28638 0.26231 0.61887 0.0
C451 C 0.31103 0.21955 0.68054 0.0
C452 C 0.27458 0.23464 0.70475 0.0
H453 H 0.34609 0.22111 0.62169 0.0
H454 H 0.33577 0.19768 0.6945 0.0
S455 S 0.18379 0.30931 0.66842 0.0
N456 N 0.21702 0.30421 0.62679 0.0
N457 N 0.20652 0.27872 0.70611 0.0
C458 C 0.24296 0.26251 0.6854 0.0
C459 C 0.24885 0.27649 0.64247 0.0
C460 C 0.71623 0.75893 0.3731 0.0
C461 C 0.71839 0.71289 0.38175 0.0
C462 C 0.72431 0.77521 0.33214 0.0
C463 C 0.73399 0.7459 0.29846 0.0
H464 H 0.70739 0.78243 0.39797 0.0
H465 H 0.72122 0.81072 0.32639 0.0
S466 S 0.74391 0.62284 0.30403 0.0
N467 N 0.73204 0.63844 0.35309 0.0
N468 N 0.74616 0.66928 0.27604 0.0
C469 C 0.73718 0.70007 0.3067 0.0
C470 C 0.72973 0.68349 0.34843 0.0
C471 C 0.75773 0.18766 0.85339 0.0
C472 C 0.77952 0.22003 0.87859 0.0
C473 C 0.74811 0.19557 0.81072 0.0
C474 C 0.75924 0.23635 0.79166 0.0
H475 H 0.74992 0.15498 0.866 0.0
H476 H 0.73259 0.1692 0.79221 0.0
S477 S 0.81255 0.33376 0.84406 0.0
N478 N 0.80919 0.29575 0.88173 0.0
N479 N 0.79041 0.31061 0.80129 0.0
C480 C 0.77881 0.26993 0.81674 0.0
C481 C 0.78916 0.26175 0.86024 0.0
C482 C 0.19701 0.25781 0.42266 0.0
C483 C 0.24302 0.24763 0.42219 0.0
C484 C 0.16621 0.23252 0.39931 0.0
C485 C 0.18001 0.19623 0.37409 0.0
H486 H 0.18428 0.28489 0.4421 0.0
H487 H 0.13111 0.24122 0.40133 0.0
S488 S 0.29641 0.15659 0.35959 0.0
N489 N 0.3009 0.19936 0.39262 0.0
N490 N 0.24261 0.15196 0.34872 0.0
C491 C 0.22586 0.18635 0.37209 0.0
C492 C 0.25741 0.21192 0.39618 0.0
C493 C 0.28578 0.75695 0.92001 0.0
C494 C 0.23922 0.7497 0.91895 0.0
C495 C 0.31511 0.73112 0.89544 0.0
C496 C 0.29919 0.69743 0.86819 0.0
H497 H 0.30008 0.78154 0.94138 0.0
H498 H 0.35075 0.73675 0.89861 0.0
S499 S 0.18053 0.66739 0.85017 0.0
N500 N 0.17853 0.70792 0.88589 0.0
N501 N 0.23404 0.65976 0.83934 0.0
C502 C 0.25279 0.69119 0.86497 0.0
C503 C 0.22274 0.71716 0.89047 0.0
loop_
_geom_bond_atom_site_label_1
_geom_bond_atom_site_label_2
_geom_bond_distance
_geom_bond_site_symmetry_2
_ccdc_geom_bond_type
Sc0 O3 2.025 . S
Sc0 O10 2.105 1_554 S
Sc0 O13 2.105 . S
Sc0 O16 2.105 . S
Sc0 O19 2.105 1_554 S
Sc1 O3 2.025 . S
Sc1 O11 2.105 1_554 S
Sc1 O15 2.105 . S
Sc1 O17 2.105 . S
Sc1 O21 2.105 1_554 S
Sc2 O3 2.025 . S
Sc2 O12 2.105 1_554 S
Sc2 O14 2.105 . S
Sc2 O18 2.105 . S
Sc2 O20 2.105 1_554 S
O3 Sc0 2.025 . S
O3 Sc1 2.025 . S
O3 Sc2 2.025 . S
C4 O10 1.268 . S
C4 O20 1.268 . S
C5 O11 1.268 . S
C5 O19 1.268 . S
C6 O12 1.268 . S
C6 O21 1.268 . S
C7 O13 1.268 . S
C7 O17 1.268 . S
C8 O14 1.268 . S
C8 O16 1.268 . S
C9 O15 1.268 . S
C9 O18 1.268 . S
O10 Sc0 2.105 1_556 S
O10 C4 1.268 . S
O11 Sc1 2.105 1_556 S
O11 C5 1.268 . S
O12 Sc2 2.105 1_556 S
O12 C6 1.268 . S
O13 Sc0 2.105 . S
O13 C7 1.268 . S
O14 Sc2 2.105 . S
O14 C8 1.268 . S
O15 Sc1 2.105 . S
O15 C9 1.268 . S
O16 Sc0 2.105 . S
O16 C8 1.268 . S
O17 Sc1 2.105 . S
O17 C7 1.268 . S
O18 Sc2 2.105 . S
O18 C9 1.268 . S
O19 Sc0 2.105 1_556 S
O19 C5 1.268 . S
O20 Sc2 2.105 1_556 S
O20 C4 1.268 . S
O21 Sc1 2.105 1_556 S
O21 C6 1.268 . S
Sc22 O25 2.025 . S
Sc22 O32 2.105 . S
Sc22 O35 2.105 . S
Sc22 O38 2.105 . S
Sc22 O41 2.105 . S
Sc23 O25 2.025 . S
Sc23 O33 2.105 . S
Sc23 O37 2.105 . S
Sc23 O39 2.105 . S
Sc23 O43 2.105 . S
Sc24 O25 2.025 . S
Sc24 O34 2.105 . S
Sc24 O36 2.105 . S
Sc24 O40 2.105 . S
Sc24 O42 2.105 . S
O25 Sc22 2.025 . S
O25 Sc23 2.025 . S
O25 Sc24 2.025 . S
C26 O32 1.268 . S
C26 O42 1.268 . S
C27 O33 1.268 . S
C27 O41 1.268 . S
C28 O34 1.268 . S
C28 O43 1.268 . S
C29 O35 1.268 . S
C29 O39 1.268 . S
C30 O36 1.268 . S
C30 O38 1.268 . S
C31 O37 1.268 . S
C31 O40 1.268 . S
O32 Sc22 2.105 . S
O32 C26 1.268 . S
O33 Sc23 2.105 . S
O33 C27 1.268 . S
O34 Sc24 2.105 . S
O34 C28 1.268 . S
O35 Sc22 2.105 . S
O35 C29 1.268 . S
O36 Sc24 2.105 . S
O36 C30 1.268 . S
O37 Sc23 2.105 . S
O37 C31 1.268 . S
O38 Sc22 2.105 . S
O38 C30 1.268 . S
O39 Sc23 2.105 . S
O39 C29 1.268 . S
O40 Sc24 2.105 . S
O40 C31 1.268 . S
O41 Sc22 2.105 . S
O41 C27 1.268 . S
O42 Sc24 2.105 . S
O42 C26 1.268 . S
O43 Sc23 2.105 . S
O43 C28 1.268 . S
Sc44 O47 2.025 . S
Sc44 O54 2.105 1_554 S
Sc44 O57 2.105 . S
Sc44 O60 2.105 . S
Sc44 O63 2.105 1_554 S
Sc45 O47 2.025 . S
Sc45 O55 2.105 1_554 S
Sc45 O59 2.105 . S
Sc45 O61 2.105 . S
Sc45 O65 2.105 1_554 S
Sc46 O47 2.025 . S
Sc46 O56 2.105 1_554 S
Sc46 O58 2.105 . S
Sc46 O62 2.105 . S
Sc46 O64 2.105 1_554 S
O47 Sc44 2.025 . S
O47 Sc45 2.025 . S
O47 Sc46 2.025 . S
C48 O54 1.268 . S
C48 O64 1.268 . S
C49 O55 1.268 . S
C49 O63 1.268 . S
C50 O56 1.268 . S
C50 O65 1.268 . S
C51 O57 1.268 . S
C51 O61 1.268 . S
C52 O58 1.268 . S
C52 O60 1.268 . S
C53 O59 1.268 . S
C53 O62 1.268 . S
O54 Sc44 2.105 1_556 S
O54 C48 1.268 . S
O55 Sc45 2.105 1_556 S
O55 C49 1.268 . S
O56 Sc46 2.105 1_556 S
O56 C50 1.268 . S
O57 Sc44 2.105 . S
O57 C51 1.268 . S
O58 Sc46 2.105 . S
O58 C52 1.268 . S
O59 Sc45 2.105 . S
O59 C53 1.268 . S
O60 Sc44 2.105 . S
O60 C52 1.268 . S
O61 Sc45 2.105 . S
O61 C51 1.268 . S
O62 Sc46 2.105 . S
O62 C53 1.268 . S
O63 Sc44 2.105 1_556 S
O63 C49 1.268 . S
O64 Sc46 2.105 1_556 S
O64 C48 1.268 . S
O65 Sc45 2.105 1_556 S
O65 C50 1.268 . S
Sc66 O69 2.025 . S
Sc66 O76 2.105 . S
Sc66 O79 2.105 . S
Sc66 O82 2.105 . S
Sc66 O85 2.105 . S
Sc67 O69 2.025 . S
Sc67 O77 2.105 . S
Sc67 O81 2.105 . S
Sc67 O83 2.105 . S
Sc67 O87 2.105 . S
Sc68 O69 2.025 . S
Sc68 O78 2.105 . S
Sc68 O80 2.105 . S
Sc68 O84 2.105 . S
Sc68 O86 2.105 . S
O69 Sc66 2.025 . S
O69 Sc67 2.025 . S
O69 Sc68 2.025 . S
C70 O76 1.268 . S
C70 O86 1.268 . S
C71 O77 1.268 . S
C71 O85 1.268 . S
C72 O78 1.268 . S
C72 O87 1.268 . S
C73 O79 1.268 . S
C73 O83 1.268 . S
C74 O80 1.268 . S
C74 O82 1.268 . S
C75 O81 1.268 . S
C75 O84 1.268 . S
O76 Sc66 2.105 . S
O76 C70 1.268 . S
O77 Sc67 2.105 . S
O77 C71 1.268 . S
O78 Sc68 2.105 . S
O78 C72 1.268 . S
O79 Sc66 2.105 . S
O79 C73 1.268 . S
O80 Sc68 2.105 . S
O80 C74 1.268 . S
O81 Sc67 2.105 . S
O81 C75 1.268 . S
O82 Sc66 2.105 . S
O82 C74 1.268 . S
O83 Sc67 2.105 . S
O83 C73 1.268 . S
O84 Sc68 2.105 . S
O84 C75 1.268 . S
O85 Sc66 2.105 . S
O85 C71 1.268 . S
O86 Sc68 2.105 . S
O86 C70 1.268 . S
O87 Sc67 2.105 . S
O87 C72 1.268 . S
H88 C89 0.949 . S
C89 H88 0.949 . S
C89 C90 1.395 . S
C89 C91 1.391 . S
C90 C89 1.395 . S
C90 C93 1.390 . S
C91 C89 1.391 . S
C91 C95 1.387 . S
C91 C96 1.491 . S
H92 C93 0.950 . S
C93 C90 1.390 . S
C93 H92 0.950 . S
C93 C94 1.378 . S
C94 C93 1.378 . S
C94 C95 1.409 . S
C95 C91 1.387 . S
C95 C94 1.409 . S
C95 H97 0.951 . S
C96 C91 1.491 . S
C96 C98 1.382 . S
C96 C100 1.404 . S
H97 C95 0.951 . S
C98 C96 1.382 . S
C98 C99 1.390 . S
C98 H103 0.949 . S
C99 C98 1.390 . S
C99 C104 1.399 . S
C100 C96 1.404 . S
C100 H101 0.950 . S
C100 C102 1.375 . S
H101 C100 0.950 . S
C102 C100 1.375 . S
C102 C104 1.382 . S
C102 H106 0.950 . S
H103 C98 0.949 . S
C104 C99 1.399 . S
C104 C102 1.382 . S
C104 H105 0.952 . S
H105 C104 0.952 . S
H106 C102 0.950 . S
H107 C108 0.949 . S
C108 H107 0.949 . S
C108 C109 1.395 . S
C108 C110 1.391 . S
C109 C108 1.395 . S
C109 C112 1.390 . S
C110 C108 1.391 . S
C110 C114 1.387 . S
C110 C115 1.491 . S
H111 C112 0.950 . S
C112 C109 1.390 . S
C112 H111 0.950 . S
C112 C113 1.378 . S
C113 C112 1.378 . S
C113 C114 1.409 . S
C114 C110 1.387 . S
C114 C113 1.409 . S
C114 H116 0.951 . S
C115 C110 1.491 . S
C115 C117 1.382 . S
C115 C119 1.404 . S
H116 C114 0.951 . S
C117 C115 1.382 . S
C117 C118 1.390 . S
C117 H122 0.949 . S
C118 C117 1.390 . S
C118 C123 1.399 . S
C119 C115 1.404 . S
C119 H120 0.950 . S
C119 C121 1.375 . S
H120 C119 0.950 . S
C121 C119 1.375 . S
C121 C123 1.382 . S
C121 H125 0.950 . S
H122 C117 0.949 . S
C123 C118 1.399 . S
C123 C121 1.382 . S
C123 H124 0.952 . S
H124 C123 0.952 . S
H125 C121 0.950 . S
H126 C127 0.949 . S
C127 H126 0.949 . S
C127 C128 1.395 . S
C127 C129 1.391 . S
C128 C127 1.395 . S
C128 C131 1.390 . S
C129 C127 1.391 . S
C129 C133 1.387 . S
C129 C134 1.491 . S
H130 C131 0.950 . S
C131 C128 1.390 . S
C131 H130 0.950 . S
C131 C132 1.378 . S
C132 C131 1.378 . S
C132 C133 1.409 . S
C133 C129 1.387 . S
C133 C132 1.409 . S
C133 H135 0.951 . S
C134 C129 1.491 . S
C134 C136 1.382 . S
C134 C138 1.404 . S
H135 C133 0.951 . S
C136 C134 1.382 . S
C136 C137 1.390 . S
C136 H141 0.949 . S
C137 C136 1.390 . S
C137 C142 1.399 . S
C138 C134 1.404 . S
C138 H139 0.950 . S
C138 C140 1.375 . S
H139 C138 0.950 . S
C140 C138 1.375 . S
C140 C142 1.382 . S
C140 H144 0.950 . S
H141 C136 0.949 . S
C142 C137 1.399 . S
C142 C140 1.382 . S
C142 H143 0.952 . S
H143 C142 0.952 . S
H144 C140 0.950 . S
H145 C146 0.949 . S
C146 H145 0.949 . S
C146 C147 1.395 . S
C146 C148 1.391 . S
C147 C146 1.395 . S
C147 C150 1.390 . S
C148 C146 1.391 . S
C148 C152 1.387 . S
C148 C153 1.491 . S
H149 C150 0.950 . S
C150 C147 1.390 . S
C150 H149 0.950 . S
C150 C151 1.378 . S
C151 C150 1.378 . S
C151 C152 1.409 . S
C152 C148 1.387 . S
C152 C151 1.409 . S
C152 H154 0.951 . S
C153 C148 1.491 . S
C153 C155 1.382 . S
C153 C157 1.404 . S
H154 C152 0.951 . S
C155 C153 1.382 . S
C155 C156 1.390 . S
C155 H160 0.949 . S
C156 C155 1.390 . S
C156 C161 1.399 . S
C157 C153 1.404 . S
C157 H158 0.950 . S
C157 C159 1.375 . S
H158 C157 0.950 . S
C159 C157 1.375 . S
C159 C161 1.382 . S
C159 H163 0.950 . S
H160 C155 0.949 . S
C161 C156 1.399 . S
C161 C159 1.382 . S
C161 H162 0.952 . S
H162 C161 0.952 . S
H163 C159 0.950 . S
H164 C165 0.949 . S
C165 H164 0.949 . S
C165 C166 1.395 . S
C165 C167 1.391 . S
C166 C165 1.395 . S
C166 C169 1.390 . S
C167 C165 1.391 . S
C167 C171 1.387 . S
C167 C172 1.491 . S
H168 C169 0.950 . S
C169 C166 1.390 . S
C169 H168 0.950 . S
C169 C170 1.378 . S
C170 C169 1.378 . S
C170 C171 1.409 . S
C171 C167 1.387 . S
C171 C170 1.409 . S
C171 H173 0.951 . S
C172 C167 1.491 . S
C172 C174 1.382 . S
C172 C176 1.404 . S
H173 C171 0.951 . S
C174 C172 1.382 . S
C174 C175 1.390 . S
C174 H179 0.949 . S
C175 C174 1.390 . S
C175 C180 1.399 . S
C176 C172 1.404 . S
C176 H177 0.950 . S
C176 C178 1.375 . S
H177 C176 0.950 . S
C178 C176 1.375 . S
C178 C180 1.382 . S
C178 H182 0.950 . S
H179 C174 0.949 . S
C180 C175 1.399 . S
C180 C178 1.382 . S
C180 H181 0.952 . S
H181 C180 0.952 . S
H182 C178 0.950 . S
H183 C184 0.949 . S
C184 H183 0.949 . S
C184 C185 1.395 . S
C184 C186 1.391 . S
C185 C184 1.395 . S
C185 C188 1.390 . S
C186 C184 1.391 . S
C186 C190 1.387 . S
C186 C191 1.491 . S
H187 C188 0.950 . S
C188 C185 1.390 . S
C188 H187 0.950 . S
C188 C189 1.378 . S
C189 C188 1.378 . S
C189 C190 1.409 . S
C190 C186 1.387 . S
C190 C189 1.409 . S
C190 H192 0.951 . S
C191 C186 1.491 . S
C191 C193 1.382 . S
C191 C195 1.404 . S
H192 C190 0.951 . S
C193 C191 1.382 . S
C193 C194 1.390 . S
C193 H198 0.949 . S
C194 C193 1.390 . S
C194 C199 1.399 . S
C195 C191 1.404 . S
C195 H196 0.950 . S
C195 C197 1.375 . S
H196 C195 0.950 . S
C197 C195 1.375 . S
C197 C199 1.382 . S
C197 H201 0.950 . S
H198 C193 0.949 . S
C199 C194 1.399 . S
C199 C197 1.382 . S
C199 H200 0.952 . S
H200 C199 0.952 . S
H201 C197 0.950 . S
H202 C203 0.949 . S
C203 H202 0.949 . S
C203 C204 1.395 . S
C203 C205 1.391 . S
C204 C203 1.395 . S
C204 C207 1.390 . S
C205 C203 1.391 . S
C205 C209 1.387 . S
C205 C210 1.491 . S
H206 C207 0.950 . S
C207 C204 1.390 . S
C207 H206 0.950 . S
C207 C208 1.378 . S
C208 C207 1.378 . S
C208 C209 1.409 . S
C209 C205 1.387 . S
C209 C208 1.409 . S
C209 H211 0.951 . S
C210 C205 1.491 . S
C210 C212 1.382 . S
C210 C214 1.404 . S
H211 C209 0.951 . S
C212 C210 1.382 . S
C212 C213 1.390 . S
C212 H217 0.949 . S
C213 C212 1.390 . S
C213 C218 1.399 . S
C214 C210 1.404 . S
C214 H215 0.950 . S
C214 C216 1.375 . S
H215 C214 0.950 . S
C216 C214 1.375 . S
C216 C218 1.382 . S
C216 H220 0.950 . S
H217 C212 0.949 . S
C218 C213 1.399 . S
C218 C216 1.382 . S
C218 H219 0.952 . S
H219 C218 0.952 . S
H220 C216 0.950 . S
H221 C222 0.949 . S
C222 H221 0.949 . S
C222 C223 1.395 . S
C222 C224 1.391 . S
C223 C222 1.395 . S
C223 C226 1.390 . S
C224 C222 1.391 . S
C224 C228 1.387 . S
C224 C229 1.491 . S
H225 C226 0.950 . S
C226 C223 1.390 . S
C226 H225 0.950 . S
C226 C227 1.378 . S
C227 C226 1.378 . S
C227 C228 1.409 . S
C228 C224 1.387 . S
C228 C227 1.409 . S
C228 H230 0.951 . S
C229 C224 1.491 . S
C229 C231 1.382 . S
C229 C233 1.404 . S
H230 C228 0.951 . S
C231 C229 1.382 . S
C231 C232 1.390 . S
C231 H236 0.949 . S
C232 C231 1.390 . S
C232 C237 1.399 . S
C233 C229 1.404 . S
C233 H234 0.950 . S
C233 C235 1.375 . S
H234 C233 0.950 . S
C235 C233 1.375 . S
C235 C237 1.382 . S
C235 H239 0.950 . S
H236 C231 0.949 . S
C237 C232 1.399 . S
C237 C235 1.382 . S
C237 H238 0.952 . S
H238 C237 0.952 . S
H239 C235 0.950 . S
C240 C241 1.369 . S
C240 C242 1.419 1_565 S
C240 H244 0.930 . S
C241 C240 1.369 . S
C241 C250 1.429 1_565 S
C242 C240 1.419 1_545 S
C242 C243 1.363 . S
C242 H245 0.929 . S
C243 C242 1.363 . S
C243 C249 1.428 . S
H244 C240 0.930 . S
H245 C242 0.929 . S
S246 N247 1.613 . S
S246 N248 1.610 . S
N247 S246 1.613 . S
N247 C250 1.350 . S
N248 S246 1.610 . S
N248 C249 1.351 . S
C249 C243 1.428 . S
C249 N248 1.351 . S
C249 C250 1.434 . S
C250 C241 1.429 1_545 S
C250 N247 1.350 . S
C250 C249 1.434 . S
C251 C252 1.369 . S
C251 C253 1.419 . S
C251 H255 0.930 . S
C252 C251 1.369 . S
C252 C261 1.429 . S
C253 C251 1.419 . S
C253 C254 1.363 . S
C253 H256 0.929 . S
C254 C253 1.363 . S
C254 C260 1.428 . S
H255 C251 0.930 . S
H256 C253 0.929 . S
S257 N258 1.613 . S
S257 N259 1.610 . S
N258 S257 1.613 . S
N258 C261 1.350 . S
N259 S257 1.610 . S
N259 C260 1.351 . S
C260 C254 1.428 . S
C260 N259 1.351 . S
C260 C261 1.434 . S
C261 C252 1.429 . S
C261 N258 1.350 . S
C261 C260 1.434 . S
C262 C263 1.369 1_565 S
C262 C264 1.419 . S
C262 H266 0.930 . S
C263 C262 1.369 1_545 S
C263 C272 1.429 . S
C264 C262 1.419 . S
C264 C265 1.363 . S
C264 H267 0.929 . S
C265 C264 1.363 . S
C265 C271 1.428 . S
H266 C262 0.930 . S
H267 C264 0.929 . S
S268 N269 1.613 . S
S268 N270 1.610 1_545 S
N269 S268 1.613 . S
N269 C272 1.350 . S
N270 S268 1.610 1_565 S
N270 C271 1.351 . S
C271 C265 1.428 . S
C271 N270 1.351 . S
C271 C272 1.434 1_565 S
C272 C263 1.429 . S
C272 N269 1.350 . S
C272 C271 1.434 1_545 S
C273 C274 1.369 . S
C273 C275 1.419 . S
C273 H277 0.930 . S
C274 C273 1.369 . S
C274 C283 1.429 . S
C275 C273 1.419 . S
C275 C276 1.363 . S
C275 H278 0.929 . S
C276 C275 1.363 . S
C276 C282 1.428 . S
H277 C273 0.930 . S
H278 C275 0.929 . S
S279 N280 1.613 . S
S279 N281 1.610 . S
N280 S279 1.613 . S
N280 C283 1.350 . S
N281 S279 1.610 . S
N281 C282 1.351 . S
C282 C276 1.428 . S
C282 N281 1.351 . S
C282 C283 1.434 . S
C283 C274 1.429 . S
C283 N280 1.350 . S
C283 C282 1.434 . S
C284 C285 1.369 . S
C284 C286 1.419 . S
C284 H288 0.930 . S
C285 C284 1.369 . S
C285 C294 1.429 . S
C286 C284 1.419 . S
C286 C287 1.363 . S
C286 H289 0.929 . S
C287 C286 1.363 . S
C287 C293 1.428 . S
H288 C284 0.930 . S
H289 C286 0.929 . S
S290 N291 1.613 . S
S290 N292 1.610 . S
N291 S290 1.613 . S
N291 C294 1.350 . S
N292 S290 1.610 . S
N292 C293 1.351 . S
C293 C287 1.428 . S
C293 N292 1.351 . S
C293 C294 1.434 . S
C294 C285 1.429 . S
C294 N291 1.350 . S
C294 C293 1.434 . S
C295 C296 1.369 1_455 S
C295 C297 1.419 . S
C295 H299 0.930 . S
C296 C295 1.369 1_655 S
C296 C305 1.429 . S
C297 C295 1.419 . S
C297 C298 1.363 . S
C297 H300 0.929 . S
C298 C297 1.363 . S
C298 C304 1.428 . S
H299 C295 0.930 . S
H300 C297 0.929 . S
S301 N302 1.613 . S
S301 N303 1.610 1_655 S
N302 S301 1.613 . S
N302 C305 1.350 . S
N303 S301 1.610 1_455 S
N303 C304 1.351 . S
C304 C298 1.428 . S
C304 N303 1.351 . S
C304 C305 1.434 1_455 S
C305 C296 1.429 . S
C305 N302 1.350 . S
C305 C304 1.434 1_655 S
C306 C307 1.369 . S
C306 C308 1.419 . S
C306 H310 0.930 . S
C307 C306 1.369 . S
C307 C316 1.429 . S
C308 C306 1.419 . S
C308 C309 1.363 . S
C308 H311 0.929 . S
C309 C308 1.363 . S
C309 C315 1.428 . S
H310 C306 0.930 . S
H311 C308 0.929 . S
S312 N313 1.613 . S
S312 N314 1.610 . S
N313 S312 1.613 . S
N313 C316 1.350 . S
N314 S312 1.610 . S
N314 C315 1.351 . S
C315 C309 1.428 . S
C315 N314 1.351 . S
C315 C316 1.434 . S
C316 C307 1.429 . S
C316 N313 1.350 . S
C316 C315 1.434 . S
C317 C318 1.369 . S
C317 C319 1.419 1_455 S
C317 H321 0.930 . S
C318 C317 1.369 . S
C318 C327 1.429 1_455 S
C319 C317 1.419 1_655 S
C319 C320 1.363 . S
C319 H322 0.929 . S
C320 C319 1.363 . S
C320 C326 1.428 . S
H321 C317 0.930 . S
H322 C319 0.929 . S
S323 N324 1.613 . S
S323 N325 1.610 . S
N324 S323 1.613 . S
N324 C327 1.350 . S
N325 S323 1.610 . S
N325 C326 1.351 . S
C326 C320 1.428 . S
C326 N325 1.351 . S
C326 C327 1.434 . S
C327 C318 1.429 1_655 S
C327 N324 1.350 . S
C327 C326 1.434 . S
C328 C329 1.369 1_565 S
C328 C330 1.419 . S
C328 H332 0.930 . S
C329 C328 1.369 1_545 S
C329 C338 1.429 . S
C330 C328 1.419 . S
C330 C331 1.363 . S
C330 H333 0.929 . S
C331 C330 1.363 . S
C331 C337 1.428 . S
H332 C328 0.930 . S
H333 C330 0.929 . S
S334 N335 1.613 . S
S334 N336 1.610 1_545 S
N335 S334 1.613 . S
N335 C338 1.350 . S
N336 S334 1.610 1_565 S
N336 C337 1.351 . S
C337 C331 1.428 . S
C337 N336 1.351 . S
C337 C338 1.434 1_565 S
C338 C329 1.429 . S
C338 N335 1.350 . S
C338 C337 1.434 1_545 S
C339 C340 1.369 . S
C339 C341 1.419 . S
C339 H343 0.930 . S
C340 C339 1.369 . S
C340 C349 1.429 . S
C341 C339 1.419 . S
C341 C342 1.363 . S
C341 H344 0.929 . S
C342 C341 1.363 . S
C342 C348 1.428 . S
H343 C339 0.930 . S
H344 C341 0.929 . S
S345 N346 1.613 . S
S345 N347 1.610 . S
N346 S345 1.613 . S
N346 C349 1.350 . S
N347 S345 1.610 . S
N347 C348 1.351 . S
C348 C342 1.428 . S
C348 N347 1.351 . S
C348 C349 1.434 . S
C349 C340 1.429 . S
C349 N346 1.350 . S
C349 C348 1.434 . S
C350 C351 1.369 1_545 S
C350 C352 1.419 . S
C350 H354 0.930 . S
C351 C350 1.369 1_565 S
C351 C360 1.429 . S
C352 C350 1.419 . S
C352 C353 1.363 . S
C352 H355 0.929 . S
C353 C352 1.363 . S
C353 C359 1.428 . S
H354 C350 0.930 . S
H355 C352 0.929 . S
S356 N357 1.613 . S
S356 N358 1.610 1_565 S
N357 S356 1.613 . S
N357 C360 1.350 . S
N358 S356 1.610 1_545 S
N358 C359 1.351 . S
C359 C353 1.428 . S
C359 N358 1.351 . S
C359 C360 1.434 1_545 S
C360 C351 1.429 . S
C360 N357 1.350 . S
C360 C359 1.434 1_565 S
C361 C362 1.369 . S
C361 C363 1.419 . S
C361 H365 0.930 . S
C362 C361 1.369 . S
C362 C371 1.429 . S
C363 C361 1.419 . S
C363 C364 1.363 . S
C363 H366 0.929 . S
C364 C363 1.363 . S
C364 C370 1.428 . S
H365 C361 0.930 . S
H366 C363 0.929 . S
S367 N368 1.613 . S
S367 N369 1.610 . S
N368 S367 1.613 . S
N368 C371 1.350 . S
N369 S367 1.610 . S
N369 C370 1.351 . S
C370 C364 1.428 . S
C370 N369 1.351 . S
C370 C371 1.434 . S
C371 C362 1.429 . S
C371 N368 1.350 . S
C371 C370 1.434 . S
C372 C373 1.369 . S
C372 C374 1.419 . S
C372 H376 0.930 . S
C373 C372 1.369 . S
C373 C382 1.429 . S
C374 C372 1.419 . S
C374 C375 1.363 . S
C374 H377 0.929 . S
C375 C374 1.363 . S
C375 C381 1.428 . S
H376 C372 0.930 . S
H377 C374 0.929 . S
S378 N379 1.613 . S
S378 N380 1.610 . S
N379 S378 1.613 . S
N379 C382 1.350 . S
N380 S378 1.610 . S
N380 C381 1.351 . S
C381 C375 1.428 . S
C381 N380 1.351 . S
C381 C382 1.434 . S
C382 C373 1.429 . S
C382 N379 1.350 . S
C382 C381 1.434 . S
C383 C384 1.369 . S
C383 C385 1.419 1_455 S
C383 H387 0.930 . S
C384 C383 1.369 . S
C384 C393 1.429 1_455 S
C385 C383 1.419 1_655 S
C385 C386 1.363 . S
C385 H388 0.929 . S
C386 C385 1.363 . S
C386 C392 1.428 . S
H387 C383 0.930 . S
H388 C385 0.929 . S
S389 N390 1.613 . S
S389 N391 1.610 . S
N390 S389 1.613 . S
N390 C393 1.350 . S
N391 S389 1.610 . S
N391 C392 1.351 . S
C392 C386 1.428 . S
C392 N391 1.351 . S
C392 C393 1.434 . S
C393 C384 1.429 1_655 S
C393 N390 1.350 . S
C393 C392 1.434 . S
C394 C395 1.369 . S
C394 C396 1.419 . S
C394 H398 0.930 . S
C395 C394 1.369 . S
C395 C404 1.429 . S
C396 C394 1.419 . S
C396 C397 1.363 . S
C396 H399 0.929 . S
C397 C396 1.363 . S
C397 C403 1.428 . S
H398 C394 0.930 . S
H399 C396 0.929 . S
S400 N401 1.613 . S
S400 N402 1.610 . S
N401 S400 1.613 . S
N401 C404 1.350 . S
N402 S400 1.610 . S
N402 C403 1.351 . S
C403 C397 1.428 . S
C403 N402 1.351 . S
C403 C404 1.434 . S
C404 C395 1.429 . S
C404 N401 1.350 . S
C404 C403 1.434 . S
C405 C406 1.369 1_455 S
C405 C407 1.419 . S
C405 H409 0.930 . S
C406 C405 1.369 1_655 S
C406 C415 1.432 . S
C407 C405 1.419 . S
C407 C408 1.363 . S
C407 H410 0.929 . S
C408 C407 1.363 . S
C408 C414 1.428 . S
H409 C405 0.930 . S
H410 C407 0.929 . S
S411 N412 1.612 . S
S411 N413 1.612 1_655 S
N412 S411 1.612 . S
N412 C415 1.358 . S
N413 S411 1.612 1_455 S
N413 C414 1.351 . S
C414 C408 1.428 . S
C414 N413 1.351 . S
C414 C415 1.422 1_455 S
C415 C406 1.432 . S
C415 N412 1.358 . S
C415 C414 1.422 1_655 S
C416 C417 1.369 . S
C416 C418 1.419 . S
C416 H420 0.930 . S
C417 C416 1.369 . S
C417 C426 1.429 . S
C418 C416 1.419 . S
C418 C419 1.363 . S
C418 H421 0.929 . S
C419 C418 1.363 . S
C419 C425 1.428 . S
H420 C416 0.930 . S
H421 C418 0.929 . S
S422 N423 1.613 . S
S422 N424 1.610 . S
N423 S422 1.613 . S
N423 C426 1.350 . S
N424 S422 1.610 . S
N424 C425 1.351 . S
C425 C419 1.428 . S
C425 N424 1.351 . S
C425 C426 1.434 . S
C426 C417 1.429 . S
C426 N423 1.350 . S
C426 C425 1.434 . S
C427 C428 1.369 . S
C427 C429 1.419 . S
C427 H431 0.930 . S
C428 C427 1.369 . S
C428 C437 1.429 . S
C429 C427 1.419 . S
C429 C430 1.363 . S
C429 H432 0.929 . S
C430 C429 1.363 . S
C430 C436 1.428 . S
H431 C427 0.930 . S
H432 C429 0.929 . S
S433 N434 1.613 . S
S433 N435 1.610 . S
N434 S433 1.613 . S
N434 C437 1.350 . S
N435 S433 1.610 . S
N435 C436 1.351 . S
C436 C430 1.428 . S
C436 N435 1.351 . S
C436 C437 1.434 . S
C437 C428 1.429 . S
C437 N434 1.350 . S
C437 C436 1.434 . S
C438 C439 1.369 . S
C438 C440 1.419 . S
C438 H442 0.930 . S
C439 C438 1.369 . S
C439 C448 1.429 . S
C440 C438 1.419 . S
C440 C441 1.363 . S
C440 H443 0.929 . S
C441 C440 1.363 . S
C441 C447 1.428 . S
H442 C438 0.930 . S
H443 C440 0.929 . S
S444 N445 1.613 . S
S444 N446 1.610 . S
N445 S444 1.613 . S
N445 C448 1.350 . S
N446 S444 1.610 . S
N446 C447 1.351 . S
C447 C441 1.428 . S
C447 N446 1.351 . S
C447 C448 1.434 . S
C448 C439 1.429 . S
C448 N445 1.350 . S
C448 C447 1.434 . S
C449 C450 1.369 . S
C449 C451 1.419 . S
C449 H453 0.930 . S
C450 C449 1.369 . S
C450 C459 1.429 . S
C451 C449 1.419 . S
C451 C452 1.363 . S
C451 H454 0.929 . S
C452 C451 1.363 . S
C452 C458 1.428 . S
H453 C449 0.930 . S
H454 C451 0.929 . S
S455 N456 1.613 . S
S455 N457 1.610 . S
N456 S455 1.613 . S
N456 C459 1.350 . S
N457 S455 1.610 . S
N457 C458 1.351 . S
C458 C452 1.428 . S
C458 N457 1.351 . S
C458 C459 1.434 . S
C459 C450 1.429 . S
C459 N456 1.350 . S
C459 C458 1.434 . S
C460 C461 1.369 . S
C460 C462 1.419 . S
C460 H464 0.930 . S
C461 C460 1.369 . S
C461 C470 1.429 . S
C462 C460 1.419 . S
C462 C463 1.363 . S
C462 H465 0.929 . S
C463 C462 1.363 . S
C463 C469 1.428 . S
H464 C460 0.930 . S
H465 C462 0.929 . S
S466 N467 1.613 . S
S466 N468 1.610 . S
N467 S466 1.613 . S
N467 C470 1.350 . S
N468 S466 1.610 . S
N468 C469 1.351 . S
C469 C463 1.428 . S
C469 N468 1.351 . S
C469 C470 1.434 . S
C470 C461 1.429 . S
C470 N467 1.350 . S
C470 C469 1.434 . S
C471 C472 1.369 . S
C471 C473 1.419 . S
C471 H475 0.930 . S
C472 C471 1.369 . S
C472 C481 1.429 . S
C473 C471 1.419 . S
C473 C474 1.363 . S
C473 H476 0.929 . S
C474 C473 1.363 . S
C474 C480 1.428 . S
H475 C471 0.930 . S
H476 C473 0.929 . S
S477 N478 1.613 . S
S477 N479 1.610 . S
N478 S477 1.613 . S
N478 C481 1.350 . S
N479 S477 1.610 . S
N479 C480 1.351 . S
C480 C474 1.428 . S
C480 N479 1.351 . S
C480 C481 1.434 . S
C481 C472 1.429 . S
C481 N478 1.350 . S
C481 C480 1.434 . S
C482 C483 1.369 . S
C482 C484 1.419 . S
C482 H486 0.930 . S
C483 C482 1.369 . S
C483 C492 1.429 . S
C484 C482 1.419 . S
C484 C485 1.363 . S
C484 H487 0.929 . S
C485 C484 1.363 . S
C485 C491 1.428 . S
H486 C482 0.930 . S
H487 C484 0.929 . S
S488 N489 1.613 . S
S488 N490 1.610 . S
N489 S488 1.613 . S
N489 C492 1.350 . S
N490 S488 1.610 . S
N490 C491 1.351 . S
C491 C485 1.428 . S
C491 N490 1.351 . S
C491 C492 1.434 . S
C492 C483 1.429 . S
C492 N489 1.350 . S
C492 C491 1.434 . S
C493 C494 1.369 . S
C493 C495 1.419 . S
C493 H497 0.930 . S
C494 C493 1.369 . S
C494 C503 1.429 . S
C495 C493 1.419 . S
C495 C496 1.363 . S
C495 H498 0.929 . S
C496 C495 1.363 . S
C496 C502 1.428 . S
H497 C493 0.930 . S
H498 C495 0.929 . S
S499 N500 1.613 . S
S499 N501 1.610 . S
N500 S499 1.613 . S
N500 C503 1.350 . S
N501 S499 1.610 . S
N501 C502 1.351 . S
C502 C496 1.428 . S
C502 N501 1.351 . S
C502 C503 1.434 . S
C503 C494 1.429 . S
C503 N500 1.350 . S
C503 C502 1.434 . S
C241 C8 1.468 . S
C243 C90 1.375 . S
C252 C31 1.524 . S
C254 C109 1.434 . S
C263 C53 1.281 . S
C265 C132 1.273 . S
C276 C151 1.221 . S
C274 C74 1.222 . S
C287 C166 1.378 . S
C285 C26 1.467 . S
C296 C48 1.228 . S
C298 C189 1.225 . S
C307 C71 1.274 . S
C309 C208 1.269 . S
C318 C5 1.521 . S
C320 C223 1.434 . S
C329 C50 1.281 . S
C331 C227 1.277 . S
C342 C170 1.219 . S
C340 C70 1.222 . S
C353 C185 1.386 . S
C351 C4 1.472 . S
C362 C28 1.519 . S
C364 C204 1.428 . S
C375 C113 1.269 . S
C373 C73 1.276 . S
C384 C7 1.519 . S
C386 C128 1.424 . S
C397 C147 1.380 . S
C395 C30 1.472 . S
C408 C94 1.222 . S
C406 C52 1.225 . S
C419 C213 1.321 . S
C417 C9 1.432 . S
C430 C232 1.327 . S
C428 C29 1.439 . S
C439 C51 1.365 . S
C441 C175 1.253 . S
C452 C194 1.247 . S
C450 C75 1.364 . S
C463 C137 1.311 . S
C461 C27 1.439 . S
C472 C49 1.362 . S
C474 C156 1.258 . S
C485 C99 1.250 . S
C483 C72 1.362 . S
C496 C118 1.329 . S
C494 C6 1.441 . S
