# Generated by pormake.
# Topology csq, (4,8)-cn, num edge types: 1
# Building blocks:
#     Node 0, Type 0, BuildingBlock: NAHDIM_clean_linker_0, # of connection points: 4
#     Node 1, Type 0, BuildingBlock: NAHDIM_clean_linker_0, # of connection points: 4
#     Node 2, Type 0, BuildingBlock: NAHDIM_clean_linker_0, # of connection points: 4
#     Node 3, Type 0, BuildingBlock: NAHDIM_clean_linker_0, # of connection points: 4
#     Node 4, Type 0, BuildingBlock: NAHDIM_clean_linker_0, # of connection points: 4
#     Node 5, Type 0, BuildingBlock: NAHDIM_clean_linker_0, # of connection points: 4
#     Node 6, Type 1, BuildingBlock: TAGTUT_clean_sbu_3, # of connection points: 8
#     Node 7, Type 1, BuildingBlock: TAGTUT_clean_sbu_3, # of connection points: 8
#     Node 8, Type 1, BuildingBlock: TAGTUT_clean_sbu_3, # of connection points: 8
#     Edge 9, Type (0, 1), BuildingBlock: MIFKUJ_clean_linker_0, # of connection points: 2
#     Edge 10, Type (0, 1), BuildingBlock: MIFKUJ_clean_linker_0, # of connection points: 2
#     Edge 11, Type (0, 1), BuildingBlock: MIFKUJ_clean_linker_0, # of connection points: 2
#     Edge 12, Type (0, 1), BuildingBlock: MIFKUJ_clean_linker_0, # of connection points: 2
#     Edge 13, Type (0, 1), BuildingBlock: MIFKUJ_clean_linker_0, # of connection points: 2
#     Edge 14, Type (0, 1), BuildingBlock: MIFKUJ_clean_linker_0, # of connection points: 2
#     Edge 15, Type (0, 1), BuildingBlock: MIFKUJ_clean_linker_0, # of connection points: 2
#     Edge 16, Type (0, 1), BuildingBlock: MIFKUJ_clean_linker_0, # of connection points: 2
#     Edge 17, Type (0, 1), BuildingBlock: MIFKUJ_clean_linker_0, # of connection points: 2
#     Edge 18, Type (0, 1), BuildingBlock: MIFKUJ_clean_linker_0, # of connection points: 2
#     Edge 19, Type (0, 1), BuildingBlock: MIFKUJ_clean_linker_0, # of connection points: 2
#     Edge 20, Type (0, 1), BuildingBlock: MIFKUJ_clean_linker_0, # of connection points: 2
#     Edge 21, Type (0, 1), BuildingBlock: MIFKUJ_clean_linker_0, # of connection points: 2
#     Edge 22, Type (0, 1), BuildingBlock: MIFKUJ_clean_linker_0, # of connection points: 2
#     Edge 23, Type (0, 1), BuildingBlock: MIFKUJ_clean_linker_0, # of connection points: 2
#     Edge 24, Type (0, 1), BuildingBlock: MIFKUJ_clean_linker_0, # of connection points: 2
#     Edge 25, Type (0, 1), BuildingBlock: MIFKUJ_clean_linker_0, # of connection points: 2
#     Edge 26, Type (0, 1), BuildingBlock: MIFKUJ_clean_linker_0, # of connection points: 2
#     Edge 27, Type (0, 1), BuildingBlock: MIFKUJ_clean_linker_0, # of connection points: 2
#     Edge 28, Type (0, 1), BuildingBlock: MIFKUJ_clean_linker_0, # of connection points: 2
#     Edge 29, Type (0, 1), BuildingBlock: MIFKUJ_clean_linker_0, # of connection points: 2
#     Edge 30, Type (0, 1), BuildingBlock: MIFKUJ_clean_linker_0, # of connection points: 2
#     Edge 31, Type (0, 1), BuildingBlock: MIFKUJ_clean_linker_0, # of connection points: 2
#     Edge 32, Type (0, 1), BuildingBlock: MIFKUJ_clean_linker_0, # of connection points: 2
# Relax obj value: 0.052
# Max RMSD: 0.125
# Mean RMSD: 0.094
data_MOF--net-csq--node1-TAGTUT_clean_sbu_3--node2-NAHDIM_clean_linker_0--edge1-MIFKUJ_clean_linker_0
_symmetry_space_group_name_H-M    P1
_symmetry_Int_Tables_number       1
_symmetry_cell_setting            triclinic
loop_
_symmetry_equiv_pos_as_xyz
'x, y, z'
_cell_length_a     82.107861
_cell_length_b     81.376726
_cell_length_c     31.736114
_cell_angle_alpha  92.133318
_cell_angle_beta   92.094127
_cell_angle_gamma 119.9313
loop_
_atom_site_label
_atom_site_type_symbol
_atom_site_fract_x
_atom_site_fract_y
_atom_site_fract_z
_atom_type_partial_charge
C0 C 0.3061 0.48564 0.43498 0.0
C1 C 0.30411 0.47459 0.39324 0.0
C2 C 0.28611 0.47474 0.32982 0.0
C3 C 0.27746 0.4553 0.31729 0.0
C4 C 0.26216 0.44694 0.28703 0.0
C5 C 0.25568 0.45834 0.26844 0.0
C6 C 0.26498 0.47808 0.27949 0.0
C7 C 0.28013 0.48601 0.30999 0.0
C8 C 0.25275 0.42592 0.27527 0.0
C9 C 0.25867 0.49071 0.2597 0.0
C10 C 0.13242 0.40443 0.39254 0.0
C11 C 0.1433 0.42151 0.36604 0.0
C12 C 0.1552 0.42036 0.29847 0.0
C13 C 0.16763 0.43951 0.29236 0.0
C14 C 0.18334 0.44483 0.26841 0.0
C15 C 0.18692 0.43067 0.25135 0.0
C16 C 0.17417 0.41126 0.25719 0.0
C17 C 0.15817 0.40635 0.27989 0.0
C18 C 0.19635 0.46563 0.26245 0.0
C19 C 0.17772 0.39574 0.24086 0.0
C20 C 0.15581 0.40221 0.97574 0.0
C21 C 0.16478 0.42145 0.98955 0.0
C22 C 0.18218 0.43002 0.01303 0.0
C23 C 0.19035 0.41887 0.02406 0.0
C24 C 0.18152 0.39956 0.00888 0.0
C25 C 0.16448 0.39157 0.98417 0.0
C26 C 0.19158 0.45086 0.02679 0.0
C27 C 0.18976 0.38719 0.01975 0.0
C28 C 0.32857 0.44703 0.04842 0.0
C29 C 0.31943 0.44235 0.00334 0.0
C30 C 0.2928 0.44794 0.01161 0.0
C31 C 0.28699 0.46131 0.00723 0.0
C32 C 0.27011 0.45847 0.02319 0.0
C33 C 0.25859 0.44163 0.0434 0.0
C34 C 0.26405 0.42773 0.04675 0.0
C35 C 0.28117 0.4311 0.03125 0.0
C36 C 0.26475 0.47361 0.01925 0.0
C37 C 0.25191 0.40939 0.06729 0.0
C38 C 0.23863 0.44956 0.23897 0.0
C39 C 0.22132 0.4439 0.25608 0.0
C40 C 0.20468 0.4363 0.23034 0.0
C41 C 0.20527 0.43421 0.18606 0.0
C42 C 0.18891 0.42696 0.15906 0.0
C43 C 0.18956 0.42446 0.11567 0.0
C44 C 0.20669 0.42952 0.09742 0.0
C45 C 0.20751 0.42704 0.05328 0.0
C46 C 0.22469 0.43163 0.0365 0.0
C47 C 0.2412 0.43878 0.06258 0.0
C48 C 0.24076 0.442 0.10652 0.0
C49 C 0.25725 0.44985 0.13342 0.0
C50 C 0.25662 0.45249 0.17676 0.0
C51 C 0.23947 0.44725 0.19491 0.0
C52 C 0.22271 0.43953 0.16836 0.0
C53 C 0.2234 0.43711 0.12404 0.0
C54 C 0.1078 0.37275 0.9754 0.0
C55 C 0.12294 0.39334 0.97016 0.0
O56 O 0.30023 0.48323 0.36062 0.0
O57 O 0.30968 0.45198 0.99674 0.0
O58 O 0.13863 0.39358 0.95474 0.0
O59 O 0.14075 0.41525 0.32385 0.0
H60 H 0.29221 0.45994 0.39619 0.0
H61 H 0.29273 0.4855 0.44027 0.0
H62 H 0.3176 0.50065 0.43452 0.0
H63 H 0.30917 0.47897 0.46176 0.0
H64 H 0.28256 0.44658 0.3309 0.0
H65 H 0.28713 0.50106 0.31931 0.0
H66 H 0.2377 0.41892 0.28262 0.0
H67 H 0.25956 0.41902 0.2923 0.0
H68 H 0.25318 0.42354 0.24075 0.0
H69 H 0.2681 0.50595 0.26978 0.0
H70 H 0.2442 0.48644 0.26864 0.0
H71 H 0.25819 0.48896 0.22473 0.0
H72 H 0.15845 0.42806 0.37704 0.0
H73 H 0.1343 0.40913 0.42659 0.0
H74 H 0.1378 0.3944 0.38841 0.0
H75 H 0.11716 0.39679 0.38265 0.0
H76 H 0.16507 0.45025 0.30662 0.0
H77 H 0.1484 0.39159 0.285 0.0
H78 H 0.20088 0.46779 0.22959 0.0
H79 H 0.20912 0.47096 0.2841 0.0
H80 H 0.1896 0.47425 0.26958 0.0
H81 H 0.16814 0.38186 0.25379 0.0
H82 H 0.1925 0.39953 0.24912 0.0
H83 H 0.17553 0.39401 0.20593 0.0
H84 H 0.1265 0.40095 0.00207 0.0
H85 H 0.15813 0.42969 0.98196 0.0
H86 H 0.15744 0.37676 0.97281 0.0
H87 H 0.1897 0.45246 0.06086 0.0
H88 H 0.1855 0.45823 0.00889 0.0
H89 H 0.20694 0.45798 0.02252 0.0
H90 H 0.18022 0.37205 0.00896 0.0
H91 H 0.19277 0.38812 0.05444 0.0
H92 H 0.2033 0.39231 0.0046 0.0
H93 H 0.30963 0.42679 0.99835 0.0
H94 H 0.33652 0.43945 0.05366 0.0
H95 H 0.31765 0.44247 0.07185 0.0
H96 H 0.33836 0.46257 0.05405 0.0
H97 H 0.29598 0.47422 0.99193 0.0
H98 H 0.28528 0.4205 0.03488 0.0
H99 H 0.26265 0.47818 0.05102 0.0
H100 H 0.25121 0.4677 0.00011 0.0
H101 H 0.27561 0.48625 0.00417 0.0
H102 H 0.25685 0.39903 0.0625 0.0
H103 H 0.23708 0.40276 0.05442 0.0
H104 H 0.25215 0.41242 0.10177 0.0
H105 H 0.2208 0.44556 0.29002 0.0
H106 H 0.17536 0.42298 0.17121 0.0
H107 H 0.17642 0.41848 0.09667 0.0
H108 H 0.22516 0.42926 0.00281 0.0
H109 H 0.27084 0.45406 0.12126 0.0
H110 H 0.26973 0.45855 0.19592 0.0
H111 H 0.10366 0.36434 0.94456 0.0
H112 H 0.09515 0.37217 0.98839 0.0
H113 H 0.1133 0.3662 0.9977 0.0
C114 C 0.83349 0.2962 0.34673 0.0
C115 C 0.85121 0.29632 0.33263 0.0
C116 C 0.84218 0.28251 0.26124 0.0
C117 C 0.84717 0.26847 0.25664 0.0
C118 C 0.83668 0.25252 0.22842 0.0
C119 C 0.82067 0.25052 0.2051 0.0
C120 C 0.81576 0.26488 0.20956 0.0
C121 C 0.82689 0.28094 0.23702 0.0
C122 C 0.84249 0.23767 0.22415 0.0
C123 C 0.79849 0.26305 0.18636 0.0
C124 C 0.74043 0.15131 0.36082 0.0
C125 C 0.72905 0.14837 0.31906 0.0
C126 C 0.74738 0.15645 0.25696 0.0
C127 C 0.74128 0.16796 0.23822 0.0
C128 C 0.7526 0.18172 0.21084 0.0
C129 C 0.77021 0.18375 0.20155 0.0
C130 C 0.77583 0.17135 0.21829 0.0
C131 C 0.76422 0.15771 0.24564 0.0
C132 C 0.74599 0.19445 0.19276 0.0
C133 C 0.79435 0.17292 0.20829 0.0
C134 C 0.73876 0.14334 0.93281 0.0
C135 C 0.73284 0.15532 0.95079 0.0
C136 C 0.74601 0.17316 0.97009 0.0
C137 C 0.76539 0.17878 0.97247 0.0
C138 C 0.77139 0.16699 0.95273 0.0
C139 C 0.75795 0.14953 0.93244 0.0
C140 C 0.73912 0.18573 0.98886 0.0
C141 C 0.79191 0.17254 0.95419 0.0
C142 C 0.8846 0.30969 0.95869 0.0
C143 C 0.87387 0.30275 0.91521 0.0
C144 C 0.84265 0.27857 0.93615 0.0
C145 C 0.82477 0.27539 0.9448 0.0
C146 C 0.81199 0.25912 0.96456 0.0
C147 C 0.81722 0.24563 0.97558 0.0
C148 C 0.835 0.24836 0.96547 0.0
C149 C 0.84755 0.2648 0.94589 0.0
C150 C 0.79308 0.25657 0.97469 0.0
C151 C 0.84089 0.23409 0.97625 0.0
C152 C 0.80827 0.23279 0.17864 0.0
C153 C 0.796 0.21677 0.19939 0.0
C154 C 0.78328 0.19973 0.17692 0.0
C155 C 0.78262 0.19853 0.13233 0.0
C156 C 0.77004 0.18158 0.1088 0.0
C157 C 0.7691 0.1807 0.06488 0.0
C158 C 0.78056 0.19681 0.04277 0.0
C159 C 0.77919 0.19627 0.99808 0.0
C160 C 0.79113 0.21242 0.97714 0.0
C161 C 0.80454 0.22918 0.99967 0.0
C162 C 0.80591 0.23009 0.04436 0.0
C163 C 0.81914 0.24679 0.06803 0.0
C164 C 0.82015 0.24763 0.11199 0.0
C165 C 0.80789 0.23188 0.13399 0.0
C166 C 0.79481 0.21474 0.11077 0.0
C167 C 0.79378 0.21388 0.06593 0.0
C168 C 0.70962 0.09412 0.93592 0.0
C169 C 0.70975 0.11291 0.93301 0.0
O170 O 0.85196 0.29762 0.28925 0.0
O171 O 0.85469 0.29517 0.91911 0.0
O172 O 0.72629 0.12574 0.9156 0.0
O173 O 0.73746 0.14424 0.28642 0.0
H174 H 0.85056 0.28287 0.34138 0.0
H175 H 0.82072 0.28381 0.33106 0.0
H176 H 0.83367 0.30941 0.33821 0.0
H177 H 0.83253 0.29505 0.38143 0.0
H178 H 0.85924 0.27003 0.27527 0.0
H179 H 0.82329 0.29202 0.2409 0.0
H180 H 0.83233 0.22478 0.23963 0.0
H181 H 0.85679 0.24273 0.23905 0.0
H182 H 0.84224 0.2335 0.1903 0.0
H183 H 0.79533 0.2742 0.19754 0.0
H184 H 0.78605 0.24889 0.19042 0.0
H185 H 0.80068 0.26429 0.15208 0.0
H186 H 0.72937 0.16207 0.31519 0.0
H187 H 0.73322 0.15341 0.38772 0.0
H188 H 0.75455 0.16418 0.36006 0.0
H189 H 0.74248 0.13903 0.36611 0.0
H190 H 0.72777 0.16634 0.24532 0.0
H191 H 0.7686 0.14848 0.25964 0.0
H192 H 0.74566 0.19334 0.15773 0.0
H193 H 0.75607 0.20947 0.20344 0.0
H194 H 0.73176 0.1908 0.20241 0.0
H195 H 0.79604 0.16131 0.22119 0.0
H196 H 0.8061 0.18675 0.22185 0.0
H197 H 0.7955 0.17257 0.17354 0.0
H198 H 0.70923 0.11795 0.96582 0.0
H199 H 0.71796 0.15072 0.94971 0.0
H200 H 0.76231 0.14023 0.91772 0.0
H201 H 0.73928 0.18505 0.02371 0.0
H202 H 0.72452 0.18122 0.97683 0.0
H203 H 0.74852 0.20075 0.98171 0.0
H204 H 0.79406 0.16108 0.94032 0.0
H205 H 0.79795 0.17608 0.98736 0.0
H206 H 0.79984 0.18542 0.93638 0.0
H207 H 0.87648 0.29173 0.90044 0.0
H208 H 0.89998 0.31612 0.95535 0.0
H209 H 0.88186 0.32046 0.97429 0.0
H210 H 0.88019 0.29771 0.97948 0.0
H211 H 0.82102 0.28597 0.93689 0.0
H212 H 0.86118 0.2668 0.93885 0.0
H213 H 0.79185 0.25629 0.00941 0.0
H214 H 0.78167 0.24273 0.96026 0.0
H215 H 0.79094 0.2681 0.96308 0.0
H216 H 0.85477 0.23773 0.96427 0.0
H217 H 0.83017 0.21973 0.9627 0.0
H218 H 0.84173 0.23339 0.01108 0.0
H219 H 0.79616 0.21765 0.23364 0.0
H220 H 0.76072 0.16881 0.12411 0.0
H221 H 0.75915 0.16723 0.04853 0.0
H222 H 0.79007 0.21189 0.94289 0.0
H223 H 0.8288 0.25945 0.05285 0.0
H224 H 0.83058 0.26085 0.12856 0.0
H225 H 0.70968 0.08812 0.90391 0.0
H226 H 0.69701 0.08362 0.95154 0.0
H227 H 0.72234 0.09651 0.95496 0.0
C228 C 0.56321 0.81922 0.31573 0.0
C229 C 0.56839 0.83712 0.29201 0.0
C230 C 0.56424 0.82288 0.2202 0.0
C231 C 0.58228 0.82515 0.21732 0.0
C232 C 0.58562 0.81443 0.18681 0.0
C233 C 0.57056 0.80096 0.15904 0.0
C234 C 0.55252 0.7991 0.16093 0.0
C235 C 0.54971 0.81037 0.19107 0.0
C236 C 0.60514 0.81712 0.18507 0.0
C237 C 0.53607 0.78468 0.1323 0.0
C238 C 0.58349 0.71069 0.29513 0.0
C239 C 0.56581 0.70011 0.26518 0.0
C240 C 0.57226 0.71377 0.1978 0.0
C241 C 0.55595 0.71267 0.17969 0.0
C242 C 0.55707 0.72701 0.15469 0.0
C243 C 0.57491 0.74288 0.14837 0.0
C244 C 0.59145 0.74379 0.16607 0.0
C245 C 0.58991 0.729 0.19017 0.0
C246 C 0.53916 0.72548 0.13602 0.0
C247 C 0.61067 0.76064 0.16071 0.0
C248 C 0.60803 0.73491 0.88573 0.0
C249 C 0.58886 0.72798 0.89122 0.0
C250 C 0.58286 0.73946 0.91155 0.0
C251 C 0.59641 0.75802 0.92778 0.0
C252 C 0.61569 0.76519 0.92095 0.0
C253 C 0.6212 0.75361 0.89924 0.0
C254 C 0.5621 0.73163 0.91643 0.0
C255 C 0.63056 0.78494 0.93736 0.0
C256 C 0.59872 0.88427 0.90377 0.0
C257 C 0.59119 0.87098 0.86349 0.0
C258 C 0.58022 0.83956 0.89191 0.0
C259 C 0.56421 0.82253 0.90008 0.0
C260 C 0.56566 0.80829 0.92058 0.0
C261 C 0.58365 0.81134 0.93382 0.0
C262 C 0.59997 0.82845 0.92525 0.0
C263 C 0.59812 0.84231 0.90396 0.0
C264 C 0.54794 0.79005 0.92832 0.0
C265 C 0.61939 0.83215 0.93874 0.0
C266 C 0.57334 0.78761 0.13116 0.0
C267 C 0.57297 0.77212 0.14959 0.0
C268 C 0.57608 0.75916 0.12626 0.0
C269 C 0.57985 0.76174 0.08316 0.0
C270 C 0.58361 0.74932 0.05903 0.0
C271 C 0.58753 0.75213 0.01676 0.0
C272 C 0.58711 0.76702 0.99651 0.0
C273 C 0.59063 0.76972 0.95325 0.0
C274 C 0.58939 0.78424 0.93385 0.0
C275 C 0.58533 0.79662 0.95679 0.0
C276 C 0.58266 0.79471 0.00052 0.0
C277 C 0.57959 0.80755 0.02508 0.0
C278 C 0.57679 0.80543 0.068 0.0
C279 C 0.5766 0.79018 0.08782 0.0
C280 C 0.57987 0.77718 0.06375 0.0
C281 C 0.58318 0.77961 0.02021 0.0
C282 C 0.62606 0.70397 0.89148 0.0
C283 C 0.6086 0.70548 0.88008 0.0
O284 O 0.56021 0.83211 0.25107 0.0
O285 O 0.57763 0.85284 0.87282 0.0
O286 O 0.6142 0.72369 0.86841 0.0
O287 O 0.571 0.70051 0.224 0.0
H288 H 0.58396 0.84575 0.29124 0.0
H289 H 0.56867 0.8107 0.29996 0.0
H290 H 0.54766 0.81028 0.31646 0.0
H291 H 0.56953 0.8231 0.34868 0.0
H292 H 0.59381 0.83518 0.23883 0.0
H293 H 0.53588 0.80884 0.1933 0.0
H294 H 0.60521 0.80454 0.19727 0.0
H295 H 0.61583 0.82998 0.20428 0.0
H296 H 0.60928 0.81827 0.15191 0.0
H297 H 0.52279 0.78451 0.13884 0.0
H298 H 0.534 0.77027 0.13621 0.0
H299 H 0.53905 0.78789 0.09884 0.0
H300 H 0.55746 0.70745 0.26844 0.0
H301 H 0.57958 0.7105 0.32834 0.0
H302 H 0.59184 0.72573 0.28706 0.0
H303 H 0.59242 0.70403 0.29254 0.0
H304 H 0.54238 0.7007 0.18576 0.0
H305 H 0.6024 0.72961 0.20445 0.0
H306 H 0.54042 0.72828 0.10197 0.0
H307 H 0.53678 0.73637 0.15216 0.0
H308 H 0.52668 0.71126 0.13945 0.0
H309 H 0.62207 0.75951 0.17788 0.0
H310 H 0.61113 0.77391 0.17244 0.0
H311 H 0.61344 0.76186 0.12668 0.0
H312 H 0.60073 0.7026 0.90936 0.0
H313 H 0.57865 0.7136 0.87968 0.0
H314 H 0.63593 0.75883 0.89431 0.0
H315 H 0.55899 0.72843 0.94984 0.0
H316 H 0.5533 0.71837 0.89621 0.0
H317 H 0.55802 0.74229 0.90827 0.0
H318 H 0.64505 0.78761 0.93337 0.0
H319 H 0.62904 0.78722 0.97138 0.0
H320 H 0.62868 0.79552 0.92002 0.0
H321 H 0.603 0.87044 0.84868 0.0
H322 H 0.60573 0.87941 0.92654 0.0
H323 H 0.60923 0.89889 0.89594 0.0
H324 H 0.58705 0.88472 0.91948 0.0
H325 H 0.55048 0.82045 0.89041 0.0
H326 H 0.61071 0.85525 0.89726 0.0
H327 H 0.54606 0.7891 0.96277 0.0
H328 H 0.54913 0.77764 0.91694 0.0
H329 H 0.53521 0.78912 0.91237 0.0
H330 H 0.63049 0.847 0.93433 0.0
H331 H 0.62247 0.82241 0.91975 0.0
H332 H 0.62004 0.82922 0.97248 0.0
H333 H 0.57026 0.77014 0.18278 0.0
H334 H 0.58379 0.73742 0.07271 0.0
H335 H 0.59066 0.74229 5e-05 0.0
H336 H 0.59175 0.78601 0.90049 0.0
H337 H 0.57941 0.81946 0.01143 0.0
H338 H 0.57458 0.81578 0.08539 0.0
H339 H 0.62186 0.68936 0.90038 0.0
H340 H 0.63426 0.71406 0.91884 0.0
H341 H 0.6353 0.7075 0.8646 0.0
C342 C 0.86725 0.57913 0.35921 0.0
C343 C 0.86484 0.5695 0.31522 0.0
C344 C 0.85317 0.578 0.2525 0.0
C345 C 0.84126 0.5595 0.2345 0.0
C346 C 0.82702 0.55586 0.20356 0.0
C347 C 0.82497 0.57108 0.18971 0.0
C348 C 0.83769 0.58987 0.20588 0.0
C349 C 0.8517 0.59308 0.23704 0.0
C350 C 0.81389 0.53569 0.18635 0.0
C351 C 0.83615 0.60647 0.19104 0.0
C352 C 0.69628 0.56931 0.26907 0.0
C353 C 0.71186 0.574 0.24072 0.0
C354 C 0.73019 0.56023 0.21316 0.0
C355 C 0.74417 0.57716 0.19746 0.0
C356 C 0.75941 0.57774 0.17756 0.0
C357 C 0.76068 0.56105 0.17309 0.0
C358 C 0.74664 0.54399 0.18874 0.0
C359 C 0.73156 0.54383 0.20862 0.0
C360 C 0.77421 0.59619 0.16135 0.0
C361 C 0.74758 0.52597 0.18439 0.0
C362 C 0.72868 0.54744 0.90795 0.0
C363 C 0.7435 0.56571 0.92106 0.0
C364 C 0.76039 0.5683 0.93993 0.0
C365 C 0.76242 0.55229 0.94631 0.0
C366 C 0.74808 0.53404 0.93047 0.0
C367 C 0.73143 0.53189 0.91104 0.0
C368 C 0.77567 0.58807 0.95515 0.0
C369 C 0.74993 0.51672 0.93627 0.0
C370 C 0.90845 0.59171 0.95387 0.0
C371 C 0.89235 0.57262 0.93514 0.0
C372 C 0.86207 0.57133 0.92915 0.0
C373 C 0.85655 0.58499 0.92858 0.0
C374 C 0.83961 0.58156 0.9452 0.0
C375 C 0.82766 0.56373 0.96146 0.0
C376 C 0.83269 0.54941 0.95966 0.0
C377 C 0.84997 0.55344 0.94385 0.0
C378 C 0.8347 0.59714 0.9462 0.0
C379 C 0.81996 0.52998 0.97501 0.0
C380 C 0.80884 0.56721 0.16028 0.0
C381 C 0.79268 0.56534 0.17784 0.0
C382 C 0.77684 0.56159 0.15232 0.0
C383 C 0.77689 0.55922 0.108 0.0
C384 C 0.76101 0.55495 0.0815 0.0
C385 C 0.76134 0.55309 0.03788 0.0
C386 C 0.7776 0.55555 0.01899 0.0
C387 C 0.77827 0.55443 0.97455 0.0
C388 C 0.79453 0.55667 0.95673 0.0
C389 C 0.81045 0.56047 0.98225 0.0
C390 C 0.81016 0.56205 0.0268 0.0
C391 C 0.82608 0.56643 0.05346 0.0
C392 C 0.82565 0.568 0.09718 0.0
C393 C 0.80938 0.56548 0.11594 0.0
C394 C 0.79327 0.56131 0.08973 0.0
C395 C 0.79364 0.5595 0.04514 0.0
C396 C 0.69968 0.55392 0.95211 0.0
C397 C 0.70332 0.55502 0.90491 0.0
O398 O 0.86607 0.58185 0.28494 0.0
O399 O 0.87898 0.57566 0.91452 0.0
O400 O 0.71142 0.54417 0.89369 0.0
O401 O 0.7153 0.55915 0.23295 0.0
H402 H 0.85057 0.55664 0.31365 0.0
H403 H 0.85547 0.58193 0.36361 0.0
H404 H 0.88066 0.59291 0.36332 0.0
H405 H 0.86703 0.56975 0.38401 0.0
H406 H 0.84293 0.54785 0.24469 0.0
H407 H 0.86121 0.60735 0.25051 0.0
H408 H 0.79914 0.53158 0.19241 0.0
H409 H 0.81725 0.5254 0.20071 0.0
H410 H 0.81475 0.53467 0.15161 0.0
H411 H 0.8482 0.62033 0.20363 0.0
H412 H 0.82292 0.60542 0.20152 0.0
H413 H 0.83546 0.60609 0.15598 0.0
H414 H 0.71116 0.58087 0.21147 0.0
H415 H 0.70974 0.58753 0.32301 0.0
H416 H 0.6884 0.55338 0.27 0.0
H417 H 0.685 0.56986 0.24899 0.0
H418 H 0.74332 0.58999 0.20071 0.0
H419 H 0.72074 0.53084 0.22082 0.0
H420 H 0.77463 0.59443 0.12662 0.0
H421 H 0.7883 0.60008 0.17576 0.0
H422 H 0.77151 0.60807 0.1684 0.0
H423 H 0.73524 0.51372 0.1971 0.0
H424 H 0.76061 0.52812 0.20148 0.0
H425 H 0.74828 0.52247 0.15058 0.0
H426 H 0.7129 0.57007 0.89817 0.0
H427 H 0.7419 0.578 0.91757 0.0
H428 H 0.72005 0.51789 0.90019 0.0
H429 H 0.77608 0.58961 0.99014 0.0
H430 H 0.77328 0.5992 0.94194 0.0
H431 H 0.78964 0.59051 0.94635 0.0
H432 H 0.738 0.50368 0.92014 0.0
H433 H 0.75052 0.51453 0.9705 0.0
H434 H 0.76329 0.51894 0.92374 0.0
H435 H 0.88626 0.56328 0.96176 0.0
H436 H 0.91923 0.58972 0.97145 0.0
H437 H 0.90292 0.59829 0.97622 0.0
H438 H 0.91522 0.60156 0.92849 0.0
H439 H 0.86589 0.59862 0.91633 0.0
H440 H 0.85399 0.54262 0.94269 0.0
H441 H 0.83141 0.59964 0.97863 0.0
H442 H 0.82195 0.5927 0.92502 0.0
H443 H 0.84628 0.61071 0.93584 0.0
H444 H 0.82442 0.51963 0.96541 0.0
H445 H 0.80521 0.52449 0.96255 0.0
H446 H 0.82016 0.53099 0.01002 0.0
H447 H 0.7925 0.56703 0.21188 0.0
H448 H 0.74815 0.55303 0.0942 0.0
H449 H 0.74866 0.54978 0.01919 0.0
H450 H 0.79496 0.55591 0.92262 0.0
H451 H 0.83908 0.56872 0.04089 0.0
H452 H 0.8383 0.57136 0.1161 0.0
H453 H 0.69054 0.53891 0.95981 0.0
H454 H 0.69271 0.56217 0.96077 0.0
H455 H 0.71314 0.56001 0.97163 0.0
C456 C 0.28821 0.82532 0.8607 0.0
C457 C 0.28653 0.84247 0.87597 0.0
C458 C 0.27363 0.83447 0.94388 0.0
C459 C 0.26056 0.84036 0.95086 0.0
C460 C 0.24504 0.82976 0.97485 0.0
C461 C 0.24251 0.81278 0.99151 0.0
C462 C 0.25589 0.80695 0.98471 0.0
C463 C 0.27151 0.81811 0.96152 0.0
C464 C 0.23123 0.83655 0.98191 0.0
C465 C 0.25348 0.78873 0.00107 0.0
C466 C 0.13783 0.74974 0.80841 0.0
C467 C 0.13965 0.73639 0.83861 0.0
C468 C 0.14713 0.74657 0.91295 0.0
C469 C 0.15928 0.73968 0.92322 0.0
C470 C 0.17327 0.74856 0.95625 0.0
C471 C 0.17517 0.76474 0.97921 0.0
C472 C 0.16219 0.77101 0.97048 0.0
C473 C 0.1481 0.76161 0.93774 0.0
C474 C 0.18652 0.74115 0.96543 0.0
C475 C 0.16383 0.78824 0.99419 0.0
C476 C 0.14344 0.73253 0.24544 0.0
C477 C 0.15683 0.72766 0.23314 0.0
C478 C 0.17313 0.74081 0.21431 0.0
C479 C 0.17615 0.75923 0.20802 0.0
C480 C 0.16308 0.76442 0.22201 0.0
C481 C 0.14692 0.75099 0.24084 0.0
C482 C 0.18705 0.735 0.2007 0.0
C483 C 0.16602 0.78402 0.21632 0.0
C484 C 0.31362 0.86188 0.21919 0.0
C485 C 0.30853 0.86454 0.26402 0.0
C486 C 0.2782 0.83527 0.26197 0.0
C487 C 0.27189 0.81585 0.25683 0.0
C488 C 0.25449 0.80331 0.23534 0.0
C489 C 0.24294 0.81038 0.21987 0.0
C490 C 0.2486 0.82978 0.22809 0.0
C491 C 0.2663 0.84209 0.24862 0.0
C492 C 0.24879 0.78266 0.22777 0.0
C493 C 0.23625 0.83766 0.21392 0.0
C494 C 0.22538 0.80059 0.01402 0.0
C495 C 0.2087 0.78893 0.98958 0.0
C496 C 0.19212 0.77648 0.0081 0.0
C497 C 0.19211 0.77543 0.05249 0.0
C498 C 0.17585 0.7627 0.07219 0.0
C499 C 0.17603 0.76184 0.11596 0.0
C500 C 0.19248 0.77371 0.14169 0.0
C501 C 0.19284 0.77294 0.18619 0.0
C502 C 0.20936 0.78511 0.21081 0.0
C503 C 0.22576 0.79792 0.19216 0.0
C504 C 0.22577 0.79867 0.14767 0.0
C505 C 0.24214 0.81113 0.12779 0.0
C506 C 0.24199 0.81193 0.08411 0.0
C507 C 0.22556 0.80011 0.0585 0.0
C508 C 0.20888 0.78741 0.07778 0.0
C509 C 0.20903 0.78663 0.12242 0.0
C510 C 0.09675 0.69404 0.23967 0.0
C511 C 0.11728 0.70038 0.25263 0.0
O512 O 0.28824 0.84446 0.91973 0.0
O513 O 0.29598 0.84706 0.27878 0.0
O514 O 0.12707 0.71987 0.26178 0.0
O515 O 0.13484 0.73939 0.87844 0.0
H516 H 0.27246 0.84008 0.86452 0.0
H517 H 0.27652 0.81207 0.87198 0.0
H518 H 0.30181 0.82689 0.8729 0.0
H519 H 0.28734 0.82387 0.82562 0.0
H520 H 0.26252 0.8532 0.93724 0.0
H521 H 0.28186 0.81384 0.95602 0.0
H522 H 0.21769 0.82679 0.9639 0.0
H523 H 0.23644 0.85115 0.97158 0.0
H524 H 0.22836 0.83633 0.01588 0.0
H525 H 0.26408 0.78528 0.9894 0.0
H526 H 0.23918 0.77673 0.99137 0.0
H527 H 0.25489 0.79001 0.03611 0.0
H528 H 0.15478 0.74037 0.83914 0.0
H529 H 0.14031 0.7466 0.77564 0.0
H530 H 0.14853 0.76469 0.81826 0.0
H531 H 0.12373 0.74845 0.80888 0.0
H532 H 0.15807 0.72759 0.90484 0.0
H533 H 0.13844 0.76663 0.92984 0.0
H534 H 0.18835 0.74037 1e-05 0.0
H535 H 0.20055 0.75109 0.95412 0.0
H536 H 0.18141 0.72686 0.9496 0.0
H537 H 0.15255 0.79123 0.98374 0.0
H538 H 0.17771 0.80087 0.98948 0.0
H539 H 0.16307 0.7861 0.02856 0.0
H540 H 0.12281 0.69649 0.22476 0.0
H541 H 0.15464 0.71364 0.23829 0.0
H542 H 0.13665 0.7547 0.25107 0.0
H543 H 0.18828 0.73596 0.16604 0.0
H544 H 0.18288 0.72028 0.20863 0.0
H545 H 0.20118 0.74489 0.2162 0.0
H546 H 0.15465 0.78591 0.2294 0.0
H547 H 0.16657 0.78665 0.18218 0.0
H548 H 0.17973 0.79486 0.23217 0.0
H549 H 0.30206 0.87371 0.26337 0.0
H550 H 0.32392 0.8758 0.20747 0.0
H551 H 0.30086 0.85543 0.19713 0.0
H552 H 0.31979 0.85243 0.21881 0.0
H553 H 0.28108 0.81071 0.2679 0.0
H554 H 0.27077 0.85699 0.25399 0.0
H555 H 0.24588 0.7785 0.19341 0.0
H556 H 0.23561 0.77369 0.24353 0.0
H557 H 0.2598 0.77962 0.24 0.0
H558 H 0.24099 0.85195 0.22931 0.0
H559 H 0.22141 0.82795 0.22104 0.0
H560 H 0.23664 0.83888 0.17921 0.0
H561 H 0.20867 0.78945 0.95544 0.0
H562 H 0.16282 0.75325 0.05392 0.0
H563 H 0.16309 0.75177 0.12939 0.0
H564 H 0.2095 0.78451 0.24491 0.0
H565 H 0.25529 0.82045 0.14573 0.0
H566 H 0.25497 0.8219 0.07065 0.0
H567 H 0.08855 0.67839 0.23275 0.0
H568 H 0.0961 0.70099 0.2107 0.0
H569 H 0.09015 0.69802 0.26502 0.0
C570 C 0.38377 0.25619 0.39783 0.0
C571 C 0.402 0.2642 0.37486 0.0
C572 C 0.40663 0.25555 0.30404 0.0
C573 C 0.42606 0.26234 0.30907 0.0
C574 C 0.4347 0.2553 0.28232 0.0
C575 C 0.42361 0.24093 0.25044 0.0
C576 C 0.40417 0.23471 0.24409 0.0
C577 C 0.39602 0.24243 0.27057 0.0
C578 C 0.45557 0.26274 0.28916 0.0
C579 C 0.39179 0.21923 0.21084 0.0
C580 C 0.44724 0.17048 0.41152 0.0
C581 C 0.44364 0.15431 0.37936 0.0
C582 C 0.45007 0.17156 0.31487 0.0
C583 C 0.43171 0.16615 0.29961 0.0
C584 C 0.42852 0.17691 0.27028 0.0
C585 C 0.44399 0.19361 0.25669 0.0
C586 C 0.46254 0.19887 0.2716 0.0
C587 C 0.46531 0.18748 0.29974 0.0
C588 C 0.40859 0.17055 0.25432 0.0
C589 C 0.47942 0.21684 0.259 0.0
C590 C 0.47192 0.17805 0.99034 0.0
C591 C 0.45352 0.17514 0.98653 0.0
C592 C 0.44884 0.18734 0.00842 0.0
C593 C 0.46288 0.20301 0.034 0.0
C594 C 0.48151 0.20628 0.03705 0.0
C595 C 0.48574 0.19363 0.01544 0.0
C596 C 0.42881 0.18342 0.00443 0.0
C597 C 0.49691 0.22304 0.06343 0.0
C598 C 0.43627 0.31651 0.99741 0.0
C599 C 0.45335 0.31667 0.97926 0.0
C600 C 0.44952 0.2852 0.98764 0.0
C601 C 0.43466 0.26646 0.98303 0.0
C602 C 0.43502 0.25221 0.00595 0.0
C603 C 0.45093 0.25681 0.03327 0.0
C604 C 0.46631 0.27566 0.03702 0.0
C605 C 0.46543 0.28969 0.01419 0.0
C606 C 0.41841 0.23227 0.00099 0.0
C607 C 0.4837 0.28093 0.06496 0.0
C608 C 0.43175 0.23076 0.22758 0.0
C609 C 0.43411 0.21745 0.24948 0.0
C610 C 0.4407 0.20643 0.23 0.0
C611 C 0.44462 0.20832 0.18687 0.0
C612 C 0.44999 0.19655 0.16535 0.0
C613 C 0.45416 0.19879 0.12312 0.0
C614 C 0.45335 0.21305 0.10095 0.0
C615 C 0.45788 0.21566 0.05823 0.0
C616 C 0.45709 0.23008 0.03729 0.0
C617 C 0.45154 0.24187 0.05763 0.0
C618 C 0.44659 0.23925 0.10009 0.0
C619 C 0.44051 0.25054 0.12124 0.0
C620 C 0.43565 0.24782 0.16302 0.0
C621 C 0.43674 0.23374 0.18524 0.0
C622 C 0.44301 0.22232 0.16469 0.0
C623 C 0.44769 0.2249 0.1219 0.0
C624 C 0.47486 0.14126 0.92344 0.0
C625 C 0.46527 0.15082 0.94269 0.0
O626 O 0.39766 0.26091 0.33166 0.0
O627 O 0.44834 0.29836 0.96472 0.0
O628 O 0.47686 0.16619 0.9706 0.0
O629 O 0.45364 0.16177 0.34396 0.0
H630 H 0.40907 0.25623 0.38537 0.0
H631 H 0.37517 0.2406 0.39053 0.0
H632 H 0.37531 0.26274 0.38774 0.0
H633 H 0.38697 0.25885 0.43256 0.0
H634 H 0.43446 0.27295 0.33417 0.0
H635 H 0.38108 0.23748 0.2667 0.0
H636 H 0.45784 0.25203 0.30492 0.0
H637 H 0.46273 0.27622 0.30932 0.0
H638 H 0.46222 0.26516 0.25844 0.0
H639 H 0.37674 0.21519 0.21177 0.0
H640 H 0.39302 0.2064 0.21527 0.0
H641 H 0.39652 0.22407 0.17903 0.0
H642 H 0.42831 0.14581 0.37032 0.0
H643 H 0.43936 0.16471 0.44013 0.0
H644 H 0.4424 0.17975 0.39756 0.0
H645 H 0.46251 0.17925 0.42098 0.0
H646 H 0.41985 0.15347 0.31007 0.0
H647 H 0.47943 0.19138 0.31147 0.0
H648 H 0.40783 0.17181 0.21967 0.0
H649 H 0.40393 0.17985 0.26968 0.0
H650 H 0.39865 0.15564 0.2614 0.0
H651 H 0.49249 0.22022 0.27793 0.0
H652 H 0.477 0.22906 0.26291 0.0
H653 H 0.48166 0.2152 0.2252 0.0
H654 H 0.45143 0.14094 0.95536 0.0
H655 H 0.44268 0.1633 0.96685 0.0
H656 H 0.49991 0.19585 0.01801 0.0
H657 H 0.42344 0.18291 0.03625 0.0
H658 H 0.41922 0.16983 0.98602 0.0
H659 H 0.42844 0.19513 0.98845 0.0
H660 H 0.51098 0.22456 0.05952 0.0
H661 H 0.49388 0.2213 0.09728 0.0
H662 H 0.49733 0.23633 0.05471 0.0
H663 H 0.46475 0.32212 0.00483 0.0
H664 H 0.43999 0.33104 0.00944 0.0
H665 H 0.4315 0.30707 0.02412 0.0
H666 H 0.42446 0.3112 0.97287 0.0
H667 H 0.4226 0.26309 0.96187 0.0
H668 H 0.47738 0.30399 0.01639 0.0
H669 H 0.41358 0.22693 0.03247 0.0
H670 H 0.42275 0.22275 0.98544 0.0
H671 H 0.40641 0.23141 0.98169 0.0
H672 H 0.49492 0.29592 0.06243 0.0
H673 H 0.48935 0.27146 0.05643 0.0
H674 H 0.47998 0.27887 0.09838 0.0
H675 H 0.43077 0.21565 0.28238 0.0
H676 H 0.45097 0.18543 0.18094 0.0
H677 H 0.45818 0.18928 0.10818 0.0
H678 H 0.46066 0.23203 0.00457 0.0
H679 H 0.43938 0.26158 0.10569 0.0
H680 H 0.4311 0.25693 0.1778 0.0
H681 H 0.46744 0.12656 0.93519 0.0
H682 H 0.4883 0.14609 0.94337 0.0
H683 H 0.47442 0.14629 0.85932 0.0
C684 C 0.04335 0.49546 0.55489 0.0
C685 C 0.03293 0.46922 0.70762 0.0
C686 C 0.97887 0.46449 0.68763 0.0
Mg687 Mg 0.0251 0.51686 0.50599 0.0
Mg688 Mg 0.01073 0.54257 0.55723 0.0
O689 O 0.00866 0.51873 0.54944 0.0
Mg690 Mg 0.0157 0.50799 0.59809 0.0
O691 O 0.02312 0.49572 0.64273 0.0
Mg692 Mg 0.0104 0.46899 0.61614 0.0
Mg693 Mg 0.01884 0.4982 0.6996 0.0
C694 C 0.98723 0.52194 0.63557 0.0
O695 O 0.03473 0.5368 0.63536 0.0
O696 O 0.00927 0.52564 0.45718 0.0
O697 O 0.0323 0.5291 0.70366 0.0
O698 O 0.04832 0.5485 0.51719 0.0
O699 O 0.00016 0.54334 0.49498 0.0
O700 O 0.03981 0.56408 0.56218 0.0
O701 O 0.9966 0.47865 0.56559 0.0
O702 O 0.00224 0.48541 0.49818 0.0
C703 C 0.9939 0.47343 0.52611 0.0
C704 C 0.00124 0.53572 0.45989 0.0
O705 O 0.99239 0.50935 0.63466 0.0
O706 O 0.02599 0.46235 0.66985 0.0
O707 O 0.99345 0.53578 0.61106 0.0
O708 O 0.98482 0.45878 0.6569 0.0
O709 O 0.03214 0.48327 0.72499 0.0
O710 O 0.98924 0.48065 0.70734 0.0
O711 O 0.03864 0.50822 0.55926 0.0
O712 O 0.03546 0.48014 0.57448 0.0
C713 C 0.05197 0.56359 0.53914 0.0
C714 C 0.03791 0.54138 0.67534 0.0
C715 C 0.50317 0.02857 0.53805 0.0
C716 C 0.55763 0.0186 0.47868 0.0
C717 C 0.5255 0.96316 0.52326 0.0
Mg718 Mg 0.47666 0.00824 0.61525 0.0
Mg719 Mg 0.49224 0.99406 0.69533 0.0
O720 O 0.4874 0.99236 0.63659 0.0
Mg721 Mg 0.50873 0.00036 0.59881 0.0
O722 O 0.5287 0.00832 0.55739 0.0
Mg723 Mg 0.51241 0.99585 0.50384 0.0
Mg724 Mg 0.54777 0.0025 0.56758 0.0
C725 C 0.5132 0.97207 0.6647 0.0
O726 O 0.53215 0.02033 0.64937 0.0
O727 O 0.45165 0.99096 0.65777 0.0
O728 O 0.5556 0.0148 0.63216 0.0
O729 O 0.49171 0.03139 0.66925 0.0
O730 O 0.46338 0.98153 0.71096 0.0
O731 O 0.50632 0.0235 0.71805 0.0
O732 O 0.48716 0.98091 0.54606 0.0
O733 O 0.46335 0.98587 0.56019 0.0
C734 C 0.47054 0.97807 0.5375 0.0
C735 C 0.4497 0.98215 0.69175 0.0
O736 O 0.51402 0.97741 0.62674 0.0
O737 O 0.54007 0.01234 0.46881 0.0
O738 O 0.50666 0.97769 0.69472 0.0
O739 O 0.51664 0.96976 0.50251 0.0
O740 O 0.56363 0.01654 0.51488 0.0
O741 O 0.53719 0.97283 0.55413 0.0
O742 O 0.50258 0.02293 0.57542 0.0
O743 O 0.50767 0.02136 0.5071 0.0
C744 C 0.5023 0.03546 0.70303 0.0
C745 C 0.5484 0.02191 0.65713 0.0
C746 C 0.51142 0.53507 0.6332 0.0
C747 C 0.45835 0.47589 0.70406 0.0
C748 C 0.48983 0.44924 0.66751 0.0
Mg749 Mg 0.5373 0.53664 0.55663 0.0
Mg750 Mg 0.52211 0.50194 0.48183 0.0
O751 O 0.52643 0.50879 0.53996 0.0
Mg752 Mg 0.50566 0.49758 0.57956 0.0
O753 O 0.48625 0.48806 0.62257 0.0
Mg754 Mg 0.50314 0.49596 0.67564 0.0
Mg755 Mg 0.46664 0.46272 0.61776 0.0
C756 C 0.4997 0.46103 0.5191 0.0
O757 O 0.48147 0.49053 0.52985 0.0
O758 O 0.56188 0.54208 0.51368 0.0
O759 O 0.45772 0.46337 0.55243 0.0
O760 O 0.52166 0.54119 0.50077 0.0
O761 O 0.55133 0.51635 0.46806 0.0
O762 O 0.5095 0.51675 0.45254 0.0
O763 O 0.52781 0.5034 0.63232 0.0
O764 O 0.55139 0.5311 0.61361 0.0
C765 C 0.54454 0.5176 0.63882 0.0
C766 C 0.56439 0.53257 0.48386 0.0
O767 O 0.50035 0.46777 0.55689 0.0
O768 O 0.47613 0.48723 0.71197 0.0
O769 O 0.50563 0.47134 0.48728 0.0
O770 O 0.49913 0.4663 0.68351 0.0
O771 O 0.45163 0.46547 0.66948 0.0
O772 O 0.47727 0.44449 0.63736 0.0
O773 O 0.51186 0.52768 0.59724 0.0
O774 O 0.50737 0.52551 0.66618 0.0
C775 C 0.51213 0.5329 0.46613 0.0
C776 C 0.46474 0.47596 0.52489 0.0
H777 H 0.16156 0.45557 0.41242 0.0
H778 H 0.14909 0.47615 0.43354 0.0
H779 H 0.09756 0.43967 0.35835 0.0
H780 H 0.11016 0.41918 0.33649 0.0
H781 H 0.10744 0.47802 0.35868 0.0
H782 H 0.1 0.43162 0.45776 0.0
H783 H 0.11095 0.41496 0.5041 0.0
H784 H 0.14737 0.46732 0.57658 0.0
H785 H 0.13686 0.48436 0.53013 0.0
H786 H 0.03508 0.47568 0.47973 0.0
H787 H 0.05724 0.47196 0.43634 0.0
H788 H 0.10362 0.51373 0.51898 0.0
H789 H 0.08135 0.51766 0.56207 0.0
H790 H 0.10063 0.47816 0.51343 0.0
H791 H 0.10258 0.52315 0.42007 0.0
H792 H 0.08955 0.53826 0.37459 0.0
H793 H 0.06137 0.48753 0.29234 0.0
H794 H 0.07396 0.47196 0.33775 0.0
C795 C 0.14777 0.45222 0.39954 0.0
C796 C 0.13678 0.43576 0.37297 0.0
C797 C 0.14066 0.46398 0.41161 0.0
C798 C 0.12232 0.45931 0.39788 0.0
C799 C 0.11177 0.44356 0.36918 0.0
C800 C 0.11892 0.43183 0.35689 0.0
C801 C 0.1133 0.46924 0.41782 0.0
C802 C 0.10589 0.47806 0.39248 0.0
C803 C 0.11158 0.46953 0.46202 0.0
C804 C 0.11783 0.45931 0.49015 0.0
C805 C 0.11046 0.43961 0.48335 0.0
C806 C 0.11658 0.43009 0.50966 0.0
C807 C 0.12989 0.44008 0.54319 0.0
C808 C 0.13709 0.45961 0.55053 0.0
C809 C 0.13107 0.46921 0.52422 0.0
C810 C 0.05007 0.4846 0.48747 0.0
C811 C 0.05667 0.49706 0.52372 0.0
C812 C 0.06271 0.48249 0.46275 0.0
C813 C 0.08207 0.49262 0.4744 0.0
C814 C 0.08874 0.50591 0.50934 0.0
C815 C 0.07609 0.50821 0.53375 0.0
C816 C 0.09466 0.48693 0.45441 0.0
C817 C 0.10259 0.47864 0.47977 0.0
C818 C 0.09661 0.48698 0.4103 0.0
C819 C 0.08914 0.49633 0.38253 0.0
C820 C 0.09349 0.51514 0.39247 0.0
C821 C 0.0862 0.52381 0.36667 0.0
C822 C 0.07462 0.51385 0.33063 0.0
C823 C 0.07035 0.49522 0.32028 0.0
C824 C 0.07758 0.48647 0.34602 0.0
H825 H 0.06898 0.52058 0.31071 0.0
H826 H 0.1346 0.43269 0.56355 0.0
H827 H 0.69704 0.14964 0.298 0.0
H828 H 0.66431 0.12543 0.30627 0.0
H829 H 0.6827 0.08757 0.35131 0.0
H830 H 0.71528 0.11126 0.34049 0.0
H831 H 0.65049 0.06747 0.3093 0.0
H832 H 0.67485 0.11798 0.41958 0.0
H833 H 0.68919 0.1512 0.44828 0.0
H834 H 0.64317 0.15516 0.39104 0.0
H835 H 0.62868 0.12201 0.36155 0.0
H836 H 0.5914 0.02059 0.47211 0.0
H837 H 0.61633 0.04024 0.42662 0.0
H838 H 0.58107 0.06007 0.37096 0.0
H839 H 0.55577 0.04008 0.41625 0.0
H840 H 0.61759 0.08906 0.40543 0.0
H841 H 0.59049 0.03433 0.30916 0.0
H842 H 0.57671 0.00017 0.28961 0.0
H843 H 0.6287 0.00313 0.32938 0.0
H844 H 0.64275 0.03729 0.3497 0.0
C845 C 0.69406 0.13607 0.30926 0.0
C846 C 0.70879 0.13265 0.32038 0.0
C847 C 0.67536 0.12225 0.31402 0.0
C848 C 0.67107 0.1049 0.33077 0.0
C849 C 0.68565 0.10093 0.33886 0.0
C850 C 0.70431 0.11459 0.33323 0.0
C851 C 0.65178 0.09157 0.34331 0.0
C852 C 0.6433 0.0722 0.33028 0.0
C853 C 0.64217 0.09774 0.37013 0.0
C854 C 0.65082 0.11763 0.38793 0.0
C855 C 0.66787 0.12599 0.41289 0.0
C856 C 0.67601 0.14479 0.42932 0.0
C857 C 0.66713 0.15531 0.42137 0.0
C858 C 0.65005 0.14702 0.39708 0.0
C859 C 0.64187 0.12823 0.3805 0.0
C860 C 0.58884 0.02893 0.44978 0.0
C861 C 0.57172 0.02893 0.44785 0.0
C862 C 0.60304 0.04004 0.42364 0.0
C863 C 0.60047 0.05149 0.39535 0.0
C864 C 0.58322 0.0512 0.39249 0.0
C865 C 0.56882 0.03978 0.41823 0.0
C866 C 0.61658 0.06502 0.37212 0.0
C867 C 0.62453 0.08443 0.3834 0.0
C868 C 0.62583 0.05881 0.34452 0.0
C869 C 0.61765 0.03839 0.33113 0.0
C870 C 0.59897 0.02769 0.31392 0.0
C871 C 0.5911 0.00832 0.3027 0.0
C872 C 0.6018 0.99947 0.30837 0.0
C873 C 0.62043 0.01001 0.32502 0.0
C874 C 0.62837 0.02939 0.3363 0.0
H875 H 0.59565 0.98445 0.29981 0.0
H876 H 0.67345 0.16986 0.43412 0.0
H877 H 0.53768 0.68661 0.31974 0.0
H878 H 0.52116 0.65503 0.34752 0.0
H879 H 0.55136 0.63672 0.26809 0.0
H880 H 0.56811 0.66837 0.24052 0.0
H881 H 0.51149 0.60856 0.27487 0.0
H882 H 0.56839 0.65104 0.36146 0.0
H883 H 0.58962 0.68061 0.40437 0.0
H884 H 0.54601 0.66876 0.48913 0.0
H885 H 0.5244 0.63927 0.44622 0.0
H886 H 0.51543 0.53557 0.38164 0.0
H887 H 0.51663 0.56094 0.34105 0.0
H888 H 0.49839 0.58069 0.44775 0.0
H889 H 0.49838 0.55594 0.48925 0.0
H890 H 0.52846 0.60807 0.42623 0.0
H891 H 0.47244 0.56344 0.3462 0.0
H892 H 0.4507 0.53388 0.30389 0.0
H893 H 0.49053 0.54898 0.20814 0.0
H894 H 0.51265 0.5785 0.25015 0.0
C895 C 0.54047 0.67571 0.30752 0.0
C896 C 0.55395 0.67986 0.27749 0.0
C897 C 0.53105 0.65772 0.3234 0.0
C898 C 0.53502 0.64357 0.30972 0.0
C899 C 0.54796 0.64741 0.27864 0.0
C900 C 0.55752 0.66548 0.26297 0.0
C901 C 0.52721 0.62553 0.33108 0.0
C902 C 0.51519 0.60832 0.30791 0.0
C903 C 0.53168 0.6254 0.37443 0.0
C904 C 0.54471 0.64308 0.40033 0.0
C905 C 0.56327 0.65484 0.389 0.0
C906 C 0.57538 0.67157 0.41336 0.0
C907 C 0.56915 0.67659 0.44938 0.0
C908 C 0.5508 0.66487 0.46117 0.0
C909 C 0.53862 0.64815 0.43683 0.0
C910 C 0.511 0.5449 0.39586 0.0
C911 C 0.50694 0.54393 0.43857 0.0
C912 C 0.51165 0.55943 0.37257 0.0
C913 C 0.50765 0.57287 0.39123 0.0
C914 C 0.50173 0.57066 0.4327 0.0
C915 C 0.5016 0.55646 0.45634 0.0
C916 C 0.51253 0.5907 0.37025 0.0
C917 C 0.52425 0.60805 0.39342 0.0
C918 C 0.50758 0.59087 0.32705 0.0
C919 C 0.49427 0.57316 0.3015 0.0
C920 C 0.47662 0.56041 0.31626 0.0
C921 C 0.46422 0.54366 0.2923 0.0
C922 C 0.46924 0.53954 0.25338 0.0
C923 C 0.48666 0.55219 0.23829 0.0
C924 C 0.49913 0.56895 0.26214 0.0
H925 H 0.45962 0.52657 0.23488 0.0
H926 H 0.57855 0.68954 0.46824 0.0
H927 H 0.90336 0.59253 0.31865 0.0
H928 H 0.92715 0.58298 0.31877 0.0
H929 H 0.88355 0.5243 0.29522 0.0
H930 H 0.85962 0.5338 0.29788 0.0
H931 H 0.90469 0.52589 0.35583 0.0
H932 H 0.91828 0.55023 0.2213 0.0
H933 H 0.92453 0.57252 0.16542 0.0
H934 H 0.97512 0.61446 0.23529 0.0
H935 H 0.96905 0.59256 0.29193 0.0
H936 H 0.97959 0.50889 0.39691 0.0
H937 H 0.9577 0.51096 0.34536 0.0
H938 H 0.97977 0.56972 0.38711 0.0
H939 H 0.00131 0.56762 0.43882 0.0
H940 H 0.96769 0.56108 0.29813 0.0
H941 H 0.94625 0.53848 0.43923 0.0
H942 H 0.93993 0.51595 0.4947 0.0
H943 H 0.9033 0.4694 0.40654 0.0
H944 H 0.90965 0.4917 0.3504 0.0
C945 C 0.89887 0.57761 0.3133 0.0
C946 C 0.87964 0.56386 0.30938 0.0
C947 C 0.91251 0.57215 0.31263 0.0
C948 C 0.90723 0.55288 0.30658 0.0
C949 C 0.88801 0.53924 0.30006 0.0
C950 C 0.87435 0.54467 0.3016 0.0
C951 C 0.92155 0.54693 0.31274 0.0
C952 C 0.91821 0.53318 0.34192 0.0
C953 C 0.93934 0.55644 0.29504 0.0
C954 C 0.94316 0.56972 0.26099 0.0
C955 C 0.93069 0.56425 0.2249 0.0
C956 C 0.93421 0.57682 0.19306 0.0
C957 C 0.9502 0.5949 0.19682 0.0
C958 C 0.96274 0.60044 0.23241 0.0
C959 C 0.95928 0.58793 0.26436 0.0
C960 C 0.98019 0.5224 0.39389 0.0
C961 C 0.99186 0.53803 0.42207 0.0
C962 C 0.96772 0.52357 0.36451 0.0
C963 C 0.96705 0.54045 0.36277 0.0
C964 C 0.98011 0.55659 0.38789 0.0
C965 C 0.99229 0.55534 0.41762 0.0
C966 C 0.95076 0.5406 0.34169 0.0
C967 C 0.95382 0.55331 0.31023 0.0
C968 C 0.93259 0.53001 0.35676 0.0
C969 C 0.92859 0.51669 0.3906 0.0
C970 C 0.93695 0.52343 0.43166 0.0
C971 C 0.93336 0.51071 0.4632 0.0
C972 C 0.92127 0.49125 0.45412 0.0
C973 C 0.9127 0.48448 0.4135 0.0
C974 C 0.91629 0.49714 0.38182 0.0
H975 H 0.9185 0.48142 0.47857 0.0
H976 H 0.9529 0.60461 0.17213 0.0
H977 H 0.33307 0.9026 0.27463 0.0
H978 H 0.36299 0.91938 0.31715 0.0
H979 H 0.35438 0.86609 0.35981 0.0
H980 H 0.32463 0.84912 0.31649 0.0
H981 H 0.36596 0.89631 0.42554 0.0
H982 H 0.3843 0.884 0.29237 0.0
H983 H 0.38543 0.88325 0.21486 0.0
H984 H 0.41158 0.94405 0.219 0.0
H985 H 0.4103 0.94515 0.29654 0.0
H986 H 0.45914 0.94076 0.52131 0.0
H987 H 0.43365 0.91874 0.46976 0.0
H988 H 0.43048 0.96583 0.42049 0.0
H989 H 0.45536 0.98768 0.47289 0.0
H990 H 0.42589 0.93535 0.35741 0.0
H991 H 0.4031 0.94725 0.48706 0.0
H992 H 0.40165 0.94898 0.56445 0.0
H993 H 0.38346 0.88956 0.56647 0.0
H994 H 0.38519 0.88758 0.48905 0.0
C995 C 0.33749 0.89449 0.29338 0.0
C996 C 0.3263 0.87461 0.29291 0.0
C997 C 0.35459 0.90406 0.31742 0.0
C998 C 0.36085 0.89394 0.34149 0.0
C999 C 0.3497 0.87411 0.34152 0.0
C1000 C 0.33269 0.86447 0.31692 0.0
C1001 C 0.37911 0.90424 0.36645 0.0
C1002 C 0.37913 0.9045 0.41066 0.0
C1003 C 0.39619 0.91519 0.34691 0.0
C1004 C 0.39704 0.91464 0.30027 0.0
C1005 C 0.39013 0.8972 0.27674 0.0
C1006 C 0.39083 0.89671 0.23279 0.0
C1007 C 0.39854 0.91359 0.21201 0.0
C1008 C 0.40559 0.93099 0.23515 0.0
C1009 C 0.4049 0.93155 0.27911 0.0
C1010 C 0.45335 0.94638 0.49853 0.0
C1011 C 0.45908 0.96578 0.5007 0.0
C1012 C 0.43881 0.93385 0.46934 0.0
C1013 C 0.4302 0.94072 0.44161 0.0
C1014 C 0.43702 0.96032 0.44157 0.0
C1015 C 0.45118 0.97274 0.4714 0.0
C1016 C 0.41267 0.92748 0.41633 0.0
C1017 C 0.41277 0.9268 0.37217 0.0
C1018 C 0.39567 0.91622 0.43588 0.0
C1019 C 0.39458 0.91734 0.48237 0.0
C1020 C 0.39903 0.93461 0.50406 0.0
C1021 C 0.39811 0.93563 0.54791 0.0
C1022 C 0.39254 0.91941 0.5704 0.0
C1023 C 0.38783 0.90213 0.54902 0.0
C1024 C 0.38879 0.90105 0.50516 0.0
H1025 H 0.39181 0.92022 0.60434 0.0
H1026 H 0.39908 0.91318 0.17798 0.0
H1027 H 0.39583 0.29349 0.35631 0.0
H1028 H 0.41505 0.32711 0.37969 0.0
H1029 H 0.45602 0.31587 0.44089 0.0
H1030 H 0.43629 0.28211 0.41947 0.0
H1031 H 0.4499 0.33647 0.49164 0.0
H1032 H 0.46429 0.34101 0.34813 0.0
H1033 H 0.45839 0.33599 0.27073 0.0
H1034 H 0.42871 0.36698 0.27354 0.0
H1035 H 0.43418 0.37195 0.35107 0.0
H1036 H 0.51184 0.4367 0.54156 0.0
H1037 H 0.49783 0.40317 0.51662 0.0
H1038 H 0.45199 0.40576 0.4521 0.0
H1039 H 0.46657 0.43941 0.4752 0.0
H1040 H 0.46457 0.38989 0.40107 0.0
H1041 H 0.44523 0.3767 0.55048 0.0
H1042 H 0.45151 0.37873 0.62773 0.0
H1043 H 0.4949 0.36477 0.60954 0.0
H1044 H 0.48833 0.36195 0.53259 0.0
C1045 C 0.40898 0.29827 0.37463 0.0
C1046 C 0.41454 0.28522 0.3863 0.0
C1047 C 0.42007 0.3175 0.3876 0.0
C1048 C 0.43715 0.32413 0.41164 0.0
C1049 C 0.44291 0.31114 0.42241 0.0
C1050 C 0.43167 0.29186 0.4101 0.0
C1051 C 0.44827 0.3443 0.42812 0.0
C1052 C 0.45335 0.34814 0.47155 0.0
C1053 C 0.45281 0.35961 0.4022 0.0
C1054 C 0.44952 0.35672 0.35551 0.0
C1055 C 0.45638 0.34664 0.3323 0.0
C1056 C 0.45313 0.34382 0.28838 0.0
C1057 C 0.44315 0.35113 0.26724 0.0
C1058 C 0.43643 0.36131 0.28997 0.0
C1059 C 0.43962 0.36415 0.3339 0.0
C1060 C 0.49861 0.42989 0.52269 0.0
C1061 C 0.49014 0.44039 0.51033 0.0
C1062 C 0.49054 0.41074 0.50857 0.0
C1063 C 0.4737 0.4018 0.48271 0.0
C1064 C 0.465 0.4123 0.4718 0.0
C1065 C 0.47323 0.43145 0.48518 0.0
C1066 C 0.46555 0.38191 0.46475 0.0
C1067 C 0.46115 0.37816 0.42094 0.0
C1068 C 0.46198 0.36668 0.49004 0.0
C1069 C 0.46646 0.36934 0.53606 0.0
C1070 C 0.4562 0.37423 0.56314 0.0
C1071 C 0.45976 0.37543 0.60689 0.0
C1072 C 0.47376 0.37209 0.62368 0.0
C1073 C 0.48411 0.36741 0.59675 0.0
C1074 C 0.48038 0.36586 0.5531 0.0
H1075 H 0.4765 0.37297 0.65748 0.0
H1076 H 0.44065 0.34893 0.23324 0.0
H1077 H 0.55647 0.86829 0.86408 0.0
H1078 H 0.54353 0.8829 0.81794 0.0
H1079 H 0.59368 0.90626 0.7483 0.0
H1080 H 0.60682 0.89181 0.79496 0.0
H1081 H 0.58492 0.93263 0.76848 0.0
H1082 H 0.55162 0.87025 0.70303 0.0
H1083 H 0.53232 0.8353 0.69868 0.0
H1084 H 0.48654 0.83884 0.75069 0.0
H1085 H 0.50566 0.87382 0.75593 0.0
H1086 H 0.54309 0.971 0.63255 0.0
H1087 H 0.55624 0.95109 0.65345 0.0
H1088 H 0.51355 0.92532 0.74307 0.0
H1089 H 0.50013 0.94486 0.72153 0.0
H1090 H 0.52019 0.89905 0.7003 0.0
H1091 H 0.55585 0.96092 0.77621 0.0
H1092 H 0.57539 0.99587 0.78195 0.0
H1093 H 0.61687 0.99277 0.70884 0.0
H1094 H 0.59747 0.95776 0.70239 0.0
C1095 C 0.56458 0.87624 0.83842 0.0
C1096 C 0.58251 0.87861 0.83258 0.0
C1097 C 0.55715 0.88454 0.81198 0.0
C1098 C 0.56749 0.8954 0.77915 0.0
C1099 C 0.58539 0.89779 0.77318 0.0
C1100 C 0.59284 0.88949 0.79969 0.0
C1101 C 0.56009 0.90536 0.75332 0.0
C1102 C 0.57094 0.92521 0.75268 0.0
C1103 C 0.54174 0.89574 0.73323 0.0
C1104 C 0.53014 0.87468 0.73012 0.0
C1105 C 0.53749 0.86358 0.71384 0.0
C1106 C 0.52657 0.84376 0.71117 0.0
C1107 C 0.50822 0.83485 0.72447 0.0
C1108 C 0.50075 0.84576 0.74041 0.0
C1109 C 0.51162 0.86559 0.74318 0.0
C1110 C 0.5362 0.96068 0.65572 0.0
C1111 C 0.52046 0.95928 0.67499 0.0
C1112 C 0.54384 0.94948 0.66801 0.0
C1113 C 0.53589 0.93678 0.6999 0.0
C1114 C 0.51984 0.93497 0.71827 0.0
C1115 C 0.51227 0.94622 0.70615 0.0
C1116 C 0.54489 0.92624 0.71639 0.0
C1117 C 0.53432 0.90634 0.71532 0.0
C1118 C 0.56352 0.93577 0.73481 0.0
C1119 C 0.57513 0.95678 0.73844 0.0
C1120 C 0.56906 0.96771 0.76106 0.0
C1121 C 0.58012 0.98751 0.76451 0.0
C1122 C 0.59733 0.99652 0.74567 0.0
C1123 C 0.60352 0.98576 0.72335 0.0
C1124 C 0.59251 0.96594 0.71983 0.0
H1125 H 0.60592 0.01182 0.74858 0.0
H1126 H 0.49979 0.8195 0.72237 0.0
H1127 H 0.68819 0.57619 0.87759 0.0
H1128 H 0.65769 0.56538 0.84001 0.0
H1129 H 0.64595 0.50745 0.83897 0.0
H1130 H 0.67654 0.51822 0.8769 0.0
H1131 H 0.63747 0.51679 0.76127 0.0
H1132 H 0.62381 0.52046 0.90416 0.0
H1133 H 0.62833 0.53467 0.97662 0.0
H1134 H 0.62176 0.57993 0.92942 0.0
H1135 H 0.61751 0.56617 0.85655 0.0
H1136 H 0.54401 0.488 0.67817 0.0
H1137 H 0.56751 0.49004 0.73155 0.0
H1138 H 0.59547 0.55122 0.7353 0.0
H1139 H 0.57251 0.54932 0.68131 0.0
H1140 H 0.59224 0.53445 0.8175 0.0
H1141 H 0.61239 0.53386 0.67528 0.0
H1142 H 0.60808 0.52011 0.60238 0.0
H1143 H 0.6022 0.46877 0.64966 0.0
H1144 H 0.60619 0.48215 0.72294 0.0
C1145 C 0.67918 0.56117 0.86895 0.0
C1146 C 0.68493 0.54811 0.87925 0.0
C1147 C 0.66171 0.55499 0.84786 0.0
C1148 C 0.64952 0.5356 0.83701 0.0
C1149 C 0.65519 0.52248 0.84704 0.0
C1150 C 0.67267 0.52865 0.86846 0.0
C1151 C 0.63103 0.52929 0.81454 0.0
C1152 C 0.62737 0.52023 0.77402 0.0
C1153 C 0.61796 0.53398 0.831 0.0
C1154 C 0.62047 0.54234 0.8748 0.0
C1155 C 0.62349 0.53353 0.90917 0.0
C1156 C 0.62597 0.54149 0.95034 0.0
C1157 C 0.62537 0.55821 0.95761 0.0
C1158 C 0.62224 0.56698 0.92373 0.0
C1159 C 0.61977 0.55909 0.88248 0.0
C1160 C 0.55498 0.50186 0.691 0.0
C1161 C 0.55661 0.51852 0.67538 0.0
C1162 C 0.56836 0.50299 0.72137 0.0
C1163 C 0.58321 0.52078 0.73706 0.0
C1164 C 0.58408 0.53738 0.72355 0.0
C1165 C 0.57103 0.53626 0.69257 0.0
C1166 C 0.59898 0.52234 0.7642 0.0
C1167 C 0.60215 0.53058 0.8054 0.0
C1168 C 0.61159 0.51689 0.74846 0.0
C1169 C 0.60932 0.50889 0.70452 0.0
C1170 C 0.60999 0.51957 0.67012 0.0
C1171 C 0.60764 0.51186 0.62875 0.0
C1172 C 0.6048 0.49355 0.62139 0.0
C1173 C 0.60435 0.48293 0.65541 0.0
C1174 C 0.60666 0.49057 0.69686 0.0
H1175 H 0.60299 0.48761 0.58934 0.0
H1176 H 0.62729 0.56434 0.98952 0.0
H1177 H 0.1019 0.71646 0.80995 0.0
H1178 H 0.08374 0.68369 0.78063 0.0
H1179 H 0.13136 0.67607 0.80807 0.0
H1180 H 0.15001 0.70927 0.8343 0.0
H1181 H 0.118 0.66116 0.73533 0.0
H1182 H 0.08963 0.65713 0.86652 0.0
H1183 H 0.07375 0.6651 0.92141 0.0
H1184 H 0.02666 0.64968 0.83337 0.0
H1185 H 0.04237 0.64187 0.77776 0.0
H1186 H 0.06311 0.55811 0.74288 0.0
H1187 H 0.07923 0.59167 0.76842 0.0
H1188 H 0.05073 0.60357 0.66766 0.0
H1189 H 0.03473 0.57003 0.64156 0.0
H1190 H 0.05316 0.61585 0.77347 0.0
H1191 H 0.0855 0.62173 0.64107 0.0
H1192 H 0.10237 0.61173 0.59296 0.0
H1193 H 0.14289 0.62126 0.69398 0.0
H1194 H 0.12618 0.63115 0.74281 0.0
C1195 C 0.10858 0.70789 0.80928 0.0
C1196 C 0.12761 0.71566 0.82328 0.0
C1197 C 0.09807 0.68901 0.79304 0.0
C1198 C 0.1061 0.67727 0.79221 0.0
C1199 C 0.12485 0.68483 0.80788 0.0
C1200 C 0.1355 0.7038 0.8231 0.0
C1201 C 0.09529 0.65735 0.77369 0.0
C1202 C 0.10386 0.65132 0.74404 0.0
C1203 C 0.07673 0.64437 0.78448 0.0
C1204 C 0.06729 0.64914 0.81783 0.0
C1205 C 0.07596 0.6556 0.85875 0.0
C1206 C 0.06698 0.66006 0.89002 0.0
C1207 C 0.04923 0.65796 0.88084 0.0
C1208 C 0.04042 0.65134 0.84041 0.0
C1209 C 0.04936 0.64689 0.80901 0.0
C1210 C 0.06039 0.56793 0.72605 0.0
C1211 C 0.04799 0.56163 0.68981 0.0
C1212 C 0.06956 0.58701 0.74065 0.0
C1213 C 0.06619 0.59997 0.71967 0.0
C1214 C 0.05358 0.59372 0.68392 0.0
C1215 C 0.04464 0.57467 0.66883 0.0
C1216 C 0.07593 0.62007 0.73553 0.0
C1217 C 0.06721 0.62596 0.76472 0.0
C1218 C 0.09445 0.63282 0.72511 0.0
C1219 C 0.10449 0.62697 0.69566 0.0
C1220 C 0.09789 0.62151 0.65311 0.0
C1221 C 0.10744 0.61591 0.62569 0.0
C1222 C 0.12361 0.61578 0.64044 0.0
C1223 C 0.13033 0.62133 0.68261 0.0
C1224 C 0.12086 0.62696 0.71015 0.0
H1225 H 0.13097 0.61143 0.61915 0.0
H1226 H 0.0423 0.66141 0.9051 0.0
H1227 H 0.43381 0.1246 0.87883 0.0
H1228 H 0.45218 0.10402 0.85145 0.0
H1229 H 0.51581 0.16245 0.87587 0.0
H1230 H 0.49903 0.18478 0.90298 0.0
H1231 H 0.5136 0.14207 0.81098 0.0
H1232 H 0.49356 0.11413 0.94198 0.0
H1233 H 0.47201 0.09965 0.99886 0.0
H1234 H 0.43336 0.0535 0.91218 0.0
H1235 H 0.45461 0.0678 0.85472 0.0
H1236 H 0.51675 0.04593 0.78527 0.0
H1237 H 0.51875 0.0723 0.8293 0.0
H1238 H 0.5013 0.09149 0.7208 0.0
H1239 H 0.49964 0.06558 0.67672 0.0
H1240 H 0.48923 0.07512 0.84523 0.0
H1241 H 0.5143 0.13704 0.73161 0.0
H1242 H 0.53825 0.15177 0.67947 0.0
H1243 H 0.57167 0.13123 0.7399 0.0
H1244 H 0.54806 0.1166 0.79278 0.0
C1245 C 0.44892 0.13176 0.87673 0.0
C1246 C 0.46476 0.15608 0.90126 0.0
C1247 C 0.46057 0.11882 0.8623 0.0
C1248 C 0.48601 0.13052 0.86412 0.0
C1249 C 0.5007 0.15576 0.87726 0.0
C1250 C 0.49038 0.16998 0.89217 0.0
C1251 C 0.4948 0.11959 0.8487 0.0
C1252 C 0.50846 0.12751 0.81889 0.0
C1253 C 0.48849 0.10076 0.85974 0.0
C1254 C 0.47557 0.09216 0.89399 0.0
C1255 C 0.48041 0.10095 0.93503 0.0
C1256 C 0.46826 0.09276 0.96738 0.0
C1257 C 0.4513 0.0757 0.95911 0.0
C1258 C 0.44648 0.06674 0.91852 0.0
C1259 C 0.45859 0.07487 0.88608 0.0
C1260 C 0.51392 0.05612 0.77055 0.0
C1261 C 0.50778 0.05349 0.7276 0.0
C1262 C 0.51499 0.07114 0.79581 0.0
C1263 C 0.51014 0.08388 0.77843 0.0
C1264 C 0.50537 0.08205 0.73493 0.0
C1265 C 0.50429 0.06709 0.70975 0.0
C1266 C 0.50738 0.09731 0.80607 0.0
C1267 C 0.49477 0.08984 0.83808 0.0
C1268 C 0.51493 0.11664 0.79753 0.0
C1269 C 0.52934 0.12565 0.76611 0.0
C1270 C 0.52681 0.13578 0.73399 0.0
C1271 C 0.54032 0.14408 0.70424 0.0
C1272 C 0.55646 0.14242 0.70633 0.0
C1273 C 0.55914 0.13247 0.73824 0.0
C1274 C 0.54568 0.12414 0.76808 0.0
H1275 H 0.5669 0.14885 0.68325 0.0
H1276 H 0.4419 0.0694 0.98418 0.0
H1277 H 0.33245 0.42025 0.96841 0.0
H1278 H 0.35765 0.42909 0.91997 0.0
H1279 H 0.36623 0.48589 0.92079 0.0
H1280 H 0.34108 0.47715 0.96954 0.0
H1281 H 0.36527 0.47108 0.84023 0.0
H1282 H 0.39663 0.47897 0.97537 0.0
H1283 H 0.4016 0.46971 0.04567 0.0
H1284 H 0.40631 0.42379 0.98807 0.0
H1285 H 0.40106 0.43259 0.9174 0.0
H1286 H 0.46654 0.49539 0.78158 0.0
H1287 H 0.44439 0.49307 0.83377 0.0
H1288 H 0.39808 0.45124 0.75121 0.0
H1289 H 0.41997 0.45358 0.69877 0.0
H1290 H 0.42032 0.46338 0.87622 0.0
H1291 H 0.35984 0.456 0.76238 0.0
H1292 H 0.35581 0.46681 0.69321 0.0
H1293 H 0.41141 0.51543 0.71101 0.0
H1294 H 0.41568 0.50506 0.78053 0.0
C1295 C 0.3396 0.43457 0.95793 0.0
C1296 C 0.33449 0.44786 0.97193 0.0
C1297 C 0.35406 0.43963 0.93054 0.0
C1298 C 0.36381 0.45815 0.91689 0.0
C1299 C 0.35879 0.4715 0.9308 0.0
C1300 C 0.3444 0.46647 0.95849 0.0
C1301 C 0.37919 0.46347 0.88795 0.0
C1302 C 0.37734 0.46947 0.8481 0.0
C1303 C 0.3951 0.46168 0.89862 0.0
C1304 C 0.39829 0.45635 0.94108 0.0
C1305 C 0.39856 0.4668 0.97769 0.0
C1306 C 0.40146 0.46165 0.01761 0.0
C1307 C 0.40423 0.44614 0.02134 0.0
C1308 C 0.40414 0.43578 0.98514 0.0
C1309 C 0.40122 0.44086 0.94514 0.0
C1310 C 0.45164 0.48574 0.77442 0.0
C1311 C 0.44506 0.47471 0.73586 0.0
C1312 C 0.43901 0.48442 0.80434 0.0
C1313 C 0.41958 0.47214 0.79617 0.0
C1314 C 0.41299 0.46105 0.75788 0.0
C1315 C 0.42557 0.46236 0.72798 0.0
C1316 C 0.40615 0.4705 0.82801 0.0
C1317 C 0.40833 0.46514 0.86841 0.0
C1318 C 0.39067 0.4731 0.81801 0.0
C1319 C 0.38812 0.47965 0.77654 0.0
C1320 C 0.37117 0.46905 0.75164 0.0
C1321 C 0.36885 0.47509 0.71234 0.0
C1322 C 0.38336 0.49177 0.69767 0.0
C1323 C 0.40021 0.50248 0.72234 0.0
C1324 C 0.40259 0.49651 0.76168 0.0
H1325 H 0.38155 0.49641 0.66722 0.0
H1326 H 0.40647 0.44219 0.05227 0.0
H1327 H 0.86374 0.33036 0.9104 0.0
H1328 H 0.87751 0.35841 0.8686 0.0
H1329 H 0.91484 0.34103 0.81693 0.0
H1330 H 0.90114 0.313 0.85862 0.0
H1331 H 0.93353 0.378 0.84525 0.0
H1332 H 0.87788 0.33622 0.75702 0.0
H1333 H 0.8438 0.31496 0.74092 0.0
H1334 H 0.8337 0.36058 0.77438 0.0
H1335 H 0.86772 0.38205 0.79124 0.0
H1336 H 0.95132 0.43048 0.65059 0.0
H1337 H 0.92802 0.40377 0.68749 0.0
H1338 H 0.94319 0.43974 0.80208 0.0
H1339 H 0.96652 0.4666 0.76553 0.0
H1340 H 0.89733 0.39376 0.74179 0.0
H1341 H 0.95454 0.41627 0.87528 0.0
H1342 H 0.98891 0.43737 0.88742 0.0
H1343 H 0.99629 0.42824 0.75708 0.0
H1344 H 0.96201 0.4068 0.74439 0.0
C1345 C 0.87464 0.33235 0.8895 0.0
C1346 C 0.88107 0.31925 0.88697 0.0
C1347 C 0.88251 0.34839 0.86574 0.0
C1348 C 0.89708 0.3517 0.83939 0.0
C1349 C 0.90356 0.33869 0.83695 0.0
C1350 C 0.89566 0.32264 0.86052 0.0
C1351 C 0.9061 0.36908 0.8155 0.0
C1352 C 0.92556 0.38144 0.82278 0.0
C1353 C 0.89576 0.37355 0.78602 0.0
C1354 C 0.87532 0.36068 0.77581 0.0
C1355 C 0.86837 0.34167 0.76129 0.0
C1356 C 0.84907 0.3296 0.75196 0.0
C1357 C 0.83659 0.3364 0.75674 0.0
C1358 C 0.84339 0.35532 0.77075 0.0
C1359 C 0.86267 0.36745 0.78017 0.0
C1360 C 0.94926 0.43291 0.68327 0.0
C1361 C 0.9611 0.45055 0.70542 0.0
C1362 C 0.93586 0.41763 0.70424 0.0
C1363 C 0.93421 0.41974 0.74763 0.0
C1364 C 0.94443 0.43784 0.76861 0.0
C1365 C 0.95775 0.45318 0.74761 0.0
C1366 C 0.92459 0.40265 0.77205 0.0
C1367 C 0.90515 0.39036 0.76474 0.0
C1368 C 0.93497 0.39804 0.80113 0.0
C1369 C 0.95569 0.41015 0.8088 0.0
C1370 C 0.96351 0.4187 0.84928 0.0
C1371 C 0.98296 0.43075 0.85623 0.0
C1372 C 0.99474 0.4343 0.82294 0.0
C1373 C 0.98712 0.42562 0.78273 0.0
C1374 C 0.96769 0.41349 0.77567 0.0
H1375 H 0.00978 0.44359 0.82845 0.0
H1376 H 0.82165 0.32703 0.74949 0.0
H1377 H 0.89367 0.57384 0.84793 0.0
H1378 H 0.90747 0.5603 0.80088 0.0
H1379 H 0.92327 0.53869 0.90734 0.0
H1380 H 0.90903 0.55184 0.95471 0.0
H1381 H 0.95278 0.55933 0.85128 0.0
H1382 H 0.88893 0.50792 0.84692 0.0
H1383 H 0.8544 0.49323 0.83856 0.0
H1384 H 0.85842 0.51031 0.71119 0.0
H1385 H 0.89302 0.52537 0.719 0.0
H1386 H 0.98463 0.51078 0.71649 0.0
H1387 H 0.96585 0.51428 0.77085 0.0
H1388 H 0.94199 0.53558 0.67939 0.0
H1389 H 0.96064 0.53212 0.62524 0.0
H1390 H 0.91569 0.51154 0.73346 0.0
H1391 H 0.97801 0.56613 0.73858 0.0
H1392 H 0.01272 0.58244 0.74366 0.0
H1393 H 0.01185 0.56148 0.86621 0.0
H1394 H 0.97709 0.54475 0.86152 0.0
C1395 C 0.89974 0.5659 0.86131 0.0
C1396 C 0.89985 0.56348 0.90498 0.0
C1397 C 0.90769 0.55825 0.83439 0.0
C1398 C 0.91621 0.54836 0.85066 0.0
C1399 C 0.91665 0.54618 0.89422 0.0
C1400 C 0.90845 0.55359 0.92111 0.0
C1401 C 0.92503 0.54073 0.82203 0.0
C1402 C 0.94465 0.54857 0.82608 0.0
C1403 C 0.91442 0.52706 0.7886 0.0
C1404 C 0.89359 0.51791 0.78368 0.0
C1405 C 0.88247 0.50868 0.81724 0.0
C1406 C 0.86288 0.50027 0.81258 0.0
C1407 C 0.85422 0.50087 0.7744 0.0
C1408 C 0.86515 0.50986 0.74076 0.0
C1409 C 0.88475 0.51833 0.74528 0.0
C1410 C 0.97498 0.5157 0.70783 0.0
C1411 C 0.97406 0.52119 0.66679 0.0
C1412 C 0.96439 0.51782 0.73889 0.0
C1413 C 0.95266 0.52533 0.72911 0.0
C1414 C 0.95093 0.52975 0.68753 0.0
C1415 C 0.96166 0.52786 0.65673 0.0
C1416 C 0.94342 0.53021 0.76257 0.0
C1417 C 0.92377 0.52198 0.75924 0.0
C1418 C 0.95403 0.54374 0.79629 0.0
C1419 C 0.97493 0.55397 0.79947 0.0
C1420 C 0.98521 0.56485 0.76646 0.0
C1421 C 0.00489 0.5742 0.76927 0.0
C1422 C 0.01448 0.57294 0.80517 0.0
C1423 C 0.0044 0.56239 0.83838 0.0
C1424 C 0.9847 0.55298 0.83566 0.0
H1425 H 0.02972 0.58018 0.80728 0.0
H1426 H 0.83905 0.49434 0.77085 0.0
H1427 H 0.2848 0.85615 0.79973 0.0
H1428 H 0.31001 0.8828 0.7657 0.0
H1429 H 0.34759 0.89481 0.87561 0.0
H1430 H 0.32259 0.86802 0.90946 0.0
H1431 H 0.35004 0.92788 0.84126 0.0
H1432 H 0.35046 0.87072 0.79785 0.0
H1433 H 0.33655 0.83783 0.76745 0.0
H1434 H 0.32375 0.85438 0.64946 0.0
H1435 H 0.33731 0.88734 0.67945 0.0
H1436 H 0.4421 0.97326 0.77303 0.0
H1437 H 0.41153 0.95296 0.80078 0.0
H1438 H 0.38424 0.94635 0.67751 0.0
H1439 H 0.41501 0.96684 0.64932 0.0
H1440 H 0.37353 0.91222 0.71268 0.0
H1441 H 0.37761 0.97087 0.75434 0.0
H1442 H 0.39247 0.00373 0.78551 0.0
H1443 H 0.39768 0.98472 0.90704 0.0
H1444 H 0.3831 0.95177 0.87649 0.0
C1445 C 0.29835 0.86471 0.81687 0.0
C1446 C 0.3016 0.86022 0.85754 0.0
C1447 C 0.31272 0.87985 0.7974 0.0
C1448 C 0.33061 0.89076 0.81824 0.0
C1449 C 0.3338 0.88665 0.85923 0.0
C1450 C 0.31951 0.87136 0.87853 0.0
C1451 C 0.34638 0.90565 0.79631 0.0
C1452 C 0.35525 0.9245 0.81325 0.0
C1453 C 0.35281 0.90123 0.75916 0.0
C1454 C 0.34464 0.88143 0.74108 0.0
C1455 C 0.34448 0.8673 0.76557 0.0
C1456 C 0.3367 0.84866 0.74839 0.0
C1457 C 0.3292 0.844 0.7066 0.0
C1458 C 0.32952 0.858 0.68187 0.0
C1459 C 0.33724 0.87666 0.69894 0.0
C1460 C 0.42959 0.96771 0.75189 0.0
C1461 C 0.43095 0.97162 0.70898 0.0
C1462 C 0.41211 0.9562 0.76787 0.0
C1463 C 0.39561 0.94828 0.7413 0.0
C1464 C 0.39683 0.95244 0.69857 0.0
C1465 C 0.41437 0.9642 0.68259 0.0
C1466 C 0.37742 0.93449 0.7579 0.0
C1467 C 0.3681 0.91576 0.74013 0.0
C1468 C 0.37065 0.93904 0.79435 0.0
C1469 C 0.37936 0.95884 0.81302 0.0
C1470 C 0.38205 0.97371 0.78765 0.0
C1471 C 0.3904 0.99235 0.80523 0.0
C1472 C 0.39605 0.99632 0.84821 0.0
C1473 C 0.39331 0.98163 0.87374 0.0
C1474 C 0.38497 0.96295 0.85631 0.0
H1475 H 0.40252 0.01077 0.86176 0.0
H1476 H 0.32321 0.82956 0.69333 0.0
H1477 H 0.47866 0.35477 0.98473 0.0
H1478 H 0.48824 0.37699 0.92839 0.0
H1479 H 0.45243 0.33088 0.8376 0.0
H1480 H 0.44257 0.30865 0.89381 0.0
H1481 H 0.48866 0.35603 0.80942 0.0
H1482 H 0.43696 0.35783 0.87163 0.0
H1483 H 0.41979 0.36159 0.9299 0.0
H1484 H 0.46507 0.41865 0.95903 0.0
H1485 H 0.48266 0.41512 0.90132 0.0
H1486 H 0.46615 0.41078 0.65929 0.0
H1487 H 0.46449 0.38761 0.70863 0.0
H1488 H 0.51457 0.43121 0.77798 0.0
H1489 H 0.5166 0.45439 0.72859 0.0
H1490 H 0.47349 0.40788 0.81687 0.0
H1491 H 0.52441 0.40674 0.75114 0.0
H1492 H 0.54203 0.40249 0.69478 0.0
H1493 H 0.49906 0.34391 0.67366 0.0
H1494 H 0.48075 0.34801 0.72872 0.0
C1495 C 0.47304 0.34936 0.95264 0.0
C1496 C 0.46019 0.32992 0.94358 0.0
C1497 C 0.47845 0.36205 0.92058 0.0
C1498 C 0.47106 0.35554 0.87888 0.0
C1499 C 0.45841 0.33612 0.86955 0.0
C1500 C 0.45283 0.32345 0.90168 0.0
C1501 C 0.47593 0.3691 0.84529 0.0
C1502 C 0.48519 0.36727 0.81069 0.0
C1503 C 0.47175 0.38398 0.84771 0.0
C1504 C 0.46122 0.38613 0.88248 0.0
C1505 C 0.44334 0.37111 0.89074 0.0
C1506 C 0.43352 0.37322 0.92361 0.0
C1507 C 0.44136 0.39033 0.94824 0.0
C1508 C 0.45903 0.40539 0.93998 0.0
C1509 C 0.46893 0.40335 0.90719 0.0
C1510 C 0.47728 0.41525 0.68387 0.0
C1511 C 0.49149 0.43442 0.6899 0.0
C1512 C 0.47629 0.40201 0.71207 0.0
C1513 C 0.48957 0.40768 0.74642 0.0
C1514 C 0.50436 0.42653 0.75122 0.0
C1515 C 0.50546 0.43974 0.72293 0.0
C1516 C 0.48619 0.3948 0.78081 0.0
C1517 C 0.47706 0.39671 0.81556 0.0
C1518 C 0.49052 0.38003 0.77842 0.0
C1519 C 0.50097 0.37782 0.74352 0.0
C1520 C 0.51843 0.39309 0.73374 0.0
C1521 C 0.52862 0.39067 0.70216 0.0
C1522 C 0.52165 0.37295 0.68057 0.0
C1523 C 0.50444 0.35763 0.69041 0.0
C1524 C 0.4941 0.36003 0.72163 0.0
H1525 H 0.5296 0.37108 0.65626 0.0
H1526 H 0.43372 0.39194 0.97364 0.0
H1527 H 0.12144 0.39212 0.88282 0.0
H1528 H 0.10663 0.40484 0.83585 0.0
H1529 H 0.09153 0.42678 0.94417 0.0
H1530 H 0.10635 0.41414 0.99118 0.0
H1531 H 0.0619 0.40707 0.88607 0.0
H1532 H 0.12662 0.45645 0.88725 0.0
H1533 H 0.16059 0.46985 0.87899 0.0
H1534 H 0.14924 0.44969 0.74834 0.0
H1535 H 0.11514 0.4359 0.75599 0.0
H1536 H 0.03905 0.47157 0.7932 0.0
H1537 H 0.05395 0.4573 0.83441 0.0
H1538 H 0.06239 0.43317 0.71973 0.0
H1539 H 0.04714 0.44714 0.67808 0.0
H1540 H 0.09499 0.45263 0.77732 0.0
H1541 H 0.0305 0.40401 0.7753 0.0
H1542 H 0.99643 0.38969 0.78358 0.0
H1543 H 0.00726 0.40822 0.91517 0.0
H1544 H 0.04145 0.42284 0.90762 0.0
C1545 C 0.11527 0.39997 0.89654 0.0
C1546 C 0.11541 0.40253 0.94066 0.0
C1547 C 0.10678 0.40718 0.86972 0.0
C1548 C 0.09812 0.41688 0.88655 0.0
C1549 C 0.09819 0.41939 0.93055 0.0
C1550 C 0.10676 0.41229 0.95733 0.0
C1551 C 0.08842 0.42391 0.85841 0.0
C1552 C 0.06919 0.41721 0.86264 0.0
C1553 C 0.09782 0.43669 0.82701 0.0
C1554 C 0.11831 0.44494 0.82233 0.0
C1555 C 0.13134 0.45471 0.85686 0.0
C1556 C 0.15063 0.46241 0.85227 0.0
C1557 C 0.15706 0.46057 0.8132 0.0
C1558 C 0.14423 0.45106 0.77861 0.0
C1559 C 0.12492 0.44331 0.78305 0.0
C1560 C 0.04406 0.46322 0.77667 0.0
C1561 C 0.04194 0.46051 0.73236 0.0
C1562 C 0.05248 0.45501 0.8003 0.0
C1563 C 0.05919 0.44415 0.78007 0.0
C1564 C 0.05726 0.4415 0.73585 0.0
C1565 C 0.04851 0.44944 0.71217 0.0
C1566 C 0.06856 0.43594 0.80537 0.0
C1567 C 0.0877 0.44241 0.80062 0.0
C1568 C 0.05909 0.42295 0.83631 0.0
C1569 C 0.03856 0.41465 0.84081 0.0
C1570 C 0.02564 0.4052 0.80593 0.0
C1571 C 0.0063 0.39693 0.81054 0.0
C1572 C 0.99968 0.39795 0.84993 0.0
C1573 C 0.01241 0.40736 0.88473 0.0
C1574 C 0.03177 0.41563 0.88031 0.0
H1575 H 0.9847 0.39156 0.85341 0.0
H1576 H 0.172 0.46655 0.80969 0.0
H1577 H 0.70694 0.12222 0.85038 0.0
H1578 H 0.67833 0.11359 0.80718 0.0
H1579 H 0.64489 0.08616 0.91178 0.0
H1580 H 0.67357 0.09593 0.95595 0.0
H1581 H 0.65398 0.08135 0.78052 0.0
H1582 H 0.60143 0.0796 0.90279 0.0
H1583 H 0.6018 0.09889 0.965 0.0
H1584 H 0.64983 0.14798 0.92214 0.0
H1585 H 0.64959 0.12908 0.85934 0.0
H1586 H 0.56683 0.01128 0.71155 0.0
H1587 H 0.59214 0.03187 0.7641 0.0
H1588 H 0.5826 0.07821 0.73912 0.0
H1589 H 0.55649 0.05725 0.68759 0.0
H1590 H 0.59579 0.08008 0.82291 0.0
H1591 H 0.61304 0.07425 0.68459 0.0
H1592 H 0.61292 0.0573 0.61846 0.0
H1593 H 0.63788 0.02979 0.68607 0.0
H1594 H 0.63783 0.04629 0.75277 0.0
C1595 C 0.69354 0.11485 0.86463 0.0
C1596 C 0.69252 0.10981 0.90678 0.0
C1597 C 0.67714 0.10983 0.83976 0.0
C1598 C 0.65935 0.0993 0.85611 0.0
C1599 C 0.65836 0.09469 0.89853 0.0
C1600 C 0.67477 0.1001 0.92368 0.0
C1601 C 0.64191 0.0911 0.82765 0.0
C1602 C 0.64138 0.08133 0.78976 0.0
C1603 C 0.62545 0.09132 0.83895 0.0
C1604 C 0.62555 0.10286 0.87644 0.0
C1605 C 0.612 0.09453 0.90647 0.0
C1606 C 0.61221 0.1054 0.94189 0.0
C1607 C 0.62586 0.12463 0.94756 0.0
C1608 C 0.6393 0.13306 0.91777 0.0
C1609 C 0.63915 0.12227 0.88229 0.0
C1610 C 0.56974 0.02568 0.71831 0.0
C1611 C 0.55999 0.03284 0.69534 0.0
C1612 C 0.58421 0.03742 0.74812 0.0
C1613 C 0.5896 0.05666 0.75443 0.0
C1614 C 0.57874 0.06342 0.73441 0.0
C1615 C 0.56387 0.05148 0.70506 0.0
C1616 C 0.60794 0.06987 0.77728 0.0
C1617 C 0.60858 0.0805 0.81375 0.0
C1618 C 0.62475 0.07101 0.7641 0.0
C1619 C 0.62526 0.06139 0.72381 0.0
C1620 C 0.6184 0.06449 0.68543 0.0
C1621 C 0.61836 0.05497 0.64782 0.0
C1622 C 0.62535 0.04244 0.64808 0.0
C1623 C 0.63247 0.0395 0.68591 0.0
C1624 C 0.6325 0.04896 0.72363 0.0
H1625 H 0.62528 0.03505 0.61894 0.0
H1626 H 0.626 0.13301 0.97502 0.0
H1627 H 0.61682 0.70298 0.79732 0.0
H1628 H 0.59857 0.67696 0.74362 0.0
H1629 H 0.5545 0.6497 0.82966 0.0
H1630 H 0.57299 0.67523 0.88371 0.0
H1631 H 0.56418 0.62586 0.80032 0.0
H1632 H 0.54966 0.67042 0.73862 0.0
H1633 H 0.55663 0.7007 0.70918 0.0
H1634 H 0.58629 0.69135 0.61105 0.0
H1635 H 0.57975 0.66113 0.64031 0.0
H1636 H 0.49549 0.55064 0.68062 0.0
H1637 H 0.51034 0.58364 0.70839 0.0
H1638 H 0.55694 0.59831 0.63011 0.0
H1639 H 0.54184 0.56518 0.60142 0.0
H1640 H 0.54719 0.62921 0.65039 0.0
H1641 H 0.56286 0.58539 0.71591 0.0
H1642 H 0.55426 0.55445 0.74421 0.0
H1643 H 0.52138 0.56282 0.8356 0.0
H1644 H 0.52954 0.59369 0.80739 0.0
C1645 C 0.60314 0.6915 0.80447 0.0
C1646 C 0.59642 0.69096 0.84483 0.0
C1647 C 0.59266 0.67673 0.7737 0.0
C1648 C 0.57514 0.66137 0.78256 0.0
C1649 C 0.56803 0.66135 0.82216 0.0
C1650 C 0.57858 0.67595 0.85301 0.0
C1651 C 0.56499 0.64439 0.75255 0.0
C1652 C 0.56031 0.62669 0.76772 0.0
C1653 C 0.56042 0.64542 0.70955 0.0
C1654 C 0.56439 0.6636 0.69195 0.0
C1655 C 0.55782 0.6749 0.711 0.0
C1656 C 0.56167 0.69204 0.6943 0.0
C1657 C 0.57195 0.69798 0.65834 0.0
C1658 C 0.57836 0.68675 0.63895 0.0
C1659 C 0.57458 0.66961 0.65556 0.0
C1660 C 0.50853 0.56106 0.66807 0.0
C1661 C 0.51766 0.55541 0.63932 0.0
C1662 C 0.51697 0.57989 0.68384 0.0
C1663 C 0.53485 0.59328 0.67176 0.0
C1664 C 0.5431 0.58815 0.63967 0.0
C1665 C 0.53449 0.56923 0.62337 0.0
C1666 C 0.54618 0.61096 0.69879 0.0
C1667 C 0.55117 0.62863 0.68303 0.0
C1668 C 0.5511 0.61003 0.74144 0.0
C1669 C 0.5467 0.59177 0.75934 0.0
C1670 C 0.55373 0.58059 0.7419 0.0
C1671 C 0.54894 0.56307 0.75792 0.0
C1672 C 0.53726 0.55666 0.79161 0.0
C1673 C 0.53042 0.5678 0.80949 0.0
C1674 C 0.53513 0.58531 0.79354 0.0
H1675 H 0.53355 0.54307 0.80391 0.0
H1676 H 0.5749 0.71125 0.64545 0.0
H1677 H 0.42434 0.1268 0.4339 0.0
H1678 H 0.43361 0.10572 0.46749 0.0
H1679 H 0.4853 0.13141 0.40367 0.0
H1680 H 0.47659 0.15293 0.37137 0.0
H1681 H 0.46023 0.08817 0.39665 0.0
H1682 H 0.491 0.1439 0.49599 0.0
H1683 H 0.49109 0.16803 0.54549 0.0
H1684 H 0.45219 0.12409 0.62046 0.0
H1685 H 0.45164 0.09967 0.57096 0.0
H1686 H 0.51536 0.05309 0.47593 0.0
H1687 H 0.50447 0.0747 0.45547 0.0
H1688 H 0.46731 0.05771 0.55786 0.0
H1689 H 0.4789 0.03657 0.57978 0.0
H1690 H 0.48106 0.09424 0.54809 0.0
H1691 H 0.45076 0.0386 0.45631 0.0
H1692 H 0.44821 0.01274 0.40844 0.0
H1693 H 0.4816 0.05328 0.32033 0.0
H1694 H 0.48464 0.07943 0.36803 0.0
C1695 C 0.43768 0.12792 0.4271 0.0
C1696 C 0.44949 0.14123 0.39925 0.0
C1697 C 0.44296 0.11596 0.44635 0.0
C1698 C 0.46007 0.11703 0.43779 0.0
C1699 C 0.47198 0.13036 0.41038 0.0
C1700 C 0.46691 0.14257 0.39179 0.0
C1701 C 0.46542 0.10389 0.45634 0.0
C1702 C 0.46495 0.08955 0.42964 0.0
C1703 C 0.47073 0.10527 0.49976 0.0
C1704 C 0.47108 0.11996 0.52946 0.0
C1705 C 0.4823 0.13937 0.52274 0.0
C1706 C 0.48247 0.15311 0.55087 0.0
C1707 C 0.4716 0.1476 0.58602 0.0
C1708 C 0.46057 0.12834 0.59317 0.0
C1709 C 0.46033 0.11455 0.5651 0.0
C1710 C 0.50498 0.05406 0.49435 0.0
C1711 C 0.49774 0.04291 0.52903 0.0
C1712 C 0.4987 0.06636 0.48252 0.0
C1713 C 0.48463 0.06738 0.50429 0.0
C1714 C 0.47804 0.057 0.54032 0.0
C1715 C 0.48464 0.04491 0.55278 0.0
C1716 C 0.47647 0.07878 0.48806 0.0
C1717 C 0.47623 0.09269 0.51514 0.0
C1718 C 0.47004 0.07672 0.44507 0.0
C1719 C 0.46803 0.061 0.41592 0.0
C1720 C 0.45765 0.04202 0.42684 0.0
C1721 C 0.45611 0.02731 0.39973 0.0
C1722 C 0.46475 0.03137 0.36139 0.0
C1723 C 0.47492 0.05016 0.35005 0.0
C1724 C 0.47654 0.06493 0.3771 0.0
H1725 H 0.46355 0.01996 0.34044 0.0
H1726 H 0.47176 0.15825 0.60777 0.0
H1727 H 0.33726 0.5028 0.36486 0.0
H1728 H 0.36747 0.50369 0.36265 0.0
H1729 H 0.34195 0.44719 0.40729 0.0
H1730 H 0.31171 0.44615 0.40872 0.0
H1731 H 0.38713 0.50294 0.42853 0.0
H1732 H 0.36452 0.42434 0.37719 0.0
H1733 H 0.34166 0.39878 0.32644 0.0
H1734 H 0.33978 0.44011 0.24929 0.0
H1735 H 0.36286 0.46595 0.29917 0.0
H1736 H 0.42967 0.44634 0.50117 0.0
H1737 H 0.40605 0.44707 0.45414 0.0
H1738 H 0.44732 0.50263 0.41804 0.0
H1739 H 0.47097 0.50237 0.46664 0.0
H1740 H 0.39824 0.45163 0.37413 0.0
H1741 H 0.42831 0.52981 0.41754 0.0
H1742 H 0.45113 0.55475 0.46977 0.0
H1743 H 0.43653 0.51347 0.56296 0.0
H1744 H 0.41361 0.48835 0.51129 0.0
C1745 C 0.33802 0.49039 0.37307 0.0
C1746 C 0.32209 0.47428 0.38641 0.0
C1747 C 0.35528 0.49094 0.37194 0.0
C1748 C 0.35696 0.47542 0.38425 0.0
C1749 C 0.34094 0.45916 0.39662 0.0
C1750 C 0.32368 0.45859 0.39767 0.0
C1751 C 0.37574 0.47697 0.38908 0.0
C1752 C 0.38973 0.49199 0.41553 0.0
C1753 C 0.37911 0.46259 0.37262 0.0
C1754 C 0.36537 0.44711 0.34213 0.0
C1755 C 0.35934 0.428 0.34927 0.0
C1756 C 0.34631 0.41345 0.32067 0.0
C1757 C 0.33925 0.41781 0.28471 0.0
C1758 C 0.34523 0.43674 0.27722 0.0
C1759 C 0.35826 0.45135 0.30569 0.0
C1760 C 0.43389 0.45861 0.48272 0.0
C1761 C 0.4521 0.47455 0.48868 0.0
C1762 C 0.42036 0.45891 0.45544 0.0
C1763 C 0.42478 0.4751 0.43339 0.0
C1764 C 0.44351 0.49014 0.43547 0.0
C1765 C 0.45705 0.48995 0.46319 0.0
C1766 C 0.40919 0.47722 0.41447 0.0
C1767 C 0.39579 0.46288 0.38571 0.0
C1768 C 0.40626 0.49217 0.42881 0.0
C1769 C 0.41939 0.50725 0.46056 0.0
C1770 C 0.42992 0.52612 0.44927 0.0
C1771 C 0.44289 0.54026 0.47872 0.0
C1772 C 0.4453 0.53569 0.51963 0.0
C1773 C 0.43468 0.51699 0.53126 0.0
C1774 C 0.4217 0.5028 0.50192 0.0
H1775 H 0.45538 0.54664 0.54234 0.0
H1776 H 0.32916 0.40652 0.26263 0.0
H1777 H 0.86437 0.2989 0.41417 0.0
H1778 H 0.89055 0.32641 0.45414 0.0
H1779 H 0.90312 0.35829 0.34273 0.0
H1780 H 0.87669 0.33128 0.30306 0.0
H1781 H 0.93581 0.36047 0.39414 0.0
H1782 H 0.87986 0.36664 0.40365 0.0
H1783 H 0.847 0.35506 0.42094 0.0
H1784 H 0.86093 0.34981 0.54961 0.0
H1785 H 0.89385 0.36107 0.53283 0.0
H1786 H 0.98611 0.45778 0.4454 0.0
H1787 H 0.96417 0.4251 0.42074 0.0
H1788 H 0.95093 0.4103 0.54914 0.0
H1789 H 0.97274 0.44336 0.57429 0.0
H1790 H 0.91972 0.39593 0.4994 0.0
H1791 H 0.97654 0.39485 0.4946 0.0
H1792 H 0.00954 0.40597 0.47932 0.0
H1793 H 0.99487 0.40051 0.34627 0.0
H1794 H 0.96183 0.38965 0.36072 0.0
C1795 C 0.87288 0.31173 0.39815 0.0
C1796 C 0.86856 0.3128 0.35538 0.0
C1797 C 0.88778 0.32736 0.42095 0.0
C1798 C 0.89875 0.34426 0.4012 0.0
C1799 C 0.89487 0.34526 0.35829 0.0
C1800 C 0.87975 0.32979 0.33569 0.0
C1801 C 0.91351 0.36137 0.42574 0.0
C1802 C 0.93238 0.36831 0.41709 0.0
C1803 C 0.90896 0.37109 0.45675 0.0
C1804 C 0.88923 0.36443 0.46686 0.0
C1805 C 0.87587 0.36282 0.43551 0.0
C1806 C 0.85724 0.35635 0.44524 0.0
C1807 C 0.85186 0.35163 0.48632 0.0
C1808 C 0.86511 0.35343 0.51778 0.0
C1809 C 0.88375 0.35984 0.50818 0.0
C1810 C 0.97868 0.44762 0.4686 0.0
C1811 C 0.98121 0.45323 0.5119 0.0
C1812 C 0.96621 0.42885 0.4544 0.0
C1813 C 0.95612 0.41515 0.48311 0.0
C1814 C 0.95867 0.42062 0.52645 0.0
C1815 C 0.97116 0.4395 0.54076 0.0
C1816 C 0.94215 0.39549 0.46705 0.0
C1817 C 0.92335 0.38799 0.4772 0.0
C1818 C 0.94683 0.38514 0.43782 0.0
C1819 C 0.96669 0.39153 0.4288 0.0
C1820 C 0.98036 0.39614 0.46208 0.0
C1821 C 0.99908 0.40239 0.45356 0.0
C1822 C 0.0043 0.40398 0.41186 0.0
C1823 C 0.9908 0.39928 0.37857 0.0
C1824 C 0.97206 0.39304 0.38691 0.0
H1825 H 0.0188 0.40882 0.40533 0.0
H1826 H 0.83744 0.34665 0.4938 0.0
H1827 H 0.5858 0.86133 0.36144 0.0
H1828 H 0.57504 0.87968 0.40303 0.0
H1829 H 0.52553 0.85812 0.31821 0.0
H1830 H 0.53585 0.83924 0.27723 0.0
H1831 H 0.54772 0.90024 0.33939 0.0
H1832 H 0.51804 0.83983 0.40335 0.0
H1833 H 0.51787 0.81282 0.43641 0.0
H1834 H 0.55635 0.85057 0.5369 0.0
H1835 H 0.55699 0.87788 0.50403 0.0
H1836 H 0.50339 0.9393 0.45615 0.0
H1837 H 0.50722 0.9147 0.41935 0.0
H1838 H 0.54978 0.92265 0.51464 0.0
H1839 H 0.54583 0.94704 0.55217 0.0
H1840 H 0.52959 0.8861 0.48689 0.0
H1841 H 0.56268 0.94591 0.42541 0.0
H1842 H 0.56694 0.97498 0.39405 0.0
H1843 H 0.52697 0.94124 0.29165 0.0
H1844 H 0.52232 0.91193 0.32266 0.0
C1845 C 0.57268 0.8606 0.35155 0.0
C1846 C 0.56189 0.84914 0.3156 0.0
C1847 C 0.56653 0.871 0.37537 0.0
C1848 C 0.54953 0.87021 0.36356 0.0
C1849 C 0.53874 0.85893 0.3276 0.0
C1850 C 0.54471 0.84823 0.30415 0.0
C1851 C 0.54311 0.88129 0.38886 0.0
C1852 C 0.54338 0.89696 0.37133 0.0
C1853 C 0.53819 0.87735 0.43103 0.0
C1854 C 0.5377 0.86092 0.45099 0.0
C1855 C 0.5266 0.8424 0.43228 0.0
C1856 C 0.5264 0.82703 0.45103 0.0
C1857 C 0.53713 0.82998 0.48868 0.0
C1858 C 0.54806 0.84831 0.50771 0.0
C1859 C 0.54834 0.86374 0.48905 0.0
C1860 C 0.51325 0.93553 0.4699 0.0
C1861 C 0.52457 0.94543 0.5067 0.0
C1862 C 0.5155 0.92152 0.44865 0.0
C1863 C 0.52916 0.91723 0.46364 0.0
C1864 C 0.53929 0.92587 0.5023 0.0
C1865 C 0.537 0.93984 0.52371 0.0
C1866 C 0.534 0.90502 0.43733 0.0
C1867 C 0.53362 0.88924 0.45472 0.0
C1868 C 0.5393 0.90914 0.39532 0.0
C1869 C 0.54198 0.92672 0.37663 0.0
C1870 C 0.55467 0.94468 0.3964 0.0
C1871 C 0.55719 0.9612 0.37865 0.0
C1872 C 0.54718 0.95995 0.34097 0.0
C1873 C 0.53468 0.94218 0.32089 0.0
C1874 C 0.53211 0.92561 0.33851 0.0
H1875 H 0.54913 0.97275 0.3273 0.0
H1876 H 0.53695 0.81806 0.50315 0.0
H1877 H 0.72568 0.56151 0.32007 0.0
H1878 H 0.6918 0.55067 0.36403 0.0
H1879 H 0.68321 0.60105 0.29793 0.0
H1880 H 0.71681 0.61323 0.25222 0.0
H1881 H 0.67507 0.59707 0.37676 0.0
H1882 H 0.6506 0.54321 0.27345 0.0
H1883 H 0.65107 0.51681 0.23364 0.0
H1884 H 0.65367 0.49262 0.34993 0.0
H1885 H 0.65331 0.51895 0.39035 0.0
H1886 H 0.58102 0.5623 0.43422 0.0
H1887 H 0.61036 0.57291 0.3988 0.0
H1888 H 0.61891 0.53115 0.46067 0.0
H1889 H 0.58896 0.51986 0.4939 0.0
H1890 H 0.62536 0.52972 0.38379 0.0
H1891 H 0.64581 0.58184 0.48726 0.0
H1892 H 0.64466 0.60798 0.52632 0.0
H1893 H 0.6498 0.6358 0.41115 0.0
H1894 H 0.65075 0.60971 0.37131 0.0
C1895 C 0.71815 0.5692 0.31713 0.0
C1896 C 0.72284 0.5863 0.27541 0.0
C1897 C 0.69651 0.56192 0.34248 0.0
C1898 C 0.68303 0.57365 0.33326 0.0
C1899 C 0.69123 0.59386 0.30113 0.0
C1900 C 0.71265 0.60222 0.27434 0.0
C1901 C 0.66591 0.56806 0.35635 0.0
C1902 C 0.66405 0.58236 0.3778 0.0
C1903 C 0.65185 0.54887 0.35888 0.0
C1904 C 0.65226 0.53317 0.33483 0.0
C1905 C 0.65139 0.5323 0.29047 0.0
C1906 C 0.65159 0.51734 0.26781 0.0
C1907 C 0.65249 0.50309 0.28925 0.0
C1908 C 0.65306 0.50371 0.33337 0.0
C1909 C 0.65284 0.51863 0.35615 0.0
C1910 C 0.58938 0.55564 0.44054 0.0
C1911 C 0.583 0.54044 0.46682 0.0
C1912 C 0.60617 0.56173 0.42053 0.0
C1913 C 0.61709 0.55305 0.42748 0.0
C1914 C 0.61079 0.53809 0.45471 0.0
C1915 C 0.59379 0.53172 0.47388 0.0
C1916 C 0.63446 0.55873 0.40461 0.0
C1917 C 0.63637 0.54445 0.38302 0.0
C1918 C 0.64865 0.57797 0.4023 0.0
C1919 C 0.64819 0.59373 0.42626 0.0
C1920 C 0.64658 0.59347 0.47023 0.0
C1921 C 0.64598 0.60829 0.49251 0.0
C1922 C 0.64711 0.62352 0.47121 0.0
C1923 C 0.64891 0.62399 0.4276 0.0
C1924 C 0.6495 0.6092 0.40516 0.0
H1925 H 0.64664 0.63497 0.48852 0.0
H1926 H 0.65268 0.49154 0.27167 0.0
H1927 H 0.10852 0.70388 0.33415 0.0
H1928 H 0.10623 0.68422 0.39259 0.0
H1929 H 0.12673 0.65451 0.31519 0.0
H1930 H 0.1283 0.67366 0.25618 0.0
H1931 H 0.09636 0.63023 0.34793 0.0
H1932 H 0.15289 0.6849 0.40477 0.0
H1933 H 0.17389 0.71869 0.42729 0.0
H1934 H 0.13532 0.71536 0.51892 0.0
H1935 H 0.11394 0.68161 0.49656 0.0
H1936 H 0.08331 0.56846 0.50109 0.0
H1937 H 0.10472 0.59639 0.46451 0.0
H1938 H 0.0796 0.62732 0.51801 0.0
H1939 H 0.05849 0.59968 0.55556 0.0
H1940 H 0.11712 0.65139 0.49874 0.0
H1941 H 0.05849 0.60001 0.43092 0.0
H1942 H 0.03666 0.56615 0.41017 0.0
H1943 H 0.07926 0.56395 0.33962 0.0
H1944 H 0.10141 0.59779 0.36038 0.0
C1945 C 0.11278 0.69332 0.3299 0.0
C1946 C 0.11845 0.69018 0.29057 0.0
C1947 C 0.11164 0.6822 0.36342 0.0
C1948 C 0.11647 0.66795 0.35853 0.0
C1949 C 0.12293 0.6654 0.31978 0.0
C1950 C 0.12386 0.67636 0.28611 0.0
C1951 C 0.11282 0.65441 0.39199 0.0
C1952 C 0.10138 0.63493 0.38067 0.0
C1953 C 0.11887 0.66044 0.43505 0.0
C1954 C 0.13175 0.68073 0.44877 0.0
C1955 C 0.14882 0.6914 0.42953 0.0
C1956 C 0.1608 0.71055 0.4423 0.0
C1957 C 0.15593 0.71917 0.47447 0.0
C1958 C 0.13907 0.70866 0.494 0.0
C1959 C 0.12703 0.6895 0.48133 0.0
C1960 C 0.08286 0.58144 0.50648 0.0
C1961 C 0.06882 0.58167 0.53016 0.0
C1962 C 0.09512 0.59741 0.48556 0.0
C1963 C 0.0933 0.61368 0.48753 0.0
C1964 C 0.0811 0.61482 0.51573 0.0
C1965 C 0.06896 0.59893 0.53708 0.0
C1966 C 0.10083 0.62748 0.45431 0.0
C1967 C 0.11268 0.64687 0.46572 0.0
C1968 C 0.09512 0.62147 0.41121 0.0
C1969 C 0.08163 0.60134 0.39744 0.0
C1970 C 0.06319 0.59228 0.41103 0.0
C1971 C 0.05077 0.5731 0.39931 0.0
C1972 C 0.05658 0.5629 0.37366 0.0
C1973 C 0.07479 0.57188 0.35951 0.0
C1974 C 0.08727 0.59106 0.37119 0.0
H1975 H 0.04697 0.54804 0.3647 0.0
H1976 H 0.16522 0.734 0.4843 0.0
loop_
_geom_bond_atom_site_label_1
_geom_bond_atom_site_label_2
_geom_bond_distance
_geom_bond_site_symmetry_2
_ccdc_geom_bond_type
C0 C1 1.560 . S
C0 H61 0.959 . S
C0 H62 0.959 . S
C0 H63 0.960 . S
C1 C0 1.560 . S
C1 O56 1.426 . S
C1 H60 0.980 . S
C2 C3 1.407 . S
C2 C7 1.418 . S
C2 O56 1.334 . S
C3 C2 1.407 . S
C3 C4 1.360 . S
C3 H64 0.929 . S
C4 C3 1.360 . S
C4 C5 1.401 . S
C4 C8 1.527 . S
C5 C4 1.401 . S
C5 C6 1.405 . S
C5 C38 1.587 . S
C6 C5 1.405 . S
C6 C7 1.332 . S
C6 C9 1.496 . S
C7 C2 1.418 . S
C7 C6 1.332 . S
C7 H65 0.929 . S
C8 C4 1.527 . S
C8 H66 0.959 . S
C8 H67 0.961 . S
C8 H68 0.961 . S
C9 C6 1.496 . S
C9 H69 0.960 . S
C9 H70 0.960 . S
C9 H71 0.961 . S
C10 C11 1.517 . S
C10 H73 0.961 . S
C10 H74 0.960 . S
C10 H75 0.959 . S
C11 C10 1.517 . S
C11 O59 1.468 . S
C11 H72 0.980 . S
C12 C13 1.349 . S
C12 C17 1.367 . S
C12 O59 1.408 . S
C13 C12 1.349 . S
C13 C14 1.407 . S
C13 H76 0.930 . S
C14 C13 1.407 . S
C14 C15 1.449 . S
C14 C18 1.535 . S
C15 C14 1.449 . S
C15 C16 1.384 . S
C15 C40 1.553 . S
C16 C15 1.384 . S
C16 C17 1.364 . S
C16 C19 1.450 . S
C17 C12 1.367 . S
C17 C16 1.364 . S
C17 H77 0.931 . S
C18 C14 1.535 . S
C18 H78 0.959 . S
C18 H79 0.961 . S
C18 H80 0.959 . S
C19 C16 1.450 . S
C19 H81 0.960 . S
C19 H82 0.960 . S
C19 H83 0.960 . S
C20 C21 1.309 . S
C20 C25 1.304 . S
C20 O58 1.435 1_554 S
C21 C20 1.309 . S
C21 C22 1.476 . S
C21 H85 0.930 . S
C22 C21 1.476 . S
C22 C23 1.400 . S
C22 C26 1.567 . S
C23 C22 1.400 . S
C23 C24 1.373 . S
C23 C45 1.432 . S
C24 C23 1.373 . S
C24 C25 1.339 . S
C24 C27 1.530 . S
C25 C20 1.304 . S
C25 C24 1.339 . S
C25 H86 0.930 . S
C26 C22 1.567 . S
C26 H87 0.961 . S
C26 H88 0.960 . S
C26 H89 0.958 . S
C27 C24 1.530 . S
C27 H90 0.961 . S
C27 H91 0.960 . S
C27 H92 0.960 . S
C28 C29 1.530 . S
C28 H94 0.961 . S
C28 H95 0.961 1_556 S
C28 H96 0.959 . S
C29 C28 1.530 . S
C29 O57 1.412 . S
C29 H93 0.980 1_556 S
C30 C31 1.288 . S
C30 C35 1.377 . S
C30 O57 1.393 1_554 S
C31 C30 1.288 . S
C31 C32 1.369 . S
C31 H97 0.932 . S
C32 C31 1.369 . S
C32 C33 1.398 . S
C32 C36 1.527 . S
C33 C32 1.398 . S
C33 C34 1.380 . S
C33 C47 1.497 . S
C34 C33 1.380 . S
C34 C35 1.383 . S
C34 C37 1.603 . S
C35 C30 1.377 . S
C35 C34 1.383 . S
C35 H98 0.929 . S
C36 C32 1.527 . S
C36 H99 0.961 . S
C36 H100 0.959 . S
C36 H101 0.959 . S
C37 C34 1.603 . S
C37 H102 0.960 . S
C37 H103 0.962 . S
C37 H104 0.961 . S
C38 C5 1.587 . S
C38 C39 1.360 . S
C38 C51 1.412 . S
C39 C38 1.360 . S
C39 C40 1.365 . S
C39 H105 0.929 . S
C40 C15 1.553 . S
C40 C39 1.365 . S
C40 C41 1.404 . S
C41 C40 1.404 . S
C41 C42 1.395 . S
C41 C52 1.451 . S
C42 C41 1.395 . S
C42 C43 1.322 . S
C42 H106 0.930 . S
C43 C42 1.322 . S
C43 C44 1.459 . S
C43 H107 0.929 . S
C44 C43 1.459 . S
C44 C45 1.445 . S
C44 C53 1.395 . S
C45 C23 1.432 . S
C45 C44 1.445 . S
C45 C46 1.370 . S
C46 C45 1.370 . S
C46 C47 1.438 . S
C46 H108 0.930 . S
C47 C33 1.497 . S
C47 C46 1.438 . S
C47 C48 1.360 . S
C48 C47 1.360 . S
C48 C49 1.401 . S
C48 C53 1.446 . S
C49 C48 1.401 . S
C49 C50 1.347 . S
C49 H109 0.929 . S
C50 C49 1.347 . S
C50 C51 1.455 . S
C50 H110 0.930 . S
C51 C38 1.412 . S
C51 C50 1.455 . S
C51 C52 1.331 . S
C52 C41 1.451 . S
C52 C51 1.331 . S
C52 C53 1.497 . S
C53 C44 1.395 . S
C53 C48 1.446 . S
C53 C52 1.497 . S
C54 C55 1.582 . S
C54 H111 0.962 . S
C54 H112 0.959 . S
C54 H113 0.958 . S
C55 C54 1.582 . S
C55 O58 1.458 . S
C55 H84 0.980 1_556 S
O56 C1 1.426 . S
O56 C2 1.334 . S
O57 C29 1.412 . S
O57 C30 1.393 1_556 S
O58 C20 1.435 1_556 S
O58 C55 1.458 . S
O59 C11 1.468 . S
O59 C12 1.408 . S
H60 C1 0.980 . S
H61 C0 0.959 . S
H62 C0 0.959 . S
H63 C0 0.960 . S
H64 C3 0.929 . S
H65 C7 0.929 . S
H66 C8 0.959 . S
H67 C8 0.961 . S
H68 C8 0.961 . S
H69 C9 0.960 . S
H70 C9 0.960 . S
H71 C9 0.961 . S
H72 C11 0.980 . S
H73 C10 0.961 . S
H74 C10 0.960 . S
H75 C10 0.959 . S
H76 C13 0.930 . S
H77 C17 0.931 . S
H78 C18 0.959 . S
H79 C18 0.961 . S
H80 C18 0.959 . S
H81 C19 0.960 . S
H82 C19 0.960 . S
H83 C19 0.960 . S
H84 C55 0.980 1_554 S
H85 C21 0.930 . S
H86 C25 0.930 . S
H87 C26 0.961 . S
H88 C26 0.960 . S
H89 C26 0.958 . S
H90 C27 0.961 . S
H91 C27 0.960 . S
H92 C27 0.960 . S
H93 C29 0.980 1_554 S
H94 C28 0.961 . S
H95 C28 0.961 1_554 S
H96 C28 0.959 . S
H97 C31 0.932 . S
H98 C35 0.929 . S
H99 C36 0.961 . S
H100 C36 0.959 . S
H101 C36 0.959 . S
H102 C37 0.960 . S
H103 C37 0.962 . S
H104 C37 0.961 . S
H105 C39 0.929 . S
H106 C42 0.930 . S
H107 C43 0.929 . S
H108 C46 0.930 . S
H109 C49 0.929 . S
H110 C50 0.930 . S
H111 C54 0.962 . S
H112 C54 0.959 . S
H113 C54 0.958 . S
C114 C115 1.560 . S
C114 H175 0.959 . S
C114 H176 0.959 . S
C114 H177 0.960 . S
C115 C114 1.560 . S
C115 O170 1.426 . S
C115 H174 0.980 . S
C116 C117 1.407 . S
C116 C121 1.418 . S
C116 O170 1.334 . S
C117 C116 1.407 . S
C117 C118 1.360 . S
C117 H178 0.929 . S
C118 C117 1.360 . S
C118 C119 1.401 . S
C118 C122 1.527 . S
C119 C118 1.401 . S
C119 C120 1.405 . S
C119 C152 1.587 . S
C120 C119 1.405 . S
C120 C121 1.332 . S
C120 C123 1.496 . S
C121 C116 1.418 . S
C121 C120 1.332 . S
C121 H179 0.929 . S
C122 C118 1.527 . S
C122 H180 0.959 . S
C122 H181 0.961 . S
C122 H182 0.961 . S
C123 C120 1.496 . S
C123 H183 0.960 . S
C123 H184 0.960 . S
C123 H185 0.961 . S
C124 C125 1.517 . S
C124 H187 0.961 . S
C124 H188 0.960 . S
C124 H189 0.959 . S
C125 C124 1.517 . S
C125 O173 1.468 . S
C125 H186 0.980 . S
C126 C127 1.349 . S
C126 C131 1.367 . S
C126 O173 1.408 . S
C127 C126 1.349 . S
C127 C128 1.407 . S
C127 H190 0.930 . S
C128 C127 1.407 . S
C128 C129 1.449 . S
C128 C132 1.535 . S
C129 C128 1.449 . S
C129 C130 1.384 . S
C129 C154 1.553 . S
C130 C129 1.384 . S
C130 C131 1.364 . S
C130 C133 1.450 . S
C131 C126 1.367 . S
C131 C130 1.364 . S
C131 H191 0.931 . S
C132 C128 1.535 . S
C132 H192 0.959 . S
C132 H193 0.961 . S
C132 H194 0.959 . S
C133 C130 1.450 . S
C133 H195 0.960 . S
C133 H196 0.960 . S
C133 H197 0.960 . S
C134 C135 1.309 . S
C134 C139 1.304 . S
C134 O172 1.435 . S
C135 C134 1.309 . S
C135 C136 1.476 . S
C135 H199 0.930 . S
C136 C135 1.476 . S
C136 C137 1.400 . S
C136 C140 1.567 1_556 S
C137 C136 1.400 . S
C137 C138 1.373 . S
C137 C159 1.432 1_556 S
C138 C137 1.373 . S
C138 C139 1.339 . S
C138 C141 1.530 . S
C139 C134 1.304 . S
C139 C138 1.339 . S
C139 H200 0.930 . S
C140 C136 1.567 1_554 S
C140 H201 0.959 . S
C140 H202 0.960 . S
C140 H203 0.959 1_554 S
C141 C138 1.530 . S
C141 H204 0.961 . S
C141 H205 0.960 1_556 S
C141 H206 0.960 . S
C142 C143 1.530 . S
C142 H208 0.961 . S
C142 H209 0.961 . S
C142 H210 0.959 . S
C143 C142 1.530 . S
C143 O171 1.412 . S
C143 H207 0.980 . S
C144 C145 1.288 . S
C144 C149 1.377 . S
C144 O171 1.393 . S
C145 C144 1.288 . S
C145 C146 1.369 . S
C145 H211 0.932 . S
C146 C145 1.369 . S
C146 C147 1.398 . S
C146 C150 1.527 . S
C147 C146 1.398 . S
C147 C148 1.380 . S
C147 C161 1.497 1_556 S
C148 C147 1.380 . S
C148 C149 1.383 . S
C148 C151 1.603 . S
C149 C144 1.377 . S
C149 C148 1.383 . S
C149 H212 0.929 . S
C150 C146 1.527 . S
C150 H213 0.961 1_556 S
C150 H214 0.959 . S
C150 H215 0.959 . S
C151 C148 1.603 . S
C151 H216 0.960 . S
C151 H217 0.962 . S
C151 H218 0.961 1_556 S
C152 C119 1.587 . S
C152 C153 1.360 . S
C152 C165 1.412 . S
C153 C152 1.360 . S
C153 C154 1.365 . S
C153 H219 0.929 . S
C154 C129 1.553 . S
C154 C153 1.365 . S
C154 C155 1.404 . S
C155 C154 1.404 . S
C155 C156 1.395 . S
C155 C166 1.451 . S
C156 C155 1.395 . S
C156 C157 1.322 . S
C156 H220 0.930 . S
C157 C156 1.322 . S
C157 C158 1.459 . S
C157 H221 0.929 . S
C158 C157 1.459 . S
C158 C159 1.445 . S
C158 C167 1.395 . S
C159 C137 1.432 1_554 S
C159 C158 1.445 . S
C159 C160 1.370 1_554 S
C160 C159 1.370 1_556 S
C160 C161 1.438 1_556 S
C160 H222 0.930 . S
C161 C147 1.497 1_554 S
C161 C160 1.438 1_554 S
C161 C162 1.360 . S
C162 C161 1.360 . S
C162 C163 1.401 . S
C162 C167 1.446 . S
C163 C162 1.401 . S
C163 C164 1.347 . S
C163 H223 0.929 . S
C164 C163 1.347 . S
C164 C165 1.455 . S
C164 H224 0.930 . S
C165 C152 1.412 . S
C165 C164 1.455 . S
C165 C166 1.331 . S
C166 C155 1.451 . S
C166 C165 1.331 . S
C166 C167 1.497 . S
C167 C158 1.395 . S
C167 C162 1.446 . S
C167 C166 1.497 . S
C168 C169 1.582 . S
C168 H225 0.962 . S
C168 H226 0.959 . S
C168 H227 0.958 . S
C169 C168 1.582 . S
C169 O172 1.458 . S
C169 H198 0.980 . S
O170 C115 1.426 . S
O170 C116 1.334 . S
O171 C143 1.412 . S
O171 C144 1.393 . S
O172 C134 1.435 . S
O172 C169 1.458 . S
O173 C125 1.468 . S
O173 C126 1.408 . S
H174 C115 0.980 . S
H175 C114 0.959 . S
H176 C114 0.959 . S
H177 C114 0.960 . S
H178 C117 0.929 . S
H179 C121 0.929 . S
H180 C122 0.959 . S
H181 C122 0.961 . S
H182 C122 0.961 . S
H183 C123 0.960 . S
H184 C123 0.960 . S
H185 C123 0.961 . S
H186 C125 0.980 . S
H187 C124 0.961 . S
H188 C124 0.960 . S
H189 C124 0.959 . S
H190 C127 0.930 . S
H191 C131 0.931 . S
H192 C132 0.959 . S
H193 C132 0.961 . S
H194 C132 0.959 . S
H195 C133 0.960 . S
H196 C133 0.960 . S
H197 C133 0.960 . S
H198 C169 0.980 . S
H199 C135 0.930 . S
H200 C139 0.930 . S
H201 C140 0.959 . S
H202 C140 0.960 . S
H203 C140 0.959 1_556 S
H204 C141 0.961 . S
H205 C141 0.960 1_554 S
H206 C141 0.960 . S
H207 C143 0.980 . S
H208 C142 0.961 . S
H209 C142 0.961 . S
H210 C142 0.959 . S
H211 C145 0.932 . S
H212 C149 0.929 . S
H213 C150 0.961 1_554 S
H214 C150 0.959 . S
H215 C150 0.959 . S
H216 C151 0.960 . S
H217 C151 0.962 . S
H218 C151 0.961 1_554 S
H219 C153 0.929 . S
H220 C156 0.930 . S
H221 C157 0.929 . S
H222 C160 0.930 . S
H223 C163 0.929 . S
H224 C164 0.930 . S
H225 C168 0.962 . S
H226 C168 0.959 . S
H227 C168 0.958 . S
C228 C229 1.560 . S
C228 H289 0.959 . S
C228 H290 0.959 . S
C228 H291 0.960 . S
C229 C228 1.560 . S
C229 O284 1.426 . S
C229 H288 0.980 . S
C230 C231 1.407 . S
C230 C235 1.418 . S
C230 O284 1.334 . S
C231 C230 1.407 . S
C231 C232 1.360 . S
C231 H292 0.929 . S
C232 C231 1.360 . S
C232 C233 1.401 . S
C232 C236 1.527 . S
C233 C232 1.401 . S
C233 C234 1.405 . S
C233 C266 1.587 . S
C234 C233 1.405 . S
C234 C235 1.332 . S
C234 C237 1.496 . S
C235 C230 1.418 . S
C235 C234 1.332 . S
C235 H293 0.929 . S
C236 C232 1.527 . S
C236 H294 0.959 . S
C236 H295 0.961 . S
C236 H296 0.961 . S
C237 C234 1.496 . S
C237 H297 0.960 . S
C237 H298 0.960 . S
C237 H299 0.961 . S
C238 C239 1.517 . S
C238 H301 0.961 . S
C238 H302 0.960 . S
C238 H303 0.959 . S
C239 C238 1.517 . S
C239 O287 1.468 . S
C239 H300 0.980 . S
C240 C241 1.349 . S
C240 C245 1.367 . S
C240 O287 1.408 . S
C241 C240 1.349 . S
C241 C242 1.407 . S
C241 H304 0.930 . S
C242 C241 1.407 . S
C242 C243 1.449 . S
C242 C246 1.535 . S
C243 C242 1.449 . S
C243 C244 1.384 . S
C243 C268 1.553 . S
C244 C243 1.384 . S
C244 C245 1.364 . S
C244 C247 1.450 . S
C245 C240 1.367 . S
C245 C244 1.364 . S
C245 H305 0.931 . S
C246 C242 1.535 . S
C246 H306 0.959 . S
C246 H307 0.961 . S
C246 H308 0.959 . S
C247 C244 1.450 . S
C247 H309 0.960 . S
C247 H310 0.960 . S
C247 H311 0.960 . S
C248 C249 1.309 . S
C248 C253 1.304 . S
C248 O286 1.435 . S
C249 C248 1.309 . S
C249 C250 1.476 . S
C249 H313 0.930 . S
C250 C249 1.476 . S
C250 C251 1.400 . S
C250 C254 1.567 . S
C251 C250 1.400 . S
C251 C252 1.373 . S
C251 C273 1.432 . S
C252 C251 1.373 . S
C252 C253 1.339 . S
C252 C255 1.530 . S
C253 C248 1.304 . S
C253 C252 1.339 . S
C253 H314 0.930 . S
C254 C250 1.567 . S
C254 H315 0.961 . S
C254 H316 0.960 . S
C254 H317 0.958 . S
C255 C252 1.530 . S
C255 H318 0.961 . S
C255 H319 0.960 . S
C255 H320 0.960 . S
C256 C257 1.530 . S
C256 H322 0.961 . S
C256 H323 0.961 . S
C256 H324 0.959 . S
C257 C256 1.530 . S
C257 O285 1.412 . S
C257 H321 0.980 . S
C258 C259 1.288 . S
C258 C263 1.377 . S
C258 O285 1.393 . S
C259 C258 1.288 . S
C259 C260 1.369 . S
C259 H325 0.932 . S
C260 C259 1.369 . S
C260 C261 1.398 . S
C260 C264 1.527 . S
C261 C260 1.398 . S
C261 C262 1.380 . S
C261 C275 1.497 . S
C262 C261 1.380 . S
C262 C263 1.383 . S
C262 C265 1.603 . S
C263 C258 1.377 . S
C263 C262 1.383 . S
C263 H326 0.929 . S
C264 C260 1.527 . S
C264 H327 0.961 . S
C264 H328 0.959 . S
C264 H329 0.959 . S
C265 C262 1.603 . S
C265 H330 0.960 . S
C265 H331 0.962 . S
C265 H332 0.961 . S
C266 C233 1.587 . S
C266 C267 1.360 . S
C266 C279 1.412 . S
C267 C266 1.360 . S
C267 C268 1.365 . S
C267 H333 0.929 . S
C268 C243 1.553 . S
C268 C267 1.365 . S
C268 C269 1.404 . S
C269 C268 1.404 . S
C269 C270 1.395 . S
C269 C280 1.451 . S
C270 C269 1.395 . S
C270 C271 1.322 . S
C270 H334 0.930 . S
C271 C270 1.322 . S
C271 C272 1.459 . S
C271 H335 0.929 . S
C272 C271 1.459 . S
C272 C273 1.445 1_554 S
C272 C281 1.395 . S
C273 C251 1.432 . S
C273 C272 1.445 1_556 S
C273 C274 1.370 . S
C274 C273 1.370 . S
C274 C275 1.438 . S
C274 H336 0.930 . S
C275 C261 1.497 . S
C275 C274 1.438 . S
C275 C276 1.360 1_556 S
C276 C275 1.360 1_554 S
C276 C277 1.401 . S
C276 C281 1.446 . S
C277 C276 1.401 . S
C277 C278 1.347 . S
C277 H337 0.929 . S
C278 C277 1.347 . S
C278 C279 1.455 . S
C278 H338 0.930 . S
C279 C266 1.412 . S
C279 C278 1.455 . S
C279 C280 1.331 . S
C280 C269 1.451 . S
C280 C279 1.331 . S
C280 C281 1.497 . S
C281 C272 1.395 . S
C281 C276 1.446 . S
C281 C280 1.497 . S
C282 C283 1.582 . S
C282 H339 0.962 . S
C282 H340 0.959 . S
C282 H341 0.958 . S
C283 C282 1.582 . S
C283 O286 1.458 . S
C283 H312 0.980 . S
O284 C229 1.426 . S
O284 C230 1.334 . S
O285 C257 1.412 . S
O285 C258 1.393 . S
O286 C248 1.435 . S
O286 C283 1.458 . S
O287 C239 1.468 . S
O287 C240 1.408 . S
H288 C229 0.980 . S
H289 C228 0.959 . S
H290 C228 0.959 . S
H291 C228 0.960 . S
H292 C231 0.929 . S
H293 C235 0.929 . S
H294 C236 0.959 . S
H295 C236 0.961 . S
H296 C236 0.961 . S
H297 C237 0.960 . S
H298 C237 0.960 . S
H299 C237 0.961 . S
H300 C239 0.980 . S
H301 C238 0.961 . S
H302 C238 0.960 . S
H303 C238 0.959 . S
H304 C241 0.930 . S
H305 C245 0.931 . S
H306 C246 0.959 . S
H307 C246 0.961 . S
H308 C246 0.959 . S
H309 C247 0.960 . S
H310 C247 0.960 . S
H311 C247 0.960 . S
H312 C283 0.980 . S
H313 C249 0.930 . S
H314 C253 0.930 . S
H315 C254 0.961 . S
H316 C254 0.960 . S
H317 C254 0.958 . S
H318 C255 0.961 . S
H319 C255 0.960 . S
H320 C255 0.960 . S
H321 C257 0.980 . S
H322 C256 0.961 . S
H323 C256 0.961 . S
H324 C256 0.959 . S
H325 C259 0.932 . S
H326 C263 0.929 . S
H327 C264 0.961 . S
H328 C264 0.959 . S
H329 C264 0.959 . S
H330 C265 0.960 . S
H331 C265 0.962 . S
H332 C265 0.961 . S
H333 C267 0.929 . S
H334 C270 0.930 . S
H335 C271 0.929 . S
H336 C274 0.930 . S
H337 C277 0.929 . S
H338 C278 0.930 . S
H339 C282 0.962 . S
H340 C282 0.959 . S
H341 C282 0.958 . S
C342 C343 1.560 . S
C342 H403 0.959 . S
C342 H404 0.959 . S
C342 H405 0.960 . S
C343 C342 1.560 . S
C343 O398 1.426 . S
C343 H402 0.980 . S
C344 C345 1.407 . S
C344 C349 1.418 . S
C344 O398 1.334 . S
C345 C344 1.407 . S
C345 C346 1.360 . S
C345 H406 0.929 . S
C346 C345 1.360 . S
C346 C347 1.401 . S
C346 C350 1.527 . S
C347 C346 1.401 . S
C347 C348 1.405 . S
C347 C380 1.587 . S
C348 C347 1.405 . S
C348 C349 1.332 . S
C348 C351 1.496 . S
C349 C344 1.418 . S
C349 C348 1.332 . S
C349 H407 0.929 . S
C350 C346 1.527 . S
C350 H408 0.959 . S
C350 H409 0.961 . S
C350 H410 0.961 . S
C351 C348 1.496 . S
C351 H411 0.960 . S
C351 H412 0.960 . S
C351 H413 0.961 . S
C352 C353 1.517 . S
C352 H415 0.961 . S
C352 H416 0.960 . S
C352 H417 0.959 . S
C353 C352 1.517 . S
C353 O401 1.468 . S
C353 H414 0.980 . S
C354 C355 1.349 . S
C354 C359 1.367 . S
C354 O401 1.408 . S
C355 C354 1.349 . S
C355 C356 1.407 . S
C355 H418 0.930 . S
C356 C355 1.407 . S
C356 C357 1.449 . S
C356 C360 1.535 . S
C357 C356 1.449 . S
C357 C358 1.384 . S
C357 C382 1.553 . S
C358 C357 1.384 . S
C358 C359 1.364 . S
C358 C361 1.450 . S
C359 C354 1.367 . S
C359 C358 1.364 . S
C359 H419 0.931 . S
C360 C356 1.535 . S
C360 H420 0.959 . S
C360 H421 0.961 . S
C360 H422 0.959 . S
C361 C358 1.450 . S
C361 H423 0.960 . S
C361 H424 0.960 . S
C361 H425 0.960 . S
C362 C363 1.309 . S
C362 C367 1.304 . S
C362 O400 1.435 . S
C363 C362 1.309 . S
C363 C364 1.476 . S
C363 H427 0.930 . S
C364 C363 1.476 . S
C364 C365 1.400 . S
C364 C368 1.567 . S
C365 C364 1.400 . S
C365 C366 1.373 . S
C365 C387 1.432 . S
C366 C365 1.373 . S
C366 C367 1.339 . S
C366 C369 1.530 . S
C367 C362 1.304 . S
C367 C366 1.339 . S
C367 H428 0.930 . S
C368 C364 1.567 . S
C368 H429 0.961 . S
C368 H430 0.960 . S
C368 H431 0.958 . S
C369 C366 1.530 . S
C369 H432 0.961 . S
C369 H433 0.960 . S
C369 H434 0.960 . S
C370 C371 1.530 . S
C370 H436 0.961 . S
C370 H437 0.961 . S
C370 H438 0.959 . S
C371 C370 1.530 . S
C371 O399 1.412 . S
C371 H435 0.980 . S
C372 C373 1.288 . S
C372 C377 1.377 . S
C372 O399 1.393 . S
C373 C372 1.288 . S
C373 C374 1.369 . S
C373 H439 0.932 . S
C374 C373 1.369 . S
C374 C375 1.398 . S
C374 C378 1.527 . S
C375 C374 1.398 . S
C375 C376 1.380 . S
C375 C389 1.497 . S
C376 C375 1.380 . S
C376 C377 1.383 . S
C376 C379 1.603 . S
C377 C372 1.377 . S
C377 C376 1.383 . S
C377 H440 0.929 . S
C378 C374 1.527 . S
C378 H441 0.961 . S
C378 H442 0.959 . S
C378 H443 0.959 . S
C379 C376 1.603 . S
C379 H444 0.960 . S
C379 H445 0.962 . S
C379 H446 0.961 . S
C380 C347 1.587 . S
C380 C381 1.360 . S
C380 C393 1.412 . S
C381 C380 1.360 . S
C381 C382 1.365 . S
C381 H447 0.929 . S
C382 C357 1.553 . S
C382 C381 1.365 . S
C382 C383 1.404 . S
C383 C382 1.404 . S
C383 C384 1.395 . S
C383 C394 1.451 . S
C384 C383 1.395 . S
C384 C385 1.322 . S
C384 H448 0.930 . S
C385 C384 1.322 . S
C385 C386 1.459 1_554 S
C385 H449 0.929 . S
C386 C385 1.459 1_556 S
C386 C387 1.445 . S
C386 C395 1.395 1_556 S
C387 C365 1.432 . S
C387 C386 1.445 . S
C387 C388 1.370 . S
C388 C387 1.370 . S
C388 C389 1.438 . S
C388 H450 0.930 . S
C389 C375 1.497 . S
C389 C388 1.438 . S
C389 C390 1.360 . S
C390 C389 1.360 . S
C390 C391 1.401 1_556 S
C390 C395 1.446 1_556 S
C391 C390 1.401 1_554 S
C391 C392 1.347 . S
C391 H451 0.929 . S
C392 C391 1.347 . S
C392 C393 1.455 . S
C392 H452 0.930 . S
C393 C380 1.412 . S
C393 C392 1.455 . S
C393 C394 1.331 . S
C394 C383 1.451 . S
C394 C393 1.331 . S
C394 C395 1.497 . S
C395 C386 1.395 1_554 S
C395 C390 1.446 1_554 S
C395 C394 1.497 . S
C396 C397 1.582 . S
C396 H453 0.962 . S
C396 H454 0.959 . S
C396 H455 0.958 . S
C397 C396 1.582 . S
C397 O400 1.458 . S
C397 H426 0.980 . S
O398 C343 1.426 . S
O398 C344 1.334 . S
O399 C371 1.412 . S
O399 C372 1.393 . S
O400 C362 1.435 . S
O400 C397 1.458 . S
O401 C353 1.468 . S
O401 C354 1.408 . S
H402 C343 0.980 . S
H403 C342 0.959 . S
H404 C342 0.959 . S
H405 C342 0.960 . S
H406 C345 0.929 . S
H407 C349 0.929 . S
H408 C350 0.959 . S
H409 C350 0.961 . S
H410 C350 0.961 . S
H411 C351 0.960 . S
H412 C351 0.960 . S
H413 C351 0.961 . S
H414 C353 0.980 . S
H415 C352 0.961 . S
H416 C352 0.960 . S
H417 C352 0.959 . S
H418 C355 0.930 . S
H419 C359 0.931 . S
H420 C360 0.959 . S
H421 C360 0.961 . S
H422 C360 0.959 . S
H423 C361 0.960 . S
H424 C361 0.960 . S
H425 C361 0.960 . S
H426 C397 0.980 . S
H427 C363 0.930 . S
H428 C367 0.930 . S
H429 C368 0.961 . S
H430 C368 0.960 . S
H431 C368 0.958 . S
H432 C369 0.961 . S
H433 C369 0.960 . S
H434 C369 0.960 . S
H435 C371 0.980 . S
H436 C370 0.961 . S
H437 C370 0.961 . S
H438 C370 0.959 . S
H439 C373 0.932 . S
H440 C377 0.929 . S
H441 C378 0.961 . S
H442 C378 0.959 . S
H443 C378 0.959 . S
H444 C379 0.960 . S
H445 C379 0.962 . S
H446 C379 0.961 . S
H447 C381 0.929 . S
H448 C384 0.930 . S
H449 C385 0.929 . S
H450 C388 0.930 . S
H451 C391 0.929 . S
H452 C392 0.930 . S
H453 C396 0.962 . S
H454 C396 0.959 . S
H455 C396 0.958 . S
C456 C457 1.560 . S
C456 H517 0.959 . S
C456 H518 0.959 . S
C456 H519 0.960 . S
C457 C456 1.560 . S
C457 O512 1.426 . S
C457 H516 0.980 . S
C458 C459 1.407 . S
C458 C463 1.418 . S
C458 O512 1.334 . S
C459 C458 1.407 . S
C459 C460 1.360 . S
C459 H520 0.929 . S
C460 C459 1.360 . S
C460 C461 1.401 . S
C460 C464 1.527 . S
C461 C460 1.401 . S
C461 C462 1.405 . S
C461 C494 1.587 1_556 S
C462 C461 1.405 . S
C462 C463 1.332 . S
C462 C465 1.497 . S
C463 C458 1.418 . S
C463 C462 1.332 . S
C463 H521 0.929 . S
C464 C460 1.527 . S
C464 H522 0.959 . S
C464 H523 0.961 . S
C464 H524 0.949 1_556 S
C465 C462 1.497 . S
C465 H525 0.961 . S
C465 H526 0.961 . S
C465 H527 0.957 1_556 S
C466 C467 1.517 . S
C466 H529 0.961 . S
C466 H530 0.960 . S
C466 H531 0.959 . S
C467 C466 1.517 . S
C467 O515 1.468 . S
C467 H528 0.980 . S
C468 C469 1.349 . S
C468 C473 1.367 . S
C468 O515 1.408 . S
C469 C468 1.349 . S
C469 C470 1.407 . S
C469 H532 0.930 . S
C470 C469 1.407 . S
C470 C471 1.449 . S
C470 C474 1.535 . S
C471 C470 1.449 . S
C471 C472 1.384 . S
C471 C496 1.553 1_556 S
C472 C471 1.384 . S
C472 C473 1.364 . S
C472 C475 1.450 . S
C473 C468 1.367 . S
C473 C472 1.364 . S
C473 H533 0.931 . S
C474 C470 1.535 . S
C474 H534 0.959 . S
C474 H535 0.961 . S
C474 H536 0.959 . S
C475 C472 1.450 . S
C475 H537 0.960 . S
C475 H538 0.960 . S
C475 H539 0.960 1_556 S
C476 C477 1.309 . S
C476 C481 1.304 . S
C476 O514 1.435 . S
C477 C476 1.309 . S
C477 C478 1.476 . S
C477 H541 0.930 . S
C478 C477 1.476 . S
C478 C479 1.400 . S
C478 C482 1.567 . S
C479 C478 1.400 . S
C479 C480 1.373 . S
C479 C501 1.432 . S
C480 C479 1.373 . S
C480 C481 1.339 . S
C480 C483 1.530 . S
C481 C476 1.304 . S
C481 C480 1.339 . S
C481 H542 0.930 . S
C482 C478 1.567 . S
C482 H543 0.961 . S
C482 H544 0.960 . S
C482 H545 0.958 . S
C483 C480 1.530 . S
C483 H546 0.961 . S
C483 H547 0.960 . S
C483 H548 0.960 . S
C484 C485 1.530 . S
C484 H550 0.961 . S
C484 H551 0.961 . S
C484 H552 0.959 . S
C485 C484 1.530 . S
C485 O513 1.412 . S
C485 H549 0.980 . S
C486 C487 1.288 . S
C486 C491 1.377 . S
C486 O513 1.393 . S
C487 C486 1.288 . S
C487 C488 1.369 . S
C487 H553 0.932 . S
C488 C487 1.369 . S
C488 C489 1.398 . S
C488 C492 1.527 . S
C489 C488 1.398 . S
C489 C490 1.380 . S
C489 C503 1.497 . S
C490 C489 1.380 . S
C490 C491 1.383 . S
C490 C493 1.603 . S
C491 C486 1.377 . S
C491 C490 1.383 . S
C491 H554 0.929 . S
C492 C488 1.527 . S
C492 H555 0.961 . S
C492 H556 0.959 . S
C492 H557 0.959 . S
C493 C490 1.603 . S
C493 H558 0.960 . S
C493 H559 0.962 . S
C493 H560 0.961 . S
C494 C461 1.587 1_554 S
C494 C495 1.360 1_554 S
C494 C507 1.412 . S
C495 C494 1.360 1_556 S
C495 C496 1.365 1_556 S
C495 H561 0.929 . S
C496 C471 1.553 1_554 S
C496 C495 1.365 1_554 S
C496 C497 1.404 . S
C497 C496 1.404 . S
C497 C498 1.395 . S
C497 C508 1.451 . S
C498 C497 1.395 . S
C498 C499 1.322 . S
C498 H562 0.930 . S
C499 C498 1.322 . S
C499 C500 1.459 . S
C499 H563 0.929 . S
C500 C499 1.459 . S
C500 C501 1.445 . S
C500 C509 1.395 . S
C501 C479 1.432 . S
C501 C500 1.445 . S
C501 C502 1.370 . S
C502 C501 1.370 . S
C502 C503 1.438 . S
C502 H564 0.930 . S
C503 C489 1.497 . S
C503 C502 1.438 . S
C503 C504 1.360 . S
C504 C503 1.360 . S
C504 C505 1.401 . S
C504 C509 1.446 . S
C505 C504 1.401 . S
C505 C506 1.347 . S
C505 H565 0.929 . S
C506 C505 1.347 . S
C506 C507 1.455 . S
C506 H566 0.930 . S
C507 C494 1.412 . S
C507 C506 1.455 . S
C507 C508 1.331 . S
C508 C497 1.451 . S
C508 C507 1.331 . S
C508 C509 1.497 . S
C509 C500 1.395 . S
C509 C504 1.446 . S
C509 C508 1.497 . S
C510 C511 1.582 . S
C510 H567 0.962 . S
C510 H568 0.959 . S
C510 H569 0.958 . S
C511 C510 1.582 . S
C511 O514 1.458 . S
C511 H540 0.980 . S
O512 C457 1.426 . S
O512 C458 1.334 . S
O513 C485 1.412 . S
O513 C486 1.393 . S
O514 C476 1.435 . S
O514 C511 1.458 . S
O515 C467 1.468 . S
O515 C468 1.408 . S
H516 C457 0.980 . S
H517 C456 0.959 . S
H518 C456 0.959 . S
H519 C456 0.960 . S
H520 C459 0.929 . S
H521 C463 0.929 . S
H522 C464 0.959 . S
H523 C464 0.961 . S
H524 C464 0.949 1_554 S
H525 C465 0.961 . S
H526 C465 0.961 . S
H527 C465 0.957 1_554 S
H528 C467 0.980 . S
H529 C466 0.961 . S
H530 C466 0.960 . S
H531 C466 0.959 . S
H532 C469 0.930 . S
H533 C473 0.931 . S
H534 C474 0.959 . S
H535 C474 0.961 . S
H536 C474 0.959 . S
H537 C475 0.960 . S
H538 C475 0.960 . S
H539 C475 0.960 1_554 S
H540 C511 0.980 . S
H541 C477 0.930 . S
H542 C481 0.930 . S
H543 C482 0.961 . S
H544 C482 0.960 . S
H545 C482 0.958 . S
H546 C483 0.961 . S
H547 C483 0.960 . S
H548 C483 0.960 . S
H549 C485 0.980 . S
H550 C484 0.961 . S
H551 C484 0.961 . S
H552 C484 0.959 . S
H553 C487 0.932 . S
H554 C491 0.929 . S
H555 C492 0.961 . S
H556 C492 0.959 . S
H557 C492 0.959 . S
H558 C493 0.960 . S
H559 C493 0.962 . S
H560 C493 0.961 . S
H561 C495 0.929 . S
H562 C498 0.930 . S
H563 C499 0.929 . S
H564 C502 0.930 . S
H565 C505 0.929 . S
H566 C506 0.930 . S
H567 C510 0.962 . S
H568 C510 0.959 . S
H569 C510 0.958 . S
C570 C571 1.560 . S
C570 H631 0.959 . S
C570 H632 0.959 . S
C570 H633 0.960 . S
C571 C570 1.560 . S
C571 O626 1.426 . S
C571 H630 0.980 . S
C572 C573 1.407 . S
C572 C577 1.418 . S
C572 O626 1.334 . S
C573 C572 1.407 . S
C573 C574 1.360 . S
C573 H634 0.929 . S
C574 C573 1.360 . S
C574 C575 1.401 . S
C574 C578 1.527 . S
C575 C574 1.401 . S
C575 C576 1.405 . S
C575 C608 1.587 . S
C576 C575 1.405 . S
C576 C577 1.332 . S
C576 C579 1.496 . S
C577 C572 1.418 . S
C577 C576 1.332 . S
C577 H635 0.929 . S
C578 C574 1.527 . S
C578 H636 0.959 . S
C578 H637 0.961 . S
C578 H638 0.961 . S
C579 C576 1.496 . S
C579 H639 0.960 . S
C579 H640 0.960 . S
C579 H641 0.961 . S
C580 C581 1.517 . S
C580 H643 0.961 . S
C580 H644 0.960 . S
C580 H645 0.959 . S
C581 C580 1.517 . S
C581 O629 1.468 . S
C581 H642 0.980 . S
C582 C583 1.349 . S
C582 C587 1.367 . S
C582 O629 1.408 . S
C583 C582 1.349 . S
C583 C584 1.407 . S
C583 H646 0.930 . S
C584 C583 1.407 . S
C584 C585 1.449 . S
C584 C588 1.535 . S
C585 C584 1.449 . S
C585 C586 1.384 . S
C585 C610 1.553 . S
C586 C585 1.384 . S
C586 C587 1.364 . S
C586 C589 1.450 . S
C587 C582 1.367 . S
C587 C586 1.364 . S
C587 H647 0.931 . S
C588 C584 1.535 . S
C588 H648 0.959 . S
C588 H649 0.961 . S
C588 H650 0.959 . S
C589 C586 1.450 . S
C589 H651 0.960 . S
C589 H652 0.960 . S
C589 H653 0.960 . S
C590 C591 1.309 . S
C590 C595 1.304 . S
C590 O628 1.435 1_554 S
C591 C590 1.309 . S
C591 C592 1.476 . S
C591 H655 0.930 . S
C592 C591 1.476 . S
C592 C593 1.400 . S
C592 C596 1.567 . S
C593 C592 1.400 . S
C593 C594 1.373 . S
C593 C615 1.432 . S
C594 C593 1.373 . S
C594 C595 1.339 . S
C594 C597 1.530 . S
C595 C590 1.304 . S
C595 C594 1.339 . S
C595 H656 0.930 . S
C596 C592 1.567 . S
C596 H657 0.961 . S
C596 H658 0.960 . S
C596 H659 0.958 . S
C597 C594 1.530 . S
C597 H660 0.961 . S
C597 H661 0.960 . S
C597 H662 0.960 . S
C598 C599 1.530 . S
C598 H664 0.961 . S
C598 H665 0.961 . S
C598 H666 0.959 . S
C599 C598 1.530 . S
C599 O627 1.412 . S
C599 H663 0.964 1_556 S
C600 C601 1.288 . S
C600 C605 1.377 . S
C600 O627 1.393 1_554 S
C601 C600 1.288 . S
C601 C602 1.369 . S
C601 H667 0.932 . S
C602 C601 1.369 . S
C602 C603 1.398 . S
C602 C606 1.527 . S
C603 C602 1.398 . S
C603 C604 1.380 . S
C603 C617 1.497 . S
C604 C603 1.380 . S
C604 C605 1.383 . S
C604 C607 1.603 . S
C605 C600 1.377 . S
C605 C604 1.383 . S
C605 H668 0.929 . S
C606 C602 1.527 . S
C606 H669 0.961 . S
C606 H670 0.959 . S
C606 H671 0.959 . S
C607 C604 1.603 . S
C607 H672 0.960 . S
C607 H673 0.962 . S
C607 H674 0.961 . S
C608 C575 1.587 . S
C608 C609 1.360 . S
C608 C621 1.412 . S
C609 C608 1.360 . S
C609 C610 1.365 . S
C609 H675 0.929 . S
C610 C585 1.553 . S
C610 C609 1.365 . S
C610 C611 1.404 . S
C611 C610 1.404 . S
C611 C612 1.395 . S
C611 C622 1.451 . S
C612 C611 1.395 . S
C612 C613 1.322 . S
C612 H676 0.930 . S
C613 C612 1.322 . S
C613 C614 1.459 . S
C613 H677 0.929 . S
C614 C613 1.459 . S
C614 C615 1.445 . S
C614 C623 1.395 . S
C615 C593 1.432 . S
C615 C614 1.445 . S
C615 C616 1.370 . S
C616 C615 1.370 . S
C616 C617 1.438 . S
C616 H678 0.930 . S
C617 C603 1.497 . S
C617 C616 1.438 . S
C617 C618 1.360 . S
C618 C617 1.360 . S
C618 C619 1.401 . S
C618 C623 1.446 . S
C619 C618 1.401 . S
C619 C620 1.347 . S
C619 H679 0.929 . S
C620 C619 1.347 . S
C620 C621 1.455 . S
C620 H680 0.930 . S
C621 C608 1.412 . S
C621 C620 1.455 . S
C621 C622 1.331 . S
C622 C611 1.451 . S
C622 C621 1.331 . S
C622 C623 1.497 . S
C623 C614 1.395 . S
C623 C618 1.446 . S
C623 C622 1.497 . S
C624 C625 1.582 . S
C624 H681 0.962 . S
C624 H682 0.959 . S
C624 H683 0.958 . S
C625 C624 1.582 . S
C625 O628 1.458 . S
C625 H654 0.980 1_556 S
O626 C571 1.426 . S
O626 C572 1.334 . S
O627 C599 1.412 . S
O627 C600 1.393 1_556 S
O628 C590 1.435 1_556 S
O628 C625 1.458 . S
O629 C581 1.468 . S
O629 C582 1.408 . S
H630 C571 0.980 . S
H631 C570 0.959 . S
H632 C570 0.959 . S
H633 C570 0.960 . S
H634 C573 0.929 . S
H635 C577 0.929 . S
H636 C578 0.959 . S
H637 C578 0.961 . S
H638 C578 0.961 . S
H639 C579 0.960 . S
H640 C579 0.960 . S
H641 C579 0.961 . S
H642 C581 0.980 . S
H643 C580 0.961 . S
H644 C580 0.960 . S
H645 C580 0.959 . S
H646 C583 0.930 . S
H647 C587 0.931 . S
H648 C588 0.959 . S
H649 C588 0.961 . S
H650 C588 0.959 . S
H651 C589 0.960 . S
H652 C589 0.960 . S
H653 C589 0.960 . S
H654 C625 0.980 1_554 S
H655 C591 0.930 . S
H656 C595 0.930 . S
H657 C596 0.961 . S
H658 C596 0.960 . S
H659 C596 0.958 . S
H660 C597 0.961 . S
H661 C597 0.960 . S
H662 C597 0.960 . S
H663 C599 0.964 1_554 S
H664 C598 0.961 . S
H665 C598 0.961 . S
H666 C598 0.959 . S
H667 C601 0.932 . S
H668 C605 0.929 . S
H669 C606 0.961 . S
H670 C606 0.959 . S
H671 C606 0.959 . S
H672 C607 0.960 . S
H673 C607 0.962 . S
H674 C607 0.961 . S
H675 C609 0.929 . S
H676 C612 0.930 . S
H677 C613 0.929 . S
H678 C616 0.930 . S
H679 C619 0.929 . S
H680 C620 0.930 . S
H681 C624 0.962 . S
H682 C624 0.959 . S
H683 C624 0.958 . S
C684 O711 1.312 . S
C684 O712 1.208 . S
C685 O706 1.331 . S
C685 O709 1.244 . S
C686 O708 1.264 . S
C686 O710 1.273 . S
Mg687 O689 1.936 . S
Mg687 O696 2.081 1_455 S
Mg687 O698 2.023 . S
Mg687 O702 2.031 1_455 S
Mg687 O711 2.291 . S
Mg688 O689 1.963 . S
Mg688 O699 1.942 1_455 S
Mg688 O700 1.955 . S
Mg688 O707 1.986 1_455 S
O689 Mg687 1.936 . S
O689 Mg688 1.963 . S
O689 Mg690 1.915 . S
Mg690 O689 1.915 . S
Mg690 O691 1.915 . S
Mg690 O695 2.013 . S
Mg690 O701 2.114 1_455 S
Mg690 O705 2.013 1_455 S
Mg690 O711 2.114 . S
O691 Mg690 1.915 . S
O691 Mg692 1.936 . S
O691 Mg693 1.963 . S
Mg692 O691 1.936 . S
Mg692 O701 2.291 1_455 S
Mg692 O706 2.081 . S
Mg692 O708 2.023 1_455 S
Mg692 O712 2.031 . S
Mg693 O691 1.963 . S
Mg693 O697 1.986 . S
Mg693 O709 1.942 . S
Mg693 O710 1.955 1_455 S
C694 O705 1.191 . S
C694 O707 1.307 . S
O695 Mg690 2.013 . S
O695 C714 1.191 . S
O696 Mg687 2.081 1_655 S
O696 C704 1.331 . S
O697 Mg693 1.986 . S
O697 C714 1.307 . S
O698 Mg687 2.023 . S
O698 C713 1.264 . S
O699 Mg688 1.942 1_655 S
O699 C704 1.244 . S
O700 Mg688 1.955 . S
O700 C713 1.273 . S
O701 Mg690 2.114 1_655 S
O701 Mg692 2.291 1_655 S
O701 C703 1.312 . S
O702 Mg687 2.031 1_655 S
O702 C703 1.208 . S
C703 O701 1.312 . S
C703 O702 1.208 . S
C704 O696 1.331 . S
C704 O699 1.244 . S
O705 Mg690 2.013 1_655 S
O705 C694 1.191 . S
O706 C685 1.331 . S
O706 Mg692 2.081 . S
O707 Mg688 1.986 1_655 S
O707 C694 1.307 . S
O708 C686 1.264 . S
O708 Mg692 2.023 1_655 S
O709 C685 1.244 . S
O709 Mg693 1.942 . S
O710 C686 1.273 . S
O710 Mg693 1.955 1_655 S
O711 C684 1.312 . S
O711 Mg687 2.291 . S
O711 Mg690 2.114 . S
O712 C684 1.208 . S
O712 Mg692 2.031 . S
C713 O698 1.264 . S
C713 O700 1.273 . S
C714 O695 1.191 . S
C714 O697 1.307 . S
C715 O742 1.312 . S
C715 O743 1.208 . S
C716 O737 1.331 . S
C716 O740 1.244 . S
C717 O739 1.264 . S
C717 O741 1.273 . S
Mg718 O720 1.936 1_545 S
Mg718 O727 2.081 1_545 S
Mg718 O729 2.023 . S
Mg718 O733 2.031 1_545 S
Mg718 O742 2.291 . S
Mg719 O720 1.963 . S
Mg719 O730 1.942 . S
Mg719 O731 1.955 1_565 S
Mg719 O738 1.986 . S
O720 Mg718 1.936 1_565 S
O720 Mg719 1.963 . S
O720 Mg721 1.915 1_565 S
Mg721 O720 1.915 1_545 S
Mg721 O722 1.915 . S
Mg721 O726 2.013 . S
Mg721 O732 2.114 1_545 S
Mg721 O736 2.013 1_545 S
Mg721 O742 2.114 . S
O722 Mg721 1.915 . S
O722 Mg723 1.936 . S
O722 Mg724 1.963 . S
Mg723 O722 1.936 . S
Mg723 O732 2.291 1_545 S
Mg723 O737 2.081 . S
Mg723 O739 2.023 1_545 S
Mg723 O743 2.031 . S
Mg724 O722 1.963 . S
Mg724 O728 1.986 . S
Mg724 O740 1.942 . S
Mg724 O741 1.955 1_545 S
C725 O736 1.191 . S
C725 O738 1.307 . S
O726 Mg721 2.013 . S
O726 C745 1.191 . S
O727 Mg718 2.081 1_565 S
O727 C735 1.331 . S
O728 Mg724 1.986 . S
O728 C745 1.307 . S
O729 Mg718 2.023 . S
O729 C744 1.264 . S
O730 Mg719 1.942 . S
O730 C735 1.244 . S
O731 Mg719 1.955 1_545 S
O731 C744 1.273 . S
O732 Mg721 2.114 1_565 S
O732 Mg723 2.291 1_565 S
O732 C734 1.312 . S
O733 Mg718 2.031 1_565 S
O733 C734 1.208 . S
C734 O732 1.312 . S
C734 O733 1.208 . S
C735 O727 1.331 . S
C735 O730 1.244 . S
O736 Mg721 2.013 1_565 S
O736 C725 1.191 . S
O737 C716 1.331 . S
O737 Mg723 2.081 . S
O738 Mg719 1.986 . S
O738 C725 1.307 . S
O739 C717 1.264 . S
O739 Mg723 2.023 1_565 S
O740 C716 1.244 . S
O740 Mg724 1.942 . S
O741 C717 1.273 . S
O741 Mg724 1.955 1_565 S
O742 C715 1.312 . S
O742 Mg718 2.291 . S
O742 Mg721 2.114 . S
O743 C715 1.208 . S
O743 Mg723 2.031 . S
C744 O729 1.264 . S
C744 O731 1.273 . S
C745 O726 1.191 . S
C745 O728 1.307 . S
C746 O773 1.312 . S
C746 O774 1.208 . S
C747 O768 1.331 . S
C747 O771 1.244 . S
C748 O770 1.264 . S
C748 O772 1.273 . S
Mg749 O751 1.936 . S
Mg749 O758 2.081 . S
Mg749 O760 2.023 . S
Mg749 O764 2.031 . S
Mg749 O773 2.291 . S
Mg750 O751 1.963 . S
Mg750 O761 1.942 . S
Mg750 O762 1.955 . S
Mg750 O769 1.986 . S
O751 Mg749 1.936 . S
O751 Mg750 1.963 . S
O751 Mg752 1.915 . S
Mg752 O751 1.915 . S
Mg752 O753 1.915 . S
Mg752 O757 2.013 . S
Mg752 O763 2.114 . S
Mg752 O767 2.013 . S
Mg752 O773 2.114 . S
O753 Mg752 1.915 . S
O753 Mg754 1.936 . S
O753 Mg755 1.963 . S
Mg754 O753 1.936 . S
Mg754 O763 2.291 . S
Mg754 O768 2.081 . S
Mg754 O770 2.023 . S
Mg754 O774 2.031 . S
Mg755 O753 1.963 . S
Mg755 O759 1.986 . S
Mg755 O771 1.942 . S
Mg755 O772 1.955 . S
C756 O767 1.191 . S
C756 O769 1.307 . S
O757 Mg752 2.013 . S
O757 C776 1.191 . S
O758 Mg749 2.081 . S
O758 C766 1.331 . S
O759 Mg755 1.986 . S
O759 C776 1.307 . S
O760 Mg749 2.023 . S
O760 C775 1.264 . S
O761 Mg750 1.942 . S
O761 C766 1.244 . S
O762 Mg750 1.955 . S
O762 C775 1.273 . S
O763 Mg752 2.114 . S
O763 Mg754 2.291 . S
O763 C765 1.312 . S
O764 Mg749 2.031 . S
O764 C765 1.208 . S
C765 O763 1.312 . S
C765 O764 1.208 . S
C766 O758 1.331 . S
C766 O761 1.244 . S
O767 Mg752 2.013 . S
O767 C756 1.191 . S
O768 C747 1.331 . S
O768 Mg754 2.081 . S
O769 Mg750 1.986 . S
O769 C756 1.307 . S
O770 C748 1.264 . S
O770 Mg754 2.023 . S
O771 C747 1.244 . S
O771 Mg755 1.942 . S
O772 C748 1.273 . S
O772 Mg755 1.955 . S
O773 C746 1.312 . S
O773 Mg749 2.291 . S
O773 Mg752 2.114 . S
O774 C746 1.208 . S
O774 Mg754 2.031 . S
C775 O760 1.264 . S
C775 O762 1.273 . S
C776 O757 1.191 . S
C776 O759 1.307 . S
H777 C795 0.951 . S
H778 C797 0.951 . S
H779 C799 0.950 . S
H780 C800 0.950 . S
H781 C802 0.950 . S
H782 C805 0.950 . S
H783 C806 0.950 . S
H784 C808 0.950 . S
H785 C809 0.950 . S
H786 C810 0.951 . S
H787 C812 0.951 . S
H788 C814 0.950 . S
H789 C815 0.950 . S
H790 C817 0.950 . S
H791 C820 0.950 . S
H792 C821 0.950 . S
H793 C823 0.950 . S
H794 C824 0.950 . S
C795 H777 0.951 . S
C795 C796 1.366 . S
C795 C797 1.388 . S
C796 C795 1.366 . S
C796 C800 1.385 . S
C797 H778 0.951 . S
C797 C795 1.388 . S
C797 C798 1.366 . S
C798 C797 1.366 . S
C798 C799 1.414 . S
C798 C801 1.499 . S
C799 H779 0.950 . S
C799 C798 1.414 . S
C799 C800 1.374 . S
C800 H780 0.950 . S
C800 C796 1.385 . S
C800 C799 1.374 . S
C801 C798 1.499 . S
C801 C802 1.373 . S
C801 C803 1.389 . S
C802 H781 0.950 . S
C802 C801 1.373 . S
C802 C818 1.377 . S
C803 C801 1.389 . S
C803 C804 1.524 . S
C803 C817 1.377 . S
C804 C803 1.524 . S
C804 C805 1.397 . S
C804 C809 1.363 . S
C805 H782 0.950 . S
C805 C804 1.397 . S
C805 C806 1.334 . S
C806 H783 0.950 . S
C806 C805 1.334 . S
C806 C807 1.287 . S
C807 C806 1.287 . S
C807 C808 1.524 . S
C807 H826 0.913 . S
C808 H784 0.950 . S
C808 C807 1.524 . S
C808 C809 1.415 . S
C809 H785 0.950 . S
C809 C804 1.363 . S
C809 C808 1.415 . S
C810 H786 0.951 . S
C810 C811 1.366 . S
C810 C812 1.388 . S
C811 C810 1.366 . S
C811 C815 1.385 . S
C812 H787 0.951 . S
C812 C810 1.388 . S
C812 C813 1.366 . S
C813 C812 1.366 . S
C813 C814 1.414 . S
C813 C816 1.499 . S
C814 H788 0.950 . S
C814 C813 1.414 . S
C814 C815 1.374 . S
C815 H789 0.950 . S
C815 C811 1.385 . S
C815 C814 1.374 . S
C816 C813 1.499 . S
C816 C817 1.373 . S
C816 C818 1.389 . S
C817 H790 0.950 . S
C817 C803 1.377 . S
C817 C816 1.373 . S
C818 C802 1.377 . S
C818 C816 1.389 . S
C818 C819 1.524 . S
C819 C818 1.524 . S
C819 C820 1.397 . S
C819 C824 1.363 . S
C820 H791 0.950 . S
C820 C819 1.397 . S
C820 C821 1.334 . S
C821 H792 0.950 . S
C821 C820 1.334 . S
C821 C822 1.287 . S
C822 C821 1.287 . S
C822 C823 1.524 . S
C822 H825 0.999 . S
C823 H793 0.950 . S
C823 C822 1.524 . S
C823 C824 1.415 . S
C824 H794 0.950 . S
C824 C819 1.363 . S
C824 C823 1.415 . S
H825 C822 0.999 . S
H826 C807 0.913 . S
H827 C845 0.951 . S
H828 C847 0.951 . S
H829 C849 0.950 . S
H830 C850 0.950 . S
H831 C852 0.950 . S
H832 C855 0.950 . S
H833 C856 0.950 . S
H834 C858 0.950 . S
H835 C859 0.950 . S
H836 C860 0.951 . S
H837 C862 0.951 . S
H838 C864 0.950 . S
H839 C865 0.950 . S
H840 C867 0.950 . S
H841 C870 0.950 . S
H842 C871 0.950 . S
H843 C873 0.950 . S
H844 C874 0.950 . S
C845 H827 0.951 . S
C845 C846 1.366 . S
C845 C847 1.388 . S
C846 C845 1.366 . S
C846 C850 1.385 . S
C847 H828 0.951 . S
C847 C845 1.388 . S
C847 C848 1.366 . S
C848 C847 1.366 . S
C848 C849 1.414 . S
C848 C851 1.499 . S
C849 H829 0.950 . S
C849 C848 1.414 . S
C849 C850 1.374 . S
C850 H830 0.950 . S
C850 C846 1.385 . S
C850 C849 1.374 . S
C851 C848 1.499 . S
C851 C852 1.373 . S
C851 C853 1.389 . S
C852 H831 0.950 . S
C852 C851 1.373 . S
C852 C868 1.377 . S
C853 C851 1.389 . S
C853 C854 1.524 . S
C853 C867 1.377 . S
C854 C853 1.524 . S
C854 C855 1.397 . S
C854 C859 1.363 . S
C855 H832 0.950 . S
C855 C854 1.397 . S
C855 C856 1.334 . S
C856 H833 0.950 . S
C856 C855 1.334 . S
C856 C857 1.287 . S
C857 C856 1.287 . S
C857 C858 1.524 . S
C857 H876 0.913 . S
C858 H834 0.950 . S
C858 C857 1.524 . S
C858 C859 1.415 . S
C859 H835 0.950 . S
C859 C854 1.363 . S
C859 C858 1.415 . S
C860 H836 0.951 . S
C860 C861 1.366 . S
C860 C862 1.388 . S
C861 C860 1.366 . S
C861 C865 1.385 . S
C862 H837 0.951 . S
C862 C860 1.388 . S
C862 C863 1.366 . S
C863 C862 1.366 . S
C863 C864 1.414 . S
C863 C866 1.499 . S
C864 H838 0.950 . S
C864 C863 1.414 . S
C864 C865 1.374 . S
C865 H839 0.950 . S
C865 C861 1.385 . S
C865 C864 1.374 . S
C866 C863 1.499 . S
C866 C867 1.373 . S
C866 C868 1.389 . S
C867 H840 0.950 . S
C867 C853 1.377 . S
C867 C866 1.373 . S
C868 C852 1.377 . S
C868 C866 1.389 . S
C868 C869 1.524 . S
C869 C868 1.524 . S
C869 C870 1.397 . S
C869 C874 1.363 . S
C870 H841 0.950 . S
C870 C869 1.397 . S
C870 C871 1.334 . S
C871 H842 0.950 . S
C871 C870 1.334 . S
C871 C872 1.287 . S
C872 C871 1.287 . S
C872 C873 1.524 . S
C872 H875 0.999 1_545 S
C873 H843 0.950 . S
C873 C872 1.524 . S
C873 C874 1.415 . S
C874 H844 0.950 . S
C874 C869 1.363 . S
C874 C873 1.415 . S
H875 C872 0.999 1_565 S
H876 C857 0.913 . S
H877 C895 0.951 . S
H878 C897 0.951 . S
H879 C899 0.950 . S
H880 C900 0.950 . S
H881 C902 0.950 . S
H882 C905 0.950 . S
H883 C906 0.950 . S
H884 C908 0.950 . S
H885 C909 0.950 . S
H886 C910 0.951 . S
H887 C912 0.951 . S
H888 C914 0.950 . S
H889 C915 0.950 . S
H890 C917 0.950 . S
H891 C920 0.950 . S
H892 C921 0.950 . S
H893 C923 0.950 . S
H894 C924 0.950 . S
C895 H877 0.951 . S
C895 C896 1.366 . S
C895 C897 1.388 . S
C896 C895 1.366 . S
C896 C900 1.385 . S
C897 H878 0.951 . S
C897 C895 1.388 . S
C897 C898 1.366 . S
C898 C897 1.366 . S
C898 C899 1.414 . S
C898 C901 1.499 . S
C899 H879 0.950 . S
C899 C898 1.414 . S
C899 C900 1.374 . S
C900 H880 0.950 . S
C900 C896 1.385 . S
C900 C899 1.374 . S
C901 C898 1.499 . S
C901 C902 1.373 . S
C901 C903 1.389 . S
C902 H881 0.950 . S
C902 C901 1.373 . S
C902 C918 1.377 . S
C903 C901 1.389 . S
C903 C904 1.524 . S
C903 C917 1.377 . S
C904 C903 1.524 . S
C904 C905 1.397 . S
C904 C909 1.363 . S
C905 H882 0.950 . S
C905 C904 1.397 . S
C905 C906 1.334 . S
C906 H883 0.950 . S
C906 C905 1.334 . S
C906 C907 1.287 . S
C907 C906 1.287 . S
C907 C908 1.524 . S
C907 H926 0.913 . S
C908 H884 0.950 . S
C908 C907 1.524 . S
C908 C909 1.415 . S
C909 H885 0.950 . S
C909 C904 1.363 . S
C909 C908 1.415 . S
C910 H886 0.951 . S
C910 C911 1.366 . S
C910 C912 1.388 . S
C911 C910 1.366 . S
C911 C915 1.385 . S
C912 H887 0.951 . S
C912 C910 1.388 . S
C912 C913 1.366 . S
C913 C912 1.366 . S
C913 C914 1.414 . S
C913 C916 1.499 . S
C914 H888 0.950 . S
C914 C913 1.414 . S
C914 C915 1.374 . S
C915 H889 0.950 . S
C915 C911 1.385 . S
C915 C914 1.374 . S
C916 C913 1.499 . S
C916 C917 1.373 . S
C916 C918 1.389 . S
C917 H890 0.950 . S
C917 C903 1.377 . S
C917 C916 1.373 . S
C918 C902 1.377 . S
C918 C916 1.389 . S
C918 C919 1.524 . S
C919 C918 1.524 . S
C919 C920 1.397 . S
C919 C924 1.363 . S
C920 H891 0.950 . S
C920 C919 1.397 . S
C920 C921 1.334 . S
C921 H892 0.950 . S
C921 C920 1.334 . S
C921 C922 1.287 . S
C922 C921 1.287 . S
C922 C923 1.524 . S
C922 H925 0.999 . S
C923 H893 0.950 . S
C923 C922 1.524 . S
C923 C924 1.415 . S
C924 H894 0.950 . S
C924 C919 1.363 . S
C924 C923 1.415 . S
H925 C922 0.999 . S
H926 C907 0.913 . S
H927 C945 0.951 . S
H928 C947 0.951 . S
H929 C949 0.950 . S
H930 C950 0.950 . S
H931 C952 0.950 . S
H932 C955 0.950 . S
H933 C956 0.950 . S
H934 C958 0.950 . S
H935 C959 0.950 . S
H936 C960 0.951 . S
H937 C962 0.951 . S
H938 C964 0.950 . S
H939 C965 0.950 . S
H940 C967 0.950 . S
H941 C970 0.950 . S
H942 C971 0.950 . S
H943 C973 0.950 . S
H944 C974 0.950 . S
C945 H927 0.951 . S
C945 C946 1.366 . S
C945 C947 1.388 . S
C946 C945 1.366 . S
C946 C950 1.385 . S
C947 H928 0.951 . S
C947 C945 1.388 . S
C947 C948 1.366 . S
C948 C947 1.366 . S
C948 C949 1.414 . S
C948 C951 1.499 . S
C949 H929 0.950 . S
C949 C948 1.414 . S
C949 C950 1.374 . S
C950 H930 0.950 . S
C950 C946 1.385 . S
C950 C949 1.374 . S
C951 C948 1.499 . S
C951 C952 1.373 . S
C951 C953 1.389 . S
C952 H931 0.950 . S
C952 C951 1.373 . S
C952 C968 1.377 . S
C953 C951 1.389 . S
C953 C954 1.524 . S
C953 C967 1.377 . S
C954 C953 1.524 . S
C954 C955 1.397 . S
C954 C959 1.363 . S
C955 H932 0.950 . S
C955 C954 1.397 . S
C955 C956 1.334 . S
C956 H933 0.950 . S
C956 C955 1.334 . S
C956 C957 1.287 . S
C957 C956 1.287 . S
C957 C958 1.524 . S
C957 H976 0.913 . S
C958 H934 0.950 . S
C958 C957 1.524 . S
C958 C959 1.415 . S
C959 H935 0.950 . S
C959 C954 1.363 . S
C959 C958 1.415 . S
C960 H936 0.951 . S
C960 C961 1.366 . S
C960 C962 1.388 . S
C961 C960 1.366 . S
C961 C965 1.385 . S
C962 H937 0.951 . S
C962 C960 1.388 . S
C962 C963 1.366 . S
C963 C962 1.366 . S
C963 C964 1.414 . S
C963 C966 1.499 . S
C964 H938 0.950 . S
C964 C963 1.414 . S
C964 C965 1.374 . S
C965 H939 0.950 . S
C965 C961 1.385 . S
C965 C964 1.374 . S
C966 C963 1.499 . S
C966 C967 1.373 . S
C966 C968 1.389 . S
C967 H940 0.950 . S
C967 C953 1.377 . S
C967 C966 1.373 . S
C968 C952 1.377 . S
C968 C966 1.389 . S
C968 C969 1.524 . S
C969 C968 1.524 . S
C969 C970 1.397 . S
C969 C974 1.363 . S
C970 H941 0.950 . S
C970 C969 1.397 . S
C970 C971 1.334 . S
C971 H942 0.950 . S
C971 C970 1.334 . S
C971 C972 1.287 . S
C972 C971 1.287 . S
C972 C973 1.524 . S
C972 H975 0.999 . S
C973 H943 0.950 . S
C973 C972 1.524 . S
C973 C974 1.415 . S
C974 H944 0.950 . S
C974 C969 1.363 . S
C974 C973 1.415 . S
H975 C972 0.999 . S
H976 C957 0.913 . S
H977 C995 0.951 . S
H978 C997 0.951 . S
H979 C999 0.950 . S
H980 C1000 0.950 . S
H981 C1002 0.950 . S
H982 C1005 0.950 . S
H983 C1006 0.950 . S
H984 C1008 0.950 . S
H985 C1009 0.950 . S
H986 C1010 0.951 . S
H987 C1012 0.951 . S
H988 C1014 0.950 . S
H989 C1015 0.950 . S
H990 C1017 0.950 . S
H991 C1020 0.950 . S
H992 C1021 0.950 . S
H993 C1023 0.950 . S
H994 C1024 0.950 . S
C995 H977 0.951 . S
C995 C996 1.366 . S
C995 C997 1.388 . S
C996 C995 1.366 . S
C996 C1000 1.385 . S
C997 H978 0.951 . S
C997 C995 1.388 . S
C997 C998 1.366 . S
C998 C997 1.366 . S
C998 C999 1.414 . S
C998 C1001 1.499 . S
C999 H979 0.950 . S
C999 C998 1.414 . S
C999 C1000 1.374 . S
C1000 H980 0.950 . S
C1000 C996 1.385 . S
C1000 C999 1.374 . S
C1001 C998 1.499 . S
C1001 C1002 1.373 . S
C1001 C1003 1.389 . S
C1002 H981 0.950 . S
C1002 C1001 1.373 . S
C1002 C1018 1.377 . S
C1003 C1001 1.389 . S
C1003 C1004 1.524 . S
C1003 C1017 1.377 . S
C1004 C1003 1.524 . S
C1004 C1005 1.397 . S
C1004 C1009 1.363 . S
C1005 H982 0.950 . S
C1005 C1004 1.397 . S
C1005 C1006 1.334 . S
C1006 H983 0.950 . S
C1006 C1005 1.334 . S
C1006 C1007 1.287 . S
C1007 C1006 1.287 . S
C1007 C1008 1.524 . S
C1007 H1026 0.913 . S
C1008 H984 0.950 . S
C1008 C1007 1.524 . S
C1008 C1009 1.415 . S
C1009 H985 0.950 . S
C1009 C1004 1.363 . S
C1009 C1008 1.415 . S
C1010 H986 0.951 . S
C1010 C1011 1.366 . S
C1010 C1012 1.388 . S
C1011 C1010 1.366 . S
C1011 C1015 1.385 . S
C1012 H987 0.951 . S
C1012 C1010 1.388 . S
C1012 C1013 1.366 . S
C1013 C1012 1.366 . S
C1013 C1014 1.414 . S
C1013 C1016 1.499 . S
C1014 H988 0.950 . S
C1014 C1013 1.414 . S
C1014 C1015 1.374 . S
C1015 H989 0.950 . S
C1015 C1011 1.385 . S
C1015 C1014 1.374 . S
C1016 C1013 1.499 . S
C1016 C1017 1.373 . S
C1016 C1018 1.389 . S
C1017 H990 0.950 . S
C1017 C1003 1.377 . S
C1017 C1016 1.373 . S
C1018 C1002 1.377 . S
C1018 C1016 1.389 . S
C1018 C1019 1.524 . S
C1019 C1018 1.524 . S
C1019 C1020 1.397 . S
C1019 C1024 1.363 . S
C1020 H991 0.950 . S
C1020 C1019 1.397 . S
C1020 C1021 1.334 . S
C1021 H992 0.950 . S
C1021 C1020 1.334 . S
C1021 C1022 1.287 . S
C1022 C1021 1.287 . S
C1022 C1023 1.524 . S
C1022 H1025 0.999 . S
C1023 H993 0.950 . S
C1023 C1022 1.524 . S
C1023 C1024 1.415 . S
C1024 H994 0.950 . S
C1024 C1019 1.363 . S
C1024 C1023 1.415 . S
H1025 C1022 0.999 . S
H1026 C1007 0.913 . S
H1027 C1045 0.951 . S
H1028 C1047 0.951 . S
H1029 C1049 0.950 . S
H1030 C1050 0.950 . S
H1031 C1052 0.950 . S
H1032 C1055 0.950 . S
H1033 C1056 0.950 . S
H1034 C1058 0.950 . S
H1035 C1059 0.950 . S
H1036 C1060 0.951 . S
H1037 C1062 0.951 . S
H1038 C1064 0.950 . S
H1039 C1065 0.950 . S
H1040 C1067 0.950 . S
H1041 C1070 0.950 . S
H1042 C1071 0.950 . S
H1043 C1073 0.950 . S
H1044 C1074 0.950 . S
C1045 H1027 0.951 . S
C1045 C1046 1.366 . S
C1045 C1047 1.388 . S
C1046 C1045 1.366 . S
C1046 C1050 1.385 . S
C1047 H1028 0.951 . S
C1047 C1045 1.388 . S
C1047 C1048 1.366 . S
C1048 C1047 1.366 . S
C1048 C1049 1.414 . S
C1048 C1051 1.499 . S
C1049 H1029 0.950 . S
C1049 C1048 1.414 . S
C1049 C1050 1.374 . S
C1050 H1030 0.950 . S
C1050 C1046 1.385 . S
C1050 C1049 1.374 . S
C1051 C1048 1.499 . S
C1051 C1052 1.373 . S
C1051 C1053 1.389 . S
C1052 H1031 0.950 . S
C1052 C1051 1.373 . S
C1052 C1068 1.377 . S
C1053 C1051 1.389 . S
C1053 C1054 1.524 . S
C1053 C1067 1.377 . S
C1054 C1053 1.524 . S
C1054 C1055 1.397 . S
C1054 C1059 1.363 . S
C1055 H1032 0.950 . S
C1055 C1054 1.397 . S
C1055 C1056 1.334 . S
C1056 H1033 0.950 . S
C1056 C1055 1.334 . S
C1056 C1057 1.287 . S
C1057 C1056 1.287 . S
C1057 C1058 1.524 . S
C1057 H1076 0.913 . S
C1058 H1034 0.950 . S
C1058 C1057 1.524 . S
C1058 C1059 1.415 . S
C1059 H1035 0.950 . S
C1059 C1054 1.363 . S
C1059 C1058 1.415 . S
C1060 H1036 0.951 . S
C1060 C1061 1.366 . S
C1060 C1062 1.388 . S
C1061 C1060 1.366 . S
C1061 C1065 1.385 . S
C1062 H1037 0.951 . S
C1062 C1060 1.388 . S
C1062 C1063 1.366 . S
C1063 C1062 1.366 . S
C1063 C1064 1.414 . S
C1063 C1066 1.499 . S
C1064 H1038 0.950 . S
C1064 C1063 1.414 . S
C1064 C1065 1.374 . S
C1065 H1039 0.950 . S
C1065 C1061 1.385 . S
C1065 C1064 1.374 . S
C1066 C1063 1.499 . S
C1066 C1067 1.373 . S
C1066 C1068 1.389 . S
C1067 H1040 0.950 . S
C1067 C1053 1.377 . S
C1067 C1066 1.373 . S
C1068 C1052 1.377 . S
C1068 C1066 1.389 . S
C1068 C1069 1.524 . S
C1069 C1068 1.524 . S
C1069 C1070 1.397 . S
C1069 C1074 1.363 . S
C1070 H1041 0.950 . S
C1070 C1069 1.397 . S
C1070 C1071 1.334 . S
C1071 H1042 0.950 . S
C1071 C1070 1.334 . S
C1071 C1072 1.287 . S
C1072 C1071 1.287 . S
C1072 C1073 1.524 . S
C1072 H1075 0.999 . S
C1073 H1043 0.950 . S
C1073 C1072 1.524 . S
C1073 C1074 1.415 . S
C1074 H1044 0.950 . S
C1074 C1069 1.363 . S
C1074 C1073 1.415 . S
H1075 C1072 0.999 . S
H1076 C1057 0.913 . S
H1077 C1095 0.951 . S
H1078 C1097 0.951 . S
H1079 C1099 0.950 . S
H1080 C1100 0.950 . S
H1081 C1102 0.950 . S
H1082 C1105 0.950 . S
H1083 C1106 0.950 . S
H1084 C1108 0.950 . S
H1085 C1109 0.950 . S
H1086 C1110 0.951 . S
H1087 C1112 0.951 . S
H1088 C1114 0.950 . S
H1089 C1115 0.950 . S
H1090 C1117 0.950 . S
H1091 C1120 0.950 . S
H1092 C1121 0.950 . S
H1093 C1123 0.950 . S
H1094 C1124 0.950 . S
C1095 H1077 0.951 . S
C1095 C1096 1.366 . S
C1095 C1097 1.388 . S
C1096 C1095 1.366 . S
C1096 C1100 1.385 . S
C1097 H1078 0.951 . S
C1097 C1095 1.388 . S
C1097 C1098 1.366 . S
C1098 C1097 1.366 . S
C1098 C1099 1.414 . S
C1098 C1101 1.499 . S
C1099 H1079 0.950 . S
C1099 C1098 1.414 . S
C1099 C1100 1.374 . S
C1100 H1080 0.950 . S
C1100 C1096 1.385 . S
C1100 C1099 1.374 . S
C1101 C1098 1.499 . S
C1101 C1102 1.373 . S
C1101 C1103 1.389 . S
C1102 H1081 0.950 . S
C1102 C1101 1.373 . S
C1102 C1118 1.377 . S
C1103 C1101 1.389 . S
C1103 C1104 1.524 . S
C1103 C1117 1.377 . S
C1104 C1103 1.524 . S
C1104 C1105 1.397 . S
C1104 C1109 1.363 . S
C1105 H1082 0.950 . S
C1105 C1104 1.397 . S
C1105 C1106 1.334 . S
C1106 H1083 0.950 . S
C1106 C1105 1.334 . S
C1106 C1107 1.287 . S
C1107 C1106 1.287 . S
C1107 C1108 1.524 . S
C1107 H1126 0.913 . S
C1108 H1084 0.950 . S
C1108 C1107 1.524 . S
C1108 C1109 1.415 . S
C1109 H1085 0.950 . S
C1109 C1104 1.363 . S
C1109 C1108 1.415 . S
C1110 H1086 0.951 . S
C1110 C1111 1.366 . S
C1110 C1112 1.388 . S
C1111 C1110 1.366 . S
C1111 C1115 1.385 . S
C1112 H1087 0.951 . S
C1112 C1110 1.388 . S
C1112 C1113 1.366 . S
C1113 C1112 1.366 . S
C1113 C1114 1.414 . S
C1113 C1116 1.499 . S
C1114 H1088 0.950 . S
C1114 C1113 1.414 . S
C1114 C1115 1.374 . S
C1115 H1089 0.950 . S
C1115 C1111 1.385 . S
C1115 C1114 1.374 . S
C1116 C1113 1.499 . S
C1116 C1117 1.373 . S
C1116 C1118 1.389 . S
C1117 H1090 0.950 . S
C1117 C1103 1.377 . S
C1117 C1116 1.373 . S
C1118 C1102 1.377 . S
C1118 C1116 1.389 . S
C1118 C1119 1.524 . S
C1119 C1118 1.524 . S
C1119 C1120 1.397 . S
C1119 C1124 1.363 . S
C1120 H1091 0.950 . S
C1120 C1119 1.397 . S
C1120 C1121 1.334 . S
C1121 H1092 0.950 . S
C1121 C1120 1.334 . S
C1121 C1122 1.287 . S
C1122 C1121 1.287 . S
C1122 C1123 1.524 . S
C1122 H1125 0.999 1_565 S
C1123 H1093 0.950 . S
C1123 C1122 1.524 . S
C1123 C1124 1.415 . S
C1124 H1094 0.950 . S
C1124 C1119 1.363 . S
C1124 C1123 1.415 . S
H1125 C1122 0.999 1_545 S
H1126 C1107 0.913 . S
H1127 C1145 0.951 . S
H1128 C1147 0.951 . S
H1129 C1149 0.950 . S
H1130 C1150 0.950 . S
H1131 C1152 0.950 . S
H1132 C1155 0.950 . S
H1133 C1156 0.950 . S
H1134 C1158 0.950 . S
H1135 C1159 0.950 . S
H1136 C1160 0.951 . S
H1137 C1162 0.951 . S
H1138 C1164 0.950 . S
H1139 C1165 0.950 . S
H1140 C1167 0.950 . S
H1141 C1170 0.950 . S
H1142 C1171 0.950 . S
H1143 C1173 0.950 . S
H1144 C1174 0.950 . S
C1145 H1127 0.951 . S
C1145 C1146 1.366 . S
C1145 C1147 1.388 . S
C1146 C1145 1.366 . S
C1146 C1150 1.385 . S
C1147 H1128 0.951 . S
C1147 C1145 1.388 . S
C1147 C1148 1.366 . S
C1148 C1147 1.366 . S
C1148 C1149 1.414 . S
C1148 C1151 1.499 . S
C1149 H1129 0.950 . S
C1149 C1148 1.414 . S
C1149 C1150 1.374 . S
C1150 H1130 0.950 . S
C1150 C1146 1.385 . S
C1150 C1149 1.374 . S
C1151 C1148 1.499 . S
C1151 C1152 1.373 . S
C1151 C1153 1.389 . S
C1152 H1131 0.950 . S
C1152 C1151 1.373 . S
C1152 C1168 1.377 . S
C1153 C1151 1.389 . S
C1153 C1154 1.524 . S
C1153 C1167 1.377 . S
C1154 C1153 1.524 . S
C1154 C1155 1.397 . S
C1154 C1159 1.363 . S
C1155 H1132 0.950 . S
C1155 C1154 1.397 . S
C1155 C1156 1.334 . S
C1156 H1133 0.950 . S
C1156 C1155 1.334 . S
C1156 C1157 1.287 . S
C1157 C1156 1.287 . S
C1157 C1158 1.524 . S
C1157 H1176 0.913 . S
C1158 H1134 0.950 . S
C1158 C1157 1.524 . S
C1158 C1159 1.415 . S
C1159 H1135 0.950 . S
C1159 C1154 1.363 . S
C1159 C1158 1.415 . S
C1160 H1136 0.951 . S
C1160 C1161 1.366 . S
C1160 C1162 1.388 . S
C1161 C1160 1.366 . S
C1161 C1165 1.385 . S
C1162 H1137 0.951 . S
C1162 C1160 1.388 . S
C1162 C1163 1.366 . S
C1163 C1162 1.366 . S
C1163 C1164 1.414 . S
C1163 C1166 1.499 . S
C1164 H1138 0.950 . S
C1164 C1163 1.414 . S
C1164 C1165 1.374 . S
C1165 H1139 0.950 . S
C1165 C1161 1.385 . S
C1165 C1164 1.374 . S
C1166 C1163 1.499 . S
C1166 C1167 1.373 . S
C1166 C1168 1.389 . S
C1167 H1140 0.950 . S
C1167 C1153 1.377 . S
C1167 C1166 1.373 . S
C1168 C1152 1.377 . S
C1168 C1166 1.389 . S
C1168 C1169 1.524 . S
C1169 C1168 1.524 . S
C1169 C1170 1.397 . S
C1169 C1174 1.363 . S
C1170 H1141 0.950 . S
C1170 C1169 1.397 . S
C1170 C1171 1.334 . S
C1171 H1142 0.950 . S
C1171 C1170 1.334 . S
C1171 C1172 1.287 . S
C1172 C1171 1.287 . S
C1172 C1173 1.524 . S
C1172 H1175 0.999 . S
C1173 H1143 0.950 . S
C1173 C1172 1.524 . S
C1173 C1174 1.415 . S
C1174 H1144 0.950 . S
C1174 C1169 1.363 . S
C1174 C1173 1.415 . S
H1175 C1172 0.999 . S
H1176 C1157 0.913 . S
H1177 C1195 0.951 . S
H1178 C1197 0.951 . S
H1179 C1199 0.950 . S
H1180 C1200 0.950 . S
H1181 C1202 0.950 . S
H1182 C1205 0.950 . S
H1183 C1206 0.950 . S
H1184 C1208 0.950 . S
H1185 C1209 0.950 . S
H1186 C1210 0.951 . S
H1187 C1212 0.951 . S
H1188 C1214 0.950 . S
H1189 C1215 0.950 . S
H1190 C1217 0.950 . S
H1191 C1220 0.950 . S
H1192 C1221 0.950 . S
H1193 C1223 0.950 . S
H1194 C1224 0.950 . S
C1195 H1177 0.951 . S
C1195 C1196 1.366 . S
C1195 C1197 1.388 . S
C1196 C1195 1.366 . S
C1196 C1200 1.385 . S
C1197 H1178 0.951 . S
C1197 C1195 1.388 . S
C1197 C1198 1.366 . S
C1198 C1197 1.366 . S
C1198 C1199 1.414 . S
C1198 C1201 1.499 . S
C1199 H1179 0.950 . S
C1199 C1198 1.414 . S
C1199 C1200 1.374 . S
C1200 H1180 0.950 . S
C1200 C1196 1.385 . S
C1200 C1199 1.374 . S
C1201 C1198 1.499 . S
C1201 C1202 1.373 . S
C1201 C1203 1.389 . S
C1202 H1181 0.950 . S
C1202 C1201 1.373 . S
C1202 C1218 1.377 . S
C1203 C1201 1.389 . S
C1203 C1204 1.524 . S
C1203 C1217 1.377 . S
C1204 C1203 1.524 . S
C1204 C1205 1.397 . S
C1204 C1209 1.363 . S
C1205 H1182 0.950 . S
C1205 C1204 1.397 . S
C1205 C1206 1.334 . S
C1206 H1183 0.950 . S
C1206 C1205 1.334 . S
C1206 C1207 1.287 . S
C1207 C1206 1.287 . S
C1207 C1208 1.524 . S
C1207 H1226 0.913 . S
C1208 H1184 0.950 . S
C1208 C1207 1.524 . S
C1208 C1209 1.415 . S
C1209 H1185 0.950 . S
C1209 C1204 1.363 . S
C1209 C1208 1.415 . S
C1210 H1186 0.951 . S
C1210 C1211 1.366 . S
C1210 C1212 1.388 . S
C1211 C1210 1.366 . S
C1211 C1215 1.385 . S
C1212 H1187 0.951 . S
C1212 C1210 1.388 . S
C1212 C1213 1.366 . S
C1213 C1212 1.366 . S
C1213 C1214 1.414 . S
C1213 C1216 1.499 . S
C1214 H1188 0.950 . S
C1214 C1213 1.414 . S
C1214 C1215 1.374 . S
C1215 H1189 0.950 . S
C1215 C1211 1.385 . S
C1215 C1214 1.374 . S
C1216 C1213 1.499 . S
C1216 C1217 1.373 . S
C1216 C1218 1.389 . S
C1217 H1190 0.950 . S
C1217 C1203 1.377 . S
C1217 C1216 1.373 . S
C1218 C1202 1.377 . S
C1218 C1216 1.389 . S
C1218 C1219 1.524 . S
C1219 C1218 1.524 . S
C1219 C1220 1.397 . S
C1219 C1224 1.363 . S
C1220 H1191 0.950 . S
C1220 C1219 1.397 . S
C1220 C1221 1.334 . S
C1221 H1192 0.950 . S
C1221 C1220 1.334 . S
C1221 C1222 1.287 . S
C1222 C1221 1.287 . S
C1222 C1223 1.524 . S
C1222 H1225 0.999 . S
C1223 H1193 0.950 . S
C1223 C1222 1.524 . S
C1223 C1224 1.415 . S
C1224 H1194 0.950 . S
C1224 C1219 1.363 . S
C1224 C1223 1.415 . S
H1225 C1222 0.999 . S
H1226 C1207 0.913 . S
H1227 C1245 0.951 . S
H1228 C1247 0.951 . S
H1229 C1249 0.950 . S
H1230 C1250 0.950 . S
H1231 C1252 0.950 . S
H1232 C1255 0.950 . S
H1233 C1256 0.950 . S
H1234 C1258 0.950 . S
H1235 C1259 0.950 . S
H1236 C1260 0.951 . S
H1237 C1262 0.951 . S
H1238 C1264 0.950 . S
H1239 C1265 0.950 . S
H1240 C1267 0.950 . S
H1241 C1270 0.950 . S
H1242 C1271 0.950 . S
H1243 C1273 0.950 . S
H1244 C1274 0.950 . S
C1245 H1227 0.951 . S
C1245 C1246 1.366 . S
C1245 C1247 1.388 . S
C1246 C1245 1.366 . S
C1246 C1250 1.385 . S
C1247 H1228 0.951 . S
C1247 C1245 1.388 . S
C1247 C1248 1.366 . S
C1248 C1247 1.366 . S
C1248 C1249 1.414 . S
C1248 C1251 1.499 . S
C1249 H1229 0.950 . S
C1249 C1248 1.414 . S
C1249 C1250 1.374 . S
C1250 H1230 0.950 . S
C1250 C1246 1.385 . S
C1250 C1249 1.374 . S
C1251 C1248 1.499 . S
C1251 C1252 1.373 . S
C1251 C1253 1.389 . S
C1252 H1231 0.950 . S
C1252 C1251 1.373 . S
C1252 C1268 1.377 . S
C1253 C1251 1.389 . S
C1253 C1254 1.524 . S
C1253 C1267 1.377 . S
C1254 C1253 1.524 . S
C1254 C1255 1.397 . S
C1254 C1259 1.363 . S
C1255 H1232 0.950 . S
C1255 C1254 1.397 . S
C1255 C1256 1.334 . S
C1256 H1233 0.950 . S
C1256 C1255 1.334 . S
C1256 C1257 1.287 . S
C1257 C1256 1.287 . S
C1257 C1258 1.524 . S
C1257 H1276 0.913 . S
C1258 H1234 0.950 . S
C1258 C1257 1.524 . S
C1258 C1259 1.415 . S
C1259 H1235 0.950 . S
C1259 C1254 1.363 . S
C1259 C1258 1.415 . S
C1260 H1236 0.951 . S
C1260 C1261 1.366 . S
C1260 C1262 1.388 . S
C1261 C1260 1.366 . S
C1261 C1265 1.385 . S
C1262 H1237 0.951 . S
C1262 C1260 1.388 . S
C1262 C1263 1.366 . S
C1263 C1262 1.366 . S
C1263 C1264 1.414 . S
C1263 C1266 1.499 . S
C1264 H1238 0.950 . S
C1264 C1263 1.414 . S
C1264 C1265 1.374 . S
C1265 H1239 0.950 . S
C1265 C1261 1.385 . S
C1265 C1264 1.374 . S
C1266 C1263 1.499 . S
C1266 C1267 1.373 . S
C1266 C1268 1.389 . S
C1267 H1240 0.950 . S
C1267 C1253 1.377 . S
C1267 C1266 1.373 . S
C1268 C1252 1.377 . S
C1268 C1266 1.389 . S
C1268 C1269 1.524 . S
C1269 C1268 1.524 . S
C1269 C1270 1.397 . S
C1269 C1274 1.363 . S
C1270 H1241 0.950 . S
C1270 C1269 1.397 . S
C1270 C1271 1.334 . S
C1271 H1242 0.950 . S
C1271 C1270 1.334 . S
C1271 C1272 1.287 . S
C1272 C1271 1.287 . S
C1272 C1273 1.524 . S
C1272 H1275 0.999 . S
C1273 H1243 0.950 . S
C1273 C1272 1.524 . S
C1273 C1274 1.415 . S
C1274 H1244 0.950 . S
C1274 C1269 1.363 . S
C1274 C1273 1.415 . S
H1275 C1272 0.999 . S
H1276 C1257 0.913 . S
H1277 C1295 0.951 . S
H1278 C1297 0.951 . S
H1279 C1299 0.950 . S
H1280 C1300 0.950 . S
H1281 C1302 0.950 . S
H1282 C1305 0.950 . S
H1283 C1306 0.948 . S
H1284 C1308 0.947 1_554 S
H1285 C1309 0.950 . S
H1286 C1310 0.951 . S
H1287 C1312 0.951 . S
H1288 C1314 0.950 . S
H1289 C1315 0.950 . S
H1290 C1317 0.950 . S
H1291 C1320 0.950 . S
H1292 C1321 0.950 . S
H1293 C1323 0.950 . S
H1294 C1324 0.950 . S
C1295 H1277 0.951 . S
C1295 C1296 1.366 . S
C1295 C1297 1.388 . S
C1296 C1295 1.366 . S
C1296 C1300 1.385 . S
C1297 H1278 0.951 . S
C1297 C1295 1.388 . S
C1297 C1298 1.366 . S
C1298 C1297 1.366 . S
C1298 C1299 1.414 . S
C1298 C1301 1.499 . S
C1299 H1279 0.950 . S
C1299 C1298 1.414 . S
C1299 C1300 1.374 . S
C1300 H1280 0.950 . S
C1300 C1296 1.385 . S
C1300 C1299 1.374 . S
C1301 C1298 1.499 . S
C1301 C1302 1.373 . S
C1301 C1303 1.389 . S
C1302 H1281 0.950 . S
C1302 C1301 1.373 . S
C1302 C1318 1.377 . S
C1303 C1301 1.389 . S
C1303 C1304 1.524 . S
C1303 C1317 1.377 . S
C1304 C1303 1.524 . S
C1304 C1305 1.397 . S
C1304 C1309 1.363 . S
C1305 H1282 0.950 . S
C1305 C1304 1.397 . S
C1305 C1306 1.337 1_556 S
C1306 H1283 0.948 . S
C1306 C1305 1.337 1_554 S
C1306 C1307 1.286 . S
C1307 C1306 1.286 . S
C1307 C1308 1.524 1_554 S
C1307 H1326 0.913 . S
C1308 H1284 0.947 1_556 S
C1308 C1307 1.524 1_556 S
C1308 C1309 1.415 . S
C1309 H1285 0.950 . S
C1309 C1304 1.363 . S
C1309 C1308 1.415 . S
C1310 H1286 0.951 . S
C1310 C1311 1.366 . S
C1310 C1312 1.388 . S
C1311 C1310 1.366 . S
C1311 C1315 1.385 . S
C1312 H1287 0.951 . S
C1312 C1310 1.388 . S
C1312 C1313 1.366 . S
C1313 C1312 1.366 . S
C1313 C1314 1.414 . S
C1313 C1316 1.499 . S
C1314 H1288 0.950 . S
C1314 C1313 1.414 . S
C1314 C1315 1.374 . S
C1315 H1289 0.950 . S
C1315 C1311 1.385 . S
C1315 C1314 1.374 . S
C1316 C1313 1.499 . S
C1316 C1317 1.373 . S
C1316 C1318 1.389 . S
C1317 H1290 0.950 . S
C1317 C1303 1.377 . S
C1317 C1316 1.373 . S
C1318 C1302 1.377 . S
C1318 C1316 1.389 . S
C1318 C1319 1.524 . S
C1319 C1318 1.524 . S
C1319 C1320 1.397 . S
C1319 C1324 1.363 . S
C1320 H1291 0.950 . S
C1320 C1319 1.397 . S
C1320 C1321 1.334 . S
C1321 H1292 0.950 . S
C1321 C1320 1.334 . S
C1321 C1322 1.287 . S
C1322 C1321 1.287 . S
C1322 C1323 1.524 . S
C1322 H1325 0.999 . S
C1323 H1293 0.950 . S
C1323 C1322 1.524 . S
C1323 C1324 1.415 . S
C1324 H1294 0.950 . S
C1324 C1319 1.363 . S
C1324 C1323 1.415 . S
H1325 C1322 0.999 . S
H1326 C1307 0.913 . S
H1327 C1345 0.951 . S
H1328 C1347 0.951 . S
H1329 C1349 0.950 . S
H1330 C1350 0.950 . S
H1331 C1352 0.950 . S
H1332 C1355 0.950 . S
H1333 C1356 0.950 . S
H1334 C1358 0.950 . S
H1335 C1359 0.950 . S
H1336 C1360 0.951 . S
H1337 C1362 0.951 . S
H1338 C1364 0.950 . S
H1339 C1365 0.950 . S
H1340 C1367 0.950 . S
H1341 C1370 0.950 . S
H1342 C1371 0.950 . S
H1343 C1373 0.950 . S
H1344 C1374 0.950 . S
C1345 H1327 0.951 . S
C1345 C1346 1.366 . S
C1345 C1347 1.388 . S
C1346 C1345 1.366 . S
C1346 C1350 1.385 . S
C1347 H1328 0.951 . S
C1347 C1345 1.388 . S
C1347 C1348 1.366 . S
C1348 C1347 1.366 . S
C1348 C1349 1.414 . S
C1348 C1351 1.499 . S
C1349 H1329 0.950 . S
C1349 C1348 1.414 . S
C1349 C1350 1.374 . S
C1350 H1330 0.950 . S
C1350 C1346 1.385 . S
C1350 C1349 1.374 . S
C1351 C1348 1.499 . S
C1351 C1352 1.373 . S
C1351 C1353 1.389 . S
C1352 H1331 0.950 . S
C1352 C1351 1.373 . S
C1352 C1368 1.377 . S
C1353 C1351 1.389 . S
C1353 C1354 1.524 . S
C1353 C1367 1.377 . S
C1354 C1353 1.524 . S
C1354 C1355 1.397 . S
C1354 C1359 1.363 . S
C1355 H1332 0.950 . S
C1355 C1354 1.397 . S
C1355 C1356 1.334 . S
C1356 H1333 0.950 . S
C1356 C1355 1.334 . S
C1356 C1357 1.287 . S
C1357 C1356 1.287 . S
C1357 C1358 1.524 . S
C1357 H1376 0.913 . S
C1358 H1334 0.950 . S
C1358 C1357 1.524 . S
C1358 C1359 1.415 . S
C1359 H1335 0.950 . S
C1359 C1354 1.363 . S
C1359 C1358 1.415 . S
C1360 H1336 0.951 . S
C1360 C1361 1.366 . S
C1360 C1362 1.388 . S
C1361 C1360 1.366 . S
C1361 C1365 1.385 . S
C1362 H1337 0.951 . S
C1362 C1360 1.388 . S
C1362 C1363 1.366 . S
C1363 C1362 1.366 . S
C1363 C1364 1.414 . S
C1363 C1366 1.499 . S
C1364 H1338 0.950 . S
C1364 C1363 1.414 . S
C1364 C1365 1.374 . S
C1365 H1339 0.950 . S
C1365 C1361 1.385 . S
C1365 C1364 1.374 . S
C1366 C1363 1.499 . S
C1366 C1367 1.373 . S
C1366 C1368 1.389 . S
C1367 H1340 0.950 . S
C1367 C1353 1.377 . S
C1367 C1366 1.373 . S
C1368 C1352 1.377 . S
C1368 C1366 1.389 . S
C1368 C1369 1.524 . S
C1369 C1368 1.524 . S
C1369 C1370 1.397 . S
C1369 C1374 1.363 . S
C1370 H1341 0.950 . S
C1370 C1369 1.397 . S
C1370 C1371 1.334 . S
C1371 H1342 0.950 . S
C1371 C1370 1.334 . S
C1371 C1372 1.299 . S
C1372 C1371 1.299 . S
C1372 C1373 1.523 . S
C1372 H1375 0.986 1_655 S
C1373 H1343 0.950 . S
C1373 C1372 1.523 . S
C1373 C1374 1.415 . S
C1374 H1344 0.950 . S
C1374 C1369 1.363 . S
C1374 C1373 1.415 . S
H1375 C1372 0.986 1_455 S
H1376 C1357 0.913 . S
H1377 C1395 0.951 . S
H1378 C1397 0.951 . S
H1379 C1399 0.950 . S
H1380 C1400 0.950 . S
H1381 C1402 0.950 . S
H1382 C1405 0.950 . S
H1383 C1406 0.950 . S
H1384 C1408 0.950 . S
H1385 C1409 0.950 . S
H1386 C1410 0.951 . S
H1387 C1412 0.951 . S
H1388 C1414 0.950 . S
H1389 C1415 0.950 . S
H1390 C1417 0.950 . S
H1391 C1420 0.950 . S
H1392 C1421 0.950 . S
H1393 C1423 0.950 . S
H1394 C1424 0.950 . S
C1395 H1377 0.951 . S
C1395 C1396 1.366 . S
C1395 C1397 1.388 . S
C1396 C1395 1.366 . S
C1396 C1400 1.385 . S
C1397 H1378 0.951 . S
C1397 C1395 1.388 . S
C1397 C1398 1.366 . S
C1398 C1397 1.366 . S
C1398 C1399 1.414 . S
C1398 C1401 1.499 . S
C1399 H1379 0.950 . S
C1399 C1398 1.414 . S
C1399 C1400 1.374 . S
C1400 H1380 0.950 . S
C1400 C1396 1.385 . S
C1400 C1399 1.374 . S
C1401 C1398 1.499 . S
C1401 C1402 1.373 . S
C1401 C1403 1.389 . S
C1402 H1381 0.950 . S
C1402 C1401 1.373 . S
C1402 C1418 1.377 . S
C1403 C1401 1.389 . S
C1403 C1404 1.524 . S
C1403 C1417 1.377 . S
C1404 C1403 1.524 . S
C1404 C1405 1.397 . S
C1404 C1409 1.363 . S
C1405 H1382 0.950 . S
C1405 C1404 1.397 . S
C1405 C1406 1.334 . S
C1406 H1383 0.950 . S
C1406 C1405 1.334 . S
C1406 C1407 1.287 . S
C1407 C1406 1.287 . S
C1407 C1408 1.524 . S
C1407 H1426 0.913 . S
C1408 H1384 0.950 . S
C1408 C1407 1.524 . S
C1408 C1409 1.415 . S
C1409 H1385 0.950 . S
C1409 C1404 1.363 . S
C1409 C1408 1.415 . S
C1410 H1386 0.951 . S
C1410 C1411 1.366 . S
C1410 C1412 1.388 . S
C1411 C1410 1.366 . S
C1411 C1415 1.385 . S
C1412 H1387 0.951 . S
C1412 C1410 1.388 . S
C1412 C1413 1.366 . S
C1413 C1412 1.366 . S
C1413 C1414 1.414 . S
C1413 C1416 1.499 . S
C1414 H1388 0.950 . S
C1414 C1413 1.414 . S
C1414 C1415 1.374 . S
C1415 H1389 0.950 . S
C1415 C1411 1.385 . S
C1415 C1414 1.374 . S
C1416 C1413 1.499 . S
C1416 C1417 1.373 . S
C1416 C1418 1.389 . S
C1417 H1390 0.950 . S
C1417 C1403 1.377 . S
C1417 C1416 1.373 . S
C1418 C1402 1.377 . S
C1418 C1416 1.389 . S
C1418 C1419 1.524 . S
C1419 C1418 1.524 . S
C1419 C1420 1.397 . S
C1419 C1424 1.363 . S
C1420 H1391 0.950 . S
C1420 C1419 1.397 . S
C1420 C1421 1.334 . S
C1421 H1392 0.950 . S
C1421 C1420 1.334 . S
C1421 C1422 1.287 . S
C1422 C1421 1.287 . S
C1422 C1423 1.524 . S
C1422 H1425 0.999 1_655 S
C1423 H1393 0.950 . S
C1423 C1422 1.524 . S
C1423 C1424 1.415 . S
C1424 H1394 0.950 . S
C1424 C1419 1.363 . S
C1424 C1423 1.415 . S
H1425 C1422 0.999 1_455 S
H1426 C1407 0.913 . S
H1427 C1445 0.951 . S
H1428 C1447 0.951 . S
H1429 C1449 0.950 . S
H1430 C1450 0.950 . S
H1431 C1452 0.950 . S
H1432 C1455 0.950 . S
H1433 C1456 0.950 . S
H1434 C1458 0.950 . S
H1435 C1459 0.950 . S
H1436 C1460 0.951 . S
H1437 C1462 0.951 . S
H1438 C1464 0.950 . S
H1439 C1465 0.950 . S
H1440 C1467 0.950 . S
H1441 C1470 0.950 . S
H1442 C1471 0.950 . S
H1443 C1473 0.950 . S
H1444 C1474 0.950 . S
C1445 H1427 0.951 . S
C1445 C1446 1.366 . S
C1445 C1447 1.388 . S
C1446 C1445 1.366 . S
C1446 C1450 1.385 . S
C1447 H1428 0.951 . S
C1447 C1445 1.388 . S
C1447 C1448 1.366 . S
C1448 C1447 1.366 . S
C1448 C1449 1.414 . S
C1448 C1451 1.499 . S
C1449 H1429 0.950 . S
C1449 C1448 1.414 . S
C1449 C1450 1.374 . S
C1450 H1430 0.950 . S
C1450 C1446 1.385 . S
C1450 C1449 1.374 . S
C1451 C1448 1.499 . S
C1451 C1452 1.373 . S
C1451 C1453 1.389 . S
C1452 H1431 0.950 . S
C1452 C1451 1.373 . S
C1452 C1468 1.377 . S
C1453 C1451 1.389 . S
C1453 C1454 1.524 . S
C1453 C1467 1.377 . S
C1454 C1453 1.524 . S
C1454 C1455 1.397 . S
C1454 C1459 1.363 . S
C1455 H1432 0.950 . S
C1455 C1454 1.397 . S
C1455 C1456 1.334 . S
C1456 H1433 0.950 . S
C1456 C1455 1.334 . S
C1456 C1457 1.287 . S
C1457 C1456 1.287 . S
C1457 C1458 1.524 . S
C1457 H1476 0.913 . S
C1458 H1434 0.950 . S
C1458 C1457 1.524 . S
C1458 C1459 1.415 . S
C1459 H1435 0.950 . S
C1459 C1454 1.363 . S
C1459 C1458 1.415 . S
C1460 H1436 0.951 . S
C1460 C1461 1.366 . S
C1460 C1462 1.388 . S
C1461 C1460 1.366 . S
C1461 C1465 1.385 . S
C1462 H1437 0.951 . S
C1462 C1460 1.388 . S
C1462 C1463 1.366 . S
C1463 C1462 1.366 . S
C1463 C1464 1.414 . S
C1463 C1466 1.499 . S
C1464 H1438 0.950 . S
C1464 C1463 1.414 . S
C1464 C1465 1.374 . S
C1465 H1439 0.950 . S
C1465 C1461 1.385 . S
C1465 C1464 1.374 . S
C1466 C1463 1.499 . S
C1466 C1467 1.373 . S
C1466 C1468 1.389 . S
C1467 H1440 0.950 . S
C1467 C1453 1.377 . S
C1467 C1466 1.373 . S
C1468 C1452 1.377 . S
C1468 C1466 1.389 . S
C1468 C1469 1.524 . S
C1469 C1468 1.524 . S
C1469 C1470 1.397 . S
C1469 C1474 1.363 . S
C1470 H1441 0.950 . S
C1470 C1469 1.397 . S
C1470 C1471 1.334 . S
C1471 H1442 0.950 . S
C1471 C1470 1.334 . S
C1471 C1472 1.287 . S
C1472 C1471 1.287 . S
C1472 C1473 1.524 . S
C1472 H1475 0.999 1_565 S
C1473 H1443 0.950 . S
C1473 C1472 1.524 . S
C1473 C1474 1.415 . S
C1474 H1444 0.950 . S
C1474 C1469 1.363 . S
C1474 C1473 1.415 . S
H1475 C1472 0.999 1_545 S
H1476 C1457 0.913 . S
H1477 C1495 0.951 . S
H1478 C1497 0.951 . S
H1479 C1499 0.950 . S
H1480 C1500 0.950 . S
H1481 C1502 0.950 . S
H1482 C1505 0.950 . S
H1483 C1506 0.950 . S
H1484 C1508 0.950 . S
H1485 C1509 0.950 . S
H1486 C1510 0.951 . S
H1487 C1512 0.951 . S
H1488 C1514 0.950 . S
H1489 C1515 0.950 . S
H1490 C1517 0.950 . S
H1491 C1520 0.950 . S
H1492 C1521 0.950 . S
H1493 C1523 0.950 . S
H1494 C1524 0.950 . S
C1495 H1477 0.951 . S
C1495 C1496 1.366 . S
C1495 C1497 1.388 . S
C1496 C1495 1.366 . S
C1496 C1500 1.385 . S
C1497 H1478 0.951 . S
C1497 C1495 1.388 . S
C1497 C1498 1.366 . S
C1498 C1497 1.366 . S
C1498 C1499 1.414 . S
C1498 C1501 1.499 . S
C1499 H1479 0.950 . S
C1499 C1498 1.414 . S
C1499 C1500 1.374 . S
C1500 H1480 0.950 . S
C1500 C1496 1.385 . S
C1500 C1499 1.374 . S
C1501 C1498 1.499 . S
C1501 C1502 1.373 . S
C1501 C1503 1.389 . S
C1502 H1481 0.950 . S
C1502 C1501 1.373 . S
C1502 C1518 1.377 . S
C1503 C1501 1.389 . S
C1503 C1504 1.524 . S
C1503 C1517 1.377 . S
C1504 C1503 1.524 . S
C1504 C1505 1.397 . S
C1504 C1509 1.363 . S
C1505 H1482 0.950 . S
C1505 C1504 1.397 . S
C1505 C1506 1.334 . S
C1506 H1483 0.950 . S
C1506 C1505 1.334 . S
C1506 C1507 1.287 . S
C1507 C1506 1.287 . S
C1507 C1508 1.524 . S
C1507 H1526 0.913 . S
C1508 H1484 0.950 . S
C1508 C1507 1.524 . S
C1508 C1509 1.415 . S
C1509 H1485 0.950 . S
C1509 C1504 1.363 . S
C1509 C1508 1.415 . S
C1510 H1486 0.951 . S
C1510 C1511 1.366 . S
C1510 C1512 1.388 . S
C1511 C1510 1.366 . S
C1511 C1515 1.385 . S
C1512 H1487 0.951 . S
C1512 C1510 1.388 . S
C1512 C1513 1.366 . S
C1513 C1512 1.366 . S
C1513 C1514 1.414 . S
C1513 C1516 1.499 . S
C1514 H1488 0.950 . S
C1514 C1513 1.414 . S
C1514 C1515 1.374 . S
C1515 H1489 0.950 . S
C1515 C1511 1.385 . S
C1515 C1514 1.374 . S
C1516 C1513 1.499 . S
C1516 C1517 1.373 . S
C1516 C1518 1.389 . S
C1517 H1490 0.950 . S
C1517 C1503 1.377 . S
C1517 C1516 1.373 . S
C1518 C1502 1.377 . S
C1518 C1516 1.389 . S
C1518 C1519 1.524 . S
C1519 C1518 1.524 . S
C1519 C1520 1.397 . S
C1519 C1524 1.363 . S
C1520 H1491 0.950 . S
C1520 C1519 1.397 . S
C1520 C1521 1.334 . S
C1521 H1492 0.950 . S
C1521 C1520 1.334 . S
C1521 C1522 1.287 . S
C1522 C1521 1.287 . S
C1522 C1523 1.524 . S
C1522 H1525 0.999 . S
C1523 H1493 0.950 . S
C1523 C1522 1.524 . S
C1523 C1524 1.415 . S
C1524 H1494 0.950 . S
C1524 C1519 1.363 . S
C1524 C1523 1.415 . S
H1525 C1522 0.999 . S
H1526 C1507 0.913 . S
H1527 C1545 0.951 . S
H1528 C1547 0.951 . S
H1529 C1549 0.950 . S
H1530 C1550 0.950 1_554 S
H1531 C1552 0.950 . S
H1532 C1555 0.950 . S
H1533 C1556 0.950 . S
H1534 C1558 0.950 . S
H1535 C1559 0.950 . S
H1536 C1560 0.951 . S
H1537 C1562 0.951 . S
H1538 C1564 0.950 . S
H1539 C1565 0.950 . S
H1540 C1567 0.950 . S
H1541 C1570 0.950 . S
H1542 C1571 0.950 . S
H1543 C1573 0.950 . S
H1544 C1574 0.950 . S
C1545 H1527 0.951 . S
C1545 C1546 1.366 . S
C1545 C1547 1.388 . S
C1546 C1545 1.366 . S
C1546 C1550 1.385 . S
C1547 H1528 0.951 . S
C1547 C1545 1.388 . S
C1547 C1548 1.366 . S
C1548 C1547 1.366 . S
C1548 C1549 1.414 . S
C1548 C1551 1.499 . S
C1549 H1529 0.950 . S
C1549 C1548 1.414 . S
C1549 C1550 1.374 . S
C1550 H1530 0.950 1_556 S
C1550 C1546 1.385 . S
C1550 C1549 1.374 . S
C1551 C1548 1.499 . S
C1551 C1552 1.373 . S
C1551 C1553 1.389 . S
C1552 H1531 0.950 . S
C1552 C1551 1.373 . S
C1552 C1568 1.377 . S
C1553 C1551 1.389 . S
C1553 C1554 1.524 . S
C1553 C1567 1.377 . S
C1554 C1553 1.524 . S
C1554 C1555 1.397 . S
C1554 C1559 1.363 . S
C1555 H1532 0.950 . S
C1555 C1554 1.397 . S
C1555 C1556 1.334 . S
C1556 H1533 0.950 . S
C1556 C1555 1.334 . S
C1556 C1557 1.287 . S
C1557 C1556 1.287 . S
C1557 C1558 1.524 . S
C1557 H1576 0.913 . S
C1558 H1534 0.950 . S
C1558 C1557 1.524 . S
C1558 C1559 1.415 . S
C1559 H1535 0.950 . S
C1559 C1554 1.363 . S
C1559 C1558 1.415 . S
C1560 H1536 0.951 . S
C1560 C1561 1.366 . S
C1560 C1562 1.388 . S
C1561 C1560 1.366 . S
C1561 C1565 1.385 . S
C1562 H1537 0.951 . S
C1562 C1560 1.388 . S
C1562 C1563 1.366 . S
C1563 C1562 1.366 . S
C1563 C1564 1.414 . S
C1563 C1566 1.499 . S
C1564 H1538 0.950 . S
C1564 C1563 1.414 . S
C1564 C1565 1.374 . S
C1565 H1539 0.950 . S
C1565 C1561 1.385 . S
C1565 C1564 1.374 . S
C1566 C1563 1.499 . S
C1566 C1567 1.373 . S
C1566 C1568 1.389 . S
C1567 H1540 0.950 . S
C1567 C1553 1.377 . S
C1567 C1566 1.373 . S
C1568 C1552 1.377 . S
C1568 C1566 1.389 . S
C1568 C1569 1.524 . S
C1569 C1568 1.524 . S
C1569 C1570 1.397 . S
C1569 C1574 1.363 . S
C1570 H1541 0.950 . S
C1570 C1569 1.397 . S
C1570 C1571 1.334 . S
C1571 H1542 0.950 . S
C1571 C1570 1.334 . S
C1571 C1572 1.287 . S
C1572 C1571 1.287 . S
C1572 C1573 1.524 . S
C1572 H1575 0.999 . S
C1573 H1543 0.950 . S
C1573 C1572 1.524 . S
C1573 C1574 1.415 . S
C1574 H1544 0.950 . S
C1574 C1569 1.363 . S
C1574 C1573 1.415 . S
H1575 C1572 0.999 . S
H1576 C1557 0.913 . S
H1577 C1595 0.951 . S
H1578 C1597 0.951 . S
H1579 C1599 0.950 . S
H1580 C1600 0.950 . S
H1581 C1602 0.950 . S
H1582 C1605 0.950 . S
H1583 C1606 0.950 . S
H1584 C1608 0.950 . S
H1585 C1609 0.950 . S
H1586 C1610 0.951 . S
H1587 C1612 0.951 . S
H1588 C1614 0.950 . S
H1589 C1615 0.950 . S
H1590 C1617 0.950 . S
H1591 C1620 0.950 . S
H1592 C1621 0.950 . S
H1593 C1623 0.950 . S
H1594 C1624 0.950 . S
C1595 H1577 0.951 . S
C1595 C1596 1.366 . S
C1595 C1597 1.388 . S
C1596 C1595 1.366 . S
C1596 C1600 1.385 . S
C1597 H1578 0.951 . S
C1597 C1595 1.388 . S
C1597 C1598 1.366 . S
C1598 C1597 1.366 . S
C1598 C1599 1.414 . S
C1598 C1601 1.499 . S
C1599 H1579 0.950 . S
C1599 C1598 1.414 . S
C1599 C1600 1.374 . S
C1600 H1580 0.950 . S
C1600 C1596 1.385 . S
C1600 C1599 1.374 . S
C1601 C1598 1.499 . S
C1601 C1602 1.373 . S
C1601 C1603 1.389 . S
C1602 H1581 0.950 . S
C1602 C1601 1.373 . S
C1602 C1618 1.377 . S
C1603 C1601 1.389 . S
C1603 C1604 1.524 . S
C1603 C1617 1.377 . S
C1604 C1603 1.524 . S
C1604 C1605 1.397 . S
C1604 C1609 1.363 . S
C1605 H1582 0.950 . S
C1605 C1604 1.397 . S
C1605 C1606 1.334 . S
C1606 H1583 0.950 . S
C1606 C1605 1.334 . S
C1606 C1607 1.287 . S
C1607 C1606 1.287 . S
C1607 C1608 1.524 . S
C1607 H1626 0.913 . S
C1608 H1584 0.950 . S
C1608 C1607 1.524 . S
C1608 C1609 1.415 . S
C1609 H1585 0.950 . S
C1609 C1604 1.363 . S
C1609 C1608 1.415 . S
C1610 H1586 0.951 . S
C1610 C1611 1.366 . S
C1610 C1612 1.388 . S
C1611 C1610 1.366 . S
C1611 C1615 1.385 . S
C1612 H1587 0.951 . S
C1612 C1610 1.388 . S
C1612 C1613 1.366 . S
C1613 C1612 1.366 . S
C1613 C1614 1.414 . S
C1613 C1616 1.499 . S
C1614 H1588 0.950 . S
C1614 C1613 1.414 . S
C1614 C1615 1.374 . S
C1615 H1589 0.950 . S
C1615 C1611 1.385 . S
C1615 C1614 1.374 . S
C1616 C1613 1.499 . S
C1616 C1617 1.373 . S
C1616 C1618 1.389 . S
C1617 H1590 0.950 . S
C1617 C1603 1.377 . S
C1617 C1616 1.373 . S
C1618 C1602 1.377 . S
C1618 C1616 1.389 . S
C1618 C1619 1.524 . S
C1619 C1618 1.524 . S
C1619 C1620 1.397 . S
C1619 C1624 1.363 . S
C1620 H1591 0.950 . S
C1620 C1619 1.397 . S
C1620 C1621 1.334 . S
C1621 H1592 0.950 . S
C1621 C1620 1.334 . S
C1621 C1622 1.287 . S
C1622 C1621 1.287 . S
C1622 C1623 1.524 . S
C1622 H1625 0.999 . S
C1623 H1593 0.950 . S
C1623 C1622 1.524 . S
C1623 C1624 1.415 . S
C1624 H1594 0.950 . S
C1624 C1619 1.363 . S
C1624 C1623 1.415 . S
H1625 C1622 0.999 . S
H1626 C1607 0.913 . S
H1627 C1645 0.951 . S
H1628 C1647 0.951 . S
H1629 C1649 0.950 . S
H1630 C1650 0.950 . S
H1631 C1652 0.950 . S
H1632 C1655 0.950 . S
H1633 C1656 0.950 . S
H1634 C1658 0.950 . S
H1635 C1659 0.950 . S
H1636 C1660 0.951 . S
H1637 C1662 0.951 . S
H1638 C1664 0.950 . S
H1639 C1665 0.950 . S
H1640 C1667 0.950 . S
H1641 C1670 0.950 . S
H1642 C1671 0.950 . S
H1643 C1673 0.950 . S
H1644 C1674 0.950 . S
C1645 H1627 0.951 . S
C1645 C1646 1.366 . S
C1645 C1647 1.388 . S
C1646 C1645 1.366 . S
C1646 C1650 1.385 . S
C1647 H1628 0.951 . S
C1647 C1645 1.388 . S
C1647 C1648 1.366 . S
C1648 C1647 1.366 . S
C1648 C1649 1.414 . S
C1648 C1651 1.499 . S
C1649 H1629 0.950 . S
C1649 C1648 1.414 . S
C1649 C1650 1.374 . S
C1650 H1630 0.950 . S
C1650 C1646 1.385 . S
C1650 C1649 1.374 . S
C1651 C1648 1.499 . S
C1651 C1652 1.373 . S
C1651 C1653 1.389 . S
C1652 H1631 0.950 . S
C1652 C1651 1.373 . S
C1652 C1668 1.377 . S
C1653 C1651 1.389 . S
C1653 C1654 1.524 . S
C1653 C1667 1.377 . S
C1654 C1653 1.524 . S
C1654 C1655 1.397 . S
C1654 C1659 1.363 . S
C1655 H1632 0.950 . S
C1655 C1654 1.397 . S
C1655 C1656 1.334 . S
C1656 H1633 0.950 . S
C1656 C1655 1.334 . S
C1656 C1657 1.287 . S
C1657 C1656 1.287 . S
C1657 C1658 1.524 . S
C1657 H1676 0.913 . S
C1658 H1634 0.950 . S
C1658 C1657 1.524 . S
C1658 C1659 1.415 . S
C1659 H1635 0.950 . S
C1659 C1654 1.363 . S
C1659 C1658 1.415 . S
C1660 H1636 0.951 . S
C1660 C1661 1.366 . S
C1660 C1662 1.388 . S
C1661 C1660 1.366 . S
C1661 C1665 1.385 . S
C1662 H1637 0.951 . S
C1662 C1660 1.388 . S
C1662 C1663 1.366 . S
C1663 C1662 1.366 . S
C1663 C1664 1.414 . S
C1663 C1666 1.499 . S
C1664 H1638 0.950 . S
C1664 C1663 1.414 . S
C1664 C1665 1.374 . S
C1665 H1639 0.950 . S
C1665 C1661 1.385 . S
C1665 C1664 1.374 . S
C1666 C1663 1.499 . S
C1666 C1667 1.373 . S
C1666 C1668 1.389 . S
C1667 H1640 0.950 . S
C1667 C1653 1.377 . S
C1667 C1666 1.373 . S
C1668 C1652 1.377 . S
C1668 C1666 1.389 . S
C1668 C1669 1.524 . S
C1669 C1668 1.524 . S
C1669 C1670 1.397 . S
C1669 C1674 1.363 . S
C1670 H1641 0.950 . S
C1670 C1669 1.397 . S
C1670 C1671 1.334 . S
C1671 H1642 0.950 . S
C1671 C1670 1.334 . S
C1671 C1672 1.287 . S
C1672 C1671 1.287 . S
C1672 C1673 1.524 . S
C1672 H1675 0.999 . S
C1673 H1643 0.950 . S
C1673 C1672 1.524 . S
C1673 C1674 1.415 . S
C1674 H1644 0.950 . S
C1674 C1669 1.363 . S
C1674 C1673 1.415 . S
H1675 C1672 0.999 . S
H1676 C1657 0.913 . S
H1677 C1695 0.951 . S
H1678 C1697 0.951 . S
H1679 C1699 0.950 . S
H1680 C1700 0.950 . S
H1681 C1702 0.950 . S
H1682 C1705 0.950 . S
H1683 C1706 0.950 . S
H1684 C1708 0.950 . S
H1685 C1709 0.950 . S
H1686 C1710 0.951 . S
H1687 C1712 0.951 . S
H1688 C1714 0.950 . S
H1689 C1715 0.950 . S
H1690 C1717 0.950 . S
H1691 C1720 0.950 . S
H1692 C1721 0.950 . S
H1693 C1723 0.950 . S
H1694 C1724 0.950 . S
C1695 H1677 0.951 . S
C1695 C1696 1.366 . S
C1695 C1697 1.388 . S
C1696 C1695 1.366 . S
C1696 C1700 1.385 . S
C1697 H1678 0.951 . S
C1697 C1695 1.388 . S
C1697 C1698 1.366 . S
C1698 C1697 1.366 . S
C1698 C1699 1.414 . S
C1698 C1701 1.499 . S
C1699 H1679 0.950 . S
C1699 C1698 1.414 . S
C1699 C1700 1.374 . S
C1700 H1680 0.950 . S
C1700 C1696 1.385 . S
C1700 C1699 1.374 . S
C1701 C1698 1.499 . S
C1701 C1702 1.373 . S
C1701 C1703 1.389 . S
C1702 H1681 0.950 . S
C1702 C1701 1.373 . S
C1702 C1718 1.377 . S
C1703 C1701 1.389 . S
C1703 C1704 1.524 . S
C1703 C1717 1.377 . S
C1704 C1703 1.524 . S
C1704 C1705 1.397 . S
C1704 C1709 1.363 . S
C1705 H1682 0.950 . S
C1705 C1704 1.397 . S
C1705 C1706 1.334 . S
C1706 H1683 0.950 . S
C1706 C1705 1.334 . S
C1706 C1707 1.287 . S
C1707 C1706 1.287 . S
C1707 C1708 1.524 . S
C1707 H1726 0.913 . S
C1708 H1684 0.950 . S
C1708 C1707 1.524 . S
C1708 C1709 1.415 . S
C1709 H1685 0.950 . S
C1709 C1704 1.363 . S
C1709 C1708 1.415 . S
C1710 H1686 0.951 . S
C1710 C1711 1.366 . S
C1710 C1712 1.388 . S
C1711 C1710 1.366 . S
C1711 C1715 1.385 . S
C1712 H1687 0.951 . S
C1712 C1710 1.388 . S
C1712 C1713 1.366 . S
C1713 C1712 1.366 . S
C1713 C1714 1.414 . S
C1713 C1716 1.499 . S
C1714 H1688 0.950 . S
C1714 C1713 1.414 . S
C1714 C1715 1.374 . S
C1715 H1689 0.950 . S
C1715 C1711 1.385 . S
C1715 C1714 1.374 . S
C1716 C1713 1.499 . S
C1716 C1717 1.373 . S
C1716 C1718 1.389 . S
C1717 H1690 0.950 . S
C1717 C1703 1.377 . S
C1717 C1716 1.373 . S
C1718 C1702 1.377 . S
C1718 C1716 1.389 . S
C1718 C1719 1.524 . S
C1719 C1718 1.524 . S
C1719 C1720 1.397 . S
C1719 C1724 1.363 . S
C1720 H1691 0.950 . S
C1720 C1719 1.397 . S
C1720 C1721 1.334 . S
C1721 H1692 0.950 . S
C1721 C1720 1.334 . S
C1721 C1722 1.287 . S
C1722 C1721 1.287 . S
C1722 C1723 1.524 . S
C1722 H1725 0.999 . S
C1723 H1693 0.950 . S
C1723 C1722 1.524 . S
C1723 C1724 1.415 . S
C1724 H1694 0.950 . S
C1724 C1719 1.363 . S
C1724 C1723 1.415 . S
H1725 C1722 0.999 . S
H1726 C1707 0.913 . S
H1727 C1745 0.951 . S
H1728 C1747 0.951 . S
H1729 C1749 0.950 . S
H1730 C1750 0.950 . S
H1731 C1752 0.950 . S
H1732 C1755 0.950 . S
H1733 C1756 0.950 . S
H1734 C1758 0.950 . S
H1735 C1759 0.950 . S
H1736 C1760 0.951 . S
H1737 C1762 0.951 . S
H1738 C1764 0.950 . S
H1739 C1765 0.950 . S
H1740 C1767 0.950 . S
H1741 C1770 0.950 . S
H1742 C1771 0.950 . S
H1743 C1773 0.950 . S
H1744 C1774 0.950 . S
C1745 H1727 0.951 . S
C1745 C1746 1.366 . S
C1745 C1747 1.388 . S
C1746 C1745 1.366 . S
C1746 C1750 1.385 . S
C1747 H1728 0.951 . S
C1747 C1745 1.388 . S
C1747 C1748 1.366 . S
C1748 C1747 1.366 . S
C1748 C1749 1.414 . S
C1748 C1751 1.499 . S
C1749 H1729 0.950 . S
C1749 C1748 1.414 . S
C1749 C1750 1.374 . S
C1750 H1730 0.950 . S
C1750 C1746 1.385 . S
C1750 C1749 1.374 . S
C1751 C1748 1.499 . S
C1751 C1752 1.373 . S
C1751 C1753 1.389 . S
C1752 H1731 0.950 . S
C1752 C1751 1.373 . S
C1752 C1768 1.377 . S
C1753 C1751 1.389 . S
C1753 C1754 1.524 . S
C1753 C1767 1.377 . S
C1754 C1753 1.524 . S
C1754 C1755 1.397 . S
C1754 C1759 1.363 . S
C1755 H1732 0.950 . S
C1755 C1754 1.397 . S
C1755 C1756 1.334 . S
C1756 H1733 0.950 . S
C1756 C1755 1.334 . S
C1756 C1757 1.287 . S
C1757 C1756 1.287 . S
C1757 C1758 1.524 . S
C1757 H1776 0.913 . S
C1758 H1734 0.950 . S
C1758 C1757 1.524 . S
C1758 C1759 1.415 . S
C1759 H1735 0.950 . S
C1759 C1754 1.363 . S
C1759 C1758 1.415 . S
C1760 H1736 0.951 . S
C1760 C1761 1.366 . S
C1760 C1762 1.388 . S
C1761 C1760 1.366 . S
C1761 C1765 1.385 . S
C1762 H1737 0.951 . S
C1762 C1760 1.388 . S
C1762 C1763 1.366 . S
C1763 C1762 1.366 . S
C1763 C1764 1.414 . S
C1763 C1766 1.499 . S
C1764 H1738 0.950 . S
C1764 C1763 1.414 . S
C1764 C1765 1.374 . S
C1765 H1739 0.950 . S
C1765 C1761 1.385 . S
C1765 C1764 1.374 . S
C1766 C1763 1.499 . S
C1766 C1767 1.373 . S
C1766 C1768 1.389 . S
C1767 H1740 0.950 . S
C1767 C1753 1.377 . S
C1767 C1766 1.373 . S
C1768 C1752 1.377 . S
C1768 C1766 1.389 . S
C1768 C1769 1.524 . S
C1769 C1768 1.524 . S
C1769 C1770 1.397 . S
C1769 C1774 1.363 . S
C1770 H1741 0.950 . S
C1770 C1769 1.397 . S
C1770 C1771 1.334 . S
C1771 H1742 0.950 . S
C1771 C1770 1.334 . S
C1771 C1772 1.287 . S
C1772 C1771 1.287 . S
C1772 C1773 1.524 . S
C1772 H1775 0.999 . S
C1773 H1743 0.950 . S
C1773 C1772 1.524 . S
C1773 C1774 1.415 . S
C1774 H1744 0.950 . S
C1774 C1769 1.363 . S
C1774 C1773 1.415 . S
H1775 C1772 0.999 . S
H1776 C1757 0.913 . S
H1777 C1795 0.951 . S
H1778 C1797 0.951 . S
H1779 C1799 0.950 . S
H1780 C1800 0.950 . S
H1781 C1802 0.950 . S
H1782 C1805 0.950 . S
H1783 C1806 0.950 . S
H1784 C1808 0.950 . S
H1785 C1809 0.950 . S
H1786 C1810 0.951 . S
H1787 C1812 0.951 . S
H1788 C1814 0.950 . S
H1789 C1815 0.950 . S
H1790 C1817 0.950 . S
H1791 C1820 0.950 . S
H1792 C1821 0.970 . S
H1793 C1823 0.950 1_455 S
H1794 C1824 0.950 . S
C1795 H1777 0.951 . S
C1795 C1796 1.366 . S
C1795 C1797 1.388 . S
C1796 C1795 1.366 . S
C1796 C1800 1.385 . S
C1797 H1778 0.951 . S
C1797 C1795 1.388 . S
C1797 C1798 1.366 . S
C1798 C1797 1.366 . S
C1798 C1799 1.414 . S
C1798 C1801 1.499 . S
C1799 H1779 0.950 . S
C1799 C1798 1.414 . S
C1799 C1800 1.374 . S
C1800 H1780 0.950 . S
C1800 C1796 1.385 . S
C1800 C1799 1.374 . S
C1801 C1798 1.499 . S
C1801 C1802 1.373 . S
C1801 C1803 1.389 . S
C1802 H1781 0.950 . S
C1802 C1801 1.373 . S
C1802 C1818 1.377 . S
C1803 C1801 1.389 . S
C1803 C1804 1.524 . S
C1803 C1817 1.377 . S
C1804 C1803 1.524 . S
C1804 C1805 1.397 . S
C1804 C1809 1.363 . S
C1805 H1782 0.950 . S
C1805 C1804 1.397 . S
C1805 C1806 1.334 . S
C1806 H1783 0.950 . S
C1806 C1805 1.334 . S
C1806 C1807 1.287 . S
C1807 C1806 1.287 . S
C1807 C1808 1.524 . S
C1807 H1826 0.913 . S
C1808 H1784 0.950 . S
C1808 C1807 1.524 . S
C1808 C1809 1.415 . S
C1809 H1785 0.950 . S
C1809 C1804 1.363 . S
C1809 C1808 1.415 . S
C1810 H1786 0.951 . S
C1810 C1811 1.366 . S
C1810 C1812 1.388 . S
C1811 C1810 1.366 . S
C1811 C1815 1.385 . S
C1812 H1787 0.951 . S
C1812 C1810 1.388 . S
C1812 C1813 1.366 . S
C1813 C1812 1.366 . S
C1813 C1814 1.414 . S
C1813 C1816 1.499 . S
C1814 H1788 0.950 . S
C1814 C1813 1.414 . S
C1814 C1815 1.374 . S
C1815 H1789 0.950 . S
C1815 C1811 1.385 . S
C1815 C1814 1.374 . S
C1816 C1813 1.499 . S
C1816 C1817 1.373 . S
C1816 C1818 1.389 . S
C1817 H1790 0.950 . S
C1817 C1803 1.377 . S
C1817 C1816 1.373 . S
C1818 C1802 1.377 . S
C1818 C1816 1.389 . S
C1818 C1819 1.524 . S
C1819 C1818 1.524 . S
C1819 C1820 1.397 . S
C1819 C1824 1.363 . S
C1820 H1791 0.950 . S
C1820 C1819 1.397 . S
C1820 C1821 1.334 . S
C1821 H1792 0.970 . S
C1821 C1820 1.334 . S
C1821 C1822 1.287 1_655 S
C1822 C1821 1.287 1_455 S
C1822 C1823 1.524 1_455 S
C1822 H1825 0.999 . S
C1823 H1793 0.950 1_655 S
C1823 C1822 1.524 1_655 S
C1823 C1824 1.415 . S
C1824 H1794 0.950 . S
C1824 C1819 1.363 . S
C1824 C1823 1.415 . S
H1825 C1822 0.999 . S
H1826 C1807 0.913 . S
H1827 C1845 0.951 . S
H1828 C1847 0.951 . S
H1829 C1849 0.950 . S
H1830 C1850 0.950 . S
H1831 C1852 0.950 . S
H1832 C1855 0.950 . S
H1833 C1856 0.950 . S
H1834 C1858 0.950 . S
H1835 C1859 0.950 . S
H1836 C1860 0.951 . S
H1837 C1862 0.951 . S
H1838 C1864 0.950 . S
H1839 C1865 0.950 . S
H1840 C1867 0.950 . S
H1841 C1870 0.950 . S
H1842 C1871 0.950 . S
H1843 C1873 0.950 . S
H1844 C1874 0.950 . S
C1845 H1827 0.951 . S
C1845 C1846 1.366 . S
C1845 C1847 1.388 . S
C1846 C1845 1.366 . S
C1846 C1850 1.385 . S
C1847 H1828 0.951 . S
C1847 C1845 1.388 . S
C1847 C1848 1.366 . S
C1848 C1847 1.366 . S
C1848 C1849 1.414 . S
C1848 C1851 1.499 . S
C1849 H1829 0.950 . S
C1849 C1848 1.414 . S
C1849 C1850 1.374 . S
C1850 H1830 0.950 . S
C1850 C1846 1.385 . S
C1850 C1849 1.374 . S
C1851 C1848 1.499 . S
C1851 C1852 1.373 . S
C1851 C1853 1.389 . S
C1852 H1831 0.950 . S
C1852 C1851 1.373 . S
C1852 C1868 1.377 . S
C1853 C1851 1.389 . S
C1853 C1854 1.524 . S
C1853 C1867 1.377 . S
C1854 C1853 1.524 . S
C1854 C1855 1.397 . S
C1854 C1859 1.363 . S
C1855 H1832 0.950 . S
C1855 C1854 1.397 . S
C1855 C1856 1.334 . S
C1856 H1833 0.950 . S
C1856 C1855 1.334 . S
C1856 C1857 1.287 . S
C1857 C1856 1.287 . S
C1857 C1858 1.524 . S
C1857 H1876 0.913 . S
C1858 H1834 0.950 . S
C1858 C1857 1.524 . S
C1858 C1859 1.415 . S
C1859 H1835 0.950 . S
C1859 C1854 1.363 . S
C1859 C1858 1.415 . S
C1860 H1836 0.951 . S
C1860 C1861 1.366 . S
C1860 C1862 1.388 . S
C1861 C1860 1.366 . S
C1861 C1865 1.385 . S
C1862 H1837 0.951 . S
C1862 C1860 1.388 . S
C1862 C1863 1.366 . S
C1863 C1862 1.366 . S
C1863 C1864 1.414 . S
C1863 C1866 1.499 . S
C1864 H1838 0.950 . S
C1864 C1863 1.414 . S
C1864 C1865 1.374 . S
C1865 H1839 0.950 . S
C1865 C1861 1.385 . S
C1865 C1864 1.374 . S
C1866 C1863 1.499 . S
C1866 C1867 1.373 . S
C1866 C1868 1.389 . S
C1867 H1840 0.950 . S
C1867 C1853 1.377 . S
C1867 C1866 1.373 . S
C1868 C1852 1.377 . S
C1868 C1866 1.389 . S
C1868 C1869 1.524 . S
C1869 C1868 1.524 . S
C1869 C1870 1.397 . S
C1869 C1874 1.363 . S
C1870 H1841 0.950 . S
C1870 C1869 1.397 . S
C1870 C1871 1.334 . S
C1871 H1842 0.950 . S
C1871 C1870 1.334 . S
C1871 C1872 1.287 . S
C1872 C1871 1.287 . S
C1872 C1873 1.524 . S
C1872 H1875 0.999 . S
C1873 H1843 0.950 . S
C1873 C1872 1.524 . S
C1873 C1874 1.415 . S
C1874 H1844 0.950 . S
C1874 C1869 1.363 . S
C1874 C1873 1.415 . S
H1875 C1872 0.999 . S
H1876 C1857 0.913 . S
H1877 C1895 0.951 . S
H1878 C1897 0.951 . S
H1879 C1899 0.950 . S
H1880 C1900 0.950 . S
H1881 C1902 0.950 . S
H1882 C1905 0.950 . S
H1883 C1906 0.950 . S
H1884 C1908 0.950 . S
H1885 C1909 0.950 . S
H1886 C1910 0.951 . S
H1887 C1912 0.951 . S
H1888 C1914 0.950 . S
H1889 C1915 0.950 . S
H1890 C1917 0.950 . S
H1891 C1920 0.950 . S
H1892 C1921 0.950 . S
H1893 C1923 0.950 . S
H1894 C1924 0.950 . S
C1895 H1877 0.951 . S
C1895 C1896 1.366 . S
C1895 C1897 1.388 . S
C1896 C1895 1.366 . S
C1896 C1900 1.385 . S
C1897 H1878 0.951 . S
C1897 C1895 1.388 . S
C1897 C1898 1.366 . S
C1898 C1897 1.366 . S
C1898 C1899 1.414 . S
C1898 C1901 1.499 . S
C1899 H1879 0.950 . S
C1899 C1898 1.414 . S
C1899 C1900 1.374 . S
C1900 H1880 0.950 . S
C1900 C1896 1.385 . S
C1900 C1899 1.374 . S
C1901 C1898 1.499 . S
C1901 C1902 1.373 . S
C1901 C1903 1.389 . S
C1902 H1881 0.950 . S
C1902 C1901 1.373 . S
C1902 C1918 1.377 . S
C1903 C1901 1.389 . S
C1903 C1904 1.524 . S
C1903 C1917 1.377 . S
C1904 C1903 1.524 . S
C1904 C1905 1.397 . S
C1904 C1909 1.363 . S
C1905 H1882 0.950 . S
C1905 C1904 1.397 . S
C1905 C1906 1.334 . S
C1906 H1883 0.950 . S
C1906 C1905 1.334 . S
C1906 C1907 1.287 . S
C1907 C1906 1.287 . S
C1907 C1908 1.524 . S
C1907 H1926 0.913 . S
C1908 H1884 0.950 . S
C1908 C1907 1.524 . S
C1908 C1909 1.415 . S
C1909 H1885 0.950 . S
C1909 C1904 1.363 . S
C1909 C1908 1.415 . S
C1910 H1886 0.951 . S
C1910 C1911 1.366 . S
C1910 C1912 1.388 . S
C1911 C1910 1.366 . S
C1911 C1915 1.385 . S
C1912 H1887 0.951 . S
C1912 C1910 1.388 . S
C1912 C1913 1.366 . S
C1913 C1912 1.366 . S
C1913 C1914 1.414 . S
C1913 C1916 1.499 . S
C1914 H1888 0.950 . S
C1914 C1913 1.414 . S
C1914 C1915 1.374 . S
C1915 H1889 0.950 . S
C1915 C1911 1.385 . S
C1915 C1914 1.374 . S
C1916 C1913 1.499 . S
C1916 C1917 1.373 . S
C1916 C1918 1.389 . S
C1917 H1890 0.950 . S
C1917 C1903 1.377 . S
C1917 C1916 1.373 . S
C1918 C1902 1.377 . S
C1918 C1916 1.389 . S
C1918 C1919 1.524 . S
C1919 C1918 1.524 . S
C1919 C1920 1.397 . S
C1919 C1924 1.363 . S
C1920 H1891 0.950 . S
C1920 C1919 1.397 . S
C1920 C1921 1.334 . S
C1921 H1892 0.950 . S
C1921 C1920 1.334 . S
C1921 C1922 1.287 . S
C1922 C1921 1.287 . S
C1922 C1923 1.524 . S
C1922 H1925 0.999 . S
C1923 H1893 0.950 . S
C1923 C1922 1.524 . S
C1923 C1924 1.415 . S
C1924 H1894 0.950 . S
C1924 C1919 1.363 . S
C1924 C1923 1.415 . S
H1925 C1922 0.999 . S
H1926 C1907 0.913 . S
H1927 C1945 0.951 . S
H1928 C1947 0.951 . S
H1929 C1949 0.950 . S
H1930 C1950 0.950 . S
H1931 C1952 0.950 . S
H1932 C1955 0.950 . S
H1933 C1956 0.950 . S
H1934 C1958 0.950 . S
H1935 C1959 0.950 . S
H1936 C1960 0.951 . S
H1937 C1962 0.951 . S
H1938 C1964 0.950 . S
H1939 C1965 0.950 . S
H1940 C1967 0.950 . S
H1941 C1970 0.950 . S
H1942 C1971 0.950 . S
H1943 C1973 0.950 . S
H1944 C1974 0.950 . S
C1945 H1927 0.951 . S
C1945 C1946 1.366 . S
C1945 C1947 1.388 . S
C1946 C1945 1.366 . S
C1946 C1950 1.385 . S
C1947 H1928 0.951 . S
C1947 C1945 1.388 . S
C1947 C1948 1.366 . S
C1948 C1947 1.366 . S
C1948 C1949 1.414 . S
C1948 C1951 1.499 . S
C1949 H1929 0.950 . S
C1949 C1948 1.414 . S
C1949 C1950 1.374 . S
C1950 H1930 0.950 . S
C1950 C1946 1.385 . S
C1950 C1949 1.374 . S
C1951 C1948 1.499 . S
C1951 C1952 1.373 . S
C1951 C1953 1.389 . S
C1952 H1931 0.950 . S
C1952 C1951 1.373 . S
C1952 C1968 1.377 . S
C1953 C1951 1.389 . S
C1953 C1954 1.524 . S
C1953 C1967 1.377 . S
C1954 C1953 1.524 . S
C1954 C1955 1.397 . S
C1954 C1959 1.363 . S
C1955 H1932 0.950 . S
C1955 C1954 1.397 . S
C1955 C1956 1.334 . S
C1956 H1933 0.950 . S
C1956 C1955 1.334 . S
C1956 C1957 1.287 . S
C1957 C1956 1.287 . S
C1957 C1958 1.524 . S
C1957 H1976 0.913 . S
C1958 H1934 0.950 . S
C1958 C1957 1.524 . S
C1958 C1959 1.415 . S
C1959 H1935 0.950 . S
C1959 C1954 1.363 . S
C1959 C1958 1.415 . S
C1960 H1936 0.951 . S
C1960 C1961 1.366 . S
C1960 C1962 1.388 . S
C1961 C1960 1.366 . S
C1961 C1965 1.385 . S
C1962 H1937 0.951 . S
C1962 C1960 1.388 . S
C1962 C1963 1.366 . S
C1963 C1962 1.366 . S
C1963 C1964 1.414 . S
C1963 C1966 1.499 . S
C1964 H1938 0.950 . S
C1964 C1963 1.414 . S
C1964 C1965 1.374 . S
C1965 H1939 0.950 . S
C1965 C1961 1.385 . S
C1965 C1964 1.374 . S
C1966 C1963 1.499 . S
C1966 C1967 1.373 . S
C1966 C1968 1.389 . S
C1967 H1940 0.950 . S
C1967 C1953 1.377 . S
C1967 C1966 1.373 . S
C1968 C1952 1.377 . S
C1968 C1966 1.389 . S
C1968 C1969 1.524 . S
C1969 C1968 1.524 . S
C1969 C1970 1.397 . S
C1969 C1974 1.363 . S
C1970 H1941 0.950 . S
C1970 C1969 1.397 . S
C1970 C1971 1.334 . S
C1971 H1942 0.950 . S
C1971 C1970 1.334 . S
C1971 C1972 1.287 . S
C1972 C1971 1.287 . S
C1972 C1973 1.524 . S
C1972 H1975 0.999 . S
C1973 H1943 0.950 . S
C1973 C1972 1.524 . S
C1973 C1974 1.415 . S
C1974 H1944 0.950 . S
C1974 C1969 1.363 . S
C1974 C1973 1.415 . S
H1975 C1972 0.999 . S
H1976 C1957 0.913 . S
C796 C11 1.383 . S
C811 C684 1.711 . S
C846 C125 1.224 . S
C861 C716 1.654 . S
C911 C775 2.142 . S
C896 C239 1.581 . S
C961 C704 1.371 . S
C946 C343 1.180 . S
C996 C485 1.214 . S
C1011 C734 1.604 . S
C1061 C756 0.988 . S
C1046 C571 0.918 . S
C1111 C725 1.700 . S
C1096 C257 1.211 . S
C1146 C397 0.778 . S
C1161 C765 1.226 . S
C1211 C714 1.672 . S
C1196 C467 1.255 . S
C1246 C625 1.146 . S
C1261 C744 1.661 . S
C1296 C29 1.591 . S
C1311 C747 2.012 . S
C1361 C686 1.686 . S
C1346 C143 1.241 . S
C1411 C694 1.526 . S
C1396 C371 1.310 . S
C1461 C735 1.399 . S
C1446 C457 1.090 . S
C1511 C748 2.019 . S
C1496 C599 1.787 . S
C1561 C685 1.574 . S
C1546 C55 1.290 . S
C1611 C745 1.545 . S
C1596 C169 1.290 . S
C1646 C283 0.916 . S
C1661 C746 1.095 . S
C1711 C715 1.539 . S
C1696 C581 0.970 . S
C1761 C776 0.884 . S
C1746 C1 0.797 . S
C1811 C703 1.335 . S
C1796 C115 1.043 . S
C1861 C717 1.402 . S
C1846 C229 1.070 . S
C1896 C353 1.237 . S
C1911 C766 2.015 . S
C1946 C511 1.378 . S
C1961 C713 1.696 . S
