# Generated by pormake.
# Topology ctn, (3,4)-cn, num edge types: 1
# Building blocks:
#     Node 0, Type 0, BuildingBlock: VETTIZ_charged_linker_0, # of connection points: 3
#     Node 1, Type 0, BuildingBlock: VETTIZ_charged_linker_0, # of connection points: 3
#     Node 2, Type 0, BuildingBlock: VETTIZ_charged_linker_0, # of connection points: 3
#     Node 3, Type 0, BuildingBlock: VETTIZ_charged_linker_0, # of connection points: 3
#     Node 4, Type 0, BuildingBlock: VETTIZ_charged_linker_0, # of connection points: 3
#     Node 5, Type 0, BuildingBlock: VETTIZ_charged_linker_0, # of connection points: 3
#     Node 6, Type 0, BuildingBlock: VETTIZ_charged_linker_0, # of connection points: 3
#     Node 7, Type 0, BuildingBlock: VETTIZ_charged_linker_0, # of connection points: 3
#     Node 8, Type 0, BuildingBlock: VETTIZ_charged_linker_0, # of connection points: 3
#     Node 9, Type 0, BuildingBlock: VETTIZ_charged_linker_0, # of connection points: 3
#     Node 10, Type 0, BuildingBlock: VETTIZ_charged_linker_0, # of connection points: 3
#     Node 11, Type 0, BuildingBlock: VETTIZ_charged_linker_0, # of connection points: 3
#     Node 12, Type 0, BuildingBlock: VETTIZ_charged_linker_0, # of connection points: 3
#     Node 13, Type 0, BuildingBlock: VETTIZ_charged_linker_0, # of connection points: 3
#     Node 14, Type 0, BuildingBlock: VETTIZ_charged_linker_0, # of connection points: 3
#     Node 15, Type 0, BuildingBlock: VETTIZ_charged_linker_0, # of connection points: 3
#     Node 16, Type 1, BuildingBlock: AZAVOO_clean_sbu_0, # of connection points: 4
#     Node 17, Type 1, BuildingBlock: AZAVOO_clean_sbu_0, # of connection points: 4
#     Node 18, Type 1, BuildingBlock: AZAVOO_clean_sbu_0, # of connection points: 4
#     Node 19, Type 1, BuildingBlock: AZAVOO_clean_sbu_0, # of connection points: 4
#     Node 20, Type 1, BuildingBlock: AZAVOO_clean_sbu_0, # of connection points: 4
#     Node 21, Type 1, BuildingBlock: AZAVOO_clean_sbu_0, # of connection points: 4
#     Node 22, Type 1, BuildingBlock: AZAVOO_clean_sbu_0, # of connection points: 4
#     Node 23, Type 1, BuildingBlock: AZAVOO_clean_sbu_0, # of connection points: 4
#     Node 24, Type 1, BuildingBlock: AZAVOO_clean_sbu_0, # of connection points: 4
#     Node 25, Type 1, BuildingBlock: AZAVOO_clean_sbu_0, # of connection points: 4
#     Node 26, Type 1, BuildingBlock: AZAVOO_clean_sbu_0, # of connection points: 4
#     Node 27, Type 1, BuildingBlock: AZAVOO_clean_sbu_0, # of connection points: 4
#     Edge 28, Type (0, 1), BuildingBlock: EZIPEK_clean_linker_0, # of connection points: 2
#     Edge 29, Type (0, 1), BuildingBlock: EZIPEK_clean_linker_0, # of connection points: 2
#     Edge 30, Type (0, 1), BuildingBlock: EZIPEK_clean_linker_0, # of connection points: 2
#     Edge 31, Type (0, 1), BuildingBlock: EZIPEK_clean_linker_0, # of connection points: 2
#     Edge 32, Type (0, 1), BuildingBlock: EZIPEK_clean_linker_0, # of connection points: 2
#     Edge 33, Type (0, 1), BuildingBlock: EZIPEK_clean_linker_0, # of connection points: 2
#     Edge 34, Type (0, 1), BuildingBlock: EZIPEK_clean_linker_0, # of connection points: 2
#     Edge 35, Type (0, 1), BuildingBlock: EZIPEK_clean_linker_0, # of connection points: 2
#     Edge 36, Type (0, 1), BuildingBlock: EZIPEK_clean_linker_0, # of connection points: 2
#     Edge 37, Type (0, 1), BuildingBlock: EZIPEK_clean_linker_0, # of connection points: 2
#     Edge 38, Type (0, 1), BuildingBlock: EZIPEK_clean_linker_0, # of connection points: 2
#     Edge 39, Type (0, 1), BuildingBlock: EZIPEK_clean_linker_0, # of connection points: 2
#     Edge 40, Type (0, 1), BuildingBlock: EZIPEK_clean_linker_0, # of connection points: 2
#     Edge 41, Type (0, 1), BuildingBlock: EZIPEK_clean_linker_0, # of connection points: 2
#     Edge 42, Type (0, 1), BuildingBlock: EZIPEK_clean_linker_0, # of connection points: 2
#     Edge 43, Type (0, 1), BuildingBlock: EZIPEK_clean_linker_0, # of connection points: 2
#     Edge 44, Type (0, 1), BuildingBlock: EZIPEK_clean_linker_0, # of connection points: 2
#     Edge 45, Type (0, 1), BuildingBlock: EZIPEK_clean_linker_0, # of connection points: 2
#     Edge 46, Type (0, 1), BuildingBlock: EZIPEK_clean_linker_0, # of connection points: 2
#     Edge 47, Type (0, 1), BuildingBlock: EZIPEK_clean_linker_0, # of connection points: 2
#     Edge 48, Type (0, 1), BuildingBlock: EZIPEK_clean_linker_0, # of connection points: 2
#     Edge 49, Type (0, 1), BuildingBlock: EZIPEK_clean_linker_0, # of connection points: 2
#     Edge 50, Type (0, 1), BuildingBlock: EZIPEK_clean_linker_0, # of connection points: 2
#     Edge 51, Type (0, 1), BuildingBlock: EZIPEK_clean_linker_0, # of connection points: 2
#     Edge 52, Type (0, 1), BuildingBlock: EZIPEK_clean_linker_0, # of connection points: 2
#     Edge 53, Type (0, 1), BuildingBlock: EZIPEK_clean_linker_0, # of connection points: 2
#     Edge 54, Type (0, 1), BuildingBlock: EZIPEK_clean_linker_0, # of connection points: 2
#     Edge 55, Type (0, 1), BuildingBlock: EZIPEK_clean_linker_0, # of connection points: 2
#     Edge 56, Type (0, 1), BuildingBlock: EZIPEK_clean_linker_0, # of connection points: 2
#     Edge 57, Type (0, 1), BuildingBlock: EZIPEK_clean_linker_0, # of connection points: 2
#     Edge 58, Type (0, 1), BuildingBlock: EZIPEK_clean_linker_0, # of connection points: 2
#     Edge 59, Type (0, 1), BuildingBlock: EZIPEK_clean_linker_0, # of connection points: 2
#     Edge 60, Type (0, 1), BuildingBlock: EZIPEK_clean_linker_0, # of connection points: 2
#     Edge 61, Type (0, 1), BuildingBlock: EZIPEK_clean_linker_0, # of connection points: 2
#     Edge 62, Type (0, 1), BuildingBlock: EZIPEK_clean_linker_0, # of connection points: 2
#     Edge 63, Type (0, 1), BuildingBlock: EZIPEK_clean_linker_0, # of connection points: 2
#     Edge 64, Type (0, 1), BuildingBlock: EZIPEK_clean_linker_0, # of connection points: 2
#     Edge 65, Type (0, 1), BuildingBlock: EZIPEK_clean_linker_0, # of connection points: 2
#     Edge 66, Type (0, 1), BuildingBlock: EZIPEK_clean_linker_0, # of connection points: 2
#     Edge 67, Type (0, 1), BuildingBlock: EZIPEK_clean_linker_0, # of connection points: 2
#     Edge 68, Type (0, 1), BuildingBlock: EZIPEK_clean_linker_0, # of connection points: 2
#     Edge 69, Type (0, 1), BuildingBlock: EZIPEK_clean_linker_0, # of connection points: 2
#     Edge 70, Type (0, 1), BuildingBlock: EZIPEK_clean_linker_0, # of connection points: 2
#     Edge 71, Type (0, 1), BuildingBlock: EZIPEK_clean_linker_0, # of connection points: 2
#     Edge 72, Type (0, 1), BuildingBlock: EZIPEK_clean_linker_0, # of connection points: 2
#     Edge 73, Type (0, 1), BuildingBlock: EZIPEK_clean_linker_0, # of connection points: 2
#     Edge 74, Type (0, 1), BuildingBlock: EZIPEK_clean_linker_0, # of connection points: 2
#     Edge 75, Type (0, 1), BuildingBlock: EZIPEK_clean_linker_0, # of connection points: 2
# Relax obj value: 0.002
# Max RMSD: 0.042
# Mean RMSD: 0.024
data_MOF--net-ctn--node1-AZAVOO_clean_sbu_0--node2-VETTIZ_charged_linker_0--edge1-EZIPEK_clean_linker_0
_symmetry_space_group_name_H-M    P1
_symmetry_Int_Tables_number       1
_symmetry_cell_setting            triclinic
loop_
_symmetry_equiv_pos_as_xyz
'x, y, z'
_cell_length_a     51.480497
_cell_length_b     52.336778
_cell_length_c     52.310699
_cell_angle_alpha  90.065673
_cell_angle_beta   92.97634
_cell_angle_gamma 93.222744
loop_
_atom_site_label
_atom_site_type_symbol
_atom_site_fract_x
_atom_site_fract_y
_atom_site_fract_z
_atom_type_partial_charge
C0 C 0.03405 0.0897 0.95593 0.0
C1 C 0.01733 0.10956 0.95926 0.0
C2 C 0.99827 0.10711 0.97752 0.0
C3 C 0.01447 0.06636 0.99078 0.0
C4 C 0.03233 0.06832 0.97192 0.0
C5 C 0.04988 0.0463 0.97236 0.0
H6 H 0.09364 0.94144 0.03233 0.0
C7 C 0.01944 0.04308 0.00575 0.0
C8 C 0.04 0.03111 0.99494 0.0
H9 H 0.12073 0.9768 0.96339 0.0
H10 H 0.08722 0.00741 0.96448 0.0
H11 H 0.08543 0.9937 0.06198 0.0
H12 H 0.03173 0.9437 0.01682 0.0
H13 H 0.01541 0.95373 0.04343 0.0
H14 H 0.04383 0.93527 0.04831 0.0
H15 H 0.07452 0.96256 0.07275 0.0
H16 H 0.05633 0.99031 0.07804 0.0
C17 C 0.07831 0.05722 0.97748 0.0
C18 C 0.04496 0.03131 0.94683 0.0
C19 C 0.97172 0.0264 0.08697 0.0
C20 C 0.97406 0.00805 0.10631 0.0
C21 C 0.99063 0.98787 0.10345 0.0
C22 C 0.00549 0.98652 0.0818 0.0
C23 C 0.00385 0.00567 0.06301 0.0
C24 C 0.98676 0.02487 0.06557 0.0
C25 C 0.98789 0.04389 0.04413 0.0
C26 C 0.00864 0.03311 0.02833 0.0
C27 C 0.01807 0.01085 0.03954 0.0
C28 C 0.99668 0.07044 0.05583 0.0
C29 C 0.96093 0.04284 0.02942 0.0
C30 C 0.0921 0.95577 0.01748 0.0
C31 C 0.10962 0.95701 0.99778 0.0
C32 C 0.1073 0.97573 0.97868 0.0
C33 C 0.0879 0.99342 0.97942 0.0
C34 C 0.07083 0.99244 0.99959 0.0
C35 C 0.07286 0.97361 0.01799 0.0
C36 C 0.05304 0.97552 0.03796 0.0
C37 C 0.0388 0.99862 0.02854 0.0
C38 C 0.0495 0.00857 0.00622 0.0
C39 C 0.06789 0.98063 0.06417 0.0
C40 C 0.03506 0.95076 0.03686 0.0
H41 H 0.98214 0.08497 0.00724 0.0
H42 H 0.04887 0.09137 0.94196 0.0
H43 H 0.02434 0.03212 0.93951 0.0
H44 H 0.04801 0.01067 0.94895 0.0
H45 H 0.05749 0.03938 0.93182 0.0
H46 H 0.07914 0.07321 0.99158 0.0
H47 H 0.0866 0.06476 0.95962 0.0
H48 H 0.09136 0.04317 0.98598 0.0
H49 H 0.95915 0.04213 0.08897 0.0
H50 H 0.99258 0.97364 0.11834 0.0
H51 H 0.01816 0.97099 0.08084 0.0
H52 H 0.011 0.06846 0.07229 0.0
H53 H 0.97987 0.08025 0.06293 0.0
H54 H 0.00689 0.08321 0.0424 0.0
H55 H 0.95171 0.02308 0.02928 0.0
H56 H 0.9622 0.04787 0.00899 0.0
H57 H 0.94743 0.05557 0.03841 0.0
H58 H 0.98527 0.12236 0.98018 0.0
C59 C 0.99665 0.08551 0.99324 0.0
C60 C 0.25106 0.64479 0.24565 0.0
C61 C 0.2271 0.64128 0.23171 0.0
C62 C 0.22022 0.65901 0.2127 0.0
C63 C 0.26141 0.68306 0.22123 0.0
C64 C 0.26776 0.66588 0.24027 0.0
C65 C 0.29359 0.67295 0.2539 0.0
H66 H 0.392 0.76106 0.27711 0.0
C67 C 0.2832 0.70258 0.22028 0.0
C68 C 0.30208 0.69687 0.23938 0.0
H69 H 0.37739 0.68851 0.31436 0.0
H70 H 0.34364 0.67736 0.28312 0.0
H71 H 0.33119 0.77728 0.26071 0.0
H72 H 0.38811 0.73507 0.22341 0.0
H73 H 0.36794 0.74793 0.1991 0.0
H74 H 0.38753 0.76915 0.22059 0.0
H75 H 0.36315 0.78979 0.25317 0.0
H76 H 0.33681 0.78902 0.22944 0.0
C77 C 0.28831 0.67878 0.28215 0.0
C78 C 0.31203 0.65091 0.25037 0.0
C79 C 0.27975 0.77131 0.15267 0.0
C80 C 0.29846 0.78928 0.14395 0.0
C81 C 0.32274 0.79277 0.15761 0.0
C82 C 0.32822 0.77833 0.17972 0.0
C83 C 0.30946 0.75987 0.18772 0.0
C84 C 0.28587 0.75641 0.17397 0.0
C85 C 0.26961 0.73382 0.18294 0.0
C86 C 0.28732 0.72414 0.20434 0.0
C87 C 0.3103 0.73987 0.20762 0.0
C88 C 0.24425 0.74374 0.19305 0.0
C89 C 0.26533 0.71431 0.16052 0.0
C90 C 0.38013 0.74388 0.28036 0.0
C91 C 0.384 0.72837 0.30235 0.0
C92 C 0.37206 0.70322 0.30093 0.0
C93 C 0.35265 0.69628 0.28221 0.0
C94 C 0.34568 0.71405 0.26358 0.0
C95 C 0.36046 0.73668 0.26167 0.0
C96 C 0.35268 0.75121 0.23781 0.0
C97 C 0.32884 0.7349 0.22781 0.0
C98 C 0.32492 0.71321 0.24317 0.0
C99 C 0.3456 0.77836 0.24556 0.0
C100 C 0.37518 0.75105 0.21923 0.0
H101 H 0.23109 0.69262 0.19246 0.0
H102 H 0.25657 0.63142 0.26049 0.0
H103 H 0.30629 0.63943 0.23285 0.0
H104 H 0.33234 0.65804 0.24756 0.0
H105 H 0.31182 0.63763 0.26691 0.0
H106 H 0.27179 0.6915 0.28317 0.0
H107 H 0.28309 0.66086 0.29253 0.0
H108 H 0.30485 0.68878 0.29281 0.0
H109 H 0.26117 0.76788 0.14215 0.0
H110 H 0.33753 0.80631 0.1509 0.0
H111 H 0.34698 0.78163 0.18944 0.0
H112 H 0.24815 0.76253 0.20289 0.0
H113 H 0.22952 0.7464 0.17713 0.0
H114 H 0.23558 0.73107 0.20758 0.0
H115 H 0.28242 0.71487 0.1483 0.0
H116 H 0.26331 0.69426 0.16701 0.0
H117 H 0.24797 0.71854 0.14807 0.0
H118 H 0.20168 0.65655 0.20195 0.0
C119 C 0.23731 0.67985 0.20729 0.0
C120 C 0.00067 0.39681 0.99274 0.0
C121 C 0.98733 0.3927 0.96889 0.0
C122 C 0.97019 0.41093 0.95943 0.0
C123 C 0.97817 0.43574 0.99853 0.0
C124 C 0.99608 0.41853 0.00702 0.0
C125 C 0.00943 0.42623 0.03229 0.0
H126 H 0.02326 0.50844 0.13254 0.0
C127 C 0.97713 0.45553 0.01855 0.0
C128 C 0.99569 0.45026 0.03818 0.0
H129 H 0.06953 0.44451 0.1169 0.0
H130 H 0.04261 0.43444 0.07854 0.0
H131 H 0.96729 0.47977 0.1163 0.0
H132 H 0.02003 0.52943 0.07547 0.0
H133 H 0.98829 0.5389 0.06807 0.0
H134 H 0.00119 0.54053 0.10075 0.0
H135 H 0.97 0.51371 0.12159 0.0
H136 H 0.94801 0.49937 0.09692 0.0
C137 C 0.00363 0.40472 0.05185 0.0
C138 C 0.03883 0.43194 0.02813 0.0
C139 C 0.90822 0.5214 0.01099 0.0
C140 C 0.90167 0.54097 0.02742 0.0
C141 C 0.9162 0.54539 0.05067 0.0
C142 C 0.93709 0.53041 0.05761 0.0
C143 C 0.94345 0.51074 0.04114 0.0
C144 C 0.92914 0.50651 0.01825 0.0
C145 C 0.93863 0.4846 0.00333 0.0
C146 C 0.96072 0.47619 0.02121 0.0
C147 C 0.96348 0.49163 0.04327 0.0
C148 C 0.91609 0.46378 0.00024 0.0
C149 C 0.94861 0.49509 0.9777 0.0
C150 C 0.02729 0.49218 0.12084 0.0
C151 C 0.04838 0.47717 0.12745 0.0
C152 C 0.05332 0.45621 0.11195 0.0
C153 C 0.03779 0.45055 0.08968 0.0
C154 C 0.01719 0.46613 0.0828 0.0
C155 C 0.01211 0.48644 0.09835 0.0
C156 C 0.98979 0.50119 0.08764 0.0
C157 C 0.9828 0.48679 0.06277 0.0
C158 C 0.9988 0.46621 0.06019 0.0
C159 C 0.96757 0.49866 0.10654 0.0
C160 C 1.00011 0.52906 0.08281 0.0
H161 H 0.95175 0.44535 0.96631 0.0
H162 H 0.01434 0.38329 0.00015 0.0
H163 H 0.04223 0.43744 0.00798 0.0
H164 H 0.04724 0.44844 0.03963 0.0
H165 H 0.05025 0.41496 0.03256 0.0
H166 H 0.98285 0.39761 0.04971 0.0
H167 H 0.01583 0.38823 0.04891 0.0
H168 H 0.00666 0.41119 0.07192 0.0
H169 H 0.8972 0.51775 0.99303 0.0
H170 H 0.91126 0.56047 0.06346 0.0
H171 H 0.94742 0.53469 0.07557 0.0
H172 H 0.90632 0.46096 0.01859 0.0
H173 H 0.90118 0.46939 0.9855 0.0
H174 H 0.92262 0.44484 0.99511 0.0
H175 H 0.95612 0.51539 0.97968 0.0
H176 H 0.96529 0.48483 0.97121 0.0
H177 H 0.9328 0.49426 0.96239 0.0
H178 H 0.96006 0.40817 0.94088 0.0
C179 C 0.96538 0.43236 0.97423 0.0
C180 C 0.65782 0.81347 0.27094 0.0
C181 C 0.64121 0.79129 0.27197 0.0
C182 C 0.64326 0.77153 0.25407 0.0
C183 C 0.67933 0.79524 0.23554 0.0
C184 C 0.67695 0.81488 0.25282 0.0
C185 C 0.69793 0.83587 0.25062 0.0
H186 H 0.80828 0.88009 0.19603 0.0
C187 C 0.70197 0.80197 0.2202 0.0
C188 C 0.71301 0.82575 0.22892 0.0
H189 H 0.76961 0.91448 0.25752 0.0
H190 H 0.73525 0.88072 0.25446 0.0
H191 H 0.75784 0.8669 0.16086 0.0
H192 H 0.80029 0.82172 0.21547 0.0
H193 H 0.7933 0.80309 0.18767 0.0
H194 H 0.81276 0.83257 0.1857 0.0
H195 H 0.78665 0.85168 0.15269 0.0
H196 H 0.75474 0.83544 0.14899 0.0
C197 C 0.68476 0.86084 0.24313 0.0
C198 C 0.71448 0.83747 0.27626 0.0
C199 C 0.72756 0.74032 0.15198 0.0
C200 C 0.7468 0.74201 0.13391 0.0
C201 C 0.76371 0.76405 0.13322 0.0
C202 C 0.76165 0.78417 0.1505 0.0
C203 C 0.74239 0.78227 0.16858 0.0
C204 C 0.72549 0.7608 0.16885 0.0
C205 C 0.70543 0.76276 0.18854 0.0
C206 C 0.71325 0.78884 0.20017 0.0
C207 C 0.73514 0.79994 0.18868 0.0
C208 C 0.67818 0.76225 0.17439 0.0
C209 C 0.70909 0.74087 0.20812 0.0
C210 C 0.79228 0.88025 0.20869 0.0
C211 C 0.79141 0.89959 0.22708 0.0
C212 C 0.77044 0.89953 0.24329 0.0
C213 C 0.75067 0.87994 0.2415 0.0
C214 C 0.75207 0.86022 0.22339 0.0
C215 C 0.77251 0.86078 0.2072 0.0
C216 C 0.77096 0.83831 0.18921 0.0
C217 C 0.74655 0.82381 0.19762 0.0
C218 C 0.73554 0.83668 0.21762 0.0
C219 C 0.76755 0.84842 0.16144 0.0
C220 C 0.79561 0.82306 0.19452 0.0
H221 H 0.66295 0.75758 0.22289 0.0
H222 H 0.65668 0.82879 0.28472 0.0
H223 H 0.71568 0.81826 0.28521 0.0
H224 H 0.73495 0.84409 0.27388 0.0
H225 H 0.70587 0.85016 0.29018 0.0
H226 H 0.66835 0.85686 0.22873 0.0
H227 H 0.67676 0.86982 0.26006 0.0
H228 H 0.69803 0.87497 0.23402 0.0
H229 H 0.71426 0.72357 0.15268 0.0
H230 H 0.77858 0.76559 0.1193 0.0
H231 H 0.77518 0.8004 0.14913 0.0
H232 H 0.67917 0.77178 0.15542 0.0
H233 H 0.67021 0.7423 0.171 0.0
H234 H 0.66397 0.77293 0.18463 0.0
H235 H 0.73008 0.73726 0.21151 0.0
H236 H 0.70236 0.7454 0.22721 0.0
H237 H 0.69891 0.72274 0.20109 0.0
H238 H 0.63058 0.75432 0.2547 0.0
C239 C 0.66213 0.77344 0.23577 0.0
C240 C 0.03857 0.91272 0.53439 0.0
C241 C 0.01569 0.89672 0.53243 0.0
C242 C 0.99394 0.90469 0.5177 0.0
C243 C 0.01914 0.94226 0.50417 0.0
C244 C 0.03973 0.93555 0.52036 0.0
C245 C 0.06241 0.95501 0.52012 0.0
H246 H 0.11778 0.06273 0.46925 0.0
C247 C 0.02753 0.9655 0.49012 0.0
C248 C 0.05272 0.97336 0.49972 0.0
H249 H 0.14667 0.01962 0.5339 0.0
H250 H 0.10923 0.98938 0.52898 0.0
H251 H 0.0566 0.06014 0.48322 0.0
H252 H 0.10165 0.01589 0.4346 0.0
H253 H 0.06983 0.01312 0.42075 0.0
H254 H 0.08696 0.0442 0.42314 0.0
H255 H 0.07131 0.07189 0.45479 0.0
H256 H 0.03948 0.05582 0.45324 0.0
C257 C 0.06589 0.96782 0.54693 0.0
C258 C 0.08661 0.94146 0.51185 0.0
C259 C 0.97302 0.99364 0.41232 0.0
C260 C 0.97891 0.01033 0.39211 0.0
C261 C 0.00194 0.02622 0.39416 0.0
C262 C 0.0193 0.02491 0.41556 0.0
C263 C 0.01394 0.00709 0.43492 0.0
C264 C 0.99113 0.99179 0.43312 0.0
C265 C 0.9901 0.9721 0.45407 0.0
C266 C 0.016 0.9782 0.46874 0.0
C267 C 0.02965 0.99894 0.45758 0.0
C268 C 0.96666 0.97704 0.47044 0.0
C269 C 0.98886 0.94529 0.44127 0.0
C270 C 0.11591 0.0467 0.48223 0.0
C271 C 0.13485 0.0434 0.50202 0.0
C272 C 0.13211 0.02236 0.51859 0.0
C273 C 0.11036 0.005 0.51577 0.0
C274 C 0.09123 0.00877 0.49615 0.0
C275 C 0.0943 0.02925 0.47969 0.0
C276 C 0.07216 0.03013 0.45986 0.0
C277 C 0.0546 0.00765 0.46801 0.0
C278 C 0.066 0.99502 0.48906 0.0
C279 C 0.05915 0.05587 0.46269 0.0
C280 C 0.08305 0.02578 0.43315 0.0
H281 H 0.97862 0.93205 0.49206 0.0
H282 H 0.05536 0.90717 0.54596 0.0
H283 H 0.08136 0.92865 0.49516 0.0
H284 H 0.1023 0.95492 0.50568 0.0
H285 H 0.09464 0.92958 0.52764 0.0
H286 H 0.04735 0.96687 0.557 0.0
H287 H 0.0806 0.95831 0.55931 0.0
H288 H 0.07146 0.98851 0.54587 0.0
H289 H 0.95551 0.98111 0.41108 0.0
H290 H 0.0068 0.03923 0.3788 0.0
H291 H 0.03658 0.03734 0.41585 0.0
H292 H 0.96298 0.99778 0.47103 0.0
H293 H 0.94857 0.96671 0.46252 0.0
H294 H 0.97011 0.97163 0.49071 0.0
H295 H 0.00244 0.94501 0.42541 0.0
H296 H 0.99483 0.92995 0.45431 0.0
H297 H 0.96893 0.94007 0.43306 0.0
H298 H 0.97607 0.89269 0.51627 0.0
C299 C 0.99556 0.92736 0.50353 0.0
C300 C 0.28304 0.66033 0.77284 0.0
C301 C 0.28027 0.64066 0.75452 0.0
C302 C 0.25727 0.63803 0.73868 0.0
C303 C 0.24135 0.67594 0.75796 0.0
C304 C 0.26337 0.67758 0.77432 0.0
C305 C 0.26331 0.6995 0.79284 0.0
H306 H 0.2036 0.80082 0.83786 0.0
C307 C 0.22582 0.69816 0.76319 0.0
C308 C 0.23865 0.71197 0.7836 0.0
H309 H 0.27035 0.76407 0.87088 0.0
H310 H 0.26994 0.73575 0.83445 0.0
H311 H 0.16962 0.74815 0.81718 0.0
H312 H 0.22152 0.80298 0.78181 0.0
H313 H 0.20229 0.78838 0.75646 0.0
H314 H 0.18709 0.80654 0.7804 0.0
H315 H 0.16514 0.78184 0.81372 0.0
H316 H 0.15547 0.76012 0.78817 0.0
C317 C 0.26135 0.6883 0.82022 0.0
C318 C 0.28789 0.71733 0.78921 0.0
C319 C 0.14387 0.71454 0.70831 0.0
C320 C 0.12993 0.73671 0.70408 0.0
C321 C 0.13711 0.75875 0.71894 0.0
C322 C 0.15712 0.75847 0.73815 0.0
C323 C 0.17084 0.73625 0.74199 0.0
C324 C 0.16489 0.71514 0.72648 0.0
C325 C 0.18499 0.69537 0.72976 0.0
C326 C 0.20302 0.70753 0.75086 0.0
C327 C 0.19402 0.73107 0.75851 0.0
C328 C 0.17137 0.67009 0.73862 0.0
C329 C 0.19869 0.69316 0.70418 0.0
C330 C 0.21809 0.78668 0.83693 0.0
C331 C 0.23684 0.78422 0.85715 0.0
C332 C 0.25568 0.76596 0.85548 0.0
C333 C 0.25523 0.74943 0.83446 0.0
C334 C 0.23561 0.75105 0.81496 0.0
C335 C 0.21768 0.76969 0.8161 0.0
C336 C 0.19823 0.76827 0.7935 0.0
C337 C 0.20636 0.74451 0.77984 0.0
C338 C 0.22843 0.73483 0.79237 0.0
C339 C 0.17055 0.76444 0.80354 0.0
C340 C 0.20229 0.79279 0.7772 0.0
H341 H 0.22083 0.65293 0.72752 0.0
H342 H 0.30039 0.66245 0.78546 0.0
H343 H 0.29115 0.72004 0.7685 0.0
H344 H 0.28629 0.73674 0.79705 0.0
H345 H 0.30553 0.70908 0.79825 0.0
H346 H 0.2536 0.66801 0.81987 0.0
H347 H 0.28071 0.68885 0.83069 0.0
H348 H 0.24759 0.6984 0.83169 0.0
H349 H 0.13935 0.69752 0.69675 0.0
H350 H 0.12718 0.77624 0.71566 0.0
H351 H 0.16154 0.7757 0.74899 0.0
H352 H 0.15785 0.67385 0.75394 0.0
H353 H 0.1598 0.66044 0.7225 0.0
H354 H 0.18521 0.65661 0.74692 0.0
H355 H 0.19886 0.71153 0.69348 0.0
H356 H 0.21945 0.68906 0.70699 0.0
H357 H 0.18861 0.67824 0.69154 0.0
H358 H 0.25478 0.62274 0.72464 0.0
C359 C 0.23778 0.65562 0.74027 0.0
C360 C 0.89164 0.46836 0.49675 0.0
C361 C 0.88445 0.44618 0.4824 0.0
C362 C 0.89964 0.43927 0.46218 0.0
C363 C 0.92919 0.47629 0.47099 0.0
C364 C 0.91409 0.48306 0.49077 0.0
C365 C 0.92476 0.50711 0.50421 0.0
H366 H 0.0154 0.60619 0.51283 0.0
C367 C 0.95132 0.49544 0.46995 0.0
C368 C 0.94888 0.51351 0.48944 0.0
H369 H 0.94771 0.5935 0.55738 0.0
H370 H 0.93704 0.55305 0.53569 0.0
H371 H 0.98755 0.59113 0.4611 0.0
H372 H 0.03303 0.54666 0.51382 0.0
H373 H 0.0415 0.53828 0.48295 0.0
H374 H 0.04732 0.57093 0.49389 0.0
H375 H 0.02244 0.59468 0.4639 0.0
H376 H 0.00564 0.57161 0.44235 0.0
C377 C 0.90433 0.52764 0.50057 0.0
C378 C 0.93176 0.50047 0.5325 0.0
C379 C 0.01763 0.48858 0.40169 0.0
C380 C 0.03977 0.50402 0.39605 0.0
C381 C 0.04728 0.52549 0.41139 0.0
C382 C 0.03279 0.53179 0.43214 0.0
C383 C 0.01044 0.51649 0.4375 0.0
C384 C 0.00324 0.49521 0.42251 0.0
C385 C 0.97884 0.48136 0.43117 0.0
C386 C 0.97253 0.49797 0.45363 0.0
C387 C 0.99112 0.51849 0.45717 0.0
C388 C 0.95772 0.48196 0.409 0.0
C389 C 0.98573 0.45413 0.43976 0.0
C390 C 0.99861 0.59433 0.51812 0.0
C391 C 0.98237 0.60262 0.53676 0.0
C392 C 0.96042 0.58716 0.54307 0.0
C393 C 0.95423 0.56385 0.53034 0.0
C394 C 0.97006 0.55615 0.51095 0.0
C395 C 0.99199 0.57118 0.50535 0.0
C396 C 0.00593 0.56056 0.48353 0.0
C397 C 0.9887 0.53677 0.47683 0.0
C398 C 0.96775 0.53425 0.49294 0.0
C399 C 0.00566 0.58044 0.46153 0.0
C400 C 0.03348 0.55386 0.49383 0.0
H401 H 0.93284 0.44792 0.44082 0.0
H402 H 0.88016 0.47394 0.5124 0.0
H403 H 0.94018 0.48136 0.53393 0.0
H404 H 0.9468 0.51389 0.54158 0.0
H405 H 0.91422 0.49989 0.54403 0.0
H406 H 0.89359 0.5255 0.4816 0.0
H407 H 0.88975 0.52597 0.51549 0.0
H408 H 0.91315 0.54736 0.50063 0.0
H409 H 0.01159 0.47199 0.39001 0.0
H410 H 0.06435 0.5375 0.40715 0.0
H411 H 0.03945 0.54847 0.44303 0.0
H412 H 0.95904 0.50058 0.39876 0.0
H413 H 0.96008 0.46659 0.39479 0.0
H414 H 0.93768 0.48027 0.41561 0.0
H415 H 0.00573 0.45435 0.44896 0.0
H416 H 0.97295 0.44612 0.45442 0.0
H417 H 0.98503 0.44078 0.42319 0.0
H418 H 0.89425 0.42215 0.45103 0.0
C419 C 0.922 0.4542 0.45639 0.0
C420 C 0.78631 0.715 0.84553 0.0
C421 C 0.76766 0.71696 0.86399 0.0
C422 C 0.74923 0.73574 0.86133 0.0
C423 C 0.76958 0.75194 0.82345 0.0
C424 C 0.78706 0.73283 0.82557 0.0
C425 C 0.80683 0.73491 0.80536 0.0
H426 H 0.85843 0.80086 0.70687 0.0
C427 C 0.77687 0.76861 0.80192 0.0
C428 C 0.79873 0.75878 0.79124 0.0
H429 H 0.88107 0.7286 0.73801 0.0
H430 H 0.84774 0.72977 0.76894 0.0
H431 H 0.84749 0.82841 0.76159 0.0
H432 H 0.79885 0.78627 0.70493 0.0
H433 H 0.78041 0.81091 0.71579 0.0
H434 H 0.81017 0.81886 0.70006 0.0
H435 H 0.83923 0.84098 0.7305 0.0
H436 H 0.81857 0.84448 0.75693 0.0
C437 C 0.83423 0.73887 0.81893 0.0
C438 C 0.80315 0.71071 0.78816 0.0
C439 C 0.72721 0.84823 0.7827 0.0
C440 C 0.73095 0.86836 0.76536 0.0
C441 C 0.75086 0.86757 0.748 0.0
C442 C 0.76734 0.84717 0.74826 0.0
C443 C 0.7639 0.8274 0.76615 0.0
C444 C 0.74397 0.82804 0.78284 0.0
C445 C 0.74375 0.80575 0.80096 0.0
C446 C 0.76667 0.79154 0.79225 0.0
C447 C 0.77841 0.80435 0.77191 0.0
C448 C 0.74856 0.81639 0.82861 0.0
C449 C 0.71762 0.78989 0.79617 0.0
C450 C 0.85632 0.78554 0.72065 0.0
C451 C 0.87231 0.7647 0.72031 0.0
C452 C 0.86893 0.74485 0.73817 0.0
C453 C 0.84951 0.74553 0.75594 0.0
C454 C 0.83321 0.76621 0.75572 0.0
C455 C 0.83672 0.78572 0.73821 0.0
C456 C 0.81668 0.80539 0.73979 0.0
C457 C 0.80058 0.79452 0.76115 0.0
C458 C 0.81054 0.77174 0.77061 0.0
C459 C 0.83105 0.8313 0.74742 0.0
C460 C 0.8007 0.80566 0.71383 0.0
H461 H 0.73575 0.76738 0.84038 0.0
H462 H 0.80066 0.70065 0.84733 0.0
H463 H 0.78245 0.70325 0.78691 0.0
H464 H 0.80788 0.71457 0.7681 0.0
H465 H 0.81507 0.69513 0.79582 0.0
H466 H 0.83379 0.7523 0.8354 0.0
H467 H 0.84122 0.72049 0.82644 0.0
H468 H 0.84894 0.74756 0.8065 0.0
H469 H 0.71204 0.8486 0.79628 0.0
H470 H 0.75389 0.88302 0.73452 0.0
H471 H 0.78234 0.84778 0.73475 0.0
H472 H 0.76112 0.83442 0.82891 0.0
H473 H 0.72997 0.82067 0.83713 0.0
H474 H 0.75922 0.80336 0.84143 0.0
H475 H 0.71186 0.78904 0.77537 0.0
H476 H 0.7187 0.76972 0.80211 0.0
H477 H 0.70169 0.79855 0.80611 0.0
H478 H 0.73471 0.73737 0.87543 0.0
C479 C 0.75001 0.75319 0.8411 0.0
C480 C 0.28869 0.21447 0.34888 0.0
C481 C 0.27119 0.21661 0.3684 0.0
C482 C 0.25258 0.23527 0.36657 0.0
C483 C 0.27004 0.2506 0.32697 0.0
C484 C 0.28798 0.23187 0.32853 0.0
C485 C 0.30657 0.23392 0.30725 0.0
H486 H 0.34615 0.29438 0.20022 0.0
C487 C 0.27532 0.26648 0.30431 0.0
C488 C 0.29676 0.25687 0.29268 0.0
H489 H 0.37988 0.2301 0.23834 0.0
H490 H 0.34786 0.23084 0.27069 0.0
H491 H 0.34017 0.32602 0.25033 0.0
H492 H 0.28575 0.27602 0.20644 0.0
H493 H 0.26923 0.3031 0.21476 0.0
H494 H 0.29721 0.30692 0.19548 0.0
H495 H 0.32377 0.33635 0.22141 0.0
H496 H 0.3098 0.33926 0.25217 0.0
C497 C 0.33451 0.23931 0.3193 0.0
C498 C 0.30293 0.20906 0.29109 0.0
C499 C 0.22153 0.34328 0.28448 0.0
C500 C 0.22357 0.3626 0.266 0.0
C501 C 0.24169 0.36102 0.24695 0.0
C502 C 0.25827 0.34075 0.24669 0.0
C503 C 0.25684 0.32199 0.26585 0.0
C504 C 0.23853 0.32329 0.28418 0.0
C505 C 0.24063 0.30224 0.3036 0.0
C506 C 0.26328 0.28821 0.29397 0.0
C507 C 0.27263 0.29988 0.27186 0.0
C508 C 0.24724 0.31467 0.33026 0.0
C509 C 0.21487 0.28541 0.3017 0.0
C510 C 0.34656 0.28058 0.21564 0.0
C511 C 0.36529 0.26212 0.21691 0.0
C512 C 0.3655 0.24445 0.23719 0.0
C513 C 0.34689 0.2449 0.25582 0.0
C514 C 0.32805 0.26336 0.25422 0.0
C515 C 0.32828 0.28093 0.23449 0.0
C516 C 0.30737 0.29965 0.23624 0.0
C517 C 0.29424 0.29018 0.26002 0.0
C518 C 0.30632 0.26887 0.27042 0.0
C519 C 0.32075 0.32681 0.24006 0.0
C520 C 0.2889 0.29654 0.21196 0.0
H521 H 0.23737 0.26619 0.34576 0.0
H522 H 0.30326 0.2003 0.35007 0.0
H523 H 0.28191 0.20292 0.28842 0.0
H524 H 0.30983 0.2114 0.27157 0.0
H525 H 0.31305 0.19321 0.30066 0.0
H526 H 0.33424 0.25084 0.33716 0.0
H527 H 0.34385 0.22123 0.32428 0.0
H528 H 0.3472 0.25086 0.3068 0.0
H529 H 0.20779 0.34433 0.29939 0.0
H530 H 0.24334 0.37584 0.23258 0.0
H531 H 0.2719 0.34077 0.23187 0.0
H532 H 0.25923 0.33291 0.32858 0.0
H533 H 0.22928 0.3191 0.33987 0.0
H534 H 0.2592 0.30272 0.34306 0.0
H535 H 0.20749 0.28311 0.2814 0.0
H536 H 0.21716 0.26573 0.30869 0.0
H537 H 0.19951 0.29421 0.31236 0.0
H538 H 0.23895 0.23702 0.38149 0.0
C539 C 0.2518 0.25219 0.3459 0.0
C540 C 0.51534 0.90324 0.48942 0.0
C541 C 0.49704 0.89318 0.4707 0.0
C542 C 0.4739 0.90577 0.46549 0.0
C543 C 0.4865 0.93665 0.4991 0.0
C544 C 0.50934 0.92438 0.50387 0.0
C545 C 0.52435 0.93431 0.52757 0.0
H546 H 0.53153 0.01086 0.63225 0.0
C547 C 0.48506 0.9564 0.5191 0.0
C548 C 0.50694 0.95478 0.53609 0.0
H549 H 0.58588 0.95578 0.61076 0.0
H550 H 0.55977 0.94588 0.57184 0.0
H551 H 0.47793 0.9775 0.61415 0.0
H552 H 0.52568 0.03543 0.57794 0.0
H553 H 0.4936 0.03986 0.56659 0.0
H554 H 0.50223 0.04347 0.60037 0.0
H555 H 0.48086 0.01041 0.6242 0.0
H556 H 0.45728 -0.00053 0.59939 0.0
C557 C 0.52599 0.91206 0.54711 0.0
C558 C 0.55106 0.94589 0.51963 0.0
C559 C 0.41113 0.01697 0.51501 0.0
C560 C 0.40518 0.03726 0.53085 0.0
C561 C 0.42068 0.04286 0.55329 0.0
C562 C 0.44224 0.02862 0.55979 0.0
C563 C 0.44832 0.00856 0.54367 0.0
C564 C 0.43282 0.00291 0.52176 0.0
C565 C 0.44219 0.98071 0.50716 0.0
C566 C 0.46646 0.97476 0.52334 0.0
C567 C 0.46977 0.99098 0.5448 0.0
C568 C 0.42096 0.95846 0.50726 0.0
C569 C 0.44886 0.9901 0.48011 0.0
C570 C 0.53752 0.99654 0.61915 0.0
C571 C 0.56047 0.98381 0.62442 0.0
C572 C 0.5681 0.96557 0.60695 0.0
C573 C 0.55294 0.95993 0.58444 0.0
C574 C 0.5299 0.97266 0.57939 0.0
C575 C 0.52266 0.9908 0.59648 0.0
C576 C 0.49818 0.00315 0.58737 0.0
C577 C 0.49146 0.98881 0.56243 0.0
C578 C 0.51004 0.97095 0.55795 0.0
C579 C 0.47737 0.99759 0.60728 0.0
C580 C 0.50503 0.03201 0.58295 0.0
H581 H 0.45058 0.93625 0.47486 0.0
H582 H 0.53304 0.89356 0.49407 0.0
H583 H 0.54896 0.95621 0.50111 0.0
H584 H 0.55986 0.96032 0.53337 0.0
H585 H 0.56497 0.9307 0.51718 0.0
H586 H 0.50852 0.89856 0.54496 0.0
H587 H 0.54337 0.90091 0.54439 0.0
H588 H 0.52625 0.91857 0.56721 0.0
H589 H 0.39926 0.01234 0.49775 0.0
H590 H 0.41617 0.05846 0.56564 0.0
H591 H 0.45339 0.03386 0.57708 0.0
H592 H 0.40833 0.95993 0.52377 0.0
H593 H 0.4081 0.95837 0.48953 0.0
H594 H 0.42937 0.93953 0.5095 0.0
H595 H 0.46046 0.00869 0.48133 0.0
H596 H 0.46078 0.97686 0.47001 0.0
H597 H 0.43085 0.99296 0.46807 0.0
H598 H 0.4595 0.89814 0.45122 0.0
C599 C 0.46867 0.92767 0.4794 0.0
C600 C 0.16661 0.30987 0.77793 0.0
C601 C 0.15111 0.28713 0.78015 0.0
C602 C 0.15404 0.26665 0.76329 0.0
C603 C 0.18821 0.29133 0.74274 0.0
C604 C 0.18518 0.31145 0.75928 0.0
C605 C 0.20448 0.33356 0.75535 0.0
H606 H 0.30249 0.38591 0.68864 0.0
C607 C 0.20949 0.29892 0.72599 0.0
C608 C 0.21912 0.32363 0.73326 0.0
H609 H 0.26849 0.41591 0.75576 0.0
H610 H 0.24008 0.37912 0.75728 0.0
H611 H 0.24949 0.36361 0.65979 0.0
H612 H 0.30612 0.33064 0.71139 0.0
H613 H 0.29759 0.308 0.68712 0.0
H614 H 0.31264 0.33862 0.67889 0.0
H615 H 0.281 0.35587 0.64999 0.0
H616 H 0.25373 0.33258 0.64857 0.0
C617 C 0.18911 0.35717 0.74762 0.0
C618 C 0.22224 0.33731 0.78013 0.0
C619 C 0.23415 0.23789 0.65683 0.0
C620 C 0.25204 0.24026 0.63752 0.0
C621 C 0.26764 0.26307 0.63551 0.0
C622 C 0.26547 0.28336 0.65259 0.0
C623 C 0.24737 0.28087 0.67177 0.0
C624 C 0.23198 0.25848 0.67355 0.0
C625 C 0.21332 0.25956 0.69464 0.0
C626 C 0.22026 0.28617 0.70541 0.0
C627 C 0.2403 0.29847 0.69204 0.0
C628 C 0.18522 0.25716 0.68236 0.0
C629 C 0.21974 0.2384 0.7143 0.0
C630 C 0.28793 0.38583 0.70278 0.0
C631 C 0.28577 0.40684 0.71953 0.0
C632 C 0.26896 0.40275 0.74003 0.0
C633 C 0.25263 0.38052 0.74156 0.0
C634 C 0.25363 0.36117 0.72321 0.0
C635 C 0.27154 0.36373 0.70461 0.0
C636 C 0.27131 0.34036 0.6878 0.0
C637 C 0.25005 0.32349 0.69932 0.0
C638 C 0.23968 0.33586 0.71998 0.0
C639 C 0.26369 0.34834 0.66 0.0
C640 C 0.2983 0.32874 0.6912 0.0
H641 H 0.17391 0.25234 0.73237 0.0
H642 H 0.16478 0.32573 0.79091 0.0
H643 H 0.22302 0.31935 0.79144 0.0
H644 H 0.24279 0.34233 0.77607 0.0
H645 H 0.21511 0.35223 0.79271 0.0
H646 H 0.17339 0.35183 0.73286 0.0
H647 H 0.17986 0.36511 0.76439 0.0
H648 H 0.20126 0.37259 0.73906 0.0
H649 H 0.22196 0.22049 0.65864 0.0
H650 H 0.28154 0.26509 0.62069 0.0
H651 H 0.27792 0.30022 0.65015 0.0
H652 H 0.18418 0.26669 0.66335 0.0
H653 H 0.1785 0.23678 0.67941 0.0
H654 H 0.17102 0.26674 0.69363 0.0
H655 H 0.2411 0.236 0.7162 0.0
H656 H 0.21424 0.24296 0.73384 0.0
H657 H 0.21014 0.21965 0.7083 0.0
H658 H 0.14222 0.24899 0.7649 0.0
C659 C 0.17246 0.26865 0.74454 0.0
C660 C 0.7482 0.15358 0.75367 0.0
C661 C 0.72401 0.14971 0.74024 0.0
C662 C 0.71635 0.16739 0.72147 0.0
C663 C 0.75781 0.19135 0.72826 0.0
C664 C 0.7647 0.17453 0.74746 0.0
C665 C 0.79123 0.18136 0.75972 0.0
H666 H 0.90117 0.25874 0.76572 0.0
C667 C 0.78009 0.20999 0.72542 0.0
C668 C 0.79964 0.20435 0.74387 0.0
H669 H 0.87905 0.19708 0.81632 0.0
H670 H 0.83916 0.18815 0.79079 0.0
H671 H 0.84316 0.28244 0.75817 0.0
H672 H 0.88317 0.22891 0.71393 0.0
H673 H 0.86361 0.2459 0.69219 0.0
H674 H 0.88957 0.26279 0.71103 0.0
H675 H 0.87272 0.29044 0.7424 0.0
H676 H 0.84152 0.29117 0.72549 0.0
C677 C 0.78791 0.18859 0.78811 0.0
C678 C 0.80863 0.15857 0.75591 0.0
C679 C 0.77693 0.27391 0.65299 0.0
C680 C 0.79591 0.2904 0.64244 0.0
C681 C 0.821 0.29313 0.65456 0.0
C682 C 0.82705 0.27944 0.67698 0.0
C683 C 0.80796 0.26249 0.68696 0.0
C684 C 0.78347 0.25982 0.67478 0.0
C685 C 0.76648 0.23906 0.68621 0.0
C686 C 0.78461 0.2299 0.70757 0.0
C687 C 0.80873 0.24393 0.70824 0.0
C688 C 0.7425 0.25137 0.6967 0.0
C689 C 0.75982 0.21815 0.66544 0.0
C690 C 0.88762 0.2433 0.77103 0.0
C691 C 0.89284 0.22859 0.79295 0.0
C692 C 0.87513 0.20856 0.79947 0.0
C693 C 0.85199 0.20354 0.78471 0.0
C694 C 0.84654 0.21873 0.76319 0.0
C695 C 0.86428 0.23809 0.75647 0.0
C696 C 0.85499 0.2521 0.73286 0.0
C697 C 0.8283 0.23872 0.72738 0.0
C698 C 0.82365 0.21909 0.74511 0.0
C699 C 0.85305 0.28062 0.7399 0.0
C700 C 0.87379 0.24744 0.71133 0.0
H701 H 0.72648 0.20083 0.70058 0.0
H702 H 0.75428 0.14029 0.76837 0.0
H703 H 0.80509 0.15036 0.73633 0.0
H704 H 0.82965 0.16409 0.75758 0.0
H705 H 0.80438 0.14308 0.76983 0.0
H706 H 0.76823 0.19554 0.79096 0.0
H707 H 0.79047 0.1719 0.8009 0.0
H708 H 0.80152 0.20461 0.79483 0.0
H709 H 0.75767 0.27113 0.64368 0.0
H710 H 0.83594 0.30556 0.64644 0.0
H711 H 0.84646 0.28218 0.68541 0.0
H712 H 0.74815 0.27043 0.70538 0.0
H713 H 0.72739 0.25419 0.68118 0.0
H714 H 0.73369 0.24012 0.71221 0.0
H715 H 0.77596 0.21683 0.65223 0.0
H716 H 0.75727 0.19872 0.67344 0.0
H717 H 0.74202 0.22242 0.65366 0.0
H718 H 0.6976 0.16465 0.71113 0.0
C719 C 0.73316 0.18822 0.71537 0.0
C720 C 0.52868 0.58642 0.44721 0.0
C721 C 0.5105 0.60518 0.44935 0.0
C722 C 0.48968 0.60106 0.46547 0.0
C723 C 0.50733 0.56128 0.47981 0.0
C724 C 0.52666 0.56457 0.46254 0.0
C725 C 0.54525 0.54341 0.46393 0.0
H726 H 0.59075 0.44066 0.5262 0.0
C727 C 0.51261 0.5383 0.49515 0.0
C728 C 0.53453 0.52749 0.48566 0.0
H729 H 0.61888 0.47632 0.45782 0.0
H730 H 0.58417 0.50574 0.45749 0.0
H731 H 0.57993 0.49261 0.55458 0.0
H732 H 0.52913 0.44042 0.50891 0.0
H733 H 0.51186 0.44978 0.53518 0.0
H734 H 0.54116 0.43277 0.54064 0.0
H735 H 0.56891 0.46181 0.56611 0.0
H736 H 0.55019 0.48959 0.56949 0.0
C737 C 0.57291 0.55542 0.47095 0.0
C738 C 0.54274 0.52866 0.43812 0.0
C739 C 0.464 0.52168 0.57587 0.0
C740 C 0.46752 0.50451 0.59611 0.0
C741 C 0.48487 0.48488 0.594 0.0
C742 C 0.49956 0.48313 0.57229 0.0
C743 C 0.49707 0.50143 0.55276 0.0
C744 C 0.47904 0.5199 0.55447 0.0
C745 C 0.47971 0.53834 0.5325 0.0
C746 C 0.50138 0.52816 0.51746 0.0
C747 C 0.5116 0.50666 0.52949 0.0
C748 C 0.48702 0.56545 0.54361 0.0
C749 C 0.45305 0.53579 0.51727 0.0
C750 C 0.58921 0.45481 0.51117 0.0
C751 C 0.60733 0.45646 0.49203 0.0
C752 C 0.60498 0.47494 0.47268 0.0
C753 C 0.58487 0.49191 0.47258 0.0
C754 C 0.5671 0.49044 0.49214 0.0
C755 C 0.56923 0.4719 0.51081 0.0
C756 C 0.5486 0.47323 0.53004 0.0
C757 C 0.5335 0.4954 0.51962 0.0
C758 C 0.54467 0.5056 0.49765 0.0
C759 C 0.5624 0.47946 0.55655 0.0
C760 C 0.5318 0.44772 0.52892 0.0
H761 H 0.47212 0.57732 0.49325 0.0
H762 H 0.54478 0.58934 0.4348 0.0
H763 H 0.52294 0.52979 0.42873 0.0
H764 H 0.54522 0.50792 0.44053 0.0
H765 H 0.55698 0.53658 0.42456 0.0
H766 H 0.57215 0.57044 0.48593 0.0
H767 H 0.58165 0.56451 0.454 0.0
H768 H 0.5864 0.54158 0.47909 0.0
H769 H 0.4509 0.53704 0.57735 0.0
H770 H 0.48776 0.47159 0.60961 0.0
H771 H 0.51295 0.46816 0.57198 0.0
H772 H 0.50221 0.5646 0.55947 0.0
H773 H 0.46981 0.57402 0.5514 0.0
H774 H 0.4955 0.57883 0.52967 0.0
H775 H 0.4441 0.51599 0.5184 0.0
H776 H 0.45477 0.53927 0.49656 0.0
H777 H 0.43911 0.54897 0.52486 0.0
H778 H 0.47556 0.61547 0.4672 0.0
C779 C 0.48791 0.57908 0.48067 0.0
C780 C 0.54122 0.41126 0.03294 0.0
C781 C 0.52374 0.39027 0.02687 0.0
C782 C 0.50741 0.39101 0.00445 0.0
C783 C 0.52604 0.43311 0.99445 0.0
C784 C 0.54242 0.43218 0.01621 0.0
C785 C 0.56165 0.45491 0.01831 0.0
H786 H 0.60962 0.56639 0.96874 0.0
C787 C 0.53216 0.45747 0.9812 0.0
C788 C 0.55318 0.47024 0.99498 0.0
H789 H 0.6407 0.52493 0.03358 0.0
H790 H 0.60476 0.49301 0.02877 0.0
H791 H 0.55122 0.56116 0.98236 0.0
H792 H 0.5944 0.51586 0.9327 0.0
H793 H 0.56494 0.5234 0.91649 0.0
H794 H 0.58781 0.5488 0.92716 0.0
H795 H 0.55618 0.57056 0.94995 0.0
H796 H 0.52871 0.54965 0.9581 0.0
C797 C 0.55754 0.4693 0.0435 0.0
C798 C 0.58944 0.44524 0.01629 0.0
C799 C 0.48079 0.48017 0.89927 0.0
C800 C 0.48169 0.50197 0.88361 0.0
C801 C 0.49793 0.52345 0.89129 0.0
C802 C 0.51422 0.52276 0.91352 0.0
C803 C 0.51423 0.50038 0.9283 0.0
C804 C 0.497 0.47993 0.92168 0.0
C805 C 0.49888 0.45834 0.94057 0.0
C806 C 0.52061 0.46893 0.95909 0.0
C807 C 0.52985 0.49333 0.95144 0.0
C808 C 0.47249 0.45496 0.95345 0.0
C809 C 0.50677 0.43427 0.92622 0.0
C810 C 0.60854 0.55036 0.9818 0.0
C811 C 0.62783 0.54787 0.00144 0.0
C812 C 0.62597 0.52697 0.01827 0.0
C813 C 0.60519 0.50851 0.01538 0.0
C814 C 0.58623 0.51091 0.9953 0.0
C815 C 0.58805 0.53165 0.979 0.0
C816 C 0.5664 0.53087 0.95852 0.0
C817 C 0.55171 0.50586 0.96477 0.0
C818 C 0.56335 0.49433 0.98638 0.0
C819 C 0.54977 0.55429 0.96217 0.0
C820 C 0.57884 0.5298 0.93223 0.0
H821 H 0.49539 0.41171 0.97156 0.0
H822 H 0.55418 0.41102 0.04992 0.0
H823 H 0.58905 0.42665 0.00588 0.0
H824 H 0.60213 0.45828 0.00514 0.0
H825 H 0.59898 0.44236 0.03553 0.0
H826 H 0.53641 0.47112 0.04608 0.0
H827 H 0.56568 0.45885 0.06029 0.0
H828 H 0.56633 0.48903 0.04382 0.0
H829 H 0.46836 0.46347 0.89376 0.0
H830 H 0.49875 0.5404 0.87942 0.0
H831 H 0.52667 0.53945 0.91796 0.0
H832 H 0.46437 0.47385 0.95686 0.0
H833 H 0.45795 0.44348 0.94114 0.0
H834 H 0.47415 0.44603 0.97251 0.0
H835 H 0.52027 0.43964 0.91092 0.0
H836 H 0.5176 0.42109 0.93871 0.0
H837 H 0.48945 0.42366 0.91703 0.0
H838 H 0.49392 0.37494 0.99941 0.0
C839 C 0.50831 0.41235 0.98833 0.0
C840 C 0.78011 0.1633 0.26758 0.0
C841 C 0.7773 0.14357 0.24935 0.0
C842 C 0.75471 0.14142 0.23292 0.0
C843 C 0.73848 0.17896 0.25264 0.0
C844 C 0.76049 0.18058 0.269 0.0
C845 C 0.76016 0.20206 0.28798 0.0
H846 H 0.69716 0.2979 0.33929 0.0
C847 C 0.72209 0.20017 0.25909 0.0
C848 C 0.73471 0.21367 0.27983 0.0
H849 H 0.76919 0.26625 0.36621 0.0
H850 H 0.76785 0.23844 0.32934 0.0
H851 H 0.66695 0.24316 0.32169 0.0
H852 H 0.70994 0.30134 0.28072 0.0
H853 H 0.68698 0.28699 0.25833 0.0
H854 H 0.67597 0.30366 0.28569 0.0
H855 H 0.65768 0.27557 0.31766 0.0
H856 H 0.64877 0.25176 0.29369 0.0
C857 C 0.75959 0.19028 0.31521 0.0
C858 C 0.78391 0.22084 0.28378 0.0
C859 C 0.63603 0.21212 0.20933 0.0
C860 C 0.61621 0.22972 0.21118 0.0
C861 C 0.62245 0.25141 0.2272 0.0
C862 C 0.64485 0.25309 0.24365 0.0
C863 C 0.66234 0.2336 0.24358 0.0
C864 C 0.65834 0.21407 0.2259 0.0
C865 C 0.68045 0.19635 0.22679 0.0
C866 C 0.69799 0.20825 0.24837 0.0
C867 C 0.6871 0.22996 0.25829 0.0
C868 C 0.66941 0.16924 0.23369 0.0
C869 C 0.69352 0.19792 0.2008 0.0
C870 C 0.71264 0.28505 0.3369 0.0
C871 C 0.73319 0.28387 0.35555 0.0
C872 C 0.75317 0.2672 0.35202 0.0
C873 C 0.75223 0.25099 0.33071 0.0
C874 C 0.73093 0.25129 0.31282 0.0
C875 C 0.71177 0.26839 0.31579 0.0
C876 C 0.69051 0.2656 0.29489 0.0
C877 C 0.69959 0.24327 0.27966 0.0
C878 C 0.72329 0.23514 0.29025 0.0
C879 C 0.66448 0.25875 0.30748 0.0
C880 C 0.69061 0.29067 0.2791 0.0
H881 H 0.71866 0.15669 0.22122 0.0
H882 H 0.79724 0.16515 0.28054 0.0
H883 H 0.78697 0.22323 0.263 0.0
H884 H 0.78135 0.24033 0.291 0.0
H885 H 0.80202 0.21364 0.29294 0.0
H886 H 0.75107 0.17025 0.31471 0.0
H887 H 0.77951 0.18989 0.3244 0.0
H888 H 0.74708 0.20046 0.32792 0.0
H889 H 0.63491 0.1972 0.195 0.0
H890 H 0.61076 0.26784 0.22692 0.0
H891 H 0.64781 0.2697 0.2557 0.0
H892 H 0.65416 0.17032 0.24792 0.0
H893 H 0.66039 0.1591 0.2165 0.0
H894 H 0.68422 0.15729 0.24285 0.0
H895 H 0.69399 0.21783 0.19331 0.0
H896 H 0.71408 0.1929 0.20221 0.0
H897 H 0.6827 0.18538 0.18626 0.0
H898 H 0.75228 0.12619 0.21881 0.0
C899 C 0.73533 0.15913 0.23435 0.0
C900 C 0.39241 0.96674 0.99716 0.0
C901 C 0.38539 0.94449 0.98291 0.0
C902 C 0.40054 0.93767 0.96262 0.0
C903 C 0.42963 0.9751 0.97106 0.0
C904 C 0.41458 0.98169 0.99096 0.0
C905 C 0.42493 0.0059 0.00425 0.0
H906 H 0.51104 0.10847 0.00979 0.0
C907 C 0.45131 0.99471 0.96966 0.0
C908 C 0.44869 0.01276 0.98912 0.0
H909 H 0.44669 0.09174 0.05788 0.0
H910 H 0.43728 0.05101 0.03643 0.0
H911 H 0.48218 0.09012 0.95815 0.0
H912 H 0.53233 0.05105 0.01145 0.0
H913 H 0.53979 0.041 0.9808 0.0
H914 H 0.54475 0.07441 0.98947 0.0
H915 H 0.51671 0.09721 0.96142 0.0
H916 H 0.50275 0.07253 0.94001 0.0
C917 C 0.40398 0.02594 0.00081 0.0
C918 C 0.43248 -0.00056 0.03249 0.0
C919 C 0.51719 0.98888 0.90086 0.0
C920 C 0.53887 0.00478 0.89483 0.0
C921 C 0.54564 0.02686 0.90956 0.0
C922 C 0.53094 0.0332 0.93015 0.0
C923 C 0.50915 0.01733 0.93599 0.0
C924 C 0.5026 0.99554 0.92153 0.0
C925 C 0.47872 0.98112 0.93063 0.0
C926 C 0.47213 0.9978 0.95294 0.0
C927 C 0.49001 0.01898 0.95589 0.0
C928 C 0.45733 0.98078 0.90865 0.0
C929 C 0.48655 0.95428 0.93956 0.0
C930 C 0.49521 0.09573 0.0158 0.0
C931 C 0.47949 0.10297 0.03537 0.0
C932 C 0.45895 0.08624 0.04282 0.0
C933 C 0.45347 0.06277 0.03023 0.0
C934 C 0.46867 0.05611 0.00992 0.0
C935 C 0.48945 0.07224 0.00336 0.0
C936 C 0.5034 0.06202 0.98132 0.0
C937 C 0.48727 0.03734 0.97542 0.0
C938 C 0.46689 0.03408 0.99211 0.0
C939 C 0.50144 0.08141 0.959 0.0
C940 C 0.53162 0.05696 0.99101 0.0
H941 H 0.43349 0.94668 0.94099 0.0
H942 H 0.38098 0.97223 0.01288 0.0
H943 H 0.43977 0.97985 0.03412 0.0
H944 H 0.44862 0.01216 0.04078 0.0
H945 H 0.41548 0.00019 0.04464 0.0
H946 H 0.39394 0.02428 0.98147 0.0
H947 H 0.38891 0.02314 0.01515 0.0
H948 H 0.41215 0.04587 0.00201 0.0
H949 H 0.5117 0.97183 0.88965 0.0
H950 H 0.56234 0.03923 0.90501 0.0
H951 H 0.53705 0.05032 0.9406 0.0
H952 H 0.45816 0.99912 0.8979 0.0
H953 H 0.45983 0.9651 0.89482 0.0
H954 H 0.4374 0.97895 0.91552 0.0
H955 H 0.50645 0.95532 0.94903 0.0
H956 H 0.47382 0.94587 0.95406 0.0
H957 H 0.48662 0.94085 0.9231 0.0
H958 H 0.39526 0.92048 0.95155 0.0
C959 C 0.42266 0.95286 0.95661 0.0
Mg960 Mg 0.23791 0.85451 0.01121 0.0
O961 O 0.27636 0.87824 0.00625 0.0
O962 O 0.30729 0.84988 0.00352 0.0
Mg963 Mg 0.28969 0.80934 0.00848 0.0
C964 C 0.29995 0.87279 0.00331 0.0
C965 C 0.18889 0.88316 0.0029 0.0
O966 O 0.18033 0.85957 0.00745 0.0
O967 O 0.23715 0.84289 0.96928 0.0
O968 O 0.26693 0.8132 0.96969 0.0
O969 O 0.24385 0.85535 0.05381 0.0
O970 O 0.25895 0.82637 0.02877 0.0
C971 C 0.2494 0.82591 0.95814 0.0
C972 C 0.25751 0.83553 0.05144 0.0
O973 O 0.21325 0.88828 0.00211 0.0
Mg974 Mg 0.14445 0.50824 0.27132 0.0
O975 O 0.12007 0.50243 0.23359 0.0
O976 O 0.1481 0.5016 0.20234 0.0
Mg977 Mg 0.18961 0.51014 0.21975 0.0
C978 C 0.12496 0.4999 0.21008 0.0
C979 C 0.113 0.49984 0.31787 0.0
O980 O 0.13616 0.50805 0.3272 0.0
O981 O 0.15775 0.46748 0.26957 0.0
O982 O 0.18775 0.47119 0.24 0.0
O983 O 0.14275 0.55061 0.26842 0.0
O984 O 0.17408 0.52877 0.25314 0.0
C985 C 0.17538 0.45823 0.25661 0.0
C986 C 0.16427 0.55053 0.25666 0.0
O987 O 0.10941 0.49615 0.29392 0.0
Mg988 Mg 0.77499 0.64404 0.01626 0.0
O989 O 0.73579 0.62076 0.01326 0.0
O990 O 0.70472 0.64896 0.0089 0.0
Mg991 Mg 0.72388 0.68969 0.01161 0.0
C992 C 0.71191 0.62603 0.01027 0.0
C993 C 0.82154 0.61256 0.01484 0.0
O994 O 0.83061 0.63559 0.0219 0.0
O995 O 0.77158 0.65348 0.97373 0.0
O996 O 0.74285 0.68416 0.9733 0.0
O997 O 0.77403 0.64618 0.0588 0.0
O998 O 0.75821 0.67511 0.03247 0.0
C999 C 0.75884 0.67065 0.96215 0.0
C1000 C 0.76273 0.66752 0.05559 0.0
O1001 O 0.7973 0.60868 0.00936 0.0
Mg1002 Mg 0.9002 0.03528 0.24008 0.0
O1003 O 0.87523 0.99794 0.23681 0.0
O1004 O 0.90177 0.96593 0.23318 0.0
Mg1005 Mg 0.94397 0.98317 0.2343 0.0
C1006 C 0.87898 0.97423 0.23435 0.0
C1007 C 0.86514 0.07965 0.24498 0.0
O1008 O 0.88661 0.09054 0.23644 0.0
O1009 O 0.9117 0.02594 0.28183 0.0
O1010 O 0.94131 0.99708 0.27587 0.0
O1011 O 0.89982 0.03873 0.19741 0.0
O1012 O 0.93018 0.01977 0.2207 0.0
C1013 C 0.92935 0.01152 0.29052 0.0
C1014 C 0.92071 0.02607 0.19853 0.0
O1015 O 0.86438 0.05592 0.25015 0.0
Mg1016 Mg 0.2801 0.14235 0.51995 0.0
O1017 O 0.24138 0.11835 0.51671 0.0
O1018 O 0.20952 0.14566 0.51266 0.0
Mg1019 Mg 0.22781 0.18671 0.51579 0.0
C1020 C 0.21733 0.12295 0.51372 0.0
C1021 C 0.32667 0.11036 0.51868 0.0
O1022 O 0.33616 0.13304 0.52643 0.0
O1023 O 0.27672 0.15247 0.47753 0.0
O1024 O 0.24685 0.18207 0.47736 0.0
O1025 O 0.27904 0.14416 0.56251 0.0
O1026 O 0.26282 0.17305 0.53635 0.0
C1027 C 0.26323 0.16916 0.46607 0.0
C1028 C 0.26752 0.16539 0.55943 0.0
O1029 O 0.30248 0.10711 0.51272 0.0
Mg1030 Mg 0.40365 0.53443 0.73459 0.0
O1031 O 0.37539 0.49963 0.72882 0.0
O1032 O 0.39737 0.46463 0.72308 0.0
Mg1033 Mg 0.44056 0.47797 0.72284 0.0
C1034 C 0.37607 0.47562 0.72509 0.0
C1035 C 0.37017 0.58032 0.74375 0.0
O1036 O 0.39072 0.59165 0.73383 0.0
O1037 O 0.41671 0.52149 0.77488 0.0
O1038 O 0.44134 0.48913 0.76539 0.0
O1039 O 0.40219 0.54145 0.69249 0.0
O1040 O 0.43047 0.51719 0.71266 0.0
C1041 C 0.4323 0.50422 0.78155 0.0
C1042 C 0.42118 0.52636 0.69151 0.0
O1043 O 0.36997 0.55647 0.74824 0.0
Mg1044 Mg 0.73677 0.35571 0.50901 0.0
O1045 O 0.77532 0.3794 0.50425 0.0
O1046 O 0.80625 0.35103 0.50187 0.0
Mg1047 Mg 0.78852 0.31051 0.50695 0.0
C1048 C 0.79895 0.37395 0.50154 0.0
C1049 C 0.6879 0.38415 0.49998 0.0
O1050 O 0.67949 0.36056 0.50472 0.0
O1051 O 0.73612 0.34362 0.46723 0.0
O1052 O 0.7658 0.31382 0.46804 0.0
O1053 O 0.74234 0.3568 0.5516 0.0
O1054 O 0.75745 0.32748 0.5269 0.0
C1055 C 0.74833 0.32646 0.45632 0.0
C1056 C 0.75575 0.33678 0.54949 0.0
O1057 O 0.71225 0.38944 0.49939 0.0
Mg1058 Mg 0.64735 0.01143 0.77405 0.0
O1059 O 0.62507 0.00633 0.73505 0.0
O1060 O 0.65492 0.00827 0.70534 0.0
Mg1061 Mg 0.69524 0.01793 0.72501 0.0
C1062 C 0.63139 0.00519 0.71182 0.0
C1063 C 0.61403 0.00128 0.81867 0.0
O1064 O 0.63634 0.01096 0.82874 0.0
O1065 O 0.66235 0.97143 0.77083 0.0
O1066 O 0.69392 0.97795 0.7432 0.0
O1067 O 0.64385 0.05372 0.773 0.0
O1068 O 0.67686 0.03413 0.75805 0.0
C1069 C 0.68121 0.96367 0.75854 0.0
C1070 C 0.66585 0.05518 0.76204 0.0
O1071 O 0.61172 0.99703 0.79473 0.0
Mg1072 Mg 0.03612 0.25282 0.8942 0.0
O1073 O 0.00016 0.24643 0.86698 0.0
O1074 O 0.96692 0.23601 0.89168 0.0
Mg1075 Mg 0.98224 0.23218 0.93346 0.0
C1076 C 0.97608 0.24075 0.86984 0.0
C1077 C 0.08002 0.26328 0.85928 0.0
O1078 O 0.08765 0.24457 0.87408 0.0
O1079 O 0.02026 0.29009 0.90773 0.0
O1080 O 0.99101 0.27574 0.93531 0.0
O1081 O 0.04543 0.21176 0.89055 0.0
O1082 O 0.02112 0.22664 0.92021 0.0
C1083 C 0.004 0.29403 0.92476 0.0
C1084 C 0.03104 0.20746 0.90979 0.0
O1085 O 0.05825 0.27268 0.86275 0.0
Mg1086 Mg 0.53326 0.75078 0.39066 0.0
O1087 O 0.4923 0.74594 0.37042 0.0
O1088 O 0.46518 0.73641 0.40155 0.0
Mg1089 Mg 0.48779 0.73172 0.43961 0.0
C1090 C 0.46938 0.74103 0.37811 0.0
C1091 C 0.57199 0.76219 0.35114 0.0
O1092 O 0.58095 0.74333 0.36492 0.0
O1093 O 0.52348 0.78858 0.40874 0.0
O1094 O 0.49714 0.77496 0.43923 0.0
O1095 O 0.53924 0.7094 0.38394 0.0
O1096 O 0.52225 0.72481 0.41836 0.0
C1097 C 0.50947 0.7929 0.42755 0.0
C1098 C 0.52856 0.70533 0.40552 0.0
O1099 O 0.55041 0.77101 0.35645 0.0
Mg1100 Mg 0.98607 0.74556 0.60363 0.0
O1101 O 0.02454 0.74154 0.62733 0.0
O1102 O 0.05557 0.7396 0.59933 0.0
Mg1103 Mg 0.03662 0.7358 0.55883 0.0
C1104 C 0.04847 0.74038 0.62233 0.0
C1105 C 0.9448 0.74792 0.64217 0.0
O1106 O 0.93721 0.72852 0.62712 0.0
O1107 O 0.99812 0.78602 0.59028 0.0
O1108 O 0.02626 0.77782 0.56048 0.0
O1109 O 0.97816 0.70345 0.60527 0.0
O1110 O 0.99905 0.72332 0.57442 0.0
C1111 C 0.01296 0.79335 0.57254 0.0
C1112 C 0.99025 0.70223 0.58428 0.0
O1113 O 0.96601 0.76051 0.63807 0.0
Mg1114 Mg 0.48103 0.2456 0.10352 0.0
O1115 O 0.51682 0.23815 0.12937 0.0
O1116 O 0.55035 0.23324 0.10459 0.0
Mg1117 Mg 0.53431 0.23301 0.0626 0.0
C1118 C 0.54083 0.23463 0.12659 0.0
C1119 C 0.43533 0.25767 0.13419 0.0
O1120 O 0.42493 0.25129 0.11144 0.0
O1121 O 0.49818 0.2855 0.09404 0.0
O1122 O 0.52606 0.2758 0.06452 0.0
O1123 O 0.46901 0.20417 0.10235 0.0
O1124 O 0.49484 0.2233 0.07483 0.0
C1125 C 0.51367 0.29212 0.07659 0.0
C1126 C 0.48323 0.2026 0.08279 0.0
O1127 O 0.45997 0.25927 0.13761 0.0
C1128 C 0.25628 0.81861 0.88662 0.0
C1129 C 0.23628 0.79939 0.88106 0.0
C1130 C 0.22036 0.80414 0.92408 0.0
C1131 C 0.24291 0.81999 0.93086 0.0
N1132 N 0.28248 0.84281 0.91921 0.0
N1133 N 0.19982 0.77257 0.8945 0.0
C1134 C 0.2608 0.82761 0.91221 0.0
C1135 C 0.21812 0.79213 0.89962 0.0
N1136 N 0.27076 0.82825 0.8673 0.0
N1137 N 0.20131 0.80027 0.94115 0.0
H1138 H 0.1973 0.76338 0.87679 0.0
H1139 H 0.18822 0.76421 0.90828 0.0
H1140 H 0.20269 0.80804 0.95956 0.0
H1141 H 0.18319 0.79116 0.93641 0.0
H1142 H 0.28419 0.84382 0.86948 0.0
H1143 H 0.26766 0.82201 0.84837 0.0
H1144 H 0.29785 0.84667 0.90737 0.0
H1145 H 0.28571 0.85068 0.93751 0.0
C1146 C 0.07615 0.48218 0.37656 0.0
C1147 C 0.05515 0.4985 0.37375 0.0
C1148 C 0.07006 0.51337 0.33237 0.0
C1149 C 0.09118 0.49706 0.33515 0.0
N1150 N 0.11085 0.46156 0.35627 0.0
N1151 N 0.02806 0.52444 0.34677 0.0
C1152 C 0.09309 0.48003 0.35614 0.0
C1153 C 0.05072 0.51228 0.3508 0.0
N1154 N 0.08049 0.46957 0.39912 0.0
N1155 N 0.0694 0.53116 0.31325 0.0
H1156 H 0.01366 0.52422 0.36011 0.0
H1157 H 0.02245 0.53266 0.32937 0.0
H1158 H 0.08326 0.53294 0.29945 0.0
H1159 H 0.05624 0.54556 0.31216 0.0
H1160 H 0.09723 0.45987 0.40358 0.0
H1161 H 0.0679 0.46999 0.4141 0.0
H1162 H 0.11168 0.44703 0.36982 0.0
H1163 H 0.12327 0.45935 0.34137 0.0
C1164 C 0.74831 0.68179 0.89076 0.0
C1165 C 0.76842 0.70095 0.88739 0.0
C1166 C 0.7867 0.69309 0.93068 0.0
C1167 C 0.76425 0.6772 0.93541 0.0
N1168 N 0.72356 0.65596 0.92058 0.0
N1169 N 0.80582 0.72657 0.90454 0.0
C1170 C 0.74511 0.67119 0.91552 0.0
C1171 C 0.78767 0.70677 0.90729 0.0
N1172 N 0.73251 0.67367 0.8702 0.0
N1173 N 0.80688 0.69548 0.94873 0.0
H1174 H 0.80729 0.73723 0.88781 0.0
H1175 H 0.81825 0.73381 0.91948 0.0
H1176 H 0.80653 0.68646 0.96647 0.0
H1177 H 0.82488 0.70455 0.94532 0.0
H1178 H 0.7189 0.65823 0.87076 0.0
H1179 H 0.73458 0.68109 0.85186 0.0
H1180 H 0.70738 0.65321 0.9079 0.0
H1181 H 0.72138 0.64687 0.93815 0.0
C1182 C 0.95826 0.98734 0.35301 0.0
C1183 C 0.96229 0.01007 0.36787 0.0
C1184 C 0.94284 0.03449 0.33251 0.0
C1185 C 0.93712 0.01138 0.31841 0.0
N1186 N 0.93152 0.9653 0.31974 0.0
N1187 N 0.95122 0.05366 0.37452 0.0
C1188 C 0.94222 0.98763 0.33019 0.0
C1189 C 0.95211 0.03311 0.35854 0.0
N1190 N 0.97101 0.96588 0.35953 0.0
N1191 N 0.94141 0.05777 0.32088 0.0
H1192 H 0.95736 0.05307 0.39383 0.0
H1193 H 0.94187 0.07016 0.36927 0.0
H1194 H 0.9362 0.06008 0.30157 0.0
H1195 H 0.94804 0.07485 0.32989 0.0
H1196 H 0.97046 0.94976 0.34775 0.0
H1197 H 0.98436 0.96505 0.37512 0.0
H1198 H 0.93294 0.94765 0.32879 0.0
H1199 H 0.91871 0.96493 0.30364 0.0
C1200 C 0.2345 0.21219 0.60074 0.0
C1201 C 0.25478 0.21892 0.61933 0.0
C1202 C 0.28338 0.19 0.59912 0.0
C1203 C 0.26253 0.18192 0.58152 0.0
N1204 N 0.21656 0.18051 0.57005 0.0
N1205 N 0.29589 0.20935 0.64031 0.0
C1206 C 0.23754 0.19157 0.5837 0.0
C1207 C 0.27837 0.2062 0.61986 0.0
N1208 N 0.21284 0.22614 0.59856 0.0
N1209 N 0.30831 0.18378 0.5952 0.0
H1210 H 0.29272 0.22091 0.65599 0.0
H1211 H 0.3122 0.19854 0.64287 0.0
H1212 H 0.31338 0.17295 0.5797 0.0
H1213 H 0.32445 0.19159 0.60595 0.0
H1214 H 0.19881 0.22376 0.58354 0.0
H1215 H 0.20994 0.24162 0.61045 0.0
H1216 H 0.19743 0.18509 0.57263 0.0
H1217 H 0.21815 0.16482 0.55812 0.0
C1218 C 0.42993 0.49966 0.62482 0.0
C1219 C 0.45567 0.50929 0.62076 0.0
C1220 C 0.45908 0.52899 0.66344 0.0
C1221 C 0.43278 0.52059 0.66699 0.0
N1222 N 0.392 0.50051 0.65045 0.0
N1223 N 0.49378 0.53583 0.63414 0.0
C1224 C 0.41782 0.50672 0.64745 0.0
C1225 C 0.47004 0.5246 0.63956 0.0
N1226 N 0.41741 0.48323 0.60728 0.0
N1227 N 0.47361 0.54131 0.68287 0.0
H1228 H 0.50287 0.53261 0.61716 0.0
H1229 H 0.50384 0.54976 0.64559 0.0
H1230 H 0.46585 0.54726 0.69975 0.0
H1231 H 0.49373 0.54465 0.6829 0.0
H1232 H 0.39975 0.47329 0.61019 0.0
H1233 H 0.42564 0.47807 0.59034 0.0
H1234 H 0.37926 0.493 0.6359 0.0
H1235 H 0.38277 0.5041 0.66725 0.0
C1236 C 0.7889 0.3299 0.61566 0.0
C1237 C 0.78959 0.30291 0.61757 0.0
C1238 C 0.76774 0.29804 0.57512 0.0
C1239 C 0.76881 0.32509 0.57225 0.0
N1240 N 0.78765 0.36617 0.58711 0.0
N1241 N 0.7873 0.26208 0.59586 0.0
C1242 C 0.78162 0.3409 0.5917 0.0
C1243 C 0.78161 0.28726 0.59614 0.0
N1244 N 0.79399 0.34501 0.63684 0.0
N1245 N 0.75204 0.28257 0.55905 0.0
H1246 H 0.79803 0.25367 0.61076 0.0
H1247 H 0.78387 0.25045 0.57971 0.0
H1248 H 0.73966 0.28944 0.5446 0.0
H1249 H 0.74894 0.26298 0.56208 0.0
H1250 H 0.79101 0.36454 0.63691 0.0
H1251 H 0.79896 0.33773 0.65486 0.0
H1252 H 0.79905 0.37787 0.59992 0.0
H1253 H 0.78391 0.37469 0.5694 0.0
C1254 C 0.57876 0.97162 0.66789 0.0
C1255 C 0.57699 0.98993 0.64796 0.0
C1256 C 0.60589 0.02005 0.67329 0.0
C1257 C 0.61075 0.00049 0.69133 0.0
N1258 N 0.60349 0.95684 0.70518 0.0
N1259 N 0.59165 0.03035 0.62992 0.0
C1260 C 0.5975 0.97606 0.6886 0.0
C1261 C 0.59124 0.01388 0.65019 0.0
N1262 N 0.5621 0.95032 0.66731 0.0
N1263 N 0.61447 0.04473 0.67869 0.0
H1264 H 0.58138 0.0265 0.61251 0.0
H1265 H 0.60398 0.04681 0.62959 0.0
H1266 H 0.62391 0.05002 0.69615 0.0
H1267 H 0.60955 0.06021 0.6673 0.0
H1268 H 0.56064 0.93758 0.68251 0.0
H1269 H 0.54802 0.94656 0.65251 0.0
H1270 H 0.59682 0.93784 0.70237 0.0
H1271 H 0.6166 0.95953 0.72096 0.0
C1272 C 0.91665 0.25476 0.82804 0.0
C1273 C 0.91626 0.23449 0.81004 0.0
C1274 C 0.95749 0.22015 0.82891 0.0
C1275 C 0.95767 0.24028 0.84716 0.0
N1276 N 0.9422 0.28077 0.8596 0.0
N1277 N 0.93692 0.20152 0.78935 0.0
C1278 C 0.93868 0.25886 0.84531 0.0
C1279 C 0.93719 0.2183 0.80931 0.0
N1280 N 0.89554 0.26933 0.82935 0.0
N1281 N 0.97593 0.20236 0.83107 0.0
H1282 H 0.95188 0.18961 0.78575 0.0
H1283 H 0.95188 0.18961 0.78575 0.0
H1284 H 0.99173 0.20396 0.84437 0.0
H1285 H 0.97514 0.18541 0.8206 0.0
H1286 H 0.89341 0.28243 0.84398 0.0
H1287 H 0.8792 0.2671 0.81674 0.0
H1288 H 0.93027 0.29614 0.85761 0.0
H1289 H 0.95879 0.28466 0.87158 0.0
C1290 C 0.50184 0.86507 0.43202 0.0
C1291 C 0.50079 0.86784 0.45895 0.0
C1292 C 0.51147 0.82327 0.46448 0.0
C1293 C 0.50837 0.81931 0.43764 0.0
N1294 N 0.49583 0.83597 0.39594 0.0
N1295 N 0.49779 0.84727 0.50021 0.0
C1296 C 0.50235 0.8401 0.42131 0.0
C1297 C 0.50365 0.84628 0.47505 0.0
N1298 N 0.50299 0.8862 0.41674 0.0
N1299 N 0.52271 0.80546 0.4799 0.0
H1300 H 0.49037 0.86325 0.50852 0.0
H1301 H 0.49744 0.8312 0.51197 0.0
H1302 H 0.53025 0.78895 0.47277 0.0
H1303 H 0.52734 0.80864 0.49933 0.0
H1304 H 0.50629 0.88532 0.39728 0.0
H1305 H 0.50319 0.9048 0.42397 0.0
H1306 H 0.48877 0.85013 0.38389 0.0
H1307 H 0.49498 0.81791 0.38744 0.0
C1308 C 0.1053 0.28151 0.79417 0.0
C1309 C 0.1324 0.28416 0.8007 0.0
C1310 C 0.12357 0.28003 0.84604 0.0
C1311 C 0.0971 0.27311 0.83918 0.0
N1312 N 0.0632 0.26397 0.80613 0.0
N1313 N 0.16787 0.28236 0.83268 0.0
C1314 C 0.08792 0.27322 0.8131 0.0
C1315 C 0.14173 0.28263 0.82662 0.0
N1316 N 0.09616 0.28723 0.76997 0.0
N1317 N 0.13124 0.28473 0.87109 0.0
H1318 H 0.18195 0.28371 0.81904 0.0
H1319 H 0.1755 0.27844 0.851 0.0
H1320 H 0.11825 0.28378 0.88577 0.0
H1321 H 0.14979 0.29221 0.87691 0.0
H1322 H 0.07641 0.28809 0.76481 0.0
H1323 H 0.10838 0.29356 0.7557 0.0
H1324 H 0.05659 0.26097 0.78715 0.0
H1325 H 0.04992 0.25712 0.81921 0.0
C1326 C 0.50475 0.63552 0.41256 0.0
C1327 C 0.5153 0.63055 0.43751 0.0
C1328 C 0.53717 0.67329 0.43964 0.0
C1329 C 0.52453 0.67923 0.41582 0.0
N1330 N 0.49427 0.66735 0.3805 0.0
N1331 N 0.53897 0.6452 0.47633 0.0
C1332 C 0.50788 0.66066 0.40238 0.0
C1333 C 0.53076 0.6496 0.4515 0.0
N1334 N 0.49206 0.61611 0.39855 0.0
N1335 N 0.55626 0.68981 0.45035 0.0
H1336 H 0.53562 0.62774 0.48551 0.0
H1337 H 0.54745 0.65943 0.4885 0.0
H1338 H 0.56202 0.70716 0.44199 0.0
H1339 H 0.56819 0.68531 0.4662 0.0
H1340 H 0.48633 0.61768 0.37927 0.0
H1341 H 0.48883 0.5977 0.40578 0.0
H1342 H 0.47972 0.65558 0.37128 0.0
H1343 H 0.49605 0.68556 0.37249 0.0
C1344 C 0.91856 0.76363 0.70701 0.0
C1345 C 0.89146 0.76275 0.7002 0.0
C1346 C 0.90088 0.75911 0.65503 0.0
C1347 C 0.92743 0.75577 0.66215 0.0
N1348 N 0.96129 0.75192 0.69545 0.0
N1349 N 0.85647 0.75532 0.66795 0.0
C1350 C 0.93634 0.75748 0.68828 0.0
C1351 C 0.88249 0.75943 0.67424 0.0
N1352 N 0.92732 0.77079 0.73121 0.0
N1353 N 0.89332 0.76271 0.62991 0.0
H1354 H 0.84224 0.75464 0.68144 0.0
H1355 H 0.84922 0.75008 0.64961 0.0
H1356 H 0.90646 0.76359 0.61536 0.0
H1357 H 0.87465 0.76767 0.62395 0.0
H1358 H 0.94698 0.77425 0.73656 0.0
H1359 H 0.91484 0.77562 0.74531 0.0
H1360 H 0.96791 0.75006 0.71447 0.0
H1361 H 0.97488 0.74706 0.68244 0.0
C1362 C 0.01225 0.84915 0.52655 0.0
C1363 C 0.01517 0.87048 0.54341 0.0
C1364 C 0.01854 0.84125 0.58002 0.0
C1365 C 0.01267 0.82014 0.5632 0.0
N1366 N 0.99668 0.80506 0.52125 0.0
N1367 N 0.01673 0.88703 0.58656 0.0
C1368 C 0.00741 0.8244 0.53668 0.0
C1369 C 0.01707 0.86661 0.57031 0.0
N1370 N 0.01503 0.85234 0.50088 0.0
N1371 N 0.02654 0.83716 0.60491 0.0
H1372 H 0.01546 0.90579 0.58011 0.0
H1373 H 0.0154 0.88513 0.60627 0.0
H1374 H 0.02828 0.81892 0.61258 0.0
H1375 H 0.03364 0.85181 0.61731 0.0
H1376 H 0.01562 0.83702 0.48821 0.0
H1377 H 0.01958 0.87006 0.49263 0.0
H1378 H 0.99021 0.80794 0.50232 0.0
H1379 H 0.99141 0.78688 0.52807 0.0
C1380 C 0.11286 0.72846 0.65833 0.0
C1381 C 0.10872 0.73733 0.68338 0.0
C1382 C 0.06642 0.75183 0.66747 0.0
C1383 C 0.0688 0.73899 0.64376 0.0
N1384 N 0.09179 0.70708 0.62152 0.0
N1385 N 0.07732 0.75064 0.71289 0.0
C1386 C 0.09127 0.72489 0.64056 0.0
C1387 C 0.08419 0.74693 0.68836 0.0
N1388 N 0.13734 0.72438 0.65095 0.0
N1389 N 0.04836 0.76968 0.66998 0.0
H1390 H 0.08897 0.74566 0.7288 0.0
H1391 H 0.05875 0.75576 0.71722 0.0
H1392 H 0.03668 0.77602 0.65468 0.0
H1393 H 0.0475 0.78061 0.68656 0.0
H1394 H 0.14103 0.71961 0.63216 0.0
H1395 H 0.15407 0.72883 0.66255 0.0
H1396 H 0.1074 0.6954 0.6199 0.0
H1397 H 0.07547 0.70143 0.60983 0.0
C1398 C 0.0014 0.63244 0.57142 0.0
C1399 C 0.98676 0.62865 0.54787 0.0
C1400 C 0.97571 0.67354 0.54749 0.0
C1401 C 0.99104 0.6776 0.57065 0.0
N1402 N 0.02216 0.66279 0.60239 0.0
N1403 N 0.96417 0.6461 0.51086 0.0
C1404 C 0.00501 0.65756 0.58197 0.0
C1405 C 0.97533 0.64942 0.53503 0.0
N1406 N 0.0113 0.61193 0.58393 0.0
N1407 N 0.96021 0.69218 0.53821 0.0
H1408 H 0.96254 0.62848 0.5014 0.0
H1409 H 0.95835 0.66116 0.49932 0.0
H1410 H 0.95972 0.71019 0.54666 0.0
H1411 H 0.94618 0.68922 0.52328 0.0
H1412 H 0.01967 0.61284 0.60248 0.0
H1413 H 0.00978 0.59346 0.57627 0.0
H1414 H 0.03485 0.64969 0.61011 0.0
H1415 H 0.02527 0.68106 0.61036 0.0
C1416 C 0.81317 0.94105 0.2135 0.0
C1417 C 0.81307 0.91942 0.22977 0.0
C1418 C 0.85469 0.93504 0.25054 0.0
C1419 C 0.85599 0.95569 0.23298 0.0
N1420 N 0.83804 0.97663 0.19537 0.0
N1421 N 0.83435 0.89568 0.264 0.0
C1422 C 0.83553 0.95839 0.21393 0.0
C1423 C 0.83386 0.91633 0.24816 0.0
N1424 N 0.79158 0.94533 0.19808 0.0
N1425 N 0.87324 0.9332 0.27 0.0
H1426 H 0.82001 0.88076 0.26374 0.0
H1427 H 0.82001 0.88076 0.26374 0.0
H1428 H 0.88825 0.9471 0.27363 0.0
H1429 H 0.87293 0.9182 0.28314 0.0
H1430 H 0.78909 0.96221 0.18798 0.0
H1431 H 0.77508 0.93277 0.19694 0.0
H1432 H 0.82544 0.9775 0.17923 0.0
H1433 H 0.85387 0.98986 0.19488 0.0
C1434 C 0.80423 0.10892 0.26813 0.0
C1435 C 0.79839 0.12551 0.24741 0.0
C1436 C 0.83299 0.10795 0.22357 0.0
C1437 C 0.84137 0.09434 0.24569 0.0
N1438 N 0.83703 0.08467 0.29046 0.0
N1439 N 0.8102 0.14405 0.20706 0.0
C1440 C 0.82746 0.09541 0.26836 0.0
C1441 C 0.81354 0.12588 0.22552 0.0
N1442 N 0.78732 0.10568 0.2873 0.0
N1443 N 0.84284 0.10301 0.2004 0.0
H1444 H 0.79649 0.15791 0.20788 0.0
H1445 H 0.8227 0.14684 0.19215 0.0
H1446 H 0.85625 0.08914 0.19785 0.0
H1447 H 0.83552 0.11061 0.18327 0.0
H1448 H 0.78926 0.09195 0.30157 0.0
H1449 H 0.76994 0.115 0.28755 0.0
H1450 H 0.82916 0.08727 0.30816 0.0
H1451 H 0.85426 0.07509 0.29163 0.0
C1452 C 0.33913 0.92812 0.97377 0.0
C1453 C 0.36241 0.92794 0.98949 0.0
C1454 C 0.34191 0.89606 0.01738 0.0
C1455 C 0.32004 0.89364 -0.00028 0.0
N1456 N 0.29864 0.90538 0.95959 0.0
N1457 N 0.38732 0.91006 0.02479 0.0
C1458 C 0.31869 0.90932 0.97761 0.0
C1459 C 0.36414 0.91157 0.01102 0.0
N1460 N 0.33643 0.94653 0.95546 0.0
N1461 N 0.34112 0.88399 0.04053 0.0
H1462 H 0.40406 0.92123 0.02086 0.0
H1463 H 0.39058 0.89635 0.03883 0.0
H1464 H 0.325 0.87269 0.04593 0.0
H1465 H 0.35532 0.88709 0.05528 0.0
H1466 H 0.31895 0.94935 0.94521 0.0
H1467 H 0.35109 0.96051 0.95206 0.0
H1468 H 0.2983 0.91405 0.94168 0.0
H1469 H 0.28316 0.89197 0.96168 0.0
C1470 C 0.1855 0.38742 0.25067 0.0
C1471 C 0.20805 0.38554 0.2672 0.0
C1472 C 0.20623 0.43041 0.28006 0.0
C1473 C 0.18423 0.43252 0.26287 0.0
N1474 N 0.14966 0.41286 0.23568 0.0
N1475 N 0.23717 0.40304 0.30123 0.0
C1476 C 0.17274 0.41086 0.24946 0.0
C1477 C 0.21745 0.40634 0.28318 0.0
N1478 N 0.17689 0.36699 0.23558 0.0
N1479 N 0.21702 0.45176 0.29254 0.0
H1480 H 0.2466 0.386 0.30338 0.0
H1481 H 0.24314 0.41647 0.3153 0.0
H1482 H 0.20854 0.46941 0.29173 0.0
H1483 H 0.23491 0.45248 0.30279 0.0
H1484 H 0.1624 0.36773 0.22104 0.0
H1485 H 0.18507 0.34921 0.23697 0.0
H1486 H 0.1389 0.39745 0.2271 0.0
H1487 H 0.14019 0.42994 0.23435 0.0
C1488 C 0.15705 0.0806 0.52625 0.0
C1489 C 0.15702 0.06264 0.50592 0.0
C1490 C 0.19674 0.08418 0.49045 0.0
C1491 C 0.19758 0.10119 0.51169 0.0
N1492 N 0.18237 0.11155 0.55306 0.0
N1493 N 0.17906 0.04415 0.47145 0.0
C1494 C 0.17882 0.09823 0.53055 0.0
C1495 C 0.17758 0.06346 0.48884 0.0
N1496 N 0.13588 0.08145 0.54091 0.0
N1497 N 0.21349 0.08844 0.47127 0.0
H1498 H 0.16529 0.02876 0.46971 0.0
H1499 H 0.19501 0.0422 0.46029 0.0
H1500 H 0.22795 0.10323 0.47183 0.0
H1501 H 0.21186 0.07856 0.45392 0.0
H1502 H 0.13358 0.096 0.55406 0.0
H1503 H 0.11952 0.06884 0.53845 0.0
H1504 H 0.17073 0.10835 0.56857 0.0
H1505 H 0.19866 0.12383 0.55727 0.0
C1506 C 0.70423 0.10672 0.72641 0.0
C1507 C 0.70733 0.12642 0.74512 0.0
C1508 C 0.68391 0.09919 0.77532 0.0
C1509 C 0.6788 0.08033 0.75583 0.0
N1510 N 0.67858 0.06931 0.71109 0.0
N1511 N 0.69546 0.14374 0.78532 0.0
C1512 C 0.68738 0.08502 0.73085 0.0
C1513 C 0.69565 0.1234 0.76894 0.0
N1514 N 0.71815 0.10817 0.70484 0.0
N1515 N 0.67906 0.09358 0.80021 0.0
H1516 H 0.70383 0.16179 0.78119 0.0
H1517 H 0.68491 0.14334 0.80179 0.0
H1518 H 0.67146 0.0758 0.80609 0.0
H1519 H 0.68502 0.10573 0.81545 0.0
H1520 H 0.7187 0.09301 0.692 0.0
H1521 H 0.73104 0.12358 0.70093 0.0
H1522 H 0.68209 0.07316 0.692 0.0
H1523 H 0.66534 0.05396 0.71367 0.0
C1524 C 0.35939 0.04894 0.53649 0.0
C1525 C 0.38302 0.05325 0.52404 0.0
C1526 C 0.3659 0.09087 0.50269 0.0
C1527 C 0.34413 0.08888 0.51824 0.0
N1528 N 0.3208 0.06722 0.55159 0.0
N1529 N 0.40982 0.07869 0.49612 0.0
C1530 C 0.34077 0.068 0.53532 0.0
C1531 C 0.38648 0.07417 0.50711 0.0
N1532 N 0.35481 0.02656 0.54938 0.0
N1533 N 0.36659 0.10846 0.4834 0.0
H1534 H 0.42511 0.06648 0.49834 0.0
H1535 H 0.41467 0.09531 0.4861 0.0
H1536 H 0.35159 0.12073 0.47951 0.0
H1537 H 0.38068 0.1093 0.4698 0.0
H1538 H 0.33692 0.02108 0.55669 0.0
H1539 H 0.36824 0.01234 0.55074 0.0
H1540 H 0.31919 0.05418 0.56652 0.0
H1541 H 0.30675 0.0808 0.55152 0.0
C1542 C 0.62789 0.41753 0.47607 0.0
C1543 C 0.62912 0.4391 0.49259 0.0
C1544 C 0.66942 0.4251 0.51376 0.0
C1545 C 0.66895 0.40424 0.49632 0.0
N1546 N 0.6511 0.38358 0.45757 0.0
N1547 N 0.65338 0.4665 0.52349 0.0
C1548 C 0.64915 0.40133 0.47647 0.0
C1549 C 0.65066 0.44386 0.51029 0.0
N1550 N 0.60603 0.41202 0.46064 0.0
N1551 N 0.68677 0.42624 0.53449 0.0
H1552 H 0.63986 0.4806 0.52161 0.0
H1553 H 0.67007 0.47226 0.53458 0.0
H1554 H 0.70065 0.41276 0.53803 0.0
H1555 H 0.68602 0.43935 0.5494 0.0
H1556 H 0.60273 0.395 0.45036 0.0
H1557 H 0.59017 0.42361 0.45959 0.0
H1558 H 0.6387 0.38226 0.4412 0.0
H1559 H 0.66668 0.3717 0.45702 0.0
C1560 C 0.71677 0.29034 0.39934 0.0
C1561 C 0.73342 0.29863 0.37981 0.0
C1562 C 0.75787 0.32812 0.40986 0.0
C1563 C 0.74125 0.31975 0.42933 0.0
N1564 N 0.70135 0.29789 0.44156 0.0
N1565 N 0.76551 0.32927 0.36442 0.0
C1566 C 0.7194 0.30263 0.42363 0.0
C1567 C 0.75259 0.31886 0.38444 0.0
N1568 N 0.69964 0.26961 0.39527 0.0
N1569 N 0.77908 0.3443 0.41588 0.0
H1570 H 0.76182 0.3229 0.34559 0.0
H1571 H 0.7781 0.34553 0.36601 0.0
H1572 H 0.78283 0.35225 0.43409 0.0
H1573 H 0.79366 0.34884 0.40331 0.0
H1574 H 0.68934 0.26071 0.40971 0.0
H1575 H 0.69699 0.25999 0.3778 0.0
H1576 H 0.6836 0.28776 0.43764 0.0
H1577 H 0.70306 0.30597 0.45985 0.0
C1578 C 0.57605 0.98323 0.87642 0.0
C1579 C 0.55466 0.999 0.87288 0.0
C1580 C 0.5699 0.01327 0.83143 0.0
C1581 C 0.59154 0.99772 0.83507 0.0
N1582 N 0.61186 0.96325 0.85731 0.0
N1583 N 0.52725 0.02353 0.84481 0.0
C1584 C 0.59349 0.98115 0.85642 0.0
C1585 C 0.55023 0.0121 0.84953 0.0
N1586 N 0.58029 0.97116 0.8993 0.0
N1587 N 0.56902 0.03048 0.81179 0.0
H1588 H 0.5126 0.02319 0.8579 0.0
H1589 H 0.52169 0.03122 0.82715 0.0
H1590 H 0.583 0.03217 0.7981 0.0
H1591 H 0.55543 0.04445 0.81005 0.0
H1592 H 0.5972 0.96192 0.90428 0.0
H1593 H 0.56738 0.97156 0.91401 0.0
H1594 H 0.61287 0.94903 0.87116 0.0
H1595 H 0.62467 0.96116 0.84272 0.0
C1596 C 0.25402 0.17997 0.39477 0.0
C1597 C 0.27287 0.20047 0.39167 0.0
C1598 C 0.28889 0.19647 0.43635 0.0
C1599 C 0.26923 0.17685 0.43976 0.0
N1600 N 0.23673 0.14615 0.4221 0.0
N1601 N 0.31145 0.22511 0.40735 0.0
C1602 C 0.25299 0.16732 0.41882 0.0
C1603 C 0.29149 0.20755 0.41176 0.0
N1604 N 0.23669 0.17325 0.37487 0.0
N1605 N 0.3041 0.20545 0.45704 0.0
H1606 H 0.31327 0.23468 0.39002 0.0
H1607 H 0.32728 0.2291 0.42018 0.0
H1608 H 0.30353 0.19707 0.47511 0.0
H1609 H 0.31647 0.22185 0.45682 0.0
H1610 H 0.22064 0.16048 0.3764 0.0
H1611 H 0.23791 0.18122 0.35667 0.0
H1612 H 0.22567 0.13679 0.40736 0.0
H1613 H 0.23572 0.13672 0.43961 0.0
C1614 C 0.48353 0.50219 0.83601 0.0
C1615 C 0.46821 0.50156 0.85775 0.0
C1616 C 0.42845 0.50067 0.82954 0.0
C1617 C 0.44405 0.50419 0.80808 0.0
N1618 N 0.48645 0.5153 0.79204 0.0
N1619 N 0.42619 0.5038 0.87571 0.0
C1620 C 0.47161 0.50692 0.81164 0.0
C1621 C 0.44063 0.50178 0.85469 0.0
N1622 N 0.50941 0.49755 0.83847 0.0
N1623 N 0.40222 0.49542 0.8259 0.0
H1624 H 0.43448 0.50458 0.89434 0.0
H1625 H 0.40632 0.50672 0.87459 0.0
H1626 H 0.39276 0.49437 0.80778 0.0
H1627 H 0.39023 0.49008 0.84063 0.0
H1628 H 0.5208 0.49524 0.82282 0.0
H1629 H 0.51887 0.4933 0.85595 0.0
H1630 H 0.50636 0.52002 0.79447 0.0
H1631 H 0.47852 0.5204 0.77414 0.0
C1632 C 0.77268 0.70734 0.11675 0.0
C1633 C 0.74953 0.7208 0.1156 0.0
C1634 C 0.73274 0.69429 0.07923 0.0
C1635 C 0.75753 0.68402 0.07765 0.0
N1636 N 0.80292 0.68471 0.09268 0.0
N1637 N 0.70876 0.72967 0.09329 0.0
C1638 C 0.778 0.69138 0.09594 0.0
C1639 C 0.72978 0.71492 0.09624 0.0
N1640 N 0.78948 0.70958 0.13784 0.0
N1641 N 0.71182 0.68377 0.06511 0.0
H1642 H 0.70602 0.74532 0.10501 0.0
H1643 H 0.69526 0.72779 0.07776 0.0
H1644 H 0.71329 0.66794 0.05336 0.0
H1645 H 0.69278 0.68888 0.06723 0.0
H1646 H 0.80537 0.69823 0.14072 0.0
H1647 H 0.78601 0.72085 0.15364 0.0
H1648 H 0.81885 0.69197 0.10408 0.0
H1649 H 0.80828 0.67416 0.07711 0.0
C1650 C 0.97177 0.02969 0.14868 0.0
C1651 C 0.96088 0.01144 0.1305 0.0
C1652 C 0.9251 0.0006 0.1584 0.0
C1653 C 0.93455 0.02065 0.17524 0.0
N1654 N 0.96486 0.05658 0.18516 0.0
N1655 N 0.92596 0.98137 0.11622 0.0
C1656 C 0.9574 0.03579 0.17009 0.0
C1657 C 0.9372 0.99733 0.13486 0.0
N1658 N 0.99615 0.04074 0.14575 0.0
N1659 N 0.90514 0.98419 0.16533 0.0
H1660 H 0.93457 0.97817 0.09897 0.0
H1661 H 0.90731 0.97271 0.11703 0.0
H1662 H 0.89616 0.98602 0.18257 0.0
H1663 H 0.89898 0.96763 0.15518 0.0
H1664 H 0.00635 0.05202 0.15974 0.0
H1665 H 0.00723 0.03692 0.13019 0.0
H1666 H 0.97951 0.0701 0.18066 0.0
H1667 H 0.95504 0.06155 0.20123 0.0
C1668 C 0.28634 0.78673 0.0972 0.0
C1669 C 0.29286 0.80218 0.11911 0.0
C1670 C 0.28326 0.84009 0.09375 0.0
C1671 C 0.27131 0.82409 0.07397 0.0
N1672 N 0.25706 0.78103 0.06005 0.0
N1673 N 0.2946 0.84393 0.13911 0.0
C1674 C 0.27187 0.79706 0.07633 0.0
C1675 C 0.29074 0.82904 0.11765 0.0
N1676 N 0.29377 0.76211 0.09644 0.0
N1677 N 0.2883 0.8656 0.08957 0.0
H1678 H 0.29968 0.83659 0.15708 0.0
H1679 H 0.29055 0.86322 0.13939 0.0
H1680 H 0.28466 0.87415 0.07185 0.0
H1681 H 0.29896 0.87753 0.10273 0.0
H1682 H 0.29129 0.75076 0.08 0.0
H1683 H 0.30497 0.75413 0.11127 0.0
H1684 H 0.25528 0.76128 0.06274 0.0
H1685 H 0.24403 0.78735 0.04588 0.0
C1686 C 0.08348 0.50616 0.14879 0.0
C1687 C 0.06627 0.4841 0.14985 0.0
C1688 C 0.08673 0.47259 0.19132 0.0
C1689 C 0.10306 0.49536 0.19076 0.0
N1690 N 0.11148 0.53721 0.17283 0.0
N1691 N 0.04754 0.44929 0.17421 0.0
C1692 C 0.09979 0.51317 0.17062 0.0
C1693 C 0.06666 0.46821 0.1718 0.0
N1694 N 0.08506 0.51987 0.12664 0.0
N1695 N 0.09105 0.45464 0.20978 0.0
H1696 H 0.03253 0.44565 0.1603 0.0
H1697 H 0.04522 0.43876 0.1909 0.0
H1698 H 0.1052 0.45729 0.22466 0.0
H1699 H 0.08187 0.43639 0.20936 0.0
H1700 H 0.09934 0.5344 0.12402 0.0
H1701 H 0.07364 0.5153 0.11004 0.0
H1702 H 0.10792 0.55179 0.15979 0.0
H1703 H 0.12226 0.54341 0.18929 0.0
C1704 C 0.41785 0.75943 0.32677 0.0
C1705 C 0.40181 0.73643 0.32553 0.0
C1706 C 0.42733 0.71931 0.36137 0.0
C1707 C 0.44646 0.73978 0.3595 0.0
N1708 N 0.45878 0.78107 0.34141 0.0
N1709 N 0.38133 0.70901 0.35646 0.0
C1710 C 0.4415 0.76036 0.34239 0.0
C1711 C 0.40339 0.72045 0.34726 0.0
N1712 N 0.40807 0.78153 0.31765 0.0
N1713 N 0.43211 0.69811 0.37568 0.0
H1714 H 0.36287 0.71264 0.34852 0.0
H1715 H 0.38136 0.69892 0.37365 0.0
H1716 H 0.45001 0.69525 0.38515 0.0
H1717 H 0.41902 0.68214 0.37569 0.0
H1718 H 0.41785 0.79944 0.31967 0.0
H1719 H 0.38837 0.78243 0.31211 0.0
H1720 H 0.45771 0.79476 0.32699 0.0
H1721 H 0.47476 0.78414 0.35429 0.0
C1722 C 0.9699 0.35051 0.94995 0.0
C1723 C 0.99101 0.36885 0.95439 0.0
C1724 C 0.02114 0.33822 0.93941 0.0
C1725 C 0.99972 0.32064 0.93291 0.0
N1726 N 0.95309 0.31369 0.92525 0.0
N1727 N 0.03543 0.3826 0.94678 0.0
C1728 C 0.97389 0.32794 0.93602 0.0
C1729 C 0.01622 0.36351 0.94689 0.0
N1730 N 0.94642 0.35378 0.9602 0.0
N1731 N 0.0461 0.33051 0.9403 0.0
H1732 H 0.03232 0.40147 0.95174 0.0
H1733 H 0.05349 0.38023 0.93924 0.0
H1734 H 0.0508 0.3118 0.93667 0.0
H1735 H 0.06199 0.34206 0.94742 0.0
H1736 H 0.93138 0.33957 0.95971 0.0
H1737 H 0.94276 0.36953 0.9714 0.0
H1738 H 0.93409 0.31963 0.92493 0.0
H1739 H 0.95509 0.29741 0.91421 0.0
C1740 C 0.63256 0.78471 0.31841 0.0
C1741 C 0.62281 0.78765 0.29277 0.0
C1742 C 0.57857 0.77573 0.30547 0.0
C1743 C 0.58827 0.77395 0.33128 0.0
N1744 N 0.62278 0.78463 0.36311 0.0
N1745 N 0.58604 0.79231 0.26303 0.0
C1746 C 0.61475 0.78099 0.33799 0.0
C1747 C 0.5956 0.78525 0.28668 0.0
N1748 N 0.65875 0.78396 0.324 0.0
N1749 N 0.55368 0.76699 0.29856 0.0
H1750 H 0.59803 0.79959 0.24895 0.0
H1751 H 0.56623 0.79329 0.25827 0.0
H1752 H 0.54064 0.75956 0.31159 0.0
H1753 H 0.54662 0.76517 0.27958 0.0
H1754 H 0.66656 0.77904 0.34198 0.0
H1755 H 0.67265 0.78581 0.31022 0.0
H1756 H 0.64135 0.79208 0.36891 0.0
H1757 H 0.61001 0.78295 0.37796 0.0
C1758 C 0.04229 0.15142 0.95384 0.0
C1759 C 0.0214 0.13404 0.94549 0.0
C1760 C 0.00632 0.16503 0.91376 0.0
C1761 C 0.02809 0.18171 0.92109 0.0
N1762 N 0.06922 0.18946 0.94483 0.0
N1763 N 0.98588 0.12213 0.91527 0.0
C1764 C 0.04686 0.17445 0.94011 0.0
C1765 C 0.00406 0.14022 0.92476 0.0
N1766 N 0.05706 0.14642 0.97558 0.0
N1767 N 0.98758 0.17314 0.8967 0.0
H1768 H 0.98367 0.10383 0.92303 0.0
H1769 H 0.97438 0.12447 0.89857 0.0
H1770 H 0.98917 0.19088 0.88776 0.0
H1771 H 0.9698 0.16313 0.89261 0.0
H1772 H 0.07054 0.15967 0.98432 0.0
H1773 H 0.05444 0.12972 0.98624 0.0
H1774 H 0.08498 0.18377 0.95631 0.0
H1775 H 0.07299 0.20687 0.93566 0.0
C1776 C 0.38187 0.23974 0.17915 0.0
C1777 C 0.38406 0.26073 0.19642 0.0
C1778 C 0.41933 0.28068 0.17219 0.0
C1779 C 0.41851 0.25865 0.15627 0.0
N1780 N 0.40374 0.21443 0.14914 0.0
N1781 N 0.40794 0.29889 0.21249 0.0
C1782 C 0.40113 0.23735 0.16104 0.0
C1783 C 0.40374 0.28056 0.19387 0.0
N1784 N 0.36089 0.22253 0.17937 0.0
N1785 N 0.43415 0.30207 0.16603 0.0
H1786 H 0.39701 0.29929 0.22872 0.0
H1787 H 0.4237 0.3123 0.21301 0.0
H1788 H 0.44564 0.30295 0.15019 0.0
H1789 H 0.43334 0.31959 0.17533 0.0
H1790 H 0.35695 0.20849 0.16535 0.0
H1791 H 0.34605 0.22373 0.19208 0.0
H1792 H 0.39324 0.19765 0.15389 0.0
H1793 H 0.41838 0.21143 0.1366 0.0
C1794 C 0.54416 0.35208 0.04782 0.0
C1795 C 0.52231 0.36723 0.04361 0.0
C1796 C 0.49444 0.33389 0.06291 0.0
C1797 C 0.51661 0.3194 0.0686 0.0
N1798 N 0.56345 0.31916 0.07378 0.0
N1799 N 0.47883 0.37603 0.05479 0.0
C1800 C 0.54179 0.33 0.06347 0.0
C1801 C 0.49818 0.3593 0.05379 0.0
N1802 N 0.56668 0.35769 0.03575 0.0
N1803 N 0.46975 0.32307 0.06416 0.0
H1804 H 0.48115 0.39499 0.04878 0.0
H1805 H 0.4617 0.37186 0.06412 0.0
H1806 H 0.46559 0.30407 0.06903 0.0
H1807 H 0.45328 0.3323 0.05761 0.0
H1808 H 0.58213 0.34563 0.03628 0.0
H1809 H 0.56902 0.37296 0.02316 0.0
H1810 H 0.58222 0.32743 0.07235 0.0
H1811 H 0.56237 0.30359 0.0862 0.0
C1812 C 0.58504 0.20543 0.17826 0.0
C1813 C 0.59106 0.22705 0.19432 0.0
C1814 C 0.55932 0.25093 0.16926 0.0
C1815 C 0.55798 0.2317 0.14998 0.0
N1816 N 0.56831 0.18917 0.13697 0.0
N1817 N 0.56551 0.25757 0.21468 0.0
C1818 C 0.57043 0.20845 0.15471 0.0
C1819 C 0.57303 0.24653 0.19285 0.0
N1820 N 0.58943 0.18158 0.18744 0.0
N1821 N 0.54827 0.27376 0.165 0.0
H1822 H 0.57141 0.2508 0.23272 0.0
H1823 H 0.55065 0.27032 0.21477 0.0
H1824 H 0.53874 0.27835 0.14767 0.0
H1825 H 0.55083 0.28892 0.17802 0.0
H1826 H 0.58323 0.16476 0.17772 0.0
H1827 H 0.59604 0.17879 0.20639 0.0
H1828 H 0.57948 0.17318 0.13836 0.0
H1829 H 0.55655 0.18976 0.12019 0.0
C1830 C 0.49678 0.13301 0.07041 0.0
C1831 C 0.48287 0.12904 0.04651 0.0
C1832 C 0.4736 0.17444 0.04444 0.0
C1833 C 0.48513 0.17785 0.06957 0.0
N1834 N 0.50684 0.16079 0.10723 0.0
N1835 N 0.4561 0.14477 0.01141 0.0
C1836 C 0.49656 0.15723 0.08276 0.0
C1837 C 0.47099 0.1495 0.03355 0.0
N1838 N 0.51058 0.11371 0.08095 0.0
N1839 N 0.46485 0.19498 0.03105 0.0
H1840 H 0.45414 0.1269 0.00246 0.0
H1841 H 0.4442 0.15801 0.0027 0.0
H1842 H 0.46443 0.21327 0.03883 0.0
H1843 H 0.45942 0.19438 0.0116 0.0
H1844 H 0.52326 0.11594 0.09704 0.0
H1845 H 0.51086 0.09569 0.07244 0.0
H1846 H 0.51274 0.146 0.11907 0.0
H1847 H 0.50847 0.17861 0.11629 0.0
C1848 C 0.31842 0.4351 0.6954 0.0
C1849 C 0.30337 0.43102 0.71711 0.0
C1850 C 0.33284 0.46108 0.74162 0.0
C1851 C 0.35095 0.46039 0.72209 0.0
N1852 N 0.36018 0.44796 0.67899 0.0
N1853 N 0.28702 0.45859 0.74862 0.0
C1854 C 0.34348 0.44789 0.69845 0.0
C1855 C 0.30765 0.44914 0.73719 0.0
N1856 N 0.30727 0.42977 0.67162 0.0
N1857 N 0.33966 0.47247 0.76467 0.0
H1858 H 0.26794 0.4544 0.74143 0.0
H1859 H 0.28903 0.47348 0.76198 0.0
H1860 H 0.35819 0.48089 0.76918 0.0
H1861 H 0.32747 0.47138 0.78 0.0
H1862 H 0.31618 0.43456 0.65471 0.0
H1863 H 0.2877 0.42341 0.66905 0.0
H1864 H 0.3567 0.43669 0.66261 0.0
H1865 H 0.37824 0.45803 0.67981 0.0
C1866 C 0.3099 0.60709 0.77126 0.0
C1867 C 0.30217 0.62376 0.75123 0.0
C1868 C 0.33611 0.60829 0.72504 0.0
C1869 C 0.34625 0.59452 0.74635 0.0
N1870 N 0.34484 0.58367 0.79113 0.0
N1871 N 0.31125 0.6439 0.71085 0.0
C1872 C 0.33363 0.59455 0.76985 0.0
C1873 C 0.31617 0.62537 0.72858 0.0
N1874 N 0.2943 0.6028 0.79135 0.0
N1875 N 0.34466 0.60425 0.70114 0.0
H1876 H 0.29722 0.65726 0.71285 0.0
H1877 H 0.32287 0.64756 0.69539 0.0
H1878 H 0.3583 0.59092 0.69737 0.0
H1879 H 0.33604 0.61195 0.68463 0.0
H1880 H 0.29762 0.58893 0.80522 0.0
H1881 H 0.27665 0.61143 0.79282 0.0
H1882 H 0.3379 0.5855 0.80936 0.0
H1883 H 0.36246 0.57479 0.79106 0.0
C1884 C 0.8382 0.42986 0.47294 0.0
C1885 C 0.86136 0.42966 0.48883 0.0
C1886 C 0.84084 0.3972 0.5161 0.0
C1887 C 0.81911 0.39484 0.49824 0.0
N1888 N 0.79804 0.40694 0.45808 0.0
N1889 N 0.88612 0.41145 0.52405 0.0
C1890 C 0.81786 0.41082 0.47634 0.0
C1891 C 0.86302 0.41299 0.51014 0.0
N1892 N 0.83554 0.44849 0.45485 0.0
N1893 N 0.83997 0.38479 0.53906 0.0
H1894 H 0.9028 0.42285 0.52046 0.0
H1895 H 0.88937 0.39753 0.53787 0.0
H1896 H 0.82392 0.37323 0.54417 0.0
H1897 H 0.85402 0.38784 0.55396 0.0
H1898 H 0.81813 0.4513 0.44447 0.0
H1899 H 0.85014 0.46265 0.45179 0.0
H1900 H 0.79778 0.4159 0.44031 0.0
H1901 H 0.7827 0.39329 0.4598 0.0
C1902 C 0.69601 0.89466 0.74568 0.0
C1903 C 0.7149 0.89101 0.76586 0.0
C1904 C 0.70562 0.93219 0.78478 0.0
C1905 C 0.68973 0.93743 0.76265 0.0
N1906 N 0.67 0.9245 0.72155 0.0
N1907 N 0.73951 0.90681 0.80371 0.0
C1908 C 0.68481 0.9188 0.74302 0.0
C1909 C 0.71995 0.90975 0.78541 0.0
N1910 N 0.68856 0.87485 0.72936 0.0
N1911 N 0.70724 0.94883 0.80504 0.0
H1912 H 0.75047 0.89066 0.80493 0.0
H1913 H 0.74627 0.92114 0.8166 0.0
H1914 H 0.69774 0.96591 0.80493 0.0
H1915 H 0.71621 0.94478 0.82276 0.0
H1916 H 0.67316 0.87539 0.71571 0.0
H1917 H 0.6964 0.85692 0.73093 0.0
H1918 H 0.66817 0.91304 0.7052 0.0
H1919 H 0.6605 0.94153 0.71954 0.0
C1920 C 0.66974 0.56788 0.98613 0.0
C1921 C 0.65011 0.56714 0.00426 0.0
C1922 C 0.67377 0.60195 0.02848 0.0
C1923 C 0.69158 0.60482 0.00875 0.0
N1924 N 0.70505 0.59258 0.96719 0.0
N1925 N 0.63115 0.58586 0.04059 0.0
C1926 C 0.68926 0.58826 0.98715 0.0
C1927 C 0.6515 0.58482 0.0249 0.0
N1928 N 0.67012 0.54872 0.96839 0.0
N1929 N 0.67871 0.61484 0.05109 0.0
H1930 H 0.61443 0.57367 0.03858 0.0
H1931 H 0.62985 0.60023 0.05418 0.0
H1932 H 0.69545 0.62667 0.05475 0.0
H1933 H 0.66779 0.61168 0.06712 0.0
H1934 H 0.68543 0.54673 0.95642 0.0
H1935 H 0.65617 0.53345 0.9671 0.0
H1936 H 0.7023 0.58304 0.9497 0.0
H1937 H 0.71977 0.60712 0.96735 0.0
C1938 C 0.20476 0.5989 0.21907 0.0
C1939 C 0.20925 0.61899 0.23724 0.0
C1940 C 0.18485 0.59398 0.26843 0.0
C1941 C 0.17839 0.5748 0.24952 0.0
N1942 N 0.17699 0.5623 0.20512 0.0
N1943 N 0.19856 0.63832 0.27694 0.0
C1944 C 0.18684 0.57822 0.22431 0.0
C1945 C 0.19766 0.61738 0.26121 0.0
N1946 N 0.21831 0.59899 0.19728 0.0
N1947 N 0.18031 0.58938 0.29358 0.0
H1948 H 0.20759 0.65589 0.27217 0.0
H1949 H 0.18815 0.63896 0.29347 0.0
H1950 H 0.17208 0.57213 0.30014 0.0
H1951 H 0.1872 0.60172 0.30836 0.0
H1952 H 0.21781 0.58344 0.18478 0.0
H1953 H 0.2319 0.61363 0.19283 0.0
H1954 H 0.18045 0.56533 0.18587 0.0
H1955 H 0.16307 0.54766 0.20827 0.0
C1956 C 0.88254 0.57792 0.004 0.0
C1957 C 0.87937 0.55684 0.02076 0.0
C1958 C 0.83662 0.57061 0.03171 0.0
C1959 C 0.83958 0.59152 0.01462 0.0
N1960 N 0.86196 0.6116 0.97996 0.0
N1961 N 0.85133 0.52938 0.04557 0.0
C1962 C 0.86152 0.59406 0.99931 0.0
C1963 C 0.85565 0.55195 0.03293 0.0
N1964 N 0.90598 0.58314 0.99341 0.0
N1965 N 0.81664 0.56942 0.04799 0.0
H1966 H 0.865 0.51539 0.04696 0.0
H1967 H 0.83341 0.52352 0.05261 0.0
H1968 H 0.80235 0.58275 0.04799 0.0
H1969 H 0.81533 0.55634 0.06291 0.0
H1970 H 0.91051 0.59991 0.98351 0.0
H1971 H 0.92165 0.57144 0.99596 0.0
H1972 H 0.87623 0.61277 0.96655 0.0
H1973 H 0.84663 0.6234 0.97581 0.0
C1974 C 0.129 0.91782 0.98083 0.0
C1975 C 0.13097 0.93915 0.99769 0.0
C1976 C 0.17127 0.92408 0.01788 0.0
C1977 C 0.17013 0.90352 4e-05 0.0
N1978 N 0.15116 0.8837 0.9613 0.0
N1979 N 0.15634 0.96569 0.02855 0.0
C1980 C 0.14992 0.90123 0.98054 0.0
C1981 C 0.15289 0.94326 0.01505 0.0
N1982 N 0.10678 0.91291 0.96575 0.0
N1983 N 0.18891 0.92457 0.03837 0.0
H1984 H 0.14315 0.98012 0.02712 0.0
H1985 H 0.17334 0.97098 0.03939 0.0
H1986 H 0.2025 0.91073 0.04149 0.0
H1987 H 0.18863 0.93745 0.05353 0.0
H1988 H 0.10297 0.89609 0.95523 0.0
H1989 H 0.09116 0.9248 0.96523 0.0
H1990 H 0.13843 0.88283 0.94515 0.0
H1991 H 0.16645 0.87153 0.96025 0.0
loop_
_geom_bond_atom_site_label_1
_geom_bond_atom_site_label_2
_geom_bond_distance
_geom_bond_site_symmetry_2
_ccdc_geom_bond_type
C0 C1 1.391 . S
C0 C4 1.391 . S
C0 H42 0.948 . S
C1 C0 1.391 . S
C1 C2 1.364 1_455 S
C2 C1 1.364 1_655 S
C2 H58 0.976 . S
C2 C59 1.391 . S
C3 C4 1.391 . S
C3 C7 1.397 1_556 S
C3 C59 1.419 1_455 S
C4 C0 1.391 . S
C4 C3 1.391 . S
C4 C5 1.399 . S
C5 C4 1.399 . S
C5 C8 1.396 1_556 S
C5 C17 1.453 . S
C5 C18 1.684 . S
H6 C30 0.948 . S
C7 C3 1.397 1_554 S
C7 C8 1.394 . S
C7 C26 1.723 . S
C8 C5 1.396 1_554 S
C8 C7 1.394 . S
C8 C38 1.723 . S
H9 C32 0.947 . S
H10 C33 0.948 . S
H11 C39 0.982 1_545 S
H12 C40 0.979 . S
H13 C40 0.980 . S
H14 C40 0.983 . S
H15 C39 0.979 . S
H16 C39 0.977 . S
C17 C5 1.453 . S
C17 H46 0.982 . S
C17 H47 0.979 . S
C17 H48 0.977 . S
C18 C5 1.684 . S
C18 H43 0.979 . S
C18 H44 0.980 . S
C18 H45 0.983 . S
C19 C20 1.391 . S
C19 C24 1.391 . S
C19 H49 0.948 . S
C20 C19 1.391 . S
C20 C21 1.394 . S
C21 C20 1.394 . S
C21 C22 1.392 1_655 S
C21 H50 0.944 1_545 S
C22 C21 1.392 1_455 S
C22 C23 1.419 . S
C22 H51 0.948 1_545 S
C23 C22 1.419 . S
C23 C24 1.391 1_455 S
C23 C27 1.397 . S
C24 C19 1.391 . S
C24 C23 1.391 1_655 S
C24 C25 1.399 . S
C25 C24 1.399 . S
C25 C26 1.396 1_655 S
C25 C28 1.453 . S
C25 C29 1.684 . S
C26 C7 1.723 . S
C26 C25 1.396 1_455 S
C26 C27 1.394 . S
C27 C23 1.397 . S
C27 C26 1.394 . S
C27 C37 1.723 . S
C28 C25 1.453 . S
C28 H52 0.982 1_655 S
C28 H53 0.979 . S
C28 H54 0.977 . S
C29 C25 1.684 . S
C29 H55 0.979 . S
C29 H56 0.980 . S
C29 H57 0.983 . S
C30 H6 0.948 . S
C30 C31 1.391 . S
C30 C35 1.391 . S
C31 C30 1.391 . S
C31 C32 1.391 1_554 S
C32 H9 0.947 . S
C32 C31 1.391 1_556 S
C32 C33 1.392 1_565 S
C33 H10 0.948 . S
C33 C32 1.392 1_545 S
C33 C34 1.419 1_556 S
C34 C33 1.419 1_554 S
C34 C35 1.391 1_545 S
C34 C38 1.397 . S
C35 C30 1.391 . S
C35 C34 1.391 1_565 S
C35 C36 1.399 . S
C36 C35 1.399 . S
C36 C37 1.396 1_565 S
C36 C39 1.453 . S
C36 C40 1.684 . S
C37 C27 1.723 . S
C37 C36 1.396 1_545 S
C37 C38 1.394 . S
C38 C8 1.723 . S
C38 C34 1.397 . S
C38 C37 1.394 . S
C39 H11 0.982 1_565 S
C39 H15 0.979 . S
C39 H16 0.977 . S
C39 C36 1.453 . S
C40 H12 0.979 . S
C40 H13 0.980 . S
C40 H14 0.983 . S
C40 C36 1.684 . S
H41 C59 0.947 1_554 S
H42 C0 0.948 . S
H43 C18 0.979 . S
H44 C18 0.980 . S
H45 C18 0.983 . S
H46 C17 0.982 . S
H47 C17 0.979 . S
H48 C17 0.977 . S
H49 C19 0.948 . S
H50 C21 0.944 1_565 S
H51 C22 0.948 1_565 S
H52 C28 0.982 1_455 S
H53 C28 0.979 . S
H54 C28 0.977 . S
H55 C29 0.979 . S
H56 C29 0.980 . S
H57 C29 0.983 . S
H58 C2 0.976 . S
C59 C2 1.391 . S
C59 C3 1.419 1_655 S
C59 H41 0.947 1_556 S
C60 C61 1.391 . S
C60 C64 1.391 . S
C60 H102 0.948 . S
C61 C60 1.391 . S
C61 C62 1.391 . S
C62 C61 1.391 . S
C62 H118 0.947 . S
C62 C119 1.392 . S
C63 C64 1.391 . S
C63 C67 1.397 . S
C63 C119 1.419 . S
C64 C60 1.391 . S
C64 C63 1.391 . S
C64 C65 1.399 . S
C65 C64 1.399 . S
C65 C68 1.396 . S
C65 C77 1.453 . S
C65 C78 1.684 . S
H66 C90 0.948 . S
C67 C63 1.397 . S
C67 C68 1.394 . S
C67 C86 1.723 . S
C68 C65 1.396 . S
C68 C67 1.394 . S
C68 C98 1.723 . S
H69 C92 0.947 . S
H70 C93 0.948 . S
H71 C99 0.982 . S
H72 C100 0.979 . S
H73 C100 0.980 . S
H74 C100 0.983 . S
H75 C99 0.979 . S
H76 C99 0.977 . S
C77 C65 1.453 . S
C77 H106 0.982 . S
C77 H107 0.979 . S
C77 H108 0.977 . S
C78 C65 1.684 . S
C78 H103 0.979 . S
C78 H104 0.980 . S
C78 H105 0.983 . S
C79 C80 1.391 . S
C79 C84 1.391 . S
C79 H109 0.948 . S
C80 C79 1.391 . S
C80 C81 1.391 . S
C81 C80 1.391 . S
C81 C82 1.392 . S
C81 H110 0.947 . S
C82 C81 1.392 . S
C82 C83 1.419 . S
C82 H111 0.948 . S
C83 C82 1.419 . S
C83 C84 1.391 . S
C83 C87 1.397 . S
C84 C79 1.391 . S
C84 C83 1.391 . S
C84 C85 1.399 . S
C85 C84 1.399 . S
C85 C86 1.396 . S
C85 C88 1.453 . S
C85 C89 1.684 . S
C86 C67 1.723 . S
C86 C85 1.396 . S
C86 C87 1.394 . S
C87 C83 1.397 . S
C87 C86 1.394 . S
C87 C97 1.723 . S
C88 C85 1.453 . S
C88 H112 0.982 . S
C88 H113 0.979 . S
C88 H114 0.977 . S
C89 C85 1.684 . S
C89 H115 0.979 . S
C89 H116 0.980 . S
C89 H117 0.983 . S
C90 H66 0.948 . S
C90 C91 1.391 . S
C90 C95 1.391 . S
C91 C90 1.391 . S
C91 C92 1.391 . S
C92 H69 0.947 . S
C92 C91 1.391 . S
C92 C93 1.392 . S
C93 H70 0.948 . S
C93 C92 1.392 . S
C93 C94 1.419 . S
C94 C93 1.419 . S
C94 C95 1.391 . S
C94 C98 1.397 . S
C95 C90 1.391 . S
C95 C94 1.391 . S
C95 C96 1.399 . S
C96 C95 1.399 . S
C96 C97 1.396 . S
C96 C99 1.453 . S
C96 C100 1.684 . S
C97 C87 1.723 . S
C97 C96 1.396 . S
C97 C98 1.394 . S
C98 C68 1.723 . S
C98 C94 1.397 . S
C98 C97 1.394 . S
C99 H71 0.982 . S
C99 H75 0.979 . S
C99 H76 0.977 . S
C99 C96 1.453 . S
C100 H72 0.979 . S
C100 H73 0.980 . S
C100 H74 0.983 . S
C100 C96 1.684 . S
H101 C119 0.948 . S
H102 C60 0.948 . S
H103 C78 0.979 . S
H104 C78 0.980 . S
H105 C78 0.983 . S
H106 C77 0.982 . S
H107 C77 0.979 . S
H108 C77 0.977 . S
H109 C79 0.948 . S
H110 C81 0.947 . S
H111 C82 0.948 . S
H112 C88 0.982 . S
H113 C88 0.979 . S
H114 C88 0.977 . S
H115 C89 0.979 . S
H116 C89 0.980 . S
H117 C89 0.983 . S
H118 C62 0.947 . S
C119 C62 1.392 . S
C119 C63 1.419 . S
C119 H101 0.948 . S
C120 C121 1.391 1_455 S
C120 C124 1.391 1_556 S
C120 H162 0.941 1_556 S
C121 C120 1.391 1_655 S
C121 C122 1.391 . S
C122 C121 1.391 . S
C122 H178 0.947 . S
C122 C179 1.392 . S
C123 C124 1.391 1_655 S
C123 C127 1.397 . S
C123 C179 1.419 1_554 S
C124 C120 1.391 1_554 S
C124 C123 1.391 1_455 S
C124 C125 1.399 . S
C125 C124 1.399 . S
C125 C128 1.368 1_455 S
C125 C137 1.453 . S
C125 C138 1.684 . S
H126 C150 0.948 . S
C127 C123 1.397 . S
C127 C128 1.425 . S
C127 C146 1.723 . S
C128 C125 1.368 1_655 S
C128 C127 1.425 . S
C128 C158 1.723 . S
H129 C152 0.947 . S
H130 C153 0.948 . S
H131 C159 0.982 . S
H132 C160 0.979 1_455 S
H133 C160 0.980 . S
H134 C160 0.983 . S
H135 C159 0.979 . S
H136 C159 0.977 . S
C137 C125 1.453 . S
C137 H166 0.976 1_455 S
C137 H167 0.979 . S
C137 H168 0.977 . S
C138 C125 1.684 . S
C138 H163 0.979 . S
C138 H164 0.980 . S
C138 H165 0.983 . S
C139 C140 1.391 . S
C139 C144 1.391 . S
C139 H169 0.913 1_554 S
C140 C139 1.391 . S
C140 C141 1.391 . S
C141 C140 1.391 . S
C141 C142 1.392 . S
C141 H170 0.947 . S
C142 C141 1.392 . S
C142 C143 1.419 . S
C142 H171 0.948 . S
C143 C142 1.419 . S
C143 C144 1.391 . S
C143 C147 1.397 . S
C144 C139 1.391 . S
C144 C143 1.391 . S
C144 C145 1.399 . S
C145 C144 1.399 . S
C145 C146 1.396 . S
C145 C148 1.453 . S
C145 C149 1.684 1_554 S
C146 C127 1.723 . S
C146 C145 1.396 . S
C146 C147 1.394 . S
C147 C143 1.397 . S
C147 C146 1.394 . S
C147 C157 1.723 . S
C148 C145 1.453 . S
C148 H172 0.982 . S
C148 H173 0.979 1_554 S
C148 H174 0.977 1_554 S
C149 C145 1.684 1_556 S
C149 H175 0.979 . S
C149 H176 0.980 . S
C149 H177 0.983 . S
C150 H126 0.948 . S
C150 C151 1.391 . S
C150 C155 1.391 . S
C151 C150 1.391 . S
C151 C152 1.391 . S
C152 H129 0.947 . S
C152 C151 1.391 . S
C152 C153 1.392 . S
C153 H130 0.948 . S
C153 C152 1.392 . S
C153 C154 1.419 . S
C154 C153 1.419 . S
C154 C155 1.391 . S
C154 C158 1.370 1_455 S
C155 C150 1.391 . S
C155 C154 1.391 . S
C155 C156 1.399 1_455 S
C156 C155 1.399 1_655 S
C156 C157 1.396 . S
C156 C159 1.453 . S
C156 C160 1.684 . S
C157 C147 1.723 . S
C157 C156 1.396 . S
C157 C158 1.423 . S
C158 C128 1.723 . S
C158 C154 1.370 1_655 S
C158 C157 1.423 . S
C159 H131 0.982 . S
C159 H135 0.979 . S
C159 H136 0.977 . S
C159 C156 1.453 . S
C160 H132 0.979 1_655 S
C160 H133 0.980 . S
C160 H134 0.983 . S
C160 C156 1.684 . S
H161 C179 0.948 . S
H162 C120 0.941 1_554 S
H163 C138 0.979 . S
H164 C138 0.980 . S
H165 C138 0.983 . S
H166 C137 0.976 1_655 S
H167 C137 0.979 . S
H168 C137 0.977 . S
H169 C139 0.913 1_556 S
H170 C141 0.947 . S
H171 C142 0.948 . S
H172 C148 0.982 . S
H173 C148 0.979 1_556 S
H174 C148 0.977 1_556 S
H175 C149 0.979 . S
H176 C149 0.980 . S
H177 C149 0.983 . S
H178 C122 0.947 . S
C179 C122 1.392 . S
C179 C123 1.419 1_556 S
C179 H161 0.948 . S
C180 C181 1.391 . S
C180 C184 1.391 . S
C180 H222 0.948 . S
C181 C180 1.391 . S
C181 C182 1.391 . S
C182 C181 1.391 . S
C182 H238 0.947 . S
C182 C239 1.392 . S
C183 C184 1.391 . S
C183 C187 1.397 . S
C183 C239 1.419 . S
C184 C180 1.391 . S
C184 C183 1.391 . S
C184 C185 1.399 . S
C185 C184 1.399 . S
C185 C188 1.396 . S
C185 C197 1.453 . S
C185 C198 1.684 . S
H186 C210 0.948 . S
C187 C183 1.397 . S
C187 C188 1.394 . S
C187 C206 1.723 . S
C188 C185 1.396 . S
C188 C187 1.394 . S
C188 C218 1.723 . S
H189 C212 0.947 . S
H190 C213 0.948 . S
H191 C219 0.982 . S
H192 C220 0.979 . S
H193 C220 0.980 . S
H194 C220 0.983 . S
H195 C219 0.979 . S
H196 C219 0.977 . S
C197 C185 1.453 . S
C197 H226 0.982 . S
C197 H227 0.979 . S
C197 H228 0.977 . S
C198 C185 1.684 . S
C198 H223 0.979 . S
C198 H224 0.980 . S
C198 H225 0.983 . S
C199 C200 1.391 . S
C199 C204 1.391 . S
C199 H229 0.948 . S
C200 C199 1.391 . S
C200 C201 1.391 . S
C201 C200 1.391 . S
C201 C202 1.392 . S
C201 H230 0.947 . S
C202 C201 1.392 . S
C202 C203 1.419 . S
C202 H231 0.948 . S
C203 C202 1.419 . S
C203 C204 1.391 . S
C203 C207 1.397 . S
C204 C199 1.391 . S
C204 C203 1.391 . S
C204 C205 1.399 . S
C205 C204 1.399 . S
C205 C206 1.396 . S
C205 C208 1.453 . S
C205 C209 1.684 . S
C206 C187 1.723 . S
C206 C205 1.396 . S
C206 C207 1.394 . S
C207 C203 1.397 . S
C207 C206 1.394 . S
C207 C217 1.723 . S
C208 C205 1.453 . S
C208 H232 0.982 . S
C208 H233 0.979 . S
C208 H234 0.977 . S
C209 C205 1.684 . S
C209 H235 0.979 . S
C209 H236 0.980 . S
C209 H237 0.983 . S
C210 H186 0.948 . S
C210 C211 1.391 . S
C210 C215 1.391 . S
C211 C210 1.391 . S
C211 C212 1.391 . S
C212 H189 0.947 . S
C212 C211 1.391 . S
C212 C213 1.392 . S
C213 H190 0.948 . S
C213 C212 1.392 . S
C213 C214 1.419 . S
C214 C213 1.419 . S
C214 C215 1.391 . S
C214 C218 1.397 . S
C215 C210 1.391 . S
C215 C214 1.391 . S
C215 C216 1.399 . S
C216 C215 1.399 . S
C216 C217 1.396 . S
C216 C219 1.453 . S
C216 C220 1.684 . S
C217 C207 1.723 . S
C217 C216 1.396 . S
C217 C218 1.394 . S
C218 C188 1.723 . S
C218 C214 1.397 . S
C218 C217 1.394 . S
C219 H191 0.982 . S
C219 H195 0.979 . S
C219 H196 0.977 . S
C219 C216 1.453 . S
C220 H192 0.979 . S
C220 H193 0.980 . S
C220 H194 0.983 . S
C220 C216 1.684 . S
H221 C239 0.948 . S
H222 C180 0.948 . S
H223 C198 0.979 . S
H224 C198 0.980 . S
H225 C198 0.983 . S
H226 C197 0.982 . S
H227 C197 0.979 . S
H228 C197 0.977 . S
H229 C199 0.948 . S
H230 C201 0.947 . S
H231 C202 0.948 . S
H232 C208 0.982 . S
H233 C208 0.979 . S
H234 C208 0.977 . S
H235 C209 0.979 . S
H236 C209 0.980 . S
H237 C209 0.983 . S
H238 C182 0.947 . S
C239 C182 1.392 . S
C239 C183 1.419 . S
C239 H221 0.948 . S
C240 C241 1.391 . S
C240 C244 1.391 . S
C240 H282 0.948 . S
C241 C240 1.391 . S
C241 C242 1.391 . S
C242 C241 1.391 . S
C242 H298 0.947 1_455 S
C242 C299 1.392 . S
C243 C244 1.391 . S
C243 C247 1.397 . S
C243 C299 1.419 . S
C244 C240 1.391 . S
C244 C243 1.391 . S
C244 C245 1.399 . S
C245 C244 1.399 . S
C245 C248 1.396 . S
C245 C257 1.453 . S
C245 C258 1.684 . S
H246 C270 0.948 . S
C247 C243 1.397 . S
C247 C248 1.394 . S
C247 C266 1.723 . S
C248 C245 1.396 . S
C248 C247 1.394 . S
C248 C278 1.723 . S
H249 C272 0.947 . S
H250 C273 0.948 . S
H251 C279 0.982 . S
H252 C280 0.979 . S
H253 C280 0.980 . S
H254 C280 0.983 . S
H255 C279 0.979 . S
H256 C279 0.977 . S
C257 C245 1.453 . S
C257 H286 0.982 . S
C257 H287 0.979 . S
C257 H288 0.977 . S
C258 C245 1.684 . S
C258 H283 0.979 . S
C258 H284 0.980 . S
C258 H285 0.983 . S
C259 C260 1.391 . S
C259 C264 1.391 1_655 S
C259 H289 0.948 . S
C260 C259 1.391 . S
C260 C261 1.391 1_665 S
C261 C260 1.391 1_445 S
C261 C262 1.392 . S
C261 H290 0.947 . S
C262 C261 1.392 . S
C262 C263 1.419 1_545 S
C262 H291 0.948 . S
C263 C262 1.419 1_565 S
C263 C264 1.391 . S
C263 C267 1.397 . S
C264 C259 1.391 1_455 S
C264 C263 1.391 . S
C264 C265 1.399 . S
C265 C264 1.399 . S
C265 C266 1.396 . S
C265 C268 1.453 1_455 S
C265 C269 1.684 1_455 S
C266 C247 1.723 . S
C266 C265 1.396 . S
C266 C267 1.394 . S
C267 C263 1.397 . S
C267 C266 1.394 . S
C267 C277 1.744 . S
C268 C265 1.453 1_655 S
C268 H292 0.982 . S
C268 H293 0.979 . S
C268 H294 0.977 . S
C269 C265 1.684 1_655 S
C269 H295 0.979 1_655 S
C269 H296 0.980 . S
C269 H297 0.983 . S
C270 H246 0.948 . S
C270 C271 1.391 . S
C270 C275 1.391 . S
C271 C270 1.391 . S
C271 C272 1.391 . S
C272 H249 0.947 . S
C272 C271 1.391 . S
C272 C273 1.392 1_545 S
C273 H250 0.948 . S
C273 C272 1.392 1_565 S
C273 C274 1.416 1_565 S
C274 C273 1.416 1_545 S
C274 C275 1.401 . S
C274 C278 1.391 1_545 S
C275 C270 1.391 . S
C275 C274 1.401 . S
C275 C276 1.399 . S
C276 C275 1.399 . S
C276 C277 1.369 1_545 S
C276 C279 1.453 . S
C276 C280 1.684 . S
C277 C267 1.744 . S
C277 C276 1.369 1_565 S
C277 C278 1.415 . S
C278 C248 1.723 . S
C278 C274 1.391 1_565 S
C278 C277 1.415 . S
C279 H251 0.982 . S
C279 H255 0.979 . S
C279 H256 0.977 . S
C279 C276 1.453 . S
C280 H252 0.979 . S
C280 H253 0.980 . S
C280 H254 0.983 . S
C280 C276 1.684 . S
H281 C299 0.948 . S
H282 C240 0.948 . S
H283 C258 0.979 . S
H284 C258 0.980 . S
H285 C258 0.983 . S
H286 C257 0.982 . S
H287 C257 0.979 . S
H288 C257 0.977 . S
H289 C259 0.948 . S
H290 C261 0.947 . S
H291 C262 0.948 . S
H292 C268 0.982 . S
H293 C268 0.979 . S
H294 C268 0.977 . S
H295 C269 0.979 1_455 S
H296 C269 0.980 . S
H297 C269 0.983 . S
H298 C242 0.947 1_655 S
C299 C242 1.392 . S
C299 C243 1.419 . S
C299 H281 0.948 . S
C300 C301 1.391 . S
C300 C304 1.391 . S
C300 H342 0.948 . S
C301 C300 1.391 . S
C301 C302 1.391 . S
C302 C301 1.391 . S
C302 H358 0.947 . S
C302 C359 1.392 . S
C303 C304 1.391 . S
C303 C307 1.397 . S
C303 C359 1.419 . S
C304 C300 1.391 . S
C304 C303 1.391 . S
C304 C305 1.399 . S
C305 C304 1.399 . S
C305 C308 1.396 . S
C305 C317 1.453 . S
C305 C318 1.684 . S
H306 C330 0.948 . S
C307 C303 1.397 . S
C307 C308 1.394 . S
C307 C326 1.723 . S
C308 C305 1.396 . S
C308 C307 1.394 . S
C308 C338 1.723 . S
H309 C332 0.947 . S
H310 C333 0.948 . S
H311 C339 0.982 . S
H312 C340 0.979 . S
H313 C340 0.980 . S
H314 C340 0.983 . S
H315 C339 0.979 . S
H316 C339 0.977 . S
C317 C305 1.453 . S
C317 H346 0.982 . S
C317 H347 0.979 . S
C317 H348 0.977 . S
C318 C305 1.684 . S
C318 H343 0.979 . S
C318 H344 0.980 . S
C318 H345 0.983 . S
C319 C320 1.391 . S
C319 C324 1.391 . S
C319 H349 0.948 . S
C320 C319 1.391 . S
C320 C321 1.391 . S
C321 C320 1.391 . S
C321 C322 1.392 . S
C321 H350 0.947 . S
C322 C321 1.392 . S
C322 C323 1.419 . S
C322 H351 0.948 . S
C323 C322 1.419 . S
C323 C324 1.391 . S
C323 C327 1.397 . S
C324 C319 1.391 . S
C324 C323 1.391 . S
C324 C325 1.399 . S
C325 C324 1.399 . S
C325 C326 1.396 . S
C325 C328 1.453 . S
C325 C329 1.684 . S
C326 C307 1.723 . S
C326 C325 1.396 . S
C326 C327 1.394 . S
C327 C323 1.397 . S
C327 C326 1.394 . S
C327 C337 1.723 . S
C328 C325 1.453 . S
C328 H352 0.982 . S
C328 H353 0.979 . S
C328 H354 0.977 . S
C329 C325 1.684 . S
C329 H355 0.979 . S
C329 H356 0.980 . S
C329 H357 0.983 . S
C330 H306 0.948 . S
C330 C331 1.391 . S
C330 C335 1.391 . S
C331 C330 1.391 . S
C331 C332 1.391 . S
C332 H309 0.947 . S
C332 C331 1.391 . S
C332 C333 1.392 . S
C333 H310 0.948 . S
C333 C332 1.392 . S
C333 C334 1.419 . S
C334 C333 1.419 . S
C334 C335 1.391 . S
C334 C338 1.397 . S
C335 C330 1.391 . S
C335 C334 1.391 . S
C335 C336 1.399 . S
C336 C335 1.399 . S
C336 C337 1.396 . S
C336 C339 1.453 . S
C336 C340 1.684 . S
C337 C327 1.723 . S
C337 C336 1.396 . S
C337 C338 1.394 . S
C338 C308 1.723 . S
C338 C334 1.397 . S
C338 C337 1.394 . S
C339 H311 0.982 . S
C339 H315 0.979 . S
C339 H316 0.977 . S
C339 C336 1.453 . S
C340 H312 0.979 . S
C340 H313 0.980 . S
C340 H314 0.983 . S
C340 C336 1.684 . S
H341 C359 0.948 . S
H342 C300 0.948 . S
H343 C318 0.979 . S
H344 C318 0.980 . S
H345 C318 0.983 . S
H346 C317 0.982 . S
H347 C317 0.979 . S
H348 C317 0.977 . S
H349 C319 0.948 . S
H350 C321 0.947 . S
H351 C322 0.948 . S
H352 C328 0.982 . S
H353 C328 0.979 . S
H354 C328 0.977 . S
H355 C329 0.979 . S
H356 C329 0.980 . S
H357 C329 0.983 . S
H358 C302 0.947 . S
C359 C302 1.392 . S
C359 C303 1.419 . S
C359 H341 0.948 . S
C360 C361 1.391 . S
C360 C364 1.391 . S
C360 H402 0.948 . S
C361 C360 1.391 . S
C361 C362 1.391 . S
C362 C361 1.391 . S
C362 H418 0.947 . S
C362 C419 1.392 . S
C363 C364 1.391 . S
C363 C367 1.397 . S
C363 C419 1.419 . S
C364 C360 1.391 . S
C364 C363 1.391 . S
C364 C365 1.399 . S
C365 C364 1.399 . S
C365 C368 1.396 . S
C365 C377 1.453 . S
C365 C378 1.684 . S
H366 C390 0.948 1_455 S
C367 C363 1.397 . S
C367 C368 1.394 . S
C367 C386 1.723 . S
C368 C365 1.396 . S
C368 C367 1.394 . S
C368 C398 1.723 . S
H369 C392 0.947 . S
H370 C393 0.948 . S
H371 C399 0.982 1_655 S
H372 C400 0.979 . S
H373 C400 0.980 . S
H374 C400 0.983 . S
H375 C399 0.979 . S
H376 C399 0.977 . S
C377 C365 1.453 . S
C377 H406 0.982 . S
C377 H407 0.979 . S
C377 H408 0.977 . S
C378 C365 1.684 . S
C378 H403 0.979 . S
C378 H404 0.980 . S
C378 H405 0.983 . S
C379 C380 1.391 . S
C379 C384 1.405 . S
C379 H409 0.948 . S
C380 C379 1.391 . S
C380 C381 1.391 . S
C381 C380 1.391 . S
C381 C382 1.392 . S
C381 H410 0.947 . S
C382 C381 1.392 . S
C382 C383 1.419 . S
C382 H411 0.948 . S
C383 C382 1.419 . S
C383 C384 1.393 . S
C383 C387 1.397 1_455 S
C384 C379 1.405 . S
C384 C383 1.393 . S
C384 C385 1.382 1_455 S
C385 C384 1.382 1_655 S
C385 C386 1.396 . S
C385 C388 1.453 . S
C385 C389 1.684 . S
C386 C367 1.723 . S
C386 C385 1.396 . S
C386 C387 1.394 . S
C387 C383 1.397 1_655 S
C387 C386 1.394 . S
C387 C397 1.723 . S
C388 C385 1.453 . S
C388 H412 0.982 . S
C388 H413 0.979 . S
C388 H414 0.977 . S
C389 C385 1.684 . S
C389 H415 0.979 . S
C389 H416 0.980 . S
C389 H417 0.983 . S
C390 H366 0.948 1_655 S
C390 C391 1.391 . S
C390 C395 1.391 . S
C391 C390 1.391 . S
C391 C392 1.391 . S
C392 H369 0.947 . S
C392 C391 1.391 . S
C392 C393 1.392 . S
C393 H370 0.948 . S
C393 C392 1.392 . S
C393 C394 1.419 . S
C394 C393 1.419 . S
C394 C395 1.391 . S
C394 C398 1.397 . S
C395 C390 1.391 . S
C395 C394 1.391 . S
C395 C396 1.399 1_655 S
C396 C395 1.399 1_455 S
C396 C397 1.396 1_455 S
C396 C399 1.453 . S
C396 C400 1.684 . S
C397 C387 1.723 . S
C397 C396 1.396 1_655 S
C397 C398 1.394 . S
C398 C368 1.723 . S
C398 C394 1.397 . S
C398 C397 1.394 . S
C399 H371 0.982 1_455 S
C399 H375 0.979 . S
C399 H376 0.977 . S
C399 C396 1.453 . S
C400 H372 0.979 . S
C400 H373 0.980 . S
C400 H374 0.983 . S
C400 C396 1.684 . S
H401 C419 0.948 . S
H402 C360 0.948 . S
H403 C378 0.979 . S
H404 C378 0.980 . S
H405 C378 0.983 . S
H406 C377 0.982 . S
H407 C377 0.979 . S
H408 C377 0.977 . S
H409 C379 0.948 . S
H410 C381 0.947 . S
H411 C382 0.948 . S
H412 C388 0.982 . S
H413 C388 0.979 . S
H414 C388 0.977 . S
H415 C389 0.979 . S
H416 C389 0.980 . S
H417 C389 0.983 . S
H418 C362 0.947 . S
C419 C362 1.392 . S
C419 C363 1.419 . S
C419 H401 0.948 . S
C420 C421 1.391 . S
C420 C424 1.391 . S
C420 H462 0.948 . S
C421 C420 1.391 . S
C421 C422 1.391 . S
C422 C421 1.391 . S
C422 H478 0.947 . S
C422 C479 1.392 . S
C423 C424 1.391 . S
C423 C427 1.397 . S
C423 C479 1.419 . S
C424 C420 1.391 . S
C424 C423 1.391 . S
C424 C425 1.399 . S
C425 C424 1.399 . S
C425 C428 1.396 . S
C425 C437 1.453 . S
C425 C438 1.684 . S
H426 C450 0.948 . S
C427 C423 1.397 . S
C427 C428 1.394 . S
C427 C446 1.723 . S
C428 C425 1.396 . S
C428 C427 1.394 . S
C428 C458 1.723 . S
H429 C452 0.947 . S
H430 C453 0.948 . S
H431 C459 0.982 . S
H432 C460 0.979 . S
H433 C460 0.980 . S
H434 C460 0.983 . S
H435 C459 0.979 . S
H436 C459 0.977 . S
C437 C425 1.453 . S
C437 H466 0.982 . S
C437 H467 0.979 . S
C437 H468 0.977 . S
C438 C425 1.684 . S
C438 H463 0.979 . S
C438 H464 0.980 . S
C438 H465 0.983 . S
C439 C440 1.391 . S
C439 C444 1.391 . S
C439 H469 0.948 . S
C440 C439 1.391 . S
C440 C441 1.391 . S
C441 C440 1.391 . S
C441 C442 1.392 . S
C441 H470 0.947 . S
C442 C441 1.392 . S
C442 C443 1.419 . S
C442 H471 0.948 . S
C443 C442 1.419 . S
C443 C444 1.391 . S
C443 C447 1.397 . S
C444 C439 1.391 . S
C444 C443 1.391 . S
C444 C445 1.399 . S
C445 C444 1.399 . S
C445 C446 1.396 . S
C445 C448 1.453 . S
C445 C449 1.684 . S
C446 C427 1.723 . S
C446 C445 1.396 . S
C446 C447 1.394 . S
C447 C443 1.397 . S
C447 C446 1.394 . S
C447 C457 1.723 . S
C448 C445 1.453 . S
C448 H472 0.982 . S
C448 H473 0.979 . S
C448 H474 0.977 . S
C449 C445 1.684 . S
C449 H475 0.979 . S
C449 H476 0.980 . S
C449 H477 0.983 . S
C450 H426 0.948 . S
C450 C451 1.391 . S
C450 C455 1.391 . S
C451 C450 1.391 . S
C451 C452 1.391 . S
C452 H429 0.947 . S
C452 C451 1.391 . S
C452 C453 1.392 . S
C453 H430 0.948 . S
C453 C452 1.392 . S
C453 C454 1.419 . S
C454 C453 1.419 . S
C454 C455 1.391 . S
C454 C458 1.397 . S
C455 C450 1.391 . S
C455 C454 1.391 . S
C455 C456 1.399 . S
C456 C455 1.399 . S
C456 C457 1.396 . S
C456 C459 1.453 . S
C456 C460 1.684 . S
C457 C447 1.723 . S
C457 C456 1.396 . S
C457 C458 1.394 . S
C458 C428 1.723 . S
C458 C454 1.397 . S
C458 C457 1.394 . S
C459 H431 0.982 . S
C459 H435 0.979 . S
C459 H436 0.977 . S
C459 C456 1.453 . S
C460 H432 0.979 . S
C460 H433 0.980 . S
C460 H434 0.983 . S
C460 C456 1.684 . S
H461 C479 0.948 . S
H462 C420 0.948 . S
H463 C438 0.979 . S
H464 C438 0.980 . S
H465 C438 0.983 . S
H466 C437 0.982 . S
H467 C437 0.979 . S
H468 C437 0.977 . S
H469 C439 0.948 . S
H470 C441 0.947 . S
H471 C442 0.948 . S
H472 C448 0.982 . S
H473 C448 0.979 . S
H474 C448 0.977 . S
H475 C449 0.979 . S
H476 C449 0.980 . S
H477 C449 0.983 . S
H478 C422 0.947 . S
C479 C422 1.392 . S
C479 C423 1.419 . S
C479 H461 0.948 . S
C480 C481 1.391 . S
C480 C484 1.391 . S
C480 H522 0.948 . S
C481 C480 1.391 . S
C481 C482 1.391 . S
C482 C481 1.391 . S
C482 H538 0.947 . S
C482 C539 1.392 . S
C483 C484 1.391 . S
C483 C487 1.397 . S
C483 C539 1.419 . S
C484 C480 1.391 . S
C484 C483 1.391 . S
C484 C485 1.399 . S
C485 C484 1.399 . S
C485 C488 1.396 . S
C485 C497 1.453 . S
C485 C498 1.684 . S
H486 C510 0.948 . S
C487 C483 1.397 . S
C487 C488 1.394 . S
C487 C506 1.723 . S
C488 C485 1.396 . S
C488 C487 1.394 . S
C488 C518 1.723 . S
H489 C512 0.947 . S
H490 C513 0.948 . S
H491 C519 0.982 . S
H492 C520 0.979 . S
H493 C520 0.980 . S
H494 C520 0.983 . S
H495 C519 0.979 . S
H496 C519 0.977 . S
C497 C485 1.453 . S
C497 H526 0.982 . S
C497 H527 0.979 . S
C497 H528 0.977 . S
C498 C485 1.684 . S
C498 H523 0.979 . S
C498 H524 0.980 . S
C498 H525 0.983 . S
C499 C500 1.391 . S
C499 C504 1.391 . S
C499 H529 0.948 . S
C500 C499 1.391 . S
C500 C501 1.391 . S
C501 C500 1.391 . S
C501 C502 1.392 . S
C501 H530 0.947 . S
C502 C501 1.392 . S
C502 C503 1.419 . S
C502 H531 0.948 . S
C503 C502 1.419 . S
C503 C504 1.391 . S
C503 C507 1.397 . S
C504 C499 1.391 . S
C504 C503 1.391 . S
C504 C505 1.399 . S
C505 C504 1.399 . S
C505 C506 1.396 . S
C505 C508 1.453 . S
C505 C509 1.684 . S
C506 C487 1.723 . S
C506 C505 1.396 . S
C506 C507 1.394 . S
C507 C503 1.397 . S
C507 C506 1.394 . S
C507 C517 1.723 . S
C508 C505 1.453 . S
C508 H532 0.982 . S
C508 H533 0.979 . S
C508 H534 0.977 . S
C509 C505 1.684 . S
C509 H535 0.979 . S
C509 H536 0.980 . S
C509 H537 0.983 . S
C510 H486 0.948 . S
C510 C511 1.391 . S
C510 C515 1.391 . S
C511 C510 1.391 . S
C511 C512 1.391 . S
C512 H489 0.947 . S
C512 C511 1.391 . S
C512 C513 1.392 . S
C513 H490 0.948 . S
C513 C512 1.392 . S
C513 C514 1.419 . S
C514 C513 1.419 . S
C514 C515 1.391 . S
C514 C518 1.397 . S
C515 C510 1.391 . S
C515 C514 1.391 . S
C515 C516 1.399 . S
C516 C515 1.399 . S
C516 C517 1.396 . S
C516 C519 1.453 . S
C516 C520 1.684 . S
C517 C507 1.723 . S
C517 C516 1.396 . S
C517 C518 1.394 . S
C518 C488 1.723 . S
C518 C514 1.397 . S
C518 C517 1.394 . S
C519 H491 0.982 . S
C519 H495 0.979 . S
C519 H496 0.977 . S
C519 C516 1.453 . S
C520 H492 0.979 . S
C520 H493 0.980 . S
C520 H494 0.983 . S
C520 C516 1.684 . S
H521 C539 0.948 . S
H522 C480 0.948 . S
H523 C498 0.979 . S
H524 C498 0.980 . S
H525 C498 0.983 . S
H526 C497 0.982 . S
H527 C497 0.979 . S
H528 C497 0.977 . S
H529 C499 0.948 . S
H530 C501 0.947 . S
H531 C502 0.948 . S
H532 C508 0.982 . S
H533 C508 0.979 . S
H534 C508 0.977 . S
H535 C509 0.979 . S
H536 C509 0.980 . S
H537 C509 0.983 . S
H538 C482 0.947 . S
C539 C482 1.392 . S
C539 C483 1.419 . S
C539 H521 0.948 . S
C540 C541 1.391 . S
C540 C544 1.391 . S
C540 H582 0.948 . S
C541 C540 1.391 . S
C541 C542 1.391 . S
C542 C541 1.391 . S
C542 H598 0.947 . S
C542 C599 1.392 . S
C543 C544 1.391 . S
C543 C547 1.397 . S
C543 C599 1.419 . S
C544 C540 1.391 . S
C544 C543 1.391 . S
C544 C545 1.399 . S
C545 C544 1.399 . S
C545 C548 1.396 . S
C545 C557 1.453 . S
C545 C558 1.684 . S
H546 C570 0.948 1_545 S
C547 C543 1.397 . S
C547 C548 1.394 . S
C547 C566 1.723 . S
C548 C545 1.396 . S
C548 C547 1.394 . S
C548 C578 1.723 . S
H549 C572 0.947 . S
H550 C573 0.948 . S
H551 C579 0.982 1_565 S
H552 C580 0.979 . S
H553 C580 0.980 . S
H554 C580 0.983 . S
H555 C579 0.979 . S
H556 C579 0.977 . S
C557 C545 1.453 . S
C557 H586 0.982 . S
C557 H587 0.979 . S
C557 H588 0.977 . S
C558 C545 1.684 . S
C558 H583 0.979 . S
C558 H584 0.980 . S
C558 H585 0.983 . S
C559 C560 1.391 . S
C559 C564 1.411 . S
C559 H589 0.948 . S
C560 C559 1.391 . S
C560 C561 1.391 . S
C561 C560 1.391 . S
C561 C562 1.392 . S
C561 H590 0.947 . S
C562 C561 1.392 . S
C562 C563 1.419 . S
C562 H591 0.948 . S
C563 C562 1.419 . S
C563 C564 1.395 . S
C563 C567 1.397 1_545 S
C564 C559 1.411 . S
C564 C563 1.395 . S
C564 C565 1.372 1_545 S
C565 C564 1.372 1_565 S
C565 C566 1.396 . S
C565 C568 1.453 . S
C565 C569 1.684 . S
C566 C547 1.723 . S
C566 C565 1.396 . S
C566 C567 1.394 . S
C567 C563 1.397 1_565 S
C567 C566 1.394 . S
C567 C577 1.723 . S
C568 C565 1.453 . S
C568 H592 0.982 . S
C568 H593 0.979 . S
C568 H594 0.977 . S
C569 C565 1.684 . S
C569 H595 0.979 . S
C569 H596 0.980 . S
C569 H597 0.983 . S
C570 H546 0.948 1_565 S
C570 C571 1.391 . S
C570 C575 1.391 . S
C571 C570 1.391 . S
C571 C572 1.391 . S
C572 H549 0.947 . S
C572 C571 1.391 . S
C572 C573 1.392 . S
C573 H550 0.948 . S
C573 C572 1.392 . S
C573 C574 1.419 . S
C574 C573 1.419 . S
C574 C575 1.391 . S
C574 C578 1.397 . S
C575 C570 1.391 . S
C575 C574 1.391 . S
C575 C576 1.379 1_565 S
C576 C575 1.379 1_545 S
C576 C577 1.371 1_545 S
C576 C579 1.458 . S
C576 C580 1.730 . S
C577 C567 1.723 . S
C577 C576 1.371 1_565 S
C577 C578 1.394 . S
C578 C548 1.723 . S
C578 C574 1.397 . S
C578 C577 1.394 . S
C579 H551 0.982 1_545 S
C579 H555 0.979 . S
C579 H556 0.977 . S
C579 C576 1.458 . S
C580 H552 0.979 . S
C580 H553 0.980 . S
C580 H554 0.983 . S
C580 C576 1.730 . S
H581 C599 0.948 . S
H582 C540 0.948 . S
H583 C558 0.979 . S
H584 C558 0.980 . S
H585 C558 0.983 . S
H586 C557 0.982 . S
H587 C557 0.979 . S
H588 C557 0.977 . S
H589 C559 0.948 . S
H590 C561 0.947 . S
H591 C562 0.948 . S
H592 C568 0.982 . S
H593 C568 0.979 . S
H594 C568 0.977 . S
H595 C569 0.979 . S
H596 C569 0.980 . S
H597 C569 0.983 . S
H598 C542 0.947 . S
C599 C542 1.392 . S
C599 C543 1.419 . S
C599 H581 0.948 . S
C600 C601 1.391 . S
C600 C604 1.391 . S
C600 H642 0.948 . S
C601 C600 1.391 . S
C601 C602 1.391 . S
C602 C601 1.391 . S
C602 H658 0.947 . S
C602 C659 1.392 . S
C603 C604 1.391 . S
C603 C607 1.397 . S
C603 C659 1.419 . S
C604 C600 1.391 . S
C604 C603 1.391 . S
C604 C605 1.399 . S
C605 C604 1.399 . S
C605 C608 1.396 . S
C605 C617 1.453 . S
C605 C618 1.684 . S
H606 C630 0.948 . S
C607 C603 1.397 . S
C607 C608 1.394 . S
C607 C626 1.723 . S
C608 C605 1.396 . S
C608 C607 1.394 . S
C608 C638 1.723 . S
H609 C632 0.947 . S
H610 C633 0.948 . S
H611 C639 0.982 . S
H612 C640 0.979 . S
H613 C640 0.980 . S
H614 C640 0.983 . S
H615 C639 0.979 . S
H616 C639 0.977 . S
C617 C605 1.453 . S
C617 H646 0.982 . S
C617 H647 0.979 . S
C617 H648 0.977 . S
C618 C605 1.684 . S
C618 H643 0.979 . S
C618 H644 0.980 . S
C618 H645 0.983 . S
C619 C620 1.391 . S
C619 C624 1.391 . S
C619 H649 0.948 . S
C620 C619 1.391 . S
C620 C621 1.391 . S
C621 C620 1.391 . S
C621 C622 1.392 . S
C621 H650 0.947 . S
C622 C621 1.392 . S
C622 C623 1.419 . S
C622 H651 0.948 . S
C623 C622 1.419 . S
C623 C624 1.391 . S
C623 C627 1.397 . S
C624 C619 1.391 . S
C624 C623 1.391 . S
C624 C625 1.399 . S
C625 C624 1.399 . S
C625 C626 1.396 . S
C625 C628 1.453 . S
C625 C629 1.684 . S
C626 C607 1.723 . S
C626 C625 1.396 . S
C626 C627 1.394 . S
C627 C623 1.397 . S
C627 C626 1.394 . S
C627 C637 1.723 . S
C628 C625 1.453 . S
C628 H652 0.982 . S
C628 H653 0.979 . S
C628 H654 0.977 . S
C629 C625 1.684 . S
C629 H655 0.979 . S
C629 H656 0.980 . S
C629 H657 0.983 . S
C630 H606 0.948 . S
C630 C631 1.391 . S
C630 C635 1.391 . S
C631 C630 1.391 . S
C631 C632 1.391 . S
C632 H609 0.947 . S
C632 C631 1.391 . S
C632 C633 1.392 . S
C633 H610 0.948 . S
C633 C632 1.392 . S
C633 C634 1.419 . S
C634 C633 1.419 . S
C634 C635 1.391 . S
C634 C638 1.397 . S
C635 C630 1.391 . S
C635 C634 1.391 . S
C635 C636 1.399 . S
C636 C635 1.399 . S
C636 C637 1.396 . S
C636 C639 1.453 . S
C636 C640 1.684 . S
C637 C627 1.723 . S
C637 C636 1.396 . S
C637 C638 1.394 . S
C638 C608 1.723 . S
C638 C634 1.397 . S
C638 C637 1.394 . S
C639 H611 0.982 . S
C639 H615 0.979 . S
C639 H616 0.977 . S
C639 C636 1.453 . S
C640 H612 0.979 . S
C640 H613 0.980 . S
C640 H614 0.983 . S
C640 C636 1.684 . S
H641 C659 0.948 . S
H642 C600 0.948 . S
H643 C618 0.979 . S
H644 C618 0.980 . S
H645 C618 0.983 . S
H646 C617 0.982 . S
H647 C617 0.979 . S
H648 C617 0.977 . S
H649 C619 0.948 . S
H650 C621 0.947 . S
H651 C622 0.948 . S
H652 C628 0.982 . S
H653 C628 0.979 . S
H654 C628 0.977 . S
H655 C629 0.979 . S
H656 C629 0.980 . S
H657 C629 0.983 . S
H658 C602 0.947 . S
C659 C602 1.392 . S
C659 C603 1.419 . S
C659 H641 0.948 . S
C660 C661 1.391 . S
C660 C664 1.391 . S
C660 H702 0.948 . S
C661 C660 1.391 . S
C661 C662 1.391 . S
C662 C661 1.391 . S
C662 H718 0.947 . S
C662 C719 1.392 . S
C663 C664 1.391 . S
C663 C667 1.397 . S
C663 C719 1.419 . S
C664 C660 1.391 . S
C664 C663 1.391 . S
C664 C665 1.399 . S
C665 C664 1.399 . S
C665 C668 1.396 . S
C665 C677 1.453 . S
C665 C678 1.684 . S
H666 C690 0.948 . S
C667 C663 1.397 . S
C667 C668 1.394 . S
C667 C686 1.723 . S
C668 C665 1.396 . S
C668 C667 1.394 . S
C668 C698 1.723 . S
H669 C692 0.947 . S
H670 C693 0.948 . S
H671 C699 0.982 . S
H672 C700 0.979 . S
H673 C700 0.980 . S
H674 C700 0.983 . S
H675 C699 0.979 . S
H676 C699 0.977 . S
C677 C665 1.453 . S
C677 H706 0.982 . S
C677 H707 0.979 . S
C677 H708 0.977 . S
C678 C665 1.684 . S
C678 H703 0.979 . S
C678 H704 0.980 . S
C678 H705 0.983 . S
C679 C680 1.391 . S
C679 C684 1.391 . S
C679 H709 0.948 . S
C680 C679 1.391 . S
C680 C681 1.391 . S
C681 C680 1.391 . S
C681 C682 1.392 . S
C681 H710 0.947 . S
C682 C681 1.392 . S
C682 C683 1.419 . S
C682 H711 0.948 . S
C683 C682 1.419 . S
C683 C684 1.391 . S
C683 C687 1.397 . S
C684 C679 1.391 . S
C684 C683 1.391 . S
C684 C685 1.399 . S
C685 C684 1.399 . S
C685 C686 1.396 . S
C685 C688 1.453 . S
C685 C689 1.684 . S
C686 C667 1.723 . S
C686 C685 1.396 . S
C686 C687 1.394 . S
C687 C683 1.397 . S
C687 C686 1.394 . S
C687 C697 1.723 . S
C688 C685 1.453 . S
C688 H712 0.982 . S
C688 H713 0.979 . S
C688 H714 0.977 . S
C689 C685 1.684 . S
C689 H715 0.979 . S
C689 H716 0.980 . S
C689 H717 0.983 . S
C690 H666 0.948 . S
C690 C691 1.391 . S
C690 C695 1.391 . S
C691 C690 1.391 . S
C691 C692 1.391 . S
C692 H669 0.947 . S
C692 C691 1.391 . S
C692 C693 1.392 . S
C693 H670 0.948 . S
C693 C692 1.392 . S
C693 C694 1.419 . S
C694 C693 1.419 . S
C694 C695 1.391 . S
C694 C698 1.397 . S
C695 C690 1.391 . S
C695 C694 1.391 . S
C695 C696 1.399 . S
C696 C695 1.399 . S
C696 C697 1.396 . S
C696 C699 1.453 . S
C696 C700 1.684 . S
C697 C687 1.723 . S
C697 C696 1.396 . S
C697 C698 1.394 . S
C698 C668 1.723 . S
C698 C694 1.397 . S
C698 C697 1.394 . S
C699 H671 0.982 . S
C699 H675 0.979 . S
C699 H676 0.977 . S
C699 C696 1.453 . S
C700 H672 0.979 . S
C700 H673 0.980 . S
C700 H674 0.983 . S
C700 C696 1.684 . S
H701 C719 0.948 . S
H702 C660 0.948 . S
H703 C678 0.979 . S
H704 C678 0.980 . S
H705 C678 0.983 . S
H706 C677 0.982 . S
H707 C677 0.979 . S
H708 C677 0.977 . S
H709 C679 0.948 . S
H710 C681 0.947 . S
H711 C682 0.948 . S
H712 C688 0.982 . S
H713 C688 0.979 . S
H714 C688 0.977 . S
H715 C689 0.979 . S
H716 C689 0.980 . S
H717 C689 0.983 . S
H718 C662 0.947 . S
C719 C662 1.392 . S
C719 C663 1.419 . S
C719 H701 0.948 . S
C720 C721 1.391 . S
C720 C724 1.391 . S
C720 H762 0.948 . S
C721 C720 1.391 . S
C721 C722 1.391 . S
C722 C721 1.391 . S
C722 H778 0.947 . S
C722 C779 1.392 . S
C723 C724 1.391 . S
C723 C727 1.397 . S
C723 C779 1.419 . S
C724 C720 1.391 . S
C724 C723 1.391 . S
C724 C725 1.399 . S
C725 C724 1.399 . S
C725 C728 1.396 . S
C725 C737 1.453 . S
C725 C738 1.684 . S
H726 C750 0.948 . S
C727 C723 1.397 . S
C727 C728 1.394 . S
C727 C746 1.723 . S
C728 C725 1.396 . S
C728 C727 1.394 . S
C728 C758 1.723 . S
H729 C752 0.947 . S
H730 C753 0.948 . S
H731 C759 0.982 . S
H732 C760 0.979 . S
H733 C760 0.980 . S
H734 C760 0.983 . S
H735 C759 0.979 . S
H736 C759 0.977 . S
C737 C725 1.453 . S
C737 H766 0.982 . S
C737 H767 0.979 . S
C737 H768 0.977 . S
C738 C725 1.684 . S
C738 H763 0.979 . S
C738 H764 0.980 . S
C738 H765 0.983 . S
C739 C740 1.391 . S
C739 C744 1.391 . S
C739 H769 0.948 . S
C740 C739 1.391 . S
C740 C741 1.391 . S
C741 C740 1.391 . S
C741 C742 1.392 . S
C741 H770 0.947 . S
C742 C741 1.392 . S
C742 C743 1.419 . S
C742 H771 0.948 . S
C743 C742 1.419 . S
C743 C744 1.391 . S
C743 C747 1.397 . S
C744 C739 1.391 . S
C744 C743 1.391 . S
C744 C745 1.399 . S
C745 C744 1.399 . S
C745 C746 1.396 . S
C745 C748 1.453 . S
C745 C749 1.684 . S
C746 C727 1.723 . S
C746 C745 1.396 . S
C746 C747 1.394 . S
C747 C743 1.397 . S
C747 C746 1.394 . S
C747 C757 1.723 . S
C748 C745 1.453 . S
C748 H772 0.982 . S
C748 H773 0.979 . S
C748 H774 0.977 . S
C749 C745 1.684 . S
C749 H775 0.979 . S
C749 H776 0.980 . S
C749 H777 0.983 . S
C750 H726 0.948 . S
C750 C751 1.391 . S
C750 C755 1.391 . S
C751 C750 1.391 . S
C751 C752 1.391 . S
C752 H729 0.947 . S
C752 C751 1.391 . S
C752 C753 1.392 . S
C753 H730 0.948 . S
C753 C752 1.392 . S
C753 C754 1.419 . S
C754 C753 1.419 . S
C754 C755 1.391 . S
C754 C758 1.397 . S
C755 C750 1.391 . S
C755 C754 1.391 . S
C755 C756 1.399 . S
C756 C755 1.399 . S
C756 C757 1.396 . S
C756 C759 1.453 . S
C756 C760 1.684 . S
C757 C747 1.723 . S
C757 C756 1.396 . S
C757 C758 1.394 . S
C758 C728 1.723 . S
C758 C754 1.397 . S
C758 C757 1.394 . S
C759 H731 0.982 . S
C759 H735 0.979 . S
C759 H736 0.977 . S
C759 C756 1.453 . S
C760 H732 0.979 . S
C760 H733 0.980 . S
C760 H734 0.983 . S
C760 C756 1.684 . S
H761 C779 0.948 . S
H762 C720 0.948 . S
H763 C738 0.979 . S
H764 C738 0.980 . S
H765 C738 0.983 . S
H766 C737 0.982 . S
H767 C737 0.979 . S
H768 C737 0.977 . S
H769 C739 0.948 . S
H770 C741 0.947 . S
H771 C742 0.948 . S
H772 C748 0.982 . S
H773 C748 0.979 . S
H774 C748 0.977 . S
H775 C749 0.979 . S
H776 C749 0.980 . S
H777 C749 0.983 . S
H778 C722 0.947 . S
C779 C722 1.392 . S
C779 C723 1.419 . S
C779 H761 0.948 . S
C780 C781 1.391 . S
C780 C784 1.391 . S
C780 H822 0.948 . S
C781 C780 1.391 . S
C781 C782 1.391 . S
C782 C781 1.391 . S
C782 H838 0.947 . S
C782 C839 1.392 1_554 S
C783 C784 1.391 1_556 S
C783 C787 1.397 . S
C783 C839 1.419 . S
C784 C780 1.391 . S
C784 C783 1.391 1_554 S
C784 C785 1.399 . S
C785 C784 1.399 . S
C785 C788 1.396 1_554 S
C785 C797 1.453 . S
C785 C798 1.684 . S
H786 C810 0.948 . S
C787 C783 1.397 . S
C787 C788 1.394 . S
C787 C806 1.723 . S
C788 C785 1.396 1_556 S
C788 C787 1.394 . S
C788 C818 1.723 . S
H789 C812 0.947 . S
H790 C813 0.938 1_554 S
H791 C819 0.982 . S
H792 C820 0.979 . S
H793 C820 0.980 . S
H794 C820 0.983 . S
H795 C819 0.979 . S
H796 C819 0.977 . S
C797 C785 1.453 . S
C797 H826 0.982 . S
C797 H827 0.979 . S
C797 H828 0.977 . S
C798 C785 1.684 . S
C798 H823 1.003 . S
C798 H824 0.980 . S
C798 H825 0.983 . S
C799 C800 1.391 . S
C799 C804 1.391 . S
C799 H829 0.948 . S
C800 C799 1.391 . S
C800 C801 1.391 . S
C801 C800 1.391 . S
C801 C802 1.392 . S
C801 H830 0.947 . S
C802 C801 1.392 . S
C802 C803 1.419 . S
C802 H831 0.948 . S
C803 C802 1.419 . S
C803 C804 1.391 . S
C803 C807 1.397 . S
C804 C799 1.391 . S
C804 C803 1.391 . S
C804 C805 1.399 . S
C805 C804 1.399 . S
C805 C806 1.396 . S
C805 C808 1.453 . S
C805 C809 1.684 . S
C806 C787 1.723 . S
C806 C805 1.396 . S
C806 C807 1.394 . S
C807 C803 1.397 . S
C807 C806 1.394 . S
C807 C817 1.723 . S
C808 C805 1.453 . S
C808 H832 0.982 . S
C808 H833 0.979 . S
C808 H834 0.977 . S
C809 C805 1.684 . S
C809 H835 0.979 . S
C809 H836 0.980 . S
C809 H837 0.983 . S
C810 H786 0.948 . S
C810 C811 1.391 . S
C810 C815 1.391 . S
C811 C810 1.391 . S
C811 C812 1.391 1_556 S
C812 H789 0.947 . S
C812 C811 1.391 1_554 S
C812 C813 1.390 1_554 S
C813 H790 0.938 1_556 S
C813 C812 1.390 1_556 S
C813 C814 1.431 . S
C814 C813 1.431 . S
C814 C815 1.391 . S
C814 C818 1.397 . S
C815 C810 1.391 . S
C815 C814 1.391 . S
C815 C816 1.399 . S
C816 C815 1.399 . S
C816 C817 1.396 . S
C816 C819 1.453 . S
C816 C820 1.684 . S
C817 C807 1.723 . S
C817 C816 1.396 . S
C817 C818 1.394 . S
C818 C788 1.723 . S
C818 C814 1.397 . S
C818 C817 1.394 . S
C819 H791 0.982 . S
C819 H795 0.979 . S
C819 H796 0.977 . S
C819 C816 1.453 . S
C820 H792 0.979 . S
C820 H793 0.980 . S
C820 H794 0.983 . S
C820 C816 1.684 . S
H821 C839 0.948 . S
H822 C780 0.948 . S
H823 C798 1.003 . S
H824 C798 0.980 . S
H825 C798 0.983 . S
H826 C797 0.982 . S
H827 C797 0.979 . S
H828 C797 0.977 . S
H829 C799 0.948 . S
H830 C801 0.947 . S
H831 C802 0.948 . S
H832 C808 0.982 . S
H833 C808 0.979 . S
H834 C808 0.977 . S
H835 C809 0.979 . S
H836 C809 0.980 . S
H837 C809 0.983 . S
H838 C782 0.947 . S
C839 C782 1.392 1_556 S
C839 C783 1.419 . S
C839 H821 0.948 . S
C840 C841 1.391 . S
C840 C844 1.391 . S
C840 H882 0.948 . S
C841 C840 1.391 . S
C841 C842 1.391 . S
C842 C841 1.391 . S
C842 H898 0.947 . S
C842 C899 1.392 . S
C843 C844 1.391 . S
C843 C847 1.397 . S
C843 C899 1.419 . S
C844 C840 1.391 . S
C844 C843 1.391 . S
C844 C845 1.399 . S
C845 C844 1.399 . S
C845 C848 1.396 . S
C845 C857 1.453 . S
C845 C858 1.684 . S
H846 C870 0.948 . S
C847 C843 1.397 . S
C847 C848 1.394 . S
C847 C866 1.723 . S
C848 C845 1.396 . S
C848 C847 1.394 . S
C848 C878 1.723 . S
H849 C872 0.947 . S
H850 C873 0.948 . S
H851 C879 0.982 . S
H852 C880 0.979 . S
H853 C880 0.980 . S
H854 C880 0.983 . S
H855 C879 0.979 . S
H856 C879 0.977 . S
C857 C845 1.453 . S
C857 H886 0.982 . S
C857 H887 0.979 . S
C857 H888 0.977 . S
C858 C845 1.684 . S
C858 H883 0.979 . S
C858 H884 0.980 . S
C858 H885 0.983 . S
C859 C860 1.391 . S
C859 C864 1.391 . S
C859 H889 0.948 . S
C860 C859 1.391 . S
C860 C861 1.391 . S
C861 C860 1.391 . S
C861 C862 1.392 . S
C861 H890 0.947 . S
C862 C861 1.392 . S
C862 C863 1.419 . S
C862 H891 0.948 . S
C863 C862 1.419 . S
C863 C864 1.391 . S
C863 C867 1.397 . S
C864 C859 1.391 . S
C864 C863 1.391 . S
C864 C865 1.399 . S
C865 C864 1.399 . S
C865 C866 1.396 . S
C865 C868 1.453 . S
C865 C869 1.684 . S
C866 C847 1.723 . S
C866 C865 1.396 . S
C866 C867 1.394 . S
C867 C863 1.397 . S
C867 C866 1.394 . S
C867 C877 1.723 . S
C868 C865 1.453 . S
C868 H892 0.982 . S
C868 H893 0.979 . S
C868 H894 0.977 . S
C869 C865 1.684 . S
C869 H895 0.979 . S
C869 H896 0.980 . S
C869 H897 0.983 . S
C870 H846 0.948 . S
C870 C871 1.391 . S
C870 C875 1.391 . S
C871 C870 1.391 . S
C871 C872 1.391 . S
C872 H849 0.947 . S
C872 C871 1.391 . S
C872 C873 1.392 . S
C873 H850 0.948 . S
C873 C872 1.392 . S
C873 C874 1.419 . S
C874 C873 1.419 . S
C874 C875 1.391 . S
C874 C878 1.397 . S
C875 C870 1.391 . S
C875 C874 1.391 . S
C875 C876 1.399 . S
C876 C875 1.399 . S
C876 C877 1.396 . S
C876 C879 1.453 . S
C876 C880 1.684 . S
C877 C867 1.723 . S
C877 C876 1.396 . S
C877 C878 1.394 . S
C878 C848 1.723 . S
C878 C874 1.397 . S
C878 C877 1.394 . S
C879 H851 0.982 . S
C879 H855 0.979 . S
C879 H856 0.977 . S
C879 C876 1.453 . S
C880 H852 0.979 . S
C880 H853 0.980 . S
C880 H854 0.983 . S
C880 C876 1.684 . S
H881 C899 0.948 . S
H882 C840 0.948 . S
H883 C858 0.979 . S
H884 C858 0.980 . S
H885 C858 0.983 . S
H886 C857 0.982 . S
H887 C857 0.979 . S
H888 C857 0.977 . S
H889 C859 0.948 . S
H890 C861 0.947 . S
H891 C862 0.948 . S
H892 C868 0.982 . S
H893 C868 0.979 . S
H894 C868 0.977 . S
H895 C869 0.979 . S
H896 C869 0.980 . S
H897 C869 0.983 . S
H898 C842 0.947 . S
C899 C842 1.392 . S
C899 C843 1.419 . S
C899 H881 0.948 . S
C900 C901 1.415 . S
C900 C904 1.401 . S
C900 H942 0.916 1_556 S
C901 C900 1.415 . S
C901 C902 1.391 . S
C902 C901 1.391 . S
C902 H958 0.947 . S
C902 C959 1.392 . S
C903 C904 1.391 . S
C903 C907 1.397 1_565 S
C903 C959 1.419 . S
C904 C900 1.401 . S
C904 C903 1.391 . S
C904 C905 1.399 1_566 S
C905 C904 1.399 1_544 S
C905 C908 1.396 1_554 S
C905 C917 1.453 . S
C905 C918 1.684 . S
H906 C930 0.948 . S
C907 C903 1.397 1_545 S
C907 C908 1.394 . S
C907 C926 1.723 . S
C908 C905 1.396 1_556 S
C908 C907 1.394 . S
C908 C938 1.723 . S
H909 C932 0.947 . S
H910 C933 0.948 . S
H911 C939 0.982 . S
H912 C940 0.988 . S
H913 C940 0.980 . S
H914 C940 0.983 . S
H915 C939 0.979 . S
H916 C939 0.977 . S
C917 C905 1.453 . S
C917 H946 0.982 1_554 S
C917 H947 0.979 . S
C917 H948 0.977 . S
C918 C905 1.684 . S
C918 H943 0.979 . S
C918 H944 0.980 . S
C918 H945 0.983 . S
C919 C920 1.414 . S
C919 C924 1.402 . S
C919 H949 0.916 1_545 S
C920 C919 1.414 . S
C920 C921 1.391 . S
C921 C920 1.391 . S
C921 C922 1.392 . S
C921 H950 0.947 . S
C922 C921 1.392 . S
C922 C923 1.419 . S
C922 H951 0.948 . S
C923 C922 1.419 . S
C923 C924 1.391 . S
C923 C927 1.397 . S
C924 C919 1.402 . S
C924 C923 1.391 . S
C924 C925 1.399 1_545 S
C925 C924 1.399 1_565 S
C925 C926 1.396 1_565 S
C925 C928 1.453 . S
C925 C929 1.684 . S
C926 C907 1.723 . S
C926 C925 1.396 1_545 S
C926 C927 1.394 . S
C927 C923 1.397 . S
C927 C926 1.394 . S
C927 C937 1.723 . S
C928 C925 1.453 . S
C928 H952 0.982 1_565 S
C928 H953 0.979 . S
C928 H954 0.977 . S
C929 C925 1.684 . S
C929 H955 0.979 . S
C929 H956 0.980 . S
C929 H957 0.983 . S
C930 H906 0.948 . S
C930 C931 1.391 . S
C930 C935 1.391 . S
C931 C930 1.391 . S
C931 C932 1.391 . S
C932 H909 0.947 . S
C932 C931 1.391 . S
C932 C933 1.392 . S
C933 H910 0.948 . S
C933 C932 1.392 . S
C933 C934 1.419 . S
C934 C933 1.419 . S
C934 C935 1.391 . S
C934 C938 1.397 1_554 S
C935 C930 1.391 . S
C935 C934 1.391 . S
C935 C936 1.399 1_554 S
C936 C935 1.399 1_556 S
C936 C937 1.396 . S
C936 C939 1.453 . S
C936 C940 1.684 . S
C937 C927 1.723 . S
C937 C936 1.396 . S
C937 C938 1.394 . S
C938 C908 1.723 . S
C938 C934 1.397 1_556 S
C938 C937 1.394 . S
C939 H911 0.982 . S
C939 H915 0.979 . S
C939 H916 0.977 . S
C939 C936 1.453 . S
C940 H912 0.988 . S
C940 H913 0.980 . S
C940 H914 0.983 . S
C940 C936 1.684 . S
H941 C959 0.948 . S
H942 C900 0.916 1_554 S
H943 C918 0.979 . S
H944 C918 0.980 . S
H945 C918 0.983 . S
H946 C917 0.982 1_556 S
H947 C917 0.979 . S
H948 C917 0.977 . S
H949 C919 0.916 1_565 S
H950 C921 0.947 . S
H951 C922 0.948 . S
H952 C928 0.982 1_545 S
H953 C928 0.979 . S
H954 C928 0.977 . S
H955 C929 0.979 . S
H956 C929 0.980 . S
H957 C929 0.983 . S
H958 C902 0.947 . S
C959 C902 1.392 . S
C959 C903 1.419 . S
C959 H941 0.948 . S
Mg960 O961 2.029 . S
Mg960 O967 1.986 1_554 S
Mg960 O969 2.114 . S
Mg960 O970 2.251 . S
Mg960 O973 2.010 . S
O961 Mg960 2.029 . S
O961 C964 1.250 1_554 S
O962 Mg963 2.028 . S
O962 C964 1.248 . S
Mg963 O962 2.028 . S
Mg963 O968 2.032 . S
Mg963 O970 2.079 1_556 S
C964 O961 1.250 1_556 S
C964 O962 1.248 . S
C965 O966 1.264 . S
C965 O973 1.249 . S
O966 C965 1.264 . S
O967 Mg960 1.986 1_556 S
O967 C971 1.246 . S
O968 Mg963 2.032 . S
O968 C971 1.259 . S
O969 Mg960 2.114 . S
O969 C972 1.252 . S
O970 Mg960 2.251 . S
O970 Mg963 2.079 1_554 S
O970 C972 1.273 . S
C971 O967 1.246 . S
C971 O968 1.259 . S
C972 O969 1.252 . S
C972 O970 1.273 . S
O973 Mg960 2.010 . S
O973 C965 1.249 . S
Mg974 O975 2.028 . S
Mg974 O981 1.986 . S
Mg974 O983 2.114 . S
Mg974 O984 2.251 . S
Mg974 O987 2.010 . S
O975 Mg974 2.028 . S
O975 C978 1.250 . S
O976 Mg977 2.028 . S
O976 C978 1.248 . S
Mg977 O976 2.028 . S
Mg977 O982 2.032 . S
Mg977 O984 2.079 . S
C978 O975 1.250 . S
C978 O976 1.248 . S
C979 O980 1.264 . S
C979 O987 1.249 . S
O980 C979 1.264 . S
O981 Mg974 1.986 . S
O981 C985 1.246 . S
O982 Mg977 2.032 . S
O982 C985 1.259 . S
O983 Mg974 2.114 . S
O983 C986 1.252 . S
O984 Mg974 2.251 . S
O984 Mg977 2.079 . S
O984 C986 1.273 . S
C985 O981 1.246 . S
C985 O982 1.259 . S
C986 O983 1.252 . S
C986 O984 1.273 . S
O987 Mg974 2.010 . S
O987 C979 1.249 . S
Mg988 O989 2.028 . S
Mg988 O995 1.986 1_554 S
Mg988 O997 2.114 . S
Mg988 O998 2.251 . S
Mg988 O1001 2.010 . S
O989 Mg988 2.028 . S
O989 C992 1.247 1_554 S
O990 Mg991 2.028 . S
O990 C992 1.250 . S
Mg991 O990 2.028 . S
Mg991 O996 2.032 . S
Mg991 O998 2.079 1_556 S
C992 O989 1.247 1_556 S
C992 O990 1.250 . S
C993 O994 1.264 . S
C993 O1001 1.249 . S
O994 C993 1.264 . S
O995 Mg988 1.986 1_556 S
O995 C999 1.246 . S
O996 Mg991 2.032 . S
O996 C999 1.259 . S
O997 Mg988 2.114 . S
O997 C1000 1.252 . S
O998 Mg988 2.251 . S
O998 Mg991 2.079 1_554 S
O998 C1000 1.273 . S
C999 O995 1.246 . S
C999 O996 1.259 . S
C1000 O997 1.252 . S
C1000 O998 1.273 . S
O1001 Mg988 2.010 . S
O1001 C993 1.249 . S
Mg1002 O1003 2.008 1_545 S
Mg1002 O1009 1.986 . S
Mg1002 O1011 2.114 . S
Mg1002 O1012 2.251 . S
Mg1002 O1015 2.010 . S
O1003 Mg1002 2.008 1_565 S
O1003 C1006 1.280 . S
O1004 Mg1005 2.028 . S
O1004 C1006 1.248 . S
Mg1005 O1004 2.028 . S
Mg1005 O1010 2.032 . S
Mg1005 O1012 2.079 1_565 S
C1006 O1003 1.280 . S
C1006 O1004 1.248 . S
C1007 O1008 1.264 . S
C1007 O1015 1.249 . S
O1008 C1007 1.264 . S
O1009 Mg1002 1.986 . S
O1009 C1013 1.246 . S
O1010 Mg1005 2.032 . S
O1010 C1013 1.259 1_565 S
O1011 Mg1002 2.114 . S
O1011 C1014 1.252 . S
O1012 Mg1002 2.251 . S
O1012 Mg1005 2.079 1_545 S
O1012 C1014 1.273 . S
C1013 O1009 1.246 . S
C1013 O1010 1.259 1_545 S
C1014 O1011 1.252 . S
C1014 O1012 1.273 . S
O1015 Mg1002 2.010 . S
O1015 C1007 1.249 . S
Mg1016 O1017 2.028 . S
Mg1016 O1023 1.986 . S
Mg1016 O1025 2.114 . S
Mg1016 O1026 2.251 . S
Mg1016 O1029 2.010 . S
O1017 Mg1016 2.028 . S
O1017 C1020 1.250 . S
O1018 Mg1019 2.028 . S
O1018 C1020 1.248 . S
Mg1019 O1018 2.028 . S
Mg1019 O1024 2.032 . S
Mg1019 O1026 2.079 . S
C1020 O1017 1.250 . S
C1020 O1018 1.248 . S
C1021 O1022 1.264 . S
C1021 O1029 1.249 . S
O1022 C1021 1.264 . S
O1023 Mg1016 1.986 . S
O1023 C1027 1.246 . S
O1024 Mg1019 2.032 . S
O1024 C1027 1.259 . S
O1025 Mg1016 2.114 . S
O1025 C1028 1.252 . S
O1026 Mg1016 2.251 . S
O1026 Mg1019 2.079 . S
O1026 C1028 1.273 . S
C1027 O1023 1.246 . S
C1027 O1024 1.259 . S
C1028 O1025 1.252 . S
C1028 O1026 1.273 . S
O1029 Mg1016 2.010 . S
O1029 C1021 1.249 . S
Mg1030 O1031 2.028 . S
Mg1030 O1037 1.986 . S
Mg1030 O1039 2.114 . S
Mg1030 O1040 2.251 . S
Mg1030 O1043 2.010 . S
O1031 Mg1030 2.028 . S
O1031 C1034 1.250 . S
O1032 Mg1033 2.028 . S
O1032 C1034 1.248 . S
Mg1033 O1032 2.028 . S
Mg1033 O1038 2.032 . S
Mg1033 O1040 2.079 . S
C1034 O1031 1.250 . S
C1034 O1032 1.248 . S
C1035 O1036 1.264 . S
C1035 O1043 1.249 . S
O1036 C1035 1.264 . S
O1037 Mg1030 1.986 . S
O1037 C1041 1.246 . S
O1038 Mg1033 2.032 . S
O1038 C1041 1.259 . S
O1039 Mg1030 2.114 . S
O1039 C1042 1.252 . S
O1040 Mg1030 2.251 . S
O1040 Mg1033 2.079 . S
O1040 C1042 1.273 . S
C1041 O1037 1.246 . S
C1041 O1038 1.259 . S
C1042 O1039 1.252 . S
C1042 O1040 1.273 . S
O1043 Mg1030 2.010 . S
O1043 C1035 1.249 . S
Mg1044 O1045 2.028 . S
Mg1044 O1051 1.986 . S
Mg1044 O1053 2.114 . S
Mg1044 O1054 2.251 . S
Mg1044 O1057 2.010 . S
O1045 Mg1044 2.028 . S
O1045 C1048 1.250 . S
O1046 Mg1047 2.028 . S
O1046 C1048 1.248 . S
Mg1047 O1046 2.028 . S
Mg1047 O1052 2.032 . S
Mg1047 O1054 2.079 . S
C1048 O1045 1.250 . S
C1048 O1046 1.248 . S
C1049 O1050 1.264 . S
C1049 O1057 1.249 . S
O1050 C1049 1.264 . S
O1051 Mg1044 1.986 . S
O1051 C1055 1.246 . S
O1052 Mg1047 2.032 . S
O1052 C1055 1.259 . S
O1053 Mg1044 2.114 . S
O1053 C1056 1.252 . S
O1054 Mg1044 2.251 . S
O1054 Mg1047 2.079 . S
O1054 C1056 1.273 . S
C1055 O1051 1.246 . S
C1055 O1052 1.259 . S
C1056 O1053 1.252 . S
C1056 O1054 1.273 . S
O1057 Mg1044 2.010 . S
O1057 C1049 1.249 . S
Mg1058 O1059 2.028 1_545 S
Mg1058 O1065 1.986 1_545 S
Mg1058 O1067 2.114 . S
Mg1058 O1068 2.251 . S
Mg1058 O1071 2.010 . S
O1059 Mg1058 2.028 1_565 S
O1059 C1062 1.250 . S
O1060 Mg1061 2.028 . S
O1060 C1062 1.248 . S
Mg1061 O1060 2.028 . S
Mg1061 O1066 2.032 . S
Mg1061 O1068 2.079 1_565 S
C1062 O1059 1.250 . S
C1062 O1060 1.248 . S
C1063 O1064 1.264 . S
C1063 O1071 1.249 . S
O1064 C1063 1.264 . S
O1065 Mg1058 1.986 1_565 S
O1065 C1069 1.246 . S
O1066 Mg1061 2.032 . S
O1066 C1069 1.259 . S
O1067 Mg1058 2.114 . S
O1067 C1070 1.252 . S
O1068 Mg1058 2.251 . S
O1068 Mg1061 2.079 1_545 S
O1068 C1070 1.273 . S
C1069 O1065 1.246 . S
C1069 O1066 1.259 . S
C1070 O1067 1.252 . S
C1070 O1068 1.273 . S
O1071 Mg1058 2.010 . S
O1071 C1063 1.249 . S
Mg1072 O1073 2.048 . S
Mg1072 O1079 1.986 . S
Mg1072 O1081 2.114 . S
Mg1072 O1082 2.251 . S
Mg1072 O1085 2.010 . S
O1073 Mg1072 2.048 . S
O1073 C1076 1.222 1_455 S
O1074 Mg1075 2.028 . S
O1074 C1076 1.248 . S
Mg1075 O1074 2.028 . S
Mg1075 O1080 2.032 . S
Mg1075 O1082 2.079 1_655 S
C1076 O1073 1.222 1_655 S
C1076 O1074 1.248 . S
C1077 O1078 1.264 . S
C1077 O1085 1.249 . S
O1078 C1077 1.264 . S
O1079 Mg1072 1.986 . S
O1079 C1083 1.246 . S
O1080 Mg1075 2.032 . S
O1080 C1083 1.259 1_655 S
O1081 Mg1072 2.114 . S
O1081 C1084 1.252 . S
O1082 Mg1072 2.251 . S
O1082 Mg1075 2.079 1_455 S
O1082 C1084 1.273 . S
C1083 O1079 1.246 . S
C1083 O1080 1.259 1_455 S
C1084 O1081 1.252 . S
C1084 O1082 1.273 . S
O1085 Mg1072 2.010 . S
O1085 C1077 1.249 . S
Mg1086 O1087 2.028 . S
Mg1086 O1093 1.986 . S
Mg1086 O1095 2.114 . S
Mg1086 O1096 2.251 . S
Mg1086 O1099 2.010 . S
O1087 Mg1086 2.028 . S
O1087 C1090 1.250 . S
O1088 Mg1089 2.028 . S
O1088 C1090 1.248 . S
Mg1089 O1088 2.028 . S
Mg1089 O1094 2.032 . S
Mg1089 O1096 2.079 . S
C1090 O1087 1.250 . S
C1090 O1088 1.248 . S
C1091 O1092 1.264 . S
C1091 O1099 1.249 . S
O1092 C1091 1.264 . S
O1093 Mg1086 1.986 . S
O1093 C1097 1.246 . S
O1094 Mg1089 2.032 . S
O1094 C1097 1.259 . S
O1095 Mg1086 2.114 . S
O1095 C1098 1.252 . S
O1096 Mg1086 2.251 . S
O1096 Mg1089 2.079 . S
O1096 C1098 1.273 . S
C1097 O1093 1.246 . S
C1097 O1094 1.259 . S
C1098 O1095 1.252 . S
C1098 O1096 1.273 . S
O1099 Mg1086 2.010 . S
O1099 C1091 1.249 . S
Mg1100 O1101 2.028 1_655 S
Mg1100 O1107 1.986 . S
Mg1100 O1109 2.114 . S
Mg1100 O1110 2.251 1_655 S
Mg1100 O1113 2.010 . S
O1101 Mg1100 2.028 1_455 S
O1101 C1104 1.250 . S
O1102 Mg1103 2.028 . S
O1102 C1104 1.248 . S
Mg1103 O1102 2.028 . S
Mg1103 O1108 2.032 . S
Mg1103 O1110 2.079 . S
C1104 O1101 1.250 . S
C1104 O1102 1.248 . S
C1105 O1106 1.264 . S
C1105 O1113 1.249 . S
O1106 C1105 1.264 . S
O1107 Mg1100 1.986 . S
O1107 C1111 1.246 1_655 S
O1108 Mg1103 2.032 . S
O1108 C1111 1.259 . S
O1109 Mg1100 2.114 . S
O1109 C1112 1.252 . S
O1110 Mg1100 2.251 1_455 S
O1110 Mg1103 2.079 . S
O1110 C1112 1.273 1_455 S
C1111 O1107 1.246 1_455 S
C1111 O1108 1.259 . S
C1112 O1109 1.252 . S
C1112 O1110 1.273 1_655 S
O1113 Mg1100 2.010 . S
O1113 C1105 1.249 . S
Mg1114 O1115 2.028 . S
Mg1114 O1121 1.986 . S
Mg1114 O1123 2.114 . S
Mg1114 O1124 2.251 . S
Mg1114 O1127 2.010 . S
O1115 Mg1114 2.028 . S
O1115 C1118 1.250 . S
O1116 Mg1117 2.028 . S
O1116 C1118 1.248 . S
Mg1117 O1116 2.028 . S
Mg1117 O1122 2.032 . S
Mg1117 O1124 2.079 . S
C1118 O1115 1.250 . S
C1118 O1116 1.248 . S
C1119 O1120 1.264 . S
C1119 O1127 1.249 . S
O1120 C1119 1.264 . S
O1121 Mg1114 1.986 . S
O1121 C1125 1.246 . S
O1122 Mg1117 2.032 . S
O1122 C1125 1.259 . S
O1123 Mg1114 2.114 . S
O1123 C1126 1.252 . S
O1124 Mg1114 2.251 . S
O1124 Mg1117 2.079 . S
O1124 C1126 1.273 . S
C1125 O1121 1.246 . S
C1125 O1122 1.259 . S
C1126 O1123 1.252 . S
C1126 O1124 1.273 . S
O1127 Mg1114 2.010 . S
O1127 C1119 1.249 . S
C1128 C1129 1.363 . S
C1128 C1134 1.379 . S
C1128 N1136 1.356 . S
C1129 C1128 1.363 . S
C1129 C1135 1.363 . S
C1130 C1131 1.363 . S
C1130 C1135 1.379 . S
C1130 N1137 1.356 . S
C1131 C1130 1.363 . S
C1131 C1134 1.363 . S
N1132 C1134 1.356 . S
N1132 H1144 0.984 . S
N1132 H1145 0.985 . S
N1133 C1135 1.356 . S
N1133 H1138 0.984 . S
N1133 H1139 0.985 . S
C1134 C1128 1.379 . S
C1134 C1131 1.363 . S
C1134 N1132 1.356 . S
C1135 C1129 1.363 . S
C1135 C1130 1.379 . S
C1135 N1133 1.356 . S
N1136 C1128 1.356 . S
N1136 H1142 0.984 . S
N1136 H1143 0.984 . S
N1137 C1130 1.356 . S
N1137 H1140 0.984 . S
N1137 H1141 0.985 . S
H1138 N1133 0.984 . S
H1139 N1133 0.985 . S
H1140 N1137 0.984 . S
H1141 N1137 0.985 . S
H1142 N1136 0.984 . S
H1143 N1136 0.984 . S
H1144 N1132 0.984 . S
H1145 N1132 0.985 . S
C1146 C1147 1.363 . S
C1146 C1152 1.379 . S
C1146 N1154 1.356 . S
C1147 C1146 1.363 . S
C1147 C1153 1.363 . S
C1148 C1149 1.363 . S
C1148 C1153 1.379 . S
C1148 N1155 1.356 . S
C1149 C1148 1.363 . S
C1149 C1152 1.363 . S
N1150 C1152 1.356 . S
N1150 H1162 0.984 . S
N1150 H1163 0.985 . S
N1151 C1153 1.356 . S
N1151 H1156 0.984 . S
N1151 H1157 0.985 . S
C1152 C1146 1.379 . S
C1152 C1149 1.363 . S
C1152 N1150 1.356 . S
C1153 C1147 1.363 . S
C1153 C1148 1.379 . S
C1153 N1151 1.356 . S
N1154 C1146 1.356 . S
N1154 H1160 0.984 . S
N1154 H1161 0.984 . S
N1155 C1148 1.356 . S
N1155 H1158 0.984 . S
N1155 H1159 0.985 . S
H1156 N1151 0.984 . S
H1157 N1151 0.985 . S
H1158 N1155 0.984 . S
H1159 N1155 0.985 . S
H1160 N1154 0.984 . S
H1161 N1154 0.984 . S
H1162 N1150 0.984 . S
H1163 N1150 0.985 . S
C1164 C1165 1.363 . S
C1164 C1170 1.379 . S
C1164 N1172 1.356 . S
C1165 C1164 1.363 . S
C1165 C1171 1.363 . S
C1166 C1167 1.363 . S
C1166 C1171 1.379 . S
C1166 N1173 1.356 . S
C1167 C1166 1.363 . S
C1167 C1170 1.363 . S
N1168 C1170 1.356 . S
N1168 H1180 0.984 . S
N1168 H1181 0.985 . S
N1169 C1171 1.356 . S
N1169 H1174 0.984 . S
N1169 H1175 0.985 . S
C1170 C1164 1.379 . S
C1170 C1167 1.363 . S
C1170 N1168 1.356 . S
C1171 C1165 1.363 . S
C1171 C1166 1.379 . S
C1171 N1169 1.356 . S
N1172 C1164 1.356 . S
N1172 H1178 0.984 . S
N1172 H1179 0.984 . S
N1173 C1166 1.356 . S
N1173 H1176 0.984 . S
N1173 H1177 0.985 . S
H1174 N1169 0.984 . S
H1175 N1169 0.985 . S
H1176 N1173 0.984 . S
H1177 N1173 0.985 . S
H1178 N1172 0.984 . S
H1179 N1172 0.984 . S
H1180 N1168 0.984 . S
H1181 N1168 0.985 . S
C1182 C1183 1.363 . S
C1182 C1188 1.379 . S
C1182 N1190 1.356 . S
C1183 C1182 1.363 . S
C1183 C1189 1.363 1_565 S
C1184 C1185 1.363 . S
C1184 C1189 1.379 . S
C1184 N1191 1.356 . S
C1185 C1184 1.363 . S
C1185 C1188 1.363 1_545 S
N1186 C1188 1.356 . S
N1186 H1198 0.984 . S
N1186 H1199 0.985 . S
N1187 C1189 1.356 . S
N1187 H1192 0.984 . S
N1187 H1193 0.985 . S
C1188 C1182 1.379 . S
C1188 C1185 1.363 1_565 S
C1188 N1186 1.356 . S
C1189 C1183 1.363 1_545 S
C1189 C1184 1.379 . S
C1189 N1187 1.356 . S
N1190 C1182 1.356 . S
N1190 H1196 0.984 . S
N1190 H1197 0.984 . S
N1191 C1184 1.356 . S
N1191 H1194 0.984 . S
N1191 H1195 0.985 . S
H1192 N1187 0.984 . S
H1193 N1187 0.985 . S
H1194 N1191 0.984 . S
H1195 N1191 0.985 . S
H1196 N1190 0.984 . S
H1197 N1190 0.984 . S
H1198 N1186 0.984 . S
H1199 N1186 0.985 . S
C1200 C1201 1.363 . S
C1200 C1206 1.379 . S
C1200 N1208 1.356 . S
C1201 C1200 1.363 . S
C1201 C1207 1.363 . S
C1202 C1203 1.363 . S
C1202 C1207 1.379 . S
C1202 N1209 1.356 . S
C1203 C1202 1.363 . S
C1203 C1206 1.363 . S
N1204 C1206 1.356 . S
N1204 H1216 0.984 . S
N1204 H1217 0.985 . S
N1205 C1207 1.356 . S
N1205 H1210 0.984 . S
N1205 H1211 0.985 . S
C1206 C1200 1.379 . S
C1206 C1203 1.363 . S
C1206 N1204 1.356 . S
C1207 C1201 1.363 . S
C1207 C1202 1.379 . S
C1207 N1205 1.356 . S
N1208 C1200 1.356 . S
N1208 H1214 0.984 . S
N1208 H1215 0.984 . S
N1209 C1202 1.356 . S
N1209 H1212 0.984 . S
N1209 H1213 0.985 . S
H1210 N1205 0.984 . S
H1211 N1205 0.985 . S
H1212 N1209 0.984 . S
H1213 N1209 0.985 . S
H1214 N1208 0.984 . S
H1215 N1208 0.984 . S
H1216 N1204 0.984 . S
H1217 N1204 0.985 . S
C1218 C1219 1.363 . S
C1218 C1224 1.379 . S
C1218 N1226 1.356 . S
C1219 C1218 1.363 . S
C1219 C1225 1.363 . S
C1220 C1221 1.363 . S
C1220 C1225 1.379 . S
C1220 N1227 1.356 . S
C1221 C1220 1.363 . S
C1221 C1224 1.363 . S
N1222 C1224 1.356 . S
N1222 H1234 0.984 . S
N1222 H1235 0.985 . S
N1223 C1225 1.356 . S
N1223 H1228 0.984 . S
N1223 H1229 0.985 . S
C1224 C1218 1.379 . S
C1224 C1221 1.363 . S
C1224 N1222 1.356 . S
C1225 C1219 1.363 . S
C1225 C1220 1.379 . S
C1225 N1223 1.356 . S
N1226 C1218 1.356 . S
N1226 H1232 0.984 . S
N1226 H1233 0.984 . S
N1227 C1220 1.356 . S
N1227 H1230 0.984 . S
N1227 H1231 0.985 . S
H1228 N1223 0.984 . S
H1229 N1223 0.985 . S
H1230 N1227 0.984 . S
H1231 N1227 0.985 . S
H1232 N1226 0.984 . S
H1233 N1226 0.984 . S
H1234 N1222 0.984 . S
H1235 N1222 0.985 . S
C1236 C1237 1.363 . S
C1236 C1242 1.379 . S
C1236 N1244 1.356 . S
C1237 C1236 1.363 . S
C1237 C1243 1.363 . S
C1238 C1239 1.363 . S
C1238 C1243 1.379 . S
C1238 N1245 1.356 . S
C1239 C1238 1.363 . S
C1239 C1242 1.363 . S
N1240 C1242 1.356 . S
N1240 H1252 0.984 . S
N1240 H1253 0.985 . S
N1241 C1243 1.356 . S
N1241 H1246 0.984 . S
N1241 H1247 0.985 . S
C1242 C1236 1.379 . S
C1242 C1239 1.363 . S
C1242 N1240 1.356 . S
C1243 C1237 1.363 . S
C1243 C1238 1.379 . S
C1243 N1241 1.356 . S
N1244 C1236 1.356 . S
N1244 H1250 0.984 . S
N1244 H1251 0.984 . S
N1245 C1238 1.356 . S
N1245 H1248 0.984 . S
N1245 H1249 0.985 . S
H1246 N1241 0.984 . S
H1247 N1241 0.985 . S
H1248 N1245 0.984 . S
H1249 N1245 0.985 . S
H1250 N1244 0.984 . S
H1251 N1244 0.984 . S
H1252 N1240 0.984 . S
H1253 N1240 0.985 . S
C1254 C1255 1.363 . S
C1254 C1260 1.379 . S
C1254 N1262 1.356 . S
C1255 C1254 1.363 . S
C1255 C1261 1.363 1_565 S
C1256 C1257 1.363 1_545 S
C1256 C1261 1.379 . S
C1256 N1263 1.356 . S
C1257 C1256 1.363 1_565 S
C1257 C1260 1.363 . S
N1258 C1260 1.356 . S
N1258 H1270 0.984 . S
N1258 H1271 0.985 . S
N1259 C1261 1.356 . S
N1259 H1264 0.984 . S
N1259 H1265 0.985 . S
C1260 C1254 1.379 . S
C1260 C1257 1.363 . S
C1260 N1258 1.356 . S
C1261 C1255 1.363 1_545 S
C1261 C1256 1.379 . S
C1261 N1259 1.356 . S
N1262 C1254 1.356 . S
N1262 H1268 0.984 . S
N1262 H1269 0.984 . S
N1263 C1256 1.356 . S
N1263 H1266 0.984 . S
N1263 H1267 0.985 . S
H1264 N1259 0.984 . S
H1265 N1259 0.985 . S
H1266 N1263 0.984 . S
H1267 N1263 0.985 . S
H1268 N1262 0.984 . S
H1269 N1262 0.984 . S
H1270 N1258 0.984 . S
H1271 N1258 0.985 . S
C1272 C1273 1.363 . S
C1272 C1278 1.379 . S
C1272 N1280 1.356 . S
C1273 C1272 1.363 . S
C1273 C1279 1.363 . S
C1274 C1275 1.363 . S
C1274 C1279 1.379 . S
C1274 N1281 1.356 . S
C1275 C1274 1.363 . S
C1275 C1278 1.363 . S
N1276 C1278 1.356 . S
N1276 H1288 0.984 . S
N1276 H1289 0.985 . S
N1277 C1279 1.356 . S
N1277 H1282 0.984 . S
N1277 H1283 0.985 . S
C1278 C1272 1.379 . S
C1278 C1275 1.363 . S
C1278 N1276 1.356 . S
C1279 C1273 1.363 . S
C1279 C1274 1.379 . S
C1279 N1277 1.356 . S
N1280 C1272 1.356 . S
N1280 H1286 0.984 . S
N1280 H1287 0.984 . S
N1281 C1274 1.356 . S
N1281 H1284 0.984 . S
N1281 H1285 0.985 . S
H1282 N1277 0.984 . S
H1283 N1277 0.985 . S
H1284 N1281 0.984 . S
H1285 N1281 0.985 . S
H1286 N1280 0.984 . S
H1287 N1280 0.984 . S
H1288 N1276 0.984 . S
H1289 N1276 0.985 . S
C1290 C1291 1.363 . S
C1290 C1296 1.379 . S
C1290 N1298 1.356 . S
C1291 C1290 1.363 . S
C1291 C1297 1.363 . S
C1292 C1293 1.363 . S
C1292 C1297 1.379 . S
C1292 N1299 1.356 . S
C1293 C1292 1.363 . S
C1293 C1296 1.363 . S
N1294 C1296 1.356 . S
N1294 H1306 0.984 . S
N1294 H1307 0.985 . S
N1295 C1297 1.356 . S
N1295 H1300 0.984 . S
N1295 H1301 0.985 . S
C1296 C1290 1.379 . S
C1296 C1293 1.363 . S
C1296 N1294 1.356 . S
C1297 C1291 1.363 . S
C1297 C1292 1.379 . S
C1297 N1295 1.356 . S
N1298 C1290 1.356 . S
N1298 H1304 0.984 . S
N1298 H1305 0.984 . S
N1299 C1292 1.356 . S
N1299 H1302 0.984 . S
N1299 H1303 0.985 . S
H1300 N1295 0.984 . S
H1301 N1295 0.985 . S
H1302 N1299 0.984 . S
H1303 N1299 0.985 . S
H1304 N1298 0.984 . S
H1305 N1298 0.984 . S
H1306 N1294 0.984 . S
H1307 N1294 0.985 . S
C1308 C1309 1.363 . S
C1308 C1314 1.379 . S
C1308 N1316 1.356 . S
C1309 C1308 1.363 . S
C1309 C1315 1.363 . S
C1310 C1311 1.363 . S
C1310 C1315 1.379 . S
C1310 N1317 1.356 . S
C1311 C1310 1.363 . S
C1311 C1314 1.363 . S
N1312 C1314 1.356 . S
N1312 H1324 0.984 . S
N1312 H1325 0.985 . S
N1313 C1315 1.356 . S
N1313 H1318 0.984 . S
N1313 H1319 0.985 . S
C1314 C1308 1.379 . S
C1314 C1311 1.363 . S
C1314 N1312 1.356 . S
C1315 C1309 1.363 . S
C1315 C1310 1.379 . S
C1315 N1313 1.356 . S
N1316 C1308 1.356 . S
N1316 H1322 0.984 . S
N1316 H1323 0.984 . S
N1317 C1310 1.356 . S
N1317 H1320 0.984 . S
N1317 H1321 0.985 . S
H1318 N1313 0.984 . S
H1319 N1313 0.985 . S
H1320 N1317 0.984 . S
H1321 N1317 0.985 . S
H1322 N1316 0.984 . S
H1323 N1316 0.984 . S
H1324 N1312 0.984 . S
H1325 N1312 0.985 . S
C1326 C1327 1.363 . S
C1326 C1332 1.379 . S
C1326 N1334 1.356 . S
C1327 C1326 1.363 . S
C1327 C1333 1.363 . S
C1328 C1329 1.363 . S
C1328 C1333 1.379 . S
C1328 N1335 1.356 . S
C1329 C1328 1.363 . S
C1329 C1332 1.363 . S
N1330 C1332 1.356 . S
N1330 H1342 0.984 . S
N1330 H1343 0.985 . S
N1331 C1333 1.356 . S
N1331 H1336 0.984 . S
N1331 H1337 0.985 . S
C1332 C1326 1.379 . S
C1332 C1329 1.363 . S
C1332 N1330 1.356 . S
C1333 C1327 1.363 . S
C1333 C1328 1.379 . S
C1333 N1331 1.356 . S
N1334 C1326 1.356 . S
N1334 H1340 0.984 . S
N1334 H1341 0.984 . S
N1335 C1328 1.356 . S
N1335 H1338 0.984 . S
N1335 H1339 0.985 . S
H1336 N1331 0.984 . S
H1337 N1331 0.985 . S
H1338 N1335 0.984 . S
H1339 N1335 0.985 . S
H1340 N1334 0.984 . S
H1341 N1334 0.984 . S
H1342 N1330 0.984 . S
H1343 N1330 0.985 . S
C1344 C1345 1.363 . S
C1344 C1350 1.379 . S
C1344 N1352 1.356 . S
C1345 C1344 1.363 . S
C1345 C1351 1.363 . S
C1346 C1347 1.363 . S
C1346 C1351 1.379 . S
C1346 N1353 1.356 . S
C1347 C1346 1.363 . S
C1347 C1350 1.363 . S
N1348 C1350 1.356 . S
N1348 H1360 0.984 . S
N1348 H1361 0.985 . S
N1349 C1351 1.356 . S
N1349 H1354 0.984 . S
N1349 H1355 0.985 . S
C1350 C1344 1.379 . S
C1350 C1347 1.363 . S
C1350 N1348 1.356 . S
C1351 C1345 1.363 . S
C1351 C1346 1.379 . S
C1351 N1349 1.356 . S
N1352 C1344 1.356 . S
N1352 H1358 0.984 . S
N1352 H1359 0.984 . S
N1353 C1346 1.356 . S
N1353 H1356 0.984 . S
N1353 H1357 0.985 . S
H1354 N1349 0.984 . S
H1355 N1349 0.985 . S
H1356 N1353 0.984 . S
H1357 N1353 0.985 . S
H1358 N1352 0.984 . S
H1359 N1352 0.984 . S
H1360 N1348 0.984 . S
H1361 N1348 0.985 . S
C1362 C1363 1.363 . S
C1362 C1368 1.379 . S
C1362 N1370 1.356 . S
C1363 C1362 1.363 . S
C1363 C1369 1.363 . S
C1364 C1365 1.363 . S
C1364 C1369 1.379 . S
C1364 N1371 1.356 . S
C1365 C1364 1.363 . S
C1365 C1368 1.363 . S
N1366 C1368 1.356 1_655 S
N1366 H1378 0.984 . S
N1366 H1379 0.985 . S
N1367 C1369 1.356 . S
N1367 H1372 0.984 . S
N1367 H1373 0.985 . S
C1368 C1362 1.379 . S
C1368 C1365 1.363 . S
C1368 N1366 1.356 1_455 S
C1369 C1363 1.363 . S
C1369 C1364 1.379 . S
C1369 N1367 1.356 . S
N1370 C1362 1.356 . S
N1370 H1376 0.984 1_455 S
N1370 H1377 0.984 . S
N1371 C1364 1.356 . S
N1371 H1374 0.984 . S
N1371 H1375 0.985 . S
H1372 N1367 0.984 . S
H1373 N1367 0.985 . S
H1374 N1371 0.984 . S
H1375 N1371 0.985 . S
H1376 N1370 0.984 1_655 S
H1377 N1370 0.984 . S
H1378 N1366 0.984 . S
H1379 N1366 0.985 . S
C1380 C1381 1.363 . S
C1380 C1386 1.379 . S
C1380 N1388 1.356 . S
C1381 C1380 1.363 . S
C1381 C1387 1.363 . S
C1382 C1383 1.363 . S
C1382 C1387 1.379 . S
C1382 N1389 1.356 . S
C1383 C1382 1.363 . S
C1383 C1386 1.363 . S
N1384 C1386 1.356 . S
N1384 H1396 0.984 . S
N1384 H1397 0.985 . S
N1385 C1387 1.356 . S
N1385 H1390 0.984 . S
N1385 H1391 0.985 . S
C1386 C1380 1.379 . S
C1386 C1383 1.363 . S
C1386 N1384 1.356 . S
C1387 C1381 1.363 . S
C1387 C1382 1.379 . S
C1387 N1385 1.356 . S
N1388 C1380 1.356 . S
N1388 H1394 0.984 . S
N1388 H1395 0.984 . S
N1389 C1382 1.356 . S
N1389 H1392 0.984 . S
N1389 H1393 0.985 . S
H1390 N1385 0.984 . S
H1391 N1385 0.985 . S
H1392 N1389 0.984 . S
H1393 N1389 0.985 . S
H1394 N1388 0.984 . S
H1395 N1388 0.984 . S
H1396 N1384 0.984 . S
H1397 N1384 0.985 . S
C1398 C1399 1.363 1_455 S
C1398 C1404 1.379 . S
C1398 N1406 1.356 . S
C1399 C1398 1.363 1_655 S
C1399 C1405 1.363 . S
C1400 C1401 1.363 . S
C1400 C1405 1.379 . S
C1400 N1407 1.356 . S
C1401 C1400 1.363 . S
C1401 C1404 1.363 1_655 S
N1402 C1404 1.356 . S
N1402 H1414 0.984 . S
N1402 H1415 0.985 . S
N1403 C1405 1.356 . S
N1403 H1408 0.984 . S
N1403 H1409 0.985 . S
C1404 C1398 1.379 . S
C1404 C1401 1.363 1_455 S
C1404 N1402 1.356 . S
C1405 C1399 1.363 . S
C1405 C1400 1.379 . S
C1405 N1403 1.356 . S
N1406 C1398 1.356 . S
N1406 H1412 0.984 . S
N1406 H1413 0.984 . S
N1407 C1400 1.356 . S
N1407 H1410 0.984 . S
N1407 H1411 0.985 . S
H1408 N1403 0.984 . S
H1409 N1403 0.985 . S
H1410 N1407 0.984 . S
H1411 N1407 0.985 . S
H1412 N1406 0.984 . S
H1413 N1406 0.984 . S
H1414 N1402 0.984 . S
H1415 N1402 0.985 . S
C1416 C1417 1.363 . S
C1416 C1422 1.379 . S
C1416 N1424 1.356 . S
C1417 C1416 1.363 . S
C1417 C1423 1.363 . S
C1418 C1419 1.363 . S
C1418 C1423 1.379 . S
C1418 N1425 1.356 . S
C1419 C1418 1.363 . S
C1419 C1422 1.363 . S
N1420 C1422 1.356 . S
N1420 H1432 0.984 . S
N1420 H1433 0.985 . S
N1421 C1423 1.356 . S
N1421 H1426 0.984 . S
N1421 H1427 0.985 . S
C1422 C1416 1.379 . S
C1422 C1419 1.363 . S
C1422 N1420 1.356 . S
C1423 C1417 1.363 . S
C1423 C1418 1.379 . S
C1423 N1421 1.356 . S
N1424 C1416 1.356 . S
N1424 H1430 0.984 . S
N1424 H1431 0.984 . S
N1425 C1418 1.356 . S
N1425 H1428 0.984 . S
N1425 H1429 0.985 . S
H1426 N1421 0.984 . S
H1427 N1421 0.985 . S
H1428 N1425 0.984 . S
H1429 N1425 0.985 . S
H1430 N1424 0.984 . S
H1431 N1424 0.984 . S
H1432 N1420 0.984 . S
H1433 N1420 0.985 . S
C1434 C1435 1.363 . S
C1434 C1440 1.379 . S
C1434 N1442 1.356 . S
C1435 C1434 1.363 . S
C1435 C1441 1.363 . S
C1436 C1437 1.363 . S
C1436 C1441 1.379 . S
C1436 N1443 1.356 . S
C1437 C1436 1.363 . S
C1437 C1440 1.363 . S
N1438 C1440 1.356 . S
N1438 H1450 0.984 . S
N1438 H1451 0.985 . S
N1439 C1441 1.356 . S
N1439 H1444 0.984 . S
N1439 H1445 0.985 . S
C1440 C1434 1.379 . S
C1440 C1437 1.363 . S
C1440 N1438 1.356 . S
C1441 C1435 1.363 . S
C1441 C1436 1.379 . S
C1441 N1439 1.356 . S
N1442 C1434 1.356 . S
N1442 H1448 0.984 . S
N1442 H1449 0.984 . S
N1443 C1436 1.356 . S
N1443 H1446 0.984 . S
N1443 H1447 0.985 . S
H1444 N1439 0.984 . S
H1445 N1439 0.985 . S
H1446 N1443 0.984 . S
H1447 N1443 0.985 . S
H1448 N1442 0.984 . S
H1449 N1442 0.984 . S
H1450 N1438 0.984 . S
H1451 N1438 0.985 . S
C1452 C1453 1.363 . S
C1452 C1458 1.379 . S
C1452 N1460 1.356 . S
C1453 C1452 1.363 . S
C1453 C1459 1.363 1_556 S
C1454 C1455 1.363 1_554 S
C1454 C1459 1.379 . S
C1454 N1461 1.356 . S
C1455 C1454 1.363 1_556 S
C1455 C1458 1.363 . S
N1456 C1458 1.356 . S
N1456 H1468 0.984 . S
N1456 H1469 0.985 . S
N1457 C1459 1.356 . S
N1457 H1462 0.984 . S
N1457 H1463 0.985 . S
C1458 C1452 1.379 . S
C1458 C1455 1.363 . S
C1458 N1456 1.356 . S
C1459 C1453 1.363 1_554 S
C1459 C1454 1.379 . S
C1459 N1457 1.356 . S
N1460 C1452 1.356 . S
N1460 H1466 0.984 . S
N1460 H1467 0.984 . S
N1461 C1454 1.356 . S
N1461 H1464 0.984 . S
N1461 H1465 0.985 . S
H1462 N1457 0.984 . S
H1463 N1457 0.985 . S
H1464 N1461 0.984 . S
H1465 N1461 0.985 . S
H1466 N1460 0.984 . S
H1467 N1460 0.984 . S
H1468 N1456 0.984 . S
H1469 N1456 0.985 . S
C1470 C1471 1.363 . S
C1470 C1476 1.379 . S
C1470 N1478 1.356 . S
C1471 C1470 1.363 . S
C1471 C1477 1.363 . S
C1472 C1473 1.363 . S
C1472 C1477 1.379 . S
C1472 N1479 1.356 . S
C1473 C1472 1.363 . S
C1473 C1476 1.363 . S
N1474 C1476 1.356 . S
N1474 H1486 0.984 . S
N1474 H1487 0.985 . S
N1475 C1477 1.356 . S
N1475 H1480 0.984 . S
N1475 H1481 0.985 . S
C1476 C1470 1.379 . S
C1476 C1473 1.363 . S
C1476 N1474 1.356 . S
C1477 C1471 1.363 . S
C1477 C1472 1.379 . S
C1477 N1475 1.356 . S
N1478 C1470 1.356 . S
N1478 H1484 0.984 . S
N1478 H1485 0.984 . S
N1479 C1472 1.356 . S
N1479 H1482 0.984 . S
N1479 H1483 0.985 . S
H1480 N1475 0.984 . S
H1481 N1475 0.985 . S
H1482 N1479 0.984 . S
H1483 N1479 0.985 . S
H1484 N1478 0.984 . S
H1485 N1478 0.984 . S
H1486 N1474 0.984 . S
H1487 N1474 0.985 . S
C1488 C1489 1.363 . S
C1488 C1494 1.379 . S
C1488 N1496 1.356 . S
C1489 C1488 1.363 . S
C1489 C1495 1.363 . S
C1490 C1491 1.363 . S
C1490 C1495 1.379 . S
C1490 N1497 1.356 . S
C1491 C1490 1.363 . S
C1491 C1494 1.363 . S
N1492 C1494 1.356 . S
N1492 H1504 0.984 . S
N1492 H1505 0.985 . S
N1493 C1495 1.356 . S
N1493 H1498 0.984 . S
N1493 H1499 0.985 . S
C1494 C1488 1.379 . S
C1494 C1491 1.363 . S
C1494 N1492 1.356 . S
C1495 C1489 1.363 . S
C1495 C1490 1.379 . S
C1495 N1493 1.356 . S
N1496 C1488 1.356 . S
N1496 H1502 0.984 . S
N1496 H1503 0.984 . S
N1497 C1490 1.356 . S
N1497 H1500 0.984 . S
N1497 H1501 0.985 . S
H1498 N1493 0.984 . S
H1499 N1493 0.985 . S
H1500 N1497 0.984 . S
H1501 N1497 0.985 . S
H1502 N1496 0.984 . S
H1503 N1496 0.984 . S
H1504 N1492 0.984 . S
H1505 N1492 0.985 . S
C1506 C1507 1.363 . S
C1506 C1512 1.379 . S
C1506 N1514 1.356 . S
C1507 C1506 1.363 . S
C1507 C1513 1.363 . S
C1508 C1509 1.363 . S
C1508 C1513 1.379 . S
C1508 N1515 1.356 . S
C1509 C1508 1.363 . S
C1509 C1512 1.363 . S
N1510 C1512 1.356 . S
N1510 H1522 0.984 . S
N1510 H1523 0.985 . S
N1511 C1513 1.356 . S
N1511 H1516 0.984 . S
N1511 H1517 0.985 . S
C1512 C1506 1.379 . S
C1512 C1509 1.363 . S
C1512 N1510 1.356 . S
C1513 C1507 1.363 . S
C1513 C1508 1.379 . S
C1513 N1511 1.356 . S
N1514 C1506 1.356 . S
N1514 H1520 0.984 . S
N1514 H1521 0.984 . S
N1515 C1508 1.356 . S
N1515 H1518 0.984 . S
N1515 H1519 0.985 . S
H1516 N1511 0.984 . S
H1517 N1511 0.985 . S
H1518 N1515 0.984 . S
H1519 N1515 0.985 . S
H1520 N1514 0.984 . S
H1521 N1514 0.984 . S
H1522 N1510 0.984 . S
H1523 N1510 0.985 . S
C1524 C1525 1.363 . S
C1524 C1530 1.379 . S
C1524 N1532 1.356 . S
C1525 C1524 1.363 . S
C1525 C1531 1.363 . S
C1526 C1527 1.363 . S
C1526 C1531 1.379 . S
C1526 N1533 1.356 . S
C1527 C1526 1.363 . S
C1527 C1530 1.363 . S
N1528 C1530 1.356 . S
N1528 H1540 0.984 . S
N1528 H1541 0.985 . S
N1529 C1531 1.356 . S
N1529 H1534 0.984 . S
N1529 H1535 0.985 . S
C1530 C1524 1.379 . S
C1530 C1527 1.363 . S
C1530 N1528 1.356 . S
C1531 C1525 1.363 . S
C1531 C1526 1.379 . S
C1531 N1529 1.356 . S
N1532 C1524 1.356 . S
N1532 H1538 0.984 . S
N1532 H1539 0.984 . S
N1533 C1526 1.356 . S
N1533 H1536 0.984 . S
N1533 H1537 0.985 . S
H1534 N1529 0.984 . S
H1535 N1529 0.985 . S
H1536 N1533 0.984 . S
H1537 N1533 0.985 . S
H1538 N1532 0.984 . S
H1539 N1532 0.984 . S
H1540 N1528 0.984 . S
H1541 N1528 0.985 . S
C1542 C1543 1.363 . S
C1542 C1548 1.379 . S
C1542 N1550 1.356 . S
C1543 C1542 1.363 . S
C1543 C1549 1.363 . S
C1544 C1545 1.363 . S
C1544 C1549 1.379 . S
C1544 N1551 1.356 . S
C1545 C1544 1.363 . S
C1545 C1548 1.363 . S
N1546 C1548 1.356 . S
N1546 H1558 0.984 . S
N1546 H1559 0.985 . S
N1547 C1549 1.356 . S
N1547 H1552 0.984 . S
N1547 H1553 0.985 . S
C1548 C1542 1.379 . S
C1548 C1545 1.363 . S
C1548 N1546 1.356 . S
C1549 C1543 1.363 . S
C1549 C1544 1.379 . S
C1549 N1547 1.356 . S
N1550 C1542 1.356 . S
N1550 H1556 0.984 . S
N1550 H1557 0.984 . S
N1551 C1544 1.356 . S
N1551 H1554 0.984 . S
N1551 H1555 0.985 . S
H1552 N1547 0.984 . S
H1553 N1547 0.985 . S
H1554 N1551 0.984 . S
H1555 N1551 0.985 . S
H1556 N1550 0.984 . S
H1557 N1550 0.984 . S
H1558 N1546 0.984 . S
H1559 N1546 0.985 . S
C1560 C1561 1.363 . S
C1560 C1566 1.379 . S
C1560 N1568 1.356 . S
C1561 C1560 1.363 . S
C1561 C1567 1.363 . S
C1562 C1563 1.363 . S
C1562 C1567 1.379 . S
C1562 N1569 1.356 . S
C1563 C1562 1.363 . S
C1563 C1566 1.363 . S
N1564 C1566 1.356 . S
N1564 H1576 0.984 . S
N1564 H1577 0.985 . S
N1565 C1567 1.356 . S
N1565 H1570 0.984 . S
N1565 H1571 0.985 . S
C1566 C1560 1.379 . S
C1566 C1563 1.363 . S
C1566 N1564 1.356 . S
C1567 C1561 1.363 . S
C1567 C1562 1.379 . S
C1567 N1565 1.356 . S
N1568 C1560 1.356 . S
N1568 H1574 0.984 . S
N1568 H1575 0.984 . S
N1569 C1562 1.356 . S
N1569 H1572 0.984 . S
N1569 H1573 0.985 . S
H1570 N1565 0.984 . S
H1571 N1565 0.985 . S
H1572 N1569 0.984 . S
H1573 N1569 0.985 . S
H1574 N1568 0.984 . S
H1575 N1568 0.984 . S
H1576 N1564 0.984 . S
H1577 N1564 0.985 . S
C1578 C1579 1.363 1_565 S
C1578 C1584 1.379 . S
C1578 N1586 1.356 . S
C1579 C1578 1.363 1_545 S
C1579 C1585 1.363 . S
C1580 C1581 1.363 . S
C1580 C1585 1.379 . S
C1580 N1587 1.356 . S
C1581 C1580 1.363 . S
C1581 C1584 1.363 1_545 S
N1582 C1584 1.356 . S
N1582 H1594 0.984 . S
N1582 H1595 0.985 . S
N1583 C1585 1.356 . S
N1583 H1588 0.984 . S
N1583 H1589 0.985 . S
C1584 C1578 1.379 . S
C1584 C1581 1.363 1_565 S
C1584 N1582 1.356 . S
C1585 C1579 1.363 . S
C1585 C1580 1.379 . S
C1585 N1583 1.356 . S
N1586 C1578 1.356 . S
N1586 H1592 0.984 . S
N1586 H1593 0.984 . S
N1587 C1580 1.356 . S
N1587 H1590 0.984 . S
N1587 H1591 0.985 . S
H1588 N1583 0.984 . S
H1589 N1583 0.985 . S
H1590 N1587 0.984 . S
H1591 N1587 0.985 . S
H1592 N1586 0.984 . S
H1593 N1586 0.984 . S
H1594 N1582 0.984 . S
H1595 N1582 0.985 . S
C1596 C1597 1.363 . S
C1596 C1602 1.379 . S
C1596 N1604 1.356 . S
C1597 C1596 1.363 . S
C1597 C1603 1.363 . S
C1598 C1599 1.363 . S
C1598 C1603 1.379 . S
C1598 N1605 1.356 . S
C1599 C1598 1.363 . S
C1599 C1602 1.363 . S
N1600 C1602 1.356 . S
N1600 H1612 0.984 . S
N1600 H1613 0.985 . S
N1601 C1603 1.356 . S
N1601 H1606 0.984 . S
N1601 H1607 0.985 . S
C1602 C1596 1.379 . S
C1602 C1599 1.363 . S
C1602 N1600 1.356 . S
C1603 C1597 1.363 . S
C1603 C1598 1.379 . S
C1603 N1601 1.356 . S
N1604 C1596 1.356 . S
N1604 H1610 0.984 . S
N1604 H1611 0.984 . S
N1605 C1598 1.356 . S
N1605 H1608 0.984 . S
N1605 H1609 0.985 . S
H1606 N1601 0.984 . S
H1607 N1601 0.985 . S
H1608 N1605 0.984 . S
H1609 N1605 0.985 . S
H1610 N1604 0.984 . S
H1611 N1604 0.984 . S
H1612 N1600 0.984 . S
H1613 N1600 0.985 . S
C1614 C1615 1.363 . S
C1614 C1620 1.379 . S
C1614 N1622 1.356 . S
C1615 C1614 1.363 . S
C1615 C1621 1.363 . S
C1616 C1617 1.363 . S
C1616 C1621 1.379 . S
C1616 N1623 1.356 . S
C1617 C1616 1.363 . S
C1617 C1620 1.363 . S
N1618 C1620 1.356 . S
N1618 H1630 0.984 . S
N1618 H1631 0.985 . S
N1619 C1621 1.356 . S
N1619 H1624 0.984 . S
N1619 H1625 0.985 . S
C1620 C1614 1.379 . S
C1620 C1617 1.363 . S
C1620 N1618 1.356 . S
C1621 C1615 1.363 . S
C1621 C1616 1.379 . S
C1621 N1619 1.356 . S
N1622 C1614 1.356 . S
N1622 H1628 0.984 . S
N1622 H1629 0.984 . S
N1623 C1616 1.356 . S
N1623 H1626 0.984 . S
N1623 H1627 0.985 . S
H1624 N1619 0.984 . S
H1625 N1619 0.985 . S
H1626 N1623 0.984 . S
H1627 N1623 0.985 . S
H1628 N1622 0.984 . S
H1629 N1622 0.984 . S
H1630 N1618 0.984 . S
H1631 N1618 0.985 . S
C1632 C1633 1.363 . S
C1632 C1638 1.379 . S
C1632 N1640 1.356 . S
C1633 C1632 1.363 . S
C1633 C1639 1.363 . S
C1634 C1635 1.363 . S
C1634 C1639 1.379 . S
C1634 N1641 1.356 . S
C1635 C1634 1.363 . S
C1635 C1638 1.363 . S
N1636 C1638 1.356 . S
N1636 H1648 0.984 . S
N1636 H1649 0.985 . S
N1637 C1639 1.356 . S
N1637 H1642 0.984 . S
N1637 H1643 0.985 . S
C1638 C1632 1.379 . S
C1638 C1635 1.363 . S
C1638 N1636 1.356 . S
C1639 C1633 1.363 . S
C1639 C1634 1.379 . S
C1639 N1637 1.356 . S
N1640 C1632 1.356 . S
N1640 H1646 0.984 . S
N1640 H1647 0.984 . S
N1641 C1634 1.356 . S
N1641 H1644 0.984 . S
N1641 H1645 0.985 . S
H1642 N1637 0.984 . S
H1643 N1637 0.985 . S
H1644 N1641 0.984 . S
H1645 N1641 0.985 . S
H1646 N1640 0.984 . S
H1647 N1640 0.984 . S
H1648 N1636 0.984 . S
H1649 N1636 0.985 . S
C1650 C1651 1.363 . S
C1650 C1656 1.379 . S
C1650 N1658 1.356 . S
C1651 C1650 1.363 . S
C1651 C1657 1.363 . S
C1652 C1653 1.363 . S
C1652 C1657 1.379 . S
C1652 N1659 1.356 1_545 S
C1653 C1652 1.363 . S
C1653 C1656 1.363 . S
N1654 C1656 1.356 . S
N1654 H1666 0.984 . S
N1654 H1667 0.985 . S
N1655 C1657 1.356 1_565 S
N1655 H1660 0.984 . S
N1655 H1661 0.985 . S
C1656 C1650 1.379 . S
C1656 C1653 1.363 . S
C1656 N1654 1.356 . S
C1657 C1651 1.363 . S
C1657 C1652 1.379 . S
C1657 N1655 1.356 1_545 S
N1658 C1650 1.356 . S
N1658 H1664 0.984 . S
N1658 H1665 0.984 . S
N1659 C1652 1.356 1_565 S
N1659 H1662 0.984 . S
N1659 H1663 0.985 . S
H1660 N1655 0.984 . S
H1661 N1655 0.985 . S
H1662 N1659 0.984 . S
H1663 N1659 0.985 . S
H1664 N1658 0.984 . S
H1665 N1658 0.984 . S
H1666 N1654 0.984 . S
H1667 N1654 0.985 . S
C1668 C1669 1.363 . S
C1668 C1674 1.379 . S
C1668 N1676 1.356 . S
C1669 C1668 1.363 . S
C1669 C1675 1.363 . S
C1670 C1671 1.363 . S
C1670 C1675 1.379 . S
C1670 N1677 1.356 . S
C1671 C1670 1.363 . S
C1671 C1674 1.363 . S
N1672 C1674 1.356 . S
N1672 H1684 0.984 . S
N1672 H1685 0.985 . S
N1673 C1675 1.356 . S
N1673 H1678 0.984 . S
N1673 H1679 0.985 . S
C1674 C1668 1.379 . S
C1674 C1671 1.363 . S
C1674 N1672 1.356 . S
C1675 C1669 1.363 . S
C1675 C1670 1.379 . S
C1675 N1673 1.356 . S
N1676 C1668 1.356 . S
N1676 H1682 0.984 . S
N1676 H1683 0.984 . S
N1677 C1670 1.356 . S
N1677 H1680 0.984 . S
N1677 H1681 0.985 . S
H1678 N1673 0.984 . S
H1679 N1673 0.985 . S
H1680 N1677 0.984 . S
H1681 N1677 0.985 . S
H1682 N1676 0.984 . S
H1683 N1676 0.984 . S
H1684 N1672 0.984 . S
H1685 N1672 0.985 . S
C1686 C1687 1.363 . S
C1686 C1692 1.379 . S
C1686 N1694 1.356 . S
C1687 C1686 1.363 . S
C1687 C1693 1.363 . S
C1688 C1689 1.363 . S
C1688 C1693 1.379 . S
C1688 N1695 1.356 . S
C1689 C1688 1.363 . S
C1689 C1692 1.363 . S
N1690 C1692 1.356 . S
N1690 H1702 0.984 . S
N1690 H1703 0.985 . S
N1691 C1693 1.356 . S
N1691 H1696 0.984 . S
N1691 H1697 0.985 . S
C1692 C1686 1.379 . S
C1692 C1689 1.363 . S
C1692 N1690 1.356 . S
C1693 C1687 1.363 . S
C1693 C1688 1.379 . S
C1693 N1691 1.356 . S
N1694 C1686 1.356 . S
N1694 H1700 0.984 . S
N1694 H1701 0.984 . S
N1695 C1688 1.356 . S
N1695 H1698 0.984 . S
N1695 H1699 0.985 . S
H1696 N1691 0.984 . S
H1697 N1691 0.985 . S
H1698 N1695 0.984 . S
H1699 N1695 0.985 . S
H1700 N1694 0.984 . S
H1701 N1694 0.984 . S
H1702 N1690 0.984 . S
H1703 N1690 0.985 . S
C1704 C1705 1.363 . S
C1704 C1710 1.379 . S
C1704 N1712 1.356 . S
C1705 C1704 1.363 . S
C1705 C1711 1.363 . S
C1706 C1707 1.363 . S
C1706 C1711 1.379 . S
C1706 N1713 1.356 . S
C1707 C1706 1.363 . S
C1707 C1710 1.363 . S
N1708 C1710 1.356 . S
N1708 H1720 0.984 . S
N1708 H1721 0.985 . S
N1709 C1711 1.356 . S
N1709 H1714 0.984 . S
N1709 H1715 0.985 . S
C1710 C1704 1.379 . S
C1710 C1707 1.363 . S
C1710 N1708 1.356 . S
C1711 C1705 1.363 . S
C1711 C1706 1.379 . S
C1711 N1709 1.356 . S
N1712 C1704 1.356 . S
N1712 H1718 0.984 . S
N1712 H1719 0.984 . S
N1713 C1706 1.356 . S
N1713 H1716 0.984 . S
N1713 H1717 0.985 . S
H1714 N1709 0.984 . S
H1715 N1709 0.985 . S
H1716 N1713 0.984 . S
H1717 N1713 0.985 . S
H1718 N1712 0.984 . S
H1719 N1712 0.984 . S
H1720 N1708 0.984 . S
H1721 N1708 0.985 . S
C1722 C1723 1.363 . S
C1722 C1728 1.379 . S
C1722 N1730 1.356 . S
C1723 C1722 1.363 . S
C1723 C1729 1.363 1_655 S
C1724 C1725 1.363 . S
C1724 C1729 1.379 . S
C1724 N1731 1.356 . S
C1725 C1724 1.363 . S
C1725 C1728 1.363 1_455 S
N1726 C1728 1.356 . S
N1726 H1738 0.984 . S
N1726 H1739 0.985 . S
N1727 C1729 1.356 . S
N1727 H1732 0.984 . S
N1727 H1733 0.985 . S
C1728 C1722 1.379 . S
C1728 C1725 1.363 1_655 S
C1728 N1726 1.356 . S
C1729 C1723 1.363 1_455 S
C1729 C1724 1.379 . S
C1729 N1727 1.356 . S
N1730 C1722 1.356 . S
N1730 H1736 0.984 . S
N1730 H1737 0.984 . S
N1731 C1724 1.356 . S
N1731 H1734 0.984 . S
N1731 H1735 0.985 . S
H1732 N1727 0.984 . S
H1733 N1727 0.985 . S
H1734 N1731 0.984 . S
H1735 N1731 0.985 . S
H1736 N1730 0.984 . S
H1737 N1730 0.984 . S
H1738 N1726 0.984 . S
H1739 N1726 0.985 . S
C1740 C1741 1.363 . S
C1740 C1746 1.379 . S
C1740 N1748 1.356 . S
C1741 C1740 1.363 . S
C1741 C1747 1.363 . S
C1742 C1743 1.363 . S
C1742 C1747 1.379 . S
C1742 N1749 1.356 . S
C1743 C1742 1.363 . S
C1743 C1746 1.363 . S
N1744 C1746 1.356 . S
N1744 H1756 0.984 . S
N1744 H1757 0.985 . S
N1745 C1747 1.356 . S
N1745 H1750 0.984 . S
N1745 H1751 0.985 . S
C1746 C1740 1.379 . S
C1746 C1743 1.363 . S
C1746 N1744 1.356 . S
C1747 C1741 1.363 . S
C1747 C1742 1.379 . S
C1747 N1745 1.356 . S
N1748 C1740 1.356 . S
N1748 H1754 0.984 . S
N1748 H1755 0.984 . S
N1749 C1742 1.356 . S
N1749 H1752 0.984 . S
N1749 H1753 0.985 . S
H1750 N1745 0.984 . S
H1751 N1745 0.985 . S
H1752 N1749 0.984 . S
H1753 N1749 0.985 . S
H1754 N1748 0.984 . S
H1755 N1748 0.984 . S
H1756 N1744 0.984 . S
H1757 N1744 0.985 . S
C1758 C1759 1.363 . S
C1758 C1764 1.379 . S
C1758 N1766 1.356 . S
C1759 C1758 1.363 . S
C1759 C1765 1.363 1_455 S
C1760 C1761 1.363 1_655 S
C1760 C1765 1.379 . S
C1760 N1767 1.356 . S
C1761 C1760 1.363 1_455 S
C1761 C1764 1.363 . S
N1762 C1764 1.356 . S
N1762 H1774 0.984 . S
N1762 H1775 0.985 . S
N1763 C1765 1.356 . S
N1763 H1768 0.984 . S
N1763 H1769 0.985 . S
C1764 C1758 1.379 . S
C1764 C1761 1.363 . S
C1764 N1762 1.356 . S
C1765 C1759 1.363 1_655 S
C1765 C1760 1.379 . S
C1765 N1763 1.356 . S
N1766 C1758 1.356 . S
N1766 H1772 0.984 . S
N1766 H1773 0.984 . S
N1767 C1760 1.356 . S
N1767 H1770 0.984 . S
N1767 H1771 0.985 . S
H1768 N1763 0.984 . S
H1769 N1763 0.985 . S
H1770 N1767 0.984 . S
H1771 N1767 0.985 . S
H1772 N1766 0.984 . S
H1773 N1766 0.984 . S
H1774 N1762 0.984 . S
H1775 N1762 0.985 . S
C1776 C1777 1.363 . S
C1776 C1782 1.379 . S
C1776 N1784 1.356 . S
C1777 C1776 1.363 . S
C1777 C1783 1.363 . S
C1778 C1779 1.363 . S
C1778 C1783 1.379 . S
C1778 N1785 1.356 . S
C1779 C1778 1.363 . S
C1779 C1782 1.363 . S
N1780 C1782 1.356 . S
N1780 H1792 0.984 . S
N1780 H1793 0.985 . S
N1781 C1783 1.356 . S
N1781 H1786 0.984 . S
N1781 H1787 0.985 . S
C1782 C1776 1.379 . S
C1782 C1779 1.363 . S
C1782 N1780 1.356 . S
C1783 C1777 1.363 . S
C1783 C1778 1.379 . S
C1783 N1781 1.356 . S
N1784 C1776 1.356 . S
N1784 H1790 0.984 . S
N1784 H1791 0.984 . S
N1785 C1778 1.356 . S
N1785 H1788 0.984 . S
N1785 H1789 0.985 . S
H1786 N1781 0.984 . S
H1787 N1781 0.985 . S
H1788 N1785 0.984 . S
H1789 N1785 0.985 . S
H1790 N1784 0.984 . S
H1791 N1784 0.984 . S
H1792 N1780 0.984 . S
H1793 N1780 0.985 . S
C1794 C1795 1.363 . S
C1794 C1800 1.379 . S
C1794 N1802 1.356 . S
C1795 C1794 1.363 . S
C1795 C1801 1.363 . S
C1796 C1797 1.363 . S
C1796 C1801 1.379 . S
C1796 N1803 1.356 . S
C1797 C1796 1.363 . S
C1797 C1800 1.363 . S
N1798 C1800 1.356 . S
N1798 H1810 0.984 . S
N1798 H1811 0.985 . S
N1799 C1801 1.356 . S
N1799 H1804 0.984 . S
N1799 H1805 0.985 . S
C1800 C1794 1.379 . S
C1800 C1797 1.363 . S
C1800 N1798 1.356 . S
C1801 C1795 1.363 . S
C1801 C1796 1.379 . S
C1801 N1799 1.356 . S
N1802 C1794 1.356 . S
N1802 H1808 0.984 . S
N1802 H1809 0.984 . S
N1803 C1796 1.356 . S
N1803 H1806 0.984 . S
N1803 H1807 0.985 . S
H1804 N1799 0.984 . S
H1805 N1799 0.985 . S
H1806 N1803 0.984 . S
H1807 N1803 0.985 . S
H1808 N1802 0.984 . S
H1809 N1802 0.984 . S
H1810 N1798 0.984 . S
H1811 N1798 0.985 . S
C1812 C1813 1.363 . S
C1812 C1818 1.379 . S
C1812 N1820 1.356 . S
C1813 C1812 1.363 . S
C1813 C1819 1.363 . S
C1814 C1815 1.363 . S
C1814 C1819 1.379 . S
C1814 N1821 1.356 . S
C1815 C1814 1.363 . S
C1815 C1818 1.363 . S
N1816 C1818 1.356 . S
N1816 H1828 0.984 . S
N1816 H1829 0.985 . S
N1817 C1819 1.356 . S
N1817 H1822 0.984 . S
N1817 H1823 0.985 . S
C1818 C1812 1.379 . S
C1818 C1815 1.363 . S
C1818 N1816 1.356 . S
C1819 C1813 1.363 . S
C1819 C1814 1.379 . S
C1819 N1817 1.356 . S
N1820 C1812 1.356 . S
N1820 H1826 0.984 . S
N1820 H1827 0.984 . S
N1821 C1814 1.356 . S
N1821 H1824 0.984 . S
N1821 H1825 0.985 . S
H1822 N1817 0.984 . S
H1823 N1817 0.985 . S
H1824 N1821 0.984 . S
H1825 N1821 0.985 . S
H1826 N1820 0.984 . S
H1827 N1820 0.984 . S
H1828 N1816 0.984 . S
H1829 N1816 0.985 . S
C1830 C1831 1.363 . S
C1830 C1836 1.379 . S
C1830 N1838 1.356 . S
C1831 C1830 1.363 . S
C1831 C1837 1.363 . S
C1832 C1833 1.363 . S
C1832 C1837 1.379 . S
C1832 N1839 1.356 . S
C1833 C1832 1.363 . S
C1833 C1836 1.363 . S
N1834 C1836 1.356 . S
N1834 H1846 0.984 . S
N1834 H1847 0.985 . S
N1835 C1837 1.356 . S
N1835 H1840 0.984 . S
N1835 H1841 0.983 1_554 S
C1836 C1830 1.379 . S
C1836 C1833 1.363 . S
C1836 N1834 1.356 . S
C1837 C1831 1.363 . S
C1837 C1832 1.379 . S
C1837 N1835 1.356 . S
N1838 C1830 1.356 . S
N1838 H1844 0.984 . S
N1838 H1845 0.984 . S
N1839 C1832 1.356 . S
N1839 H1842 0.984 . S
N1839 H1843 0.985 . S
H1840 N1835 0.984 . S
H1841 N1835 0.983 1_556 S
H1842 N1839 0.984 . S
H1843 N1839 0.985 . S
H1844 N1838 0.984 . S
H1845 N1838 0.984 . S
H1846 N1834 0.984 . S
H1847 N1834 0.985 . S
C1848 C1849 1.363 . S
C1848 C1854 1.379 . S
C1848 N1856 1.356 . S
C1849 C1848 1.363 . S
C1849 C1855 1.363 . S
C1850 C1851 1.363 . S
C1850 C1855 1.379 . S
C1850 N1857 1.356 . S
C1851 C1850 1.363 . S
C1851 C1854 1.363 . S
N1852 C1854 1.356 . S
N1852 H1864 0.984 . S
N1852 H1865 0.985 . S
N1853 C1855 1.356 . S
N1853 H1858 0.984 . S
N1853 H1859 0.985 . S
C1854 C1848 1.379 . S
C1854 C1851 1.363 . S
C1854 N1852 1.356 . S
C1855 C1849 1.363 . S
C1855 C1850 1.379 . S
C1855 N1853 1.356 . S
N1856 C1848 1.356 . S
N1856 H1862 0.984 . S
N1856 H1863 0.984 . S
N1857 C1850 1.356 . S
N1857 H1860 0.984 . S
N1857 H1861 0.985 . S
H1858 N1853 0.984 . S
H1859 N1853 0.985 . S
H1860 N1857 0.984 . S
H1861 N1857 0.985 . S
H1862 N1856 0.984 . S
H1863 N1856 0.984 . S
H1864 N1852 0.984 . S
H1865 N1852 0.985 . S
C1866 C1867 1.363 . S
C1866 C1872 1.379 . S
C1866 N1874 1.356 . S
C1867 C1866 1.363 . S
C1867 C1873 1.363 . S
C1868 C1869 1.363 . S
C1868 C1873 1.379 . S
C1868 N1875 1.356 . S
C1869 C1868 1.363 . S
C1869 C1872 1.363 . S
N1870 C1872 1.356 . S
N1870 H1882 0.984 . S
N1870 H1883 0.985 . S
N1871 C1873 1.356 . S
N1871 H1876 0.984 . S
N1871 H1877 0.985 . S
C1872 C1866 1.379 . S
C1872 C1869 1.363 . S
C1872 N1870 1.356 . S
C1873 C1867 1.363 . S
C1873 C1868 1.379 . S
C1873 N1871 1.356 . S
N1874 C1866 1.356 . S
N1874 H1880 0.984 . S
N1874 H1881 0.984 . S
N1875 C1868 1.356 . S
N1875 H1878 0.984 . S
N1875 H1879 0.985 . S
H1876 N1871 0.984 . S
H1877 N1871 0.985 . S
H1878 N1875 0.984 . S
H1879 N1875 0.985 . S
H1880 N1874 0.984 . S
H1881 N1874 0.984 . S
H1882 N1870 0.984 . S
H1883 N1870 0.985 . S
C1884 C1885 1.363 . S
C1884 C1890 1.379 . S
C1884 N1892 1.356 . S
C1885 C1884 1.363 . S
C1885 C1891 1.363 . S
C1886 C1887 1.363 . S
C1886 C1891 1.379 . S
C1886 N1893 1.356 . S
C1887 C1886 1.363 . S
C1887 C1890 1.363 . S
N1888 C1890 1.356 . S
N1888 H1900 0.984 . S
N1888 H1901 0.985 . S
N1889 C1891 1.356 . S
N1889 H1894 0.984 . S
N1889 H1895 0.985 . S
C1890 C1884 1.379 . S
C1890 C1887 1.363 . S
C1890 N1888 1.356 . S
C1891 C1885 1.363 . S
C1891 C1886 1.379 . S
C1891 N1889 1.356 . S
N1892 C1884 1.356 . S
N1892 H1898 0.984 . S
N1892 H1899 0.984 . S
N1893 C1886 1.356 . S
N1893 H1896 0.984 . S
N1893 H1897 0.985 . S
H1894 N1889 0.984 . S
H1895 N1889 0.985 . S
H1896 N1893 0.984 . S
H1897 N1893 0.985 . S
H1898 N1892 0.984 . S
H1899 N1892 0.984 . S
H1900 N1888 0.984 . S
H1901 N1888 0.985 . S
C1902 C1903 1.363 . S
C1902 C1908 1.379 . S
C1902 N1910 1.356 . S
C1903 C1902 1.363 . S
C1903 C1909 1.363 . S
C1904 C1905 1.363 . S
C1904 C1909 1.379 . S
C1904 N1911 1.356 . S
C1905 C1904 1.363 . S
C1905 C1908 1.363 . S
N1906 C1908 1.356 . S
N1906 H1918 0.984 . S
N1906 H1919 0.985 . S
N1907 C1909 1.356 . S
N1907 H1912 0.984 . S
N1907 H1913 0.985 . S
C1908 C1902 1.379 . S
C1908 C1905 1.363 . S
C1908 N1906 1.356 . S
C1909 C1903 1.363 . S
C1909 C1904 1.379 . S
C1909 N1907 1.356 . S
N1910 C1902 1.356 . S
N1910 H1916 0.984 . S
N1910 H1917 0.984 . S
N1911 C1904 1.356 . S
N1911 H1914 0.984 . S
N1911 H1915 0.985 . S
H1912 N1907 0.984 . S
H1913 N1907 0.985 . S
H1914 N1911 0.984 . S
H1915 N1911 0.985 . S
H1916 N1910 0.984 . S
H1917 N1910 0.984 . S
H1918 N1906 0.984 . S
H1919 N1906 0.985 . S
C1920 C1921 1.363 . S
C1920 C1926 1.379 . S
C1920 N1928 1.356 . S
C1921 C1920 1.363 . S
C1921 C1927 1.363 1_556 S
C1922 C1923 1.363 1_554 S
C1922 C1927 1.379 . S
C1922 N1929 1.356 . S
C1923 C1922 1.363 1_556 S
C1923 C1926 1.363 . S
N1924 C1926 1.356 . S
N1924 H1936 0.984 . S
N1924 H1937 0.985 . S
N1925 C1927 1.356 . S
N1925 H1930 0.984 . S
N1925 H1931 0.985 . S
C1926 C1920 1.379 . S
C1926 C1923 1.363 . S
C1926 N1924 1.356 . S
C1927 C1921 1.363 1_554 S
C1927 C1922 1.379 . S
C1927 N1925 1.356 . S
N1928 C1920 1.356 . S
N1928 H1934 0.984 . S
N1928 H1935 0.984 . S
N1929 C1922 1.356 . S
N1929 H1932 0.984 . S
N1929 H1933 0.985 . S
H1930 N1925 0.984 . S
H1931 N1925 0.985 . S
H1932 N1929 0.984 . S
H1933 N1929 0.985 . S
H1934 N1928 0.984 . S
H1935 N1928 0.984 . S
H1936 N1924 0.984 . S
H1937 N1924 0.985 . S
C1938 C1939 1.363 . S
C1938 C1944 1.379 . S
C1938 N1946 1.356 . S
C1939 C1938 1.363 . S
C1939 C1945 1.363 . S
C1940 C1941 1.363 . S
C1940 C1945 1.379 . S
C1940 N1947 1.356 . S
C1941 C1940 1.363 . S
C1941 C1944 1.363 . S
N1942 C1944 1.356 . S
N1942 H1954 0.984 . S
N1942 H1955 0.985 . S
N1943 C1945 1.356 . S
N1943 H1948 0.984 . S
N1943 H1949 0.985 . S
C1944 C1938 1.379 . S
C1944 C1941 1.363 . S
C1944 N1942 1.356 . S
C1945 C1939 1.363 . S
C1945 C1940 1.379 . S
C1945 N1943 1.356 . S
N1946 C1938 1.356 . S
N1946 H1952 0.984 . S
N1946 H1953 0.984 . S
N1947 C1940 1.356 . S
N1947 H1950 0.984 . S
N1947 H1951 0.985 . S
H1948 N1943 0.984 . S
H1949 N1943 0.985 . S
H1950 N1947 0.984 . S
H1951 N1947 0.985 . S
H1952 N1946 0.984 . S
H1953 N1946 0.984 . S
H1954 N1942 0.984 . S
H1955 N1942 0.985 . S
C1956 C1957 1.363 . S
C1956 C1962 1.379 . S
C1956 N1964 1.356 1_554 S
C1957 C1956 1.363 . S
C1957 C1963 1.363 . S
C1958 C1959 1.363 . S
C1958 C1963 1.379 . S
C1958 N1965 1.356 . S
C1959 C1958 1.363 . S
C1959 C1962 1.363 . S
N1960 C1962 1.356 1_556 S
N1960 H1972 0.984 . S
N1960 H1973 0.985 . S
N1961 C1963 1.356 . S
N1961 H1966 0.984 . S
N1961 H1967 0.985 . S
C1962 C1956 1.379 . S
C1962 C1959 1.363 . S
C1962 N1960 1.356 1_554 S
C1963 C1957 1.363 . S
C1963 C1958 1.379 . S
C1963 N1961 1.356 . S
N1964 C1956 1.356 1_556 S
N1964 H1970 0.984 . S
N1964 H1971 0.976 1_556 S
N1965 C1958 1.356 . S
N1965 H1968 0.984 . S
N1965 H1969 0.985 . S
H1966 N1961 0.984 . S
H1967 N1961 0.985 . S
H1968 N1965 0.984 . S
H1969 N1965 0.985 . S
H1970 N1964 0.984 . S
H1971 N1964 0.976 1_554 S
H1972 N1960 0.984 . S
H1973 N1960 0.985 . S
C1974 C1975 1.363 1_556 S
C1974 C1980 1.379 . S
C1974 N1982 1.356 . S
C1975 C1974 1.363 1_554 S
C1975 C1981 1.363 . S
C1976 C1977 1.363 . S
C1976 C1981 1.379 . S
C1976 N1983 1.356 . S
C1977 C1976 1.363 . S
C1977 C1980 1.363 1_554 S
N1978 C1980 1.356 . S
N1978 H1990 0.984 . S
N1978 H1991 0.985 . S
N1979 C1981 1.356 . S
N1979 H1984 0.984 . S
N1979 H1985 0.985 . S
C1980 C1974 1.379 . S
C1980 C1977 1.363 1_556 S
C1980 N1978 1.356 . S
C1981 C1975 1.363 . S
C1981 C1976 1.379 . S
C1981 N1979 1.356 . S
N1982 C1974 1.356 . S
N1982 H1988 0.984 . S
N1982 H1989 0.984 . S
N1983 C1976 1.356 . S
N1983 H1986 0.984 . S
N1983 H1987 0.985 . S
H1984 N1979 0.984 . S
H1985 N1979 0.985 . S
H1986 N1983 0.984 . S
H1987 N1983 0.985 . S
H1988 N1982 0.984 . S
H1989 N1982 0.984 . S
H1990 N1978 0.984 . S
H1991 N1978 0.985 . S
C1131 C971 1.455 . S
C1129 C331 1.458 . S
C1149 C979 1.271 . S
C1147 C380 1.522 . S
C1165 C421 1.436 . S
C1167 C999 1.429 . S
C1185 C1013 1.501 . S
C1183 C260 1.490 . S
C1203 C1028 1.523 . S
C1201 C620 1.501 . S
C1221 C1042 1.523 . S
C1219 C740 1.508 . S
C1237 C680 1.531 . S
C1239 C1056 1.559 . S
C1257 C1062 1.438 . S
C1255 C571 1.469 . S
C1273 C691 1.488 . S
C1275 C1076 1.488 . S
C1293 C1097 1.521 . S
C1291 C541 1.521 . S
C1309 C601 1.464 . S
C1311 C1077 1.242 . S
C1329 C1098 1.540 . S
C1327 C721 1.521 . S
C1345 C451 1.476 . S
C1347 C1105 1.214 . S
C1363 C241 1.479 . S
C1365 C1111 1.495 . S
C1381 C320 1.482 . S
C1383 C1104 1.463 . S
C1399 C391 1.476 . S
C1401 C1112 1.490 . S
C1417 C211 1.477 . S
C1419 C1006 1.457 . S
C1435 C841 1.486 . S
C1437 C1007 1.250 . S
C1455 C964 1.501 . S
C1453 C901 1.545 . S
C1473 C985 1.449 . S
C1471 C500 1.466 . S
C1489 C271 1.469 . S
C1491 C1020 1.454 . S
C1509 C1070 1.526 . S
C1507 C661 1.500 . S
C1527 C1021 1.220 . S
C1525 C560 1.438 . S
C1545 C1049 1.260 . S
C1543 C751 1.547 . S
C1563 C1055 1.455 . S
C1561 C871 1.458 . S
C1579 C920 1.522 . S
C1581 C1063 1.271 . S
C1597 C481 1.436 . S
C1599 C1027 1.429 . S
C1617 C1041 1.500 . S
C1615 C800 1.490 . S
C1633 C200 1.501 . S
C1635 C1000 1.523 . S
C1653 C1014 1.523 . S
C1651 C20 1.508 . S
C1671 C972 1.559 . S
C1669 C80 1.531 . S
C1689 C978 1.438 . S
C1687 C151 1.469 . S
C1705 C91 1.488 . S
C1707 C1090 1.488 . S
C1723 C121 1.521 . S
C1725 C1083 1.521 . S
C1741 C181 1.464 . S
C1743 C1091 1.242 . S
C1759 C1 1.521 . S
C1761 C1084 1.540 . S
C1779 C1119 1.214 . S
C1777 C511 1.475 . S
C1797 C1125 1.495 . S
C1795 C781 1.479 . S
C1815 C1118 1.463 . S
C1813 C860 1.482 . S
C1831 C931 1.476 . S
C1833 C1126 1.490 . S
C1849 C631 1.477 . S
C1851 C1034 1.457 . S
C1869 C1035 1.250 . S
C1867 C301 1.486 . S
C1887 C1048 1.501 . S
C1885 C361 1.545 . S
C1905 C1069 1.449 . S
C1903 C440 1.466 . S
C1921 C811 1.469 . S
C1923 C992 1.456 . S
C1941 C986 1.526 . S
C1939 C61 1.500 . S
C1957 C140 1.438 . S
C1959 C993 1.220 . S
C1977 C965 1.260 . S
C1975 C31 1.547 . S
