# Generated by pormake.
# Topology ptr, (4,4)-cn, num edge types: 1
# Building blocks:
#     Node 0, Type 0, BuildingBlock: AZAVOO_clean_sbu_0, # of connection points: 4
#     Node 1, Type 0, BuildingBlock: AZAVOO_clean_sbu_0, # of connection points: 4
#     Node 2, Type 0, BuildingBlock: AZAVOO_clean_sbu_0, # of connection points: 4
#     Node 3, Type 0, BuildingBlock: AZAVOO_clean_sbu_0, # of connection points: 4
#     Node 4, Type 0, BuildingBlock: AZAVOO_clean_sbu_0, # of connection points: 4
#     Node 5, Type 0, BuildingBlock: AZAVOO_clean_sbu_0, # of connection points: 4
#     Node 6, Type 0, BuildingBlock: AZAVOO_clean_sbu_0, # of connection points: 4
#     Node 7, Type 0, BuildingBlock: AZAVOO_clean_sbu_0, # of connection points: 4
#     Node 8, Type 0, BuildingBlock: AZAVOO_clean_sbu_0, # of connection points: 4
#     Node 9, Type 0, BuildingBlock: AZAVOO_clean_sbu_0, # of connection points: 4
#     Node 10, Type 0, BuildingBlock: AZAVOO_clean_sbu_0, # of connection points: 4
#     Node 11, Type 0, BuildingBlock: AZAVOO_clean_sbu_0, # of connection points: 4
#     Node 12, Type 0, BuildingBlock: AZAVOO_clean_sbu_0, # of connection points: 4
#     Node 13, Type 0, BuildingBlock: AZAVOO_clean_sbu_0, # of connection points: 4
#     Node 14, Type 0, BuildingBlock: AZAVOO_clean_sbu_0, # of connection points: 4
#     Node 15, Type 0, BuildingBlock: AZAVOO_clean_sbu_0, # of connection points: 4
#     Node 16, Type 0, BuildingBlock: AZAVOO_clean_sbu_0, # of connection points: 4
#     Node 17, Type 0, BuildingBlock: AZAVOO_clean_sbu_0, # of connection points: 4
#     Node 18, Type 1, BuildingBlock: MIFKUJ_clean_linker_1, # of connection points: 4
#     Node 19, Type 1, BuildingBlock: MIFKUJ_clean_linker_1, # of connection points: 4
#     Node 20, Type 1, BuildingBlock: MIFKUJ_clean_linker_1, # of connection points: 4
#     Node 21, Type 1, BuildingBlock: MIFKUJ_clean_linker_1, # of connection points: 4
#     Node 22, Type 1, BuildingBlock: MIFKUJ_clean_linker_1, # of connection points: 4
#     Node 23, Type 1, BuildingBlock: MIFKUJ_clean_linker_1, # of connection points: 4
#     Node 24, Type 1, BuildingBlock: MIFKUJ_clean_linker_1, # of connection points: 4
#     Node 25, Type 1, BuildingBlock: MIFKUJ_clean_linker_1, # of connection points: 4
#     Node 26, Type 1, BuildingBlock: MIFKUJ_clean_linker_1, # of connection points: 4
#     Node 27, Type 1, BuildingBlock: MIFKUJ_clean_linker_1, # of connection points: 4
#     Node 28, Type 1, BuildingBlock: MIFKUJ_clean_linker_1, # of connection points: 4
#     Node 29, Type 1, BuildingBlock: MIFKUJ_clean_linker_1, # of connection points: 4
#     Node 30, Type 1, BuildingBlock: MIFKUJ_clean_linker_1, # of connection points: 4
#     Node 31, Type 1, BuildingBlock: MIFKUJ_clean_linker_1, # of connection points: 4
#     Node 32, Type 1, BuildingBlock: MIFKUJ_clean_linker_1, # of connection points: 4
#     Node 33, Type 1, BuildingBlock: MIFKUJ_clean_linker_1, # of connection points: 4
#     Node 34, Type 1, BuildingBlock: MIFKUJ_clean_linker_1, # of connection points: 4
#     Node 35, Type 1, BuildingBlock: MIFKUJ_clean_linker_1, # of connection points: 4
#     Edge 36, Type (0, 1), BuildingBlock: FUNLAD_clean_linker_0, # of connection points: 2
#     Edge 37, Type (0, 1), BuildingBlock: FUNLAD_clean_linker_0, # of connection points: 2
#     Edge 38, Type (0, 1), BuildingBlock: FUNLAD_clean_linker_0, # of connection points: 2
#     Edge 39, Type (0, 1), BuildingBlock: FUNLAD_clean_linker_0, # of connection points: 2
#     Edge 40, Type (0, 1), BuildingBlock: FUNLAD_clean_linker_0, # of connection points: 2
#     Edge 41, Type (0, 1), BuildingBlock: FUNLAD_clean_linker_0, # of connection points: 2
#     Edge 42, Type (0, 1), BuildingBlock: FUNLAD_clean_linker_0, # of connection points: 2
#     Edge 43, Type (0, 1), BuildingBlock: FUNLAD_clean_linker_0, # of connection points: 2
#     Edge 44, Type (0, 1), BuildingBlock: FUNLAD_clean_linker_0, # of connection points: 2
#     Edge 45, Type (0, 1), BuildingBlock: FUNLAD_clean_linker_0, # of connection points: 2
#     Edge 46, Type (0, 1), BuildingBlock: FUNLAD_clean_linker_0, # of connection points: 2
#     Edge 47, Type (0, 1), BuildingBlock: FUNLAD_clean_linker_0, # of connection points: 2
#     Edge 48, Type (0, 1), BuildingBlock: FUNLAD_clean_linker_0, # of connection points: 2
#     Edge 49, Type (0, 1), BuildingBlock: FUNLAD_clean_linker_0, # of connection points: 2
#     Edge 50, Type (0, 1), BuildingBlock: FUNLAD_clean_linker_0, # of connection points: 2
#     Edge 51, Type (0, 1), BuildingBlock: FUNLAD_clean_linker_0, # of connection points: 2
#     Edge 52, Type (0, 1), BuildingBlock: FUNLAD_clean_linker_0, # of connection points: 2
#     Edge 53, Type (0, 1), BuildingBlock: FUNLAD_clean_linker_0, # of connection points: 2
#     Edge 54, Type (0, 1), BuildingBlock: FUNLAD_clean_linker_0, # of connection points: 2
#     Edge 55, Type (0, 1), BuildingBlock: FUNLAD_clean_linker_0, # of connection points: 2
#     Edge 56, Type (0, 1), BuildingBlock: FUNLAD_clean_linker_0, # of connection points: 2
#     Edge 57, Type (0, 1), BuildingBlock: FUNLAD_clean_linker_0, # of connection points: 2
#     Edge 58, Type (0, 1), BuildingBlock: FUNLAD_clean_linker_0, # of connection points: 2
#     Edge 59, Type (0, 1), BuildingBlock: FUNLAD_clean_linker_0, # of connection points: 2
#     Edge 60, Type (0, 1), BuildingBlock: FUNLAD_clean_linker_0, # of connection points: 2
#     Edge 61, Type (0, 1), BuildingBlock: FUNLAD_clean_linker_0, # of connection points: 2
#     Edge 62, Type (0, 1), BuildingBlock: FUNLAD_clean_linker_0, # of connection points: 2
#     Edge 63, Type (0, 1), BuildingBlock: FUNLAD_clean_linker_0, # of connection points: 2
#     Edge 64, Type (0, 1), BuildingBlock: FUNLAD_clean_linker_0, # of connection points: 2
#     Edge 65, Type (0, 1), BuildingBlock: FUNLAD_clean_linker_0, # of connection points: 2
#     Edge 66, Type (0, 1), BuildingBlock: FUNLAD_clean_linker_0, # of connection points: 2
#     Edge 67, Type (0, 1), BuildingBlock: FUNLAD_clean_linker_0, # of connection points: 2
#     Edge 68, Type (0, 1), BuildingBlock: FUNLAD_clean_linker_0, # of connection points: 2
#     Edge 69, Type (0, 1), BuildingBlock: FUNLAD_clean_linker_0, # of connection points: 2
#     Edge 70, Type (0, 1), BuildingBlock: FUNLAD_clean_linker_0, # of connection points: 2
#     Edge 71, Type (0, 1), BuildingBlock: FUNLAD_clean_linker_0, # of connection points: 2
#     Edge 72, Type (0, 1), BuildingBlock: FUNLAD_clean_linker_0, # of connection points: 2
#     Edge 73, Type (0, 1), BuildingBlock: FUNLAD_clean_linker_0, # of connection points: 2
#     Edge 74, Type (0, 1), BuildingBlock: FUNLAD_clean_linker_0, # of connection points: 2
#     Edge 75, Type (0, 1), BuildingBlock: FUNLAD_clean_linker_0, # of connection points: 2
#     Edge 76, Type (0, 1), BuildingBlock: FUNLAD_clean_linker_0, # of connection points: 2
#     Edge 77, Type (0, 1), BuildingBlock: FUNLAD_clean_linker_0, # of connection points: 2
#     Edge 78, Type (0, 1), BuildingBlock: FUNLAD_clean_linker_0, # of connection points: 2
#     Edge 79, Type (0, 1), BuildingBlock: FUNLAD_clean_linker_0, # of connection points: 2
#     Edge 80, Type (0, 1), BuildingBlock: FUNLAD_clean_linker_0, # of connection points: 2
#     Edge 81, Type (0, 1), BuildingBlock: FUNLAD_clean_linker_0, # of connection points: 2
#     Edge 82, Type (0, 1), BuildingBlock: FUNLAD_clean_linker_0, # of connection points: 2
#     Edge 83, Type (0, 1), BuildingBlock: FUNLAD_clean_linker_0, # of connection points: 2
#     Edge 84, Type (0, 1), BuildingBlock: FUNLAD_clean_linker_0, # of connection points: 2
#     Edge 85, Type (0, 1), BuildingBlock: FUNLAD_clean_linker_0, # of connection points: 2
#     Edge 86, Type (0, 1), BuildingBlock: FUNLAD_clean_linker_0, # of connection points: 2
#     Edge 87, Type (0, 1), BuildingBlock: FUNLAD_clean_linker_0, # of connection points: 2
#     Edge 88, Type (0, 1), BuildingBlock: FUNLAD_clean_linker_0, # of connection points: 2
#     Edge 89, Type (0, 1), BuildingBlock: FUNLAD_clean_linker_0, # of connection points: 2
#     Edge 90, Type (0, 1), BuildingBlock: FUNLAD_clean_linker_0, # of connection points: 2
#     Edge 91, Type (0, 1), BuildingBlock: FUNLAD_clean_linker_0, # of connection points: 2
#     Edge 92, Type (0, 1), BuildingBlock: FUNLAD_clean_linker_0, # of connection points: 2
#     Edge 93, Type (0, 1), BuildingBlock: FUNLAD_clean_linker_0, # of connection points: 2
#     Edge 94, Type (0, 1), BuildingBlock: FUNLAD_clean_linker_0, # of connection points: 2
#     Edge 95, Type (0, 1), BuildingBlock: FUNLAD_clean_linker_0, # of connection points: 2
#     Edge 96, Type (0, 1), BuildingBlock: FUNLAD_clean_linker_0, # of connection points: 2
#     Edge 97, Type (0, 1), BuildingBlock: FUNLAD_clean_linker_0, # of connection points: 2
#     Edge 98, Type (0, 1), BuildingBlock: FUNLAD_clean_linker_0, # of connection points: 2
#     Edge 99, Type (0, 1), BuildingBlock: FUNLAD_clean_linker_0, # of connection points: 2
#     Edge 100, Type (0, 1), BuildingBlock: FUNLAD_clean_linker_0, # of connection points: 2
#     Edge 101, Type (0, 1), BuildingBlock: FUNLAD_clean_linker_0, # of connection points: 2
#     Edge 102, Type (0, 1), BuildingBlock: FUNLAD_clean_linker_0, # of connection points: 2
#     Edge 103, Type (0, 1), BuildingBlock: FUNLAD_clean_linker_0, # of connection points: 2
#     Edge 104, Type (0, 1), BuildingBlock: FUNLAD_clean_linker_0, # of connection points: 2
#     Edge 105, Type (0, 1), BuildingBlock: FUNLAD_clean_linker_0, # of connection points: 2
#     Edge 106, Type (0, 1), BuildingBlock: FUNLAD_clean_linker_0, # of connection points: 2
#     Edge 107, Type (0, 1), BuildingBlock: FUNLAD_clean_linker_0, # of connection points: 2
# Relax obj value: 0.079
# Max RMSD: 0.277
# Mean RMSD: 0.120
data_MOF--net-ptr--node1-AZAVOO_clean_sbu_0--node2-MIFKUJ_clean_linker_1--edge1-FUNLAD_clean_linker_0
_symmetry_space_group_name_H-M    P1
_symmetry_Int_Tables_number       1
_symmetry_cell_setting            triclinic
loop_
_symmetry_equiv_pos_as_xyz
'x, y, z'
_cell_length_a     102.98887
_cell_length_b     101.35071
_cell_length_c     67.401063
_cell_angle_alpha  91.133394
_cell_angle_beta   90.872165
_cell_angle_gamma 120.0603
loop_
_atom_site_label
_atom_site_type_symbol
_atom_site_fract_x
_atom_site_fract_y
_atom_site_fract_z
_atom_type_partial_charge
Mg0 Mg 0.00951 0.34144 0.98333 0.0
O1 O 0.99799 0.34957 0.0056 0.0
O2 O 0.98011 0.35115 0.98843 0.0
Mg3 Mg 0.98036 0.34469 0.95582 0.0
C4 C 0.9873 0.35253 0.00466 0.0
C5 C 0.03444 0.33955 0.00602 0.0
O6 O 0.04112 0.34704 0.99013 0.0
O7 O 0.9894 0.31719 0.98233 0.0
O8 O 0.97294 0.31999 0.96354 0.0
O9 O 0.02564 0.36578 0.97613 0.0
O10 O 0.004 0.35119 0.96023 0.0
C11 C 0.97675 0.31162 0.97304 0.0
C12 C 0.01586 0.36436 0.96269 0.0
O13 O 0.02078 0.33567 0.00838 0.0
Mg14 Mg 0.65411 0.64794 0.03345 0.0
O15 O 0.63514 0.64122 0.01013 0.0
O16 O 0.6149 0.63764 0.02631 0.0
Mg17 Mg 0.62063 0.64123 0.05965 0.0
C18 C 0.62142 0.6379 0.01024 0.0
C19 C 0.68468 0.66709 0.01492 0.0
O20 O 0.68709 0.67241 0.03337 0.0
O21 O 0.65686 0.67151 0.03777 0.0
O22 O 0.63708 0.66684 0.05583 0.0
O23 O 0.64713 0.62342 0.03681 0.0
O24 O 0.6385 0.63573 0.05465 0.0
C25 C 0.64929 0.67611 0.04756 0.0
C26 C 0.6381 0.62312 0.05019 0.0
O27 O 0.6716 0.65652 0.00959 0.0
Mg28 Mg 0.34478 0.98969 0.99211 0.0
O29 O 0.36312 0.00107 0.01643 0.0
O30 O 0.38412 0.01867 0.00267 0.0
Mg31 Mg 0.37914 0.01839 0.96943 0.0
C32 C 0.37691 0.01147 0.01777 0.0
C33 C 0.3148 0.96791 0.01043 0.0
O34 O 0.31288 0.9624 0.99213 0.0
O35 O 0.34201 0.0105 0.99096 0.0
O36 O 0.36282 0.02712 0.97579 0.0
O37 O 0.35209 0.97269 0.98596 0.0
O38 O 0.36074 0.99461 0.97092 0.0
C39 C 0.35026 0.02351 0.98354 0.0
C40 C 0.36124 0.98233 0.97353 0.0
O41 O 0.32727 0.97949 0.0156 0.0
Mg42 Mg 0.98725 0.65354 0.0239 0.0
O43 O 0.99676 0.64453 -0.00023 0.0
O44 O 0.0138 0.64029 0.01469 0.0
Mg45 Mg 0.01525 0.64641 0.04773 0.0
C46 C 0.00645 0.64017 0.99919 0.0
C47 C 0.97293 0.67099 0.00606 0.0
O48 O 0.97568 0.67596 0.02466 0.0
O49 O 0.00864 0.67688 0.02515 0.0
O50 O 0.02476 0.67166 0.0408 0.0
O51 O 0.96988 0.62948 0.03022 0.0
O52 O 0.99212 0.6421 0.04543 0.0
C53 C 0.02161 0.68108 0.0328 0.0
C54 C 0.97961 0.62954 0.04269 0.0
O55 O 0.97661 0.66131 0.00035 0.0
Mg56 Mg 0.34362 0.35063 0.98131 0.0
O57 O 0.36212 0.3583 0.00553 0.0
O58 O 0.38308 0.36228 0.99104 0.0
Mg59 Mg 0.37816 0.3578 0.95759 0.0
C60 C 0.37595 0.36207 0.00648 0.0
C61 C 0.3266 0.35146 0.01882 0.0
O62 O 0.33797 0.36551 0.01996 0.0
O63 O 0.34139 0.32716 0.9785 0.0
O64 O 0.36201 0.33228 0.96212 0.0
O65 O 0.35012 0.37486 0.97628 0.0
O66 O 0.35954 0.36248 0.96028 0.0
C67 C 0.34959 0.32282 0.96981 0.0
C68 C 0.35943 0.37498 0.96348 0.0
O69 O 0.32593 0.34256 0.0048 0.0
Mg70 Mg 0.65797 0.01225 0.03588 0.0
O71 O 0.63963 -0.00035 0.01174 0.0
O72 O 0.61889 0.98249 0.02648 0.0
Mg73 Mg 0.62388 0.98434 0.05995 0.0
C74 C 0.6259 0.98905 0.01093 0.0
C75 C 0.68901 0.02548 0.01846 0.0
O76 O 0.69146 0.02438 0.03738 0.0
O77 O 0.66106 0.99171 0.03952 0.0
O78 O 0.64069 0.97591 0.05606 0.0
O79 O 0.65035 0.02932 0.0402 0.0
O80 O 0.64191 0.0081 0.05672 0.0
C81 C 0.65324 0.97929 0.04849 0.0
C82 C 0.64127 0.02016 0.0531 0.0
O83 O 0.67575 0.02145 0.01243 0.0
Mg84 Mg 0.67536 0.67777 0.32122 0.0
O85 O 0.66439 0.68541 0.34513 0.0
O86 O 0.64794 0.68993 0.329 0.0
Mg87 Mg 0.64838 0.6856 0.29576 0.0
C88 C 0.65441 0.68942 0.34504 0.0
C89 C 0.69822 0.67102 0.3397 0.0
O90 O 0.70382 0.67736 0.32275 0.0
O91 O 0.65414 0.65437 0.31777 0.0
O92 O 0.63871 0.66009 0.30121 0.0
O93 O 0.69293 0.70209 0.31706 0.0
O94 O 0.67143 0.69013 0.30003 0.0
C95 C 0.64152 0.6504 0.30915 0.0
C96 C 0.68383 0.70257 0.304 0.0
O97 O 0.68559 0.66931 0.34451 0.0
Mg98 Mg 0.31307 0.982 0.37194 0.0
O99 O 0.29419 0.9733 0.34795 0.0
O100 O 0.27362 0.9702 0.36275 0.0
Mg101 Mg 0.27919 0.97675 0.39568 0.0
C102 C 0.28034 0.96953 0.34732 0.0
C103 C 0.34199 0.98741 0.3539 0.0
O104 O 0.3427 0.98344 0.37215 0.0
O105 O 0.31572 0.00569 0.37219 0.0
O106 O 0.29525 0.00177 0.38809 0.0
O107 O 0.30632 0.95808 0.37919 0.0
O108 O 0.29744 0.9715 0.39384 0.0
C109 C 0.30759 0.01061 0.37974 0.0
C110 C 0.29725 0.95875 0.39174 0.0
O111 O 0.33055 0.98817 0.34834 0.0
Mg112 Mg 0.0132 0.31914 0.32032 0.0
O113 O 0.03327 0.3295 0.34238 0.0
O114 O 0.05421 0.34216 0.32528 0.0
Mg115 Mg 0.04754 0.33975 0.29233 0.0
C116 C 0.04753 0.33768 0.34168 0.0
C117 C 0.98647 0.3166 0.34402 0.0
O118 O 0.98481 0.32247 0.32761 0.0
O119 O 0.0158 0.34255 0.31636 0.0
O120 O 0.03632 0.35411 0.29815 0.0
O121 O 0.01513 0.29823 0.31625 0.0
O122 O 0.02648 0.31865 0.29799 0.0
C123 C 0.02537 0.35403 0.30694 0.0
C124 C 0.02423 0.30535 0.30215 0.0
O125 O 0.99735 0.31411 0.34573 0.0
Mg126 Mg 0.66071 0.98438 0.36051 0.0
O127 O 0.67204 0.97747 0.33653 0.0
O128 O 0.69 0.97486 0.35181 0.0
Mg129 Mg 0.6899 0.97958 0.38513 0.0
C130 C 0.68268 0.97443 0.33611 0.0
C131 C 0.64254 0.99802 0.34316 0.0
O132 O 0.64337 0.00142 0.36223 0.0
O133 O 0.6809 0.00855 0.3629 0.0
O134 O 0.69748 0.00476 0.37992 0.0
O135 O 0.64449 0.9598 0.3655 0.0
O136 O 0.66619 0.97321 0.38182 0.0
C137 C 0.69365 0.01364 0.37178 0.0
C138 C 0.65423 0.96024 0.37827 0.0
O139 O 0.64916 0.99107 0.33695 0.0
Mg140 Mg 0.01625 0.68242 0.31932 0.0
O141 O 0.03556 0.69108 0.34256 0.0
O142 O 0.05663 0.69783 0.32631 0.0
Mg143 Mg 0.0509 0.69391 0.29303 0.0
C144 C 0.04971 0.69627 0.34243 0.0
C145 C -0.00165 0.68067 0.35667 0.0
O146 O 0.00816 0.69535 0.35689 0.0
O147 O 0.01666 0.66042 0.31455 0.0
O148 O 0.03744 0.66792 0.29725 0.0
O149 O 0.02009 0.70594 0.31641 0.0
O150 O 0.03096 0.69609 0.29812 0.0
C151 C 0.02568 0.6575 0.30526 0.0
C152 C 0.02952 0.70766 0.30282 0.0
O153 O -0.0009 0.67206 0.34335 0.0
Mg154 Mg 0.32044 0.3458 0.36393 0.0
O155 O 0.30118 0.33376 0.34071 0.0
O156 O 0.28073 0.3172 0.35655 0.0
Mg157 Mg 0.28663 0.31896 0.38963 0.0
C158 C 0.28734 0.32345 0.34064 0.0
C159 C 0.34972 0.35455 0.34318 0.0
O160 O 0.35174 0.35009 0.36055 0.0
O161 O 0.32214 0.32438 0.36616 0.0
O162 O 0.30186 0.30895 0.38319 0.0
O163 O 0.31425 0.36382 0.36991 0.0
O164 O 0.30534 0.3423 0.38586 0.0
C165 C 0.31394 0.31181 0.37461 0.0
C166 C 0.3054 0.35485 0.38314 0.0
O167 O 0.33751 0.35441 0.33951 0.0
Mg168 Mg 0.34692 0.01555 0.65784 0.0
O169 O 0.33386 0.02356 0.67765 0.0
O170 O 0.3182 0.02656 0.65736 0.0
Mg171 Mg 0.32089 0.02057 0.62551 0.0
C172 C 0.32367 0.02708 0.67468 0.0
C173 C 0.35928 -0.0013 0.68213 0.0
O174 O 0.35583 0.99132 0.66486 0.0
O175 O 0.32634 0.9916 0.65479 0.0
O176 O 0.31153 0.9957 0.63427 0.0
O177 O 0.36413 0.03981 0.65265 0.0
O178 O 0.34384 0.02624 0.63365 0.0
C179 C 0.31415 0.98679 0.64459 0.0
C180 C 0.35567 0.03917 0.63782 0.0
O181 O 0.35624 0.00931 0.68475 0.0
Mg182 Mg 0.98232 0.31094 0.7015 0.0
O183 O 0.96247 0.30082 0.67882 0.0
O184 O 0.94186 0.2955 0.69546 0.0
Mg185 Mg 0.94849 0.30286 0.72802 0.0
C186 C 0.94833 0.29562 0.6794 0.0
C187 C 0.01122 0.33117 0.6788 0.0
O188 O 0.01352 0.33954 0.69503 0.0
O189 O 0.98271 0.33355 0.70242 0.0
O190 O 0.96238 0.32813 0.71976 0.0
O191 O 0.97772 0.28756 0.70853 0.0
O192 O 0.96794 0.29965 0.72437 0.0
C193 C 0.9741 0.33756 0.71067 0.0
C194 C 0.96877 0.28748 0.72188 0.0
O195 O -0.001 0.31856 0.67656 0.0
Mg196 Mg 0.67815 0.64822 0.65766 0.0
O197 O 0.6952 0.66014 0.68335 0.0
O198 O 0.71556 0.68011 0.67159 0.0
Mg199 Mg 0.71176 0.68034 0.63811 0.0
C200 C 0.70831 0.67174 0.68592 0.0
C201 C 0.64692 0.63372 0.67566 0.0
O202 O 0.64427 0.63757 0.6582 0.0
O203 O 0.67298 0.66743 0.65701 0.0
O204 O 0.69325 0.68631 0.64344 0.0
O205 O 0.68763 0.63315 0.65128 0.0
O206 O 0.69543 0.65555 0.63784 0.0
C207 C 0.68015 0.68087 0.65044 0.0
C208 C 0.69691 0.64376 0.63993 0.0
O209 O 0.66 0.63613 0.67991 0.0
Mg210 Mg 0.32248 0.32051 0.69426 0.0
O211 O 0.33396 0.31337 0.67055 0.0
O212 O 0.35159 0.31067 0.68667 0.0
Mg213 Mg 0.35095 0.31505 0.71991 0.0
C214 C 0.34461 0.31032 0.67067 0.0
C215 C 0.30765 0.33739 0.67676 0.0
O216 O 0.31042 0.34216 0.69544 0.0
O217 O 0.34289 0.34455 0.69741 0.0
O218 O 0.35898 0.34029 0.71483 0.0
O219 O 0.30583 0.29592 0.69928 0.0
O220 O 0.32744 0.30916 0.71577 0.0
C221 C 0.35547 0.34937 0.70663 0.0
C222 C 0.31534 0.2963 0.7124 0.0
O223 O 0.31166 0.32804 0.67066 0.0
Mg224 Mg 0.68306 0.02002 0.64742 0.0
O225 O 0.70114 0.02694 0.67204 0.0
O226 O 0.72232 0.03129 0.65781 0.0
Mg227 Mg 0.71791 0.02778 0.6242 0.0
C228 C 0.71495 0.03063 0.67319 0.0
C229 C 0.65158 0.00222 0.66465 0.0
O230 O 0.64884 0.99765 0.64589 0.0
O231 O 0.68083 0.99662 0.64369 0.0
O232 O 0.70176 0.00211 0.6278 0.0
O233 O 0.68972 0.0444 0.64376 0.0
O234 O 0.69933 0.03247 0.62707 0.0
C235 C 0.68921 0.99248 0.63505 0.0
C236 C 0.69926 0.04492 0.63104 0.0
O237 O 0.66501 0.01149 0.67041 0.0
Mg238 Mg 0.98469 0.67933 0.69624 0.0
O239 O 0.966 0.66668 0.67243 0.0
O240 O 0.9445 0.65313 0.68817 0.0
Mg241 Mg 0.94917 0.65795 0.72161 0.0
C242 C 0.95186 0.65738 0.67221 0.0
C243 C 0.00288 0.69014 0.65734 0.0
O244 O 0.99245 0.69357 0.6531 0.0
O245 O 0.98357 0.65712 0.70419 0.0
O246 O 0.9627 0.64557 0.72168 0.0
O247 O 0.98142 0.69959 0.69606 0.0
O248 O 0.96924 0.67974 0.71509 0.0
C249 C 0.97444 0.64615 0.71472 0.0
C250 C 0.9712 0.69255 0.709 0.0
O251 O 0.00256 0.68404 0.67373 0.0
H252 H 0.14291 0.30587 0.19525 0.0
H253 H 0.12116 0.30063 0.21465 0.0
H254 H 0.09216 0.26583 0.17128 0.0
H255 H 0.11407 0.27111 0.15185 0.0
H256 H 0.15531 0.29054 0.18602 0.0
H257 H 0.13621 0.31602 0.15122 0.0
H258 H 0.11947 0.32266 0.13369 0.0
H259 H 0.11139 0.28893 0.08764 0.0
H260 H 0.12797 0.28206 0.10556 0.0
H261 H 0.17168 0.28162 0.10903 0.0
H262 H 0.19424 0.28731 0.09092 0.0
H263 H 0.21965 0.32895 0.12629 0.0
H264 H 0.19709 0.3231 0.1444 0.0
H265 H 0.15761 0.30001 0.11388 0.0
H266 H 0.18424 0.28044 0.15695 0.0
H267 H 0.2064 0.28494 0.17681 0.0
H268 H 0.20499 0.32119 0.20977 0.0
H269 H 0.18312 0.31678 0.18986 0.0
C270 C 0.13013 0.28892 0.17206 0.0
C271 C 0.1319 0.29701 0.18999 0.0
C272 C 0.11945 0.29395 0.20112 0.0
C273 C 0.10496 0.28273 0.19456 0.0
C274 C 0.10318 0.2746 0.17663 0.0
C275 C 0.11568 0.27763 0.16551 0.0
C276 C 0.14347 0.29222 0.16042 0.0
C277 C 0.15576 0.29261 0.17024 0.0
C278 C 0.14427 0.29532 0.13996 0.0
C279 C 0.13321 0.29841 0.12983 0.0
C280 C 0.13061 0.30983 0.13756 0.0
C281 C 0.12116 0.31373 0.12741 0.0
C282 C 0.11416 0.30636 0.10925 0.0
C283 C 0.11651 0.2947 0.1017 0.0
C284 C 0.12604 0.29083 0.11185 0.0
C285 C 0.18279 0.30184 0.12817 0.0
C286 C 0.18212 0.29199 0.11279 0.0
C287 C 0.195 0.29528 0.10245 0.0
C288 C 0.20875 0.30855 0.10725 0.0
C289 C 0.2093 0.31851 0.12248 0.0
C290 C 0.19642 0.31522 0.13279 0.0
C291 C 0.16924 0.29807 0.13948 0.0
C292 C 0.1569 0.29756 0.12955 0.0
C293 C 0.1688 0.29596 0.16016 0.0
C294 C 0.18208 0.29829 0.17196 0.0
C295 C 0.18879 0.28938 0.16841 0.0
C296 C 0.20138 0.29193 0.17978 0.0
C297 C 0.20748 0.30349 0.19473 0.0
C298 C 0.20071 0.31237 0.19814 0.0
C299 C 0.18812 0.30976 0.18693 0.0
H300 H 0.73345 0.89433 0.19466 0.0
H301 H 0.73151 0.91336 0.2152 0.0
H302 H 0.69084 0.90329 0.18284 0.0
H303 H 0.69258 0.88387 0.16284 0.0
H304 H 0.71323 0.86411 0.19332 0.0
H305 H 0.73183 0.90508 0.14648 0.0
H306 H 0.72955 0.92383 0.12647 0.0
H307 H 0.69159 0.8873 0.09425 0.0
H308 H 0.6934 0.86869 0.11469 0.0
H309 H 0.68939 0.83254 0.11861 0.0
H310 H 0.68335 0.80836 0.10235 0.0
H311 H 0.71987 0.80859 0.13505 0.0
H312 H 0.72609 0.83305 0.1511 0.0
H313 H 0.71183 0.85989 0.11983 0.0
H314 H 0.68658 0.82168 0.16744 0.0
H315 H 0.68167 0.80037 0.18839 0.0
H316 H 0.72456 0.82823 0.21881 0.0
H317 H 0.72959 0.84939 0.19729 0.0
C318 C 0.71325 0.88777 0.1771 0.0
C319 C 0.7242 0.89634 0.19188 0.0
C320 C 0.72312 0.9073 0.2035 0.0
C321 C 0.71102 0.90988 0.20066 0.0
C322 C 0.70023 0.9015 0.18554 0.0
C323 C 0.7013 0.8905 0.17394 0.0
C324 C 0.71368 0.87515 0.16613 0.0
C325 C 0.71325 0.86336 0.17723 0.0
C326 C 0.71311 0.87389 0.14512 0.0
C327 C 0.71266 0.88544 0.13232 0.0
C328 C 0.72297 0.9011 0.13519 0.0
C329 C 0.72174 0.91179 0.12368 0.0
C330 C 0.71045 0.90696 0.10878 0.0
C331 C 0.70053 0.8913 0.10544 0.0
C332 C 0.70156 0.88067 0.11716 0.0
C333 C 0.7081 0.83457 0.13624 0.0
C334 C 0.69629 0.82755 0.12205 0.0
C335 C 0.69285 0.81373 0.11273 0.0
C336 C 0.70112 0.80658 0.11746 0.0
C337 C 0.71321 0.81378 0.13128 0.0
C338 C 0.71675 0.82773 0.14047 0.0
C339 C 0.71087 0.84872 0.147 0.0
C340 C 0.71208 0.86083 0.13591 0.0
C341 C 0.7114 0.84998 0.16798 0.0
C342 C 0.70855 0.83704 0.18062 0.0
C343 C 0.695 0.82314 0.17847 0.0
C344 C 0.69214 0.81103 0.19061 0.0
C345 C 0.70271 0.81261 0.20531 0.0
C346 C 0.71626 0.82658 0.20748 0.0
C347 C 0.71912 0.83871 0.1953 0.0
H348 H 0.1141 0.85136 0.18263 0.0
H349 H 0.09445 0.8309 0.20174 0.0
H350 H 0.10702 0.79923 0.17761 0.0
H351 H 0.12675 0.81959 0.15913 0.0
H352 H 0.14334 0.863 0.18583 0.0
H353 H 0.10682 0.83725 0.13279 0.0
H354 H 0.08873 0.81488 0.11288 0.0
H355 H 0.12467 0.80767 0.09386 0.0
H356 H 0.14245 0.82939 0.11457 0.0
H357 H 0.17965 0.85978 0.12862 0.0
H358 H 0.20337 0.87387 0.11185 0.0
H359 H 0.20175 0.91542 0.12015 0.0
H360 H 0.17799 0.90118 0.13739 0.0
H361 H 0.15298 0.85736 0.11521 0.0
H362 H 0.18595 0.87507 0.17391 0.0
H363 H 0.20418 0.89304 0.19859 0.0
H364 H 0.17669 0.91381 0.20647 0.0
H365 H 0.15835 0.89552 0.18209 0.0
C366 C 0.12169 0.83695 0.1691 0.0
C367 C 0.11251 0.83997 0.18134 0.0
C368 C 0.10132 0.82831 0.19225 0.0
C369 C 0.09913 0.81347 0.19095 0.0
C370 C 0.10824 0.81048 0.17854 0.0
C371 C 0.1195 0.82212 0.16791 0.0
C372 C 0.13439 0.8494 0.15875 0.0
C373 C 0.14524 0.86197 0.17022 0.0
C374 C 0.137 0.84793 0.13846 0.0
C375 C 0.12601 0.83497 0.12539 0.0
C376 C 0.11078 0.8308 0.1244 0.0
C377 C 0.10046 0.81809 0.11283 0.0
C378 C 0.10521 0.80938 0.10185 0.0
C379 C 0.12055 0.81391 0.1024 0.0
C380 C 0.13079 0.82648 0.11408 0.0
C381 C 0.17705 0.87943 0.13405 0.0
C382 C 0.18446 0.87195 0.12695 0.0
C383 C 0.19798 0.88 0.11731 0.0
C384 C 0.2043 0.89571 0.11441 0.0
C385 C 0.19716 0.90334 0.12224 0.0
C386 C 0.1836 0.89523 0.13202 0.0
C387 C 0.16208 0.8703 0.14258 0.0
C388 C 0.15078 0.85854 0.13065 0.0
C389 C 0.15918 0.87231 0.16246 0.0
C390 C 0.17086 0.88405 0.17608 0.0
C391 C 0.18399 0.88366 0.18074 0.0
C392 C 0.19442 0.89398 0.19484 0.0
C393 C 0.19191 0.90487 0.2046 0.0
C394 C 0.17889 0.90543 0.1995 0.0
C395 C 0.16843 0.89506 0.18548 0.0
H396 H 0.26654 0.14645 0.82227 0.0
H397 H 0.26606 0.16572 0.80127 0.0
H398 H 0.31212 0.19753 0.81892 0.0
H399 H 0.31257 0.17828 0.83962 0.0
H400 H 0.2857 0.13434 0.81975 0.0
H401 H 0.27794 0.16705 0.86968 0.0
H402 H 0.28639 0.19174 0.88696 0.0
H403 H 0.32829 0.19407 0.90312 0.0
H404 H 0.32013 0.17001 0.88539 0.0
H405 H 0.32068 0.13819 0.88721 0.0
H406 H 0.32873 0.12325 0.90623 0.0
H407 H 0.28724 0.08214 0.88988 0.0
H408 H 0.27902 0.09731 0.87102 0.0
H409 H 0.29839 0.14295 0.89183 0.0
H410 H 0.31622 0.12363 0.84241 0.0
H411 H 0.31971 0.10574 0.8217 0.0
H412 H 0.27339 0.0844 0.80119 0.0
H413 H 0.27002 0.10254 0.82199 0.0
C414 C 0.28947 0.16105 0.83285 0.0
C415 C 0.27649 0.15761 0.82164 0.0
C416 C 0.27625 0.16859 0.80961 0.0
C417 C 0.28901 0.18318 0.8086 0.0
C418 C 0.30202 0.18651 0.81971 0.0
C419 C 0.30228 0.17552 0.83157 0.0
C420 C 0.28992 0.14933 0.84517 0.0
C421 C 0.28807 0.13601 0.83563 0.0
C422 C 0.29391 0.15196 0.86566 0.0
C423 C 0.29842 0.1667 0.87619 0.0
C424 C 0.28897 0.17297 0.87686 0.0
C425 C 0.29376 0.187 0.88686 0.0
C426 C 0.30806 0.19492 0.89628 0.0
C427 C 0.31733 0.18845 0.89572 0.0
C428 C 0.3126 0.17457 0.88576 0.0
C429 C 0.29925 0.11886 0.87772 0.0
C430 C 0.31324 0.12597 0.8878 0.0
C431 C 0.31789 0.11741 0.89853 0.0
C432 C 0.30864 0.10153 0.89944 0.0
C433 C 0.29454 0.09438 0.8895 0.0
C434 C 0.28989 0.103 0.87864 0.0
C435 C 0.2947 0.1283 0.86633 0.0
C436 C 0.29549 0.14102 0.87608 0.0
C437 C 0.29113 0.12583 0.84576 0.0
C438 C 0.29278 0.11425 0.834 0.0
C439 C 0.30672 0.11491 0.83377 0.0
C440 C 0.3087 0.10465 0.82191 0.0
C441 C 0.29681 0.09356 0.80985 0.0
C442 C 0.28281 0.09287 0.81019 0.0
C443 C 0.28083 0.10317 0.82211 0.0
H444 H 0.83757 0.09482 0.83125 0.0
H445 H 0.81722 0.0778 0.80823 0.0
H446 H 0.78821 0.0921 0.83506 0.0
H447 H 0.80887 0.10963 0.85746 0.0
H448 H 0.85025 0.12515 0.832 0.0
H449 H 0.82222 0.08529 0.8789 0.0
H450 H 0.80103 0.06864 0.89953 0.0
H451 H 0.80269 0.10824 0.9272 0.0
H452 H 0.8233 0.12478 0.90616 0.0
H453 H 0.8586 0.15823 0.90593 0.0
H454 H 0.87804 0.18137 0.92295 0.0
H455 H 0.91219 0.17539 0.89471 0.0
H456 H 0.89264 0.15191 0.87801 0.0
H457 H 0.84985 0.12992 0.90526 0.0
H458 H 0.86954 0.1684 0.8576 0.0
H459 H 0.88766 0.18834 0.83677 0.0
H460 H 0.89844 0.15608 0.80985 0.0
H461 H 0.88025 0.13611 0.83088 0.0
C462 C 0.82473 0.10343 0.84619 0.0
C463 C 0.82677 0.09415 0.83232 0.0
C464 C 0.81506 0.08432 0.81926 0.0
C465 C 0.80105 0.08357 0.81975 0.0
C466 C 0.7989 0.09252 0.83411 0.0
C467 C 0.81065 0.10242 0.84711 0.0
C468 C 0.83775 0.11519 0.85823 0.0
C469 C 0.85028 0.12598 0.84808 0.0
C470 C 0.83749 0.11672 0.87913 0.0
C471 C 0.82437 0.10632 0.89092 0.0
C472 C 0.81785 0.09038 0.88914 0.0
C473 C 0.80581 0.08089 0.90095 0.0
C474 C 0.80038 0.08723 0.91498 0.0
C475 C 0.80682 0.10311 0.91662 0.0
C476 C 0.81861 0.11255 0.90463 0.0
C477 C 0.87412 0.15338 0.89047 0.0
C478 C 0.87026 0.16168 0.90368 0.0
C479 C 0.88138 0.17491 0.91344 0.0
C480 C 0.89662 0.18019 0.91012 0.0
C481 C 0.90052 0.17164 0.8974 0.0
C482 C 0.88936 0.15827 0.88781 0.0
C483 C 0.86211 0.14002 0.879 0.0
C484 C 0.84987 0.1289 0.88921 0.0
C485 C 0.86222 0.13861 0.85808 0.0
C486 C 0.87372 0.15082 0.84602 0.0
C487 C 0.87599 0.16567 0.84747 0.0
C488 C 0.88635 0.17706 0.83555 0.0
C489 C 0.89453 0.17379 0.82173 0.0
C490 C 0.89223 0.15891 0.82026 0.0
C491 C 0.8819 0.14752 0.83229 0.0
H492 H 0.81331 0.68482 0.83695 0.0
H493 H 0.79145 0.68182 0.81824 0.0
H494 H 0.79892 0.72465 0.84358 0.0
H495 H 0.8209 0.72759 0.86235 0.0
H496 H 0.84237 0.70867 0.83294 0.0
H497 H 0.80697 0.68465 0.88324 0.0
H498 H 0.78621 0.68097 0.90382 0.0
H499 H 0.81395 0.72604 0.93045 0.0
H500 H 0.83482 0.72956 0.90984 0.0
H501 H 0.87978 0.73255 0.905 0.0
H502 H 0.89997 0.73112 0.92262 0.0
H503 H 0.88708 0.68843 0.89145 0.0
H504 H 0.86723 0.69016 0.87363 0.0
H505 H 0.84942 0.71202 0.9062 0.0
H506 H 0.88655 0.73295 0.85409 0.0
H507 H 0.90381 0.73451 0.82831 0.0
H508 H 0.86977 0.69063 0.80394 0.0
H509 H 0.85264 0.68927 0.82941 0.0
C510 C 0.8187 0.70642 0.85097 0.0
C511 C 0.81014 0.69348 0.83863 0.0
C512 C 0.7976 0.69173 0.82809 0.0
C513 C 0.79347 0.703 0.82949 0.0
C514 C 0.80189 0.71583 0.84218 0.0
C515 C 0.81438 0.71749 0.85294 0.0
C516 C 0.8326 0.70862 0.86088 0.0
C517 C 0.84391 0.70933 0.84897 0.0
C518 C 0.83464 0.70972 0.88173 0.0
C519 C 0.82235 0.70746 0.89485 0.0
C520 C 0.80856 0.69377 0.89346 0.0
C521 C 0.79668 0.69171 0.90517 0.0
C522 C 0.79837 0.70329 0.91861 0.0
C523 C 0.81232 0.71688 0.92031 0.0
C524 C 0.82424 0.71893 0.90855 0.0
C525 C 0.8721 0.71155 0.88787 0.0
C526 C 0.88144 0.72298 0.90184 0.0
C527 C 0.89291 0.72209 0.91198 0.0
C528 C 0.89515 0.70963 0.90852 0.0
C529 C 0.88589 0.69832 0.89427 0.0
C530 C 0.87449 0.69927 0.88407 0.0
C531 C 0.85923 0.71185 0.87818 0.0
C532 C 0.84806 0.71164 0.89017 0.0
C533 C 0.85713 0.71078 0.85731 0.0
C534 C 0.86831 0.71102 0.84358 0.0
C535 C 0.88294 0.72359 0.84335 0.0
C536 C 0.89275 0.72448 0.8286 0.0
C537 C 0.88804 0.71283 0.81388 0.0
C538 C 0.8736 0.69999 0.81473 0.0
C539 C 0.86384 0.69913 0.82938 0.0
H540 H 0.81597 0.64731 0.5191 0.0
H541 H 0.79624 0.64606 0.53986 0.0
H542 H 0.76311 0.60691 0.5052 0.0
H543 H 0.78309 0.60814 0.4844 0.0
H544 H 0.8248 0.62697 0.51404 0.0
H545 H 0.80821 0.65388 0.47535 0.0
H546 H 0.79089 0.6597 0.45773 0.0
H547 H 0.77773 0.62083 0.41797 0.0
H548 H 0.79502 0.6149 0.43596 0.0
H549 H 0.84325 0.61756 0.43746 0.0
H550 H 0.86692 0.62514 0.42082 0.0
H551 H 0.88873 0.66662 0.45718 0.0
H552 H 0.86507 0.65919 0.47323 0.0
H553 H 0.82692 0.63466 0.44143 0.0
H554 H 0.8527 0.61484 0.48507 0.0
H555 H 0.87438 0.61848 0.50536 0.0
H556 H 0.8742 0.65552 0.53796 0.0
H557 H 0.85276 0.65191 0.51773 0.0
C558 C 0.80097 0.62782 0.50026 0.0
C559 C 0.80447 0.63844 0.51597 0.0
C560 C 0.79318 0.63778 0.52771 0.0
C561 C 0.77816 0.62643 0.52405 0.0
C562 C 0.77463 0.61572 0.50835 0.0
C563 C 0.78597 0.61647 0.49644 0.0
C564 C 0.81323 0.62866 0.48822 0.0
C565 C 0.82518 0.62848 0.49812 0.0
C566 C 0.81378 0.63086 0.46753 0.0
C567 C 0.80277 0.63385 0.4571 0.0
C568 C 0.80145 0.64647 0.46301 0.0
C569 C 0.79164 0.64986 0.45283 0.0
C570 C 0.78296 0.64074 0.43644 0.0
C571 C 0.78416 0.62797 0.43066 0.0
C572 C 0.79408 0.62463 0.44083 0.0
C573 C 0.85251 0.63776 0.45666 0.0
C574 C 0.85314 0.62833 0.44167 0.0
C575 C 0.86667 0.63261 0.43233 0.0
C576 C 0.8797 0.64646 0.43775 0.0
C577 C 0.87888 0.65597 0.45252 0.0
C578 C 0.8654 0.65169 0.46181 0.0
C579 C 0.83851 0.63305 0.46735 0.0
C580 C 0.82622 0.63248 0.45718 0.0
C581 C 0.83799 0.63107 0.48807 0.0
C582 C 0.85112 0.63308 0.49996 0.0
C583 C 0.85741 0.62377 0.49655 0.0
C584 C 0.86973 0.62582 0.50815 0.0
C585 C 0.87601 0.63734 0.52315 0.0
C586 C 0.86974 0.6467 0.52633 0.0
C587 C 0.8574 0.64455 0.51492 0.0
H588 H 0.39538 0.2271 0.52824 0.0
H589 H 0.39419 0.24554 0.551 0.0
H590 H 0.35 0.23238 0.5272 0.0
H591 H 0.35131 0.21403 0.50444 0.0
H592 H 0.37622 0.19621 0.52779 0.0
H593 H 0.38906 0.23714 0.48029 0.0
H594 H 0.384 0.25472 0.46162 0.0
H595 H 0.34281 0.21642 0.43779 0.0
H596 H 0.34757 0.19915 0.45695 0.0
H597 H 0.34727 0.16515 0.45448 0.0
H598 H 0.34141 0.14227 0.43505 0.0
H599 H 0.38071 0.14323 0.46038 0.0
H600 H 0.38695 0.16671 0.47918 0.0
H601 H 0.36863 0.19258 0.45468 0.0
H602 H 0.34901 0.15362 0.50132 0.0
H603 H 0.3461 0.13243 0.52098 0.0
H604 H 0.39 0.16146 0.5483 0.0
H605 H 0.39311 0.18249 0.52782 0.0
C606 C 0.37352 0.21928 0.51449 0.0
C607 C 0.38552 0.22832 0.52778 0.0
C608 C 0.38478 0.2388 0.54084 0.0
C609 C 0.37197 0.24039 0.54099 0.0
C610 C 0.36011 0.23159 0.5273 0.0
C611 C 0.36085 0.22109 0.51426 0.0
C612 C 0.37372 0.20712 0.50208 0.0
C613 C 0.37491 0.19559 0.51173 0.0
C614 C 0.3713 0.20593 0.48125 0.0
C615 C 0.36864 0.21685 0.47011 0.0
C616 C 0.37889 0.2326 0.47117 0.0
C617 C 0.37606 0.24259 0.46035 0.0
C618 C 0.36296 0.23696 0.44832 0.0
C619 C 0.35287 0.22117 0.44717 0.0
C620 C 0.35565 0.21125 0.45799 0.0
C621 C 0.36751 0.16764 0.46842 0.0
C622 C 0.35476 0.16057 0.45571 0.0
C623 C 0.35132 0.14736 0.44474 0.0
C624 C 0.3605 0.14081 0.44629 0.0
C625 C 0.37345 0.14804 0.45874 0.0
C626 C 0.37695 0.16137 0.46966 0.0
C627 C 0.37063 0.18144 0.4804 0.0
C628 C 0.37028 0.19336 0.47069 0.0
C629 C 0.37287 0.18252 0.50128 0.0
C630 C 0.37139 0.16956 0.51284 0.0
C631 C 0.35813 0.15535 0.51127 0.0
C632 C 0.3564 0.1433 0.52274 0.0
C633 C 0.36779 0.14525 0.5363 0.0
C634 C 0.38108 0.15951 0.53784 0.0
C635 C 0.38284 0.17156 0.52625 0.0
H636 H 0.79015 0.1874 0.51347 0.0
H637 H 0.77233 0.16621 0.53331 0.0
H638 H 0.78524 0.13639 0.50403 0.0
H639 H 0.80309 0.15757 0.48446 0.0
H640 H 0.82034 0.1996 0.51303 0.0
H641 H 0.77909 0.1738 0.4654 0.0
H642 H 0.76016 0.14992 0.44891 0.0
H643 H 0.79523 0.14565 0.42049 0.0
H644 H 0.81413 0.16928 0.43734 0.0
H645 H 0.85164 0.20593 0.44195 0.0
H646 H 0.87389 0.22521 0.42551 0.0
H647 H 0.86725 0.26065 0.45143 0.0
H648 H 0.84483 0.24125 0.46768 0.0
H649 H 0.82239 0.19792 0.43958 0.0
H650 H 0.8608 0.21438 0.49015 0.0
H651 H 0.88129 0.23084 0.5136 0.0
H652 H 0.85436 0.24888 0.53711 0.0
H653 H 0.83383 0.2323 0.51366 0.0
C654 C 0.79776 0.174 0.49729 0.0
C655 C 0.78906 0.17626 0.51128 0.0
C656 C 0.77893 0.16419 0.52262 0.0
C657 C 0.77736 0.14965 0.52014 0.0
C658 C 0.78602 0.1474 0.50602 0.0
C659 C 0.79621 0.15949 0.49482 0.0
C660 C 0.80911 0.18697 0.48606 0.0
C661 C 0.82054 0.19945 0.49693 0.0
C662 C 0.80967 0.18641 0.46508 0.0
C663 C 0.79807 0.17322 0.45291 0.0
C664 C 0.78271 0.16778 0.45552 0.0
C665 C 0.7719 0.15415 0.44608 0.0
C666 C 0.77623 0.14588 0.43353 0.0
C667 C 0.79155 0.15183 0.42996 0.0
C668 C 0.80236 0.16536 0.43959 0.0
C669 C 0.84664 0.22218 0.45607 0.0
C670 C 0.85491 0.21784 0.44396 0.0
C671 C 0.86768 0.22887 0.43474 0.0
C672 C 0.87234 0.24442 0.43734 0.0
C673 C 0.86387 0.24874 0.44913 0.0
C674 C 0.85113 0.23769 0.45848 0.0
C675 C 0.83359 0.21045 0.46662 0.0
C676 C 0.82188 0.19827 0.45563 0.0
C677 C 0.83295 0.21098 0.48752 0.0
C678 C 0.84585 0.22221 0.50012 0.0
C679 C 0.85941 0.22208 0.50011 0.0
C680 C 0.87106 0.2314 0.51357 0.0
C681 C 0.86938 0.24109 0.52717 0.0
C682 C 0.85599 0.24161 0.52666 0.0
C683 C 0.84426 0.23213 0.51336 0.0
H684 H 0.95446 0.48803 0.15148 0.0
H685 H 0.95248 0.50775 0.13335 0.0
H686 H 0.99661 0.54151 0.15581 0.0
H687 H -0.00138 0.52184 0.17356 0.0
H688 H 0.97414 0.47761 0.14936 0.0
H689 H 0.96026 0.50242 0.2012 0.0
H690 H 0.96296 0.52413 0.22119 0.0
H691 H 0.00855 0.53638 0.23722 0.0
H692 H 0.00558 0.51447 0.21773 0.0
H693 H 0.00706 0.47733 0.2189 0.0
H694 H 0.01144 0.46026 0.2393 0.0
H695 H 0.96915 0.42216 0.21794 0.0
H696 H 0.96456 0.43946 0.1981 0.0
H697 H 0.986 0.48435 0.22173 0.0
H698 H 0.00242 0.46298 0.17102 0.0
H699 H 0.00327 0.44345 0.15024 0.0
H700 H 0.95721 0.42652 0.13096 0.0
H701 H 0.95659 0.44635 0.15153 0.0
C702 C 0.97656 0.50352 0.16419 0.0
C703 C 0.96371 0.49968 0.15242 0.0
C704 C 0.9626 0.51093 0.14207 0.0
C705 C 0.97431 0.52619 0.14338 0.0
C706 C 0.98726 0.52991 0.15487 0.0
C707 C 0.98842 0.51868 0.16503 0.0
C708 C 0.97771 0.49173 0.17553 0.0
C709 C 0.97643 0.47891 0.16526 0.0
C710 C 0.98119 0.49367 0.19615 0.0
C711 C 0.98273 0.50688 0.20797 0.0
C712 C 0.97082 0.50982 0.20903 0.0
C713 C 0.97241 0.52226 0.22041 0.0
C714 C 0.98596 0.532 0.23089 0.0
C715 C 0.99786 0.52897 0.22971 0.0
C716 C 0.99622 0.5165 0.21847 0.0
C717 C 0.98553 0.45966 0.20689 0.0
C718 C -0.00127 0.46529 0.21861 0.0
C719 C 0.00127 0.4555 0.23015 0.0
C720 C 0.99065 0.43985 0.23022 0.0
C721 C 0.97747 0.43419 0.21837 0.0
C722 C 0.97491 0.44402 0.20684 0.0
C723 C 0.98266 0.47036 0.19556 0.0
C724 C 0.98351 0.48292 0.20587 0.0
C725 C 0.97915 0.46834 0.17495 0.0
C726 C 0.97941 0.45605 0.16293 0.0
C727 C 0.99246 0.45495 0.16248 0.0
C728 C 0.9929 0.44373 0.15062 0.0
C729 C 0.9803 0.43336 0.13891 0.0
C730 C 0.96719 0.43443 0.13956 0.0
C731 C 0.96679 0.44571 0.15137 0.0
H732 H 0.50098 0.43653 0.16182 0.0
H733 H 0.48126 0.41872 0.13858 0.0
H734 H 0.44996 0.42986 0.16543 0.0
H735 H 0.46993 0.44816 0.18806 0.0
H736 H 0.51218 0.46671 0.16388 0.0
H737 H 0.48537 0.42511 0.20912 0.0
H738 H 0.46414 0.40694 0.22853 0.0
H739 H 0.46175 0.44433 0.25646 0.0
H740 H 0.48253 0.46235 0.23677 0.0
H741 H 0.51772 0.49762 0.23863 0.0
H742 H 0.53625 0.52016 0.2576 0.0
H743 H 0.57191 0.51608 0.23053 0.0
H744 H 0.55322 0.49305 0.2122 0.0
H745 H 0.50998 0.46921 0.23718 0.0
H746 H 0.52952 0.50921 0.19192 0.0
H747 H 0.54796 0.53035 0.17284 0.0
H748 H 0.56061 0.50013 0.14413 0.0
H749 H 0.54221 0.47897 0.16351 0.0
C750 C 0.48693 0.44359 0.17681 0.0
C751 C 0.48983 0.43503 0.1628 0.0
C752 C 0.47849 0.42475 0.14962 0.0
C753 C 0.46399 0.42282 0.15012 0.0
C754 C 0.46103 0.43117 0.16449 0.0
C755 C 0.4724 0.44151 0.17761 0.0
C756 C 0.49938 0.45553 0.18944 0.0
C757 C 0.51184 0.46706 0.17996 0.0
C758 C 0.49862 0.4564 0.21035 0.0
C759 C 0.48555 0.44512 0.22145 0.0
C760 C 0.48013 0.42937 0.2192 0.0
C761 C 0.46806 0.41901 0.2303 0.0
C762 C 0.46144 0.42429 0.24406 0.0
C763 C 0.4668 0.44 0.24615 0.0
C764 C 0.47868 0.45029 0.23491 0.0
C765 C 0.53405 0.49369 0.22382 0.0
C766 C 0.52952 0.50143 0.23697 0.0
C767 C 0.54014 0.51443 0.24767 0.0
C768 C 0.55558 0.52004 0.24543 0.0
C769 C 0.56011 0.51202 0.2327 0.0
C770 C 0.54945 0.49893 0.22205 0.0
C771 C 0.52259 0.48045 0.2116 0.0
C772 C 0.51041 0.46868 0.22113 0.0
C773 C 0.52321 0.47971 0.19068 0.0
C774 C 0.53469 0.49257 0.17941 0.0
C775 C 0.53644 0.50718 0.18178 0.0
C776 C 0.54697 0.51924 0.17085 0.0
C777 C 0.55579 0.5169 0.15709 0.0
C778 C 0.55391 0.50224 0.15457 0.0
C779 C 0.54345 0.49017 0.16564 0.0
H780 H 0.53088 0.04501 0.17451 0.0
H781 H 0.55205 0.04847 0.1546 0.0
H782 H 0.54609 0.00566 0.17488 0.0
H783 H 0.52486 0.00212 0.19437 0.0
H784 H 0.5021 0.0235 0.17254 0.0
H785 H 0.54186 0.04108 0.2222 0.0
H786 H 0.56268 0.04068 0.23958 0.0
H787 H 0.53226 0.99492 0.25813 0.0
H788 H 0.5116 0.99523 0.24023 0.0
H789 H 0.4705 0.98979 0.24027 0.0
H790 H 0.4485 0.98417 0.2595 0.0
H791 H 0.45249 0.02694 0.24255 0.0
H792 H 0.47444 0.03241 0.22318 0.0
H793 H 0.49895 0.01252 0.24425 0.0
H794 H 0.45958 0.99423 0.19482 0.0
H795 H 0.43903 0.99242 0.17419 0.0
H796 H 0.46847 0.03779 0.1535 0.0
H797 H 0.48872 0.03981 0.17496 0.0
C798 C 0.52646 0.02344 0.1862 0.0
C799 C 0.53415 0.03638 0.17463 0.0
C800 C 0.5462 0.03833 0.16327 0.0
C801 C 0.55078 0.02741 0.16337 0.0
C802 C 0.54299 0.01441 0.17483 0.0
C803 C 0.53087 0.01239 0.186 0.0
C804 C 0.51356 0.02126 0.19807 0.0
C805 C 0.50152 0.02142 0.18832 0.0
C806 C 0.51266 0.01806 0.21852 0.0
C807 C 0.5252 0.01813 0.22977 0.0
C808 C 0.5397 0.03094 0.22995 0.0
C809 C 0.55156 0.03073 0.24 0.0
C810 C 0.54914 0.01773 0.25016 0.0
C811 C 0.53456 0.00501 0.25019 0.0
C812 C 0.5227 0.00523 0.24014 0.0
C813 C 0.47407 0.01148 0.23023 0.0
C814 C 0.46665 0.99796 0.24073 0.0
C815 C 0.4541 0.99479 0.25175 0.0
C816 C 0.44876 0.00512 0.25258 0.0
C817 C 0.45619 0.01865 0.24199 0.0
C818 C 0.46876 0.02181 0.23096 0.0
C819 C 0.48745 0.01478 0.2187 0.0
C820 C 0.49959 0.01481 0.22853 0.0
C821 C 0.48841 0.01808 0.1983 0.0
C822 C 0.47566 0.01723 0.18662 0.0
C823 C 0.46151 0.00392 0.18619 0.0
C824 C 0.44981 0.00283 0.17418 0.0
C825 C 0.45209 0.01494 0.16211 0.0
C826 C 0.46623 0.02833 0.1628 0.0
C827 C 0.47788 0.02945 0.17493 0.0
H828 H 0.49169 0.00115 0.86218 0.0
H829 H 0.4706 0.99775 0.88196 0.0
H830 H 0.44059 0.95795 0.84577 0.0
H831 H 0.46178 0.96127 0.82616 0.0
H832 H 0.50352 0.98389 0.85718 0.0
H833 H 0.48055 0.00383 0.81492 0.0
H834 H 0.46019 0.00418 0.79627 0.0
H835 H 0.45404 0.96568 0.7601 0.0
H836 H 0.47441 0.96537 0.77884 0.0
H837 H 0.51519 0.96612 0.78169 0.0
H838 H 0.53632 0.9681 0.76322 0.0
H839 H 0.56594 0.01112 0.79383 0.0
H840 H 0.54479 0.00888 0.81248 0.0
H841 H 0.50343 0.9855 0.78368 0.0
H842 H 0.52738 0.96646 0.82837 0.0
H843 H 0.54765 0.96729 0.84881 0.0
H844 H 0.55234 0.00672 0.88129 0.0
H845 H 0.53245 0.00611 0.86043 0.0
C846 C 0.47829 0.98156 0.84258 0.0
C847 C 0.48058 0.99166 0.85856 0.0
C848 C 0.46854 0.98967 0.86988 0.0
C849 C 0.45398 0.97756 0.8654 0.0
C850 C 0.45168 0.96746 0.8494 0.0
C851 C 0.46376 0.96937 0.83818 0.0
C852 C 0.49119 0.98357 0.8309 0.0
C853 C 0.50359 0.98447 0.84112 0.0
C854 C 0.49116 0.98412 0.80993 0.0
C855 C 0.47892 0.98447 0.79842 0.0
C856 C 0.47474 0.99538 0.80308 0.0
C857 C 0.46307 0.99556 0.79243 0.0
C858 C 0.45546 0.98493 0.77673 0.0
C859 C 0.45978 0.97412 0.77196 0.0
C860 C 0.47141 0.97392 0.78268 0.0
C861 C 0.52847 0.98729 0.79853 0.0
C862 C 0.52624 0.97598 0.78435 0.0
C863 C 0.53832 0.97716 0.77378 0.0
C864 C 0.55283 0.98975 0.77709 0.0
C865 C 0.55497 0.00115 0.79118 0.0
C866 C 0.54289 -7e-05 0.80178 0.0
C867 C 0.5157 0.98578 0.81001 0.0
C868 C 0.50334 0.98496 0.79974 0.0
C869 C 0.51586 0.98561 0.83098 0.0
C870 C 0.52849 0.9863 0.84278 0.0
C871 C 0.53294 0.97542 0.8397 0.0
C872 C 0.54444 0.97582 0.85151 0.0
C873 C 0.55164 0.98709 0.86667 0.0
C874 C 0.54721 0.99804 0.86956 0.0
C875 C 0.53574 0.99763 0.85776 0.0
H876 H 0.04789 0.55112 0.85724 0.0
H877 H 0.04696 0.57062 0.87803 0.0
H878 H 0.00295 0.55707 0.85312 0.0
H879 H 0.00368 0.53713 0.83307 0.0
H880 H 0.03093 0.52121 0.85755 0.0
H881 H 0.04127 0.55934 0.80975 0.0
H882 H 0.03697 0.57721 0.79072 0.0
H883 H 0.99587 0.5396 0.76574 0.0
H884 H -8e-05 0.52182 0.78518 0.0
H885 H -0.00044 0.48405 0.78986 0.0
H886 H 0.99602 0.46169 0.77092 0.0
H887 H 0.04135 0.47306 0.78704 0.0
H888 H 0.04464 0.49527 0.80645 0.0
H889 H 0.01983 0.51402 0.78503 0.0
H890 H 0.00739 0.47661 0.83447 0.0
H891 H 0.00974 0.45801 0.85439 0.0
H892 H 0.05341 0.49329 0.87624 0.0
H893 H 0.05111 0.51187 0.856 0.0
C894 C 0.02593 0.54274 0.84344 0.0
C895 C 0.03805 0.55237 0.85625 0.0
C896 C 0.03756 0.56362 0.86799 0.0
C897 C 0.0249 0.56548 0.86721 0.0
C898 C 0.01282 0.55588 0.85424 0.0
C899 C 0.01329 0.54457 0.84259 0.0
C900 C 0.02624 0.53037 0.8316 0.0
C901 C 0.02879 0.51982 0.84162 0.0
C902 C 0.02312 0.52833 0.81088 0.0
C903 C 0.02082 0.53925 0.79912 0.0
C904 C 0.03126 0.55495 0.80034 0.0
C905 C 0.02884 0.56513 0.78941 0.0
C906 C 0.01611 0.55974 0.77676 0.0
C907 C 0.00586 0.54402 0.7752 0.0
C908 C 0.00816 0.53388 0.78634 0.0
C909 C 0.02233 0.49127 0.79962 0.0
C910 C 0.00875 0.48173 0.78926 0.0
C911 C 0.00678 0.469 0.77833 0.0
C912 C 0.01843 0.4656 0.77733 0.0
C913 C 0.03208 0.47523 0.78768 0.0
C914 C 0.03401 0.48795 0.79874 0.0
C915 C 0.02419 0.50478 0.81105 0.0
C916 C 0.02215 0.51557 0.80093 0.0
C917 C 0.02766 0.50696 0.83167 0.0
C918 C 0.02919 0.49559 0.84346 0.0
C919 C 0.01759 0.48031 0.84326 0.0
C920 C 0.01893 0.46969 0.85469 0.0
C921 C 0.0318 0.47419 0.86679 0.0
C922 C 0.04334 0.48952 0.86715 0.0
C923 C 0.04205 0.50012 0.85556 0.0
H924 H 0.4483 0.52427 0.85039 0.0
H925 H 0.42924 0.50447 0.87076 0.0
H926 H 0.44443 0.4735 0.85225 0.0
H927 H 0.46343 0.49328 0.8321 0.0
H928 H 0.47887 0.53623 0.85514 0.0
H929 H 0.44051 0.50571 0.803 0.0
H930 H 0.42458 0.48153 0.78466 0.0
H931 H 0.46421 0.48053 0.76674 0.0
H932 H 0.47987 0.50401 0.78582 0.0
H933 H 0.51273 0.53721 0.78873 0.0
H934 H 0.53572 0.55402 0.77194 0.0
H935 H 0.53284 0.59311 0.79258 0.0
H936 H 0.50934 0.57604 0.80889 0.0
H937 H 0.48558 0.53126 0.78327 0.0
H938 H 0.52197 0.55125 0.83479 0.0
H939 H 0.54184 0.56898 0.85775 0.0
H940 H 0.51208 0.58369 0.88099 0.0
H941 H 0.49249 0.56652 0.85703 0.0
C942 C 0.45709 0.51015 0.83947 0.0
C943 C 0.44739 0.51315 0.8506 0.0
C944 C 0.43658 0.50188 0.86228 0.0
C945 C 0.43531 0.48743 0.86302 0.0
C946 C 0.44495 0.48443 0.85169 0.0
C947 C 0.4558 0.49572 0.84014 0.0
C948 C 0.46932 0.52244 0.82841 0.0
C949 C 0.48017 0.53537 0.8393 0.0
C950 C 0.47137 0.5208 0.80797 0.0
C951 C 0.46141 0.50665 0.796 0.0
C952 C 0.44573 0.50021 0.79521 0.0
C953 C 0.43665 0.48646 0.78455 0.0
C954 C 0.4431 0.47899 0.77438 0.0
C955 C 0.45881 0.48576 0.77473 0.0
C956 C 0.46782 0.49934 0.78547 0.0
C957 C 0.50931 0.55536 0.80005 0.0
C958 C 0.51696 0.54939 0.78955 0.0
C959 C 0.53023 0.55904 0.78017 0.0
C960 C 0.53619 0.57491 0.78112 0.0
C961 C 0.52848 0.58092 0.79155 0.0
C962 C 0.51512 0.57121 0.80095 0.0
C963 C 0.49531 0.54482 0.81009 0.0
C964 C 0.48408 0.53234 0.799 0.0
C965 C 0.49345 0.54627 0.83062 0.0
C966 C 0.5058 0.55775 0.84387 0.0
C967 C 0.51983 0.55859 0.84443 0.0
C968 C 0.53114 0.56858 0.85784 0.0
C969 C 0.52859 0.57775 0.87134 0.0
C970 C 0.51455 0.57699 0.87064 0.0
C971 C 0.50328 0.56708 0.85704 0.0
H972 H 0.61785 0.81813 0.4918 0.0
H973 H 0.61998 0.83897 0.4716 0.0
H974 H 0.66481 0.86838 0.49588 0.0
H975 H 0.66267 0.84756 0.51582 0.0
H976 H 0.63555 0.80428 0.49301 0.0
H977 H 0.62518 0.83671 0.53886 0.0
H978 H 0.63268 0.86125 0.55582 0.0
H979 H 0.67176 0.86173 0.58101 0.0
H980 H 0.66459 0.83772 0.56354 0.0
H981 H 0.66163 0.80191 0.56652 0.0
H982 H 0.66357 0.78464 0.58933 0.0
H983 H 0.62038 0.7481 0.56778 0.0
H984 H 0.61865 0.76554 0.54454 0.0
H985 H 0.6414 0.81059 0.5663 0.0
H986 H 0.65913 0.7868 0.52328 0.0
H987 H 0.6618 0.76792 0.5036 0.0
H988 H 0.62041 0.75557 0.47151 0.0
H989 H 0.61746 0.77407 0.49195 0.0
C990 C 0.63998 0.8314 0.50559 0.0
C991 C 0.62814 0.82906 0.49268 0.0
C992 C 0.62939 0.84095 0.48114 0.0
C993 C 0.6425 0.85535 0.48234 0.0
C994 C 0.65446 0.85751 0.49494 0.0
C995 C 0.65325 0.84562 0.50633 0.0
C996 C 0.63853 0.81898 0.51826 0.0
C997 C 0.63646 0.80546 0.50908 0.0
C998 C 0.64052 0.82091 0.53915 0.0
C999 C 0.64439 0.83544 0.5498 0.0
C1000 C 0.63539 0.84217 0.54796 0.0
C1001 C 0.63962 0.85611 0.5578 0.0
C1002 C 0.65288 0.86348 0.56964 0.0
C1003 C 0.66164 0.85651 0.57173 0.0
C1004 C 0.65746 0.84268 0.5619 0.0
C1005 C 0.63998 0.78501 0.5539 0.0
C1006 C 0.65256 0.79017 0.5667 0.0
C1007 C 0.6536 0.78031 0.57985 0.0
C1008 C 0.642 0.76505 0.58063 0.0
C1009 C 0.6295 0.75978 0.56751 0.0
C1010 C 0.6285 0.76971 0.55423 0.0
C1011 C 0.63874 0.79602 0.54108 0.0
C1012 C 0.64009 0.80919 0.55025 0.0
C1013 C 0.6371 0.79416 0.52017 0.0
C1014 C 0.63795 0.78172 0.50934 0.0
C1015 C 0.65039 0.77974 0.51241 0.0
C1016 C 0.65203 0.76908 0.50091 0.0
C1017 C 0.64137 0.76027 0.48588 0.0
C1018 C 0.62874 0.76202 0.48312 0.0
C1019 C 0.62708 0.77267 0.4947 0.0
H1020 H 0.17097 0.76817 0.50873 0.0
H1021 H 0.15332 0.75098 0.48284 0.0
H1022 H 0.12389 0.76893 0.49485 0.0
H1023 H 0.14149 0.78591 0.52076 0.0
H1024 H 0.18459 0.79997 0.50765 0.0
H1025 H 0.15119 0.76 0.55242 0.0
H1026 H 0.12569 0.74303 0.56364 0.0
H1027 H 0.12161 0.78229 0.57953 0.0
H1028 H 0.14683 0.79909 0.5679 0.0
H1029 H 0.1824 0.83288 0.57683 0.0
H1030 H 0.19924 0.85676 0.59479 0.0
H1031 H 0.2372 0.85208 0.57856 0.0
H1032 H 0.2202 0.82784 0.56118 0.0
H1033 H 0.17402 0.8046 0.57819 0.0
H1034 H 0.19693 0.84215 0.53196 0.0
H1035 H 0.21457 0.86256 0.51131 0.0
H1036 H 0.23243 0.83416 0.49157 0.0
H1037 H 0.21496 0.81382 0.51282 0.0
C1038 C 0.15746 0.77818 0.51683 0.0
C1039 C 0.1606 0.7682 0.50596 0.0
C1040 C 0.15054 0.75846 0.49111 0.0
C1041 C 0.13721 0.7586 0.48673 0.0
C1042 C 0.13392 0.76833 0.49804 0.0
C1043 C 0.14398 0.77807 0.51287 0.0
C1044 C 0.16887 0.78972 0.53093 0.0
C1045 C 0.18255 0.80071 0.52328 0.0
C1046 C 0.16571 0.7912 0.55093 0.0
C1047 C 0.15087 0.7808 0.55924 0.0
C1048 C 0.14479 0.76492 0.55837 0.0
C1049 C 0.13027 0.75525 0.56485 0.0
C1050 C 0.12161 0.76134 0.57226 0.0
C1051 C 0.1279 0.77725 0.57356 0.0
C1052 C 0.14239 0.78688 0.56715 0.0
C1053 C 0.20002 0.8286 0.56747 0.0
C1054 C 0.19431 0.8368 0.57747 0.0
C1055 C 0.20397 0.85056 0.58757 0.0
C1056 C 0.21958 0.85642 0.5879 0.0
C1057 C 0.22524 0.84785 0.57868 0.0
C1058 C 0.21554 0.83405 0.56859 0.0
C1059 C 0.18982 0.81493 0.55489 0.0
C1060 C 0.17641 0.80355 0.56281 0.0
C1061 C 0.19274 0.81361 0.53471 0.0
C1062 C 0.20477 0.82653 0.52414 0.0
C1063 C 0.20491 0.84044 0.52363 0.0
C1064 C 0.21487 0.85203 0.51161 0.0
C1065 C 0.22478 0.84989 0.49968 0.0
C1066 C 0.22499 0.83616 0.50071 0.0
C1067 C 0.215 0.82453 0.51277 0.0
H1068 H 0.14381 0.34161 0.50621 0.0
H1069 H 0.12281 0.33736 0.48452 0.0
H1070 H 0.12697 0.37971 0.50646 0.0
H1071 H 0.14825 0.38401 0.52806 0.0
H1072 H 0.17248 0.36532 0.5046 0.0
H1073 H 0.13306 0.34396 0.55112 0.0
H1074 H 0.11191 0.34196 0.56947 0.0
H1075 H 0.14086 0.38651 0.59673 0.0
H1076 H 0.16201 0.38851 0.57814 0.0
H1077 H 0.20634 0.39123 0.579 0.0
H1078 H 0.22685 0.39081 0.59743 0.0
H1079 H 0.21416 0.34702 0.56967 0.0
H1080 H 0.1939 0.34762 0.55129 0.0
H1081 H 0.17518 0.37076 0.57812 0.0
H1082 H 0.21477 0.39159 0.5294 0.0
H1083 H 0.23502 0.39185 0.51024 0.0
H1084 H 0.20434 0.34606 0.48807 0.0
H1085 H 0.18415 0.34591 0.50698 0.0
C1086 C 0.14758 0.36312 0.51871 0.0
C1087 C 0.14014 0.34993 0.50645 0.0
C1088 C 0.12805 0.34746 0.49419 0.0
C1089 C 0.12321 0.35818 0.49382 0.0
C1090 C 0.13052 0.37129 0.50637 0.0
C1091 C 0.1426 0.37372 0.51876 0.0
C1092 C 0.16096 0.36594 0.53069 0.0
C1093 C 0.17303 0.36648 0.52068 0.0
C1094 C 0.16183 0.3678 0.55162 0.0
C1095 C 0.14906 0.3665 0.56301 0.0
C1096 C 0.13482 0.35339 0.56086 0.0
C1097 C 0.12274 0.35225 0.57135 0.0
C1098 C 0.1247 0.36412 0.58443 0.0
C1099 C 0.13903 0.37714 0.58684 0.0
C1100 C 0.1511 0.37831 0.57622 0.0
C1101 C 0.19875 0.36957 0.56357 0.0
C1102 C 0.20801 0.38156 0.57694 0.0
C1103 C 0.21969 0.38127 0.58748 0.0
C1104 C 0.22224 0.36894 0.58489 0.0
C1105 C 0.21275 0.35686 0.57169 0.0
C1106 C 0.20112 0.35716 0.56121 0.0
C1107 C 0.18652 0.36982 0.55198 0.0
C1108 C 0.17472 0.36992 0.56202 0.0
C1109 C 0.18577 0.36843 0.53105 0.0
C1110 C 0.19802 0.36871 0.51959 0.0
C1111 C 0.21245 0.38164 0.52038 0.0
C1112 C 0.22394 0.38181 0.50941 0.0
C1113 C 0.22118 0.36897 0.49778 0.0
C1114 C 0.20674 0.35606 0.49705 0.0
C1115 C 0.19522 0.35598 0.50774 0.0
C1116 C 0.99286 0.36306 0.03988 0.0
C1117 C 0.98373 0.3588 0.02253 0.0
C1118 C 0.9903 0.37042 0.05589 0.0
C1119 C 0.97851 0.37368 0.05488 0.0
C1120 C 0.96901 0.36877 0.03789 0.0
C1121 C 0.97159 0.36147 0.02192 0.0
C1122 C 0.97587 0.38258 0.0706 0.0
C1123 C 0.98568 0.39076 0.08555 0.0
C1124 C 0.98338 0.40098 0.09941 0.0
C1125 C 0.99015 0.40428 0.11848 0.0
C1126 C 0.9889 0.41451 0.13146 0.0
C1127 C 0.98102 0.42187 0.12555 0.0
H1128 H 0.97054 0.40652 0.07871 0.0
C1129 C 0.97426 0.41856 0.10645 0.0
C1130 C 0.97543 0.40828 0.09353 0.0
H1131 H 0.96842 0.42428 0.10119 0.0
H1132 H 0.00225 0.36108 0.04093 0.0
H1133 H 0.9977 0.37358 0.06882 0.0
H1134 H 0.95976 0.37096 0.03668 0.0
H1135 H 0.96421 0.35825 0.0089 0.0
H1136 H 0.96551 0.3829 0.06919 0.0
H1137 H 0.99588 0.39028 0.08777 0.0
H1138 H 0.99644 0.39893 0.12334 0.0
H1139 H 0.99413 0.41666 0.14613 0.0
C1140 C 0.61852 0.60907 0.07512 0.0
C1141 C 0.62764 0.60886 0.05998 0.0
C1142 C 0.60921 0.59586 0.08521 0.0
C1143 C 0.60896 0.58213 0.08058 0.0
C1144 C 0.61771 0.58179 0.06502 0.0
C1145 C 0.62702 0.59504 0.05486 0.0
C1146 C 0.59953 0.568 0.09153 0.0
C1147 C 0.59579 0.56832 0.11055 0.0
C1148 C 0.58607 0.55458 0.12206 0.0
C1149 C 0.58545 0.55645 0.14267 0.0
C1150 C 0.57586 0.54417 0.15408 0.0
C1151 C 0.56662 0.52969 0.14513 0.0
H1152 H 0.57672 0.53806 0.09727 0.0
C1153 C 0.56738 0.52769 0.12458 0.0
C1154 C 0.57693 0.54001 0.11312 0.0
H1155 H 0.56021 0.5167 0.11726 0.0
H1156 H 0.61867 0.61949 0.07941 0.0
H1157 H 0.6022 0.59648 0.09655 0.0
H1158 H 0.61756 0.57132 0.06097 0.0
H1159 H 0.63387 0.59449 0.0432 0.0
H1160 H 0.59626 0.55722 0.08391 0.0
H1161 H 0.60034 0.57926 0.11842 0.0
H1162 H 0.59232 0.56752 0.14999 0.0
H1163 H 0.57562 0.54602 0.16992 0.0
C1164 C 0.37811 0.00539 0.05343 0.0
C1165 C 0.385 0.01469 0.03722 0.0
C1166 C 0.38615 0.00761 0.07126 0.0
C1167 C 0.40128 0.01919 0.07326 0.0
C1168 C 0.40793 0.02894 0.05744 0.0
C1169 C 0.39993 0.02667 0.03956 0.0
C1170 C 0.41056 0.02119 0.09137 0.0
C1171 C 0.40833 0.00945 0.10266 0.0
C1172 C 0.41888 0.01095 0.11896 0.0
C1173 C 0.42042 0.9983 0.12325 0.0
C1174 C 0.43096 -0.00049 0.13752 0.0
C1175 C 0.44008 0.01336 0.14806 0.0
H1176 H 0.42633 0.0345 0.12756 0.0
C1177 C 0.43806 0.02585 0.14438 0.0
C1178 C 0.42758 0.02466 0.12999 0.0
H1179 H 0.44463 0.03658 0.15257 0.0
H1180 H 0.36658 0.99615 0.05224 0.0
H1181 H 0.3805 0.00019 0.08337 0.0
H1182 H 0.41952 0.03806 0.05868 0.0
H1183 H 0.40555 0.03415 0.02748 0.0
H1184 H 0.42041 0.03234 0.0942 0.0
H1185 H 0.39935 0.99801 0.09859 0.0
H1186 H 0.41379 0.98757 0.11505 0.0
H1187 H 0.43229 0.9897 0.13978 0.0
C1188 C 0.37998 0.98904 0.94715 0.0
C1189 C 0.37216 0.97967 0.96286 0.0
C1190 C 0.39006 0.9865 0.93653 0.0
C1191 C 0.39252 0.97448 0.94134 0.0
C1192 C 0.38498 0.96531 0.95733 0.0
C1193 C 0.37475 0.96778 0.96791 0.0
C1194 C 0.40338 0.97184 0.93033 0.0
C1195 C 0.40569 0.97471 0.91089 0.0
C1196 C 0.41763 0.97398 0.89979 0.0
C1197 C 0.4162 0.97228 0.87902 0.0
C1198 C 0.42784 0.97301 0.86786 0.0
C1199 C 0.44123 0.97567 0.87728 0.0
H1200 H 0.4326 0.97806 0.92519 0.0
C1201 C 0.44259 0.97714 0.89809 0.0
C1202 C 0.43091 0.9763 0.90926 0.0
H1203 H 0.45277 0.97911 0.90572 0.0
H1204 H 0.37826 0.99831 0.94289 0.0
H1205 H 0.39606 0.99413 0.92474 0.0
H1206 H 0.38686 0.95611 0.96147 0.0
H1207 H 0.36892 0.96042 0.98002 0.0
H1208 H 0.40937 0.96723 0.93835 0.0
H1209 H 0.39851 0.9778 0.90262 0.0
H1210 H 0.40615 0.97065 0.87137 0.0
H1211 H 0.42656 0.97201 0.85183 0.0
C1212 C 0.03032 0.39206 0.95426 0.0
C1213 C 0.0179 0.37737 0.95086 0.0
C1214 C 0.03228 0.40416 0.94254 0.0
C1215 C 0.02177 0.40178 0.92723 0.0
C1216 C 0.00942 0.38707 0.92391 0.0
C1217 C 0.00751 0.37504 0.93553 0.0
C1218 C 0.02325 0.41398 0.91392 0.0
C1219 C 0.03283 0.42902 0.91706 0.0
C1220 C 0.0333 0.4407 0.90358 0.0
C1221 C 0.03811 0.45547 0.91123 0.0
C1222 C 0.03791 0.46646 0.89922 0.0
C1223 C 0.03296 0.46291 0.87926 0.0
H1224 H 0.02586 0.42637 0.87661 0.0
C1225 C 0.02872 0.44833 0.87139 0.0
C1226 C 0.02899 0.43738 0.88335 0.0
H1227 H 0.02521 0.44539 0.85592 0.0
H1228 H 0.0386 0.39419 0.96586 0.0
H1229 H 0.04215 0.4152 0.9454 0.0
H1230 H 0.00119 0.38482 0.91218 0.0
H1231 H 0.99794 0.36384 0.93224 0.0
H1232 H 0.01545 0.41029 0.90125 0.0
H1233 H 0.03987 0.4331 0.93045 0.0
H1234 H 0.04165 0.4584 0.92669 0.0
H1235 H 0.04122 0.47761 0.90571 0.0
C1236 C 0.59771 0.63064 0.99071 0.0
C1237 C 0.61246 0.63321 0.99132 0.0
C1238 C 0.58874 0.62487 0.9734 0.0
C1239 C 0.59433 0.62154 0.95626 0.0
C1240 C 0.60917 0.62442 0.95673 0.0
C1241 C 0.61818 0.6303 0.974 0.0
C1242 C 0.58463 0.61381 0.93834 0.0
C1243 C 0.57224 0.6145 0.93356 0.0
C1244 C 0.56176 0.60537 0.91684 0.0
C1245 C 0.55295 0.61062 0.90765 0.0
C1246 C 0.5424 0.60185 0.89264 0.0
C1247 C 0.54026 0.58749 0.88668 0.0
H1248 H 0.56586 0.58634 0.91805 0.0
C1249 C 0.54907 0.58223 0.89598 0.0
C1250 C 0.55969 0.59105 0.91085 0.0
H1251 H 0.54748 0.57108 0.8922 0.0
H1252 H 0.59292 0.63272 0.00376 0.0
H1253 H 0.57726 0.62245 0.97385 0.0
H1254 H 0.61373 0.62186 0.94379 0.0
H1255 H 0.62947 0.63209 0.97392 0.0
H1256 H 0.58793 0.60733 0.92871 0.0
H1257 H 0.56969 0.62214 0.94195 0.0
H1258 H 0.55423 0.62155 0.91211 0.0
H1259 H 0.53592 0.60633 0.8857 0.0
C1260 C 0.02019 0.63032 0.97894 0.0
C1261 C 0.00858 0.63375 0.98034 0.0
C1262 C 0.02139 0.62286 0.96203 0.0
C1263 C 0.01101 0.61867 0.94601 0.0
C1264 C -0.00039 0.6224 0.9472 0.0
C1265 C -0.00154 0.62996 0.96411 0.0
C1266 C 0.011 0.60927 0.92875 0.0
C1267 C 0.02332 0.60895 0.92298 0.0
C1268 C 0.02304 0.59818 0.90743 0.0
C1269 C 0.0364 0.60174 0.89794 0.0
C1270 C 0.03692 0.59133 0.88451 0.0
C1271 C 0.02412 0.577 0.88043 0.0
H1272 H -0.00025 0.58055 0.91055 0.0
C1273 C 0.01068 0.57352 0.88974 0.0
C1274 C 0.01014 0.58396 0.9031 0.0
H1275 H 0.00068 0.56249 0.88728 0.0
H1276 H 0.02817 0.63303 0.99116 0.0
H1277 H 0.03009 0.61985 0.962 0.0
H1278 H 0.9914 0.61921 0.93516 0.0
H1279 H 0.98933 0.63236 0.9647 0.0
H1280 H 0.00042 0.60239 0.9206 0.0
H1281 H 0.03415 0.61692 0.92986 0.0
H1282 H 0.04653 0.61256 0.90108 0.0
H1283 H 0.04741 0.59449 0.87742 0.0
C1284 C 0.36856 0.40217 0.95499 0.0
C1285 C 0.36936 0.3888 0.95252 0.0
C1286 C 0.37705 0.41475 0.94327 0.0
C1287 C 0.38663 0.41422 0.92894 0.0
C1288 C 0.38762 0.40095 0.92689 0.0
C1289 C 0.37909 0.3884 0.93847 0.0
C1290 C 0.39528 0.42676 0.91516 0.0
C1291 C 0.39696 0.44081 0.9166 0.0
C1292 C 0.40585 0.45274 0.90223 0.0
C1293 C 0.41352 0.46812 0.90864 0.0
C1294 C 0.42279 0.47948 0.89575 0.0
C1295 C 0.42444 0.47565 0.87615 0.0
H1296 H 0.40063 0.43737 0.87658 0.0
C1297 C 0.41617 0.46035 0.86947 0.0
C1298 C 0.40691 0.44902 0.88231 0.0
H1299 H 0.41693 0.45712 0.8543 0.0
H1300 H 0.36107 0.40278 0.96561 0.0
H1301 H 0.37571 0.4246 0.94524 0.0
H1302 H 0.39484 0.40015 0.91598 0.0
H1303 H 0.3799 0.37826 0.93601 0.0
H1304 H 0.40089 0.4243 0.90335 0.0
H1305 H 0.39257 0.44408 0.92911 0.0
H1306 H 0.41274 0.4713 0.92383 0.0
H1307 H 0.42906 0.49118 0.90135 0.0
C1308 C 0.62455 0.99269 0.97433 0.0
C1309 C 0.6175 0.98505 0.9916 0.0
C1310 C 0.61624 0.99009 0.95662 0.0
C1311 C 0.60065 0.97986 0.95583 0.0
C1312 C 0.5938 0.97163 0.97278 0.0
C1313 C 0.60209 0.97422 0.99047 0.0
C1314 C 0.59105 0.97776 0.93797 0.0
C1315 C 0.59468 0.98852 0.92429 0.0
C1316 C 0.5841 0.98756 0.90827 0.0
C1317 C 0.58631 0.00115 0.90012 0.0
C1318 C 0.57602 0.00097 0.88622 0.0
C1319 C 0.56329 0.98715 0.88002 0.0
H1320 H 0.56989 0.96285 0.9067 0.0
C1321 C 0.56144 0.97346 0.88744 0.0
C1322 C 0.57175 0.97364 0.90135 0.0
H1323 H 0.55177 0.96261 0.88297 0.0
H1324 H 0.63644 0.00095 0.97457 0.0
H1325 H 0.62209 0.99623 0.9437 0.0
H1326 H 0.58186 0.96353 0.97256 0.0
H1327 H 0.59629 0.96801 0.0034 0.0
H1328 H 0.57997 0.96767 0.93732 0.0
H1329 H 0.60525 -0.00082 0.92595 0.0
H1330 H 0.59582 0.01203 0.90494 0.0
H1331 H 0.57794 0.0117 0.88049 0.0
C1332 C 0.62177 0.01354 0.07843 0.0
C1333 C 0.63042 0.0232 0.0634 0.0
C1334 C 0.61198 0.01653 0.089 0.0
C1335 C 0.61072 0.02942 0.08503 0.0
C1336 C 0.619 0.03886 0.0696 0.0
C1337 C 0.62886 0.03584 0.05893 0.0
C1338 C 0.60053 0.03285 0.09655 0.0
C1339 C 0.59776 0.02915 0.11574 0.0
C1340 C 0.58645 0.03044 0.12779 0.0
C1341 C 0.58567 0.02693 0.14795 0.0
C1342 C 0.57434 0.02634 0.1596 0.0
C1343 C 0.5635 0.02931 0.15137 0.0
H1344 H 0.57581 0.03644 0.1042 0.0
C1345 C 0.56452 0.03337 0.13141 0.0
C1346 C 0.57583 0.03386 0.11967 0.0
H1347 H 0.55622 0.0356 0.12467 0.0
H1348 H 0.62266 0.00371 0.0823 0.0
H1349 H 0.60534 0.00862 0.10021 0.0
H1350 H 0.61805 0.04873 0.06605 0.0
H1351 H 0.63534 0.04346 0.04736 0.0
H1352 H 0.59551 0.03865 0.08906 0.0
H1353 H 0.60402 0.02457 0.12316 0.0
H1354 H 0.59367 0.02425 0.15466 0.0
H1355 H 0.57394 0.02337 0.17502 0.0
C1356 C 0.98718 0.61642 0.06738 0.0
C1357 C 0.97686 0.61559 0.05285 0.0
C1358 C 0.98472 0.60342 0.07722 0.0
C1359 C 0.97174 0.58926 0.07297 0.0
C1360 C 0.96151 0.58836 0.05823 0.0
C1361 C 0.96399 0.60142 0.04833 0.0
C1362 C 0.96892 0.57522 0.08319 0.0
C1363 C 0.97442 0.57564 0.10163 0.0
C1364 C 0.973 0.56219 0.1121 0.0
C1365 C 0.9776 0.56418 0.13219 0.0
C1366 C 0.97771 0.5524 0.14241 0.0
C1367 C 0.97319 0.53828 0.13278 0.0
H1368 H 0.96478 0.54588 0.08701 0.0
C1369 C 0.96818 0.53607 0.11284 0.0
C1370 C 0.96816 0.54792 0.10253 0.0
H1371 H 0.96478 0.52535 0.105 0.0
H1372 H 0.9972 0.62713 0.07128 0.0
H1373 H 0.99319 0.60454 0.08791 0.0
H1374 H 0.95151 0.57757 0.05448 0.0
H1375 H 0.95585 0.6004 0.03714 0.0
H1376 H 0.96187 0.56439 0.0754 0.0
H1377 H 0.98033 0.58652 0.10976 0.0
H1378 H 0.98139 0.57501 0.13998 0.0
H1379 H 0.98144 0.55437 0.15785 0.0
C1380 C 0.39919 0.37046 0.02768 0.0
C1381 C 0.38422 0.36715 0.0259 0.0
C1382 C 0.40738 0.37633 0.04555 0.0
C1383 C 0.40076 0.37899 0.06213 0.0
C1384 C 0.38575 0.37547 0.06045 0.0
C1385 C 0.37753 0.36952 0.0426 0.0
C1386 C 0.40952 0.38654 0.08077 0.0
C1387 C 0.4219 0.38613 0.08657 0.0
C1388 C 0.43159 0.39501 0.10403 0.0
C1389 C 0.44091 0.39026 0.11293 0.0
C1390 C 0.45108 0.399 0.1283 0.0
C1391 C 0.4523 0.41282 0.13497 0.0
H1392 H 0.42597 0.41303 0.10408 0.0
C1393 C 0.4428 0.41746 0.12624 0.0
C1394 C 0.43259 0.40869 0.11095 0.0
H1395 H 0.44365 0.4282 0.13068 0.0
H1396 H 0.40474 0.36884 0.01512 0.0
H1397 H 0.41903 0.37928 0.04601 0.0
H1398 H 0.38041 0.37752 0.07292 0.0
H1399 H 0.36604 0.36716 0.04178 0.0
H1400 H 0.40549 0.39254 0.09006 0.0
H1401 H 0.42508 0.37892 0.07834 0.0
H1402 H 0.44044 0.37982 0.10784 0.0
H1403 H 0.4581 0.39498 0.13483 0.0
C1404 C 0.65955 0.69758 0.38121 0.0
C1405 C 0.65052 0.69426 0.36389 0.0
C1406 C 0.65641 0.70335 0.39842 0.0
C1407 C 0.64414 0.70587 0.39863 0.0
C1408 C 0.63478 0.70188 0.38162 0.0
C1409 C 0.63796 0.69625 0.36444 0.0
C1410 C 0.64083 0.71288 0.41601 0.0
C1411 C 0.65141 0.7226 0.42927 0.0
C1412 C 0.64853 0.73146 0.44474 0.0
C1413 C 0.66058 0.74543 0.45185 0.0
C1414 C 0.65829 0.75462 0.4654 0.0
C1415 C 0.64387 0.74999 0.47238 0.0
H1416 H 0.62466 0.71562 0.44766 0.0
C1417 C 0.63187 0.73575 0.46581 0.0
C1418 C 0.63417 0.72655 0.4522 0.0
H1419 H 0.62068 0.73169 0.47121 0.0
H1420 H 0.66924 0.69606 0.38136 0.0
H1421 H 0.66363 0.70583 0.41144 0.0
H1422 H 0.62516 0.70354 0.3814 0.0
H1423 H 0.63064 0.69366 0.35147 0.0
H1424 H 0.62956 0.71117 0.41661 0.0
H1425 H 0.66297 0.72538 0.42759 0.0
H1426 H 0.67178 0.74948 0.44646 0.0
H1427 H 0.66778 0.76558 0.46994 0.0
C1428 C 0.28685 0.93148 0.40087 0.0
C1429 C 0.28699 0.94537 0.40322 0.0
C1430 C 0.27769 0.9191 0.41252 0.0
C1431 C 0.26852 0.92041 0.42678 0.0
C1432 C 0.26841 0.93416 0.42874 0.0
C1433 C 0.27761 0.94653 0.4172 0.0
C1434 C 0.2587 0.90769 0.43965 0.0
C1435 C 0.26138 0.89644 0.44464 0.0
C1436 C 0.25174 0.88427 0.45835 0.0
C1437 C 0.25795 0.87708 0.46945 0.0
C1438 C 0.24924 0.86587 0.48287 0.0
C1439 C 0.23414 0.86161 0.48537 0.0
H1440 H 0.23108 0.88439 0.45154 0.0
C1441 C 0.22783 0.8685 0.47384 0.0
C1442 C 0.23648 0.87963 0.46041 0.0
H1443 H 0.21609 0.86513 0.475 0.0
H1444 H 0.29389 0.9302 0.39014 0.0
H1445 H 0.27773 0.90853 0.41014 0.0
H1446 H 0.26138 0.93544 0.43949 0.0
H1447 H 0.27749 0.95707 0.41949 0.0
H1448 H 0.24945 0.90826 0.4463 0.0
H1449 H 0.27145 0.89665 0.43962 0.0
H1450 H 0.26963 0.88032 0.46799 0.0
H1451 H 0.25439 0.86072 0.49153 0.0
C1452 C 0.0497 0.33766 0.37887 0.0
C1453 C 0.05662 0.34218 0.36045 0.0
C1454 C 0.05833 0.34186 0.39653 0.0
C1455 C 0.07409 0.3506 0.39616 0.0
C1456 C 0.08095 0.35534 0.37781 0.0
C1457 C 0.07235 0.35115 0.36017 0.0
C1458 C 0.08381 0.35506 0.41444 0.0
C1459 C 0.07959 0.3474 0.43145 0.0
C1460 C 0.09013 0.35089 0.44865 0.0
C1461 C 0.08797 0.33902 0.46103 0.0
C1462 C 0.09841 0.34151 0.4762 0.0
C1463 C 0.11117 0.35599 0.47946 0.0
H1464 H 0.10422 0.37516 0.44385 0.0
C1465 C 0.11288 0.3681 0.46786 0.0
C1466 C 0.10246 0.3656 0.45262 0.0
H1467 H 0.12258 0.3794 0.47003 0.0
H1468 H 0.03762 0.3309 0.37968 0.0
H1469 H 0.05254 0.33835 0.41039 0.0
H1470 H 0.09304 0.36217 0.37707 0.0
H1471 H 0.07808 0.35494 0.34628 0.0
H1472 H 0.09532 0.36426 0.41321 0.0
H1473 H 0.06858 0.3373 0.4322 0.0
H1474 H 0.07845 0.32765 0.4585 0.0
H1475 H 0.09666 0.33202 0.48513 0.0
C1476 C 0.03955 0.30557 0.27388 0.0
C1477 C 0.03209 0.29877 0.29129 0.0
C1478 C 0.04693 0.29952 0.26324 0.0
C1479 C 0.047 0.28645 0.26969 0.0
C1480 C 0.03973 0.27973 0.28724 0.0
C1481 C 0.03218 0.28574 0.29787 0.0
C1482 C 0.05555 0.28047 0.25901 0.0
C1483 C 0.05734 0.28173 0.23925 0.0
C1484 C 0.06841 0.2793 0.22832 0.0
C1485 C 0.06753 0.27861 0.20748 0.0
C1486 C 0.07906 0.27897 0.19645 0.0
C1487 C 0.09179 0.28012 0.20609 0.0
H1488 H 0.08212 0.28043 0.25395 0.0
C1489 C 0.09233 0.28 0.22692 0.0
C1490 C 0.0808 0.27963 0.23795 0.0
H1491 H 0.10193 0.28068 0.23474 0.0
H1492 H 0.03968 0.31561 0.26839 0.0
H1493 H 0.05288 0.30536 0.25019 0.0
H1494 H 0.03984 0.2698 0.29268 0.0
H1495 H 0.02656 0.2803 0.31129 0.0
H1496 H 0.06068 0.27532 0.26773 0.0
H1497 H 0.05087 0.28552 0.23063 0.0
H1498 H 0.05817 0.27845 0.19966 0.0
H1499 H 0.07837 0.27916 0.18042 0.0
C1500 C 0.67795 0.71677 0.27884 0.0
C1501 C 0.68734 0.71691 0.29427 0.0
C1502 C 0.68147 0.73012 0.26904 0.0
C1503 C 0.69445 0.74399 0.27454 0.0
C1504 C 0.70387 0.7441 0.28991 0.0
C1505 C 0.70034 0.73072 0.29973 0.0
C1506 C 0.69885 0.75829 0.26388 0.0
C1507 C 0.6889 0.76086 0.25396 0.0
C1508 C 0.6931 0.77469 0.24233 0.0
C1509 C 0.68195 0.77833 0.23765 0.0
C1510 C 0.68512 0.79072 0.22589 0.0
C1511 C 0.69952 0.79974 0.21837 0.0
H1512 H 0.71637 0.78111 0.2376 0.0
C1513 C 0.71074 0.79618 0.22311 0.0
C1514 C 0.70756 0.78376 0.2349 0.0
H1515 H 0.72187 0.80275 0.21727 0.0
H1516 H 0.66801 0.70628 0.27398 0.0
H1517 H 0.67418 0.72936 0.25681 0.0
H1518 H 0.71402 0.75457 0.29432 0.0
H1519 H 0.70787 0.73119 0.31148 0.0
H1520 H 0.7106 0.76708 0.26479 0.0
H1521 H 0.677 0.75264 0.2547 0.0
H1522 H 0.6707 0.77152 0.24307 0.0
H1523 H 0.67628 0.79326 0.22273 0.0
C1524 C 0.25617 0.95891 0.32755 0.0
C1525 C 0.27155 0.96363 0.32834 0.0
C1526 C 0.2476 0.95258 0.31007 0.0
C1527 C 0.25422 0.95093 0.29277 0.0
C1528 C 0.26961 0.95574 0.29351 0.0
C1529 C 0.2782 0.96207 0.31104 0.0
C1530 C 0.24529 0.94337 0.27418 0.0
C1531 C 0.23182 0.942 0.26987 0.0
C1532 C 0.22209 0.93306 0.25246 0.0
C1533 C 0.20657 0.92728 0.2535 0.0
C1534 C 0.19685 0.91832 0.23792 0.0
C1535 C 0.20242 0.91506 0.22073 0.0
H1536 H 0.23968 0.93479 0.23337 0.0
C1537 C 0.21802 0.92122 0.21941 0.0
C1538 C 0.22776 0.93014 0.23507 0.0
H1539 H 0.22273 0.91921 0.20621 0.0
H1540 H 0.2506 0.9598 0.3406 0.0
H1541 H 0.23571 0.94858 0.31051 0.0
H1542 H 0.275 0.95449 0.2805 0.0
H1543 H 0.29 0.96553 0.31109 0.0
H1544 H 0.24993 0.93847 0.26402 0.0
H1545 H 0.22724 0.94699 0.27996 0.0
H1546 H 0.20188 0.92939 0.26666 0.0
H1547 H 0.1849 0.91362 0.23962 0.0
C1548 C 0.69805 0.96641 0.31614 0.0
C1549 C 0.68607 0.9693 0.31708 0.0
C1550 C 0.7005 0.96027 0.29881 0.0
C1551 C 0.69105 0.95694 0.2819 0.0
C1552 C 0.67927 0.96012 0.2827 0.0
C1553 C 0.67684 0.96632 0.30004 0.0
C1554 C 0.69237 0.94896 0.26391 0.0
C1555 C 0.70513 0.94918 0.25907 0.0
C1556 C 0.70606 0.93968 0.24263 0.0
C1557 C 0.72018 0.94377 0.23509 0.0
C1558 C 0.72175 0.93438 0.221 0.0
C1559 C 0.70922 0.92059 0.21423 0.0
H1560 H 0.68244 0.92218 0.24135 0.0
C1561 C 0.69503 0.91664 0.22147 0.0
C1562 C 0.69345 0.92604 0.23553 0.0
H1563 H 0.68518 0.90596 0.2169 0.0
H1564 H 0.70536 0.9685 0.32898 0.0
H1565 H 0.70944 0.95761 0.29909 0.0
H1566 H 0.67174 0.95756 0.26997 0.0
H1567 H 0.66747 0.96835 0.30022 0.0
H1568 H 0.6824 0.9427 0.25441 0.0
H1569 H 0.71544 0.95661 0.26747 0.0
H1570 H 0.73009 0.95416 0.24034 0.0
H1571 H 0.73282 0.93785 0.21558 0.0
C1572 C 0.04702 0.72332 0.27663 0.0
C1573 C 0.03813 0.72227 0.29276 0.0
C1574 C 0.05424 0.73668 0.26603 0.0
C1575 C 0.05263 0.74929 0.27125 0.0
C1576 C 0.04425 0.74848 0.28787 0.0
C1577 C 0.03696 0.73505 0.29846 0.0
C1578 C 0.05981 0.76342 0.25974 0.0
C1579 C 0.06173 0.76308 0.24004 0.0
C1580 C 0.06997 0.77673 0.22776 0.0
C1581 C 0.06985 0.77444 0.20713 0.0
C1582 C 0.0788 0.78652 0.19504 0.0
C1583 C 0.08806 0.80122 0.20332 0.0
H1584 H 0.07941 0.794 0.25175 0.0
C1585 C 0.08767 0.80375 0.2238 0.0
C1586 C 0.07878 0.79163 0.23596 0.0
H1587 H 0.09483 0.81497 0.23058 0.0
H1588 H 0.04822 0.71372 0.2719 0.0
H1589 H 0.0611 0.7371 0.25378 0.0
H1590 H 0.04304 0.75812 0.29237 0.0
H1591 H 0.03025 0.73462 0.31091 0.0
H1592 H 0.06307 0.77409 0.26766 0.0
H1593 H 0.05713 0.75205 0.23234 0.0
H1594 H 0.06316 0.76313 0.20035 0.0
H1595 H 0.07879 0.78428 0.17925 0.0
C1596 C 0.28519 0.32541 0.30372 0.0
C1597 C 0.27856 0.31862 0.3216 0.0
C1598 C 0.2767 0.32112 0.28593 0.0
C1599 C 0.26136 0.30999 0.28567 0.0
C1600 C 0.25489 0.3029 0.30341 0.0
C1601 C 0.26334 0.30719 0.32117 0.0
C1602 C 0.25158 0.30559 0.26745 0.0
C1603 C 0.25445 0.31478 0.25196 0.0
C1604 C 0.24329 0.31137 0.23557 0.0
C1605 C 0.24336 0.32361 0.22609 0.0
C1606 C 0.23205 0.32101 0.21223 0.0
C1607 C 0.22051 0.30609 0.20738 0.0
H1608 H 0.23215 0.28664 0.23628 0.0
C1609 C 0.22097 0.29377 0.21586 0.0
C1610 C 0.23226 0.29638 0.22982 0.0
H1611 H 0.21226 0.28215 0.21234 0.0
H1612 H 0.29693 0.33411 0.30346 0.0
H1613 H 0.28226 0.32652 0.27248 0.0
H1614 H 0.24314 0.29421 0.30365 0.0
H1615 H 0.25786 0.3016 0.33459 0.0
H1616 H 0.24089 0.29503 0.26778 0.0
H1617 H 0.26448 0.32596 0.25234 0.0
H1618 H 0.25184 0.33526 0.23 0.0
H1619 H 0.23214 0.33071 0.20563 0.0
C1620 C 0.28695 0.34887 0.40978 0.0
C1621 C 0.29569 0.35869 0.39494 0.0
C1622 C 0.27829 0.35256 0.4218 0.0
C1623 C 0.27836 0.36636 0.41959 0.0
C1624 C 0.28676 0.37603 0.4044 0.0
C1625 C 0.29544 0.37228 0.39222 0.0
C1626 C 0.26932 0.37052 0.43252 0.0
C1627 C 0.26593 0.36548 0.45114 0.0
C1628 C 0.2551 0.36728 0.46346 0.0
C1629 C 0.24693 0.35599 0.47715 0.0
C1630 C 0.23603 0.35666 0.48843 0.0
C1631 C 0.2333 0.36882 0.48653 0.0
H1632 H 0.25901 0.38877 0.45181 0.0
C1633 C 0.24185 0.38047 0.47342 0.0
C1634 C 0.25263 0.37968 0.46186 0.0
H1635 H 0.23994 0.38998 0.47179 0.0
H1636 H 0.28686 0.33833 0.41237 0.0
H1637 H 0.27146 0.34443 0.43267 0.0
H1638 H 0.28681 0.38661 0.40216 0.0
H1639 H 0.30204 0.38007 0.38087 0.0
H1640 H 0.26509 0.3775 0.42633 0.0
H1641 H 0.27045 0.35875 0.45731 0.0
H1642 H 0.24871 0.3464 0.47878 0.0
H1643 H 0.22969 0.34764 0.49861 0.0
C1644 C 0.66242 0.9472 0.40238 0.0
C1645 C 0.65192 0.94632 0.38811 0.0
C1646 C 0.66006 0.93423 0.41223 0.0
C1647 C 0.64699 0.92007 0.40826 0.0
C1648 C 0.63667 0.91912 0.39364 0.0
C1649 C 0.63906 0.93211 0.38371 0.0
C1650 C 0.64393 0.90608 0.41884 0.0
C1651 C 0.64967 0.90655 0.43713 0.0
C1652 C 0.64704 0.89292 0.44828 0.0
C1653 C 0.65146 0.895 0.46844 0.0
C1654 C 0.64985 0.88279 0.47949 0.0
C1655 C 0.64376 0.86816 0.47064 0.0
H1656 H 0.63762 0.87607 0.42383 0.0
C1657 C 0.63917 0.86596 0.45052 0.0
C1658 C 0.64087 0.87822 0.4394 0.0
H1659 H 0.63462 0.85484 0.44325 0.0
H1660 H 0.67246 0.95794 0.40612 0.0
H1661 H 0.66861 0.93539 0.4228 0.0
H1662 H 0.62659 0.90833 0.3901 0.0
H1663 H 0.63077 0.93104 0.37272 0.0
H1664 H 0.63618 0.89521 0.4116 0.0
H1665 H 0.65638 0.91753 0.4448 0.0
H1666 H 0.65627 0.90616 0.47572 0.0
H1667 H 0.65332 0.8848 0.49503 0.0
C1668 C 0.07377 0.70534 0.36193 0.0
C1669 C 0.05849 0.701 0.36147 0.0
C1670 C 0.08228 0.71043 0.37965 0.0
C1671 C 0.07574 0.7115 0.39736 0.0
C1672 C 0.06036 0.70669 0.39704 0.0
C1673 C 0.05182 0.70153 0.37931 0.0
C1674 C 0.08456 0.71753 0.41638 0.0
C1675 C 0.09953 0.72722 0.41719 0.0
C1676 C 0.10864 0.73412 0.43583 0.0
C1677 C 0.12432 0.7411 0.4349 0.0
C1678 C 0.13352 0.74864 0.45154 0.0
C1679 C 0.12728 0.74948 0.46958 0.0
H1680 H 0.09037 0.72981 0.4554 0.0
C1681 C 0.11158 0.7423 0.47068 0.0
C1682 C 0.10234 0.73472 0.454 0.0
H1683 H 0.10641 0.74267 0.48439 0.0
H1684 H 0.07923 0.70485 0.34856 0.0
H1685 H 0.09392 0.71339 0.37931 0.0
H1686 H 0.05497 0.7072 0.41049 0.0
H1687 H 0.04005 0.69819 0.37954 0.0
H1688 H 0.07834 0.71423 0.42996 0.0
H1689 H 0.10558 0.73061 0.40348 0.0
H1690 H 0.12952 0.74093 0.42111 0.0
H1691 H 0.14557 0.75426 0.45004 0.0
C1692 C 0.32484 0.0349 0.7107 0.0
C1693 C 0.31812 0.03226 0.69162 0.0
C1694 C 0.31992 0.04051 0.7263 0.0
C1695 C 0.30816 0.04361 0.7231 0.0
C1696 C 0.30119 0.04051 0.70419 0.0
C1697 C 0.30612 0.03498 0.68866 0.0
C1698 C 0.30284 0.05026 0.7387 0.0
C1699 C 0.31084 0.0578 0.75527 0.0
C1700 C 0.30603 0.0659 0.76941 0.0
C1701 C 0.31177 0.0688 0.78903 0.0
C1702 C 0.3084 0.07734 0.80234 0.0
C1703 C 0.29932 0.08335 0.79628 0.0
H1704 H 0.29249 0.07022 0.74829 0.0
C1705 C 0.2934 0.08026 0.77672 0.0
C1706 C 0.29674 0.0717 0.76342 0.0
H1707 H 0.28664 0.08498 0.77142 0.0
H1708 H 0.33402 0.03281 0.71357 0.0
H1709 H 0.32535 0.0423 0.74074 0.0
H1710 H 0.29205 0.04266 0.70127 0.0
H1711 H 0.30055 0.03297 0.67423 0.0
H1712 H 0.29205 0.04945 0.73583 0.0
H1713 H 0.3215 0.05848 0.75858 0.0
H1714 H 0.31901 0.06456 0.79403 0.0
H1715 H 0.31303 0.07937 0.81736 0.0
C1716 C 0.96042 0.26052 0.73087 0.0
C1717 C 0.95975 0.27393 0.73384 0.0
C1718 C 0.95247 0.24804 0.74299 0.0
C1719 C 0.94361 0.24873 0.75826 0.0
C1720 C 0.94293 0.26212 0.76107 0.0
C1721 C 0.95087 0.27455 0.74902 0.0
C1722 C 0.93538 0.23613 0.77214 0.0
C1723 C 0.93207 0.2216 0.76878 0.0
C1724 C 0.92328 0.20933 0.78284 0.0
C1725 C 0.91435 0.19428 0.77549 0.0
C1726 C 0.90527 0.18264 0.78817 0.0
C1727 C 0.90504 0.18583 0.80851 0.0
H1728 H 0.93079 0.2237 0.80976 0.0
C1729 C 0.91449 0.20076 0.81602 0.0
C1730 C 0.92357 0.21237 0.80337 0.0
H1731 H 0.91484 0.20348 0.83172 0.0
H1732 H 0.96728 0.25974 0.7194 0.0
H1733 H 0.95364 0.23812 0.74058 0.0
H1734 H 0.9363 0.26304 0.77277 0.0
H1735 H 0.95023 0.28475 0.75191 0.0
H1736 H 0.93126 0.23891 0.7854 0.0
H1737 H 0.93488 0.21828 0.75481 0.0
H1738 H 0.91405 0.19159 0.75979 0.0
H1739 H 0.89807 0.17126 0.78192 0.0
C1740 C 0.72941 0.68864 0.70976 0.0
C1741 C 0.71557 0.67524 0.70598 0.0
C1742 C 0.73676 0.69145 0.72828 0.0
C1743 C 0.73041 0.68091 0.74347 0.0
C1744 C 0.71647 0.66766 0.73979 0.0
C1745 C 0.70907 0.6649 0.72133 0.0
C1746 C 0.73865 0.68262 0.7625 0.0
C1747 C 0.74915 0.69622 0.77049 0.0
C1748 C 0.75928 0.69803 0.78765 0.0
C1749 C 0.77235 0.71225 0.79103 0.0
C1750 C 0.78314 0.71409 0.80533 0.0
C1751 C 0.78109 0.70172 0.8166 0.0
H1752 H 0.74667 0.67492 0.79855 0.0
C1753 C 0.76763 0.68774 0.81413 0.0
C1754 C 0.75678 0.68592 0.79993 0.0
H1755 H 0.76564 0.67811 0.82293 0.0
H1756 H 0.73477 0.69684 0.69828 0.0
H1757 H 0.74769 0.70157 0.73028 0.0
H1758 H 0.71139 0.65929 0.75116 0.0
H1759 H 0.69843 0.65444 0.71895 0.0
H1760 H 0.73619 0.67213 0.76955 0.0
H1761 H 0.75114 0.70657 0.76339 0.0
H1762 H 0.77454 0.72184 0.78198 0.0
H1763 H 0.79343 0.725 0.80686 0.0
C1764 C 0.70733 0.6279 0.62643 0.0
C1765 C 0.70854 0.64225 0.6293 0.0
C1766 C 0.7175 0.62628 0.61455 0.0
C1767 C 0.72913 0.63905 0.60555 0.0
C1768 C 0.73075 0.65346 0.60927 0.0
C1769 C 0.72048 0.65503 0.62082 0.0
C1770 C 0.73969 0.63794 0.59194 0.0
C1771 C 0.73593 0.62573 0.57989 0.0
C1772 C 0.7462 0.62583 0.56462 0.0
C1773 C 0.74562 0.61215 0.55889 0.0
C1774 C 0.75568 0.61217 0.54515 0.0
C1775 C 0.7664 0.62589 0.53688 0.0
H1776 H 0.75666 0.65002 0.5587 0.0
C1777 C 0.76643 0.63941 0.54183 0.0
C1778 C 0.75639 0.63939 0.55545 0.0
H1779 H 0.77432 0.65007 0.53526 0.0
H1780 H 0.69827 0.61785 0.63284 0.0
H1781 H 0.7162 0.61506 0.61241 0.0
H1782 H 0.73971 0.66349 0.60266 0.0
H1783 H 0.72183 0.66625 0.62281 0.0
H1784 H 0.75067 0.64808 0.59089 0.0
H1785 H 0.72508 0.61546 0.581 0.0
H1786 H 0.73767 0.60152 0.56547 0.0
H1787 H 0.75543 0.60158 0.54154 0.0
C1788 C 0.35019 0.05164 0.60984 0.0
C1789 C 0.359 0.05289 0.62667 0.0
C1790 C 0.35321 0.06451 0.59923 0.0
C1791 C 0.36512 0.07898 0.60524 0.0
C1792 C 0.37414 0.0802 0.6218 0.0
C1793 C 0.37107 0.0673 0.63249 0.0
C1794 C 0.36863 0.09286 0.59415 0.0
C1795 C 0.35803 0.0943 0.58407 0.0
C1796 C 0.36117 0.10788 0.57253 0.0
C1797 C 0.34939 0.11073 0.56871 0.0
C1798 C 0.3516 0.12295 0.5572 0.0
C1799 C 0.36564 0.13252 0.54901 0.0
H1800 H 0.38452 0.1154 0.56658 0.0
C1801 C 0.37748 0.1297 0.55285 0.0
C1802 C 0.37527 0.11749 0.56447 0.0
H1803 H 0.38835 0.1367 0.54649 0.0
H1804 H 0.34103 0.04067 0.60466 0.0
H1805 H 0.34636 0.06299 0.5861 0.0
H1806 H 0.38349 0.09119 0.6266 0.0
H1807 H 0.37815 0.06863 0.6453 0.0
H1808 H 0.38009 0.10232 0.59511 0.0
H1809 H 0.34636 0.08539 0.58485 0.0
H1810 H 0.3384 0.10348 0.57467 0.0
H1811 H 0.3423 0.12493 0.55482 0.0
C1812 C 0.94515 0.29291 0.6422 0.0
C1813 C 0.93895 0.28889 0.66108 0.0
C1814 C 0.93618 0.28621 0.62502 0.0
C1815 C 0.92091 0.27518 0.62647 0.0
C1816 C 0.91479 0.27109 0.64531 0.0
C1817 C 0.92364 0.278 0.66242 0.0
C1818 C 0.91123 0.26714 0.60873 0.0
C1819 C 0.91241 0.27386 0.59131 0.0
C1820 C 0.90197 0.26558 0.57425 0.0
C1821 C 0.89673 0.27319 0.56223 0.0
C1822 C 0.88622 0.26531 0.54678 0.0
C1823 C 0.88109 0.24978 0.54278 0.0
H1824 H 0.90117 0.24403 0.57869 0.0
C1825 C 0.88678 0.24233 0.55433 0.0
C1826 C 0.89707 0.25012 0.56996 0.0
H1827 H 0.88298 0.23035 0.55162 0.0
H1828 H 0.95691 0.30124 0.64071 0.0
H1829 H 0.94128 0.28937 0.61068 0.0
H1830 H 0.90309 0.26253 0.6468 0.0
H1831 H 0.91855 0.27454 0.67674 0.0
H1832 H 0.90215 0.25552 0.61054 0.0
H1833 H 0.9204 0.28594 0.58998 0.0
H1834 H 0.90045 0.28513 0.56515 0.0
H1835 H 0.88208 0.27133 0.53798 0.0
C1836 C 0.36186 0.30476 0.65104 0.0
C1837 C 0.34847 0.30524 0.65199 0.0
C1838 C 0.36494 0.29855 0.63432 0.0
C1839 C 0.35456 0.29239 0.61819 0.0
C1840 C 0.34155 0.29359 0.6187 0.0
C1841 C 0.33852 0.29995 0.63541 0.0
C1842 C 0.35681 0.28443 0.60085 0.0
C1843 C 0.3653 0.27773 0.60202 0.0
C1844 C 0.36705 0.26865 0.58566 0.0
C1845 C 0.37361 0.25981 0.59041 0.0
C1846 C 0.37535 0.25084 0.5759 0.0
C1847 C 0.37061 0.25048 0.55615 0.0
H1848 H 0.35775 0.27541 0.56126 0.0
C1849 C 0.36422 0.25948 0.55123 0.0
C1850 C 0.36251 0.26853 0.56579 0.0
H1851 H 0.36065 0.25962 0.53608 0.0
H1852 H 0.36993 0.30903 0.66337 0.0
H1853 H 0.37544 0.29856 0.63422 0.0
H1854 H 0.33345 0.28916 0.6064 0.0
H1855 H 0.32814 0.3002 0.63561 0.0
H1856 H 0.35041 0.28318 0.58733 0.0
H1857 H 0.37069 0.2781 0.61615 0.0
H1858 H 0.37726 0.25966 0.60553 0.0
H1859 H 0.38011 0.2439 0.58029 0.0
C1860 C 0.71915 0.05914 0.60657 0.0
C1861 C 0.70958 0.05918 0.62117 0.0
C1862 C 0.72809 0.07224 0.59608 0.0
C1863 C 0.72754 0.08566 0.59978 0.0
C1864 C 0.71844 0.08589 0.61492 0.0
C1865 C 0.70947 0.07275 0.62547 0.0
C1866 C 0.73638 0.09954 0.58816 0.0
C1867 C 0.74002 0.09884 0.56919 0.0
C1868 C 0.74902 0.11236 0.557 0.0
C1869 C 0.74909 0.11009 0.53638 0.0
C1870 C 0.75803 0.12224 0.52436 0.0
C1871 C 0.76715 0.13696 0.53271 0.0
H1872 H 0.75871 0.1294 0.58118 0.0
C1873 C 0.76696 0.13932 0.55328 0.0
C1874 C 0.75806 0.12715 0.56534 0.0
H1875 H 0.77408 0.15051 0.56016 0.0
H1876 H 0.71957 0.04892 0.60294 0.0
H1877 H 0.73542 0.07177 0.58509 0.0
H1878 H 0.71798 0.09614 0.61826 0.0
H1879 H 0.70227 0.07316 0.63671 0.0
H1880 H 0.7392 0.11041 0.59516 0.0
H1881 H 0.73585 0.08774 0.56189 0.0
H1882 H 0.74229 0.09883 0.52953 0.0
H1883 H 0.75785 0.1201 0.50851 0.0
C1884 C 0.95089 0.65728 0.6349 0.0
C1885 C 0.9436 0.65169 0.65287 0.0
C1886 C 0.94281 0.6526 0.61678 0.0
C1887 C 0.92725 0.64225 0.61627 0.0
C1888 C 0.92014 0.63619 0.63414 0.0
C1889 C 0.92818 0.64089 0.65222 0.0
C1890 C 0.91791 0.63781 0.59764 0.0
C1891 C 0.92149 0.64682 0.58183 0.0
C1892 C 0.91073 0.64378 0.56505 0.0
C1893 C 0.91161 0.65623 0.55513 0.0
C1894 C 0.90066 0.65408 0.54092 0.0
C1895 C 0.88869 0.63937 0.53612 0.0
H1896 H 0.89851 0.61903 0.56621 0.0
C1897 C 0.88834 0.62679 0.54503 0.0
C1898 C 0.89926 0.62896 0.55938 0.0
H1899 H 0.87927 0.61532 0.54156 0.0
H1900 H 0.96279 0.66547 0.63481 0.0
H1901 H 0.94881 0.65716 0.60329 0.0
H1902 H 0.9082 0.62809 0.63419 0.0
H1903 H 0.9222 0.63621 0.66572 0.0
H1904 H 0.90693 0.6276 0.59793 0.0
H1905 H 0.93185 0.65773 0.58225 0.0
H1906 H 0.92044 0.66775 0.559 0.0
H1907 H 0.90135 0.66396 0.53403 0.0
C1908 C 0.94745 0.68926 0.72248 0.0
C1909 C 0.96225 0.699 0.71689 0.0
C1910 C 0.93955 0.69503 0.73251 0.0
C1911 C 0.94631 0.71073 0.7372 0.0
C1912 C 0.96096 0.72056 0.73102 0.0
C1913 C 0.96881 0.71476 0.72069 0.0
C1914 C 0.93883 0.71668 0.75029 0.0
C1915 C 0.9238 0.71004 0.75076 0.0
C1916 C 0.9157 0.71317 0.76648 0.0
C1917 C 0.90062 0.7088 0.76279 0.0
C1918 C 0.89184 0.70928 0.77801 0.0
C1919 C 0.89791 0.71398 0.7974 0.0
H1920 H 0.93348 0.72168 0.78926 0.0
C1921 C 0.91318 0.71899 0.80098 0.0
C1922 C 0.922 0.71856 0.78568 0.0
H1923 H 0.91813 0.72256 0.81579 0.0
H1924 H 0.94205 0.6771 0.7195 0.0
H1925 H 0.92843 0.68702 0.73742 0.0
H1926 H 0.96645 0.73267 0.7346 0.0
H1927 H 0.98027 0.72249 0.71661 0.0
H1928 H 0.94588 0.72636 0.76016 0.0
H1929 H 0.91697 0.70138 0.73948 0.0
H1930 H 0.89547 0.70458 0.74817 0.0
H1931 H 0.88018 0.70565 0.77468 0.0
C1932 C 0.29938 0.2685 0.71964 0.0
C1933 C 0.31257 0.28259 0.72317 0.0
C1934 C 0.2965 0.25583 0.73079 0.0
C1935 C 0.30684 0.25702 0.74567 0.0
C1936 C 0.32009 0.27109 0.7489 0.0
C1937 C 0.32291 0.28369 0.73787 0.0
C1938 C 0.30433 0.24431 0.75873 0.0
C1939 C 0.29272 0.22988 0.75698 0.0
C1940 C 0.29104 0.21788 0.77079 0.0
C1941 C 0.2839 0.2026 0.76398 0.0
C1942 C 0.2829 0.19122 0.77636 0.0
C1943 C 0.28896 0.19493 0.79585 0.0
H1944 H 0.3014 0.23296 0.79673 0.0
C1945 C 0.2955 0.21011 0.80293 0.0
C1946 C 0.29645 0.22144 0.79061 0.0
H1947 H 0.2999 0.21324 0.81805 0.0
H1948 H 0.29115 0.26731 0.70848 0.0
H1949 H 0.28607 0.24533 0.72783 0.0
H1950 H 0.32827 0.27243 0.76025 0.0
H1951 H 0.3331 0.29438 0.74121 0.0
H1952 H 0.31281 0.24705 0.77033 0.0
H1953 H 0.28464 0.22644 0.74472 0.0
H1954 H 0.27945 0.19951 0.74887 0.0
H1955 H 0.27781 0.17961 0.77048 0.0
C1956 C 0.73759 0.03754 0.69495 0.0
C1957 C 0.72288 0.03494 0.69286 0.0
C1958 C 0.74544 0.04253 0.71317 0.0
C1959 C 0.73874 0.04504 0.72978 0.0
C1960 C 0.724 0.04228 0.72776 0.0
C1961 C 0.7161 0.03718 0.70957 0.0
C1962 C 0.74723 0.05166 0.74885 0.0
C1963 C 0.75891 0.05009 0.75486 0.0
C1964 C 0.76847 0.0581 0.77277 0.0
C1965 C 0.77677 0.05217 0.78175 0.0
C1966 C 0.78692 0.06012 0.79749 0.0
C1967 C 0.78916 0.07431 0.80444 0.0
H1968 H 0.76461 0.07732 0.77314 0.0
C1969 C 0.78063 0.0801 0.79568 0.0
C1970 C 0.77042 0.07211 0.78003 0.0
H1971 H 0.78229 0.09114 0.80033 0.0
H1972 H 0.74319 0.03598 0.6824 0.0
H1973 H 0.75693 0.04493 0.71393 0.0
H1974 H 0.71862 0.04425 0.74025 0.0
H1975 H 0.70481 0.03535 0.7085 0.0
H1976 H 0.74358 0.05793 0.75828 0.0
H1977 H 0.76161 0.04258 0.74642 0.0
H1978 H 0.77554 0.04144 0.77641 0.0
H1979 H 0.79317 0.05523 0.80403 0.0
C1980 C 0.05778 0.33987 0.01761 0.0
C1981 C 0.04252 0.33497 0.02013 0.0
C1982 C 0.06535 0.33502 0.03021 0.0
C1983 C 0.05784 0.32518 0.04573 0.0
C1984 C 0.04259 0.32027 0.04825 0.0
C1985 C 0.03502 0.32518 0.03568 0.0
C1986 C 0.06545 0.31933 0.05886 0.0
C1987 C 0.08035 0.32713 0.06288 0.0
C1988 C 0.08832 0.32134 0.07539 0.0
C1989 C 0.10211 0.33193 0.08454 0.0
C1990 C 0.11034 0.32704 0.09571 0.0
C1991 C 0.10507 0.3114 0.0978 0.0
H1992 H 0.0726 0.29714 0.07023 0.0
C1993 C 0.0913 0.30076 0.08856 0.0
C1994 C 0.08298 0.30566 0.07749 0.0
H1995 H 0.08696 0.28863 0.08992 0.0
H1996 H 0.06388 0.34731 0.00569 0.0
H1997 H 0.07697 0.3387 0.02734 0.0
H1998 H 0.0365 0.31258 0.05997 0.0
H1999 H 0.02323 0.32111 0.03795 0.0
H2000 H 0.05846 0.30856 0.06592 0.0
H2001 H 0.08704 0.33856 0.05737 0.0
H2002 H 0.10657 0.34406 0.08298 0.0
H2003 H 0.12103 0.33553 0.10236 0.0
C2004 C 0.64904 0.69801 0.06498 0.0
C2005 C 0.65549 0.69272 0.05098 0.0
C2006 C 0.65581 0.71351 0.07005 0.0
C2007 C 0.66918 0.7241 0.06118 0.0
C2008 C 0.67519 0.71898 0.04638 0.0
C2009 C 0.6685 0.70341 0.04144 0.0
C2010 C 0.67702 0.74048 0.06731 0.0
C2011 C 0.67749 0.74501 0.08636 0.0
C2012 C 0.6849 0.7612 0.09337 0.0
C2013 C 0.68931 0.76473 0.11348 0.0
C2014 C 0.69515 0.7796 0.12112 0.0
C2015 C 0.6965 0.79123 0.10883 0.0
H2016 H 0.68307 0.7706 0.06544 0.0
C2017 C 0.69237 0.78779 0.08861 0.0
C2018 C 0.68664 0.77293 0.08092 0.0
H2019 H 0.69333 0.79655 0.07879 0.0
H2020 H 0.63896 0.69014 0.07251 0.0
H2021 H 0.65062 0.71718 0.08104 0.0
H2022 H 0.68537 0.72697 0.03913 0.0
H2023 H 0.67371 0.69974 0.03048 0.0
H2024 H 0.6832 0.74881 0.0562 0.0
H2025 H 0.67254 0.73643 0.09758 0.0
H2026 H 0.68799 0.7559 0.12342 0.0
H2027 H 0.69804 0.78186 0.13682 0.0
C2028 C 0.28889 0.94788 0.01891 0.0
C2029 C 0.30253 0.96091 0.02462 0.0
C2030 C 0.27719 0.94131 0.03216 0.0
C2031 C 0.27893 0.94757 0.05151 0.0
C2032 C 0.29246 0.96073 0.05712 0.0
C2033 C 0.3042 0.9673 0.04386 0.0
C2034 C 0.26663 0.9409 0.06585 0.0
C2035 C 0.25643 0.9259 0.06557 0.0
C2036 C 0.24336 0.91872 0.07869 0.0
C2037 C 0.23162 0.90408 0.0732 0.0
C2038 C 0.21899 0.89672 0.08477 0.0
C2039 C 0.21781 0.90377 0.10226 0.0
H2040 H 0.25116 0.93692 0.10135 0.0
C2041 C 0.22954 0.91841 0.10789 0.0
C2042 C 0.24224 0.92581 0.09627 0.0
H2043 H 0.22902 0.92402 0.12144 0.0
H2044 H 0.28718 0.94278 0.00414 0.0
H2045 H 0.26673 0.93151 0.02701 0.0
H2046 H 0.29401 0.96588 0.07184 0.0
H2047 H 0.31455 0.97742 0.04866 0.0
H2048 H 0.26616 0.94862 0.07681 0.0
H2049 H 0.25743 0.91839 0.05477 0.0
H2050 H 0.23214 0.89833 0.05976 0.0
H2051 H 0.21003 0.88555 0.07983 0.0
C2052 C 0.35389 0.04903 0.97538 0.0
C2053 C 0.3444 0.0341 0.98153 0.0
C2054 C 0.34796 0.05812 0.9696 0.0
C2055 C 0.33239 0.05238 0.96963 0.0
C2056 C 0.32306 0.03803 0.97751 0.0
C2057 C 0.329 0.02892 0.98338 0.0
C2058 C 0.32559 0.06071 0.96029 0.0
C2059 C 0.33136 0.06878 0.94387 0.0
C2060 C 0.32494 0.07682 0.93287 0.0
C2061 C 0.33414 0.08785 0.91946 0.0
C2062 C 0.32875 0.09568 0.90848 0.0
C2063 C 0.31396 0.09261 0.91054 0.0
H2064 H 0.3024 0.06482 0.94447 0.0
C2065 C 0.30458 0.08135 0.92361 0.0
C2066 C 0.31 0.07352 0.93472 0.0
H2067 H 0.29312 0.07878 0.92549 0.0
H2068 H 0.36585 0.05351 0.97423 0.0
H2069 H 0.35556 0.06944 0.96449 0.0
H2070 H 0.31105 0.03348 0.97801 0.0
H2071 H 0.3214 0.01751 0.98824 0.0
H2072 H 0.31529 0.05932 0.9663 0.0
H2073 H 0.34146 0.06956 0.93791 0.0
H2074 H 0.34562 0.0905 0.91753 0.0
H2075 H 0.33617 0.10413 0.89828 0.0
C2076 C 0.95428 0.28858 0.95811 0.0
C2077 C 0.96675 0.29483 0.97138 0.0
C2078 C 0.94587 0.27289 0.95436 0.0
C2079 C 0.94964 0.26302 0.96388 0.0
C2080 C 0.96148 0.26907 0.97806 0.0
C2081 C 0.97008 0.28488 0.98165 0.0
C2082 C 0.94137 0.24645 0.9588 0.0
C2083 C 0.93735 0.24135 0.93984 0.0
C2084 C 0.92816 0.22504 0.93359 0.0
C2085 C 0.92899 0.22076 0.91392 0.0
C2086 C 0.91923 0.20596 0.90661 0.0
C2087 C 0.90824 0.19516 0.91876 0.0
H2088 H 0.9164 0.21702 0.96115 0.0
C2089 C 0.90767 0.19927 0.93864 0.0
C2090 C 0.91757 0.21406 0.94603 0.0
H2091 H 0.89932 0.19115 0.94833 0.0
H2092 H 0.95125 0.29583 0.95005 0.0
H2093 H 0.93649 0.2685 0.9438 0.0
H2094 H 0.96444 0.26163 0.98578 0.0
H2095 H 0.97954 0.28929 0.99208 0.0
H2096 H 0.93913 0.2385 0.9706 0.0
H2097 H 0.94109 0.2496 0.92814 0.0
H2098 H 0.93697 0.22903 0.90398 0.0
H2099 H 0.91981 0.20318 0.89116 0.0
C2100 C 0.71171 0.6841 0.00733 0.0
C2101 C 0.69718 0.67285 0.00098 0.0
C2102 C 0.72372 0.68905 0.99455 0.0
C2103 C 0.72146 0.68277 0.97515 0.0
C2104 C 0.70685 0.67193 0.96859 0.0
C2105 C 0.69483 0.66695 0.98138 0.0
C2106 C 0.73402 0.68721 0.96136 0.0
C2107 C 0.74824 0.69201 0.96766 0.0
C2108 C 0.76089 0.69548 0.95431 0.0
C2109 C 0.77556 0.70285 0.96255 0.0
C2110 C 0.78776 0.70564 0.95094 0.0
C2111 C 0.78556 0.70106 0.93079 0.0
H2112 H 0.74771 0.68513 0.92697 0.0
C2113 C 0.77094 0.69389 0.92244 0.0
C2114 C 0.75874 0.69107 0.93403 0.0
H2115 H 0.76889 0.69038 0.90688 0.0
H2116 H 0.71388 0.68903 0.02225 0.0
H2117 H 0.7347 0.69784 -5e-05 0.0
H2118 H 0.70477 0.66704 0.95364 0.0
H2119 H 0.68375 0.65835 0.97598 0.0
H2120 H 0.73113 0.68573 0.94564 0.0
H2121 H 0.75081 0.69314 0.98349 0.0
H2122 H 0.77759 0.7063 0.97813 0.0
H2123 H 0.79886 0.71104 0.9579 0.0
C2124 C 0.96018 0.68602 0.99932 0.0
C2125 C 0.96513 0.67618 0.99234 0.0
C2126 C 0.95228 0.69051 0.98675 0.0
C2127 C 0.94924 0.68537 0.96673 0.0
C2128 C 0.9543 0.67561 0.95975 0.0
C2129 C 0.96217 0.67108 0.97237 0.0
C2130 C 0.94019 0.68919 0.95297 0.0
C2131 C 0.93709 0.70046 0.95652 0.0
C2132 C 0.92693 0.70322 0.94355 0.0
C2133 C 0.9191 0.70982 0.9521 0.0
C2134 C 0.90898 0.71209 0.9407 0.0
C2135 C 0.90659 0.70801 0.92036 0.0
H2136 H 0.93111 0.6949 0.91579 0.0
C2137 C 0.91483 0.70187 0.91164 0.0
C2138 C 0.92489 0.6995 0.92309 0.0
H2139 H 0.91355 0.69893 0.89592 0.0
H2140 H 0.96217 0.69009 0.01467 0.0
H2141 H 0.9483 0.69766 0.9931 0.0
H2142 H 0.95206 0.67136 0.94447 0.0
H2143 H 0.96581 0.66347 0.96651 0.0
H2144 H 0.93561 0.68208 0.93956 0.0
H2145 H 0.94148 0.70759 0.96989 0.0
H2146 H 0.92052 0.71289 0.9678 0.0
H2147 H 0.90272 0.71667 0.94802 0.0
C2148 C 0.35262 0.30139 0.95636 0.0
C2149 C 0.34386 0.30629 0.96643 0.0
C2150 C 0.34657 0.28616 0.95026 0.0
C2151 C 0.33161 0.27532 0.95431 0.0
C2152 C 0.32305 0.28009 0.96512 0.0
C2153 C 0.32911 0.29539 0.9712 0.0
C2154 C 0.32422 0.2594 0.94596 0.0
C2155 C 0.33194 0.25277 0.93936 0.0
C2156 C 0.32507 0.23793 0.92816 0.0
C2157 C 0.33426 0.23524 0.91557 0.0
C2158 C 0.32858 0.22149 0.90482 0.0
C2159 C 0.31356 0.20993 0.90662 0.0
H2160 H 0.30256 0.22802 0.93962 0.0
C2161 C 0.30424 0.21263 0.91904 0.0
C2162 C 0.30993 0.22651 0.92976 0.0
H2163 H 0.29267 0.20387 0.92093 0.0
H2164 H 0.36401 0.30945 0.95237 0.0
H2165 H 0.35355 0.28326 0.94152 0.0
H2166 H 0.31149 0.27204 0.96839 0.0
H2167 H 0.32202 0.29876 0.9789 0.0
H2168 H 0.31207 0.25332 0.9444 0.0
H2169 H 0.34406 0.25876 0.94122 0.0
H2170 H 0.34593 0.24386 0.91394 0.0
H2171 H 0.336 0.21989 0.89512 0.0
C2172 C 0.71628 0.03699 0.01169 0.0
C2173 C 0.7015 0.03121 0.0045 0.0
C2174 C 0.72819 0.0425 0.9987 0.0
C2175 C 0.72557 0.04224 0.97806 0.0
C2176 C 0.71074 0.03643 0.97091 0.0
C2177 C 0.69883 0.03098 0.98396 0.0
C2178 C 0.73791 0.04851 0.96357 0.0
C2179 C 0.75231 0.05283 0.96816 0.0
C2180 C 0.76461 0.06075 0.9541 0.0
C2181 C 0.77872 0.07199 0.96169 0.0
C2182 C 0.79039 0.0804 0.94894 0.0
C2183 C 0.78827 0.07748 0.92836 0.0
H2184 H 0.75195 0.04862 0.92726 0.0
C2185 C 0.77439 0.06577 0.92074 0.0
C2186 C 0.76259 0.0575 0.93351 0.0
H2187 H 0.77255 0.06332 0.9049 0.0
H2188 H 0.71873 0.03742 0.02746 0.0
H2189 H 0.73933 0.04716 0.00516 0.0
H2190 H 0.70834 0.03616 0.95515 0.0
H2191 H 0.68755 0.02658 0.97794 0.0
H2192 H 0.73503 0.05013 0.94859 0.0
H2193 H 0.75561 0.05164 0.98305 0.0
H2194 H 0.78059 0.07459 0.97751 0.0
H2195 H 0.80106 0.08929 0.95515 0.0
C2196 C 0.67409 0.97326 0.04613 0.0
C2197 C 0.65966 0.96934 0.05244 0.0
C2198 C 0.68101 0.96518 0.05263 0.0
C2199 C 0.67361 0.95303 0.06557 0.0
C2200 C 0.65897 0.94872 0.0711 0.0
C2201 C 0.65202 0.95667 0.06451 0.0
C2202 C 0.68112 0.94546 0.07503 0.0
C2203 C 0.69244 0.94435 0.06705 0.0
C2204 C 0.69903 0.93625 0.07745 0.0
C2205 C 0.70159 0.92576 0.06688 0.0
C2206 C 0.70592 0.91659 0.07697 0.0
C2207 C 0.70812 0.91808 0.09771 0.0
H2208 H 0.7004 0.94656 0.10649 0.0
C2209 C 0.70656 0.92933 0.10808 0.0
C2210 C 0.70199 0.9383 0.09806 0.0
H2211 H 0.70815 0.93067 0.12408 0.0
H2212 H 0.68031 0.98297 0.03688 0.0
H2213 H 0.6924 0.96896 0.0483 0.0
H2214 H 0.65301 0.93938 0.08102 0.0
H2215 H 0.64089 0.95327 0.06963 0.0
H2216 H 0.67672 0.94004 0.08905 0.0
H2217 H 0.69604 0.94824 0.05217 0.0
H2218 H 0.6995 0.92411 0.05097 0.0
H2219 H 0.70716 0.90805 0.06865 0.0
C2220 C 0.02899 0.70878 0.03296 0.0
C2221 C 0.03308 0.6975 0.03417 0.0
C2222 C 0.03954 0.72411 0.03741 0.0
C2223 C 0.0544 0.72841 0.04304 0.0
C2224 C 0.05866 0.71724 0.04286 0.0
C2225 C 0.04813 0.70197 0.03863 0.0
C2226 C 0.06569 0.74408 0.0502 0.0
C2227 C 0.06222 0.7542 0.05817 0.0
C2228 C 0.0736 0.76848 0.06873 0.0
C2229 C 0.0717 0.78127 0.06929 0.0
C2230 C 0.08197 0.79461 0.07988 0.0
C2231 C 0.09425 0.79535 0.09037 0.0
H2232 H 0.08727 0.75935 0.0801 0.0
C2233 C 0.09595 0.78242 0.09007 0.0
C2234 C 0.08578 0.76917 0.07941 0.0
H2235 H 0.10498 0.78238 0.09845 0.0
H2236 H 0.0175 0.70571 0.02942 0.0
H2237 H 0.03591 0.73243 0.03672 0.0
H2238 H 0.07006 0.72022 0.04689 0.0
H2239 H 0.05171 0.6936 0.03945 0.0
H2240 H 0.07736 0.74691 0.05044 0.0
H2241 H 0.05071 0.75183 0.05776 0.0
H2242 H 0.06229 0.78096 0.06143 0.0
H2243 H 0.08035 0.80437 0.0797 0.0
C2244 C 0.30187 0.33141 0.03118 0.0
C2245 C 0.31419 0.34633 0.03283 0.0
C2246 C 0.28964 0.32683 0.04345 0.0
C2247 C 0.28942 0.33711 0.05758 0.0
C2248 C 0.302 0.3518 0.05982 0.0
C2249 C 0.31425 0.3564 0.04752 0.0
C2250 C 0.27623 0.33293 0.07006 0.0
C2251 C 0.26211 0.32263 0.06398 0.0
C2252 C 0.24865 0.31904 0.07557 0.0
C2253 C 0.23473 0.313 0.06545 0.0
C2254 C 0.22179 0.30959 0.0757 0.0
C2255 C 0.22247 0.31202 0.09638 0.0
H2256 H 0.25971 0.32536 0.10478 0.0
C2257 C 0.23635 0.3178 0.10659 0.0
C2258 C 0.24931 0.32124 0.09633 0.0
H2259 H 0.23717 0.31947 0.12258 0.0
H2260 H 0.30157 0.32329 0.02021 0.0
H2261 H 0.28041 0.31522 0.0418 0.0
H2262 H 0.3022 0.35987 0.07077 0.0
H2263 H 0.32363 0.36793 0.04929 0.0
H2264 H 0.27816 0.33941 0.08388 0.0
H2265 H 0.26015 0.3173 0.04926 0.0
H2266 H 0.23389 0.31111 0.04949 0.0
H2267 H 0.21129 0.30526 0.06737 0.0
C2268 C 0.72082 0.66869 0.34715 0.0
C2269 C 0.70655 0.66591 0.35257 0.0
C2270 C 0.72882 0.6639 0.35898 0.0
C2271 C 0.7228 0.65625 0.37664 0.0
C2272 C 0.70843 0.65322 0.38191 0.0
C2273 C 0.70041 0.65809 0.37007 0.0
C2274 C 0.73112 0.65099 0.38943 0.0
C2275 C 0.74624 0.65835 0.39069 0.0
C2276 C 0.75504 0.65342 0.40304 0.0
C2277 C 0.76975 0.66437 0.40905 0.0
C2278 C 0.7787 0.66023 0.42 0.0
C2279 C 0.77322 0.64498 0.42501 0.0
H2280 H 0.73836 0.62929 0.40322 0.0
C2281 C 0.75854 0.63395 0.41886 0.0
C2282 C 0.74951 0.63812 0.40802 0.0
H2283 H 0.75403 0.62211 0.42251 0.0
H2284 H 0.72584 0.67454 0.33367 0.0
H2285 H 0.73962 0.66599 0.35402 0.0
H2286 H 0.70346 0.6472 0.39532 0.0
H2287 H 0.68941 0.65567 0.37459 0.0
H2288 H 0.72462 0.64128 0.39864 0.0
H2289 H 0.7526 0.66892 0.38293 0.0
H2290 H 0.77437 0.67619 0.40523 0.0
H2291 H 0.79004 0.66897 0.42424 0.0
C2292 C 0.32853 0.03779 0.37881 0.0
C2293 C 0.31318 0.02721 0.38072 0.0
C2294 C 0.3341 0.05334 0.38292 0.0
C2295 C 0.32438 0.05857 0.38889 0.0
C2296 C 0.30894 0.04813 0.38937 0.0
C2297 C 0.3034 0.03262 0.3855 0.0
C2298 C 0.32981 0.07457 0.3957 0.0
C2299 C 0.3435 0.08372 0.40417 0.0
C2300 C 0.34766 0.09851 0.41436 0.0
C2301 C 0.36281 0.10998 0.41604 0.0
C2302 C 0.36706 0.12375 0.42634 0.0
C2303 C 0.35621 0.12624 0.43536 0.0
H2304 H 0.32515 0.09216 0.4235 0.0
C2305 C 0.34108 0.11463 0.43396 0.0
C2306 C 0.33685 0.10094 0.42364 0.0
H2307 H 0.33249 0.11597 0.44121 0.0
H2308 H 0.33635 0.03401 0.37501 0.0
H2309 H 0.34602 0.06112 0.38171 0.0
H2310 H 0.30117 0.05187 0.39367 0.0
H2311 H 0.29149 0.0248 0.38686 0.0
H2312 H 0.32169 0.07842 0.39527 0.0
H2313 H 0.35181 0.08012 0.40448 0.0
H2314 H 0.37139 0.10831 0.40929 0.0
H2315 H 0.3788 0.13248 0.42706 0.0
C2316 C 0.96279 0.31402 0.3574 0.0
C2317 C 0.97506 0.31166 0.35948 0.0
C2318 C 0.95125 0.30804 0.371 0.0
C2319 C 0.95172 0.29945 0.38689 0.0
C2320 C 0.9644 0.29785 0.38952 0.0
C2321 C 0.97594 0.30385 0.37596 0.0
C2322 C 0.93905 0.29135 0.40049 0.0
C2323 C 0.92481 0.28771 0.39605 0.0
C2324 C 0.91191 0.2773 0.40812 0.0
C2325 C 0.89887 0.27843 0.40762 0.0
C2326 C 0.88611 0.26799 0.41752 0.0
C2327 C 0.88608 0.25606 0.42781 0.0
H2328 H 0.92158 0.26391 0.41892 0.0
C2329 C 0.89916 0.255 0.42845 0.0
C2330 C 0.91194 0.26548 0.4187 0.0
H2331 H 0.89947 0.24596 0.43637 0.0
H2332 H 0.96191 0.32022 0.34503 0.0
H2333 H 0.942 0.31009 0.36879 0.0
H2334 H 0.96516 0.29145 0.40174 0.0
H2335 H 0.98532 0.30196 0.37811 0.0
H2336 H 0.94141 0.28727 0.4141 0.0
H2337 H 0.9222 0.29188 0.38276 0.0
H2338 H 0.8985 0.2873 0.39936 0.0
H2339 H 0.87612 0.26897 0.41663 0.0
C2340 C 0.00911 0.36592 0.30823 0.0
C2341 C 0.02311 0.36722 0.30459 0.0
C2342 C 0.00633 0.37759 0.30311 0.0
C2343 C 0.01755 0.39081 0.29433 0.0
C2344 C 0.03184 0.39257 0.29212 0.0
C2345 C 0.03458 0.38086 0.29704 0.0
C2346 C 0.01461 0.40256 0.28617 0.0
C2347 C 0.00116 0.39925 0.27835 0.0
C2348 C -0.00114 0.4102 0.26666 0.0
C2349 C 0.98444 0.40835 0.26506 0.0
C2350 C 0.98173 0.41797 0.25328 0.0
C2351 C 0.9934 0.42954 0.24268 0.0
H2352 H 0.02163 0.4231 0.25603 0.0
C2353 C 0.00779 0.43127 0.24412 0.0
C2354 C 0.0105 0.4217 0.25592 0.0
H2355 H 0.01694 0.43983 0.23577 0.0
H2356 H 9e-05 0.35562 0.31424 0.0
H2357 H 0.99533 0.3761 0.30568 0.0
H2358 H 0.04073 0.40273 0.28564 0.0
H2359 H 0.04556 0.38233 0.29433 0.0
H2360 H 0.0242 0.41394 0.28487 0.0
H2361 H 0.99152 0.3879 0.2797 0.0
H2362 H 0.97523 0.39946 0.27298 0.0
H2363 H 0.97054 0.41643 0.25262 0.0
C2364 C 0.63378 0.62259 0.30866 0.0
C2365 C 0.62995 0.63404 0.30713 0.0
C2366 C 0.62306 0.60729 0.30438 0.0
C2367 C 0.60827 0.60319 0.29865 0.0
C2368 C 0.6043 0.61456 0.29825 0.0
C2369 C 0.61501 0.6298 0.30227 0.0
C2370 C 0.59669 0.5874 0.29236 0.0
C2371 C 0.59986 0.57713 0.28417 0.0
C2372 C 0.58813 0.56236 0.27495 0.0
C2373 C 0.59081 0.55009 0.27342 0.0
C2374 C 0.58024 0.53629 0.26402 0.0
C2375 C 0.56681 0.53453 0.25577 0.0
H2376 H 0.57252 0.56998 0.26653 0.0
C2377 C 0.56424 0.54689 0.2571 0.0
C2378 C 0.57476 0.56063 0.26651 0.0
H2379 H 0.55424 0.5461 0.25042 0.0
H2380 H 0.64518 0.62548 0.3125 0.0
H2381 H 0.62643 0.59879 0.30546 0.0
H2382 H 0.59296 0.61172 0.2941 0.0
H2383 H 0.61163 0.63832 0.30118 0.0
H2384 H 0.58507 0.58459 0.29319 0.0
H2385 H 0.61142 0.5797 0.28352 0.0
H2386 H 0.60109 0.55117 0.27956 0.0
H2387 H 0.58254 0.52697 0.26333 0.0
C2388 C 0.36674 0.98971 0.34669 0.0
C2389 C 0.3542 0.9906 0.34012 0.0
C2390 C 0.37824 0.99245 0.33379 0.0
C2391 C 0.3774 0.99602 0.31391 0.0
C2392 C 0.36502 0.99723 0.30745 0.0
C2393 C 0.35349 0.99448 0.32039 0.0
C2394 C 0.38947 -0.00099 0.2998 0.0
C2395 C 0.39835 0.99282 0.30159 0.0
C2396 C 0.41102 0.9961 0.28843 0.0
C2397 C 0.42198 0.99278 0.29524 0.0
C2398 C 0.43419 0.99571 0.28363 0.0
C2399 C 0.43568 0.00193 0.2648 0.0
H2400 H 0.40399 0.00448 0.26332 0.0
C2401 C 0.42462 0.00509 0.25781 0.0
C2402 C 0.41239 0.00217 0.26946 0.0
H2403 H 0.42531 0.00962 0.2432 0.0
H2404 H 0.36774 0.98694 0.36186 0.0
H2405 H 0.38785 0.99201 0.33962 0.0
H2406 H 0.36419 0.00016 0.29229 0.0
H2407 H 0.34401 0.99534 0.3149 0.0
H2408 H 0.3909 0.00646 0.28768 0.0
H2409 H 0.39654 0.98515 0.3136 0.0
H2410 H 0.42122 0.98806 0.30975 0.0
H2411 H 0.44259 0.9933 0.28956 0.0
C2412 C 0.62524 0.00821 0.33687 0.0
C2413 C 0.63308 0.0012 0.32954 0.0
C2414 C 0.61547 0.01031 0.32447 0.0
C2415 C 0.6134 0.00555 0.30433 0.0
C2416 C 0.62139 -0.00129 0.29696 0.0
C2417 C 0.63117 0.99661 0.30939 0.0
C2418 C 0.6023 0.00658 0.29099 0.0
C2419 C 0.59721 0.01634 0.29433 0.0
C2420 C 0.58526 0.01661 0.28195 0.0
C2421 C 0.58394 0.02975 0.28269 0.0
C2422 C 0.57238 0.0302 0.27218 0.0
C2423 C 0.56174 0.01745 0.26081 0.0
H2424 H 0.57495 0.99333 0.26992 0.0
C2425 C 0.56307 0.0043 0.26 0.0
C2426 C 0.57465 0.00385 0.27049 0.0
H2427 H 0.55511 0.99431 0.25127 0.0
H2428 H 0.62636 0.01179 0.35235 0.0
H2429 H 0.60922 0.01518 0.33098 0.0
H2430 H 0.61994 0.99482 0.28157 0.0
H2431 H 0.63701 0.99112 0.30328 0.0
H2432 H 0.59842 -0.00086 0.27782 0.0
H2433 H 0.60214 0.02476 0.30643 0.0
H2434 H 0.59183 0.03968 0.29157 0.0
H2435 H 0.57156 0.04044 0.27334 0.0
C2436 C 0.00698 0.62951 0.30434 0.0
C2437 C 0.02181 0.64143 0.30221 0.0
C2438 C 0.00291 0.6145 0.29902 0.0
C2439 C 0.01364 0.61112 0.29164 0.0
C2440 C 0.02862 0.62286 0.29069 0.0
C2441 C 0.03265 0.63789 0.29572 0.0
C2442 C 0.00949 0.59561 0.28417 0.0
C2443 C 0.99639 0.58645 0.27435 0.0
C2444 C 0.99311 0.57196 0.26417 0.0
C2445 C 0.98429 0.5673 0.24658 0.0
C2446 C 0.98179 0.55424 0.2359 0.0
C2447 C 0.98786 0.5454 0.24279 0.0
H2448 H 0.00521 0.56588 0.2853 0.0
C2449 C 0.99616 0.54974 0.26088 0.0
C2450 C -0.00122 0.56288 0.27144 0.0
H2451 H 0.00065 0.54297 0.26691 0.0
H2452 H -0.00164 0.63183 0.3094 0.0
H2453 H 0.99134 0.60561 0.30045 0.0
H2454 H 0.03712 0.62049 0.28526 0.0
H2455 H 0.04421 0.64679 0.29412 0.0
H2456 H 0.01811 0.59242 0.28479 0.0
H2457 H 0.98847 0.59041 0.27191 0.0
H2458 H 0.97973 0.57407 0.24074 0.0
H2459 H 0.97545 0.55133 0.22196 0.0
C2460 C 0.37489 0.35957 0.33253 0.0
C2461 C 0.36166 0.35992 0.3284 0.0
C2462 C 0.38651 0.36524 0.31909 0.0
C2463 C 0.38519 0.37152 0.30126 0.0
C2464 C 0.37172 0.37129 0.29675 0.0
C2465 C 0.36008 0.3656 0.31022 0.0
C2466 C 0.39776 0.37871 0.28735 0.0
C2467 C 0.41224 0.38568 0.29361 0.0
C2468 C 0.42494 0.39476 0.28053 0.0
C2469 C 0.43799 0.40716 0.289 0.0
C2470 C 0.44991 0.41657 0.27715 0.0
C2471 C 0.44915 0.41361 0.2566 0.0
H2472 H 0.4146 0.38175 0.25312 0.0
C2473 C 0.43639 0.40081 0.24817 0.0
C2474 C 0.42433 0.39148 0.26003 0.0
H2475 H 0.43558 0.39829 0.23236 0.0
H2476 H 0.37637 0.35503 0.34626 0.0
H2477 H 0.39649 0.36469 0.32276 0.0
H2478 H 0.37036 0.3759 0.28302 0.0
H2479 H 0.34996 0.36589 0.30652 0.0
H2480 H 0.39501 0.37959 0.27199 0.0
H2481 H 0.41492 0.38612 0.30934 0.0
H2482 H 0.43881 0.40983 0.30478 0.0
H2483 H 0.45973 0.42625 0.28403 0.0
C2484 C 0.33441 0.30529 0.37404 0.0
C2485 C 0.31917 0.3007 0.37621 0.0
C2486 C 0.33973 0.29544 0.37877 0.0
C2487 C 0.32986 0.2808 0.38563 0.0
C2488 C 0.31449 0.27585 0.38628 0.0
C2489 C 0.3092 0.28573 0.3818 0.0
C2490 C 0.3351 0.27066 0.39346 0.0
C2491 C 0.34867 0.27586 0.40237 0.0
C2492 C 0.35229 0.26584 0.41408 0.0
C2493 C 0.36717 0.26891 0.41561 0.0
C2494 C 0.37077 0.25967 0.42691 0.0
C2495 C 0.35955 0.24734 0.43707 0.0
H2496 H 0.32975 0.25153 0.42472 0.0
C2497 C 0.34478 0.24465 0.43606 0.0
C2498 C 0.34119 0.25378 0.42474 0.0
H2499 H 0.33597 0.23553 0.4442 0.0
H2500 H 0.34235 0.31672 0.36958 0.0
H2501 H 0.35158 0.29945 0.37744 0.0
H2502 H 0.30662 0.26455 0.39127 0.0
H2503 H 0.29737 0.28178 0.38335 0.0
H2504 H 0.32687 0.25857 0.39377 0.0
H2505 H 0.35714 0.28785 0.40201 0.0
H2506 H 0.37596 0.27832 0.40783 0.0
H2507 H 0.38224 0.26201 0.42738 0.0
C2508 C 0.71635 0.03606 0.38748 0.0
C2509 C 0.7039 0.03035 0.37421 0.0
C2510 C 0.72527 0.0517 0.39144 0.0
C2511 C 0.72204 0.06206 0.38215 0.0
C2512 C 0.7101 0.05649 0.36814 0.0
C2513 C 0.701 0.04076 0.36434 0.0
C2514 C 0.73101 0.07865 0.38708 0.0
C2515 C 0.73589 0.08386 0.40582 0.0
C2516 C 0.74528 0.10024 0.41175 0.0
C2517 C 0.74486 0.10474 0.43144 0.0
C2518 C 0.75451 0.11972 0.43823 0.0
C2519 C 0.76498 0.13049 0.42554 0.0
H2520 H 0.75633 0.10796 0.38368 0.0
C2521 C 0.76528 0.12609 0.40572 0.0
C2522 C 0.75547 0.11111 0.39883 0.0
H2523 H 0.77326 0.13417 0.39563 0.0
H2524 H 0.71902 0.02844 0.39526 0.0
H2525 H 0.73469 0.05568 0.40187 0.0
H2526 H 0.70752 0.06428 0.3606 0.0
H2527 H 0.69157 0.03675 0.35393 0.0
H2528 H 0.73294 0.0866 0.37538 0.0
H2529 H 0.73251 0.07572 0.41763 0.0
H2530 H 0.73722 0.09656 0.44174 0.0
H2531 H 0.75417 0.12272 0.45366 0.0
C2532 C 0.98301 0.68454 0.38206 0.0
C2533 C 0.98549 0.67458 0.37002 0.0
C2534 C 0.96991 0.67902 0.39282 0.0
C2535 C 0.95902 0.66342 0.39173 0.0
C2536 C 0.96193 0.65335 0.38071 0.0
C2537 C 0.97499 0.65887 0.36983 0.0
C2538 C 0.94441 0.65741 0.40152 0.0
C2539 C 0.9374 0.66558 0.40309 0.0
C2540 C 0.92242 0.66005 0.41182 0.0
C2541 C 0.91756 0.67062 0.4149 0.0
C2542 C 0.90364 0.66616 0.42305 0.0
C2543 C 0.89418 0.65098 0.42828 0.0
H2544 H 0.91585 0.63608 0.41436 0.0
C2545 C 0.89886 0.64029 0.42492 0.0
C2546 C 0.91282 0.64475 0.41676 0.0
H2547 H 0.89185 0.62852 0.42893 0.0
H2548 H 0.99097 0.69667 0.38273 0.0
H2549 H 0.96828 0.68702 0.4018 0.0
H2550 H 0.95381 0.64125 0.37989 0.0
H2551 H 0.97664 0.65088 0.36086 0.0
H2552 H 0.93912 0.64576 0.40637 0.0
H2553 H 0.94285 0.67703 0.3974 0.0
H2554 H 0.9246 0.68243 0.41108 0.0
H2555 H 0.90026 0.67463 0.42517 0.0
C2556 C 0.37134 0.98405 0.69411 0.0
C2557 C 0.36817 0.99589 0.69721 0.0
C2558 C 0.38103 0.98232 0.70712 0.0
C2559 C 0.38794 0.99252 0.72347 0.0
C2560 C 0.38416 0.00385 0.72714 0.0
C2561 C 0.37441 0.00557 0.71413 0.0
C2562 C 0.39921 0.99175 0.7368 0.0
C2563 C 0.40787 0.98602 0.73071 0.0
C2564 C 0.4199 0.9859 0.74313 0.0
C2565 C 0.43062 0.9835 0.7336 0.0
C2566 C 0.44211 0.98319 0.74447 0.0
C2567 C 0.44317 0.98522 0.76522 0.0
H2568 H 0.41264 0.98922 0.77204 0.0
C2569 C 0.43241 0.98752 0.77485 0.0
C2570 C 0.42086 0.98779 0.76397 0.0
H2571 H 0.43276 0.98885 0.79087 0.0
H2572 H 0.36653 0.97624 0.6814 0.0
H2573 H 0.38311 0.97301 0.70422 0.0
H2574 H 0.38912 0.01173 0.73977 0.0
H2575 H 0.37214 0.01476 0.71703 0.0
H2576 H 0.40109 0.9971 0.75146 0.0
H2577 H 0.40673 0.98192 0.71542 0.0
H2578 H 0.43017 0.98195 0.71759 0.0
H2579 H 0.4503 0.98156 0.73655 0.0
C2580 C 0.99361 0.3652 0.70894 0.0
C2581 C 0.97859 0.35391 0.7116 0.0
C2582 C -0.00165 0.38057 0.71291 0.0
C2583 C 0.9881 0.38494 0.71942 0.0
C2584 C 0.97292 0.3738 0.7207 0.0
C2585 C 0.96822 0.35841 0.71704 0.0
C2586 C 0.99297 0.40086 0.72588 0.0
C2587 C 0.00615 0.40982 0.73567 0.0
C2588 C 0.01 0.42469 0.74527 0.0
C2589 C 0.0189 0.42943 0.7628 0.0
C2590 C 0.02186 0.44282 0.77304 0.0
C2591 C 0.01615 0.45189 0.7658 0.0
H2592 H -0.00174 0.43094 0.72378 0.0
C2593 C 0.0078 0.44746 0.74775 0.0
C2594 C 0.00473 0.434 0.7376 0.0
H2595 H 0.00358 0.45438 0.74144 0.0
H2596 H 0.00187 0.36213 0.70466 0.0
H2597 H 0.01007 0.38897 0.71122 0.0
H2598 H 0.96478 0.37691 0.72546 0.0
H2599 H 0.95654 0.35001 0.71902 0.0
H2600 H 0.98475 0.40455 0.72472 0.0
H2601 H 0.01365 0.40541 0.73863 0.0
H2602 H 0.02316 0.4225 0.76895 0.0
H2603 H 0.02822 0.4458 0.78696 0.0
C2604 C 0.62051 0.62434 0.68565 0.0
C2605 C 0.63509 0.62741 0.69052 0.0
C2606 C 0.60938 0.61867 0.6998 0.0
C2607 C 0.61266 0.61611 0.71923 0.0
C2608 C 0.6272 0.61905 0.72399 0.0
C2609 C 0.63832 0.62467 0.70982 0.0
C2610 C 0.60105 0.60953 0.73453 0.0
C2611 C 0.58819 0.60996 0.73382 0.0
C2612 C 0.57578 0.60191 0.74781 0.0
C2613 C 0.56416 0.60536 0.74804 0.0
C2614 C 0.55152 0.597 0.75944 0.0
C2615 C 0.55023 0.58496 0.7708 0.0
H2616 H 0.58307 0.58675 0.75979 0.0
C2617 C 0.56208 0.58186 0.77116 0.0
C2618 C 0.57465 0.59013 0.75971 0.0
H2619 H 0.5615 0.57276 0.77997 0.0
H2620 H 0.61764 0.62622 0.67085 0.0
H2621 H 0.5982 0.61603 0.69524 0.0
H2622 H 0.63 0.617 0.73875 0.0
H2623 H 0.64945 0.62692 0.71404 0.0
H2624 H 0.60344 0.60433 0.74691 0.0
H2625 H 0.58651 0.61641 0.72241 0.0
H2626 H 0.56466 0.6143 0.73896 0.0
H2627 H 0.54251 0.59957 0.75872 0.0
C2628 C 0.6807 0.70544 0.64489 0.0
C2629 C 0.67248 0.68984 0.64888 0.0
C2630 C 0.67333 0.71342 0.64031 0.0
C2631 C 0.65755 0.70595 0.63957 0.0
C2632 C 0.64934 0.69053 0.64439 0.0
C2633 C 0.65673 0.68258 0.64922 0.0
C2634 C 0.64952 0.71343 0.63135 0.0
C2635 C 0.65528 0.72861 0.63241 0.0
C2636 C 0.64945 0.73665 0.62027 0.0
C2637 C 0.65273 0.7513 0.62649 0.0
C2638 C 0.64959 0.76022 0.614 0.0
C2639 C 0.64332 0.75476 0.59484 0.0
H2640 H 0.6401 0.71975 0.59596 0.0
C2641 C 0.6394 0.73982 0.58893 0.0
C2642 C 0.64244 0.73085 0.6015 0.0
H2643 H 0.63472 0.73535 0.5742 0.0
H2644 H 0.69284 0.71136 0.64453 0.0
H2645 H 0.68005 0.7252 0.63621 0.0
H2646 H 0.63718 0.6845 0.64378 0.0
H2647 H 0.65005 0.67054 0.65217 0.0
H2648 H 0.63889 0.70623 0.62346 0.0
H2649 H 0.6651 0.7356 0.64193 0.0
H2650 H 0.65816 0.75605 0.64084 0.0
H2651 H 0.65246 0.77158 0.61916 0.0
C2652 C 0.28806 0.96554 0.63727 0.0
C2653 C 0.30284 0.97033 0.64372 0.0
C2654 C 0.27765 0.95008 0.6342 0.0
C2655 C 0.28184 0.93899 0.63714 0.0
C2656 C 0.29635 0.94371 0.64472 0.0
C2657 C 0.30678 0.95924 0.64799 0.0
C2658 C 0.27142 0.92256 0.63206 0.0
C2659 C 0.26056 0.91794 0.61778 0.0
C2660 C 0.25002 0.9018 0.61148 0.0
C2661 C 0.23712 0.89864 0.6003 0.0
C2662 C 0.22718 0.8839 0.59302 0.0
C2663 C 0.2299 0.87189 0.59664 0.0
H2664 H 0.2627 0.89172 0.62348 0.0
C2665 C 0.24278 0.87497 0.60791 0.0
C2666 C 0.25275 0.88977 0.61529 0.0
H2667 H 0.24518 0.86594 0.61097 0.0
H2668 H 0.28455 0.97377 0.63429 0.0
H2669 H 0.26637 0.94695 0.62939 0.0
H2670 H 0.29981 0.9354 0.64746 0.0
H2671 H 0.31806 0.96257 0.6531 0.0
H2672 H 0.27319 0.91426 0.63974 0.0
H2673 H 0.25924 0.92646 0.60991 0.0
H2674 H 0.23477 0.90766 0.59697 0.0
H2675 H 0.21753 0.88201 0.58408 0.0
C2676 C 0.03652 0.34995 0.66644 0.0
C2677 C 0.02321 0.33581 0.66417 0.0
C2678 C 0.04833 0.35391 0.65355 0.0
C2679 C 0.04714 0.3437 0.6382 0.0
C2680 C 0.03358 0.32984 0.63545 0.0
C2681 C 0.02175 0.32591 0.6483 0.0
C2682 C 0.05975 0.34696 0.62491 0.0
C2683 C 0.07428 0.35663 0.63 0.0
C2684 C 0.08706 0.35892 0.61764 0.0
C2685 C 0.10135 0.36505 0.6268 0.0
C2686 C 0.1136 0.36694 0.616 0.0
C2687 C 0.11185 0.36276 0.59573 0.0
H2688 H 0.07478 0.35098 0.58929 0.0
C2689 C 0.09767 0.35701 0.58638 0.0
C2690 C 0.08542 0.35519 0.59716 0.0
H2691 H 0.09606 0.35402 0.57067 0.0
H2692 H 0.03792 0.35794 0.67834 0.0
H2693 H 0.05832 0.36496 0.65573 0.0
H2694 H 0.03226 0.32184 0.62361 0.0
H2695 H 0.0116 0.31496 0.64605 0.0
H2696 H 0.05692 0.34019 0.61118 0.0
H2697 H 0.07712 0.36237 0.6445 0.0
H2698 H 0.10299 0.36814 0.6425 0.0
H2699 H 0.12437 0.37133 0.62364 0.0
C2700 C 0.29407 0.35172 0.671 0.0
C2701 C 0.29921 0.34216 0.66355 0.0
C2702 C 0.28535 0.3556 0.65907 0.0
C2703 C 0.28164 0.35009 0.63923 0.0
C2704 C 0.28699 0.34071 0.63174 0.0
C2705 C 0.29569 0.3368 0.64372 0.0
C2706 C 0.2716 0.35308 0.62623 0.0
C2707 C 0.26774 0.36376 0.63024 0.0
C2708 C 0.25666 0.36562 0.61795 0.0
C2709 C 0.24858 0.37177 0.62697 0.0
C2710 C 0.23759 0.3731 0.61621 0.0
C2711 C 0.23453 0.36842 0.59608 0.0
H2712 H 0.26037 0.35721 0.5899 0.0
C2713 C 0.24303 0.3628 0.58686 0.0
C2714 C 0.25398 0.36143 0.59763 0.0
H2715 H 0.24124 0.35947 0.57124 0.0
H2716 H 0.29651 0.356 0.68625 0.0
H2717 H 0.28127 0.36254 0.66579 0.0
H2718 H 0.28428 0.33622 0.61658 0.0
H2719 H 0.29946 0.3294 0.63751 0.0
H2720 H 0.26688 0.34578 0.61301 0.0
H2721 H 0.2722 0.37103 0.64348 0.0
H2722 H 0.25049 0.37521 0.64255 0.0
H2723 H 0.23121 0.37739 0.62382 0.0
C2724 C 0.69288 0.97128 0.62224 0.0
C2725 C 0.68376 0.976 0.6317 0.0
C2726 C 0.68728 0.95599 0.61682 0.0
C2727 C 0.67241 0.94493 0.62093 0.0
C2728 C 0.66341 0.94957 0.63086 0.0
C2729 C 0.66903 0.96492 0.6363 0.0
C2730 C 0.66565 0.92882 0.61359 0.0
C2731 C 0.67392 0.92227 0.60928 0.0
C2732 C 0.66789 0.90703 0.59931 0.0
C2733 C 0.67805 0.90382 0.58976 0.0
C2734 C 0.67312 0.88982 0.57993 0.0
C2735 C 0.65786 0.87854 0.57958 0.0
H2736 H 0.64439 0.89759 0.60651 0.0
C2737 C 0.64762 0.88167 0.58913 0.0
C2738 C 0.65257 0.89576 0.59896 0.0
H2739 H 0.63583 0.87312 0.58937 0.0
H2740 H 0.70425 0.97948 0.61836 0.0
H2741 H 0.69451 0.9531 0.60863 0.0
H2742 H 0.65189 0.94134 0.63408 0.0
H2743 H 0.66166 0.96816 0.6435 0.0
H2744 H 0.65358 0.9225 0.61106 0.0
H2745 H 0.68594 0.92862 0.61231 0.0
H2746 H 0.68989 0.91227 0.5897 0.0
H2747 H 0.68128 0.88788 0.57247 0.0
C2748 C 0.01697 0.70273 0.62692 0.0
C2749 C 0.01557 0.69444 0.64399 0.0
C2750 C 0.02967 0.70798 0.61533 0.0
C2751 C 0.04125 0.70508 0.62066 0.0
C2752 C 0.03945 0.69608 0.63707 0.0
C2753 C 0.02678 0.69087 0.64869 0.0
C2754 C 0.05558 0.71168 0.60997 0.0
C2755 C 0.06146 0.7252 0.60109 0.0
C2756 C 0.07667 0.73327 0.59258 0.0
C2757 C 0.0802 0.74565 0.58042 0.0
C2758 C 0.09468 0.75451 0.57346 0.0
C2759 C 0.10602 0.75124 0.57856 0.0
H2760 H 0.08593 0.7206 0.60702 0.0
C2761 C 0.10246 0.73863 0.5903 0.0
C2762 C 0.08796 0.72977 0.59733 0.0
H2763 H 0.11102 0.73595 0.59465 0.0
H2764 H 0.00842 0.70547 0.62272 0.0
H2765 H 0.03038 0.71438 0.60233 0.0
H2766 H 0.04811 0.69352 0.64136 0.0
H2767 H 0.02597 0.68435 0.66162 0.0
H2768 H 0.06182 0.7057 0.61081 0.0
H2769 H 0.05512 0.73112 0.60066 0.0
H2770 H 0.07178 0.74865 0.57652 0.0
H2771 H 0.09703 0.76402 0.56418 0.0
C2772 C 0.99066 0.6342 0.7127 0.0
C2773 C 0.97816 0.63439 0.72049 0.0
C2774 C 0.99507 0.62412 0.71984 0.0
C2775 C 0.98704 0.61408 0.73494 0.0
C2776 C 0.97435 0.614 0.7423 0.0
C2777 C 0.96987 0.62394 0.73506 0.0
C2778 C 0.9922 0.60441 0.74448 0.0
C2779 C 0.00038 0.59924 0.73534 0.0
C2780 C 0.00532 0.58973 0.74578 0.0
C2781 C 0.00522 0.5775 0.73555 0.0
C2782 C 0.00894 0.56783 0.74554 0.0
C2783 C 0.01315 0.57049 0.7658 0.0
H2784 H 0.01054 0.60226 0.77403 0.0
C2785 C 0.01389 0.58314 0.77579 0.0
C2786 C 0.00997 0.59265 0.7659 0.0
H2787 H 0.01709 0.58542 0.79141 0.0
H2788 H 0.99732 0.64211 0.70149 0.0
H2789 H 0.00509 0.62471 0.7141 0.0
H2790 H 0.96801 0.60639 0.75397 0.0
H2791 H 0.9602 0.62376 0.74144 0.0
H2792 H 0.98868 0.60101 0.75956 0.0
H2793 H 0.0027 0.60117 0.71967 0.0
H2794 H 0.00183 0.57515 0.72 0.0
H2795 H 0.00844 0.55823 0.73747 0.0
C2796 C 0.37994 0.37132 0.71906 0.0
C2797 C 0.36585 0.36602 0.70962 0.0
C2798 C 0.38905 0.3867 0.72443 0.0
C2799 C 0.38442 0.39731 0.7203 0.0
C2800 C 0.37054 0.39211 0.7103 0.0
C2801 C 0.36138 0.37664 0.70492 0.0
C2802 C 0.39315 0.41348 0.72775 0.0
C2803 C 0.40789 0.42045 0.73278 0.0
C2804 C 0.4164 0.4356 0.74322 0.0
C2805 C 0.42934 0.4388 0.75431 0.0
C2806 C 0.43777 0.45272 0.7646 0.0
C2807 C 0.43365 0.46399 0.76383 0.0
H2808 H 0.40241 0.44491 0.73376 0.0
C2809 C 0.42068 0.46085 0.75272 0.0
C2810 C 0.41212 0.44679 0.74249 0.0
H2811 H 0.4173 0.46936 0.75159 0.0
H2812 H 0.38376 0.36349 0.723 0.0
H2813 H 0.39936 0.38995 0.73265 0.0
H2814 H 0.36662 0.39997 0.70705 0.0
H2815 H 0.35056 0.37295 0.69775 0.0
H2816 H 0.387 0.41948 0.72992 0.0
H2817 H 0.41402 0.41449 0.7302 0.0
H2818 H 0.43287 0.43039 0.75524 0.0
H2819 H 0.44751 0.45459 0.77331 0.0
C2820 C 0.64202 0.00266 0.69845 0.0
C2821 C 0.63912 0.99762 0.67846 0.0
C2822 C 0.63021 -0.00075 0.71114 0.0
C2823 C 0.61522 0.99082 0.70402 0.0
C2824 C 0.61236 0.98525 0.68426 0.0
C2825 C 0.62416 0.98863 0.67159 0.0
C2826 C 0.60226 0.98777 0.71644 0.0
C2827 C 0.60333 0.99613 0.73284 0.0
C2828 C 0.59008 0.99383 0.74401 0.0
C2829 C 0.59193 0.99808 0.76424 0.0
C2830 C 0.57984 0.99663 0.77504 0.0
C2831 C 0.56565 0.99106 0.76575 0.0
H2832 H 0.57416 0.98547 0.71893 0.0
C2833 C 0.56384 0.98693 0.74544 0.0
C2834 C 0.57591 0.98831 0.73467 0.0
H2835 H 0.55316 0.98294 0.73772 0.0
H2836 H 0.65343 0.00942 0.70428 0.0
H2837 H 0.63297 0.00328 0.72644 0.0
H2838 H 0.60094 0.97859 0.67842 0.0
H2839 H 0.62154 0.98447 0.6563 0.0
H2840 H 0.59129 0.97866 0.71127 0.0
H2841 H 0.6142 0.00514 0.73836 0.0
H2842 H 0.60276 0.00249 0.77174 0.0
H2843 H 0.58158 -0.00023 0.79072 0.0
loop_
_geom_bond_atom_site_label_1
_geom_bond_atom_site_label_2
_geom_bond_distance
_geom_bond_site_symmetry_2
_ccdc_geom_bond_type
Mg0 O1 2.028 1_556 S
Mg0 O7 1.986 1_455 S
Mg0 O9 2.114 . S
Mg0 O10 2.251 1_455 S
Mg0 O13 2.010 1_556 S
O1 Mg0 2.028 1_554 S
O1 C4 1.250 1_455 S
O2 Mg3 2.028 1_554 S
O2 C4 1.248 . S
Mg3 O2 2.028 1_556 S
Mg3 O8 2.032 . S
Mg3 O10 2.079 . S
C4 O1 1.250 1_655 S
C4 O2 1.248 . S
C5 O6 1.264 . S
C5 O13 1.249 . S
O6 C5 1.264 . S
O7 Mg0 1.986 1_655 S
O7 C11 1.246 . S
O8 Mg3 2.032 . S
O8 C11 1.259 . S
O9 Mg0 2.114 . S
O9 C12 1.252 . S
O10 Mg0 2.251 1_655 S
O10 Mg3 2.079 . S
O10 C12 1.273 1_655 S
C11 O7 1.246 . S
C11 O8 1.259 . S
C12 O9 1.252 . S
C12 O10 1.273 1_455 S
O13 Mg0 2.010 1_554 S
O13 C5 1.249 . S
Mg14 O15 2.028 1_554 S
Mg14 O21 1.986 . S
Mg14 O23 2.114 . S
Mg14 O24 2.251 . S
Mg14 O27 2.010 . S
O15 Mg14 2.028 1_556 S
O15 C18 1.250 . S
O16 Mg17 2.072 . S
O16 C18 1.219 1_554 S
Mg17 O16 2.072 . S
Mg17 O22 2.032 . S
Mg17 O24 2.079 . S
C18 O15 1.250 . S
C18 O16 1.219 1_556 S
C19 O20 1.285 . S
C19 O27 1.268 . S
O20 C19 1.285 . S
O21 Mg14 1.986 . S
O21 C25 1.246 . S
O22 Mg17 2.032 . S
O22 C25 1.259 . S
O23 Mg14 2.114 . S
O23 C26 1.252 . S
O24 Mg14 2.251 . S
O24 Mg17 2.079 . S
O24 C26 1.273 . S
C25 O21 1.246 . S
C25 O22 1.259 . S
C26 O23 1.252 . S
C26 O24 1.273 . S
O27 Mg14 2.010 . S
O27 C19 1.268 . S
Mg28 O29 2.032 1_566 S
Mg28 O35 1.987 1_565 S
Mg28 O37 2.114 . S
Mg28 O38 2.251 1_565 S
Mg28 O41 2.010 1_556 S
O29 Mg28 2.032 1_544 S
O29 C32 1.258 . S
O30 Mg31 2.028 1_554 S
O30 C32 1.248 . S
Mg31 O30 2.028 1_556 S
Mg31 O36 2.032 . S
Mg31 O38 2.079 . S
C32 O29 1.258 . S
C32 O30 1.248 . S
C33 O34 1.264 . S
C33 O41 1.249 . S
O34 C33 1.264 . S
O35 Mg28 1.987 1_545 S
O35 C39 1.256 . S
O36 Mg31 2.032 . S
O36 C39 1.259 . S
O37 Mg28 2.114 . S
O37 C40 1.252 . S
O38 Mg28 2.251 1_545 S
O38 Mg31 2.079 . S
O38 C40 1.273 1_545 S
C39 O35 1.256 . S
C39 O36 1.259 . S
C40 O37 1.252 . S
C40 O38 1.273 1_565 S
O41 Mg28 2.010 1_554 S
O41 C33 1.249 . S
Mg42 O43 2.028 1_654 S
Mg42 O49 1.986 1_655 S
Mg42 O51 2.114 . S
Mg42 O52 2.251 1_655 S
Mg42 O55 2.010 . S
O43 Mg42 2.028 1_456 S
O43 C46 1.251 . S
O44 Mg45 1.982 1_556 S
O44 C46 1.277 . S
Mg45 O44 1.982 1_554 S
Mg45 O50 2.032 . S
Mg45 O52 2.079 . S
C46 O43 1.251 . S
C46 O44 1.277 . S
C47 O48 1.264 . S
C47 O55 1.249 . S
O48 C47 1.264 . S
O49 Mg42 1.986 1_455 S
O49 C53 1.246 . S
O50 Mg45 2.032 . S
O50 C53 1.259 . S
O51 Mg42 2.114 . S
O51 C54 1.252 . S
O52 Mg42 2.251 1_455 S
O52 Mg45 2.079 . S
O52 C54 1.273 1_455 S
C53 O49 1.246 . S
C53 O50 1.259 . S
C54 O51 1.252 . S
C54 O52 1.273 1_655 S
O55 Mg42 2.010 . S
O55 C47 1.249 . S
Mg56 O57 2.009 1_556 S
Mg56 O63 1.986 . S
Mg56 O65 2.121 . S
Mg56 O66 2.264 . S
Mg56 O69 2.001 1_556 S
O57 Mg56 2.009 1_554 S
O57 C60 1.250 . S
O58 Mg59 2.028 1_554 S
O58 C60 1.248 . S
Mg59 O58 2.028 1_556 S
Mg59 O64 2.032 . S
Mg59 O66 2.079 . S
C60 O57 1.250 . S
C60 O58 1.248 . S
C61 O62 1.264 . S
C61 O69 1.249 . S
O62 C61 1.264 . S
O63 Mg56 1.986 . S
O63 C67 1.246 . S
O64 Mg59 2.032 . S
O64 C67 1.259 . S
O65 Mg56 2.121 . S
O65 C68 1.252 . S
O66 Mg56 2.264 . S
O66 Mg59 2.079 . S
O66 C68 1.273 . S
C67 O63 1.246 . S
C67 O64 1.259 . S
C68 O65 1.252 . S
C68 O66 1.273 . S
O69 Mg56 2.001 1_554 S
O69 C61 1.249 . S
Mg70 O71 2.028 1_554 S
Mg70 O77 1.986 1_545 S
Mg70 O79 2.114 . S
Mg70 O80 2.251 1_545 S
Mg70 O83 2.010 . S
O71 Mg70 2.028 1_556 S
O71 C74 1.250 1_545 S
O72 Mg73 2.074 . S
O72 C74 1.220 1_554 S
Mg73 O72 2.074 . S
Mg73 O78 2.032 . S
Mg73 O80 2.079 . S
C74 O71 1.250 1_565 S
C74 O72 1.220 1_556 S
C75 O76 1.264 . S
C75 O83 1.249 . S
O76 C75 1.264 . S
O77 Mg70 1.986 1_565 S
O77 C81 1.246 . S
O78 Mg73 2.032 . S
O78 C81 1.259 . S
O79 Mg70 2.114 . S
O79 C82 1.252 . S
O80 Mg70 2.251 1_565 S
O80 Mg73 2.079 . S
O80 C82 1.273 1_565 S
C81 O77 1.246 . S
C81 O78 1.259 . S
C82 O79 1.252 . S
C82 O80 1.273 1_545 S
O83 Mg70 2.010 . S
O83 C75 1.249 . S
Mg84 O85 2.028 . S
Mg84 O91 1.986 . S
Mg84 O93 2.114 . S
Mg84 O94 2.251 . S
Mg84 O97 2.010 . S
O85 Mg84 2.028 . S
O85 C88 1.250 . S
O86 Mg87 2.028 . S
O86 C88 1.248 . S
Mg87 O86 2.028 . S
Mg87 O92 2.032 . S
Mg87 O94 2.079 . S
C88 O85 1.250 . S
C88 O86 1.248 . S
C89 O90 1.264 . S
C89 O97 1.249 . S
O90 C89 1.264 . S
O91 Mg84 1.986 . S
O91 C95 1.246 . S
O92 Mg87 2.032 . S
O92 C95 1.259 . S
O93 Mg84 2.114 . S
O93 C96 1.252 . S
O94 Mg84 2.251 . S
O94 Mg87 2.079 . S
O94 C96 1.273 . S
C95 O91 1.246 . S
C95 O92 1.259 . S
C96 O93 1.252 . S
C96 O94 1.273 . S
O97 Mg84 2.010 . S
O97 C89 1.249 . S
Mg98 O99 2.028 . S
Mg98 O105 1.986 1_565 S
Mg98 O107 2.114 . S
Mg98 O108 2.251 . S
Mg98 O111 2.010 . S
O99 Mg98 2.028 . S
O99 C102 1.250 . S
O100 Mg101 2.028 . S
O100 C102 1.248 . S
Mg101 O100 2.028 . S
Mg101 O106 2.032 1_565 S
Mg101 O108 2.079 . S
C102 O99 1.250 . S
C102 O100 1.248 . S
C103 O104 1.264 . S
C103 O111 1.249 . S
O104 C103 1.264 . S
O105 Mg98 1.986 1_545 S
O105 C109 1.246 . S
O106 Mg101 2.032 1_545 S
O106 C109 1.259 . S
O107 Mg98 2.114 . S
O107 C110 1.252 . S
O108 Mg98 2.251 . S
O108 Mg101 2.079 . S
O108 C110 1.273 . S
C109 O105 1.246 . S
C109 O106 1.259 . S
C110 O107 1.252 . S
C110 O108 1.273 . S
O111 Mg98 2.010 . S
O111 C103 1.249 . S
Mg112 O113 2.028 . S
Mg112 O119 1.986 . S
Mg112 O121 2.114 . S
Mg112 O122 2.251 . S
Mg112 O125 2.010 1_455 S
O113 Mg112 2.028 . S
O113 C116 1.250 . S
O114 Mg115 2.028 . S
O114 C116 1.248 . S
Mg115 O114 2.028 . S
Mg115 O120 2.032 . S
Mg115 O122 2.079 . S
C116 O113 1.250 . S
C116 O114 1.248 . S
C117 O118 1.264 . S
C117 O125 1.249 . S
O118 C117 1.264 . S
O119 Mg112 1.986 . S
O119 C123 1.246 . S
O120 Mg115 2.032 . S
O120 C123 1.259 . S
O121 Mg112 2.114 . S
O121 C124 1.252 . S
O122 Mg112 2.251 . S
O122 Mg115 2.079 . S
O122 C124 1.273 . S
C123 O119 1.246 . S
C123 O120 1.259 . S
C124 O121 1.252 . S
C124 O122 1.273 . S
O125 Mg112 2.010 1_655 S
O125 C117 1.249 . S
Mg126 O127 2.028 . S
Mg126 O133 1.986 1_565 S
Mg126 O135 2.114 . S
Mg126 O136 2.251 . S
Mg126 O139 2.010 . S
O127 Mg126 2.028 . S
O127 C130 1.250 . S
O128 Mg129 2.028 . S
O128 C130 1.248 . S
Mg129 O128 2.028 . S
Mg129 O134 2.032 1_565 S
Mg129 O136 2.079 . S
C130 O127 1.250 . S
C130 O128 1.248 . S
C131 O132 1.264 . S
C131 O139 1.249 . S
O132 C131 1.264 . S
O133 Mg126 1.986 1_545 S
O133 C137 1.246 . S
O134 Mg129 2.032 1_545 S
O134 C137 1.259 . S
O135 Mg126 2.114 . S
O135 C138 1.252 . S
O136 Mg126 2.251 . S
O136 Mg129 2.079 . S
O136 C138 1.273 . S
C137 O133 1.246 . S
C137 O134 1.259 . S
C138 O135 1.252 . S
C138 O136 1.273 . S
O139 Mg126 2.010 . S
O139 C131 1.249 . S
Mg140 O141 2.028 . S
Mg140 O147 1.986 . S
Mg140 O149 2.114 . S
Mg140 O150 2.251 . S
Mg140 O153 2.010 1_455 S
O141 Mg140 2.028 . S
O141 C144 1.250 . S
O142 Mg143 2.028 . S
O142 C144 1.248 . S
Mg143 O142 2.028 . S
Mg143 O148 2.032 . S
Mg143 O150 2.079 . S
C144 O141 1.250 . S
C144 O142 1.248 . S
C145 O146 1.264 . S
C145 O153 1.249 . S
O146 C145 1.264 . S
O147 Mg140 1.986 . S
O147 C151 1.246 . S
O148 Mg143 2.032 . S
O148 C151 1.259 . S
O149 Mg140 2.114 . S
O149 C152 1.252 . S
O150 Mg140 2.251 . S
O150 Mg143 2.079 . S
O150 C152 1.273 . S
C151 O147 1.246 . S
C151 O148 1.259 . S
C152 O149 1.252 . S
C152 O150 1.273 . S
O153 Mg140 2.010 1_655 S
O153 C145 1.249 . S
Mg154 O155 2.028 . S
Mg154 O161 1.986 . S
Mg154 O163 2.114 . S
Mg154 O164 2.251 . S
Mg154 O167 2.010 . S
O155 Mg154 2.028 . S
O155 C158 1.250 . S
O156 Mg157 2.028 . S
O156 C158 1.248 . S
Mg157 O156 2.028 . S
Mg157 O162 2.032 . S
Mg157 O164 2.079 . S
C158 O155 1.250 . S
C158 O156 1.248 . S
C159 O160 1.264 . S
C159 O167 1.249 . S
O160 C159 1.264 . S
O161 Mg154 1.986 . S
O161 C165 1.246 . S
O162 Mg157 2.032 . S
O162 C165 1.259 . S
O163 Mg154 2.114 . S
O163 C166 1.252 . S
O164 Mg154 2.251 . S
O164 Mg157 2.079 . S
O164 C166 1.273 . S
C165 O161 1.246 . S
C165 O162 1.259 . S
C166 O163 1.252 . S
C166 O164 1.273 . S
O167 Mg154 2.010 . S
O167 C159 1.249 . S
Mg168 O169 2.028 . S
Mg168 O175 1.986 1_545 S
Mg168 O177 2.114 . S
Mg168 O178 2.251 . S
Mg168 O181 2.010 . S
O169 Mg168 2.028 . S
O169 C172 1.250 . S
O170 Mg171 2.028 . S
O170 C172 1.248 . S
Mg171 O170 2.028 . S
Mg171 O176 2.066 . S
Mg171 O178 2.079 . S
C172 O169 1.250 . S
C172 O170 1.248 . S
C173 O174 1.264 . S
C173 O181 1.249 . S
O174 C173 1.264 . S
O175 Mg168 1.986 1_565 S
O175 C179 1.246 . S
O176 Mg171 2.066 . S
O176 C179 1.229 1_545 S
O177 Mg168 2.114 . S
O177 C180 1.252 . S
O178 Mg168 2.251 . S
O178 Mg171 2.079 . S
O178 C180 1.273 . S
C179 O175 1.246 . S
C179 O176 1.229 1_565 S
C180 O177 1.252 . S
C180 O178 1.273 . S
O181 Mg168 2.010 . S
O181 C173 1.249 . S
Mg182 O183 2.028 . S
Mg182 O189 1.986 . S
Mg182 O191 2.114 . S
Mg182 O192 2.251 . S
Mg182 O195 2.010 1_655 S
O183 Mg182 2.028 . S
O183 C186 1.250 . S
O184 Mg185 2.028 . S
O184 C186 1.248 . S
Mg185 O184 2.028 . S
Mg185 O190 2.032 . S
Mg185 O192 2.079 . S
C186 O183 1.250 . S
C186 O184 1.248 . S
C187 O188 1.264 . S
C187 O195 1.249 . S
O188 C187 1.264 . S
O189 Mg182 1.986 . S
O189 C193 1.246 . S
O190 Mg185 2.032 . S
O190 C193 1.259 . S
O191 Mg182 2.114 . S
O191 C194 1.252 . S
O192 Mg182 2.251 . S
O192 Mg185 2.079 . S
O192 C194 1.273 . S
C193 O189 1.246 . S
C193 O190 1.259 . S
C194 O191 1.252 . S
C194 O192 1.273 . S
O195 Mg182 2.010 1_455 S
O195 C187 1.249 . S
Mg196 O197 2.028 . S
Mg196 O203 1.986 . S
Mg196 O205 2.114 . S
Mg196 O206 2.251 . S
Mg196 O209 2.010 . S
O197 Mg196 2.028 . S
O197 C200 1.250 . S
O198 Mg199 2.028 . S
O198 C200 1.248 . S
Mg199 O198 2.028 . S
Mg199 O204 2.032 . S
Mg199 O206 2.079 . S
C200 O197 1.250 . S
C200 O198 1.248 . S
C201 O202 1.264 . S
C201 O209 1.249 . S
O202 C201 1.264 . S
O203 Mg196 1.986 . S
O203 C207 1.246 . S
O204 Mg199 2.032 . S
O204 C207 1.259 . S
O205 Mg196 2.114 . S
O205 C208 1.252 . S
O206 Mg196 2.251 . S
O206 Mg199 2.079 . S
O206 C208 1.273 . S
C207 O203 1.246 . S
C207 O204 1.259 . S
C208 O205 1.252 . S
C208 O206 1.273 . S
O209 Mg196 2.010 . S
O209 C201 1.249 . S
Mg210 O211 2.028 . S
Mg210 O217 1.986 . S
Mg210 O219 2.114 . S
Mg210 O220 2.251 . S
Mg210 O223 2.010 . S
O211 Mg210 2.028 . S
O211 C214 1.250 . S
O212 Mg213 2.028 . S
O212 C214 1.248 . S
Mg213 O212 2.028 . S
Mg213 O218 2.032 . S
Mg213 O220 2.079 . S
C214 O211 1.250 . S
C214 O212 1.248 . S
C215 O216 1.264 . S
C215 O223 1.249 . S
O216 C215 1.264 . S
O217 Mg210 1.986 . S
O217 C221 1.246 . S
O218 Mg213 2.032 . S
O218 C221 1.259 . S
O219 Mg210 2.114 . S
O219 C222 1.252 . S
O220 Mg210 2.251 . S
O220 Mg213 2.079 . S
O220 C222 1.273 . S
C221 O217 1.246 . S
C221 O218 1.259 . S
C222 O219 1.252 . S
C222 O220 1.273 . S
O223 Mg210 2.010 . S
O223 C215 1.249 . S
Mg224 O225 2.028 . S
Mg224 O231 1.986 1_545 S
Mg224 O233 2.114 . S
Mg224 O234 2.251 . S
Mg224 O237 2.010 . S
O225 Mg224 2.028 . S
O225 C228 1.250 . S
O226 Mg227 2.028 . S
O226 C228 1.248 . S
Mg227 O226 2.028 . S
Mg227 O232 2.032 1_545 S
Mg227 O234 2.079 . S
C228 O225 1.250 . S
C228 O226 1.248 . S
C229 O230 1.264 . S
C229 O237 1.249 . S
O230 C229 1.264 . S
O231 Mg224 1.986 1_565 S
O231 C235 1.246 . S
O232 Mg227 2.032 1_565 S
O232 C235 1.259 . S
O233 Mg224 2.114 . S
O233 C236 1.252 . S
O234 Mg224 2.251 . S
O234 Mg227 2.079 . S
O234 C236 1.273 . S
C235 O231 1.246 . S
C235 O232 1.259 . S
C236 O233 1.252 . S
C236 O234 1.273 . S
O237 Mg224 2.010 . S
O237 C229 1.249 . S
Mg238 O239 2.028 . S
Mg238 O245 1.986 . S
Mg238 O247 2.114 . S
Mg238 O248 2.251 . S
Mg238 O251 2.010 1_655 S
O239 Mg238 2.028 . S
O239 C242 1.250 . S
O240 Mg241 2.028 . S
O240 C242 1.248 . S
Mg241 O240 2.028 . S
Mg241 O246 2.032 . S
Mg241 O248 2.079 . S
C242 O239 1.250 . S
C242 O240 1.248 . S
C243 O244 1.264 . S
C243 O251 1.249 . S
O244 C243 1.264 . S
O245 Mg238 1.986 . S
O245 C249 1.246 . S
O246 Mg241 2.032 . S
O246 C249 1.259 . S
O247 Mg238 2.114 . S
O247 C250 1.252 . S
O248 Mg238 2.251 . S
O248 Mg241 2.079 . S
O248 C250 1.273 . S
C249 O245 1.246 . S
C249 O246 1.259 . S
C250 O247 1.252 . S
C250 O248 1.273 . S
O251 Mg238 2.010 1_455 S
O251 C243 1.249 . S
H252 C271 0.949 . S
H253 C272 0.950 . S
H254 C274 0.950 . S
H255 C275 0.950 . S
H256 C277 0.950 . S
H257 C280 0.950 . S
H258 C281 0.950 . S
H259 C283 0.951 . S
H260 C284 0.949 . S
H261 C286 0.949 . S
H262 C287 0.950 . S
H263 C289 0.950 . S
H264 C290 0.950 . S
H265 C292 0.950 . S
H266 C295 0.950 . S
H267 C296 0.950 . S
H268 C298 0.951 . S
H269 C299 0.949 . S
C270 C271 1.376 . S
C270 C275 1.386 . S
C270 C276 1.483 . S
C271 H252 0.949 . S
C271 C270 1.376 . S
C271 C272 1.397 . S
C272 H253 0.950 . S
C272 C271 1.397 . S
C272 C273 1.391 . S
C273 C272 1.391 . S
C273 C274 1.405 . S
C274 H254 0.950 . S
C274 C273 1.405 . S
C274 C275 1.367 . S
C275 H255 0.950 . S
C275 C270 1.386 . S
C275 C274 1.367 . S
C276 C270 1.483 . S
C276 C277 1.382 . S
C276 C278 1.403 . S
C277 H256 0.950 . S
C277 C276 1.382 . S
C277 C293 1.411 . S
C278 C276 1.403 . S
C278 C279 1.489 . S
C278 C292 1.411 . S
C279 C278 1.489 . S
C279 C280 1.383 . S
C279 C284 1.382 . S
C280 H257 0.950 . S
C280 C279 1.383 . S
C280 C281 1.395 . S
C281 H258 0.950 . S
C281 C280 1.395 . S
C281 C282 1.288 . S
C282 C281 1.288 . S
C282 C283 1.392 . S
C283 H259 0.951 . S
C283 C282 1.392 . S
C283 C284 1.392 . S
C284 H260 0.949 . S
C284 C279 1.382 . S
C284 C283 1.392 . S
C285 C286 1.376 . S
C285 C290 1.386 . S
C285 C291 1.483 . S
C286 H261 0.949 . S
C286 C285 1.376 . S
C286 C287 1.397 . S
C287 H262 0.950 . S
C287 C286 1.397 . S
C287 C288 1.391 . S
C288 C287 1.391 . S
C288 C289 1.405 . S
C289 H263 0.950 . S
C289 C288 1.405 . S
C289 C290 1.367 . S
C290 H264 0.950 . S
C290 C285 1.386 . S
C290 C289 1.367 . S
C291 C285 1.483 . S
C291 C292 1.382 . S
C291 C293 1.403 . S
C292 H265 0.950 . S
C292 C278 1.411 . S
C292 C291 1.382 . S
C293 C277 1.411 . S
C293 C291 1.403 . S
C293 C294 1.489 . S
C294 C293 1.489 . S
C294 C295 1.383 . S
C294 C299 1.382 . S
C295 H266 0.950 . S
C295 C294 1.383 . S
C295 C296 1.395 . S
C296 H267 0.950 . S
C296 C295 1.395 . S
C296 C297 1.288 . S
C297 C296 1.288 . S
C297 C298 1.392 . S
C298 H268 0.951 . S
C298 C297 1.392 . S
C298 C299 1.392 . S
C299 H269 0.949 . S
C299 C294 1.382 . S
C299 C298 1.392 . S
H300 C319 0.949 . S
H301 C320 0.950 . S
H302 C322 0.950 . S
H303 C323 0.950 . S
H304 C325 0.950 . S
H305 C328 0.950 . S
H306 C329 0.950 . S
H307 C331 0.951 . S
H308 C332 0.949 . S
H309 C334 0.949 . S
H310 C335 0.950 . S
H311 C337 0.950 . S
H312 C338 0.950 . S
H313 C340 0.950 . S
H314 C343 0.950 . S
H315 C344 0.950 . S
H316 C346 0.951 . S
H317 C347 0.949 . S
C318 C319 1.376 . S
C318 C323 1.386 . S
C318 C324 1.483 . S
C319 H300 0.949 . S
C319 C318 1.376 . S
C319 C320 1.397 . S
C320 H301 0.950 . S
C320 C319 1.397 . S
C320 C321 1.391 . S
C321 C320 1.391 . S
C321 C322 1.405 . S
C322 H302 0.950 . S
C322 C321 1.405 . S
C322 C323 1.367 . S
C323 H303 0.950 . S
C323 C318 1.386 . S
C323 C322 1.367 . S
C324 C318 1.483 . S
C324 C325 1.382 . S
C324 C326 1.403 . S
C325 H304 0.950 . S
C325 C324 1.382 . S
C325 C341 1.411 . S
C326 C324 1.403 . S
C326 C327 1.489 . S
C326 C340 1.411 . S
C327 C326 1.489 . S
C327 C328 1.383 . S
C327 C332 1.382 . S
C328 H305 0.950 . S
C328 C327 1.383 . S
C328 C329 1.395 . S
C329 H306 0.950 . S
C329 C328 1.395 . S
C329 C330 1.288 . S
C330 C329 1.288 . S
C330 C331 1.392 . S
C331 H307 0.951 . S
C331 C330 1.392 . S
C331 C332 1.392 . S
C332 H308 0.949 . S
C332 C327 1.382 . S
C332 C331 1.392 . S
C333 C334 1.376 . S
C333 C338 1.386 . S
C333 C339 1.483 . S
C334 H309 0.949 . S
C334 C333 1.376 . S
C334 C335 1.397 . S
C335 H310 0.950 . S
C335 C334 1.397 . S
C335 C336 1.391 . S
C336 C335 1.391 . S
C336 C337 1.405 . S
C337 H311 0.950 . S
C337 C336 1.405 . S
C337 C338 1.367 . S
C338 H312 0.950 . S
C338 C333 1.386 . S
C338 C337 1.367 . S
C339 C333 1.483 . S
C339 C340 1.382 . S
C339 C341 1.403 . S
C340 H313 0.950 . S
C340 C326 1.411 . S
C340 C339 1.382 . S
C341 C325 1.411 . S
C341 C339 1.403 . S
C341 C342 1.489 . S
C342 C341 1.489 . S
C342 C343 1.383 . S
C342 C347 1.382 . S
C343 H314 0.950 . S
C343 C342 1.383 . S
C343 C344 1.395 . S
C344 H315 0.950 . S
C344 C343 1.395 . S
C344 C345 1.288 . S
C345 C344 1.288 . S
C345 C346 1.392 . S
C346 H316 0.951 . S
C346 C345 1.392 . S
C346 C347 1.392 . S
C347 H317 0.949 . S
C347 C342 1.382 . S
C347 C346 1.392 . S
H348 C367 0.949 . S
H349 C368 0.950 . S
H350 C370 0.950 . S
H351 C371 0.950 . S
H352 C373 0.950 . S
H353 C376 0.950 . S
H354 C377 0.950 . S
H355 C379 0.951 . S
H356 C380 0.949 . S
H357 C382 0.949 . S
H358 C383 0.950 . S
H359 C385 0.950 . S
H360 C386 0.950 . S
H361 C388 0.950 . S
H362 C391 0.950 . S
H363 C392 0.950 . S
H364 C394 0.951 . S
H365 C395 0.949 . S
C366 C367 1.376 . S
C366 C371 1.386 . S
C366 C372 1.483 . S
C367 H348 0.949 . S
C367 C366 1.376 . S
C367 C368 1.397 . S
C368 H349 0.950 . S
C368 C367 1.397 . S
C368 C369 1.391 . S
C369 C368 1.391 . S
C369 C370 1.405 . S
C370 H350 0.950 . S
C370 C369 1.405 . S
C370 C371 1.367 . S
C371 H351 0.950 . S
C371 C366 1.386 . S
C371 C370 1.367 . S
C372 C366 1.483 . S
C372 C373 1.382 . S
C372 C374 1.403 . S
C373 H352 0.950 . S
C373 C372 1.382 . S
C373 C389 1.411 . S
C374 C372 1.403 . S
C374 C375 1.489 . S
C374 C388 1.411 . S
C375 C374 1.489 . S
C375 C376 1.383 . S
C375 C380 1.382 . S
C376 H353 0.950 . S
C376 C375 1.383 . S
C376 C377 1.395 . S
C377 H354 0.950 . S
C377 C376 1.395 . S
C377 C378 1.288 . S
C378 C377 1.288 . S
C378 C379 1.392 . S
C379 H355 0.951 . S
C379 C378 1.392 . S
C379 C380 1.392 . S
C380 H356 0.949 . S
C380 C375 1.382 . S
C380 C379 1.392 . S
C381 C382 1.376 . S
C381 C386 1.386 . S
C381 C387 1.483 . S
C382 H357 0.949 . S
C382 C381 1.376 . S
C382 C383 1.397 . S
C383 H358 0.950 . S
C383 C382 1.397 . S
C383 C384 1.391 . S
C384 C383 1.391 . S
C384 C385 1.405 . S
C385 H359 0.950 . S
C385 C384 1.405 . S
C385 C386 1.367 . S
C386 H360 0.950 . S
C386 C381 1.386 . S
C386 C385 1.367 . S
C387 C381 1.483 . S
C387 C388 1.382 . S
C387 C389 1.403 . S
C388 H361 0.950 . S
C388 C374 1.411 . S
C388 C387 1.382 . S
C389 C373 1.411 . S
C389 C387 1.403 . S
C389 C390 1.489 . S
C390 C389 1.489 . S
C390 C391 1.383 . S
C390 C395 1.382 . S
C391 H362 0.950 . S
C391 C390 1.383 . S
C391 C392 1.395 . S
C392 H363 0.950 . S
C392 C391 1.395 . S
C392 C393 1.288 . S
C393 C392 1.288 . S
C393 C394 1.392 . S
C394 H364 0.951 . S
C394 C393 1.392 . S
C394 C395 1.392 . S
C395 H365 0.949 . S
C395 C390 1.382 . S
C395 C394 1.392 . S
H396 C415 0.949 . S
H397 C416 0.950 . S
H398 C418 0.950 . S
H399 C419 0.950 . S
H400 C421 0.950 . S
H401 C424 0.950 . S
H402 C425 0.950 . S
H403 C427 0.951 . S
H404 C428 0.949 . S
H405 C430 0.949 . S
H406 C431 0.950 . S
H407 C433 0.950 . S
H408 C434 0.950 . S
H409 C436 0.950 . S
H410 C439 0.950 . S
H411 C440 0.950 . S
H412 C442 0.951 . S
H413 C443 0.949 . S
C414 C415 1.376 . S
C414 C419 1.386 . S
C414 C420 1.483 . S
C415 H396 0.949 . S
C415 C414 1.376 . S
C415 C416 1.397 . S
C416 H397 0.950 . S
C416 C415 1.397 . S
C416 C417 1.391 . S
C417 C416 1.391 . S
C417 C418 1.405 . S
C418 H398 0.950 . S
C418 C417 1.405 . S
C418 C419 1.367 . S
C419 H399 0.950 . S
C419 C414 1.386 . S
C419 C418 1.367 . S
C420 C414 1.483 . S
C420 C421 1.382 . S
C420 C422 1.403 . S
C421 H400 0.950 . S
C421 C420 1.382 . S
C421 C437 1.411 . S
C422 C420 1.403 . S
C422 C423 1.489 . S
C422 C436 1.411 . S
C423 C422 1.489 . S
C423 C424 1.383 . S
C423 C428 1.382 . S
C424 H401 0.950 . S
C424 C423 1.383 . S
C424 C425 1.395 . S
C425 H402 0.950 . S
C425 C424 1.395 . S
C425 C426 1.288 . S
C426 C425 1.288 . S
C426 C427 1.392 . S
C427 H403 0.951 . S
C427 C426 1.392 . S
C427 C428 1.392 . S
C428 H404 0.949 . S
C428 C423 1.382 . S
C428 C427 1.392 . S
C429 C430 1.376 . S
C429 C434 1.386 . S
C429 C435 1.483 . S
C430 H405 0.949 . S
C430 C429 1.376 . S
C430 C431 1.397 . S
C431 H406 0.950 . S
C431 C430 1.397 . S
C431 C432 1.391 . S
C432 C431 1.391 . S
C432 C433 1.405 . S
C433 H407 0.950 . S
C433 C432 1.405 . S
C433 C434 1.367 . S
C434 H408 0.950 . S
C434 C429 1.386 . S
C434 C433 1.367 . S
C435 C429 1.483 . S
C435 C436 1.382 . S
C435 C437 1.403 . S
C436 H409 0.950 . S
C436 C422 1.411 . S
C436 C435 1.382 . S
C437 C421 1.411 . S
C437 C435 1.403 . S
C437 C438 1.489 . S
C438 C437 1.489 . S
C438 C439 1.383 . S
C438 C443 1.382 . S
C439 H410 0.950 . S
C439 C438 1.383 . S
C439 C440 1.395 . S
C440 H411 0.950 . S
C440 C439 1.395 . S
C440 C441 1.288 . S
C441 C440 1.288 . S
C441 C442 1.392 . S
C442 H412 0.951 . S
C442 C441 1.392 . S
C442 C443 1.392 . S
C443 H413 0.949 . S
C443 C438 1.382 . S
C443 C442 1.392 . S
H444 C463 0.949 . S
H445 C464 0.950 . S
H446 C466 0.950 . S
H447 C467 0.950 . S
H448 C469 0.950 . S
H449 C472 0.950 . S
H450 C473 0.950 . S
H451 C475 0.951 . S
H452 C476 0.949 . S
H453 C478 0.949 . S
H454 C479 0.950 . S
H455 C481 0.950 . S
H456 C482 0.950 . S
H457 C484 0.950 . S
H458 C487 0.950 . S
H459 C488 0.950 . S
H460 C490 0.951 . S
H461 C491 0.949 . S
C462 C463 1.376 . S
C462 C467 1.386 . S
C462 C468 1.483 . S
C463 H444 0.949 . S
C463 C462 1.376 . S
C463 C464 1.397 . S
C464 H445 0.950 . S
C464 C463 1.397 . S
C464 C465 1.391 . S
C465 C464 1.391 . S
C465 C466 1.405 . S
C466 H446 0.950 . S
C466 C465 1.405 . S
C466 C467 1.367 . S
C467 H447 0.950 . S
C467 C462 1.386 . S
C467 C466 1.367 . S
C468 C462 1.483 . S
C468 C469 1.382 . S
C468 C470 1.403 . S
C469 H448 0.950 . S
C469 C468 1.382 . S
C469 C485 1.411 . S
C470 C468 1.403 . S
C470 C471 1.489 . S
C470 C484 1.411 . S
C471 C470 1.489 . S
C471 C472 1.383 . S
C471 C476 1.382 . S
C472 H449 0.950 . S
C472 C471 1.383 . S
C472 C473 1.395 . S
C473 H450 0.950 . S
C473 C472 1.395 . S
C473 C474 1.288 . S
C474 C473 1.288 . S
C474 C475 1.392 . S
C475 H451 0.951 . S
C475 C474 1.392 . S
C475 C476 1.392 . S
C476 H452 0.949 . S
C476 C471 1.382 . S
C476 C475 1.392 . S
C477 C478 1.376 . S
C477 C482 1.386 . S
C477 C483 1.483 . S
C478 H453 0.949 . S
C478 C477 1.376 . S
C478 C479 1.397 . S
C479 H454 0.950 . S
C479 C478 1.397 . S
C479 C480 1.391 . S
C480 C479 1.391 . S
C480 C481 1.405 . S
C481 H455 0.950 . S
C481 C480 1.405 . S
C481 C482 1.367 . S
C482 H456 0.950 . S
C482 C477 1.386 . S
C482 C481 1.367 . S
C483 C477 1.483 . S
C483 C484 1.382 . S
C483 C485 1.403 . S
C484 H457 0.950 . S
C484 C470 1.411 . S
C484 C483 1.382 . S
C485 C469 1.411 . S
C485 C483 1.403 . S
C485 C486 1.489 . S
C486 C485 1.489 . S
C486 C487 1.383 . S
C486 C491 1.382 . S
C487 H458 0.950 . S
C487 C486 1.383 . S
C487 C488 1.395 . S
C488 H459 0.950 . S
C488 C487 1.395 . S
C488 C489 1.288 . S
C489 C488 1.288 . S
C489 C490 1.392 . S
C490 H460 0.951 . S
C490 C489 1.392 . S
C490 C491 1.392 . S
C491 H461 0.949 . S
C491 C486 1.382 . S
C491 C490 1.392 . S
H492 C511 0.949 . S
H493 C512 0.950 . S
H494 C514 0.950 . S
H495 C515 0.950 . S
H496 C517 0.950 . S
H497 C520 0.950 . S
H498 C521 0.950 . S
H499 C523 0.951 . S
H500 C524 0.949 . S
H501 C526 0.949 . S
H502 C527 0.950 . S
H503 C529 0.950 . S
H504 C530 0.950 . S
H505 C532 0.950 . S
H506 C535 0.950 . S
H507 C536 0.950 . S
H508 C538 0.951 . S
H509 C539 0.949 . S
C510 C511 1.376 . S
C510 C515 1.386 . S
C510 C516 1.483 . S
C511 H492 0.949 . S
C511 C510 1.376 . S
C511 C512 1.397 . S
C512 H493 0.950 . S
C512 C511 1.397 . S
C512 C513 1.391 . S
C513 C512 1.391 . S
C513 C514 1.405 . S
C514 H494 0.950 . S
C514 C513 1.405 . S
C514 C515 1.367 . S
C515 H495 0.950 . S
C515 C510 1.386 . S
C515 C514 1.367 . S
C516 C510 1.483 . S
C516 C517 1.382 . S
C516 C518 1.403 . S
C517 H496 0.950 . S
C517 C516 1.382 . S
C517 C533 1.411 . S
C518 C516 1.403 . S
C518 C519 1.489 . S
C518 C532 1.411 . S
C519 C518 1.489 . S
C519 C520 1.383 . S
C519 C524 1.382 . S
C520 H497 0.950 . S
C520 C519 1.383 . S
C520 C521 1.395 . S
C521 H498 0.950 . S
C521 C520 1.395 . S
C521 C522 1.288 . S
C522 C521 1.288 . S
C522 C523 1.392 . S
C523 H499 0.951 . S
C523 C522 1.392 . S
C523 C524 1.392 . S
C524 H500 0.949 . S
C524 C519 1.382 . S
C524 C523 1.392 . S
C525 C526 1.376 . S
C525 C530 1.386 . S
C525 C531 1.483 . S
C526 H501 0.949 . S
C526 C525 1.376 . S
C526 C527 1.397 . S
C527 H502 0.950 . S
C527 C526 1.397 . S
C527 C528 1.391 . S
C528 C527 1.391 . S
C528 C529 1.405 . S
C529 H503 0.950 . S
C529 C528 1.405 . S
C529 C530 1.367 . S
C530 H504 0.950 . S
C530 C525 1.386 . S
C530 C529 1.367 . S
C531 C525 1.483 . S
C531 C532 1.382 . S
C531 C533 1.403 . S
C532 H505 0.950 . S
C532 C518 1.411 . S
C532 C531 1.382 . S
C533 C517 1.411 . S
C533 C531 1.403 . S
C533 C534 1.489 . S
C534 C533 1.489 . S
C534 C535 1.383 . S
C534 C539 1.382 . S
C535 H506 0.950 . S
C535 C534 1.383 . S
C535 C536 1.395 . S
C536 H507 0.950 . S
C536 C535 1.395 . S
C536 C537 1.288 . S
C537 C536 1.288 . S
C537 C538 1.392 . S
C538 H508 0.951 . S
C538 C537 1.392 . S
C538 C539 1.392 . S
C539 H509 0.949 . S
C539 C534 1.382 . S
C539 C538 1.392 . S
H540 C559 0.949 . S
H541 C560 0.950 . S
H542 C562 0.950 . S
H543 C563 0.950 . S
H544 C565 0.950 . S
H545 C568 0.950 . S
H546 C569 0.950 . S
H547 C571 0.951 . S
H548 C572 0.949 . S
H549 C574 0.949 . S
H550 C575 0.950 . S
H551 C577 0.950 . S
H552 C578 0.950 . S
H553 C580 0.950 . S
H554 C583 0.950 . S
H555 C584 0.950 . S
H556 C586 0.951 . S
H557 C587 0.949 . S
C558 C559 1.376 . S
C558 C563 1.386 . S
C558 C564 1.483 . S
C559 H540 0.949 . S
C559 C558 1.376 . S
C559 C560 1.397 . S
C560 H541 0.950 . S
C560 C559 1.397 . S
C560 C561 1.391 . S
C561 C560 1.391 . S
C561 C562 1.405 . S
C562 H542 0.950 . S
C562 C561 1.405 . S
C562 C563 1.367 . S
C563 H543 0.950 . S
C563 C558 1.386 . S
C563 C562 1.367 . S
C564 C558 1.483 . S
C564 C565 1.382 . S
C564 C566 1.403 . S
C565 H544 0.950 . S
C565 C564 1.382 . S
C565 C581 1.411 . S
C566 C564 1.403 . S
C566 C567 1.489 . S
C566 C580 1.411 . S
C567 C566 1.489 . S
C567 C568 1.383 . S
C567 C572 1.382 . S
C568 H545 0.950 . S
C568 C567 1.383 . S
C568 C569 1.395 . S
C569 H546 0.950 . S
C569 C568 1.395 . S
C569 C570 1.288 . S
C570 C569 1.288 . S
C570 C571 1.392 . S
C571 H547 0.951 . S
C571 C570 1.392 . S
C571 C572 1.392 . S
C572 H548 0.949 . S
C572 C567 1.382 . S
C572 C571 1.392 . S
C573 C574 1.376 . S
C573 C578 1.386 . S
C573 C579 1.483 . S
C574 H549 0.949 . S
C574 C573 1.376 . S
C574 C575 1.397 . S
C575 H550 0.950 . S
C575 C574 1.397 . S
C575 C576 1.391 . S
C576 C575 1.391 . S
C576 C577 1.405 . S
C577 H551 0.950 . S
C577 C576 1.405 . S
C577 C578 1.367 . S
C578 H552 0.950 . S
C578 C573 1.386 . S
C578 C577 1.367 . S
C579 C573 1.483 . S
C579 C580 1.382 . S
C579 C581 1.403 . S
C580 H553 0.950 . S
C580 C566 1.411 . S
C580 C579 1.382 . S
C581 C565 1.411 . S
C581 C579 1.403 . S
C581 C582 1.489 . S
C582 C581 1.489 . S
C582 C583 1.383 . S
C582 C587 1.382 . S
C583 H554 0.950 . S
C583 C582 1.383 . S
C583 C584 1.395 . S
C584 H555 0.950 . S
C584 C583 1.395 . S
C584 C585 1.288 . S
C585 C584 1.288 . S
C585 C586 1.392 . S
C586 H556 0.951 . S
C586 C585 1.392 . S
C586 C587 1.392 . S
C587 H557 0.949 . S
C587 C582 1.382 . S
C587 C586 1.392 . S
H588 C607 0.949 . S
H589 C608 0.950 . S
H590 C610 0.950 . S
H591 C611 0.950 . S
H592 C613 0.950 . S
H593 C616 0.950 . S
H594 C617 0.950 . S
H595 C619 0.951 . S
H596 C620 0.949 . S
H597 C622 0.949 . S
H598 C623 0.950 . S
H599 C625 0.950 . S
H600 C626 0.950 . S
H601 C628 0.950 . S
H602 C631 0.950 . S
H603 C632 0.950 . S
H604 C634 0.951 . S
H605 C635 0.949 . S
C606 C607 1.376 . S
C606 C611 1.386 . S
C606 C612 1.483 . S
C607 H588 0.949 . S
C607 C606 1.376 . S
C607 C608 1.397 . S
C608 H589 0.950 . S
C608 C607 1.397 . S
C608 C609 1.391 . S
C609 C608 1.391 . S
C609 C610 1.405 . S
C610 H590 0.950 . S
C610 C609 1.405 . S
C610 C611 1.367 . S
C611 H591 0.950 . S
C611 C606 1.386 . S
C611 C610 1.367 . S
C612 C606 1.483 . S
C612 C613 1.382 . S
C612 C614 1.403 . S
C613 H592 0.950 . S
C613 C612 1.382 . S
C613 C629 1.411 . S
C614 C612 1.403 . S
C614 C615 1.489 . S
C614 C628 1.411 . S
C615 C614 1.489 . S
C615 C616 1.383 . S
C615 C620 1.382 . S
C616 H593 0.950 . S
C616 C615 1.383 . S
C616 C617 1.395 . S
C617 H594 0.950 . S
C617 C616 1.395 . S
C617 C618 1.288 . S
C618 C617 1.288 . S
C618 C619 1.392 . S
C619 H595 0.951 . S
C619 C618 1.392 . S
C619 C620 1.392 . S
C620 H596 0.949 . S
C620 C615 1.382 . S
C620 C619 1.392 . S
C621 C622 1.376 . S
C621 C626 1.386 . S
C621 C627 1.483 . S
C622 H597 0.949 . S
C622 C621 1.376 . S
C622 C623 1.397 . S
C623 H598 0.950 . S
C623 C622 1.397 . S
C623 C624 1.391 . S
C624 C623 1.391 . S
C624 C625 1.405 . S
C625 H599 0.950 . S
C625 C624 1.405 . S
C625 C626 1.367 . S
C626 H600 0.950 . S
C626 C621 1.386 . S
C626 C625 1.367 . S
C627 C621 1.483 . S
C627 C628 1.382 . S
C627 C629 1.403 . S
C628 H601 0.950 . S
C628 C614 1.411 . S
C628 C627 1.382 . S
C629 C613 1.411 . S
C629 C627 1.403 . S
C629 C630 1.489 . S
C630 C629 1.489 . S
C630 C631 1.383 . S
C630 C635 1.382 . S
C631 H602 0.950 . S
C631 C630 1.383 . S
C631 C632 1.395 . S
C632 H603 0.950 . S
C632 C631 1.395 . S
C632 C633 1.288 . S
C633 C632 1.288 . S
C633 C634 1.392 . S
C634 H604 0.951 . S
C634 C633 1.392 . S
C634 C635 1.392 . S
C635 H605 0.949 . S
C635 C630 1.382 . S
C635 C634 1.392 . S
H636 C655 0.949 . S
H637 C656 0.950 . S
H638 C658 0.950 . S
H639 C659 0.950 . S
H640 C661 0.950 . S
H641 C664 0.950 . S
H642 C665 0.950 . S
H643 C667 0.951 . S
H644 C668 0.949 . S
H645 C670 0.949 . S
H646 C671 0.950 . S
H647 C673 0.950 . S
H648 C674 0.950 . S
H649 C676 0.950 . S
H650 C679 0.950 . S
H651 C680 0.950 . S
H652 C682 0.951 . S
H653 C683 0.949 . S
C654 C655 1.376 . S
C654 C659 1.386 . S
C654 C660 1.483 . S
C655 H636 0.949 . S
C655 C654 1.376 . S
C655 C656 1.397 . S
C656 H637 0.950 . S
C656 C655 1.397 . S
C656 C657 1.391 . S
C657 C656 1.391 . S
C657 C658 1.405 . S
C658 H638 0.950 . S
C658 C657 1.405 . S
C658 C659 1.367 . S
C659 H639 0.950 . S
C659 C654 1.386 . S
C659 C658 1.367 . S
C660 C654 1.483 . S
C660 C661 1.382 . S
C660 C662 1.403 . S
C661 H640 0.950 . S
C661 C660 1.382 . S
C661 C677 1.411 . S
C662 C660 1.403 . S
C662 C663 1.489 . S
C662 C676 1.411 . S
C663 C662 1.489 . S
C663 C664 1.383 . S
C663 C668 1.382 . S
C664 H641 0.950 . S
C664 C663 1.383 . S
C664 C665 1.395 . S
C665 H642 0.950 . S
C665 C664 1.395 . S
C665 C666 1.288 . S
C666 C665 1.288 . S
C666 C667 1.392 . S
C667 H643 0.951 . S
C667 C666 1.392 . S
C667 C668 1.392 . S
C668 H644 0.949 . S
C668 C663 1.382 . S
C668 C667 1.392 . S
C669 C670 1.376 . S
C669 C674 1.386 . S
C669 C675 1.483 . S
C670 H645 0.949 . S
C670 C669 1.376 . S
C670 C671 1.397 . S
C671 H646 0.950 . S
C671 C670 1.397 . S
C671 C672 1.391 . S
C672 C671 1.391 . S
C672 C673 1.405 . S
C673 H647 0.950 . S
C673 C672 1.405 . S
C673 C674 1.367 . S
C674 H648 0.950 . S
C674 C669 1.386 . S
C674 C673 1.367 . S
C675 C669 1.483 . S
C675 C676 1.382 . S
C675 C677 1.403 . S
C676 H649 0.950 . S
C676 C662 1.411 . S
C676 C675 1.382 . S
C677 C661 1.411 . S
C677 C675 1.403 . S
C677 C678 1.489 . S
C678 C677 1.489 . S
C678 C679 1.383 . S
C678 C683 1.382 . S
C679 H650 0.950 . S
C679 C678 1.383 . S
C679 C680 1.395 . S
C680 H651 0.950 . S
C680 C679 1.395 . S
C680 C681 1.288 . S
C681 C680 1.288 . S
C681 C682 1.392 . S
C682 H652 0.951 . S
C682 C681 1.392 . S
C682 C683 1.392 . S
C683 H653 0.949 . S
C683 C678 1.382 . S
C683 C682 1.392 . S
H684 C703 0.949 . S
H685 C704 0.950 . S
H686 C706 0.950 . S
H687 C707 0.950 . S
H688 C709 0.950 . S
H689 C712 0.950 . S
H690 C713 0.950 . S
H691 C715 0.951 . S
H692 C716 0.949 . S
H693 C718 0.949 . S
H694 C719 0.950 . S
H695 C721 0.950 . S
H696 C722 0.950 . S
H697 C724 0.950 . S
H698 C727 0.950 . S
H699 C728 0.950 . S
H700 C730 0.951 . S
H701 C731 0.949 . S
C702 C703 1.376 . S
C702 C707 1.386 1_655 S
C702 C708 1.483 . S
C703 H684 0.949 . S
C703 C702 1.376 . S
C703 C704 1.397 . S
C704 H685 0.950 . S
C704 C703 1.397 . S
C704 C705 1.391 . S
C705 C704 1.391 . S
C705 C706 1.405 1_655 S
C706 H686 0.950 . S
C706 C705 1.405 1_455 S
C706 C707 1.367 . S
C707 H687 0.950 . S
C707 C702 1.386 1_455 S
C707 C706 1.367 . S
C708 C702 1.483 . S
C708 C709 1.382 . S
C708 C710 1.403 1_655 S
C709 H688 0.950 . S
C709 C708 1.382 . S
C709 C725 1.411 . S
C710 C708 1.403 1_455 S
C710 C711 1.489 . S
C710 C724 1.411 . S
C711 C710 1.489 . S
C711 C712 1.383 1_455 S
C711 C716 1.382 . S
C712 H689 0.950 . S
C712 C711 1.383 1_655 S
C712 C713 1.395 . S
C713 H690 0.950 . S
C713 C712 1.395 . S
C713 C714 1.288 1_655 S
C714 C713 1.288 1_455 S
C714 C715 1.392 . S
C715 H691 0.951 . S
C715 C714 1.392 . S
C715 C716 1.392 . S
C716 H692 0.949 . S
C716 C711 1.382 . S
C716 C715 1.392 . S
C717 C718 1.376 . S
C717 C722 1.386 1_455 S
C717 C723 1.483 . S
C718 H693 0.949 . S
C718 C717 1.376 . S
C718 C719 1.397 . S
C719 H694 0.950 . S
C719 C718 1.397 . S
C719 C720 1.391 . S
C720 C719 1.391 . S
C720 C721 1.405 1_455 S
C721 H695 0.950 . S
C721 C720 1.405 1_655 S
C721 C722 1.367 . S
C722 H696 0.950 . S
C722 C717 1.386 1_655 S
C722 C721 1.367 . S
C723 C717 1.483 . S
C723 C724 1.382 . S
C723 C725 1.403 1_455 S
C724 H697 0.950 . S
C724 C710 1.411 . S
C724 C723 1.382 . S
C725 C709 1.411 . S
C725 C723 1.403 1_655 S
C725 C726 1.489 . S
C726 C725 1.489 . S
C726 C727 1.383 1_655 S
C726 C731 1.382 . S
C727 H698 0.950 . S
C727 C726 1.383 1_455 S
C727 C728 1.395 . S
C728 H699 0.950 . S
C728 C727 1.395 . S
C728 C729 1.288 1_455 S
C729 C728 1.288 1_655 S
C729 C730 1.392 . S
C730 H700 0.951 . S
C730 C729 1.392 . S
C730 C731 1.392 . S
C731 H701 0.949 . S
C731 C726 1.382 . S
C731 C730 1.392 . S
H732 C751 0.949 . S
H733 C752 0.950 . S
H734 C754 0.950 . S
H735 C755 0.950 . S
H736 C757 0.950 . S
H737 C760 0.950 . S
H738 C761 0.950 . S
H739 C763 0.951 . S
H740 C764 0.949 . S
H741 C766 0.949 . S
H742 C767 0.950 . S
H743 C769 0.950 . S
H744 C770 0.950 . S
H745 C772 0.950 . S
H746 C775 0.950 . S
H747 C776 0.950 . S
H748 C778 0.951 . S
H749 C779 0.949 . S
C750 C751 1.376 . S
C750 C755 1.386 . S
C750 C756 1.483 . S
C751 H732 0.949 . S
C751 C750 1.376 . S
C751 C752 1.397 . S
C752 H733 0.950 . S
C752 C751 1.397 . S
C752 C753 1.391 . S
C753 C752 1.391 . S
C753 C754 1.405 . S
C754 H734 0.950 . S
C754 C753 1.405 . S
C754 C755 1.367 . S
C755 H735 0.950 . S
C755 C750 1.386 . S
C755 C754 1.367 . S
C756 C750 1.483 . S
C756 C757 1.382 . S
C756 C758 1.403 . S
C757 H736 0.950 . S
C757 C756 1.382 . S
C757 C773 1.411 . S
C758 C756 1.403 . S
C758 C759 1.489 . S
C758 C772 1.411 . S
C759 C758 1.489 . S
C759 C760 1.383 . S
C759 C764 1.382 . S
C760 H737 0.950 . S
C760 C759 1.383 . S
C760 C761 1.395 . S
C761 H738 0.950 . S
C761 C760 1.395 . S
C761 C762 1.288 . S
C762 C761 1.288 . S
C762 C763 1.392 . S
C763 H739 0.951 . S
C763 C762 1.392 . S
C763 C764 1.392 . S
C764 H740 0.949 . S
C764 C759 1.382 . S
C764 C763 1.392 . S
C765 C766 1.376 . S
C765 C770 1.386 . S
C765 C771 1.483 . S
C766 H741 0.949 . S
C766 C765 1.376 . S
C766 C767 1.397 . S
C767 H742 0.950 . S
C767 C766 1.397 . S
C767 C768 1.391 . S
C768 C767 1.391 . S
C768 C769 1.405 . S
C769 H743 0.950 . S
C769 C768 1.405 . S
C769 C770 1.367 . S
C770 H744 0.950 . S
C770 C765 1.386 . S
C770 C769 1.367 . S
C771 C765 1.483 . S
C771 C772 1.382 . S
C771 C773 1.403 . S
C772 H745 0.950 . S
C772 C758 1.411 . S
C772 C771 1.382 . S
C773 C757 1.411 . S
C773 C771 1.403 . S
C773 C774 1.489 . S
C774 C773 1.489 . S
C774 C775 1.383 . S
C774 C779 1.382 . S
C775 H746 0.950 . S
C775 C774 1.383 . S
C775 C776 1.395 . S
C776 H747 0.950 . S
C776 C775 1.395 . S
C776 C777 1.288 . S
C777 C776 1.288 . S
C777 C778 1.392 . S
C778 H748 0.951 . S
C778 C777 1.392 . S
C778 C779 1.392 . S
C779 H749 0.949 . S
C779 C774 1.382 . S
C779 C778 1.392 . S
H780 C799 0.949 . S
H781 C800 0.950 . S
H782 C802 0.950 . S
H783 C803 0.950 . S
H784 C805 0.950 . S
H785 C808 0.950 . S
H786 C809 0.950 . S
H787 C811 0.951 . S
H788 C812 0.949 . S
H789 C814 0.949 . S
H790 C815 0.950 . S
H791 C817 0.950 . S
H792 C818 0.950 . S
H793 C820 0.950 . S
H794 C823 0.950 . S
H795 C824 0.950 . S
H796 C826 0.951 . S
H797 C827 0.949 . S
C798 C799 1.376 . S
C798 C803 1.386 1_545 S
C798 C804 1.483 . S
C799 H780 0.949 . S
C799 C798 1.376 . S
C799 C800 1.397 . S
C800 H781 0.950 . S
C800 C799 1.397 . S
C800 C801 1.391 . S
C801 C800 1.391 . S
C801 C802 1.405 1_545 S
C802 H782 0.950 . S
C802 C801 1.405 1_565 S
C802 C803 1.367 . S
C803 H783 0.950 . S
C803 C798 1.386 1_565 S
C803 C802 1.367 . S
C804 C798 1.483 . S
C804 C805 1.382 . S
C804 C806 1.403 1_545 S
C805 H784 0.950 . S
C805 C804 1.382 . S
C805 C821 1.411 . S
C806 C804 1.403 1_565 S
C806 C807 1.489 . S
C806 C820 1.411 . S
C807 C806 1.489 . S
C807 C808 1.383 1_565 S
C807 C812 1.382 . S
C808 H785 0.950 . S
C808 C807 1.383 1_545 S
C808 C809 1.395 . S
C809 H786 0.950 . S
C809 C808 1.395 . S
C809 C810 1.288 1_545 S
C810 C809 1.288 1_565 S
C810 C811 1.392 . S
C811 H787 0.951 . S
C811 C810 1.392 . S
C811 C812 1.392 . S
C812 H788 0.949 . S
C812 C807 1.382 . S
C812 C811 1.392 . S
C813 C814 1.376 . S
C813 C818 1.386 1_565 S
C813 C819 1.483 . S
C814 H789 0.949 . S
C814 C813 1.376 . S
C814 C815 1.397 . S
C815 H790 0.950 . S
C815 C814 1.397 . S
C815 C816 1.391 . S
C816 C815 1.391 . S
C816 C817 1.405 1_565 S
C817 H791 0.950 . S
C817 C816 1.405 1_545 S
C817 C818 1.367 . S
C818 H792 0.950 . S
C818 C813 1.386 1_545 S
C818 C817 1.367 . S
C819 C813 1.483 . S
C819 C820 1.382 . S
C819 C821 1.403 1_565 S
C820 H793 0.950 . S
C820 C806 1.411 . S
C820 C819 1.382 . S
C821 C805 1.411 . S
C821 C819 1.403 1_545 S
C821 C822 1.489 . S
C822 C821 1.489 . S
C822 C823 1.383 1_545 S
C822 C827 1.382 . S
C823 H794 0.950 . S
C823 C822 1.383 1_565 S
C823 C824 1.395 . S
C824 H795 0.950 . S
C824 C823 1.395 . S
C824 C825 1.288 1_565 S
C825 C824 1.288 1_545 S
C825 C826 1.392 . S
C826 H796 0.951 . S
C826 C825 1.392 . S
C826 C827 1.392 . S
C827 H797 0.949 . S
C827 C822 1.382 . S
C827 C826 1.392 . S
H828 C847 0.949 . S
H829 C848 0.950 . S
H830 C850 0.950 . S
H831 C851 0.950 . S
H832 C853 0.950 . S
H833 C856 0.950 . S
H834 C857 0.950 . S
H835 C859 0.951 . S
H836 C860 0.949 . S
H837 C862 0.949 . S
H838 C863 0.950 . S
H839 C865 0.950 . S
H840 C866 0.950 . S
H841 C868 0.950 . S
H842 C871 0.950 . S
H843 C872 0.950 . S
H844 C874 0.951 . S
H845 C875 0.949 . S
C846 C847 1.376 . S
C846 C851 1.386 1_545 S
C846 C852 1.506 . S
C847 H828 0.949 . S
C847 C846 1.376 . S
C847 C848 1.397 . S
C848 H829 0.950 . S
C848 C847 1.397 . S
C848 C849 1.391 1_545 S
C849 C848 1.391 1_565 S
C849 C850 1.405 . S
C850 H830 0.950 . S
C850 C849 1.405 . S
C850 C851 1.367 . S
C851 H831 0.950 . S
C851 C846 1.386 1_565 S
C851 C850 1.367 . S
C852 C846 1.506 . S
C852 C853 1.360 . S
C852 C854 1.400 1_545 S
C853 H832 0.950 . S
C853 C852 1.360 . S
C853 C869 1.446 . S
C854 C852 1.400 1_565 S
C854 C855 1.486 . S
C854 C868 1.436 . S
C855 C854 1.486 . S
C855 C856 1.342 1_565 S
C855 C860 1.404 . S
C856 H833 0.950 . S
C856 C855 1.342 1_545 S
C856 C857 1.395 . S
C857 H834 0.950 . S
C857 C856 1.395 . S
C857 C858 1.331 . S
C858 C857 1.331 . S
C858 C859 1.307 1_545 S
C859 H835 0.951 . S
C859 C858 1.307 1_565 S
C859 C860 1.392 . S
C860 H836 0.949 . S
C860 C855 1.404 . S
C860 C859 1.392 . S
C861 C862 1.376 1_545 S
C861 C866 1.386 . S
C861 C867 1.497 1_545 S
C862 H837 0.949 . S
C862 C861 1.376 1_565 S
C862 C863 1.397 . S
C863 H838 0.950 . S
C863 C862 1.397 . S
C863 C864 1.391 1_565 S
C864 C863 1.391 1_545 S
C864 C865 1.405 . S
C865 H839 0.950 . S
C865 C864 1.405 . S
C865 C866 1.367 . S
C866 H840 0.950 . S
C866 C861 1.386 . S
C866 C865 1.367 . S
C867 C861 1.497 1_565 S
C867 C868 1.367 . S
C867 C869 1.400 1_565 S
C868 H841 0.950 . S
C868 C854 1.436 . S
C868 C867 1.367 . S
C869 C853 1.446 . S
C869 C867 1.400 1_545 S
C869 C870 1.486 . S
C870 C869 1.486 . S
C870 C871 1.323 1_545 S
C870 C875 1.414 . S
C871 H842 0.950 . S
C871 C870 1.323 1_565 S
C871 C872 1.395 . S
C872 H843 0.950 . S
C872 C871 1.395 . S
C872 C873 1.321 . S
C873 C872 1.321 . S
C873 C874 1.326 1_565 S
C874 H844 0.951 . S
C874 C873 1.326 1_545 S
C874 C875 1.392 . S
C875 H845 0.949 . S
C875 C870 1.414 . S
C875 C874 1.392 . S
H876 C895 0.949 . S
H877 C896 0.950 . S
H878 C898 0.950 . S
H879 C899 0.950 . S
H880 C901 0.950 . S
H881 C904 0.950 . S
H882 C905 0.950 . S
H883 C907 0.951 . S
H884 C908 0.949 . S
H885 C910 0.949 . S
H886 C911 0.950 . S
H887 C913 0.950 . S
H888 C914 0.950 . S
H889 C916 0.950 . S
H890 C919 0.950 . S
H891 C920 0.950 . S
H892 C922 0.951 . S
H893 C923 0.949 . S
C894 C895 1.376 . S
C894 C899 1.386 1_455 S
C894 C900 1.483 . S
C895 H876 0.949 . S
C895 C894 1.376 . S
C895 C896 1.397 . S
C896 H877 0.950 . S
C896 C895 1.397 . S
C896 C897 1.391 . S
C897 C896 1.391 . S
C897 C898 1.405 1_455 S
C898 H878 0.950 . S
C898 C897 1.405 1_655 S
C898 C899 1.367 . S
C899 H879 0.950 . S
C899 C894 1.386 1_655 S
C899 C898 1.367 . S
C900 C894 1.483 . S
C900 C901 1.382 . S
C900 C902 1.403 1_455 S
C901 H880 0.950 . S
C901 C900 1.382 . S
C901 C917 1.411 . S
C902 C900 1.403 1_655 S
C902 C903 1.489 . S
C902 C916 1.411 . S
C903 C902 1.489 . S
C903 C904 1.383 1_655 S
C903 C908 1.382 . S
C904 H881 0.950 . S
C904 C903 1.383 1_455 S
C904 C905 1.395 . S
C905 H882 0.950 . S
C905 C904 1.395 . S
C905 C906 1.288 1_455 S
C906 C905 1.288 1_655 S
C906 C907 1.392 . S
C907 H883 0.951 . S
C907 C906 1.392 . S
C907 C908 1.392 . S
C908 H884 0.949 . S
C908 C903 1.382 . S
C908 C907 1.392 . S
C909 C910 1.376 . S
C909 C914 1.386 1_655 S
C909 C915 1.483 . S
C910 H885 0.949 . S
C910 C909 1.376 . S
C910 C911 1.397 . S
C911 H886 0.950 . S
C911 C910 1.397 . S
C911 C912 1.391 . S
C912 C911 1.391 . S
C912 C913 1.405 1_655 S
C913 H887 0.950 . S
C913 C912 1.405 1_455 S
C913 C914 1.367 . S
C914 H888 0.950 . S
C914 C909 1.386 1_455 S
C914 C913 1.367 . S
C915 C909 1.483 . S
C915 C916 1.382 . S
C915 C917 1.403 1_655 S
C916 H889 0.950 . S
C916 C902 1.411 . S
C916 C915 1.382 . S
C917 C901 1.411 . S
C917 C915 1.403 1_455 S
C917 C918 1.489 . S
C918 C917 1.489 . S
C918 C919 1.383 1_455 S
C918 C923 1.382 . S
C919 H890 0.950 . S
C919 C918 1.383 1_655 S
C919 C920 1.395 . S
C920 H891 0.950 . S
C920 C919 1.395 . S
C920 C921 1.288 1_655 S
C921 C920 1.288 1_455 S
C921 C922 1.392 . S
C922 H892 0.951 . S
C922 C921 1.392 . S
C922 C923 1.392 . S
C923 H893 0.949 . S
C923 C918 1.382 . S
C923 C922 1.392 . S
H924 C943 0.949 . S
H925 C944 0.950 . S
H926 C946 0.950 . S
H927 C947 0.950 . S
H928 C949 0.950 . S
H929 C952 0.950 . S
H930 C953 0.950 . S
H931 C955 0.951 . S
H932 C956 0.949 . S
H933 C958 0.949 . S
H934 C959 0.950 . S
H935 C961 0.950 . S
H936 C962 0.950 . S
H937 C964 0.950 . S
H938 C967 0.950 . S
H939 C968 0.950 . S
H940 C970 0.951 . S
H941 C971 0.949 . S
C942 C943 1.376 . S
C942 C947 1.386 . S
C942 C948 1.483 . S
C943 H924 0.949 . S
C943 C942 1.376 . S
C943 C944 1.397 . S
C944 H925 0.950 . S
C944 C943 1.397 . S
C944 C945 1.391 . S
C945 C944 1.391 . S
C945 C946 1.405 . S
C946 H926 0.950 . S
C946 C945 1.405 . S
C946 C947 1.367 . S
C947 H927 0.950 . S
C947 C942 1.386 . S
C947 C946 1.367 . S
C948 C942 1.483 . S
C948 C949 1.382 . S
C948 C950 1.403 . S
C949 H928 0.950 . S
C949 C948 1.382 . S
C949 C965 1.411 . S
C950 C948 1.403 . S
C950 C951 1.489 . S
C950 C964 1.411 . S
C951 C950 1.489 . S
C951 C952 1.383 . S
C951 C956 1.382 . S
C952 H929 0.950 . S
C952 C951 1.383 . S
C952 C953 1.395 . S
C953 H930 0.950 . S
C953 C952 1.395 . S
C953 C954 1.288 . S
C954 C953 1.288 . S
C954 C955 1.392 . S
C955 H931 0.951 . S
C955 C954 1.392 . S
C955 C956 1.392 . S
C956 H932 0.949 . S
C956 C951 1.382 . S
C956 C955 1.392 . S
C957 C958 1.376 . S
C957 C962 1.386 . S
C957 C963 1.483 . S
C958 H933 0.949 . S
C958 C957 1.376 . S
C958 C959 1.397 . S
C959 H934 0.950 . S
C959 C958 1.397 . S
C959 C960 1.391 . S
C960 C959 1.391 . S
C960 C961 1.405 . S
C961 H935 0.950 . S
C961 C960 1.405 . S
C961 C962 1.367 . S
C962 H936 0.950 . S
C962 C957 1.386 . S
C962 C961 1.367 . S
C963 C957 1.483 . S
C963 C964 1.382 . S
C963 C965 1.403 . S
C964 H937 0.950 . S
C964 C950 1.411 . S
C964 C963 1.382 . S
C965 C949 1.411 . S
C965 C963 1.403 . S
C965 C966 1.489 . S
C966 C965 1.489 . S
C966 C967 1.383 . S
C966 C971 1.382 . S
C967 H938 0.950 . S
C967 C966 1.383 . S
C967 C968 1.395 . S
C968 H939 0.950 . S
C968 C967 1.395 . S
C968 C969 1.288 . S
C969 C968 1.288 . S
C969 C970 1.392 . S
C970 H940 0.951 . S
C970 C969 1.392 . S
C970 C971 1.392 . S
C971 H941 0.949 . S
C971 C966 1.382 . S
C971 C970 1.392 . S
H972 C991 0.949 . S
H973 C992 0.950 . S
H974 C994 0.950 . S
H975 C995 0.950 . S
H976 C997 0.950 . S
H977 C1000 0.950 . S
H978 C1001 0.950 . S
H979 C1003 0.951 . S
H980 C1004 0.949 . S
H981 C1006 0.949 . S
H982 C1007 0.950 . S
H983 C1009 0.950 . S
H984 C1010 0.950 . S
H985 C1012 0.950 . S
H986 C1015 0.950 . S
H987 C1016 0.950 . S
H988 C1018 0.951 . S
H989 C1019 0.949 . S
C990 C991 1.376 . S
C990 C995 1.386 . S
C990 C996 1.483 . S
C991 H972 0.949 . S
C991 C990 1.376 . S
C991 C992 1.397 . S
C992 H973 0.950 . S
C992 C991 1.397 . S
C992 C993 1.391 . S
C993 C992 1.391 . S
C993 C994 1.405 . S
C994 H974 0.950 . S
C994 C993 1.405 . S
C994 C995 1.367 . S
C995 H975 0.950 . S
C995 C990 1.386 . S
C995 C994 1.367 . S
C996 C990 1.483 . S
C996 C997 1.382 . S
C996 C998 1.403 . S
C997 H976 0.950 . S
C997 C996 1.382 . S
C997 C1013 1.411 . S
C998 C996 1.403 . S
C998 C999 1.489 . S
C998 C1012 1.411 . S
C999 C998 1.489 . S
C999 C1000 1.383 . S
C999 C1004 1.382 . S
C1000 H977 0.950 . S
C1000 C999 1.383 . S
C1000 C1001 1.395 . S
C1001 H978 0.950 . S
C1001 C1000 1.395 . S
C1001 C1002 1.288 . S
C1002 C1001 1.288 . S
C1002 C1003 1.392 . S
C1003 H979 0.951 . S
C1003 C1002 1.392 . S
C1003 C1004 1.392 . S
C1004 H980 0.949 . S
C1004 C999 1.382 . S
C1004 C1003 1.392 . S
C1005 C1006 1.376 . S
C1005 C1010 1.386 . S
C1005 C1011 1.483 . S
C1006 H981 0.949 . S
C1006 C1005 1.376 . S
C1006 C1007 1.397 . S
C1007 H982 0.950 . S
C1007 C1006 1.397 . S
C1007 C1008 1.391 . S
C1008 C1007 1.391 . S
C1008 C1009 1.405 . S
C1009 H983 0.950 . S
C1009 C1008 1.405 . S
C1009 C1010 1.367 . S
C1010 H984 0.950 . S
C1010 C1005 1.386 . S
C1010 C1009 1.367 . S
C1011 C1005 1.483 . S
C1011 C1012 1.382 . S
C1011 C1013 1.403 . S
C1012 H985 0.950 . S
C1012 C998 1.411 . S
C1012 C1011 1.382 . S
C1013 C997 1.411 . S
C1013 C1011 1.403 . S
C1013 C1014 1.489 . S
C1014 C1013 1.489 . S
C1014 C1015 1.383 . S
C1014 C1019 1.382 . S
C1015 H986 0.950 . S
C1015 C1014 1.383 . S
C1015 C1016 1.395 . S
C1016 H987 0.950 . S
C1016 C1015 1.395 . S
C1016 C1017 1.288 . S
C1017 C1016 1.288 . S
C1017 C1018 1.392 . S
C1018 H988 0.951 . S
C1018 C1017 1.392 . S
C1018 C1019 1.392 . S
C1019 H989 0.949 . S
C1019 C1014 1.382 . S
C1019 C1018 1.392 . S
H1020 C1039 0.949 . S
H1021 C1040 0.950 . S
H1022 C1042 0.950 . S
H1023 C1043 0.950 . S
H1024 C1045 0.950 . S
H1025 C1048 0.950 . S
H1026 C1049 0.950 . S
H1027 C1051 0.951 . S
H1028 C1052 0.949 . S
H1029 C1054 0.949 . S
H1030 C1055 0.950 . S
H1031 C1057 0.950 . S
H1032 C1058 0.950 . S
H1033 C1060 0.950 . S
H1034 C1063 0.950 . S
H1035 C1064 0.950 . S
H1036 C1066 0.951 . S
H1037 C1067 0.949 . S
C1038 C1039 1.376 . S
C1038 C1043 1.386 . S
C1038 C1044 1.483 . S
C1039 H1020 0.949 . S
C1039 C1038 1.376 . S
C1039 C1040 1.397 . S
C1040 H1021 0.950 . S
C1040 C1039 1.397 . S
C1040 C1041 1.391 . S
C1041 C1040 1.391 . S
C1041 C1042 1.405 . S
C1042 H1022 0.950 . S
C1042 C1041 1.405 . S
C1042 C1043 1.367 . S
C1043 H1023 0.950 . S
C1043 C1038 1.386 . S
C1043 C1042 1.367 . S
C1044 C1038 1.483 . S
C1044 C1045 1.382 . S
C1044 C1046 1.403 . S
C1045 H1024 0.950 . S
C1045 C1044 1.382 . S
C1045 C1061 1.411 . S
C1046 C1044 1.403 . S
C1046 C1047 1.489 . S
C1046 C1060 1.411 . S
C1047 C1046 1.489 . S
C1047 C1048 1.383 . S
C1047 C1052 1.382 . S
C1048 H1025 0.950 . S
C1048 C1047 1.383 . S
C1048 C1049 1.395 . S
C1049 H1026 0.950 . S
C1049 C1048 1.395 . S
C1049 C1050 1.288 . S
C1050 C1049 1.288 . S
C1050 C1051 1.392 . S
C1051 H1027 0.951 . S
C1051 C1050 1.392 . S
C1051 C1052 1.392 . S
C1052 H1028 0.949 . S
C1052 C1047 1.382 . S
C1052 C1051 1.392 . S
C1053 C1054 1.376 . S
C1053 C1058 1.386 . S
C1053 C1059 1.483 . S
C1054 H1029 0.949 . S
C1054 C1053 1.376 . S
C1054 C1055 1.397 . S
C1055 H1030 0.950 . S
C1055 C1054 1.397 . S
C1055 C1056 1.391 . S
C1056 C1055 1.391 . S
C1056 C1057 1.405 . S
C1057 H1031 0.950 . S
C1057 C1056 1.405 . S
C1057 C1058 1.367 . S
C1058 H1032 0.950 . S
C1058 C1053 1.386 . S
C1058 C1057 1.367 . S
C1059 C1053 1.483 . S
C1059 C1060 1.382 . S
C1059 C1061 1.403 . S
C1060 H1033 0.950 . S
C1060 C1046 1.411 . S
C1060 C1059 1.382 . S
C1061 C1045 1.411 . S
C1061 C1059 1.403 . S
C1061 C1062 1.489 . S
C1062 C1061 1.489 . S
C1062 C1063 1.383 . S
C1062 C1067 1.382 . S
C1063 H1034 0.950 . S
C1063 C1062 1.383 . S
C1063 C1064 1.395 . S
C1064 H1035 0.950 . S
C1064 C1063 1.395 . S
C1064 C1065 1.288 . S
C1065 C1064 1.288 . S
C1065 C1066 1.392 . S
C1066 H1036 0.951 . S
C1066 C1065 1.392 . S
C1066 C1067 1.392 . S
C1067 H1037 0.949 . S
C1067 C1062 1.382 . S
C1067 C1066 1.392 . S
H1068 C1087 0.949 . S
H1069 C1088 0.950 . S
H1070 C1090 0.950 . S
H1071 C1091 0.950 . S
H1072 C1093 0.950 . S
H1073 C1096 0.950 . S
H1074 C1097 0.950 . S
H1075 C1099 0.951 . S
H1076 C1100 0.949 . S
H1077 C1102 0.949 . S
H1078 C1103 0.950 . S
H1079 C1105 0.950 . S
H1080 C1106 0.950 . S
H1081 C1108 0.950 . S
H1082 C1111 0.950 . S
H1083 C1112 0.950 . S
H1084 C1114 0.951 . S
H1085 C1115 0.949 . S
C1086 C1087 1.376 . S
C1086 C1091 1.386 . S
C1086 C1092 1.483 . S
C1087 H1068 0.949 . S
C1087 C1086 1.376 . S
C1087 C1088 1.397 . S
C1088 H1069 0.950 . S
C1088 C1087 1.397 . S
C1088 C1089 1.391 . S
C1089 C1088 1.391 . S
C1089 C1090 1.405 . S
C1090 H1070 0.950 . S
C1090 C1089 1.405 . S
C1090 C1091 1.367 . S
C1091 H1071 0.950 . S
C1091 C1086 1.386 . S
C1091 C1090 1.367 . S
C1092 C1086 1.483 . S
C1092 C1093 1.382 . S
C1092 C1094 1.403 . S
C1093 H1072 0.950 . S
C1093 C1092 1.382 . S
C1093 C1109 1.411 . S
C1094 C1092 1.403 . S
C1094 C1095 1.489 . S
C1094 C1108 1.411 . S
C1095 C1094 1.489 . S
C1095 C1096 1.383 . S
C1095 C1100 1.382 . S
C1096 H1073 0.950 . S
C1096 C1095 1.383 . S
C1096 C1097 1.395 . S
C1097 H1074 0.950 . S
C1097 C1096 1.395 . S
C1097 C1098 1.288 . S
C1098 C1097 1.288 . S
C1098 C1099 1.392 . S
C1099 H1075 0.951 . S
C1099 C1098 1.392 . S
C1099 C1100 1.392 . S
C1100 H1076 0.949 . S
C1100 C1095 1.382 . S
C1100 C1099 1.392 . S
C1101 C1102 1.376 . S
C1101 C1106 1.386 . S
C1101 C1107 1.483 . S
C1102 H1077 0.949 . S
C1102 C1101 1.376 . S
C1102 C1103 1.397 . S
C1103 H1078 0.950 . S
C1103 C1102 1.397 . S
C1103 C1104 1.391 . S
C1104 C1103 1.391 . S
C1104 C1105 1.405 . S
C1105 H1079 0.950 . S
C1105 C1104 1.405 . S
C1105 C1106 1.367 . S
C1106 H1080 0.950 . S
C1106 C1101 1.386 . S
C1106 C1105 1.367 . S
C1107 C1101 1.483 . S
C1107 C1108 1.382 . S
C1107 C1109 1.403 . S
C1108 H1081 0.950 . S
C1108 C1094 1.411 . S
C1108 C1107 1.382 . S
C1109 C1093 1.411 . S
C1109 C1107 1.403 . S
C1109 C1110 1.489 . S
C1110 C1109 1.489 . S
C1110 C1111 1.383 . S
C1110 C1115 1.382 . S
C1111 H1082 0.950 . S
C1111 C1110 1.383 . S
C1111 C1112 1.395 . S
C1112 H1083 0.950 . S
C1112 C1111 1.395 . S
C1112 C1113 1.288 . S
C1113 C1112 1.288 . S
C1113 C1114 1.392 . S
C1114 H1084 0.951 . S
C1114 C1113 1.392 . S
C1114 C1115 1.392 . S
C1115 H1085 0.949 . S
C1115 C1110 1.382 . S
C1115 C1114 1.392 . S
C1116 C1117 1.386 . S
C1116 C1118 1.383 . S
C1116 H1132 0.951 . S
C1117 C1116 1.386 . S
C1117 C1121 1.383 1_655 S
C1118 C1116 1.383 . S
C1118 C1119 1.402 1_655 S
C1118 H1133 0.951 . S
C1119 C1118 1.402 1_455 S
C1119 C1120 1.375 . S
C1119 C1122 1.481 . S
C1120 C1119 1.375 . S
C1120 C1121 1.367 . S
C1120 H1134 0.951 . S
C1121 C1117 1.383 1_455 S
C1121 C1120 1.367 . S
C1121 H1135 0.950 . S
C1122 C1119 1.481 . S
C1122 C1123 1.297 . S
C1122 H1136 0.950 . S
C1123 C1122 1.297 . S
C1123 C1124 1.479 . S
C1123 H1137 0.950 . S
C1124 C1123 1.479 . S
C1124 C1125 1.374 . S
C1124 C1130 1.404 . S
C1125 C1124 1.374 . S
C1125 C1126 1.372 1_455 S
C1125 H1138 0.948 1_455 S
C1126 C1125 1.372 1_655 S
C1126 C1127 1.392 . S
C1126 H1139 0.951 . S
C1127 C1126 1.392 . S
C1127 C1129 1.384 1_655 S
H1128 C1130 0.949 . S
C1129 C1127 1.384 1_455 S
C1129 C1130 1.385 . S
C1129 H1131 0.950 . S
C1130 C1124 1.404 . S
C1130 H1128 0.949 . S
C1130 C1129 1.385 . S
H1131 C1129 0.950 . S
H1132 C1116 0.951 . S
H1133 C1118 0.951 . S
H1134 C1120 0.951 . S
H1135 C1121 0.950 . S
H1136 C1122 0.950 . S
H1137 C1123 0.950 . S
H1138 C1125 0.948 1_655 S
H1139 C1126 0.951 . S
C1140 C1141 1.386 . S
C1140 C1142 1.383 . S
C1140 H1156 0.951 . S
C1141 C1140 1.386 . S
C1141 C1145 1.383 . S
C1142 C1140 1.383 . S
C1142 C1143 1.402 . S
C1142 H1157 0.951 . S
C1143 C1142 1.402 . S
C1143 C1144 1.375 . S
C1143 C1146 1.481 . S
C1144 C1143 1.375 . S
C1144 C1145 1.367 . S
C1144 H1158 0.951 . S
C1145 C1141 1.383 . S
C1145 C1144 1.367 . S
C1145 H1159 0.950 . S
C1146 C1143 1.481 . S
C1146 C1147 1.297 . S
C1146 H1160 0.950 . S
C1147 C1146 1.297 . S
C1147 C1148 1.479 . S
C1147 H1161 0.950 . S
C1148 C1147 1.479 . S
C1148 C1149 1.375 . S
C1148 C1154 1.404 . S
C1149 C1148 1.375 . S
C1149 C1150 1.369 . S
C1149 H1162 0.950 . S
C1150 C1149 1.369 . S
C1150 C1151 1.392 . S
C1150 H1163 0.951 . S
C1151 C1150 1.392 . S
C1151 C1153 1.384 . S
H1152 C1154 0.949 . S
C1153 C1151 1.384 . S
C1153 C1154 1.385 . S
C1153 H1155 0.950 . S
C1154 C1148 1.404 . S
C1154 H1152 0.949 . S
C1154 C1153 1.385 . S
H1155 C1153 0.950 . S
H1156 C1140 0.951 . S
H1157 C1142 0.951 . S
H1158 C1144 0.951 . S
H1159 C1145 0.950 . S
H1160 C1146 0.950 . S
H1161 C1147 0.950 . S
H1162 C1149 0.950 . S
H1163 C1150 0.951 . S
C1164 C1165 1.386 . S
C1164 C1166 1.383 . S
C1164 H1180 0.951 1_545 S
C1165 C1164 1.386 . S
C1165 C1169 1.383 . S
C1166 C1164 1.383 . S
C1166 C1167 1.402 . S
C1166 H1181 0.951 1_545 S
C1167 C1166 1.402 . S
C1167 C1168 1.375 . S
C1167 C1170 1.481 . S
C1168 C1167 1.375 . S
C1168 C1169 1.367 . S
C1168 H1182 0.951 . S
C1169 C1165 1.383 . S
C1169 C1168 1.367 . S
C1169 H1183 0.950 . S
C1170 C1167 1.481 . S
C1170 C1171 1.297 . S
C1170 H1184 0.950 . S
C1171 C1170 1.297 . S
C1171 C1172 1.479 . S
C1171 H1185 0.950 . S
C1172 C1171 1.479 . S
C1172 C1173 1.325 1_545 S
C1172 C1178 1.404 . S
C1173 C1172 1.325 1_565 S
C1173 C1174 1.395 . S
C1173 H1186 0.976 . S
C1174 C1173 1.395 . S
C1174 C1175 1.392 1_565 S
C1174 H1187 0.951 . S
C1175 C1174 1.392 1_545 S
C1175 C1177 1.384 . S
H1176 C1178 0.949 . S
C1177 C1175 1.384 . S
C1177 C1178 1.385 . S
C1177 H1179 0.950 . S
C1178 C1172 1.404 . S
C1178 H1176 0.949 . S
C1178 C1177 1.385 . S
H1179 C1177 0.950 . S
H1180 C1164 0.951 1_565 S
H1181 C1166 0.951 1_565 S
H1182 C1168 0.951 . S
H1183 C1169 0.950 . S
H1184 C1170 0.950 . S
H1185 C1171 0.950 . S
H1186 C1173 0.976 . S
H1187 C1174 0.951 . S
C1188 C1189 1.386 . S
C1188 C1190 1.383 . S
C1188 H1204 0.951 . S
C1189 C1188 1.386 . S
C1189 C1193 1.383 . S
C1190 C1188 1.383 . S
C1190 C1191 1.402 . S
C1190 H1205 0.951 . S
C1191 C1190 1.402 . S
C1191 C1192 1.375 . S
C1191 C1194 1.481 . S
C1192 C1191 1.375 . S
C1192 C1193 1.367 . S
C1192 H1206 0.951 . S
C1193 C1189 1.383 . S
C1193 C1192 1.367 . S
C1193 H1207 0.950 . S
C1194 C1191 1.481 . S
C1194 C1195 1.297 1_565 S
C1194 H1208 0.950 . S
C1195 C1194 1.297 1_545 S
C1195 C1196 1.479 . S
C1195 H1209 0.950 . S
C1196 C1195 1.479 . S
C1196 C1197 1.375 . S
C1196 C1202 1.404 . S
C1197 C1196 1.375 . S
C1197 C1198 1.365 . S
C1197 H1210 0.950 . S
C1198 C1197 1.365 . S
C1198 C1199 1.352 1_545 S
C1198 H1211 0.952 1_545 S
C1199 C1198 1.352 1_565 S
C1199 C1201 1.388 1_565 S
H1200 C1202 0.949 . S
C1201 C1199 1.388 1_545 S
C1201 C1202 1.394 . S
C1201 H1203 0.947 . S
C1202 C1196 1.404 . S
C1202 H1200 0.949 . S
C1202 C1201 1.394 . S
H1203 C1201 0.947 . S
H1204 C1188 0.951 . S
H1205 C1190 0.951 . S
H1206 C1192 0.951 . S
H1207 C1193 0.950 . S
H1208 C1194 0.950 . S
H1209 C1195 0.950 . S
H1210 C1197 0.950 . S
H1211 C1198 0.952 1_565 S
C1212 C1213 1.386 . S
C1212 C1214 1.383 . S
C1212 H1228 0.951 . S
C1213 C1212 1.386 . S
C1213 C1217 1.383 . S
C1214 C1212 1.383 . S
C1214 C1215 1.402 . S
C1214 H1229 0.951 . S
C1215 C1214 1.402 . S
C1215 C1216 1.385 . S
C1215 C1218 1.481 . S
C1216 C1215 1.385 . S
C1216 C1217 1.409 . S
C1216 H1230 0.907 1_455 S
C1217 C1213 1.383 . S
C1217 C1216 1.409 . S
C1217 H1231 0.950 1_455 S
C1218 C1215 1.481 . S
C1218 C1219 1.297 . S
C1218 H1232 0.905 1_455 S
C1219 C1218 1.297 . S
C1219 C1220 1.479 . S
C1219 H1233 0.950 . S
C1220 C1219 1.479 . S
C1220 C1221 1.375 . S
C1220 C1226 1.404 . S
C1221 C1220 1.375 . S
C1221 C1222 1.369 . S
C1221 H1234 0.950 . S
C1222 C1221 1.369 . S
C1222 C1223 1.392 . S
C1222 H1235 0.951 . S
C1223 C1222 1.392 . S
C1223 C1225 1.384 1_455 S
H1224 C1226 0.949 1_655 S
C1225 C1223 1.384 1_655 S
C1225 C1226 1.385 1_655 S
C1225 H1227 0.950 . S
C1226 C1220 1.404 . S
C1226 H1224 0.949 1_455 S
C1226 C1225 1.385 1_455 S
H1227 C1225 0.950 . S
H1228 C1212 0.951 . S
H1229 C1214 0.951 . S
H1230 C1216 0.907 1_655 S
H1231 C1217 0.950 1_655 S
H1232 C1218 0.905 1_655 S
H1233 C1219 0.950 . S
H1234 C1221 0.950 . S
H1235 C1222 0.951 . S
C1236 C1237 1.386 . S
C1236 C1238 1.383 . S
C1236 H1252 0.951 . S
C1237 C1236 1.386 . S
C1237 C1241 1.383 . S
C1238 C1236 1.383 . S
C1238 C1239 1.402 . S
C1238 H1253 0.951 . S
C1239 C1238 1.402 . S
C1239 C1240 1.375 . S
C1239 C1242 1.481 . S
C1240 C1239 1.375 . S
C1240 C1241 1.367 . S
C1240 H1254 0.951 . S
C1241 C1237 1.383 . S
C1241 C1240 1.367 . S
C1241 H1255 0.950 . S
C1242 C1239 1.481 . S
C1242 C1243 1.297 . S
C1242 H1256 0.950 . S
C1243 C1242 1.297 . S
C1243 C1244 1.479 . S
C1243 H1257 0.950 . S
C1244 C1243 1.479 . S
C1244 C1245 1.375 . S
C1244 C1250 1.404 . S
C1245 C1244 1.375 . S
C1245 C1246 1.369 . S
C1245 H1258 0.950 . S
C1246 C1245 1.369 . S
C1246 C1247 1.392 . S
C1246 H1259 0.951 . S
C1247 C1246 1.392 . S
C1247 C1249 1.384 . S
H1248 C1250 0.949 . S
C1249 C1247 1.384 . S
C1249 C1250 1.385 . S
C1249 H1251 0.950 . S
C1250 C1244 1.404 . S
C1250 H1248 0.949 . S
C1250 C1249 1.385 . S
H1251 C1249 0.950 . S
H1252 C1236 0.951 . S
H1253 C1238 0.951 . S
H1254 C1240 0.951 . S
H1255 C1241 0.950 . S
H1256 C1242 0.950 . S
H1257 C1243 0.950 . S
H1258 C1245 0.950 . S
H1259 C1246 0.951 . S
C1260 C1261 1.386 . S
C1260 C1262 1.383 . S
C1260 H1276 0.951 . S
C1261 C1260 1.386 . S
C1261 C1265 1.384 . S
C1262 C1260 1.383 . S
C1262 C1263 1.402 . S
C1262 H1277 0.951 . S
C1263 C1262 1.402 . S
C1263 C1264 1.377 1_455 S
C1263 C1266 1.481 . S
C1264 C1263 1.377 1_655 S
C1264 C1265 1.385 1_655 S
C1264 H1278 0.951 . S
C1265 C1261 1.384 . S
C1265 C1264 1.385 1_455 S
C1265 H1279 0.931 1_455 S
C1266 C1263 1.481 . S
C1266 C1267 1.297 . S
C1266 H1280 0.946 1_455 S
C1267 C1266 1.297 . S
C1267 C1268 1.479 . S
C1267 H1281 0.950 . S
C1268 C1267 1.479 . S
C1268 C1269 1.375 . S
C1268 C1274 1.404 . S
C1269 C1268 1.375 . S
C1269 C1270 1.369 . S
C1269 H1282 0.950 . S
C1270 C1269 1.369 . S
C1270 C1271 1.392 . S
C1270 H1283 0.951 . S
C1271 C1270 1.392 . S
C1271 C1273 1.387 . S
H1272 C1274 0.949 1_655 S
C1273 C1271 1.387 . S
C1273 C1274 1.382 . S
C1273 H1275 0.950 1_455 S
C1274 C1268 1.404 . S
C1274 H1272 0.949 1_455 S
C1274 C1273 1.382 . S
H1275 C1273 0.950 1_655 S
H1276 C1260 0.951 . S
H1277 C1262 0.951 . S
H1278 C1264 0.951 . S
H1279 C1265 0.931 1_655 S
H1280 C1266 0.946 1_655 S
H1281 C1267 0.950 . S
H1282 C1269 0.950 . S
H1283 C1270 0.951 . S
C1284 C1285 1.386 . S
C1284 C1286 1.383 . S
C1284 H1300 0.951 . S
C1285 C1284 1.386 . S
C1285 C1289 1.383 . S
C1286 C1284 1.383 . S
C1286 C1287 1.402 . S
C1286 H1301 0.951 . S
C1287 C1286 1.402 . S
C1287 C1288 1.375 . S
C1287 C1290 1.481 . S
C1288 C1287 1.375 . S
C1288 C1289 1.367 . S
C1288 H1302 0.951 . S
C1289 C1285 1.383 . S
C1289 C1288 1.367 . S
C1289 H1303 0.950 . S
C1290 C1287 1.481 . S
C1290 C1291 1.297 . S
C1290 H1304 0.950 . S
C1291 C1290 1.297 . S
C1291 C1292 1.479 . S
C1291 H1305 0.950 . S
C1292 C1291 1.479 . S
C1292 C1293 1.375 . S
C1292 C1298 1.404 . S
C1293 C1292 1.375 . S
C1293 C1294 1.369 . S
C1293 H1306 0.950 . S
C1294 C1293 1.369 . S
C1294 C1295 1.392 . S
C1294 H1307 0.951 . S
C1295 C1294 1.392 . S
C1295 C1297 1.384 . S
H1296 C1298 0.949 . S
C1297 C1295 1.384 . S
C1297 C1298 1.385 . S
C1297 H1299 0.950 . S
C1298 C1292 1.404 . S
C1298 H1296 0.949 . S
C1298 C1297 1.385 . S
H1299 C1297 0.950 . S
H1300 C1284 0.951 . S
H1301 C1286 0.951 . S
H1302 C1288 0.951 . S
H1303 C1289 0.950 . S
H1304 C1290 0.950 . S
H1305 C1291 0.950 . S
H1306 C1293 0.950 . S
H1307 C1294 0.951 . S
C1308 C1309 1.386 1_545 S
C1308 C1310 1.383 . S
C1308 H1324 0.951 . S
C1309 C1308 1.386 1_565 S
C1309 C1313 1.383 . S
C1310 C1308 1.383 . S
C1310 C1311 1.402 1_545 S
C1310 H1325 0.951 . S
C1311 C1310 1.402 1_565 S
C1311 C1312 1.375 . S
C1311 C1314 1.481 . S
C1312 C1311 1.375 . S
C1312 C1313 1.367 . S
C1312 H1326 0.951 . S
C1313 C1309 1.383 . S
C1313 C1312 1.367 . S
C1313 H1327 0.950 . S
C1314 C1311 1.481 . S
C1314 C1315 1.232 1_565 S
C1314 H1328 0.950 . S
C1315 C1314 1.232 1_545 S
C1315 C1316 1.525 1_545 S
C1315 H1329 0.999 . S
C1316 C1315 1.525 1_565 S
C1316 C1317 1.323 1_565 S
C1316 C1322 1.436 . S
C1317 C1316 1.323 1_545 S
C1317 C1318 1.369 . S
C1317 H1330 0.950 . S
C1318 C1317 1.369 . S
C1318 C1319 1.392 1_545 S
C1318 H1331 0.951 . S
C1319 C1318 1.392 1_565 S
C1319 C1321 1.384 . S
H1320 C1322 0.949 . S
C1321 C1319 1.384 . S
C1321 C1322 1.385 . S
C1321 H1323 0.950 . S
C1322 C1316 1.436 . S
C1322 H1320 0.949 . S
C1322 C1321 1.385 . S
H1323 C1321 0.950 . S
H1324 C1308 0.951 . S
H1325 C1310 0.951 . S
H1326 C1312 0.951 . S
H1327 C1313 0.950 . S
H1328 C1314 0.950 . S
H1329 C1315 0.999 . S
H1330 C1317 0.950 . S
H1331 C1318 0.951 . S
C1332 C1333 1.386 . S
C1332 C1334 1.383 . S
C1332 H1348 0.951 . S
C1333 C1332 1.386 . S
C1333 C1337 1.383 . S
C1334 C1332 1.383 . S
C1334 C1335 1.402 . S
C1334 H1349 0.951 . S
C1335 C1334 1.402 . S
C1335 C1336 1.375 . S
C1335 C1338 1.481 . S
C1336 C1335 1.375 . S
C1336 C1337 1.367 . S
C1336 H1350 0.951 . S
C1337 C1333 1.383 . S
C1337 C1336 1.367 . S
C1337 H1351 0.950 . S
C1338 C1335 1.481 . S
C1338 C1339 1.297 . S
C1338 H1352 0.950 . S
C1339 C1338 1.297 . S
C1339 C1340 1.479 . S
C1339 H1353 0.950 . S
C1340 C1339 1.479 . S
C1340 C1341 1.375 . S
C1340 C1346 1.404 . S
C1341 C1340 1.375 . S
C1341 C1342 1.365 . S
C1341 H1354 0.937 1_545 S
C1342 C1341 1.365 . S
C1342 C1343 1.402 . S
C1342 H1355 0.944 1_545 S
C1343 C1342 1.402 . S
C1343 C1345 1.384 . S
H1344 C1346 0.949 . S
C1345 C1343 1.384 . S
C1345 C1346 1.385 . S
C1345 H1347 0.950 . S
C1346 C1340 1.404 . S
C1346 H1344 0.949 . S
C1346 C1345 1.385 . S
H1347 C1345 0.950 . S
H1348 C1332 0.951 . S
H1349 C1334 0.951 . S
H1350 C1336 0.951 . S
H1351 C1337 0.950 . S
H1352 C1338 0.950 . S
H1353 C1339 0.950 . S
H1354 C1341 0.937 1_565 S
H1355 C1342 0.944 1_565 S
C1356 C1357 1.386 . S
C1356 C1358 1.383 . S
C1356 H1372 0.951 . S
C1357 C1356 1.386 . S
C1357 C1361 1.383 . S
C1358 C1356 1.383 . S
C1358 C1359 1.402 . S
C1358 H1373 0.951 . S
C1359 C1358 1.402 . S
C1359 C1360 1.375 . S
C1359 C1362 1.481 . S
C1360 C1359 1.375 . S
C1360 C1361 1.367 . S
C1360 H1374 0.951 . S
C1361 C1357 1.383 . S
C1361 C1360 1.367 . S
C1361 H1375 0.950 . S
C1362 C1359 1.481 . S
C1362 C1363 1.297 . S
C1362 H1376 0.950 . S
C1363 C1362 1.297 . S
C1363 C1364 1.479 . S
C1363 H1377 0.950 . S
C1364 C1363 1.479 . S
C1364 C1365 1.375 . S
C1364 C1370 1.404 . S
C1365 C1364 1.375 . S
C1365 C1366 1.369 . S
C1365 H1378 0.950 . S
C1366 C1365 1.369 . S
C1366 C1367 1.392 . S
C1366 H1379 0.951 . S
C1367 C1366 1.392 . S
C1367 C1369 1.384 . S
H1368 C1370 0.949 . S
C1369 C1367 1.384 . S
C1369 C1370 1.385 . S
C1369 H1371 0.950 . S
C1370 C1364 1.404 . S
C1370 H1368 0.949 . S
C1370 C1369 1.385 . S
H1371 C1369 0.950 . S
H1372 C1356 0.951 . S
H1373 C1358 0.951 . S
H1374 C1360 0.951 . S
H1375 C1361 0.950 . S
H1376 C1362 0.950 . S
H1377 C1363 0.950 . S
H1378 C1365 0.950 . S
H1379 C1366 0.951 . S
C1380 C1381 1.386 . S
C1380 C1382 1.383 . S
C1380 H1396 0.951 . S
C1381 C1380 1.386 . S
C1381 C1385 1.383 . S
C1382 C1380 1.383 . S
C1382 C1383 1.402 . S
C1382 H1397 0.951 . S
C1383 C1382 1.402 . S
C1383 C1384 1.375 . S
C1383 C1386 1.481 . S
C1384 C1383 1.375 . S
C1384 C1385 1.367 . S
C1384 H1398 0.951 . S
C1385 C1381 1.383 . S
C1385 C1384 1.367 . S
C1385 H1399 0.950 . S
C1386 C1383 1.481 . S
C1386 C1387 1.297 . S
C1386 H1400 0.950 . S
C1387 C1386 1.297 . S
C1387 C1388 1.479 . S
C1387 H1401 0.950 . S
C1388 C1387 1.479 . S
C1388 C1389 1.375 . S
C1388 C1394 1.404 . S
C1389 C1388 1.375 . S
C1389 C1390 1.369 . S
C1389 H1402 0.950 . S
C1390 C1389 1.369 . S
C1390 C1391 1.392 . S
C1390 H1403 0.951 . S
C1391 C1390 1.392 . S
C1391 C1393 1.384 . S
H1392 C1394 0.949 . S
C1393 C1391 1.384 . S
C1393 C1394 1.385 . S
C1393 H1395 0.950 . S
C1394 C1388 1.404 . S
C1394 H1392 0.949 . S
C1394 C1393 1.385 . S
H1395 C1393 0.950 . S
H1396 C1380 0.951 . S
H1397 C1382 0.951 . S
H1398 C1384 0.951 . S
H1399 C1385 0.950 . S
H1400 C1386 0.950 . S
H1401 C1387 0.950 . S
H1402 C1389 0.950 . S
H1403 C1390 0.951 . S
C1404 C1405 1.386 . S
C1404 C1406 1.383 . S
C1404 H1420 0.951 . S
C1405 C1404 1.386 . S
C1405 C1409 1.383 . S
C1406 C1404 1.383 . S
C1406 C1407 1.402 . S
C1406 H1421 0.951 . S
C1407 C1406 1.402 . S
C1407 C1408 1.375 . S
C1407 C1410 1.481 . S
C1408 C1407 1.375 . S
C1408 C1409 1.367 . S
C1408 H1422 0.951 . S
C1409 C1405 1.383 . S
C1409 C1408 1.367 . S
C1409 H1423 0.950 . S
C1410 C1407 1.481 . S
C1410 C1411 1.297 . S
C1410 H1424 0.950 . S
C1411 C1410 1.297 . S
C1411 C1412 1.479 . S
C1411 H1425 0.950 . S
C1412 C1411 1.479 . S
C1412 C1413 1.375 . S
C1412 C1418 1.404 . S
C1413 C1412 1.375 . S
C1413 C1414 1.369 . S
C1413 H1426 0.950 . S
C1414 C1413 1.369 . S
C1414 C1415 1.392 . S
C1414 H1427 0.951 . S
C1415 C1414 1.392 . S
C1415 C1417 1.384 . S
H1416 C1418 0.949 . S
C1417 C1415 1.384 . S
C1417 C1418 1.385 . S
C1417 H1419 0.950 . S
C1418 C1412 1.404 . S
C1418 H1416 0.949 . S
C1418 C1417 1.385 . S
H1419 C1417 0.950 . S
H1420 C1404 0.951 . S
H1421 C1406 0.951 . S
H1422 C1408 0.951 . S
H1423 C1409 0.950 . S
H1424 C1410 0.950 . S
H1425 C1411 0.950 . S
H1426 C1413 0.950 . S
H1427 C1414 0.951 . S
C1428 C1429 1.386 . S
C1428 C1430 1.383 . S
C1428 H1444 0.951 . S
C1429 C1428 1.386 . S
C1429 C1433 1.383 . S
C1430 C1428 1.383 . S
C1430 C1431 1.402 . S
C1430 H1445 0.951 . S
C1431 C1430 1.402 . S
C1431 C1432 1.375 . S
C1431 C1434 1.481 . S
C1432 C1431 1.375 . S
C1432 C1433 1.367 . S
C1432 H1446 0.951 . S
C1433 C1429 1.383 . S
C1433 C1432 1.367 . S
C1433 H1447 0.950 . S
C1434 C1431 1.481 . S
C1434 C1435 1.297 . S
C1434 H1448 0.950 . S
C1435 C1434 1.297 . S
C1435 C1436 1.479 . S
C1435 H1449 0.950 . S
C1436 C1435 1.479 . S
C1436 C1437 1.375 . S
C1436 C1442 1.404 . S
C1437 C1436 1.375 . S
C1437 C1438 1.369 . S
C1437 H1450 0.950 . S
C1438 C1437 1.369 . S
C1438 C1439 1.392 . S
C1438 H1451 0.951 . S
C1439 C1438 1.392 . S
C1439 C1441 1.384 . S
H1440 C1442 0.949 . S
C1441 C1439 1.384 . S
C1441 C1442 1.385 . S
C1441 H1443 0.950 . S
C1442 C1436 1.404 . S
C1442 H1440 0.949 . S
C1442 C1441 1.385 . S
H1443 C1441 0.950 . S
H1444 C1428 0.951 . S
H1445 C1430 0.951 . S
H1446 C1432 0.951 . S
H1447 C1433 0.950 . S
H1448 C1434 0.950 . S
H1449 C1435 0.950 . S
H1450 C1437 0.950 . S
H1451 C1438 0.951 . S
C1452 C1453 1.386 . S
C1452 C1454 1.383 . S
C1452 H1468 0.951 . S
C1453 C1452 1.386 . S
C1453 C1457 1.383 . S
C1454 C1452 1.383 . S
C1454 C1455 1.402 . S
C1454 H1469 0.951 . S
C1455 C1454 1.402 . S
C1455 C1456 1.375 . S
C1455 C1458 1.481 . S
C1456 C1455 1.375 . S
C1456 C1457 1.367 . S
C1456 H1470 0.951 . S
C1457 C1453 1.383 . S
C1457 C1456 1.367 . S
C1457 H1471 0.950 . S
C1458 C1455 1.481 . S
C1458 C1459 1.297 . S
C1458 H1472 0.950 . S
C1459 C1458 1.297 . S
C1459 C1460 1.479 . S
C1459 H1473 0.950 . S
C1460 C1459 1.479 . S
C1460 C1461 1.375 . S
C1460 C1466 1.404 . S
C1461 C1460 1.375 . S
C1461 C1462 1.369 . S
C1461 H1474 0.950 . S
C1462 C1461 1.369 . S
C1462 C1463 1.392 . S
C1462 H1475 0.951 . S
C1463 C1462 1.392 . S
C1463 C1465 1.384 . S
H1464 C1466 0.949 . S
C1465 C1463 1.384 . S
C1465 C1466 1.385 . S
C1465 H1467 0.950 . S
C1466 C1460 1.404 . S
C1466 H1464 0.949 . S
C1466 C1465 1.385 . S
H1467 C1465 0.950 . S
H1468 C1452 0.951 . S
H1469 C1454 0.951 . S
H1470 C1456 0.951 . S
H1471 C1457 0.950 . S
H1472 C1458 0.950 . S
H1473 C1459 0.950 . S
H1474 C1461 0.950 . S
H1475 C1462 0.951 . S
C1476 C1477 1.386 . S
C1476 C1478 1.383 . S
C1476 H1492 0.951 . S
C1477 C1476 1.386 . S
C1477 C1481 1.383 . S
C1478 C1476 1.383 . S
C1478 C1479 1.402 . S
C1478 H1493 0.951 . S
C1479 C1478 1.402 . S
C1479 C1480 1.375 . S
C1479 C1482 1.481 . S
C1480 C1479 1.375 . S
C1480 C1481 1.367 . S
C1480 H1494 0.951 . S
C1481 C1477 1.383 . S
C1481 C1480 1.367 . S
C1481 H1495 0.950 . S
C1482 C1479 1.481 . S
C1482 C1483 1.297 . S
C1482 H1496 0.950 . S
C1483 C1482 1.297 . S
C1483 C1484 1.479 . S
C1483 H1497 0.950 . S
C1484 C1483 1.479 . S
C1484 C1485 1.375 . S
C1484 C1490 1.404 . S
C1485 C1484 1.375 . S
C1485 C1486 1.369 . S
C1485 H1498 0.950 . S
C1486 C1485 1.369 . S
C1486 C1487 1.392 . S
C1486 H1499 0.951 . S
C1487 C1486 1.392 . S
C1487 C1489 1.384 . S
H1488 C1490 0.949 . S
C1489 C1487 1.384 . S
C1489 C1490 1.385 . S
C1489 H1491 0.950 . S
C1490 C1484 1.404 . S
C1490 H1488 0.949 . S
C1490 C1489 1.385 . S
H1491 C1489 0.950 . S
H1492 C1476 0.951 . S
H1493 C1478 0.951 . S
H1494 C1480 0.951 . S
H1495 C1481 0.950 . S
H1496 C1482 0.950 . S
H1497 C1483 0.950 . S
H1498 C1485 0.950 . S
H1499 C1486 0.951 . S
C1500 C1501 1.386 . S
C1500 C1502 1.383 . S
C1500 H1516 0.951 . S
C1501 C1500 1.386 . S
C1501 C1505 1.383 . S
C1502 C1500 1.383 . S
C1502 C1503 1.402 . S
C1502 H1517 0.951 . S
C1503 C1502 1.402 . S
C1503 C1504 1.375 . S
C1503 C1506 1.481 . S
C1504 C1503 1.375 . S
C1504 C1505 1.367 . S
C1504 H1518 0.951 . S
C1505 C1501 1.383 . S
C1505 C1504 1.367 . S
C1505 H1519 0.950 . S
C1506 C1503 1.481 . S
C1506 C1507 1.297 . S
C1506 H1520 0.950 . S
C1507 C1506 1.297 . S
C1507 C1508 1.479 . S
C1507 H1521 0.950 . S
C1508 C1507 1.479 . S
C1508 C1509 1.375 . S
C1508 C1514 1.404 . S
C1509 C1508 1.375 . S
C1509 C1510 1.369 . S
C1509 H1522 0.950 . S
C1510 C1509 1.369 . S
C1510 C1511 1.392 . S
C1510 H1523 0.951 . S
C1511 C1510 1.392 . S
C1511 C1513 1.384 . S
H1512 C1514 0.949 . S
C1513 C1511 1.384 . S
C1513 C1514 1.385 . S
C1513 H1515 0.950 . S
C1514 C1508 1.404 . S
C1514 H1512 0.949 . S
C1514 C1513 1.385 . S
H1515 C1513 0.950 . S
H1516 C1500 0.951 . S
H1517 C1502 0.951 . S
H1518 C1504 0.951 . S
H1519 C1505 0.950 . S
H1520 C1506 0.950 . S
H1521 C1507 0.950 . S
H1522 C1509 0.950 . S
H1523 C1510 0.951 . S
C1524 C1525 1.386 . S
C1524 C1526 1.383 . S
C1524 H1540 0.951 . S
C1525 C1524 1.386 . S
C1525 C1529 1.383 . S
C1526 C1524 1.383 . S
C1526 C1527 1.402 . S
C1526 H1541 0.951 . S
C1527 C1526 1.402 . S
C1527 C1528 1.375 . S
C1527 C1530 1.481 . S
C1528 C1527 1.375 . S
C1528 C1529 1.367 . S
C1528 H1542 0.951 . S
C1529 C1525 1.383 . S
C1529 C1528 1.367 . S
C1529 H1543 0.950 . S
C1530 C1527 1.481 . S
C1530 C1531 1.297 . S
C1530 H1544 0.950 . S
C1531 C1530 1.297 . S
C1531 C1532 1.479 . S
C1531 H1545 0.950 . S
C1532 C1531 1.479 . S
C1532 C1533 1.375 . S
C1532 C1538 1.404 . S
C1533 C1532 1.375 . S
C1533 C1534 1.369 . S
C1533 H1546 0.950 . S
C1534 C1533 1.369 . S
C1534 C1535 1.392 . S
C1534 H1547 0.951 . S
C1535 C1534 1.392 . S
C1535 C1537 1.384 . S
H1536 C1538 0.949 . S
C1537 C1535 1.384 . S
C1537 C1538 1.385 . S
C1537 H1539 0.950 . S
C1538 C1532 1.404 . S
C1538 H1536 0.949 . S
C1538 C1537 1.385 . S
H1539 C1537 0.950 . S
H1540 C1524 0.951 . S
H1541 C1526 0.951 . S
H1542 C1528 0.951 . S
H1543 C1529 0.950 . S
H1544 C1530 0.950 . S
H1545 C1531 0.950 . S
H1546 C1533 0.950 . S
H1547 C1534 0.951 . S
C1548 C1549 1.386 . S
C1548 C1550 1.383 . S
C1548 H1564 0.951 . S
C1549 C1548 1.386 . S
C1549 C1553 1.383 . S
C1550 C1548 1.383 . S
C1550 C1551 1.402 . S
C1550 H1565 0.951 . S
C1551 C1550 1.402 . S
C1551 C1552 1.375 . S
C1551 C1554 1.481 . S
C1552 C1551 1.375 . S
C1552 C1553 1.367 . S
C1552 H1566 0.951 . S
C1553 C1549 1.383 . S
C1553 C1552 1.367 . S
C1553 H1567 0.950 . S
C1554 C1551 1.481 . S
C1554 C1555 1.297 . S
C1554 H1568 0.950 . S
C1555 C1554 1.297 . S
C1555 C1556 1.479 . S
C1555 H1569 0.950 . S
C1556 C1555 1.479 . S
C1556 C1557 1.375 . S
C1556 C1562 1.404 . S
C1557 C1556 1.375 . S
C1557 C1558 1.369 . S
C1557 H1570 0.950 . S
C1558 C1557 1.369 . S
C1558 C1559 1.392 . S
C1558 H1571 0.951 . S
C1559 C1558 1.392 . S
C1559 C1561 1.384 . S
H1560 C1562 0.949 . S
C1561 C1559 1.384 . S
C1561 C1562 1.385 . S
C1561 H1563 0.950 . S
C1562 C1556 1.404 . S
C1562 H1560 0.949 . S
C1562 C1561 1.385 . S
H1563 C1561 0.950 . S
H1564 C1548 0.951 . S
H1565 C1550 0.951 . S
H1566 C1552 0.951 . S
H1567 C1553 0.950 . S
H1568 C1554 0.950 . S
H1569 C1555 0.950 . S
H1570 C1557 0.950 . S
H1571 C1558 0.951 . S
C1572 C1573 1.386 . S
C1572 C1574 1.383 . S
C1572 H1588 0.951 . S
C1573 C1572 1.386 . S
C1573 C1577 1.383 . S
C1574 C1572 1.383 . S
C1574 C1575 1.402 . S
C1574 H1589 0.951 . S
C1575 C1574 1.402 . S
C1575 C1576 1.375 . S
C1575 C1578 1.481 . S
C1576 C1575 1.375 . S
C1576 C1577 1.367 . S
C1576 H1590 0.951 . S
C1577 C1573 1.383 . S
C1577 C1576 1.367 . S
C1577 H1591 0.950 . S
C1578 C1575 1.481 . S
C1578 C1579 1.297 . S
C1578 H1592 0.950 . S
C1579 C1578 1.297 . S
C1579 C1580 1.479 . S
C1579 H1593 0.950 . S
C1580 C1579 1.479 . S
C1580 C1581 1.375 . S
C1580 C1586 1.404 . S
C1581 C1580 1.375 . S
C1581 C1582 1.369 . S
C1581 H1594 0.950 . S
C1582 C1581 1.369 . S
C1582 C1583 1.392 . S
C1582 H1595 0.951 . S
C1583 C1582 1.392 . S
C1583 C1585 1.384 . S
H1584 C1586 0.949 . S
C1585 C1583 1.384 . S
C1585 C1586 1.385 . S
C1585 H1587 0.950 . S
C1586 C1580 1.404 . S
C1586 H1584 0.949 . S
C1586 C1585 1.385 . S
H1587 C1585 0.950 . S
H1588 C1572 0.951 . S
H1589 C1574 0.951 . S
H1590 C1576 0.951 . S
H1591 C1577 0.950 . S
H1592 C1578 0.950 . S
H1593 C1579 0.950 . S
H1594 C1581 0.950 . S
H1595 C1582 0.951 . S
C1596 C1597 1.386 . S
C1596 C1598 1.383 . S
C1596 H1612 0.951 . S
C1597 C1596 1.386 . S
C1597 C1601 1.383 . S
C1598 C1596 1.383 . S
C1598 C1599 1.402 . S
C1598 H1613 0.951 . S
C1599 C1598 1.402 . S
C1599 C1600 1.375 . S
C1599 C1602 1.481 . S
C1600 C1599 1.375 . S
C1600 C1601 1.367 . S
C1600 H1614 0.951 . S
C1601 C1597 1.383 . S
C1601 C1600 1.367 . S
C1601 H1615 0.950 . S
C1602 C1599 1.481 . S
C1602 C1603 1.297 . S
C1602 H1616 0.950 . S
C1603 C1602 1.297 . S
C1603 C1604 1.479 . S
C1603 H1617 0.950 . S
C1604 C1603 1.479 . S
C1604 C1605 1.375 . S
C1604 C1610 1.404 . S
C1605 C1604 1.375 . S
C1605 C1606 1.369 . S
C1605 H1618 0.950 . S
C1606 C1605 1.369 . S
C1606 C1607 1.392 . S
C1606 H1619 0.951 . S
C1607 C1606 1.392 . S
C1607 C1609 1.384 . S
H1608 C1610 0.949 . S
C1609 C1607 1.384 . S
C1609 C1610 1.385 . S
C1609 H1611 0.950 . S
C1610 C1604 1.404 . S
C1610 H1608 0.949 . S
C1610 C1609 1.385 . S
H1611 C1609 0.950 . S
H1612 C1596 0.951 . S
H1613 C1598 0.951 . S
H1614 C1600 0.951 . S
H1615 C1601 0.950 . S
H1616 C1602 0.950 . S
H1617 C1603 0.950 . S
H1618 C1605 0.950 . S
H1619 C1606 0.951 . S
C1620 C1621 1.386 . S
C1620 C1622 1.383 . S
C1620 H1636 0.951 . S
C1621 C1620 1.386 . S
C1621 C1625 1.383 . S
C1622 C1620 1.383 . S
C1622 C1623 1.402 . S
C1622 H1637 0.951 . S
C1623 C1622 1.402 . S
C1623 C1624 1.375 . S
C1623 C1626 1.481 . S
C1624 C1623 1.375 . S
C1624 C1625 1.367 . S
C1624 H1638 0.951 . S
C1625 C1621 1.383 . S
C1625 C1624 1.367 . S
C1625 H1639 0.950 . S
C1626 C1623 1.481 . S
C1626 C1627 1.297 . S
C1626 H1640 0.950 . S
C1627 C1626 1.297 . S
C1627 C1628 1.479 . S
C1627 H1641 0.950 . S
C1628 C1627 1.479 . S
C1628 C1629 1.375 . S
C1628 C1634 1.404 . S
C1629 C1628 1.375 . S
C1629 C1630 1.369 . S
C1629 H1642 0.950 . S
C1630 C1629 1.369 . S
C1630 C1631 1.392 . S
C1630 H1643 0.951 . S
C1631 C1630 1.392 . S
C1631 C1633 1.384 . S
H1632 C1634 0.949 . S
C1633 C1631 1.384 . S
C1633 C1634 1.385 . S
C1633 H1635 0.950 . S
C1634 C1628 1.404 . S
C1634 H1632 0.949 . S
C1634 C1633 1.385 . S
H1635 C1633 0.950 . S
H1636 C1620 0.951 . S
H1637 C1622 0.951 . S
H1638 C1624 0.951 . S
H1639 C1625 0.950 . S
H1640 C1626 0.950 . S
H1641 C1627 0.950 . S
H1642 C1629 0.950 . S
H1643 C1630 0.951 . S
C1644 C1645 1.386 . S
C1644 C1646 1.383 . S
C1644 H1660 0.951 . S
C1645 C1644 1.386 . S
C1645 C1649 1.383 . S
C1646 C1644 1.383 . S
C1646 C1647 1.402 . S
C1646 H1661 0.951 . S
C1647 C1646 1.402 . S
C1647 C1648 1.375 . S
C1647 C1650 1.481 . S
C1648 C1647 1.375 . S
C1648 C1649 1.367 . S
C1648 H1662 0.951 . S
C1649 C1645 1.383 . S
C1649 C1648 1.367 . S
C1649 H1663 0.950 . S
C1650 C1647 1.481 . S
C1650 C1651 1.297 . S
C1650 H1664 0.950 . S
C1651 C1650 1.297 . S
C1651 C1652 1.479 . S
C1651 H1665 0.950 . S
C1652 C1651 1.479 . S
C1652 C1653 1.375 . S
C1652 C1658 1.404 . S
C1653 C1652 1.375 . S
C1653 C1654 1.369 . S
C1653 H1666 0.950 . S
C1654 C1653 1.369 . S
C1654 C1655 1.392 . S
C1654 H1667 0.951 . S
C1655 C1654 1.392 . S
C1655 C1657 1.384 . S
H1656 C1658 0.949 . S
C1657 C1655 1.384 . S
C1657 C1658 1.385 . S
C1657 H1659 0.950 . S
C1658 C1652 1.404 . S
C1658 H1656 0.949 . S
C1658 C1657 1.385 . S
H1659 C1657 0.950 . S
H1660 C1644 0.951 . S
H1661 C1646 0.951 . S
H1662 C1648 0.951 . S
H1663 C1649 0.950 . S
H1664 C1650 0.950 . S
H1665 C1651 0.950 . S
H1666 C1653 0.950 . S
H1667 C1654 0.951 . S
C1668 C1669 1.386 . S
C1668 C1670 1.383 . S
C1668 H1684 0.951 . S
C1669 C1668 1.386 . S
C1669 C1673 1.383 . S
C1670 C1668 1.383 . S
C1670 C1671 1.402 . S
C1670 H1685 0.951 . S
C1671 C1670 1.402 . S
C1671 C1672 1.375 . S
C1671 C1674 1.481 . S
C1672 C1671 1.375 . S
C1672 C1673 1.367 . S
C1672 H1686 0.951 . S
C1673 C1669 1.383 . S
C1673 C1672 1.367 . S
C1673 H1687 0.950 . S
C1674 C1671 1.481 . S
C1674 C1675 1.297 . S
C1674 H1688 0.950 . S
C1675 C1674 1.297 . S
C1675 C1676 1.479 . S
C1675 H1689 0.950 . S
C1676 C1675 1.479 . S
C1676 C1677 1.375 . S
C1676 C1682 1.404 . S
C1677 C1676 1.375 . S
C1677 C1678 1.369 . S
C1677 H1690 0.950 . S
C1678 C1677 1.369 . S
C1678 C1679 1.392 . S
C1678 H1691 0.951 . S
C1679 C1678 1.392 . S
C1679 C1681 1.384 . S
H1680 C1682 0.949 . S
C1681 C1679 1.384 . S
C1681 C1682 1.385 . S
C1681 H1683 0.950 . S
C1682 C1676 1.404 . S
C1682 H1680 0.949 . S
C1682 C1681 1.385 . S
H1683 C1681 0.950 . S
H1684 C1668 0.951 . S
H1685 C1670 0.951 . S
H1686 C1672 0.951 . S
H1687 C1673 0.950 . S
H1688 C1674 0.950 . S
H1689 C1675 0.950 . S
H1690 C1677 0.950 . S
H1691 C1678 0.951 . S
C1692 C1693 1.386 . S
C1692 C1694 1.383 . S
C1692 H1708 0.951 . S
C1693 C1692 1.386 . S
C1693 C1697 1.383 . S
C1694 C1692 1.383 . S
C1694 C1695 1.402 . S
C1694 H1709 0.951 . S
C1695 C1694 1.402 . S
C1695 C1696 1.375 . S
C1695 C1698 1.481 . S
C1696 C1695 1.375 . S
C1696 C1697 1.367 . S
C1696 H1710 0.951 . S
C1697 C1693 1.383 . S
C1697 C1696 1.367 . S
C1697 H1711 0.950 . S
C1698 C1695 1.481 . S
C1698 C1699 1.297 . S
C1698 H1712 0.950 . S
C1699 C1698 1.297 . S
C1699 C1700 1.479 . S
C1699 H1713 0.950 . S
C1700 C1699 1.479 . S
C1700 C1701 1.375 . S
C1700 C1706 1.404 . S
C1701 C1700 1.375 . S
C1701 C1702 1.369 . S
C1701 H1714 0.950 . S
C1702 C1701 1.369 . S
C1702 C1703 1.392 . S
C1702 H1715 0.951 . S
C1703 C1702 1.392 . S
C1703 C1705 1.384 . S
H1704 C1706 0.949 . S
C1705 C1703 1.384 . S
C1705 C1706 1.385 . S
C1705 H1707 0.950 . S
C1706 C1700 1.404 . S
C1706 H1704 0.949 . S
C1706 C1705 1.385 . S
H1707 C1705 0.950 . S
H1708 C1692 0.951 . S
H1709 C1694 0.951 . S
H1710 C1696 0.951 . S
H1711 C1697 0.950 . S
H1712 C1698 0.950 . S
H1713 C1699 0.950 . S
H1714 C1701 0.950 . S
H1715 C1702 0.951 . S
C1716 C1717 1.386 . S
C1716 C1718 1.383 . S
C1716 H1732 0.951 . S
C1717 C1716 1.386 . S
C1717 C1721 1.383 . S
C1718 C1716 1.383 . S
C1718 C1719 1.402 . S
C1718 H1733 0.951 . S
C1719 C1718 1.402 . S
C1719 C1720 1.375 . S
C1719 C1722 1.481 . S
C1720 C1719 1.375 . S
C1720 C1721 1.367 . S
C1720 H1734 0.951 . S
C1721 C1717 1.383 . S
C1721 C1720 1.367 . S
C1721 H1735 0.950 . S
C1722 C1719 1.481 . S
C1722 C1723 1.297 . S
C1722 H1736 0.950 . S
C1723 C1722 1.297 . S
C1723 C1724 1.479 . S
C1723 H1737 0.950 . S
C1724 C1723 1.479 . S
C1724 C1725 1.375 . S
C1724 C1730 1.404 . S
C1725 C1724 1.375 . S
C1725 C1726 1.369 . S
C1725 H1738 0.950 . S
C1726 C1725 1.369 . S
C1726 C1727 1.392 . S
C1726 H1739 0.951 . S
C1727 C1726 1.392 . S
C1727 C1729 1.384 . S
H1728 C1730 0.949 . S
C1729 C1727 1.384 . S
C1729 C1730 1.385 . S
C1729 H1731 0.950 . S
C1730 C1724 1.404 . S
C1730 H1728 0.949 . S
C1730 C1729 1.385 . S
H1731 C1729 0.950 . S
H1732 C1716 0.951 . S
H1733 C1718 0.951 . S
H1734 C1720 0.951 . S
H1735 C1721 0.950 . S
H1736 C1722 0.950 . S
H1737 C1723 0.950 . S
H1738 C1725 0.950 . S
H1739 C1726 0.951 . S
C1740 C1741 1.386 . S
C1740 C1742 1.383 . S
C1740 H1756 0.951 . S
C1741 C1740 1.386 . S
C1741 C1745 1.383 . S
C1742 C1740 1.383 . S
C1742 C1743 1.402 . S
C1742 H1757 0.951 . S
C1743 C1742 1.402 . S
C1743 C1744 1.375 . S
C1743 C1746 1.481 . S
C1744 C1743 1.375 . S
C1744 C1745 1.367 . S
C1744 H1758 0.951 . S
C1745 C1741 1.383 . S
C1745 C1744 1.367 . S
C1745 H1759 0.950 . S
C1746 C1743 1.481 . S
C1746 C1747 1.297 . S
C1746 H1760 0.950 . S
C1747 C1746 1.297 . S
C1747 C1748 1.479 . S
C1747 H1761 0.950 . S
C1748 C1747 1.479 . S
C1748 C1749 1.375 . S
C1748 C1754 1.404 . S
C1749 C1748 1.375 . S
C1749 C1750 1.369 . S
C1749 H1762 0.950 . S
C1750 C1749 1.369 . S
C1750 C1751 1.392 . S
C1750 H1763 0.951 . S
C1751 C1750 1.392 . S
C1751 C1753 1.384 . S
H1752 C1754 0.949 . S
C1753 C1751 1.384 . S
C1753 C1754 1.385 . S
C1753 H1755 0.950 . S
C1754 C1748 1.404 . S
C1754 H1752 0.949 . S
C1754 C1753 1.385 . S
H1755 C1753 0.950 . S
H1756 C1740 0.951 . S
H1757 C1742 0.951 . S
H1758 C1744 0.951 . S
H1759 C1745 0.950 . S
H1760 C1746 0.950 . S
H1761 C1747 0.950 . S
H1762 C1749 0.950 . S
H1763 C1750 0.951 . S
C1764 C1765 1.386 . S
C1764 C1766 1.383 . S
C1764 H1780 0.951 . S
C1765 C1764 1.386 . S
C1765 C1769 1.383 . S
C1766 C1764 1.383 . S
C1766 C1767 1.402 . S
C1766 H1781 0.951 . S
C1767 C1766 1.402 . S
C1767 C1768 1.375 . S
C1767 C1770 1.481 . S
C1768 C1767 1.375 . S
C1768 C1769 1.367 . S
C1768 H1782 0.951 . S
C1769 C1765 1.383 . S
C1769 C1768 1.367 . S
C1769 H1783 0.950 . S
C1770 C1767 1.481 . S
C1770 C1771 1.297 . S
C1770 H1784 0.950 . S
C1771 C1770 1.297 . S
C1771 C1772 1.479 . S
C1771 H1785 0.950 . S
C1772 C1771 1.479 . S
C1772 C1773 1.375 . S
C1772 C1778 1.404 . S
C1773 C1772 1.375 . S
C1773 C1774 1.369 . S
C1773 H1786 0.950 . S
C1774 C1773 1.369 . S
C1774 C1775 1.392 . S
C1774 H1787 0.951 . S
C1775 C1774 1.392 . S
C1775 C1777 1.384 . S
H1776 C1778 0.949 . S
C1777 C1775 1.384 . S
C1777 C1778 1.385 . S
C1777 H1779 0.950 . S
C1778 C1772 1.404 . S
C1778 H1776 0.949 . S
C1778 C1777 1.385 . S
H1779 C1777 0.950 . S
H1780 C1764 0.951 . S
H1781 C1766 0.951 . S
H1782 C1768 0.951 . S
H1783 C1769 0.950 . S
H1784 C1770 0.950 . S
H1785 C1771 0.950 . S
H1786 C1773 0.950 . S
H1787 C1774 0.951 . S
C1788 C1789 1.386 . S
C1788 C1790 1.383 . S
C1788 H1804 0.951 . S
C1789 C1788 1.386 . S
C1789 C1793 1.383 . S
C1790 C1788 1.383 . S
C1790 C1791 1.402 . S
C1790 H1805 0.951 . S
C1791 C1790 1.402 . S
C1791 C1792 1.375 . S
C1791 C1794 1.481 . S
C1792 C1791 1.375 . S
C1792 C1793 1.367 . S
C1792 H1806 0.951 . S
C1793 C1789 1.383 . S
C1793 C1792 1.367 . S
C1793 H1807 0.950 . S
C1794 C1791 1.481 . S
C1794 C1795 1.297 . S
C1794 H1808 0.950 . S
C1795 C1794 1.297 . S
C1795 C1796 1.479 . S
C1795 H1809 0.950 . S
C1796 C1795 1.479 . S
C1796 C1797 1.375 . S
C1796 C1802 1.404 . S
C1797 C1796 1.375 . S
C1797 C1798 1.369 . S
C1797 H1810 0.950 . S
C1798 C1797 1.369 . S
C1798 C1799 1.392 . S
C1798 H1811 0.951 . S
C1799 C1798 1.392 . S
C1799 C1801 1.384 . S
H1800 C1802 0.949 . S
C1801 C1799 1.384 . S
C1801 C1802 1.385 . S
C1801 H1803 0.950 . S
C1802 C1796 1.404 . S
C1802 H1800 0.949 . S
C1802 C1801 1.385 . S
H1803 C1801 0.950 . S
H1804 C1788 0.951 . S
H1805 C1790 0.951 . S
H1806 C1792 0.951 . S
H1807 C1793 0.950 . S
H1808 C1794 0.950 . S
H1809 C1795 0.950 . S
H1810 C1797 0.950 . S
H1811 C1798 0.951 . S
C1812 C1813 1.386 . S
C1812 C1814 1.383 . S
C1812 H1828 0.951 . S
C1813 C1812 1.386 . S
C1813 C1817 1.383 . S
C1814 C1812 1.383 . S
C1814 C1815 1.402 . S
C1814 H1829 0.951 . S
C1815 C1814 1.402 . S
C1815 C1816 1.375 . S
C1815 C1818 1.481 . S
C1816 C1815 1.375 . S
C1816 C1817 1.367 . S
C1816 H1830 0.951 . S
C1817 C1813 1.383 . S
C1817 C1816 1.367 . S
C1817 H1831 0.950 . S
C1818 C1815 1.481 . S
C1818 C1819 1.297 . S
C1818 H1832 0.950 . S
C1819 C1818 1.297 . S
C1819 C1820 1.479 . S
C1819 H1833 0.950 . S
C1820 C1819 1.479 . S
C1820 C1821 1.375 . S
C1820 C1826 1.404 . S
C1821 C1820 1.375 . S
C1821 C1822 1.369 . S
C1821 H1834 0.950 . S
C1822 C1821 1.369 . S
C1822 C1823 1.392 . S
C1822 H1835 0.951 . S
C1823 C1822 1.392 . S
C1823 C1825 1.384 . S
H1824 C1826 0.949 . S
C1825 C1823 1.384 . S
C1825 C1826 1.385 . S
C1825 H1827 0.950 . S
C1826 C1820 1.404 . S
C1826 H1824 0.949 . S
C1826 C1825 1.385 . S
H1827 C1825 0.950 . S
H1828 C1812 0.951 . S
H1829 C1814 0.951 . S
H1830 C1816 0.951 . S
H1831 C1817 0.950 . S
H1832 C1818 0.950 . S
H1833 C1819 0.950 . S
H1834 C1821 0.950 . S
H1835 C1822 0.951 . S
C1836 C1837 1.386 . S
C1836 C1838 1.383 . S
C1836 H1852 0.951 . S
C1837 C1836 1.386 . S
C1837 C1841 1.383 . S
C1838 C1836 1.383 . S
C1838 C1839 1.402 . S
C1838 H1853 0.951 . S
C1839 C1838 1.402 . S
C1839 C1840 1.375 . S
C1839 C1842 1.481 . S
C1840 C1839 1.375 . S
C1840 C1841 1.367 . S
C1840 H1854 0.951 . S
C1841 C1837 1.383 . S
C1841 C1840 1.367 . S
C1841 H1855 0.950 . S
C1842 C1839 1.481 . S
C1842 C1843 1.297 . S
C1842 H1856 0.950 . S
C1843 C1842 1.297 . S
C1843 C1844 1.479 . S
C1843 H1857 0.950 . S
C1844 C1843 1.479 . S
C1844 C1845 1.375 . S
C1844 C1850 1.404 . S
C1845 C1844 1.375 . S
C1845 C1846 1.369 . S
C1845 H1858 0.950 . S
C1846 C1845 1.369 . S
C1846 C1847 1.392 . S
C1846 H1859 0.951 . S
C1847 C1846 1.392 . S
C1847 C1849 1.384 . S
H1848 C1850 0.949 . S
C1849 C1847 1.384 . S
C1849 C1850 1.385 . S
C1849 H1851 0.950 . S
C1850 C1844 1.404 . S
C1850 H1848 0.949 . S
C1850 C1849 1.385 . S
H1851 C1849 0.950 . S
H1852 C1836 0.951 . S
H1853 C1838 0.951 . S
H1854 C1840 0.951 . S
H1855 C1841 0.950 . S
H1856 C1842 0.950 . S
H1857 C1843 0.950 . S
H1858 C1845 0.950 . S
H1859 C1846 0.951 . S
C1860 C1861 1.386 . S
C1860 C1862 1.383 . S
C1860 H1876 0.951 . S
C1861 C1860 1.386 . S
C1861 C1865 1.383 . S
C1862 C1860 1.383 . S
C1862 C1863 1.402 . S
C1862 H1877 0.951 . S
C1863 C1862 1.402 . S
C1863 C1864 1.375 . S
C1863 C1866 1.481 . S
C1864 C1863 1.375 . S
C1864 C1865 1.367 . S
C1864 H1878 0.951 . S
C1865 C1861 1.383 . S
C1865 C1864 1.367 . S
C1865 H1879 0.950 . S
C1866 C1863 1.481 . S
C1866 C1867 1.297 . S
C1866 H1880 0.950 . S
C1867 C1866 1.297 . S
C1867 C1868 1.479 . S
C1867 H1881 0.950 . S
C1868 C1867 1.479 . S
C1868 C1869 1.375 . S
C1868 C1874 1.404 . S
C1869 C1868 1.375 . S
C1869 C1870 1.369 . S
C1869 H1882 0.950 . S
C1870 C1869 1.369 . S
C1870 C1871 1.392 . S
C1870 H1883 0.951 . S
C1871 C1870 1.392 . S
C1871 C1873 1.384 . S
H1872 C1874 0.949 . S
C1873 C1871 1.384 . S
C1873 C1874 1.385 . S
C1873 H1875 0.950 . S
C1874 C1868 1.404 . S
C1874 H1872 0.949 . S
C1874 C1873 1.385 . S
H1875 C1873 0.950 . S
H1876 C1860 0.951 . S
H1877 C1862 0.951 . S
H1878 C1864 0.951 . S
H1879 C1865 0.950 . S
H1880 C1866 0.950 . S
H1881 C1867 0.950 . S
H1882 C1869 0.950 . S
H1883 C1870 0.951 . S
C1884 C1885 1.386 . S
C1884 C1886 1.383 . S
C1884 H1900 0.951 . S
C1885 C1884 1.386 . S
C1885 C1889 1.383 . S
C1886 C1884 1.383 . S
C1886 C1887 1.402 . S
C1886 H1901 0.951 . S
C1887 C1886 1.402 . S
C1887 C1888 1.375 . S
C1887 C1890 1.481 . S
C1888 C1887 1.375 . S
C1888 C1889 1.367 . S
C1888 H1902 0.951 . S
C1889 C1885 1.383 . S
C1889 C1888 1.367 . S
C1889 H1903 0.950 . S
C1890 C1887 1.481 . S
C1890 C1891 1.297 . S
C1890 H1904 0.950 . S
C1891 C1890 1.297 . S
C1891 C1892 1.479 . S
C1891 H1905 0.950 . S
C1892 C1891 1.479 . S
C1892 C1893 1.375 . S
C1892 C1898 1.404 . S
C1893 C1892 1.375 . S
C1893 C1894 1.369 . S
C1893 H1906 0.950 . S
C1894 C1893 1.369 . S
C1894 C1895 1.392 . S
C1894 H1907 0.951 . S
C1895 C1894 1.392 . S
C1895 C1897 1.384 . S
H1896 C1898 0.949 . S
C1897 C1895 1.384 . S
C1897 C1898 1.385 . S
C1897 H1899 0.950 . S
C1898 C1892 1.404 . S
C1898 H1896 0.949 . S
C1898 C1897 1.385 . S
H1899 C1897 0.950 . S
H1900 C1884 0.951 . S
H1901 C1886 0.951 . S
H1902 C1888 0.951 . S
H1903 C1889 0.950 . S
H1904 C1890 0.950 . S
H1905 C1891 0.950 . S
H1906 C1893 0.950 . S
H1907 C1894 0.951 . S
C1908 C1909 1.386 . S
C1908 C1910 1.383 . S
C1908 H1924 0.951 . S
C1909 C1908 1.386 . S
C1909 C1913 1.383 . S
C1910 C1908 1.383 . S
C1910 C1911 1.402 . S
C1910 H1925 0.951 . S
C1911 C1910 1.402 . S
C1911 C1912 1.375 . S
C1911 C1914 1.481 . S
C1912 C1911 1.375 . S
C1912 C1913 1.367 . S
C1912 H1926 0.951 . S
C1913 C1909 1.383 . S
C1913 C1912 1.367 . S
C1913 H1927 0.950 . S
C1914 C1911 1.481 . S
C1914 C1915 1.297 . S
C1914 H1928 0.950 . S
C1915 C1914 1.297 . S
C1915 C1916 1.479 . S
C1915 H1929 0.950 . S
C1916 C1915 1.479 . S
C1916 C1917 1.375 . S
C1916 C1922 1.404 . S
C1917 C1916 1.375 . S
C1917 C1918 1.369 . S
C1917 H1930 0.950 . S
C1918 C1917 1.369 . S
C1918 C1919 1.392 . S
C1918 H1931 0.951 . S
C1919 C1918 1.392 . S
C1919 C1921 1.384 . S
H1920 C1922 0.949 . S
C1921 C1919 1.384 . S
C1921 C1922 1.385 . S
C1921 H1923 0.950 . S
C1922 C1916 1.404 . S
C1922 H1920 0.949 . S
C1922 C1921 1.385 . S
H1923 C1921 0.950 . S
H1924 C1908 0.951 . S
H1925 C1910 0.951 . S
H1926 C1912 0.951 . S
H1927 C1913 0.950 . S
H1928 C1914 0.950 . S
H1929 C1915 0.950 . S
H1930 C1917 0.950 . S
H1931 C1918 0.951 . S
C1932 C1933 1.386 . S
C1932 C1934 1.383 . S
C1932 H1948 0.951 . S
C1933 C1932 1.386 . S
C1933 C1937 1.383 . S
C1934 C1932 1.383 . S
C1934 C1935 1.402 . S
C1934 H1949 0.951 . S
C1935 C1934 1.402 . S
C1935 C1936 1.375 . S
C1935 C1938 1.481 . S
C1936 C1935 1.375 . S
C1936 C1937 1.367 . S
C1936 H1950 0.951 . S
C1937 C1933 1.383 . S
C1937 C1936 1.367 . S
C1937 H1951 0.950 . S
C1938 C1935 1.481 . S
C1938 C1939 1.297 . S
C1938 H1952 0.950 . S
C1939 C1938 1.297 . S
C1939 C1940 1.479 . S
C1939 H1953 0.950 . S
C1940 C1939 1.479 . S
C1940 C1941 1.375 . S
C1940 C1946 1.404 . S
C1941 C1940 1.375 . S
C1941 C1942 1.369 . S
C1941 H1954 0.950 . S
C1942 C1941 1.369 . S
C1942 C1943 1.392 . S
C1942 H1955 0.951 . S
C1943 C1942 1.392 . S
C1943 C1945 1.384 . S
H1944 C1946 0.949 . S
C1945 C1943 1.384 . S
C1945 C1946 1.385 . S
C1945 H1947 0.950 . S
C1946 C1940 1.404 . S
C1946 H1944 0.949 . S
C1946 C1945 1.385 . S
H1947 C1945 0.950 . S
H1948 C1932 0.951 . S
H1949 C1934 0.951 . S
H1950 C1936 0.951 . S
H1951 C1937 0.950 . S
H1952 C1938 0.950 . S
H1953 C1939 0.950 . S
H1954 C1941 0.950 . S
H1955 C1942 0.951 . S
C1956 C1957 1.386 . S
C1956 C1958 1.383 . S
C1956 H1972 0.951 . S
C1957 C1956 1.386 . S
C1957 C1961 1.383 . S
C1958 C1956 1.383 . S
C1958 C1959 1.402 . S
C1958 H1973 0.951 . S
C1959 C1958 1.402 . S
C1959 C1960 1.375 . S
C1959 C1962 1.481 . S
C1960 C1959 1.375 . S
C1960 C1961 1.367 . S
C1960 H1974 0.951 . S
C1961 C1957 1.383 . S
C1961 C1960 1.367 . S
C1961 H1975 0.950 . S
C1962 C1959 1.481 . S
C1962 C1963 1.297 . S
C1962 H1976 0.950 . S
C1963 C1962 1.297 . S
C1963 C1964 1.479 . S
C1963 H1977 0.950 . S
C1964 C1963 1.479 . S
C1964 C1965 1.375 . S
C1964 C1970 1.404 . S
C1965 C1964 1.375 . S
C1965 C1966 1.369 . S
C1965 H1978 0.950 . S
C1966 C1965 1.369 . S
C1966 C1967 1.392 . S
C1966 H1979 0.951 . S
C1967 C1966 1.392 . S
C1967 C1969 1.384 . S
H1968 C1970 0.949 . S
C1969 C1967 1.384 . S
C1969 C1970 1.385 . S
C1969 H1971 0.950 . S
C1970 C1964 1.404 . S
C1970 H1968 0.949 . S
C1970 C1969 1.385 . S
H1971 C1969 0.950 . S
H1972 C1956 0.951 . S
H1973 C1958 0.951 . S
H1974 C1960 0.951 . S
H1975 C1961 0.950 . S
H1976 C1962 0.950 . S
H1977 C1963 0.950 . S
H1978 C1965 0.950 . S
H1979 C1966 0.951 . S
C1980 C1981 1.386 . S
C1980 C1982 1.383 . S
C1980 H1996 0.951 . S
C1981 C1980 1.386 . S
C1981 C1985 1.383 . S
C1982 C1980 1.383 . S
C1982 C1983 1.402 . S
C1982 H1997 0.951 . S
C1983 C1982 1.402 . S
C1983 C1984 1.375 . S
C1983 C1986 1.481 . S
C1984 C1983 1.375 . S
C1984 C1985 1.367 . S
C1984 H1998 0.951 . S
C1985 C1981 1.383 . S
C1985 C1984 1.367 . S
C1985 H1999 0.950 . S
C1986 C1983 1.481 . S
C1986 C1987 1.297 . S
C1986 H2000 0.950 . S
C1987 C1986 1.297 . S
C1987 C1988 1.479 . S
C1987 H2001 0.950 . S
C1988 C1987 1.479 . S
C1988 C1989 1.375 . S
C1988 C1994 1.404 . S
C1989 C1988 1.375 . S
C1989 C1990 1.369 . S
C1989 H2002 0.950 . S
C1990 C1989 1.369 . S
C1990 C1991 1.392 . S
C1990 H2003 0.951 . S
C1991 C1990 1.392 . S
C1991 C1993 1.384 . S
H1992 C1994 0.949 . S
C1993 C1991 1.384 . S
C1993 C1994 1.385 . S
C1993 H1995 0.950 . S
C1994 C1988 1.404 . S
C1994 H1992 0.949 . S
C1994 C1993 1.385 . S
H1995 C1993 0.950 . S
H1996 C1980 0.951 . S
H1997 C1982 0.951 . S
H1998 C1984 0.951 . S
H1999 C1985 0.950 . S
H2000 C1986 0.950 . S
H2001 C1987 0.950 . S
H2002 C1989 0.950 . S
H2003 C1990 0.951 . S
C2004 C2005 1.386 . S
C2004 C2006 1.383 . S
C2004 H2020 0.951 . S
C2005 C2004 1.386 . S
C2005 C2009 1.383 . S
C2006 C2004 1.383 . S
C2006 C2007 1.402 . S
C2006 H2021 0.951 . S
C2007 C2006 1.402 . S
C2007 C2008 1.375 . S
C2007 C2010 1.481 . S
C2008 C2007 1.375 . S
C2008 C2009 1.367 . S
C2008 H2022 0.951 . S
C2009 C2005 1.383 . S
C2009 C2008 1.367 . S
C2009 H2023 0.950 . S
C2010 C2007 1.481 . S
C2010 C2011 1.297 . S
C2010 H2024 0.950 . S
C2011 C2010 1.297 . S
C2011 C2012 1.479 . S
C2011 H2025 0.950 . S
C2012 C2011 1.479 . S
C2012 C2013 1.375 . S
C2012 C2018 1.404 . S
C2013 C2012 1.375 . S
C2013 C2014 1.369 . S
C2013 H2026 0.950 . S
C2014 C2013 1.369 . S
C2014 C2015 1.392 . S
C2014 H2027 0.951 . S
C2015 C2014 1.392 . S
C2015 C2017 1.384 . S
H2016 C2018 0.949 . S
C2017 C2015 1.384 . S
C2017 C2018 1.385 . S
C2017 H2019 0.950 . S
C2018 C2012 1.404 . S
C2018 H2016 0.949 . S
C2018 C2017 1.385 . S
H2019 C2017 0.950 . S
H2020 C2004 0.951 . S
H2021 C2006 0.951 . S
H2022 C2008 0.951 . S
H2023 C2009 0.950 . S
H2024 C2010 0.950 . S
H2025 C2011 0.950 . S
H2026 C2013 0.950 . S
H2027 C2014 0.951 . S
C2028 C2029 1.386 . S
C2028 C2030 1.383 . S
C2028 H2044 0.951 . S
C2029 C2028 1.386 . S
C2029 C2033 1.383 . S
C2030 C2028 1.383 . S
C2030 C2031 1.402 . S
C2030 H2045 0.951 . S
C2031 C2030 1.402 . S
C2031 C2032 1.375 . S
C2031 C2034 1.481 . S
C2032 C2031 1.375 . S
C2032 C2033 1.367 . S
C2032 H2046 0.951 . S
C2033 C2029 1.383 . S
C2033 C2032 1.367 . S
C2033 H2047 0.950 . S
C2034 C2031 1.481 . S
C2034 C2035 1.297 . S
C2034 H2048 0.950 . S
C2035 C2034 1.297 . S
C2035 C2036 1.479 . S
C2035 H2049 0.950 . S
C2036 C2035 1.479 . S
C2036 C2037 1.375 . S
C2036 C2042 1.404 . S
C2037 C2036 1.375 . S
C2037 C2038 1.369 . S
C2037 H2050 0.950 . S
C2038 C2037 1.369 . S
C2038 C2039 1.392 . S
C2038 H2051 0.951 . S
C2039 C2038 1.392 . S
C2039 C2041 1.384 . S
H2040 C2042 0.949 . S
C2041 C2039 1.384 . S
C2041 C2042 1.385 . S
C2041 H2043 0.950 . S
C2042 C2036 1.404 . S
C2042 H2040 0.949 . S
C2042 C2041 1.385 . S
H2043 C2041 0.950 . S
H2044 C2028 0.951 . S
H2045 C2030 0.951 . S
H2046 C2032 0.951 . S
H2047 C2033 0.950 . S
H2048 C2034 0.950 . S
H2049 C2035 0.950 . S
H2050 C2037 0.950 . S
H2051 C2038 0.951 . S
C2052 C2053 1.386 . S
C2052 C2054 1.383 . S
C2052 H2068 0.951 . S
C2053 C2052 1.386 . S
C2053 C2057 1.383 . S
C2054 C2052 1.383 . S
C2054 C2055 1.402 . S
C2054 H2069 0.951 . S
C2055 C2054 1.402 . S
C2055 C2056 1.375 . S
C2055 C2058 1.481 . S
C2056 C2055 1.375 . S
C2056 C2057 1.367 . S
C2056 H2070 0.951 . S
C2057 C2053 1.383 . S
C2057 C2056 1.367 . S
C2057 H2071 0.950 1_556 S
C2058 C2055 1.481 . S
C2058 C2059 1.297 . S
C2058 H2072 0.950 . S
C2059 C2058 1.297 . S
C2059 C2060 1.479 . S
C2059 H2073 0.950 . S
C2060 C2059 1.479 . S
C2060 C2061 1.375 . S
C2060 C2066 1.404 . S
C2061 C2060 1.375 . S
C2061 C2062 1.369 . S
C2061 H2074 0.950 . S
C2062 C2061 1.369 . S
C2062 C2063 1.392 . S
C2062 H2075 0.951 . S
C2063 C2062 1.392 . S
C2063 C2065 1.384 . S
H2064 C2066 0.949 . S
C2065 C2063 1.384 . S
C2065 C2066 1.385 . S
C2065 H2067 0.950 . S
C2066 C2060 1.404 . S
C2066 H2064 0.949 . S
C2066 C2065 1.385 . S
H2067 C2065 0.950 . S
H2068 C2052 0.951 . S
H2069 C2054 0.951 . S
H2070 C2056 0.951 . S
H2071 C2057 0.950 1_554 S
H2072 C2058 0.950 . S
H2073 C2059 0.950 . S
H2074 C2061 0.950 . S
H2075 C2062 0.951 . S
C2076 C2077 1.386 . S
C2076 C2078 1.383 . S
C2076 H2092 0.951 . S
C2077 C2076 1.386 . S
C2077 C2081 1.383 1_556 S
C2078 C2076 1.383 . S
C2078 C2079 1.402 . S
C2078 H2093 0.951 . S
C2079 C2078 1.402 . S
C2079 C2080 1.375 . S
C2079 C2082 1.481 . S
C2080 C2079 1.375 . S
C2080 C2081 1.367 1_556 S
C2080 H2094 0.951 1_556 S
C2081 C2077 1.383 1_554 S
C2081 C2080 1.367 1_554 S
C2081 H2095 0.950 . S
C2082 C2079 1.481 . S
C2082 C2083 1.297 . S
C2082 H2096 0.950 . S
C2083 C2082 1.297 . S
C2083 C2084 1.479 . S
C2083 H2097 0.950 . S
C2084 C2083 1.479 . S
C2084 C2085 1.375 . S
C2084 C2090 1.404 . S
C2085 C2084 1.375 . S
C2085 C2086 1.369 . S
C2085 H2098 0.950 . S
C2086 C2085 1.369 . S
C2086 C2087 1.392 . S
C2086 H2099 0.951 . S
C2087 C2086 1.392 . S
C2087 C2089 1.384 . S
H2088 C2090 0.949 . S
C2089 C2087 1.384 . S
C2089 C2090 1.385 . S
C2089 H2091 0.950 . S
C2090 C2084 1.404 . S
C2090 H2088 0.949 . S
C2090 C2089 1.385 . S
H2091 C2089 0.950 . S
H2092 C2076 0.951 . S
H2093 C2078 0.951 . S
H2094 C2080 0.951 1_554 S
H2095 C2081 0.950 . S
H2096 C2082 0.950 . S
H2097 C2083 0.950 . S
H2098 C2085 0.950 . S
H2099 C2086 0.951 . S
C2100 C2101 1.386 . S
C2100 C2102 1.383 . S
C2100 H2116 0.951 1_556 S
C2101 C2100 1.386 . S
C2101 C2105 1.383 . S
C2102 C2100 1.383 . S
C2102 C2103 1.402 . S
C2102 H2117 0.951 . S
C2103 C2102 1.402 . S
C2103 C2104 1.375 . S
C2103 C2106 1.481 . S
C2104 C2103 1.375 . S
C2104 C2105 1.367 . S
C2104 H2118 0.951 . S
C2105 C2101 1.383 . S
C2105 C2104 1.367 . S
C2105 H2119 0.950 . S
C2106 C2103 1.481 . S
C2106 C2107 1.297 . S
C2106 H2120 0.950 . S
C2107 C2106 1.297 . S
C2107 C2108 1.479 . S
C2107 H2121 0.950 . S
C2108 C2107 1.479 . S
C2108 C2109 1.375 . S
C2108 C2114 1.404 . S
C2109 C2108 1.375 . S
C2109 C2110 1.369 . S
C2109 H2122 0.950 . S
C2110 C2109 1.369 . S
C2110 C2111 1.392 . S
C2110 H2123 0.951 . S
C2111 C2110 1.392 . S
C2111 C2113 1.384 . S
H2112 C2114 0.949 . S
C2113 C2111 1.384 . S
C2113 C2114 1.385 . S
C2113 H2115 0.950 . S
C2114 C2108 1.404 . S
C2114 H2112 0.949 . S
C2114 C2113 1.385 . S
H2115 C2113 0.950 . S
H2116 C2100 0.951 1_554 S
H2117 C2102 0.951 . S
H2118 C2104 0.951 . S
H2119 C2105 0.950 . S
H2120 C2106 0.950 . S
H2121 C2107 0.950 . S
H2122 C2109 0.950 . S
H2123 C2110 0.951 . S
C2124 C2125 1.386 . S
C2124 C2126 1.383 . S
C2124 H2140 0.951 1_556 S
C2125 C2124 1.386 . S
C2125 C2129 1.383 . S
C2126 C2124 1.383 . S
C2126 C2127 1.402 . S
C2126 H2141 0.951 . S
C2127 C2126 1.402 . S
C2127 C2128 1.375 . S
C2127 C2130 1.481 . S
C2128 C2127 1.375 . S
C2128 C2129 1.367 . S
C2128 H2142 0.951 . S
C2129 C2125 1.383 . S
C2129 C2128 1.367 . S
C2129 H2143 0.950 . S
C2130 C2127 1.481 . S
C2130 C2131 1.297 . S
C2130 H2144 0.950 . S
C2131 C2130 1.297 . S
C2131 C2132 1.479 . S
C2131 H2145 0.950 . S
C2132 C2131 1.479 . S
C2132 C2133 1.375 . S
C2132 C2138 1.404 . S
C2133 C2132 1.375 . S
C2133 C2134 1.369 . S
C2133 H2146 0.950 . S
C2134 C2133 1.369 . S
C2134 C2135 1.392 . S
C2134 H2147 0.951 . S
C2135 C2134 1.392 . S
C2135 C2137 1.384 . S
H2136 C2138 0.949 . S
C2137 C2135 1.384 . S
C2137 C2138 1.385 . S
C2137 H2139 0.950 . S
C2138 C2132 1.404 . S
C2138 H2136 0.949 . S
C2138 C2137 1.385 . S
H2139 C2137 0.950 . S
H2140 C2124 0.951 1_554 S
H2141 C2126 0.951 . S
H2142 C2128 0.951 . S
H2143 C2129 0.950 . S
H2144 C2130 0.950 . S
H2145 C2131 0.950 . S
H2146 C2133 0.950 . S
H2147 C2134 0.951 . S
C2148 C2149 1.386 . S
C2148 C2150 1.383 . S
C2148 H2164 0.951 . S
C2149 C2148 1.386 . S
C2149 C2153 1.383 . S
C2150 C2148 1.383 . S
C2150 C2151 1.402 . S
C2150 H2165 0.951 . S
C2151 C2150 1.402 . S
C2151 C2152 1.375 . S
C2151 C2154 1.481 . S
C2152 C2151 1.375 . S
C2152 C2153 1.367 . S
C2152 H2166 0.951 . S
C2153 C2149 1.383 . S
C2153 C2152 1.367 . S
C2153 H2167 0.950 1_556 S
C2154 C2151 1.481 . S
C2154 C2155 1.297 . S
C2154 H2168 0.950 . S
C2155 C2154 1.297 . S
C2155 C2156 1.479 . S
C2155 H2169 0.950 . S
C2156 C2155 1.479 . S
C2156 C2157 1.375 . S
C2156 C2162 1.404 . S
C2157 C2156 1.375 . S
C2157 C2158 1.369 . S
C2157 H2170 0.950 . S
C2158 C2157 1.369 . S
C2158 C2159 1.392 . S
C2158 H2171 0.951 . S
C2159 C2158 1.392 . S
C2159 C2161 1.384 . S
H2160 C2162 0.949 . S
C2161 C2159 1.384 . S
C2161 C2162 1.385 . S
C2161 H2163 0.950 . S
C2162 C2156 1.404 . S
C2162 H2160 0.949 . S
C2162 C2161 1.385 . S
H2163 C2161 0.950 . S
H2164 C2148 0.951 . S
H2165 C2150 0.951 . S
H2166 C2152 0.951 . S
H2167 C2153 0.950 1_554 S
H2168 C2154 0.950 . S
H2169 C2155 0.950 . S
H2170 C2157 0.950 . S
H2171 C2158 0.951 . S
C2172 C2173 1.386 . S
C2172 C2174 1.383 . S
C2172 H2188 0.970 . S
C2173 C2172 1.386 . S
C2173 C2177 1.383 . S
C2174 C2172 1.383 . S
C2174 C2175 1.402 . S
C2174 H2189 0.951 . S
C2175 C2174 1.402 . S
C2175 C2176 1.375 . S
C2175 C2178 1.481 . S
C2176 C2175 1.375 . S
C2176 C2177 1.367 . S
C2176 H2190 0.951 . S
C2177 C2173 1.383 . S
C2177 C2176 1.367 . S
C2177 H2191 0.950 . S
C2178 C2175 1.481 . S
C2178 C2179 1.297 . S
C2178 H2192 0.950 . S
C2179 C2178 1.297 . S
C2179 C2180 1.479 . S
C2179 H2193 0.950 . S
C2180 C2179 1.479 . S
C2180 C2181 1.375 . S
C2180 C2186 1.404 . S
C2181 C2180 1.375 . S
C2181 C2182 1.369 . S
C2181 H2194 0.950 . S
C2182 C2181 1.369 . S
C2182 C2183 1.392 . S
C2182 H2195 0.951 . S
C2183 C2182 1.392 . S
C2183 C2185 1.384 . S
H2184 C2186 0.949 . S
C2185 C2183 1.384 . S
C2185 C2186 1.385 . S
C2185 H2187 0.950 . S
C2186 C2180 1.404 . S
C2186 H2184 0.949 . S
C2186 C2185 1.385 . S
H2187 C2185 0.950 . S
H2188 C2172 0.970 . S
H2189 C2174 0.951 . S
H2190 C2176 0.951 . S
H2191 C2177 0.950 . S
H2192 C2178 0.950 . S
H2193 C2179 0.950 . S
H2194 C2181 0.950 . S
H2195 C2182 0.951 . S
C2196 C2197 1.386 . S
C2196 C2198 1.383 . S
C2196 H2212 0.951 . S
C2197 C2196 1.386 . S
C2197 C2201 1.383 . S
C2198 C2196 1.383 . S
C2198 C2199 1.402 . S
C2198 H2213 0.951 . S
C2199 C2198 1.402 . S
C2199 C2200 1.375 . S
C2199 C2202 1.481 . S
C2200 C2199 1.375 . S
C2200 C2201 1.367 . S
C2200 H2214 0.951 . S
C2201 C2197 1.383 . S
C2201 C2200 1.367 . S
C2201 H2215 0.950 . S
C2202 C2199 1.481 . S
C2202 C2203 1.297 . S
C2202 H2216 0.950 . S
C2203 C2202 1.297 . S
C2203 C2204 1.479 . S
C2203 H2217 0.950 . S
C2204 C2203 1.479 . S
C2204 C2205 1.375 . S
C2204 C2210 1.404 . S
C2205 C2204 1.375 . S
C2205 C2206 1.369 . S
C2205 H2218 0.950 . S
C2206 C2205 1.369 . S
C2206 C2207 1.392 . S
C2206 H2219 0.951 . S
C2207 C2206 1.392 . S
C2207 C2209 1.384 . S
H2208 C2210 0.949 . S
C2209 C2207 1.384 . S
C2209 C2210 1.385 . S
C2209 H2211 0.950 . S
C2210 C2204 1.404 . S
C2210 H2208 0.949 . S
C2210 C2209 1.385 . S
H2211 C2209 0.950 . S
H2212 C2196 0.951 . S
H2213 C2198 0.951 . S
H2214 C2200 0.951 . S
H2215 C2201 0.950 . S
H2216 C2202 0.950 . S
H2217 C2203 0.950 . S
H2218 C2205 0.950 . S
H2219 C2206 0.951 . S
C2220 C2221 1.386 . S
C2220 C2222 1.383 . S
C2220 H2236 0.951 . S
C2221 C2220 1.386 . S
C2221 C2225 1.383 . S
C2222 C2220 1.383 . S
C2222 C2223 1.402 . S
C2222 H2237 0.951 . S
C2223 C2222 1.402 . S
C2223 C2224 1.375 . S
C2223 C2226 1.481 . S
C2224 C2223 1.375 . S
C2224 C2225 1.367 . S
C2224 H2238 0.951 . S
C2225 C2221 1.383 . S
C2225 C2224 1.367 . S
C2225 H2239 0.950 . S
C2226 C2223 1.481 . S
C2226 C2227 1.297 . S
C2226 H2240 0.950 . S
C2227 C2226 1.297 . S
C2227 C2228 1.479 . S
C2227 H2241 0.950 . S
C2228 C2227 1.479 . S
C2228 C2229 1.375 . S
C2228 C2234 1.404 . S
C2229 C2228 1.375 . S
C2229 C2230 1.369 . S
C2229 H2242 0.950 . S
C2230 C2229 1.369 . S
C2230 C2231 1.392 . S
C2230 H2243 0.951 . S
C2231 C2230 1.392 . S
C2231 C2233 1.384 . S
H2232 C2234 0.949 . S
C2233 C2231 1.384 . S
C2233 C2234 1.385 . S
C2233 H2235 0.950 . S
C2234 C2228 1.404 . S
C2234 H2232 0.949 . S
C2234 C2233 1.385 . S
H2235 C2233 0.950 . S
H2236 C2220 0.951 . S
H2237 C2222 0.951 . S
H2238 C2224 0.951 . S
H2239 C2225 0.950 . S
H2240 C2226 0.950 . S
H2241 C2227 0.950 . S
H2242 C2229 0.950 . S
H2243 C2230 0.951 . S
C2244 C2245 1.386 . S
C2244 C2246 1.383 . S
C2244 H2260 0.951 . S
C2245 C2244 1.386 . S
C2245 C2249 1.383 . S
C2246 C2244 1.383 . S
C2246 C2247 1.402 . S
C2246 H2261 0.951 . S
C2247 C2246 1.402 . S
C2247 C2248 1.375 . S
C2247 C2250 1.481 . S
C2248 C2247 1.375 . S
C2248 C2249 1.367 . S
C2248 H2262 0.951 . S
C2249 C2245 1.383 . S
C2249 C2248 1.367 . S
C2249 H2263 0.950 . S
C2250 C2247 1.481 . S
C2250 C2251 1.297 . S
C2250 H2264 0.950 . S
C2251 C2250 1.297 . S
C2251 C2252 1.479 . S
C2251 H2265 0.950 . S
C2252 C2251 1.479 . S
C2252 C2253 1.375 . S
C2252 C2258 1.404 . S
C2253 C2252 1.375 . S
C2253 C2254 1.369 . S
C2253 H2266 0.950 . S
C2254 C2253 1.369 . S
C2254 C2255 1.392 . S
C2254 H2267 0.951 . S
C2255 C2254 1.392 . S
C2255 C2257 1.384 . S
H2256 C2258 0.949 . S
C2257 C2255 1.384 . S
C2257 C2258 1.385 . S
C2257 H2259 0.950 . S
C2258 C2252 1.404 . S
C2258 H2256 0.949 . S
C2258 C2257 1.385 . S
H2259 C2257 0.950 . S
H2260 C2244 0.951 . S
H2261 C2246 0.951 . S
H2262 C2248 0.951 . S
H2263 C2249 0.950 . S
H2264 C2250 0.950 . S
H2265 C2251 0.950 . S
H2266 C2253 0.950 . S
H2267 C2254 0.951 . S
C2268 C2269 1.386 . S
C2268 C2270 1.383 . S
C2268 H2284 0.951 . S
C2269 C2268 1.386 . S
C2269 C2273 1.383 . S
C2270 C2268 1.383 . S
C2270 C2271 1.402 . S
C2270 H2285 0.951 . S
C2271 C2270 1.402 . S
C2271 C2272 1.375 . S
C2271 C2274 1.481 . S
C2272 C2271 1.375 . S
C2272 C2273 1.367 . S
C2272 H2286 0.951 . S
C2273 C2269 1.383 . S
C2273 C2272 1.367 . S
C2273 H2287 0.950 . S
C2274 C2271 1.481 . S
C2274 C2275 1.297 . S
C2274 H2288 0.950 . S
C2275 C2274 1.297 . S
C2275 C2276 1.479 . S
C2275 H2289 0.950 . S
C2276 C2275 1.479 . S
C2276 C2277 1.375 . S
C2276 C2282 1.404 . S
C2277 C2276 1.375 . S
C2277 C2278 1.369 . S
C2277 H2290 0.950 . S
C2278 C2277 1.369 . S
C2278 C2279 1.392 . S
C2278 H2291 0.951 . S
C2279 C2278 1.392 . S
C2279 C2281 1.384 . S
H2280 C2282 0.949 . S
C2281 C2279 1.384 . S
C2281 C2282 1.385 . S
C2281 H2283 0.950 . S
C2282 C2276 1.404 . S
C2282 H2280 0.949 . S
C2282 C2281 1.385 . S
H2283 C2281 0.950 . S
H2284 C2268 0.951 . S
H2285 C2270 0.951 . S
H2286 C2272 0.951 . S
H2287 C2273 0.950 . S
H2288 C2274 0.950 . S
H2289 C2275 0.950 . S
H2290 C2277 0.950 . S
H2291 C2278 0.951 . S
C2292 C2293 1.386 . S
C2292 C2294 1.383 . S
C2292 H2308 0.951 . S
C2293 C2292 1.386 . S
C2293 C2297 1.383 . S
C2294 C2292 1.383 . S
C2294 C2295 1.402 . S
C2294 H2309 0.951 . S
C2295 C2294 1.402 . S
C2295 C2296 1.375 . S
C2295 C2298 1.481 . S
C2296 C2295 1.375 . S
C2296 C2297 1.367 . S
C2296 H2310 0.951 . S
C2297 C2293 1.383 . S
C2297 C2296 1.367 . S
C2297 H2311 0.950 . S
C2298 C2295 1.481 . S
C2298 C2299 1.297 . S
C2298 H2312 0.950 . S
C2299 C2298 1.297 . S
C2299 C2300 1.479 . S
C2299 H2313 0.950 . S
C2300 C2299 1.479 . S
C2300 C2301 1.375 . S
C2300 C2306 1.404 . S
C2301 C2300 1.375 . S
C2301 C2302 1.369 . S
C2301 H2314 0.950 . S
C2302 C2301 1.369 . S
C2302 C2303 1.392 . S
C2302 H2315 0.951 . S
C2303 C2302 1.392 . S
C2303 C2305 1.384 . S
H2304 C2306 0.949 . S
C2305 C2303 1.384 . S
C2305 C2306 1.385 . S
C2305 H2307 0.950 . S
C2306 C2300 1.404 . S
C2306 H2304 0.949 . S
C2306 C2305 1.385 . S
H2307 C2305 0.950 . S
H2308 C2292 0.951 . S
H2309 C2294 0.951 . S
H2310 C2296 0.951 . S
H2311 C2297 0.950 . S
H2312 C2298 0.950 . S
H2313 C2299 0.950 . S
H2314 C2301 0.950 . S
H2315 C2302 0.951 . S
C2316 C2317 1.386 . S
C2316 C2318 1.383 . S
C2316 H2332 0.951 . S
C2317 C2316 1.386 . S
C2317 C2321 1.383 . S
C2318 C2316 1.383 . S
C2318 C2319 1.402 . S
C2318 H2333 0.951 . S
C2319 C2318 1.402 . S
C2319 C2320 1.375 . S
C2319 C2322 1.481 . S
C2320 C2319 1.375 . S
C2320 C2321 1.367 . S
C2320 H2334 0.951 . S
C2321 C2317 1.383 . S
C2321 C2320 1.367 . S
C2321 H2335 0.950 . S
C2322 C2319 1.481 . S
C2322 C2323 1.297 . S
C2322 H2336 0.950 . S
C2323 C2322 1.297 . S
C2323 C2324 1.479 . S
C2323 H2337 0.950 . S
C2324 C2323 1.479 . S
C2324 C2325 1.375 . S
C2324 C2330 1.404 . S
C2325 C2324 1.375 . S
C2325 C2326 1.369 . S
C2325 H2338 0.950 . S
C2326 C2325 1.369 . S
C2326 C2327 1.392 . S
C2326 H2339 0.951 . S
C2327 C2326 1.392 . S
C2327 C2329 1.384 . S
H2328 C2330 0.949 . S
C2329 C2327 1.384 . S
C2329 C2330 1.385 . S
C2329 H2331 0.950 . S
C2330 C2324 1.404 . S
C2330 H2328 0.949 . S
C2330 C2329 1.385 . S
H2331 C2329 0.950 . S
H2332 C2316 0.951 . S
H2333 C2318 0.951 . S
H2334 C2320 0.951 . S
H2335 C2321 0.950 . S
H2336 C2322 0.950 . S
H2337 C2323 0.950 . S
H2338 C2325 0.950 . S
H2339 C2326 0.951 . S
C2340 C2341 1.386 . S
C2340 C2342 1.383 . S
C2340 H2356 0.951 1_455 S
C2341 C2340 1.386 . S
C2341 C2345 1.383 . S
C2342 C2340 1.383 . S
C2342 C2343 1.402 . S
C2342 H2357 0.951 1_455 S
C2343 C2342 1.402 . S
C2343 C2344 1.375 . S
C2343 C2346 1.481 . S
C2344 C2343 1.375 . S
C2344 C2345 1.367 . S
C2344 H2358 0.951 . S
C2345 C2341 1.383 . S
C2345 C2344 1.367 . S
C2345 H2359 0.950 . S
C2346 C2343 1.481 . S
C2346 C2347 1.297 . S
C2346 H2360 0.950 . S
C2347 C2346 1.297 . S
C2347 C2348 1.479 . S
C2347 H2361 0.950 1_455 S
C2348 C2347 1.479 . S
C2348 C2349 1.375 1_455 S
C2348 C2354 1.404 . S
C2349 C2348 1.375 1_655 S
C2349 C2350 1.369 . S
C2349 H2362 0.950 . S
C2350 C2349 1.369 . S
C2350 C2351 1.392 1_655 S
C2350 H2363 0.951 . S
C2351 C2350 1.392 1_455 S
C2351 C2353 1.384 . S
H2352 C2354 0.949 . S
C2353 C2351 1.384 . S
C2353 C2354 1.385 . S
C2353 H2355 0.950 . S
C2354 C2348 1.404 . S
C2354 H2352 0.949 . S
C2354 C2353 1.385 . S
H2355 C2353 0.950 . S
H2356 C2340 0.951 1_655 S
H2357 C2342 0.951 1_655 S
H2358 C2344 0.951 . S
H2359 C2345 0.950 . S
H2360 C2346 0.950 . S
H2361 C2347 0.950 1_655 S
H2362 C2349 0.950 . S
H2363 C2350 0.951 . S
C2364 C2365 1.386 . S
C2364 C2366 1.383 . S
C2364 H2380 0.951 . S
C2365 C2364 1.386 . S
C2365 C2369 1.383 . S
C2366 C2364 1.383 . S
C2366 C2367 1.402 . S
C2366 H2381 0.951 . S
C2367 C2366 1.402 . S
C2367 C2368 1.375 . S
C2367 C2370 1.481 . S
C2368 C2367 1.375 . S
C2368 C2369 1.367 . S
C2368 H2382 0.951 . S
C2369 C2365 1.383 . S
C2369 C2368 1.367 . S
C2369 H2383 0.950 . S
C2370 C2367 1.481 . S
C2370 C2371 1.297 . S
C2370 H2384 0.950 . S
C2371 C2370 1.297 . S
C2371 C2372 1.479 . S
C2371 H2385 0.950 . S
C2372 C2371 1.479 . S
C2372 C2373 1.375 . S
C2372 C2378 1.404 . S
C2373 C2372 1.375 . S
C2373 C2374 1.369 . S
C2373 H2386 0.950 . S
C2374 C2373 1.369 . S
C2374 C2375 1.392 . S
C2374 H2387 0.951 . S
C2375 C2374 1.392 . S
C2375 C2377 1.384 . S
H2376 C2378 0.949 . S
C2377 C2375 1.384 . S
C2377 C2378 1.385 . S
C2377 H2379 0.950 . S
C2378 C2372 1.404 . S
C2378 H2376 0.949 . S
C2378 C2377 1.385 . S
H2379 C2377 0.950 . S
H2380 C2364 0.951 . S
H2381 C2366 0.951 . S
H2382 C2368 0.951 . S
H2383 C2369 0.950 . S
H2384 C2370 0.950 . S
H2385 C2371 0.950 . S
H2386 C2373 0.950 . S
H2387 C2374 0.951 . S
C2388 C2389 1.386 . S
C2388 C2390 1.383 . S
C2388 H2404 0.951 . S
C2389 C2388 1.386 . S
C2389 C2393 1.383 . S
C2390 C2388 1.383 . S
C2390 C2391 1.402 . S
C2390 H2405 0.951 . S
C2391 C2390 1.402 . S
C2391 C2392 1.375 . S
C2391 C2394 1.481 . S
C2392 C2391 1.375 . S
C2392 C2393 1.367 . S
C2392 H2406 0.951 . S
C2393 C2389 1.383 . S
C2393 C2392 1.367 . S
C2393 H2407 0.950 . S
C2394 C2391 1.481 . S
C2394 C2395 1.297 . S
C2394 H2408 0.950 . S
C2395 C2394 1.297 . S
C2395 C2396 1.479 . S
C2395 H2409 0.950 . S
C2396 C2395 1.479 . S
C2396 C2397 1.375 . S
C2396 C2402 1.404 . S
C2397 C2396 1.375 . S
C2397 C2398 1.369 . S
C2397 H2410 0.950 . S
C2398 C2397 1.369 . S
C2398 C2399 1.392 . S
C2398 H2411 0.951 . S
C2399 C2398 1.392 . S
C2399 C2401 1.384 . S
H2400 C2402 0.949 . S
C2401 C2399 1.384 . S
C2401 C2402 1.385 . S
C2401 H2403 0.930 1_565 S
C2402 C2396 1.404 . S
C2402 H2400 0.949 . S
C2402 C2401 1.385 . S
H2403 C2401 0.930 1_545 S
H2404 C2388 0.951 . S
H2405 C2390 0.951 . S
H2406 C2392 0.951 . S
H2407 C2393 0.950 . S
H2408 C2394 0.950 . S
H2409 C2395 0.950 . S
H2410 C2397 0.950 . S
H2411 C2398 0.951 . S
C2412 C2413 1.386 . S
C2412 C2414 1.383 . S
C2412 H2428 0.951 1_565 S
C2413 C2412 1.386 . S
C2413 C2417 1.383 . S
C2414 C2412 1.383 . S
C2414 C2415 1.402 . S
C2414 H2429 0.951 1_565 S
C2415 C2414 1.402 . S
C2415 C2416 1.375 . S
C2415 C2418 1.481 . S
C2416 C2415 1.375 . S
C2416 C2417 1.367 . S
C2416 H2430 0.951 . S
C2417 C2413 1.383 . S
C2417 C2416 1.367 . S
C2417 H2431 0.950 . S
C2418 C2415 1.481 . S
C2418 C2419 1.297 . S
C2418 H2432 0.950 . S
C2419 C2418 1.297 . S
C2419 C2420 1.479 . S
C2419 H2433 0.950 1_565 S
C2420 C2419 1.479 . S
C2420 C2421 1.375 1_565 S
C2420 C2426 1.404 . S
C2421 C2420 1.375 1_545 S
C2421 C2422 1.369 . S
C2421 H2434 0.950 . S
C2422 C2421 1.369 . S
C2422 C2423 1.392 1_545 S
C2422 H2435 0.951 . S
C2423 C2422 1.392 1_565 S
C2423 C2425 1.384 . S
H2424 C2426 0.949 . S
C2425 C2423 1.384 . S
C2425 C2426 1.385 . S
C2425 H2427 0.950 . S
C2426 C2420 1.404 . S
C2426 H2424 0.949 . S
C2426 C2425 1.385 . S
H2427 C2425 0.950 . S
H2428 C2412 0.951 1_545 S
H2429 C2414 0.951 1_545 S
H2430 C2416 0.951 . S
H2431 C2417 0.950 . S
H2432 C2418 0.950 . S
H2433 C2419 0.950 1_545 S
H2434 C2421 0.950 . S
H2435 C2422 0.951 . S
C2436 C2437 1.386 . S
C2436 C2438 1.383 . S
C2436 H2452 0.951 . S
C2437 C2436 1.386 . S
C2437 C2441 1.383 . S
C2438 C2436 1.383 . S
C2438 C2439 1.402 . S
C2438 H2453 0.951 . S
C2439 C2438 1.402 . S
C2439 C2440 1.375 . S
C2439 C2442 1.481 . S
C2440 C2439 1.375 . S
C2440 C2441 1.367 . S
C2440 H2454 0.951 . S
C2441 C2437 1.383 . S
C2441 C2440 1.367 . S
C2441 H2455 0.950 . S
C2442 C2439 1.481 . S
C2442 C2443 1.297 . S
C2442 H2456 0.950 . S
C2443 C2442 1.297 . S
C2443 C2444 1.479 . S
C2443 H2457 0.950 . S
C2444 C2443 1.479 . S
C2444 C2445 1.375 . S
C2444 C2450 1.404 . S
C2445 C2444 1.375 . S
C2445 C2446 1.369 . S
C2445 H2458 0.950 . S
C2446 C2445 1.369 . S
C2446 C2447 1.392 . S
C2446 H2459 0.951 1_455 S
C2447 C2446 1.392 . S
C2447 C2449 1.384 . S
H2448 C2450 0.949 . S
C2449 C2447 1.384 . S
C2449 C2450 1.385 . S
C2449 H2451 0.950 . S
C2450 C2444 1.404 . S
C2450 H2448 0.949 . S
C2450 C2449 1.385 . S
H2451 C2449 0.950 . S
H2452 C2436 0.951 . S
H2453 C2438 0.951 . S
H2454 C2440 0.951 . S
H2455 C2441 0.950 . S
H2456 C2442 0.950 . S
H2457 C2443 0.950 . S
H2458 C2445 0.950 . S
H2459 C2446 0.951 1_655 S
C2460 C2461 1.386 . S
C2460 C2462 1.383 . S
C2460 H2476 0.951 . S
C2461 C2460 1.386 . S
C2461 C2465 1.383 . S
C2462 C2460 1.383 . S
C2462 C2463 1.402 . S
C2462 H2477 0.951 . S
C2463 C2462 1.402 . S
C2463 C2464 1.375 . S
C2463 C2466 1.481 . S
C2464 C2463 1.375 . S
C2464 C2465 1.367 . S
C2464 H2478 0.951 . S
C2465 C2461 1.383 . S
C2465 C2464 1.367 . S
C2465 H2479 0.950 . S
C2466 C2463 1.481 . S
C2466 C2467 1.297 . S
C2466 H2480 0.950 . S
C2467 C2466 1.297 . S
C2467 C2468 1.479 . S
C2467 H2481 0.950 . S
C2468 C2467 1.479 . S
C2468 C2469 1.375 . S
C2468 C2474 1.404 . S
C2469 C2468 1.375 . S
C2469 C2470 1.369 . S
C2469 H2482 0.950 . S
C2470 C2469 1.369 . S
C2470 C2471 1.392 . S
C2470 H2483 0.951 . S
C2471 C2470 1.392 . S
C2471 C2473 1.384 . S
H2472 C2474 0.949 . S
C2473 C2471 1.384 . S
C2473 C2474 1.385 . S
C2473 H2475 0.950 . S
C2474 C2468 1.404 . S
C2474 H2472 0.949 . S
C2474 C2473 1.385 . S
H2475 C2473 0.950 . S
H2476 C2460 0.951 . S
H2477 C2462 0.951 . S
H2478 C2464 0.951 . S
H2479 C2465 0.950 . S
H2480 C2466 0.950 . S
H2481 C2467 0.950 . S
H2482 C2469 0.950 . S
H2483 C2470 0.951 . S
C2484 C2485 1.386 . S
C2484 C2486 1.383 . S
C2484 H2500 0.951 . S
C2485 C2484 1.386 . S
C2485 C2489 1.383 . S
C2486 C2484 1.383 . S
C2486 C2487 1.402 . S
C2486 H2501 0.951 . S
C2487 C2486 1.402 . S
C2487 C2488 1.375 . S
C2487 C2490 1.481 . S
C2488 C2487 1.375 . S
C2488 C2489 1.367 . S
C2488 H2502 0.951 . S
C2489 C2485 1.383 . S
C2489 C2488 1.367 . S
C2489 H2503 0.950 . S
C2490 C2487 1.481 . S
C2490 C2491 1.297 . S
C2490 H2504 0.950 . S
C2491 C2490 1.297 . S
C2491 C2492 1.479 . S
C2491 H2505 0.950 . S
C2492 C2491 1.479 . S
C2492 C2493 1.375 . S
C2492 C2498 1.404 . S
C2493 C2492 1.375 . S
C2493 C2494 1.369 . S
C2493 H2506 0.950 . S
C2494 C2493 1.369 . S
C2494 C2495 1.392 . S
C2494 H2507 0.951 . S
C2495 C2494 1.392 . S
C2495 C2497 1.384 . S
H2496 C2498 0.949 . S
C2497 C2495 1.384 . S
C2497 C2498 1.385 . S
C2497 H2499 0.950 . S
C2498 C2492 1.404 . S
C2498 H2496 0.949 . S
C2498 C2497 1.385 . S
H2499 C2497 0.950 . S
H2500 C2484 0.951 . S
H2501 C2486 0.951 . S
H2502 C2488 0.951 . S
H2503 C2489 0.950 . S
H2504 C2490 0.950 . S
H2505 C2491 0.950 . S
H2506 C2493 0.950 . S
H2507 C2494 0.951 . S
C2508 C2509 1.386 . S
C2508 C2510 1.383 . S
C2508 H2524 0.951 . S
C2509 C2508 1.386 . S
C2509 C2513 1.383 . S
C2510 C2508 1.383 . S
C2510 C2511 1.402 . S
C2510 H2525 0.951 . S
C2511 C2510 1.402 . S
C2511 C2512 1.375 . S
C2511 C2514 1.481 . S
C2512 C2511 1.375 . S
C2512 C2513 1.367 . S
C2512 H2526 0.951 . S
C2513 C2509 1.383 . S
C2513 C2512 1.367 . S
C2513 H2527 0.950 . S
C2514 C2511 1.481 . S
C2514 C2515 1.297 . S
C2514 H2528 0.950 . S
C2515 C2514 1.297 . S
C2515 C2516 1.479 . S
C2515 H2529 0.950 . S
C2516 C2515 1.479 . S
C2516 C2517 1.375 . S
C2516 C2522 1.404 . S
C2517 C2516 1.375 . S
C2517 C2518 1.369 . S
C2517 H2530 0.950 . S
C2518 C2517 1.369 . S
C2518 C2519 1.392 . S
C2518 H2531 0.951 . S
C2519 C2518 1.392 . S
C2519 C2521 1.384 . S
H2520 C2522 0.949 . S
C2521 C2519 1.384 . S
C2521 C2522 1.385 . S
C2521 H2523 0.950 . S
C2522 C2516 1.404 . S
C2522 H2520 0.949 . S
C2522 C2521 1.385 . S
H2523 C2521 0.950 . S
H2524 C2508 0.951 . S
H2525 C2510 0.951 . S
H2526 C2512 0.951 . S
H2527 C2513 0.950 . S
H2528 C2514 0.950 . S
H2529 C2515 0.950 . S
H2530 C2517 0.950 . S
H2531 C2518 0.951 . S
C2532 C2533 1.386 . S
C2532 C2534 1.383 . S
C2532 H2548 0.951 . S
C2533 C2532 1.386 . S
C2533 C2537 1.383 . S
C2534 C2532 1.383 . S
C2534 C2535 1.402 . S
C2534 H2549 0.951 . S
C2535 C2534 1.402 . S
C2535 C2536 1.375 . S
C2535 C2538 1.481 . S
C2536 C2535 1.375 . S
C2536 C2537 1.367 . S
C2536 H2550 0.951 . S
C2537 C2533 1.383 . S
C2537 C2536 1.367 . S
C2537 H2551 0.950 . S
C2538 C2535 1.481 . S
C2538 C2539 1.297 . S
C2538 H2552 0.950 . S
C2539 C2538 1.297 . S
C2539 C2540 1.479 . S
C2539 H2553 0.950 . S
C2540 C2539 1.479 . S
C2540 C2541 1.375 . S
C2540 C2546 1.404 . S
C2541 C2540 1.375 . S
C2541 C2542 1.369 . S
C2541 H2554 0.950 . S
C2542 C2541 1.369 . S
C2542 C2543 1.392 . S
C2542 H2555 0.951 . S
C2543 C2542 1.392 . S
C2543 C2545 1.384 . S
H2544 C2546 0.949 . S
C2545 C2543 1.384 . S
C2545 C2546 1.385 . S
C2545 H2547 0.950 . S
C2546 C2540 1.404 . S
C2546 H2544 0.949 . S
C2546 C2545 1.385 . S
H2547 C2545 0.950 . S
H2548 C2532 0.951 . S
H2549 C2534 0.951 . S
H2550 C2536 0.951 . S
H2551 C2537 0.950 . S
H2552 C2538 0.950 . S
H2553 C2539 0.950 . S
H2554 C2541 0.950 . S
H2555 C2542 0.951 . S
C2556 C2557 1.386 . S
C2556 C2558 1.383 . S
C2556 H2572 0.951 . S
C2557 C2556 1.386 . S
C2557 C2561 1.383 . S
C2558 C2556 1.383 . S
C2558 C2559 1.402 . S
C2558 H2573 0.951 . S
C2559 C2558 1.402 . S
C2559 C2560 1.375 . S
C2559 C2562 1.481 . S
C2560 C2559 1.375 . S
C2560 C2561 1.367 . S
C2560 H2574 0.951 . S
C2561 C2557 1.383 . S
C2561 C2560 1.367 . S
C2561 H2575 0.950 . S
C2562 C2559 1.481 . S
C2562 C2563 1.297 . S
C2562 H2576 0.950 . S
C2563 C2562 1.297 . S
C2563 C2564 1.479 . S
C2563 H2577 0.950 . S
C2564 C2563 1.479 . S
C2564 C2565 1.375 . S
C2564 C2570 1.404 . S
C2565 C2564 1.375 . S
C2565 C2566 1.369 . S
C2565 H2578 0.950 . S
C2566 C2565 1.369 . S
C2566 C2567 1.392 . S
C2566 H2579 0.951 1_545 S
C2567 C2566 1.392 . S
C2567 C2569 1.384 . S
H2568 C2570 0.949 . S
C2569 C2567 1.384 . S
C2569 C2570 1.385 . S
C2569 H2571 0.950 . S
C2570 C2564 1.404 . S
C2570 H2568 0.949 . S
C2570 C2569 1.385 . S
H2571 C2569 0.950 . S
H2572 C2556 0.951 . S
H2573 C2558 0.951 . S
H2574 C2560 0.951 . S
H2575 C2561 0.950 . S
H2576 C2562 0.950 . S
H2577 C2563 0.950 . S
H2578 C2565 0.950 . S
H2579 C2566 0.951 1_565 S
C2580 C2581 1.386 . S
C2580 C2582 1.383 . S
C2580 H2596 0.951 1_655 S
C2581 C2580 1.386 . S
C2581 C2585 1.383 . S
C2582 C2580 1.383 . S
C2582 C2583 1.402 . S
C2582 H2597 0.951 1_655 S
C2583 C2582 1.402 . S
C2583 C2584 1.375 . S
C2583 C2586 1.481 . S
C2584 C2583 1.375 . S
C2584 C2585 1.367 . S
C2584 H2598 0.951 . S
C2585 C2581 1.383 . S
C2585 C2584 1.367 . S
C2585 H2599 0.950 . S
C2586 C2583 1.481 . S
C2586 C2587 1.333 . S
C2586 H2600 0.950 . S
C2587 C2586 1.333 . S
C2587 C2588 1.489 . S
C2587 H2601 0.871 1_655 S
C2588 C2587 1.489 . S
C2588 C2589 1.349 1_655 S
C2588 C2594 1.459 . S
C2589 C2588 1.349 1_455 S
C2589 C2590 1.369 . S
C2589 H2602 0.950 . S
C2590 C2589 1.369 . S
C2590 C2591 1.392 1_455 S
C2590 H2603 0.951 . S
C2591 C2590 1.392 1_655 S
C2591 C2593 1.384 . S
H2592 C2594 0.949 . S
C2593 C2591 1.384 . S
C2593 C2594 1.385 . S
C2593 H2595 0.950 . S
C2594 C2588 1.459 . S
C2594 H2592 0.949 . S
C2594 C2593 1.385 . S
H2595 C2593 0.950 . S
H2596 C2580 0.951 1_455 S
H2597 C2582 0.951 1_455 S
H2598 C2584 0.951 . S
H2599 C2585 0.950 . S
H2600 C2586 0.950 . S
H2601 C2587 0.871 1_455 S
H2602 C2589 0.950 . S
H2603 C2590 0.951 . S
C2604 C2605 1.386 . S
C2604 C2606 1.383 . S
C2604 H2620 0.951 . S
C2605 C2604 1.386 . S
C2605 C2609 1.383 . S
C2606 C2604 1.383 . S
C2606 C2607 1.402 . S
C2606 H2621 0.951 . S
C2607 C2606 1.402 . S
C2607 C2608 1.375 . S
C2607 C2610 1.481 . S
C2608 C2607 1.375 . S
C2608 C2609 1.367 . S
C2608 H2622 0.951 . S
C2609 C2605 1.383 . S
C2609 C2608 1.367 . S
C2609 H2623 0.950 . S
C2610 C2607 1.481 . S
C2610 C2611 1.297 . S
C2610 H2624 0.950 . S
C2611 C2610 1.297 . S
C2611 C2612 1.479 . S
C2611 H2625 0.950 . S
C2612 C2611 1.479 . S
C2612 C2613 1.375 . S
C2612 C2618 1.404 . S
C2613 C2612 1.375 . S
C2613 C2614 1.369 . S
C2613 H2626 0.950 . S
C2614 C2613 1.369 . S
C2614 C2615 1.392 . S
C2614 H2627 0.951 . S
C2615 C2614 1.392 . S
C2615 C2617 1.384 . S
H2616 C2618 0.949 . S
C2617 C2615 1.384 . S
C2617 C2618 1.385 . S
C2617 H2619 0.950 . S
C2618 C2612 1.404 . S
C2618 H2616 0.949 . S
C2618 C2617 1.385 . S
H2619 C2617 0.950 . S
H2620 C2604 0.951 . S
H2621 C2606 0.951 . S
H2622 C2608 0.951 . S
H2623 C2609 0.950 . S
H2624 C2610 0.950 . S
H2625 C2611 0.950 . S
H2626 C2613 0.950 . S
H2627 C2614 0.951 . S
C2628 C2629 1.386 . S
C2628 C2630 1.383 . S
C2628 H2644 0.951 . S
C2629 C2628 1.386 . S
C2629 C2633 1.383 . S
C2630 C2628 1.383 . S
C2630 C2631 1.402 . S
C2630 H2645 0.951 . S
C2631 C2630 1.402 . S
C2631 C2632 1.375 . S
C2631 C2634 1.481 . S
C2632 C2631 1.375 . S
C2632 C2633 1.367 . S
C2632 H2646 0.951 . S
C2633 C2629 1.383 . S
C2633 C2632 1.367 . S
C2633 H2647 0.950 . S
C2634 C2631 1.481 . S
C2634 C2635 1.297 . S
C2634 H2648 0.950 . S
C2635 C2634 1.297 . S
C2635 C2636 1.479 . S
C2635 H2649 0.950 . S
C2636 C2635 1.479 . S
C2636 C2637 1.375 . S
C2636 C2642 1.404 . S
C2637 C2636 1.375 . S
C2637 C2638 1.369 . S
C2637 H2650 0.950 . S
C2638 C2637 1.369 . S
C2638 C2639 1.392 . S
C2638 H2651 0.951 . S
C2639 C2638 1.392 . S
C2639 C2641 1.384 . S
H2640 C2642 0.949 . S
C2641 C2639 1.384 . S
C2641 C2642 1.385 . S
C2641 H2643 0.950 . S
C2642 C2636 1.404 . S
C2642 H2640 0.949 . S
C2642 C2641 1.385 . S
H2643 C2641 0.950 . S
H2644 C2628 0.951 . S
H2645 C2630 0.951 . S
H2646 C2632 0.951 . S
H2647 C2633 0.950 . S
H2648 C2634 0.950 . S
H2649 C2635 0.950 . S
H2650 C2637 0.950 . S
H2651 C2638 0.951 . S
C2652 C2653 1.386 . S
C2652 C2654 1.383 . S
C2652 H2668 0.951 . S
C2653 C2652 1.386 . S
C2653 C2657 1.383 . S
C2654 C2652 1.383 . S
C2654 C2655 1.402 . S
C2654 H2669 0.951 . S
C2655 C2654 1.402 . S
C2655 C2656 1.375 . S
C2655 C2658 1.481 . S
C2656 C2655 1.375 . S
C2656 C2657 1.367 . S
C2656 H2670 0.951 . S
C2657 C2653 1.383 . S
C2657 C2656 1.367 . S
C2657 H2671 0.950 . S
C2658 C2655 1.481 . S
C2658 C2659 1.297 . S
C2658 H2672 0.950 . S
C2659 C2658 1.297 . S
C2659 C2660 1.479 . S
C2659 H2673 0.950 . S
C2660 C2659 1.479 . S
C2660 C2661 1.375 . S
C2660 C2666 1.404 . S
C2661 C2660 1.375 . S
C2661 C2662 1.369 . S
C2661 H2674 0.950 . S
C2662 C2661 1.369 . S
C2662 C2663 1.392 . S
C2662 H2675 0.951 . S
C2663 C2662 1.392 . S
C2663 C2665 1.384 . S
H2664 C2666 0.949 . S
C2665 C2663 1.384 . S
C2665 C2666 1.385 . S
C2665 H2667 0.950 . S
C2666 C2660 1.404 . S
C2666 H2664 0.949 . S
C2666 C2665 1.385 . S
H2667 C2665 0.950 . S
H2668 C2652 0.951 . S
H2669 C2654 0.951 . S
H2670 C2656 0.951 . S
H2671 C2657 0.950 . S
H2672 C2658 0.950 . S
H2673 C2659 0.950 . S
H2674 C2661 0.950 . S
H2675 C2662 0.951 . S
C2676 C2677 1.386 . S
C2676 C2678 1.383 . S
C2676 H2692 0.951 . S
C2677 C2676 1.386 . S
C2677 C2681 1.383 . S
C2678 C2676 1.383 . S
C2678 C2679 1.402 . S
C2678 H2693 0.951 . S
C2679 C2678 1.402 . S
C2679 C2680 1.375 . S
C2679 C2682 1.481 . S
C2680 C2679 1.375 . S
C2680 C2681 1.367 . S
C2680 H2694 0.951 . S
C2681 C2677 1.383 . S
C2681 C2680 1.367 . S
C2681 H2695 0.950 . S
C2682 C2679 1.481 . S
C2682 C2683 1.297 . S
C2682 H2696 0.950 . S
C2683 C2682 1.297 . S
C2683 C2684 1.479 . S
C2683 H2697 0.950 . S
C2684 C2683 1.479 . S
C2684 C2685 1.375 . S
C2684 C2690 1.404 . S
C2685 C2684 1.375 . S
C2685 C2686 1.369 . S
C2685 H2698 0.950 . S
C2686 C2685 1.369 . S
C2686 C2687 1.392 . S
C2686 H2699 0.951 . S
C2687 C2686 1.392 . S
C2687 C2689 1.384 . S
H2688 C2690 0.949 . S
C2689 C2687 1.384 . S
C2689 C2690 1.385 . S
C2689 H2691 0.950 . S
C2690 C2684 1.404 . S
C2690 H2688 0.949 . S
C2690 C2689 1.385 . S
H2691 C2689 0.950 . S
H2692 C2676 0.951 . S
H2693 C2678 0.951 . S
H2694 C2680 0.951 . S
H2695 C2681 0.950 . S
H2696 C2682 0.950 . S
H2697 C2683 0.950 . S
H2698 C2685 0.950 . S
H2699 C2686 0.951 . S
C2700 C2701 1.386 . S
C2700 C2702 1.383 . S
C2700 H2716 0.951 . S
C2701 C2700 1.386 . S
C2701 C2705 1.383 . S
C2702 C2700 1.383 . S
C2702 C2703 1.402 . S
C2702 H2717 0.951 . S
C2703 C2702 1.402 . S
C2703 C2704 1.375 . S
C2703 C2706 1.481 . S
C2704 C2703 1.375 . S
C2704 C2705 1.367 . S
C2704 H2718 0.951 . S
C2705 C2701 1.383 . S
C2705 C2704 1.367 . S
C2705 H2719 0.950 . S
C2706 C2703 1.481 . S
C2706 C2707 1.297 . S
C2706 H2720 0.950 . S
C2707 C2706 1.297 . S
C2707 C2708 1.479 . S
C2707 H2721 0.950 . S
C2708 C2707 1.479 . S
C2708 C2709 1.375 . S
C2708 C2714 1.404 . S
C2709 C2708 1.375 . S
C2709 C2710 1.369 . S
C2709 H2722 0.950 . S
C2710 C2709 1.369 . S
C2710 C2711 1.392 . S
C2710 H2723 0.951 . S
C2711 C2710 1.392 . S
C2711 C2713 1.384 . S
H2712 C2714 0.949 . S
C2713 C2711 1.384 . S
C2713 C2714 1.385 . S
C2713 H2715 0.950 . S
C2714 C2708 1.404 . S
C2714 H2712 0.949 . S
C2714 C2713 1.385 . S
H2715 C2713 0.950 . S
H2716 C2700 0.951 . S
H2717 C2702 0.951 . S
H2718 C2704 0.951 . S
H2719 C2705 0.950 . S
H2720 C2706 0.950 . S
H2721 C2707 0.950 . S
H2722 C2709 0.950 . S
H2723 C2710 0.951 . S
C2724 C2725 1.386 . S
C2724 C2726 1.383 . S
C2724 H2740 0.951 . S
C2725 C2724 1.386 . S
C2725 C2729 1.383 . S
C2726 C2724 1.383 . S
C2726 C2727 1.402 . S
C2726 H2741 0.951 . S
C2727 C2726 1.402 . S
C2727 C2728 1.375 . S
C2727 C2730 1.481 . S
C2728 C2727 1.375 . S
C2728 C2729 1.367 . S
C2728 H2742 0.951 . S
C2729 C2725 1.383 . S
C2729 C2728 1.367 . S
C2729 H2743 0.950 . S
C2730 C2727 1.481 . S
C2730 C2731 1.297 . S
C2730 H2744 0.950 . S
C2731 C2730 1.297 . S
C2731 C2732 1.479 . S
C2731 H2745 0.950 . S
C2732 C2731 1.479 . S
C2732 C2733 1.375 . S
C2732 C2738 1.404 . S
C2733 C2732 1.375 . S
C2733 C2734 1.369 . S
C2733 H2746 0.950 . S
C2734 C2733 1.369 . S
C2734 C2735 1.392 . S
C2734 H2747 0.951 . S
C2735 C2734 1.392 . S
C2735 C2737 1.384 . S
H2736 C2738 0.949 . S
C2737 C2735 1.384 . S
C2737 C2738 1.385 . S
C2737 H2739 0.950 . S
C2738 C2732 1.404 . S
C2738 H2736 0.949 . S
C2738 C2737 1.385 . S
H2739 C2737 0.950 . S
H2740 C2724 0.951 . S
H2741 C2726 0.951 . S
H2742 C2728 0.951 . S
H2743 C2729 0.950 . S
H2744 C2730 0.950 . S
H2745 C2731 0.950 . S
H2746 C2733 0.950 . S
H2747 C2734 0.951 . S
C2748 C2749 1.386 . S
C2748 C2750 1.383 . S
C2748 H2764 0.951 . S
C2749 C2748 1.386 . S
C2749 C2753 1.383 . S
C2750 C2748 1.383 . S
C2750 C2751 1.402 . S
C2750 H2765 0.951 . S
C2751 C2750 1.402 . S
C2751 C2752 1.375 . S
C2751 C2754 1.481 . S
C2752 C2751 1.375 . S
C2752 C2753 1.367 . S
C2752 H2766 0.951 . S
C2753 C2749 1.383 . S
C2753 C2752 1.367 . S
C2753 H2767 0.950 . S
C2754 C2751 1.481 . S
C2754 C2755 1.297 . S
C2754 H2768 0.950 . S
C2755 C2754 1.297 . S
C2755 C2756 1.479 . S
C2755 H2769 0.950 . S
C2756 C2755 1.479 . S
C2756 C2757 1.375 . S
C2756 C2762 1.404 . S
C2757 C2756 1.375 . S
C2757 C2758 1.369 . S
C2757 H2770 0.950 . S
C2758 C2757 1.369 . S
C2758 C2759 1.392 . S
C2758 H2771 0.951 . S
C2759 C2758 1.392 . S
C2759 C2761 1.384 . S
H2760 C2762 0.949 . S
C2761 C2759 1.384 . S
C2761 C2762 1.385 . S
C2761 H2763 0.950 . S
C2762 C2756 1.404 . S
C2762 H2760 0.949 . S
C2762 C2761 1.385 . S
H2763 C2761 0.950 . S
H2764 C2748 0.951 . S
H2765 C2750 0.951 . S
H2766 C2752 0.951 . S
H2767 C2753 0.950 . S
H2768 C2754 0.950 . S
H2769 C2755 0.950 . S
H2770 C2757 0.950 . S
H2771 C2758 0.951 . S
C2772 C2773 1.386 . S
C2772 C2774 1.383 . S
C2772 H2788 0.926 1_655 S
C2773 C2772 1.386 . S
C2773 C2777 1.383 . S
C2774 C2772 1.383 . S
C2774 C2775 1.402 . S
C2774 H2789 0.951 1_655 S
C2775 C2774 1.402 . S
C2775 C2776 1.375 . S
C2775 C2778 1.481 . S
C2776 C2775 1.375 . S
C2776 C2777 1.367 . S
C2776 H2790 0.951 . S
C2777 C2773 1.383 . S
C2777 C2776 1.367 . S
C2777 H2791 0.950 . S
C2778 C2775 1.481 . S
C2778 C2779 1.299 . S
C2778 H2792 0.950 . S
C2779 C2778 1.299 . S
C2779 C2780 1.481 1_655 S
C2779 H2793 0.949 1_655 S
C2780 C2779 1.481 1_455 S
C2780 C2781 1.370 . S
C2780 C2786 1.406 1_455 S
C2781 C2780 1.370 . S
C2781 C2782 1.369 . S
C2781 H2794 0.950 . S
C2782 C2781 1.369 . S
C2782 C2783 1.392 1_455 S
C2782 H2795 0.951 . S
C2783 C2782 1.392 1_655 S
C2783 C2785 1.384 . S
H2784 C2786 0.949 . S
C2785 C2783 1.384 . S
C2785 C2786 1.385 . S
C2785 H2787 0.950 . S
C2786 C2780 1.406 1_655 S
C2786 H2784 0.949 . S
C2786 C2785 1.385 . S
H2787 C2785 0.950 . S
H2788 C2772 0.926 1_455 S
H2789 C2774 0.951 1_455 S
H2790 C2776 0.951 . S
H2791 C2777 0.950 . S
H2792 C2778 0.950 . S
H2793 C2779 0.949 1_455 S
H2794 C2781 0.950 . S
H2795 C2782 0.951 . S
C2796 C2797 1.386 . S
C2796 C2798 1.383 . S
C2796 H2812 0.951 . S
C2797 C2796 1.386 . S
C2797 C2801 1.383 . S
C2798 C2796 1.383 . S
C2798 C2799 1.402 . S
C2798 H2813 0.951 . S
C2799 C2798 1.402 . S
C2799 C2800 1.375 . S
C2799 C2802 1.481 . S
C2800 C2799 1.375 . S
C2800 C2801 1.367 . S
C2800 H2814 0.951 . S
C2801 C2797 1.383 . S
C2801 C2800 1.367 . S
C2801 H2815 0.950 . S
C2802 C2799 1.481 . S
C2802 C2803 1.297 . S
C2802 H2816 0.950 . S
C2803 C2802 1.297 . S
C2803 C2804 1.479 . S
C2803 H2817 0.950 . S
C2804 C2803 1.479 . S
C2804 C2805 1.375 . S
C2804 C2810 1.404 . S
C2805 C2804 1.375 . S
C2805 C2806 1.369 . S
C2805 H2818 0.950 . S
C2806 C2805 1.369 . S
C2806 C2807 1.392 . S
C2806 H2819 0.951 . S
C2807 C2806 1.392 . S
C2807 C2809 1.384 . S
H2808 C2810 0.949 . S
C2809 C2807 1.384 . S
C2809 C2810 1.385 . S
C2809 H2811 0.950 . S
C2810 C2804 1.404 . S
C2810 H2808 0.949 . S
C2810 C2809 1.385 . S
H2811 C2809 0.950 . S
H2812 C2796 0.951 . S
H2813 C2798 0.951 . S
H2814 C2800 0.951 . S
H2815 C2801 0.950 . S
H2816 C2802 0.950 . S
H2817 C2803 0.950 . S
H2818 C2805 0.950 . S
H2819 C2806 0.951 . S
C2820 C2821 1.386 . S
C2820 C2822 1.383 . S
C2820 H2836 0.951 . S
C2821 C2820 1.386 . S
C2821 C2825 1.383 . S
C2822 C2820 1.383 . S
C2822 C2823 1.402 . S
C2822 H2837 0.951 . S
C2823 C2822 1.402 . S
C2823 C2824 1.375 . S
C2823 C2826 1.481 . S
C2824 C2823 1.375 . S
C2824 C2825 1.367 . S
C2824 H2838 0.951 . S
C2825 C2821 1.383 . S
C2825 C2824 1.367 . S
C2825 H2839 0.950 . S
C2826 C2823 1.481 . S
C2826 C2827 1.297 . S
C2826 H2840 0.950 . S
C2827 C2826 1.297 . S
C2827 C2828 1.479 . S
C2827 H2841 0.950 . S
C2828 C2827 1.479 . S
C2828 C2829 1.375 . S
C2828 C2834 1.404 . S
C2829 C2828 1.375 . S
C2829 C2830 1.369 . S
C2829 H2842 0.950 . S
C2830 C2829 1.369 . S
C2830 C2831 1.392 . S
C2830 H2843 0.951 . S
C2831 C2830 1.392 . S
C2831 C2833 1.384 . S
H2832 C2834 0.949 . S
C2833 C2831 1.384 . S
C2833 C2834 1.385 . S
C2833 H2835 0.950 1_545 S
C2834 C2828 1.404 . S
C2834 H2832 0.949 . S
C2834 C2833 1.385 . S
H2835 C2833 0.950 1_565 S
H2836 C2820 0.951 . S
H2837 C2822 0.951 . S
H2838 C2824 0.951 . S
H2839 C2825 0.950 . S
H2840 C2826 0.950 . S
H2841 C2827 0.950 . S
H2842 C2829 0.950 . S
H2843 C2830 0.951 . S
C1117 C4 1.434 . S
C1127 C729 1.492 . S
C1141 C26 1.531 . S
C1151 C777 1.529 . S
C1175 C825 1.400 . S
C1165 C32 1.397 . S
C1189 C40 1.392 . S
C1199 C849 1.458 . S
C1213 C12 1.467 . S
C1223 C921 1.459 . S
C1237 C18 1.494 . S
C1247 C969 1.521 . S
C1261 C46 1.405 . S
C1271 C897 1.460 . S
C1295 C945 1.523 . S
C1285 C68 1.534 . S
C1319 C873 1.481 . S
C1309 C74 1.423 . S
C1333 C82 1.411 . S
C1343 C801 1.401 . S
C1367 C705 1.483 . S
C1357 C54 1.480 . S
C1381 C60 1.467 . S
C1391 C753 1.498 . S
C1405 C88 1.567 . S
C1415 C1017 1.612 . S
C1429 C110 1.607 . S
C1439 C1065 1.609 . S
C1463 C1089 1.564 . S
C1453 C116 1.521 . S
C1477 C124 1.468 . S
C1487 C273 1.442 . S
C1501 C96 1.549 . S
C1511 C345 1.526 . S
C1525 C102 1.532 . S
C1535 C393 1.553 . S
C1549 C130 1.495 . S
C1559 C321 1.556 . S
C1573 C152 1.606 . S
C1583 C369 1.611 . S
C1607 C297 1.563 . S
C1597 C158 1.555 . S
C1631 C1113 1.546 . S
C1621 C166 1.547 . S
C1655 C993 1.533 . S
C1645 C138 1.526 . S
C1679 C1041 1.570 . S
C1669 C144 1.551 . S
C1693 C172 1.501 . S
C1703 C441 1.548 . S
C1717 C194 1.602 . S
C1727 C489 1.601 . S
C1741 C200 1.565 . S
C1751 C513 1.576 . S
C1765 C208 1.529 . S
C1775 C561 1.518 . S
C1799 C633 1.518 . S
C1789 C180 1.534 . S
C1823 C681 1.573 . S
C1813 C186 1.528 . S
C1847 C609 1.625 . S
C1837 C214 1.623 . S
C1871 C657 1.614 . S
C1861 C236 1.608 . S
C1885 C242 1.550 . S
C1895 C585 1.529 . S
C1919 C537 1.424 . S
C1909 C250 1.473 . S
C1933 C222 1.547 . S
C1943 C417 1.533 . S
C1967 C465 1.555 . S
C1957 C228 1.500 . S
C1991 C282 1.448 . S
C1981 C5 1.291 . S
C2005 C25 1.377 . S
C2015 C336 1.352 . S
C2039 C384 1.416 . S
C2029 C33 1.333 . S
C2063 C432 1.340 . S
C2053 C39 1.345 . S
C2087 C480 1.423 . S
C2077 C11 1.430 . S
C2111 C522 1.358 . S
C2101 C19 1.180 1_556 S
C2125 C47 1.289 1_556 S
C2135 C528 1.511 . S
C2149 C67 1.379 . S
C2159 C426 1.304 . S
C2173 C75 1.240 1_556 S
C2183 C474 1.460 . S
C2197 C81 1.345 . S
C2207 C330 1.372 . S
C2231 C378 1.366 . S
C2221 C53 1.379 . S
C2245 C61 1.223 . S
C2255 C288 1.355 . S
C2279 C570 1.403 . S
C2269 C89 1.237 . S
C2293 C109 1.464 . S
C2303 C624 1.464 . S
C2317 C117 1.286 . S
C2327 C672 1.451 . S
C2351 C720 1.221 . S
C2341 C123 1.183 . S
C2365 C95 1.358 . S
C2375 C768 1.364 . S
C2389 C103 1.134 . S
C2399 C816 1.202 . S
C2413 C131 1.135 . S
C2423 C810 1.228 . S
C2437 C151 1.212 . S
C2447 C714 1.184 . S
C2471 C762 1.396 . S
C2461 C159 1.229 . S
C2485 C165 1.329 . S
C2495 C618 1.282 . S
C2509 C137 1.452 . S
C2519 C666 1.372 . S
C2543 C576 1.463 . S
C2533 C145 1.190 . S
C2567 C858 1.314 . S
C2557 C173 1.135 . S
C2581 C193 1.207 . S
C2591 C912 1.231 . S
C2605 C201 1.224 . S
C2615 C960 1.345 . S
C2639 C1008 1.270 . S
C2629 C207 1.317 . S
C2663 C1056 1.416 . S
C2653 C179 1.470 . S
C2677 C187 1.281 . S
C2687 C1098 1.454 . S
C2701 C215 1.241 . S
C2711 C1104 1.456 . S
C2725 C235 1.474 . S
C2735 C1002 1.451 . S
C2759 C1050 1.443 . S
C2749 C243 1.202 . S
C2783 C906 1.188 . S
C2773 C249 1.149 . S
C2807 C954 1.350 . S
C2797 C221 1.379 . S
C2821 C229 1.014 . S
C2831 C864 1.235 . S
