# Generated by pormake.
# Topology anh, (6,3)-cn, num edge types: 1
# Building blocks:
#     Node 0, Type 0, BuildingBlock: BETDAH_clean_sbu_0, # of connection points: 6
#     Node 1, Type 0, BuildingBlock: BETDAH_clean_sbu_0, # of connection points: 6
#     Node 2, Type 0, BuildingBlock: BETDAH_clean_sbu_0, # of connection points: 6
#     Node 3, Type 1, BuildingBlock: BETDIP_clean_linker_0, # of connection points: 3
#     Node 4, Type 1, BuildingBlock: BETDIP_clean_linker_0, # of connection points: 3
#     Node 5, Type 1, BuildingBlock: BETDIP_clean_linker_0, # of connection points: 3
#     Node 6, Type 1, BuildingBlock: BETDIP_clean_linker_0, # of connection points: 3
#     Node 7, Type 1, BuildingBlock: BETDIP_clean_linker_0, # of connection points: 3
#     Node 8, Type 1, BuildingBlock: BETDIP_clean_linker_0, # of connection points: 3
#     Edge 9, Type (0, 1), BuildingBlock: AJUNOK_clean_linker_0, # of connection points: 2
#     Edge 10, Type (0, 1), BuildingBlock: AJUNOK_clean_linker_0, # of connection points: 2
#     Edge 11, Type (0, 1), BuildingBlock: AJUNOK_clean_linker_0, # of connection points: 2
#     Edge 12, Type (0, 1), BuildingBlock: AJUNOK_clean_linker_0, # of connection points: 2
#     Edge 13, Type (0, 1), BuildingBlock: AJUNOK_clean_linker_0, # of connection points: 2
#     Edge 14, Type (0, 1), BuildingBlock: AJUNOK_clean_linker_0, # of connection points: 2
#     Edge 15, Type (0, 1), BuildingBlock: AJUNOK_clean_linker_0, # of connection points: 2
#     Edge 16, Type (0, 1), BuildingBlock: AJUNOK_clean_linker_0, # of connection points: 2
#     Edge 17, Type (0, 1), BuildingBlock: AJUNOK_clean_linker_0, # of connection points: 2
#     Edge 18, Type (0, 1), BuildingBlock: AJUNOK_clean_linker_0, # of connection points: 2
#     Edge 19, Type (0, 1), BuildingBlock: AJUNOK_clean_linker_0, # of connection points: 2
#     Edge 20, Type (0, 1), BuildingBlock: AJUNOK_clean_linker_0, # of connection points: 2
#     Edge 21, Type (0, 1), BuildingBlock: AJUNOK_clean_linker_0, # of connection points: 2
#     Edge 22, Type (0, 1), BuildingBlock: AJUNOK_clean_linker_0, # of connection points: 2
#     Edge 23, Type (0, 1), BuildingBlock: AJUNOK_clean_linker_0, # of connection points: 2
#     Edge 24, Type (0, 1), BuildingBlock: AJUNOK_clean_linker_0, # of connection points: 2
#     Edge 25, Type (0, 1), BuildingBlock: AJUNOK_clean_linker_0, # of connection points: 2
#     Edge 26, Type (0, 1), BuildingBlock: AJUNOK_clean_linker_0, # of connection points: 2
# Relax obj value: 0.219
# Max RMSD: 0.210
# Mean RMSD: 0.135
data_MOF--net-anh--node1-BETDAH_clean_sbu_0--node2-BETDIP_clean_linker_0--edge1-AJUNOK_clean_linker_0
_symmetry_space_group_name_H-M    P1
_symmetry_Int_Tables_number       1
_symmetry_cell_setting            triclinic
loop_
_symmetry_equiv_pos_as_xyz
'x, y, z'
_cell_length_a     22.102212
_cell_length_b     29.466157
_cell_length_c     36.473598
_cell_angle_alpha  94.301726
_cell_angle_beta   88.976853
_cell_angle_gamma 132.88498
loop_
_atom_site_label
_atom_site_type_symbol
_atom_site_fract_x
_atom_site_fract_y
_atom_site_fract_z
_atom_type_partial_charge
Ho0 Ho 0.27553 0.64397 0.14558 0.0
Ho1 Ho 0.15725 0.66021 0.16597 0.0
C2 C 0.34697 0.78424 0.15792 0.0
C3 C 0.38148 0.6406 0.11947 0.0
C4 C 0.39628 0.59956 0.12261 0.0
C5 C 0.4765 0.6234 0.1195 0.0
C6 C 0.49124 0.58448 0.12139 0.0
C7 C 0.42573 0.52116 0.12625 0.0
C8 C 0.3459 0.49792 0.13087 0.0
C9 C 0.3313 0.53697 0.1292 0.0
C10 C 0.23772 0.63195 0.21705 0.0
C11 C 1.08636 0.52287 0.15579 0.0
C12 C 1.05763 0.66884 0.19381 0.0
C13 C 0.96624 0.61933 0.19163 0.0
C14 C 0.92472 0.58054 0.22062 0.0
C15 C 0.84545 0.52149 0.2144 0.0
C16 C 0.80642 0.50097 0.17928 0.0
C17 C 0.84343 0.54258 0.15176 0.0
C18 C 0.92258 0.60138 0.15788 0.0
C19 C 1.15202 0.62634 0.0939 0.0
O20 O 0.36076 0.74834 0.14645 0.0
O21 O 0.27345 0.76074 0.16812 0.0
O22 O 0.31331 0.61634 0.10126 0.0
O23 O 0.39546 0.67361 0.14984 0.0
O24 O 0.24917 0.5995 0.1982 0.0
O25 O 0.25092 0.67129 0.19757 0.0
O26 O 1.08317 0.56076 0.1752 0.0
O27 O 1.15171 0.54472 0.13653 0.0
O28 O 1.094 0.69242 0.16289 0.0
O29 O 1.09371 0.65636 0.21294 0.0
O30 O 1.08738 0.60547 0.11178 0.0
O31 O 0.21547 0.66545 0.11463 0.0
H32 H 0.52741 0.67182 0.11489 0.0
H33 H 0.55316 0.60324 0.11748 0.0
H34 H 0.29463 0.4493 0.1349 0.0
H35 H 0.26916 0.51811 0.13238 0.0
H36 H 0.95648 0.59337 0.24707 0.0
H37 H 0.81791 0.49015 0.23604 0.0
H38 H 0.81353 0.52787 0.12459 0.0
H39 H 0.95197 0.63028 0.13507 0.0
Ho40 Ho 0.79924 0.11518 0.47341 0.0
Ho41 Ho 0.66799 0.1202 0.46064 0.0
C42 C 0.60495 0.98757 0.45816 0.0
C43 C 0.87787 0.08597 0.4967 0.0
C44 C 0.85282 0.0291 0.50953 0.0
C45 C 0.78491 0.99103 0.53186 0.0
C46 C 0.76037 0.9361 0.54255 0.0
C47 C 0.80258 0.91782 0.53079 0.0
C48 C 0.87096 0.95637 0.50876 0.0
C49 C 0.8957 1.01142 0.4982 0.0
C50 C 0.78058 0.12954 0.40359 0.0
C51 C 0.86407 0.25008 0.47528 0.0
C52 C 0.58861 0.15056 0.44095 0.0
C53 C 0.59348 0.20147 0.45493 0.0
C54 C 0.59703 0.23773 0.4304 0.0
C55 C 0.60408 0.28717 0.44372 0.0
C56 C 0.60711 0.30073 0.48179 0.0
C57 C 0.60375 0.26445 0.5062 0.0
C58 C 0.5976 0.21571 0.49298 0.0
C59 C 0.68592 0.10481 0.52998 0.0
O60 O 0.67595 1.01554 0.47595 0.0
O61 O 0.59311 1.0202 0.44251 0.0
O62 O 0.86149 0.0828 0.46184 0.0
O63 O 0.86168 0.11422 0.51787 0.0
O64 O 0.85098 0.15479 0.41903 0.0
O65 O 0.72308 0.09474 0.42503 0.0
O66 O 0.78714 0.2212 0.46532 0.0
O67 O 0.88557 0.21922 0.48261 0.0
O68 O 0.55968 0.10756 0.46332 0.0
O69 O 0.65328 0.16739 0.42418 0.0
O70 O 0.61579 0.08031 0.51491 0.0
O71 O 0.74342 0.14023 0.50886 0.0
H72 H 0.75018 1.00328 0.54071 0.0
H73 H 0.70732 0.90726 0.55945 0.0
H74 H 0.9059 0.94431 0.49998 0.0
H75 H 0.94825 0.04014 0.48101 0.0
H76 H 0.59467 0.22794 0.40097 0.0
H77 H 0.60628 0.31432 0.42434 0.0
H78 H 0.60712 0.27444 0.53568 0.0
H79 H 0.59658 0.18942 0.51263 0.0
Ho80 Ho 0.72082 0.57285 0.84508 0.0
Ho81 Ho 0.59363 0.43178 0.84021 0.0
C82 C 0.52315 0.49653 0.85083 0.0
C83 C 0.80198 0.68688 0.83363 0.0
C84 C 0.78012 0.71998 0.81922 0.0
C85 C 0.8052 0.74239 0.78424 0.0
C86 C 0.78308 0.772 0.76952 0.0
C87 C 0.73591 0.7802 0.7896 0.0
C88 C 0.71194 0.75885 0.82483 0.0
C89 C 0.73345 0.7287 0.83947 0.0
C90 C 0.69132 0.521 0.90859 0.0
C91 C 0.79447 0.50969 0.84106 0.0
C92 C 0.51802 0.31759 0.8475 0.0
C93 C 0.53906 0.28171 0.83387 0.0
C94 C 0.52991 0.2408 0.85621 0.0
C95 C 0.55791 0.21155 0.84481 0.0
C96 C 0.59595 0.22323 0.81101 0.0
C97 C 0.60353 0.26339 0.78848 0.0
C98 C 0.57617 0.2928 0.79994 0.0
C99 C 0.62162 0.4808 0.77569 0.0
O100 O 0.59621 0.54627 0.83943 0.0
O101 O 0.51082 0.44761 0.85888 0.0
O102 O 0.7753 0.6651 0.86587 0.0
O103 O 0.79503 0.64795 0.80978 0.0
O104 O 0.76405 0.57229 0.90086 0.0
O105 O 0.63905 0.50355 0.88384 0.0
O106 O 0.71654 0.4563 0.84269 0.0
O107 O 0.81267 0.5625 0.83877 0.0
O108 O 0.49577 0.33406 0.82253 0.0
O109 O 0.57047 0.36296 0.87244 0.0
O110 O 0.55025 0.42998 0.78465 0.0
O111 O 0.67585 0.50072 0.80034 0.0
H112 H 0.84166 0.73669 0.76815 0.0
H113 H 0.80359 0.78911 0.74256 0.0
H114 H 0.67559 0.76475 0.84081 0.0
H115 H 0.71302 0.71195 0.8665 0.0
H116 H 0.50266 0.23248 0.88275 0.0
H117 H 0.55123 0.18075 0.86267 0.0
H118 H 0.63055 0.27204 0.76187 0.0
H119 H 0.58516 0.32496 0.78245 0.0
H120 H 0.66696 0.09055 0.14162 0.0
H121 H 0.81154 0.21296 0.23859 0.0
H122 H 0.614 1.01639 0.24693 0.0
H123 H 0.76124 0.25732 0.19704 0.0
C124 C 0.80444 0.26317 0.17819 0.0
C125 C 0.68106 0.09741 0.17092 0.0
C126 C 0.63242 0.04656 0.19258 0.0
C127 C 0.74525 0.15774 0.18762 0.0
C128 C 0.76228 0.16642 0.22577 0.0
C129 C 0.71617 0.11559 0.24734 0.0
C130 C 0.6508 0.05598 0.2305 0.0
N131 N 0.79171 0.21 0.16639 0.0
H132 H 0.67625 0.55881 0.51944 0.0
H133 H 0.70375 0.63024 0.63184 0.0
H134 H 0.63938 0.45716 0.60989 0.0
H135 H 0.67839 0.68171 0.60792 0.0
C136 C 0.70202 0.69202 0.5805 0.0
C137 C 0.67565 0.55464 0.54874 0.0
C138 C 0.65678 0.5024 0.56149 0.0
C139 C 0.69096 0.60069 0.57369 0.0
C140 C 0.69001 0.59501 0.61182 0.0
C141 C 0.67039 0.54292 0.62461 0.0
C142 C 0.65401 0.4971 0.59954 0.0
N143 N 0.7068 0.65171 0.55966 0.0
H144 H 1.11032 0.50753 0.83328 0.0
H145 H 0.2302 0.54828 0.93911 0.0
H146 H 1.0387 0.55044 0.93048 0.0
H147 H 0.2278 0.47136 0.91054 0.0
C148 C 0.25912 0.49536 0.88608 0.0
C149 C 1.11758 0.51977 0.86264 0.0
C150 C 1.06646 0.52769 0.8796 0.0
C151 C 0.17705 0.52647 0.88404 0.0
C152 C 0.18503 0.54239 0.92232 0.0
C153 C 1.13539 0.55109 0.93918 0.0
C154 C 1.07684 0.54355 0.91757 0.0
N155 N 0.22924 0.51845 0.86718 0.0
H156 H 0.312 0.67778 0.48118 0.0
H157 H 0.15843 0.55211 0.38635 0.0
H158 H 0.35412 0.7479 0.3754 0.0
H159 H 1.06714 0.53141 0.44876 0.0
C160 C 1.09608 0.51539 0.45781 0.0
C161 C 0.29625 0.66971 0.452 0.0
C162 C 0.33902 0.7203 0.43008 0.0
C163 C 0.23011 0.60879 0.43626 0.0
C164 C 0.2089 0.59892 0.39848 0.0
C165 C 0.253 0.64893 0.37632 0.0
C166 C 0.31813 0.70907 0.3924 0.0
N167 N 0.18388 0.55738 0.45826 0.0
H168 H 0.67231 0.04189 0.78493 0.0
H169 H 0.70425 0.99449 0.67614 0.0
H170 H 0.69659 0.13602 0.69314 0.0
H171 H 0.63632 0.90203 0.69985 0.0
C172 C 0.66408 0.91596 0.72749 0.0
C173 C 0.68136 0.04915 0.7559 0.0
C174 C 0.68545 0.09422 0.74192 0.0
C175 C 0.68754 1.01257 0.73248 0.0
C176 C 0.69826 1.02158 0.69466 0.0
C177 C 0.70215 0.06645 0.68052 0.0
C178 C 0.6965 0.10286 0.7043 0.0
N179 N 0.68424 0.96808 0.7479 0.0
H180 H 0.46056 0.31007 0.12197 0.0
H181 H 0.58018 0.30872 0.02782 0.0
H182 H 0.58916 0.4585 0.05131 0.0
H183 H 0.48804 0.20643 0.1373 0.0
C184 C 0.52304 0.25008 0.12495 0.0
C185 C 0.49936 0.33266 0.0988 0.0
C186 C 0.52395 0.38808 0.08938 0.0
C187 C 0.52218 0.30496 0.0774 0.0
C188 C 0.56632 0.33163 0.04548 0.0
C189 C 0.59231 0.38809 0.03666 0.0
C190 C 0.57295 0.41669 0.0593 0.0
N191 N 0.50177 0.25093 0.08858 0.0
C192 C 0.50443 0.49181 0.14237 0.0
C193 C 0.43966 0.47865 0.12212 0.0
C194 C 0.52757 0.45825 0.13399 0.0
C195 C 0.48629 0.4107 0.10525 0.0
H196 H 0.53968 0.53006 0.16362 0.0
H197 H 0.58084 0.47187 0.1485 0.0
S198 S 0.31371 0.35851 0.04407 0.0
N199 N 0.33467 0.4145 0.07241 0.0
N200 N 0.37789 0.35136 0.05703 0.0
C201 C 0.41941 0.39538 0.08599 0.0
C202 C 0.39603 0.42939 0.09436 0.0
C203 C 1.01057 0.35294 0.46997 0.0
C204 C 0.92687 0.31939 0.47668 0.0
C205 C 1.06709 0.41733 0.46565 0.0
C206 C 1.04163 0.45016 0.46785 0.0
H207 H 1.03169 0.32887 0.46629 0.0
H208 H 1.12987 0.44076 0.45887 0.0
S209 S 0.83327 0.38642 0.49058 0.0
N210 N 0.82471 0.32619 0.48968 0.0
N211 N 0.92981 0.44579 0.48089 0.0
C212 C 0.95962 0.41788 0.47662 0.0
C213 C 0.90258 0.35293 0.48124 0.0
C214 C 0.73315 0.86387 0.79409 0.0
C215 C 0.71343 0.81231 0.77405 0.0
C216 C 0.71635 0.89698 0.77915 0.0
C217 C 0.6787 0.87935 0.74371 0.0
H218 H 0.7635 0.87959 0.8212 0.0
H219 H 0.73398 0.93701 0.79541 0.0
S220 S 0.60859 0.74444 0.68141 0.0
N221 N 0.65 0.74291 0.71798 0.0
N222 N 0.61847 0.80513 0.6898 0.0
C223 C 0.65681 0.82692 0.72382 0.0
C224 C 0.67418 0.79339 0.73898 0.0
C225 C 0.7406 0.40441 0.13946 0.0
C226 C 0.73481 0.43428 0.16926 0.0
C227 C 0.6729 0.3427 0.12711 0.0
C228 C 0.59734 0.30857 0.14432 0.0
H229 H 0.79746 0.42948 0.12499 0.0
H230 H 0.67853 0.32232 0.10289 0.0
S231 S 0.55091 0.36399 0.22432 0.0
N232 N 0.64863 0.42445 0.21665 0.0
N233 N 0.52069 0.30739 0.19334 0.0
C234 C 0.59161 0.3365 0.17528 0.0
C235 C 0.66067 0.39978 0.1878 0.0
C236 C 0.45586 0.8909 0.446 0.0
C237 C 0.53665 0.91854 0.4559 0.0
C238 C 0.39087 0.82622 0.44071 0.0
C239 C 0.40358 0.78619 0.44514 0.0
H240 H 0.44276 0.91943 0.44134 0.0
H241 H 0.33067 0.8073 0.43138 0.0
S242 S 0.60145 0.83361 0.47254 0.0
N243 N 0.6245 0.89991 0.47167 0.0
N244 N 0.50165 0.77808 0.46132 0.0
C245 C 0.48276 0.8126 0.45666 0.0
C246 C 0.54943 0.8788 0.46214 0.0
C247 C 0.57352 0.1277 0.79931 0.0
C248 C 0.62564 0.1924 0.79846 0.0
C249 C 0.59578 0.09644 0.78299 0.0
C250 C 0.67082 0.12891 0.76532 0.0
H251 H 0.51331 0.10059 0.81096 0.0
H252 H 0.552 0.04622 0.78239 0.0
S253 S 0.83476 0.29946 0.76082 0.0
N254 N 0.76003 0.28859 0.78248 0.0
N255 N 0.80119 0.2296 0.75155 0.0
C256 C 0.7257 0.19391 0.76639 0.0
C257 C 0.70327 0.22573 0.78302 0.0
C258 C 0.76122 0.84648 0.57934 0.0
C259 C 0.77631 0.85935 0.54221 0.0
C260 C 0.73757 0.79229 0.59103 0.0
C261 C 0.72793 0.74868 0.56618 0.0
H262 H 0.76887 0.879 0.59967 0.0
H263 H 0.72754 0.78478 0.61997 0.0
S264 S 0.7544 0.75827 0.46546 0.0
N265 N 0.77589 0.82247 0.48021 0.0
N266 N 0.73224 0.72084 0.50232 0.0
C267 C 0.74197 0.7605 0.52887 0.0
C268 C 0.76594 0.81577 0.51689 0.0
C269 C 0.94725 0.56684 0.84304 0.0
C270 C 0.86368 0.51069 0.84435 0.0
C271 C 1.01328 0.57079 0.85086 0.0
C272 C 0.9993 0.51867 0.85988 0.0
H273 H 0.96216 0.60904 0.83753 0.0
H274 H 1.07587 0.6159 0.85194 0.0
S275 S 0.79385 0.36017 0.86626 0.0
N276 N 0.77209 0.40084 0.85435 0.0
N277 N 0.89572 0.40898 0.86901 0.0
C278 C 0.91659 0.46183 0.85979 0.0
C279 C 0.84918 0.45762 0.85196 0.0
C280 C 0.49812 0.87929 0.1532 0.0
C281 C 0.41779 0.85316 0.16167 0.0
C282 C 0.56749 0.94313 0.16087 0.0
C283 C 0.55903 0.9832 0.17705 0.0
H284 H 0.50822 0.84997 0.14188 0.0
H285 H 0.62844 0.96071 0.15575 0.0
S286 S 0.36389 0.94103 0.20192 0.0
N287 N 0.33477 0.87483 0.18499 0.0
N288 N 0.46537 0.99413 0.19946 0.0
C289 C 0.47944 0.95873 0.18405 0.0
C290 C 0.40877 0.89395 0.17627 0.0
C291 C 0.55853 0.3408 0.5232 0.0
C292 C 0.61389 0.35239 0.49686 0.0
C293 C 0.5702 0.3895 0.5422 0.0
C294 C 0.63831 0.45196 0.536 0.0
H295 H 0.50704 0.2937 0.52998 0.0
H296 H 0.52703 0.37823 0.56295 0.0
S297 S 0.79841 0.50689 0.46813 0.0
N298 N 0.73614 0.43044 0.46362 0.0
N299 N 0.75956 0.52242 0.50015 0.0
C300 C 0.69182 0.46406 0.50835 0.0
C301 C 0.6793 0.41417 0.48862 0.0
C302 C 0.38858 0.45267 0.87874 0.0
C303 C 0.45513 0.49657 0.85697 0.0
C304 C 0.3259 0.45263 0.88684 0.0
C305 C 0.32472 0.49555 0.8731 0.0
H306 H 0.38557 0.41856 0.89055 0.0
H307 H 0.27779 0.41857 0.90452 0.0
S308 S 0.48268 0.61992 0.81391 0.0
N309 N 0.5149 0.58448 0.82133 0.0
N310 N 0.39618 0.58321 0.83598 0.0
C311 C 0.38963 0.53905 0.85059 0.0
C312 C 0.45479 0.53986 0.84276 0.0
C313 C 0.93948 0.43493 0.17014 0.0
C314 C 1.01403 0.45489 0.15689 0.0
C315 C 0.8719 0.37251 0.1754 0.0
C316 C 0.87504 0.32682 0.16747 0.0
H317 H 0.93336 0.46795 0.17729 0.0
H318 H 0.81695 0.36015 0.18661 0.0
S319 S 1.05317 0.35305 0.13004 0.0
N320 N 1.08537 0.42291 0.13424 0.0
N321 N 0.95748 0.30499 0.14402 0.0
C322 C 0.9476 0.34517 0.15271 0.0
C323 C 1.01716 0.40932 0.14742 0.0
C324 C 1.07506 0.55513 0.03691 0.0
C325 C 1.15082 0.60631 0.05519 0.0
C326 C 1.07127 0.53633 -0.00011 0.0
C327 C 1.14307 0.56808 0.97952 0.0
H328 H 1.01795 0.52959 0.05121 0.0
H329 H 1.01128 0.49698 0.98692 0.0
S330 S 0.35705 0.70509 0.01472 0.0
N331 N 0.29967 0.68808 0.05041 0.0
N332 N 0.29242 0.65317 0.98066 0.0
C333 C 0.21951 0.61861 -0.00229 0.0
C334 C 0.22339 0.6377 0.03553 0.0
C335 C 0.68697 0.09818 0.34997 0.0
C336 C 0.76715 0.13074 0.36422 0.0
C337 C 0.67136 0.09483 0.31233 0.0
C338 C 0.73552 0.12402 0.28747 0.0
H339 H 0.63528 0.07414 0.36796 0.0
H340 H 0.60856 0.06877 0.30255 0.0
S341 S 0.95689 0.21616 0.31092 0.0
N342 N 0.91196 0.19425 0.35072 0.0
N343 N 0.88246 0.18701 0.27986 0.0
C344 C 0.81628 0.1579 0.30149 0.0
C345 C 0.83228 0.16152 0.33987 0.0
C346 C 0.56994 0.47465 0.71388 0.0
C347 C 0.63766 0.50233 0.73838 0.0
C348 C 0.58146 0.48965 0.67736 0.0
C349 C 0.66109 0.53337 0.66415 0.0
H350 H 0.50725 0.44003 0.72271 0.0
H351 H 0.52769 0.46604 0.65908 0.0
S352 S 0.85905 0.62033 0.7168 0.0
N353 N 0.78753 0.57624 0.74668 0.0
N354 N 0.80877 0.60535 0.67796 0.0
C355 C 0.72948 0.56282 0.68838 0.0
C356 C 0.71787 0.54712 0.72559 0.0
C357 C 0.76344 0.14046 0.59024 0.0
C358 C 0.69581 0.09226 0.56654 0.0
C359 C 0.76738 0.13103 0.62692 0.0
C360 C 0.70508 0.07268 0.64055 0.0
H361 H 0.81115 0.18645 0.58096 0.0
H362 H 0.81797 0.17006 0.64509 0.0
S363 S 0.52131 0.92964 0.58774 0.0
N364 N 0.56929 0.98313 0.55797 0.0
N365 N 0.57782 0.96492 0.62664 0.0
C366 C 0.64023 1.02317 0.61631 0.0
C367 C 0.63528 0.03313 0.5793 0.0
C368 C 0.58856 0.42932 0.94353 0.0
C369 C 0.67149 0.48382 0.93953 0.0
C370 C 0.56523 0.39388 0.97322 0.0
C371 C 0.62359 0.41234 0.00057 0.0
H372 H 0.54041 0.41482 0.92424 0.0
H373 H 0.50003 0.35437 0.97634 0.0
S374 S 0.84903 0.54901 0.00244 0.0
N375 N 0.81322 0.55219 0.96426 0.0
N376 N 0.76795 0.48681 0.02156 0.0
C377 C 0.7071 0.46534 -0.00352 0.0
C378 C 0.73139 0.50094 0.96564 0.0
C379 C 0.22672 0.59053 0.27639 0.0
C380 C 0.231 0.63247 0.25743 0.0
C381 C 0.22923 0.59388 0.31493 0.0
C382 C 0.23553 0.63905 0.33592 0.0
H383 H 0.22441 0.55616 0.26141 0.0
H384 H 0.23028 0.56282 0.32832 0.0
S385 S 0.23737 0.75431 0.2995 0.0
N386 N 0.23554 0.71749 0.26247 0.0
N387 N 0.23616 0.72187 0.33485 0.0
C388 C 0.23434 0.67859 0.31723 0.0
C389 C 0.23307 0.67579 0.278 0.0
loop_
_geom_bond_atom_site_label_1
_geom_bond_atom_site_label_2
_geom_bond_distance
_geom_bond_site_symmetry_2
_ccdc_geom_bond_type
Ho0 C3 2.811 . S
Ho0 O20 2.322 . S
Ho0 O22 2.378 . S
Ho0 O23 2.524 . S
Ho0 O24 2.381 . S
Ho0 O25 2.669 . S
Ho0 O27 2.346 1_455 S
Ho0 O31 2.305 . S
Ho1 C12 2.811 1_455 S
Ho1 O21 2.346 . S
Ho1 O25 2.305 . S
Ho1 O26 2.322 1_455 S
Ho1 O28 2.378 1_455 S
Ho1 O29 2.524 1_455 S
Ho1 O30 2.381 . S
Ho1 O31 2.669 . S
C2 O20 1.259 . S
C2 O21 1.268 . S
C3 Ho0 2.811 . S
C3 C4 1.488 . S
C3 O22 1.215 . S
C3 O23 1.289 . S
C4 C3 1.488 . S
C4 C5 1.348 . S
C4 C9 1.413 . S
C5 C4 1.348 . S
C5 C6 1.442 . S
C5 H32 0.930 . S
C6 C5 1.442 . S
C6 C7 1.381 . S
C6 H33 0.931 . S
C7 C6 1.381 . S
C7 C8 1.321 . S
C8 C7 1.321 . S
C8 C9 1.403 . S
C8 H34 0.934 . S
C9 C4 1.413 . S
C9 C8 1.403 . S
C9 H35 0.930 . S
C10 O24 1.275 . S
C10 O25 1.256 . S
C11 O26 1.259 . S
C11 O27 1.268 . S
C12 Ho1 2.811 1_655 S
C12 C13 1.488 . S
C12 O28 1.215 . S
C12 O29 1.289 . S
C13 C12 1.488 . S
C13 C14 1.348 . S
C13 C18 1.413 . S
C14 C13 1.348 . S
C14 C15 1.442 . S
C14 H36 0.930 . S
C15 C14 1.442 . S
C15 C16 1.381 . S
C15 H37 0.931 . S
C16 C15 1.381 . S
C16 C17 1.321 . S
C17 C16 1.321 . S
C17 C18 1.403 . S
C17 H38 0.934 . S
C18 C13 1.413 . S
C18 C17 1.403 . S
C18 H39 0.930 . S
C19 O30 1.275 . S
C19 O31 1.256 . S
O20 Ho0 2.322 . S
O20 C2 1.259 . S
O21 Ho1 2.346 . S
O21 C2 1.268 . S
O22 Ho0 2.378 . S
O22 C3 1.215 . S
O23 Ho0 2.524 . S
O23 C3 1.289 . S
O24 Ho0 2.381 . S
O24 C10 1.275 . S
O25 Ho0 2.669 . S
O25 Ho1 2.305 . S
O25 C10 1.256 . S
O26 Ho1 2.322 1_655 S
O26 C11 1.259 . S
O27 Ho0 2.346 1_655 S
O27 C11 1.268 . S
O28 Ho1 2.378 1_655 S
O28 C12 1.215 . S
O29 Ho1 2.524 1_655 S
O29 C12 1.289 . S
O30 Ho1 2.381 . S
O30 C19 1.275 . S
O31 Ho0 2.305 . S
O31 Ho1 2.669 . S
O31 C19 1.256 . S
H32 C5 0.930 . S
H33 C6 0.931 . S
H34 C8 0.934 . S
H35 C9 0.930 . S
H36 C14 0.930 . S
H37 C15 0.931 . S
H38 C17 0.934 . S
H39 C18 0.930 . S
Ho40 C43 2.811 1_545 S
Ho40 O60 2.322 1_545 S
Ho40 O62 2.378 1_545 S
Ho40 O63 2.524 1_545 S
Ho40 O64 2.381 . S
Ho40 O65 2.669 . S
Ho40 O67 2.346 . S
Ho40 O71 2.305 . S
Ho41 C52 2.811 . S
Ho41 O61 2.346 1_545 S
Ho41 O65 2.305 . S
Ho41 O66 2.322 . S
Ho41 O68 2.378 . S
Ho41 O69 2.524 . S
Ho41 O70 2.381 . S
Ho41 O71 2.669 . S
C42 O60 1.259 . S
C42 O61 1.268 . S
C43 Ho40 2.811 1_565 S
C43 C44 1.488 . S
C43 O62 1.215 . S
C43 O63 1.289 . S
C44 C43 1.488 . S
C44 C45 1.348 . S
C44 C49 1.413 . S
C45 C44 1.348 . S
C45 C46 1.442 . S
C45 H72 0.930 . S
C46 C45 1.442 . S
C46 C47 1.381 . S
C46 H73 0.931 . S
C47 C46 1.381 . S
C47 C48 1.321 . S
C48 C47 1.321 . S
C48 C49 1.403 . S
C48 H74 0.934 . S
C49 C44 1.413 . S
C49 C48 1.403 . S
C49 H75 0.930 . S
C50 O64 1.275 . S
C50 O65 1.256 . S
C51 O66 1.259 . S
C51 O67 1.268 . S
C52 Ho41 2.811 . S
C52 C53 1.488 . S
C52 O68 1.215 . S
C52 O69 1.289 . S
C53 C52 1.488 . S
C53 C54 1.348 . S
C53 C58 1.413 . S
C54 C53 1.348 . S
C54 C55 1.442 . S
C54 H76 0.930 . S
C55 C54 1.442 . S
C55 C56 1.381 . S
C55 H77 0.931 . S
C56 C55 1.381 . S
C56 C57 1.321 . S
C57 C56 1.321 . S
C57 C58 1.403 . S
C57 H78 0.934 . S
C58 C53 1.413 . S
C58 C57 1.403 . S
C58 H79 0.930 . S
C59 O70 1.275 . S
C59 O71 1.256 . S
O60 Ho40 2.322 1_565 S
O60 C42 1.259 . S
O61 Ho41 2.346 1_565 S
O61 C42 1.268 . S
O62 Ho40 2.378 1_565 S
O62 C43 1.215 . S
O63 Ho40 2.524 1_565 S
O63 C43 1.289 . S
O64 Ho40 2.381 . S
O64 C50 1.275 . S
O65 Ho40 2.669 . S
O65 Ho41 2.305 . S
O65 C50 1.256 . S
O66 Ho41 2.322 . S
O66 C51 1.259 . S
O67 Ho40 2.346 . S
O67 C51 1.268 . S
O68 Ho41 2.378 . S
O68 C52 1.215 . S
O69 Ho41 2.524 . S
O69 C52 1.289 . S
O70 Ho41 2.381 . S
O70 C59 1.275 . S
O71 Ho40 2.305 . S
O71 Ho41 2.669 . S
O71 C59 1.256 . S
H72 C45 0.930 . S
H73 C46 0.931 . S
H74 C48 0.934 . S
H75 C49 0.930 . S
H76 C54 0.930 . S
H77 C55 0.931 . S
H78 C57 0.934 . S
H79 C58 0.930 . S
Ho80 C83 2.811 . S
Ho80 O100 2.322 . S
Ho80 O102 2.378 . S
Ho80 O103 2.524 . S
Ho80 O104 2.381 . S
Ho80 O105 2.669 . S
Ho80 O107 2.346 . S
Ho80 O111 2.305 . S
Ho81 C92 2.811 . S
Ho81 O101 2.346 . S
Ho81 O105 2.305 . S
Ho81 O106 2.322 . S
Ho81 O108 2.378 . S
Ho81 O109 2.524 . S
Ho81 O110 2.381 . S
Ho81 O111 2.669 . S
C82 O100 1.259 . S
C82 O101 1.268 . S
C83 Ho80 2.811 . S
C83 C84 1.488 . S
C83 O102 1.215 . S
C83 O103 1.289 . S
C84 C83 1.488 . S
C84 C85 1.348 . S
C84 C89 1.413 . S
C85 C84 1.348 . S
C85 C86 1.442 . S
C85 H112 0.930 . S
C86 C85 1.442 . S
C86 C87 1.381 . S
C86 H113 0.931 . S
C87 C86 1.381 . S
C87 C88 1.321 . S
C88 C87 1.321 . S
C88 C89 1.403 . S
C88 H114 0.934 . S
C89 C84 1.413 . S
C89 C88 1.403 . S
C89 H115 0.930 . S
C90 O104 1.275 . S
C90 O105 1.256 . S
C91 O106 1.259 . S
C91 O107 1.268 . S
C92 Ho81 2.811 . S
C92 C93 1.488 . S
C92 O108 1.215 . S
C92 O109 1.289 . S
C93 C92 1.488 . S
C93 C94 1.348 . S
C93 C98 1.413 . S
C94 C93 1.348 . S
C94 C95 1.442 . S
C94 H116 0.930 . S
C95 C94 1.442 . S
C95 C96 1.381 . S
C95 H117 0.931 . S
C96 C95 1.381 . S
C96 C97 1.321 . S
C97 C96 1.321 . S
C97 C98 1.403 . S
C97 H118 0.934 . S
C98 C93 1.413 . S
C98 C97 1.403 . S
C98 H119 0.930 . S
C99 O110 1.275 . S
C99 O111 1.256 . S
O100 Ho80 2.322 . S
O100 C82 1.259 . S
O101 Ho81 2.346 . S
O101 C82 1.268 . S
O102 Ho80 2.378 . S
O102 C83 1.215 . S
O103 Ho80 2.524 . S
O103 C83 1.289 . S
O104 Ho80 2.381 . S
O104 C90 1.275 . S
O105 Ho80 2.669 . S
O105 Ho81 2.305 . S
O105 C90 1.256 . S
O106 Ho81 2.322 . S
O106 C91 1.259 . S
O107 Ho80 2.346 . S
O107 C91 1.268 . S
O108 Ho81 2.378 . S
O108 C92 1.215 . S
O109 Ho81 2.524 . S
O109 C92 1.289 . S
O110 Ho81 2.381 . S
O110 C99 1.275 . S
O111 Ho80 2.305 . S
O111 Ho81 2.669 . S
O111 C99 1.256 . S
H112 C85 0.930 . S
H113 C86 0.931 . S
H114 C88 0.934 . S
H115 C89 0.930 . S
H116 C94 0.930 . S
H117 C95 0.931 . S
H118 C97 0.934 . S
H119 C98 0.930 . S
H120 C125 0.930 . S
H121 C128 0.930 . S
H122 C130 0.930 . S
H123 C124 1.016 . S
C124 H123 1.016 . S
C124 N131 1.286 . S
C125 H120 0.930 . S
C125 C126 1.397 1_545 S
C125 C127 1.361 . S
C126 C125 1.397 1_565 S
C126 C130 1.390 . S
C127 C125 1.361 . S
C127 C128 1.393 . S
C127 N131 1.413 . S
C128 H121 0.930 . S
C128 C127 1.393 . S
C128 C129 1.399 . S
C129 C128 1.399 . S
C129 C130 1.381 1_545 S
C130 H122 0.930 . S
C130 C126 1.390 . S
C130 C129 1.381 1_565 S
N131 C124 1.286 . S
N131 C127 1.413 . S
H132 C137 0.930 . S
H133 C140 0.930 . S
H134 C142 0.930 . S
H135 C136 1.016 . S
C136 H135 1.016 . S
C136 N143 1.286 . S
C137 H132 0.930 . S
C137 C138 1.397 . S
C137 C139 1.361 . S
C138 C137 1.397 . S
C138 C142 1.390 . S
C139 C137 1.361 . S
C139 C140 1.393 . S
C139 N143 1.413 . S
C140 H133 0.930 . S
C140 C139 1.393 . S
C140 C141 1.399 . S
C141 C140 1.399 . S
C141 C142 1.381 . S
C142 H134 0.930 . S
C142 C138 1.390 . S
C142 C141 1.381 . S
N143 C136 1.286 . S
N143 C139 1.413 . S
H144 C149 0.930 1_655 S
H145 C152 0.930 . S
H146 C154 0.930 . S
H147 C148 1.016 . S
C148 H147 1.016 . S
C148 N155 1.286 . S
C149 H144 0.930 1_455 S
C149 C150 1.397 1_455 S
C149 C151 1.361 . S
C150 C149 1.397 1_655 S
C150 C154 1.390 . S
C151 C149 1.361 . S
C151 C152 1.393 . S
C151 N155 1.413 . S
C152 H145 0.930 . S
C152 C151 1.393 . S
C152 C153 1.399 . S
C153 C152 1.399 . S
C153 C154 1.381 1_455 S
C154 H146 0.930 . S
C154 C150 1.390 . S
C154 C153 1.381 1_655 S
N155 C148 1.286 . S
N155 C151 1.413 . S
H156 C161 0.930 . S
H157 C164 0.930 . S
H158 C166 0.930 . S
H159 C160 1.016 . S
C160 H159 1.016 . S
C160 N167 1.286 . S
C161 H156 0.930 . S
C161 C162 1.397 . S
C161 C163 1.361 1_455 S
C162 C161 1.397 . S
C162 C166 1.390 . S
C163 C161 1.361 1_655 S
C163 C164 1.393 . S
C163 N167 1.413 . S
C164 H157 0.930 . S
C164 C163 1.393 . S
C164 C165 1.399 1_655 S
C165 C164 1.399 1_455 S
C165 C166 1.381 . S
C166 H158 0.930 . S
C166 C162 1.390 . S
C166 C165 1.381 . S
N167 C160 1.286 . S
N167 C163 1.413 . S
H168 C173 0.930 . S
H169 C176 0.930 1_565 S
H170 C178 0.930 . S
H171 C172 1.016 . S
C172 H171 1.016 . S
C172 N179 1.286 . S
C173 H168 0.930 . S
C173 C174 1.397 . S
C173 C175 1.361 . S
C174 C173 1.397 . S
C174 C178 1.390 . S
C175 C173 1.361 . S
C175 C176 1.393 . S
C175 N179 1.413 1_545 S
C176 H169 0.930 1_545 S
C176 C175 1.393 . S
C176 C177 1.399 . S
C177 C176 1.399 . S
C177 C178 1.381 . S
C178 H170 0.930 . S
C178 C174 1.390 . S
C178 C177 1.381 . S
N179 C172 1.286 . S
N179 C175 1.413 1_565 S
H180 C185 0.930 . S
H181 C188 0.930 . S
H182 C190 0.930 . S
H183 C184 1.016 . S
C184 H183 1.016 . S
C184 N191 1.286 . S
C185 H180 0.930 . S
C185 C186 1.397 . S
C185 C187 1.361 . S
C186 C185 1.397 . S
C186 C190 1.390 . S
C187 C185 1.361 . S
C187 C188 1.393 . S
C187 N191 1.413 . S
C188 H181 0.930 . S
C188 C187 1.393 . S
C188 C189 1.399 . S
C189 C188 1.399 . S
C189 C190 1.381 . S
C190 H182 0.930 . S
C190 C186 1.390 . S
C190 C189 1.381 . S
N191 C184 1.286 . S
N191 C187 1.413 . S
C192 C193 1.369 . S
C192 C194 1.419 . S
C192 H196 0.930 . S
C193 C192 1.369 . S
C193 C202 1.429 . S
C194 C192 1.419 . S
C194 C195 1.363 . S
C194 H197 0.929 . S
C195 C194 1.363 . S
C195 C201 1.428 . S
H196 C192 0.930 . S
H197 C194 0.929 . S
S198 N199 1.613 . S
S198 N200 1.610 . S
N199 S198 1.613 . S
N199 C202 1.350 . S
N200 S198 1.610 . S
N200 C201 1.351 . S
C201 C195 1.428 . S
C201 N200 1.351 . S
C201 C202 1.434 . S
C202 C193 1.429 . S
C202 N199 1.350 . S
C202 C201 1.434 . S
C203 C204 1.369 . S
C203 C205 1.419 . S
C203 H207 0.930 . S
C204 C203 1.369 . S
C204 C213 1.429 . S
C205 C203 1.419 . S
C205 C206 1.363 . S
C205 H208 0.929 . S
C206 C205 1.363 . S
C206 C212 1.428 . S
H207 C203 0.930 . S
H208 C205 0.929 . S
S209 N210 1.613 . S
S209 N211 1.610 . S
N210 S209 1.613 . S
N210 C213 1.350 . S
N211 S209 1.610 . S
N211 C212 1.351 . S
C212 C206 1.428 . S
C212 N211 1.351 . S
C212 C213 1.434 . S
C213 C204 1.429 . S
C213 N210 1.350 . S
C213 C212 1.434 . S
C214 C215 1.369 . S
C214 C216 1.419 . S
C214 H218 0.930 . S
C215 C214 1.369 . S
C215 C224 1.429 . S
C216 C214 1.419 . S
C216 C217 1.363 . S
C216 H219 0.929 . S
C217 C216 1.363 . S
C217 C223 1.428 . S
H218 C214 0.930 . S
H219 C216 0.929 . S
S220 N221 1.613 . S
S220 N222 1.610 . S
N221 S220 1.613 . S
N221 C224 1.350 . S
N222 S220 1.610 . S
N222 C223 1.351 . S
C223 C217 1.428 . S
C223 N222 1.351 . S
C223 C224 1.434 . S
C224 C215 1.429 . S
C224 N221 1.350 . S
C224 C223 1.434 . S
C225 C226 1.369 . S
C225 C227 1.419 . S
C225 H229 0.930 . S
C226 C225 1.369 . S
C226 C235 1.429 . S
C227 C225 1.419 . S
C227 C228 1.363 . S
C227 H230 0.929 . S
C228 C227 1.363 . S
C228 C234 1.428 . S
H229 C225 0.930 . S
H230 C227 0.929 . S
S231 N232 1.613 . S
S231 N233 1.610 . S
N232 S231 1.613 . S
N232 C235 1.350 . S
N233 S231 1.610 . S
N233 C234 1.351 . S
C234 C228 1.428 . S
C234 N233 1.351 . S
C234 C235 1.434 . S
C235 C226 1.429 . S
C235 N232 1.350 . S
C235 C234 1.434 . S
C236 C237 1.369 . S
C236 C238 1.419 . S
C236 H240 0.930 . S
C237 C236 1.369 . S
C237 C246 1.429 . S
C238 C236 1.419 . S
C238 C239 1.363 . S
C238 H241 0.929 . S
C239 C238 1.363 . S
C239 C245 1.428 . S
H240 C236 0.930 . S
H241 C238 0.929 . S
S242 N243 1.613 . S
S242 N244 1.610 . S
N243 S242 1.613 . S
N243 C246 1.350 . S
N244 S242 1.610 . S
N244 C245 1.351 . S
C245 C239 1.428 . S
C245 N244 1.351 . S
C245 C246 1.434 . S
C246 C237 1.429 . S
C246 N243 1.350 . S
C246 C245 1.434 . S
C247 C248 1.369 . S
C247 C249 1.419 . S
C247 H251 0.930 . S
C248 C247 1.369 . S
C248 C257 1.429 . S
C249 C247 1.419 . S
C249 C250 1.363 . S
C249 H252 0.929 . S
C250 C249 1.363 . S
C250 C256 1.428 . S
H251 C247 0.930 . S
H252 C249 0.929 . S
S253 N254 1.613 . S
S253 N255 1.610 . S
N254 S253 1.613 . S
N254 C257 1.350 . S
N255 S253 1.610 . S
N255 C256 1.351 . S
C256 C250 1.428 . S
C256 N255 1.351 . S
C256 C257 1.434 . S
C257 C248 1.429 . S
C257 N254 1.350 . S
C257 C256 1.434 . S
C258 C259 1.369 . S
C258 C260 1.419 . S
C258 H262 0.930 . S
C259 C258 1.369 . S
C259 C268 1.429 . S
C260 C258 1.419 . S
C260 C261 1.363 . S
C260 H263 0.929 . S
C261 C260 1.363 . S
C261 C267 1.428 . S
H262 C258 0.930 . S
H263 C260 0.929 . S
S264 N265 1.613 . S
S264 N266 1.610 . S
N265 S264 1.613 . S
N265 C268 1.350 . S
N266 S264 1.610 . S
N266 C267 1.351 . S
C267 C261 1.428 . S
C267 N266 1.351 . S
C267 C268 1.434 . S
C268 C259 1.429 . S
C268 N265 1.350 . S
C268 C267 1.434 . S
C269 C270 1.369 . S
C269 C271 1.419 . S
C269 H273 0.930 . S
C270 C269 1.369 . S
C270 C279 1.429 . S
C271 C269 1.419 . S
C271 C272 1.363 . S
C271 H274 0.929 . S
C272 C271 1.363 . S
C272 C278 1.428 . S
H273 C269 0.930 . S
H274 C271 0.929 . S
S275 N276 1.613 . S
S275 N277 1.610 . S
N276 S275 1.613 . S
N276 C279 1.350 . S
N277 S275 1.610 . S
N277 C278 1.351 . S
C278 C272 1.428 . S
C278 N277 1.351 . S
C278 C279 1.434 . S
C279 C270 1.429 . S
C279 N276 1.350 . S
C279 C278 1.434 . S
C280 C281 1.369 . S
C280 C282 1.419 . S
C280 H284 0.930 . S
C281 C280 1.369 . S
C281 C290 1.429 . S
C282 C280 1.419 . S
C282 C283 1.363 . S
C282 H285 0.929 . S
C283 C282 1.363 . S
C283 C289 1.428 . S
H284 C280 0.930 . S
H285 C282 0.929 . S
S286 N287 1.613 . S
S286 N288 1.610 . S
N287 S286 1.613 . S
N287 C290 1.350 . S
N288 S286 1.610 . S
N288 C289 1.351 . S
C289 C283 1.428 . S
C289 N288 1.351 . S
C289 C290 1.434 . S
C290 C281 1.429 . S
C290 N287 1.350 . S
C290 C289 1.434 . S
C291 C292 1.369 . S
C291 C293 1.419 . S
C291 H295 0.930 . S
C292 C291 1.369 . S
C292 C301 1.429 . S
C293 C291 1.419 . S
C293 C294 1.363 . S
C293 H296 0.929 . S
C294 C293 1.363 . S
C294 C300 1.428 . S
H295 C291 0.930 . S
H296 C293 0.929 . S
S297 N298 1.613 . S
S297 N299 1.610 . S
N298 S297 1.613 . S
N298 C301 1.350 . S
N299 S297 1.610 . S
N299 C300 1.351 . S
C300 C294 1.428 . S
C300 N299 1.351 . S
C300 C301 1.434 . S
C301 C292 1.429 . S
C301 N298 1.350 . S
C301 C300 1.434 . S
C302 C303 1.369 . S
C302 C304 1.419 . S
C302 H306 0.930 . S
C303 C302 1.369 . S
C303 C312 1.429 . S
C304 C302 1.419 . S
C304 C305 1.363 . S
C304 H307 0.929 . S
C305 C304 1.363 . S
C305 C311 1.428 . S
H306 C302 0.930 . S
H307 C304 0.929 . S
S308 N309 1.613 . S
S308 N310 1.610 . S
N309 S308 1.613 . S
N309 C312 1.350 . S
N310 S308 1.610 . S
N310 C311 1.351 . S
C311 C305 1.428 . S
C311 N310 1.351 . S
C311 C312 1.434 . S
C312 C303 1.429 . S
C312 N309 1.350 . S
C312 C311 1.434 . S
C313 C314 1.369 . S
C313 C315 1.419 . S
C313 H317 0.930 . S
C314 C313 1.369 . S
C314 C323 1.429 . S
C315 C313 1.419 . S
C315 C316 1.363 . S
C315 H318 0.929 . S
C316 C315 1.363 . S
C316 C322 1.428 . S
H317 C313 0.930 . S
H318 C315 0.929 . S
S319 N320 1.613 . S
S319 N321 1.610 . S
N320 S319 1.613 . S
N320 C323 1.350 . S
N321 S319 1.610 . S
N321 C322 1.351 . S
C322 C316 1.428 . S
C322 N321 1.351 . S
C322 C323 1.434 . S
C323 C314 1.429 . S
C323 N320 1.350 . S
C323 C322 1.434 . S
C324 C325 1.369 . S
C324 C326 1.419 1_455 S
C324 H328 0.930 1_455 S
C325 C324 1.369 . S
C325 C334 1.429 . S
C326 C324 1.419 1_655 S
C326 C327 1.363 1_654 S
C326 H329 0.929 1_554 S
C327 C326 1.363 1_456 S
C327 C333 1.435 . S
H328 C324 0.930 1_655 S
H329 C326 0.929 1_556 S
S330 N331 1.613 . S
S330 N332 1.610 1_554 S
N331 S330 1.613 . S
N331 C334 1.350 . S
N332 S330 1.610 1_556 S
N332 C333 1.360 . S
C333 C327 1.435 . S
C333 N332 1.360 . S
C333 C334 1.417 1_556 S
C334 C325 1.429 . S
C334 N331 1.350 . S
C334 C333 1.417 1_554 S
C335 C336 1.369 1_565 S
C335 C337 1.419 . S
C335 H339 0.930 . S
C336 C335 1.369 1_545 S
C336 C345 1.429 . S
C337 C335 1.419 . S
C337 C338 1.363 1_565 S
C337 H340 0.929 . S
C338 C337 1.363 1_545 S
C338 C344 1.428 . S
H339 C335 0.930 . S
H340 C337 0.929 . S
S341 N342 1.613 . S
S341 N343 1.610 . S
N342 S341 1.613 . S
N342 C345 1.350 . S
N343 S341 1.610 . S
N343 C344 1.351 . S
C344 C338 1.428 . S
C344 N343 1.351 . S
C344 C345 1.434 . S
C345 C336 1.429 . S
C345 N342 1.350 . S
C345 C344 1.434 . S
C346 C347 1.369 . S
C346 C348 1.419 . S
C346 H350 0.930 . S
C347 C346 1.369 . S
C347 C356 1.429 . S
C348 C346 1.419 . S
C348 C349 1.363 . S
C348 H351 0.929 . S
C349 C348 1.363 . S
C349 C355 1.428 . S
H350 C346 0.930 . S
H351 C348 0.929 . S
S352 N353 1.613 . S
S352 N354 1.610 . S
N353 S352 1.613 . S
N353 C356 1.350 . S
N354 S352 1.610 . S
N354 C355 1.351 . S
C355 C349 1.428 . S
C355 N354 1.351 . S
C355 C356 1.434 . S
C356 C347 1.429 . S
C356 N353 1.350 . S
C356 C355 1.434 . S
C357 C358 1.369 . S
C357 C359 1.419 . S
C357 H361 0.930 . S
C358 C357 1.369 . S
C358 C367 1.429 1_545 S
C359 C357 1.419 . S
C359 C360 1.363 . S
C359 H362 0.929 . S
C360 C359 1.363 . S
C360 C366 1.428 1_545 S
H361 C357 0.930 . S
H362 C359 0.929 . S
S363 N364 1.613 . S
S363 N365 1.610 . S
N364 S363 1.613 . S
N364 C367 1.350 . S
N365 S363 1.610 . S
N365 C366 1.351 . S
C366 C360 1.428 1_565 S
C366 N365 1.351 . S
C366 C367 1.434 . S
C367 C358 1.429 1_565 S
C367 N364 1.350 . S
C367 C366 1.434 . S
C368 C369 1.369 . S
C368 C370 1.419 . S
C368 H372 0.930 . S
C369 C368 1.369 . S
C369 C378 1.429 . S
C370 C368 1.419 . S
C370 C371 1.363 1_556 S
C370 H373 0.929 . S
C371 C370 1.363 1_554 S
C371 C377 1.428 . S
H372 C368 0.930 . S
H373 C370 0.929 . S
S374 N375 1.613 1_554 S
S374 N376 1.610 . S
N375 S374 1.613 1_556 S
N375 C378 1.350 . S
N376 S374 1.610 . S
N376 C377 1.351 . S
C377 C371 1.428 . S
C377 N376 1.351 . S
C377 C378 1.434 1_554 S
C378 C369 1.429 . S
C378 N375 1.350 . S
C378 C377 1.434 1_556 S
C379 C380 1.369 . S
C379 C381 1.419 . S
C379 H383 0.930 . S
C380 C379 1.369 . S
C380 C389 1.429 . S
C381 C379 1.419 . S
C381 C382 1.363 . S
C381 H384 0.929 . S
C382 C381 1.363 . S
C382 C388 1.428 . S
H383 C379 0.930 . S
H384 C381 0.929 . S
S385 N386 1.613 1_655 S
S385 N387 1.613 . S
N386 S385 1.613 1_455 S
N386 C389 1.350 . S
N387 S385 1.613 . S
N387 C388 1.346 1_655 S
C388 C382 1.428 . S
C388 N387 1.346 1_455 S
C388 C389 1.434 . S
C389 C380 1.429 . S
C389 N386 1.350 . S
C389 C388 1.434 . S
C193 C7 1.162 . S
C195 C186 1.289 . S
C204 C51 1.971 . S
C206 C160 1.897 . S
C215 C87 1.380 . S
C217 C172 1.424 . S
C226 C16 0.646 . S
C228 C184 0.475 . S
C239 C162 1.873 . S
C237 C42 1.920 . S
C250 C174 1.273 . S
C248 C96 1.244 . S
C259 C47 1.373 . S
C261 C136 1.393 . S
C270 C91 3.331 . S
C272 C150 3.302 . S
C281 C2 1.944 . S
C283 C126 1.931 . S
C294 C138 1.271 . S
C292 C56 1.232 . S
C305 C148 2.805 . S
C303 C82 2.922 . S
C314 C11 1.984 . S
C316 C124 1.929 . S
C327 C153 1.820 . S
C325 C19 1.725 . S
C336 C50 1.395 . S
C338 C129 1.459 . S
C347 C99 1.511 . S
C349 C141 1.524 . S
C360 C177 1.513 . S
C358 C59 1.508 . S
C371 C189 1.187 . S
C369 C90 1.173 . S
C380 C10 1.398 . S
C382 C165 1.420 . S
