# Generated by pormake.
# Topology eea, (3,6)-cn, num edge types: 1
# Building blocks:
#     Node 0, Type 0, BuildingBlock: VETTIZ_charged_linker_0, # of connection points: 3
#     Node 1, Type 0, BuildingBlock: VETTIZ_charged_linker_0, # of connection points: 3
#     Node 2, Type 0, BuildingBlock: VETTIZ_charged_linker_0, # of connection points: 3
#     Node 3, Type 0, BuildingBlock: VETTIZ_charged_linker_0, # of connection points: 3
#     Node 4, Type 0, BuildingBlock: VETTIZ_charged_linker_0, # of connection points: 3
#     Node 5, Type 0, BuildingBlock: VETTIZ_charged_linker_0, # of connection points: 3
#     Node 6, Type 0, BuildingBlock: VETTIZ_charged_linker_0, # of connection points: 3
#     Node 7, Type 0, BuildingBlock: VETTIZ_charged_linker_0, # of connection points: 3
#     Node 8, Type 0, BuildingBlock: VETTIZ_charged_linker_0, # of connection points: 3
#     Node 9, Type 0, BuildingBlock: VETTIZ_charged_linker_0, # of connection points: 3
#     Node 10, Type 0, BuildingBlock: VETTIZ_charged_linker_0, # of connection points: 3
#     Node 11, Type 0, BuildingBlock: VETTIZ_charged_linker_0, # of connection points: 3
#     Node 12, Type 0, BuildingBlock: VETTIZ_charged_linker_0, # of connection points: 3
#     Node 13, Type 0, BuildingBlock: VETTIZ_charged_linker_0, # of connection points: 3
#     Node 14, Type 0, BuildingBlock: VETTIZ_charged_linker_0, # of connection points: 3
#     Node 15, Type 0, BuildingBlock: VETTIZ_charged_linker_0, # of connection points: 3
#     Node 16, Type 0, BuildingBlock: VETTIZ_charged_linker_0, # of connection points: 3
#     Node 17, Type 0, BuildingBlock: VETTIZ_charged_linker_0, # of connection points: 3
#     Node 18, Type 1, BuildingBlock: CUWYAW_clean_sbu_0, # of connection points: 6
#     Node 19, Type 1, BuildingBlock: CUWYAW_clean_sbu_0, # of connection points: 6
#     Node 20, Type 1, BuildingBlock: CUWYAW_clean_sbu_0, # of connection points: 6
#     Node 21, Type 1, BuildingBlock: CUWYAW_clean_sbu_0, # of connection points: 6
#     Node 22, Type 1, BuildingBlock: CUWYAW_clean_sbu_0, # of connection points: 6
#     Node 23, Type 1, BuildingBlock: CUWYAW_clean_sbu_0, # of connection points: 6
#     Node 24, Type 1, BuildingBlock: CUWYAW_clean_sbu_0, # of connection points: 6
#     Node 25, Type 1, BuildingBlock: CUWYAW_clean_sbu_0, # of connection points: 6
#     Node 26, Type 1, BuildingBlock: CUWYAW_clean_sbu_0, # of connection points: 6
#     Edge 27, Type (0, 1), BuildingBlock: KIFKEQ_clean_linker_1, # of connection points: 2
#     Edge 28, Type (0, 1), BuildingBlock: KIFKEQ_clean_linker_1, # of connection points: 2
#     Edge 29, Type (0, 1), BuildingBlock: KIFKEQ_clean_linker_1, # of connection points: 2
#     Edge 30, Type (0, 1), BuildingBlock: KIFKEQ_clean_linker_1, # of connection points: 2
#     Edge 31, Type (0, 1), BuildingBlock: KIFKEQ_clean_linker_1, # of connection points: 2
#     Edge 32, Type (0, 1), BuildingBlock: KIFKEQ_clean_linker_1, # of connection points: 2
#     Edge 33, Type (0, 1), BuildingBlock: KIFKEQ_clean_linker_1, # of connection points: 2
#     Edge 34, Type (0, 1), BuildingBlock: KIFKEQ_clean_linker_1, # of connection points: 2
#     Edge 35, Type (0, 1), BuildingBlock: KIFKEQ_clean_linker_1, # of connection points: 2
#     Edge 36, Type (0, 1), BuildingBlock: KIFKEQ_clean_linker_1, # of connection points: 2
#     Edge 37, Type (0, 1), BuildingBlock: KIFKEQ_clean_linker_1, # of connection points: 2
#     Edge 38, Type (0, 1), BuildingBlock: KIFKEQ_clean_linker_1, # of connection points: 2
#     Edge 39, Type (0, 1), BuildingBlock: KIFKEQ_clean_linker_1, # of connection points: 2
#     Edge 40, Type (0, 1), BuildingBlock: KIFKEQ_clean_linker_1, # of connection points: 2
#     Edge 41, Type (0, 1), BuildingBlock: KIFKEQ_clean_linker_1, # of connection points: 2
#     Edge 42, Type (0, 1), BuildingBlock: KIFKEQ_clean_linker_1, # of connection points: 2
#     Edge 43, Type (0, 1), BuildingBlock: KIFKEQ_clean_linker_1, # of connection points: 2
#     Edge 44, Type (0, 1), BuildingBlock: KIFKEQ_clean_linker_1, # of connection points: 2
#     Edge 45, Type (0, 1), BuildingBlock: KIFKEQ_clean_linker_1, # of connection points: 2
#     Edge 46, Type (0, 1), BuildingBlock: KIFKEQ_clean_linker_1, # of connection points: 2
#     Edge 47, Type (0, 1), BuildingBlock: KIFKEQ_clean_linker_1, # of connection points: 2
#     Edge 48, Type (0, 1), BuildingBlock: KIFKEQ_clean_linker_1, # of connection points: 2
#     Edge 49, Type (0, 1), BuildingBlock: KIFKEQ_clean_linker_1, # of connection points: 2
#     Edge 50, Type (0, 1), BuildingBlock: KIFKEQ_clean_linker_1, # of connection points: 2
#     Edge 51, Type (0, 1), BuildingBlock: KIFKEQ_clean_linker_1, # of connection points: 2
#     Edge 52, Type (0, 1), BuildingBlock: KIFKEQ_clean_linker_1, # of connection points: 2
#     Edge 53, Type (0, 1), BuildingBlock: KIFKEQ_clean_linker_1, # of connection points: 2
#     Edge 54, Type (0, 1), BuildingBlock: KIFKEQ_clean_linker_1, # of connection points: 2
#     Edge 55, Type (0, 1), BuildingBlock: KIFKEQ_clean_linker_1, # of connection points: 2
#     Edge 56, Type (0, 1), BuildingBlock: KIFKEQ_clean_linker_1, # of connection points: 2
#     Edge 57, Type (0, 1), BuildingBlock: KIFKEQ_clean_linker_1, # of connection points: 2
#     Edge 58, Type (0, 1), BuildingBlock: KIFKEQ_clean_linker_1, # of connection points: 2
#     Edge 59, Type (0, 1), BuildingBlock: KIFKEQ_clean_linker_1, # of connection points: 2
#     Edge 60, Type (0, 1), BuildingBlock: KIFKEQ_clean_linker_1, # of connection points: 2
#     Edge 61, Type (0, 1), BuildingBlock: KIFKEQ_clean_linker_1, # of connection points: 2
#     Edge 62, Type (0, 1), BuildingBlock: KIFKEQ_clean_linker_1, # of connection points: 2
#     Edge 63, Type (0, 1), BuildingBlock: KIFKEQ_clean_linker_1, # of connection points: 2
#     Edge 64, Type (0, 1), BuildingBlock: KIFKEQ_clean_linker_1, # of connection points: 2
#     Edge 65, Type (0, 1), BuildingBlock: KIFKEQ_clean_linker_1, # of connection points: 2
#     Edge 66, Type (0, 1), BuildingBlock: KIFKEQ_clean_linker_1, # of connection points: 2
#     Edge 67, Type (0, 1), BuildingBlock: KIFKEQ_clean_linker_1, # of connection points: 2
#     Edge 68, Type (0, 1), BuildingBlock: KIFKEQ_clean_linker_1, # of connection points: 2
#     Edge 69, Type (0, 1), BuildingBlock: KIFKEQ_clean_linker_1, # of connection points: 2
#     Edge 70, Type (0, 1), BuildingBlock: KIFKEQ_clean_linker_1, # of connection points: 2
#     Edge 71, Type (0, 1), BuildingBlock: KIFKEQ_clean_linker_1, # of connection points: 2
#     Edge 72, Type (0, 1), BuildingBlock: KIFKEQ_clean_linker_1, # of connection points: 2
#     Edge 73, Type (0, 1), BuildingBlock: KIFKEQ_clean_linker_1, # of connection points: 2
#     Edge 74, Type (0, 1), BuildingBlock: KIFKEQ_clean_linker_1, # of connection points: 2
#     Edge 75, Type (0, 1), BuildingBlock: KIFKEQ_clean_linker_1, # of connection points: 2
#     Edge 76, Type (0, 1), BuildingBlock: KIFKEQ_clean_linker_1, # of connection points: 2
#     Edge 77, Type (0, 1), BuildingBlock: KIFKEQ_clean_linker_1, # of connection points: 2
#     Edge 78, Type (0, 1), BuildingBlock: KIFKEQ_clean_linker_1, # of connection points: 2
#     Edge 79, Type (0, 1), BuildingBlock: KIFKEQ_clean_linker_1, # of connection points: 2
#     Edge 80, Type (0, 1), BuildingBlock: KIFKEQ_clean_linker_1, # of connection points: 2
# Relax obj value: 0.035
# Max RMSD: 0.135
# Mean RMSD: 0.074
data_MOF--net-eea--node1-CUWYAW_clean_sbu_0--node2-VETTIZ_charged_linker_0--edge1-KIFKEQ_clean_linker_1
_symmetry_space_group_name_H-M    P1
_symmetry_Int_Tables_number       1
_symmetry_cell_setting            triclinic
loop_
_symmetry_equiv_pos_as_xyz
'x, y, z'
_cell_length_a     62.870287
_cell_length_b     62.663707
_cell_length_c     91.506622
_cell_angle_alpha  93.436093
_cell_angle_beta   93.236472
_cell_angle_gamma 119.86907
loop_
_atom_site_label
_atom_site_type_symbol
_atom_site_fract_x
_atom_site_fract_y
_atom_site_fract_z
_atom_type_partial_charge
C0 C 0.23087 0.18144 0.38402 0.0
C1 C 0.23246 0.20251 0.39147 0.0
C2 C 0.24101 0.20857 0.40653 0.0
C3 C 0.2457 0.17245 0.40658 0.0
C4 C 0.2373 0.16657 0.39179 0.0
C5 C 0.2349 0.14251 0.3858 0.0
H6 H 0.23612 0.03819 0.39897 0.0
C7 C 0.24982 0.15266 0.41151 0.0
C8 C 0.24339 0.13498 0.39941 0.0
H9 H 0.21789 0.05786 0.35744 0.0
H10 H 0.22799 0.0977 0.36905 0.0
H11 H 0.28538 0.08921 0.40684 0.0
H12 H 0.21241 0.06194 0.41998 0.0
H13 H 0.23368 0.07614 0.43575 0.0
H14 H 0.23209 0.05002 0.42536 0.0
H15 H 0.27479 0.06985 0.42152 0.0
H16 H 0.28939 0.10312 0.42477 0.0
C17 C 0.2526 0.14783 0.37365 0.0
C18 C 0.20736 0.12434 0.38052 0.0
C19 C 0.28072 0.15724 0.4648 0.0
C20 C 0.28588 0.14141 0.4726 0.0
C21 C 0.28273 0.11957 0.46509 0.0
C22 C 0.27426 0.11339 0.45012 0.0
C23 C 0.26886 0.1292 0.44251 0.0
C24 C 0.27238 0.15084 0.44981 0.0
C25 C 0.26586 0.16546 0.43988 0.0
C26 C 0.25806 0.14909 0.42542 0.0
C27 C 0.25963 0.12779 0.42709 0.0
C28 C 0.28943 0.19071 0.43902 0.0
C29 C 0.24418 0.16731 0.44587 0.0
C30 C 0.23453 0.05108 0.39228 0.0
C31 C 0.2257 0.04446 0.37726 0.0
C32 C 0.22393 0.06203 0.3691 0.0
C33 C 0.22996 0.0853 0.37584 0.0
C34 C 0.23797 0.09124 0.39094 0.0
C35 C 0.24072 0.07449 0.3988 0.0
C36 C 0.25063 0.08444 0.41457 0.0
C37 C 0.25247 0.10956 0.41498 0.0
C38 C 0.24477 0.11332 0.40116 0.0
C39 C 0.2763 0.08668 0.41719 0.0
C40 C 0.23138 0.06727 0.42454 0.0
H41 H 0.25416 0.19931 0.42555 0.0
H42 H 0.22397 0.17617 0.37249 0.0
H43 H 0.19524 0.12652 0.38815 0.0
H44 H 0.2022 0.10473 0.38032 0.0
H45 H 0.20247 0.12781 0.36941 0.0
H46 H 0.2696 0.16621 0.37625 0.0
H47 H 0.24373 0.14788 0.36281 0.0
H48 H 0.25924 0.13452 0.37262 0.0
H49 H 0.28315 0.17425 0.47024 0.0
H50 H 0.28629 0.10692 0.47089 0.0
H51 H 0.27195 0.09637 0.44509 0.0
H52 H 0.30575 0.18834 0.43828 0.0
H53 H 0.29318 0.20361 0.44896 0.0
H54 H 0.28857 0.19966 0.42916 0.0
H55 H 0.23233 0.15092 0.45166 0.0
H56 H 0.2315 0.16745 0.43706 0.0
H57 H 0.25099 0.184 0.45382 0.0
H58 H 0.24241 0.22481 0.41243 0.0
C59 C 0.24782 0.19376 0.4141 0.0
C60 C 0.9586 0.17826 0.39644 0.0
C61 C 0.97631 0.2014 0.40375 0.0
C62 C 0.9733 0.20737 0.41835 0.0
C63 C 0.93581 0.16753 0.41796 0.0
C64 C 0.9386 0.16191 0.40362 0.0
C65 C 0.91801 0.13709 0.39703 0.0
H66 H 0.81492 0.02969 0.40498 0.0
C67 C 0.91308 0.14618 0.42218 0.0
C68 C 0.90256 0.12842 0.40985 0.0
H69 H 0.85184 0.05338 0.36557 0.0
H70 H 0.88188 0.09222 0.37885 0.0
H71 H 0.86352 0.05206 0.42776 0.0
H72 H 0.81611 0.07942 0.41354 0.0
H73 H 0.82559 0.09072 0.43214 0.0
H74 H 0.80798 0.05773 0.42704 0.0
H75 H 0.83274 0.04004 0.43286 0.0
H76 H 0.85874 0.066 0.4435 0.0
C77 C 0.9292 0.12064 0.39297 0.0
C78 C 0.90411 0.14105 0.38387 0.0
C79 C 0.8879 0.14479 0.47442 0.0
C80 C 0.8681 0.12679 0.48129 0.0
C81 C 0.85053 0.10466 0.47285 0.0
C82 C 0.8528 0.10019 0.45804 0.0
C83 C 0.87282 0.11802 0.45141 0.0
C84 C 0.88989 0.13999 0.4595 0.0
C85 C 0.90977 0.15677 0.45036 0.0
C86 C 0.90179 0.1411 0.43558 0.0
C87 C 0.88014 0.11841 0.43635 0.0
C88 C 0.93478 0.16109 0.45732 0.0
C89 C 0.9085 0.1807 0.44949 0.0
C90 C 0.82927 0.04327 0.39911 0.0
C91 C 0.83096 0.03812 0.38416 0.0
C92 C 0.85026 0.05645 0.37713 0.0
C93 C 0.86763 0.07919 0.38484 0.0
C94 C 0.86572 0.08392 0.39977 0.0
C95 C 0.8466 0.06622 0.40659 0.0
C96 C 0.84695 0.07481 0.42236 0.0
C97 C 0.86956 0.10054 0.42388 0.0
C98 C 0.8806 0.10564 0.41068 0.0
C99 C 0.8505 0.05734 0.43223 0.0
C100 C 0.82292 0.07561 0.424 0.0
H101 H 0.952 0.19619 0.43656 0.0
H102 H 0.9603 0.17268 0.38535 0.0
H103 H 0.90563 0.15954 0.38531 0.0
H104 H 0.88405 0.12777 0.38276 0.0
H105 H 0.91167 0.13984 0.37336 0.0
H106 H 0.94364 0.12341 0.40171 0.0
H107 H 0.93792 0.12528 0.38251 0.0
H108 H 0.91562 0.10067 0.39197 0.0
H109 H 0.90171 0.162 0.48057 0.0
H110 H 0.83477 0.09074 0.47768 0.0
H111 H 0.83881 0.08293 0.45234 0.0
H112 H 0.93287 0.14355 0.46078 0.0
H113 H 0.94166 0.17477 0.4672 0.0
H114 H 0.9491 0.1674 0.4496 0.0
H115 H 0.88905 0.17653 0.44882 0.0
H116 H 0.91577 0.18987 0.43952 0.0
H117 H 0.91859 0.19403 0.45937 0.0
H118 H 0.98631 0.22515 0.42424 0.0
C119 C 0.95323 0.19057 0.42548 0.0
C120 C 0.9574 0.77917 0.40113 0.0
C121 C 0.9749 0.77324 0.40679 0.0
C122 C 0.97163 0.76297 0.42039 0.0
C123 C 0.93438 0.76514 0.4224 0.0
C124 C 0.93737 0.77481 0.40899 0.0
C125 C 0.91698 0.77959 0.4042 0.0
H126 H 0.80914 0.77366 0.4166 0.0
C127 C 0.91169 0.76317 0.42773 0.0
C128 C 0.90136 0.77145 0.41701 0.0
H129 H 0.85097 0.79994 0.37929 0.0
H130 H 0.88228 0.79231 0.39006 0.0
H131 H 0.81793 0.72692 0.42065 0.0
H132 H 0.85316 0.80219 0.43982 0.0
H133 H 0.85743 0.78601 0.45358 0.0
H134 H 0.82656 0.77828 0.44693 0.0
H135 H 0.80407 0.73897 0.43277 0.0
H136 H 0.823 0.72707 0.43979 0.0
C137 C 0.90315 0.76288 0.38973 0.0
C138 C 0.92838 0.80767 0.40293 0.0
C139 C 0.88619 0.73442 0.47824 0.0
C140 C 0.86693 0.73269 0.48619 0.0
C141 C 0.84963 0.73806 0.47954 0.0
C142 C 0.85146 0.74526 0.46529 0.0
C143 C 0.87098 0.7474 0.45755 0.0
C144 C 0.888 0.74209 0.46399 0.0
C145 C 0.90794 0.74633 0.45414 0.0
C146 C 0.90015 0.75531 0.44088 0.0
C147 C 0.87833 0.75562 0.44295 0.0
C148 C 0.90655 0.72127 0.45019 0.0
C149 C 0.93295 0.76662 0.46218 0.0
C150 C 0.82494 0.77749 0.4107 0.0
C151 C 0.82753 0.78713 0.39703 0.0
C152 C 0.84864 0.79251 0.38985 0.0
C153 C 0.86672 0.78797 0.3961 0.0
C154 C 0.86378 0.77812 0.40974 0.0
C155 C 0.84329 0.77334 0.41688 0.0
C156 C 0.84381 0.76415 0.43161 0.0
C157 C 0.8676 0.76339 0.43195 0.0
C158 C 0.87914 0.77144 0.4191 0.0
C159 C 0.82098 0.73795 0.43134 0.0
C160 C 0.84515 0.78344 0.44367 0.0
H161 H 0.95014 0.75111 0.43846 0.0
H162 H 0.95932 0.78738 0.39086 0.0
H163 H 0.94417 0.81869 0.41148 0.0
H164 H 0.91537 0.81433 0.40483 0.0
H165 H 0.93533 0.8125 0.39202 0.0
H166 H 0.902 0.74459 0.3899 0.0
H167 H 0.9128 0.77147 0.38006 0.0
H168 H 0.88382 0.75849 0.38798 0.0
H169 H 0.89981 0.73051 0.48313 0.0
H170 H 0.83451 0.73656 0.4854 0.0
H171 H 0.83763 0.749 0.4609 0.0
H172 H 0.88707 0.70585 0.44879 0.0
H173 H 0.91655 0.71723 0.45899 0.0
H174 H 0.91382 0.72039 0.4396 0.0
H175 H 0.931 0.78166 0.46787 0.0
H176 H 0.94725 0.77581 0.45466 0.0
H177 H 0.93988 0.7589 0.4706 0.0
H178 H 0.98446 0.75777 0.42495 0.0
C179 C 0.95155 0.75895 0.4282 0.0
C180 C 0.16654 0.22419 0.60556 0.0
C181 C 0.1871 0.22534 0.59942 0.0
C182 C 0.19069 0.23118 0.58476 0.0
C183 C 0.15392 0.23462 0.58277 0.0
C184 C 0.15018 0.22864 0.59704 0.0
C185 C 0.12688 0.22703 0.60168 0.0
H186 H 0.02143 0.22799 0.58404 0.0
C187 C 0.1334 0.23784 0.5769 0.0
C188 C 0.11738 0.23322 0.58786 0.0
H189 H 0.04762 0.2153 0.62561 0.0
H190 H 0.08491 0.2226 0.6158 0.0
H191 H 0.07453 0.27642 0.58032 0.0
H192 H 0.04139 0.20035 0.56196 0.0
H193 H 0.05348 0.22012 0.54795 0.0
H194 H 0.02916 0.21993 0.55749 0.0
H195 H 0.05019 0.26349 0.56557 0.0
H196 H 0.08209 0.27628 0.56215 0.0
C197 C 0.13392 0.2469 0.61482 0.0
C198 C 0.10947 0.20008 0.60505 0.0
C199 C 0.1339 0.26466 0.52571 0.0
C200 C 0.11838 0.27039 0.51726 0.0
C201 C 0.09659 0.26703 0.52293 0.0
C202 C 0.09074 0.25864 0.53687 0.0
C203 C 0.10687 0.25361 0.5453 0.0
C204 C 0.12797 0.2566 0.53961 0.0
C205 C 0.14327 0.25081 0.55004 0.0
C206 C 0.12821 0.24437 0.56311 0.0
C207 C 0.10676 0.24581 0.5603 0.0
C208 C 0.16879 0.27455 0.55377 0.0
C209 C 0.14422 0.22826 0.54286 0.0
C210 C 0.03521 0.22688 0.59107 0.0
C211 C 0.03098 0.22027 0.60556 0.0
C212 C 0.04973 0.21936 0.61427 0.0
C213 C 0.0716 0.22382 0.60859 0.0
C214 C 0.07515 0.22953 0.59402 0.0
C215 C 0.05743 0.23157 0.58559 0.0
C216 C 0.06532 0.23935 0.57061 0.0
C217 C 0.09011 0.24047 0.57128 0.0
C218 C 0.09562 0.23452 0.58502 0.0
C219 C 0.06807 0.26514 0.56944 0.0
C220 C 0.04635 0.21902 0.55879 0.0
H221 H 0.17816 0.24018 0.56541 0.0
H222 H 0.16318 0.21998 0.6168 0.0
H223 H 0.11083 0.18668 0.59717 0.0
H224 H 0.08981 0.19465 0.60383 0.0
H225 H 0.11432 0.19711 0.61631 0.0
H226 H 0.15224 0.26346 0.61399 0.0
H227 H 0.1349 0.23962 0.62546 0.0
H228 H 0.12109 0.25413 0.61517 0.0
H229 H 0.15049 0.26643 0.52163 0.0
H230 H 0.08431 0.27139 0.51673 0.0
H231 H 0.07401 0.25658 0.54061 0.0
H232 H 0.16677 0.29121 0.55504 0.0
H233 H 0.18094 0.27706 0.54489 0.0
H234 H 0.17839 0.27481 0.56431 0.0
H235 H 0.1273 0.21594 0.53533 0.0
H236 H 0.14484 0.21619 0.55101 0.0
H237 H 0.16025 0.23425 0.53632 0.0
H238 H 0.20594 0.23167 0.57955 0.0
C239 C 0.17433 0.23589 0.57647 0.0
C240 C 0.77159 0.81851 0.61679 0.0
C241 C 0.77085 0.79808 0.60904 0.0
C242 C 0.76385 0.79328 0.59377 0.0
C243 C 0.75864 0.82915 0.59421 0.0
C244 C 0.76569 0.83387 0.60917 0.0
C245 C 0.76724 0.8573 0.61561 0.0
H246 H 0.76487 0.96169 0.60453 0.0
C247 C 0.75442 0.84907 0.58961 0.0
C248 C 0.75959 0.8657 0.60209 0.0
H249 H 0.78179 0.93979 0.64559 0.0
H250 H 0.77269 0.90076 0.6332 0.0
H251 H 0.79028 0.94032 0.5834 0.0
H252 H 0.71639 0.91073 0.59534 0.0
H253 H 0.71328 0.89736 0.57737 0.0
H254 H 0.72713 0.93053 0.58087 0.0
H255 H 0.77033 0.95205 0.57825 0.0
H256 H 0.76978 0.927 0.56725 0.0
C257 C 0.79439 0.87551 0.62173 0.0
C258 C 0.74845 0.85061 0.62721 0.0
C259 C 0.72649 0.84811 0.53615 0.0
C260 C 0.72081 0.864 0.52881 0.0
C261 C 0.72268 0.88485 0.53686 0.0
C262 C 0.73039 0.89001 0.55193 0.0
C263 C 0.73625 0.87414 0.5591 0.0
C264 C 0.73395 0.85341 0.55128 0.0
C265 C 0.74044 0.83839 0.56089 0.0
C266 C 0.74687 0.85349 0.57574 0.0
C267 C 0.74467 0.87455 0.57455 0.0
C268 C 0.76304 0.83799 0.55522 0.0
C269 C 0.71723 0.81252 0.5608 0.0
C270 C 0.76634 0.94846 0.61096 0.0
C271 C 0.77456 0.95424 0.62607 0.0
C272 C 0.77622 0.93626 0.63387 0.0
C273 C 0.77078 0.91348 0.62667 0.0
C274 C 0.76349 0.90844 0.61148 0.0
C275 C 0.76077 0.92553 0.60397 0.0
C276 C 0.75179 0.91659 0.58801 0.0
C277 C 0.75064 0.89176 0.58705 0.0
C278 C 0.75772 0.88719 0.60079 0.0
C279 C 0.77139 0.93491 0.57863 0.0
C280 C 0.7259 0.91376 0.58512 0.0
H281 H 0.75237 0.80401 0.57471 0.0
H282 H 0.77736 0.82286 0.62849 0.0
H283 H 0.73155 0.83243 0.62378 0.0
H284 H 0.74179 0.86387 0.62857 0.0
H285 H 0.75638 0.84934 0.63805 0.0
H286 H 0.80733 0.87384 0.61457 0.0
H287 H 0.79835 0.87166 0.63295 0.0
H288 H 0.79942 0.8951 0.62203 0.0
H289 H 0.72501 0.83182 0.53026 0.0
H290 H 0.71867 0.89751 0.53141 0.0
H291 H 0.73173 0.90632 0.55738 0.0
H292 H 0.77531 0.85547 0.55046 0.0
H293 H 0.75722 0.82248 0.54651 0.0
H294 H 0.77496 0.83678 0.56408 0.0
H295 H 0.70042 0.8141 0.56129 0.0
H296 H 0.7177 0.80289 0.57041 0.0
H297 H 0.71462 0.80057 0.5506 0.0
H298 H 0.76316 0.77759 0.58762 0.0
C299 C 0.75758 0.80861 0.58633 0.0
C300 C 0.0396 0.82227 0.60697 0.0
C301 C 0.02207 0.79846 0.60041 0.0
C302 C 0.02587 0.79043 0.58654 0.0
C303 C 0.06427 0.8292 0.58638 0.0
C304 C 0.06052 0.83705 0.59993 0.0
C305 C 0.08141 0.86213 0.60596 0.0
H306 H 0.19506 0.95853 0.60031 0.0
C307 C 0.08835 0.84873 0.58238 0.0
C308 C 0.09857 0.86789 0.59394 0.0
H309 H 0.14639 0.94991 0.63398 0.0
H310 H 0.11578 0.91042 0.62174 0.0
H311 H 0.18372 0.90288 0.59584 0.0
H312 H 0.15286 0.94172 0.57417 0.0
H313 H 0.15462 0.92213 0.56042 0.0
H314 H 0.18252 0.94598 0.57087 0.0
H315 H 0.19983 0.92512 0.58322 0.0
H316 H 0.17905 0.8929 0.57698 0.0
C317 C 0.09288 0.85936 0.62066 0.0
C318 C 0.07133 0.8802 0.6073 0.0
C319 C 0.11802 0.84093 0.53264 0.0
C320 C 0.14016 0.85583 0.52649 0.0
C321 C 0.15925 0.87687 0.53502 0.0
C322 C 0.15622 0.88343 0.5493 0.0
C323 C 0.13387 0.86878 0.55522 0.0
C324 C 0.1154 0.84761 0.54708 0.0
C325 C 0.09356 0.83361 0.55567 0.0
C326 C 0.10147 0.85069 0.56989 0.0
C327 C 0.12506 0.87129 0.56947 0.0
C328 C 0.09123 0.80832 0.5582 0.0
C329 C 0.07054 0.83159 0.54719 0.0
C330 C 0.1778 0.94832 0.60506 0.0
C331 C 0.17351 0.95752 0.61833 0.0
C332 C 0.15067 0.94322 0.62403 0.0
C333 C 0.1327 0.92029 0.61681 0.0
C334 C 0.13734 0.91146 0.6036 0.0
C335 C 0.15945 0.92557 0.59785 0.0
C336 C 0.16052 0.91403 0.58322 0.0
C337 C 0.13555 0.89043 0.58128 0.0
C338 C 0.1222 0.88891 0.59333 0.0
C339 C 0.18196 0.90853 0.58474 0.0
C340 C 0.16293 0.9318 0.57149 0.0
H341 H 0.04863 0.79851 0.56899 0.0
H342 H 0.03723 0.82942 0.61744 0.0
H343 H 0.0556 0.87472 0.59884 0.0
H344 H 0.08509 0.89926 0.60531 0.0
H345 H 0.06469 0.88054 0.61826 0.0
H346 H 0.09385 0.84208 0.61983 0.0
H347 H 0.08164 0.85844 0.6298 0.0
H348 H 0.11203 0.87437 0.62375 0.0
H349 H 0.10322 0.82443 0.52639 0.0
H350 H 0.1764 0.88864 0.53049 0.0
H351 H 0.17137 0.89982 0.55513 0.0
H352 H 0.10945 0.80936 0.55844 0.0
H353 H 0.07876 0.79377 0.54931 0.0
H354 H 0.08467 0.80217 0.56897 0.0
H355 H 0.07487 0.84977 0.54344 0.0
H356 H 0.05505 0.82627 0.55398 0.0
H357 H 0.06413 0.81794 0.53731 0.0
H358 H 0.01296 0.77212 0.58123 0.0
C359 C 0.04677 0.80569 0.57949 0.0
C360 C 0.89091 0.51344 0.71981 0.0
C361 C 0.89055 0.53309 0.72779 0.0
C362 C 0.89619 0.53683 0.74318 0.0
C363 C 0.90198 0.50131 0.74241 0.0
C364 C 0.89641 0.49771 0.72732 0.0
C365 C 0.89583 0.47492 0.72058 0.0
H366 H 0.89877 0.37041 0.73041 0.0
C367 C 0.90591 0.48115 0.74685 0.0
C368 C 0.9022 0.46554 0.7341 0.0
H369 H 0.88537 0.39478 0.68939 0.0
H370 H 0.89261 0.43282 0.70237 0.0
H371 H 0.94587 0.42154 0.74193 0.0
H372 H 0.86985 0.38838 0.75013 0.0
H373 H 0.88778 0.40131 0.76716 0.0
H374 H 0.89 0.37755 0.75651 0.0
H375 H 0.93339 0.39978 0.75529 0.0
H376 H 0.94631 0.43259 0.76008 0.0
C377 C 0.91599 0.4829 0.7098 0.0
C378 C 0.8693 0.45682 0.71339 0.0
C379 C 0.92747 0.47738 0.80079 0.0
C380 C 0.93181 0.46051 0.80805 0.0
C381 C 0.93087 0.44039 0.79965 0.0
C382 C 0.92525 0.43679 0.7844 0.0
C383 C 0.92051 0.45347 0.77734 0.0
C384 C 0.92193 0.47353 0.78546 0.0
C385 C 0.91655 0.48939 0.77593 0.0
C386 C 0.91191 0.4756 0.76079 0.0
C387 C 0.91404 0.45448 0.76176 0.0
C388 C 0.93983 0.51543 0.77722 0.0
C389 C 0.89316 0.48911 0.78072 0.0
C390 C 0.89776 0.38402 0.72411 0.0
C391 C 0.89116 0.37927 0.70882 0.0
C392 C 0.88985 0.3976 0.70121 0.0
C393 C 0.89416 0.41977 0.70876 0.0
C394 C 0.89988 0.42376 0.72411 0.0
C395 C 0.90215 0.40626 0.73145 0.0
C396 C 0.90906 0.41383 0.74767 0.0
C397 C 0.90969 0.43839 0.74896 0.0
C398 C 0.90412 0.44404 0.73517 0.0
C399 C 0.93489 0.41698 0.75157 0.0
C400 C 0.88827 0.39428 0.75591 0.0
H401 H 0.90617 0.52491 0.76224 0.0
H402 H 0.8862 0.50989 0.708 0.0
H403 H 0.85541 0.45762 0.72007 0.0
H404 H 0.86452 0.43728 0.71267 0.0
H405 H 0.86647 0.46153 0.7022 0.0
H406 H 0.93258 0.50084 0.71409 0.0
H407 H 0.90923 0.48528 0.69888 0.0
H408 H 0.92278 0.46977 0.70833 0.0
H409 H 0.92795 0.49299 0.80691 0.0
H410 H 0.93469 0.42744 0.80488 0.0
H411 H 0.92468 0.42103 0.77872 0.0
H412 H 0.95679 0.51401 0.77728 0.0
H413 H 0.94125 0.52644 0.78759 0.0
H414 H 0.94046 0.52596 0.76786 0.0
H415 H 0.88026 0.47111 0.78475 0.0
H416 H 0.88222 0.49103 0.77155 0.0
H417 H 0.89793 0.50389 0.78975 0.0
H418 H 0.89606 0.55193 0.74951 0.0
C419 C 0.90207 0.52115 0.75052 0.0
C420 C 0.62211 0.51263 0.7301 0.0
C421 C 0.6401 0.53572 0.73718 0.0
C422 C 0.63675 0.54336 0.75124 0.0
C423 C 0.59826 0.50455 0.75117 0.0
C424 C 0.60134 0.49754 0.73718 0.0
C425 C 0.58015 0.47285 0.73087 0.0
H426 H 0.47483 0.3685 0.7402 0.0
C427 C 0.57485 0.48428 0.75545 0.0
C428 C 0.56409 0.46581 0.7435 0.0
H429 H 0.51243 0.38848 0.70072 0.0
H430 H 0.5427 0.42789 0.71323 0.0
H431 H 0.52325 0.39246 0.76374 0.0
H432 H 0.47653 0.41877 0.74652 0.0
H433 H 0.48651 0.43269 0.76467 0.0
H434 H 0.46826 0.39938 0.76126 0.0
H435 H 0.49188 0.38052 0.76769 0.0
H436 H 0.51691 0.4069 0.77859 0.0
C437 C 0.59027 0.45514 0.72785 0.0
C438 C 0.56741 0.4767 0.71707 0.0
C439 C 0.5492 0.48793 0.80709 0.0
C440 C 0.5284 0.47159 0.81392 0.0
C441 C 0.51017 0.4494 0.80586 0.0
C442 C 0.51259 0.44341 0.79132 0.0
C443 C 0.53343 0.45978 0.78463 0.0
C444 C 0.55122 0.48175 0.79241 0.0
C445 C 0.57162 0.49717 0.78319 0.0
C446 C 0.56324 0.48063 0.76873 0.0
C447 C 0.54095 0.45868 0.76974 0.0
C448 C 0.59602 0.50058 0.79056 0.0
C449 C 0.57179 0.5217 0.78153 0.0
C450 C 0.48938 0.38137 0.73413 0.0
C451 C 0.49126 0.37491 0.71944 0.0
C452 C 0.51075 0.39246 0.71213 0.0
C453 C 0.52827 0.41555 0.71939 0.0
C454 C 0.52633 0.42147 0.73411 0.0
C455 C 0.50686 0.40469 0.74114 0.0
C456 C 0.50706 0.41468 0.75654 0.0
C457 C 0.53012 0.44006 0.75765 0.0
C458 C 0.54148 0.44377 0.74456 0.0
C459 C 0.50976 0.39779 0.7673 0.0
C460 C 0.48336 0.41638 0.75743 0.0
H461 H 0.61454 0.53449 0.76908 0.0
H462 H 0.62404 0.50655 0.71917 0.0
H463 H 0.57033 0.49578 0.71764 0.0
H464 H 0.54713 0.46454 0.716 0.0
H465 H 0.57471 0.47368 0.70685 0.0
H466 H 0.60359 0.45733 0.73717 0.0
H467 H 0.60004 0.45912 0.71774 0.0
H468 H 0.57587 0.43544 0.72673 0.0
H469 H 0.56337 0.50524 0.81297 0.0
H470 H 0.49414 0.43641 0.81092 0.0
H471 H 0.49814 0.42615 0.78588 0.0
H472 H 0.59318 0.48281 0.79423 0.0
H473 H 0.60297 0.51439 0.80039 0.0
H474 H 0.61063 0.50631 0.78307 0.0
H475 H 0.55281 0.51882 0.78126 0.0
H476 H 0.57843 0.52935 0.77107 0.0
H477 H 0.58316 0.53583 0.79086 0.0
H478 H 0.65044 0.56117 0.75683 0.0
C479 C 0.61598 0.52783 0.75831 0.0
C480 C 0.62155 0.10912 0.73273 0.0
C481 C 0.64169 0.10798 0.73934 0.0
C482 C 0.64096 0.1019 0.75401 0.0
C483 C 0.60112 0.09906 0.75517 0.0
C484 C 0.60185 0.10499 0.74083 0.0
C485 C 0.58004 0.10725 0.73558 0.0
H486 H 0.47681 0.10896 0.75032 0.0
C487 C 0.57832 0.09673 0.76056 0.0
C488 C 0.56612 0.10183 0.74913 0.0
H489 H 0.50988 0.11964 0.70917 0.0
H490 H 0.5415 0.11291 0.72003 0.0
H491 H 0.48004 0.06172 0.75539 0.0
H492 H 0.52654 0.13797 0.77203 0.0
H493 H 0.52357 0.12034 0.78683 0.0
H494 H 0.49646 0.11852 0.7777 0.0
H495 H 0.47267 0.07539 0.77061 0.0
H496 H 0.4914 0.06125 0.77322 0.0
C497 C 0.5653 0.08719 0.72251 0.0
C498 C 0.5897 0.13417 0.73184 0.0
C499 C 0.55418 0.06965 0.81155 0.0
C500 C 0.53373 0.06573 0.81906 0.0
C501 C 0.51662 0.07153 0.81254 0.0
C502 C 0.5192 0.08018 0.79866 0.0
C503 C 0.53916 0.08321 0.79108 0.0
C504 C 0.55648 0.07834 0.79757 0.0
C505 C 0.57671 0.08325 0.78781 0.0
C506 C 0.56797 0.09078 0.77422 0.0
C507 C 0.546 0.09076 0.7763 0.0
C508 C 0.57696 0.05891 0.78442 0.0
C509 C 0.60125 0.10479 0.79561 0.0
C510 C 0.49069 0.10968 0.74356 0.0
C511 C 0.49085 0.11524 0.72887 0.0
C512 C 0.50952 0.11606 0.72061 0.0
C513 C 0.52784 0.11194 0.72691 0.0
C514 C 0.52756 0.10676 0.74165 0.0
C515 C 0.50897 0.10532 0.74962 0.0
C516 C 0.51084 0.09833 0.76488 0.0
C517 C 0.53402 0.09646 0.76486 0.0
C518 C 0.54384 0.10164 0.75129 0.0
C519 C 0.48755 0.07298 0.76625 0.0
C520 C 0.51437 0.11972 0.77604 0.0
H521 H 0.62141 0.09291 0.77301 0.0
H522 H 0.62103 0.11325 0.72145 0.0
H523 H 0.60554 0.1475 0.73982 0.0
H524 H 0.57593 0.14012 0.73259 0.0
H525 H 0.5961 0.13665 0.72068 0.0
H526 H 0.56638 0.07021 0.72388 0.0
H527 H 0.57262 0.09391 0.71192 0.0
H528 H 0.54538 0.0808 0.72166 0.0
H529 H 0.56773 0.0655 0.81627 0.0
H530 H 0.5011 0.06938 0.8182 0.0
H531 H 0.5054 0.08403 0.79434 0.0
H532 H 0.55786 0.04314 0.78159 0.0
H533 H 0.58521 0.05473 0.79411 0.0
H534 H 0.58708 0.05921 0.77491 0.0
H535 H 0.59805 0.11813 0.80235 0.0
H536 H 0.61416 0.11598 0.7878 0.0
H537 H 0.61047 0.09786 0.80309 0.0
H538 H 0.65623 0.10118 0.75956 0.0
C539 C 0.62079 0.09734 0.76191 0.0
C540 C 0.83139 0.55184 0.93711 0.0
C541 C 0.85152 0.55253 0.93064 0.0
C542 C 0.85443 0.55784 0.91586 0.0
C543 C 0.81818 0.5622 0.91449 0.0
C544 C 0.81496 0.55651 0.92884 0.0
C545 C 0.79221 0.55566 0.9339 0.0
H546 H 0.69295 0.56933 0.92009 0.0
C547 C 0.7981 0.56642 0.90907 0.0
C548 C 0.78273 0.56248 0.92035 0.0
H549 H 0.71347 0.54408 0.95858 0.0
H550 H 0.74954 0.54914 0.94803 0.0
H551 H 0.74812 0.61283 0.91551 0.0
H552 H 0.70573 0.53696 0.89632 0.0
H553 H 0.71936 0.55624 0.88236 0.0
H554 H 0.6974 0.55977 0.89248 0.0
H555 H 0.72238 0.60259 0.90191 0.0
H556 H 0.7529 0.61198 0.89679 0.0
C557 C 0.80027 0.57555 0.94714 0.0
C558 C 0.77417 0.52885 0.93731 0.0
C559 C 0.79699 0.59246 0.85776 0.0
C560 C 0.78196 0.59929 0.84979 0.0
C561 C 0.76223 0.59927 0.85643 0.0
C562 C 0.75739 0.59218 0.87071 0.0
C563 C 0.77256 0.58523 0.8785 0.0
C564 C 0.79212 0.58572 0.87202 0.0
C565 C 0.807 0.57882 0.88202 0.0
C566 C 0.79305 0.57378 0.89555 0.0
C567 C 0.77274 0.57735 0.89345 0.0
C568 C 0.83342 0.6015 0.88507 0.0
C569 C 0.80568 0.55515 0.87472 0.0
C570 C 0.70511 0.56473 0.92622 0.0
C571 C 0.70026 0.55651 0.94032 0.0
C572 C 0.71685 0.55099 0.94788 0.0
C573 C 0.73776 0.55367 0.94166 0.0
C574 C 0.74226 0.56176 0.9276 0.0
C575 C 0.72607 0.56708 0.92007 0.0
C576 C 0.73374 0.57493 0.90507 0.0
C577 C 0.75691 0.57301 0.90482 0.0
C578 C 0.76185 0.56548 0.91813 0.0
C579 C 0.73946 0.60193 0.90464 0.0
C580 C 0.71301 0.55618 0.89335 0.0
H581 H 0.84133 0.56668 0.89665 0.0
H582 H 0.8285 0.54797 0.94842 0.0
H583 H 0.77729 0.51513 0.93094 0.0
H584 H 0.75466 0.52299 0.93406 0.0
H585 H 0.7764 0.52668 0.94916 0.0
H586 H 0.8171 0.59293 0.94512 0.0
H587 H 0.80459 0.56914 0.95736 0.0
H588 H 0.78633 0.58091 0.94914 0.0
H589 H 0.8126 0.59278 0.85309 0.0
H590 H 0.75039 0.60448 0.85049 0.0
H591 H 0.74204 0.59238 0.87515 0.0
H592 H 0.83299 0.61907 0.88579 0.0
H593 H 0.84495 0.60217 0.87615 0.0
H594 H 0.8429 0.60198 0.89572 0.0
H595 H 0.78747 0.54291 0.86831 0.0
H596 H 0.80735 0.54354 0.88281 0.0
H597 H 0.82008 0.55981 0.86703 0.0
H598 H 0.86928 0.55791 0.91039 0.0
C599 C 0.83799 0.56275 0.90781 0.0
C600 C 0.447 0.15594 0.95039 0.0
C601 C 0.44672 0.13575 0.94264 0.0
C602 C 0.44131 0.13182 0.92724 0.0
C603 C 0.43705 0.16824 0.92751 0.0
C604 C 0.44239 0.17202 0.94263 0.0
C605 C 0.44385 0.19539 0.94909 0.0
H606 H 0.4457 0.30196 0.93833 0.0
C607 C 0.43424 0.18892 0.92279 0.0
C608 C 0.43841 0.20499 0.93538 0.0
H609 H 0.45602 0.2764 0.97963 0.0
H610 H 0.44817 0.23812 0.9668 0.0
H611 H 0.4741 0.28219 0.91902 0.0
H612 H 0.39775 0.25092 0.9263 0.0
H613 H 0.398 0.24091 0.90803 0.0
H614 H 0.41165 0.27359 0.91358 0.0
H615 H 0.45503 0.29397 0.9122 0.0
H616 H 0.45648 0.26942 0.90189 0.0
C617 C 0.47044 0.21278 0.95644 0.0
C618 C 0.42348 0.18834 0.95967 0.0
C619 C 0.41275 0.19142 0.86871 0.0
C620 C 0.40937 0.20852 0.86109 0.0
C621 C 0.41223 0.22992 0.86905 0.0
C622 C 0.41841 0.23427 0.88429 0.0
C623 C 0.4218 0.21708 0.89174 0.0
C624 C 0.41891 0.19605 0.88398 0.0
C625 C 0.42338 0.17993 0.89378 0.0
C626 C 0.42888 0.19453 0.90872 0.0
C627 C 0.42806 0.21632 0.90742 0.0
C628 C 0.44602 0.1786 0.88902 0.0
C629 C 0.39934 0.15456 0.89288 0.0
C630 C 0.446 0.28806 0.94469 0.0
C631 C 0.4519 0.29255 0.96005 0.0
C632 C 0.45217 0.27382 0.96777 0.0
C633 C 0.44746 0.25148 0.9603 0.0
C634 C 0.44236 0.24767 0.94492 0.0
C635 C 0.44116 0.26558 0.93742 0.0
C636 C 0.43456 0.25795 0.92116 0.0
C637 C 0.43285 0.23287 0.92009 0.0
C638 C 0.43765 0.22705 0.93401 0.0
C639 C 0.45598 0.27685 0.91302 0.0
C640 C 0.40929 0.25585 0.91691 0.0
H641 H 0.43232 0.14393 0.90792 0.0
H642 H 0.45156 0.15964 0.96221 0.0
H643 H 0.40672 0.17044 0.95553 0.0
H644 H 0.41701 0.20179 0.96064 0.0
H645 H 0.42986 0.18632 0.9708 0.0
H646 H 0.48414 0.21121 0.94995 0.0
H647 H 0.47271 0.20805 0.9677 0.0
H648 H 0.476 0.23254 0.957 0.0
H649 H 0.41095 0.17493 0.86291 0.0
H650 H 0.40935 0.2432 0.8635 0.0
H651 H 0.42031 0.25089 0.88968 0.0
H652 H 0.45908 0.19571 0.8842 0.0
H653 H 0.44034 0.16273 0.8806 0.0
H654 H 0.45713 0.17735 0.89837 0.0
H655 H 0.38302 0.15705 0.89307 0.0
H656 H 0.39852 0.14404 0.90229 0.0
H657 H 0.39695 0.14303 0.88254 0.0
H658 H 0.44096 0.11631 0.92109 0.0
C659 C 0.4363 0.14786 0.91964 0.0
C660 C 0.71232 0.1551 0.94242 0.0
C661 C 0.6941 0.13175 0.93558 0.0
C662 C 0.69698 0.1244 0.92126 0.0
C663 C 0.73531 0.1632 0.92098 0.0
C664 C 0.73268 0.17026 0.93505 0.0
C665 C 0.75391 0.19514 0.94111 0.0
H666 H 0.85988 0.29876 0.93088 0.0
C667 C 0.75857 0.18335 0.91646 0.0
C668 C 0.76962 0.20201 0.92831 0.0
H669 H 0.82229 0.28119 0.97028 0.0
H670 H 0.79147 0.24109 0.95827 0.0
H671 H 0.8574 0.24868 0.92508 0.0
H672 H 0.81072 0.27448 0.90713 0.0
H673 H 0.81727 0.25974 0.89253 0.0
H674 H 0.84218 0.28625 0.90341 0.0
H675 H 0.86524 0.26669 0.9097 0.0
H676 H 0.84667 0.23332 0.90728 0.0
C677 C 0.76711 0.19168 0.95484 0.0
C678 C 0.74375 0.2128 0.94416 0.0
C679 C 0.78395 0.1779 0.86492 0.0
C680 C 0.80505 0.19367 0.85814 0.0
C681 C 0.82347 0.21587 0.86606 0.0
C682 C 0.82097 0.22247 0.88045 0.0
C683 C 0.79988 0.20663 0.88714 0.0
C684 C 0.7819 0.18462 0.87949 0.0
C685 C 0.76144 0.16966 0.8888 0.0
C686 C 0.77002 0.18656 0.90314 0.0
C687 C 0.79242 0.20827 0.90198 0.0
C688 C 0.76096 0.14503 0.89073 0.0
C689 C 0.73716 0.16641 0.88136 0.0
C690 C 0.84488 0.28626 0.93684 0.0
C691 C 0.84325 0.29309 0.95145 0.0
C692 C 0.82384 0.27621 0.95901 0.0
C693 C 0.80597 0.25301 0.952 0.0
C694 C 0.80766 0.24649 0.93731 0.0
C695 C 0.82712 0.26287 0.93007 0.0
C696 C 0.82672 0.25235 0.91479 0.0
C697 C 0.80347 0.22716 0.91391 0.0
C698 C 0.79226 0.22394 0.92705 0.0
C699 C 0.85022 0.25023 0.91404 0.0
C700 C 0.82424 0.26903 0.90379 0.0
H701 H 0.71843 0.1333 0.90309 0.0
H702 H 0.71077 0.1617 0.95329 0.0
H703 H 0.72984 0.21007 0.93507 0.0
H704 H 0.75801 0.23252 0.94483 0.0
H705 H 0.73465 0.20929 0.95452 0.0
H706 H 0.7651 0.17296 0.95404 0.0
H707 H 0.75935 0.19385 0.96506 0.0
H708 H 0.78725 0.20457 0.95604 0.0
H709 H 0.76965 0.16058 0.85911 0.0
H710 H 0.83978 0.22833 0.861 0.0
H711 H 0.8356 0.2397 0.8858 0.0
H712 H 0.77983 0.14765 0.89101 0.0
H713 H 0.7494 0.13073 0.88151 0.0
H714 H 0.75435 0.13773 0.90126 0.0
H715 H 0.74025 0.18411 0.87742 0.0
H716 H 0.72266 0.16125 0.8889 0.0
H717 H 0.72994 0.15225 0.8717 0.0
H718 H 0.68364 0.10641 0.91574 0.0
C719 C 0.71737 0.13998 0.91394 0.0
C720 C 0.55833 0.8436 0.0529 0.0
C721 C 0.5588 0.86413 0.06037 0.0
C722 C 0.56676 0.86982 0.07556 0.0
C723 C 0.57239 0.83423 0.07557 0.0
C724 C 0.56487 0.82886 0.06068 0.0
C725 C 0.56349 0.80539 0.05449 0.0
H726 H 0.56574 0.70126 0.06655 0.0
C727 C 0.57685 0.81458 0.08043 0.0
C728 C 0.57155 0.79759 0.06811 0.0
H729 H 0.54851 0.72213 0.02533 0.0
H730 H 0.55858 0.76198 0.03726 0.0
H731 H 0.61418 0.7518 0.0755 0.0
H732 H 0.54068 0.72406 0.08772 0.0
H733 H 0.56155 0.73719 0.10375 0.0
H734 H 0.56015 0.71172 0.09275 0.0
H735 H 0.60358 0.73305 0.09045 0.0
H736 H 0.61779 0.76634 0.0932 0.0
C737 C 0.58207 0.81185 0.04277 0.0
C738 C 0.5363 0.78685 0.0486 0.0
C739 C 0.60477 0.81674 0.13409 0.0
C740 C 0.61063 0.8011 0.1416 0.0
C741 C 0.60881 0.78013 0.13374 0.0
C742 C 0.60102 0.77461 0.11868 0.0
C743 C 0.59501 0.79023 0.11133 0.0
C744 C 0.59726 0.81108 0.11896 0.0
C745 C 0.59077 0.82588 0.10914 0.0
C746 C 0.58443 0.8105 0.0944 0.0
C747 C 0.58661 0.78948 0.09583 0.0
C748 C 0.61393 0.85175 0.10912 0.0
C749 C 0.56812 0.8263 0.11466 0.0
C750 C 0.56407 0.71446 0.06016 0.0
C751 C 0.55595 0.70856 0.04509 0.0
C752 C 0.55464 0.72634 0.03698 0.0
C753 C 0.56035 0.74936 0.04395 0.0
C754 C 0.56751 0.75466 0.05917 0.0
C755 C 0.56996 0.73762 0.06692 0.0
C756 C 0.57912 0.74697 0.08283 0.0
C757 C 0.58054 0.77193 0.0835 0.0
C758 C 0.57346 0.77618 0.06966 0.0
C759 C 0.60491 0.74958 0.08577 0.0
C760 C 0.55952 0.72909 0.09237 0.0
H761 H 0.57926 0.86021 0.09473 0.0
H762 H 0.55274 0.83883 0.0412 0.0
H763 H 0.52344 0.78843 0.05587 0.0
H764 H 0.53152 0.76735 0.04833 0.0
H765 H 0.53197 0.79048 0.0374 0.0
H766 H 0.59867 0.83041 0.0458 0.0
H767 H 0.57369 0.81213 0.03182 0.0
H768 H 0.58931 0.79902 0.04179 0.0
H769 H 0.60624 0.83311 0.13983 0.0
H770 H 0.61299 0.7677 0.13932 0.0
H771 H 0.59976 0.75824 0.11337 0.0
H772 H 0.63084 0.85027 0.10901 0.0
H773 H 0.61623 0.86401 0.11909 0.0
H774 H 0.61365 0.86096 0.09927 0.0
H775 H 0.55551 0.80861 0.11912 0.0
H776 H 0.55659 0.82807 0.1058 0.0
H777 H 0.57383 0.84149 0.12357 0.0
H778 H 0.56706 0.88532 0.08168 0.0
C779 C 0.57364 0.85506 0.08317 0.0
C780 C 0.28826 0.84953 0.063 0.0
C781 C 0.30797 0.87087 0.07085 0.0
C782 C 0.30693 0.87579 0.08596 0.0
C783 C 0.26692 0.83844 0.08508 0.0
C784 C 0.26816 0.83358 0.07031 0.0
C785 C 0.24641 0.8095 0.06366 0.0
H786 H 0.14224 0.70352 0.07266 0.0
C787 C 0.24365 0.81789 0.08932 0.0
C788 C 0.23169 0.80082 0.07679 0.0
H789 H 0.17799 0.72596 0.03277 0.0
H790 H 0.20842 0.76507 0.04563 0.0
H791 H 0.19103 0.72602 0.09553 0.0
H792 H 0.144 0.75343 0.08071 0.0
H793 H 0.15554 0.76748 0.09874 0.0
H794 H 0.13678 0.73419 0.0955 0.0
H795 H 0.15965 0.71365 0.0996 0.0
H796 H 0.18466 0.73918 0.11104 0.0
C797 C 0.25603 0.79214 0.05843 0.0
C798 C 0.23249 0.81507 0.05132 0.0
C799 C 0.21908 0.81915 0.14149 0.0
C800 C 0.19789 0.80302 0.14809 0.0
C801 C 0.17932 0.78135 0.13976 0.0
C802 C 0.18167 0.77577 0.12512 0.0
C803 C 0.20277 0.79207 0.11861 0.0
C804 C 0.221 0.81344 0.1267 0.0
C805 C 0.24169 0.82886 0.11766 0.0
C806 C 0.23266 0.8133 0.10282 0.0
C807 C 0.20999 0.79165 0.10357 0.0
C808 C 0.26559 0.83058 0.12461 0.0
C809 C 0.24315 0.85416 0.11689 0.0
C810 C 0.15641 0.71688 0.06659 0.0
C811 C 0.15778 0.71121 0.05167 0.0
C812 C 0.17675 0.72936 0.04434 0.0
C813 C 0.19439 0.75223 0.05182 0.0
C814 C 0.19312 0.75725 0.06681 0.0
C815 C 0.17405 0.73992 0.07386 0.0
C816 C 0.17495 0.74891 0.08962 0.0
C817 C 0.1983 0.77409 0.09102 0.0
C818 C 0.20894 0.77879 0.07767 0.0
C819 C 0.17757 0.73104 0.09957 0.0
C820 C 0.15161 0.75101 0.09136 0.0
H821 H 0.28673 0.86455 0.10458 0.0
H822 H 0.28873 0.84499 0.05145 0.0
H823 H 0.23327 0.83297 0.05422 0.0
H824 H 0.21261 0.80123 0.0496 0.0
H825 H 0.24071 0.81633 0.04076 0.0
H826 H 0.27171 0.7948 0.06612 0.0
H827 H 0.26264 0.7959 0.04736 0.0
H828 H 0.24217 0.77234 0.0582 0.0
H829 H 0.23357 0.83603 0.1476 0.0
H830 H 0.16298 0.76852 0.14465 0.0
H831 H 0.16693 0.75891 0.11946 0.0
H832 H 0.26154 0.81302 0.12917 0.0
H833 H 0.27467 0.84568 0.13375 0.0
H834 H 0.27893 0.83335 0.11654 0.0
H835 H 0.22435 0.8517 0.11533 0.0
H836 H 0.25255 0.8638 0.1075 0.0
H837 H 0.25267 0.86648 0.12721 0.0
H838 H 0.3219 0.89216 0.09223 0.0
C839 C 0.28648 0.85977 0.09309 0.0
C840 C 0.29068 0.44619 0.06664 0.0
C841 C 0.30868 0.44096 0.07223 0.0
C842 C 0.30603 0.43073 0.08578 0.0
C843 C 0.26865 0.4325 0.08829 0.0
C844 C 0.27087 0.44169 0.07474 0.0
C845 C 0.25004 0.44593 0.07017 0.0
H846 H 0.14815 0.4491 0.08666 0.0
C847 C 0.24649 0.43105 0.09412 0.0
C848 C 0.23549 0.4388 0.08347 0.0
H849 H 0.18114 0.46179 0.04545 0.0
H850 H 0.21246 0.45409 0.05565 0.0
H851 H 0.15174 0.4003 0.09085 0.0
H852 H 0.1971 0.47666 0.10781 0.0
H853 H 0.19761 0.45941 0.1221 0.0
H854 H 0.16872 0.45645 0.1151 0.0
H855 H 0.1427 0.41505 0.10458 0.0
H856 H 0.16055 0.40078 0.10947 0.0
C857 C 0.23526 0.42821 0.05615 0.0
C858 C 0.26105 0.47373 0.06818 0.0
C859 C 0.22449 0.40499 0.14551 0.0
C860 C 0.20623 0.40423 0.15407 0.0
C861 C 0.18964 0.41114 0.14815 0.0
C862 C 0.19101 0.41857 0.13397 0.0
C863 C 0.20928 0.41928 0.12553 0.0
C864 C 0.22583 0.41282 0.13134 0.0
C865 C 0.24465 0.41586 0.12088 0.0
C866 C 0.2363 0.42471 0.10779 0.0
C867 C 0.21547 0.42648 0.1106 0.0
C868 C 0.24214 0.39028 0.11697 0.0
C869 C 0.27038 0.43584 0.12825 0.0
C870 C 0.16193 0.45001 0.07973 0.0
C871 C 0.16209 0.45634 0.06521 0.0
C872 C 0.18072 0.45755 0.05676 0.0
C873 C 0.19883 0.45279 0.06266 0.0
C874 C 0.19835 0.4465 0.07715 0.0
C875 C 0.17996 0.44496 0.08537 0.0
C876 C 0.18177 0.43706 0.10037 0.0
C877 C 0.20422 0.43402 0.09976 0.0
C878 C 0.21401 0.43985 0.08621 0.0
C879 C 0.15797 0.41209 0.10154 0.0
C880 C 0.18636 0.45829 0.11204 0.0
H881 H 0.2853 0.41899 0.10418 0.0
H882 H 0.29197 0.45357 0.05611 0.0
H883 H 0.27553 0.48537 0.0773 0.0
H884 H 0.24736 0.47983 0.06842 0.0
H885 H 0.26965 0.47818 0.05768 0.0
H886 H 0.23713 0.41144 0.05548 0.0
H887 H 0.24176 0.43743 0.04601 0.0
H888 H 0.21519 0.42091 0.05602 0.0
H889 H 0.23765 0.40001 0.14984 0.0
H890 H 0.17529 0.41047 0.15448 0.0
H891 H 0.17773 0.42347 0.13014 0.0
H892 H 0.22242 0.37542 0.11575 0.0
H893 H 0.25191 0.38588 0.12572 0.0
H894 H 0.24903 0.38889 0.10633 0.0
H895 H 0.26933 0.45115 0.13434 0.0
H896 H 0.28391 0.44482 0.12027 0.0
H897 H 0.27782 0.42793 0.13623 0.0
H898 H 0.31967 0.42652 0.09029 0.0
C899 C 0.28617 0.42654 0.09386 0.0
C900 C 0.50084 0.88964 0.27263 0.0
C901 C 0.52312 0.89457 0.26715 0.0
C902 C 0.52883 0.9049 0.25367 0.0
C903 C 0.48985 0.90413 0.25102 0.0
C904 C 0.48463 0.89474 0.26447 0.0
C905 C 0.46042 0.89115 0.26883 0.0
H906 H 0.35418 0.8907 0.25139 0.0
C907 C 0.46877 0.90641 0.24509 0.0
C908 C 0.45155 0.89903 0.2555 0.0
H909 H 0.38017 0.87681 0.29261 0.0
H910 H 0.41754 0.88455 0.28276 0.0
H911 H 0.40728 0.93984 0.24754 0.0
H912 H 0.37474 0.86361 0.22956 0.0
H913 H 0.388 0.88284 0.21554 0.0
H914 H 0.36288 0.88301 0.22401 0.0
H915 H 0.38111 0.92552 0.23394 0.0
H916 H 0.41214 0.93901 0.22881 0.0
C917 C 0.46563 0.90869 0.28297 0.0
C918 C 0.44343 0.86335 0.27054 0.0
C919 C 0.46828 0.93251 0.1938 0.0
C920 C 0.45094 0.93466 0.18457 0.0
C921 C 0.4285 0.92976 0.18997 0.0
C922 C 0.42337 0.92251 0.20421 0.0
C923 C 0.44086 0.92014 0.21319 0.0
C924 C 0.46286 0.92515 0.20788 0.0
C925 C 0.47921 0.92128 0.21866 0.0
C926 C 0.46353 0.91321 0.23142 0.0
C927 C 0.44106 0.91258 0.22824 0.0
C928 C 0.50333 0.9464 0.22278 0.0
C929 C 0.48295 0.90038 0.21164 0.0
C930 C 0.36795 0.88948 0.25835 0.0
C931 C 0.36369 0.88254 0.27277 0.0
C932 C 0.38234 0.88125 0.28134 0.0
C933 C 0.40431 0.88605 0.27565 0.0
C934 C 0.40808 0.89253 0.26123 0.0
C935 C 0.39029 0.89456 0.25288 0.0
C936 C 0.39825 0.90284 0.23799 0.0
C937 C 0.42365 0.90532 0.23886 0.0
C938 C 0.42908 0.89892 0.25246 0.0
C939 C 0.39967 0.92805 0.23686 0.0
C940 C 0.38002 0.88217 0.22606 0.0
H941 H 0.51763 0.91725 0.23531 0.0
H942 H 0.49621 0.88214 0.28311 0.0
H943 H 0.44455 0.8517 0.2613 0.0
H944 H 0.42378 0.85782 0.27029 0.0
H945 H 0.44896 0.85837 0.28096 0.0
H946 H 0.48478 0.92472 0.28414 0.0
H947 H 0.46322 0.89889 0.293 0.0
H948 H 0.4538 0.91714 0.28282 0.0
H949 H 0.48592 0.93657 0.19019 0.0
H950 H 0.4147 0.93109 0.18309 0.0
H951 H 0.40592 0.91885 0.20764 0.0
H952 H 0.49974 0.96208 0.22266 0.0
H953 H 0.51712 0.94938 0.21489 0.0
H954 H 0.51167 0.94819 0.23407 0.0
H955 H 0.46586 0.88595 0.20494 0.0
H956 H 0.48693 0.89028 0.21982 0.0
H957 H 0.49795 0.90774 0.20426 0.0
H958 H 0.54589 0.90881 0.24923 0.0
C959 C 0.51232 0.90966 0.24557 0.0
C960 C 0.10704 0.48513 0.28395 0.0
C961 C 0.10722 0.46532 0.27605 0.0
C962 C 0.1016 0.46148 0.26066 0.0
C963 C 0.09626 0.49727 0.26127 0.0
C964 C 0.10178 0.50095 0.27637 0.0
C965 C 0.1027 0.52395 0.28301 0.0
H966 H 0.10241 0.62964 0.27294 0.0
C967 C 0.0927 0.51762 0.25674 0.0
C968 C 0.0966 0.53339 0.26944 0.0
H969 H 0.1144 0.60449 0.314 0.0
H970 H 0.10634 0.56618 0.30105 0.0
H971 H 0.13038 0.61008 0.25303 0.0
H972 H 0.05457 0.57904 0.26139 0.0
H973 H 0.05383 0.56757 0.24329 0.0
H974 H 0.06745 0.60051 0.24792 0.0
H975 H 0.11104 0.62202 0.24698 0.0
H976 H 0.11206 0.59777 0.23607 0.0
C977 C 0.12929 0.5418 0.29022 0.0
C978 C 0.08251 0.51631 0.29376 0.0
C979 C 0.07143 0.52112 0.20275 0.0
C980 C 0.0673 0.53799 0.19536 0.0
C981 C 0.06859 0.55841 0.20363 0.0
C982 C 0.07432 0.56224 0.21889 0.0
C983 C 0.07879 0.54549 0.22608 0.0
C984 C 0.07704 0.52518 0.21807 0.0
C985 C 0.0821 0.50921 0.22769 0.0
C986 C 0.08691 0.52322 0.24277 0.0
C987 C 0.08519 0.54456 0.2417 0.0
C988 C 0.10531 0.50904 0.22295 0.0
C989 C 0.05858 0.48336 0.22647 0.0
C990 C 0.10298 0.61582 0.27924 0.0
C991 C 0.10948 0.62045 0.29454 0.0
C992 C 0.1101 0.6018 0.30217 0.0
C993 C 0.10529 0.57946 0.29464 0.0
C994 C 0.09975 0.57559 0.27929 0.0
C995 C 0.09806 0.59336 0.27191 0.0
C996 C 0.09106 0.58572 0.25568 0.0
C997 C 0.08979 0.56085 0.25445 0.0
C998 C 0.09511 0.55511 0.26828 0.0
C999 C 0.11206 0.60487 0.24739 0.0
C1000 C 0.06551 0.58319 0.25174 0.0
H1001 H 0.09187 0.47343 0.24151 0.0
H1002 H 0.11175 0.48876 0.29576 0.0
H1003 H 0.06589 0.49833 0.28959 0.0
H1004 H 0.07575 0.5295 0.29502 0.0
H1005 H 0.08922 0.51419 0.30477 0.0
H1006 H 0.14308 0.54067 0.2836 0.0
H1007 H 0.13196 0.53712 0.30144 0.0
H1008 H 0.13439 0.56142 0.29086 0.0
H1009 H 0.07075 0.50533 0.19675 0.0
H1010 H 0.06496 0.5714 0.1983 0.0
H1011 H 0.07516 0.57821 0.22449 0.0
H1012 H 0.11833 0.52685 0.21877 0.0
H1013 H 0.10032 0.49402 0.21404 0.0
H1014 H 0.11619 0.50719 0.23218 0.0
H1015 H 0.0418 0.48509 0.2264 0.0
H1016 H 0.0578 0.47285 0.23588 0.0
H1017 H 0.05698 0.47218 0.21614 0.0
H1018 H 0.1016 0.44626 0.25439 0.0
C1019 C 0.09595 0.47725 0.25323 0.0
C1020 C 0.37569 0.49116 0.27529 0.0
C1021 C 0.35796 0.46827 0.26785 0.0
C1022 C 0.36153 0.46153 0.25363 0.0
C1023 C 0.39958 0.5009 0.25421 0.0
C1024 C 0.39636 0.50699 0.26837 0.0
C1025 C 0.41726 0.53162 0.27502 0.0
H1026 H 0.52183 0.63776 0.26706 0.0
C1027 C 0.42271 0.52184 0.25012 0.0
C1028 C 0.43322 0.53974 0.26237 0.0
H1029 H 0.48459 0.61508 0.30646 0.0
H1030 H 0.45426 0.57623 0.29329 0.0
H1031 H 0.51989 0.58742 0.2589 0.0
H1032 H 0.47347 0.61565 0.24415 0.0
H1033 H 0.47816 0.60133 0.22856 0.0
H1034 H 0.50426 0.6272 0.23917 0.0
H1035 H 0.52856 0.60916 0.2454 0.0
H1036 H 0.51061 0.57619 0.24027 0.0
C1037 C 0.43036 0.52734 0.28847 0.0
C1038 C 0.40666 0.54873 0.27869 0.0
C1039 C 0.44781 0.5223 0.19795 0.0
C1040 C 0.4677 0.54001 0.19102 0.0
C1041 C 0.4856 0.56203 0.19941 0.0
C1042 C 0.48355 0.56667 0.21425 0.0
C1043 C 0.46338 0.54914 0.22093 0.0
C1044 C 0.44602 0.52727 0.21288 0.0
C1045 C 0.426 0.5108 0.22202 0.0
C1046 C 0.43418 0.52657 0.23677 0.0
C1047 C 0.45606 0.54902 0.23598 0.0
C1048 C 0.42677 0.48661 0.22298 0.0
C1049 C 0.40118 0.50691 0.21502 0.0
C1050 C 0.50736 0.6244 0.27297 0.0
C1051 C 0.50567 0.62986 0.28787 0.0
C1052 C 0.48619 0.6118 0.29493 0.0
C1053 C 0.46864 0.58905 0.28729 0.0
C1054 C 0.47054 0.58405 0.2724 0.0
C1055 C 0.48986 0.60146 0.26556 0.0
C1056 C 0.48953 0.59258 0.24986 0.0
C1057 C 0.46671 0.56701 0.24839 0.0
C1058 C 0.4555 0.56226 0.26155 0.0
C1059 C 0.51338 0.59138 0.24838 0.0
C1060 C 0.48636 0.61007 0.23981 0.0
H1061 H 0.3838 0.47179 0.23582 0.0
H1062 H 0.37359 0.49654 0.28636 0.0
H1063 H 0.39313 0.54673 0.26956 0.0
H1064 H 0.42079 0.56853 0.2801 0.0
H1065 H 0.39701 0.54398 0.28883 0.0
H1066 H 0.42801 0.50849 0.28734 0.0
H1067 H 0.42285 0.52933 0.29883 0.0
H1068 H 0.45056 0.53998 0.28962 0.0
H1069 H 0.43373 0.50519 0.19185 0.0
H1070 H 0.50141 0.57574 0.19451 0.0
H1071 H 0.49777 0.58385 0.21991 0.0
H1072 H 0.44603 0.49027 0.22322 0.0
H1073 H 0.4159 0.47296 0.21336 0.0
H1074 H 0.42009 0.47802 0.2332 0.0
H1075 H 0.4034 0.52463 0.21166 0.0
H1076 H 0.38674 0.50059 0.22265 0.0
H1077 H 0.39428 0.49338 0.20506 0.0
H1078 H 0.34807 0.44387 0.24776 0.0
C1079 C 0.3822 0.47778 0.24673 0.0
C1080 C 0.53527 0.02056 0.04481 0.0
Eu1081 Eu 0.51629 0.01276 0.01768 0.0
C1082 C 0.52559 0.01203 0.05902 0.0
C1083 C 0.50882 0.01779 0.06515 0.0
C1084 C 0.49972 0.00925 0.0785 0.0
C1085 C 0.50708 0.99466 0.086 0.0
C1086 C 0.52372 0.98879 0.07975 0.0
C1087 C 0.53293 0.99747 0.06646 0.0
C1088 C 0.50057 0.03947 0.00335 0.0
C1089 C 0.45643 0.9733 0.01642 0.0
C1090 C 0.46653 0.97888 0.96077 0.0
Eu1091 Eu 0.48523 0.98785 0.98805 0.0
C1092 C 0.47575 0.98797 0.94656 0.0
C1093 C 0.47746 0.97206 0.93583 0.0
C1094 C 0.48615 0.98017 0.92235 0.0
C1095 C 0.49308 0.00436 0.91916 0.0
C1096 C 0.49147 0.02034 0.92996 0.0
C1097 C 0.48295 0.01227 0.94351 0.0
C1098 C 0.50087 0.96118 0.00253 0.0
C1099 C 0.54465 0.02792 0.98934 0.0
O1100 O 0.53447 0.00374 0.03523 0.0
O1101 O 0.52933 0.03553 0.03873 0.0
O1102 O 0.52206 0.04932 0.01085 0.0
O1103 O 0.48819 0.01659 0.00439 0.0
O1104 O 0.47844 0.98478 0.02404 0.0
O1105 O 0.45364 0.97385 0.00204 0.0
O1106 O 0.4649 0.99422 0.97041 0.0
O1107 O 0.47494 0.96579 0.96683 0.0
O1108 O 0.47936 0.9514 0.9951 0.0
O1109 O 0.51331 0.984 1.00134 0.0
O1110 O 0.52252 0.01766 0.98197 0.0
O1111 O 0.54756 0.02572 0.00348 0.0
H1112 H 0.50269 0.0289 0.05966 0.0
H1113 H 0.48718 0.0144 0.08304 0.0
H1114 H 0.52946 0.97722 0.08502 0.0
H1115 H 0.54571 0.99262 0.06194 0.0
H1116 H 0.4721 0.95327 0.93788 0.0
H1117 H 0.48751 0.96745 0.91444 0.0
H1118 H 0.49628 0.03896 0.92786 0.0
H1119 H 0.48188 0.02504 0.95154 0.0
C1120 C 0.994 0.5253 0.04246 0.0
Eu1121 Eu 0.99419 0.5076 0.01604 0.0
C1122 C 0.00278 0.52447 0.05758 0.0
C1123 C 0.99599 0.5019 0.06337 0.0
C1124 C 0.00417 0.50166 0.07785 0.0
C1125 C 0.01949 0.52395 0.08673 0.0
C1126 C 0.02654 0.54648 0.08084 0.0
C1127 C 0.01818 0.54672 0.06642 0.0
C1128 C 0.96276 0.46165 0.00299 0.0
C1129 C 0.03287 0.48659 0.01622 0.0
C1130 C 0.00908 0.4765 0.96095 0.0
Eu1131 Eu 0.00876 0.49441 0.98727 0.0
C1132 C 0.99969 0.47613 0.94576 0.0
C1133 C 0.00597 0.49807 0.93932 0.0
C1134 C 0.99756 0.49713 0.92469 0.0
C1135 C 0.98259 0.47424 0.91625 0.0
C1136 C 0.97587 0.45235 0.92288 0.0
C1137 C 0.98444 0.45331 0.93745 0.0
C1138 C 0.04012 0.54041 1.00041 0.0
C1139 C 0.97047 0.51573 0.98695 0.0
O1140 O 0.01103 0.53762 0.03382 0.0
O1141 O 0.97559 0.50475 0.03577 0.0
O1142 O 0.95562 0.4754 0.00979 0.0
O1143 O 0.98594 0.47217 0.00398 0.0
O1144 O 0.02407 0.4989 0.02356 0.0
O1145 O 0.02678 0.47959 0.00201 0.0
O1146 O 0.99253 0.46394 0.9698 0.0
O1147 O 0.02698 0.49766 0.96735 0.0
O1148 O 0.04734 0.52672 0.99361 0.0
O1149 O 0.01695 0.5298 0.99933 0.0
O1150 O 0.97901 0.5031 0.97972 0.0
O1151 O 0.97645 0.52275 1.00119 0.0
H1152 H 0.98431 0.48444 0.05676 0.0
H1153 H 0.99865 0.48404 0.08208 0.0
H1154 H 0.03812 0.56393 0.08748 0.0
H1155 H 0.02363 0.56432 0.06217 0.0
H1156 H 0.01763 0.51597 0.94549 0.0
H1157 H 0.00327 0.51434 0.9199 0.0
H1158 H 0.96397 0.4344 0.91682 0.0
H1159 H 0.97923 0.43616 0.94222 0.0
C1160 C 0.46687 0.46851 0.96249 0.0
Eu1161 Eu 0.48594 0.49007 0.9889 0.0
C1162 C 0.47542 0.47178 0.94763 0.0
C1163 C 0.48591 0.49494 0.94202 0.0
C1164 C 0.49395 0.49761 0.92794 0.0
C1165 C 0.49192 0.47727 0.91926 0.0
C1166 C 0.48167 0.45421 0.92497 0.0
C1167 C 0.47343 0.45149 0.93899 0.0
C1168 C 0.50028 0.53738 0.9984 0.0
C1169 C 0.54643 0.51583 0.9901 0.0
C1170 C 0.53674 0.53127 0.04474 0.0
Eu1171 Eu 0.51783 0.50983 0.01828 0.0
C1172 C 0.52731 0.52977 0.05931 0.0
C1173 C 0.51459 0.50711 0.06539 0.0
C1174 C 0.50557 0.50613 0.07912 0.0
C1175 C 0.50884 0.52771 0.08696 0.0
C1176 C 0.52145 0.55031 0.08081 0.0
C1177 C 0.53066 0.55132 0.06716 0.0
C1178 C 0.50365 0.46261 0.00855 0.0
C1179 C 0.45762 0.48458 0.01712 0.0
O1180 O 0.47737 0.46051 0.97169 0.0
O1181 O 0.4636 0.4859 0.96871 0.0
O1182 O 0.47875 0.52212 0.99155 0.0
O1183 O 0.51341 0.52751 0.9992 0.0
O1184 O 0.52452 0.50016 0.983 0.0
O1185 O 0.54869 0.52544 0.00374 0.0
O1186 O 0.52889 0.54083 0.03495 0.0
O1187 O 0.53767 0.51206 0.03913 0.0
O1188 O 0.52525 0.47795 0.01531 0.0
O1189 O 0.49043 0.47241 0.00794 0.0
O1190 O 0.47954 0.50078 0.02396 0.0
O1191 O 0.45532 0.47419 0.00368 0.0
H1192 H 0.48796 0.51102 0.94849 0.0
H1193 H 0.50199 0.51566 0.9239 0.0
H1194 H 0.47961 0.43813 0.91848 0.0
H1195 H 0.46546 0.43348 0.94309 0.0
H1196 H 0.51148 0.49011 0.05954 0.0
H1197 H 0.49573 0.48842 0.08351 0.0
H1198 H 0.52452 0.5673 0.08666 0.0
H1199 H 0.54038 0.56899 0.06269 0.0
C1200 C 0.20251 0.35503 0.377 0.0
Eu1201 Eu 0.18326 0.34609 0.34985 0.0
C1202 C 0.19286 0.34641 0.39122 0.0
C1203 C 0.19212 0.36298 0.40192 0.0
C1204 C 0.18258 0.35513 0.41527 0.0
C1205 C 0.17377 0.33052 0.41834 0.0
C1206 C 0.17461 0.31395 0.40761 0.0
C1207 C 0.18397 0.32177 0.3942 0.0
C1208 C 0.16614 0.37204 0.33586 0.0
C1209 C 0.12402 0.30555 0.34906 0.0
C1210 C 0.13252 0.31151 0.29333 0.0
Eu1211 Eu 0.15173 0.32083 0.32051 0.0
C1212 C 0.14177 0.32135 0.27928 0.0
C1213 C 0.14287 0.30581 0.26802 0.0
C1214 C 0.15223 0.31487 0.25483 0.0
C1215 C 0.1605 0.3397 0.25251 0.0
C1216 C 0.15924 0.35522 0.26379 0.0
C1217 C 0.15008 0.34619 0.27704 0.0
C1218 C 0.16894 0.29501 0.33458 0.0
C1219 C 0.21073 0.36196 0.32133 0.0
O1220 O 0.203 0.3389 0.36743 0.0
O1221 O 0.19528 0.36899 0.37087 0.0
O1222 O 0.18791 0.38228 0.34303 0.0
O1223 O 0.15429 0.34917 0.33699 0.0
O1224 O 0.14629 0.31622 0.35628 0.0
O1225 O 0.1207 0.30731 0.33489 0.0
O1226 O 0.13027 0.32622 0.30311 0.0
O1227 O 0.14165 0.2989 0.29923 0.0
O1228 O 0.14706 0.28474 0.32756 0.0
O1229 O 0.18077 0.31782 0.33332 0.0
O1230 O 0.18837 0.35154 0.31423 0.0
O1231 O 0.21419 0.35959 0.33538 0.0
H1232 H 0.19878 0.38206 0.39991 0.0
H1233 H 0.1819 0.36835 0.42312 0.0
H1234 H 0.16838 0.29498 0.40964 0.0
H1235 H 0.18425 0.30846 0.3862 0.0
H1236 H 0.13669 0.28662 0.26949 0.0
H1237 H 0.15324 0.30244 0.24653 0.0
H1238 H 0.16503 0.37431 0.26235 0.0
H1239 H 0.14954 0.35873 0.2855 0.0
C1240 C 0.66891 0.86785 0.37504 0.0
Eu1241 Eu 0.66445 0.84521 0.3493 0.0
C1242 C 0.67391 0.86475 0.39044 0.0
C1243 C 0.66239 0.84133 0.3957 0.0
C1244 C 0.66723 0.83886 0.41041 0.0
C1245 C 0.6839 0.85969 0.42004 0.0
C1246 C 0.69565 0.88303 0.41468 0.0
C1247 C 0.69063 0.88553 0.40001 0.0
C1248 C 0.63008 0.79761 0.34012 0.0
C1249 C 0.69916 0.81981 0.34977 0.0
C1250 C 0.66795 0.80147 0.29509 0.0
Eu1251 Eu 0.67271 0.8243 0.32082 0.0
C1252 C 0.6621 0.80415 0.27975 0.0
C1253 C 0.67251 0.82751 0.27443 0.0
C1254 C 0.66692 0.82961 0.25977 0.0
C1255 C 0.65061 0.80845 0.25026 0.0
C1256 C 0.63991 0.78516 0.2557 0.0
C1257 C 0.64569 0.78305 0.27031 0.0
C1258 C 0.70717 0.87182 0.33012 0.0
C1259 C 0.63875 0.85051 0.32025 0.0
O1260 O 0.68719 0.87443 0.36687 0.0
O1261 O 0.64771 0.85102 0.36814 0.0
O1262 O 0.62488 0.81334 0.34635 0.0
O1263 O 0.65295 0.8072 0.33974 0.0
O1264 O 0.6944 0.83628 0.3562 0.0
O1265 O 0.68887 0.80871 0.33649 0.0
O1266 O 0.64997 0.7945 0.30354 0.0
O1267 O 0.68915 0.81883 0.30172 0.0
O1268 O 0.71237 0.8561 0.32385 0.0
O1269 O 0.68429 0.86224 0.33039 0.0
O1270 O 0.64317 0.83379 0.31384 0.0
O1271 O 0.64894 0.86135 0.3336 0.0
H1272 H 0.64962 0.82495 0.38847 0.0
H1273 H 0.65812 0.82062 0.41421 0.0
H1274 H 0.7084 0.89944 0.42189 0.0
H1275 H 0.69975 0.90373 0.39614 0.0
H1276 H 0.68499 0.84413 0.28156 0.0
H1277 H 0.67522 0.8478 0.2559 0.0
H1278 H 0.62745 0.76852 0.24857 0.0
H1279 H 0.6374 0.76489 0.27424 0.0
C1280 C 0.13222 0.80277 0.29561 0.0
Eu1281 Eu 0.15166 0.82319 0.32216 0.0
C1282 C 0.14119 0.80561 0.28085 0.0
C1283 C 0.15368 0.82892 0.27548 0.0
C1284 C 0.16221 0.83118 0.26154 0.0
C1285 C 0.1587 0.81026 0.25277 0.0
C1286 C 0.14644 0.78703 0.25824 0.0
C1287 C 0.1377 0.78473 0.27212 0.0
C1288 C 0.16707 0.87022 0.3328 0.0
C1289 C 0.21191 0.8471 0.32291 0.0
C1290 C 0.20392 0.861 0.37792 0.0
Eu1291 Eu 0.18382 0.84061 0.35143 0.0
C1292 C 0.19553 0.85857 0.39275 0.0
C1293 C 0.17682 0.83585 0.39659 0.0
C1294 C 0.16947 0.83377 0.41083 0.0
C1295 C 0.18053 0.85442 0.42148 0.0
C1296 C 0.19884 0.87727 0.4174 0.0
C1297 C 0.2063 0.87928 0.4032 0.0
C1298 C 0.16814 0.79345 0.34076 0.0
C1299 C 0.12371 0.81668 0.35076 0.0
O1300 O 0.14118 0.79331 0.30479 0.0
O1301 O 0.13052 0.82112 0.3019 0.0
O1302 O 0.14542 0.85563 0.32585 0.0
O1303 O 0.17988 0.85993 0.33307 0.0
O1304 O 0.18981 0.83317 0.31561 0.0
O1305 O 0.21468 0.85539 0.3369 0.0
O1306 O 0.19503 0.87065 0.36883 0.0
O1307 O 0.20463 0.84207 0.37165 0.0
O1308 O 0.18978 0.80791 0.34772 0.0
O1309 O 0.15555 0.80395 0.34055 0.0
O1310 O 0.14584 0.8315 0.35781 0.0
O1311 O 0.12097 0.80763 0.33691 0.0
H1312 H 0.15694 0.84543 0.28204 0.0
H1313 H 0.1718 0.84935 0.25767 0.0
H1314 H 0.14323 0.77053 0.25168 0.0
H1315 H 0.1282 0.7666 0.27604 0.0
H1316 H 0.16806 0.81966 0.38862 0.0
H1317 H 0.15548 0.81585 0.41357 0.0
H1318 H 0.20739 0.89371 0.42516 0.0
H1319 H 0.22055 0.89703 0.40038 0.0
C1320 C 0.8653 0.68829 0.71048 0.0
Eu1321 Eu 0.84617 0.67862 0.68326 0.0
C1322 C 0.85619 0.67832 0.72454 0.0
C1323 C 0.85281 0.69295 0.73535 0.0
C1324 C 0.8435 0.68364 0.74851 0.0
C1325 C 0.83763 0.65956 0.75122 0.0
C1326 C 0.84125 0.64498 0.74047 0.0
C1327 C 0.85034 0.65421 0.72725 0.0
C1328 C 0.8295 0.70436 0.66861 0.0
C1329 C 0.78713 0.63755 0.68241 0.0
C1330 C 0.79572 0.64281 0.62666 0.0
Eu1331 Eu 0.81487 0.65266 0.65388 0.0
C1332 C 0.80453 0.65311 0.61264 0.0
C1333 C 0.8061 0.63813 0.6012 0.0
C1334 C 0.8149 0.64763 0.58799 0.0
C1335 C 0.82208 0.67226 0.58587 0.0
C1336 C 0.82046 0.68725 0.59731 0.0
C1337 C 0.81189 0.67783 0.61058 0.0
C1338 C 0.83159 0.62699 0.66859 0.0
C1339 C 0.87388 0.69382 0.65475 0.0
O1340 O 0.86803 0.67387 0.70072 0.0
O1341 O 0.85573 0.70049 0.70453 0.0
O1342 O 0.85115 0.71466 0.67594 0.0
O1343 O 0.8175 0.68157 0.66994 0.0
O1344 O 0.80942 0.64835 0.68963 0.0
O1345 O 0.78377 0.63921 0.66823 0.0
O1346 O 0.79241 0.65671 0.63648 0.0
O1347 O 0.80601 0.63119 0.63251 0.0
O1348 O 0.80992 0.61665 0.66129 0.0
O1349 O 0.84353 0.64974 0.66717 0.0
O1350 O 0.85159 0.68313 0.64753 0.0
O1351 O 0.8772 0.69198 0.66891 0.0
H1352 H 0.85727 0.71162 0.73359 0.0
H1353 H 0.8412 0.69541 0.75665 0.0
H1354 H 0.83671 0.62628 0.7422 0.0
H1355 H 0.85261 0.64236 0.71914 0.0
H1356 H 0.80053 0.61903 0.6025 0.0
H1357 H 0.8157 0.63556 0.57932 0.0
H1358 H 0.82608 0.70637 0.59604 0.0
H1359 H 0.81113 0.68997 0.61922 0.0
C1360 C 0.32621 0.18942 0.70934 0.0
Eu1361 Eu 0.32628 0.17227 0.6827 0.0
C1362 C 0.33558 0.1893 0.72437 0.0
C1363 C 0.32338 0.19158 0.73617 0.0
C1364 C 0.33183 0.19142 0.75058 0.0
C1365 C 0.35266 0.18892 0.75344 0.0
C1366 C 0.36482 0.18654 0.74154 0.0
C1367 C 0.35633 0.18671 0.72711 0.0
C1368 C 0.29458 0.12655 0.66933 0.0
C1369 C 0.36402 0.15045 0.68157 0.0
C1370 C 0.3403 0.1436 0.62651 0.0
Eu1371 Eu 0.34017 0.1602 0.65325 0.0
C1372 C 0.33492 0.14724 0.61126 0.0
C1373 C 0.34866 0.17011 0.60557 0.0
C1374 C 0.34373 0.17271 0.59089 0.0
C1375 C 0.3249 0.15257 0.58169 0.0
C1376 C 0.31099 0.12985 0.58747 0.0
C1377 C 0.31603 0.1272 0.60209 0.0
C1378 C 0.37176 0.20579 0.66683 0.0
C1379 C 0.30233 0.18207 0.65417 0.0
O1380 O 0.34265 0.20216 0.70047 0.0
O1381 O 0.30858 0.16814 0.70298 0.0
O1382 O 0.28771 0.13984 0.67691 0.0
O1383 O 0.31774 0.13725 0.66985 0.0
O1384 O 0.35647 0.16356 0.68928 0.0
O1385 O 0.35676 0.14328 0.66744 0.0
O1386 O 0.32143 0.13294 0.63422 0.0
O1387 O 0.35989 0.16169 0.6342 0.0
O1388 O 0.3788 0.19253 0.65939 0.0
O1389 O 0.34861 0.19511 0.66603 0.0
O1390 O 0.31139 0.17052 0.64636 0.0
O1391 O 0.30766 0.18747 0.66855 0.0
H1392 H 0.30734 0.19361 0.73424 0.0
H1393 H 0.32228 0.19369 0.7595 0.0
H1394 H 0.38077 0.18435 0.74337 0.0
H1395 H 0.36597 0.18487 0.71812 0.0
H1396 H 0.36331 0.18595 0.61238 0.0
H1397 H 0.35461 0.19049 0.58675 0.0
H1398 H 0.29659 0.11391 0.58059 0.0
H1399 H 0.3053 0.10936 0.6062 0.0
C1400 C 0.79786 0.13848 0.62738 0.0
Eu1401 Eu 0.81749 0.15835 0.654 0.0
C1402 C 0.80683 0.13903 0.61272 0.0
C1403 C 0.82017 0.16129 0.60633 0.0
C1404 C 0.82828 0.16123 0.59239 0.0
C1405 C 0.82335 0.13895 0.58457 0.0
C1406 C 0.81032 0.11679 0.59114 0.0
C1407 C 0.80207 0.11683 0.605 0.0
C1408 C 0.83284 0.20495 0.66538 0.0
C1409 C 0.87769 0.18184 0.65485 0.0
C1410 C 0.86938 0.19438 0.70994 0.0
Eu1411 Eu 0.84943 0.17447 0.68337 0.0
C1412 C 0.86092 0.19216 0.72476 0.0
C1413 C 0.84263 0.16941 0.72884 0.0
C1414 C 0.83514 0.16767 0.74306 0.0
C1415 C 0.84564 0.18869 0.75342 0.0
C1416 C 0.86352 0.21153 0.74909 0.0
C1417 C 0.87112 0.2132 0.73493 0.0
C1418 C 0.83401 0.12786 0.67186 0.0
C1419 C 0.78921 0.1507 0.68268 0.0
O1420 O 0.804 0.12735 0.637 0.0
O1421 O 0.79916 0.15875 0.63319 0.0
O1422 O 0.81123 0.19062 0.6583 0.0
O1423 O 0.84565 0.19463 0.66543 0.0
O1424 O 0.85563 0.16821 0.64745 0.0
O1425 O 0.88037 0.1896 0.66894 0.0
O1426 O 0.86096 0.20443 0.70085 0.0
O1427 O 0.86974 0.17525 0.70364 0.0
O1428 O 0.85559 0.14205 0.679 0.0
O1429 O 0.82133 0.13828 0.67194 0.0
O1430 O 0.8113 0.16379 0.6901 0.0
O1431 O 0.78636 0.14374 0.66844 0.0
H1432 H 0.82427 0.17876 0.61204 0.0
H1433 H 0.83802 0.17862 0.58765 0.0
H1434 H 0.8066 0.09933 0.58562 0.0
H1435 H 0.79198 0.09946 0.60973 0.0
H1436 H 0.83428 0.15294 0.72109 0.0
H1437 H 0.82147 0.14975 0.74599 0.0
H1438 H 0.87162 0.22824 0.75661 0.0
H1439 H 0.88502 0.23098 0.73193 0.0
H1440 H 0.35663 0.88965 0.08009 0.0
H1441 H 0.30837 0.8893 0.04452 0.0
H1442 H 0.39224 0.91469 0.06699 0.0
H1443 H 0.34392 0.91517 0.0316 0.0
H1444 H 0.40976 0.93814 0.00495 0.0
H1445 H 0.37417 0.91413 0.01827 0.0
H1446 H 0.41761 0.95374 0.05933 0.0
H1447 H 0.45337 0.97686 0.04604 0.0
C1448 C 0.35371 0.89531 0.06956 0.0
C1449 C 0.32974 0.88748 0.06331 0.0
C1450 C 0.37413 0.90975 0.06204 0.0
C1451 C 0.3711 0.91701 0.04815 0.0
C1452 C 0.34705 0.90956 0.04209 0.0
C1453 C 0.32664 0.89485 0.04953 0.0
C1454 C 0.41166 0.94175 0.01682 0.0
C1455 C 0.43443 0.95936 0.02441 0.0
C1456 C 0.39118 0.92807 0.02448 0.0
C1457 C 0.39286 0.9319 0.03994 0.0
C1458 C 0.41562 0.94985 0.04748 0.0
C1459 C 0.43615 0.96328 0.03983 0.0
H1460 H 0.16732 0.49006 0.04581 0.0
H1461 H 0.11306 0.4341 0.07005 0.0
H1462 H 0.13546 0.49672 0.03437 0.0
H1463 H 0.08156 0.44184 0.05905 0.0
H1464 H 0.04186 0.48662 0.04594 0.0
H1465 H 0.07291 0.47937 0.05845 0.0
H1466 H 0.09569 0.46811 0.01646 0.0
H1467 H 0.06464 0.47491 0.00394 0.0
C1468 C 0.14866 0.47911 0.0487 0.0
C1469 C 0.14285 0.46135 0.0588 0.0
C1470 C 0.13046 0.48309 0.0422 0.0
C1471 C 0.1061 0.46975 0.04582 0.0
C1472 C 0.10028 0.45251 0.05618 0.0
C1473 C 0.11841 0.44819 0.06252 0.0
C1474 C 0.05342 0.48246 0.03939 0.0
C1475 C 0.05077 0.48129 0.02395 0.0
C1476 C 0.07109 0.47825 0.04655 0.0
C1477 C 0.08673 0.47333 0.03839 0.0
C1478 C 0.084 0.47208 0.02299 0.0
C1479 C 0.0661 0.47581 0.01584 0.0
H1480 H 0.52245 0.66453 0.05389 0.0
H1481 H 0.57144 0.69657 0.02027 0.0
H1482 H 0.50859 0.62303 0.042 0.0
H1483 H 0.55789 0.65496 0.00852 0.0
H1484 H 0.54725 0.57434 0.0066 0.0
H1485 H 0.56083 0.61632 0.0175 0.0
H1486 H 0.48514 0.59922 0.01562 0.0
H1487 H 0.47153 0.55733 0.0044 0.0
C1488 C 0.53031 0.66262 0.044 0.0
C1489 C 0.548 0.68362 0.03797 0.0
C1490 C 0.52229 0.63897 0.03718 0.0
C1491 C 0.53218 0.63594 0.02437 0.0
C1492 C 0.55007 0.65692 0.01841 0.0
C1493 C 0.55773 0.68061 0.02508 0.0
C1494 C 0.53355 0.57963 0.00843 0.0
C1495 C 0.50837 0.56273 0.00465 0.0
C1496 C 0.54132 0.6036 0.0146 0.0
C1497 C 0.52399 0.61087 0.01736 0.0
C1498 C 0.4988 0.59394 0.01362 0.0
C1499 C 0.49105 0.5701 0.00717 0.0
H1500 H 0.85617 0.33769 0.94166 0.0
H1501 H 0.87146 0.30412 0.97756 0.0
H1502 H 0.8858 0.37887 0.95394 0.0
H1503 H 0.90156 0.34533 0.98968 0.0
H1504 H 0.97304 0.42539 0.99489 0.0
H1505 H 0.94445 0.38418 0.98218 0.0
H1506 H 0.88628 0.40186 0.98024 0.0
H1507 H 0.91457 0.44271 0.99327 0.0
C1508 C 0.86604 0.33919 0.95212 0.0
C1509 C 0.86157 0.31785 0.95872 0.0
C1510 C 0.88287 0.36265 0.95914 0.0
C1511 C 0.8959 0.36514 0.9727 0.0
C1512 C 0.89179 0.34381 0.97918 0.0
C1513 C 0.87455 0.32034 0.97231 0.0
C1514 C 0.95413 0.42039 0.99175 0.0
C1515 C 0.9459 0.43708 0.9951 0.0
C1516 C 0.93783 0.39689 0.98455 0.0
C1517 C 0.91325 0.38998 0.98027 0.0
C1518 C 0.90519 0.40685 0.98339 0.0
C1519 C 0.92131 0.43011 0.99088 0.0
H1520 H 0.65366 0.53962 0.92679 0.0
H1521 H 0.69595 0.56559 0.96939 0.0
H1522 H 0.6168 0.53199 0.93824 0.0
H1523 H 0.65893 0.55623 0.98092 0.0
H1524 H 0.59268 0.55551 0.99762 0.0
H1525 H 0.62946 0.56751 0.98498 0.0
H1526 H 0.58773 0.50417 0.95272 0.0
H1527 H 0.55076 0.49292 0.965 0.0
C1528 C 0.65518 0.54383 0.93858 0.0
C1529 C 0.67787 0.55307 0.94714 0.0
C1530 C 0.63389 0.53907 0.9452 0.0
C1531 C 0.63467 0.54323 0.96058 0.0
C1532 C 0.65749 0.55299 0.96906 0.0
C1533 C 0.67877 0.55801 0.96244 0.0
C1534 C 0.59137 0.54419 0.9878 0.0
C1535 C 0.56881 0.5232 0.98236 0.0
C1536 C 0.61252 0.551 0.98057 0.0
C1537 C 0.61177 0.53678 0.96782 0.0
C1538 C 0.58907 0.51586 0.96234 0.0
C1539 C 0.56784 0.50927 0.96946 0.0
H1540 H 0.42754 0.11301 0.96698 0.0
H1541 H 0.48067 0.12251 0.93637 0.0
H1542 H 0.44014 0.08851 0.98115 0.0
H1543 H 0.49347 0.0982 0.95063 0.0
H1544 H 0.52883 0.08418 0.9932 0.0
H1545 H 0.51491 0.10608 0.9775 0.0
H1546 H 0.43974 0.04653 0.97682 0.0
H1547 H 0.45368 0.02447 0.99234 0.0
C1548 C 0.44181 0.10972 0.96327 0.0
C1549 C 0.45314 0.11958 0.95061 0.0
C1550 C 0.44893 0.09566 0.97131 0.0
C1551 C 0.4678 0.0916 0.96697 0.0
C1552 C 0.47896 0.10123 0.95423 0.0
C1553 C 0.47154 0.11493 0.94604 0.0
C1554 C 0.50936 0.07583 0.98969 0.0
C1555 C 0.49228 0.05276 0.99401 0.0
C1556 C 0.50144 0.08823 0.98064 0.0
C1557 C 0.47628 0.07795 0.976 0.0
C1558 C 0.45922 0.05487 0.98034 0.0
C1559 C 0.46719 0.04228 0.98917 0.0
H1560 H 0.64639 0.09962 0.92367 0.0
H1561 H 0.69205 0.12639 0.96518 0.0
H1562 H 0.61096 0.07334 0.93635 0.0
H1563 H 0.65625 0.10192 0.97797 0.0
H1564 H 0.59217 0.03939 0.99681 0.0
H1565 H 0.62801 0.06278 0.98354 0.0
H1566 H 0.58253 0.07389 0.95115 0.0
H1567 H 0.54662 0.04934 0.964 0.0
C1568 C 0.64897 0.09996 0.9355 0.0
C1569 C 0.67227 0.11533 0.94333 0.0
C1570 C 0.62844 0.08513 0.94284 0.0
C1571 C 0.63049 0.08551 0.95828 0.0
C1572 C 0.65383 0.10076 0.96609 0.0
C1573 C 0.67442 0.11525 0.95873 0.0
C1574 C 0.58989 0.04682 0.98684 0.0
C1575 C 0.56658 0.04249 0.98146 0.0
C1576 C 0.61049 0.0604 0.97924 0.0
C1577 C 0.60838 0.07041 0.96621 0.0
C1578 C 0.58496 0.06613 0.96093 0.0
C1579 C 0.56431 0.05217 0.96838 0.0
H1580 H 0.8421 0.51994 0.95155 0.0
H1581 H 0.90149 0.57401 0.92914 0.0
H1582 H 0.87136 0.51217 0.96547 0.0
H1583 H 0.93034 0.56518 0.9426 0.0
H1584 H 0.96425 0.51701 0.95728 0.0
H1585 H 0.93576 0.52652 0.94384 0.0
H1586 H 0.9099 0.53768 0.98471 0.0
H1587 H 0.9386 0.52853 0.99824 0.0
C1588 C 0.86134 0.53032 0.94963 0.0
C1589 C 0.86932 0.54764 0.93916 0.0
C1590 C 0.87806 0.52573 0.95757 0.0
C1591 C 0.90305 0.53804 0.95506 0.0
C1592 C 0.91109 0.55525 0.94461 0.0
C1593 C 0.89448 0.56016 0.93684 0.0
C1594 C 0.95255 0.52158 0.96341 0.0
C1595 C 0.95369 0.52207 0.97883 0.0
C1596 C 0.93635 0.52711 0.95572 0.0
C1597 C 0.92065 0.53279 0.96326 0.0
C1598 C 0.92172 0.53321 0.97865 0.0
C1599 C 0.93824 0.52812 0.98638 0.0
H1600 H 0.43206 0.32196 0.95446 0.0
H1601 H 0.48677 0.31846 0.98342 0.0
H1602 H 0.44481 0.3629 0.96616 0.0
H1603 H 0.49818 0.35855 0.99588 0.0
H1604 H 0.53235 0.44215 0.00393 0.0
H1605 H 0.51941 0.40086 0.99242 0.0
H1606 H 0.44382 0.3847 0.98766 0.0
H1607 H 0.4571 0.42639 0.99855 0.0
C1608 C 0.44673 0.32983 0.96337 0.0
C1609 C 0.45845 0.31686 0.9679 0.0
C1610 C 0.4538 0.35322 0.97025 0.0
C1611 C 0.47258 0.36414 0.98199 0.0
C1612 C 0.48393 0.35094 0.98673 0.0
C1613 C 0.47707 0.32769 0.97972 0.0
C1614 C 0.51299 0.42969 1.00044 0.0
C1615 C 0.49572 0.43738 0.0021 0.0
C1616 C 0.5055 0.40596 0.99392 0.0
C1617 C 0.48052 0.38932 0.9891 0.0
C1618 C 0.46325 0.39708 0.99098 0.0
C1619 C 0.47081 0.42091 0.99732 0.0
H1620 H 0.10855 0.68147 0.05514 0.0
H1621 H 0.16645 0.68431 0.0305 0.0
H1622 H 0.08029 0.64008 0.04339 0.0
H1623 H 0.13769 0.64393 0.01786 0.0
H1624 H 0.08909 0.56117 0.00857 0.0
H1625 H 0.11698 0.60207 0.02122 0.0
H1626 H 0.05678 0.61697 0.02152 0.0
H1627 H 0.02873 0.57543 0.00954 0.0
C1628 C 0.11529 0.67337 0.04719 0.0
C1629 C 0.13994 0.68637 0.04387 0.0
C1630 C 0.09891 0.64969 0.04025 0.0
C1631 C 0.1066 0.63847 0.02964 0.0
C1632 C 0.13112 0.65166 0.02614 0.0
C1633 C 0.14758 0.67515 0.03323 0.0
C1634 C 0.08188 0.57323 0.01138 0.0
C1635 C 0.05683 0.56524 0.00805 0.0
C1636 C 0.09789 0.59678 0.01854 0.0
C1637 C 0.08929 0.61308 0.02233 0.0
C1638 C 0.06408 0.60491 0.019 0.0
C1639 C 0.048 0.58117 0.01203 0.0
H1640 H 0.3274 0.41098 0.06493 0.0
H1641 H 0.33892 0.48425 0.0612 0.0
H1642 H 0.36321 0.421 0.05126 0.0
H1643 H 0.37474 0.49432 0.04773 0.0
H1644 H 0.45375 0.50997 0.04109 0.0
H1645 H 0.41757 0.49889 0.0543 0.0
H1646 H 0.37533 0.43243 0.02454 0.0
H1647 H 0.41153 0.44363 0.0111 0.0
C1648 C 0.33765 0.42922 0.06123 0.0
C1649 C 0.33041 0.44684 0.0641 0.0
C1650 C 0.35799 0.43488 0.05335 0.0
C1651 C 0.37172 0.45843 0.04846 0.0
C1652 C 0.36456 0.47607 0.05144 0.0
C1653 C 0.34401 0.47028 0.05907 0.0
C1654 C 0.43676 0.49299 0.03733 0.0
C1655 C 0.43549 0.47771 0.02501 0.0
C1656 C 0.41604 0.48672 0.04487 0.0
C1657 C 0.39367 0.46482 0.04043 0.0
C1658 C 0.39241 0.44935 0.02823 0.0
C1659 C 0.41306 0.45585 0.0205 0.0
H1660 H 0.57713 0.91439 0.06407 0.0
H1661 H 0.52068 0.84735 0.03868 0.0
H1662 H 0.5625 0.93818 0.05108 0.0
H1663 H 0.50739 0.87123 0.02499 0.0
H1664 H 0.47276 0.9159 0.01185 0.0
H1665 H 0.48641 0.89324 0.02678 0.0
H1666 H 0.5618 0.95302 0.028 0.0
H1667 H 0.5478 0.97604 0.01361 0.0
C1668 C 0.56164 0.9047 0.05573 0.0
C1669 C 0.55019 0.87892 0.05241 0.0
C1670 C 0.55345 0.91841 0.04812 0.0
C1671 C 0.53376 0.90668 0.03693 0.0
C1672 C 0.52235 0.88091 0.03366 0.0
C1673 C 0.5303 0.86722 0.04137 0.0
C1674 C 0.49223 0.92414 0.01535 0.0
C1675 C 0.50926 0.9476 0.01155 0.0
C1676 C 0.50011 0.91114 0.02385 0.0
C1677 C 0.52528 0.92116 0.02853 0.0
C1678 C 0.54226 0.94482 0.02479 0.0
C1679 C 0.5343 0.95796 0.01644 0.0
H1680 H 0.97752 0.20893 0.37446 0.0
H1681 H 0.02401 0.23372 0.41564 0.0
H1682 H 0.01294 0.23385 0.36158 0.0
H1683 H 0.05918 0.26064 0.40291 0.0
H1684 H 0.12257 0.28411 0.37432 0.0
H1685 H 0.08706 0.26023 0.38765 0.0
H1686 H 0.04138 0.2726 0.3561 0.0
H1687 H 0.07673 0.29516 0.34233 0.0
C1688 C 0.99527 0.2198 0.38083 0.0
C1689 C 0.99779 0.21886 0.39613 0.0
C1690 C 0.01566 0.23457 0.37343 0.0
C1691 C 0.03918 0.24936 0.38111 0.0
C1692 C 0.04155 0.24916 0.3965 0.0
C1693 C 0.02119 0.23399 0.40389 0.0
C1694 C 0.10489 0.28165 0.37023 0.0
C1695 C 0.10238 0.29135 0.35722 0.0
C1696 C 0.0845 0.26812 0.37796 0.0
C1697 C 0.06112 0.26435 0.37304 0.0
C1698 C 0.05883 0.27452 0.36012 0.0
C1699 C 0.07915 0.28761 0.35222 0.0
H1700 H 0.83387 0.82914 0.38591 0.0
H1701 H 0.7779 0.75531 0.39313 0.0
H1702 H 0.80199 0.83668 0.37505 0.0
H1703 H 0.74604 0.76277 0.38215 0.0
H1704 H 0.70431 0.77937 0.34423 0.0
H1705 H 0.73502 0.77122 0.35609 0.0
H1706 H 0.76493 0.83951 0.3843 0.0
H1707 H 0.73406 0.8476 0.3726 0.0
C1708 C 0.81476 0.81453 0.38511 0.0
C1709 C 0.80831 0.79165 0.39033 0.0
C1710 C 0.79655 0.81889 0.37901 0.0
C1711 C 0.77159 0.80031 0.3778 0.0
C1712 C 0.76516 0.77736 0.38291 0.0
C1713 C 0.78333 0.77315 0.38924 0.0
C1714 C 0.71733 0.79256 0.35302 0.0
C1715 C 0.71677 0.81412 0.35748 0.0
C1716 C 0.73482 0.78784 0.35983 0.0
C1717 C 0.75237 0.80479 0.37105 0.0
C1718 C 0.75171 0.82625 0.37559 0.0
C1719 C 0.73394 0.83077 0.36896 0.0
H1720 H 0.24582 0.01518 0.38275 0.0
H1721 H 0.18752 0.01619 0.35592 0.0
H1722 H 0.23125 0.97307 0.37247 0.0
H1723 H 0.17436 0.97495 0.34468 0.0
H1724 H 0.1395 0.8916 0.33836 0.0
H1725 H 0.15385 0.93355 0.34922 0.0
H1726 H 0.22907 0.94852 0.35165 0.0
H1727 H 0.21437 0.9061 0.34156 0.0
C1728 C 0.22996 0.00652 0.37461 0.0
C1729 C 0.21782 0.0192 0.37026 0.0
C1730 C 0.22182 0.98241 0.36851 0.0
C1731 C 0.20157 0.97044 0.3577 0.0
C1732 C 0.18974 0.98331 0.35315 0.0
C1733 C 0.19762 0.00726 0.35942 0.0
C1734 C 0.15909 0.90393 0.34125 0.0
C1735 C 0.17585 0.89571 0.33912 0.0
C1736 C 0.16738 0.92805 0.34738 0.0
C1737 C 0.1927 0.94463 0.35129 0.0
C1738 C 0.20943 0.93627 0.34905 0.0
C1739 C 0.20106 0.91201 0.34315 0.0
H1740 H 0.55518 0.65798 0.28487 0.0
H1741 H 0.49797 0.65723 0.30932 0.0
H1742 H 0.58463 0.69837 0.29729 0.0
H1743 H 0.52793 0.69662 0.32269 0.0
H1744 H 0.58102 0.77924 0.33308 0.0
H1745 H 0.55112 0.73886 0.32044 0.0
H1746 H 0.60803 0.71924 0.31945 0.0
H1747 H 0.63804 0.76016 0.33136 0.0
C1748 C 0.54882 0.66634 0.29291 0.0
C1749 C 0.52403 0.65423 0.29598 0.0
C1750 C 0.5659 0.68943 0.30027 0.0
C1751 C 0.5588 0.7009 0.31108 0.0
C1752 C 0.53409 0.68863 0.31429 0.0
C1753 C 0.51692 0.66573 0.30677 0.0
C1754 C 0.58703 0.7662 0.33017 0.0
C1755 C 0.61177 0.77274 0.33317 0.0
C1756 C 0.56988 0.74297 0.323 0.0
C1757 C 0.57704 0.72561 0.31888 0.0
C1758 C 0.60184 0.73219 0.32215 0.0
C1759 C 0.61904 0.75556 0.3291 0.0
H1760 H 0.33492 0.90389 0.26811 0.0
H1761 H 0.33878 0.84793 0.29172 0.0
H1762 H 0.29762 0.89553 0.27956 0.0
H1763 H 0.30251 0.8408 0.30363 0.0
H1764 H 0.25832 0.86151 0.33498 0.0
H1765 H 0.29436 0.87002 0.32211 0.0
H1766 H 0.25178 0.85605 0.2804 0.0
H1767 H 0.21544 0.84699 0.29322 0.0
C1768 C 0.32784 0.88972 0.27561 0.0
C1769 C 0.34021 0.87683 0.27907 0.0
C1770 C 0.30655 0.88507 0.28222 0.0
C1771 C 0.29745 0.86776 0.2926 0.0
C1772 C 0.30943 0.85456 0.29586 0.0
C1773 C 0.33035 0.85882 0.28907 0.0
C1774 C 0.25665 0.86039 0.32307 0.0
C1775 C 0.23403 0.85352 0.31512 0.0
C1776 C 0.27724 0.86515 0.31572 0.0
C1777 C 0.27577 0.86363 0.30029 0.0
C1778 C 0.25337 0.85743 0.29231 0.0
C1779 C 0.2326 0.85215 0.29966 0.0
H1780 H 0.08899 0.44222 0.30045 0.0
H1781 H 0.14177 0.45316 0.26931 0.0
H1782 H 0.10282 0.41841 0.31436 0.0
H1783 H 0.15577 0.42952 0.28331 0.0
H1784 H 0.11876 0.35596 0.32538 0.0
H1785 H 0.10356 0.37719 0.31003 0.0
H1786 H 0.178 0.4378 0.30987 0.0
H1787 H 0.19319 0.41672 0.3254 0.0
C1788 C 0.10344 0.43938 0.29657 0.0
C1789 C 0.11433 0.44946 0.28384 0.0
C1790 C 0.11126 0.42571 0.30446 0.0
C1791 C 0.13039 0.42225 0.2999 0.0
C1792 C 0.14108 0.43208 0.28708 0.0
C1793 C 0.13297 0.4454 0.27903 0.0
C1794 C 0.13184 0.37383 0.32206 0.0
C1795 C 0.1571 0.38485 0.32662 0.0
C1796 C 0.12315 0.38594 0.31333 0.0
C1797 C 0.13963 0.40907 0.3088 0.0
C1798 C 0.16496 0.41989 0.31316 0.0
C1799 C 0.1736 0.40796 0.32211 0.0
H1800 H 0.34144 0.4204 0.27331 0.0
H1801 H 0.32472 0.47921 0.27852 0.0
H1802 H 0.30558 0.39395 0.28626 0.0
H1803 H 0.28863 0.45265 0.2911 0.0
H1804 H 0.21136 0.38433 0.29658 0.0
H1805 H 0.24677 0.40944 0.28321 0.0
H1806 H 0.29387 0.39817 0.31405 0.0
H1807 H 0.25854 0.37342 0.32771 0.0
C1808 C 0.32993 0.42751 0.27711 0.0
C1809 C 0.33573 0.45176 0.27496 0.0
C1810 C 0.30959 0.4125 0.28456 0.0
C1811 C 0.29443 0.42133 0.28965 0.0
C1812 C 0.29998 0.44541 0.28722 0.0
C1813 C 0.3206 0.46057 0.28008 0.0
C1814 C 0.22926 0.38718 0.30052 0.0
C1815 C 0.23221 0.37696 0.31323 0.0
C1816 C 0.24949 0.40159 0.29288 0.0
C1817 C 0.27296 0.40565 0.29761 0.0
C1818 C 0.2759 0.39515 0.31016 0.0
C1819 C 0.25574 0.38115 0.318 0.0
H1820 H 0.57272 0.92429 0.27417 0.0
H1821 H 0.512 0.85122 0.27827 0.0
H1822 H 0.60109 0.91385 0.28698 0.0
H1823 H 0.54039 0.84073 0.29099 0.0
H1824 H 0.60517 0.82481 0.29647 0.0
H1825 H 0.57715 0.8357 0.28376 0.0
H1826 H 0.60734 0.90277 0.31316 0.0
H1827 H 0.63519 0.89184 0.32601 0.0
C1828 C 0.56549 0.90601 0.27781 0.0
C1829 C 0.54021 0.88856 0.27526 0.0
C1830 C 0.58167 0.90009 0.28519 0.0
C1831 C 0.5729 0.87647 0.28992 0.0
C1832 C 0.54762 0.85901 0.28735 0.0
C1833 C 0.53139 0.86506 0.2802 0.0
C1834 C 0.60589 0.84192 0.30019 0.0
C1835 C 0.62236 0.85746 0.31225 0.0
C1836 C 0.58976 0.84805 0.29297 0.0
C1837 C 0.59009 0.87004 0.29751 0.0
C1838 C 0.60682 0.88578 0.3094 0.0
C1839 C 0.62266 0.87945 0.31678 0.0
H1840 H 0.08994 0.65024 0.28928 0.0
H1841 H 0.14525 0.64644 0.31748 0.0
H1842 H 0.10419 0.69182 0.30044 0.0
H1843 H 0.15812 0.6872 0.32948 0.0
H1844 H 0.19501 0.77106 0.33596 0.0
H1845 H 0.18011 0.72894 0.32518 0.0
H1846 H 0.1055 0.71572 0.3215 0.0
H1847 H 0.12075 0.75827 0.33158 0.0
C1848 C 0.10503 0.65816 0.29793 0.0
C1849 C 0.11655 0.64495 0.30235 0.0
C1850 C 0.11298 0.68195 0.30452 0.0
C1851 C 0.13242 0.69303 0.31586 0.0
C1852 C 0.14341 0.67951 0.3206 0.0
C1853 C 0.13571 0.65586 0.31387 0.0
C1854 C 0.17544 0.75908 0.33283 0.0
C1855 C 0.15902 0.76783 0.33457 0.0
C1856 C 0.16683 0.73486 0.32676 0.0
C1857 C 0.14153 0.71877 0.32249 0.0
C1858 C 0.12512 0.72762 0.3244 0.0
C1859 C 0.13381 0.75195 0.33028 0.0
H1860 H 0.78148 0.00964 0.38707 0.0
H1861 H 0.83901 0.01131 0.36255 0.0
H1862 H 0.75217 0.9695 0.37426 0.0
H1863 H 0.80922 0.97217 0.34884 0.0
H1864 H 0.75606 0.88975 0.33751 0.0
H1865 H 0.78586 0.9297 0.35069 0.0
H1866 H 0.72918 0.94962 0.35175 0.0
H1867 H 0.69927 0.90913 0.33926 0.0
C1868 C 0.78793 0.00152 0.37894 0.0
C1869 C 0.81275 0.01383 0.37594 0.0
C1870 C 0.77095 0.9786 0.37137 0.0
C1871 C 0.77819 0.96749 0.36042 0.0
C1872 C 0.80296 0.9799 0.35732 0.0
C1873 C 0.82002 0.00265 0.36505 0.0
C1874 C 0.75009 0.90277 0.34054 0.0
C1875 C 0.72545 0.89645 0.33738 0.0
C1876 C 0.76717 0.92574 0.34803 0.0
C1877 C 0.76003 0.94304 0.35232 0.0
C1878 C 0.73533 0.93669 0.34891 0.0
C1879 C 0.71819 0.91357 0.34163 0.0
H1880 H 0.97655 0.76866 0.37686 0.0
H1881 H 0.0224 0.78865 0.41803 0.0
H1882 H 0.01218 0.77912 0.36348 0.0
H1883 H 0.05768 0.79729 0.40463 0.0
H1884 H 0.12152 0.83789 0.37715 0.0
H1885 H 0.08568 0.82669 0.39049 0.0
H1886 H 0.04041 0.76729 0.35648 0.0
H1887 H 0.0762 0.77929 0.34281 0.0
C1888 C 0.9942 0.77521 0.38309 0.0
C1889 C 0.9965 0.77801 0.39858 0.0
C1890 C 0.01465 0.78085 0.37538 0.0
C1891 C 0.03798 0.78917 0.38291 0.0
C1892 C 0.04016 0.79138 0.3984 0.0
C1893 C 0.01976 0.78601 0.40612 0.0
C1894 C 0.10391 0.82245 0.37249 0.0
C1895 C 0.10173 0.80955 0.35886 0.0
C1896 C 0.08331 0.81586 0.38023 0.0
C1897 C 0.06 0.79598 0.37466 0.0
C1898 C 0.0579 0.78296 0.36105 0.0
C1899 C 0.07848 0.78976 0.35321 0.0
H1900 H 0.24671 0.22254 0.36568 0.0
H1901 H 0.19942 0.21584 0.39965 0.0
H1902 H 0.23169 0.24595 0.35226 0.0
H1903 H 0.18411 0.23889 0.38611 0.0
H1904 H 0.21681 0.31069 0.34359 0.0
H1905 H 0.23291 0.289 0.35782 0.0
H1906 H 0.15873 0.22892 0.35969 0.0
H1907 H 0.14262 0.25036 0.34518 0.0
C1908 C 0.23315 0.22615 0.37026 0.0
C1909 C 0.22422 0.2175 0.38368 0.0
C1910 C 0.22466 0.23957 0.36264 0.0
C1911 C 0.20675 0.2441 0.36818 0.0
C1912 C 0.19785 0.23549 0.38161 0.0
C1913 C 0.2067 0.2225 0.38937 0.0
C1914 C 0.20399 0.29283 0.34703 0.0
C1915 C 0.17852 0.28205 0.34325 0.0
C1916 C 0.21319 0.28045 0.35512 0.0
C1917 C 0.19702 0.25736 0.3598 0.0
C1918 C 0.17152 0.24678 0.35624 0.0
C1919 C 0.16235 0.25893 0.34789 0.0
H1920 H 0.6728 0.52356 0.72698 0.0
H1921 H 0.65711 0.5832 0.73074 0.0
H1922 H 0.70876 0.54887 0.71396 0.0
H1923 H 0.69283 0.60839 0.71735 0.0
H1924 H 0.73938 0.6261 0.67575 0.0
H1925 H 0.70405 0.60237 0.68965 0.0
H1926 H 0.75096 0.59202 0.72119 0.0
H1927 H 0.78635 0.61613 0.70757 0.0
C1928 C 0.67712 0.54211 0.72501 0.0
C1929 C 0.66233 0.55152 0.72986 0.0
C1930 C 0.69766 0.55656 0.71761 0.0
C1931 C 0.70345 0.58049 0.71464 0.0
C1932 C 0.68863 0.58992 0.71946 0.0
C1933 C 0.66837 0.57564 0.72717 0.0
C1934 C 0.74212 0.61876 0.68565 0.0
C1935 C 0.7656 0.62295 0.69056 0.0
C1936 C 0.72198 0.60535 0.69363 0.0
C1937 C 0.72487 0.59544 0.70646 0.0
C1938 C 0.74828 0.59944 0.7113 0.0
C1939 C 0.7685 0.61327 0.70352 0.0
H1940 H 0.44184 0.09362 0.73366 0.0
H1941 H 0.49639 0.14823 0.7089 0.0
H1942 H 0.41086 0.10218 0.72279 0.0
H1943 H 0.46501 0.15572 0.69759 0.0
H1944 H 0.39425 0.13752 0.66836 0.0
H1945 H 0.42461 0.12892 0.68011 0.0
H1946 H 0.40389 0.14042 0.72276 0.0
H1947 H 0.37355 0.14934 0.71103 0.0
C1948 C 0.44735 0.10754 0.72601 0.0
C1949 C 0.47174 0.12019 0.72218 0.0
C1950 C 0.42952 0.11232 0.71974 0.0
C1951 C 0.43557 0.12952 0.70933 0.0
C1952 C 0.45983 0.14214 0.70547 0.0
C1953 C 0.47775 0.13769 0.7119 0.0
C1954 C 0.39603 0.13809 0.68024 0.0
C1955 C 0.38153 0.14415 0.68878 0.0
C1956 C 0.41352 0.13332 0.68695 0.0
C1957 C 0.41661 0.1341 0.70232 0.0
C1958 C 0.40178 0.13962 0.71088 0.0
C1959 C 0.38453 0.14483 0.70417 0.0
H1960 H 0.85526 0.35238 0.68607 0.0
H1961 H 0.91198 0.3506 0.71407 0.0
H1962 H 0.84262 0.31133 0.67462 0.0
H1963 H 0.89798 0.30877 0.70351 0.0
H1964 H 0.88042 0.2405 0.67389 0.0
H1965 H 0.89585 0.28353 0.68301 0.0
H1966 H 0.82115 0.27008 0.67983 0.0
H1967 H 0.80606 0.22747 0.66998 0.0
C1968 C 0.86518 0.34336 0.68974 0.0
C1969 C 0.88459 0.35487 0.70108 0.0
C1970 C 0.85761 0.31954 0.68334 0.0
C1971 C 0.869 0.30646 0.68825 0.0
C1972 C 0.88884 0.31825 0.69932 0.0
C1973 C 0.89665 0.34219 0.70557 0.0
C1974 C 0.86737 0.24686 0.67512 0.0
C1975 C 0.84208 0.23077 0.67121 0.0
C1976 C 0.87617 0.27148 0.68043 0.0
C1977 C 0.85979 0.28043 0.68217 0.0
C1978 C 0.83441 0.2641 0.67834 0.0
C1979 C 0.82569 0.2396 0.67282 0.0
H1980 H 0.20628 0.99928 0.60607 0.0
H1981 H 0.18386 0.97178 0.64811 0.0
H1982 H 0.23674 0.03946 0.61872 0.0
H1983 H 0.21331 0.01254 0.66052 0.0
H1984 H 0.2451 0.09918 0.67067 0.0
H1985 H 0.2166 0.05765 0.65861 0.0
H1986 H 0.27692 0.05594 0.63941 0.0
H1987 H 0.30571 0.09712 0.65199 0.0
C1988 C 0.2079 0.00159 0.61797 0.0
C1989 C 0.19243 0.98207 0.62601 0.0
C1990 C 0.22527 0.0247 0.62518 0.0
C1991 C 0.22721 0.02898 0.64054 0.0
C1992 C 0.21194 0.00966 0.64863 0.0
C1993 C 0.19494 0.98638 0.64147 0.0
C1994 C 0.2523 0.0899 0.66394 0.0
C1995 C 0.27756 0.10143 0.66213 0.0
C1996 C 0.23602 0.06617 0.65709 0.0
C1997 C 0.24465 0.05378 0.64809 0.0
C1998 C 0.26988 0.06528 0.64624 0.0
C1999 C 0.28627 0.0888 0.65338 0.0
H2000 H 0.00633 0.18557 0.62446 0.0
H2001 H 1.0015 0.2408 0.60059 0.0
H2002 H 0.96958 0.17759 0.63607 0.0
H2003 H 0.96375 0.23162 0.61177 0.0
H2004 H 0.88155 0.18212 0.62517 0.0
H2005 H 0.91823 0.19192 0.61251 0.0
H2006 H 0.96043 0.20583 0.65436 0.0
H2007 H 0.92408 0.19655 0.66705 0.0
C2008 C 0.99758 0.19614 0.6217 0.0
C2009 C 0.00732 0.2142 0.61173 0.0
C2010 C 0.97638 0.19138 0.62831 0.0
C2011 C 0.96399 0.20414 0.6249 0.0
C2012 C 0.97298 0.2215 0.61455 0.0
C2013 C 0.99454 0.22663 0.6081 0.0
C2014 C 0.8987 0.18741 0.63166 0.0
C2015 C 0.89992 0.18853 0.64712 0.0
C2016 C 0.91967 0.19312 0.62441 0.0
C2017 C 0.94207 0.19953 0.63247 0.0
C2018 C 0.94331 0.20079 0.6479 0.0
C2019 C 0.92254 0.19558 0.65515 0.0
H2020 H 0.75381 0.7762 0.63394 0.0
H2021 H 0.80456 0.78501 0.6018 0.0
H2022 H 0.76759 0.75218 0.64769 0.0
H2023 H 0.8186 0.76124 0.61568 0.0
H2024 H 0.85679 0.74878 0.65791 0.0
H2025 H 0.84176 0.77003 0.6424 0.0
H2026 H 0.76714 0.70995 0.64284 0.0
H2027 H 0.78217 0.68851 0.65813 0.0
C2028 C 0.76783 0.77287 0.62981 0.0
C2029 C 0.77815 0.78238 0.61684 0.0
C2030 C 0.77561 0.75909 0.63762 0.0
C2031 C 0.79416 0.75497 0.63272 0.0
C2032 C 0.80435 0.7643 0.61969 0.0
C2033 C 0.79623 0.77771 0.61173 0.0
C2034 C 0.8372 0.74016 0.65466 0.0
C2035 C 0.82058 0.71715 0.65926 0.0
C2036 C 0.82865 0.75219 0.64573 0.0
C2037 C 0.80332 0.74159 0.64148 0.0
C2038 C 0.78673 0.71853 0.64605 0.0
C2039 C 0.79532 0.70629 0.65475 0.0
H2040 H 0.97479 0.76479 0.58844 0.0
H2041 H 0.0198 0.79471 0.63009 0.0
H2042 H 0.93948 0.73833 0.60125 0.0
H2043 H 0.98417 0.76997 0.64291 0.0
H2044 H 0.92181 0.70686 0.66226 0.0
H2045 H 0.95727 0.73048 0.64878 0.0
H2046 H 0.91035 0.73855 0.61582 0.0
H2047 H 0.8748 0.71382 0.62895 0.0
C2048 C 0.97722 0.76579 0.60032 0.0
C2049 C 1.00027 0.78209 0.60817 0.0
C2050 C 0.9568 0.75085 0.60771 0.0
C2051 C 0.95876 0.75199 0.62319 0.0
C2052 C 0.98185 0.76821 0.63101 0.0
C2053 C 0.00232 0.78284 0.62362 0.0
C2054 C 0.91912 0.71368 0.65212 0.0
C2055 C 0.89552 0.70849 0.64668 0.0
C2056 C 0.93949 0.72738 0.6444 0.0
C2057 C 0.93686 0.73663 0.63117 0.0
C2058 C 0.91316 0.73142 0.62579 0.0
C2059 C 0.89273 0.71736 0.63339 0.0
H2060 H 0.23729 0.24709 0.59887 0.0
H2061 H 0.17645 0.19149 0.61964 0.0
H2062 H 0.26531 0.23698 0.61216 0.0
H2063 H 0.20484 0.18235 0.63337 0.0
H2064 H 0.27023 0.19403 0.66605 0.0
H2065 H 0.24257 0.20519 0.65316 0.0
H2066 H 0.27003 0.19809 0.61205 0.0
H2067 H 0.29749 0.18664 0.62484 0.0
C2068 C 0.2298 0.23268 0.60621 0.0
C2069 C 0.20447 0.22004 0.60807 0.0
C2070 C 0.24593 0.22702 0.61387 0.0
C2071 C 0.23721 0.2089 0.62377 0.0
C2072 C 0.21207 0.19659 0.62591 0.0
C2073 C 0.19584 0.20196 0.61807 0.0
C2074 C 0.27044 0.19493 0.65427 0.0
C2075 C 0.28604 0.18945 0.64646 0.0
C2076 C 0.25452 0.20119 0.6469 0.0
C2077 C 0.25421 0.20251 0.63163 0.0
C2078 C 0.27005 0.19737 0.62385 0.0
C2079 C 0.28565 0.19071 0.63117 0.0
H2080 H 0.81215 0.98161 0.64788 0.0
H2081 H 0.75442 0.98365 0.62108 0.0
H2082 H 0.82537 0.02264 0.65951 0.0
H2083 H 0.76904 0.02556 0.63179 0.0
H2084 H 0.78655 0.09242 0.66304 0.0
H2085 H 0.7714 0.04998 0.65277 0.0
H2086 H 0.84633 0.06412 0.65503 0.0
H2087 H 0.86112 0.10609 0.66604 0.0
C2088 C 0.80217 0.99071 0.64448 0.0
C2089 C 0.78216 0.97916 0.6335 0.0
C2090 C 0.81009 0.01454 0.65098 0.0
C2091 C 0.79848 0.02766 0.64653 0.0
C2092 C 0.77831 0.01602 0.63565 0.0
C2093 C 0.77014 0.99203 0.62932 0.0
C2094 C 0.7997 0.08633 0.66136 0.0
C2095 C 0.82496 0.1024 0.66537 0.0
C2096 C 0.79107 0.06206 0.65538 0.0
C2097 C 0.80759 0.05346 0.65305 0.0
C2098 C 0.83296 0.06981 0.65694 0.0
C2099 C 0.84151 0.09395 0.66315 0.0
H2100 H 0.44172 0.34612 0.72251 0.0
H2101 H 0.49982 0.34686 0.699 0.0
H2102 H 0.41299 0.30493 0.71071 0.0
H2103 H 0.47064 0.30684 0.6862 0.0
H2104 H 0.42023 0.22495 0.67564 0.0
H2105 H 0.44855 0.26513 0.68896 0.0
H2106 H 0.3898 0.28225 0.68886 0.0
H2107 H 0.36124 0.24128 0.67632 0.0
C2108 C 0.44843 0.3376 0.71481 0.0
C2109 C 0.47326 0.34999 0.7118 0.0
C2110 C 0.43177 0.31404 0.70782 0.0
C2111 C 0.43935 0.30236 0.69745 0.0
C2112 C 0.46409 0.31491 0.6943 0.0
C2113 C 0.48083 0.33822 0.70148 0.0
C2114 C 0.41343 0.23734 0.67853 0.0
C2115 C 0.38865 0.23015 0.67492 0.0
C2116 C 0.42969 0.2605 0.68607 0.0
C2117 C 0.42166 0.27725 0.68991 0.0
C2118 C 0.39668 0.26984 0.68632 0.0
C2119 C 0.38031 0.24643 0.67902 0.0
H2120 H 0.66147 0.14167 0.71905 0.0
H2121 H 0.67168 0.0875 0.74078 0.0
H2122 H 0.6961 0.15021 0.70501 0.0
H2123 H 0.70725 0.09723 0.72717 0.0
H2124 H 0.78657 0.14797 0.71225 0.0
H2125 H 0.75066 0.13658 0.72584 0.0
H2126 H 0.70636 0.1255 0.68526 0.0
H2127 H 0.7422 0.13651 0.67156 0.0
C2128 C 0.67085 0.13136 0.72078 0.0
C2129 C 0.66343 0.11366 0.73104 0.0
C2130 C 0.69083 0.13642 0.71276 0.0
C2131 C 0.70426 0.12431 0.71496 0.0
C2132 C 0.69725 0.10693 0.72533 0.0
C2133 C 0.67695 0.1015 0.73319 0.0
C2134 C 0.76915 0.14302 0.7062 0.0
C2135 C 0.76723 0.14319 0.69081 0.0
C2136 C 0.74859 0.13636 0.71399 0.0
C2137 C 0.72577 0.13019 0.7066 0.0
C2138 C 0.72379 0.1303 0.69123 0.0
C2139 C 0.74426 0.1365 0.68339 0.0
H2140 H 0.85592 0.54505 0.73471 0.0
H2141 H 0.90863 0.55646 0.70344 0.0
H2142 H 0.84194 0.56896 0.72098 0.0
H2143 H 0.89481 0.58053 0.68979 0.0
H2144 H 0.80452 0.58234 0.67906 0.0
H2145 H 0.81969 0.56111 0.69447 0.0
H2146 H 0.89414 0.62177 0.69444 0.0
H2147 H 0.87895 0.64315 0.67921 0.0
C2148 C 0.8647 0.55296 0.72501 0.0
C2149 C 0.88332 0.54896 0.7201 0.0
C2150 C 0.8566 0.56644 0.71712 0.0
C2151 C 0.86729 0.57649 0.70434 0.0
C2152 C 0.88638 0.57307 0.69966 0.0
C2153 C 0.89418 0.55924 0.7074 0.0
C2154 C 0.82411 0.5911 0.68238 0.0
C2155 C 0.84062 0.61425 0.67791 0.0
C2156 C 0.83274 0.57907 0.69125 0.0
C2157 C 0.85806 0.58984 0.6956 0.0
C2158 C 0.87455 0.61305 0.69116 0.0
C2159 C 0.86587 0.62526 0.68249 0.0
H2160 H 0.44059 0.96566 0.16946 0.0
H2161 H 0.47381 0.91985 0.16524 0.0
H2162 H 0.45278 0.97965 0.1453 0.0
H2163 H 0.48639 0.93427 0.14141 0.0
H2164 H 0.53236 0.99072 0.11009 0.0
H2165 H 0.517 0.97519 0.13326 0.0
H2166 H 0.44548 0.9637 0.11804 0.0
H2167 H 0.46059 0.97861 0.09455 0.0
C2168 C 0.45021 0.95835 0.16334 0.0
C2169 C 0.45651 0.94188 0.16941 0.0
C2170 C 0.45724 0.96642 0.14953 0.0
C2171 C 0.47083 0.9583 0.14156 0.0
C2172 C 0.47638 0.94125 0.14742 0.0
C2173 C 0.46921 0.93305 0.16111 0.0
C2174 C 0.51325 0.98459 0.11154 0.0
C2175 C 0.4977 0.98577 0.10034 0.0
C2176 C 0.50448 0.97576 0.12486 0.0
C2177 C 0.48 0.96809 0.12743 0.0
C2178 C 0.46449 0.96966 0.1164 0.0
C2179 C 0.47321 0.97828 0.10297 0.0
H2180 H 0.03785 0.49475 0.17764 0.0
H2181 H 0.08423 0.57354 0.17627 0.0
H2182 H 0.02784 0.48964 0.15104 0.0
H2183 H 0.0732 0.56865 0.14994 0.0
H2184 H 0.06576 0.55157 0.10097 0.0
H2185 H 0.07862 0.55331 0.12688 0.0
H2186 H 0.00406 0.49822 0.13342 0.0
H2187 H 0.99146 0.49612 0.10743 0.0
C2188 C 0.04601 0.51096 0.17166 0.0
C2189 C 0.06173 0.53457 0.1791 0.0
C2190 C 0.04004 0.50807 0.15644 0.0
C2191 C 0.04964 0.52874 0.14833 0.0
C2192 C 0.0657 0.55227 0.15577 0.0
C2193 C 0.07174 0.55513 0.17093 0.0
C2194 C 0.05219 0.53979 0.10797 0.0
C2195 C 0.0276 0.52382 0.10223 0.0
C2196 C 0.05951 0.54081 0.12281 0.0
C2197 C 0.04234 0.52606 0.13229 0.0
C2198 C 0.01786 0.50961 0.12642 0.0
C2199 C 0.01059 0.50844 0.11154 0.0
H2200 H 0.4592 0.49733 0.17516 0.0
H2201 H 0.48154 0.57377 0.17087 0.0
H2202 H 0.46582 0.49204 0.14943 0.0
H2203 H 0.48925 0.56888 0.14556 0.0
H2204 H 0.48383 0.54999 0.09701 0.0
H2205 H 0.47046 0.55057 0.12144 0.0
H2206 H 0.4997 0.50434 0.13454 0.0
H2207 H 0.51257 0.50338 0.10996 0.0
C2208 C 0.46535 0.51294 0.16871 0.0
C2209 C 0.47005 0.53603 0.17513 0.0
C2210 C 0.46941 0.51 0.15401 0.0
C2211 C 0.4782 0.53006 0.14539 0.0
C2212 C 0.48222 0.55292 0.15175 0.0
C2213 C 0.47812 0.55583 0.16637 0.0
C2214 C 0.48735 0.53993 0.10511 0.0
C2215 C 0.49944 0.52682 0.1016 0.0
C2216 C 0.47972 0.54027 0.11913 0.0
C2217 C 0.48418 0.52769 0.13005 0.0
C2218 C 0.49566 0.51399 0.12638 0.0
C2219 C 0.50314 0.5135 0.1123 0.0
H2220 H 0.96144 0.5034 0.82606 0.0
H2221 H 0.91448 0.42452 0.82678 0.0
H2222 H 0.97282 0.50752 0.85254 0.0
H2223 H 0.92618 0.42864 0.85306 0.0
H2224 H 0.97953 0.44228 0.89348 0.0
H2225 H 0.96587 0.43972 0.86772 0.0
H2226 H 0.95463 0.50151 0.87724 0.0
H2227 H 0.96778 0.50379 0.90324 0.0
C2228 C 0.95331 0.48701 0.83189 0.0
C2229 C 0.93732 0.46358 0.82428 0.0
C2230 C 0.95985 0.48938 0.84702 0.0
C2231 C 0.95062 0.46835 0.85478 0.0
C2232 C 0.93397 0.4451 0.84728 0.0
C2233 C 0.92733 0.44275 0.83223 0.0
C2234 C 0.97381 0.45512 0.89018 0.0
C2235 C 0.97454 0.47309 0.90049 0.0
C2236 C 0.96606 0.45369 0.87539 0.0
C2237 C 0.95903 0.47031 0.87051 0.0
C2238 C 0.9601 0.48856 0.88071 0.0
C2239 C 0.96768 0.48988 0.89557 0.0
H2240 H 0.48771 0.46848 0.82494 0.0
H2241 H 0.56238 0.48664 0.83791 0.0
H2242 H 0.48108 0.47282 0.8507 0.0
H2243 H 0.55582 0.4912 0.86381 0.0
H2244 H 0.51891 0.4592 0.90658 0.0
H2245 H 0.52991 0.46138 0.8813 0.0
H2246 H 0.49434 0.50375 0.87264 0.0
H2247 H 0.48304 0.50128 0.89786 0.0
C2248 C 0.50278 0.47366 0.83332 0.0
C2249 C 0.52551 0.47708 0.82944 0.0
C2250 C 0.49905 0.47632 0.84807 0.0
C2251 C 0.5179 0.48226 0.85929 0.0
C2252 C 0.54089 0.48641 0.8554 0.0
C2253 C 0.54472 0.48401 0.8406 0.0
C2254 C 0.51349 0.46902 0.89928 0.0
C2255 C 0.49998 0.47993 0.90418 0.0
C2256 C 0.52002 0.47049 0.88485 0.0
C2257 C 0.51297 0.48271 0.87497 0.0
C2258 C 0.49989 0.49406 0.87997 0.0
C2259 C 0.49357 0.49279 0.89443 0.0
H2260 H 0.49023 0.03085 0.82793 0.0
H2261 H 0.56764 0.0767 0.84284 0.0
H2262 H 0.48209 0.01601 0.852 0.0
H2263 H 0.55964 0.06084 0.86695 0.0
H2264 H 0.52921 0.05006 0.91271 0.0
H2265 H 0.54033 0.06391 0.8885 0.0
H2266 H 0.4874 0.99063 0.8682 0.0
H2267 H 0.47527 0.97725 0.89222 0.0
C2268 C 0.50558 0.03769 0.83636 0.0
C2269 C 0.52955 0.05522 0.83349 0.0
C2270 C 0.50095 0.0289 0.85014 0.0
C2271 C 0.52019 0.03719 0.86148 0.0
C2272 C 0.54433 0.05427 0.85853 0.0
C2273 C 0.54897 0.06315 0.84467 0.0
C2274 C 0.5198 0.03695 0.90307 0.0
C2275 C 0.50118 0.01256 0.90448 0.0
C2276 C 0.52645 0.04481 0.88918 0.0
C2277 C 0.51469 0.02845 0.87635 0.0
C2278 C 0.4966 0.00388 0.8778 0.0
C2279 C 0.48985 0.99609 0.89165 0.0
H2280 H 0.16438 0.30305 0.51001 0.0
H2281 H 0.0883 0.26026 0.49165 0.0
H2282 H 0.1766 0.31725 0.4862 0.0
H2283 H 0.10041 0.27578 0.46787 0.0
H2284 H 0.135 0.28572 0.42391 0.0
H2285 H 0.12103 0.27182 0.44766 0.0
H2286 H 0.17587 0.3435 0.46914 0.0
H2287 H 0.19088 0.35678 0.4456 0.0
C2288 C 0.1502 0.29668 0.50089 0.0
C2289 C 0.12535 0.28024 0.50277 0.0
C2290 C 0.15719 0.30518 0.48723 0.0
C2291 C 0.13952 0.29775 0.47503 0.0
C2292 C 0.11458 0.28167 0.47695 0.0
C2293 C 0.10758 0.27301 0.49065 0.0
C2294 C 0.14428 0.29843 0.43371 0.0
C2295 C 0.16424 0.32235 0.43277 0.0
C2296 C 0.13599 0.29057 0.44734 0.0
C2297 C 0.14735 0.30646 0.46039 0.0
C2298 C 0.16691 0.33056 0.45939 0.0
C2299 C 0.17532 0.33833 0.44581 0.0
H2300 H 0.68283 0.86578 0.51412 0.0
H2301 H 0.74267 0.85224 0.50728 0.0
H2302 H 0.67321 0.86206 0.48754 0.0
H2303 H 0.73285 0.84821 0.48064 0.0
H2304 H 0.7284 0.88027 0.43647 0.0
H2305 H 0.73616 0.87826 0.46268 0.0
H2306 H 0.658 0.83139 0.46515 0.0
H2307 H 0.65021 0.83367 0.43897 0.0
C2308 C 0.69379 0.86182 0.50691 0.0
C2309 C 0.71358 0.85945 0.51274 0.0
C2310 C 0.68816 0.85948 0.49172 0.0
C2311 C 0.70234 0.85493 0.48203 0.0
C2312 C 0.72175 0.85192 0.48786 0.0
C2313 C 0.72723 0.85402 0.50308 0.0
C2314 C 0.7129 0.86951 0.44262 0.0
C2315 C 0.6887 0.85723 0.43572 0.0
C2316 C 0.71735 0.86816 0.45757 0.0
C2317 C 0.69767 0.85468 0.46594 0.0
C2318 C 0.6735 0.84204 0.45898 0.0
C2319 C 0.66907 0.8432 0.44399 0.0
H2320 H 0.10969 0.84757 0.50174 0.0
H2321 H 0.1784 0.85232 0.51657 0.0
H2322 H 0.11843 0.84511 0.4762 0.0
H2323 H 0.18682 0.84885 0.49113 0.0
H2324 H 0.21056 0.87705 0.44707 0.0
H2325 H 0.19919 0.87463 0.47203 0.0
H2326 H 0.12327 0.82277 0.45598 0.0
H2327 H 0.13445 0.82651 0.43079 0.0
C2328 C 0.12637 0.84745 0.49948 0.0
C2329 C 0.14349 0.85035 0.51109 0.0
C2330 C 0.1314 0.84601 0.48486 0.0
C2331 C 0.15355 0.84717 0.48155 0.0
C2332 C 0.16993 0.84861 0.49323 0.0
C2333 C 0.16504 0.85039 0.50781 0.0
C2334 C 0.19136 0.86537 0.44879 0.0
C2335 C 0.17343 0.85214 0.43683 0.0
C2336 C 0.18487 0.86361 0.4632 0.0
C2337 C 0.16029 0.84834 0.46612 0.0
C2338 C 0.14234 0.83489 0.45418 0.0
C2339 C 0.14882 0.8368 0.43971 0.0
H2340 H 0.64939 0.80064 0.15616 0.0
H2341 H 0.58857 0.81255 0.16314 0.0
H2342 H 0.65962 0.80516 0.18273 0.0
H2343 H 0.59893 0.81728 0.18979 0.0
H2344 H 0.60567 0.78635 0.23418 0.0
H2345 H 0.59699 0.78768 0.20798 0.0
H2346 H 0.6746 0.83663 0.20486 0.0
H2347 H 0.6833 0.83509 0.23104 0.0
C2348 C 0.63835 0.80442 0.1634 0.0
C2349 C 0.61812 0.80611 0.15763 0.0
C2350 C 0.64431 0.8072 0.17859 0.0
C2351 C 0.63002 0.8115 0.18831 0.0
C2352 C 0.61014 0.81379 0.18253 0.0
C2353 C 0.60434 0.81128 0.16732 0.0
C2354 C 0.62083 0.79744 0.22789 0.0
C2355 C 0.64516 0.81051 0.23461 0.0
C2356 C 0.61586 0.79839 0.21294 0.0
C2357 C 0.63513 0.81224 0.2044 0.0
C2358 C 0.65941 0.82569 0.21118 0.0
C2359 C 0.66436 0.82494 0.22616 0.0
H2360 H 0.15777 0.80188 0.15864 0.0
H2361 H 0.23074 0.81584 0.17245 0.0
H2362 H 0.15062 0.80648 0.18428 0.0
H2363 H 0.22361 0.82054 0.19824 0.0
H2364 H 0.18357 0.78938 0.24048 0.0
H2365 H 0.19541 0.79098 0.21539 0.0
H2366 H 0.16519 0.83793 0.20628 0.0
H2367 H 0.15316 0.83614 0.23132 0.0
C2368 C 0.17235 0.80616 0.16719 0.0
C2369 C 0.19475 0.80837 0.16358 0.0
C2370 C 0.16833 0.80897 0.18186 0.0
C2371 C 0.18652 0.8138 0.19328 0.0
C2372 C 0.2092 0.81663 0.18966 0.0
C2373 C 0.21335 0.81414 0.17494 0.0
C2374 C 0.17954 0.80009 0.23312 0.0
C2375 C 0.16731 0.81251 0.23784 0.0
C2376 C 0.18653 0.80122 0.21881 0.0
C2377 C 0.1812 0.81456 0.20886 0.0
C2378 C 0.16941 0.82738 0.21368 0.0
C2379 C 0.16266 0.82648 0.22803 0.0
H2380 H 0.20227 0.42737 0.17903 0.0
H2381 H 0.20465 0.36254 0.16286 0.0
H2382 H 0.19381 0.41193 0.20314 0.0
H2383 H 0.1962 0.34701 0.18708 0.0
H2384 H 0.14407 0.31551 0.22464 0.0
H2385 H 0.15873 0.33154 0.20141 0.0
H2386 H 0.21268 0.40179 0.22474 0.0
H2387 H 0.19861 0.38562 0.24809 0.0
C2388 C 0.20123 0.40992 0.18071 0.0
C2389 C 0.20398 0.39608 0.16907 0.0
C2390 C 0.19655 0.40116 0.19453 0.0
C2391 C 0.19423 0.37821 0.19698 0.0
C2392 C 0.19769 0.36467 0.18546 0.0
C2393 C 0.20272 0.37362 0.17166 0.0
C2394 C 0.15939 0.33422 0.2249 0.0
C2395 C 0.17004 0.34926 0.23831 0.0
C2396 C 0.16777 0.3434 0.21155 0.0
C2397 C 0.18684 0.36792 0.21125 0.0
C2398 C 0.19777 0.38289 0.22462 0.0
C2399 C 0.18958 0.37363 0.238 0.0
H2400 H 0.79149 0.57565 0.82736 0.0
H2401 H 0.78471 0.63981 0.83826 0.0
H2402 H 0.80319 0.58912 0.8032 0.0
H2403 H 0.79717 0.65384 0.81423 0.0
H2404 H 0.8017 0.66256 0.76518 0.0
H2405 H 0.78622 0.64686 0.7884 0.0
H2406 H 0.8371 0.61954 0.79243 0.0
H2407 H 0.85196 0.63464 0.76906 0.0
C2408 C 0.79257 0.5927 0.82457 0.0
C2409 C 0.7873 0.60674 0.83472 0.0
C2410 C 0.79942 0.60052 0.81074 0.0
C2411 C 0.80144 0.62276 0.80675 0.0
C2412 C 0.79555 0.63649 0.81681 0.0
C2413 C 0.78844 0.6285 0.83061 0.0
C2414 C 0.80955 0.65321 0.77107 0.0
C2415 C 0.82802 0.6498 0.76529 0.0
C2416 C 0.80074 0.64427 0.78441 0.0
C2417 C 0.81034 0.63187 0.79235 0.0
C2418 C 0.82886 0.62852 0.78652 0.0
C2419 C 0.83748 0.63725 0.77313 0.0
H2420 H 0.37614 0.16503 0.84482 0.0
H2421 H 0.42733 0.24207 0.84085 0.0
H2422 H 0.36374 0.15836 0.81842 0.0
H2423 H 0.41429 0.23564 0.81462 0.0
H2424 H 0.40051 0.21273 0.76576 0.0
H2425 H 0.41543 0.2155 0.79139 0.0
H2426 H 0.34048 0.1698 0.80165 0.0
H2427 H 0.32566 0.16625 0.77594 0.0
C2428 C 0.38488 0.18049 0.83829 0.0
C2429 C 0.40262 0.20411 0.84494 0.0
C2430 C 0.3776 0.17672 0.8232 0.0
C2431 C 0.38796 0.19649 0.81442 0.0
C2432 C 0.40612 0.21996 0.82103 0.0
C2433 C 0.41337 0.22372 0.8361 0.0
C2434 C 0.38726 0.20292 0.77344 0.0
C2435 C 0.36189 0.18939 0.76883 0.0
C2436 C 0.39579 0.20472 0.78815 0.0
C2437 C 0.37914 0.19301 0.79858 0.0
C2438 C 0.35382 0.17889 0.79388 0.0
C2439 C 0.3453 0.1771 0.77918 0.0
H2440 H 0.84381 0.19096 0.84862 0.0
H2441 H 0.77394 0.1832 0.8333 0.0
H2442 H 0.85222 0.1865 0.82329 0.0
H2443 H 0.78267 0.17981 0.8078 0.0
H2444 H 0.79968 0.1602 0.76281 0.0
H2445 H 0.78838 0.15732 0.78799 0.0
H2446 H 0.86381 0.21132 0.8038 0.0
H2447 H 0.87532 0.21291 0.77891 0.0
C2448 C 0.8302 0.18815 0.83976 0.0
C2449 C 0.80832 0.18756 0.84286 0.0
C2450 C 0.83507 0.18581 0.82524 0.0
C2451 C 0.81838 0.1833 0.81342 0.0
C2452 C 0.79591 0.18157 0.81657 0.0
C2453 C 0.79088 0.18354 0.83117 0.0
C2454 C 0.81392 0.17115 0.77169 0.0
C2455 C 0.83844 0.18685 0.76876 0.0
C2456 C 0.80737 0.16972 0.78614 0.0
C2457 C 0.82515 0.18401 0.79801 0.0
C2458 C 0.84963 0.19965 0.79503 0.0
C2459 C 0.85619 0.20092 0.78065 0.0
H2460 H 0.26688 0.15785 0.4937 0.0
H2461 H 0.32241 0.13758 0.48766 0.0
H2462 H 0.27773 0.16426 0.52029 0.0
H2463 H 0.33285 0.14341 0.51424 0.0
H2464 H 0.35877 0.17431 0.56202 0.0
H2465 H 0.35085 0.17527 0.53568 0.0
H2466 H 0.2725 0.13628 0.5395 0.0
H2467 H 0.28044 0.1358 0.56585 0.0
C2468 C 0.2816 0.15506 0.49804 0.0
C2469 C 0.29371 0.14708 0.48862 0.0
C2470 C 0.28765 0.15851 0.51326 0.0
C2471 C 0.30605 0.15422 0.51934 0.0
C2472 C 0.31873 0.14706 0.50987 0.0
C2473 C 0.31258 0.14346 0.49468 0.0
C2474 C 0.33988 0.16633 0.55726 0.0
C2475 C 0.32021 0.15487 0.56596 0.0
C2476 C 0.33535 0.16669 0.54218 0.0
C2477 C 0.31106 0.15576 0.53552 0.0
C2478 C 0.29143 0.14504 0.54432 0.0
C2479 C 0.29595 0.14454 0.55938 0.0
H2480 H 0.87547 0.16913 0.49711 0.0
H2481 H 0.85443 0.09299 0.5014 0.0
H2482 H 0.86636 0.17344 0.52246 0.0
H2483 H 0.84497 0.0972 0.52645 0.0
H2484 H 0.79835 0.10434 0.56099 0.0
H2485 H 0.81164 0.10285 0.5367 0.0
H2486 H 0.87931 0.17173 0.54935 0.0
H2487 H 0.86637 0.17298 0.57396 0.0
C2488 C 0.86925 0.15345 0.5035 0.0
C2489 C 0.86528 0.13059 0.49713 0.0
C2490 C 0.86399 0.15591 0.51799 0.0
C2491 C 0.85456 0.13553 0.52634 0.0
C2492 C 0.85168 0.11307 0.52018 0.0
C2493 C 0.85707 0.11066 0.5058 0.0
C2494 C 0.81623 0.11903 0.55873 0.0
C2495 C 0.83136 0.13864 0.56956 0.0
C2496 C 0.8238 0.11821 0.54476 0.0
C2497 C 0.8466 0.13708 0.54116 0.0
C2498 C 0.86158 0.157 0.5518 0.0
C2499 C 0.8541 0.15772 0.56588 0.0
H2500 H 0.86269 0.75743 0.51018 0.0
H2501 H 0.86558 0.69195 0.49647 0.0
H2502 H 0.85438 0.74412 0.5347 0.0
H2503 H 0.85621 0.67787 0.5209 0.0
H2504 H 0.85528 0.66736 0.56991 0.0
H2505 H 0.86906 0.68332 0.54643 0.0
H2506 H 0.82125 0.7145 0.54611 0.0
H2507 H 0.80821 0.69922 0.56969 0.0
C2508 C 0.86156 0.74015 0.51247 0.0
C2509 C 0.86459 0.72562 0.50143 0.0
C2510 C 0.8566 0.73238 0.52649 0.0
C2511 C 0.85415 0.70966 0.52978 0.0
C2512 C 0.85813 0.69555 0.51885 0.0
C2513 C 0.86345 0.70355 0.50483 0.0
C2514 C 0.84777 0.67766 0.56478 0.0
C2515 C 0.83073 0.68212 0.57166 0.0
C2516 C 0.85561 0.68675 0.5513 0.0
C2517 C 0.8464 0.70034 0.54432 0.0
C2518 C 0.82926 0.70466 0.55125 0.0
C2519 C 0.82165 0.69581 0.56477 0.0
loop_
_geom_bond_atom_site_label_1
_geom_bond_atom_site_label_2
_geom_bond_distance
_geom_bond_site_symmetry_2
_ccdc_geom_bond_type
C0 C1 1.391 . S
C0 C4 1.391 . S
C0 H42 0.948 . S
C1 C0 1.391 . S
C1 C2 1.391 . S
C2 C1 1.391 . S
C2 H58 0.947 . S
C2 C59 1.392 . S
C3 C4 1.391 . S
C3 C7 1.397 . S
C3 C59 1.419 . S
C4 C0 1.391 . S
C4 C3 1.391 . S
C4 C5 1.399 . S
C5 C4 1.399 . S
C5 C8 1.396 . S
C5 C17 1.453 . S
C5 C18 1.684 . S
H6 C30 0.948 . S
C7 C3 1.397 . S
C7 C8 1.394 . S
C7 C26 1.723 . S
C8 C5 1.396 . S
C8 C7 1.394 . S
C8 C38 1.723 . S
H9 C32 0.947 . S
H10 C33 0.948 . S
H11 C39 0.982 . S
H12 C40 0.979 . S
H13 C40 0.980 . S
H14 C40 0.983 . S
H15 C39 0.979 . S
H16 C39 0.977 . S
C17 C5 1.453 . S
C17 H46 0.982 . S
C17 H47 0.979 . S
C17 H48 0.977 . S
C18 C5 1.684 . S
C18 H43 0.979 . S
C18 H44 0.980 . S
C18 H45 0.983 . S
C19 C20 1.391 . S
C19 C24 1.391 . S
C19 H49 0.948 . S
C20 C19 1.391 . S
C20 C21 1.391 . S
C21 C20 1.391 . S
C21 C22 1.392 . S
C21 H50 0.947 . S
C22 C21 1.392 . S
C22 C23 1.419 . S
C22 H51 0.948 . S
C23 C22 1.419 . S
C23 C24 1.391 . S
C23 C27 1.397 . S
C24 C19 1.391 . S
C24 C23 1.391 . S
C24 C25 1.399 . S
C25 C24 1.399 . S
C25 C26 1.396 . S
C25 C28 1.453 . S
C25 C29 1.684 . S
C26 C7 1.723 . S
C26 C25 1.396 . S
C26 C27 1.394 . S
C27 C23 1.397 . S
C27 C26 1.394 . S
C27 C37 1.723 . S
C28 C25 1.453 . S
C28 H52 0.982 . S
C28 H53 0.979 . S
C28 H54 0.977 . S
C29 C25 1.684 . S
C29 H55 0.979 . S
C29 H56 0.980 . S
C29 H57 0.983 . S
C30 H6 0.948 . S
C30 C31 1.391 . S
C30 C35 1.391 . S
C31 C30 1.391 . S
C31 C32 1.391 . S
C32 H9 0.947 . S
C32 C31 1.391 . S
C32 C33 1.392 . S
C33 H10 0.948 . S
C33 C32 1.392 . S
C33 C34 1.419 . S
C34 C33 1.419 . S
C34 C35 1.391 . S
C34 C38 1.397 . S
C35 C30 1.391 . S
C35 C34 1.391 . S
C35 C36 1.399 . S
C36 C35 1.399 . S
C36 C37 1.396 . S
C36 C39 1.453 . S
C36 C40 1.684 . S
C37 C27 1.723 . S
C37 C36 1.396 . S
C37 C38 1.394 . S
C38 C8 1.723 . S
C38 C34 1.397 . S
C38 C37 1.394 . S
C39 H11 0.982 . S
C39 H15 0.979 . S
C39 H16 0.977 . S
C39 C36 1.453 . S
C40 H12 0.979 . S
C40 H13 0.980 . S
C40 H14 0.983 . S
C40 C36 1.684 . S
H41 C59 0.948 . S
H42 C0 0.948 . S
H43 C18 0.979 . S
H44 C18 0.980 . S
H45 C18 0.983 . S
H46 C17 0.982 . S
H47 C17 0.979 . S
H48 C17 0.977 . S
H49 C19 0.948 . S
H50 C21 0.947 . S
H51 C22 0.948 . S
H52 C28 0.982 . S
H53 C28 0.979 . S
H54 C28 0.977 . S
H55 C29 0.979 . S
H56 C29 0.980 . S
H57 C29 0.983 . S
H58 C2 0.947 . S
C59 C2 1.392 . S
C59 C3 1.419 . S
C59 H41 0.948 . S
C60 C61 1.391 . S
C60 C64 1.391 . S
C60 H102 0.948 . S
C61 C60 1.391 . S
C61 C62 1.391 . S
C62 C61 1.391 . S
C62 H118 0.947 . S
C62 C119 1.392 . S
C63 C64 1.391 . S
C63 C67 1.397 . S
C63 C119 1.419 . S
C64 C60 1.391 . S
C64 C63 1.391 . S
C64 C65 1.399 . S
C65 C64 1.399 . S
C65 C68 1.396 . S
C65 C77 1.453 . S
C65 C78 1.684 . S
H66 C90 0.948 . S
C67 C63 1.397 . S
C67 C68 1.394 . S
C67 C86 1.723 . S
C68 C65 1.396 . S
C68 C67 1.394 . S
C68 C98 1.723 . S
H69 C92 0.947 . S
H70 C93 0.948 . S
H71 C99 0.982 . S
H72 C100 0.979 . S
H73 C100 0.980 . S
H74 C100 0.983 . S
H75 C99 0.979 . S
H76 C99 0.977 . S
C77 C65 1.453 . S
C77 H106 0.982 . S
C77 H107 0.979 . S
C77 H108 0.977 . S
C78 C65 1.684 . S
C78 H103 0.979 . S
C78 H104 0.980 . S
C78 H105 0.983 . S
C79 C80 1.391 . S
C79 C84 1.391 . S
C79 H109 0.948 . S
C80 C79 1.391 . S
C80 C81 1.391 . S
C81 C80 1.391 . S
C81 C82 1.392 . S
C81 H110 0.947 . S
C82 C81 1.392 . S
C82 C83 1.419 . S
C82 H111 0.948 . S
C83 C82 1.419 . S
C83 C84 1.391 . S
C83 C87 1.397 . S
C84 C79 1.391 . S
C84 C83 1.391 . S
C84 C85 1.399 . S
C85 C84 1.399 . S
C85 C86 1.396 . S
C85 C88 1.453 . S
C85 C89 1.684 . S
C86 C67 1.723 . S
C86 C85 1.396 . S
C86 C87 1.394 . S
C87 C83 1.397 . S
C87 C86 1.394 . S
C87 C97 1.723 . S
C88 C85 1.453 . S
C88 H112 0.982 . S
C88 H113 0.979 . S
C88 H114 0.977 . S
C89 C85 1.684 . S
C89 H115 0.979 . S
C89 H116 0.980 . S
C89 H117 0.983 . S
C90 H66 0.948 . S
C90 C91 1.391 . S
C90 C95 1.391 . S
C91 C90 1.391 . S
C91 C92 1.391 . S
C92 H69 0.947 . S
C92 C91 1.391 . S
C92 C93 1.392 . S
C93 H70 0.948 . S
C93 C92 1.392 . S
C93 C94 1.419 . S
C94 C93 1.419 . S
C94 C95 1.391 . S
C94 C98 1.397 . S
C95 C90 1.391 . S
C95 C94 1.391 . S
C95 C96 1.399 . S
C96 C95 1.399 . S
C96 C97 1.396 . S
C96 C99 1.453 . S
C96 C100 1.684 . S
C97 C87 1.723 . S
C97 C96 1.396 . S
C97 C98 1.394 . S
C98 C68 1.723 . S
C98 C94 1.397 . S
C98 C97 1.394 . S
C99 H71 0.982 . S
C99 H75 0.979 . S
C99 H76 0.977 . S
C99 C96 1.453 . S
C100 H72 0.979 . S
C100 H73 0.980 . S
C100 H74 0.983 . S
C100 C96 1.684 . S
H101 C119 0.948 . S
H102 C60 0.948 . S
H103 C78 0.979 . S
H104 C78 0.980 . S
H105 C78 0.983 . S
H106 C77 0.982 . S
H107 C77 0.979 . S
H108 C77 0.977 . S
H109 C79 0.948 . S
H110 C81 0.947 . S
H111 C82 0.948 . S
H112 C88 0.982 . S
H113 C88 0.979 . S
H114 C88 0.977 . S
H115 C89 0.979 . S
H116 C89 0.980 . S
H117 C89 0.983 . S
H118 C62 0.947 . S
C119 C62 1.392 . S
C119 C63 1.419 . S
C119 H101 0.948 . S
C120 C121 1.391 . S
C120 C124 1.391 . S
C120 H162 0.948 . S
C121 C120 1.391 . S
C121 C122 1.391 . S
C122 C121 1.391 . S
C122 H178 0.947 . S
C122 C179 1.392 . S
C123 C124 1.391 . S
C123 C127 1.397 . S
C123 C179 1.419 . S
C124 C120 1.391 . S
C124 C123 1.391 . S
C124 C125 1.399 . S
C125 C124 1.399 . S
C125 C128 1.396 . S
C125 C137 1.453 . S
C125 C138 1.684 . S
H126 C150 0.948 . S
C127 C123 1.397 . S
C127 C128 1.394 . S
C127 C146 1.723 . S
C128 C125 1.396 . S
C128 C127 1.394 . S
C128 C158 1.723 . S
H129 C152 0.947 . S
H130 C153 0.948 . S
H131 C159 0.982 . S
H132 C160 0.979 . S
H133 C160 0.980 . S
H134 C160 0.983 . S
H135 C159 0.979 . S
H136 C159 0.977 . S
C137 C125 1.453 . S
C137 H166 0.982 . S
C137 H167 0.979 . S
C137 H168 0.977 . S
C138 C125 1.684 . S
C138 H163 0.979 . S
C138 H164 0.980 . S
C138 H165 0.983 . S
C139 C140 1.391 . S
C139 C144 1.391 . S
C139 H169 0.948 . S
C140 C139 1.391 . S
C140 C141 1.391 . S
C141 C140 1.391 . S
C141 C142 1.392 . S
C141 H170 0.947 . S
C142 C141 1.392 . S
C142 C143 1.419 . S
C142 H171 0.948 . S
C143 C142 1.419 . S
C143 C144 1.391 . S
C143 C147 1.397 . S
C144 C139 1.391 . S
C144 C143 1.391 . S
C144 C145 1.399 . S
C145 C144 1.399 . S
C145 C146 1.396 . S
C145 C148 1.453 . S
C145 C149 1.684 . S
C146 C127 1.723 . S
C146 C145 1.396 . S
C146 C147 1.394 . S
C147 C143 1.397 . S
C147 C146 1.394 . S
C147 C157 1.723 . S
C148 C145 1.453 . S
C148 H172 0.982 . S
C148 H173 0.979 . S
C148 H174 0.977 . S
C149 C145 1.684 . S
C149 H175 0.979 . S
C149 H176 0.980 . S
C149 H177 0.983 . S
C150 H126 0.948 . S
C150 C151 1.391 . S
C150 C155 1.391 . S
C151 C150 1.391 . S
C151 C152 1.391 . S
C152 H129 0.947 . S
C152 C151 1.391 . S
C152 C153 1.392 . S
C153 H130 0.948 . S
C153 C152 1.392 . S
C153 C154 1.419 . S
C154 C153 1.419 . S
C154 C155 1.391 . S
C154 C158 1.397 . S
C155 C150 1.391 . S
C155 C154 1.391 . S
C155 C156 1.399 . S
C156 C155 1.399 . S
C156 C157 1.396 . S
C156 C159 1.453 . S
C156 C160 1.684 . S
C157 C147 1.723 . S
C157 C156 1.396 . S
C157 C158 1.394 . S
C158 C128 1.723 . S
C158 C154 1.397 . S
C158 C157 1.394 . S
C159 H131 0.982 . S
C159 H135 0.979 . S
C159 H136 0.977 . S
C159 C156 1.453 . S
C160 H132 0.979 . S
C160 H133 0.980 . S
C160 H134 0.983 . S
C160 C156 1.684 . S
H161 C179 0.948 . S
H162 C120 0.948 . S
H163 C138 0.979 . S
H164 C138 0.980 . S
H165 C138 0.983 . S
H166 C137 0.982 . S
H167 C137 0.979 . S
H168 C137 0.977 . S
H169 C139 0.948 . S
H170 C141 0.947 . S
H171 C142 0.948 . S
H172 C148 0.982 . S
H173 C148 0.979 . S
H174 C148 0.977 . S
H175 C149 0.979 . S
H176 C149 0.980 . S
H177 C149 0.983 . S
H178 C122 0.947 . S
C179 C122 1.392 . S
C179 C123 1.419 . S
C179 H161 0.948 . S
C180 C181 1.391 . S
C180 C184 1.391 . S
C180 H222 0.948 . S
C181 C180 1.391 . S
C181 C182 1.391 . S
C182 C181 1.391 . S
C182 H238 0.947 . S
C182 C239 1.392 . S
C183 C184 1.391 . S
C183 C187 1.397 . S
C183 C239 1.419 . S
C184 C180 1.391 . S
C184 C183 1.391 . S
C184 C185 1.399 . S
C185 C184 1.399 . S
C185 C188 1.396 . S
C185 C197 1.453 . S
C185 C198 1.684 . S
H186 C210 0.948 . S
C187 C183 1.397 . S
C187 C188 1.394 . S
C187 C206 1.723 . S
C188 C185 1.396 . S
C188 C187 1.394 . S
C188 C218 1.723 . S
H189 C212 0.947 . S
H190 C213 0.948 . S
H191 C219 0.982 . S
H192 C220 0.979 . S
H193 C220 0.980 . S
H194 C220 0.983 . S
H195 C219 0.979 . S
H196 C219 0.977 . S
C197 C185 1.453 . S
C197 H226 0.982 . S
C197 H227 0.979 . S
C197 H228 0.977 . S
C198 C185 1.684 . S
C198 H223 0.979 . S
C198 H224 0.980 . S
C198 H225 0.983 . S
C199 C200 1.391 . S
C199 C204 1.391 . S
C199 H229 0.948 . S
C200 C199 1.391 . S
C200 C201 1.391 . S
C201 C200 1.391 . S
C201 C202 1.392 . S
C201 H230 0.947 . S
C202 C201 1.392 . S
C202 C203 1.419 . S
C202 H231 0.948 . S
C203 C202 1.419 . S
C203 C204 1.391 . S
C203 C207 1.397 . S
C204 C199 1.391 . S
C204 C203 1.391 . S
C204 C205 1.399 . S
C205 C204 1.399 . S
C205 C206 1.396 . S
C205 C208 1.453 . S
C205 C209 1.684 . S
C206 C187 1.723 . S
C206 C205 1.396 . S
C206 C207 1.394 . S
C207 C203 1.397 . S
C207 C206 1.394 . S
C207 C217 1.723 . S
C208 C205 1.453 . S
C208 H232 0.982 . S
C208 H233 0.979 . S
C208 H234 0.977 . S
C209 C205 1.684 . S
C209 H235 0.979 . S
C209 H236 0.980 . S
C209 H237 0.983 . S
C210 H186 0.948 . S
C210 C211 1.391 . S
C210 C215 1.391 . S
C211 C210 1.391 . S
C211 C212 1.391 . S
C212 H189 0.947 . S
C212 C211 1.391 . S
C212 C213 1.392 . S
C213 H190 0.948 . S
C213 C212 1.392 . S
C213 C214 1.419 . S
C214 C213 1.419 . S
C214 C215 1.391 . S
C214 C218 1.397 . S
C215 C210 1.391 . S
C215 C214 1.391 . S
C215 C216 1.399 . S
C216 C215 1.399 . S
C216 C217 1.396 . S
C216 C219 1.453 . S
C216 C220 1.684 . S
C217 C207 1.723 . S
C217 C216 1.396 . S
C217 C218 1.394 . S
C218 C188 1.723 . S
C218 C214 1.397 . S
C218 C217 1.394 . S
C219 H191 0.982 . S
C219 H195 0.979 . S
C219 H196 0.977 . S
C219 C216 1.453 . S
C220 H192 0.979 . S
C220 H193 0.980 . S
C220 H194 0.983 . S
C220 C216 1.684 . S
H221 C239 0.948 . S
H222 C180 0.948 . S
H223 C198 0.979 . S
H224 C198 0.980 . S
H225 C198 0.983 . S
H226 C197 0.982 . S
H227 C197 0.979 . S
H228 C197 0.977 . S
H229 C199 0.948 . S
H230 C201 0.947 . S
H231 C202 0.948 . S
H232 C208 0.982 . S
H233 C208 0.979 . S
H234 C208 0.977 . S
H235 C209 0.979 . S
H236 C209 0.980 . S
H237 C209 0.983 . S
H238 C182 0.947 . S
C239 C182 1.392 . S
C239 C183 1.419 . S
C239 H221 0.948 . S
C240 C241 1.391 . S
C240 C244 1.391 . S
C240 H282 0.948 . S
C241 C240 1.391 . S
C241 C242 1.391 . S
C242 C241 1.391 . S
C242 H298 0.947 . S
C242 C299 1.392 . S
C243 C244 1.391 . S
C243 C247 1.397 . S
C243 C299 1.419 . S
C244 C240 1.391 . S
C244 C243 1.391 . S
C244 C245 1.399 . S
C245 C244 1.399 . S
C245 C248 1.396 . S
C245 C257 1.453 . S
C245 C258 1.684 . S
H246 C270 0.948 . S
C247 C243 1.397 . S
C247 C248 1.394 . S
C247 C266 1.723 . S
C248 C245 1.396 . S
C248 C247 1.394 . S
C248 C278 1.723 . S
H249 C272 0.947 . S
H250 C273 0.948 . S
H251 C279 0.982 . S
H252 C280 0.979 . S
H253 C280 0.980 . S
H254 C280 0.983 . S
H255 C279 0.979 . S
H256 C279 0.977 . S
C257 C245 1.453 . S
C257 H286 0.982 . S
C257 H287 0.979 . S
C257 H288 0.977 . S
C258 C245 1.684 . S
C258 H283 0.979 . S
C258 H284 0.980 . S
C258 H285 0.983 . S
C259 C260 1.391 . S
C259 C264 1.391 . S
C259 H289 0.948 . S
C260 C259 1.391 . S
C260 C261 1.391 . S
C261 C260 1.391 . S
C261 C262 1.392 . S
C261 H290 0.947 . S
C262 C261 1.392 . S
C262 C263 1.419 . S
C262 H291 0.948 . S
C263 C262 1.419 . S
C263 C264 1.391 . S
C263 C267 1.397 . S
C264 C259 1.391 . S
C264 C263 1.391 . S
C264 C265 1.399 . S
C265 C264 1.399 . S
C265 C266 1.396 . S
C265 C268 1.453 . S
C265 C269 1.684 . S
C266 C247 1.723 . S
C266 C265 1.396 . S
C266 C267 1.394 . S
C267 C263 1.397 . S
C267 C266 1.394 . S
C267 C277 1.723 . S
C268 C265 1.453 . S
C268 H292 0.982 . S
C268 H293 0.979 . S
C268 H294 0.977 . S
C269 C265 1.684 . S
C269 H295 0.979 . S
C269 H296 0.980 . S
C269 H297 0.983 . S
C270 H246 0.948 . S
C270 C271 1.391 . S
C270 C275 1.391 . S
C271 C270 1.391 . S
C271 C272 1.391 . S
C272 H249 0.947 . S
C272 C271 1.391 . S
C272 C273 1.392 . S
C273 H250 0.948 . S
C273 C272 1.392 . S
C273 C274 1.419 . S
C274 C273 1.419 . S
C274 C275 1.391 . S
C274 C278 1.397 . S
C275 C270 1.391 . S
C275 C274 1.391 . S
C275 C276 1.399 . S
C276 C275 1.399 . S
C276 C277 1.396 . S
C276 C279 1.453 . S
C276 C280 1.684 . S
C277 C267 1.723 . S
C277 C276 1.396 . S
C277 C278 1.394 . S
C278 C248 1.723 . S
C278 C274 1.397 . S
C278 C277 1.394 . S
C279 H251 0.982 . S
C279 H255 0.979 . S
C279 H256 0.977 . S
C279 C276 1.453 . S
C280 H252 0.979 . S
C280 H253 0.980 . S
C280 H254 0.983 . S
C280 C276 1.684 . S
H281 C299 0.948 . S
H282 C240 0.948 . S
H283 C258 0.979 . S
H284 C258 0.980 . S
H285 C258 0.983 . S
H286 C257 0.982 . S
H287 C257 0.979 . S
H288 C257 0.977 . S
H289 C259 0.948 . S
H290 C261 0.947 . S
H291 C262 0.948 . S
H292 C268 0.982 . S
H293 C268 0.979 . S
H294 C268 0.977 . S
H295 C269 0.979 . S
H296 C269 0.980 . S
H297 C269 0.983 . S
H298 C242 0.947 . S
C299 C242 1.392 . S
C299 C243 1.419 . S
C299 H281 0.948 . S
C300 C301 1.391 . S
C300 C304 1.391 . S
C300 H342 0.948 . S
C301 C300 1.391 . S
C301 C302 1.391 . S
C302 C301 1.391 . S
C302 H358 0.947 . S
C302 C359 1.392 . S
C303 C304 1.391 . S
C303 C307 1.397 . S
C303 C359 1.419 . S
C304 C300 1.391 . S
C304 C303 1.391 . S
C304 C305 1.399 . S
C305 C304 1.399 . S
C305 C308 1.396 . S
C305 C317 1.453 . S
C305 C318 1.684 . S
H306 C330 0.948 . S
C307 C303 1.397 . S
C307 C308 1.394 . S
C307 C326 1.723 . S
C308 C305 1.396 . S
C308 C307 1.394 . S
C308 C338 1.723 . S
H309 C332 0.947 . S
H310 C333 0.948 . S
H311 C339 0.982 . S
H312 C340 0.979 . S
H313 C340 0.980 . S
H314 C340 0.983 . S
H315 C339 0.979 . S
H316 C339 0.977 . S
C317 C305 1.453 . S
C317 H346 0.982 . S
C317 H347 0.979 . S
C317 H348 0.977 . S
C318 C305 1.684 . S
C318 H343 0.979 . S
C318 H344 0.980 . S
C318 H345 0.983 . S
C319 C320 1.391 . S
C319 C324 1.391 . S
C319 H349 0.948 . S
C320 C319 1.391 . S
C320 C321 1.391 . S
C321 C320 1.391 . S
C321 C322 1.392 . S
C321 H350 0.947 . S
C322 C321 1.392 . S
C322 C323 1.419 . S
C322 H351 0.948 . S
C323 C322 1.419 . S
C323 C324 1.391 . S
C323 C327 1.397 . S
C324 C319 1.391 . S
C324 C323 1.391 . S
C324 C325 1.399 . S
C325 C324 1.399 . S
C325 C326 1.396 . S
C325 C328 1.453 . S
C325 C329 1.684 . S
C326 C307 1.723 . S
C326 C325 1.396 . S
C326 C327 1.394 . S
C327 C323 1.397 . S
C327 C326 1.394 . S
C327 C337 1.723 . S
C328 C325 1.453 . S
C328 H352 0.982 . S
C328 H353 0.979 . S
C328 H354 0.977 . S
C329 C325 1.684 . S
C329 H355 0.979 . S
C329 H356 0.980 . S
C329 H357 0.983 . S
C330 H306 0.948 . S
C330 C331 1.391 . S
C330 C335 1.391 . S
C331 C330 1.391 . S
C331 C332 1.391 . S
C332 H309 0.947 . S
C332 C331 1.391 . S
C332 C333 1.392 . S
C333 H310 0.948 . S
C333 C332 1.392 . S
C333 C334 1.419 . S
C334 C333 1.419 . S
C334 C335 1.391 . S
C334 C338 1.397 . S
C335 C330 1.391 . S
C335 C334 1.391 . S
C335 C336 1.399 . S
C336 C335 1.399 . S
C336 C337 1.396 . S
C336 C339 1.453 . S
C336 C340 1.684 . S
C337 C327 1.723 . S
C337 C336 1.396 . S
C337 C338 1.394 . S
C338 C308 1.723 . S
C338 C334 1.397 . S
C338 C337 1.394 . S
C339 H311 0.982 . S
C339 H315 0.979 . S
C339 H316 0.977 . S
C339 C336 1.453 . S
C340 H312 0.979 . S
C340 H313 0.980 . S
C340 H314 0.983 . S
C340 C336 1.684 . S
H341 C359 0.948 . S
H342 C300 0.948 . S
H343 C318 0.979 . S
H344 C318 0.980 . S
H345 C318 0.983 . S
H346 C317 0.982 . S
H347 C317 0.979 . S
H348 C317 0.977 . S
H349 C319 0.948 . S
H350 C321 0.947 . S
H351 C322 0.948 . S
H352 C328 0.982 . S
H353 C328 0.979 . S
H354 C328 0.977 . S
H355 C329 0.979 . S
H356 C329 0.980 . S
H357 C329 0.983 . S
H358 C302 0.947 . S
C359 C302 1.392 . S
C359 C303 1.419 . S
C359 H341 0.948 . S
C360 C361 1.391 . S
C360 C364 1.391 . S
C360 H402 0.948 . S
C361 C360 1.391 . S
C361 C362 1.391 . S
C362 C361 1.391 . S
C362 H418 0.947 . S
C362 C419 1.392 . S
C363 C364 1.391 . S
C363 C367 1.397 . S
C363 C419 1.419 . S
C364 C360 1.391 . S
C364 C363 1.391 . S
C364 C365 1.399 . S
C365 C364 1.399 . S
C365 C368 1.396 . S
C365 C377 1.453 . S
C365 C378 1.684 . S
H366 C390 0.948 . S
C367 C363 1.397 . S
C367 C368 1.394 . S
C367 C386 1.723 . S
C368 C365 1.396 . S
C368 C367 1.394 . S
C368 C398 1.723 . S
H369 C392 0.947 . S
H370 C393 0.948 . S
H371 C399 0.982 . S
H372 C400 0.979 . S
H373 C400 0.980 . S
H374 C400 0.983 . S
H375 C399 0.979 . S
H376 C399 0.977 . S
C377 C365 1.453 . S
C377 H406 0.982 . S
C377 H407 0.979 . S
C377 H408 0.977 . S
C378 C365 1.684 . S
C378 H403 0.979 . S
C378 H404 0.980 . S
C378 H405 0.983 . S
C379 C380 1.391 . S
C379 C384 1.391 . S
C379 H409 0.948 . S
C380 C379 1.391 . S
C380 C381 1.391 . S
C381 C380 1.391 . S
C381 C382 1.392 . S
C381 H410 0.947 . S
C382 C381 1.392 . S
C382 C383 1.419 . S
C382 H411 0.948 . S
C383 C382 1.419 . S
C383 C384 1.391 . S
C383 C387 1.397 . S
C384 C379 1.391 . S
C384 C383 1.391 . S
C384 C385 1.399 . S
C385 C384 1.399 . S
C385 C386 1.396 . S
C385 C388 1.453 . S
C385 C389 1.684 . S
C386 C367 1.723 . S
C386 C385 1.396 . S
C386 C387 1.394 . S
C387 C383 1.397 . S
C387 C386 1.394 . S
C387 C397 1.723 . S
C388 C385 1.453 . S
C388 H412 0.982 1_655 S
C388 H413 0.979 . S
C388 H414 0.977 . S
C389 C385 1.684 . S
C389 H415 0.979 . S
C389 H416 0.980 . S
C389 H417 0.983 . S
C390 H366 0.948 . S
C390 C391 1.391 . S
C390 C395 1.391 . S
C391 C390 1.391 . S
C391 C392 1.391 . S
C392 H369 0.947 . S
C392 C391 1.391 . S
C392 C393 1.392 . S
C393 H370 0.948 . S
C393 C392 1.392 . S
C393 C394 1.419 . S
C394 C393 1.419 . S
C394 C395 1.391 . S
C394 C398 1.397 . S
C395 C390 1.391 . S
C395 C394 1.391 . S
C395 C396 1.399 . S
C396 C395 1.399 . S
C396 C397 1.396 . S
C396 C399 1.453 . S
C396 C400 1.684 . S
C397 C387 1.723 . S
C397 C396 1.396 . S
C397 C398 1.394 . S
C398 C368 1.723 . S
C398 C394 1.397 . S
C398 C397 1.394 . S
C399 H371 0.982 . S
C399 H375 0.979 . S
C399 H376 0.977 . S
C399 C396 1.453 . S
C400 H372 0.979 . S
C400 H373 0.980 . S
C400 H374 0.983 . S
C400 C396 1.684 . S
H401 C419 0.948 . S
H402 C360 0.948 . S
H403 C378 0.979 . S
H404 C378 0.980 . S
H405 C378 0.983 . S
H406 C377 0.982 . S
H407 C377 0.979 . S
H408 C377 0.977 . S
H409 C379 0.948 . S
H410 C381 0.947 . S
H411 C382 0.948 . S
H412 C388 0.982 1_455 S
H413 C388 0.979 . S
H414 C388 0.977 . S
H415 C389 0.979 . S
H416 C389 0.980 . S
H417 C389 0.983 . S
H418 C362 0.947 . S
C419 C362 1.392 . S
C419 C363 1.419 . S
C419 H401 0.948 . S
C420 C421 1.391 . S
C420 C424 1.391 . S
C420 H462 0.948 . S
C421 C420 1.391 . S
C421 C422 1.391 . S
C422 C421 1.391 . S
C422 H478 0.947 . S
C422 C479 1.392 . S
C423 C424 1.391 . S
C423 C427 1.397 . S
C423 C479 1.419 . S
C424 C420 1.391 . S
C424 C423 1.391 . S
C424 C425 1.399 . S
C425 C424 1.399 . S
C425 C428 1.396 . S
C425 C437 1.453 . S
C425 C438 1.684 . S
H426 C450 0.948 . S
C427 C423 1.397 . S
C427 C428 1.394 . S
C427 C446 1.723 . S
C428 C425 1.396 . S
C428 C427 1.394 . S
C428 C458 1.723 . S
H429 C452 0.947 . S
H430 C453 0.948 . S
H431 C459 0.982 . S
H432 C460 0.979 . S
H433 C460 0.980 . S
H434 C460 0.983 . S
H435 C459 0.979 . S
H436 C459 0.977 . S
C437 C425 1.453 . S
C437 H466 0.982 . S
C437 H467 0.979 . S
C437 H468 0.977 . S
C438 C425 1.684 . S
C438 H463 0.979 . S
C438 H464 0.980 . S
C438 H465 0.983 . S
C439 C440 1.391 . S
C439 C444 1.391 . S
C439 H469 0.948 . S
C440 C439 1.391 . S
C440 C441 1.391 . S
C441 C440 1.391 . S
C441 C442 1.392 . S
C441 H470 0.947 . S
C442 C441 1.392 . S
C442 C443 1.419 . S
C442 H471 0.948 . S
C443 C442 1.419 . S
C443 C444 1.391 . S
C443 C447 1.397 . S
C444 C439 1.391 . S
C444 C443 1.391 . S
C444 C445 1.399 . S
C445 C444 1.399 . S
C445 C446 1.396 . S
C445 C448 1.453 . S
C445 C449 1.684 . S
C446 C427 1.723 . S
C446 C445 1.396 . S
C446 C447 1.394 . S
C447 C443 1.397 . S
C447 C446 1.394 . S
C447 C457 1.723 . S
C448 C445 1.453 . S
C448 H472 0.982 . S
C448 H473 0.979 . S
C448 H474 0.977 . S
C449 C445 1.684 . S
C449 H475 0.979 . S
C449 H476 0.980 . S
C449 H477 0.983 . S
C450 H426 0.948 . S
C450 C451 1.391 . S
C450 C455 1.391 . S
C451 C450 1.391 . S
C451 C452 1.391 . S
C452 H429 0.947 . S
C452 C451 1.391 . S
C452 C453 1.392 . S
C453 H430 0.948 . S
C453 C452 1.392 . S
C453 C454 1.419 . S
C454 C453 1.419 . S
C454 C455 1.391 . S
C454 C458 1.397 . S
C455 C450 1.391 . S
C455 C454 1.391 . S
C455 C456 1.399 . S
C456 C455 1.399 . S
C456 C457 1.396 . S
C456 C459 1.453 . S
C456 C460 1.684 . S
C457 C447 1.723 . S
C457 C456 1.396 . S
C457 C458 1.394 . S
C458 C428 1.723 . S
C458 C454 1.397 . S
C458 C457 1.394 . S
C459 H431 0.982 . S
C459 H435 0.979 . S
C459 H436 0.977 . S
C459 C456 1.453 . S
C460 H432 0.979 . S
C460 H433 0.980 . S
C460 H434 0.983 . S
C460 C456 1.684 . S
H461 C479 0.948 . S
H462 C420 0.948 . S
H463 C438 0.979 . S
H464 C438 0.980 . S
H465 C438 0.983 . S
H466 C437 0.982 . S
H467 C437 0.979 . S
H468 C437 0.977 . S
H469 C439 0.948 . S
H470 C441 0.947 . S
H471 C442 0.948 . S
H472 C448 0.982 . S
H473 C448 0.979 . S
H474 C448 0.977 . S
H475 C449 0.979 . S
H476 C449 0.980 . S
H477 C449 0.983 . S
H478 C422 0.947 . S
C479 C422 1.392 . S
C479 C423 1.419 . S
C479 H461 0.948 . S
C480 C481 1.391 . S
C480 C484 1.391 . S
C480 H522 0.948 . S
C481 C480 1.391 . S
C481 C482 1.391 . S
C482 C481 1.391 . S
C482 H538 0.947 . S
C482 C539 1.392 . S
C483 C484 1.391 . S
C483 C487 1.397 . S
C483 C539 1.419 . S
C484 C480 1.391 . S
C484 C483 1.391 . S
C484 C485 1.399 . S
C485 C484 1.399 . S
C485 C488 1.396 . S
C485 C497 1.453 . S
C485 C498 1.684 . S
H486 C510 0.948 . S
C487 C483 1.397 . S
C487 C488 1.394 . S
C487 C506 1.723 . S
C488 C485 1.396 . S
C488 C487 1.394 . S
C488 C518 1.723 . S
H489 C512 0.947 . S
H490 C513 0.948 . S
H491 C519 0.982 . S
H492 C520 0.979 . S
H493 C520 0.980 . S
H494 C520 0.983 . S
H495 C519 0.979 . S
H496 C519 0.977 . S
C497 C485 1.453 . S
C497 H526 0.982 . S
C497 H527 0.979 . S
C497 H528 0.977 . S
C498 C485 1.684 . S
C498 H523 0.979 . S
C498 H524 0.980 . S
C498 H525 0.983 . S
C499 C500 1.391 . S
C499 C504 1.391 . S
C499 H529 0.948 . S
C500 C499 1.391 . S
C500 C501 1.391 . S
C501 C500 1.391 . S
C501 C502 1.392 . S
C501 H530 0.947 . S
C502 C501 1.392 . S
C502 C503 1.419 . S
C502 H531 0.948 . S
C503 C502 1.419 . S
C503 C504 1.391 . S
C503 C507 1.397 . S
C504 C499 1.391 . S
C504 C503 1.391 . S
C504 C505 1.399 . S
C505 C504 1.399 . S
C505 C506 1.396 . S
C505 C508 1.453 . S
C505 C509 1.684 . S
C506 C487 1.723 . S
C506 C505 1.396 . S
C506 C507 1.394 . S
C507 C503 1.397 . S
C507 C506 1.394 . S
C507 C517 1.723 . S
C508 C505 1.453 . S
C508 H532 0.982 . S
C508 H533 0.979 . S
C508 H534 0.977 . S
C509 C505 1.684 . S
C509 H535 0.979 . S
C509 H536 0.980 . S
C509 H537 0.983 . S
C510 H486 0.948 . S
C510 C511 1.391 . S
C510 C515 1.391 . S
C511 C510 1.391 . S
C511 C512 1.391 . S
C512 H489 0.947 . S
C512 C511 1.391 . S
C512 C513 1.392 . S
C513 H490 0.948 . S
C513 C512 1.392 . S
C513 C514 1.419 . S
C514 C513 1.419 . S
C514 C515 1.391 . S
C514 C518 1.397 . S
C515 C510 1.391 . S
C515 C514 1.391 . S
C515 C516 1.399 . S
C516 C515 1.399 . S
C516 C517 1.396 . S
C516 C519 1.453 . S
C516 C520 1.684 . S
C517 C507 1.723 . S
C517 C516 1.396 . S
C517 C518 1.394 . S
C518 C488 1.723 . S
C518 C514 1.397 . S
C518 C517 1.394 . S
C519 H491 0.982 . S
C519 H495 0.979 . S
C519 H496 0.977 . S
C519 C516 1.453 . S
C520 H492 0.979 . S
C520 H493 0.980 . S
C520 H494 0.983 . S
C520 C516 1.684 . S
H521 C539 0.948 . S
H522 C480 0.948 . S
H523 C498 0.979 . S
H524 C498 0.980 . S
H525 C498 0.983 . S
H526 C497 0.982 . S
H527 C497 0.979 . S
H528 C497 0.977 . S
H529 C499 0.948 . S
H530 C501 0.947 . S
H531 C502 0.948 . S
H532 C508 0.982 . S
H533 C508 0.979 . S
H534 C508 0.977 . S
H535 C509 0.979 . S
H536 C509 0.980 . S
H537 C509 0.983 . S
H538 C482 0.947 . S
C539 C482 1.392 . S
C539 C483 1.419 . S
C539 H521 0.948 . S
C540 C541 1.391 . S
C540 C544 1.391 . S
C540 H582 0.948 . S
C541 C540 1.391 . S
C541 C542 1.391 . S
C542 C541 1.391 . S
C542 H598 0.947 . S
C542 C599 1.392 . S
C543 C544 1.391 . S
C543 C547 1.397 . S
C543 C599 1.419 . S
C544 C540 1.391 . S
C544 C543 1.391 . S
C544 C545 1.399 . S
C545 C544 1.399 . S
C545 C548 1.396 . S
C545 C557 1.453 . S
C545 C558 1.684 . S
H546 C570 0.948 . S
C547 C543 1.397 . S
C547 C548 1.394 . S
C547 C566 1.723 . S
C548 C545 1.396 . S
C548 C547 1.394 . S
C548 C578 1.723 . S
H549 C572 0.947 . S
H550 C573 0.948 . S
H551 C579 0.982 . S
H552 C580 0.979 . S
H553 C580 0.980 . S
H554 C580 0.983 . S
H555 C579 0.979 . S
H556 C579 0.977 . S
C557 C545 1.453 . S
C557 H586 0.982 . S
C557 H587 0.979 . S
C557 H588 0.977 . S
C558 C545 1.684 . S
C558 H583 0.979 . S
C558 H584 0.980 . S
C558 H585 0.983 . S
C559 C560 1.391 . S
C559 C564 1.391 . S
C559 H589 0.948 . S
C560 C559 1.391 . S
C560 C561 1.391 . S
C561 C560 1.391 . S
C561 C562 1.392 . S
C561 H590 0.947 . S
C562 C561 1.392 . S
C562 C563 1.419 . S
C562 H591 0.948 . S
C563 C562 1.419 . S
C563 C564 1.391 . S
C563 C567 1.397 . S
C564 C559 1.391 . S
C564 C563 1.391 . S
C564 C565 1.399 . S
C565 C564 1.399 . S
C565 C566 1.396 . S
C565 C568 1.453 . S
C565 C569 1.684 . S
C566 C547 1.723 . S
C566 C565 1.396 . S
C566 C567 1.394 . S
C567 C563 1.397 . S
C567 C566 1.394 . S
C567 C577 1.723 . S
C568 C565 1.453 . S
C568 H592 0.982 . S
C568 H593 0.979 . S
C568 H594 0.977 . S
C569 C565 1.684 . S
C569 H595 0.979 . S
C569 H596 0.980 . S
C569 H597 0.983 . S
C570 H546 0.948 . S
C570 C571 1.391 . S
C570 C575 1.391 . S
C571 C570 1.391 . S
C571 C572 1.391 . S
C572 H549 0.947 . S
C572 C571 1.391 . S
C572 C573 1.392 . S
C573 H550 0.948 . S
C573 C572 1.392 . S
C573 C574 1.419 . S
C574 C573 1.419 . S
C574 C575 1.391 . S
C574 C578 1.397 . S
C575 C570 1.391 . S
C575 C574 1.391 . S
C575 C576 1.399 . S
C576 C575 1.399 . S
C576 C577 1.396 . S
C576 C579 1.453 . S
C576 C580 1.684 . S
C577 C567 1.723 . S
C577 C576 1.396 . S
C577 C578 1.394 . S
C578 C548 1.723 . S
C578 C574 1.397 . S
C578 C577 1.394 . S
C579 H551 0.982 . S
C579 H555 0.979 . S
C579 H556 0.977 . S
C579 C576 1.453 . S
C580 H552 0.979 . S
C580 H553 0.980 . S
C580 H554 0.983 . S
C580 C576 1.684 . S
H581 C599 0.948 . S
H582 C540 0.948 . S
H583 C558 0.979 . S
H584 C558 0.980 . S
H585 C558 0.983 . S
H586 C557 0.982 . S
H587 C557 0.979 . S
H588 C557 0.977 . S
H589 C559 0.948 . S
H590 C561 0.947 . S
H591 C562 0.948 . S
H592 C568 0.982 . S
H593 C568 0.979 . S
H594 C568 0.977 . S
H595 C569 0.979 . S
H596 C569 0.980 . S
H597 C569 0.983 . S
H598 C542 0.947 . S
C599 C542 1.392 . S
C599 C543 1.419 . S
C599 H581 0.948 . S
C600 C601 1.391 . S
C600 C604 1.391 . S
C600 H642 0.948 . S
C601 C600 1.391 . S
C601 C602 1.391 . S
C602 C601 1.391 . S
C602 H658 0.947 . S
C602 C659 1.392 . S
C603 C604 1.391 . S
C603 C607 1.397 . S
C603 C659 1.419 . S
C604 C600 1.391 . S
C604 C603 1.391 . S
C604 C605 1.399 . S
C605 C604 1.399 . S
C605 C608 1.396 . S
C605 C617 1.453 . S
C605 C618 1.684 . S
H606 C630 0.948 . S
C607 C603 1.397 . S
C607 C608 1.394 . S
C607 C626 1.723 . S
C608 C605 1.396 . S
C608 C607 1.394 . S
C608 C638 1.723 . S
H609 C632 0.947 . S
H610 C633 0.948 . S
H611 C639 0.982 . S
H612 C640 0.979 . S
H613 C640 0.980 . S
H614 C640 0.983 . S
H615 C639 0.979 . S
H616 C639 0.977 . S
C617 C605 1.453 . S
C617 H646 0.982 . S
C617 H647 0.979 . S
C617 H648 0.977 . S
C618 C605 1.684 . S
C618 H643 0.979 . S
C618 H644 0.980 . S
C618 H645 0.983 . S
C619 C620 1.391 . S
C619 C624 1.391 . S
C619 H649 0.948 . S
C620 C619 1.391 . S
C620 C621 1.391 . S
C621 C620 1.391 . S
C621 C622 1.392 . S
C621 H650 0.947 . S
C622 C621 1.392 . S
C622 C623 1.419 . S
C622 H651 0.948 . S
C623 C622 1.419 . S
C623 C624 1.391 . S
C623 C627 1.397 . S
C624 C619 1.391 . S
C624 C623 1.391 . S
C624 C625 1.399 . S
C625 C624 1.399 . S
C625 C626 1.396 . S
C625 C628 1.453 . S
C625 C629 1.684 . S
C626 C607 1.723 . S
C626 C625 1.396 . S
C626 C627 1.394 . S
C627 C623 1.397 . S
C627 C626 1.394 . S
C627 C637 1.723 . S
C628 C625 1.453 . S
C628 H652 0.982 . S
C628 H653 0.979 . S
C628 H654 0.977 . S
C629 C625 1.684 . S
C629 H655 0.979 . S
C629 H656 0.980 . S
C629 H657 0.983 . S
C630 H606 0.948 . S
C630 C631 1.391 . S
C630 C635 1.391 . S
C631 C630 1.391 . S
C631 C632 1.391 . S
C632 H609 0.947 . S
C632 C631 1.391 . S
C632 C633 1.392 . S
C633 H610 0.948 . S
C633 C632 1.392 . S
C633 C634 1.419 . S
C634 C633 1.419 . S
C634 C635 1.391 . S
C634 C638 1.397 . S
C635 C630 1.391 . S
C635 C634 1.391 . S
C635 C636 1.399 . S
C636 C635 1.399 . S
C636 C637 1.396 . S
C636 C639 1.453 . S
C636 C640 1.684 . S
C637 C627 1.723 . S
C637 C636 1.396 . S
C637 C638 1.394 . S
C638 C608 1.723 . S
C638 C634 1.397 . S
C638 C637 1.394 . S
C639 H611 0.982 . S
C639 H615 0.979 . S
C639 H616 0.977 . S
C639 C636 1.453 . S
C640 H612 0.979 . S
C640 H613 0.980 . S
C640 H614 0.983 . S
C640 C636 1.684 . S
H641 C659 0.948 . S
H642 C600 0.948 . S
H643 C618 0.979 . S
H644 C618 0.980 . S
H645 C618 0.983 . S
H646 C617 0.982 . S
H647 C617 0.979 . S
H648 C617 0.977 . S
H649 C619 0.948 . S
H650 C621 0.947 . S
H651 C622 0.948 . S
H652 C628 0.982 . S
H653 C628 0.979 . S
H654 C628 0.977 . S
H655 C629 0.979 . S
H656 C629 0.980 . S
H657 C629 0.983 . S
H658 C602 0.947 . S
C659 C602 1.392 . S
C659 C603 1.419 . S
C659 H641 0.948 . S
C660 C661 1.391 . S
C660 C664 1.391 . S
C660 H702 0.948 . S
C661 C660 1.391 . S
C661 C662 1.391 . S
C662 C661 1.391 . S
C662 H718 0.947 . S
C662 C719 1.392 . S
C663 C664 1.391 . S
C663 C667 1.397 . S
C663 C719 1.419 . S
C664 C660 1.391 . S
C664 C663 1.391 . S
C664 C665 1.399 . S
C665 C664 1.399 . S
C665 C668 1.396 . S
C665 C677 1.453 . S
C665 C678 1.684 . S
H666 C690 0.948 . S
C667 C663 1.397 . S
C667 C668 1.394 . S
C667 C686 1.723 . S
C668 C665 1.396 . S
C668 C667 1.394 . S
C668 C698 1.723 . S
H669 C692 0.947 . S
H670 C693 0.948 . S
H671 C699 0.982 . S
H672 C700 0.979 . S
H673 C700 0.980 . S
H674 C700 0.983 . S
H675 C699 0.979 . S
H676 C699 0.977 . S
C677 C665 1.453 . S
C677 H706 0.982 . S
C677 H707 0.979 . S
C677 H708 0.977 . S
C678 C665 1.684 . S
C678 H703 0.979 . S
C678 H704 0.980 . S
C678 H705 0.983 . S
C679 C680 1.391 . S
C679 C684 1.391 . S
C679 H709 0.948 . S
C680 C679 1.391 . S
C680 C681 1.391 . S
C681 C680 1.391 . S
C681 C682 1.392 . S
C681 H710 0.947 . S
C682 C681 1.392 . S
C682 C683 1.419 . S
C682 H711 0.948 . S
C683 C682 1.419 . S
C683 C684 1.391 . S
C683 C687 1.397 . S
C684 C679 1.391 . S
C684 C683 1.391 . S
C684 C685 1.399 . S
C685 C684 1.399 . S
C685 C686 1.396 . S
C685 C688 1.453 . S
C685 C689 1.684 . S
C686 C667 1.723 . S
C686 C685 1.396 . S
C686 C687 1.394 . S
C687 C683 1.397 . S
C687 C686 1.394 . S
C687 C697 1.723 . S
C688 C685 1.453 . S
C688 H712 0.982 . S
C688 H713 0.979 . S
C688 H714 0.977 . S
C689 C685 1.684 . S
C689 H715 0.979 . S
C689 H716 0.980 . S
C689 H717 0.983 . S
C690 H666 0.948 . S
C690 C691 1.391 . S
C690 C695 1.391 . S
C691 C690 1.391 . S
C691 C692 1.391 . S
C692 H669 0.947 . S
C692 C691 1.391 . S
C692 C693 1.392 . S
C693 H670 0.948 . S
C693 C692 1.392 . S
C693 C694 1.419 . S
C694 C693 1.419 . S
C694 C695 1.391 . S
C694 C698 1.397 . S
C695 C690 1.391 . S
C695 C694 1.391 . S
C695 C696 1.399 . S
C696 C695 1.399 . S
C696 C697 1.396 . S
C696 C699 1.453 . S
C696 C700 1.684 . S
C697 C687 1.723 . S
C697 C696 1.396 . S
C697 C698 1.394 . S
C698 C668 1.723 . S
C698 C694 1.397 . S
C698 C697 1.394 . S
C699 H671 0.982 . S
C699 H675 0.979 . S
C699 H676 0.977 . S
C699 C696 1.453 . S
C700 H672 0.979 . S
C700 H673 0.980 . S
C700 H674 0.983 . S
C700 C696 1.684 . S
H701 C719 0.948 . S
H702 C660 0.948 . S
H703 C678 0.979 . S
H704 C678 0.980 . S
H705 C678 0.983 . S
H706 C677 0.982 . S
H707 C677 0.979 . S
H708 C677 0.977 . S
H709 C679 0.948 . S
H710 C681 0.947 . S
H711 C682 0.948 . S
H712 C688 0.982 . S
H713 C688 0.979 . S
H714 C688 0.977 . S
H715 C689 0.979 . S
H716 C689 0.980 . S
H717 C689 0.983 . S
H718 C662 0.947 . S
C719 C662 1.392 . S
C719 C663 1.419 . S
C719 H701 0.948 . S
C720 C721 1.391 . S
C720 C724 1.391 . S
C720 H762 0.948 . S
C721 C720 1.391 . S
C721 C722 1.391 . S
C722 C721 1.391 . S
C722 H778 0.947 . S
C722 C779 1.392 . S
C723 C724 1.391 . S
C723 C727 1.397 . S
C723 C779 1.419 . S
C724 C720 1.391 . S
C724 C723 1.391 . S
C724 C725 1.399 . S
C725 C724 1.399 . S
C725 C728 1.396 . S
C725 C737 1.453 . S
C725 C738 1.684 . S
H726 C750 0.948 . S
C727 C723 1.397 . S
C727 C728 1.394 . S
C727 C746 1.723 . S
C728 C725 1.396 . S
C728 C727 1.394 . S
C728 C758 1.723 . S
H729 C752 0.947 . S
H730 C753 0.948 . S
H731 C759 0.982 . S
H732 C760 0.979 . S
H733 C760 0.980 . S
H734 C760 0.983 . S
H735 C759 0.979 . S
H736 C759 0.977 . S
C737 C725 1.453 . S
C737 H766 0.982 . S
C737 H767 0.979 . S
C737 H768 0.977 . S
C738 C725 1.684 . S
C738 H763 0.979 . S
C738 H764 0.980 . S
C738 H765 0.983 . S
C739 C740 1.391 . S
C739 C744 1.391 . S
C739 H769 0.948 . S
C740 C739 1.391 . S
C740 C741 1.391 . S
C741 C740 1.391 . S
C741 C742 1.392 . S
C741 H770 0.947 . S
C742 C741 1.392 . S
C742 C743 1.419 . S
C742 H771 0.948 . S
C743 C742 1.419 . S
C743 C744 1.391 . S
C743 C747 1.397 . S
C744 C739 1.391 . S
C744 C743 1.391 . S
C744 C745 1.399 . S
C745 C744 1.399 . S
C745 C746 1.396 . S
C745 C748 1.453 . S
C745 C749 1.684 . S
C746 C727 1.723 . S
C746 C745 1.396 . S
C746 C747 1.394 . S
C747 C743 1.397 . S
C747 C746 1.394 . S
C747 C757 1.723 . S
C748 C745 1.453 . S
C748 H772 0.982 . S
C748 H773 0.979 . S
C748 H774 0.977 . S
C749 C745 1.684 . S
C749 H775 0.979 . S
C749 H776 0.980 . S
C749 H777 0.983 . S
C750 H726 0.948 . S
C750 C751 1.391 . S
C750 C755 1.391 . S
C751 C750 1.391 . S
C751 C752 1.391 . S
C752 H729 0.947 . S
C752 C751 1.391 . S
C752 C753 1.392 . S
C753 H730 0.948 . S
C753 C752 1.392 . S
C753 C754 1.419 . S
C754 C753 1.419 . S
C754 C755 1.391 . S
C754 C758 1.397 . S
C755 C750 1.391 . S
C755 C754 1.391 . S
C755 C756 1.399 . S
C756 C755 1.399 . S
C756 C757 1.396 . S
C756 C759 1.453 . S
C756 C760 1.684 . S
C757 C747 1.723 . S
C757 C756 1.396 . S
C757 C758 1.394 . S
C758 C728 1.723 . S
C758 C754 1.397 . S
C758 C757 1.394 . S
C759 H731 0.982 . S
C759 H735 0.979 . S
C759 H736 0.977 . S
C759 C756 1.453 . S
C760 H732 0.979 . S
C760 H733 0.980 . S
C760 H734 0.983 . S
C760 C756 1.684 . S
H761 C779 0.948 . S
H762 C720 0.948 . S
H763 C738 0.979 . S
H764 C738 0.980 . S
H765 C738 0.983 . S
H766 C737 0.982 . S
H767 C737 0.979 . S
H768 C737 0.977 . S
H769 C739 0.948 . S
H770 C741 0.947 . S
H771 C742 0.948 . S
H772 C748 0.982 . S
H773 C748 0.979 . S
H774 C748 0.977 . S
H775 C749 0.979 . S
H776 C749 0.980 . S
H777 C749 0.983 . S
H778 C722 0.947 . S
C779 C722 1.392 . S
C779 C723 1.419 . S
C779 H761 0.948 . S
C780 C781 1.391 . S
C780 C784 1.391 . S
C780 H822 0.948 . S
C781 C780 1.391 . S
C781 C782 1.391 . S
C782 C781 1.391 . S
C782 H838 0.947 . S
C782 C839 1.392 . S
C783 C784 1.391 . S
C783 C787 1.397 . S
C783 C839 1.419 . S
C784 C780 1.391 . S
C784 C783 1.391 . S
C784 C785 1.399 . S
C785 C784 1.399 . S
C785 C788 1.396 . S
C785 C797 1.453 . S
C785 C798 1.684 . S
H786 C810 0.948 . S
C787 C783 1.397 . S
C787 C788 1.394 . S
C787 C806 1.723 . S
C788 C785 1.396 . S
C788 C787 1.394 . S
C788 C818 1.723 . S
H789 C812 0.947 . S
H790 C813 0.948 . S
H791 C819 0.982 . S
H792 C820 0.979 . S
H793 C820 0.980 . S
H794 C820 0.983 . S
H795 C819 0.979 . S
H796 C819 0.977 . S
C797 C785 1.453 . S
C797 H826 0.982 . S
C797 H827 0.979 . S
C797 H828 0.977 . S
C798 C785 1.684 . S
C798 H823 0.979 . S
C798 H824 0.980 . S
C798 H825 0.983 . S
C799 C800 1.391 . S
C799 C804 1.391 . S
C799 H829 0.948 . S
C800 C799 1.391 . S
C800 C801 1.391 . S
C801 C800 1.391 . S
C801 C802 1.392 . S
C801 H830 0.947 . S
C802 C801 1.392 . S
C802 C803 1.419 . S
C802 H831 0.948 . S
C803 C802 1.419 . S
C803 C804 1.391 . S
C803 C807 1.397 . S
C804 C799 1.391 . S
C804 C803 1.391 . S
C804 C805 1.399 . S
C805 C804 1.399 . S
C805 C806 1.396 . S
C805 C808 1.453 . S
C805 C809 1.684 . S
C806 C787 1.723 . S
C806 C805 1.396 . S
C806 C807 1.394 . S
C807 C803 1.397 . S
C807 C806 1.394 . S
C807 C817 1.723 . S
C808 C805 1.453 . S
C808 H832 0.982 . S
C808 H833 0.979 . S
C808 H834 0.977 . S
C809 C805 1.684 . S
C809 H835 0.979 . S
C809 H836 0.980 . S
C809 H837 0.983 . S
C810 H786 0.948 . S
C810 C811 1.391 . S
C810 C815 1.391 . S
C811 C810 1.391 . S
C811 C812 1.391 . S
C812 H789 0.947 . S
C812 C811 1.391 . S
C812 C813 1.392 . S
C813 H790 0.948 . S
C813 C812 1.392 . S
C813 C814 1.419 . S
C814 C813 1.419 . S
C814 C815 1.391 . S
C814 C818 1.397 . S
C815 C810 1.391 . S
C815 C814 1.391 . S
C815 C816 1.399 . S
C816 C815 1.399 . S
C816 C817 1.396 . S
C816 C819 1.453 . S
C816 C820 1.684 . S
C817 C807 1.723 . S
C817 C816 1.396 . S
C817 C818 1.394 . S
C818 C788 1.723 . S
C818 C814 1.397 . S
C818 C817 1.394 . S
C819 H791 0.982 . S
C819 H795 0.979 . S
C819 H796 0.977 . S
C819 C816 1.453 . S
C820 H792 0.979 . S
C820 H793 0.980 . S
C820 H794 0.983 . S
C820 C816 1.684 . S
H821 C839 0.948 . S
H822 C780 0.948 . S
H823 C798 0.979 . S
H824 C798 0.980 . S
H825 C798 0.983 . S
H826 C797 0.982 . S
H827 C797 0.979 . S
H828 C797 0.977 . S
H829 C799 0.948 . S
H830 C801 0.947 . S
H831 C802 0.948 . S
H832 C808 0.982 . S
H833 C808 0.979 . S
H834 C808 0.977 . S
H835 C809 0.979 . S
H836 C809 0.980 . S
H837 C809 0.983 . S
H838 C782 0.947 . S
C839 C782 1.392 . S
C839 C783 1.419 . S
C839 H821 0.948 . S
C840 C841 1.391 . S
C840 C844 1.391 . S
C840 H882 0.948 . S
C841 C840 1.391 . S
C841 C842 1.391 . S
C842 C841 1.391 . S
C842 H898 0.947 . S
C842 C899 1.392 . S
C843 C844 1.391 . S
C843 C847 1.397 . S
C843 C899 1.419 . S
C844 C840 1.391 . S
C844 C843 1.391 . S
C844 C845 1.399 . S
C845 C844 1.399 . S
C845 C848 1.396 . S
C845 C857 1.453 . S
C845 C858 1.684 . S
H846 C870 0.948 . S
C847 C843 1.397 . S
C847 C848 1.394 . S
C847 C866 1.723 . S
C848 C845 1.396 . S
C848 C847 1.394 . S
C848 C878 1.723 . S
H849 C872 0.947 . S
H850 C873 0.948 . S
H851 C879 0.982 . S
H852 C880 0.979 . S
H853 C880 0.980 . S
H854 C880 0.983 . S
H855 C879 0.979 . S
H856 C879 0.977 . S
C857 C845 1.453 . S
C857 H886 0.982 . S
C857 H887 0.979 . S
C857 H888 0.977 . S
C858 C845 1.684 . S
C858 H883 0.979 . S
C858 H884 0.980 . S
C858 H885 0.983 . S
C859 C860 1.391 . S
C859 C864 1.391 . S
C859 H889 0.948 . S
C860 C859 1.391 . S
C860 C861 1.391 . S
C861 C860 1.391 . S
C861 C862 1.392 . S
C861 H890 0.947 . S
C862 C861 1.392 . S
C862 C863 1.419 . S
C862 H891 0.948 . S
C863 C862 1.419 . S
C863 C864 1.391 . S
C863 C867 1.397 . S
C864 C859 1.391 . S
C864 C863 1.391 . S
C864 C865 1.399 . S
C865 C864 1.399 . S
C865 C866 1.396 . S
C865 C868 1.453 . S
C865 C869 1.684 . S
C866 C847 1.723 . S
C866 C865 1.396 . S
C866 C867 1.394 . S
C867 C863 1.397 . S
C867 C866 1.394 . S
C867 C877 1.723 . S
C868 C865 1.453 . S
C868 H892 0.982 . S
C868 H893 0.979 . S
C868 H894 0.977 . S
C869 C865 1.684 . S
C869 H895 0.979 . S
C869 H896 0.980 . S
C869 H897 0.983 . S
C870 H846 0.948 . S
C870 C871 1.391 . S
C870 C875 1.391 . S
C871 C870 1.391 . S
C871 C872 1.391 . S
C872 H849 0.947 . S
C872 C871 1.391 . S
C872 C873 1.392 . S
C873 H850 0.948 . S
C873 C872 1.392 . S
C873 C874 1.419 . S
C874 C873 1.419 . S
C874 C875 1.391 . S
C874 C878 1.397 . S
C875 C870 1.391 . S
C875 C874 1.391 . S
C875 C876 1.399 . S
C876 C875 1.399 . S
C876 C877 1.396 . S
C876 C879 1.453 . S
C876 C880 1.684 . S
C877 C867 1.723 . S
C877 C876 1.396 . S
C877 C878 1.394 . S
C878 C848 1.723 . S
C878 C874 1.397 . S
C878 C877 1.394 . S
C879 H851 0.982 . S
C879 H855 0.979 . S
C879 H856 0.977 . S
C879 C876 1.453 . S
C880 H852 0.979 . S
C880 H853 0.980 . S
C880 H854 0.983 . S
C880 C876 1.684 . S
H881 C899 0.948 . S
H882 C840 0.948 . S
H883 C858 0.979 . S
H884 C858 0.980 . S
H885 C858 0.983 . S
H886 C857 0.982 . S
H887 C857 0.979 . S
H888 C857 0.977 . S
H889 C859 0.948 . S
H890 C861 0.947 . S
H891 C862 0.948 . S
H892 C868 0.982 . S
H893 C868 0.979 . S
H894 C868 0.977 . S
H895 C869 0.979 . S
H896 C869 0.980 . S
H897 C869 0.983 . S
H898 C842 0.947 . S
C899 C842 1.392 . S
C899 C843 1.419 . S
C899 H881 0.948 . S
C900 C901 1.391 . S
C900 C904 1.391 . S
C900 H942 0.948 . S
C901 C900 1.391 . S
C901 C902 1.391 . S
C902 C901 1.391 . S
C902 H958 0.947 . S
C902 C959 1.392 . S
C903 C904 1.391 . S
C903 C907 1.397 . S
C903 C959 1.419 . S
C904 C900 1.391 . S
C904 C903 1.391 . S
C904 C905 1.399 . S
C905 C904 1.399 . S
C905 C908 1.396 . S
C905 C917 1.453 . S
C905 C918 1.684 . S
H906 C930 0.948 . S
C907 C903 1.397 . S
C907 C908 1.394 . S
C907 C926 1.723 . S
C908 C905 1.396 . S
C908 C907 1.394 . S
C908 C938 1.723 . S
H909 C932 0.947 . S
H910 C933 0.948 . S
H911 C939 0.982 . S
H912 C940 0.979 . S
H913 C940 0.980 . S
H914 C940 0.983 . S
H915 C939 0.979 . S
H916 C939 0.977 . S
C917 C905 1.453 . S
C917 H946 0.982 . S
C917 H947 0.979 . S
C917 H948 0.977 . S
C918 C905 1.684 . S
C918 H943 0.979 . S
C918 H944 0.980 . S
C918 H945 0.983 . S
C919 C920 1.391 . S
C919 C924 1.391 . S
C919 H949 0.948 . S
C920 C919 1.391 . S
C920 C921 1.391 . S
C921 C920 1.391 . S
C921 C922 1.392 . S
C921 H950 0.947 . S
C922 C921 1.392 . S
C922 C923 1.419 . S
C922 H951 0.948 . S
C923 C922 1.419 . S
C923 C924 1.391 . S
C923 C927 1.397 . S
C924 C919 1.391 . S
C924 C923 1.391 . S
C924 C925 1.399 . S
C925 C924 1.399 . S
C925 C926 1.396 . S
C925 C928 1.453 . S
C925 C929 1.684 . S
C926 C907 1.723 . S
C926 C925 1.396 . S
C926 C927 1.394 . S
C927 C923 1.397 . S
C927 C926 1.394 . S
C927 C937 1.723 . S
C928 C925 1.453 . S
C928 H952 0.982 . S
C928 H953 0.979 . S
C928 H954 0.977 . S
C929 C925 1.684 . S
C929 H955 0.979 . S
C929 H956 0.980 . S
C929 H957 0.983 . S
C930 H906 0.948 . S
C930 C931 1.391 . S
C930 C935 1.391 . S
C931 C930 1.391 . S
C931 C932 1.391 . S
C932 H909 0.947 . S
C932 C931 1.391 . S
C932 C933 1.392 . S
C933 H910 0.948 . S
C933 C932 1.392 . S
C933 C934 1.419 . S
C934 C933 1.419 . S
C934 C935 1.391 . S
C934 C938 1.397 . S
C935 C930 1.391 . S
C935 C934 1.391 . S
C935 C936 1.399 . S
C936 C935 1.399 . S
C936 C937 1.396 . S
C936 C939 1.453 . S
C936 C940 1.684 . S
C937 C927 1.723 . S
C937 C936 1.396 . S
C937 C938 1.394 . S
C938 C908 1.723 . S
C938 C934 1.397 . S
C938 C937 1.394 . S
C939 H911 0.982 . S
C939 H915 0.979 . S
C939 H916 0.977 . S
C939 C936 1.453 . S
C940 H912 0.979 . S
C940 H913 0.980 . S
C940 H914 0.983 . S
C940 C936 1.684 . S
H941 C959 0.948 . S
H942 C900 0.948 . S
H943 C918 0.979 . S
H944 C918 0.980 . S
H945 C918 0.983 . S
H946 C917 0.982 . S
H947 C917 0.979 . S
H948 C917 0.977 . S
H949 C919 0.948 . S
H950 C921 0.947 . S
H951 C922 0.948 . S
H952 C928 0.982 . S
H953 C928 0.979 . S
H954 C928 0.977 . S
H955 C929 0.979 . S
H956 C929 0.980 . S
H957 C929 0.983 . S
H958 C902 0.947 . S
C959 C902 1.392 . S
C959 C903 1.419 . S
C959 H941 0.948 . S
C960 C961 1.391 . S
C960 C964 1.391 . S
C960 H1002 0.948 . S
C961 C960 1.391 . S
C961 C962 1.391 . S
C962 C961 1.391 . S
C962 H1018 0.947 . S
C962 C1019 1.392 . S
C963 C964 1.391 . S
C963 C967 1.397 . S
C963 C1019 1.419 . S
C964 C960 1.391 . S
C964 C963 1.391 . S
C964 C965 1.399 . S
C965 C964 1.399 . S
C965 C968 1.396 . S
C965 C977 1.453 . S
C965 C978 1.684 . S
H966 C990 0.948 . S
C967 C963 1.397 . S
C967 C968 1.394 . S
C967 C986 1.723 . S
C968 C965 1.396 . S
C968 C967 1.394 . S
C968 C998 1.723 . S
H969 C992 0.947 . S
H970 C993 0.948 . S
H971 C999 0.982 . S
H972 C1000 0.979 1_655 S
H973 C1000 0.980 . S
H974 C1000 0.983 . S
H975 C999 0.979 . S
H976 C999 0.977 . S
C977 C965 1.453 . S
C977 H1006 0.982 . S
C977 H1007 0.979 . S
C977 H1008 0.977 . S
C978 C965 1.684 . S
C978 H1003 0.979 . S
C978 H1004 0.980 . S
C978 H1005 0.983 . S
C979 C980 1.391 . S
C979 C984 1.391 . S
C979 H1009 0.948 . S
C980 C979 1.391 . S
C980 C981 1.391 . S
C981 C980 1.391 . S
C981 C982 1.392 . S
C981 H1010 0.947 . S
C982 C981 1.392 . S
C982 C983 1.419 . S
C982 H1011 0.948 . S
C983 C982 1.419 . S
C983 C984 1.391 . S
C983 C987 1.397 . S
C984 C979 1.391 . S
C984 C983 1.391 . S
C984 C985 1.399 . S
C985 C984 1.399 . S
C985 C986 1.396 . S
C985 C988 1.453 . S
C985 C989 1.684 . S
C986 C967 1.723 . S
C986 C985 1.396 . S
C986 C987 1.394 . S
C987 C983 1.397 . S
C987 C986 1.394 . S
C987 C997 1.723 . S
C988 C985 1.453 . S
C988 H1012 0.982 . S
C988 H1013 0.979 . S
C988 H1014 0.977 . S
C989 C985 1.684 . S
C989 H1015 0.979 1_455 S
C989 H1016 0.980 . S
C989 H1017 0.983 . S
C990 H966 0.948 . S
C990 C991 1.391 . S
C990 C995 1.391 . S
C991 C990 1.391 . S
C991 C992 1.391 . S
C992 H969 0.947 . S
C992 C991 1.391 . S
C992 C993 1.392 . S
C993 H970 0.948 . S
C993 C992 1.392 . S
C993 C994 1.419 . S
C994 C993 1.419 . S
C994 C995 1.391 . S
C994 C998 1.397 . S
C995 C990 1.391 . S
C995 C994 1.391 . S
C995 C996 1.399 . S
C996 C995 1.399 . S
C996 C997 1.396 . S
C996 C999 1.453 . S
C996 C1000 1.684 . S
C997 C987 1.723 . S
C997 C996 1.396 . S
C997 C998 1.394 . S
C998 C968 1.723 . S
C998 C994 1.397 . S
C998 C997 1.394 . S
C999 H971 0.982 . S
C999 H975 0.979 . S
C999 H976 0.977 . S
C999 C996 1.453 . S
C1000 H972 0.979 1_455 S
C1000 H973 0.980 . S
C1000 H974 0.983 . S
C1000 C996 1.684 . S
H1001 C1019 0.948 . S
H1002 C960 0.948 . S
H1003 C978 0.979 . S
H1004 C978 0.980 . S
H1005 C978 0.983 . S
H1006 C977 0.982 . S
H1007 C977 0.979 . S
H1008 C977 0.977 . S
H1009 C979 0.948 . S
H1010 C981 0.947 . S
H1011 C982 0.948 . S
H1012 C988 0.982 . S
H1013 C988 0.979 . S
H1014 C988 0.977 . S
H1015 C989 0.979 1_655 S
H1016 C989 0.980 . S
H1017 C989 0.983 . S
H1018 C962 0.947 . S
C1019 C962 1.392 . S
C1019 C963 1.419 . S
C1019 H1001 0.948 . S
C1020 C1021 1.391 . S
C1020 C1024 1.391 . S
C1020 H1062 0.948 . S
C1021 C1020 1.391 . S
C1021 C1022 1.391 . S
C1022 C1021 1.391 . S
C1022 H1078 0.947 . S
C1022 C1079 1.392 . S
C1023 C1024 1.391 . S
C1023 C1027 1.397 . S
C1023 C1079 1.419 . S
C1024 C1020 1.391 . S
C1024 C1023 1.391 . S
C1024 C1025 1.399 . S
C1025 C1024 1.399 . S
C1025 C1028 1.396 . S
C1025 C1037 1.453 . S
C1025 C1038 1.684 . S
H1026 C1050 0.948 . S
C1027 C1023 1.397 . S
C1027 C1028 1.394 . S
C1027 C1046 1.723 . S
C1028 C1025 1.396 . S
C1028 C1027 1.394 . S
C1028 C1058 1.723 . S
H1029 C1052 0.947 . S
H1030 C1053 0.948 . S
H1031 C1059 0.982 . S
H1032 C1060 0.979 . S
H1033 C1060 0.980 . S
H1034 C1060 0.983 . S
H1035 C1059 0.979 . S
H1036 C1059 0.977 . S
C1037 C1025 1.453 . S
C1037 H1066 0.982 . S
C1037 H1067 0.979 . S
C1037 H1068 0.977 . S
C1038 C1025 1.684 . S
C1038 H1063 0.979 . S
C1038 H1064 0.980 . S
C1038 H1065 0.983 . S
C1039 C1040 1.391 . S
C1039 C1044 1.391 . S
C1039 H1069 0.948 . S
C1040 C1039 1.391 . S
C1040 C1041 1.391 . S
C1041 C1040 1.391 . S
C1041 C1042 1.392 . S
C1041 H1070 0.947 . S
C1042 C1041 1.392 . S
C1042 C1043 1.419 . S
C1042 H1071 0.948 . S
C1043 C1042 1.419 . S
C1043 C1044 1.391 . S
C1043 C1047 1.397 . S
C1044 C1039 1.391 . S
C1044 C1043 1.391 . S
C1044 C1045 1.399 . S
C1045 C1044 1.399 . S
C1045 C1046 1.396 . S
C1045 C1048 1.453 . S
C1045 C1049 1.684 . S
C1046 C1027 1.723 . S
C1046 C1045 1.396 . S
C1046 C1047 1.394 . S
C1047 C1043 1.397 . S
C1047 C1046 1.394 . S
C1047 C1057 1.723 . S
C1048 C1045 1.453 . S
C1048 H1072 0.982 . S
C1048 H1073 0.979 . S
C1048 H1074 0.977 . S
C1049 C1045 1.684 . S
C1049 H1075 0.979 . S
C1049 H1076 0.980 . S
C1049 H1077 0.983 . S
C1050 H1026 0.948 . S
C1050 C1051 1.391 . S
C1050 C1055 1.391 . S
C1051 C1050 1.391 . S
C1051 C1052 1.391 . S
C1052 H1029 0.947 . S
C1052 C1051 1.391 . S
C1052 C1053 1.392 . S
C1053 H1030 0.948 . S
C1053 C1052 1.392 . S
C1053 C1054 1.419 . S
C1054 C1053 1.419 . S
C1054 C1055 1.391 . S
C1054 C1058 1.397 . S
C1055 C1050 1.391 . S
C1055 C1054 1.391 . S
C1055 C1056 1.399 . S
C1056 C1055 1.399 . S
C1056 C1057 1.396 . S
C1056 C1059 1.453 . S
C1056 C1060 1.684 . S
C1057 C1047 1.723 . S
C1057 C1056 1.396 . S
C1057 C1058 1.394 . S
C1058 C1028 1.723 . S
C1058 C1054 1.397 . S
C1058 C1057 1.394 . S
C1059 H1031 0.982 . S
C1059 H1035 0.979 . S
C1059 H1036 0.977 . S
C1059 C1056 1.453 . S
C1060 H1032 0.979 . S
C1060 H1033 0.980 . S
C1060 H1034 0.983 . S
C1060 C1056 1.684 . S
H1061 C1079 0.948 . S
H1062 C1020 0.948 . S
H1063 C1038 0.979 . S
H1064 C1038 0.980 . S
H1065 C1038 0.983 . S
H1066 C1037 0.982 . S
H1067 C1037 0.979 . S
H1068 C1037 0.977 . S
H1069 C1039 0.948 . S
H1070 C1041 0.947 . S
H1071 C1042 0.948 . S
H1072 C1048 0.982 . S
H1073 C1048 0.979 . S
H1074 C1048 0.977 . S
H1075 C1049 0.979 . S
H1076 C1049 0.980 . S
H1077 C1049 0.983 . S
H1078 C1022 0.947 . S
C1079 C1022 1.392 . S
C1079 C1023 1.419 . S
C1079 H1061 0.948 . S
C1080 Eu1081 2.835 . S
C1080 C1082 1.500 . S
C1080 O1100 1.257 1_545 S
C1080 O1101 1.260 . S
Eu1081 C1080 2.835 . S
Eu1081 O1100 2.473 1_545 S
Eu1081 O1101 2.480 . S
Eu1081 O1102 2.430 . S
Eu1081 O1103 2.670 1_554 S
Eu1081 O1104 2.394 1_545 S
Eu1081 O1109 2.355 1_545 S
Eu1081 O1111 2.374 . S
C1082 C1080 1.500 . S
C1082 C1083 1.377 . S
C1082 C1087 1.377 1_545 S
C1083 C1082 1.377 . S
C1083 C1084 1.395 . S
C1083 H1112 0.931 . S
C1084 C1083 1.395 . S
C1084 C1085 1.383 1_545 S
C1084 H1113 0.931 . S
C1085 C1084 1.383 1_565 S
C1085 C1086 1.394 . S
C1086 C1085 1.394 . S
C1086 C1087 1.378 . S
C1086 H1114 0.931 . S
C1087 C1082 1.377 1_565 S
C1087 C1086 1.378 . S
C1087 H1115 0.931 . S
C1088 O1102 1.259 1_556 S
C1088 O1103 1.270 . S
C1089 O1104 1.251 . S
C1089 O1105 1.251 1_554 S
C1090 Eu1091 2.835 . S
C1090 C1092 1.500 . S
C1090 O1106 1.257 1_565 S
C1090 O1107 1.260 . S
Eu1091 C1090 2.835 . S
Eu1091 O1103 2.355 1_565 S
Eu1091 O1105 2.374 . S
Eu1091 O1106 2.473 1_565 S
Eu1091 O1107 2.480 . S
Eu1091 O1108 2.430 . S
Eu1091 O1109 2.670 1_556 S
Eu1091 O1110 2.394 1_565 S
C1092 C1090 1.500 . S
C1092 C1093 1.377 . S
C1092 C1097 1.377 1_565 S
C1093 C1092 1.377 . S
C1093 C1094 1.395 . S
C1093 H1116 0.931 . S
C1094 C1093 1.395 . S
C1094 C1095 1.383 1_565 S
C1094 H1117 0.931 . S
C1095 C1094 1.383 1_545 S
C1095 C1096 1.394 . S
C1096 C1095 1.394 . S
C1096 C1097 1.378 . S
C1096 H1118 0.931 . S
C1097 C1092 1.377 1_545 S
C1097 C1096 1.378 . S
C1097 H1119 0.931 . S
C1098 O1108 1.259 1_554 S
C1098 O1109 1.270 . S
C1099 O1110 1.251 . S
C1099 O1111 1.251 1_556 S
O1100 C1080 1.257 1_565 S
O1100 Eu1081 2.473 1_565 S
O1101 C1080 1.260 . S
O1101 Eu1081 2.480 . S
O1102 Eu1081 2.430 . S
O1102 C1088 1.259 1_554 S
O1103 Eu1081 2.670 1_556 S
O1103 C1088 1.270 . S
O1103 Eu1091 2.355 1_545 S
O1104 Eu1081 2.394 1_565 S
O1104 C1089 1.251 . S
O1105 C1089 1.251 1_556 S
O1105 Eu1091 2.374 . S
O1106 C1090 1.257 1_545 S
O1106 Eu1091 2.473 1_545 S
O1107 C1090 1.260 . S
O1107 Eu1091 2.480 . S
O1108 Eu1091 2.430 . S
O1108 C1098 1.259 1_556 S
O1109 Eu1081 2.355 1_565 S
O1109 Eu1091 2.670 1_554 S
O1109 C1098 1.270 . S
O1110 Eu1091 2.394 1_545 S
O1110 C1099 1.251 . S
O1111 Eu1081 2.374 . S
O1111 C1099 1.251 1_554 S
H1112 C1083 0.931 . S
H1113 C1084 0.931 . S
H1114 C1086 0.931 . S
H1115 C1087 0.931 . S
H1116 C1093 0.931 . S
H1117 C1094 0.931 . S
H1118 C1096 0.931 . S
H1119 C1097 0.931 . S
C1120 Eu1121 2.835 . S
C1120 C1122 1.500 1_655 S
C1120 O1140 1.257 1_655 S
C1120 O1141 1.260 . S
Eu1121 C1120 2.835 . S
Eu1121 O1140 2.473 1_655 S
Eu1121 O1141 2.480 . S
Eu1121 O1142 2.430 . S
Eu1121 O1143 2.670 1_554 S
Eu1121 O1144 2.394 1_655 S
Eu1121 O1149 2.355 1_655 S
Eu1121 O1151 2.393 . S
C1122 C1120 1.500 1_455 S
C1122 C1123 1.377 1_455 S
C1122 C1127 1.377 . S
C1123 C1122 1.377 1_655 S
C1123 C1124 1.395 . S
C1123 H1152 0.931 . S
C1124 C1123 1.395 . S
C1124 C1125 1.383 1_655 S
C1124 H1153 0.931 . S
C1125 C1124 1.383 1_455 S
C1125 C1126 1.394 . S
C1126 C1125 1.394 . S
C1126 C1127 1.378 . S
C1126 H1154 0.931 . S
C1127 C1122 1.377 . S
C1127 C1126 1.378 . S
C1127 H1155 0.931 . S
C1128 O1142 1.259 1_556 S
C1128 O1143 1.270 . S
C1129 O1144 1.251 . S
C1129 O1145 1.282 . S
C1130 Eu1131 2.835 . S
C1130 C1132 1.500 1_455 S
C1130 O1146 1.257 1_455 S
C1130 O1147 1.260 . S
Eu1131 C1130 2.835 . S
Eu1131 O1143 2.355 1_455 S
Eu1131 O1145 2.352 1_556 S
Eu1131 O1146 2.473 1_455 S
Eu1131 O1147 2.480 . S
Eu1131 O1148 2.430 . S
Eu1131 O1149 2.670 1_556 S
Eu1131 O1150 2.394 1_455 S
C1132 C1130 1.500 1_655 S
C1132 C1133 1.377 1_655 S
C1132 C1137 1.377 . S
C1133 C1132 1.377 1_455 S
C1133 C1134 1.395 . S
C1133 H1156 0.931 . S
C1134 C1133 1.395 . S
C1134 C1135 1.383 1_455 S
C1134 H1157 0.931 . S
C1135 C1134 1.383 1_655 S
C1135 C1136 1.394 . S
C1136 C1135 1.394 . S
C1136 C1137 1.378 . S
C1136 H1158 0.931 . S
C1137 C1132 1.377 . S
C1137 C1136 1.378 . S
C1137 H1159 0.931 . S
C1138 O1148 1.259 1_554 S
C1138 O1149 1.270 . S
C1139 O1150 1.251 . S
C1139 O1151 1.224 1_556 S
O1140 C1120 1.257 1_455 S
O1140 Eu1121 2.473 1_455 S
O1141 C1120 1.260 . S
O1141 Eu1121 2.480 . S
O1142 Eu1121 2.430 . S
O1142 C1128 1.259 1_554 S
O1143 Eu1121 2.670 1_556 S
O1143 C1128 1.270 . S
O1143 Eu1131 2.355 1_655 S
O1144 Eu1121 2.394 1_455 S
O1144 C1129 1.251 . S
O1145 C1129 1.282 . S
O1145 Eu1131 2.352 1_554 S
O1146 C1130 1.257 1_655 S
O1146 Eu1131 2.473 1_655 S
O1147 C1130 1.260 . S
O1147 Eu1131 2.480 . S
O1148 Eu1131 2.430 . S
O1148 C1138 1.259 1_556 S
O1149 Eu1121 2.355 1_455 S
O1149 Eu1131 2.670 1_554 S
O1149 C1138 1.270 . S
O1150 Eu1131 2.394 1_655 S
O1150 C1139 1.251 . S
O1151 Eu1121 2.393 . S
O1151 C1139 1.224 1_554 S
H1152 C1123 0.931 . S
H1153 C1124 0.931 . S
H1154 C1126 0.931 . S
H1155 C1127 0.931 . S
H1156 C1133 0.931 . S
H1157 C1134 0.931 . S
H1158 C1136 0.931 . S
H1159 C1137 0.931 . S
C1160 Eu1161 2.835 . S
C1160 C1162 1.500 . S
C1160 O1180 1.257 . S
C1160 O1181 1.260 . S
Eu1161 C1160 2.835 . S
Eu1161 O1180 2.473 . S
Eu1161 O1181 2.480 . S
Eu1161 O1182 2.430 . S
Eu1161 O1183 2.670 1_556 S
Eu1161 O1184 2.394 . S
Eu1161 O1189 2.355 . S
Eu1161 O1191 2.374 . S
C1162 C1160 1.500 . S
C1162 C1163 1.377 . S
C1162 C1167 1.377 . S
C1163 C1162 1.377 . S
C1163 C1164 1.395 . S
C1163 H1192 0.931 . S
C1164 C1163 1.395 . S
C1164 C1165 1.383 . S
C1164 H1193 0.931 . S
C1165 C1164 1.383 . S
C1165 C1166 1.394 . S
C1166 C1165 1.394 . S
C1166 C1167 1.378 . S
C1166 H1194 0.931 . S
C1167 C1162 1.377 . S
C1167 C1166 1.378 . S
C1167 H1195 0.931 . S
C1168 O1182 1.259 1_554 S
C1168 O1183 1.270 . S
C1169 O1184 1.251 . S
C1169 O1185 1.251 1_556 S
C1170 Eu1171 2.835 . S
C1170 C1172 1.500 . S
C1170 O1186 1.257 . S
C1170 O1187 1.260 . S
Eu1171 C1170 2.835 . S
Eu1171 O1183 2.355 . S
Eu1171 O1185 2.374 . S
Eu1171 O1186 2.473 . S
Eu1171 O1187 2.480 . S
Eu1171 O1188 2.430 . S
Eu1171 O1189 2.670 1_554 S
Eu1171 O1190 2.394 . S
C1172 C1170 1.500 . S
C1172 C1173 1.377 . S
C1172 C1177 1.377 . S
C1173 C1172 1.377 . S
C1173 C1174 1.395 . S
C1173 H1196 0.931 . S
C1174 C1173 1.395 . S
C1174 C1175 1.383 . S
C1174 H1197 0.931 . S
C1175 C1174 1.383 . S
C1175 C1176 1.394 . S
C1176 C1175 1.394 . S
C1176 C1177 1.378 . S
C1176 H1198 0.931 . S
C1177 C1172 1.377 . S
C1177 C1176 1.378 . S
C1177 H1199 0.931 . S
C1178 O1188 1.259 1_556 S
C1178 O1189 1.270 . S
C1179 O1190 1.251 . S
C1179 O1191 1.251 1_554 S
O1180 C1160 1.257 . S
O1180 Eu1161 2.473 . S
O1181 C1160 1.260 . S
O1181 Eu1161 2.480 . S
O1182 Eu1161 2.430 . S
O1182 C1168 1.259 1_556 S
O1183 Eu1161 2.670 1_554 S
O1183 C1168 1.270 . S
O1183 Eu1171 2.355 . S
O1184 Eu1161 2.394 . S
O1184 C1169 1.251 . S
O1185 C1169 1.251 1_554 S
O1185 Eu1171 2.374 . S
O1186 C1170 1.257 . S
O1186 Eu1171 2.473 . S
O1187 C1170 1.260 . S
O1187 Eu1171 2.480 . S
O1188 Eu1171 2.430 . S
O1188 C1178 1.259 1_554 S
O1189 Eu1161 2.355 . S
O1189 Eu1171 2.670 1_556 S
O1189 C1178 1.270 . S
O1190 Eu1171 2.394 . S
O1190 C1179 1.251 . S
O1191 Eu1161 2.374 . S
O1191 C1179 1.251 1_556 S
H1192 C1163 0.931 . S
H1193 C1164 0.931 . S
H1194 C1166 0.931 . S
H1195 C1167 0.931 . S
H1196 C1173 0.931 . S
H1197 C1174 0.931 . S
H1198 C1176 0.931 . S
H1199 C1177 0.931 . S
C1200 Eu1201 2.835 . S
C1200 C1202 1.500 . S
C1200 O1220 1.257 . S
C1200 O1221 1.260 . S
Eu1201 C1200 2.835 . S
Eu1201 O1220 2.473 . S
Eu1201 O1221 2.480 . S
Eu1201 O1222 2.430 . S
Eu1201 O1223 2.670 . S
Eu1201 O1224 2.394 . S
Eu1201 O1229 2.355 . S
Eu1201 O1231 2.374 . S
C1202 C1200 1.500 . S
C1202 C1203 1.377 . S
C1202 C1207 1.377 . S
C1203 C1202 1.377 . S
C1203 C1204 1.395 . S
C1203 H1232 0.931 . S
C1204 C1203 1.395 . S
C1204 C1205 1.383 . S
C1204 H1233 0.931 . S
C1205 C1204 1.383 . S
C1205 C1206 1.394 . S
C1206 C1205 1.394 . S
C1206 C1207 1.378 . S
C1206 H1234 0.931 . S
C1207 C1202 1.377 . S
C1207 C1206 1.378 . S
C1207 H1235 0.931 . S
C1208 O1222 1.259 . S
C1208 O1223 1.270 . S
C1209 O1224 1.251 . S
C1209 O1225 1.251 . S
C1210 Eu1211 2.835 . S
C1210 C1212 1.500 . S
C1210 O1226 1.257 . S
C1210 O1227 1.260 . S
Eu1211 C1210 2.835 . S
Eu1211 O1223 2.355 . S
Eu1211 O1225 2.374 . S
Eu1211 O1226 2.473 . S
Eu1211 O1227 2.480 . S
Eu1211 O1228 2.430 . S
Eu1211 O1229 2.670 . S
Eu1211 O1230 2.394 . S
C1212 C1210 1.500 . S
C1212 C1213 1.377 . S
C1212 C1217 1.377 . S
C1213 C1212 1.377 . S
C1213 C1214 1.395 . S
C1213 H1236 0.931 . S
C1214 C1213 1.395 . S
C1214 C1215 1.383 . S
C1214 H1237 0.931 . S
C1215 C1214 1.383 . S
C1215 C1216 1.394 . S
C1216 C1215 1.394 . S
C1216 C1217 1.378 . S
C1216 H1238 0.931 . S
C1217 C1212 1.377 . S
C1217 C1216 1.378 . S
C1217 H1239 0.931 . S
C1218 O1228 1.259 . S
C1218 O1229 1.270 . S
C1219 O1230 1.251 . S
C1219 O1231 1.251 . S
O1220 C1200 1.257 . S
O1220 Eu1201 2.473 . S
O1221 C1200 1.260 . S
O1221 Eu1201 2.480 . S
O1222 Eu1201 2.430 . S
O1222 C1208 1.259 . S
O1223 Eu1201 2.670 . S
O1223 C1208 1.270 . S
O1223 Eu1211 2.355 . S
O1224 Eu1201 2.394 . S
O1224 C1209 1.251 . S
O1225 C1209 1.251 . S
O1225 Eu1211 2.374 . S
O1226 C1210 1.257 . S
O1226 Eu1211 2.473 . S
O1227 C1210 1.260 . S
O1227 Eu1211 2.480 . S
O1228 Eu1211 2.430 . S
O1228 C1218 1.259 . S
O1229 Eu1201 2.355 . S
O1229 Eu1211 2.670 . S
O1229 C1218 1.270 . S
O1230 Eu1211 2.394 . S
O1230 C1219 1.251 . S
O1231 Eu1201 2.374 . S
O1231 C1219 1.251 . S
H1232 C1203 0.931 . S
H1233 C1204 0.931 . S
H1234 C1206 0.931 . S
H1235 C1207 0.931 . S
H1236 C1213 0.931 . S
H1237 C1214 0.931 . S
H1238 C1216 0.931 . S
H1239 C1217 0.931 . S
C1240 Eu1241 2.835 . S
C1240 C1242 1.500 . S
C1240 O1260 1.257 . S
C1240 O1261 1.260 . S
Eu1241 C1240 2.835 . S
Eu1241 O1260 2.473 . S
Eu1241 O1261 2.480 . S
Eu1241 O1262 2.430 . S
Eu1241 O1263 2.670 . S
Eu1241 O1264 2.394 . S
Eu1241 O1269 2.355 . S
Eu1241 O1271 2.374 . S
C1242 C1240 1.500 . S
C1242 C1243 1.377 . S
C1242 C1247 1.377 . S
C1243 C1242 1.377 . S
C1243 C1244 1.395 . S
C1243 H1272 0.931 . S
C1244 C1243 1.395 . S
C1244 C1245 1.383 . S
C1244 H1273 0.931 . S
C1245 C1244 1.383 . S
C1245 C1246 1.394 . S
C1246 C1245 1.394 . S
C1246 C1247 1.378 . S
C1246 H1274 0.931 . S
C1247 C1242 1.377 . S
C1247 C1246 1.378 . S
C1247 H1275 0.931 . S
C1248 O1262 1.259 . S
C1248 O1263 1.270 . S
C1249 O1264 1.251 . S
C1249 O1265 1.251 . S
C1250 Eu1251 2.835 . S
C1250 C1252 1.500 . S
C1250 O1266 1.257 . S
C1250 O1267 1.260 . S
Eu1251 C1250 2.835 . S
Eu1251 O1263 2.355 . S
Eu1251 O1265 2.374 . S
Eu1251 O1266 2.473 . S
Eu1251 O1267 2.480 . S
Eu1251 O1268 2.430 . S
Eu1251 O1269 2.670 . S
Eu1251 O1270 2.394 . S
C1252 C1250 1.500 . S
C1252 C1253 1.377 . S
C1252 C1257 1.377 . S
C1253 C1252 1.377 . S
C1253 C1254 1.395 . S
C1253 H1276 0.931 . S
C1254 C1253 1.395 . S
C1254 C1255 1.383 . S
C1254 H1277 0.931 . S
C1255 C1254 1.383 . S
C1255 C1256 1.394 . S
C1256 C1255 1.394 . S
C1256 C1257 1.378 . S
C1256 H1278 0.931 . S
C1257 C1252 1.377 . S
C1257 C1256 1.378 . S
C1257 H1279 0.931 . S
C1258 O1268 1.259 . S
C1258 O1269 1.270 . S
C1259 O1270 1.251 . S
C1259 O1271 1.251 . S
O1260 C1240 1.257 . S
O1260 Eu1241 2.473 . S
O1261 C1240 1.260 . S
O1261 Eu1241 2.480 . S
O1262 Eu1241 2.430 . S
O1262 C1248 1.259 . S
O1263 Eu1241 2.670 . S
O1263 C1248 1.270 . S
O1263 Eu1251 2.355 . S
O1264 Eu1241 2.394 . S
O1264 C1249 1.251 . S
O1265 C1249 1.251 . S
O1265 Eu1251 2.374 . S
O1266 C1250 1.257 . S
O1266 Eu1251 2.473 . S
O1267 C1250 1.260 . S
O1267 Eu1251 2.480 . S
O1268 Eu1251 2.430 . S
O1268 C1258 1.259 . S
O1269 Eu1241 2.355 . S
O1269 Eu1251 2.670 . S
O1269 C1258 1.270 . S
O1270 Eu1251 2.394 . S
O1270 C1259 1.251 . S
O1271 Eu1241 2.374 . S
O1271 C1259 1.251 . S
H1272 C1243 0.931 . S
H1273 C1244 0.931 . S
H1274 C1246 0.931 . S
H1275 C1247 0.931 . S
H1276 C1253 0.931 . S
H1277 C1254 0.931 . S
H1278 C1256 0.931 . S
H1279 C1257 0.931 . S
C1280 Eu1281 2.835 . S
C1280 C1282 1.500 . S
C1280 O1300 1.257 . S
C1280 O1301 1.260 . S
Eu1281 C1280 2.835 . S
Eu1281 O1300 2.473 . S
Eu1281 O1301 2.480 . S
Eu1281 O1302 2.430 . S
Eu1281 O1303 2.670 . S
Eu1281 O1304 2.394 . S
Eu1281 O1309 2.355 . S
Eu1281 O1311 2.374 . S
C1282 C1280 1.500 . S
C1282 C1283 1.377 . S
C1282 C1287 1.377 . S
C1283 C1282 1.377 . S
C1283 C1284 1.395 . S
C1283 H1312 0.931 . S
C1284 C1283 1.395 . S
C1284 C1285 1.383 . S
C1284 H1313 0.931 . S
C1285 C1284 1.383 . S
C1285 C1286 1.394 . S
C1286 C1285 1.394 . S
C1286 C1287 1.378 . S
C1286 H1314 0.931 . S
C1287 C1282 1.377 . S
C1287 C1286 1.378 . S
C1287 H1315 0.931 . S
C1288 O1302 1.259 . S
C1288 O1303 1.270 . S
C1289 O1304 1.251 . S
C1289 O1305 1.251 . S
C1290 Eu1291 2.835 . S
C1290 C1292 1.500 . S
C1290 O1306 1.257 . S
C1290 O1307 1.260 . S
Eu1291 C1290 2.835 . S
Eu1291 O1303 2.355 . S
Eu1291 O1305 2.374 . S
Eu1291 O1306 2.473 . S
Eu1291 O1307 2.480 . S
Eu1291 O1308 2.430 . S
Eu1291 O1309 2.670 . S
Eu1291 O1310 2.394 . S
C1292 C1290 1.500 . S
C1292 C1293 1.377 . S
C1292 C1297 1.377 . S
C1293 C1292 1.377 . S
C1293 C1294 1.395 . S
C1293 H1316 0.931 . S
C1294 C1293 1.395 . S
C1294 C1295 1.383 . S
C1294 H1317 0.931 . S
C1295 C1294 1.383 . S
C1295 C1296 1.394 . S
C1296 C1295 1.394 . S
C1296 C1297 1.378 . S
C1296 H1318 0.931 . S
C1297 C1292 1.377 . S
C1297 C1296 1.378 . S
C1297 H1319 0.931 . S
C1298 O1308 1.259 . S
C1298 O1309 1.270 . S
C1299 O1310 1.251 . S
C1299 O1311 1.251 . S
O1300 C1280 1.257 . S
O1300 Eu1281 2.473 . S
O1301 C1280 1.260 . S
O1301 Eu1281 2.480 . S
O1302 Eu1281 2.430 . S
O1302 C1288 1.259 . S
O1303 Eu1281 2.670 . S
O1303 C1288 1.270 . S
O1303 Eu1291 2.355 . S
O1304 Eu1281 2.394 . S
O1304 C1289 1.251 . S
O1305 C1289 1.251 . S
O1305 Eu1291 2.374 . S
O1306 C1290 1.257 . S
O1306 Eu1291 2.473 . S
O1307 C1290 1.260 . S
O1307 Eu1291 2.480 . S
O1308 Eu1291 2.430 . S
O1308 C1298 1.259 . S
O1309 Eu1281 2.355 . S
O1309 Eu1291 2.670 . S
O1309 C1298 1.270 . S
O1310 Eu1291 2.394 . S
O1310 C1299 1.251 . S
O1311 Eu1281 2.374 . S
O1311 C1299 1.251 . S
H1312 C1283 0.931 . S
H1313 C1284 0.931 . S
H1314 C1286 0.931 . S
H1315 C1287 0.931 . S
H1316 C1293 0.931 . S
H1317 C1294 0.931 . S
H1318 C1296 0.931 . S
H1319 C1297 0.931 . S
C1320 Eu1321 2.835 . S
C1320 C1322 1.500 . S
C1320 O1340 1.257 . S
C1320 O1341 1.260 . S
Eu1321 C1320 2.835 . S
Eu1321 O1340 2.473 . S
Eu1321 O1341 2.480 . S
Eu1321 O1342 2.430 . S
Eu1321 O1343 2.670 . S
Eu1321 O1344 2.394 . S
Eu1321 O1349 2.355 . S
Eu1321 O1351 2.374 . S
C1322 C1320 1.500 . S
C1322 C1323 1.377 . S
C1322 C1327 1.377 . S
C1323 C1322 1.377 . S
C1323 C1324 1.395 . S
C1323 H1352 0.931 . S
C1324 C1323 1.395 . S
C1324 C1325 1.383 . S
C1324 H1353 0.931 . S
C1325 C1324 1.383 . S
C1325 C1326 1.394 . S
C1326 C1325 1.394 . S
C1326 C1327 1.378 . S
C1326 H1354 0.931 . S
C1327 C1322 1.377 . S
C1327 C1326 1.378 . S
C1327 H1355 0.931 . S
C1328 O1342 1.259 . S
C1328 O1343 1.270 . S
C1329 O1344 1.251 . S
C1329 O1345 1.251 . S
C1330 Eu1331 2.835 . S
C1330 C1332 1.500 . S
C1330 O1346 1.257 . S
C1330 O1347 1.260 . S
Eu1331 C1330 2.835 . S
Eu1331 O1343 2.355 . S
Eu1331 O1345 2.374 . S
Eu1331 O1346 2.473 . S
Eu1331 O1347 2.480 . S
Eu1331 O1348 2.430 . S
Eu1331 O1349 2.670 . S
Eu1331 O1350 2.394 . S
C1332 C1330 1.500 . S
C1332 C1333 1.377 . S
C1332 C1337 1.377 . S
C1333 C1332 1.377 . S
C1333 C1334 1.395 . S
C1333 H1356 0.931 . S
C1334 C1333 1.395 . S
C1334 C1335 1.383 . S
C1334 H1357 0.931 . S
C1335 C1334 1.383 . S
C1335 C1336 1.394 . S
C1336 C1335 1.394 . S
C1336 C1337 1.378 . S
C1336 H1358 0.931 . S
C1337 C1332 1.377 . S
C1337 C1336 1.378 . S
C1337 H1359 0.931 . S
C1338 O1348 1.259 . S
C1338 O1349 1.270 . S
C1339 O1350 1.251 . S
C1339 O1351 1.251 . S
O1340 C1320 1.257 . S
O1340 Eu1321 2.473 . S
O1341 C1320 1.260 . S
O1341 Eu1321 2.480 . S
O1342 Eu1321 2.430 . S
O1342 C1328 1.259 . S
O1343 Eu1321 2.670 . S
O1343 C1328 1.270 . S
O1343 Eu1331 2.355 . S
O1344 Eu1321 2.394 . S
O1344 C1329 1.251 . S
O1345 C1329 1.251 . S
O1345 Eu1331 2.374 . S
O1346 C1330 1.257 . S
O1346 Eu1331 2.473 . S
O1347 C1330 1.260 . S
O1347 Eu1331 2.480 . S
O1348 Eu1331 2.430 . S
O1348 C1338 1.259 . S
O1349 Eu1321 2.355 . S
O1349 Eu1331 2.670 . S
O1349 C1338 1.270 . S
O1350 Eu1331 2.394 . S
O1350 C1339 1.251 . S
O1351 Eu1321 2.374 . S
O1351 C1339 1.251 . S
H1352 C1323 0.931 . S
H1353 C1324 0.931 . S
H1354 C1326 0.931 . S
H1355 C1327 0.931 . S
H1356 C1333 0.931 . S
H1357 C1334 0.931 . S
H1358 C1336 0.931 . S
H1359 C1337 0.931 . S
C1360 Eu1361 2.835 . S
C1360 C1362 1.500 . S
C1360 O1380 1.257 . S
C1360 O1381 1.260 . S
Eu1361 C1360 2.835 . S
Eu1361 O1380 2.473 . S
Eu1361 O1381 2.480 . S
Eu1361 O1382 2.430 . S
Eu1361 O1383 2.670 . S
Eu1361 O1384 2.394 . S
Eu1361 O1389 2.355 . S
Eu1361 O1391 2.374 . S
C1362 C1360 1.500 . S
C1362 C1363 1.377 . S
C1362 C1367 1.377 . S
C1363 C1362 1.377 . S
C1363 C1364 1.395 . S
C1363 H1392 0.931 . S
C1364 C1363 1.395 . S
C1364 C1365 1.383 . S
C1364 H1393 0.931 . S
C1365 C1364 1.383 . S
C1365 C1366 1.394 . S
C1366 C1365 1.394 . S
C1366 C1367 1.378 . S
C1366 H1394 0.931 . S
C1367 C1362 1.377 . S
C1367 C1366 1.378 . S
C1367 H1395 0.931 . S
C1368 O1382 1.259 . S
C1368 O1383 1.270 . S
C1369 O1384 1.251 . S
C1369 O1385 1.251 . S
C1370 Eu1371 2.835 . S
C1370 C1372 1.500 . S
C1370 O1386 1.257 . S
C1370 O1387 1.260 . S
Eu1371 C1370 2.835 . S
Eu1371 O1383 2.355 . S
Eu1371 O1385 2.374 . S
Eu1371 O1386 2.473 . S
Eu1371 O1387 2.480 . S
Eu1371 O1388 2.430 . S
Eu1371 O1389 2.670 . S
Eu1371 O1390 2.394 . S
C1372 C1370 1.500 . S
C1372 C1373 1.377 . S
C1372 C1377 1.377 . S
C1373 C1372 1.377 . S
C1373 C1374 1.395 . S
C1373 H1396 0.931 . S
C1374 C1373 1.395 . S
C1374 C1375 1.383 . S
C1374 H1397 0.931 . S
C1375 C1374 1.383 . S
C1375 C1376 1.394 . S
C1376 C1375 1.394 . S
C1376 C1377 1.378 . S
C1376 H1398 0.931 . S
C1377 C1372 1.377 . S
C1377 C1376 1.378 . S
C1377 H1399 0.931 . S
C1378 O1388 1.259 . S
C1378 O1389 1.270 . S
C1379 O1390 1.251 . S
C1379 O1391 1.251 . S
O1380 C1360 1.257 . S
O1380 Eu1361 2.473 . S
O1381 C1360 1.260 . S
O1381 Eu1361 2.480 . S
O1382 Eu1361 2.430 . S
O1382 C1368 1.259 . S
O1383 Eu1361 2.670 . S
O1383 C1368 1.270 . S
O1383 Eu1371 2.355 . S
O1384 Eu1361 2.394 . S
O1384 C1369 1.251 . S
O1385 C1369 1.251 . S
O1385 Eu1371 2.374 . S
O1386 C1370 1.257 . S
O1386 Eu1371 2.473 . S
O1387 C1370 1.260 . S
O1387 Eu1371 2.480 . S
O1388 Eu1371 2.430 . S
O1388 C1378 1.259 . S
O1389 Eu1361 2.355 . S
O1389 Eu1371 2.670 . S
O1389 C1378 1.270 . S
O1390 Eu1371 2.394 . S
O1390 C1379 1.251 . S
O1391 Eu1361 2.374 . S
O1391 C1379 1.251 . S
H1392 C1363 0.931 . S
H1393 C1364 0.931 . S
H1394 C1366 0.931 . S
H1395 C1367 0.931 . S
H1396 C1373 0.931 . S
H1397 C1374 0.931 . S
H1398 C1376 0.931 . S
H1399 C1377 0.931 . S
C1400 Eu1401 2.835 . S
C1400 C1402 1.500 . S
C1400 O1420 1.257 . S
C1400 O1421 1.260 . S
Eu1401 C1400 2.835 . S
Eu1401 O1420 2.473 . S
Eu1401 O1421 2.480 . S
Eu1401 O1422 2.430 . S
Eu1401 O1423 2.670 . S
Eu1401 O1424 2.394 . S
Eu1401 O1429 2.355 . S
Eu1401 O1431 2.374 . S
C1402 C1400 1.500 . S
C1402 C1403 1.377 . S
C1402 C1407 1.377 . S
C1403 C1402 1.377 . S
C1403 C1404 1.395 . S
C1403 H1432 0.931 . S
C1404 C1403 1.395 . S
C1404 C1405 1.383 . S
C1404 H1433 0.931 . S
C1405 C1404 1.383 . S
C1405 C1406 1.394 . S
C1406 C1405 1.394 . S
C1406 C1407 1.378 . S
C1406 H1434 0.931 . S
C1407 C1402 1.377 . S
C1407 C1406 1.378 . S
C1407 H1435 0.931 . S
C1408 O1422 1.259 . S
C1408 O1423 1.270 . S
C1409 O1424 1.251 . S
C1409 O1425 1.251 . S
C1410 Eu1411 2.835 . S
C1410 C1412 1.500 . S
C1410 O1426 1.257 . S
C1410 O1427 1.260 . S
Eu1411 C1410 2.835 . S
Eu1411 O1423 2.355 . S
Eu1411 O1425 2.374 . S
Eu1411 O1426 2.473 . S
Eu1411 O1427 2.480 . S
Eu1411 O1428 2.430 . S
Eu1411 O1429 2.670 . S
Eu1411 O1430 2.394 . S
C1412 C1410 1.500 . S
C1412 C1413 1.377 . S
C1412 C1417 1.377 . S
C1413 C1412 1.377 . S
C1413 C1414 1.395 . S
C1413 H1436 0.931 . S
C1414 C1413 1.395 . S
C1414 C1415 1.383 . S
C1414 H1437 0.931 . S
C1415 C1414 1.383 . S
C1415 C1416 1.394 . S
C1416 C1415 1.394 . S
C1416 C1417 1.378 . S
C1416 H1438 0.931 . S
C1417 C1412 1.377 . S
C1417 C1416 1.378 . S
C1417 H1439 0.931 . S
C1418 O1428 1.259 . S
C1418 O1429 1.270 . S
C1419 O1430 1.251 . S
C1419 O1431 1.251 . S
O1420 C1400 1.257 . S
O1420 Eu1401 2.473 . S
O1421 C1400 1.260 . S
O1421 Eu1401 2.480 . S
O1422 Eu1401 2.430 . S
O1422 C1408 1.259 . S
O1423 Eu1401 2.670 . S
O1423 C1408 1.270 . S
O1423 Eu1411 2.355 . S
O1424 Eu1401 2.394 . S
O1424 C1409 1.251 . S
O1425 C1409 1.251 . S
O1425 Eu1411 2.374 . S
O1426 C1410 1.257 . S
O1426 Eu1411 2.473 . S
O1427 C1410 1.260 . S
O1427 Eu1411 2.480 . S
O1428 Eu1411 2.430 . S
O1428 C1418 1.259 . S
O1429 Eu1401 2.355 . S
O1429 Eu1411 2.670 . S
O1429 C1418 1.270 . S
O1430 Eu1411 2.394 . S
O1430 C1419 1.251 . S
O1431 Eu1401 2.374 . S
O1431 C1419 1.251 . S
H1432 C1403 0.931 . S
H1433 C1404 0.931 . S
H1434 C1406 0.931 . S
H1435 C1407 0.931 . S
H1436 C1413 0.931 . S
H1437 C1414 0.931 . S
H1438 C1416 0.931 . S
H1439 C1417 0.931 . S
H1440 C1448 0.950 . S
H1441 C1453 0.950 . S
H1442 C1450 0.950 . S
H1443 C1452 0.950 . S
H1444 C1454 0.950 1_556 S
H1445 C1456 0.950 . S
H1446 C1458 0.950 . S
H1447 C1459 0.950 . S
C1448 H1440 0.950 . S
C1448 C1449 1.386 . S
C1448 C1450 1.391 . S
C1449 C1448 1.386 . S
C1449 C1453 1.393 . S
C1450 H1442 0.950 . S
C1450 C1448 1.391 . S
C1450 C1451 1.400 . S
C1451 C1450 1.400 . S
C1451 C1452 1.398 . S
C1451 C1457 1.491 . S
C1452 H1443 0.950 . S
C1452 C1451 1.398 . S
C1452 C1453 1.391 . S
C1453 H1441 0.950 . S
C1453 C1449 1.393 . S
C1453 C1452 1.391 . S
C1454 H1444 0.950 1_554 S
C1454 C1455 1.386 . S
C1454 C1456 1.391 . S
C1455 C1454 1.386 . S
C1455 C1459 1.393 . S
C1456 H1445 0.950 . S
C1456 C1454 1.391 . S
C1456 C1457 1.400 . S
C1457 C1451 1.491 . S
C1457 C1456 1.400 . S
C1457 C1458 1.398 . S
C1458 H1446 0.950 . S
C1458 C1457 1.398 . S
C1458 C1459 1.391 . S
C1459 H1447 0.950 . S
C1459 C1455 1.393 . S
C1459 C1458 1.391 . S
H1460 C1468 0.950 . S
H1461 C1473 0.950 . S
H1462 C1470 0.950 . S
H1463 C1472 0.950 . S
H1464 C1474 0.950 . S
H1465 C1476 0.950 . S
H1466 C1478 0.950 . S
H1467 C1479 0.950 . S
C1468 H1460 0.950 . S
C1468 C1469 1.386 . S
C1468 C1470 1.391 . S
C1469 C1468 1.386 . S
C1469 C1473 1.393 . S
C1470 H1462 0.950 . S
C1470 C1468 1.391 . S
C1470 C1471 1.400 . S
C1471 C1470 1.400 . S
C1471 C1472 1.398 . S
C1471 C1477 1.491 . S
C1472 H1463 0.950 . S
C1472 C1471 1.398 . S
C1472 C1473 1.391 . S
C1473 H1461 0.950 . S
C1473 C1469 1.393 . S
C1473 C1472 1.391 . S
C1474 H1464 0.950 . S
C1474 C1475 1.386 . S
C1474 C1476 1.391 . S
C1475 C1474 1.386 . S
C1475 C1479 1.393 . S
C1476 H1465 0.950 . S
C1476 C1474 1.391 . S
C1476 C1477 1.400 . S
C1477 C1471 1.491 . S
C1477 C1476 1.400 . S
C1477 C1478 1.398 . S
C1478 H1466 0.950 . S
C1478 C1477 1.398 . S
C1478 C1479 1.391 . S
C1479 H1467 0.950 . S
C1479 C1475 1.393 . S
C1479 C1478 1.391 . S
H1480 C1488 0.950 . S
H1481 C1493 0.950 . S
H1482 C1490 0.950 . S
H1483 C1492 0.950 . S
H1484 C1494 0.950 1_556 S
H1485 C1496 0.950 . S
H1486 C1498 0.950 . S
H1487 C1499 0.950 . S
C1488 H1480 0.950 . S
C1488 C1489 1.386 . S
C1488 C1490 1.391 . S
C1489 C1488 1.386 . S
C1489 C1493 1.393 . S
C1490 H1482 0.950 . S
C1490 C1488 1.391 . S
C1490 C1491 1.400 . S
C1491 C1490 1.400 . S
C1491 C1492 1.398 . S
C1491 C1497 1.491 . S
C1492 H1483 0.950 . S
C1492 C1491 1.398 . S
C1492 C1493 1.391 . S
C1493 H1481 0.950 . S
C1493 C1489 1.393 . S
C1493 C1492 1.391 . S
C1494 H1484 0.950 1_554 S
C1494 C1495 1.386 . S
C1494 C1496 1.391 . S
C1495 C1494 1.386 . S
C1495 C1499 1.393 . S
C1496 H1485 0.950 . S
C1496 C1494 1.391 . S
C1496 C1497 1.400 . S
C1497 C1491 1.491 . S
C1497 C1496 1.400 . S
C1497 C1498 1.398 . S
C1498 H1486 0.950 . S
C1498 C1497 1.398 . S
C1498 C1499 1.391 . S
C1499 H1487 0.950 . S
C1499 C1495 1.393 . S
C1499 C1498 1.391 . S
H1500 C1508 0.950 . S
H1501 C1513 0.950 . S
H1502 C1510 0.950 . S
H1503 C1512 0.950 . S
H1504 C1514 0.950 1_554 S
H1505 C1516 0.950 . S
H1506 C1518 0.950 . S
H1507 C1519 0.950 . S
C1508 H1500 0.950 . S
C1508 C1509 1.386 . S
C1508 C1510 1.391 . S
C1509 C1508 1.386 . S
C1509 C1513 1.393 . S
C1510 H1502 0.950 . S
C1510 C1508 1.391 . S
C1510 C1511 1.400 . S
C1511 C1510 1.400 . S
C1511 C1512 1.398 . S
C1511 C1517 1.491 . S
C1512 H1503 0.950 . S
C1512 C1511 1.398 . S
C1512 C1513 1.391 . S
C1513 H1501 0.950 . S
C1513 C1509 1.393 . S
C1513 C1512 1.391 . S
C1514 H1504 0.950 1_556 S
C1514 C1515 1.386 . S
C1514 C1516 1.391 . S
C1515 C1514 1.386 . S
C1515 C1519 1.393 . S
C1516 H1505 0.950 . S
C1516 C1514 1.391 . S
C1516 C1517 1.400 . S
C1517 C1511 1.491 . S
C1517 C1516 1.400 . S
C1517 C1518 1.398 . S
C1518 H1506 0.950 . S
C1518 C1517 1.398 . S
C1518 C1519 1.391 . S
C1519 H1507 0.950 . S
C1519 C1515 1.393 . S
C1519 C1518 1.391 . S
H1520 C1528 0.950 . S
H1521 C1533 0.950 . S
H1522 C1530 0.950 . S
H1523 C1532 0.950 . S
H1524 C1534 0.950 . S
H1525 C1536 0.950 . S
H1526 C1538 0.950 . S
H1527 C1539 0.950 . S
C1528 H1520 0.950 . S
C1528 C1529 1.386 . S
C1528 C1530 1.391 . S
C1529 C1528 1.386 . S
C1529 C1533 1.393 . S
C1530 H1522 0.950 . S
C1530 C1528 1.391 . S
C1530 C1531 1.400 . S
C1531 C1530 1.400 . S
C1531 C1532 1.398 . S
C1531 C1537 1.491 . S
C1532 H1523 0.950 . S
C1532 C1531 1.398 . S
C1532 C1533 1.391 . S
C1533 H1521 0.950 . S
C1533 C1529 1.393 . S
C1533 C1532 1.391 . S
C1534 H1524 0.950 . S
C1534 C1535 1.386 . S
C1534 C1536 1.391 . S
C1535 C1534 1.386 . S
C1535 C1539 1.393 . S
C1536 H1525 0.950 . S
C1536 C1534 1.391 . S
C1536 C1537 1.400 . S
C1537 C1531 1.491 . S
C1537 C1536 1.400 . S
C1537 C1538 1.398 . S
C1538 H1526 0.950 . S
C1538 C1537 1.398 . S
C1538 C1539 1.391 . S
C1539 H1527 0.950 . S
C1539 C1535 1.393 . S
C1539 C1538 1.391 . S
H1540 C1548 0.950 . S
H1541 C1553 0.950 . S
H1542 C1550 0.950 . S
H1543 C1552 0.950 . S
H1544 C1554 0.950 1_554 S
H1545 C1556 0.950 . S
H1546 C1558 0.950 . S
H1547 C1559 0.950 . S
C1548 H1540 0.950 . S
C1548 C1549 1.386 . S
C1548 C1550 1.391 . S
C1549 C1548 1.386 . S
C1549 C1553 1.393 . S
C1550 H1542 0.950 . S
C1550 C1548 1.391 . S
C1550 C1551 1.400 . S
C1551 C1550 1.400 . S
C1551 C1552 1.398 . S
C1551 C1557 1.491 . S
C1552 H1543 0.950 . S
C1552 C1551 1.398 . S
C1552 C1553 1.391 . S
C1553 H1541 0.950 . S
C1553 C1549 1.393 . S
C1553 C1552 1.391 . S
C1554 H1544 0.950 1_556 S
C1554 C1555 1.386 . S
C1554 C1556 1.391 . S
C1555 C1554 1.386 . S
C1555 C1559 1.393 . S
C1556 H1545 0.950 . S
C1556 C1554 1.391 . S
C1556 C1557 1.400 . S
C1557 C1551 1.491 . S
C1557 C1556 1.400 . S
C1557 C1558 1.398 . S
C1558 H1546 0.950 . S
C1558 C1557 1.398 . S
C1558 C1559 1.391 . S
C1559 H1547 0.950 . S
C1559 C1555 1.393 . S
C1559 C1558 1.391 . S
H1560 C1568 0.950 . S
H1561 C1573 0.950 . S
H1562 C1570 0.950 . S
H1563 C1572 0.950 . S
H1564 C1574 0.950 1_554 S
H1565 C1576 0.950 . S
H1566 C1578 0.950 . S
H1567 C1579 0.950 . S
C1568 H1560 0.950 . S
C1568 C1569 1.386 . S
C1568 C1570 1.391 . S
C1569 C1568 1.386 . S
C1569 C1573 1.393 . S
C1570 H1562 0.950 . S
C1570 C1568 1.391 . S
C1570 C1571 1.400 . S
C1571 C1570 1.400 . S
C1571 C1572 1.398 . S
C1571 C1577 1.491 . S
C1572 H1563 0.950 . S
C1572 C1571 1.398 . S
C1572 C1573 1.391 . S
C1573 H1561 0.950 . S
C1573 C1569 1.393 . S
C1573 C1572 1.391 . S
C1574 H1564 0.950 1_556 S
C1574 C1575 1.386 . S
C1574 C1576 1.391 . S
C1575 C1574 1.386 . S
C1575 C1579 1.393 . S
C1576 H1565 0.950 . S
C1576 C1574 1.391 . S
C1576 C1577 1.400 . S
C1577 C1571 1.491 . S
C1577 C1576 1.400 . S
C1577 C1578 1.398 . S
C1578 H1566 0.950 . S
C1578 C1577 1.398 . S
C1578 C1579 1.391 . S
C1579 H1567 0.950 . S
C1579 C1575 1.393 . S
C1579 C1578 1.391 . S
H1580 C1588 0.950 . S
H1581 C1593 0.950 . S
H1582 C1590 0.950 . S
H1583 C1592 0.950 . S
H1584 C1594 0.950 . S
H1585 C1596 0.950 . S
H1586 C1598 0.950 . S
H1587 C1599 0.950 . S
C1588 H1580 0.950 . S
C1588 C1589 1.386 . S
C1588 C1590 1.391 . S
C1589 C1588 1.386 . S
C1589 C1593 1.393 . S
C1590 H1582 0.950 . S
C1590 C1588 1.391 . S
C1590 C1591 1.400 . S
C1591 C1590 1.400 . S
C1591 C1592 1.398 . S
C1591 C1597 1.491 . S
C1592 H1583 0.950 . S
C1592 C1591 1.398 . S
C1592 C1593 1.391 . S
C1593 H1581 0.950 . S
C1593 C1589 1.393 . S
C1593 C1592 1.391 . S
C1594 H1584 0.950 . S
C1594 C1595 1.386 . S
C1594 C1596 1.391 . S
C1595 C1594 1.386 . S
C1595 C1599 1.393 . S
C1596 H1585 0.950 . S
C1596 C1594 1.391 . S
C1596 C1597 1.400 . S
C1597 C1591 1.491 . S
C1597 C1596 1.400 . S
C1597 C1598 1.398 . S
C1598 H1586 0.950 . S
C1598 C1597 1.398 . S
C1598 C1599 1.391 . S
C1599 H1587 0.950 . S
C1599 C1595 1.393 . S
C1599 C1598 1.391 . S
H1600 C1608 0.950 . S
H1601 C1613 0.950 . S
H1602 C1610 0.950 . S
H1603 C1612 0.950 . S
H1604 C1614 0.929 1_554 S
H1605 C1616 0.950 . S
H1606 C1618 0.950 . S
H1607 C1619 0.950 . S
C1608 H1600 0.950 . S
C1608 C1609 1.386 . S
C1608 C1610 1.391 . S
C1609 C1608 1.386 . S
C1609 C1613 1.393 . S
C1610 H1602 0.950 . S
C1610 C1608 1.391 . S
C1610 C1611 1.400 . S
C1611 C1610 1.400 . S
C1611 C1612 1.398 . S
C1611 C1617 1.491 . S
C1612 H1603 0.950 . S
C1612 C1611 1.398 . S
C1612 C1613 1.391 . S
C1613 H1601 0.950 . S
C1613 C1609 1.393 . S
C1613 C1612 1.391 . S
C1614 H1604 0.929 1_556 S
C1614 C1615 1.386 . S
C1614 C1616 1.391 . S
C1615 C1614 1.386 . S
C1615 C1619 1.393 . S
C1616 H1605 0.950 . S
C1616 C1614 1.391 . S
C1616 C1617 1.400 . S
C1617 C1611 1.491 . S
C1617 C1616 1.400 . S
C1617 C1618 1.398 . S
C1618 H1606 0.950 . S
C1618 C1617 1.398 . S
C1618 C1619 1.391 . S
C1619 H1607 0.950 . S
C1619 C1615 1.393 . S
C1619 C1618 1.391 . S
H1620 C1628 0.950 . S
H1621 C1633 0.950 . S
H1622 C1630 0.950 . S
H1623 C1632 0.950 . S
H1624 C1634 0.950 . S
H1625 C1636 0.950 . S
H1626 C1638 0.950 . S
H1627 C1639 0.950 . S
C1628 H1620 0.950 . S
C1628 C1629 1.386 . S
C1628 C1630 1.391 . S
C1629 C1628 1.386 . S
C1629 C1633 1.393 . S
C1630 H1622 0.950 . S
C1630 C1628 1.391 . S
C1630 C1631 1.400 . S
C1631 C1630 1.400 . S
C1631 C1632 1.398 . S
C1631 C1637 1.491 . S
C1632 H1623 0.950 . S
C1632 C1631 1.398 . S
C1632 C1633 1.391 . S
C1633 H1621 0.950 . S
C1633 C1629 1.393 . S
C1633 C1632 1.391 . S
C1634 H1624 0.950 . S
C1634 C1635 1.386 . S
C1634 C1636 1.391 . S
C1635 C1634 1.386 . S
C1635 C1639 1.393 . S
C1636 H1625 0.950 . S
C1636 C1634 1.391 . S
C1636 C1637 1.400 . S
C1637 C1631 1.491 . S
C1637 C1636 1.400 . S
C1637 C1638 1.398 . S
C1638 H1626 0.950 . S
C1638 C1637 1.398 . S
C1638 C1639 1.391 . S
C1639 H1627 0.950 . S
C1639 C1635 1.393 . S
C1639 C1638 1.391 . S
H1640 C1648 0.950 . S
H1641 C1653 0.950 . S
H1642 C1650 0.950 . S
H1643 C1652 0.950 . S
H1644 C1654 0.950 . S
H1645 C1656 0.950 . S
H1646 C1658 0.950 . S
H1647 C1659 0.950 . S
C1648 H1640 0.950 . S
C1648 C1649 1.386 . S
C1648 C1650 1.391 . S
C1649 C1648 1.386 . S
C1649 C1653 1.393 . S
C1650 H1642 0.950 . S
C1650 C1648 1.391 . S
C1650 C1651 1.400 . S
C1651 C1650 1.400 . S
C1651 C1652 1.398 . S
C1651 C1657 1.491 . S
C1652 H1643 0.950 . S
C1652 C1651 1.398 . S
C1652 C1653 1.391 . S
C1653 H1641 0.950 . S
C1653 C1649 1.393 . S
C1653 C1652 1.391 . S
C1654 H1644 0.950 . S
C1654 C1655 1.386 . S
C1654 C1656 1.391 . S
C1655 C1654 1.386 . S
C1655 C1659 1.393 . S
C1656 H1645 0.950 . S
C1656 C1654 1.391 . S
C1656 C1657 1.400 . S
C1657 C1651 1.491 . S
C1657 C1656 1.400 . S
C1657 C1658 1.398 . S
C1658 H1646 0.950 . S
C1658 C1657 1.398 . S
C1658 C1659 1.391 . S
C1659 H1647 0.950 . S
C1659 C1655 1.393 . S
C1659 C1658 1.391 . S
H1660 C1668 0.950 . S
H1661 C1673 0.950 . S
H1662 C1670 0.950 . S
H1663 C1672 0.950 . S
H1664 C1674 0.950 . S
H1665 C1676 0.950 . S
H1666 C1678 0.950 . S
H1667 C1679 0.950 . S
C1668 H1660 0.950 . S
C1668 C1669 1.386 . S
C1668 C1670 1.391 . S
C1669 C1668 1.386 . S
C1669 C1673 1.393 . S
C1670 H1662 0.950 . S
C1670 C1668 1.391 . S
C1670 C1671 1.400 . S
C1671 C1670 1.400 . S
C1671 C1672 1.398 . S
C1671 C1677 1.491 . S
C1672 H1663 0.950 . S
C1672 C1671 1.398 . S
C1672 C1673 1.391 . S
C1673 H1661 0.950 . S
C1673 C1669 1.393 . S
C1673 C1672 1.391 . S
C1674 H1664 0.950 . S
C1674 C1675 1.386 . S
C1674 C1676 1.391 . S
C1675 C1674 1.386 . S
C1675 C1679 1.393 . S
C1676 H1665 0.950 . S
C1676 C1674 1.391 . S
C1676 C1677 1.400 . S
C1677 C1671 1.491 . S
C1677 C1676 1.400 . S
C1677 C1678 1.398 . S
C1678 H1666 0.950 . S
C1678 C1677 1.398 . S
C1678 C1679 1.391 . S
C1679 H1667 0.950 . S
C1679 C1675 1.393 . S
C1679 C1678 1.391 . S
H1680 C1688 0.950 . S
H1681 C1693 0.950 . S
H1682 C1690 0.950 . S
H1683 C1692 0.950 . S
H1684 C1694 0.950 . S
H1685 C1696 0.950 . S
H1686 C1698 0.950 . S
H1687 C1699 0.950 . S
C1688 H1680 0.950 . S
C1688 C1689 1.386 . S
C1688 C1690 1.391 1_655 S
C1689 C1688 1.386 . S
C1689 C1693 1.393 . S
C1690 H1682 0.950 . S
C1690 C1688 1.391 1_455 S
C1690 C1691 1.400 . S
C1691 C1690 1.400 . S
C1691 C1692 1.398 . S
C1691 C1697 1.491 . S
C1692 H1683 0.950 . S
C1692 C1691 1.398 . S
C1692 C1693 1.391 1_455 S
C1693 H1681 0.950 . S
C1693 C1689 1.393 . S
C1693 C1692 1.391 1_655 S
C1694 H1684 0.950 . S
C1694 C1695 1.386 . S
C1694 C1696 1.391 . S
C1695 C1694 1.386 . S
C1695 C1699 1.393 . S
C1696 H1685 0.950 . S
C1696 C1694 1.391 . S
C1696 C1697 1.400 . S
C1697 C1691 1.491 . S
C1697 C1696 1.400 . S
C1697 C1698 1.398 . S
C1698 H1686 0.950 . S
C1698 C1697 1.398 . S
C1698 C1699 1.391 . S
C1699 H1687 0.950 . S
C1699 C1695 1.393 . S
C1699 C1698 1.391 . S
H1700 C1708 0.950 . S
H1701 C1713 0.950 . S
H1702 C1710 0.950 . S
H1703 C1712 0.950 . S
H1704 C1714 0.950 . S
H1705 C1716 0.950 . S
H1706 C1718 0.950 . S
H1707 C1719 0.950 . S
C1708 H1700 0.950 . S
C1708 C1709 1.386 . S
C1708 C1710 1.391 . S
C1709 C1708 1.386 . S
C1709 C1713 1.393 . S
C1710 H1702 0.950 . S
C1710 C1708 1.391 . S
C1710 C1711 1.400 . S
C1711 C1710 1.400 . S
C1711 C1712 1.398 . S
C1711 C1717 1.491 . S
C1712 H1703 0.950 . S
C1712 C1711 1.398 . S
C1712 C1713 1.391 . S
C1713 H1701 0.950 . S
C1713 C1709 1.393 . S
C1713 C1712 1.391 . S
C1714 H1704 0.950 . S
C1714 C1715 1.386 . S
C1714 C1716 1.391 . S
C1715 C1714 1.386 . S
C1715 C1719 1.393 . S
C1716 H1705 0.950 . S
C1716 C1714 1.391 . S
C1716 C1717 1.400 . S
C1717 C1711 1.491 . S
C1717 C1716 1.400 . S
C1717 C1718 1.398 . S
C1718 H1706 0.950 . S
C1718 C1717 1.398 . S
C1718 C1719 1.391 . S
C1719 H1707 0.950 . S
C1719 C1715 1.393 . S
C1719 C1718 1.391 . S
H1720 C1728 0.950 . S
H1721 C1733 0.950 . S
H1722 C1730 0.950 1_565 S
H1723 C1732 0.950 1_565 S
H1724 C1734 0.950 . S
H1725 C1736 0.950 . S
H1726 C1738 0.950 . S
H1727 C1739 0.950 . S
C1728 H1720 0.950 . S
C1728 C1729 1.386 . S
C1728 C1730 1.391 . S
C1729 C1728 1.386 . S
C1729 C1733 1.393 . S
C1730 H1722 0.950 1_545 S
C1730 C1728 1.391 . S
C1730 C1731 1.400 1_545 S
C1731 C1730 1.400 1_565 S
C1731 C1732 1.398 1_565 S
C1731 C1737 1.491 . S
C1732 H1723 0.950 1_545 S
C1732 C1731 1.398 1_545 S
C1732 C1733 1.391 . S
C1733 H1721 0.950 . S
C1733 C1729 1.393 . S
C1733 C1732 1.391 . S
C1734 H1724 0.950 . S
C1734 C1735 1.386 . S
C1734 C1736 1.391 . S
C1735 C1734 1.386 . S
C1735 C1739 1.393 . S
C1736 H1725 0.950 . S
C1736 C1734 1.391 . S
C1736 C1737 1.400 . S
C1737 C1731 1.491 . S
C1737 C1736 1.400 . S
C1737 C1738 1.398 . S
C1738 H1726 0.950 . S
C1738 C1737 1.398 . S
C1738 C1739 1.391 . S
C1739 H1727 0.950 . S
C1739 C1735 1.393 . S
C1739 C1738 1.391 . S
H1740 C1748 0.950 . S
H1741 C1753 0.950 . S
H1742 C1750 0.950 . S
H1743 C1752 0.950 . S
H1744 C1754 0.950 . S
H1745 C1756 0.950 . S
H1746 C1758 0.950 . S
H1747 C1759 0.950 . S
C1748 H1740 0.950 . S
C1748 C1749 1.386 . S
C1748 C1750 1.391 . S
C1749 C1748 1.386 . S
C1749 C1753 1.393 . S
C1750 H1742 0.950 . S
C1750 C1748 1.391 . S
C1750 C1751 1.400 . S
C1751 C1750 1.400 . S
C1751 C1752 1.398 . S
C1751 C1757 1.491 . S
C1752 H1743 0.950 . S
C1752 C1751 1.398 . S
C1752 C1753 1.391 . S
C1753 H1741 0.950 . S
C1753 C1749 1.393 . S
C1753 C1752 1.391 . S
C1754 H1744 0.950 . S
C1754 C1755 1.386 . S
C1754 C1756 1.391 . S
C1755 C1754 1.386 . S
C1755 C1759 1.393 . S
C1756 H1745 0.950 . S
C1756 C1754 1.391 . S
C1756 C1757 1.400 . S
C1757 C1751 1.491 . S
C1757 C1756 1.400 . S
C1757 C1758 1.398 . S
C1758 H1746 0.950 . S
C1758 C1757 1.398 . S
C1758 C1759 1.391 . S
C1759 H1747 0.950 . S
C1759 C1755 1.393 . S
C1759 C1758 1.391 . S
H1760 C1768 0.950 . S
H1761 C1773 0.950 . S
H1762 C1770 0.950 . S
H1763 C1772 0.950 . S
H1764 C1774 0.950 . S
H1765 C1776 0.950 . S
H1766 C1778 0.950 . S
H1767 C1779 0.950 . S
C1768 H1760 0.950 . S
C1768 C1769 1.386 . S
C1768 C1770 1.391 . S
C1769 C1768 1.386 . S
C1769 C1773 1.393 . S
C1770 H1762 0.950 . S
C1770 C1768 1.391 . S
C1770 C1771 1.400 . S
C1771 C1770 1.400 . S
C1771 C1772 1.398 . S
C1771 C1777 1.491 . S
C1772 H1763 0.950 . S
C1772 C1771 1.398 . S
C1772 C1773 1.391 . S
C1773 H1761 0.950 . S
C1773 C1769 1.393 . S
C1773 C1772 1.391 . S
C1774 H1764 0.950 . S
C1774 C1775 1.386 . S
C1774 C1776 1.391 . S
C1775 C1774 1.386 . S
C1775 C1779 1.393 . S
C1776 H1765 0.950 . S
C1776 C1774 1.391 . S
C1776 C1777 1.400 . S
C1777 C1771 1.491 . S
C1777 C1776 1.400 . S
C1777 C1778 1.398 . S
C1778 H1766 0.950 . S
C1778 C1777 1.398 . S
C1778 C1779 1.391 . S
C1779 H1767 0.950 . S
C1779 C1775 1.393 . S
C1779 C1778 1.391 . S
H1780 C1788 0.950 . S
H1781 C1793 0.950 . S
H1782 C1790 0.950 . S
H1783 C1792 0.950 . S
H1784 C1794 0.950 . S
H1785 C1796 0.950 . S
H1786 C1798 0.950 . S
H1787 C1799 0.950 . S
C1788 H1780 0.950 . S
C1788 C1789 1.386 . S
C1788 C1790 1.391 . S
C1789 C1788 1.386 . S
C1789 C1793 1.393 . S
C1790 H1782 0.950 . S
C1790 C1788 1.391 . S
C1790 C1791 1.400 . S
C1791 C1790 1.400 . S
C1791 C1792 1.398 . S
C1791 C1797 1.491 . S
C1792 H1783 0.950 . S
C1792 C1791 1.398 . S
C1792 C1793 1.391 . S
C1793 H1781 0.950 . S
C1793 C1789 1.393 . S
C1793 C1792 1.391 . S
C1794 H1784 0.950 . S
C1794 C1795 1.386 . S
C1794 C1796 1.391 . S
C1795 C1794 1.386 . S
C1795 C1799 1.393 . S
C1796 H1785 0.950 . S
C1796 C1794 1.391 . S
C1796 C1797 1.400 . S
C1797 C1791 1.491 . S
C1797 C1796 1.400 . S
C1797 C1798 1.398 . S
C1798 H1786 0.950 . S
C1798 C1797 1.398 . S
C1798 C1799 1.391 . S
C1799 H1787 0.950 . S
C1799 C1795 1.393 . S
C1799 C1798 1.391 . S
H1800 C1808 0.950 . S
H1801 C1813 0.950 . S
H1802 C1810 0.950 . S
H1803 C1812 0.950 . S
H1804 C1814 0.950 . S
H1805 C1816 0.950 . S
H1806 C1818 0.950 . S
H1807 C1819 0.950 . S
C1808 H1800 0.950 . S
C1808 C1809 1.386 . S
C1808 C1810 1.391 . S
C1809 C1808 1.386 . S
C1809 C1813 1.393 . S
C1810 H1802 0.950 . S
C1810 C1808 1.391 . S
C1810 C1811 1.400 . S
C1811 C1810 1.400 . S
C1811 C1812 1.398 . S
C1811 C1817 1.491 . S
C1812 H1803 0.950 . S
C1812 C1811 1.398 . S
C1812 C1813 1.391 . S
C1813 H1801 0.950 . S
C1813 C1809 1.393 . S
C1813 C1812 1.391 . S
C1814 H1804 0.950 . S
C1814 C1815 1.386 . S
C1814 C1816 1.391 . S
C1815 C1814 1.386 . S
C1815 C1819 1.393 . S
C1816 H1805 0.950 . S
C1816 C1814 1.391 . S
C1816 C1817 1.400 . S
C1817 C1811 1.491 . S
C1817 C1816 1.400 . S
C1817 C1818 1.398 . S
C1818 H1806 0.950 . S
C1818 C1817 1.398 . S
C1818 C1819 1.391 . S
C1819 H1807 0.950 . S
C1819 C1815 1.393 . S
C1819 C1818 1.391 . S
H1820 C1828 0.950 . S
H1821 C1833 0.950 . S
H1822 C1830 0.950 . S
H1823 C1832 0.950 . S
H1824 C1834 0.950 . S
H1825 C1836 0.950 . S
H1826 C1838 0.950 . S
H1827 C1839 0.950 . S
C1828 H1820 0.950 . S
C1828 C1829 1.386 . S
C1828 C1830 1.391 . S
C1829 C1828 1.386 . S
C1829 C1833 1.393 . S
C1830 H1822 0.950 . S
C1830 C1828 1.391 . S
C1830 C1831 1.400 . S
C1831 C1830 1.400 . S
C1831 C1832 1.398 . S
C1831 C1837 1.491 . S
C1832 H1823 0.950 . S
C1832 C1831 1.398 . S
C1832 C1833 1.391 . S
C1833 H1821 0.950 . S
C1833 C1829 1.393 . S
C1833 C1832 1.391 . S
C1834 H1824 0.950 . S
C1834 C1835 1.386 . S
C1834 C1836 1.391 . S
C1835 C1834 1.386 . S
C1835 C1839 1.393 . S
C1836 H1825 0.950 . S
C1836 C1834 1.391 . S
C1836 C1837 1.400 . S
C1837 C1831 1.491 . S
C1837 C1836 1.400 . S
C1837 C1838 1.398 . S
C1838 H1826 0.950 . S
C1838 C1837 1.398 . S
C1838 C1839 1.391 . S
C1839 H1827 0.950 . S
C1839 C1835 1.393 . S
C1839 C1838 1.391 . S
H1840 C1848 0.950 . S
H1841 C1853 0.950 . S
H1842 C1850 0.950 . S
H1843 C1852 0.950 . S
H1844 C1854 0.950 . S
H1845 C1856 0.950 . S
H1846 C1858 0.950 . S
H1847 C1859 0.950 . S
C1848 H1840 0.950 . S
C1848 C1849 1.386 . S
C1848 C1850 1.391 . S
C1849 C1848 1.386 . S
C1849 C1853 1.393 . S
C1850 H1842 0.950 . S
C1850 C1848 1.391 . S
C1850 C1851 1.400 . S
C1851 C1850 1.400 . S
C1851 C1852 1.398 . S
C1851 C1857 1.491 . S
C1852 H1843 0.950 . S
C1852 C1851 1.398 . S
C1852 C1853 1.391 . S
C1853 H1841 0.950 . S
C1853 C1849 1.393 . S
C1853 C1852 1.391 . S
C1854 H1844 0.950 . S
C1854 C1855 1.386 . S
C1854 C1856 1.391 . S
C1855 C1854 1.386 . S
C1855 C1859 1.393 . S
C1856 H1845 0.950 . S
C1856 C1854 1.391 . S
C1856 C1857 1.400 . S
C1857 C1851 1.491 . S
C1857 C1856 1.400 . S
C1857 C1858 1.398 . S
C1858 H1846 0.950 . S
C1858 C1857 1.398 . S
C1858 C1859 1.391 . S
C1859 H1847 0.950 . S
C1859 C1855 1.393 . S
C1859 C1858 1.391 . S
H1860 C1868 0.950 . S
H1861 C1873 0.950 . S
H1862 C1870 0.950 . S
H1863 C1872 0.950 . S
H1864 C1874 0.950 . S
H1865 C1876 0.950 . S
H1866 C1878 0.950 . S
H1867 C1879 0.950 . S
C1868 H1860 0.950 . S
C1868 C1869 1.386 . S
C1868 C1870 1.391 1_545 S
C1869 C1868 1.386 . S
C1869 C1873 1.393 . S
C1870 H1862 0.950 . S
C1870 C1868 1.391 1_565 S
C1870 C1871 1.400 . S
C1871 C1870 1.400 . S
C1871 C1872 1.398 . S
C1871 C1877 1.491 . S
C1872 H1863 0.950 . S
C1872 C1871 1.398 . S
C1872 C1873 1.391 1_565 S
C1873 H1861 0.950 . S
C1873 C1869 1.393 . S
C1873 C1872 1.391 1_545 S
C1874 H1864 0.950 . S
C1874 C1875 1.386 . S
C1874 C1876 1.391 . S
C1875 C1874 1.386 . S
C1875 C1879 1.393 . S
C1876 H1865 0.950 . S
C1876 C1874 1.391 . S
C1876 C1877 1.400 . S
C1877 C1871 1.491 . S
C1877 C1876 1.400 . S
C1877 C1878 1.398 . S
C1878 H1866 0.950 . S
C1878 C1877 1.398 . S
C1878 C1879 1.391 . S
C1879 H1867 0.950 . S
C1879 C1875 1.393 . S
C1879 C1878 1.391 . S
H1880 C1888 0.950 . S
H1881 C1893 0.950 . S
H1882 C1890 0.950 . S
H1883 C1892 0.950 . S
H1884 C1894 0.950 . S
H1885 C1896 0.950 . S
H1886 C1898 0.950 . S
H1887 C1899 0.950 . S
C1888 H1880 0.950 . S
C1888 C1889 1.386 . S
C1888 C1890 1.391 1_655 S
C1889 C1888 1.386 . S
C1889 C1893 1.393 1_655 S
C1890 H1882 0.950 . S
C1890 C1888 1.391 1_455 S
C1890 C1891 1.400 . S
C1891 C1890 1.400 . S
C1891 C1892 1.398 . S
C1891 C1897 1.491 . S
C1892 H1883 0.950 . S
C1892 C1891 1.398 . S
C1892 C1893 1.391 . S
C1893 H1881 0.950 . S
C1893 C1889 1.393 1_455 S
C1893 C1892 1.391 . S
C1894 H1884 0.950 . S
C1894 C1895 1.386 . S
C1894 C1896 1.391 . S
C1895 C1894 1.386 . S
C1895 C1899 1.393 . S
C1896 H1885 0.950 . S
C1896 C1894 1.391 . S
C1896 C1897 1.400 . S
C1897 C1891 1.491 . S
C1897 C1896 1.400 . S
C1897 C1898 1.398 . S
C1898 H1886 0.950 . S
C1898 C1897 1.398 . S
C1898 C1899 1.391 . S
C1899 H1887 0.950 . S
C1899 C1895 1.393 . S
C1899 C1898 1.391 . S
H1900 C1908 0.950 . S
H1901 C1913 0.950 . S
H1902 C1910 0.950 . S
H1903 C1912 0.950 . S
H1904 C1914 0.950 . S
H1905 C1916 0.950 . S
H1906 C1918 0.950 . S
H1907 C1919 0.950 . S
C1908 H1900 0.950 . S
C1908 C1909 1.386 . S
C1908 C1910 1.391 . S
C1909 C1908 1.386 . S
C1909 C1913 1.393 . S
C1910 H1902 0.950 . S
C1910 C1908 1.391 . S
C1910 C1911 1.400 . S
C1911 C1910 1.400 . S
C1911 C1912 1.398 . S
C1911 C1917 1.491 . S
C1912 H1903 0.950 . S
C1912 C1911 1.398 . S
C1912 C1913 1.391 . S
C1913 H1901 0.950 . S
C1913 C1909 1.393 . S
C1913 C1912 1.391 . S
C1914 H1904 0.950 . S
C1914 C1915 1.386 . S
C1914 C1916 1.391 . S
C1915 C1914 1.386 . S
C1915 C1919 1.393 . S
C1916 H1905 0.950 . S
C1916 C1914 1.391 . S
C1916 C1917 1.400 . S
C1917 C1911 1.491 . S
C1917 C1916 1.400 . S
C1917 C1918 1.398 . S
C1918 H1906 0.950 . S
C1918 C1917 1.398 . S
C1918 C1919 1.391 . S
C1919 H1907 0.950 . S
C1919 C1915 1.393 . S
C1919 C1918 1.391 . S
H1920 C1928 0.950 . S
H1921 C1933 0.950 . S
H1922 C1930 0.950 . S
H1923 C1932 0.950 . S
H1924 C1934 0.950 . S
H1925 C1936 0.950 . S
H1926 C1938 0.950 . S
H1927 C1939 0.950 . S
C1928 H1920 0.950 . S
C1928 C1929 1.386 . S
C1928 C1930 1.391 . S
C1929 C1928 1.386 . S
C1929 C1933 1.393 . S
C1930 H1922 0.950 . S
C1930 C1928 1.391 . S
C1930 C1931 1.400 . S
C1931 C1930 1.400 . S
C1931 C1932 1.398 . S
C1931 C1937 1.491 . S
C1932 H1923 0.950 . S
C1932 C1931 1.398 . S
C1932 C1933 1.391 . S
C1933 H1921 0.950 . S
C1933 C1929 1.393 . S
C1933 C1932 1.391 . S
C1934 H1924 0.950 . S
C1934 C1935 1.386 . S
C1934 C1936 1.391 . S
C1935 C1934 1.386 . S
C1935 C1939 1.393 . S
C1936 H1925 0.950 . S
C1936 C1934 1.391 . S
C1936 C1937 1.400 . S
C1937 C1931 1.491 . S
C1937 C1936 1.400 . S
C1937 C1938 1.398 . S
C1938 H1926 0.950 . S
C1938 C1937 1.398 . S
C1938 C1939 1.391 . S
C1939 H1927 0.950 . S
C1939 C1935 1.393 . S
C1939 C1938 1.391 . S
H1940 C1948 0.950 . S
H1941 C1953 0.950 . S
H1942 C1950 0.950 . S
H1943 C1952 0.950 . S
H1944 C1954 0.950 . S
H1945 C1956 0.950 . S
H1946 C1958 0.950 . S
H1947 C1959 0.950 . S
C1948 H1940 0.950 . S
C1948 C1949 1.386 . S
C1948 C1950 1.391 . S
C1949 C1948 1.386 . S
C1949 C1953 1.393 . S
C1950 H1942 0.950 . S
C1950 C1948 1.391 . S
C1950 C1951 1.400 . S
C1951 C1950 1.400 . S
C1951 C1952 1.398 . S
C1951 C1957 1.491 . S
C1952 H1943 0.950 . S
C1952 C1951 1.398 . S
C1952 C1953 1.391 . S
C1953 H1941 0.950 . S
C1953 C1949 1.393 . S
C1953 C1952 1.391 . S
C1954 H1944 0.950 . S
C1954 C1955 1.386 . S
C1954 C1956 1.391 . S
C1955 C1954 1.386 . S
C1955 C1959 1.393 . S
C1956 H1945 0.950 . S
C1956 C1954 1.391 . S
C1956 C1957 1.400 . S
C1957 C1951 1.491 . S
C1957 C1956 1.400 . S
C1957 C1958 1.398 . S
C1958 H1946 0.950 . S
C1958 C1957 1.398 . S
C1958 C1959 1.391 . S
C1959 H1947 0.950 . S
C1959 C1955 1.393 . S
C1959 C1958 1.391 . S
H1960 C1968 0.950 . S
H1961 C1973 0.950 . S
H1962 C1970 0.950 . S
H1963 C1972 0.950 . S
H1964 C1974 0.950 . S
H1965 C1976 0.950 . S
H1966 C1978 0.950 . S
H1967 C1979 0.950 . S
C1968 H1960 0.950 . S
C1968 C1969 1.386 . S
C1968 C1970 1.391 . S
C1969 C1968 1.386 . S
C1969 C1973 1.393 . S
C1970 H1962 0.950 . S
C1970 C1968 1.391 . S
C1970 C1971 1.400 . S
C1971 C1970 1.400 . S
C1971 C1972 1.398 . S
C1971 C1977 1.491 . S
C1972 H1963 0.950 . S
C1972 C1971 1.398 . S
C1972 C1973 1.391 . S
C1973 H1961 0.950 . S
C1973 C1969 1.393 . S
C1973 C1972 1.391 . S
C1974 H1964 0.950 . S
C1974 C1975 1.386 . S
C1974 C1976 1.391 . S
C1975 C1974 1.386 . S
C1975 C1979 1.393 . S
C1976 H1965 0.950 . S
C1976 C1974 1.391 . S
C1976 C1977 1.400 . S
C1977 C1971 1.491 . S
C1977 C1976 1.400 . S
C1977 C1978 1.398 . S
C1978 H1966 0.950 . S
C1978 C1977 1.398 . S
C1978 C1979 1.391 . S
C1979 H1967 0.950 . S
C1979 C1975 1.393 . S
C1979 C1978 1.391 . S
H1980 C1988 0.950 . S
H1981 C1993 0.950 . S
H1982 C1990 0.950 . S
H1983 C1992 0.950 1_545 S
H1984 C1994 0.950 . S
H1985 C1996 0.950 . S
H1986 C1998 0.950 . S
H1987 C1999 0.950 . S
C1988 H1980 0.950 . S
C1988 C1989 1.386 . S
C1988 C1990 1.391 1_565 S
C1989 C1988 1.386 . S
C1989 C1993 1.393 . S
C1990 H1982 0.950 . S
C1990 C1988 1.391 1_545 S
C1990 C1991 1.400 . S
C1991 C1990 1.400 . S
C1991 C1992 1.398 1_545 S
C1991 C1997 1.491 . S
C1992 H1983 0.950 1_565 S
C1992 C1991 1.398 1_565 S
C1992 C1993 1.391 . S
C1993 H1981 0.950 . S
C1993 C1989 1.393 . S
C1993 C1992 1.391 . S
C1994 H1984 0.950 . S
C1994 C1995 1.386 . S
C1994 C1996 1.391 . S
C1995 C1994 1.386 . S
C1995 C1999 1.393 . S
C1996 H1985 0.950 . S
C1996 C1994 1.391 . S
C1996 C1997 1.400 . S
C1997 C1991 1.491 . S
C1997 C1996 1.400 . S
C1997 C1998 1.398 . S
C1998 H1986 0.950 . S
C1998 C1997 1.398 . S
C1998 C1999 1.391 . S
C1999 H1987 0.950 . S
C1999 C1995 1.393 . S
C1999 C1998 1.391 . S
H2000 C2008 0.950 . S
H2001 C2013 0.950 . S
H2002 C2010 0.950 . S
H2003 C2012 0.950 . S
H2004 C2014 0.950 . S
H2005 C2016 0.950 . S
H2006 C2018 0.950 . S
H2007 C2019 0.950 . S
C2008 H2000 0.950 . S
C2008 C2009 1.386 . S
C2008 C2010 1.391 1_455 S
C2009 C2008 1.386 . S
C2009 C2013 1.393 . S
C2010 H2002 0.950 . S
C2010 C2008 1.391 1_655 S
C2010 C2011 1.400 . S
C2011 C2010 1.400 . S
C2011 C2012 1.398 . S
C2011 C2017 1.491 . S
C2012 H2003 0.950 . S
C2012 C2011 1.398 . S
C2012 C2013 1.391 1_655 S
C2013 H2001 0.950 . S
C2013 C2009 1.393 . S
C2013 C2012 1.391 1_455 S
C2014 H2004 0.950 . S
C2014 C2015 1.386 . S
C2014 C2016 1.391 . S
C2015 C2014 1.386 . S
C2015 C2019 1.393 . S
C2016 H2005 0.950 . S
C2016 C2014 1.391 . S
C2016 C2017 1.400 . S
C2017 C2011 1.491 . S
C2017 C2016 1.400 . S
C2017 C2018 1.398 . S
C2018 H2006 0.950 . S
C2018 C2017 1.398 . S
C2018 C2019 1.391 . S
C2019 H2007 0.950 . S
C2019 C2015 1.393 . S
C2019 C2018 1.391 . S
H2020 C2028 0.950 . S
H2021 C2033 0.950 . S
H2022 C2030 0.950 . S
H2023 C2032 0.950 . S
H2024 C2034 0.950 . S
H2025 C2036 0.950 . S
H2026 C2038 0.950 . S
H2027 C2039 0.950 . S
C2028 H2020 0.950 . S
C2028 C2029 1.386 . S
C2028 C2030 1.391 . S
C2029 C2028 1.386 . S
C2029 C2033 1.393 . S
C2030 H2022 0.950 . S
C2030 C2028 1.391 . S
C2030 C2031 1.400 . S
C2031 C2030 1.400 . S
C2031 C2032 1.398 . S
C2031 C2037 1.491 . S
C2032 H2023 0.950 . S
C2032 C2031 1.398 . S
C2032 C2033 1.391 . S
C2033 H2021 0.950 . S
C2033 C2029 1.393 . S
C2033 C2032 1.391 . S
C2034 H2024 0.950 . S
C2034 C2035 1.386 . S
C2034 C2036 1.391 . S
C2035 C2034 1.386 . S
C2035 C2039 1.393 . S
C2036 H2025 0.950 . S
C2036 C2034 1.391 . S
C2036 C2037 1.400 . S
C2037 C2031 1.491 . S
C2037 C2036 1.400 . S
C2037 C2038 1.398 . S
C2038 H2026 0.950 . S
C2038 C2037 1.398 . S
C2038 C2039 1.391 . S
C2039 H2027 0.950 . S
C2039 C2035 1.393 . S
C2039 C2038 1.391 . S
H2040 C2048 0.950 . S
H2041 C2053 0.950 . S
H2042 C2050 0.950 . S
H2043 C2052 0.950 . S
H2044 C2054 0.950 . S
H2045 C2056 0.950 . S
H2046 C2058 0.950 . S
H2047 C2059 0.950 . S
C2048 H2040 0.950 . S
C2048 C2049 1.386 . S
C2048 C2050 1.391 1_455 S
C2049 C2048 1.386 . S
C2049 C2053 1.393 . S
C2050 H2042 0.950 . S
C2050 C2048 1.391 1_655 S
C2050 C2051 1.400 . S
C2051 C2050 1.400 . S
C2051 C2052 1.398 . S
C2051 C2057 1.491 . S
C2052 H2043 0.950 . S
C2052 C2051 1.398 . S
C2052 C2053 1.391 1_655 S
C2053 H2041 0.950 . S
C2053 C2049 1.393 . S
C2053 C2052 1.391 1_455 S
C2054 H2044 0.950 . S
C2054 C2055 1.386 . S
C2054 C2056 1.391 . S
C2055 C2054 1.386 . S
C2055 C2059 1.393 . S
C2056 H2045 0.950 . S
C2056 C2054 1.391 . S
C2056 C2057 1.400 . S
C2057 C2051 1.491 . S
C2057 C2056 1.400 . S
C2057 C2058 1.398 . S
C2058 H2046 0.950 . S
C2058 C2057 1.398 . S
C2058 C2059 1.391 . S
C2059 H2047 0.950 . S
C2059 C2055 1.393 . S
C2059 C2058 1.391 . S
H2060 C2068 0.950 . S
H2061 C2073 0.950 . S
H2062 C2070 0.950 . S
H2063 C2072 0.950 . S
H2064 C2074 0.950 . S
H2065 C2076 0.950 . S
H2066 C2078 0.950 . S
H2067 C2079 0.950 . S
C2068 H2060 0.950 . S
C2068 C2069 1.386 . S
C2068 C2070 1.391 . S
C2069 C2068 1.386 . S
C2069 C2073 1.393 . S
C2070 H2062 0.950 . S
C2070 C2068 1.391 . S
C2070 C2071 1.400 . S
C2071 C2070 1.400 . S
C2071 C2072 1.398 . S
C2071 C2077 1.491 . S
C2072 H2063 0.950 . S
C2072 C2071 1.398 . S
C2072 C2073 1.391 . S
C2073 H2061 0.950 . S
C2073 C2069 1.393 . S
C2073 C2072 1.391 . S
C2074 H2064 0.950 . S
C2074 C2075 1.386 . S
C2074 C2076 1.391 . S
C2075 C2074 1.386 . S
C2075 C2079 1.393 . S
C2076 H2065 0.950 . S
C2076 C2074 1.391 . S
C2076 C2077 1.400 . S
C2077 C2071 1.491 . S
C2077 C2076 1.400 . S
C2077 C2078 1.398 . S
C2078 H2066 0.950 . S
C2078 C2077 1.398 . S
C2078 C2079 1.391 . S
C2079 H2067 0.950 . S
C2079 C2075 1.393 . S
C2079 C2078 1.391 . S
H2080 C2088 0.950 . S
H2081 C2093 0.950 . S
H2082 C2090 0.950 1_545 S
H2083 C2092 0.950 1_545 S
H2084 C2094 0.950 . S
H2085 C2096 0.950 . S
H2086 C2098 0.950 . S
H2087 C2099 0.950 . S
C2088 H2080 0.950 . S
C2088 C2089 1.386 . S
C2088 C2090 1.391 . S
C2089 C2088 1.386 . S
C2089 C2093 1.393 . S
C2090 H2082 0.950 1_565 S
C2090 C2088 1.391 . S
C2090 C2091 1.400 1_565 S
C2091 C2090 1.400 1_545 S
C2091 C2092 1.398 1_545 S
C2091 C2097 1.491 . S
C2092 H2083 0.950 1_565 S
C2092 C2091 1.398 1_565 S
C2092 C2093 1.391 . S
C2093 H2081 0.950 . S
C2093 C2089 1.393 . S
C2093 C2092 1.391 . S
C2094 H2084 0.950 . S
C2094 C2095 1.386 . S
C2094 C2096 1.391 . S
C2095 C2094 1.386 . S
C2095 C2099 1.393 . S
C2096 H2085 0.950 . S
C2096 C2094 1.391 . S
C2096 C2097 1.400 . S
C2097 C2091 1.491 . S
C2097 C2096 1.400 . S
C2097 C2098 1.398 . S
C2098 H2086 0.950 . S
C2098 C2097 1.398 . S
C2098 C2099 1.391 . S
C2099 H2087 0.950 . S
C2099 C2095 1.393 . S
C2099 C2098 1.391 . S
H2100 C2108 0.950 . S
H2101 C2113 0.950 . S
H2102 C2110 0.950 . S
H2103 C2112 0.950 . S
H2104 C2114 0.950 . S
H2105 C2116 0.950 . S
H2106 C2118 0.950 . S
H2107 C2119 0.950 . S
C2108 H2100 0.950 . S
C2108 C2109 1.386 . S
C2108 C2110 1.391 . S
C2109 C2108 1.386 . S
C2109 C2113 1.393 . S
C2110 H2102 0.950 . S
C2110 C2108 1.391 . S
C2110 C2111 1.400 . S
C2111 C2110 1.400 . S
C2111 C2112 1.398 . S
C2111 C2117 1.491 . S
C2112 H2103 0.950 . S
C2112 C2111 1.398 . S
C2112 C2113 1.391 . S
C2113 H2101 0.950 . S
C2113 C2109 1.393 . S
C2113 C2112 1.391 . S
C2114 H2104 0.950 . S
C2114 C2115 1.386 . S
C2114 C2116 1.391 . S
C2115 C2114 1.386 . S
C2115 C2119 1.393 . S
C2116 H2105 0.950 . S
C2116 C2114 1.391 . S
C2116 C2117 1.400 . S
C2117 C2111 1.491 . S
C2117 C2116 1.400 . S
C2117 C2118 1.398 . S
C2118 H2106 0.950 . S
C2118 C2117 1.398 . S
C2118 C2119 1.391 . S
C2119 H2107 0.950 . S
C2119 C2115 1.393 . S
C2119 C2118 1.391 . S
H2120 C2128 0.950 . S
H2121 C2133 0.950 . S
H2122 C2130 0.950 . S
H2123 C2132 0.950 . S
H2124 C2134 0.950 . S
H2125 C2136 0.950 . S
H2126 C2138 0.950 . S
H2127 C2139 0.950 . S
C2128 H2120 0.950 . S
C2128 C2129 1.386 . S
C2128 C2130 1.391 . S
C2129 C2128 1.386 . S
C2129 C2133 1.393 . S
C2130 H2122 0.950 . S
C2130 C2128 1.391 . S
C2130 C2131 1.400 . S
C2131 C2130 1.400 . S
C2131 C2132 1.398 . S
C2131 C2137 1.491 . S
C2132 H2123 0.950 . S
C2132 C2131 1.398 . S
C2132 C2133 1.391 . S
C2133 H2121 0.950 . S
C2133 C2129 1.393 . S
C2133 C2132 1.391 . S
C2134 H2124 0.950 . S
C2134 C2135 1.386 . S
C2134 C2136 1.391 . S
C2135 C2134 1.386 . S
C2135 C2139 1.393 . S
C2136 H2125 0.950 . S
C2136 C2134 1.391 . S
C2136 C2137 1.400 . S
C2137 C2131 1.491 . S
C2137 C2136 1.400 . S
C2137 C2138 1.398 . S
C2138 H2126 0.950 . S
C2138 C2137 1.398 . S
C2138 C2139 1.391 . S
C2139 H2127 0.950 . S
C2139 C2135 1.393 . S
C2139 C2138 1.391 . S
H2140 C2148 0.950 . S
H2141 C2153 0.950 . S
H2142 C2150 0.950 . S
H2143 C2152 0.950 . S
H2144 C2154 0.950 . S
H2145 C2156 0.950 . S
H2146 C2158 0.950 . S
H2147 C2159 0.950 . S
C2148 H2140 0.950 . S
C2148 C2149 1.386 . S
C2148 C2150 1.391 . S
C2149 C2148 1.386 . S
C2149 C2153 1.393 . S
C2150 H2142 0.950 . S
C2150 C2148 1.391 . S
C2150 C2151 1.400 . S
C2151 C2150 1.400 . S
C2151 C2152 1.398 . S
C2151 C2157 1.491 . S
C2152 H2143 0.950 . S
C2152 C2151 1.398 . S
C2152 C2153 1.391 . S
C2153 H2141 0.950 . S
C2153 C2149 1.393 . S
C2153 C2152 1.391 . S
C2154 H2144 0.950 . S
C2154 C2155 1.386 . S
C2154 C2156 1.391 . S
C2155 C2154 1.386 . S
C2155 C2159 1.393 . S
C2156 H2145 0.950 . S
C2156 C2154 1.391 . S
C2156 C2157 1.400 . S
C2157 C2151 1.491 . S
C2157 C2156 1.400 . S
C2157 C2158 1.398 . S
C2158 H2146 0.950 . S
C2158 C2157 1.398 . S
C2158 C2159 1.391 . S
C2159 H2147 0.950 . S
C2159 C2155 1.393 . S
C2159 C2158 1.391 . S
H2160 C2168 0.950 . S
H2161 C2173 0.950 . S
H2162 C2170 0.950 . S
H2163 C2172 0.950 . S
H2164 C2174 0.950 . S
H2165 C2176 0.950 . S
H2166 C2178 0.950 . S
H2167 C2179 0.950 . S
C2168 H2160 0.950 . S
C2168 C2169 1.386 . S
C2168 C2170 1.391 . S
C2169 C2168 1.386 . S
C2169 C2173 1.393 . S
C2170 H2162 0.950 . S
C2170 C2168 1.391 . S
C2170 C2171 1.400 . S
C2171 C2170 1.400 . S
C2171 C2172 1.398 . S
C2171 C2177 1.491 . S
C2172 H2163 0.950 . S
C2172 C2171 1.398 . S
C2172 C2173 1.391 . S
C2173 H2161 0.950 . S
C2173 C2169 1.393 . S
C2173 C2172 1.391 . S
C2174 H2164 0.950 . S
C2174 C2175 1.386 . S
C2174 C2176 1.391 . S
C2175 C2174 1.386 . S
C2175 C2179 1.393 . S
C2176 H2165 0.950 . S
C2176 C2174 1.391 . S
C2176 C2177 1.400 . S
C2177 C2171 1.491 . S
C2177 C2176 1.400 . S
C2177 C2178 1.398 . S
C2178 H2166 0.950 . S
C2178 C2177 1.398 . S
C2178 C2179 1.391 . S
C2179 H2167 0.950 . S
C2179 C2175 1.393 . S
C2179 C2178 1.391 . S
H2180 C2188 0.950 . S
H2181 C2193 0.950 . S
H2182 C2190 0.950 . S
H2183 C2192 0.950 . S
H2184 C2194 0.950 . S
H2185 C2196 0.950 . S
H2186 C2198 0.950 . S
H2187 C2199 0.950 . S
C2188 H2180 0.950 . S
C2188 C2189 1.386 1_655 S
C2188 C2190 1.391 . S
C2189 C2188 1.386 1_455 S
C2189 C2193 1.393 . S
C2190 H2182 0.950 . S
C2190 C2188 1.391 . S
C2190 C2191 1.400 1_655 S
C2191 C2190 1.400 1_455 S
C2191 C2192 1.398 . S
C2191 C2197 1.491 . S
C2192 H2183 0.950 . S
C2192 C2191 1.398 . S
C2192 C2193 1.391 . S
C2193 H2181 0.950 . S
C2193 C2189 1.393 . S
C2193 C2192 1.391 . S
C2194 H2184 0.950 . S
C2194 C2195 1.386 . S
C2194 C2196 1.391 . S
C2195 C2194 1.386 . S
C2195 C2199 1.393 1_455 S
C2196 H2185 0.950 . S
C2196 C2194 1.391 . S
C2196 C2197 1.400 . S
C2197 C2191 1.491 . S
C2197 C2196 1.400 . S
C2197 C2198 1.398 1_455 S
C2198 H2186 0.950 . S
C2198 C2197 1.398 1_655 S
C2198 C2199 1.391 . S
C2199 H2187 0.950 . S
C2199 C2195 1.393 1_655 S
C2199 C2198 1.391 . S
H2200 C2208 0.950 . S
H2201 C2213 0.950 . S
H2202 C2210 0.950 . S
H2203 C2212 0.950 . S
H2204 C2214 0.950 . S
H2205 C2216 0.950 . S
H2206 C2218 0.950 . S
H2207 C2219 0.950 . S
C2208 H2200 0.950 . S
C2208 C2209 1.386 . S
C2208 C2210 1.391 . S
C2209 C2208 1.386 . S
C2209 C2213 1.393 . S
C2210 H2202 0.950 . S
C2210 C2208 1.391 . S
C2210 C2211 1.400 . S
C2211 C2210 1.400 . S
C2211 C2212 1.398 . S
C2211 C2217 1.491 . S
C2212 H2203 0.950 . S
C2212 C2211 1.398 . S
C2212 C2213 1.391 . S
C2213 H2201 0.950 . S
C2213 C2209 1.393 . S
C2213 C2212 1.391 . S
C2214 H2204 0.950 . S
C2214 C2215 1.386 . S
C2214 C2216 1.391 . S
C2215 C2214 1.386 . S
C2215 C2219 1.393 . S
C2216 H2205 0.950 . S
C2216 C2214 1.391 . S
C2216 C2217 1.400 . S
C2217 C2211 1.491 . S
C2217 C2216 1.400 . S
C2217 C2218 1.398 . S
C2218 H2206 0.950 . S
C2218 C2217 1.398 . S
C2218 C2219 1.391 . S
C2219 H2207 0.950 . S
C2219 C2215 1.393 . S
C2219 C2218 1.391 . S
H2220 C2228 0.950 1_455 S
H2221 C2233 0.950 . S
H2222 C2230 0.950 1_455 S
H2223 C2232 0.950 . S
H2224 C2234 0.950 . S
H2225 C2236 0.950 . S
H2226 C2238 0.950 1_455 S
H2227 C2239 0.938 . S
C2228 H2220 0.950 1_655 S
C2228 C2229 1.386 . S
C2228 C2230 1.391 . S
C2229 C2228 1.386 . S
C2229 C2233 1.393 . S
C2230 H2222 0.950 1_655 S
C2230 C2228 1.391 . S
C2230 C2231 1.400 . S
C2231 C2230 1.400 . S
C2231 C2232 1.398 . S
C2231 C2237 1.491 . S
C2232 H2223 0.950 . S
C2232 C2231 1.398 . S
C2232 C2233 1.391 . S
C2233 H2221 0.950 . S
C2233 C2229 1.393 . S
C2233 C2232 1.391 . S
C2234 H2224 0.950 . S
C2234 C2235 1.386 . S
C2234 C2236 1.391 . S
C2235 C2234 1.386 . S
C2235 C2239 1.393 . S
C2236 H2225 0.950 . S
C2236 C2234 1.391 . S
C2236 C2237 1.400 . S
C2237 C2231 1.491 . S
C2237 C2236 1.400 . S
C2237 C2238 1.398 . S
C2238 H2226 0.950 1_655 S
C2238 C2237 1.398 . S
C2238 C2239 1.391 . S
C2239 H2227 0.938 . S
C2239 C2235 1.393 . S
C2239 C2238 1.391 . S
H2240 C2248 0.950 . S
H2241 C2253 0.950 . S
H2242 C2250 0.950 . S
H2243 C2252 0.950 . S
H2244 C2254 0.950 . S
H2245 C2256 0.950 . S
H2246 C2258 0.950 . S
H2247 C2259 0.950 . S
C2248 H2240 0.950 . S
C2248 C2249 1.386 . S
C2248 C2250 1.391 . S
C2249 C2248 1.386 . S
C2249 C2253 1.393 . S
C2250 H2242 0.950 . S
C2250 C2248 1.391 . S
C2250 C2251 1.400 . S
C2251 C2250 1.400 . S
C2251 C2252 1.398 . S
C2251 C2257 1.491 . S
C2252 H2243 0.950 . S
C2252 C2251 1.398 . S
C2252 C2253 1.391 . S
C2253 H2241 0.950 . S
C2253 C2249 1.393 . S
C2253 C2252 1.391 . S
C2254 H2244 0.950 . S
C2254 C2255 1.386 . S
C2254 C2256 1.391 . S
C2255 C2254 1.386 . S
C2255 C2259 1.393 . S
C2256 H2245 0.950 . S
C2256 C2254 1.391 . S
C2256 C2257 1.400 . S
C2257 C2251 1.491 . S
C2257 C2256 1.400 . S
C2257 C2258 1.398 . S
C2258 H2246 0.950 . S
C2258 C2257 1.398 . S
C2258 C2259 1.391 . S
C2259 H2247 0.950 . S
C2259 C2255 1.393 . S
C2259 C2258 1.391 . S
H2260 C2268 0.950 1_565 S
H2261 C2273 0.950 . S
H2262 C2270 0.950 1_565 S
H2263 C2272 0.950 . S
H2264 C2274 0.950 . S
H2265 C2276 0.950 . S
H2266 C2278 0.950 . S
H2267 C2279 0.950 . S
C2268 H2260 0.950 1_545 S
C2268 C2269 1.386 . S
C2268 C2270 1.391 . S
C2269 C2268 1.386 . S
C2269 C2273 1.393 . S
C2270 H2262 0.950 1_545 S
C2270 C2268 1.391 . S
C2270 C2271 1.400 . S
C2271 C2270 1.400 . S
C2271 C2272 1.398 . S
C2271 C2277 1.491 . S
C2272 H2263 0.950 . S
C2272 C2271 1.398 . S
C2272 C2273 1.391 . S
C2273 H2261 0.950 . S
C2273 C2269 1.393 . S
C2273 C2272 1.391 . S
C2274 H2264 0.950 . S
C2274 C2275 1.386 . S
C2274 C2276 1.391 . S
C2275 C2274 1.386 . S
C2275 C2279 1.393 1_545 S
C2276 H2265 0.950 . S
C2276 C2274 1.391 . S
C2276 C2277 1.400 . S
C2277 C2271 1.491 . S
C2277 C2276 1.400 . S
C2277 C2278 1.398 1_545 S
C2278 H2266 0.950 . S
C2278 C2277 1.398 1_565 S
C2278 C2279 1.391 . S
C2279 H2267 0.950 . S
C2279 C2275 1.393 1_565 S
C2279 C2278 1.391 . S
H2280 C2288 0.950 . S
H2281 C2293 0.950 . S
H2282 C2290 0.950 . S
H2283 C2292 0.950 . S
H2284 C2294 0.950 . S
H2285 C2296 0.950 . S
H2286 C2298 0.950 . S
H2287 C2299 0.950 . S
C2288 H2280 0.950 . S
C2288 C2289 1.386 . S
C2288 C2290 1.391 . S
C2289 C2288 1.386 . S
C2289 C2293 1.393 . S
C2290 H2282 0.950 . S
C2290 C2288 1.391 . S
C2290 C2291 1.400 . S
C2291 C2290 1.400 . S
C2291 C2292 1.398 . S
C2291 C2297 1.491 . S
C2292 H2283 0.950 . S
C2292 C2291 1.398 . S
C2292 C2293 1.391 . S
C2293 H2281 0.950 . S
C2293 C2289 1.393 . S
C2293 C2292 1.391 . S
C2294 H2284 0.950 . S
C2294 C2295 1.386 . S
C2294 C2296 1.391 . S
C2295 C2294 1.386 . S
C2295 C2299 1.393 . S
C2296 H2285 0.950 . S
C2296 C2294 1.391 . S
C2296 C2297 1.400 . S
C2297 C2291 1.491 . S
C2297 C2296 1.400 . S
C2297 C2298 1.398 . S
C2298 H2286 0.950 . S
C2298 C2297 1.398 . S
C2298 C2299 1.391 . S
C2299 H2287 0.950 . S
C2299 C2295 1.393 . S
C2299 C2298 1.391 . S
H2300 C2308 0.950 . S
H2301 C2313 0.950 . S
H2302 C2310 0.950 . S
H2303 C2312 0.950 . S
H2304 C2314 0.950 . S
H2305 C2316 0.950 . S
H2306 C2318 0.950 . S
H2307 C2319 0.950 . S
C2308 H2300 0.950 . S
C2308 C2309 1.386 . S
C2308 C2310 1.391 . S
C2309 C2308 1.386 . S
C2309 C2313 1.393 . S
C2310 H2302 0.950 . S
C2310 C2308 1.391 . S
C2310 C2311 1.400 . S
C2311 C2310 1.400 . S
C2311 C2312 1.398 . S
C2311 C2317 1.491 . S
C2312 H2303 0.950 . S
C2312 C2311 1.398 . S
C2312 C2313 1.391 . S
C2313 H2301 0.950 . S
C2313 C2309 1.393 . S
C2313 C2312 1.391 . S
C2314 H2304 0.950 . S
C2314 C2315 1.386 . S
C2314 C2316 1.391 . S
C2315 C2314 1.386 . S
C2315 C2319 1.393 . S
C2316 H2305 0.950 . S
C2316 C2314 1.391 . S
C2316 C2317 1.400 . S
C2317 C2311 1.491 . S
C2317 C2316 1.400 . S
C2317 C2318 1.398 . S
C2318 H2306 0.950 . S
C2318 C2317 1.398 . S
C2318 C2319 1.391 . S
C2319 H2307 0.950 . S
C2319 C2315 1.393 . S
C2319 C2318 1.391 . S
H2320 C2328 0.950 . S
H2321 C2333 0.950 . S
H2322 C2330 0.950 . S
H2323 C2332 0.950 . S
H2324 C2334 0.950 . S
H2325 C2336 0.950 . S
H2326 C2338 0.950 . S
H2327 C2339 0.950 . S
C2328 H2320 0.950 . S
C2328 C2329 1.386 . S
C2328 C2330 1.391 . S
C2329 C2328 1.386 . S
C2329 C2333 1.393 . S
C2330 H2322 0.950 . S
C2330 C2328 1.391 . S
C2330 C2331 1.400 . S
C2331 C2330 1.400 . S
C2331 C2332 1.398 . S
C2331 C2337 1.491 . S
C2332 H2323 0.950 . S
C2332 C2331 1.398 . S
C2332 C2333 1.391 . S
C2333 H2321 0.950 . S
C2333 C2329 1.393 . S
C2333 C2332 1.391 . S
C2334 H2324 0.950 . S
C2334 C2335 1.386 . S
C2334 C2336 1.391 . S
C2335 C2334 1.386 . S
C2335 C2339 1.393 . S
C2336 H2325 0.950 . S
C2336 C2334 1.391 . S
C2336 C2337 1.400 . S
C2337 C2331 1.491 . S
C2337 C2336 1.400 . S
C2337 C2338 1.398 . S
C2338 H2326 0.950 . S
C2338 C2337 1.398 . S
C2338 C2339 1.391 . S
C2339 H2327 0.950 . S
C2339 C2335 1.393 . S
C2339 C2338 1.391 . S
H2340 C2348 0.950 . S
H2341 C2353 0.950 . S
H2342 C2350 0.950 . S
H2343 C2352 0.950 . S
H2344 C2354 0.950 . S
H2345 C2356 0.950 . S
H2346 C2358 0.950 . S
H2347 C2359 0.950 . S
C2348 H2340 0.950 . S
C2348 C2349 1.386 . S
C2348 C2350 1.391 . S
C2349 C2348 1.386 . S
C2349 C2353 1.393 . S
C2350 H2342 0.950 . S
C2350 C2348 1.391 . S
C2350 C2351 1.400 . S
C2351 C2350 1.400 . S
C2351 C2352 1.398 . S
C2351 C2357 1.491 . S
C2352 H2343 0.950 . S
C2352 C2351 1.398 . S
C2352 C2353 1.391 . S
C2353 H2341 0.950 . S
C2353 C2349 1.393 . S
C2353 C2352 1.391 . S
C2354 H2344 0.950 . S
C2354 C2355 1.386 . S
C2354 C2356 1.391 . S
C2355 C2354 1.386 . S
C2355 C2359 1.393 . S
C2356 H2345 0.950 . S
C2356 C2354 1.391 . S
C2356 C2357 1.400 . S
C2357 C2351 1.491 . S
C2357 C2356 1.400 . S
C2357 C2358 1.398 . S
C2358 H2346 0.950 . S
C2358 C2357 1.398 . S
C2358 C2359 1.391 . S
C2359 H2347 0.950 . S
C2359 C2355 1.393 . S
C2359 C2358 1.391 . S
H2360 C2368 0.950 . S
H2361 C2373 0.950 . S
H2362 C2370 0.950 . S
H2363 C2372 0.950 . S
H2364 C2374 0.950 . S
H2365 C2376 0.950 . S
H2366 C2378 0.950 . S
H2367 C2379 0.950 . S
C2368 H2360 0.950 . S
C2368 C2369 1.386 . S
C2368 C2370 1.391 . S
C2369 C2368 1.386 . S
C2369 C2373 1.393 . S
C2370 H2362 0.950 . S
C2370 C2368 1.391 . S
C2370 C2371 1.400 . S
C2371 C2370 1.400 . S
C2371 C2372 1.398 . S
C2371 C2377 1.491 . S
C2372 H2363 0.950 . S
C2372 C2371 1.398 . S
C2372 C2373 1.391 . S
C2373 H2361 0.950 . S
C2373 C2369 1.393 . S
C2373 C2372 1.391 . S
C2374 H2364 0.950 . S
C2374 C2375 1.386 . S
C2374 C2376 1.391 . S
C2375 C2374 1.386 . S
C2375 C2379 1.393 . S
C2376 H2365 0.950 . S
C2376 C2374 1.391 . S
C2376 C2377 1.400 . S
C2377 C2371 1.491 . S
C2377 C2376 1.400 . S
C2377 C2378 1.398 . S
C2378 H2366 0.950 . S
C2378 C2377 1.398 . S
C2378 C2379 1.391 . S
C2379 H2367 0.950 . S
C2379 C2375 1.393 . S
C2379 C2378 1.391 . S
H2380 C2388 0.950 . S
H2381 C2393 0.950 . S
H2382 C2390 0.950 . S
H2383 C2392 0.950 . S
H2384 C2394 0.950 . S
H2385 C2396 0.950 . S
H2386 C2398 0.950 . S
H2387 C2399 0.950 . S
C2388 H2380 0.950 . S
C2388 C2389 1.386 . S
C2388 C2390 1.391 . S
C2389 C2388 1.386 . S
C2389 C2393 1.393 . S
C2390 H2382 0.950 . S
C2390 C2388 1.391 . S
C2390 C2391 1.400 . S
C2391 C2390 1.400 . S
C2391 C2392 1.398 . S
C2391 C2397 1.491 . S
C2392 H2383 0.950 . S
C2392 C2391 1.398 . S
C2392 C2393 1.391 . S
C2393 H2381 0.950 . S
C2393 C2389 1.393 . S
C2393 C2392 1.391 . S
C2394 H2384 0.950 . S
C2394 C2395 1.386 . S
C2394 C2396 1.391 . S
C2395 C2394 1.386 . S
C2395 C2399 1.393 . S
C2396 H2385 0.950 . S
C2396 C2394 1.391 . S
C2396 C2397 1.400 . S
C2397 C2391 1.491 . S
C2397 C2396 1.400 . S
C2397 C2398 1.398 . S
C2398 H2386 0.950 . S
C2398 C2397 1.398 . S
C2398 C2399 1.391 . S
C2399 H2387 0.950 . S
C2399 C2395 1.393 . S
C2399 C2398 1.391 . S
H2400 C2408 0.950 . S
H2401 C2413 0.950 . S
H2402 C2410 0.950 . S
H2403 C2412 0.950 . S
H2404 C2414 0.950 . S
H2405 C2416 0.950 . S
H2406 C2418 0.950 . S
H2407 C2419 0.950 . S
C2408 H2400 0.950 . S
C2408 C2409 1.386 . S
C2408 C2410 1.391 . S
C2409 C2408 1.386 . S
C2409 C2413 1.393 . S
C2410 H2402 0.950 . S
C2410 C2408 1.391 . S
C2410 C2411 1.400 . S
C2411 C2410 1.400 . S
C2411 C2412 1.398 . S
C2411 C2417 1.491 . S
C2412 H2403 0.950 . S
C2412 C2411 1.398 . S
C2412 C2413 1.391 . S
C2413 H2401 0.950 . S
C2413 C2409 1.393 . S
C2413 C2412 1.391 . S
C2414 H2404 0.950 . S
C2414 C2415 1.386 . S
C2414 C2416 1.391 . S
C2415 C2414 1.386 . S
C2415 C2419 1.393 . S
C2416 H2405 0.950 . S
C2416 C2414 1.391 . S
C2416 C2417 1.400 . S
C2417 C2411 1.491 . S
C2417 C2416 1.400 . S
C2417 C2418 1.398 . S
C2418 H2406 0.950 . S
C2418 C2417 1.398 . S
C2418 C2419 1.391 . S
C2419 H2407 0.950 . S
C2419 C2415 1.393 . S
C2419 C2418 1.391 . S
H2420 C2428 0.950 . S
H2421 C2433 0.950 . S
H2422 C2430 0.950 . S
H2423 C2432 0.950 . S
H2424 C2434 0.950 . S
H2425 C2436 0.950 . S
H2426 C2438 0.950 . S
H2427 C2439 0.950 . S
C2428 H2420 0.950 . S
C2428 C2429 1.386 . S
C2428 C2430 1.391 . S
C2429 C2428 1.386 . S
C2429 C2433 1.393 . S
C2430 H2422 0.950 . S
C2430 C2428 1.391 . S
C2430 C2431 1.400 . S
C2431 C2430 1.400 . S
C2431 C2432 1.398 . S
C2431 C2437 1.491 . S
C2432 H2423 0.950 . S
C2432 C2431 1.398 . S
C2432 C2433 1.391 . S
C2433 H2421 0.950 . S
C2433 C2429 1.393 . S
C2433 C2432 1.391 . S
C2434 H2424 0.950 . S
C2434 C2435 1.386 . S
C2434 C2436 1.391 . S
C2435 C2434 1.386 . S
C2435 C2439 1.393 . S
C2436 H2425 0.950 . S
C2436 C2434 1.391 . S
C2436 C2437 1.400 . S
C2437 C2431 1.491 . S
C2437 C2436 1.400 . S
C2437 C2438 1.398 . S
C2438 H2426 0.950 . S
C2438 C2437 1.398 . S
C2438 C2439 1.391 . S
C2439 H2427 0.950 . S
C2439 C2435 1.393 . S
C2439 C2438 1.391 . S
H2440 C2448 0.950 . S
H2441 C2453 0.950 . S
H2442 C2450 0.950 . S
H2443 C2452 0.950 . S
H2444 C2454 0.950 . S
H2445 C2456 0.950 . S
H2446 C2458 0.950 . S
H2447 C2459 0.950 . S
C2448 H2440 0.950 . S
C2448 C2449 1.386 . S
C2448 C2450 1.391 . S
C2449 C2448 1.386 . S
C2449 C2453 1.393 . S
C2450 H2442 0.950 . S
C2450 C2448 1.391 . S
C2450 C2451 1.400 . S
C2451 C2450 1.400 . S
C2451 C2452 1.398 . S
C2451 C2457 1.491 . S
C2452 H2443 0.950 . S
C2452 C2451 1.398 . S
C2452 C2453 1.391 . S
C2453 H2441 0.950 . S
C2453 C2449 1.393 . S
C2453 C2452 1.391 . S
C2454 H2444 0.950 . S
C2454 C2455 1.386 . S
C2454 C2456 1.391 . S
C2455 C2454 1.386 . S
C2455 C2459 1.393 . S
C2456 H2445 0.950 . S
C2456 C2454 1.391 . S
C2456 C2457 1.400 . S
C2457 C2451 1.491 . S
C2457 C2456 1.400 . S
C2457 C2458 1.398 . S
C2458 H2446 0.950 . S
C2458 C2457 1.398 . S
C2458 C2459 1.391 . S
C2459 H2447 0.950 . S
C2459 C2455 1.393 . S
C2459 C2458 1.391 . S
H2460 C2468 0.950 . S
H2461 C2473 0.950 . S
H2462 C2470 0.950 . S
H2463 C2472 0.950 . S
H2464 C2474 0.950 . S
H2465 C2476 0.950 . S
H2466 C2478 0.950 . S
H2467 C2479 0.950 . S
C2468 H2460 0.950 . S
C2468 C2469 1.386 . S
C2468 C2470 1.391 . S
C2469 C2468 1.386 . S
C2469 C2473 1.393 . S
C2470 H2462 0.950 . S
C2470 C2468 1.391 . S
C2470 C2471 1.400 . S
C2471 C2470 1.400 . S
C2471 C2472 1.398 . S
C2471 C2477 1.491 . S
C2472 H2463 0.950 . S
C2472 C2471 1.398 . S
C2472 C2473 1.391 . S
C2473 H2461 0.950 . S
C2473 C2469 1.393 . S
C2473 C2472 1.391 . S
C2474 H2464 0.950 . S
C2474 C2475 1.386 . S
C2474 C2476 1.391 . S
C2475 C2474 1.386 . S
C2475 C2479 1.393 . S
C2476 H2465 0.950 . S
C2476 C2474 1.391 . S
C2476 C2477 1.400 . S
C2477 C2471 1.491 . S
C2477 C2476 1.400 . S
C2477 C2478 1.398 . S
C2478 H2466 0.950 . S
C2478 C2477 1.398 . S
C2478 C2479 1.391 . S
C2479 H2467 0.950 . S
C2479 C2475 1.393 . S
C2479 C2478 1.391 . S
H2480 C2488 0.950 . S
H2481 C2493 0.950 . S
H2482 C2490 0.950 . S
H2483 C2492 0.950 . S
H2484 C2494 0.950 . S
H2485 C2496 0.950 . S
H2486 C2498 0.950 . S
H2487 C2499 0.950 . S
C2488 H2480 0.950 . S
C2488 C2489 1.386 . S
C2488 C2490 1.391 . S
C2489 C2488 1.386 . S
C2489 C2493 1.393 . S
C2490 H2482 0.950 . S
C2490 C2488 1.391 . S
C2490 C2491 1.400 . S
C2491 C2490 1.400 . S
C2491 C2492 1.398 . S
C2491 C2497 1.491 . S
C2492 H2483 0.950 . S
C2492 C2491 1.398 . S
C2492 C2493 1.391 . S
C2493 H2481 0.950 . S
C2493 C2489 1.393 . S
C2493 C2492 1.391 . S
C2494 H2484 0.950 . S
C2494 C2495 1.386 . S
C2494 C2496 1.391 . S
C2495 C2494 1.386 . S
C2495 C2499 1.393 . S
C2496 H2485 0.950 . S
C2496 C2494 1.391 . S
C2496 C2497 1.400 . S
C2497 C2491 1.491 . S
C2497 C2496 1.400 . S
C2497 C2498 1.398 . S
C2498 H2486 0.950 . S
C2498 C2497 1.398 . S
C2498 C2499 1.391 . S
C2499 H2487 0.950 . S
C2499 C2495 1.393 . S
C2499 C2498 1.391 . S
H2500 C2508 0.950 . S
H2501 C2513 0.950 . S
H2502 C2510 0.950 . S
H2503 C2512 0.950 . S
H2504 C2514 0.950 . S
H2505 C2516 0.950 . S
H2506 C2518 0.950 . S
H2507 C2519 0.950 . S
C2508 H2500 0.950 . S
C2508 C2509 1.386 . S
C2508 C2510 1.391 . S
C2509 C2508 1.386 . S
C2509 C2513 1.393 . S
C2510 H2502 0.950 . S
C2510 C2508 1.391 . S
C2510 C2511 1.400 . S
C2511 C2510 1.400 . S
C2511 C2512 1.398 . S
C2511 C2517 1.491 . S
C2512 H2503 0.950 . S
C2512 C2511 1.398 . S
C2512 C2513 1.391 . S
C2513 H2501 0.950 . S
C2513 C2509 1.393 . S
C2513 C2512 1.391 . S
C2514 H2504 0.950 . S
C2514 C2515 1.386 . S
C2514 C2516 1.391 . S
C2515 C2514 1.386 . S
C2515 C2519 1.393 . S
C2516 H2505 0.950 . S
C2516 C2514 1.391 . S
C2516 C2517 1.400 . S
C2517 C2511 1.491 . S
C2517 C2516 1.400 . S
C2517 C2518 1.398 . S
C2518 H2506 0.950 . S
C2518 C2517 1.398 . S
C2518 C2519 1.391 . S
C2519 H2507 0.950 . S
C2519 C2515 1.393 . S
C2519 C2518 1.391 . S
C1449 C781 1.672 . S
C1455 C1089 1.634 . S
C1469 C871 1.748 . S
C1475 C1129 1.760 . S
C1489 C751 1.693 . S
C1495 C1168 1.751 . S
C1509 C691 1.528 . S
C1515 C1128 1.573 . S
C1535 C1169 1.444 . S
C1529 C571 1.396 . S
C1549 C601 1.415 . S
C1555 C1088 1.434 . S
C1575 C1099 1.653 . S
C1569 C661 1.614 . S
C1595 C1139 1.747 . S
C1589 C541 1.712 . S
C1609 C631 1.778 . S
C1615 C1178 1.749 . S
C1629 C811 1.593 . S
C1635 C1138 1.574 . S
C1649 C841 1.442 . S
C1655 C1179 1.450 . S
C1675 C1098 1.454 . S
C1669 C721 1.374 . S
C1695 C1209 1.652 . S
C1689 C61 1.674 . S
C1709 C151 1.738 . S
C1715 C1249 1.761 . S
C1729 C31 1.684 . S
C1735 C1288 1.740 . S
C1749 C1051 1.526 . S
C1755 C1248 1.557 . S
C1769 C931 1.399 . S
C1775 C1289 1.438 . S
C1789 C961 1.426 . S
C1795 C1208 1.441 . S
C1809 C1021 1.616 . S
C1815 C1219 1.645 . S
C1829 C901 1.729 . S
C1835 C1259 1.760 . S
C1855 C1298 1.747 . S
C1849 C991 1.779 . S
C1869 C91 1.593 . S
C1875 C1258 1.574 . S
C1895 C1299 1.439 . S
C1889 C121 1.427 . S
C1909 C1 1.342 . S
C1915 C1218 1.444 . S
C1935 C1329 1.646 . S
C1929 C421 1.682 . S
C1949 C511 1.732 . S
C1955 C1369 1.747 . S
C1975 C1408 1.747 . S
C1969 C391 1.708 . S
C1995 C1368 1.570 . S
C1989 C331 1.523 . S
C2015 C1409 1.453 . S
C2009 C211 1.408 . S
C2029 C241 1.414 . S
C2035 C1328 1.437 . S
C2049 C301 1.614 . S
C2055 C1339 1.653 . S
C2069 C181 1.732 . S
C2075 C1379 1.764 . S
C2095 C1418 1.738 . S
C2089 C271 1.768 . S
C2109 C451 1.594 . S
C2115 C1378 1.573 . S
C2129 C481 1.420 . S
C2135 C1419 1.439 . S
C2149 C361 1.363 . S
C2155 C1338 1.442 . S
C2169 C920 1.315 . S
C2175 C1085 1.326 . S
C2195 C1125 1.864 . S
C2189 C980 1.840 . S
C2209 C1040 1.521 . S
C2215 C1175 1.582 . S
C2229 C380 1.780 . S
C2235 C1135 1.858 . S
C2249 C440 1.547 . S
C2255 C1165 1.583 . S
C2275 C1095 1.324 . S
C2269 C500 1.313 . S
C2289 C200 1.306 . S
C2295 C1205 1.333 . S
C2309 C260 1.840 . S
C2315 C1245 1.860 . S
C2329 C320 1.506 . S
C2335 C1295 1.583 . S
C2349 C740 1.797 . S
C2355 C1255 1.860 . S
C2375 C1285 1.583 . S
C2369 C800 1.544 . S
C2389 C860 1.305 . S
C2395 C1215 1.328 . S
C2409 C560 1.298 . S
C2415 C1325 1.330 . S
C2429 C620 1.846 . S
C2435 C1365 1.865 . S
C2455 C1415 1.583 . S
C2449 C680 1.531 . S
C2469 C20 1.782 . S
C2475 C1375 1.864 . S
C2489 C80 1.547 . S
C2495 C1405 1.584 . S
C2509 C140 1.310 . S
C2515 C1335 1.326 . S
