# Generated by pormake.
# Topology nom, (4,4)-cn, num edge types: 1
# Building blocks:
#     Node 0, Type 0, BuildingBlock: GIZVER_clean_linker_0, # of connection points: 4
#     Node 1, Type 0, BuildingBlock: GIZVER_clean_linker_0, # of connection points: 4
#     Node 2, Type 0, BuildingBlock: GIZVER_clean_linker_0, # of connection points: 4
#     Node 3, Type 0, BuildingBlock: GIZVER_clean_linker_0, # of connection points: 4
#     Node 4, Type 0, BuildingBlock: GIZVER_clean_linker_0, # of connection points: 4
#     Node 5, Type 0, BuildingBlock: GIZVER_clean_linker_0, # of connection points: 4
#     Node 6, Type 1, BuildingBlock: CEKHIL_clean_sbu_0, # of connection points: 4
#     Node 7, Type 1, BuildingBlock: CEKHIL_clean_sbu_0, # of connection points: 4
#     Node 8, Type 1, BuildingBlock: CEKHIL_clean_sbu_0, # of connection points: 4
#     Node 9, Type 1, BuildingBlock: CEKHIL_clean_sbu_0, # of connection points: 4
#     Node 10, Type 1, BuildingBlock: CEKHIL_clean_sbu_0, # of connection points: 4
#     Node 11, Type 1, BuildingBlock: CEKHIL_clean_sbu_0, # of connection points: 4
#     Edge 12, Type (0, 1), BuildingBlock: AJUNOK_clean_linker_0, # of connection points: 2
#     Edge 13, Type (0, 1), BuildingBlock: AJUNOK_clean_linker_0, # of connection points: 2
#     Edge 14, Type (0, 1), BuildingBlock: AJUNOK_clean_linker_0, # of connection points: 2
#     Edge 15, Type (0, 1), BuildingBlock: AJUNOK_clean_linker_0, # of connection points: 2
#     Edge 16, Type (0, 1), BuildingBlock: AJUNOK_clean_linker_0, # of connection points: 2
#     Edge 17, Type (0, 1), BuildingBlock: AJUNOK_clean_linker_0, # of connection points: 2
#     Edge 18, Type (0, 1), BuildingBlock: AJUNOK_clean_linker_0, # of connection points: 2
#     Edge 19, Type (0, 1), BuildingBlock: AJUNOK_clean_linker_0, # of connection points: 2
#     Edge 20, Type (0, 1), BuildingBlock: AJUNOK_clean_linker_0, # of connection points: 2
#     Edge 21, Type (0, 1), BuildingBlock: AJUNOK_clean_linker_0, # of connection points: 2
#     Edge 22, Type (0, 1), BuildingBlock: AJUNOK_clean_linker_0, # of connection points: 2
#     Edge 23, Type (0, 1), BuildingBlock: AJUNOK_clean_linker_0, # of connection points: 2
#     Edge 24, Type (0, 1), BuildingBlock: AJUNOK_clean_linker_0, # of connection points: 2
#     Edge 25, Type (0, 1), BuildingBlock: AJUNOK_clean_linker_0, # of connection points: 2
#     Edge 26, Type (0, 1), BuildingBlock: AJUNOK_clean_linker_0, # of connection points: 2
#     Edge 27, Type (0, 1), BuildingBlock: AJUNOK_clean_linker_0, # of connection points: 2
#     Edge 28, Type (0, 1), BuildingBlock: AJUNOK_clean_linker_0, # of connection points: 2
#     Edge 29, Type (0, 1), BuildingBlock: AJUNOK_clean_linker_0, # of connection points: 2
#     Edge 30, Type (0, 1), BuildingBlock: AJUNOK_clean_linker_0, # of connection points: 2
#     Edge 31, Type (0, 1), BuildingBlock: AJUNOK_clean_linker_0, # of connection points: 2
#     Edge 32, Type (0, 1), BuildingBlock: AJUNOK_clean_linker_0, # of connection points: 2
#     Edge 33, Type (0, 1), BuildingBlock: AJUNOK_clean_linker_0, # of connection points: 2
#     Edge 34, Type (0, 1), BuildingBlock: AJUNOK_clean_linker_0, # of connection points: 2
#     Edge 35, Type (0, 1), BuildingBlock: AJUNOK_clean_linker_0, # of connection points: 2
# Relax obj value: 0.005
# Max RMSD: 0.073
# Mean RMSD: 0.053
data_MOF--net-nom--node1-CEKHIL_clean_sbu_0--node2-GIZVER_clean_linker_0--edge1-AJUNOK_clean_linker_0
_symmetry_space_group_name_H-M    P1
_symmetry_Int_Tables_number       1
_symmetry_cell_setting            triclinic
loop_
_symmetry_equiv_pos_as_xyz
'x, y, z'
_cell_length_a     34.70307
_cell_length_b     34.224847
_cell_length_c     34.759022
_cell_angle_alpha  90.011767
_cell_angle_beta   89.977445
_cell_angle_gamma 121.44535
loop_
_atom_site_label
_atom_site_type_symbol
_atom_site_fract_x
_atom_site_fract_y
_atom_site_fract_z
_atom_type_partial_charge
H0 H 0.9563 0.5853 0.37124 0.0
H1 H 1.00484 0.58168 0.25737 0.0
H2 H 0.86617 0.48858 0.28733 0.0
H3 H 0.02823 0.64929 0.34871 0.0
H4 H 0.04113 0.6538 0.2989 0.0
H5 H 0.05635 0.6137 0.39346 0.0
H6 H 0.18177 0.62805 0.3593 0.0
H7 H 0.09645 0.63587 0.27407 0.0
C8 C 0.95077 0.56996 0.34296 0.0
C9 C 0.9072 0.53392 0.33265 0.0
C10 C 0.9868 0.58713 0.31598 0.0
C11 C 0.97823 0.56788 0.2788 0.0
C12 C 0.93461 0.53275 0.26862 0.0
C13 C 0.89988 0.51569 0.29564 0.0
C14 C 0.03179 0.63055 0.32413 0.0
C15 C 0.07043 0.62295 0.33247 0.0
C16 C 0.07928 0.61679 0.37083 0.0
C17 C 0.11946 0.61851 0.38047 0.0
C18 C 0.1497 0.62412 0.35135 0.0
C19 C 0.14179 0.62976 0.31283 0.0
C20 C 0.10194 0.6293 0.30344 0.0
H21 H 0.42186 0.94188 0.52727 0.0
H22 H 0.43811 0.98446 0.4086 0.0
H23 H 0.41281 0.85136 0.43716 0.0
H24 H 0.40785 1.00215 0.50652 0.0
H25 H 0.41159 0.01727 0.45728 0.0
H26 H 0.47644 0.03734 0.548 0.0
H27 H 0.57703 0.17381 0.51493 0.0
H28 H 0.4807 0.08274 0.43113 0.0
C29 C 0.42488 0.93562 0.4972 0.0
C30 C 0.41814 0.89285 0.48577 0.0
C31 C 0.43273 0.96934 0.46947 0.0
C32 C 0.4344 0.95991 0.43024 0.0
C33 C 0.42767 0.91745 0.4187 0.0
C34 C 0.42059 0.88495 0.44656 0.0
C35 C 0.42943 1.01046 0.48047 0.0
C36 C 0.47445 0.05403 0.48814 0.0
C37 C 0.49257 0.06301 0.52567 0.0
C38 C 0.52953 0.10633 0.53493 0.0
C39 C 0.54935 0.14009 0.50673 0.0
C40 C 0.53261 0.13233 0.46916 0.0
C41 C 0.49498 0.08889 0.45979 0.0
H42 H 0.38754 0.44093 0.59809 0.0
H43 H 0.44061 0.44846 0.71234 0.0
H44 H 0.40154 0.54328 0.67814 0.0
H45 H 0.38957 0.37544 0.62483 0.0
H46 H 0.40154 0.3749 0.67443 0.0
H47 H 0.4536 0.41364 0.57721 0.0
H48 H 0.56224 0.39287 0.60393 0.0
H49 H 0.4729 0.38377 0.69384 0.0
C50 C 0.39846 0.45754 0.62586 0.0
C51 C 0.39392 0.4953 0.63447 0.0
C52 C 0.4161 0.44061 0.65382 0.0
C53 C 0.42852 0.46181 0.69025 0.0
C54 C 0.42252 0.49829 0.69894 0.0
C55 C 0.40598 0.51496 0.671 0.0
C56 C 0.41448 0.39577 0.64774 0.0
C57 C 0.45957 0.40108 0.63722 0.0
C58 C 0.47338 0.40844 0.59845 0.0
C59 C 0.51042 0.40545 0.5865 0.0
C60 C 0.53492 0.3971 0.6137 0.0
C61 C 0.52204 0.38919 0.65241 0.0
C62 C 0.48418 0.39134 0.66423 0.0
H63 H 0.95186 0.38819 0.78134 0.0
H64 H 1.0105 0.43882 0.89315 0.0
H65 H 0.87955 0.41576 0.86665 0.0
H66 H 1.01644 0.38471 0.80176 0.0
H67 H 0.03217 0.39378 0.85102 0.0
H68 H 0.04972 0.45331 0.75615 0.0
H69 H 0.18904 0.55044 0.78032 0.0
H70 H 0.10352 0.46054 0.87004 0.0
C71 C 0.95098 0.40218 0.80905 0.0
C72 C 0.91133 0.40092 0.82069 0.0
C73 C 0.98796 0.41757 0.83473 0.0
C74 C 0.98413 0.43072 0.8723 0.0
C75 C 0.94453 0.42904 0.88411 0.0
C76 C 0.91011 0.41719 0.85735 0.0
C77 C 0.0264 0.40987 0.82562 0.0
C78 C 0.0707 0.45292 0.81483 0.0
C79 C 0.07727 0.46917 0.77664 0.0
C80 C 0.12018 0.5039 0.76438 0.0
C81 C 0.15596 0.52379 0.7904 0.0
C82 C 0.15058 0.50918 0.82858 0.0
C83 C 0.10774 0.47327 0.84085 0.0
H84 H 0.64315 0.09483 0.02959 0.0
H85 H 0.61687 0.04455 0.91287 0.0
H86 H 0.64191 0.17839 0.93788 0.0
H87 H 0.65102 0.03098 0.01206 0.0
H88 H 0.6514 0.01787 0.96265 0.0
H89 H 0.57442 0.99811 0.04648 0.0
H90 H 0.48135 0.85884 0.0133 0.0
H91 H 0.59114 0.94651 0.93814 0.0
C92 C 0.63739 0.09902 -0.00035 0.0
C93 C 0.64242 0.14072 0.9872 0.0
C94 C 0.62747 0.06362 0.97304 0.0
C95 C 0.62203 0.07028 0.93385 0.0
C96 C 0.6261 0.11132 0.92144 0.0
C97 C 0.63575 0.1457 0.94823 0.0
C98 C 0.63142 0.02311 0.98487 0.0
C99 C 0.58643 0.97876 0.9904 0.0
C100 C 0.56236 0.97119 0.02508 0.0
C101 C 0.5243 0.92797 0.03304 0.0
C102 C 0.50991 0.89259 0.00635 0.0
C103 C 0.53376 0.89875 0.97235 0.0
C104 C 0.57175 0.94208 0.96396 0.0
H105 H 0.66512 0.58763 0.10237 0.0
H106 H 0.61049 0.58405 0.21517 0.0
H107 H 0.64582 0.48533 0.18492 0.0
H108 H 0.66322 0.65421 0.12649 0.0
H109 H 0.65057 0.65628 0.17581 0.0
H110 H 0.59546 0.60461 0.08078 0.0
H111 H 0.48965 0.63229 0.0986 0.0
H112 H 0.58551 0.66129 0.18868 0.0
C113 C 0.65322 0.57155 0.13022 0.0
C114 C 0.65618 0.53306 0.13995 0.0
C115 C 0.63578 0.58985 0.15711 0.0
C116 C 0.62222 0.56953 0.19378 0.0
C117 C 0.62608 0.53201 0.20347 0.0
C118 C 0.6423 0.5139 0.17655 0.0
C119 C 0.638 0.63475 0.14944 0.0
C120 C 0.59319 0.6292 0.13755 0.0
C121 C 0.57715 0.61427 0.09993 0.0
C122 C 0.53977 0.61534 0.08593 0.0
C123 C 0.51766 0.63021 0.10997 0.0
C124 C 0.53446 0.64824 0.14646 0.0
C125 C 0.57164 0.64652 0.16078 0.0
Co126 Co 0.64797 0.38961 0.39263 0.0
O127 O 0.69968 0.39893 0.36345 0.0
O128 O 0.70262 0.44491 0.4096 0.0
C129 C 0.61786 0.31366 0.40401 0.0
O130 O 0.60412 0.39129 0.4308 0.0
Co131 Co 0.54908 0.32519 0.36613 0.0
O132 O 0.53228 0.33831 0.41673 0.0
C133 C 0.6033 0.41668 0.33093 0.0
C134 C 0.72394 0.43533 0.38424 0.0
C135 C 0.56151 0.36994 0.43829 0.0
O136 O 0.63601 0.42639 0.35419 0.0
O137 O 0.56716 0.3771 0.32955 0.0
O138 O 0.65119 0.34446 0.42462 0.0
O139 O 0.60624 0.32929 0.3753 0.0
Co140 Co 0.28241 0.63777 0.57015 0.0
O141 O 0.32562 0.62987 0.59895 0.0
O142 O 0.28025 0.58199 0.5543 0.0
C143 C 0.32991 0.7135 0.55666 0.0
O144 O 0.23547 0.63485 0.53268 0.0
Co145 Co 0.25091 0.70316 0.59671 0.0
O146 O 0.22059 0.68978 0.5462 0.0
C147 C 0.21074 0.61218 0.63265 0.0
C148 C 0.31234 0.59284 0.57907 0.0
C149 C 0.21566 0.65708 0.52516 0.0
O150 O 0.23367 0.60205 0.60994 0.0
O151 O 0.21529 0.65173 0.63347 0.0
O152 O 0.331 0.68203 0.5366 0.0
O153 O 0.30326 0.69863 0.58611 0.0
Co154 Co 0.66231 0.27704 0.72789 0.0
O155 O 0.66014 0.32377 0.69814 0.0
O156 O 0.60827 0.27829 0.74015 0.0
C157 C 0.73586 0.32013 0.74578 0.0
O158 O 0.6527 0.22686 0.76541 0.0
Co159 Co 0.72364 0.23922 0.70681 0.0
O160 O 0.7041 0.20673 0.75675 0.0
C161 C 0.63751 0.20496 0.66528 0.0
C162 C 0.62215 0.31137 0.71532 0.0
C163 C 0.6709 0.20377 0.7751 0.0
O164 O 0.62827 0.22977 0.68662 0.0
O165 O 0.67489 0.20606 0.66745 0.0
O166 O 0.70476 0.32301 0.76411 0.0
O167 O 0.72246 0.29461 0.71544 0.0
Co168 Co 0.41067 0.64197 0.89276 0.0
O169 O 0.36163 0.63988 0.86441 0.0
O170 O 0.35319 0.58835 0.90729 0.0
C171 C 0.44629 0.71725 0.90842 0.0
O172 O 0.45089 0.63247 0.92938 0.0
Co173 Co 0.51126 0.70209 0.86879 0.0
O174 O 0.52443 0.68095 0.91725 0.0
C175 C 0.45232 0.61434 0.82886 0.0
C176 C 0.33452 0.60244 0.88307 0.0
C177 C 0.49288 0.64901 0.93711 0.0
O178 O 0.41928 0.60558 0.85146 0.0
O179 O 0.49032 0.65221 0.82958 0.0
O180 O 0.41184 0.68692 0.92829 0.0
O181 O 0.45616 0.7021 0.87833 0.0
Co182 Co 0.7755 0.39758 0.07151 0.0
O183 O 0.72962 0.40128 0.10007 0.0
O184 O 0.77526 0.45261 0.05755 0.0
C185 C 0.7315 0.32222 0.05537 0.0
O186 O 0.82534 0.40529 0.03497 0.0
Co187 Co 0.81048 0.33472 0.0971 0.0
O188 O 0.84508 0.35395 0.04853 0.0
C189 C 0.84388 0.4227 0.13664 0.0
C190 C 0.74226 0.43927 0.08189 0.0
C191 C 0.84866 0.38653 0.02811 0.0
O192 O 0.82179 0.43273 0.11294 0.0
O193 O 0.84118 0.38397 0.13664 0.0
O194 O 0.72933 0.35356 0.03606 0.0
O195 O 0.75695 0.33675 0.08552 0.0
Co196 Co 0.3885 0.75524 0.22128 0.0
O197 O 0.3955 0.71425 0.18747 0.0
O198 O 0.4432 0.75544 0.23384 0.0
C199 C 0.31414 0.70727 0.23561 0.0
O200 O 0.39338 0.80015 0.26248 0.0
Co201 Co 0.32409 0.79042 0.20229 0.0
O202 O 0.34171 0.81992 0.25348 0.0
C203 C 0.4115 0.83022 0.16182 0.0
C204 C 0.43247 0.72608 0.20614 0.0
C205 C 0.37393 0.82194 0.27267 0.0
O206 O 0.42285 0.80737 0.18362 0.0
O207 O 0.37233 0.82531 0.16291 0.0
O208 O 0.3452 0.70362 0.25317 0.0
O209 O 0.32848 0.73654 0.20776 0.0
C210 C 0.19804 0.68436 0.2643 0.0
C211 C 0.17941 0.64295 0.2849 0.0
C212 C 0.24071 0.7039 0.24656 0.0
C213 C 0.26659 0.68313 0.24938 0.0
H214 H 0.18101 0.70336 0.26407 0.0
H215 H 0.25456 0.7368 0.23256 0.0
S216 S 0.22963 0.57054 0.294 0.0
N217 N 0.18734 0.57859 0.30193 0.0
N218 N 0.26792 0.61611 0.27006 0.0
C219 C 0.24695 0.64023 0.26747 0.0
C220 C 0.20326 0.61991 0.28472 0.0
C221 C 0.60043 0.20184 0.44189 0.0
C222 C 0.55302 0.17258 0.44262 0.0
C223 C 0.62099 0.24685 0.42815 0.0
C224 C 0.5952 0.26413 0.41327 0.0
H225 H 0.62173 0.19086 0.45465 0.0
H226 H 0.65737 0.26877 0.43029 0.0
S227 S 0.47042 0.20003 0.40359 0.0
N228 N 0.48113 0.16325 0.42429 0.0
N229 N 0.52004 0.247 0.39615 0.0
C230 C 0.54813 0.23407 0.41041 0.0
C231 C 0.52698 0.18843 0.42546 0.0
C232 C 0.32753 0.49304 0.60341 0.0
C233 C 0.37471 0.51489 0.60785 0.0
C234 C 0.30732 0.5177 0.59141 0.0
C235 C 0.33365 0.56518 0.5844 0.0
H236 H 0.30595 0.45768 0.61221 0.0
H237 H 0.27082 0.50027 0.59038 0.0
S238 S 0.45861 0.63677 0.5868 0.0
N239 N 0.44711 0.58537 0.59986 0.0
N240 N 0.40933 0.63172 0.57851 0.0
C241 C 0.38082 0.58649 0.58612 0.0
C242 C 0.40129 0.56132 0.59743 0.0
C243 C 0.82744 0.34693 0.81836 0.0
C244 C 0.86797 0.37672 0.79847 0.0
C245 C 0.78513 0.32884 0.80094 0.0
C246 C 0.78134 0.33821 0.76238 0.0
H247 H 0.82827 0.33838 0.84824 0.0
H248 H 0.75506 0.30731 0.81786 0.0
S249 S 0.87606 0.40992 0.6959 0.0
N250 N 0.90112 0.41265 0.73711 0.0
N251 N 0.82122 0.3762 0.70362 0.0
C252 C 0.82126 0.36534 0.74118 0.0
C253 C 0.86466 0.38499 0.75932 0.0
C254 C 0.48979 0.84409 0.91912 0.0
C255 C 0.52082 0.85706 0.94956 0.0
C256 C 0.467 0.799 0.90469 0.0
C257 C 0.47403 0.76548 0.92077 0.0
H258 H 0.48122 0.86816 0.90794 0.0
H259 H 0.44224 0.78977 0.88207 0.0
S260 S 0.55342 0.78274 -0.00069 0.0
N261 N 0.55905 0.83342 -0.00624 0.0
N262 N 0.51554 0.74876 0.96726 0.0
C263 C 0.50612 0.77848 0.95012 0.0
C264 C 0.52972 0.82431 0.96435 0.0
C265 C 0.65185 0.46479 0.10956 0.0
C266 C 0.67603 0.51271 0.11465 0.0
C267 C 0.67332 0.44171 0.09753 0.0
C268 C 0.71975 0.46555 0.08913 0.0
H269 H 0.61654 0.4446 0.11767 0.0
H270 H 0.65363 0.40465 0.09605 0.0
S271 S 0.79786 0.59141 0.09435 0.0
N272 N 0.74867 0.5834 0.10819 0.0
N273 N 0.78872 0.54013 0.08389 0.0
C274 C 0.74375 0.51371 0.09118 0.0
C275 C 0.72195 0.53727 0.10421 0.0
C276 C 0.41857 0.8233 0.50784 0.0
C277 C 0.40197 0.8529 0.51239 0.0
C278 C 0.39579 0.77895 0.52336 0.0
C279 C 0.35614 0.76261 0.54511 0.0
H280 H 0.44797 0.8335 0.49003 0.0
H281 H 0.40872 0.75682 0.51729 0.0
S282 S 0.30166 0.82819 0.57003 0.0
N283 N 0.34503 0.86358 0.5428 0.0
N284 N 0.30396 0.78138 0.57399 0.0
C285 C 0.34137 0.79315 0.55285 0.0
C286 C 0.36396 0.83805 0.53616 0.0
C287 C 0.59382 0.39757 0.67705 0.0
C288 C 0.5462 0.3734 0.67769 0.0
C289 C 0.618 0.37783 0.69055 0.0
C290 C 0.59574 0.33327 0.7059 0.0
H291 H 0.6125 0.4311 0.66377 0.0
H292 H 0.65445 0.3972 0.68779 0.0
S293 S 0.4717 0.25651 0.71692 0.0
N294 N 0.47785 0.30316 0.69678 0.0
N295 N 0.52328 0.26658 0.72334 0.0
C296 C 0.54832 0.30981 0.70917 0.0
C297 C 0.52358 0.32977 0.6949 0.0
C298 C 0.21907 0.57922 0.85385 0.0
C299 C 0.19204 0.53101 0.853 0.0
C300 C 0.26458 0.60187 0.86496 0.0
C301 C 0.28487 0.57738 0.87651 0.0
H302 H 0.20574 0.59958 0.84316 0.0
H303 H 0.28443 0.63891 0.86323 0.0
S304 S 0.22794 0.45093 0.88327 0.0
N305 N 0.18823 0.45963 0.86714 0.0
N306 N 0.27342 0.50225 0.88958 0.0
C307 C 0.25741 0.52931 0.87877 0.0
C308 C 0.21105 0.50612 0.86676 0.0
C309 C 0.64266 0.21096 0.00846 0.0
C310 C 0.66035 0.18221 0.01226 0.0
C311 C 0.66547 0.2557 0.02318 0.0
C312 C 0.70633 0.27332 0.04335 0.0
H313 H 0.61199 0.19958 -0.00785 0.0
H314 H 0.65136 0.27697 0.01806 0.0
S315 S 0.76525 0.2112 0.06454 0.0
N316 N 0.72046 0.17429 0.03943 0.0
N317 N 0.76183 0.25733 0.06901 0.0
C318 C 0.7228 0.24399 0.04986 0.0
C319 C 0.7001 0.19866 0.03401 0.0
C320 C 0.49352 0.66006 0.20148 0.0
C321 C 0.51573 0.67395 0.16569 0.0
C322 C 0.46774 0.67821 0.21544 0.0
C323 C 0.46297 0.71026 0.19376 0.0
H324 H 0.49425 0.63351 0.21781 0.0
H325 H 0.44995 0.66573 0.2425 0.0
S326 S 0.51831 0.76161 0.10084 0.0
N327 N 0.53487 0.7255 0.11115 0.0
N328 N 0.48516 0.75759 0.13664 0.0
C329 C 0.4866 0.72583 0.15903 0.0
C330 C 0.51339 0.70829 0.14525 0.0
C331 C 0.8404 0.53526 0.35764 0.0
C332 C 0.86692 0.5151 0.358 0.0
C333 C 0.79454 0.51016 0.36862 0.0
C334 C 0.77359 0.46383 0.37937 0.0
H335 H 0.8542 0.56939 0.34601 0.0
H336 H 0.77467 0.5261 0.36609 0.0
S337 S 0.82938 0.397 0.38929 0.0
N338 N 0.86983 0.44765 0.3737 0.0
N339 N 0.78375 0.40034 0.39342 0.0
C340 C 0.8004 0.44431 0.38212 0.0
C341 C 0.84706 0.47002 0.37171 0.0
C342 C 0.1529 0.59619 0.4335 0.0
C343 C 0.13495 0.62253 0.42086 0.0
C344 C 0.17778 0.60675 0.46772 0.0
C345 C 0.18595 0.64428 0.49065 0.0
H346 H 0.14938 0.56842 0.41582 0.0
H347 H 0.19185 0.58609 0.47555 0.0
S348 S 0.14389 0.72257 0.47093 0.0
N349 N 0.12527 0.68644 0.43443 0.0
N350 N 0.17139 0.70629 0.49892 0.0
C351 C 0.1662 0.66957 0.47913 0.0
C352 C 0.14081 0.65864 0.44428 0.0
C353 C 0.58289 0.11536 0.58636 0.0
C354 C 0.54689 0.11992 0.57439 0.0
C355 C 0.61073 0.14156 0.61694 0.0
C356 C 0.60383 0.17367 0.6364 0.0
H357 H 0.5915 0.09383 0.57027 0.0
H358 H 0.63908 0.13797 0.62415 0.0
S359 S 0.51092 0.19491 0.61744 0.0
N360 N 0.50338 0.15587 0.58541 0.0
N361 N 0.55534 0.20522 0.64305 0.0
C362 C 0.56588 0.17615 0.62613 0.0
C363 C 0.53755 0.14929 0.59505 0.0
C364 C 0.39487 0.5151 0.75872 0.0
C365 C 0.43128 0.51931 0.7374 0.0
C366 C 0.40203 0.54451 0.78954 0.0
C367 C 0.44592 0.57966 0.79975 0.0
H368 H 0.36048 0.49064 0.74999 0.0
H369 H 0.3728 0.54117 0.80401 0.0
S370 S 0.55273 0.601 0.75515 0.0
N371 N 0.51246 0.55803 0.73016 0.0
N372 N 0.52665 0.61347 0.78826 0.0
C373 C 0.48276 0.5821 0.78005 0.0
C374 C 0.47526 0.55185 0.74883 0.0
C375 C 0.91121 0.45121 0.93749 0.0
C376 C 0.93258 0.42788 0.92535 0.0
C377 C 0.88567 0.43894 0.97149 0.0
C378 C 0.8805 0.40283 -0.00519 0.0
H379 H 0.91167 0.47705 0.91914 0.0
H380 H 0.86826 0.45663 0.97854 0.0
S381 S 0.93474 0.33486 0.97812 0.0
N382 N 0.95037 0.36989 0.94098 0.0
N383 N 0.90355 0.34737 0.00517 0.0
C384 C 0.90485 0.38176 0.9845 0.0
C385 C 0.93071 0.39427 0.94981 0.0
C386 C 0.45716 0.90617 0.07331 0.0
C387 C 0.50161 0.91584 0.07077 0.0
C388 C 0.42913 0.88043 0.10392 0.0
C389 C 0.44425 0.86261 0.13286 0.0
H390 H 0.44307 0.91605 0.05014 0.0
H391 H 0.39455 0.87244 0.1036 0.0
S392 S 0.56005 0.88275 0.14073 0.0
N393 N 0.56101 0.90913 0.10063 0.0
N394 N 0.50867 0.86079 0.15855 0.0
C395 C 0.48978 0.87464 0.13175 0.0
C396 C 0.51836 0.90123 0.10061 0.0
C397 C 0.57543 0.47132 0.24905 0.0
C398 C 0.61669 0.51195 0.2423 0.0
C399 C 0.57081 0.44203 0.27919 0.0
C400 C 0.60755 0.45203 0.30338 0.0
H401 H 0.54758 0.46046 0.22918 0.0
H402 H 0.53874 0.41014 0.28211 0.0
S403 S 0.72161 0.5575 0.29939 0.0
N404 N 0.69372 0.56314 0.26349 0.0
N405 N 0.68551 0.50844 0.32041 0.0
C406 C 0.64812 0.49448 0.29847 0.0
C407 C 0.65258 0.52432 0.26781 0.0
C408 C 0.44231 0.88157 0.36249 0.0
C409 C 0.41988 0.90232 0.37798 0.0
C410 C 0.42788 0.85662 0.32808 0.0
C411 C 0.3902 0.85116 0.30782 0.0
H412 H 0.47001 0.8829 0.37808 0.0
H413 H 0.44576 0.84045 0.31796 0.0
S414 S 0.32127 0.90114 0.33569 0.0
N415 N 0.35946 0.91756 0.37005 0.0
N416 N 0.3323 0.87123 0.30521 0.0
C417 C 0.36874 0.87366 0.32225 0.0
C418 C 0.38364 0.89916 0.3573 0.0
C419 C 0.56465 0.42938 0.53173 0.0
C420 C 0.52006 0.40292 0.54536 0.0
C421 C 0.57735 0.41944 0.49652 0.0
C422 C 0.54598 0.38242 0.4736 0.0
H423 H 0.59042 0.45656 0.5494 0.0
H424 H 0.61245 0.44007 0.48797 0.0
S425 S 0.42398 0.30448 0.49567 0.0
N426 N 0.44393 0.33979 0.53269 0.0
N427 N 0.46723 0.32105 0.46635 0.0
C428 C 0.50059 0.35722 0.48607 0.0
C429 C 0.48777 0.36754 0.52194 0.0
C430 C 0.16109 0.5134 0.70335 0.0
C431 C 0.1304 0.52026 0.72429 0.0
C432 C 0.18484 0.54132 0.67191 0.0
C433 C 0.17909 0.57747 0.66071 0.0
H434 H 0.16941 0.48866 0.71327 0.0
H435 H 0.2101 0.53653 0.65816 0.0
S436 S 0.09679 0.60416 0.70265 0.0
N437 N 0.09132 0.56151 0.72917 0.0
N438 N 0.13527 0.61398 0.66982 0.0
C439 C 0.14534 0.5818 0.6794 0.0
C440 C 0.12111 0.55314 0.71127 0.0
C441 C 0.66412 0.12737 0.85771 0.0
C442 C 0.62863 0.12334 0.8802 0.0
C443 C 0.6763 0.15182 0.82297 0.0
C444 C 0.6535 0.17328 0.80946 0.0
H445 H 0.68471 0.11442 0.86834 0.0
H446 H 0.70526 0.15567 0.80763 0.0
S447 S 0.55339 0.16632 0.85552 0.0
N448 N 0.56751 0.13794 0.88492 0.0
N449 N 0.58985 0.18367 0.81961 0.0
C450 C 0.61563 0.16635 0.83045 0.0
C451 C 0.60333 0.14141 0.86577 0.0
C452 C 0.56256 0.64526 0.01962 0.0
C453 C 0.52958 0.61232 0.04433 0.0
C454 C 0.55067 0.65509 0.984 0.0
C455 C 0.50527 0.63237 0.97176 0.0
H456 H 0.59723 0.66637 0.02925 0.0
H457 H 0.57705 0.68269 0.96711 0.0
S458 S 0.40758 0.53696 0.02334 0.0
N459 N 0.45097 0.55257 0.05228 0.0
N460 N 0.4282 0.57043 0.9852 0.0
C461 C 0.47262 0.59626 -0.00522 0.0
C462 C 0.48489 0.58635 0.03104 0.0
C463 C 0.92669 0.47674 0.21944 0.0
C464 C 0.92262 0.51405 0.22941 0.0
C465 C 0.90269 0.44871 0.18819 0.0
C466 C 0.87344 0.45681 0.16601 0.0
H467 H 0.94608 0.46735 0.23745 0.0
H468 H 0.90566 0.41926 0.18253 0.0
S469 S 0.85504 0.55364 0.17904 0.0
N470 N 0.89049 0.56024 0.21372 0.0
N471 N 0.84532 0.50791 0.15472 0.0
C472 C 0.87162 0.49611 0.17436 0.0
C473 C 0.89618 0.52459 0.20619 0.0
loop_
_geom_bond_atom_site_label_1
_geom_bond_atom_site_label_2
_geom_bond_distance
_geom_bond_site_symmetry_2
_ccdc_geom_bond_type
H0 C8 0.930 . S
H1 C11 0.930 . S
H2 C13 0.930 . S
H3 C14 0.970 . S
H4 C14 0.970 . S
H5 C16 0.930 . S
H6 C18 0.930 . S
H7 C20 0.930 . S
C8 H0 0.930 . S
C8 C9 1.382 . S
C8 C10 1.426 . S
C9 C8 1.382 . S
C9 C13 1.389 . S
C10 C8 1.426 . S
C10 C11 1.375 . S
C10 C14 1.532 1_655 S
C11 H1 0.930 . S
C11 C10 1.375 . S
C11 C12 1.416 . S
C12 C11 1.416 . S
C12 C13 1.371 . S
C13 H2 0.930 . S
C13 C9 1.389 . S
C13 C12 1.371 . S
C14 H3 0.970 . S
C14 H4 0.970 . S
C14 C10 1.532 1_455 S
C14 C15 1.499 . S
C15 C14 1.499 . S
C15 C16 1.370 . S
C15 C20 1.415 . S
C16 H5 0.930 . S
C16 C15 1.370 . S
C16 C17 1.407 . S
C17 C16 1.407 . S
C17 C18 1.365 . S
C18 H6 0.930 . S
C18 C17 1.365 . S
C18 C19 1.393 . S
C19 C18 1.393 . S
C19 C20 1.387 . S
C20 H7 0.930 . S
C20 C15 1.415 . S
C20 C19 1.387 . S
H21 C29 0.930 . S
H22 C32 0.930 . S
H23 C34 0.930 . S
H24 C35 0.970 . S
H25 C35 0.970 . S
H26 C37 0.930 . S
H27 C39 0.930 . S
H28 C41 0.930 . S
C29 H21 0.930 . S
C29 C30 1.382 . S
C29 C31 1.426 . S
C30 C29 1.382 . S
C30 C34 1.389 . S
C31 C29 1.426 . S
C31 C32 1.375 . S
C31 C35 1.532 1_565 S
C32 H22 0.930 . S
C32 C31 1.375 . S
C32 C33 1.416 . S
C33 C32 1.416 . S
C33 C34 1.371 . S
C34 H23 0.930 . S
C34 C30 1.389 . S
C34 C33 1.371 . S
C35 H24 0.970 . S
C35 H25 0.970 . S
C35 C31 1.532 1_545 S
C35 C36 1.499 . S
C36 C35 1.499 . S
C36 C37 1.370 . S
C36 C41 1.415 . S
C37 H26 0.930 . S
C37 C36 1.370 . S
C37 C38 1.407 . S
C38 C37 1.407 . S
C38 C39 1.365 . S
C39 H27 0.930 . S
C39 C38 1.365 . S
C39 C40 1.393 . S
C40 C39 1.393 . S
C40 C41 1.387 . S
C41 H28 0.930 . S
C41 C36 1.415 . S
C41 C40 1.387 . S
H42 C50 0.930 . S
H43 C53 0.930 . S
H44 C55 0.930 . S
H45 C56 0.970 . S
H46 C56 0.970 . S
H47 C58 0.930 . S
H48 C60 0.930 . S
H49 C62 0.930 . S
C50 H42 0.930 . S
C50 C51 1.382 . S
C50 C52 1.426 . S
C51 C50 1.382 . S
C51 C55 1.389 . S
C52 C50 1.426 . S
C52 C53 1.375 . S
C52 C56 1.532 . S
C53 H43 0.930 . S
C53 C52 1.375 . S
C53 C54 1.416 . S
C54 C53 1.416 . S
C54 C55 1.371 . S
C55 H44 0.930 . S
C55 C51 1.389 . S
C55 C54 1.371 . S
C56 H45 0.970 . S
C56 H46 0.970 . S
C56 C52 1.532 . S
C56 C57 1.499 . S
C57 C56 1.499 . S
C57 C58 1.370 . S
C57 C62 1.415 . S
C58 H47 0.930 . S
C58 C57 1.370 . S
C58 C59 1.407 . S
C59 C58 1.407 . S
C59 C60 1.365 . S
C60 H48 0.930 . S
C60 C59 1.365 . S
C60 C61 1.393 . S
C61 C60 1.393 . S
C61 C62 1.387 . S
C62 H49 0.930 . S
C62 C57 1.415 . S
C62 C61 1.387 . S
H63 C71 0.930 . S
H64 C74 0.930 . S
H65 C76 0.930 . S
H66 C77 0.970 1_655 S
H67 C77 0.970 . S
H68 C79 0.930 . S
H69 C81 0.930 . S
H70 C83 0.930 . S
C71 H63 0.930 . S
C71 C72 1.382 . S
C71 C73 1.426 . S
C72 C71 1.382 . S
C72 C76 1.389 . S
C73 C71 1.426 . S
C73 C74 1.375 . S
C73 C77 1.532 1_655 S
C74 H64 0.930 . S
C74 C73 1.375 . S
C74 C75 1.416 . S
C75 C74 1.416 . S
C75 C76 1.371 . S
C76 H65 0.930 . S
C76 C72 1.389 . S
C76 C75 1.371 . S
C77 H66 0.970 1_455 S
C77 H67 0.970 . S
C77 C73 1.532 1_455 S
C77 C78 1.499 . S
C78 C77 1.499 . S
C78 C79 1.370 . S
C78 C83 1.415 . S
C79 H68 0.930 . S
C79 C78 1.370 . S
C79 C80 1.407 . S
C80 C79 1.407 . S
C80 C81 1.365 . S
C81 H69 0.930 . S
C81 C80 1.365 . S
C81 C82 1.393 . S
C82 C81 1.393 . S
C82 C83 1.387 . S
C83 H70 0.930 . S
C83 C78 1.415 . S
C83 C82 1.387 . S
H84 C92 0.930 . S
H85 C95 0.930 . S
H86 C97 0.930 . S
H87 C98 0.970 1_554 S
H88 C98 0.970 1_565 S
H89 C100 0.930 . S
H90 C102 0.930 . S
H91 C104 0.930 . S
C92 H84 0.930 . S
C92 C93 1.382 . S
C92 C94 1.426 1_554 S
C93 C92 1.382 . S
C93 C97 1.389 1_554 S
C94 C92 1.426 1_556 S
C94 C95 1.375 . S
C94 C98 1.532 . S
C95 H85 0.930 . S
C95 C94 1.375 . S
C95 C96 1.416 . S
C96 C95 1.416 . S
C96 C97 1.371 . S
C97 H86 0.930 . S
C97 C93 1.389 1_556 S
C97 C96 1.371 . S
C98 H87 0.970 1_556 S
C98 H88 0.970 1_545 S
C98 C94 1.532 . S
C98 C99 1.499 1_546 S
C99 C98 1.499 1_564 S
C99 C100 1.370 . S
C99 C104 1.415 1_554 S
C100 H89 0.930 . S
C100 C99 1.370 . S
C100 C101 1.407 . S
C101 C100 1.407 . S
C101 C102 1.365 . S
C102 H90 0.930 . S
C102 C101 1.365 . S
C102 C103 1.393 1_554 S
C103 C102 1.393 1_556 S
C103 C104 1.387 . S
C104 H91 0.930 . S
C104 C99 1.415 1_556 S
C104 C103 1.387 . S
H105 C113 0.930 . S
H106 C116 0.930 . S
H107 C118 0.930 . S
H108 C119 0.970 . S
H109 C119 0.970 . S
H110 C121 0.930 . S
H111 C123 0.930 . S
H112 C125 0.930 . S
C113 H105 0.930 . S
C113 C114 1.382 . S
C113 C115 1.426 . S
C114 C113 1.382 . S
C114 C118 1.389 . S
C115 C113 1.426 . S
C115 C116 1.375 . S
C115 C119 1.532 . S
C116 H106 0.930 . S
C116 C115 1.375 . S
C116 C117 1.416 . S
C117 C116 1.416 . S
C117 C118 1.371 . S
C118 H107 0.930 . S
C118 C114 1.389 . S
C118 C117 1.371 . S
C119 H108 0.970 . S
C119 H109 0.970 . S
C119 C115 1.532 . S
C119 C120 1.499 . S
C120 C119 1.499 . S
C120 C121 1.370 . S
C120 C125 1.415 . S
C121 H110 0.930 . S
C121 C120 1.370 . S
C121 C122 1.407 . S
C122 C121 1.407 . S
C122 C123 1.365 . S
C123 H111 0.930 . S
C123 C122 1.365 . S
C123 C124 1.393 . S
C124 C123 1.393 . S
C124 C125 1.387 . S
C125 H112 0.930 . S
C125 C120 1.415 . S
C125 C124 1.387 . S
Co126 O127 2.216 . S
Co126 O128 2.091 . S
Co126 O130 2.004 . S
Co126 O136 2.021 . S
Co126 O138 2.137 . S
Co126 O139 2.244 . S
O127 Co126 2.216 . S
O127 C134 1.247 . S
O128 Co126 2.091 . S
O128 C134 1.261 . S
C129 O138 1.247 . S
C129 O139 1.272 . S
O130 Co126 2.004 . S
O130 C135 1.259 . S
Co131 O132 2.061 . S
Co131 O137 2.052 . S
Co131 O139 2.135 . S
O132 Co131 2.061 . S
O132 C135 1.235 . S
C133 O136 1.238 . S
C133 O137 1.241 . S
C134 O127 1.247 . S
C134 O128 1.261 . S
C135 O130 1.259 . S
C135 O132 1.235 . S
O136 Co126 2.021 . S
O136 C133 1.238 . S
O137 Co131 2.052 . S
O137 C133 1.241 . S
O138 Co126 2.137 . S
O138 C129 1.247 . S
O139 Co126 2.244 . S
O139 C129 1.272 . S
O139 Co131 2.135 . S
Co140 O141 2.216 . S
Co140 O142 2.091 . S
Co140 O144 2.004 . S
Co140 O150 2.021 . S
Co140 O152 2.137 . S
Co140 O153 2.244 . S
O141 Co140 2.216 . S
O141 C148 1.247 . S
O142 Co140 2.091 . S
O142 C148 1.261 . S
C143 O152 1.247 . S
C143 O153 1.272 . S
O144 Co140 2.004 . S
O144 C149 1.259 . S
Co145 O146 2.061 . S
Co145 O151 2.052 . S
Co145 O153 2.135 . S
O146 Co145 2.061 . S
O146 C149 1.235 . S
C147 O150 1.238 . S
C147 O151 1.241 . S
C148 O141 1.247 . S
C148 O142 1.261 . S
C149 O144 1.259 . S
C149 O146 1.235 . S
O150 Co140 2.021 . S
O150 C147 1.238 . S
O151 Co145 2.052 . S
O151 C147 1.241 . S
O152 Co140 2.137 . S
O152 C143 1.247 . S
O153 Co140 2.244 . S
O153 C143 1.272 . S
O153 Co145 2.135 . S
Co154 O155 2.216 . S
Co154 O156 2.091 . S
Co154 O158 2.004 . S
Co154 O164 2.021 . S
Co154 O166 2.137 . S
Co154 O167 2.244 . S
O155 Co154 2.216 . S
O155 C162 1.247 . S
O156 Co154 2.091 . S
O156 C162 1.261 . S
C157 O166 1.247 . S
C157 O167 1.272 . S
O158 Co154 2.004 . S
O158 C163 1.259 . S
Co159 O160 2.061 . S
Co159 O165 2.052 . S
Co159 O167 2.135 . S
O160 Co159 2.061 . S
O160 C163 1.235 . S
C161 O164 1.238 . S
C161 O165 1.241 . S
C162 O155 1.247 . S
C162 O156 1.261 . S
C163 O158 1.259 . S
C163 O160 1.235 . S
O164 Co154 2.021 . S
O164 C161 1.238 . S
O165 Co159 2.052 . S
O165 C161 1.241 . S
O166 Co154 2.137 . S
O166 C157 1.247 . S
O167 Co154 2.244 . S
O167 C157 1.272 . S
O167 Co159 2.135 . S
Co168 O169 2.216 . S
Co168 O170 2.091 . S
Co168 O172 2.004 . S
Co168 O178 2.021 . S
Co168 O180 2.137 . S
Co168 O181 2.244 . S
O169 Co168 2.216 . S
O169 C176 1.247 . S
O170 Co168 2.091 . S
O170 C176 1.261 . S
C171 O180 1.247 . S
C171 O181 1.272 . S
O172 Co168 2.004 . S
O172 C177 1.259 . S
Co173 O174 2.061 . S
Co173 O179 2.052 . S
Co173 O181 2.135 . S
O174 Co173 2.061 . S
O174 C177 1.235 . S
C175 O178 1.238 . S
C175 O179 1.241 . S
C176 O169 1.247 . S
C176 O170 1.261 . S
C177 O172 1.259 . S
C177 O174 1.235 . S
O178 Co168 2.021 . S
O178 C175 1.238 . S
O179 Co173 2.052 . S
O179 C175 1.241 . S
O180 Co168 2.137 . S
O180 C171 1.247 . S
O181 Co168 2.244 . S
O181 C171 1.272 . S
O181 Co173 2.135 . S
Co182 O183 2.216 . S
Co182 O184 2.091 . S
Co182 O186 2.004 . S
Co182 O192 2.021 . S
Co182 O194 2.137 . S
Co182 O195 2.244 . S
O183 Co182 2.216 . S
O183 C190 1.247 . S
O184 Co182 2.091 . S
O184 C190 1.261 . S
C185 O194 1.247 . S
C185 O195 1.272 . S
O186 Co182 2.004 . S
O186 C191 1.259 . S
Co187 O188 2.061 . S
Co187 O193 2.052 . S
Co187 O195 2.135 . S
O188 Co187 2.061 . S
O188 C191 1.235 . S
C189 O192 1.238 . S
C189 O193 1.241 . S
C190 O183 1.247 . S
C190 O184 1.261 . S
C191 O186 1.259 . S
C191 O188 1.235 . S
O192 Co182 2.021 . S
O192 C189 1.238 . S
O193 Co187 2.052 . S
O193 C189 1.241 . S
O194 Co182 2.137 . S
O194 C185 1.247 . S
O195 Co182 2.244 . S
O195 C185 1.272 . S
O195 Co187 2.135 . S
Co196 O197 2.216 . S
Co196 O198 2.091 . S
Co196 O200 2.004 . S
Co196 O206 2.021 . S
Co196 O208 2.137 . S
Co196 O209 2.244 . S
O197 Co196 2.216 . S
O197 C204 1.247 . S
O198 Co196 2.091 . S
O198 C204 1.261 . S
C199 O208 1.247 . S
C199 O209 1.272 . S
O200 Co196 2.004 . S
O200 C205 1.259 . S
Co201 O202 2.061 . S
Co201 O207 2.052 . S
Co201 O209 2.135 . S
O202 Co201 2.061 . S
O202 C205 1.235 . S
C203 O206 1.238 . S
C203 O207 1.241 . S
C204 O197 1.247 . S
C204 O198 1.261 . S
C205 O200 1.259 . S
C205 O202 1.235 . S
O206 Co196 2.021 . S
O206 C203 1.238 . S
O207 Co201 2.052 . S
O207 C203 1.241 . S
O208 Co196 2.137 . S
O208 C199 1.247 . S
O209 Co196 2.244 . S
O209 C199 1.272 . S
O209 Co201 2.135 . S
C210 C211 1.369 . S
C210 C212 1.419 . S
C210 H214 0.930 . S
C211 C210 1.369 . S
C211 C220 1.429 . S
C212 C210 1.419 . S
C212 C213 1.363 . S
C212 H215 0.929 . S
C213 C212 1.363 . S
C213 C219 1.428 . S
H214 C210 0.930 . S
H215 C212 0.929 . S
S216 N217 1.613 . S
S216 N218 1.610 . S
N217 S216 1.613 . S
N217 C220 1.350 . S
N218 S216 1.610 . S
N218 C219 1.351 . S
C219 C213 1.428 . S
C219 N218 1.351 . S
C219 C220 1.434 . S
C220 C211 1.429 . S
C220 N217 1.350 . S
C220 C219 1.434 . S
C221 C222 1.369 . S
C221 C223 1.419 . S
C221 H225 0.930 . S
C222 C221 1.369 . S
C222 C231 1.429 . S
C223 C221 1.419 . S
C223 C224 1.363 . S
C223 H226 0.929 . S
C224 C223 1.363 . S
C224 C230 1.428 . S
H225 C221 0.930 . S
H226 C223 0.929 . S
S227 N228 1.613 . S
S227 N229 1.610 . S
N228 S227 1.613 . S
N228 C231 1.350 . S
N229 S227 1.610 . S
N229 C230 1.351 . S
C230 C224 1.428 . S
C230 N229 1.351 . S
C230 C231 1.434 . S
C231 C222 1.429 . S
C231 N228 1.350 . S
C231 C230 1.434 . S
C232 C233 1.369 . S
C232 C234 1.419 . S
C232 H236 0.930 . S
C233 C232 1.369 . S
C233 C242 1.429 . S
C234 C232 1.419 . S
C234 C235 1.363 . S
C234 H237 0.929 . S
C235 C234 1.363 . S
C235 C241 1.428 . S
H236 C232 0.930 . S
H237 C234 0.929 . S
S238 N239 1.613 . S
S238 N240 1.610 . S
N239 S238 1.613 . S
N239 C242 1.350 . S
N240 S238 1.610 . S
N240 C241 1.351 . S
C241 C235 1.428 . S
C241 N240 1.351 . S
C241 C242 1.434 . S
C242 C233 1.429 . S
C242 N239 1.350 . S
C242 C241 1.434 . S
C243 C244 1.369 . S
C243 C245 1.419 . S
C243 H247 0.930 . S
C244 C243 1.369 . S
C244 C253 1.429 . S
C245 C243 1.419 . S
C245 C246 1.363 . S
C245 H248 0.929 . S
C246 C245 1.363 . S
C246 C252 1.428 . S
H247 C243 0.930 . S
H248 C245 0.929 . S
S249 N250 1.613 . S
S249 N251 1.610 . S
N250 S249 1.613 . S
N250 C253 1.350 . S
N251 S249 1.610 . S
N251 C252 1.351 . S
C252 C246 1.428 . S
C252 N251 1.351 . S
C252 C253 1.434 . S
C253 C244 1.429 . S
C253 N250 1.350 . S
C253 C252 1.434 . S
C254 C255 1.369 . S
C254 C256 1.419 . S
C254 H258 0.930 . S
C255 C254 1.369 . S
C255 C264 1.429 . S
C256 C254 1.419 . S
C256 C257 1.363 . S
C256 H259 0.929 . S
C257 C256 1.363 . S
C257 C263 1.428 . S
H258 C254 0.930 . S
H259 C256 0.929 . S
S260 N261 1.613 . S
S260 N262 1.610 . S
N261 S260 1.613 . S
N261 C264 1.350 1_554 S
N262 S260 1.610 . S
N262 C263 1.351 1_554 S
C263 C257 1.428 . S
C263 N262 1.351 1_556 S
C263 C264 1.434 . S
C264 C255 1.429 . S
C264 N261 1.350 1_556 S
C264 C263 1.434 . S
C265 C266 1.369 . S
C265 C267 1.419 . S
C265 H269 0.930 . S
C266 C265 1.369 . S
C266 C275 1.429 . S
C267 C265 1.419 . S
C267 C268 1.363 . S
C267 H270 0.929 . S
C268 C267 1.363 . S
C268 C274 1.428 . S
H269 C265 0.930 . S
H270 C267 0.929 . S
S271 N272 1.613 . S
S271 N273 1.610 . S
N272 S271 1.613 . S
N272 C275 1.350 . S
N273 S271 1.610 . S
N273 C274 1.351 . S
C274 C268 1.428 . S
C274 N273 1.351 . S
C274 C275 1.434 . S
C275 C266 1.429 . S
C275 N272 1.350 . S
C275 C274 1.434 . S
C276 C277 1.369 . S
C276 C278 1.419 . S
C276 H280 0.930 . S
C277 C276 1.369 . S
C277 C286 1.429 . S
C278 C276 1.419 . S
C278 C279 1.363 . S
C278 H281 0.929 . S
C279 C278 1.363 . S
C279 C285 1.428 . S
H280 C276 0.930 . S
H281 C278 0.929 . S
S282 N283 1.613 . S
S282 N284 1.610 . S
N283 S282 1.613 . S
N283 C286 1.350 . S
N284 S282 1.610 . S
N284 C285 1.351 . S
C285 C279 1.428 . S
C285 N284 1.351 . S
C285 C286 1.434 . S
C286 C277 1.429 . S
C286 N283 1.350 . S
C286 C285 1.434 . S
C287 C288 1.369 . S
C287 C289 1.419 . S
C287 H291 0.930 . S
C288 C287 1.369 . S
C288 C297 1.429 . S
C289 C287 1.419 . S
C289 C290 1.363 . S
C289 H292 0.929 . S
C290 C289 1.363 . S
C290 C296 1.428 . S
H291 C287 0.930 . S
H292 C289 0.929 . S
S293 N294 1.613 . S
S293 N295 1.610 . S
N294 S293 1.613 . S
N294 C297 1.350 . S
N295 S293 1.610 . S
N295 C296 1.351 . S
C296 C290 1.428 . S
C296 N295 1.351 . S
C296 C297 1.434 . S
C297 C288 1.429 . S
C297 N294 1.350 . S
C297 C296 1.434 . S
C298 C299 1.369 . S
C298 C300 1.419 . S
C298 H302 0.930 . S
C299 C298 1.369 . S
C299 C308 1.429 . S
C300 C298 1.419 . S
C300 C301 1.363 . S
C300 H303 0.929 . S
C301 C300 1.363 . S
C301 C307 1.428 . S
H302 C298 0.930 . S
H303 C300 0.929 . S
S304 N305 1.613 . S
S304 N306 1.610 . S
N305 S304 1.613 . S
N305 C308 1.350 . S
N306 S304 1.610 . S
N306 C307 1.351 . S
C307 C301 1.428 . S
C307 N306 1.351 . S
C307 C308 1.434 . S
C308 C299 1.429 . S
C308 N305 1.350 . S
C308 C307 1.434 . S
C309 C310 1.369 . S
C309 C311 1.419 . S
C309 H313 0.930 1_554 S
C310 C309 1.369 . S
C310 C319 1.429 . S
C311 C309 1.419 . S
C311 C312 1.363 . S
C311 H314 0.929 . S
C312 C311 1.363 . S
C312 C318 1.428 . S
H313 C309 0.930 1_556 S
H314 C311 0.929 . S
S315 N316 1.613 . S
S315 N317 1.610 . S
N316 S315 1.613 . S
N316 C319 1.350 . S
N317 S315 1.610 . S
N317 C318 1.351 . S
C318 C312 1.428 . S
C318 N317 1.351 . S
C318 C319 1.434 . S
C319 C310 1.429 . S
C319 N316 1.350 . S
C319 C318 1.434 . S
C320 C321 1.369 . S
C320 C322 1.419 . S
C320 H324 0.930 . S
C321 C320 1.369 . S
C321 C330 1.429 . S
C322 C320 1.419 . S
C322 C323 1.363 . S
C322 H325 0.929 . S
C323 C322 1.363 . S
C323 C329 1.428 . S
H324 C320 0.930 . S
H325 C322 0.929 . S
S326 N327 1.613 . S
S326 N328 1.610 . S
N327 S326 1.613 . S
N327 C330 1.350 . S
N328 S326 1.610 . S
N328 C329 1.351 . S
C329 C323 1.428 . S
C329 N328 1.351 . S
C329 C330 1.434 . S
C330 C321 1.429 . S
C330 N327 1.350 . S
C330 C329 1.434 . S
C331 C332 1.369 . S
C331 C333 1.419 . S
C331 H335 0.930 . S
C332 C331 1.369 . S
C332 C341 1.429 . S
C333 C331 1.419 . S
C333 C334 1.363 . S
C333 H336 0.929 . S
C334 C333 1.363 . S
C334 C340 1.428 . S
H335 C331 0.930 . S
H336 C333 0.929 . S
S337 N338 1.613 . S
S337 N339 1.610 . S
N338 S337 1.613 . S
N338 C341 1.350 . S
N339 S337 1.610 . S
N339 C340 1.351 . S
C340 C334 1.428 . S
C340 N339 1.351 . S
C340 C341 1.434 . S
C341 C332 1.429 . S
C341 N338 1.350 . S
C341 C340 1.434 . S
C342 C343 1.369 . S
C342 C344 1.419 . S
C342 H346 0.930 . S
C343 C342 1.369 . S
C343 C352 1.429 . S
C344 C342 1.419 . S
C344 C345 1.363 . S
C344 H347 0.929 . S
C345 C344 1.363 . S
C345 C351 1.428 . S
H346 C342 0.930 . S
H347 C344 0.929 . S
S348 N349 1.613 . S
S348 N350 1.610 . S
N349 S348 1.613 . S
N349 C352 1.350 . S
N350 S348 1.610 . S
N350 C351 1.351 . S
C351 C345 1.428 . S
C351 N350 1.351 . S
C351 C352 1.434 . S
C352 C343 1.429 . S
C352 N349 1.350 . S
C352 C351 1.434 . S
C353 C354 1.369 . S
C353 C355 1.419 . S
C353 H357 0.930 . S
C354 C353 1.369 . S
C354 C363 1.429 . S
C355 C353 1.419 . S
C355 C356 1.363 . S
C355 H358 0.929 . S
C356 C355 1.363 . S
C356 C362 1.428 . S
H357 C353 0.930 . S
H358 C355 0.929 . S
S359 N360 1.613 . S
S359 N361 1.610 . S
N360 S359 1.613 . S
N360 C363 1.350 . S
N361 S359 1.610 . S
N361 C362 1.351 . S
C362 C356 1.428 . S
C362 N361 1.351 . S
C362 C363 1.434 . S
C363 C354 1.429 . S
C363 N360 1.350 . S
C363 C362 1.434 . S
C364 C365 1.369 . S
C364 C366 1.419 . S
C364 H368 0.930 . S
C365 C364 1.369 . S
C365 C374 1.429 . S
C366 C364 1.419 . S
C366 C367 1.363 . S
C366 H369 0.929 . S
C367 C366 1.363 . S
C367 C373 1.428 . S
H368 C364 0.930 . S
H369 C366 0.929 . S
S370 N371 1.613 . S
S370 N372 1.610 . S
N371 S370 1.613 . S
N371 C374 1.350 . S
N372 S370 1.610 . S
N372 C373 1.351 . S
C373 C367 1.428 . S
C373 N372 1.351 . S
C373 C374 1.434 . S
C374 C365 1.429 . S
C374 N371 1.350 . S
C374 C373 1.434 . S
C375 C376 1.369 . S
C375 C377 1.419 . S
C375 H379 0.930 . S
C376 C375 1.369 . S
C376 C385 1.429 . S
C377 C375 1.419 . S
C377 C378 1.363 . S
C377 H380 0.929 . S
C378 C377 1.363 . S
C378 C384 1.428 . S
H379 C375 0.930 . S
H380 C377 0.929 . S
S381 N382 1.613 1_554 S
S381 N383 1.610 . S
N382 S381 1.613 1_556 S
N382 C385 1.350 . S
N383 S381 1.610 . S
N383 C384 1.351 1_554 S
C384 C378 1.428 . S
C384 N383 1.351 1_556 S
C384 C385 1.434 . S
C385 C376 1.429 . S
C385 N382 1.350 . S
C385 C384 1.434 . S
C386 C387 1.369 . S
C386 C388 1.419 . S
C386 H390 0.930 . S
C387 C386 1.369 . S
C387 C396 1.429 . S
C388 C386 1.419 . S
C388 C389 1.363 . S
C388 H391 0.929 . S
C389 C388 1.363 . S
C389 C395 1.428 . S
H390 C386 0.930 . S
H391 C388 0.929 . S
S392 N393 1.613 . S
S392 N394 1.610 . S
N393 S392 1.613 . S
N393 C396 1.350 . S
N394 S392 1.610 . S
N394 C395 1.351 . S
C395 C389 1.428 . S
C395 N394 1.351 . S
C395 C396 1.434 . S
C396 C387 1.429 . S
C396 N393 1.350 . S
C396 C395 1.434 . S
C397 C398 1.369 . S
C397 C399 1.419 . S
C397 H401 0.930 . S
C398 C397 1.369 . S
C398 C407 1.429 . S
C399 C397 1.419 . S
C399 C400 1.363 . S
C399 H402 0.929 . S
C400 C399 1.363 . S
C400 C406 1.428 . S
H401 C397 0.930 . S
H402 C399 0.929 . S
S403 N404 1.613 . S
S403 N405 1.610 . S
N404 S403 1.613 . S
N404 C407 1.350 . S
N405 S403 1.610 . S
N405 C406 1.351 . S
C406 C400 1.428 . S
C406 N405 1.351 . S
C406 C407 1.434 . S
C407 C398 1.429 . S
C407 N404 1.350 . S
C407 C406 1.434 . S
C408 C409 1.369 . S
C408 C410 1.419 . S
C408 H412 0.930 . S
C409 C408 1.369 . S
C409 C418 1.429 . S
C410 C408 1.419 . S
C410 C411 1.363 . S
C410 H413 0.929 . S
C411 C410 1.363 . S
C411 C417 1.428 . S
H412 C408 0.930 . S
H413 C410 0.929 . S
S414 N415 1.613 . S
S414 N416 1.610 . S
N415 S414 1.613 . S
N415 C418 1.350 . S
N416 S414 1.610 . S
N416 C417 1.351 . S
C417 C411 1.428 . S
C417 N416 1.351 . S
C417 C418 1.434 . S
C418 C409 1.429 . S
C418 N415 1.350 . S
C418 C417 1.434 . S
C419 C420 1.369 . S
C419 C421 1.419 . S
C419 H423 0.930 . S
C420 C419 1.369 . S
C420 C429 1.429 . S
C421 C419 1.419 . S
C421 C422 1.363 . S
C421 H424 0.929 . S
C422 C421 1.363 . S
C422 C428 1.428 . S
H423 C419 0.930 . S
H424 C421 0.929 . S
S425 N426 1.613 . S
S425 N427 1.610 . S
N426 S425 1.613 . S
N426 C429 1.350 . S
N427 S425 1.610 . S
N427 C428 1.351 . S
C428 C422 1.428 . S
C428 N427 1.351 . S
C428 C429 1.434 . S
C429 C420 1.429 . S
C429 N426 1.350 . S
C429 C428 1.434 . S
C430 C431 1.369 . S
C430 C432 1.419 . S
C430 H434 0.930 . S
C431 C430 1.369 . S
C431 C440 1.429 . S
C432 C430 1.419 . S
C432 C433 1.363 . S
C432 H435 0.929 . S
C433 C432 1.363 . S
C433 C439 1.428 . S
H434 C430 0.930 . S
H435 C432 0.929 . S
S436 N437 1.613 . S
S436 N438 1.610 . S
N437 S436 1.613 . S
N437 C440 1.350 . S
N438 S436 1.610 . S
N438 C439 1.351 . S
C439 C433 1.428 . S
C439 N438 1.351 . S
C439 C440 1.434 . S
C440 C431 1.429 . S
C440 N437 1.350 . S
C440 C439 1.434 . S
C441 C442 1.369 . S
C441 C443 1.419 . S
C441 H445 0.930 . S
C442 C441 1.369 . S
C442 C451 1.429 . S
C443 C441 1.419 . S
C443 C444 1.363 . S
C443 H446 0.929 . S
C444 C443 1.363 . S
C444 C450 1.428 . S
H445 C441 0.930 . S
H446 C443 0.929 . S
S447 N448 1.613 . S
S447 N449 1.610 . S
N448 S447 1.613 . S
N448 C451 1.350 . S
N449 S447 1.610 . S
N449 C450 1.351 . S
C450 C444 1.428 . S
C450 N449 1.351 . S
C450 C451 1.434 . S
C451 C442 1.429 . S
C451 N448 1.350 . S
C451 C450 1.434 . S
C452 C453 1.369 . S
C452 C454 1.419 . S
C452 H456 0.930 . S
C453 C452 1.369 . S
C453 C462 1.429 . S
C454 C452 1.419 . S
C454 C455 1.363 . S
C454 H457 0.929 . S
C455 C454 1.363 . S
C455 C461 1.428 1_554 S
H456 C452 0.930 . S
H457 C454 0.929 . S
S458 N459 1.613 1_556 S
S458 N460 1.610 . S
N459 S458 1.613 1_554 S
N459 C462 1.350 . S
N460 S458 1.610 . S
N460 C461 1.351 . S
C461 C455 1.428 1_556 S
C461 N460 1.351 . S
C461 C462 1.434 1_556 S
C462 C453 1.429 . S
C462 N459 1.350 . S
C462 C461 1.434 1_554 S
C463 C464 1.369 . S
C463 C465 1.419 . S
C463 H467 0.930 . S
C464 C463 1.369 . S
C464 C473 1.429 . S
C465 C463 1.419 . S
C465 C466 1.363 . S
C465 H468 0.929 . S
C466 C465 1.363 . S
C466 C472 1.428 . S
H467 C463 0.930 . S
H468 C465 0.929 . S
S469 N470 1.613 . S
S469 N471 1.610 . S
N470 S469 1.613 . S
N470 C473 1.350 . S
N471 S469 1.610 . S
N471 C472 1.351 . S
C472 C466 1.428 . S
C472 N471 1.351 . S
C472 C473 1.434 . S
C473 C464 1.429 . S
C473 N470 1.350 . S
C473 C472 1.434 . S
C213 C199 1.578 . S
C211 C19 1.485 . S
C222 C40 1.492 . S
C224 C129 1.580 . S
C233 C51 1.489 . S
C235 C148 1.595 . S
C244 C72 1.475 . S
C246 C157 1.583 . S
C257 C171 1.577 . S
C255 C103 1.487 . S
C266 C114 1.472 . S
C268 C190 1.590 . S
C277 C30 1.471 . S
C279 C143 1.578 . S
C288 C61 1.474 . S
C290 C162 1.577 . S
C299 C82 1.479 . S
C301 C176 1.572 . S
C312 C185 1.571 . S
C310 C93 1.467 . S
C323 C204 1.576 . S
C321 C124 1.471 . S
C334 C134 1.575 . S
C332 C9 1.478 . S
C343 C17 1.429 . S
C345 C149 1.508 . S
C354 C38 1.438 . S
C356 C161 1.494 . S
C367 C175 1.479 . S
C365 C54 1.425 . S
C376 C75 1.427 . S
C378 C191 1.506 1_556 S
C389 C203 1.495 . S
C387 C101 1.435 . S
C400 C133 1.483 . S
C398 C117 1.417 . S
C411 C205 1.511 . S
C409 C33 1.429 . S
C420 C59 1.424 . S
C422 C135 1.518 . S
C433 C147 1.494 . S
C431 C80 1.444 . S
C442 C96 1.439 . S
C444 C163 1.511 . S
C453 C122 1.434 . S
C455 C177 1.516 1_554 S
C464 C12 1.426 . S
C466 C189 1.498 . S
