# Generated by pormake.
# Topology ctn, (3,4)-cn, num edge types: 1
# Building blocks:
#     Node 0, Type 0, BuildingBlock: MIDCAF_clean_linker_0, # of connection points: 3
#     Node 1, Type 0, BuildingBlock: MIDCAF_clean_linker_0, # of connection points: 3
#     Node 2, Type 0, BuildingBlock: MIDCAF_clean_linker_0, # of connection points: 3
#     Node 3, Type 0, BuildingBlock: MIDCAF_clean_linker_0, # of connection points: 3
#     Node 4, Type 0, BuildingBlock: MIDCAF_clean_linker_0, # of connection points: 3
#     Node 5, Type 0, BuildingBlock: MIDCAF_clean_linker_0, # of connection points: 3
#     Node 6, Type 0, BuildingBlock: MIDCAF_clean_linker_0, # of connection points: 3
#     Node 7, Type 0, BuildingBlock: MIDCAF_clean_linker_0, # of connection points: 3
#     Node 8, Type 0, BuildingBlock: MIDCAF_clean_linker_0, # of connection points: 3
#     Node 9, Type 0, BuildingBlock: MIDCAF_clean_linker_0, # of connection points: 3
#     Node 10, Type 0, BuildingBlock: MIDCAF_clean_linker_0, # of connection points: 3
#     Node 11, Type 0, BuildingBlock: MIDCAF_clean_linker_0, # of connection points: 3
#     Node 12, Type 0, BuildingBlock: MIDCAF_clean_linker_0, # of connection points: 3
#     Node 13, Type 0, BuildingBlock: MIDCAF_clean_linker_0, # of connection points: 3
#     Node 14, Type 0, BuildingBlock: MIDCAF_clean_linker_0, # of connection points: 3
#     Node 15, Type 0, BuildingBlock: MIDCAF_clean_linker_0, # of connection points: 3
#     Node 16, Type 1, BuildingBlock: KUFVIS_clean_sbu_0, # of connection points: 4
#     Node 17, Type 1, BuildingBlock: KUFVIS_clean_sbu_0, # of connection points: 4
#     Node 18, Type 1, BuildingBlock: KUFVIS_clean_sbu_0, # of connection points: 4
#     Node 19, Type 1, BuildingBlock: KUFVIS_clean_sbu_0, # of connection points: 4
#     Node 20, Type 1, BuildingBlock: KUFVIS_clean_sbu_0, # of connection points: 4
#     Node 21, Type 1, BuildingBlock: KUFVIS_clean_sbu_0, # of connection points: 4
#     Node 22, Type 1, BuildingBlock: KUFVIS_clean_sbu_0, # of connection points: 4
#     Node 23, Type 1, BuildingBlock: KUFVIS_clean_sbu_0, # of connection points: 4
#     Node 24, Type 1, BuildingBlock: KUFVIS_clean_sbu_0, # of connection points: 4
#     Node 25, Type 1, BuildingBlock: KUFVIS_clean_sbu_0, # of connection points: 4
#     Node 26, Type 1, BuildingBlock: KUFVIS_clean_sbu_0, # of connection points: 4
#     Node 27, Type 1, BuildingBlock: KUFVIS_clean_sbu_0, # of connection points: 4
#     Edge 28, Type (0, 1), BuildingBlock: UVAHIK_clean_linker_0, # of connection points: 2
#     Edge 29, Type (0, 1), BuildingBlock: UVAHIK_clean_linker_0, # of connection points: 2
#     Edge 30, Type (0, 1), BuildingBlock: UVAHIK_clean_linker_0, # of connection points: 2
#     Edge 31, Type (0, 1), BuildingBlock: UVAHIK_clean_linker_0, # of connection points: 2
#     Edge 32, Type (0, 1), BuildingBlock: UVAHIK_clean_linker_0, # of connection points: 2
#     Edge 33, Type (0, 1), BuildingBlock: UVAHIK_clean_linker_0, # of connection points: 2
#     Edge 34, Type (0, 1), BuildingBlock: UVAHIK_clean_linker_0, # of connection points: 2
#     Edge 35, Type (0, 1), BuildingBlock: UVAHIK_clean_linker_0, # of connection points: 2
#     Edge 36, Type (0, 1), BuildingBlock: UVAHIK_clean_linker_0, # of connection points: 2
#     Edge 37, Type (0, 1), BuildingBlock: UVAHIK_clean_linker_0, # of connection points: 2
#     Edge 38, Type (0, 1), BuildingBlock: UVAHIK_clean_linker_0, # of connection points: 2
#     Edge 39, Type (0, 1), BuildingBlock: UVAHIK_clean_linker_0, # of connection points: 2
#     Edge 40, Type (0, 1), BuildingBlock: UVAHIK_clean_linker_0, # of connection points: 2
#     Edge 41, Type (0, 1), BuildingBlock: UVAHIK_clean_linker_0, # of connection points: 2
#     Edge 42, Type (0, 1), BuildingBlock: UVAHIK_clean_linker_0, # of connection points: 2
#     Edge 43, Type (0, 1), BuildingBlock: UVAHIK_clean_linker_0, # of connection points: 2
#     Edge 44, Type (0, 1), BuildingBlock: UVAHIK_clean_linker_0, # of connection points: 2
#     Edge 45, Type (0, 1), BuildingBlock: UVAHIK_clean_linker_0, # of connection points: 2
#     Edge 46, Type (0, 1), BuildingBlock: UVAHIK_clean_linker_0, # of connection points: 2
#     Edge 47, Type (0, 1), BuildingBlock: UVAHIK_clean_linker_0, # of connection points: 2
#     Edge 48, Type (0, 1), BuildingBlock: UVAHIK_clean_linker_0, # of connection points: 2
#     Edge 49, Type (0, 1), BuildingBlock: UVAHIK_clean_linker_0, # of connection points: 2
#     Edge 50, Type (0, 1), BuildingBlock: UVAHIK_clean_linker_0, # of connection points: 2
#     Edge 51, Type (0, 1), BuildingBlock: UVAHIK_clean_linker_0, # of connection points: 2
#     Edge 52, Type (0, 1), BuildingBlock: UVAHIK_clean_linker_0, # of connection points: 2
#     Edge 53, Type (0, 1), BuildingBlock: UVAHIK_clean_linker_0, # of connection points: 2
#     Edge 54, Type (0, 1), BuildingBlock: UVAHIK_clean_linker_0, # of connection points: 2
#     Edge 55, Type (0, 1), BuildingBlock: UVAHIK_clean_linker_0, # of connection points: 2
#     Edge 56, Type (0, 1), BuildingBlock: UVAHIK_clean_linker_0, # of connection points: 2
#     Edge 57, Type (0, 1), BuildingBlock: UVAHIK_clean_linker_0, # of connection points: 2
#     Edge 58, Type (0, 1), BuildingBlock: UVAHIK_clean_linker_0, # of connection points: 2
#     Edge 59, Type (0, 1), BuildingBlock: UVAHIK_clean_linker_0, # of connection points: 2
#     Edge 60, Type (0, 1), BuildingBlock: UVAHIK_clean_linker_0, # of connection points: 2
#     Edge 61, Type (0, 1), BuildingBlock: UVAHIK_clean_linker_0, # of connection points: 2
#     Edge 62, Type (0, 1), BuildingBlock: UVAHIK_clean_linker_0, # of connection points: 2
#     Edge 63, Type (0, 1), BuildingBlock: UVAHIK_clean_linker_0, # of connection points: 2
#     Edge 64, Type (0, 1), BuildingBlock: UVAHIK_clean_linker_0, # of connection points: 2
#     Edge 65, Type (0, 1), BuildingBlock: UVAHIK_clean_linker_0, # of connection points: 2
#     Edge 66, Type (0, 1), BuildingBlock: UVAHIK_clean_linker_0, # of connection points: 2
#     Edge 67, Type (0, 1), BuildingBlock: UVAHIK_clean_linker_0, # of connection points: 2
#     Edge 68, Type (0, 1), BuildingBlock: UVAHIK_clean_linker_0, # of connection points: 2
#     Edge 69, Type (0, 1), BuildingBlock: UVAHIK_clean_linker_0, # of connection points: 2
#     Edge 70, Type (0, 1), BuildingBlock: UVAHIK_clean_linker_0, # of connection points: 2
#     Edge 71, Type (0, 1), BuildingBlock: UVAHIK_clean_linker_0, # of connection points: 2
#     Edge 72, Type (0, 1), BuildingBlock: UVAHIK_clean_linker_0, # of connection points: 2
#     Edge 73, Type (0, 1), BuildingBlock: UVAHIK_clean_linker_0, # of connection points: 2
#     Edge 74, Type (0, 1), BuildingBlock: UVAHIK_clean_linker_0, # of connection points: 2
#     Edge 75, Type (0, 1), BuildingBlock: UVAHIK_clean_linker_0, # of connection points: 2
# Relax obj value: 0.012
# Max RMSD: 0.063
# Mean RMSD: 0.028
data_MOF--net-ctn--node1-KUFVIS_clean_sbu_0--node2-MIDCAF_clean_linker_0--edge1-UVAHIK_clean_linker_0
_symmetry_space_group_name_H-M    P1
_symmetry_Int_Tables_number       1
_symmetry_cell_setting            triclinic
loop_
_symmetry_equiv_pos_as_xyz
'x, y, z'
_cell_length_a     82.839126
_cell_length_b     82.668615
_cell_length_c     83.044463
_cell_angle_alpha  90.961967
_cell_angle_beta   90.261093
_cell_angle_gamma 91.521799
loop_
_atom_site_label
_atom_site_type_symbol
_atom_site_fract_x
_atom_site_fract_y
_atom_site_fract_z
_atom_type_partial_charge
C0 C 0.00085 0.04605 0.08995 0.0
C1 C 1.00019 0.03064 0.09681 0.0
C2 C 0.0097 0.01837 0.09027 0.0
C3 C 0.01985 0.02152 0.07723 0.0
H4 H 0.06878 0.01375 0.06225 0.0
H5 H 0.09197 0.99692 0.05753 0.0
H6 H 0.09396 0.01278 0.00819 0.0
H7 H 0.07124 0.03019 0.01319 0.0
H8 H 0.05993 0.07159 0.01427 0.0
H9 H 0.05513 0.09472 0.99734 0.0
H10 H 0.00528 0.09462 0.01261 0.0
H11 H 0.01033 0.07199 0.0301 0.0
H12 H 0.01103 0.06114 0.07171 0.0
H13 H 0.99355 0.05568 0.09473 0.0
H14 H 0.00947 0.00641 0.09541 0.0
H15 H 0.02712 0.01183 0.07253 0.0
N16 N 0.04412 0.03074 0.05363 0.0
N17 N 0.05132 0.04646 0.0314 0.0
N18 N 0.02859 0.05293 0.04675 0.0
C19 C 0.05418 0.03376 0.0411 0.0
C20 C 0.03854 0.0561 0.03415 0.0
C21 C 0.0313 0.04026 0.05653 0.0
C22 C 0.06817 0.02334 0.03811 0.0
C23 C 0.07417 0.01364 0.05039 0.0
C24 C 0.08744 0.0039 0.04764 0.0
C25 C 0.0949 0.0034 0.03245 0.0
C26 C 0.08878 0.01304 0.02013 0.0
C27 C 0.07566 0.02298 0.02296 0.0
C28 C 0.03553 0.06997 0.02358 0.0
C29 C 0.04794 0.07651 0.01401 0.0
C30 C 0.04515 0.08975 0.00421 0.0
C31 C 0.0298 0.09662 0.00354 0.0
C32 C 0.01735 0.08992 0.01302 0.0
C33 C 0.02021 0.07684 0.023 0.0
C34 C 0.02049 0.03693 0.0703 0.0
C35 C 0.01079 0.04913 0.07673 0.0
C36 C 0.28508 0.63973 0.20534 0.0
C37 C 0.27123 0.63846 0.19552 0.0
C38 C 0.26895 0.65012 0.18365 0.0
C39 C 0.28017 0.66288 0.18179 0.0
H40 H 0.29485 0.70033 0.15076 0.0
H41 H 0.29046 0.72124 0.13089 0.0
H42 H 0.32198 0.75425 0.15782 0.0
H43 H 0.32647 0.73343 0.17767 0.0
H44 H 0.35215 0.71667 0.20086 0.0
H45 H 0.37375 0.72066 0.22053 0.0
H46 H 0.35637 0.67873 0.24624 0.0
H47 H 0.33491 0.67445 0.22635 0.0
H48 H 0.30667 0.65316 0.21146 0.0
H49 H 0.28709 0.63107 0.21473 0.0
H50 H 0.25849 0.64937 0.17577 0.0
H51 H 0.27795 0.67171 0.1726 0.0
N52 N 0.30333 0.68957 0.17896 0.0
N53 N 0.32596 0.70434 0.18875 0.0
N54 N 0.31793 0.68015 0.20102 0.0
C55 C 0.31355 0.70265 0.17806 0.0
C56 C 0.32828 0.69312 0.20023 0.0
C57 C 0.30543 0.67826 0.19043 0.0
C58 C 0.31101 0.71519 0.16583 0.0
C59 C 0.30086 0.71203 0.15246 0.0
C60 C 0.29841 0.72396 0.14103 0.0
C61 C 0.30587 0.73935 0.14285 0.0
C62 C 0.31598 0.74253 0.1562 0.0
C63 C 0.31861 0.73055 0.16751 0.0
C64 C 0.3417 0.69527 0.21202 0.0
C65 C 0.35291 0.70825 0.21066 0.0
C66 C 0.36527 0.7106 0.22201 0.0
C67 C 0.36672 0.70008 0.23503 0.0
C68 C 0.35568 0.68696 0.23627 0.0
C69 C 0.34332 0.68457 0.22489 0.0
C70 C 0.29389 0.66431 0.19181 0.0
C71 C 0.29627 0.65249 0.20351 0.0
C72 C 0.99062 0.42417 0.00634 0.0
C73 C 0.98004 0.42056 0.99343 0.0
C74 C 0.96712 0.43086 0.99063 0.0
C75 C 0.96472 0.44435 0.00063 0.0
H76 H 0.93182 0.48005 0.01105 0.0
H77 H 0.9097 0.49808 0.00599 0.0
H78 H 0.93136 0.5336 0.03885 0.0
H79 H 0.95311 0.51529 0.04439 0.0
H80 H 0.97498 0.49887 0.07295 0.0
H81 H 0.99115 0.50234 0.09735 0.0
H82 H 0.02287 0.46502 0.08063 0.0
H83 H 0.00647 0.46121 0.05644 0.0
H84 H 0.99651 0.43992 0.02631 0.0
H85 H 0.00059 0.41639 0.00891 0.0
H86 H 0.95887 0.42854 0.98065 0.0
H87 H 0.95458 0.45194 0.99813 0.0
N88 N 0.96021 0.47219 0.02156 0.0
N89 N 0.96709 0.48746 0.04477 0.0
N90 N 0.9818 0.46454 0.03785 0.0
C91 C 0.95753 0.48503 0.03155 0.0
C92 C 0.97924 0.47725 0.04802 0.0
C93 C 0.97236 0.46192 0.02459 0.0
C94 C 0.94424 0.49618 0.02817 0.0
C95 C 0.93188 0.49171 0.01719 0.0
C96 C 0.91921 0.50213 0.01421 0.0
C97 C 0.91868 0.51736 0.02199 0.0
C98 C 0.93116 0.52187 0.03284 0.0
C99 C 0.94372 0.51138 0.03597 0.0
C100 C 0.98937 0.47973 0.06269 0.0
C101 C 0.98541 0.49141 0.07443 0.0
C102 C 0.99475 0.49346 0.08842 0.0
C103 C 0.00832 0.48395 0.09099 0.0
C104 C 0.01235 0.47237 0.07919 0.0
C105 C 0.00298 0.47026 0.06524 0.0
C106 C 0.97516 0.44784 0.01371 0.0
C107 C 0.98819 0.43762 0.01638 0.0
C108 C 0.71007 0.78489 0.14147 0.0
C109 C 0.69864 0.77246 0.13797 0.0
C110 C 0.68429 0.7717 0.14691 0.0
C111 C 0.68151 0.78301 0.15923 0.0
H112 H 0.65947 0.78718 0.20511 0.0
H113 H 0.63956 0.78203 0.22615 0.0
H114 H 0.64231 0.83243 0.24057 0.0
H115 H 0.66229 0.83766 0.21964 0.0
H116 H 0.69633 0.85582 0.21268 0.0
H117 H 0.71578 0.87788 0.21772 0.0
H118 H 0.74497 0.86077 0.1783 0.0
H119 H 0.72537 0.83882 0.173 0.0
H120 H 0.71637 0.80567 0.15605 0.0
H121 H 0.72117 0.78589 0.13467 0.0
H122 H 0.67531 0.76217 0.14457 0.0
H123 H 0.67037 0.78199 0.16595 0.0
N124 N 0.67789 0.80499 0.18654 0.0
N125 N 0.6855 0.82895 0.20042 0.0
N126 N 0.70019 0.82056 0.17788 0.0
C127 C 0.67545 0.81577 0.19877 0.0
C128 C 0.69791 0.83144 0.19004 0.0
C129 C 0.69019 0.80735 0.17598 0.0
C130 C 0.66253 0.81282 0.21074 0.0
C131 C 0.65574 0.79721 0.21266 0.0
C132 C 0.64442 0.79422 0.22476 0.0
C133 C 0.63947 0.80682 0.23501 0.0
C134 C 0.64586 0.82252 0.23278 0.0
C135 C 0.65736 0.82547 0.22084 0.0
C136 C 0.7093 0.84543 0.19249 0.0
C137 C 0.70683 0.85676 0.205 0.0
C138 C 0.71804 0.86939 0.20796 0.0
C139 C 0.73199 0.87101 0.1985 0.0
C140 C 0.73427 0.85995 0.18573 0.0
C141 C 0.72305 0.8473 0.18275 0.0
C142 C 0.69298 0.79544 0.16278 0.0
C143 C 0.70725 0.79629 0.15368 0.0
C144 C 0.03454 0.92758 0.51626 0.0
C145 C 0.01901 0.92029 0.51606 0.0
C146 C 0.00749 0.92593 0.50513 0.0
C147 C 0.0115 0.93837 0.49452 0.0
H148 H 0.99387 0.96654 0.45596 0.0
H149 H 0.97688 0.97196 0.43255 0.0
H150 H 0.01836 0.99182 0.40776 0.0
H151 H 0.03533 0.98664 0.4311 0.0
H152 H 0.06536 0.99863 0.45287 0.0
H153 H 0.09053 0.01414 0.45666 0.0
H154 H 0.09613 0.99392 0.50389 0.0
H155 H 0.07088 0.97845 0.50024 0.0
H156 H 0.05066 0.94522 0.50619 0.0
H157 H 0.04383 0.92339 0.52427 0.0
H158 H 0.99534 0.92078 0.50479 0.0
H159 H 0.00236 0.94234 0.48621 0.0
N160 N 0.02185 0.9616 0.4704 0.0
N161 N 0.04072 0.98105 0.46139 0.0
N162 N 0.04588 0.96674 0.48488 0.0
C163 C 0.02637 0.9729 0.45947 0.0
C164 C 0.05051 0.97812 0.47412 0.0
C165 C 0.03161 0.95839 0.48311 0.0
C166 C 0.01595 0.97615 0.4454 0.0
C167 C 0.99937 0.97207 0.44552 0.0
C168 C 0.98962 0.97524 0.43219 0.0
C169 C 0.99635 0.98228 0.41838 0.0
C170 C 0.01291 0.98629 0.41823 0.0
C171 C 0.02259 0.98339 0.43163 0.0
C172 C 0.06603 0.98729 0.47626 0.0
C173 C 0.07193 0.99745 0.46407 0.0
C174 C 0.08642 0.00627 0.46619 0.0
C175 C 0.0953 0.00525 0.48057 0.0
C176 C 0.08947 0.99507 0.49274 0.0
C177 C 0.07503 0.98614 0.49059 0.0
C178 C 0.02708 0.94555 0.49467 0.0
C179 C 0.0385 0.94009 0.50577 0.0
C180 C 0.211 0.72472 0.86381 0.0
C181 C 0.20096 0.73811 0.86524 0.0
C182 C 0.18846 0.73982 0.85395 0.0
C183 C 0.18621 0.72852 0.84137 0.0
H184 H 0.15985 0.71978 0.80073 0.0
H185 H 0.13897 0.72397 0.7807 0.0
H186 H 0.15041 0.67875 0.75721 0.0
H187 H 0.17133 0.67439 0.77736 0.0
H188 H 0.20071 0.65342 0.79234 0.0
H189 H 0.22077 0.63254 0.78847 0.0
H190 H 0.25291 0.65792 0.82187 0.0
H191 H 0.23298 0.67873 0.82585 0.0
H192 H 0.21681 0.70334 0.8505 0.0
H193 H 0.22058 0.7229 0.87246 0.0
H194 H 0.18062 0.75008 0.85462 0.0
H195 H 0.17657 0.73034 0.83278 0.0
N196 N 0.18222 0.70506 0.81533 0.0
N197 N 0.19099 0.68231 0.8009 0.0
N198 N 0.2049 0.69135 0.82416 0.0
C199 C 0.18041 0.69452 0.80268 0.0
C200 C 0.2033 0.68068 0.8116 0.0
C201 C 0.19438 0.70353 0.82616 0.0
C202 C 0.16736 0.69675 0.79068 0.0
C203 C 0.15794 0.71066 0.79136 0.0
C204 C 0.14601 0.71314 0.7798 0.0
C205 C 0.14311 0.70174 0.76733 0.0
C206 C 0.15231 0.6877 0.76675 0.0
C207 C 0.16435 0.68525 0.77827 0.0
C208 C 0.21522 0.66777 0.80939 0.0
C209 C 0.21204 0.65454 0.79888 0.0
C210 C 0.22347 0.64254 0.79672 0.0
C211 C 0.23839 0.64366 0.80484 0.0
C212 C 0.24156 0.65684 0.81535 0.0
C213 C 0.23008 0.66871 0.81768 0.0
C214 C 0.19642 0.71526 0.83979 0.0
C215 C 0.20877 0.71344 0.85124 0.0
C216 C 0.99953 0.58479 0.4957 0.0
C217 C 0.9885 0.59005 0.50736 0.0
C218 C 0.97448 0.58057 0.51011 0.0
C219 C 0.97147 0.56624 0.50132 0.0
H220 H 0.93429 0.53276 0.48816 0.0
H221 H 0.9099 0.51656 0.49294 0.0
H222 H 0.93286 0.47457 0.47256 0.0
H223 H 0.95688 0.49105 0.467 0.0
H224 H 0.97814 0.51054 0.43167 0.0
H225 H 0.9953 0.5049 0.4087 0.0
H226 H 0.03564 0.52882 0.43338 0.0
H227 H 0.01813 0.53526 0.45591 0.0
H228 H 0.00522 0.56687 0.47791 0.0
H229 H 0.01037 0.5919 0.49318 0.0
H230 H 0.96586 0.58417 0.51917 0.0
H231 H 0.96051 0.5593 0.50377 0.0
N232 N 0.96549 0.53682 0.48276 0.0
N233 N 0.97245 0.51878 0.46198 0.0
N234 N 0.98923 0.5414 0.46806 0.0
C235 C 0.96219 0.52316 0.4739 0.0
C236 C 0.98598 0.52786 0.45899 0.0
C237 C 0.97902 0.54599 0.47996 0.0
C238 C 0.94748 0.5132 0.47714 0.0
C239 C 0.9341 0.52006 0.4847 0.0
C240 C 0.92013 0.51071 0.48755 0.0
C241 C 0.9193 0.49418 0.48317 0.0
C242 C 0.93284 0.48731 0.4758 0.0
C243 C 0.94669 0.49674 0.47269 0.0
C244 C 0.99676 0.52343 0.44555 0.0
C245 C 0.9907 0.51451 0.4322 0.0
C246 C 0.00061 0.51119 0.41904 0.0
C247 C 0.01694 0.51642 0.41904 0.0
C248 C 0.02307 0.52491 0.43269 0.0
C249 C 0.01307 0.52852 0.4457 0.0
C250 C 0.98241 0.56103 0.48954 0.0
C251 C 0.99651 0.57046 0.48688 0.0
C252 C 0.8704 0.80297 0.78716 0.0
C253 C 0.87059 0.81136 0.77259 0.0
C254 C 0.85944 0.82365 0.7703 0.0
C255 C 0.84793 0.82703 0.78212 0.0
H256 H 0.8119 0.85931 0.7962 0.0
H257 H 0.79087 0.87864 0.79121 0.0
H258 H 0.76082 0.85558 0.82702 0.0
H259 H 0.78202 0.83664 0.83242 0.0
H260 H 0.80339 0.81534 0.85976 0.0
H261 H 0.79895 0.79504 0.88052 0.0
H262 H 0.82951 0.76216 0.85469 0.0
H263 H 0.83417 0.78238 0.83406 0.0
H264 H 0.85907 0.79939 0.80987 0.0
H265 H 0.87904 0.79367 0.78943 0.0
H266 H 0.85925 0.83028 0.75917 0.0
H267 H 0.83924 0.83628 0.77981 0.0
N268 N 0.82345 0.83244 0.80662 0.0
N269 N 0.81001 0.82395 0.82996 0.0
N270 N 0.83304 0.81062 0.8212 0.0
C271 C 0.81119 0.83415 0.81731 0.0
C272 C 0.82093 0.81218 0.832 0.0
C273 C 0.83448 0.82071 0.80852 0.0
C274 C 0.79868 0.84637 0.8147 0.0
C275 C 0.80084 0.85841 0.80308 0.0
C276 C 0.78872 0.86945 0.80014 0.0
C277 C 0.77407 0.86865 0.80864 0.0
C278 C 0.77201 0.85673 0.8204 0.0
C279 C 0.78418 0.84579 0.82344 0.0
C280 C 0.81906 0.80046 0.8452 0.0
C281 C 0.80928 0.80384 0.85858 0.0
C282 C 0.80682 0.79229 0.87051 0.0
C283 C 0.81387 0.77707 0.86914 0.0
C284 C 0.82389 0.7738 0.85597 0.0
C285 C 0.82658 0.78542 0.8442 0.0
C286 C 0.84738 0.8182 0.79646 0.0
C287 C 0.85895 0.80633 0.79893 0.0
C288 C 0.36966 0.30149 0.28753 0.0
C289 C 0.36965 0.30965 0.27283 0.0
C290 C 0.35817 0.32159 0.27035 0.0
C291 C 0.34662 0.32492 0.28213 0.0
H292 H 0.30247 0.3465 0.28915 0.0
H293 H 0.28037 0.36462 0.28392 0.0
H294 H 0.26651 0.36272 0.3339 0.0
H295 H 0.28859 0.34449 0.33923 0.0
H296 H 0.30289 0.31461 0.36066 0.0
H297 H 0.29954 0.2949 0.38218 0.0
H298 H 0.33279 0.2634 0.35813 0.0
H299 H 0.33633 0.28296 0.33678 0.0
H300 H 0.35851 0.29807 0.31035 0.0
H301 H 0.37854 0.29244 0.28994 0.0
H302 H 0.35781 0.32804 0.25911 0.0
H303 H 0.33774 0.33395 0.2797 0.0
N304 N 0.32216 0.33027 0.3066 0.0
N305 N 0.30973 0.3229 0.33087 0.0
N306 N 0.33287 0.30971 0.32212 0.0
C307 C 0.31021 0.33231 0.31758 0.0
C308 C 0.32102 0.31153 0.33319 0.0
C309 C 0.33362 0.31906 0.30886 0.0
C310 C 0.2973 0.34399 0.31461 0.0
C311 C 0.2948 0.35 0.29908 0.0
C312 C 0.28208 0.36029 0.29603 0.0
C313 C 0.2717 0.36499 0.30849 0.0
C314 C 0.27439 0.35933 0.3241 0.0
C315 C 0.28698 0.34884 0.32711 0.0
C316 C 0.31981 0.30034 0.34693 0.0
C317 C 0.3096 0.30355 0.36004 0.0
C318 C 0.30774 0.29233 0.37239 0.0
C319 C 0.31585 0.27763 0.37172 0.0
C320 C 0.32632 0.2746 0.35885 0.0
C321 C 0.32837 0.28587 0.34666 0.0
C322 C 0.34636 0.31639 0.29667 0.0
C323 C 0.35818 0.3048 0.29928 0.0
C324 C 0.48413 0.91813 0.51211 0.0
C325 C 0.47918 0.91785 0.49592 0.0
C326 C 0.47185 0.93152 0.4896 0.0
C327 C 0.46928 0.94514 0.49941 0.0
H328 H 0.43224 0.97953 0.51117 0.0
H329 H 0.41041 0.99802 0.50632 0.0
H330 H 0.43283 0.03294 0.53931 0.0
H331 H 0.45426 0.01422 0.54462 0.0
H332 H 0.47353 0.99661 0.57453 0.0
H333 H 0.48919 0.99994 0.59927 0.0
H334 H 0.52078 0.96216 0.58334 0.0
H335 H 0.50484 0.95846 0.55885 0.0
H336 H 0.48578 0.93161 0.53426 0.0
H337 H 0.48989 0.90778 0.51723 0.0
H338 H 0.46785 0.93154 0.47717 0.0
H339 H 0.46349 0.95546 0.49425 0.0
N340 N 0.46024 0.97067 0.52235 0.0
N341 N 0.46676 0.98578 0.54578 0.0
N342 N 0.48054 0.96206 0.53979 0.0
C343 C 0.45773 0.9837 0.53216 0.0
C344 C 0.4782 0.97502 0.54968 0.0
C345 C 0.47166 0.9598 0.52611 0.0
C346 C 0.44496 0.99532 0.52837 0.0
C347 C 0.43255 0.99119 0.51733 0.0
C348 C 0.42005 0.00185 0.51449 0.0
C349 C 0.41975 0.01699 0.52249 0.0
C350 C 0.43242 0.02127 0.53319 0.0
C351 C 0.4448 0.01054 0.53617 0.0
C352 C 0.48789 0.97726 0.56466 0.0
C353 C 0.48382 0.98901 0.57628 0.0
C354 C 0.49286 0.99098 0.59046 0.0
C355 C 0.50628 0.98133 0.59333 0.0
C356 C 0.51038 0.96962 0.58168 0.0
C357 C 0.50127 0.96757 0.56755 0.0
C358 C 0.47427 0.94544 0.51562 0.0
C359 C 0.48183 0.93182 0.52182 0.0
C360 C 0.20006 0.2898 0.63548 0.0
C361 C 0.19352 0.27395 0.63627 0.0
C362 C 0.18378 0.26984 0.64951 0.0
C363 C 0.18095 0.28118 0.6618 0.0
H364 H 0.14762 0.29454 0.69825 0.0
H365 H 0.12753 0.28989 0.71913 0.0
H366 H 0.15068 0.32717 0.7489 0.0
H367 H 0.17039 0.33218 0.72792 0.0
H368 H 0.19562 0.3559 0.71228 0.0
H369 H 0.21607 0.37715 0.71682 0.0
H370 H 0.24238 0.36013 0.67534 0.0
H371 H 0.22176 0.33906 0.67053 0.0
H372 H 0.20278 0.31308 0.64689 0.0
H373 H 0.2073 0.29353 0.62531 0.0
H374 H 0.1787 0.25771 0.65064 0.0
H375 H 0.17367 0.2775 0.67197 0.0
N376 N 0.17438 0.30609 0.68606 0.0
N377 N 0.18353 0.32942 0.70016 0.0
N378 N 0.19633 0.32151 0.67634 0.0
C379 C 0.17304 0.31655 0.69879 0.0
C380 C 0.19519 0.33201 0.689 0.0
C381 C 0.18599 0.30854 0.67476 0.0
C382 C 0.16065 0.31374 0.71136 0.0
C383 C 0.1484 0.30178 0.70923 0.0
C384 C 0.13692 0.29905 0.72125 0.0
C385 C 0.13747 0.30814 0.73574 0.0
C386 C 0.14969 0.32012 0.73782 0.0
C387 C 0.16109 0.32293 0.72577 0.0
C388 C 0.20707 0.34564 0.69111 0.0
C389 C 0.20569 0.35672 0.70403 0.0
C390 C 0.21747 0.36888 0.7067 0.0
C391 C 0.23094 0.37025 0.69653 0.0
C392 C 0.23208 0.3595 0.68332 0.0
C393 C 0.22028 0.34734 0.68062 0.0
C394 C 0.18793 0.29685 0.66122 0.0
C395 C 0.19737 0.30106 0.64784 0.0
C396 C 0.7877 0.1385 0.70301 0.0
C397 C 0.77328 0.13802 0.69401 0.0
C398 C 0.77122 0.14946 0.68188 0.0
C399 C 0.78309 0.16144 0.67919 0.0
H400 H 0.79811 0.19851 0.64764 0.0
H401 H 0.79314 0.21998 0.62854 0.0
H402 H 0.82596 0.25203 0.65506 0.0
H403 H 0.83106 0.23062 0.67414 0.0
H404 H 0.85725 0.21291 0.69638 0.0
H405 H 0.8787 0.2167 0.71628 0.0
H406 H 0.86097 0.17459 0.7415 0.0
H407 H 0.83971 0.17052 0.72143 0.0
H408 H 0.81037 0.15057 0.7077 0.0
H409 H 0.78978 0.12968 0.71224 0.0
H410 H 0.7602 0.14947 0.67482 0.0
H411 H 0.78093 0.17029 0.67001 0.0
N412 N 0.80717 0.18719 0.67542 0.0
N413 N 0.83056 0.20118 0.68453 0.0
N414 N 0.82226 0.17707 0.69679 0.0
C415 C 0.81774 0.19997 0.67428 0.0
C416 C 0.83296 0.18973 0.69577 0.0
C417 C 0.80935 0.17567 0.68667 0.0
C418 C 0.81499 0.21283 0.66243 0.0
C419 C 0.8043 0.21011 0.6494 0.0
C420 C 0.80151 0.22237 0.63841 0.0
C421 C 0.80915 0.23765 0.64035 0.0
C422 C 0.81982 0.24039 0.65336 0.0
C423 C 0.8228 0.22808 0.66422 0.0
C424 C 0.84663 0.19148 0.70733 0.0
C425 C 0.85795 0.20437 0.70609 0.0
C426 C 0.87023 0.2066 0.71755 0.0
C427 C 0.87148 0.19602 0.73055 0.0
C428 C 0.86046 0.18286 0.73155 0.0
C429 C 0.84818 0.1806 0.72007 0.0
C430 C 0.79729 0.16225 0.68857 0.0
C431 C 0.79955 0.15046 0.70033 0.0
C432 C 0.50214 0.54641 0.58961 0.0
C433 C 0.50173 0.53107 0.59671 0.0
C434 C 0.51149 0.51894 0.59018 0.0
C435 C 0.52157 0.52214 0.5771 0.0
H436 H 0.56341 0.50654 0.55588 0.0
H437 H 0.58636 0.48947 0.55079 0.0
H438 H 0.60369 0.5227 0.51476 0.0
H439 H 0.58054 0.53961 0.51953 0.0
H440 H 0.56165 0.57322 0.51474 0.0
H441 H 0.55648 0.59617 0.49765 0.0
H442 H 0.50651 0.59506 0.51257 0.0
H443 H 0.51191 0.57267 0.5302 0.0
H444 H 0.51215 0.56154 0.57132 0.0
H445 H 0.49505 0.55616 0.59444 0.0
H446 H 0.51127 0.50688 0.59507 0.0
H447 H 0.52894 0.51252 0.57242 0.0
N448 N 0.54571 0.53151 0.55342 0.0
N449 N 0.55325 0.54779 0.53171 0.0
N450 N 0.53023 0.5538 0.54678 0.0
C451 C 0.556 0.53485 0.54114 0.0
C452 C 0.54034 0.55726 0.53441 0.0
C453 C 0.53285 0.54097 0.55637 0.0
C454 C 0.57007 0.52449 0.53811 0.0
C455 C 0.5721 0.51025 0.54686 0.0
C456 C 0.58533 0.50048 0.54401 0.0
C457 C 0.5969 0.50471 0.53238 0.0
C458 C 0.5949 0.51895 0.52365 0.0
C459 C 0.58164 0.52871 0.52646 0.0
C460 C 0.53721 0.57114 0.52388 0.0
C461 C 0.54957 0.57791 0.51439 0.0
C462 C 0.54656 0.59103 0.50449 0.0
C463 C 0.53106 0.59756 0.50367 0.0
C464 C 0.51869 0.59065 0.5131 0.0
C465 C 0.52176 0.5777 0.52317 0.0
C466 C 0.52196 0.53748 0.57005 0.0
C467 C 0.51204 0.54954 0.57638 0.0
C468 C 0.52769 0.43481 0.02276 0.0
C469 C 0.51768 0.42153 0.01803 0.0
C470 C 0.51051 0.42154 0.00263 0.0
C471 C 0.51362 0.43428 0.9921 0.0
H472 H 0.49146 0.46699 0.95723 0.0
H473 H 0.47442 0.47272 0.93418 0.0
H474 H 0.51592 0.49287 0.90938 0.0
H475 H 0.53272 0.48786 0.93274 0.0
H476 H 0.56271 0.50004 0.95503 0.0
H477 H 0.58813 0.51515 0.95891 0.0
H478 H 0.59236 0.49616 0.00682 0.0
H479 H 0.56688 0.48112 0.00308 0.0
H480 H 0.53896 0.45728 0.01614 0.0
H481 H 0.5331 0.43546 0.03465 0.0
H482 H 0.5029 0.41146 0.99846 0.0
H483 H 0.50822 0.4337 0.98019 0.0
N484 N 0.51923 0.46264 0.97197 0.0
N485 N 0.53783 0.48252 0.9633 0.0
N486 N 0.54256 0.46876 0.98722 0.0
C487 C 0.52374 0.47396 0.96105 0.0
C488 C 0.54729 0.48004 0.97639 0.0
C489 C 0.52861 0.45997 0.98508 0.0
C490 C 0.51344 0.477 0.94685 0.0
C491 C 0.49693 0.47264 0.94684 0.0
C492 C 0.48717 0.47586 0.93355 0.0
C493 C 0.49372 0.48329 0.91982 0.0
C494 C 0.51031 0.48747 0.91982 0.0
C495 C 0.52001 0.48449 0.9332 0.0
C496 C 0.5627 0.48934 0.97874 0.0
C497 C 0.56901 0.49909 0.96642 0.0
C498 C 0.58364 0.50767 0.96859 0.0
C499 C 0.59225 0.50681 0.98316 0.0
C500 C 0.58593 0.49716 0.99551 0.0
C501 C 0.57136 0.48848 0.99331 0.0
C502 C 0.52413 0.44719 0.99665 0.0
C503 C 0.53097 0.4474 0.01217 0.0
C504 C 0.70458 0.22182 0.36873 0.0
C505 C 0.69411 0.23487 0.37008 0.0
C506 C 0.68196 0.23648 0.3584 0.0
C507 C 0.68051 0.22548 0.34548 0.0
H508 H 0.65732 0.21874 0.30261 0.0
H509 H 0.63695 0.22288 0.28199 0.0
H510 H 0.65044 0.17863 0.25783 0.0
H511 H 0.67083 0.17435 0.27853 0.0
H512 H 0.7092 0.16459 0.28632 0.0
H513 H 0.73064 0.14528 0.28225 0.0
H514 H 0.74213 0.14796 0.33298 0.0
H515 H 0.72076 0.16738 0.33714 0.0
H516 H 0.71162 0.20108 0.35502 0.0
H517 H 0.71418 0.22033 0.37743 0.0
H518 H 0.67357 0.24629 0.35922 0.0
H519 H 0.67111 0.22723 0.33663 0.0
N520 N 0.67885 0.20347 0.31818 0.0
N521 N 0.68931 0.18206 0.30297 0.0
N522 N 0.70123 0.18971 0.32772 0.0
C523 C 0.67822 0.19376 0.30481 0.0
C524 C 0.70084 0.17994 0.31439 0.0
C525 C 0.69028 0.20152 0.3297 0.0
C526 C 0.66576 0.1962 0.29226 0.0
C527 C 0.65598 0.20985 0.29294 0.0
C528 C 0.64435 0.21229 0.28106 0.0
C529 C 0.64213 0.20111 0.26828 0.0
C530 C 0.6518 0.1874 0.26762 0.0
C531 C 0.66354 0.185 0.27944 0.0
C532 C 0.71329 0.16758 0.31205 0.0
C533 C 0.71621 0.16101 0.29664 0.0
C534 C 0.72855 0.15003 0.29427 0.0
C535 C 0.73807 0.1452 0.30729 0.0
C536 C 0.73492 0.15143 0.32275 0.0
C537 C 0.72273 0.16261 0.3251 0.0
C538 C 0.69122 0.21263 0.34391 0.0
C539 C 0.70316 0.21083 0.3558 0.0
C540 C 0.49961 0.08517 0.9956 0.0
C541 C 0.48856 0.09053 0.00718 0.0
C542 C 0.47459 0.08102 0.01006 0.0
C543 C 0.47168 0.06653 0.0015 0.0
H544 H 0.43496 0.03262 0.98931 0.0
H545 H 0.4107 0.01644 0.99462 0.0
H546 H 0.43344 0.97428 0.97433 0.0
H547 H 0.45735 0.99073 0.96826 0.0
H548 H 0.47898 0.0095 0.93293 0.0
H549 H 0.49628 0.0037 0.9101 0.0
H550 H 0.53627 0.02849 0.93451 0.0
H551 H 0.51863 0.03507 0.95688 0.0
H552 H 0.50544 0.06701 0.97809 0.0
H553 H 0.51041 0.0923 0.99298 0.0
H554 H 0.46595 0.08469 0.01907 0.0
H555 H 0.46077 0.05956 0.00406 0.0
N556 N 0.46593 0.03678 0.98346 0.0
N557 N 0.47305 0.01836 0.96307 0.0
N558 N 0.48967 0.0412 0.96875 0.0
C559 C 0.46272 0.02292 0.97488 0.0
C560 C 0.48654 0.02746 0.95994 0.0
C561 C 0.4794 0.04597 0.98051 0.0
C562 C 0.44806 0.01297 0.97831 0.0
C563 C 0.43476 0.01989 0.98598 0.0
C564 C 0.42087 0.01055 0.98913 0.0
C565 C 0.42002 0.99397 0.98496 0.0
C566 C 0.43345 0.98704 0.97744 0.0
C567 C 0.44724 0.99646 0.97403 0.0
C568 C 0.49741 0.02284 0.94665 0.0
C569 C 0.4915 0.01363 0.93343 0.0
C570 C 0.50149 0.01021 0.92036 0.0
C571 C 0.51775 0.01566 0.92032 0.0
C572 C 0.52375 0.02442 0.93385 0.0
C573 C 0.51367 0.02811 0.94677 0.0
C574 C 0.48267 0.0612 0.98982 0.0
C575 C 0.4967 0.07069 0.987 0.0
Mn576 Mn 0.25094 0.87325 0.00756 0.0
Mn577 Mn 0.24844 0.88772 0.96989 0.0
C578 C 0.23736 0.85846 0.98773 0.0
C579 C 0.26429 0.85855 0.02698 0.0
C580 C 0.22826 0.9 0.99764 0.0
O581 O 0.2687 0.89072 0.00731 0.0
O582 O 0.26683 0.8987 0.98152 0.0
C583 C 0.27892 0.87504 0.9569 0.0
N584 N 0.26255 0.87599 0.95609 0.0
C585 C 0.26133 0.85846 0.93265 0.0
C586 C 0.27819 0.85739 0.93317 0.0
C587 C 0.28701 0.86569 0.94536 0.0
C588 C 0.25394 0.86805 0.94441 0.0
H589 H 0.28574 0.88133 0.9663 0.0
C590 C 0.27344 0.89933 0.99553 0.0
O591 O 0.2542 0.86967 0.031 0.0
O592 O 0.26698 0.85638 0.01174 0.0
N593 N 0.23126 0.87794 0.95731 0.0
C594 C 0.21503 0.87956 0.959 0.0
C595 C 0.20445 0.87166 0.948 0.0
C596 C 0.21065 0.86223 0.93536 0.0
C597 C 0.22741 0.86086 0.93378 0.0
C598 C 0.23737 0.86915 0.94501 0.0
H599 H 0.21018 0.88675 0.96873 0.0
O600 O 0.23426 0.8559 0.00279 0.0
O601 O 0.24827 0.86959 0.98479 0.0
O602 O 0.23357 0.89039 0.00817 0.0
O603 O 0.23323 0.90023 0.9831 0.0
C604 C 0.2346 0.85134 0.92169 0.0
C605 C 0.25154 0.85013 0.92114 0.0
H606 H 0.28446 0.8501 0.92437 0.0
H607 H 0.30002 0.86485 0.9459 0.0
H608 H 0.19153 0.87275 0.94932 0.0
H609 H 0.20245 0.856 0.92701 0.0
H610 H 0.22719 0.84472 0.9129 0.0
H611 H 0.25692 0.8426 0.91193 0.0
Mn612 Mn 0.13692 0.49844 0.25273 0.0
Mn613 Mn 0.12447 0.53702 0.25246 0.0
C614 C 0.15217 0.5181 0.24001 0.0
C615 C 0.15087 0.47773 0.26483 0.0
C616 C 0.11021 0.51055 0.23063 0.0
O617 O 0.1202 0.49874 0.27055 0.0
O618 O 0.11329 0.52493 0.26992 0.0
C619 C 0.13852 0.54794 0.28377 0.0
N620 N 0.13715 0.54968 0.26755 0.0
C621 C 0.15548 0.57277 0.26812 0.0
C622 C 0.15699 0.57129 0.28485 0.0
C623 C 0.1485 0.5588 0.2927 0.0
C624 C 0.1453 0.56163 0.25987 0.0
H625 H 0.13207 0.53831 0.28984 0.0
C626 C 0.11222 0.5107 0.2758 0.0
O627 O 0.1393 0.47463 0.25453 0.0
O628 O 0.15402 0.49282 0.26839 0.0
N629 N 0.13433 0.55022 0.23632 0.0
C630 C 0.13203 0.5496 0.22006 0.0
C631 C 0.1399 0.56111 0.21039 0.0
C632 C 0.14995 0.57318 0.21753 0.0
C633 C 0.15197 0.5737 0.23431 0.0
C634 C 0.14369 0.562 0.24335 0.0
H635 H 0.12434 0.54035 0.21449 0.0
O636 O 0.15377 0.50295 0.2362 0.0
O637 O 0.14179 0.5213 0.25126 0.0
O638 O 0.1191 0.49925 0.23557 0.0
O639 O 0.11111 0.52502 0.23629 0.0
C640 C 0.16208 0.58518 0.24239 0.0
C641 C 0.16386 0.5847 0.25928 0.0
H642 H 0.16474 0.5796 0.29177 0.0
H643 H 0.14968 0.55753 0.3056 0.0
H644 H 0.13829 0.56063 0.19745 0.0
H645 H 0.15613 0.58194 0.21002 0.0
H646 H 0.16871 0.59431 0.2357 0.0
H647 H 0.17183 0.59347 0.26533 0.0
Mn648 Mn 0.755 0.62882 0.00093 0.0
Mn649 Mn 0.7212 0.63965 0.98143 0.0
C650 C 0.73211 0.61212 0.00136 0.0
C651 C 0.78003 0.61658 0.00092 0.0
C652 C 0.73241 0.65469 0.01334 0.0
O653 O 0.76305 0.64681 0.98619 0.0
O654 O 0.74033 0.65073 0.97184 0.0
C655 C 0.72747 0.62443 0.94963 0.0
N656 N 0.71774 0.62634 0.96265 0.0
C657 C 0.69721 0.60866 0.95089 0.0
C658 C 0.70693 0.60664 0.93725 0.0
C659 C 0.72217 0.61448 0.93667 0.0
C660 C 0.70319 0.61862 0.96346 0.0
H661 H 0.73919 0.63042 0.94916 0.0
C662 C 0.75538 0.65338 0.97476 0.0
O663 O 0.77651 0.62764 0.01152 0.0
O664 O 0.76914 0.61289 0.99009 0.0
N665 N 0.70171 0.62976 0.98931 0.0
C666 C 0.69419 0.6323 0.00367 0.0
C667 C 0.67903 0.62488 0.00642 0.0
C668 C 0.67165 0.61514 0.99432 0.0
C669 C 0.67952 0.6129 0.97957 0.0
C670 C 0.69463 0.62054 0.97754 0.0
H671 H 0.69972 0.63989 0.01296 0.0
O672 O 0.74332 0.61075 0.01217 0.0
O673 O 0.73476 0.62297 0.99049 0.0
O674 O 0.74439 0.64559 0.01545 0.0
O675 O 0.72339 0.65386 0.00081 0.0
C676 C 0.67301 0.60328 0.96685 0.0
C677 C 0.6819 0.60105 0.95256 0.0
H678 H 0.70287 0.59901 0.92723 0.0
H679 H 0.7298 0.6129 0.92625 0.0
H680 H 0.67303 0.62669 0.01783 0.0
H681 H 0.65997 0.60941 0.9965 0.0
H682 H 0.66129 0.59731 0.96803 0.0
H683 H 0.6769 0.59335 0.943 0.0
Mn684 Mn 0.8715 0.00831 0.25598 0.0
Mn685 Mn 0.88332 0.96957 0.25307 0.0
C686 C 0.85541 0.98914 0.24272 0.0
C687 C 0.85837 0.02914 0.26932 0.0
C688 C 0.89722 0.99641 0.23253 0.0
O689 O 0.88891 0.00728 0.27329 0.0
O690 O 0.89518 0.98094 0.27101 0.0
C691 C 0.87008 0.95782 0.28392 0.0
N692 N 0.87088 0.95663 0.26757 0.0
C693 C 0.85208 0.93392 0.26701 0.0
C694 C 0.85114 0.93484 0.28386 0.0
C695 C 0.86015 0.94686 0.29234 0.0
C696 C 0.86223 0.94513 0.25929 0.0
H697 H 0.87693 0.96709 0.29048 0.0
C698 C 0.89678 0.995 0.27766 0.0
O699 O 0.86973 0.03209 0.25897 0.0
O700 O 0.85507 0.01407 0.27237 0.0
N701 N 0.87269 0.95714 0.2363 0.0
C702 C 0.87441 0.95833 0.22004 0.0
C703 C 0.86593 0.94739 0.20979 0.0
C704 C 0.85586 0.93528 0.21634 0.0
C705 C 0.85442 0.93417 0.2331 0.0
C706 C 0.86328 0.94532 0.24273 0.0
H707 H 0.88212 0.96763 0.21493 0.0
O708 O 0.85392 0.00439 0.23975 0.0
O709 O 0.86622 0.98558 0.25341 0.0
O710 O 0.88849 0.00759 0.23822 0.0
O711 O 0.8965 0.98184 0.23742 0.0
C712 C 0.84431 0.92263 0.24063 0.0
C713 C 0.84312 0.92252 0.25757 0.0
H714 H 0.84343 0.92647 0.29039 0.0
H715 H 0.85943 0.9477 0.30533 0.0
H716 H 0.8671 0.94833 0.19686 0.0
H717 H 0.84921 0.92696 0.20839 0.0
H718 H 0.83722 0.91392 0.23349 0.0
H719 H 0.83515 0.91372 0.26321 0.0
Mn720 Mn 0.25627 0.1295 0.50237 0.0
Mn721 Mn 0.22409 0.1414 0.48102 0.0
C722 C 0.23319 0.11317 0.50112 0.0
C723 C 0.28114 0.11697 0.5033 0.0
C724 C 0.23361 0.1556 0.51382 0.0
O725 O 0.2654 0.14783 0.48869 0.0
O726 O 0.24401 0.15203 0.4725 0.0
C727 C 0.23154 0.12629 0.44944 0.0
N728 N 0.22123 0.1283 0.462 0.0
C729 C 0.201 0.11099 0.44922 0.0
C730 C 0.21133 0.10886 0.43607 0.0
C731 C 0.2267 0.11648 0.43622 0.0
C732 C 0.20651 0.12086 0.46208 0.0
H733 H 0.24337 0.1321 0.44954 0.0
C734 C 0.25878 0.15455 0.47669 0.0
O735 O 0.27716 0.12771 0.51406 0.0
O736 O 0.27079 0.11374 0.49184 0.0
N737 N 0.20397 0.13197 0.48784 0.0
C738 C 0.19581 0.13458 0.50183 0.0
C739 C 0.18043 0.12737 0.50384 0.0
C740 C 0.17349 0.11777 0.49139 0.0
C741 C 0.18201 0.11545 0.47703 0.0
C742 C 0.19731 0.1229 0.47572 0.0
H743 H 0.20101 0.14206 0.51139 0.0
O744 O 0.24379 0.11128 0.51243 0.0
O745 O 0.23663 0.12425 0.49066 0.0
O746 O 0.24494 0.14591 0.51673 0.0
O747 O 0.2257 0.15545 0.50056 0.0
C748 C 0.176 0.1059 0.46402 0.0
C749 C 0.18553 0.10357 0.45018 0.0
H750 H 0.20764 0.1013 0.42585 0.0
H751 H 0.23478 0.1148 0.42617 0.0
H752 H 0.17392 0.12924 0.51496 0.0
H753 H 0.16165 0.11218 0.49301 0.0
H754 H 0.16416 0.10007 0.46465 0.0
H755 H 0.18089 0.09594 0.44039 0.0
Mn756 Mn 0.37174 0.50521 0.75469 0.0
Mn757 Mn 0.38623 0.46749 0.75179 0.0
C758 C 0.3574 0.48519 0.74066 0.0
C759 C 0.35665 0.52472 0.76791 0.0
C760 C 0.39902 0.49544 0.73204 0.0
O761 O 0.38859 0.50511 0.77262 0.0
O762 O 0.39678 0.47937 0.7702 0.0
C763 C 0.37291 0.45443 0.78209 0.0
N764 N 0.37428 0.45353 0.76576 0.0
C765 C 0.35736 0.42942 0.7644 0.0
C766 C 0.35585 0.43003 0.78121 0.0
C767 C 0.36363 0.44261 0.79008 0.0
C768 C 0.3668 0.44151 0.7571 0.0
H769 H 0.37884 0.4641 0.78895 0.0
C770 C 0.39719 0.49338 0.77708 0.0
O771 O 0.36817 0.52874 0.75809 0.0
O772 O 0.3543 0.5094 0.77048 0.0
N773 N 0.37695 0.45462 0.73458 0.0
C774 C 0.37893 0.45626 0.7184 0.0
C775 C 0.37154 0.4449 0.70778 0.0
C776 C 0.36231 0.43191 0.71389 0.0
C777 C 0.3606 0.43038 0.73059 0.0
C778 C 0.3683 0.44203 0.74059 0.0
H779 H 0.38601 0.46621 0.71363 0.0
O780 O 0.35502 0.50032 0.73778 0.0
O781 O 0.36808 0.48225 0.75168 0.0
O782 O 0.38942 0.50597 0.73755 0.0
O783 O 0.39902 0.48081 0.73672 0.0
C784 C 0.35135 0.41788 0.73769 0.0
C785 C 0.34967 0.41744 0.75458 0.0
H786 H 0.34866 0.42098 0.78742 0.0
H787 H 0.36246 0.44321 0.80305 0.0
H788 H 0.37291 0.44617 0.6949 0.0
H789 H 0.35652 0.42324 0.70566 0.0
H790 H 0.34527 0.40869 0.73026 0.0
H791 H 0.34231 0.40793 0.75988 0.0
Mn792 Mn 0.751 0.37245 0.50732 0.0
Mn793 Mn 0.74775 0.38541 0.46914 0.0
C794 C 0.73656 0.35719 0.48844 0.0
C795 C 0.76457 0.35806 0.52684 0.0
C796 C 0.72834 0.39907 0.49682 0.0
O797 O 0.76909 0.38945 0.506 0.0
O798 O 0.76635 0.39681 0.48011 0.0
C799 C 0.77802 0.3721 0.45631 0.0
N800 N 0.76165 0.37311 0.45563 0.0
C801 C 0.76007 0.3547 0.43288 0.0
C802 C 0.77693 0.35356 0.43326 0.0
C803 C 0.78593 0.36228 0.44504 0.0
C804 C 0.75286 0.36476 0.44435 0.0
H805 H 0.78498 0.3787 0.4654 0.0
C806 C 0.77344 0.39775 0.49387 0.0
O807 O 0.75488 0.36956 0.53081 0.0
O808 O 0.76674 0.35537 0.51159 0.0
N809 N 0.73039 0.37526 0.45711 0.0
C810 C 0.71418 0.3771 0.45885 0.0
C811 C 0.70344 0.36889 0.44822 0.0
C812 C 0.70946 0.35894 0.43588 0.0
C813 C 0.72619 0.35738 0.43422 0.0
C814 C 0.73631 0.36599 0.44507 0.0
H815 H 0.70948 0.38468 0.46835 0.0
O816 O 0.73381 0.35537 0.50367 0.0
O817 O 0.74764 0.36791 0.48475 0.0
O818 O 0.73409 0.39012 0.50771 0.0
O819 O 0.73274 0.39837 0.4821 0.0
C820 C 0.73319 0.34737 0.42242 0.0
C821 C 0.75012 0.34602 0.42176 0.0
H822 H 0.78307 0.34592 0.42466 0.0
H823 H 0.79893 0.36139 0.44547 0.0
H824 H 0.69055 0.37015 0.44959 0.0
H825 H 0.70113 0.35248 0.42782 0.0
H826 H 0.72566 0.34049 0.41393 0.0
H827 H 0.75535 0.33812 0.41277 0.0
Mn828 Mn 0.63693 0.00115 0.75305 0.0
Mn829 Mn 0.62236 0.03891 0.75279 0.0
C830 C 0.65071 0.02149 0.73974 0.0
C831 C 0.65244 0.98145 0.76496 0.0
C832 C 0.60899 0.01156 0.73153 0.0
O833 O 0.62077 0.00073 0.77138 0.0
O834 O 0.6122 0.02636 0.77052 0.0
C835 C 0.63642 0.05076 0.78378 0.0
N836 N 0.63463 0.05232 0.76758 0.0
C837 C 0.65141 0.07654 0.76772 0.0
C838 C 0.65335 0.07525 0.78443 0.0
C839 C 0.64586 0.06228 0.79248 0.0
C840 C 0.64186 0.0647 0.7597 0.0
H841 H 0.63071 0.0408 0.79001 0.0
C842 C 0.61213 0.01221 0.77661 0.0
O843 O 0.64068 0.97756 0.75512 0.0
O844 O 0.65488 0.99674 0.76816 0.0
N845 N 0.63117 0.0525 0.7364 0.0
C846 C 0.62866 0.0516 0.72018 0.0
C847 C 0.63564 0.06348 0.71031 0.0
C848 C 0.64499 0.07623 0.71723 0.0
C849 C 0.64722 0.07702 0.73397 0.0
C850 C 0.63991 0.06487 0.7432 0.0
H851 H 0.62147 0.04184 0.71479 0.0
O852 O 0.653 0.00644 0.73596 0.0
O853 O 0.64049 0.02419 0.75126 0.0
O854 O 0.61851 0.00077 0.73643 0.0
O855 O 0.60935 0.02612 0.73696 0.0
C856 C 0.65658 0.08926 0.74184 0.0
C857 C 0.65874 0.08898 0.75869 0.0
H858 H 0.66065 0.08409 0.79118 0.0
H859 H 0.64736 0.06117 0.80537 0.0
H860 H 0.63386 0.06278 0.6974 0.0
H861 H 0.65046 0.0853 0.70956 0.0
H862 H 0.66234 0.09883 0.73501 0.0
H863 H 0.66618 0.09832 0.76457 0.0
Mn864 Mn 0.00296 0.25211 0.87287 0.0
Mn865 Mn 0.96488 0.24715 0.88649 0.0
C866 C 0.98404 0.23724 0.85787 0.0
C867 C 0.02245 0.26653 0.85842 0.0
C868 C 0.99326 0.229 0.89968 0.0
O869 O 0.00141 0.2699 0.89012 0.0
O870 O 0.9752 0.26662 0.8969 0.0
C871 C 0.9504 0.27632 0.87287 0.0
N872 N 0.95053 0.25993 0.87427 0.0
C873 C 0.92708 0.25656 0.85721 0.0
C874 C 0.92664 0.27341 0.85566 0.0
C875 C 0.93838 0.28332 0.86349 0.0
C876 C 0.93933 0.25028 0.86674 0.0
H877 H 0.95941 0.28398 0.87886 0.0
C878 C 0.9889 0.27417 0.89793 0.0
O879 O 0.02643 0.25675 0.86977 0.0
O880 O 0.00714 0.26839 0.85592 0.0
N881 N 0.95352 0.22884 0.87709 0.0
C882 C 0.95622 0.2128 0.87902 0.0
C883 C 0.94587 0.20123 0.87149 0.0
C884 C 0.9328 0.20627 0.86217 0.0
C885 C 0.93019 0.22284 0.86046 0.0
C886 C 0.94088 0.23381 0.86827 0.0
H887 H 0.96624 0.20885 0.88619 0.0
O888 O 0.99934 0.23511 0.85566 0.0
O889 O 0.98035 0.24794 0.86876 0.0
O890 O 0.00381 0.23477 0.89008 0.0
O891 O 0.97853 0.23318 0.89968 0.0
C892 C 0.91755 0.2289 0.85112 0.0
C893 C 0.91601 0.24575 0.84947 0.0
H894 H 0.91742 0.27886 0.84839 0.0
H895 H 0.93816 0.29633 0.86229 0.0
H896 H 0.94798 0.18846 0.87285 0.0
H897 H 0.9249 0.19731 0.8563 0.0
H898 H 0.90909 0.22071 0.84493 0.0
H899 H 0.90639 0.25026 0.84204 0.0
Mn900 Mn 0.50517 0.75223 0.37225 0.0
Mn901 Mn 0.46661 0.74819 0.3849 0.0
C902 C 0.48619 0.73841 0.35651 0.0
C903 C 0.52562 0.76611 0.35862 0.0
C904 C 0.49385 0.72849 0.39805 0.0
O905 O 0.50384 0.76971 0.38977 0.0
O906 O 0.47759 0.76658 0.39661 0.0
C907 C 0.45414 0.77875 0.37229 0.0
N908 N 0.45334 0.7623 0.37293 0.0
C909 C 0.43069 0.76096 0.35466 0.0
C910 C 0.43121 0.77789 0.35389 0.0
C911 C 0.443 0.78682 0.36272 0.0
C912 C 0.44205 0.75359 0.36447 0.0
H913 H 0.46324 0.78565 0.37899 0.0
C914 C 0.49148 0.77372 0.39792 0.0
O915 O 0.52884 0.75589 0.36982 0.0
O916 O 0.5105 0.76876 0.35581 0.0
N917 N 0.45459 0.73092 0.37439 0.0
C918 C 0.45623 0.71465 0.37584 0.0
C919 C 0.44558 0.70398 0.36745 0.0
C920 C 0.43333 0.71014 0.35774 0.0
C921 C 0.43179 0.72693 0.35656 0.0
C922 C 0.44265 0.73697 0.36532 0.0
H923 H 0.46564 0.70985 0.38326 0.0
O924 O 0.50144 0.73574 0.35465 0.0
O925 O 0.48255 0.74902 0.36753 0.0
O926 O 0.50488 0.73448 0.38911 0.0
O927 O 0.47921 0.73293 0.39766 0.0
C928 C 0.42009 0.73409 0.34681 0.0
C929 C 0.41955 0.75109 0.34584 0.0
H930 H 0.4227 0.78416 0.34644 0.0
H931 H 0.44353 0.79989 0.36211 0.0
H932 H 0.44687 0.69104 0.36841 0.0
H933 H 0.42525 0.70187 0.35117 0.0
H934 H 0.41159 0.72663 0.33982 0.0
H935 H 0.41065 0.75645 0.33813 0.0
Mn936 Mn 0.00359 0.75361 0.6258 0.0
Mn937 Mn 0.9864 0.71799 0.63689 0.0
C938 C 0.00601 0.7309 0.6095 0.0
C939 C 0.00198 0.77853 0.61323 0.0
C940 C 0.01766 0.73162 0.65137 0.0
O941 O 0.98786 0.76039 0.64324 0.0
O942 O 0.97631 0.73618 0.64877 0.0
C943 C 0.95384 0.72263 0.62318 0.0
N944 N 0.96738 0.71373 0.62426 0.0
C945 C 0.95628 0.69339 0.606 0.0
C946 C 0.94217 0.7023 0.60476 0.0
C947 C 0.94097 0.71701 0.61335 0.0
C948 C 0.96871 0.69962 0.61596 0.0
H949 H 0.95288 0.73395 0.62975 0.0
C950 C 0.97768 0.75156 0.65081 0.0
O951 O 0.01257 0.77614 0.62447 0.0
O952 O 0.99216 0.76654 0.60953 0.0
N953 N 0.99479 0.69922 0.62644 0.0
C954 C 0.00943 0.69238 0.62853 0.0
C955 C 0.01264 0.67764 0.62068 0.0
C956 C 0.00073 0.67002 0.61089 0.0
C957 C 0.98571 0.67722 0.60903 0.0
C958 C 0.98316 0.69183 0.61728 0.0
H959 H 0.01859 0.69812 0.63611 0.0
O960 O 0.01613 0.74305 0.60822 0.0
O961 O 0.99465 0.73246 0.62013 0.0
O962 O 0.0185 0.74435 0.64291 0.0
O963 O 0.00608 0.72114 0.65022 0.0
C964 C 0.97327 0.67058 0.59914 0.0
C965 C 0.95859 0.6787 0.59757 0.0
H966 H 0.93222 0.69802 0.59717 0.0
H967 H 0.93014 0.72398 0.6124 0.0
H968 H 0.02426 0.67216 0.62216 0.0
H969 H 0.00326 0.65868 0.60483 0.0
H970 H 0.97495 0.65935 0.59252 0.0
H971 H 0.94919 0.67358 0.58977 0.0
Mn972 Mn 0.50376 0.25349 0.12645 0.0
Mn973 Mn 0.48597 0.21792 0.13687 0.0
C974 C 0.50568 0.23109 0.10964 0.0
C975 C 0.50282 0.27877 0.11455 0.0
C976 C 0.5175 0.23068 0.15145 0.0
O977 O 0.48826 0.26021 0.14412 0.0
O978 O 0.47629 0.23606 0.14916 0.0
C979 C 0.45346 0.22347 0.12344 0.0
N980 N 0.46683 0.21427 0.12427 0.0
C981 C 0.45523 0.19445 0.10575 0.0
C982 C 0.44129 0.20367 0.10476 0.0
C983 C 0.44043 0.21826 0.1136 0.0
C984 C 0.46783 0.20027 0.11573 0.0
H985 H 0.45277 0.23469 0.13021 0.0
C986 C 0.47795 0.25138 0.15154 0.0
O987 O 0.51336 0.27575 0.12563 0.0
O988 O 0.49258 0.2672 0.11061 0.0
N989 N 0.49395 0.19918 0.12601 0.0
C990 C 0.50844 0.192 0.1279 0.0
C991 C 0.5113 0.17732 0.1198 0.0
C992 C 0.49919 0.17009 0.10998 0.0
C993 C 0.48433 0.17762 0.10833 0.0
C994 C 0.48211 0.19217 0.11682 0.0
H995 H 0.51776 0.19744 0.13552 0.0
O996 O 0.516 0.2431 0.10858 0.0
O997 O 0.49437 0.23262 0.12034 0.0
O998 O 0.51853 0.24354 0.14321 0.0
O999 O 0.50575 0.22041 0.15017 0.0
C1000 C 0.4717 0.17139 0.09843 0.0
C1001 C 0.45719 0.17984 0.09708 0.0
H1002 H 0.43123 0.1997 0.09718 0.0
H1003 H 0.42975 0.22547 0.11285 0.0
H1004 H 0.52281 0.17158 0.12112 0.0
H1005 H 0.50145 0.15878 0.10372 0.0
H1006 H 0.47311 0.16023 0.09162 0.0
H1007 H 0.44765 0.17504 0.08927 0.0
C1008 C 0.21959 0.75549 0.88245 0.0
C1009 C 0.20378 0.7504 0.87828 0.0
C1010 C 0.22235 0.76695 0.89475 0.0
C1011 C 0.20312 0.79955 0.91786 0.0
H1012 H 0.23838 0.79298 0.94772 0.0
C1013 C 0.21623 0.84139 0.97352 0.0
C1014 C 0.23247 0.8462 0.97557 0.0
C1015 C 0.21191 0.8294 0.96208 0.0
C1016 C 0.22856 0.79504 0.93941 0.0
H1017 H 0.17845 0.75336 0.88379 0.0
H1018 H 0.1833 0.77347 0.9053 0.0
H1019 H 0.23232 0.77273 0.92678 0.0
H1020 H 0.25705 0.84161 0.96847 0.0
H1021 H 0.24959 0.82077 0.94845 0.0
H1022 H 0.19951 0.82199 0.9305 0.0
C1023 C 0.19354 0.76867 0.89892 0.0
C1024 C 0.2251 0.78345 0.9274 0.0
C1025 C 0.19077 0.75716 0.88661 0.0
C1026 C 0.24439 0.83837 0.9667 0.0
C1027 C 0.24013 0.82633 0.95541 0.0
C1028 C 0.2066 0.81118 0.92991 0.0
C1029 C 0.20937 0.77362 0.90318 0.0
C1030 C 0.21247 0.78565 0.91637 0.0
C1031 C 0.22384 0.82177 0.9529 0.0
C1032 C 0.21947 0.8091 0.94069 0.0
H1033 H 0.22987 0.75077 0.87607 0.0
H1034 H 0.23468 0.77074 0.89753 0.0
H1035 H 0.19341 0.80166 0.90944 0.0
H1036 H 0.20691 0.84708 0.98057 0.0
H1037 H 0.19928 0.82597 0.96055 0.0
C1038 C 0.03934 0.52495 0.40031 0.0
C1039 C 0.02733 0.51349 0.4047 0.0
C1040 C 0.04875 0.52249 0.38662 0.0
C1041 C 0.04761 0.50421 0.34699 0.0
H1042 H 0.09438 0.50823 0.34845 0.0
C1043 C 0.08827 0.51826 0.29224 0.0
C1044 C 0.10159 0.50832 0.28986 0.0
C1045 C 0.07879 0.51679 0.30603 0.0
C1046 C 0.08134 0.50695 0.34791 0.0
H1047 H 0.01623 0.49018 0.39808 0.0
H1048 H 0.03219 0.48637 0.37374 0.0
H1049 H 0.07891 0.50976 0.37351 0.0
H1050 H 0.11534 0.48894 0.29999 0.0
H1051 H 0.09896 0.48672 0.3244 0.0
H1052 H 0.05001 0.50209 0.32132 0.0
C1053 C 0.03429 0.49718 0.38109 0.0
C1054 C 0.07252 0.50791 0.36219 0.0
C1055 C 0.02508 0.49946 0.39498 0.0
C1056 C 0.10509 0.4967 0.30146 0.0
C1057 C 0.0958 0.49547 0.31543 0.0
C1058 C 0.05642 0.50358 0.33268 0.0
C1059 C 0.04619 0.50869 0.3768 0.0
C1060 C 0.05558 0.50665 0.36183 0.0
C1061 C 0.08263 0.50557 0.31786 0.0
C1062 C 0.07335 0.50505 0.33302 0.0
H1063 H 0.04126 0.53607 0.40721 0.0
H1064 H 0.05773 0.53164 0.38343 0.0
H1065 H 0.03455 0.50331 0.34642 0.0
H1066 H 0.08525 0.52729 0.28349 0.0
H1067 H 0.06875 0.52477 0.30769 0.0
C1068 C 0.80408 0.74905 0.87516 0.0
C1069 C 0.80991 0.76422 0.88078 0.0
C1070 C 0.79945 0.7371 0.886 0.0
C1071 C 0.80526 0.72121 0.9256 0.0
H1072 H 0.76082 0.70567 0.92188 0.0
C1073 C 0.77612 0.67555 0.97033 0.0
C1074 C 0.76401 0.66491 0.96423 0.0
C1075 C 0.78279 0.68767 0.9606 0.0
C1076 C 0.77336 0.70959 0.92294 0.0
H1077 H 0.81594 0.77872 0.90204 0.0
H1078 H 0.80818 0.75748 0.92114 0.0
H1079 H 0.77078 0.72665 0.90405 0.0
H1080 H 0.75013 0.65787 0.94295 0.0
H1081 H 0.76231 0.67818 0.9258 0.0
H1082 H 0.80809 0.70372 0.94407 0.0
C1083 C 0.80709 0.755 0.90833 0.0
C1084 C 0.77898 0.72174 0.91279 0.0
C1085 C 0.81143 0.76711 0.89745 0.0
C1086 C 0.75929 0.66604 0.94805 0.0
C1087 C 0.76618 0.67785 0.93826 0.0
C1088 C 0.79972 0.70878 0.93559 0.0
C1089 C 0.80085 0.74 0.90266 0.0
C1090 C 0.79498 0.72758 0.91396 0.0
C1091 C 0.77767 0.68916 0.94449 0.0
C1092 C 0.7837 0.70269 0.93428 0.0
H1093 H 0.80268 0.74658 0.86237 0.0
H1094 H 0.79467 0.7256 0.88139 0.0
H1095 H 0.81768 0.72555 0.92664 0.0
H1096 H 0.77991 0.67497 0.98281 0.0
H1097 H 0.79153 0.6962 0.96588 0.0
C1098 C 0.97164 0.99344 0.40553 0.0
C1099 C 0.9862 0.98525 0.40405 0.0
C1100 C 0.96228 0.99648 0.3919 0.0
C1101 C 0.96432 0.99675 0.34689 0.0
H1102 H 0.91761 0.99467 0.34996 0.0
C1103 C 0.92121 0.9865 0.29271 0.0
C1104 C 0.908 0.99674 0.29152 0.0
C1105 C 0.93122 0.98718 0.30628 0.0
C1106 C 0.93065 0.99548 0.34899 0.0
H1107 H 0.00222 0.97345 0.38731 0.0
H1108 H 0.98566 0.97809 0.36363 0.0
H1109 H 0.93398 0.99129 0.37409 0.0
H1110 H 0.89499 0.01584 0.30354 0.0
H1111 H 0.91233 0.01671 0.3276 0.0
H1112 H 0.96083 1.0001 0.32158 0.0
C1113 C 0.98167 0.98276 0.37516 0.0
C1114 C 0.94006 0.9936 0.36282 0.0
C1115 C 0.99114 0.97998 0.38874 0.0
C1116 C 0.90514 0.00787 0.3041 0.0
C1117 C 0.91498 0.00831 0.31787 0.0
C1118 C 0.95489 0.99834 0.33304 0.0
C1119 C 0.96714 0.99114 0.37651 0.0
C1120 C 0.95705 0.99402 0.36194 0.0
C1121 C 0.92804 0.9979 0.3191 0.0
C1122 C 0.93799 0.99758 0.33394 0.0
H1123 H 0.96766 0.99776 0.4172 0.0
H1124 H 0.95133 0.00318 0.39343 0.0
H1125 H 0.97732 0.99758 0.34574 0.0
H1126 H 0.92374 0.97783 0.28318 0.0
H1127 H 0.94115 0.97895 0.30699 0.0
C1128 C 0.21272 0.2614 0.61662 0.0
C1129 C 0.19727 0.26168 0.62357 0.0
C1130 C 0.21636 0.24986 0.60482 0.0
C1131 C 0.19732 0.22064 0.57556 0.0
H1132 H 0.24015 0.20284 0.57506 0.0
C1133 C 0.21919 0.18045 0.5229 0.0
C1134 C 0.22926 0.16755 0.52649 0.0
C1135 C 0.21513 0.19175 0.53482 0.0
C1136 C 0.22807 0.20753 0.57511 0.0
H1137 H 0.1735 0.25 0.62335 0.0
H1138 H 0.18004 0.22948 0.60321 0.0
H1139 H 0.2332 0.22237 0.5959 0.0
H1140 H 0.24273 0.1563 0.54557 0.0
H1141 H 0.23533 0.17572 0.56641 0.0
H1142 H 0.19202 0.20534 0.55509 0.0
C1143 C 0.18927 0.23841 0.60668 0.0
C1144 C 0.22415 0.21895 0.58695 0.0
C1145 C 0.18557 0.25006 0.61841 0.0
C1146 C 0.23507 0.16616 0.54233 0.0
C1147 C 0.23088 0.17737 0.55428 0.0
C1148 C 0.2012 0.20911 0.56379 0.0
C1149 C 0.20472 0.23815 0.59974 0.0
C1150 C 0.20875 0.22573 0.58729 0.0
C1151 C 0.2209 0.19035 0.55068 0.0
C1152 C 0.21665 0.20245 0.56336 0.0
H1153 H 0.22213 0.26998 0.62044 0.0
H1154 H 0.22832 0.25021 0.5996 0.0
H1155 H 0.18541 0.22571 0.57532 0.0
H1156 H 0.21456 0.18195 0.51081 0.0
H1157 H 0.20765 0.20172 0.53151 0.0
C1158 C 0.47611 0.53489 0.61245 0.0
C1159 C 0.49131 0.52778 0.61094 0.0
C1160 C 0.46643 0.53189 0.62588 0.0
C1161 C 0.45828 0.5021 0.65684 0.0
H1162 H 0.43968 0.53758 0.68089 0.0
C1163 C 0.42399 0.4909 0.71588 0.0
C1164 C 0.41034 0.50014 0.71908 0.0
C1165 C 0.43425 0.49479 0.70314 0.0
C1166 C 0.44457 0.5275 0.6742 0.0
H1167 H 0.50823 0.5121 0.62268 0.0
H1168 H 0.49105 0.50647 0.64576 0.0
H1169 H 0.45647 0.54324 0.65747 0.0
H1170 H 0.3968 0.52077 0.71143 0.0
H1171 H 0.41435 0.52723 0.68887 0.0
H1172 H 0.44607 0.48628 0.67309 0.0
C1173 C 0.4867 0.51436 0.6365 0.0
C1174 C 0.45424 0.53077 0.66082 0.0
C1175 C 0.4965 0.51753 0.6232 0.0
C1176 C 0.40729 0.51348 0.70936 0.0
C1177 C 0.41742 0.51723 0.69645 0.0
C1178 C 0.44843 0.4988 0.67006 0.0
C1179 C 0.47161 0.52154 0.63798 0.0
C1180 C 0.46124 0.51811 0.65207 0.0
C1181 C 0.43099 0.50786 0.69308 0.0
C1182 C 0.44149 0.51145 0.67898 0.0
H1183 H 0.47155 0.5426 0.60316 0.0
H1184 H 0.45475 0.53743 0.62666 0.0
H1185 H 0.46337 0.4921 0.65017 0.0
H1186 H 0.42677 0.48063 0.72324 0.0
H1187 H 0.44476 0.48751 0.7012 0.0
C1188 C 0.80218 0.2663 0.63458 0.0
C1189 C 0.80589 0.25074 0.62891 0.0
C1190 C 0.79866 0.27853 0.62378 0.0
C1191 C 0.78614 0.2844 0.58131 0.0
H1192 H 0.79893 0.32914 0.59027 0.0
C1193 C 0.7799 0.3336 0.53398 0.0
C1194 C 0.77176 0.3475 0.53898 0.0
C1195 C 0.78513 0.32251 0.54523 0.0
C1196 C 0.79523 0.3167 0.58768 0.0
H1197 H 0.80936 0.23588 0.60756 0.0
H1198 H 0.80371 0.25727 0.58867 0.0
H1199 H 0.80616 0.3082 0.60925 0.0
H1200 H 0.76339 0.36107 0.55976 0.0
H1201 H 0.77279 0.3417 0.57951 0.0
H1202 H 0.77549 0.29289 0.55962 0.0
C1203 C 0.803 0.25998 0.60144 0.0
C1204 C 0.7993 0.3047 0.59856 0.0
C1205 C 0.80631 0.24771 0.61224 0.0
C1206 C 0.76961 0.35045 0.55555 0.0
C1207 C 0.77501 0.33941 0.56684 0.0
C1208 C 0.78227 0.29635 0.57038 0.0
C1209 C 0.79897 0.27552 0.60706 0.0
C1210 C 0.7948 0.28838 0.59551 0.0
C1211 C 0.78249 0.32515 0.56174 0.0
C1212 C 0.78678 0.31261 0.57344 0.0
H1213 H 0.80163 0.26891 0.64739 0.0
H1214 H 0.79537 0.29024 0.62858 0.0
H1215 H 0.78211 0.27206 0.5787 0.0
H1216 H 0.78179 0.33098 0.52132 0.0
H1217 H 0.79105 0.31173 0.54099 0.0
C1218 C 0.5192 0.99911 0.6149 0.0
C1219 C 0.51602 0.98354 0.60836 0.0
C1220 C 0.52842 0.00122 0.62894 0.0
C1221 C 0.55935 0.98191 0.65322 0.0
H1222 H 0.54603 0.01212 0.68649 0.0
C1223 C 0.59525 0.99123 0.71278 0.0
C1224 C 0.59724 0.00728 0.7185 0.0
C1225 C 0.58456 0.98745 0.70008 0.0
C1226 C 0.55001 0.00375 0.67725 0.0
H1227 H 0.51989 0.95794 0.61171 0.0
H1228 H 0.53624 0.96169 0.63607 0.0
H1229 H 0.52897 0.00733 0.6628 0.0
H1230 H 0.58945 0.03191 0.71528 0.0
H1231 H 0.57119 0.02537 0.69308 0.0
H1232 H 0.58057 0.9786 0.66744 0.0
C1233 C 0.53165 0.97225 0.63022 0.0
C1234 C 0.54022 0.001 0.6637 0.0
C1235 C 0.52232 0.97013 0.61624 0.0
C1236 C 0.58818 0.01939 0.7113 0.0
C1237 C 0.5776 0.01562 0.69858 0.0
C1238 C 0.56921 0.98475 0.66674 0.0
C1239 C 0.53479 0.98782 0.63673 0.0
C1240 C 0.54485 0.99016 0.65146 0.0
C1241 C 0.57568 0.99962 0.69276 0.0
C1242 C 0.56475 0.99584 0.67885 0.0
H1243 H 0.51481 0.00974 0.60902 0.0
H1244 H 0.53085 0.01339 0.63354 0.0
H1245 H 0.56331 0.97361 0.64391 0.0
H1246 H 0.60197 0.98157 0.71807 0.0
H1247 H 0.58323 0.97496 0.69603 0.0
C1248 C 0.89201 0.18643 0.75046 0.0
C1249 C 0.8837 0.19919 0.74345 0.0
C1250 C 0.90297 0.18948 0.76308 0.0
C1251 C 0.91288 0.21993 0.79482 0.0
H1252 H 0.95431 0.19927 0.79653 0.0
C1253 C 0.96302 0.24296 0.83766 0.0
C1254 C 0.97237 0.2316 0.84552 0.0
C1255 C 0.95218 0.23805 0.82556 0.0
C1256 C 0.94269 0.20496 0.79635 0.0
H1257 H 0.88044 0.22514 0.74423 0.0
H1258 H 0.89977 0.23048 0.76591 0.0
H1259 H 0.93547 0.19243 0.77457 0.0
H1260 H 0.97862 0.2064 0.8464 0.0
H1261 H 0.95925 0.19757 0.82535 0.0
H1262 H 0.92008 0.23266 0.81632 0.0
C1263 C 0.89768 0.21809 0.7618 0.0
C1264 C 0.93191 0.20106 0.78377 0.0
C1265 C 0.88676 0.21505 0.74921 0.0
C1266 C 0.97124 0.21529 0.84066 0.0
C1267 C 0.96026 0.2103 0.82857 0.0
C1268 C 0.92363 0.22385 0.80733 0.0
C1269 C 0.9058 0.20534 0.76899 0.0
C1270 C 0.91698 0.20869 0.78275 0.0
C1271 C 0.95052 0.22164 0.82097 0.0
C1272 C 0.93875 0.21658 0.80816 0.0
H1273 H 0.89003 0.17408 0.74619 0.0
H1274 H 0.90899 0.17939 0.76842 0.0
H1275 H 0.90132 0.22577 0.7946 0.0
H1276 H 0.96416 0.25571 0.84085 0.0
H1277 H 0.94521 0.24717 0.81969 0.0
C1278 C 0.48872 0.9042 0.47061 0.0
C1279 C 0.48139 0.90316 0.48579 0.0
C1280 C 0.49092 0.89022 0.4612 0.0
C1281 C 0.47389 0.84985 0.45377 0.0
H1282 H 0.51571 0.83912 0.4364 0.0
C1283 C 0.48283 0.78846 0.4227 0.0
C1284 C 0.49277 0.78781 0.40908 0.0
C1285 C 0.4826 0.80237 0.43242 0.0
C1286 C 0.50389 0.84203 0.44095 0.0
H1287 H 0.47042 0.88685 0.50299 0.0
H1288 H 0.47391 0.86248 0.48639 0.0
H1289 H 0.51278 0.86415 0.45212 0.0
H1290 H 0.51059 0.80105 0.39514 0.0
H1291 H 0.50978 0.82567 0.41177 0.0
H1292 H 0.46472 0.82823 0.44229 0.0
C1293 C 0.47811 0.87406 0.48185 0.0
C1294 C 0.50226 0.85633 0.44999 0.0
C1295 C 0.47618 0.88796 0.49136 0.0
C1296 C 0.50289 0.8012 0.40564 0.0
C1297 C 0.50243 0.81529 0.41522 0.0
C1298 C 0.47544 0.83573 0.44454 0.0
C1299 C 0.48552 0.87505 0.46671 0.0
C1300 C 0.48727 0.86026 0.45662 0.0
C1301 C 0.49204 0.81616 0.42858 0.0
C1302 C 0.4905 0.83148 0.43815 0.0
H1303 H 0.49291 0.91578 0.46611 0.0
H1304 H 0.49658 0.89129 0.44953 0.0
H1305 H 0.46214 0.85274 0.45856 0.0
H1306 H 0.47505 0.77823 0.42576 0.0
H1307 H 0.47483 0.80233 0.44287 0.0
C1308 C 0.1195 0.31782 0.75809 0.0
C1309 C 0.12555 0.30499 0.74876 0.0
C1310 C 0.10871 0.31482 0.77065 0.0
C1311 C 0.09412 0.28206 0.79739 0.0
H1312 H 0.05875 0.31087 0.80535 0.0
C1313 C 0.05127 0.27222 0.8509 0.0
C1314 C 0.03473 0.27397 0.84779 0.0
C1315 C 0.06281 0.27758 0.83983 0.0
C1316 C 0.06851 0.30265 0.80325 0.0
H1317 H 0.12489 0.27889 0.74541 0.0
H1318 H 0.10567 0.27371 0.76689 0.0
H1319 H 0.07748 0.31647 0.7835 0.0
H1320 H 0.01734 0.28321 0.83089 0.0
H1321 H 0.03738 0.29223 0.81146 0.0
H1322 H 0.08479 0.26785 0.81665 0.0
C1323 C 0.10951 0.2861 0.76471 0.0
C1324 C 0.07938 0.30597 0.79082 0.0
C1325 C 0.12036 0.28909 0.75221 0.0
C1326 C 0.03 0.28174 0.83368 0.0
C1327 C 0.04153 0.28698 0.82255 0.0
C1328 C 0.08321 0.27869 0.80973 0.0
C1329 C 0.10362 0.29891 0.77417 0.0
C1330 C 0.09226 0.29565 0.78766 0.0
C1331 C 0.05807 0.28469 0.82533 0.0
C1332 C 0.07019 0.28887 0.81277 0.0
H1333 H 0.12304 0.33024 0.75565 0.0
H1334 H 0.10456 0.32497 0.77776 0.0
H1335 H 0.10404 0.27398 0.79548 0.0
H1336 H 0.05529 0.26638 0.86173 0.0
H1337 H 0.07545 0.27593 0.84254 0.0
C1338 C 0.53543 0.61288 0.47797 0.0
C1339 C 0.52774 0.61143 0.49299 0.0
C1340 C 0.53216 0.62581 0.46792 0.0
C1341 C 0.50105 0.65445 0.45827 0.0
H1342 H 0.53585 0.68032 0.43991 0.0
C1343 C 0.48824 0.71188 0.42247 0.0
C1344 C 0.49814 0.71551 0.40925 0.0
C1345 C 0.49214 0.69946 0.4329 0.0
C1346 C 0.52596 0.67309 0.4447 0.0
H1347 H 0.51082 0.62283 0.50926 0.0
H1348 H 0.50475 0.645 0.49142 0.0
H1349 H 0.54212 0.6579 0.4574 0.0
H1350 H 0.51982 0.7088 0.39651 0.0
H1351 H 0.52631 0.68679 0.4143 0.0
H1352 H 0.48485 0.66915 0.44527 0.0
C1353 C 0.51328 0.63607 0.4875 0.0
C1354 C 0.52959 0.66029 0.45479 0.0
C1355 C 0.51672 0.62329 0.49766 0.0
C1356 C 0.51202 0.70642 0.40668 0.0
C1357 C 0.51579 0.69383 0.41696 0.0
C1358 C 0.49741 0.66707 0.44799 0.0
C1359 C 0.52097 0.63744 0.47254 0.0
C1360 C 0.51717 0.65091 0.46172 0.0
C1361 C 0.5059 0.69016 0.43022 0.0
C1362 C 0.50981 0.67663 0.44112 0.0
H1363 H 0.54376 0.60387 0.4738 0.0
H1364 H 0.53813 0.62652 0.45636 0.0
H1365 H 0.49125 0.64725 0.46331 0.0
H1366 H 0.47753 0.71875 0.42487 0.0
H1367 H 0.4844 0.69727 0.44314 0.0
C1368 C 0.89043 0.81851 0.75072 0.0
C1369 C 0.88201 0.80674 0.75967 0.0
C1370 C 0.90147 0.8139 0.73887 0.0
C1371 C 0.92624 0.77923 0.7266 0.0
H1372 H 0.92797 0.79978 0.68498 0.0
C1373 C 0.95685 0.74959 0.67248 0.0
C1374 C 0.96702 0.75926 0.66286 0.0
C1375 C 0.94717 0.75658 0.68424 0.0
C1376 C 0.92775 0.79407 0.69662 0.0
H1377 H 0.87804 0.78093 0.76269 0.0
H1378 H 0.89712 0.77293 0.74211 0.0
H1379 H 0.90968 0.8099 0.7057 0.0
H1380 H 0.97466 0.78401 0.65792 0.0
H1381 H 0.95759 0.79623 0.67854 0.0
H1382 H 0.94402 0.76324 0.7175 0.0
C1383 C 0.89557 0.78572 0.74448 0.0
C1384 C 0.9173 0.79986 0.70849 0.0
C1385 C 0.88461 0.79031 0.75629 0.0
C1386 C 0.96702 0.77618 0.66514 0.0
C1387 C 0.95721 0.7832 0.67689 0.0
C1388 C 0.93659 0.77343 0.71477 0.0
C1389 C 0.90427 0.79744 0.73575 0.0
C1390 C 0.91622 0.79229 0.72351 0.0
C1391 C 0.94733 0.77343 0.68668 0.0
C1392 C 0.93725 0.78058 0.69955 0.0
H1393 H 0.88873 0.83127 0.75311 0.0
H1394 H 0.90804 0.82322 0.7324 0.0
H1395 H 0.926 0.77337 0.73817 0.0
H1396 H 0.95642 0.73654 0.67106 0.0
H1397 H 0.93948 0.74876 0.69141 0.0
C1398 C 0.00538 0.89335 0.52144 0.0
C1399 C 0.01507 0.90657 0.5269 0.0
C1400 C 0.00241 0.88007 0.53131 0.0
C1401 C 0.00505 0.86655 0.57383 0.0
H1402 H 0.00547 0.82387 0.55376 0.0
C1403 C 0.01149 0.80724 0.60934 0.0
C1404 C 0.00162 0.79394 0.60446 0.0
C1405 C 0.01182 0.82146 0.60043 0.0
C1406 C 0.00514 0.83571 0.55952 0.0
H1407 H 0.02873 0.91636 0.54736 0.0
H1408 H 0.0241 0.89301 0.56429 0.0
H1409 H 0.00848 0.84774 0.53717 0.0
H1410 H 0.98412 0.78524 0.58661 0.0
H1411 H 0.9848 0.81001 0.57102 0.0
H1412 H 0.00218 0.85435 0.59627 0.0
C1413 C 0.01857 0.89297 0.55245 0.0
C1414 C 0.00681 0.84942 0.55001 0.0
C1415 C 0.02143 0.9063 0.54263 0.0
C1416 C 0.99187 0.79526 0.59068 0.0
C1417 C 0.99232 0.80941 0.5817 0.0
C1418 C 0.00353 0.8528 0.58337 0.0
C1419 C 0.00915 0.87961 0.54687 0.0
C1420 C 0.00683 0.86504 0.55703 0.0
C1421 C 0.00242 0.8226 0.58638 0.0
C1422 C 0.00359 0.83725 0.57631 0.0
H1423 H 0.00039 0.89303 0.50936 0.0
H1424 H 0.99488 0.87013 0.52668 0.0
H1425 H 0.00475 0.87836 0.57965 0.0
H1426 H 0.01913 0.80659 0.61992 0.0
H1427 H 0.01981 0.83138 0.60427 0.0
C1428 C 0.11978 0.69218 0.7499 0.0
C1429 C 0.13062 0.70464 0.75491 0.0
C1430 C 0.1078 0.69509 0.73847 0.0
C1431 C 0.08552 0.72848 0.72002 0.0
H1432 H 0.07395 0.69577 0.68768 0.0
C1433 C 0.04269 0.74069 0.6666 0.0
C1434 C 0.03082 0.72866 0.66306 0.0
C1435 C 0.05505 0.73782 0.67765 0.0
C1436 C 0.07697 0.70497 0.69672 0.0
H1437 H 0.1377 0.72979 0.75153 0.0
H1438 H 0.11697 0.73481 0.73146 0.0
H1439 H 0.09527 0.69059 0.70713 0.0
H1440 H 0.02275 0.70411 0.66835 0.0
H1441 H 0.04428 0.69917 0.68755 0.0
H1442 H 0.06729 0.7429 0.70948 0.0
C1443 C 0.11744 0.72289 0.73662 0.0
C1444 C 0.08916 0.70199 0.7079 0.0
C1445 C 0.12935 0.72001 0.7481 0.0
C1446 C 0.03166 0.71368 0.67078 0.0
C1447 C 0.04406 0.71079 0.68172 0.0
C1448 C 0.0734 0.73149 0.70878 0.0
C1449 C 0.10645 0.7105 0.73172 0.0
C1450 C 0.09356 0.71369 0.71972 0.0
C1451 C 0.05588 0.72283 0.6853 0.0
C1452 C 0.06896 0.71975 0.69705 0.0
H1453 H 0.12035 0.68026 0.75506 0.0
H1454 H 0.09939 0.68532 0.73516 0.0
H1455 H 0.0884 0.73766 0.72912 0.0
H1456 H 0.04244 0.75237 0.66089 0.0
H1457 H 0.06407 0.74729 0.68006 0.0
C1458 C 0.00706 0.60954 0.5225 0.0
C1459 C 0.99154 0.60541 0.51656 0.0
C1460 C 0.00982 0.6239 0.53133 0.0
C1461 C 0.99267 0.66405 0.53963 0.0
H1462 H 0.01848 0.6629 0.57863 0.0
C1463 C 0.99169 0.71437 0.58839 0.0
C1464 C 0.0058 0.71783 0.59731 0.0
C1465 C 0.99121 0.70171 0.57706 0.0
C1466 C 0.01143 0.66352 0.56766 0.0
H1467 H 0.96684 0.61332 0.51495 0.0
H1468 H 0.97159 0.63823 0.53057 0.0
H1469 H 0.01506 0.63855 0.56195 0.0
H1470 H 0.03093 0.71211 0.60039 0.0
H1471 H 0.03019 0.68982 0.58055 0.0
H1472 H 0.98887 0.68896 0.54544 0.0
C1473 C 0.98166 0.63042 0.5283 0.0
C1474 C 0.00947 0.64953 0.55809 0.0
C1475 C 0.97889 0.61605 0.51952 0.0
C1476 C 0.01979 0.70927 0.59393 0.0
C1477 C 0.01932 0.69652 0.58264 0.0
C1478 C 0.99463 0.67803 0.5492 0.0
C1479 C 0.99714 0.6345 0.53436 0.0
C1480 C 0.99992 0.64959 0.54407 0.0
C1481 C 0.00491 0.69237 0.57431 0.0
C1482 C 0.00386 0.67789 0.56345 0.0
H1483 H 0.01703 0.60154 0.52053 0.0
H1484 H 0.02191 0.62676 0.53571 0.0
H1485 H 0.98547 0.66456 0.52874 0.0
H1486 H 0.98092 0.72125 0.59046 0.0
H1487 H 0.97989 0.69884 0.57096 0.0
C1488 C 0.75211 0.89252 0.19 0.0
C1489 C 0.74436 0.88386 0.20232 0.0
C1490 C 0.76386 0.90449 0.19371 0.0
C1491 C 0.77834 0.93136 0.22705 0.0
H1492 H 0.81791 0.9342 0.20236 0.0
C1493 C 0.83405 0.96865 0.24882 0.0
C1494 C 0.84274 0.97752 0.23736 0.0
C1495 C 0.82166 0.95787 0.244 0.0
C1496 C 0.80683 0.93368 0.20923 0.0
H1497 H 0.74316 0.88075 0.22818 0.0
H1498 H 0.76357 0.90158 0.23464 0.0
H1499 H 0.79703 0.91399 0.19486 0.0
H1500 H 0.84475 0.98314 0.2121 0.0
H1501 H 0.82306 0.96404 0.2035 0.0
H1502 H 0.78817 0.95091 0.24151 0.0
C1503 C 0.76037 0.89935 0.22212 0.0
C1504 C 0.79488 0.92212 0.20494 0.0
C1505 C 0.74865 0.88741 0.21841 0.0
C1506 C 0.83841 0.97606 0.22106 0.0
C1507 C 0.82608 0.96514 0.21618 0.0
C1508 C 0.79027 0.94288 0.23134 0.0
C1509 C 0.76809 0.90806 0.20983 0.0
C1510 C 0.78055 0.92074 0.2139 0.0
C1511 C 0.81763 0.95587 0.22761 0.0
C1512 C 0.8047 0.94408 0.22256 0.0
H1513 H 0.74896 0.89019 0.17749 0.0
H1514 H 0.76946 0.91111 0.18398 0.0
H1515 H 0.76732 0.93082 0.23402 0.0
H1516 H 0.83691 0.97001 0.26153 0.0
H1517 H 0.81545 0.95085 0.25309 0.0
C1518 C 0.76255 0.13668 0.29218 0.0
C1519 C 0.75147 0.13396 0.30464 0.0
C1520 C 0.77517 0.12609 0.28955 0.0
C1521 C 0.79778 0.09289 0.30855 0.0
H1522 H 0.80995 0.08378 0.26435 0.0
C1523 C 0.83677 0.039 0.28778 0.0
C1524 C 0.84855 0.04228 0.27607 0.0
C1525 C 0.82612 0.05098 0.29265 0.0
C1526 C 0.80681 0.08635 0.27677 0.0
H1527 H 0.74483 0.11806 0.32412 0.0
H1528 H 0.76655 0.09921 0.31925 0.0
H1529 H 0.78868 0.10277 0.26987 0.0
H1530 H 0.85886 0.06086 0.26077 0.0
H1531 H 0.84017 0.08167 0.26916 0.0
H1532 H 0.81565 0.07589 0.31527 0.0
C1533 C 0.7658 0.10975 0.31174 0.0
C1534 C 0.79464 0.09728 0.27996 0.0
C1535 C 0.75329 0.12048 0.31449 0.0
C1536 C 0.8499 0.05794 0.2698 0.0
C1537 C 0.83915 0.06983 0.27453 0.0
C1538 C 0.80984 0.08177 0.30531 0.0
C1539 C 0.77688 0.11238 0.29918 0.0
C1540 C 0.78996 0.10075 0.29589 0.0
C1541 C 0.82695 0.06638 0.28575 0.0
C1542 C 0.8145 0.07844 0.28939 0.0
H1543 H 0.76157 0.14713 0.28457 0.0
H1544 H 0.78365 0.12875 0.28002 0.0
H1545 H 0.79469 0.09542 0.32097 0.0
H1546 H 0.83545 0.02705 0.29285 0.0
H1547 H 0.81679 0.04797 0.30127 0.0
C1548 C 0.40009 0.97147 0.97756 0.0
C1549 C 0.40515 0.98401 0.98826 0.0
C1550 C 0.38606 0.96227 0.98053 0.0
C1551 C 0.34687 0.9643 0.99938 0.0
H1552 H 0.34666 0.91738 0.99679 0.0
C1553 C 0.28998 0.92373 0.98795 0.0
C1554 C 0.2878 0.91015 0.99776 0.0
C1555 C 0.30411 0.93328 0.98906 0.0
C1556 C 0.34658 0.93047 0.9977 0.0
H1557 H 0.39936 0.99638 0.01073 0.0
H1558 H 0.3745 0.98073 0.01545 0.0
H1559 H 0.37217 0.93277 0.99418 0.0
H1560 H 0.29861 0.89607 0.01657 0.0
H1561 H 0.32359 0.91261 0.01819 0.0
H1562 H 0.3212 0.96201 0.00227 0.0
C1563 C 0.38154 0.97805 0.00482 0.0
C1564 C 0.36112 0.93925 0.99609 0.0
C1565 C 0.39574 0.98708 0.00202 0.0
C1566 C 0.29992 0.90651 0.00893 0.0
C1567 C 0.31422 0.91589 0.0098 0.0
C1568 C 0.33229 0.95553 0.00068 0.0
C1569 C 0.3766 0.96557 0.99411 0.0
C1570 C 0.36137 0.95624 0.99679 0.0
C1571 C 0.31648 0.92927 0.99977 0.0
C1572 C 0.33201 0.93854 0.99973 0.0
H1573 H 0.40677 0.96892 0.96668 0.0
H1574 H 0.38237 0.95283 0.97198 0.0
H1575 H 0.34675 0.9774 0.99987 0.0
H1576 H 0.28083 0.92687 0.97927 0.0
H1577 H 0.30562 0.94347 0.98112 0.0
C1578 C 0.25508 0.38919 0.3149 0.0
C1579 C 0.25797 0.37558 0.30509 0.0
C1580 C 0.24239 0.39939 0.31136 0.0
C1581 C 0.21517 0.41025 0.27772 0.0
H1582 H 0.19164 0.43193 0.3117 0.0
C1583 C 0.16009 0.44913 0.26443 0.0
C1584 C 0.16083 0.46476 0.27135 0.0
C1585 C 0.17076 0.43737 0.26943 0.0
C1586 C 0.19814 0.42597 0.3021 0.0
H1587 H 0.24953 0.36162 0.28427 0.0
H1588 H 0.22711 0.37908 0.27833 0.0
H1589 H 0.21253 0.41292 0.31866 0.0
H1590 H 0.1728 0.48011 0.28943 0.0
H1591 H 0.19128 0.45947 0.29831 0.0
H1592 H 0.20062 0.42319 0.26119 0.0
C1593 C 0.23491 0.38224 0.28846 0.0
C1594 C 0.21018 0.41514 0.30606 0.0
C1595 C 0.24772 0.37218 0.29188 0.0
C1596 C 0.17197 0.46818 0.28385 0.0
C1597 C 0.1825 0.45636 0.28898 0.0
C1598 C 0.20302 0.4209 0.27378 0.0
C1599 C 0.23216 0.3961 0.29804 0.0
C1600 C 0.21894 0.40723 0.29392 0.0
C1601 C 0.18222 0.44094 0.28159 0.0
C1602 C 0.19446 0.42896 0.28591 0.0
H1603 H 0.26289 0.39215 0.32508 0.0
H1604 H 0.24084 0.41007 0.31887 0.0
H1605 H 0.22184 0.40468 0.26802 0.0
H1606 H 0.15164 0.44613 0.25478 0.0
H1607 H 0.17019 0.42553 0.26363 0.0
C1608 C 0.1219 0.01615 0.47056 0.0
C1609 C 0.11047 0.01498 0.48295 0.0
C1610 C 0.13597 0.02569 0.47264 0.0
C1611 C 0.16176 0.04626 0.50393 0.0
H1612 H 0.17636 0.07203 0.46802 0.0
C1613 C 0.20912 0.09832 0.5118 0.0
C1614 C 0.21972 0.1014 0.49907 0.0
C1615 C 0.19644 0.08694 0.50988 0.0
C1616 C 0.17255 0.06489 0.47817 0.0
H1617 H 0.10478 0.0229 0.50723 0.0
H1618 H 0.12918 0.03973 0.51081 0.0
H1619 H 0.15294 0.05404 0.46471 0.0
H1620 H 0.22656 0.09417 0.47495 0.0
H1621 H 0.20464 0.07401 0.4716 0.0
H1622 H 0.18127 0.0573 0.51744 0.0
C1623 C 0.12748 0.03303 0.49959 0.0
C1624 C 0.15912 0.05446 0.47623 0.0
C1625 C 0.11347 0.02341 0.49754 0.0
C1626 C 0.2181 0.09234 0.48472 0.0
C1627 C 0.20556 0.08082 0.48283 0.0
C1628 C 0.17514 0.05678 0.5059 0.0
C1629 C 0.13887 0.03436 0.48713 0.0
C1630 C 0.15349 0.04507 0.48911 0.0
C1631 C 0.19443 0.0781 0.49532 0.0
C1632 C 0.18061 0.06637 0.49308 0.0
H1633 H 0.12003 0.0096 0.45927 0.0
H1634 H 0.1446 0.02619 0.4629 0.0
H1635 H 0.15796 0.03896 0.51401 0.0
H1636 H 0.21039 0.10501 0.52308 0.0
H1637 H 0.18803 0.08532 0.5197 0.0
C1638 C 0.75136 0.11799 0.6854 0.0
C1639 C 0.76021 0.12605 0.69776 0.0
C1640 C 0.73892 0.10691 0.68909 0.0
C1641 C 0.71109 0.09562 0.72189 0.0
H1642 H 0.7072 0.05437 0.69912 0.0
C1643 C 0.67093 0.04353 0.74532 0.0
C1644 C 0.66212 0.03401 0.73408 0.0
C1645 C 0.68236 0.05499 0.74019 0.0
C1646 C 0.70796 0.06593 0.70544 0.0
H1647 H 0.76277 0.12893 0.72366 0.0
H1648 H 0.74132 0.10945 0.73008 0.0
H1649 H 0.72808 0.07405 0.69131 0.0
H1650 H 0.65886 0.02812 0.70879 0.0
H1651 H 0.6786 0.04853 0.69963 0.0
H1652 H 0.69119 0.08751 0.73616 0.0
C1653 C 0.74389 0.11177 0.71754 0.0
C1654 C 0.71994 0.0772 0.70097 0.0
C1655 C 0.75633 0.12279 0.71386 0.0
C1656 C 0.66533 0.03562 0.71762 0.0
C1657 C 0.67669 0.0472 0.71243 0.0
C1658 C 0.69914 0.08438 0.72635 0.0
C1659 C 0.73501 0.10374 0.70521 0.0
C1660 C 0.72175 0.09209 0.70929 0.0
C1661 C 0.68531 0.05707 0.72367 0.0
C1662 C 0.69752 0.06932 0.71831 0.0
H1663 H 0.75414 0.12017 0.67288 0.0
H1664 H 0.73222 0.10098 0.67933 0.0
H1665 H 0.71197 0.10711 0.72835 0.0
H1666 H 0.66905 0.04202 0.75812 0.0
H1667 H 0.68904 0.06206 0.7492 0.0
C1668 C 0.40017 0.03736 0.53298 0.0
C1669 C 0.40609 0.0281 0.52003 0.0
C1670 C 0.38724 0.04762 0.53082 0.0
C1671 C 0.3635 0.06806 0.49926 0.0
H1672 H 0.33214 0.07175 0.53357 0.0
C1673 C 0.30131 0.0979 0.49188 0.0
C1674 C 0.29644 0.10821 0.50448 0.0
C1675 C 0.31527 0.08888 0.4934 0.0
C1676 C 0.34088 0.07098 0.52395 0.0
H1677 H 0.40302 0.02265 0.49452 0.0
H1678 H 0.38006 0.04002 0.49091 0.0
H1679 H 0.35506 0.05428 0.53687 0.0
H1680 H 0.30254 0.11737 0.52842 0.0
H1681 H 0.32683 0.10151 0.53112 0.0
H1682 H 0.34894 0.0845 0.48621 0.0
C1683 C 0.38564 0.03959 0.5027 0.0
C1684 C 0.35408 0.06099 0.52584 0.0
C1685 C 0.39869 0.02942 0.50483 0.0
C1686 C 0.30596 0.10953 0.51851 0.0
C1687 C 0.31982 0.10038 0.52009 0.0
C1688 C 0.35019 0.07793 0.4973 0.0
C1689 C 0.37971 0.0488 0.51568 0.0
C1690 C 0.36561 0.05943 0.51356 0.0
C1691 C 0.32454 0.08986 0.50761 0.0
C1692 C 0.33878 0.07953 0.50965 0.0
H1693 H 0.40536 0.03652 0.54492 0.0
H1694 H 0.3832 0.05469 0.54105 0.0
H1695 H 0.37224 0.06738 0.48964 0.0
H1696 H 0.29423 0.09663 0.48091 0.0
H1697 H 0.31856 0.08079 0.48363 0.0
C1698 C 0.61646 0.49153 0.51353 0.0
C1699 C 0.61096 0.49427 0.52931 0.0
C1700 C 0.62963 0.4817 0.51063 0.0
C1701 C 0.65292 0.449 0.52828 0.0
H1702 H 0.68522 0.46203 0.49709 0.0
C1703 C 0.71079 0.41268 0.51738 0.0
C1704 C 0.71562 0.41063 0.50127 0.0
C1705 C 0.69852 0.42332 0.52139 0.0
C1706 C 0.67623 0.45813 0.50572 0.0
H1707 H 0.61522 0.48894 0.55445 0.0
H1708 H 0.63812 0.47165 0.54935 0.0
H1709 H 0.66279 0.47966 0.50289 0.0
H1710 H 0.71122 0.41823 0.47675 0.0
H1711 H 0.68979 0.43651 0.48372 0.0
H1712 H 0.66623 0.42736 0.53096 0.0
C1713 C 0.63211 0.47701 0.53921 0.0
C1714 C 0.66338 0.46825 0.50905 0.0
C1715 C 0.61896 0.4869 0.54213 0.0
C1716 C 0.70793 0.41954 0.4893 0.0
C1717 C 0.69566 0.43013 0.49331 0.0
C1718 C 0.66575 0.43884 0.52491 0.0
C1719 C 0.63759 0.47431 0.52343 0.0
C1720 C 0.65151 0.46375 0.52028 0.0
C1721 C 0.69078 0.43214 0.50939 0.0
C1722 C 0.6775 0.44323 0.5135 0.0
H1723 H 0.61041 0.49678 0.50335 0.0
H1724 H 0.6334 0.47965 0.49831 0.0
H1725 H 0.64387 0.44511 0.53687 0.0
H1726 H 0.71646 0.40607 0.52692 0.0
H1727 H 0.69518 0.42473 0.53392 0.0
C1728 C 0.69522 0.26367 0.38013 0.0
C1729 C 0.69626 0.24707 0.38329 0.0
C1730 C 0.69813 0.27523 0.39233 0.0
C1731 C 0.71947 0.28054 0.43105 0.0
H1732 H 0.69522 0.31996 0.43432 0.0
C1733 C 0.74218 0.33613 0.46785 0.0
C1734 C 0.73087 0.34464 0.47691 0.0
C1735 C 0.73711 0.32381 0.45717 0.0
C1736 C 0.70199 0.30893 0.43366 0.0
H1737 H 0.70056 0.22959 0.4019 0.0
H1738 H 0.70561 0.24977 0.42323 0.0
H1739 H 0.68724 0.29908 0.41445 0.0
H1740 H 0.70562 0.34643 0.48295 0.0
H1741 H 0.69657 0.32486 0.46403 0.0
H1742 H 0.73418 0.29033 0.45028 0.0
C1743 C 0.70281 0.25385 0.41124 0.0
C1744 C 0.69754 0.29706 0.42217 0.0
C1745 C 0.69992 0.24229 0.39902 0.0
C1746 C 0.71446 0.34023 0.47572 0.0
C1747 C 0.70933 0.32796 0.4649 0.0
C1748 C 0.72394 0.29241 0.44249 0.0
C1749 C 0.70215 0.27046 0.40799 0.0
C1750 C 0.7063 0.28277 0.42067 0.0
C1751 C 0.72062 0.31967 0.45548 0.0
C1752 C 0.71533 0.30678 0.44384 0.0
H1753 H 0.69265 0.26776 0.36809 0.0
H1754 H 0.69775 0.28792 0.38937 0.0
H1755 H 0.72661 0.26978 0.4301 0.0
H1756 H 0.75497 0.33905 0.46899 0.0
H1757 H 0.74609 0.31774 0.45001 0.0
C1758 C 0.53999 0.02436 0.90149 0.0
C1759 C 0.5282 0.01273 0.90601 0.0
C1760 C 0.54943 0.02193 0.88782 0.0
C1761 C 0.54853 0.00308 0.84839 0.0
H1762 H 0.59516 0.00896 0.8495 0.0
C1763 C 0.58796 0.01853 0.79324 0.0
C1764 C 0.60181 0.00936 0.79082 0.0
C1765 C 0.57869 0.01662 0.80711 0.0
C1766 C 0.58216 0.00714 0.84906 0.0
H1767 H 0.51752 0.98917 0.89967 0.0
H1768 H 0.53355 0.98537 0.87536 0.0
H1769 H 0.57981 0.01009 0.87465 0.0
H1770 H 0.61674 0.99089 0.80095 0.0
H1771 H 0.60071 0.98792 0.82552 0.0
H1772 H 0.55081 0.00084 0.82273 0.0
C1773 C 0.53546 0.99629 0.88259 0.0
C1774 C 0.57341 0.00788 0.86339 0.0
C1775 C 0.52621 0.99856 0.89646 0.0
C1776 C 0.60608 0.99806 0.80246 0.0
C1777 C 0.59698 0.99641 0.81652 0.0
C1778 C 0.55725 0.00267 0.83403 0.0
C1779 C 0.54713 0.00797 0.87815 0.0
C1780 C 0.55651 0.006 0.86316 0.0
C1781 C 0.58326 0.00574 0.81899 0.0
C1782 C 0.57413 0.00482 0.83423 0.0
H1783 H 0.54169 0.03559 0.90824 0.0
H1784 H 0.55822 0.03121 0.88451 0.0
H1785 H 0.53549 0.0017 0.84792 0.0
H1786 H 0.58433 0.02728 0.78445 0.0
H1787 H 0.56822 0.02404 0.8088 0.0
C1788 C 0.31376 0.26862 0.40039 0.0
C1789 C 0.31274 0.26501 0.38384 0.0
C1790 C 0.31077 0.25652 0.41169 0.0
C1791 C 0.30599 0.21148 0.41503 0.0
H1792 H 0.28282 0.22224 0.45407 0.0
C1793 C 0.26532 0.16738 0.4505 0.0
C1794 C 0.26843 0.16608 0.46707 0.0
C1795 C 0.27352 0.179 0.44144 0.0
C1796 C 0.28951 0.21914 0.44332 0.0
H1797 H 0.30744 0.24614 0.36606 0.0
H1798 H 0.30157 0.22526 0.38557 0.0
H1799 H 0.29148 0.24378 0.43603 0.0
H1800 H 0.2826 0.17584 0.48715 0.0
H1801 H 0.29659 0.19673 0.47126 0.0
H1802 H 0.30295 0.1867 0.42192 0.0
C1803 C 0.30531 0.23718 0.39 0.0
C1804 C 0.29453 0.23146 0.43298 0.0
C1805 C 0.30855 0.24917 0.37877 0.0
C1806 C 0.28007 0.17652 0.47438 0.0
C1807 C 0.288 0.18847 0.46535 0.0
C1808 C 0.30068 0.19917 0.4252 0.0
C1809 C 0.30644 0.24063 0.40664 0.0
C1810 C 0.30255 0.22776 0.41851 0.0
C1811 C 0.28471 0.1898 0.44883 0.0
C1812 C 0.29218 0.20289 0.43928 0.0
H1813 H 0.31707 0.28074 0.40458 0.0
H1814 H 0.31198 0.25963 0.42436 0.0
H1815 H 0.31253 0.20815 0.40427 0.0
H1816 H 0.25643 0.15949 0.44455 0.0
H1817 H 0.27073 0.17989 0.42873 0.0
C1818 C 0.47063 0.4758 0.90101 0.0
C1819 C 0.48338 0.48657 0.90554 0.0
C1820 C 0.46112 0.47874 0.88748 0.0
C1821 C 0.46244 0.49789 0.84852 0.0
H1822 H 0.41567 0.49429 0.84995 0.0
C1823 C 0.42164 0.48618 0.79284 0.0
C1824 C 0.40791 0.49567 0.79127 0.0
C1825 C 0.4312 0.48733 0.80672 0.0
C1826 C 0.42871 0.49549 0.84942 0.0
H1827 H 0.49571 0.50916 0.89942 0.0
H1828 H 0.47947 0.51385 0.87546 0.0
H1829 H 0.43143 0.49176 0.87478 0.0
H1830 H 0.39354 0.51398 0.80292 0.0
H1831 H 0.41013 0.51569 0.82748 0.0
H1832 H 0.45975 0.50103 0.82308 0.0
C1833 C 0.4769 0.50317 0.88249 0.0
C1834 C 0.43771 0.49392 0.86357 0.0
C1835 C 0.48627 0.50039 0.89617 0.0
C1836 C 0.4041 0.50658 0.80377 0.0
C1837 C 0.41351 0.50749 0.81782 0.0
C1838 C 0.45346 0.49918 0.83433 0.0
C1839 C 0.46425 0.49237 0.87802 0.0
C1840 C 0.45466 0.49497 0.86323 0.0
C1841 C 0.42708 0.49779 0.81945 0.0
C1842 C 0.43652 0.49785 0.83463 0.0
H1843 H 0.46819 0.46488 0.90769 0.0
H1844 H 0.45156 0.4701 0.88417 0.0
H1845 H 0.4755 0.49866 0.84792 0.0
H1846 H 0.42492 0.47771 0.78339 0.0
H1847 H 0.44153 0.47963 0.80772 0.0
C1848 C 0.71697 0.75313 0.12402 0.0
C1849 C 0.70179 0.76025 0.12515 0.0
C1850 C 0.71998 0.7416 0.112 0.0
C1851 C 0.70641 0.7274 0.07194 0.0
H1852 H 0.72846 0.68823 0.08282 0.0
C1853 C 0.71404 0.67498 0.0259 0.0
C1854 C 0.72871 0.66679 0.0261 0.0
C1855 C 0.71051 0.68628 0.03801 0.0
C1856 C 0.72248 0.69919 0.07952 0.0
H1857 H 0.6779 0.76098 0.11447 0.0
H1858 H 0.68317 0.7408 0.0934 0.0
H1859 H 0.72283 0.70818 0.10385 0.0
H1860 H 0.75125 0.66426 0.03913 0.0
H1861 H 0.74526 0.68418 0.05998 0.0
H1862 H 0.70628 0.7186 0.04757 0.0
C1863 C 0.69274 0.74418 0.10183 0.0
C1864 C 0.71922 0.7106 0.09159 0.0
C1865 C 0.68968 0.75561 0.11396 0.0
C1866 C 0.73978 0.67024 0.03865 0.0
C1867 C 0.7363 0.68162 0.05068 0.0
C1868 C 0.70978 0.71605 0.05983 0.0
C1869 C 0.70791 0.73702 0.10075 0.0
C1870 C 0.71118 0.72483 0.08793 0.0
C1871 C 0.7216 0.68975 0.05056 0.0
C1872 C 0.71788 0.7018 0.06346 0.0
H1873 H 0.72649 0.75636 0.13256 0.0
H1874 H 0.73183 0.73639 0.11138 0.0
H1875 H 0.70037 0.73836 0.06873 0.0
H1876 H 0.70518 0.67256 0.01648 0.0
H1877 H 0.69897 0.69211 0.03765 0.0
C1878 C 0.97917 0.01378 0.11081 0.0
C1879 C 0.9897 0.02737 0.11084 0.0
C1880 C 0.9693 0.01066 0.12406 0.0
C1881 C 0.95309 0.03015 0.16124 0.0
H1882 H 0.94341 0.98567 0.17257 0.0
C1883 C 0.90588 0.01396 0.20965 0.0
C1884 C 0.9084 0.00038 0.21921 0.0
C1885 C 0.916 0.01734 0.19665 0.0
C1886 C 0.94614 0.99818 0.16975 0.0
H1887 H 0.99841 0.0482 0.12477 0.0
H1888 H 0.98167 0.0425 0.14818 0.0
H1889 H 0.96096 0.99132 0.14994 0.0
H1890 H 0.92378 0.97993 0.22286 0.0
H1891 H 0.94182 0.98617 0.20064 0.0
H1892 H 0.9389 0.03702 0.18152 0.0
C1893 C 0.98058 0.03449 0.13777 0.0
C1894 C 0.95602 0.00143 0.15654 0.0
C1895 C 0.99025 0.03774 0.12439 0.0
C1896 C 0.92143 0.99042 0.21565 0.0
C1897 C 0.93172 0.99395 0.20281 0.0
C1898 C 0.9434 0.0269 0.1746 0.0
C1899 C 0.96993 0.02092 0.13778 0.0
C1900 C 0.95956 0.01746 0.15203 0.0
C1901 C 0.92906 0.00738 0.19303 0.0
C1902 C 0.93971 0.01087 0.179 0.0
H1903 H 0.9784 0.0057 0.10041 0.0
H1904 H 0.96104 0.0003 0.12344 0.0
H1905 H 0.95533 0.04265 0.15806 0.0
H1906 H 0.89584 0.02178 0.21197 0.0
H1907 H 0.91334 0.02761 0.18926 0.0
C1908 C 0.30408 0.74868 0.11437 0.0
C1909 C 0.303 0.75211 0.13093 0.0
C1910 C 0.30129 0.7607 0.10313 0.0
C1911 C 0.29805 0.80537 0.09917 0.0
H1912 H 0.27547 0.79312 0.05964 0.0
C1913 C 0.26907 0.85075 0.05563 0.0
C1914 C 0.27138 0.84788 0.03908 0.0
C1915 C 0.27442 0.83969 0.06692 0.0
C1916 C 0.28194 0.79669 0.07055 0.0
H1917 H 0.29801 0.77071 0.14876 0.0
H1918 H 0.29265 0.79159 0.1292 0.0
H1919 H 0.28152 0.7725 0.07917 0.0
H1920 H 0.2816 0.83148 0.02142 0.0
H1921 H 0.29077 0.81216 0.04113 0.0
H1922 H 0.29792 0.82971 0.09062 0.0
C1923 C 0.2961 0.77977 0.12482 0.0
C1924 C 0.28546 0.78487 0.08175 0.0
C1925 C 0.29909 0.7678 0.13605 0.0
C1926 C 0.2796 0.83403 0.03409 0.0
C1927 C 0.28478 0.82291 0.04535 0.0
C1928 C 0.29433 0.81724 0.08804 0.0
C1929 C 0.29713 0.77638 0.1082 0.0
C1930 C 0.29358 0.78902 0.09621 0.0
C1931 C 0.28201 0.8255 0.06185 0.0
C1932 C 0.28627 0.813 0.07361 0.0
H1933 H 0.30728 0.73674 0.1101 0.0
H1934 H 0.30252 0.7577 0.09046 0.0
H1935 H 0.30454 0.809 0.11004 0.0
H1936 H 0.26279 0.86133 0.05984 0.0
H1937 H 0.27207 0.84194 0.07957 0.0
C1938 C 0.02143 0.5016 0.11257 0.0
C1939 C 0.01821 0.48608 0.10593 0.0
C1940 C 0.03071 0.5036 0.12659 0.0
C1941 C 0.06142 0.48378 0.15089 0.0
H1942 H 0.04833 0.51397 0.18429 0.0
C1943 C 0.0962 0.49107 0.21123 0.0
C1944 C 0.09862 0.50695 0.21728 0.0
C1945 C 0.08572 0.48788 0.19823 0.0
C1946 C 0.05225 0.50561 0.17501 0.0
H1947 H 0.02206 0.46045 0.10907 0.0
H1948 H 0.03844 0.46399 0.13342 0.0
H1949 H 0.03147 0.50974 0.16037 0.0
H1950 H 0.09176 0.53192 0.21437 0.0
H1951 H 0.0738 0.5264 0.19165 0.0
H1952 H 0.08234 0.47984 0.16536 0.0
C1953 C 0.03388 0.47461 0.12766 0.0
C1954 C 0.04257 0.50318 0.16132 0.0
C1955 C 0.02452 0.4726 0.11368 0.0
C1956 C 0.09016 0.51952 0.21012 0.0
C1957 C 0.07976 0.51634 0.19711 0.0
C1958 C 0.07115 0.48626 0.16456 0.0
C1959 C 0.03706 0.49013 0.13427 0.0
C1960 C 0.0471 0.49232 0.14906 0.0
C1961 C 0.07745 0.5005 0.19094 0.0
C1962 C 0.06674 0.4973 0.17674 0.0
H1963 H 0.017 0.51227 0.10678 0.0
H1964 H 0.03315 0.51573 0.13126 0.0
H1965 H 0.06532 0.47546 0.14156 0.0
H1966 H 0.10245 0.48107 0.21648 0.0
H1967 H 0.08406 0.47551 0.19393 0.0
C1968 C 0.38331 0.71888 0.25285 0.0
C1969 C 0.37952 0.70303 0.2474 0.0
C1970 C 0.39545 0.72179 0.26431 0.0
C1971 C 0.41859 0.70259 0.29635 0.0
H1972 H 0.44807 0.7392 0.29033 0.0
C1973 C 0.47305 0.71706 0.33887 0.0
C1974 C 0.47469 0.73331 0.34381 0.0
C1975 C 0.46209 0.71251 0.32663 0.0
C1976 C 0.43986 0.72899 0.29224 0.0
H1977 H 0.38554 0.6778 0.24979 0.0
H1978 H 0.40674 0.68292 0.26994 0.0
H1979 H 0.42743 0.73279 0.27006 0.0
H1980 H 0.46745 0.75776 0.33916 0.0
H1981 H 0.44826 0.74992 0.31791 0.0
H1982 H 0.43097 0.69895 0.31868 0.0
C1983 C 0.40019 0.69305 0.26538 0.0
C1984 C 0.42804 0.72533 0.28064 0.0
C1985 C 0.38805 0.69013 0.25386 0.0
C1986 C 0.46598 0.74508 0.33582 0.0
C1987 C 0.45517 0.7406 0.32353 0.0
C1988 C 0.43044 0.70627 0.308 0.0
C1989 C 0.40409 0.70893 0.27065 0.0
C1990 C 0.41714 0.71222 0.28265 0.0
C1991 C 0.45298 0.72426 0.3189 0.0
C1992 C 0.44108 0.71963 0.30613 0.0
H1993 H 0.37675 0.72905 0.24839 0.0
H1994 H 0.39794 0.73413 0.26836 0.0
H1995 H 0.41027 0.69249 0.29831 0.0
H1996 H 0.48 0.70787 0.34469 0.0
H1997 H 0.46082 0.69986 0.32315 0.0
C1998 C 0.99766 0.40152 0.97792 0.0
C1999 C 0.98222 0.40592 0.98312 0.0
C2000 C 0.9996 0.38769 0.96823 0.0
C2001 C 0.97661 0.35939 0.94108 0.0
H2002 H 0.01167 0.3303 0.94896 0.0
C2003 C 0.97566 0.29481 0.91543 0.0
C2004 C 0.98977 0.2891 0.90814 0.0
C2005 C 0.97594 0.30933 0.92419 0.0
C2006 C 0.00194 0.33842 0.9465 0.0
H2007 H 0.95679 0.39902 0.98255 0.0
H2008 H 0.96015 0.37494 0.9658 0.0
H2009 H 0.00981 0.35532 0.96496 0.0
H2010 H 0.01538 0.29412 0.9048 0.0
H2011 H 0.01583 0.31961 0.92033 0.0
H2012 H 0.96855 0.3424 0.92289 0.0
C2013 C 0.97074 0.38234 0.96887 0.0
C2014 C 0.00087 0.35275 0.95564 0.0
C2015 C 0.9688 0.39615 0.9785 0.0
C2016 C 0.00429 0.29815 0.91022 0.0
C2017 C 0.00457 0.31271 0.91914 0.0
C2018 C 0.97764 0.34509 0.93204 0.0
C2019 C 0.98615 0.37797 0.96355 0.0
C2020 C 0.98803 0.36327 0.9532 0.0
C2021 C 0.99032 0.31856 0.92599 0.0
C2022 C 0.99014 0.33431 0.93482 0.0
H2023 H 0.00822 0.40889 0.98115 0.0
H2024 H 0.01161 0.38477 0.9642 0.0
H2025 H 0.96679 0.36739 0.9386 0.0
H2026 H 0.96424 0.28821 0.91418 0.0
H2027 H 0.96482 0.31336 0.92957 0.0
C2028 C 0.61474 0.81332 0.25094 0.0
C2029 C 0.62809 0.8035 0.24833 0.0
C2030 C 0.60409 0.81016 0.2636 0.0
C2031 C 0.59176 0.77765 0.29187 0.0
H2032 H 0.57141 0.81284 0.31484 0.0
C2033 C 0.55411 0.76686 0.34882 0.0
C2034 C 0.53849 0.77307 0.34836 0.0
C2035 C 0.56568 0.77172 0.33758 0.0
C2036 C 0.577 0.80292 0.30848 0.0
H2037 H 0.64105 0.78301 0.25713 0.0
H2038 H 0.62283 0.77775 0.27947 0.0
H2039 H 0.59041 0.81887 0.29319 0.0
H2040 H 0.52301 0.78989 0.33634 0.0
H2041 H 0.54338 0.79859 0.31686 0.0
H2042 H 0.57854 0.76175 0.30738 0.0
C2043 C 0.6202 0.78757 0.27149 0.0
C2044 C 0.58781 0.80633 0.29601 0.0
C2045 C 0.6307 0.7906 0.25872 0.0
C2046 C 0.53494 0.78487 0.33698 0.0
C2047 C 0.5466 0.78989 0.32586 0.0
C2048 C 0.58115 0.77427 0.30445 0.0
C2049 C 0.60668 0.79724 0.27406 0.0
C2050 C 0.59529 0.79373 0.28749 0.0
C2051 C 0.56194 0.78304 0.3258 0.0
C2052 C 0.57363 0.78685 0.31285 0.0
H2053 H 0.6124 0.82328 0.24303 0.0
H2054 H 0.59369 0.8177 0.265 0.0
H2055 H 0.59696 0.76759 0.28539 0.0
H2056 H 0.55722 0.75775 0.35744 0.0
H2057 H 0.57748 0.76638 0.3379 0.0
C2058 C 0.01617 0.12285 0.99794 0.0
C2059 C 0.02678 0.11071 0.99305 0.0
C2060 C 0.01316 0.13593 0.98803 0.0
C2061 C 0.017 0.14925 0.94555 0.0
H2062 H 0.00899 0.19145 0.96453 0.0
C2063 C 0.01201 0.20732 0.90807 0.0
C2064 C 0.99815 0.21636 0.91101 0.0
C2065 C 0.0161 0.19477 0.91827 0.0
C2066 C 0.01115 0.17971 0.95909 0.0
H2067 H 0.04251 0.10297 0.97371 0.0
H2068 H 0.03794 0.12614 0.95687 0.0
H2069 H 0.01533 0.16897 0.98191 0.0
H2070 H 0.97795 0.21953 0.9272 0.0
H2071 H 0.98534 0.19781 0.94519 0.0
H2072 H 0.01318 0.16023 0.9227 0.0
C2073 C 0.03159 0.12536 0.96821 0.0
C2074 C 0.01469 0.16678 0.96903 0.0
C2075 C 0.03443 0.11215 0.97803 0.0
C2076 C 0.98868 0.21279 0.92458 0.0
C2077 C 0.99294 0.20041 0.93492 0.0
C2078 C 0.01371 0.16225 0.93561 0.0
C2079 C 0.02085 0.1374 0.97303 0.0
C2080 C 0.01754 0.15132 0.96241 0.0
C2081 C 0.00658 0.19117 0.93176 0.0
C2082 C 0.01063 0.17756 0.9423 0.0
H2083 H 0.01023 0.12234 0.00951 0.0
H2084 H 0.00463 0.1448 0.99209 0.0
H2085 H 0.0188 0.13751 0.93998 0.0
H2086 H 0.01952 0.2097 0.89769 0.0
H2087 H 0.02674 0.18787 0.91563 0.0
C2088 C 0.38939 0.31713 0.25101 0.0
C2089 C 0.38127 0.30522 0.26003 0.0
C2090 C 0.40065 0.31274 0.23929 0.0
C2091 C 0.4265 0.27871 0.2275 0.0
H2092 H 0.42778 0.29887 0.18567 0.0
C2093 C 0.45749 0.24925 0.17352 0.0
C2094 C 0.46742 0.259 0.16375 0.0
C2095 C 0.44782 0.25617 0.18533 0.0
C2096 C 0.4277 0.29329 0.19738 0.0
H2097 H 0.37805 0.27937 0.26333 0.0
H2098 H 0.39751 0.27173 0.24295 0.0
H2099 H 0.40916 0.30868 0.20623 0.0
H2100 H 0.47469 0.2838 0.15861 0.0
H2101 H 0.4576 0.29591 0.17931 0.0
H2102 H 0.44473 0.26312 0.2186 0.0
C2103 C 0.39556 0.28448 0.24518 0.0
C2104 C 0.41706 0.2989 0.20915 0.0
C2105 C 0.38438 0.28886 0.25686 0.0
C2106 C 0.46724 0.27592 0.16596 0.0
C2107 C 0.45741 0.28287 0.17775 0.0
C2108 C 0.43704 0.27309 0.21575 0.0
C2109 C 0.40397 0.29635 0.23637 0.0
C2110 C 0.41612 0.29145 0.22424 0.0
C2111 C 0.44774 0.27302 0.18765 0.0
C2112 C 0.43754 0.28009 0.20047 0.0
H2113 H 0.38731 0.32985 0.25325 0.0
H2114 H 0.40699 0.32217 0.23276 0.0
H2115 H 0.42639 0.27297 0.23912 0.0
H2116 H 0.45724 0.23619 0.17218 0.0
H2117 H 0.44029 0.24828 0.1926 0.0
C2118 C 0.52808 0.40233 0.03857 0.0
C2119 C 0.51529 0.40749 0.02889 0.0
C2120 C 0.52608 0.38895 0.04847 0.0
C2121 C 0.49488 0.36191 0.06688 0.0
H2122 H 0.53106 0.3335 0.07148 0.0
C2123 C 0.49063 0.29817 0.09537 0.0
C2124 C 0.50304 0.29441 0.10617 0.0
C2125 C 0.49145 0.3125 0.08665 0.0
C2126 C 0.5209 0.34141 0.07043 0.0
H2127 H 0.49022 0.40261 0.02231 0.0
H2128 H 0.48696 0.37885 0.03905 0.0
H2129 H 0.53374 0.35717 0.05459 0.0
H2130 H 0.52588 0.30288 0.11654 0.0
H2131 H 0.52739 0.32778 0.10118 0.0
H2132 H 0.48195 0.34571 0.08245 0.0
C2133 C 0.49847 0.38538 0.03923 0.0
C2134 C 0.52244 0.35503 0.06079 0.0
C2135 C 0.50041 0.3989 0.02943 0.0
C2136 C 0.51613 0.30542 0.10831 0.0
C2137 C 0.51704 0.31963 0.09945 0.0
C2138 C 0.49329 0.34815 0.07639 0.0
C2139 C 0.51132 0.38018 0.04882 0.0
C2140 C 0.50949 0.36554 0.05896 0.0
C2141 C 0.50481 0.32323 0.08841 0.0
C2142 C 0.50633 0.33782 0.07833 0.0
H2143 H 0.53979 0.40844 0.03833 0.0
H2144 H 0.53618 0.38552 0.05588 0.0
H2145 H 0.48472 0.36982 0.06595 0.0
H2146 H 0.48038 0.28993 0.09348 0.0
H2147 H 0.48189 0.31494 0.07815 0.0
C2148 C 0.61939 0.19102 0.25039 0.0
C2149 C 0.62975 0.20377 0.2557 0.0
C2150 C 0.60747 0.19366 0.23883 0.0
C2151 C 0.59636 0.22112 0.2064 0.0
H2152 H 0.55294 0.20411 0.21343 0.0
C2153 C 0.5424 0.23939 0.16702 0.0
C2154 C 0.5306 0.22741 0.1631 0.0
C2155 C 0.55464 0.23632 0.17811 0.0
C2156 C 0.56505 0.20876 0.21115 0.0
H2157 H 0.63598 0.22919 0.25281 0.0
H2158 H 0.61513 0.23382 0.23264 0.0
H2159 H 0.57415 0.19888 0.23296 0.0
H2160 H 0.52262 0.20268 0.16765 0.0
H2161 H 0.54411 0.19725 0.18669 0.0
H2162 H 0.58735 0.23088 0.18453 0.0
C2163 C 0.61625 0.22178 0.23741 0.0
C2164 C 0.57719 0.20577 0.22237 0.0
C2165 C 0.62807 0.21917 0.24906 0.0
C2166 C 0.53142 0.21224 0.17046 0.0
C2167 C 0.54372 0.20915 0.18146 0.0
C2168 C 0.58425 0.22401 0.19512 0.0
C2169 C 0.60576 0.20908 0.23224 0.0
C2170 C 0.59296 0.21197 0.22014 0.0
C2171 C 0.55545 0.22116 0.18548 0.0
C2172 C 0.56842 0.21792 0.19738 0.0
H2173 H 0.62033 0.17905 0.25538 0.0
H2174 H 0.59965 0.18361 0.23497 0.0
H2175 H 0.60846 0.22587 0.20426 0.0
H2176 H 0.54211 0.25123 0.16166 0.0
H2177 H 0.56333 0.24594 0.1811 0.0
C2178 C 0.47884 0.11659 0.01911 0.0
C2179 C 0.49154 0.10599 0.01622 0.0
C2180 C 0.48154 0.131 0.02785 0.0
C2181 C 0.50921 0.15012 0.05775 0.0
H2182 H 0.48849 0.18953 0.04525 0.0
C2183 C 0.51941 0.20959 0.09391 0.0
C2184 C 0.50543 0.21814 0.09734 0.0
C2185 C 0.51895 0.19694 0.08251 0.0
C2186 C 0.49427 0.17861 0.04897 0.0
H2187 H 0.51704 0.10225 0.02023 0.0
H2188 H 0.5218 0.12753 0.03533 0.0
H2189 H 0.48519 0.16519 0.02844 0.0
H2190 H 0.48059 0.2217 0.09045 0.0
H2191 H 0.47955 0.19944 0.07076 0.0
H2192 H 0.51813 0.16341 0.07836 0.0
C2193 C 0.50973 0.12461 0.03093 0.0
C2194 C 0.49238 0.16466 0.03933 0.0
C2195 C 0.50704 0.11021 0.02214 0.0
C2196 C 0.49134 0.21481 0.08835 0.0
C2197 C 0.49086 0.20223 0.07691 0.0
C2198 C 0.5111 0.16406 0.06738 0.0
C2199 C 0.49699 0.13515 0.03393 0.0
C2200 C 0.49968 0.1502 0.0437 0.0
C2201 C 0.50455 0.19287 0.07413 0.0
C2202 C 0.5035 0.17843 0.06322 0.0
H2203 H 0.4668 0.11379 0.01455 0.0
H2204 H 0.47143 0.13876 0.0301 0.0
H2205 H 0.51483 0.13913 0.06157 0.0
H2206 H 0.53054 0.21234 0.10042 0.0
H2207 H 0.52981 0.19024 0.08039 0.0
C2208 C 0.24933 0.3851 0.71609 0.0
C2209 C 0.24408 0.38237 0.70014 0.0
C2210 C 0.26201 0.39607 0.71956 0.0
C2211 C 0.28483 0.43108 0.70344 0.0
H2212 H 0.31622 0.41955 0.73576 0.0
C2213 C 0.3413 0.4715 0.71865 0.0
C2214 C 0.34554 0.47285 0.73498 0.0
C2215 C 0.32946 0.46014 0.71353 0.0
C2216 C 0.30755 0.42301 0.72675 0.0
H2217 H 0.2479 0.38925 0.67532 0.0
H2218 H 0.27027 0.40828 0.68138 0.0
H2219 H 0.29461 0.40038 0.72831 0.0
H2220 H 0.34001 0.4646 0.75897 0.0
H2221 H 0.31927 0.44489 0.75017 0.0
H2222 H 0.29774 0.45379 0.702 0.0
C2223 C 0.26446 0.40199 0.69121 0.0
C2224 C 0.29511 0.41202 0.72252 0.0
C2225 C 0.25175 0.39098 0.68773 0.0
C2226 C 0.33733 0.46328 0.74622 0.0
C2227 C 0.32546 0.45202 0.74116 0.0
C2228 C 0.29732 0.44208 0.70767 0.0
C2229 C 0.2698 0.40457 0.70716 0.0
C2230 C 0.28348 0.416 0.71097 0.0
C2231 C 0.32144 0.45022 0.72475 0.0
C2232 C 0.30872 0.43824 0.71951 0.0
H2233 H 0.24384 0.37854 0.72592 0.0
H2234 H 0.26567 0.39795 0.732 0.0
H2235 H 0.27596 0.43457 0.69462 0.0
H2236 H 0.34731 0.47906 0.70985 0.0
H2237 H 0.3267 0.45902 0.7008 0.0
C2238 C 0.24652 0.61468 0.80282 0.0
C2239 C 0.25074 0.63122 0.80225 0.0
C2240 C 0.25823 0.603 0.80053 0.0
C2241 C 0.30285 0.59778 0.8 0.0
H2242 H 0.2912 0.55824 0.77648 0.0
C2243 C 0.34907 0.55352 0.77287 0.0
C2244 C 0.34574 0.5369 0.77473 0.0
C2245 C 0.33789 0.56494 0.77785 0.0
C2246 C 0.29458 0.56915 0.78322 0.0
H2247 H 0.2704 0.64854 0.79857 0.0
H2248 H 0.29075 0.62823 0.79408 0.0
H2249 H 0.27078 0.57833 0.78154 0.0
H2250 H 0.32829 0.51925 0.7837 0.0
H2251 H 0.30873 0.5392 0.79222 0.0
H2252 H 0.32683 0.5887 0.80114 0.0
C2253 C 0.27853 0.6242 0.79677 0.0
C2254 C 0.28287 0.58067 0.78618 0.0
C2255 C 0.26686 0.63586 0.79926 0.0
C2256 C 0.33123 0.53196 0.78211 0.0
C2257 C 0.31998 0.54337 0.78689 0.0
C2258 C 0.31461 0.58633 0.79686 0.0
C2259 C 0.2744 0.6076 0.79741 0.0
C2260 C 0.28684 0.59516 0.79458 0.0
C2261 C 0.32309 0.55995 0.78459 0.0
C2262 C 0.31059 0.57191 0.78843 0.0
H2263 H 0.23421 0.61079 0.80529 0.0
H2264 H 0.25462 0.59036 0.8014 0.0
H2265 H 0.30631 0.60864 0.80677 0.0
H2266 H 0.36016 0.55769 0.76724 0.0
H2267 H 0.34057 0.57765 0.77586 0.0
C2268 C 0.89467 0.48713 0.49969 0.0
C2269 C 0.90435 0.4842 0.48609 0.0
C2270 C 0.88048 0.47799 0.50218 0.0
C2271 C 0.86077 0.43897 0.49322 0.0
H2272 H 0.82033 0.46101 0.4987 0.0
C2273 C 0.80009 0.40548 0.50664 0.0
C2274 C 0.78783 0.40865 0.49546 0.0
C2275 C 0.81427 0.41506 0.50716 0.0
C2276 C 0.83157 0.45473 0.49728 0.0
H2277 H 0.90641 0.46929 0.46442 0.0
H2278 H 0.88204 0.45299 0.46921 0.0
H2279 H 0.84564 0.47686 0.49644 0.0
H2280 H 0.78054 0.4247 0.4765 0.0
H2281 H 0.80514 0.44164 0.47773 0.0
H2282 H 0.84671 0.41686 0.49401 0.0
C2283 C 0.88551 0.46241 0.47788 0.0
C2284 C 0.84601 0.46376 0.49606 0.0
C2285 C 0.89953 0.47172 0.47521 0.0
C2286 C 0.7898 0.42191 0.4852 0.0
C2287 C 0.80382 0.43166 0.48595 0.0
C2288 C 0.84638 0.42994 0.49474 0.0
C2289 C 0.87581 0.46553 0.49132 0.0
C2290 C 0.8607 0.45596 0.49377 0.0
C2291 C 0.81628 0.42817 0.49675 0.0
C2292 C 0.83163 0.43774 0.49654 0.0
H2293 H 0.89809 0.49638 0.50852 0.0
H2294 H 0.87323 0.48053 0.51271 0.0
H2295 H 0.87197 0.4327 0.49152 0.0
H2296 H 0.79895 0.3953 0.51464 0.0
H2297 H 0.82372 0.41217 0.51563 0.0
C2298 C 0.75776 0.88454 0.7891 0.0
C2299 C 0.76086 0.87995 0.80503 0.0
C2300 C 0.74524 0.89496 0.78565 0.0
C2301 C 0.71867 0.92517 0.80468 0.0
H2302 H 0.6942 0.91891 0.76506 0.0
C2303 C 0.67733 0.97404 0.77994 0.0
C2304 C 0.66324 0.96918 0.7715 0.0
C2305 C 0.68827 0.9626 0.78504 0.0
C2306 C 0.70074 0.92073 0.7763 0.0
H2307 H 0.75322 0.88294 0.82984 0.0
H2308 H 0.73106 0.90063 0.82376 0.0
H2309 H 0.71487 0.89984 0.77197 0.0
H2310 H 0.64926 0.94847 0.76231 0.0
H2311 H 0.66815 0.92843 0.7716 0.0
H2312 H 0.70425 0.94582 0.8092 0.0
C2313 C 0.73848 0.89638 0.81395 0.0
C2314 C 0.7128 0.90991 0.78014 0.0
C2315 C 0.75108 0.88605 0.81741 0.0
C2316 C 0.66006 0.95259 0.76871 0.0
C2317 C 0.67096 0.94112 0.77394 0.0
C2318 C 0.70653 0.93592 0.80089 0.0
C2319 C 0.73539 0.90098 0.79802 0.0
C2320 C 0.72206 0.9121 0.79429 0.0
C2321 C 0.68533 0.946 0.78197 0.0
C2322 C 0.69753 0.93395 0.78655 0.0
H2323 H 0.76487 0.87993 0.77922 0.0
H2324 H 0.7434 0.89841 0.77327 0.0
H2325 H 0.72563 0.92734 0.81561 0.0
H2326 H 0.68017 0.98674 0.78222 0.0
H2327 H 0.69929 0.96686 0.79096 0.0
C2328 C 0.61938 0.51627 0.97321 0.0
C2329 C 0.60775 0.516 0.98546 0.0
C2330 C 0.63383 0.52519 0.97523 0.0
C2331 C 0.66014 0.54564 0.00619 0.0
H2332 H 0.67588 0.56976 0.96964 0.0
C2333 C 0.7088 0.59673 0.01301 0.0
C2334 C 0.71899 0.59987 0.99997 0.0
C2335 C 0.69615 0.58524 0.01146 0.0
C2336 C 0.67179 0.56308 0.97999 0.0
H2337 H 0.60214 0.52485 0.00945 0.0
H2338 H 0.62723 0.54064 0.0129 0.0
H2339 H 0.65195 0.55255 0.96666 0.0
H2340 H 0.72526 0.59256 0.97572 0.0
H2341 H 0.70362 0.57209 0.97309 0.0
H2342 H 0.67989 0.55639 0.01958 0.0
C2343 C 0.62536 0.5337 0.00185 0.0
C2344 C 0.65804 0.55308 0.97823 0.0
C2345 C 0.61095 0.52469 0.99986 0.0
C2346 C 0.71713 0.59066 0.98574 0.0
C2347 C 0.7047 0.57897 0.98426 0.0
C2348 C 0.67387 0.55575 0.00798 0.0
C2349 C 0.63694 0.53415 0.98951 0.0
C2350 C 0.65196 0.54431 0.99133 0.0
C2351 C 0.69382 0.57632 0.99698 0.0
C2352 C 0.67976 0.56479 0.99495 0.0
H2353 H 0.61736 0.50948 0.96208 0.0
H2354 H 0.6426 0.52501 0.9656 0.0
H2355 H 0.65599 0.5388 0.01645 0.0
H2356 H 0.71026 0.60356 0.02419 0.0
H2357 H 0.68796 0.58372 0.02147 0.0
C2358 C 0.24243 0.62856 0.19788 0.0
C2359 C 0.259 0.6253 0.19806 0.0
C2360 C 0.23096 0.6164 0.20129 0.0
C2361 C 0.22688 0.57774 0.22242 0.0
H2362 H 0.18592 0.5738 0.19972 0.0
C2363 C 0.17337 0.53914 0.24586 0.0
C2364 C 0.16422 0.53008 0.23452 0.0
C2365 C 0.18519 0.55025 0.24083 0.0
C2366 C 0.19736 0.57467 0.20608 0.0
H2367 H 0.27647 0.60653 0.20127 0.0
H2368 H 0.25647 0.58531 0.20718 0.0
H2369 H 0.20609 0.59402 0.19135 0.0
H2370 H 0.16086 0.52443 0.20919 0.0
H2371 H 0.18152 0.54405 0.20023 0.0
H2372 H 0.21824 0.55834 0.23706 0.0
C2373 C 0.25236 0.59735 0.2047 0.0
C2374 C 0.20884 0.58635 0.2014 0.0
C2375 C 0.26382 0.6095 0.20131 0.0
C2376 C 0.16755 0.53166 0.21809 0.0
C2377 C 0.17929 0.54289 0.213 0.0
C2378 C 0.2154 0.56611 0.22712 0.0
C2379 C 0.23581 0.60071 0.20494 0.0
C2380 C 0.22372 0.58804 0.20955 0.0
C2381 C 0.18818 0.55238 0.22434 0.0
C2382 C 0.20049 0.56448 0.21904 0.0
H2383 H 0.23833 0.64065 0.19562 0.0
H2384 H 0.21833 0.61943 0.20156 0.0
H2385 H 0.23814 0.57886 0.22909 0.0
H2386 H 0.17132 0.53768 0.25864 0.0
H2387 H 0.19176 0.55742 0.24985 0.0
C2388 C 0.89811 0.52933 0.00348 0.0
C2389 C 0.90509 0.52842 0.01892 0.0
C2390 C 0.88519 0.53949 0.00071 0.0
C2391 C 0.86549 0.57577 0.01625 0.0
H2392 H 0.8275 0.55836 0.99393 0.0
C2393 C 0.80542 0.60957 0.01535 0.0
C2394 C 0.79543 0.60796 0.00168 0.0
C2395 C 0.81939 0.60054 0.01663 0.0
C2396 C 0.83811 0.56355 0.99992 0.0
H2397 H 0.90372 0.5375 0.04356 0.0
H2398 H 0.88149 0.5555 0.03856 0.0
H2399 H 0.8508 0.5414 0.99757 0.0
H2400 H 0.79253 0.59605 0.97836 0.0
H2401 H 0.81716 0.58068 0.98031 0.0
H2402 H 0.85298 0.59799 0.01846 0.0
C2403 C 0.88611 0.54837 0.02861 0.0
C2404 C 0.85144 0.55378 0.00206 0.0
C2405 C 0.8989 0.53808 0.03145 0.0
C2406 C 0.79994 0.59747 0.9891 0.0
C2407 C 0.81401 0.58857 0.99029 0.0
C2408 C 0.85224 0.58562 0.01395 0.0
C2409 C 0.87907 0.54912 0.01324 0.0
C2410 C 0.8652 0.55973 0.01039 0.0
C2411 C 0.82381 0.5898 0.00417 0.0
C2412 C 0.83829 0.5796 0.0059 0.0
H2413 H 0.90272 0.52233 0.99346 0.0
H2414 H 0.8801 0.53996 0.98869 0.0
H2415 H 0.87604 0.58075 0.02253 0.0
H2416 H 0.80223 0.61748 0.0253 0.0
H2417 H 0.82645 0.60166 0.02761 0.0
C2418 C 0.10992 0.97772 0.03681 0.0
C2419 C 0.10897 0.99289 0.02948 0.0
C2420 C 0.12315 0.96791 0.0341 0.0
C2421 C 0.1653 0.96902 0.01846 0.0
H2422 H 0.15856 0.92245 0.01582 0.0
C2423 C 0.21232 0.92487 0.99307 0.0
C2424 C 0.21534 0.91116 0.00231 0.0
C2425 C 0.19978 0.93512 0.99714 0.0
C2426 C 0.16062 0.93543 0.01667 0.0
H2427 H 0.12145 0.0096 0.0136 0.0
H2428 H 0.14399 0.99219 0.0082 0.0
H2429 H 0.13569 0.93969 0.02107 0.0
H2430 H 0.20752 0.89748 0.02308 0.0
H2431 H 0.18539 0.91528 0.02998 0.0
H2432 H 0.19019 0.96464 0.01346 0.0
C2433 C 0.13471 0.98801 0.0164 0.0
C2434 C 0.14754 0.94534 0.01975 0.0
C2435 C 0.12159 0.99792 0.01929 0.0
C2436 C 0.20556 0.90797 0.01576 0.0
C2437 C 0.19284 0.91809 0.01966 0.0
C2438 C 0.17833 0.95911 0.01514 0.0
C2439 C 0.1357 0.97288 0.0238 0.0
C2440 C 0.14969 0.96229 0.02068 0.0
C2441 C 0.18982 0.93173 0.01037 0.0
C2442 C 0.1761 0.94223 0.01422 0.0
H2443 H 0.10036 0.97329 0.04455 0.0
H2444 H 0.12355 0.95646 0.0402 0.0
H2445 H 0.16753 0.98197 0.01941 0.0
H2446 H 0.21965 0.92769 0.98267 0.0
H2447 H 0.19763 0.94551 0.98972 0.0
loop_
_geom_bond_atom_site_label_1
_geom_bond_atom_site_label_2
_geom_bond_distance
_geom_bond_site_symmetry_2
_ccdc_geom_bond_type
C0 C1 1.384 . S
C0 H13 0.947 . S
C0 C35 1.382 1_655 S
C1 C0 1.384 . S
C1 C2 1.378 1_655 S
C2 C1 1.378 1_455 S
C2 C3 1.378 . S
C2 H14 0.952 . S
C3 C2 1.378 . S
C3 H15 0.950 . S
C3 C34 1.383 . S
H4 C23 0.954 . S
H5 C24 0.946 . S
H6 C26 0.953 . S
H7 C27 0.945 . S
H8 C29 0.950 1_556 S
H9 C30 0.949 . S
H10 C32 0.950 . S
H11 C33 0.948 . S
H12 C35 0.941 1_655 S
H13 C0 0.947 . S
H14 C2 0.952 . S
H15 C3 0.950 . S
N16 C19 1.382 . S
N16 C21 1.363 . S
N17 C19 1.371 . S
N17 C20 1.372 . S
N18 C20 1.361 . S
N18 C21 1.377 . S
C19 N16 1.382 . S
C19 N17 1.371 . S
C19 C22 1.480 . S
C20 N17 1.372 . S
C20 N18 1.361 . S
C20 C28 1.457 . S
C21 N16 1.363 . S
C21 N18 1.377 . S
C21 C34 1.479 . S
C22 C19 1.480 . S
C22 C23 1.383 . S
C22 C27 1.385 . S
C23 H4 0.954 . S
C23 C22 1.383 . S
C23 C24 1.388 1_545 S
C24 H5 0.946 . S
C24 C23 1.388 1_565 S
C24 C25 1.384 . S
C25 C24 1.384 . S
C25 C26 1.377 1_565 S
C26 H6 0.953 . S
C26 C25 1.377 1_545 S
C26 C27 1.369 . S
C27 H7 0.945 . S
C27 C22 1.385 . S
C27 C26 1.369 . S
C28 C20 1.457 . S
C28 C29 1.380 . S
C28 C33 1.364 . S
C29 H8 0.950 1_554 S
C29 C28 1.380 . S
C29 C30 1.382 1_554 S
C30 H9 0.949 . S
C30 C29 1.382 1_556 S
C30 C31 1.387 . S
C31 C30 1.387 . S
C31 C32 1.372 1_556 S
C32 H10 0.950 . S
C32 C31 1.372 1_554 S
C32 C33 1.379 . S
C33 H11 0.948 . S
C33 C28 1.364 . S
C33 C32 1.379 . S
C34 C3 1.383 . S
C34 C21 1.479 . S
C34 C35 1.398 . S
C35 C0 1.382 1_455 S
C35 H12 0.941 1_455 S
C35 C34 1.398 . S
C36 C37 1.384 . S
C36 H49 0.947 . S
C36 C71 1.382 . S
C37 C36 1.384 . S
C37 C38 1.378 . S
C38 C37 1.378 . S
C38 C39 1.378 . S
C38 H50 0.952 . S
C39 C38 1.378 . S
C39 H51 0.950 . S
C39 C70 1.383 . S
H40 C59 0.947 . S
H41 C60 0.946 . S
H42 C62 0.953 . S
H43 C63 0.945 . S
H44 C65 0.952 . S
H45 C66 0.949 . S
H46 C68 0.950 . S
H47 C69 0.948 . S
H48 C71 0.951 . S
H49 C36 0.947 . S
H50 C38 0.952 . S
H51 C39 0.950 . S
N52 C55 1.382 . S
N52 C57 1.363 . S
N53 C55 1.371 . S
N53 C56 1.372 . S
N54 C56 1.361 . S
N54 C57 1.377 . S
C55 N52 1.382 . S
C55 N53 1.371 . S
C55 C58 1.480 . S
C56 N53 1.372 . S
C56 N54 1.361 . S
C56 C64 1.457 . S
C57 N52 1.363 . S
C57 N54 1.377 . S
C57 C70 1.479 . S
C58 C55 1.480 . S
C58 C59 1.383 . S
C58 C63 1.385 . S
C59 H40 0.947 . S
C59 C58 1.383 . S
C59 C60 1.388 . S
C60 H41 0.946 . S
C60 C59 1.388 . S
C60 C61 1.384 . S
C61 C60 1.384 . S
C61 C62 1.377 . S
C62 H42 0.953 . S
C62 C61 1.377 . S
C62 C63 1.369 . S
C63 H43 0.945 . S
C63 C58 1.385 . S
C63 C62 1.369 . S
C64 C56 1.457 . S
C64 C65 1.372 . S
C64 C69 1.364 . S
C65 H44 0.952 . S
C65 C64 1.372 . S
C65 C66 1.389 . S
C66 H45 0.949 . S
C66 C65 1.389 . S
C66 C67 1.387 . S
C67 C66 1.387 . S
C67 C68 1.372 . S
C68 H46 0.950 . S
C68 C67 1.372 . S
C68 C69 1.379 . S
C69 H47 0.948 . S
C69 C64 1.364 . S
C69 C68 1.379 . S
C70 C39 1.383 . S
C70 C57 1.479 . S
C70 C71 1.398 . S
C71 C36 1.382 . S
C71 H48 0.951 . S
C71 C70 1.398 . S
C72 C73 1.384 1_554 S
C72 H85 0.947 . S
C72 C107 1.382 . S
C73 C72 1.384 1_556 S
C73 C74 1.378 . S
C74 C73 1.378 . S
C74 C75 1.378 . S
C74 H86 0.952 . S
C75 C74 1.378 . S
C75 H87 0.950 . S
C75 C106 1.383 1_556 S
H76 C95 0.947 . S
H77 C96 0.946 . S
H78 C98 0.953 . S
H79 C99 0.945 . S
H80 C101 0.952 . S
H81 C102 0.949 . S
H82 C104 0.950 . S
H83 C105 0.948 . S
H84 C107 0.951 . S
H85 C72 0.947 . S
H86 C74 0.952 . S
H87 C75 0.950 . S
N88 C91 1.382 . S
N88 C93 1.363 . S
N89 C91 1.371 . S
N89 C92 1.372 . S
N90 C92 1.361 . S
N90 C93 1.377 . S
C91 N88 1.382 . S
C91 N89 1.371 . S
C91 C94 1.480 . S
C92 N89 1.372 . S
C92 N90 1.361 . S
C92 C100 1.457 . S
C93 N88 1.363 . S
C93 N90 1.377 . S
C93 C106 1.479 . S
C94 C91 1.480 . S
C94 C95 1.383 . S
C94 C99 1.385 . S
C95 H76 0.947 . S
C95 C94 1.383 . S
C95 C96 1.388 . S
C96 H77 0.946 . S
C96 C95 1.388 . S
C96 C97 1.384 . S
C97 C96 1.384 . S
C97 C98 1.377 . S
C98 H78 0.953 . S
C98 C97 1.377 . S
C98 C99 1.369 . S
C99 H79 0.945 . S
C99 C94 1.385 . S
C99 C98 1.369 . S
C100 C92 1.457 . S
C100 C101 1.372 . S
C100 C105 1.364 1_655 S
C101 H80 0.952 . S
C101 C100 1.372 . S
C101 C102 1.389 . S
C102 H81 0.949 . S
C102 C101 1.389 . S
C102 C103 1.387 1_655 S
C103 C102 1.387 1_455 S
C103 C104 1.372 . S
C104 H82 0.950 . S
C104 C103 1.372 . S
C104 C105 1.379 . S
C105 H83 0.948 . S
C105 C100 1.364 1_455 S
C105 C104 1.379 . S
C106 C75 1.383 1_554 S
C106 C93 1.479 . S
C106 C107 1.398 . S
C107 C72 1.382 . S
C107 H84 0.951 . S
C107 C106 1.398 . S
C108 C109 1.384 . S
C108 H121 0.947 . S
C108 C143 1.382 . S
C109 C108 1.384 . S
C109 C110 1.378 . S
C110 C109 1.378 . S
C110 C111 1.378 . S
C110 H122 0.952 . S
C111 C110 1.378 . S
C111 H123 0.950 . S
C111 C142 1.383 . S
H112 C131 0.947 . S
H113 C132 0.946 . S
H114 C134 0.953 . S
H115 C135 0.945 . S
H116 C137 0.952 . S
H117 C138 0.949 . S
H118 C140 0.950 . S
H119 C141 0.948 . S
H120 C143 0.951 . S
H121 C108 0.947 . S
H122 C110 0.952 . S
H123 C111 0.950 . S
N124 C127 1.382 . S
N124 C129 1.363 . S
N125 C127 1.371 . S
N125 C128 1.372 . S
N126 C128 1.361 . S
N126 C129 1.377 . S
C127 N124 1.382 . S
C127 N125 1.371 . S
C127 C130 1.480 . S
C128 N125 1.372 . S
C128 N126 1.361 . S
C128 C136 1.457 . S
C129 N124 1.363 . S
C129 N126 1.377 . S
C129 C142 1.479 . S
C130 C127 1.480 . S
C130 C131 1.383 . S
C130 C135 1.385 . S
C131 H112 0.947 . S
C131 C130 1.383 . S
C131 C132 1.388 . S
C132 H113 0.946 . S
C132 C131 1.388 . S
C132 C133 1.384 . S
C133 C132 1.384 . S
C133 C134 1.377 . S
C134 H114 0.953 . S
C134 C133 1.377 . S
C134 C135 1.369 . S
C135 H115 0.945 . S
C135 C130 1.385 . S
C135 C134 1.369 . S
C136 C128 1.457 . S
C136 C137 1.372 . S
C136 C141 1.364 . S
C137 H116 0.952 . S
C137 C136 1.372 . S
C137 C138 1.389 . S
C138 H117 0.949 . S
C138 C137 1.389 . S
C138 C139 1.387 . S
C139 C138 1.387 . S
C139 C140 1.372 . S
C140 H118 0.950 . S
C140 C139 1.372 . S
C140 C141 1.379 . S
C141 H119 0.948 . S
C141 C136 1.364 . S
C141 C140 1.379 . S
C142 C111 1.383 . S
C142 C129 1.479 . S
C142 C143 1.398 . S
C143 C108 1.382 . S
C143 H120 0.951 . S
C143 C142 1.398 . S
C144 C145 1.384 . S
C144 H157 0.947 . S
C144 C179 1.382 . S
C145 C144 1.384 . S
C145 C146 1.378 . S
C146 C145 1.378 . S
C146 C147 1.378 . S
C146 H158 0.952 . S
C147 C146 1.378 . S
C147 H159 0.950 . S
C147 C178 1.383 . S
H148 C167 0.947 . S
H149 C168 0.946 . S
H150 C170 0.957 . S
H151 C171 0.945 . S
H152 C173 0.952 . S
H153 C174 0.949 . S
H154 C176 0.960 . S
H155 C177 0.948 . S
H156 C179 0.951 . S
H157 C144 0.947 . S
H158 C146 0.952 . S
H159 C147 0.950 . S
N160 C163 1.382 . S
N160 C165 1.363 . S
N161 C163 1.371 . S
N161 C164 1.372 . S
N162 C164 1.361 . S
N162 C165 1.377 . S
C163 N160 1.382 . S
C163 N161 1.371 . S
C163 C166 1.480 . S
C164 N161 1.372 . S
C164 N162 1.361 . S
C164 C172 1.457 . S
C165 N160 1.363 . S
C165 N162 1.377 . S
C165 C178 1.479 . S
C166 C163 1.480 . S
C166 C167 1.383 . S
C166 C171 1.385 . S
C167 H148 0.947 . S
C167 C166 1.383 . S
C167 C168 1.388 1_455 S
C168 H149 0.946 . S
C168 C167 1.388 1_655 S
C168 C169 1.384 . S
C169 C168 1.384 . S
C169 C170 1.377 1_655 S
C170 H150 0.957 . S
C170 C169 1.377 1_455 S
C170 C171 1.369 . S
C171 H151 0.945 . S
C171 C166 1.385 . S
C171 C170 1.369 . S
C172 C164 1.457 . S
C172 C173 1.372 1_565 S
C172 C177 1.364 . S
C173 H152 0.952 . S
C173 C172 1.372 1_545 S
C173 C174 1.389 . S
C174 H153 0.949 . S
C174 C173 1.389 . S
C174 C175 1.387 . S
C175 C174 1.387 . S
C175 C176 1.337 1_545 S
C176 H154 0.960 . S
C176 C175 1.337 1_565 S
C176 C177 1.406 . S
C177 H155 0.948 . S
C177 C172 1.364 . S
C177 C176 1.406 . S
C178 C147 1.383 . S
C178 C165 1.479 . S
C178 C179 1.398 . S
C179 C144 1.382 . S
C179 H156 0.951 . S
C179 C178 1.398 . S
C180 C181 1.384 . S
C180 H193 0.947 . S
C180 C215 1.382 . S
C181 C180 1.384 . S
C181 C182 1.378 . S
C182 C181 1.378 . S
C182 C183 1.378 . S
C182 H194 0.952 . S
C183 C182 1.378 . S
C183 H195 0.950 . S
C183 C214 1.383 . S
H184 C203 0.947 . S
H185 C204 0.946 . S
H186 C206 0.953 . S
H187 C207 0.945 . S
H188 C209 0.952 . S
H189 C210 0.949 . S
H190 C212 0.950 . S
H191 C213 0.948 . S
H192 C215 0.951 . S
H193 C180 0.947 . S
H194 C182 0.952 . S
H195 C183 0.950 . S
N196 C199 1.382 . S
N196 C201 1.363 . S
N197 C199 1.371 . S
N197 C200 1.372 . S
N198 C200 1.361 . S
N198 C201 1.377 . S
C199 N196 1.382 . S
C199 N197 1.371 . S
C199 C202 1.480 . S
C200 N197 1.372 . S
C200 N198 1.361 . S
C200 C208 1.457 . S
C201 N196 1.363 . S
C201 N198 1.377 . S
C201 C214 1.479 . S
C202 C199 1.480 . S
C202 C203 1.383 . S
C202 C207 1.385 . S
C203 H184 0.947 . S
C203 C202 1.383 . S
C203 C204 1.388 . S
C204 H185 0.946 . S
C204 C203 1.388 . S
C204 C205 1.384 . S
C205 C204 1.384 . S
C205 C206 1.377 . S
C206 H186 0.953 . S
C206 C205 1.377 . S
C206 C207 1.369 . S
C207 H187 0.945 . S
C207 C202 1.385 . S
C207 C206 1.369 . S
C208 C200 1.457 . S
C208 C209 1.372 . S
C208 C213 1.364 . S
C209 H188 0.952 . S
C209 C208 1.372 . S
C209 C210 1.389 . S
C210 H189 0.949 . S
C210 C209 1.389 . S
C210 C211 1.387 . S
C211 C210 1.387 . S
C211 C212 1.372 . S
C212 H190 0.950 . S
C212 C211 1.372 . S
C212 C213 1.379 . S
C213 H191 0.948 . S
C213 C208 1.364 . S
C213 C212 1.379 . S
C214 C183 1.383 . S
C214 C201 1.479 . S
C214 C215 1.398 . S
C215 C180 1.382 . S
C215 H192 0.951 . S
C215 C214 1.398 . S
C216 C217 1.384 . S
C216 H229 0.906 1_655 S
C216 C251 1.382 . S
C217 C216 1.384 . S
C217 C218 1.378 . S
C218 C217 1.378 . S
C218 C219 1.378 . S
C218 H230 0.952 . S
C219 C218 1.378 . S
C219 H231 0.950 . S
C219 C250 1.383 . S
H220 C239 0.947 . S
H221 C240 0.946 . S
H222 C242 0.953 . S
H223 C243 0.945 . S
H224 C245 0.952 . S
H225 C246 0.946 1_655 S
H226 C248 0.950 . S
H227 C249 0.948 . S
H228 C251 0.951 . S
H229 C216 0.906 1_455 S
H230 C218 0.952 . S
H231 C219 0.950 . S
N232 C235 1.382 . S
N232 C237 1.363 . S
N233 C235 1.371 . S
N233 C236 1.372 . S
N234 C236 1.361 . S
N234 C237 1.377 . S
C235 N232 1.382 . S
C235 N233 1.371 . S
C235 C238 1.480 . S
C236 N233 1.372 . S
C236 N234 1.361 . S
C236 C244 1.457 . S
C237 N232 1.363 . S
C237 N234 1.377 . S
C237 C250 1.479 . S
C238 C235 1.480 . S
C238 C239 1.383 . S
C238 C243 1.385 . S
C239 H220 0.947 . S
C239 C238 1.383 . S
C239 C240 1.388 . S
C240 H221 0.946 . S
C240 C239 1.388 . S
C240 C241 1.384 . S
C241 C240 1.384 . S
C241 C242 1.377 . S
C242 H222 0.953 . S
C242 C241 1.377 . S
C242 C243 1.369 . S
C243 H223 0.945 . S
C243 C238 1.385 . S
C243 C242 1.369 . S
C244 C236 1.457 . S
C244 C245 1.372 . S
C244 C249 1.364 1_655 S
C245 H224 0.952 . S
C245 C244 1.372 . S
C245 C246 1.381 1_655 S
C246 H225 0.946 1_455 S
C246 C245 1.381 1_455 S
C246 C247 1.397 . S
C247 C246 1.397 . S
C247 C248 1.372 . S
C248 H226 0.950 . S
C248 C247 1.372 . S
C248 C249 1.379 . S
C249 H227 0.948 . S
C249 C244 1.364 1_455 S
C249 C248 1.379 . S
C250 C219 1.383 . S
C250 C237 1.479 . S
C250 C251 1.398 . S
C251 C216 1.382 . S
C251 H228 0.951 . S
C251 C250 1.398 . S
C252 C253 1.384 . S
C252 H265 0.947 . S
C252 C287 1.382 . S
C253 C252 1.384 . S
C253 C254 1.378 . S
C254 C253 1.378 . S
C254 C255 1.378 . S
C254 H266 0.952 . S
C255 C254 1.378 . S
C255 H267 0.950 . S
C255 C286 1.383 . S
H256 C275 0.947 . S
H257 C276 0.946 . S
H258 C278 0.953 . S
H259 C279 0.945 . S
H260 C281 0.952 . S
H261 C282 0.949 . S
H262 C284 0.950 . S
H263 C285 0.948 . S
H264 C287 0.951 . S
H265 C252 0.947 . S
H266 C254 0.952 . S
H267 C255 0.950 . S
N268 C271 1.382 . S
N268 C273 1.363 . S
N269 C271 1.371 . S
N269 C272 1.372 . S
N270 C272 1.361 . S
N270 C273 1.377 . S
C271 N268 1.382 . S
C271 N269 1.371 . S
C271 C274 1.480 . S
C272 N269 1.372 . S
C272 N270 1.361 . S
C272 C280 1.457 . S
C273 N268 1.363 . S
C273 N270 1.377 . S
C273 C286 1.479 . S
C274 C271 1.480 . S
C274 C275 1.383 . S
C274 C279 1.385 . S
C275 H256 0.947 . S
C275 C274 1.383 . S
C275 C276 1.388 . S
C276 H257 0.946 . S
C276 C275 1.388 . S
C276 C277 1.384 . S
C277 C276 1.384 . S
C277 C278 1.377 . S
C278 H258 0.953 . S
C278 C277 1.377 . S
C278 C279 1.369 . S
C279 H259 0.945 . S
C279 C274 1.385 . S
C279 C278 1.369 . S
C280 C272 1.457 . S
C280 C281 1.372 . S
C280 C285 1.364 . S
C281 H260 0.952 . S
C281 C280 1.372 . S
C281 C282 1.389 . S
C282 H261 0.949 . S
C282 C281 1.389 . S
C282 C283 1.387 . S
C283 C282 1.387 . S
C283 C284 1.372 . S
C284 H262 0.950 . S
C284 C283 1.372 . S
C284 C285 1.379 . S
C285 H263 0.948 . S
C285 C280 1.364 . S
C285 C284 1.379 . S
C286 C255 1.383 . S
C286 C273 1.479 . S
C286 C287 1.398 . S
C287 C252 1.382 . S
C287 H264 0.951 . S
C287 C286 1.398 . S
C288 C289 1.384 . S
C288 H301 0.947 . S
C288 C323 1.382 . S
C289 C288 1.384 . S
C289 C290 1.378 . S
C290 C289 1.378 . S
C290 C291 1.378 . S
C290 H302 0.952 . S
C291 C290 1.378 . S
C291 H303 0.950 . S
C291 C322 1.383 . S
H292 C311 0.947 . S
H293 C312 0.946 . S
H294 C314 0.953 . S
H295 C315 0.945 . S
H296 C317 0.952 . S
H297 C318 0.949 . S
H298 C320 0.950 . S
H299 C321 0.948 . S
H300 C323 0.951 . S
H301 C288 0.947 . S
H302 C290 0.952 . S
H303 C291 0.950 . S
N304 C307 1.382 . S
N304 C309 1.363 . S
N305 C307 1.371 . S
N305 C308 1.372 . S
N306 C308 1.361 . S
N306 C309 1.377 . S
C307 N304 1.382 . S
C307 N305 1.371 . S
C307 C310 1.480 . S
C308 N305 1.372 . S
C308 N306 1.361 . S
C308 C316 1.457 . S
C309 N304 1.363 . S
C309 N306 1.377 . S
C309 C322 1.479 . S
C310 C307 1.480 . S
C310 C311 1.383 . S
C310 C315 1.385 . S
C311 H292 0.947 . S
C311 C310 1.383 . S
C311 C312 1.388 . S
C312 H293 0.946 . S
C312 C311 1.388 . S
C312 C313 1.384 . S
C313 C312 1.384 . S
C313 C314 1.377 . S
C314 H294 0.953 . S
C314 C313 1.377 . S
C314 C315 1.369 . S
C315 H295 0.945 . S
C315 C310 1.385 . S
C315 C314 1.369 . S
C316 C308 1.457 . S
C316 C317 1.372 . S
C316 C321 1.364 . S
C317 H296 0.952 . S
C317 C316 1.372 . S
C317 C318 1.389 . S
C318 H297 0.949 . S
C318 C317 1.389 . S
C318 C319 1.387 . S
C319 C318 1.387 . S
C319 C320 1.372 . S
C320 H298 0.950 . S
C320 C319 1.372 . S
C320 C321 1.379 . S
C321 H299 0.948 . S
C321 C316 1.364 . S
C321 C320 1.379 . S
C322 C291 1.383 . S
C322 C309 1.479 . S
C322 C323 1.398 . S
C323 C288 1.382 . S
C323 H300 0.951 . S
C323 C322 1.398 . S
C324 C325 1.384 . S
C324 H337 0.947 . S
C324 C359 1.382 . S
C325 C324 1.384 . S
C325 C326 1.378 . S
C326 C325 1.378 . S
C326 C327 1.378 . S
C326 H338 0.952 . S
C327 C326 1.378 . S
C327 H339 0.950 . S
C327 C358 1.383 . S
H328 C347 0.947 . S
H329 C348 0.946 . S
H330 C350 0.953 . S
H331 C351 0.945 . S
H332 C353 0.952 . S
H333 C354 0.949 . S
H334 C356 0.950 . S
H335 C357 0.948 . S
H336 C359 0.951 . S
H337 C324 0.947 . S
H338 C326 0.952 . S
H339 C327 0.950 . S
N340 C343 1.382 . S
N340 C345 1.363 . S
N341 C343 1.371 . S
N341 C344 1.372 . S
N342 C344 1.361 . S
N342 C345 1.377 . S
C343 N340 1.382 . S
C343 N341 1.371 . S
C343 C346 1.480 . S
C344 N341 1.372 . S
C344 N342 1.361 . S
C344 C352 1.457 . S
C345 N340 1.363 . S
C345 N342 1.377 . S
C345 C358 1.479 . S
C346 C343 1.480 . S
C346 C347 1.383 . S
C346 C351 1.385 1_565 S
C347 H328 0.947 . S
C347 C346 1.383 . S
C347 C348 1.388 . S
C348 H329 0.946 . S
C348 C347 1.388 . S
C348 C349 1.384 1_565 S
C349 C348 1.384 1_545 S
C349 C350 1.377 . S
C350 H330 0.953 . S
C350 C349 1.377 . S
C350 C351 1.369 . S
C351 H331 0.945 . S
C351 C346 1.385 1_545 S
C351 C350 1.369 . S
C352 C344 1.457 . S
C352 C353 1.372 . S
C352 C357 1.364 . S
C353 H332 0.952 . S
C353 C352 1.372 . S
C353 C354 1.389 . S
C354 H333 0.949 . S
C354 C353 1.389 . S
C354 C355 1.387 . S
C355 C354 1.387 . S
C355 C356 1.372 . S
C356 H334 0.950 . S
C356 C355 1.372 . S
C356 C357 1.379 . S
C357 H335 0.948 . S
C357 C352 1.364 . S
C357 C356 1.379 . S
C358 C327 1.383 . S
C358 C345 1.479 . S
C358 C359 1.398 . S
C359 C324 1.382 . S
C359 H336 0.951 . S
C359 C358 1.398 . S
C360 C361 1.384 . S
C360 H373 0.947 . S
C360 C395 1.382 . S
C361 C360 1.384 . S
C361 C362 1.378 . S
C362 C361 1.378 . S
C362 C363 1.378 . S
C362 H374 0.952 . S
C363 C362 1.378 . S
C363 H375 0.950 . S
C363 C394 1.383 . S
H364 C383 0.947 . S
H365 C384 0.946 . S
H366 C386 0.953 . S
H367 C387 0.945 . S
H368 C389 0.952 . S
H369 C390 0.949 . S
H370 C392 0.950 . S
H371 C393 0.948 . S
H372 C395 0.951 . S
H373 C360 0.947 . S
H374 C362 0.952 . S
H375 C363 0.950 . S
N376 C379 1.382 . S
N376 C381 1.363 . S
N377 C379 1.371 . S
N377 C380 1.372 . S
N378 C380 1.361 . S
N378 C381 1.377 . S
C379 N376 1.382 . S
C379 N377 1.371 . S
C379 C382 1.480 . S
C380 N377 1.372 . S
C380 N378 1.361 . S
C380 C388 1.457 . S
C381 N376 1.363 . S
C381 N378 1.377 . S
C381 C394 1.479 . S
C382 C379 1.480 . S
C382 C383 1.383 . S
C382 C387 1.385 . S
C383 H364 0.947 . S
C383 C382 1.383 . S
C383 C384 1.388 . S
C384 H365 0.946 . S
C384 C383 1.388 . S
C384 C385 1.384 . S
C385 C384 1.384 . S
C385 C386 1.377 . S
C386 H366 0.953 . S
C386 C385 1.377 . S
C386 C387 1.369 . S
C387 H367 0.945 . S
C387 C382 1.385 . S
C387 C386 1.369 . S
C388 C380 1.457 . S
C388 C389 1.372 . S
C388 C393 1.364 . S
C389 H368 0.952 . S
C389 C388 1.372 . S
C389 C390 1.389 . S
C390 H369 0.949 . S
C390 C389 1.389 . S
C390 C391 1.387 . S
C391 C390 1.387 . S
C391 C392 1.372 . S
C392 H370 0.950 . S
C392 C391 1.372 . S
C392 C393 1.379 . S
C393 H371 0.948 . S
C393 C388 1.364 . S
C393 C392 1.379 . S
C394 C363 1.383 . S
C394 C381 1.479 . S
C394 C395 1.398 . S
C395 C360 1.382 . S
C395 H372 0.951 . S
C395 C394 1.398 . S
C396 C397 1.384 . S
C396 H409 0.947 . S
C396 C431 1.382 . S
C397 C396 1.384 . S
C397 C398 1.378 . S
C398 C397 1.378 . S
C398 C399 1.378 . S
C398 H410 0.952 . S
C399 C398 1.378 . S
C399 H411 0.950 . S
C399 C430 1.383 . S
H400 C419 0.947 . S
H401 C420 0.946 . S
H402 C422 0.953 . S
H403 C423 0.945 . S
H404 C425 0.952 . S
H405 C426 0.949 . S
H406 C428 0.950 . S
H407 C429 0.948 . S
H408 C431 0.951 . S
H409 C396 0.947 . S
H410 C398 0.952 . S
H411 C399 0.950 . S
N412 C415 1.382 . S
N412 C417 1.363 . S
N413 C415 1.371 . S
N413 C416 1.372 . S
N414 C416 1.361 . S
N414 C417 1.377 . S
C415 N412 1.382 . S
C415 N413 1.371 . S
C415 C418 1.480 . S
C416 N413 1.372 . S
C416 N414 1.361 . S
C416 C424 1.457 . S
C417 N412 1.363 . S
C417 N414 1.377 . S
C417 C430 1.479 . S
C418 C415 1.480 . S
C418 C419 1.383 . S
C418 C423 1.385 . S
C419 H400 0.947 . S
C419 C418 1.383 . S
C419 C420 1.388 . S
C420 H401 0.946 . S
C420 C419 1.388 . S
C420 C421 1.384 . S
C421 C420 1.384 . S
C421 C422 1.377 . S
C422 H402 0.953 . S
C422 C421 1.377 . S
C422 C423 1.369 . S
C423 H403 0.945 . S
C423 C418 1.385 . S
C423 C422 1.369 . S
C424 C416 1.457 . S
C424 C425 1.372 . S
C424 C429 1.364 . S
C425 H404 0.952 . S
C425 C424 1.372 . S
C425 C426 1.389 . S
C426 H405 0.949 . S
C426 C425 1.389 . S
C426 C427 1.387 . S
C427 C426 1.387 . S
C427 C428 1.372 . S
C428 H406 0.950 . S
C428 C427 1.372 . S
C428 C429 1.379 . S
C429 H407 0.948 . S
C429 C424 1.364 . S
C429 C428 1.379 . S
C430 C399 1.383 . S
C430 C417 1.479 . S
C430 C431 1.398 . S
C431 C396 1.382 . S
C431 H408 0.951 . S
C431 C430 1.398 . S
C432 C433 1.384 . S
C432 H445 0.947 . S
C432 C467 1.382 . S
C433 C432 1.384 . S
C433 C434 1.378 . S
C434 C433 1.378 . S
C434 C435 1.378 . S
C434 H446 0.952 . S
C435 C434 1.378 . S
C435 H447 0.950 . S
C435 C466 1.383 . S
H436 C455 0.947 . S
H437 C456 0.946 . S
H438 C458 0.953 . S
H439 C459 0.945 . S
H440 C461 0.952 . S
H441 C462 0.949 . S
H442 C464 0.950 . S
H443 C465 0.948 . S
H444 C467 0.951 . S
H445 C432 0.947 . S
H446 C434 0.952 . S
H447 C435 0.950 . S
N448 C451 1.382 . S
N448 C453 1.363 . S
N449 C451 1.371 . S
N449 C452 1.372 . S
N450 C452 1.361 . S
N450 C453 1.377 . S
C451 N448 1.382 . S
C451 N449 1.371 . S
C451 C454 1.480 . S
C452 N449 1.372 . S
C452 N450 1.361 . S
C452 C460 1.457 . S
C453 N448 1.363 . S
C453 N450 1.377 . S
C453 C466 1.479 . S
C454 C451 1.480 . S
C454 C455 1.383 . S
C454 C459 1.385 . S
C455 H436 0.947 . S
C455 C454 1.383 . S
C455 C456 1.388 . S
C456 H437 0.946 . S
C456 C455 1.388 . S
C456 C457 1.384 . S
C457 C456 1.384 . S
C457 C458 1.377 . S
C458 H438 0.953 . S
C458 C457 1.377 . S
C458 C459 1.369 . S
C459 H439 0.945 . S
C459 C454 1.385 . S
C459 C458 1.369 . S
C460 C452 1.457 . S
C460 C461 1.372 . S
C460 C465 1.364 . S
C461 H440 0.952 . S
C461 C460 1.372 . S
C461 C462 1.389 . S
C462 H441 0.949 . S
C462 C461 1.389 . S
C462 C463 1.387 . S
C463 C462 1.387 . S
C463 C464 1.372 . S
C464 H442 0.950 . S
C464 C463 1.372 . S
C464 C465 1.379 . S
C465 H443 0.948 . S
C465 C460 1.364 . S
C465 C464 1.379 . S
C466 C435 1.383 . S
C466 C453 1.479 . S
C466 C467 1.398 . S
C467 C432 1.382 . S
C467 H444 0.951 . S
C467 C466 1.398 . S
C468 C469 1.384 . S
C468 H481 0.947 . S
C468 C503 1.353 1_554 S
C469 C468 1.384 . S
C469 C470 1.378 1_554 S
C470 C469 1.378 1_556 S
C470 C471 1.378 . S
C470 H482 0.952 . S
C471 C470 1.378 . S
C471 H483 0.950 . S
C471 C502 1.383 . S
H472 C491 0.947 . S
H473 C492 0.946 . S
H474 C494 0.953 . S
H475 C495 0.945 . S
H476 C497 0.952 . S
H477 C498 0.949 . S
H478 C500 0.950 . S
H479 C501 0.948 . S
H480 C503 0.944 1_554 S
H481 C468 0.947 . S
H482 C470 0.952 . S
H483 C471 0.950 . S
N484 C487 1.382 . S
N484 C489 1.363 . S
N485 C487 1.371 . S
N485 C488 1.372 . S
N486 C488 1.361 . S
N486 C489 1.377 . S
C487 N484 1.382 . S
C487 N485 1.371 . S
C487 C490 1.480 . S
C488 N485 1.372 . S
C488 N486 1.361 . S
C488 C496 1.457 . S
C489 N484 1.363 . S
C489 N486 1.377 . S
C489 C502 1.479 . S
C490 C487 1.480 . S
C490 C491 1.383 . S
C490 C495 1.385 . S
C491 H472 0.947 . S
C491 C490 1.383 . S
C491 C492 1.388 . S
C492 H473 0.946 . S
C492 C491 1.388 . S
C492 C493 1.384 . S
C493 C492 1.384 . S
C493 C494 1.377 . S
C494 H474 0.953 . S
C494 C493 1.377 . S
C494 C495 1.369 . S
C495 H475 0.945 . S
C495 C490 1.385 . S
C495 C494 1.369 . S
C496 C488 1.457 . S
C496 C497 1.372 . S
C496 C501 1.364 . S
C497 H476 0.952 . S
C497 C496 1.372 . S
C497 C498 1.389 . S
C498 H477 0.949 . S
C498 C497 1.389 . S
C498 C499 1.387 . S
C499 C498 1.387 . S
C499 C500 1.372 . S
C500 H478 0.950 . S
C500 C499 1.372 . S
C500 C501 1.379 . S
C501 H479 0.948 . S
C501 C496 1.364 . S
C501 C500 1.379 . S
C502 C471 1.383 . S
C502 C489 1.479 . S
C502 C503 1.436 . S
C503 C468 1.353 1_556 S
C503 H480 0.944 1_556 S
C503 C502 1.436 . S
C504 C505 1.384 . S
C504 H517 0.947 . S
C504 C539 1.382 . S
C505 C504 1.384 . S
C505 C506 1.378 . S
C506 C505 1.378 . S
C506 C507 1.378 . S
C506 H518 0.952 . S
C507 C506 1.378 . S
C507 H519 0.950 . S
C507 C538 1.383 . S
H508 C527 0.947 . S
H509 C528 0.946 . S
H510 C530 0.953 . S
H511 C531 0.945 . S
H512 C533 0.952 . S
H513 C534 0.949 . S
H514 C536 0.950 . S
H515 C537 0.948 . S
H516 C539 0.951 . S
H517 C504 0.947 . S
H518 C506 0.952 . S
H519 C507 0.950 . S
N520 C523 1.382 . S
N520 C525 1.363 . S
N521 C523 1.371 . S
N521 C524 1.372 . S
N522 C524 1.361 . S
N522 C525 1.377 . S
C523 N520 1.382 . S
C523 N521 1.371 . S
C523 C526 1.480 . S
C524 N521 1.372 . S
C524 N522 1.361 . S
C524 C532 1.457 . S
C525 N520 1.363 . S
C525 N522 1.377 . S
C525 C538 1.479 . S
C526 C523 1.480 . S
C526 C527 1.383 . S
C526 C531 1.385 . S
C527 H508 0.947 . S
C527 C526 1.383 . S
C527 C528 1.388 . S
C528 H509 0.946 . S
C528 C527 1.388 . S
C528 C529 1.384 . S
C529 C528 1.384 . S
C529 C530 1.377 . S
C530 H510 0.953 . S
C530 C529 1.377 . S
C530 C531 1.369 . S
C531 H511 0.945 . S
C531 C526 1.385 . S
C531 C530 1.369 . S
C532 C524 1.457 . S
C532 C533 1.372 . S
C532 C537 1.364 . S
C533 H512 0.952 . S
C533 C532 1.372 . S
C533 C534 1.389 . S
C534 H513 0.949 . S
C534 C533 1.389 . S
C534 C535 1.387 . S
C535 C534 1.387 . S
C535 C536 1.372 . S
C536 H514 0.950 . S
C536 C535 1.372 . S
C536 C537 1.379 . S
C537 H515 0.948 . S
C537 C532 1.364 . S
C537 C536 1.379 . S
C538 C507 1.383 . S
C538 C525 1.479 . S
C538 C539 1.398 . S
C539 C504 1.382 . S
C539 H516 0.951 . S
C539 C538 1.398 . S
C540 C541 1.406 . S
C540 H553 0.942 1_554 S
C540 C575 1.366 1_554 S
C541 C540 1.406 . S
C541 C542 1.378 . S
C542 C541 1.378 . S
C542 C543 1.378 . S
C542 H554 0.952 . S
C543 C542 1.378 . S
C543 H555 0.950 . S
C543 C574 1.383 1_554 S
H544 C563 0.947 . S
H545 C564 0.946 . S
H546 C566 0.953 . S
H547 C567 0.943 1_565 S
H548 C569 0.952 . S
H549 C570 0.949 . S
H550 C572 0.950 . S
H551 C573 0.948 . S
H552 C575 0.951 . S
H553 C540 0.942 1_556 S
H554 C542 0.952 . S
H555 C543 0.950 . S
N556 C559 1.382 . S
N556 C561 1.363 . S
N557 C559 1.371 . S
N557 C560 1.372 . S
N558 C560 1.361 . S
N558 C561 1.377 . S
C559 N556 1.382 . S
C559 N557 1.371 . S
C559 C562 1.480 . S
C560 N557 1.372 . S
C560 N558 1.361 . S
C560 C568 1.457 . S
C561 N556 1.363 . S
C561 N558 1.377 . S
C561 C574 1.479 . S
C562 C559 1.480 . S
C562 C563 1.383 . S
C562 C567 1.392 . S
C563 H544 0.947 . S
C563 C562 1.383 . S
C563 C564 1.388 . S
C564 H545 0.946 . S
C564 C563 1.388 . S
C564 C565 1.384 1_545 S
C565 C564 1.384 1_565 S
C565 C566 1.377 . S
C566 H546 0.953 . S
C566 C565 1.377 . S
C566 C567 1.365 1_565 S
C567 H547 0.943 1_545 S
C567 C562 1.392 . S
C567 C566 1.365 1_545 S
C568 C560 1.457 . S
C568 C569 1.372 . S
C568 C573 1.364 . S
C569 H548 0.952 . S
C569 C568 1.372 . S
C569 C570 1.389 . S
C570 H549 0.949 . S
C570 C569 1.389 . S
C570 C571 1.387 . S
C571 C570 1.387 . S
C571 C572 1.372 . S
C572 H550 0.950 . S
C572 C571 1.372 . S
C572 C573 1.379 . S
C573 H551 0.948 . S
C573 C568 1.364 . S
C573 C572 1.379 . S
C574 C543 1.383 1_556 S
C574 C561 1.479 . S
C574 C575 1.398 . S
C575 C540 1.366 1_556 S
C575 H552 0.951 . S
C575 C574 1.398 . S
Mn576 O581 2.095 . S
Mn576 O591 2.162 . S
Mn576 O592 2.297 . S
Mn576 O600 2.385 . S
Mn576 O601 2.209 1_554 S
Mn576 O602 2.094 . S
Mn577 O582 2.121 . S
Mn577 N584 2.257 . S
Mn577 N593 2.282 . S
Mn577 O601 2.215 . S
Mn577 O603 2.117 . S
C578 O600 1.234 1_556 S
C578 O601 1.283 . S
C579 O591 1.281 . S
C579 O592 1.236 . S
C580 O602 1.240 . S
C580 O603 1.264 1_554 S
O581 Mn576 2.095 . S
O581 C590 1.250 . S
O582 Mn577 2.121 . S
O582 C590 1.258 1_556 S
C583 N584 1.326 . S
C583 C587 1.460 . S
C583 H589 0.929 . S
N584 Mn577 2.257 . S
N584 C583 1.326 . S
N584 C588 1.362 . S
C585 C586 1.258 . S
C585 C588 1.431 . S
C585 C605 1.449 . S
C586 C585 1.258 . S
C586 C587 1.477 . S
C586 H606 0.931 . S
C587 C583 1.460 . S
C587 C586 1.477 . S
C587 H607 0.930 . S
C588 N584 1.362 . S
C588 C585 1.431 . S
C588 C598 1.476 . S
H589 C583 0.929 . S
C590 O581 1.250 . S
C590 O582 1.258 1_554 S
O591 Mn576 2.162 . S
O591 C579 1.281 . S
O592 Mn576 2.297 . S
O592 C579 1.236 . S
N593 Mn577 2.282 . S
N593 C594 1.328 . S
N593 C598 1.318 . S
C594 N593 1.328 . S
C594 C595 1.457 . S
C594 H599 0.929 . S
C595 C594 1.457 . S
C595 C596 1.291 . S
C595 H608 0.931 . S
C596 C595 1.291 . S
C596 C597 1.373 . S
C596 H609 0.929 . S
C597 C596 1.373 . S
C597 C598 1.396 . S
C597 C604 1.403 . S
C598 C588 1.476 . S
C598 N593 1.318 . S
C598 C597 1.396 . S
H599 C594 0.929 . S
O600 Mn576 2.385 . S
O600 C578 1.234 1_554 S
O601 Mn576 2.209 1_556 S
O601 Mn577 2.215 . S
O601 C578 1.283 . S
O602 Mn576 2.094 . S
O602 C580 1.240 . S
O603 Mn577 2.117 . S
O603 C580 1.264 1_556 S
C604 C597 1.403 . S
C604 C605 1.399 . S
C604 H610 0.929 . S
C605 C585 1.449 . S
C605 C604 1.399 . S
C605 H611 0.930 . S
H606 C586 0.931 . S
H607 C587 0.930 . S
H608 C595 0.931 . S
H609 C596 0.929 . S
H610 C604 0.929 . S
H611 C605 0.930 . S
Mn612 O617 2.095 . S
Mn612 O627 2.162 . S
Mn612 O628 2.297 . S
Mn612 O636 2.385 . S
Mn612 O637 2.209 . S
Mn612 O638 2.094 . S
Mn613 O618 2.121 . S
Mn613 N620 2.257 . S
Mn613 N629 2.282 . S
Mn613 O637 2.215 . S
Mn613 O639 2.117 . S
C614 O636 1.234 . S
C614 O637 1.283 . S
C615 O627 1.281 . S
C615 O628 1.236 . S
C616 O638 1.240 . S
C616 O639 1.264 . S
O617 Mn612 2.095 . S
O617 C626 1.250 . S
O618 Mn613 2.121 . S
O618 C626 1.258 . S
C619 N620 1.326 . S
C619 C623 1.460 . S
C619 H625 0.929 . S
N620 Mn613 2.257 . S
N620 C619 1.326 . S
N620 C624 1.362 . S
C621 C622 1.258 . S
C621 C624 1.431 . S
C621 C641 1.449 . S
C622 C621 1.258 . S
C622 C623 1.477 . S
C622 H642 0.931 . S
C623 C619 1.460 . S
C623 C622 1.477 . S
C623 H643 0.930 . S
C624 N620 1.362 . S
C624 C621 1.431 . S
C624 C634 1.476 . S
H625 C619 0.929 . S
C626 O617 1.250 . S
C626 O618 1.258 . S
O627 Mn612 2.162 . S
O627 C615 1.281 . S
O628 Mn612 2.297 . S
O628 C615 1.236 . S
N629 Mn613 2.282 . S
N629 C630 1.328 . S
N629 C634 1.318 . S
C630 N629 1.328 . S
C630 C631 1.457 . S
C630 H635 0.929 . S
C631 C630 1.457 . S
C631 C632 1.291 . S
C631 H644 0.931 . S
C632 C631 1.291 . S
C632 C633 1.373 . S
C632 H645 0.929 . S
C633 C632 1.373 . S
C633 C634 1.396 . S
C633 C640 1.403 . S
C634 C624 1.476 . S
C634 N629 1.318 . S
C634 C633 1.396 . S
H635 C630 0.929 . S
O636 Mn612 2.385 . S
O636 C614 1.234 . S
O637 Mn612 2.209 . S
O637 Mn613 2.215 . S
O637 C614 1.283 . S
O638 Mn612 2.094 . S
O638 C616 1.240 . S
O639 Mn613 2.117 . S
O639 C616 1.264 . S
C640 C633 1.403 . S
C640 C641 1.399 . S
C640 H646 0.929 . S
C641 C621 1.449 . S
C641 C640 1.399 . S
C641 H647 0.930 . S
H642 C622 0.931 . S
H643 C623 0.930 . S
H644 C631 0.931 . S
H645 C632 0.929 . S
H646 C640 0.929 . S
H647 C641 0.930 . S
Mn648 O653 2.095 1_554 S
Mn648 O663 2.162 . S
Mn648 O664 2.297 1_554 S
Mn648 O672 2.385 . S
Mn648 O673 2.209 1_554 S
Mn648 O674 2.094 . S
Mn649 O654 2.121 . S
Mn649 N656 2.257 . S
Mn649 N665 2.282 . S
Mn649 O673 2.215 . S
Mn649 O675 2.117 1_556 S
C650 O672 1.252 . S
C650 O673 1.271 1_554 S
C651 O663 1.281 . S
C651 O664 1.236 1_554 S
C652 O674 1.240 . S
C652 O675 1.264 . S
O653 Mn648 2.095 1_556 S
O653 C662 1.250 . S
O654 Mn649 2.121 . S
O654 C662 1.258 . S
C655 N656 1.326 . S
C655 C659 1.460 . S
C655 H661 0.929 . S
N656 Mn649 2.257 . S
N656 C655 1.326 . S
N656 C660 1.362 . S
C657 C658 1.258 . S
C657 C660 1.431 . S
C657 C677 1.449 . S
C658 C657 1.258 . S
C658 C659 1.477 . S
C658 H678 0.931 . S
C659 C655 1.460 . S
C659 C658 1.477 . S
C659 H679 0.930 . S
C660 N656 1.362 . S
C660 C657 1.431 . S
C660 C670 1.476 . S
H661 C655 0.929 . S
C662 O653 1.250 . S
C662 O654 1.258 . S
O663 Mn648 2.162 . S
O663 C651 1.281 . S
O664 Mn648 2.297 1_556 S
O664 C651 1.236 1_556 S
N665 Mn649 2.282 . S
N665 C666 1.328 1_556 S
N665 C670 1.318 . S
C666 N665 1.328 1_554 S
C666 C667 1.457 . S
C666 H671 0.929 . S
C667 C666 1.457 . S
C667 C668 1.291 . S
C667 H680 0.931 . S
C668 C667 1.291 . S
C668 C669 1.373 1_554 S
C668 H681 0.929 . S
C669 C668 1.373 1_556 S
C669 C670 1.396 . S
C669 C676 1.403 . S
C670 C660 1.476 . S
C670 N665 1.318 . S
C670 C669 1.396 . S
H671 C666 0.929 . S
O672 Mn648 2.385 . S
O672 C650 1.252 . S
O673 Mn648 2.209 1_556 S
O673 Mn649 2.215 . S
O673 C650 1.271 1_556 S
O674 Mn648 2.094 . S
O674 C652 1.240 . S
O675 Mn649 2.117 1_554 S
O675 C652 1.264 . S
C676 C669 1.403 . S
C676 C677 1.399 . S
C676 H682 0.929 . S
C677 C657 1.449 . S
C677 C676 1.399 . S
C677 H683 0.930 . S
H678 C658 0.931 . S
H679 C659 0.930 . S
H680 C667 0.931 . S
H681 C668 0.929 . S
H682 C676 0.929 . S
H683 C677 0.930 . S
Mn684 O689 2.095 . S
Mn684 O699 2.162 . S
Mn684 O700 2.297 . S
Mn684 O708 2.385 . S
Mn684 O709 2.209 1_545 S
Mn684 O710 2.094 . S
Mn685 O690 2.121 . S
Mn685 N692 2.257 . S
Mn685 N701 2.282 . S
Mn685 O709 2.215 . S
Mn685 O711 2.117 . S
C686 O708 1.234 1_565 S
C686 O709 1.283 . S
C687 O699 1.281 . S
C687 O700 1.236 . S
C688 O710 1.240 . S
C688 O711 1.264 1_545 S
O689 Mn684 2.095 . S
O689 C698 1.250 . S
O690 Mn685 2.121 . S
O690 C698 1.258 1_565 S
C691 N692 1.326 . S
C691 C695 1.460 . S
C691 H697 0.929 . S
N692 Mn685 2.257 . S
N692 C691 1.326 . S
N692 C696 1.362 . S
C693 C694 1.258 . S
C693 C696 1.431 . S
C693 C713 1.449 . S
C694 C693 1.258 . S
C694 C695 1.477 . S
C694 H714 0.931 . S
C695 C691 1.460 . S
C695 C694 1.477 . S
C695 H715 0.930 . S
C696 N692 1.362 . S
C696 C693 1.431 . S
C696 C706 1.476 . S
H697 C691 0.929 . S
C698 O689 1.250 . S
C698 O690 1.258 1_545 S
O699 Mn684 2.162 . S
O699 C687 1.281 . S
O700 Mn684 2.297 . S
O700 C687 1.236 . S
N701 Mn685 2.282 . S
N701 C702 1.328 . S
N701 C706 1.318 . S
C702 N701 1.328 . S
C702 C703 1.457 . S
C702 H707 0.929 . S
C703 C702 1.457 . S
C703 C704 1.291 . S
C703 H716 0.931 . S
C704 C703 1.291 . S
C704 C705 1.373 . S
C704 H717 0.929 . S
C705 C704 1.373 . S
C705 C706 1.396 . S
C705 C712 1.403 . S
C706 C696 1.476 . S
C706 N701 1.318 . S
C706 C705 1.396 . S
H707 C702 0.929 . S
O708 Mn684 2.385 . S
O708 C686 1.234 1_545 S
O709 Mn684 2.209 1_565 S
O709 Mn685 2.215 . S
O709 C686 1.283 . S
O710 Mn684 2.094 . S
O710 C688 1.240 . S
O711 Mn685 2.117 . S
O711 C688 1.264 1_565 S
C712 C705 1.403 . S
C712 C713 1.399 . S
C712 H718 0.929 . S
C713 C693 1.449 . S
C713 C712 1.399 . S
C713 H719 0.930 . S
H714 C694 0.931 . S
H715 C695 0.930 . S
H716 C703 0.931 . S
H717 C704 0.929 . S
H718 C712 0.929 . S
H719 C713 0.930 . S
Mn720 O725 2.095 . S
Mn720 O735 2.162 . S
Mn720 O736 2.297 . S
Mn720 O744 2.385 . S
Mn720 O745 2.209 . S
Mn720 O746 2.094 . S
Mn721 O726 2.121 . S
Mn721 N728 2.257 . S
Mn721 N737 2.282 . S
Mn721 O745 2.215 . S
Mn721 O747 2.117 . S
C722 O744 1.234 . S
C722 O745 1.283 . S
C723 O735 1.281 . S
C723 O736 1.236 . S
C724 O746 1.240 . S
C724 O747 1.264 . S
O725 Mn720 2.095 . S
O725 C734 1.250 . S
O726 Mn721 2.121 . S
O726 C734 1.258 . S
C727 N728 1.326 . S
C727 C731 1.460 . S
C727 H733 0.929 . S
N728 Mn721 2.257 . S
N728 C727 1.326 . S
N728 C732 1.362 . S
C729 C730 1.258 . S
C729 C732 1.431 . S
C729 C749 1.449 . S
C730 C729 1.258 . S
C730 C731 1.477 . S
C730 H750 0.931 . S
C731 C727 1.460 . S
C731 C730 1.477 . S
C731 H751 0.930 . S
C732 N728 1.362 . S
C732 C729 1.431 . S
C732 C742 1.476 . S
H733 C727 0.929 . S
C734 O725 1.250 . S
C734 O726 1.258 . S
O735 Mn720 2.162 . S
O735 C723 1.281 . S
O736 Mn720 2.297 . S
O736 C723 1.236 . S
N737 Mn721 2.282 . S
N737 C738 1.328 . S
N737 C742 1.318 . S
C738 N737 1.328 . S
C738 C739 1.457 . S
C738 H743 0.929 . S
C739 C738 1.457 . S
C739 C740 1.291 . S
C739 H752 0.931 . S
C740 C739 1.291 . S
C740 C741 1.373 . S
C740 H753 0.929 . S
C741 C740 1.373 . S
C741 C742 1.396 . S
C741 C748 1.403 . S
C742 C732 1.476 . S
C742 N737 1.318 . S
C742 C741 1.396 . S
H743 C738 0.929 . S
O744 Mn720 2.385 . S
O744 C722 1.234 . S
O745 Mn720 2.209 . S
O745 Mn721 2.215 . S
O745 C722 1.283 . S
O746 Mn720 2.094 . S
O746 C724 1.240 . S
O747 Mn721 2.117 . S
O747 C724 1.264 . S
C748 C741 1.403 . S
C748 C749 1.399 . S
C748 H754 0.929 . S
C749 C729 1.449 . S
C749 C748 1.399 . S
C749 H755 0.930 . S
H750 C730 0.931 . S
H751 C731 0.930 . S
H752 C739 0.931 . S
H753 C740 0.929 . S
H754 C748 0.929 . S
H755 C749 0.930 . S
Mn756 O761 2.095 . S
Mn756 O771 2.162 . S
Mn756 O772 2.297 . S
Mn756 O780 2.385 . S
Mn756 O781 2.209 . S
Mn756 O782 2.094 . S
Mn757 O762 2.121 . S
Mn757 N764 2.257 . S
Mn757 N773 2.282 . S
Mn757 O781 2.215 . S
Mn757 O783 2.117 . S
C758 O780 1.234 . S
C758 O781 1.283 . S
C759 O771 1.281 . S
C759 O772 1.236 . S
C760 O782 1.240 . S
C760 O783 1.264 . S
O761 Mn756 2.095 . S
O761 C770 1.250 . S
O762 Mn757 2.121 . S
O762 C770 1.258 . S
C763 N764 1.326 . S
C763 C767 1.460 . S
C763 H769 0.929 . S
N764 Mn757 2.257 . S
N764 C763 1.326 . S
N764 C768 1.362 . S
C765 C766 1.258 . S
C765 C768 1.431 . S
C765 C785 1.449 . S
C766 C765 1.258 . S
C766 C767 1.477 . S
C766 H786 0.931 . S
C767 C763 1.460 . S
C767 C766 1.477 . S
C767 H787 0.930 . S
C768 N764 1.362 . S
C768 C765 1.431 . S
C768 C778 1.476 . S
H769 C763 0.929 . S
C770 O761 1.250 . S
C770 O762 1.258 . S
O771 Mn756 2.162 . S
O771 C759 1.281 . S
O772 Mn756 2.297 . S
O772 C759 1.236 . S
N773 Mn757 2.282 . S
N773 C774 1.328 . S
N773 C778 1.318 . S
C774 N773 1.328 . S
C774 C775 1.457 . S
C774 H779 0.929 . S
C775 C774 1.457 . S
C775 C776 1.291 . S
C775 H788 0.931 . S
C776 C775 1.291 . S
C776 C777 1.373 . S
C776 H789 0.929 . S
C777 C776 1.373 . S
C777 C778 1.396 . S
C777 C784 1.403 . S
C778 C768 1.476 . S
C778 N773 1.318 . S
C778 C777 1.396 . S
H779 C774 0.929 . S
O780 Mn756 2.385 . S
O780 C758 1.234 . S
O781 Mn756 2.209 . S
O781 Mn757 2.215 . S
O781 C758 1.283 . S
O782 Mn756 2.094 . S
O782 C760 1.240 . S
O783 Mn757 2.117 . S
O783 C760 1.264 . S
C784 C777 1.403 . S
C784 C785 1.399 . S
C784 H790 0.929 . S
C785 C765 1.449 . S
C785 C784 1.399 . S
C785 H791 0.930 . S
H786 C766 0.931 . S
H787 C767 0.930 . S
H788 C775 0.931 . S
H789 C776 0.929 . S
H790 C784 0.929 . S
H791 C785 0.930 . S
Mn792 O797 2.095 . S
Mn792 O807 2.162 . S
Mn792 O808 2.297 . S
Mn792 O816 2.385 . S
Mn792 O817 2.209 . S
Mn792 O818 2.094 . S
Mn793 O798 2.121 . S
Mn793 N800 2.257 . S
Mn793 N809 2.282 . S
Mn793 O817 2.215 . S
Mn793 O819 2.117 . S
C794 O816 1.234 . S
C794 O817 1.283 . S
C795 O807 1.281 . S
C795 O808 1.236 . S
C796 O818 1.240 . S
C796 O819 1.264 . S
O797 Mn792 2.095 . S
O797 C806 1.250 . S
O798 Mn793 2.121 . S
O798 C806 1.258 . S
C799 N800 1.326 . S
C799 C803 1.460 . S
C799 H805 0.929 . S
N800 Mn793 2.257 . S
N800 C799 1.326 . S
N800 C804 1.362 . S
C801 C802 1.258 . S
C801 C804 1.431 . S
C801 C821 1.449 . S
C802 C801 1.258 . S
C802 C803 1.477 . S
C802 H822 0.931 . S
C803 C799 1.460 . S
C803 C802 1.477 . S
C803 H823 0.930 . S
C804 N800 1.362 . S
C804 C801 1.431 . S
C804 C814 1.476 . S
H805 C799 0.929 . S
C806 O797 1.250 . S
C806 O798 1.258 . S
O807 Mn792 2.162 . S
O807 C795 1.281 . S
O808 Mn792 2.297 . S
O808 C795 1.236 . S
N809 Mn793 2.282 . S
N809 C810 1.328 . S
N809 C814 1.318 . S
C810 N809 1.328 . S
C810 C811 1.457 . S
C810 H815 0.929 . S
C811 C810 1.457 . S
C811 C812 1.291 . S
C811 H824 0.931 . S
C812 C811 1.291 . S
C812 C813 1.373 . S
C812 H825 0.929 . S
C813 C812 1.373 . S
C813 C814 1.396 . S
C813 C820 1.403 . S
C814 C804 1.476 . S
C814 N809 1.318 . S
C814 C813 1.396 . S
H815 C810 0.929 . S
O816 Mn792 2.385 . S
O816 C794 1.234 . S
O817 Mn792 2.209 . S
O817 Mn793 2.215 . S
O817 C794 1.283 . S
O818 Mn792 2.094 . S
O818 C796 1.240 . S
O819 Mn793 2.117 . S
O819 C796 1.264 . S
C820 C813 1.403 . S
C820 C821 1.399 . S
C820 H826 0.929 . S
C821 C801 1.449 . S
C821 C820 1.399 . S
C821 H827 0.930 . S
H822 C802 0.931 . S
H823 C803 0.930 . S
H824 C811 0.931 . S
H825 C812 0.929 . S
H826 C820 0.929 . S
H827 C821 0.930 . S
Mn828 O833 2.095 . S
Mn828 O843 2.162 . S
Mn828 O844 2.297 . S
Mn828 O852 2.385 1_565 S
Mn828 O853 2.209 1_565 S
Mn828 O854 2.094 . S
Mn829 O834 2.121 . S
Mn829 N836 2.257 . S
Mn829 N845 2.282 . S
Mn829 O853 2.215 . S
Mn829 O855 2.117 . S
C830 O852 1.234 . S
C830 O853 1.283 . S
C831 O843 1.281 . S
C831 O844 1.236 . S
C832 O854 1.219 1_545 S
C832 O855 1.292 . S
O833 Mn828 2.095 . S
O833 C842 1.250 1_565 S
O834 Mn829 2.121 . S
O834 C842 1.258 . S
C835 N836 1.326 . S
C835 C839 1.460 . S
C835 H841 0.929 . S
N836 Mn829 2.257 . S
N836 C835 1.326 . S
N836 C840 1.362 . S
C837 C838 1.258 . S
C837 C840 1.431 . S
C837 C857 1.449 . S
C838 C837 1.258 . S
C838 C839 1.477 . S
C838 H858 0.931 . S
C839 C835 1.460 . S
C839 C838 1.477 . S
C839 H859 0.930 . S
C840 N836 1.362 . S
C840 C837 1.431 . S
C840 C850 1.476 . S
H841 C835 0.929 . S
C842 O833 1.250 1_545 S
C842 O834 1.258 . S
O843 Mn828 2.162 . S
O843 C831 1.281 . S
O844 Mn828 2.297 . S
O844 C831 1.236 . S
N845 Mn829 2.282 . S
N845 C846 1.328 . S
N845 C850 1.318 . S
C846 N845 1.328 . S
C846 C847 1.457 . S
C846 H851 0.929 . S
C847 C846 1.457 . S
C847 C848 1.291 . S
C847 H860 0.931 . S
C848 C847 1.291 . S
C848 C849 1.373 . S
C848 H861 0.929 . S
C849 C848 1.373 . S
C849 C850 1.396 . S
C849 C856 1.403 . S
C850 C840 1.476 . S
C850 N845 1.318 . S
C850 C849 1.396 . S
H851 C846 0.929 . S
O852 Mn828 2.385 1_545 S
O852 C830 1.234 . S
O853 Mn828 2.209 1_545 S
O853 Mn829 2.215 . S
O853 C830 1.283 . S
O854 Mn828 2.094 . S
O854 C832 1.219 1_565 S
O855 Mn829 2.117 . S
O855 C832 1.292 . S
C856 C849 1.403 . S
C856 C857 1.399 . S
C856 H862 0.929 . S
C857 C837 1.449 . S
C857 C856 1.399 . S
C857 H863 0.930 . S
H858 C838 0.931 . S
H859 C839 0.930 . S
H860 C847 0.931 . S
H861 C848 0.929 . S
H862 C856 0.929 . S
H863 C857 0.930 . S
Mn864 O869 2.095 . S
Mn864 O879 2.162 . S
Mn864 O880 2.297 . S
Mn864 O888 2.385 1_455 S
Mn864 O889 2.209 1_455 S
Mn864 O890 2.094 . S
Mn865 O870 2.121 . S
Mn865 N872 2.257 . S
Mn865 N881 2.282 . S
Mn865 O889 2.215 . S
Mn865 O891 2.117 . S
C866 O888 1.234 . S
C866 O889 1.283 . S
C867 O879 1.281 . S
C867 O880 1.236 . S
C868 O890 1.240 . S
C868 O891 1.264 1_455 S
O869 Mn864 2.095 . S
O869 C878 1.250 1_455 S
O870 Mn865 2.121 . S
O870 C878 1.258 . S
C871 N872 1.326 . S
C871 C875 1.460 . S
C871 H877 0.929 . S
N872 Mn865 2.257 . S
N872 C871 1.326 . S
N872 C876 1.362 . S
C873 C874 1.258 . S
C873 C876 1.431 . S
C873 C893 1.449 . S
C874 C873 1.258 . S
C874 C875 1.477 . S
C874 H894 0.931 . S
C875 C871 1.460 . S
C875 C874 1.477 . S
C875 H895 0.930 . S
C876 N872 1.362 . S
C876 C873 1.431 . S
C876 C886 1.476 . S
H877 C871 0.929 . S
C878 O869 1.250 1_655 S
C878 O870 1.258 . S
O879 Mn864 2.162 . S
O879 C867 1.281 . S
O880 Mn864 2.297 . S
O880 C867 1.236 . S
N881 Mn865 2.282 . S
N881 C882 1.328 . S
N881 C886 1.318 . S
C882 N881 1.328 . S
C882 C883 1.457 . S
C882 H887 0.929 . S
C883 C882 1.457 . S
C883 C884 1.291 . S
C883 H896 0.931 . S
C884 C883 1.291 . S
C884 C885 1.373 . S
C884 H897 0.929 . S
C885 C884 1.373 . S
C885 C886 1.396 . S
C885 C892 1.403 . S
C886 C876 1.476 . S
C886 N881 1.318 . S
C886 C885 1.396 . S
H887 C882 0.929 . S
O888 Mn864 2.385 1_655 S
O888 C866 1.234 . S
O889 Mn864 2.209 1_655 S
O889 Mn865 2.215 . S
O889 C866 1.283 . S
O890 Mn864 2.094 . S
O890 C868 1.240 . S
O891 Mn865 2.117 . S
O891 C868 1.264 1_655 S
C892 C885 1.403 . S
C892 C893 1.399 . S
C892 H898 0.929 . S
C893 C873 1.449 . S
C893 C892 1.399 . S
C893 H899 0.930 . S
H894 C874 0.931 . S
H895 C875 0.930 . S
H896 C883 0.931 . S
H897 C884 0.929 . S
H898 C892 0.929 . S
H899 C893 0.930 . S
Mn900 O905 2.095 . S
Mn900 O915 2.162 . S
Mn900 O916 2.297 . S
Mn900 O924 2.385 . S
Mn900 O925 2.209 . S
Mn900 O926 2.094 . S
Mn901 O906 2.121 . S
Mn901 N908 2.257 . S
Mn901 N917 2.282 . S
Mn901 O925 2.215 . S
Mn901 O927 2.117 . S
C902 O924 1.234 . S
C902 O925 1.283 . S
C903 O915 1.281 . S
C903 O916 1.236 . S
C904 O926 1.240 . S
C904 O927 1.264 . S
O905 Mn900 2.095 . S
O905 C914 1.250 . S
O906 Mn901 2.121 . S
O906 C914 1.258 . S
C907 N908 1.326 . S
C907 C911 1.460 . S
C907 H913 0.929 . S
N908 Mn901 2.257 . S
N908 C907 1.326 . S
N908 C912 1.362 . S
C909 C910 1.258 . S
C909 C912 1.431 . S
C909 C929 1.449 . S
C910 C909 1.258 . S
C910 C911 1.477 . S
C910 H930 0.931 . S
C911 C907 1.460 . S
C911 C910 1.477 . S
C911 H931 0.930 . S
C912 N908 1.362 . S
C912 C909 1.431 . S
C912 C922 1.476 . S
H913 C907 0.929 . S
C914 O905 1.250 . S
C914 O906 1.258 . S
O915 Mn900 2.162 . S
O915 C903 1.281 . S
O916 Mn900 2.297 . S
O916 C903 1.236 . S
N917 Mn901 2.282 . S
N917 C918 1.328 . S
N917 C922 1.318 . S
C918 N917 1.328 . S
C918 C919 1.457 . S
C918 H923 0.929 . S
C919 C918 1.457 . S
C919 C920 1.291 . S
C919 H932 0.931 . S
C920 C919 1.291 . S
C920 C921 1.373 . S
C920 H933 0.929 . S
C921 C920 1.373 . S
C921 C922 1.396 . S
C921 C928 1.403 . S
C922 C912 1.476 . S
C922 N917 1.318 . S
C922 C921 1.396 . S
H923 C918 0.929 . S
O924 Mn900 2.385 . S
O924 C902 1.234 . S
O925 Mn900 2.209 . S
O925 Mn901 2.215 . S
O925 C902 1.283 . S
O926 Mn900 2.094 . S
O926 C904 1.240 . S
O927 Mn901 2.117 . S
O927 C904 1.264 . S
C928 C921 1.403 . S
C928 C929 1.399 . S
C928 H934 0.929 . S
C929 C909 1.449 . S
C929 C928 1.399 . S
C929 H935 0.930 . S
H930 C910 0.931 . S
H931 C911 0.930 . S
H932 C919 0.931 . S
H933 C920 0.929 . S
H934 C928 0.929 . S
H935 C929 0.930 . S
Mn936 O941 2.095 1_455 S
Mn936 O951 2.162 . S
Mn936 O952 2.297 1_455 S
Mn936 O960 2.385 . S
Mn936 O961 2.209 1_455 S
Mn936 O962 2.094 . S
Mn937 O942 2.121 . S
Mn937 N944 2.257 . S
Mn937 N953 2.282 1_655 S
Mn937 O961 2.215 . S
Mn937 O963 2.117 1_655 S
C938 O960 1.234 . S
C938 O961 1.283 1_455 S
C939 O951 1.281 . S
C939 O952 1.236 1_455 S
C940 O962 1.240 . S
C940 O963 1.264 . S
O941 Mn936 2.095 1_655 S
O941 C950 1.250 . S
O942 Mn937 2.121 . S
O942 C950 1.258 . S
C943 N944 1.326 . S
C943 C947 1.460 . S
C943 H949 0.929 . S
N944 Mn937 2.257 . S
N944 C943 1.326 . S
N944 C948 1.362 . S
C945 C946 1.258 . S
C945 C948 1.431 . S
C945 C965 1.449 . S
C946 C945 1.258 . S
C946 C947 1.477 . S
C946 H966 0.931 . S
C947 C943 1.460 . S
C947 C946 1.477 . S
C947 H967 0.930 . S
C948 N944 1.362 . S
C948 C945 1.431 . S
C948 C958 1.476 . S
H949 C943 0.929 . S
C950 O941 1.250 . S
C950 O942 1.258 . S
O951 Mn936 2.162 . S
O951 C939 1.281 . S
O952 Mn936 2.297 1_655 S
O952 C939 1.236 1_655 S
N953 Mn937 2.282 1_455 S
N953 C954 1.328 . S
N953 C958 1.318 1_455 S
C954 N953 1.328 . S
C954 C955 1.457 . S
C954 H959 0.929 . S
C955 C954 1.457 . S
C955 C956 1.291 . S
C955 H968 0.931 . S
C956 C955 1.291 . S
C956 C957 1.373 1_455 S
C956 H969 0.929 . S
C957 C956 1.373 1_655 S
C957 C958 1.396 . S
C957 C964 1.403 . S
C958 C948 1.476 . S
C958 N953 1.318 1_655 S
C958 C957 1.396 . S
H959 C954 0.929 . S
O960 Mn936 2.385 . S
O960 C938 1.234 . S
O961 Mn936 2.209 1_655 S
O961 Mn937 2.215 . S
O961 C938 1.283 1_655 S
O962 Mn936 2.094 . S
O962 C940 1.240 . S
O963 Mn937 2.117 1_455 S
O963 C940 1.264 . S
C964 C957 1.403 . S
C964 C965 1.399 . S
C964 H970 0.929 . S
C965 C945 1.449 . S
C965 C964 1.399 . S
C965 H971 0.930 . S
H966 C946 0.931 . S
H967 C947 0.930 . S
H968 C955 0.931 . S
H969 C956 0.929 . S
H970 C964 0.929 . S
H971 C965 0.930 . S
Mn972 O977 2.095 . S
Mn972 O987 2.162 . S
Mn972 O988 2.297 . S
Mn972 O996 2.385 . S
Mn972 O997 2.209 . S
Mn972 O998 2.094 . S
Mn973 O978 2.121 . S
Mn973 N980 2.257 . S
Mn973 N989 2.282 . S
Mn973 O997 2.215 . S
Mn973 O999 2.117 . S
C974 O996 1.234 . S
C974 O997 1.283 . S
C975 O987 1.281 . S
C975 O988 1.236 . S
C976 O998 1.240 . S
C976 O999 1.264 . S
O977 Mn972 2.095 . S
O977 C986 1.250 . S
O978 Mn973 2.121 . S
O978 C986 1.258 . S
C979 N980 1.326 . S
C979 C983 1.460 . S
C979 H985 0.929 . S
N980 Mn973 2.257 . S
N980 C979 1.326 . S
N980 C984 1.362 . S
C981 C982 1.258 . S
C981 C984 1.431 . S
C981 C1001 1.449 . S
C982 C981 1.258 . S
C982 C983 1.477 . S
C982 H1002 0.931 . S
C983 C979 1.460 . S
C983 C982 1.477 . S
C983 H1003 0.930 . S
C984 N980 1.362 . S
C984 C981 1.431 . S
C984 C994 1.476 . S
H985 C979 0.929 . S
C986 O977 1.250 . S
C986 O978 1.258 . S
O987 Mn972 2.162 . S
O987 C975 1.281 . S
O988 Mn972 2.297 . S
O988 C975 1.236 . S
N989 Mn973 2.282 . S
N989 C990 1.328 . S
N989 C994 1.318 . S
C990 N989 1.328 . S
C990 C991 1.457 . S
C990 H995 0.929 . S
C991 C990 1.457 . S
C991 C992 1.291 . S
C991 H1004 0.931 . S
C992 C991 1.291 . S
C992 C993 1.373 . S
C992 H1005 0.929 . S
C993 C992 1.373 . S
C993 C994 1.396 . S
C993 C1000 1.403 . S
C994 C984 1.476 . S
C994 N989 1.318 . S
C994 C993 1.396 . S
H995 C990 0.929 . S
O996 Mn972 2.385 . S
O996 C974 1.234 . S
O997 Mn972 2.209 . S
O997 Mn973 2.215 . S
O997 C974 1.283 . S
O998 Mn972 2.094 . S
O998 C976 1.240 . S
O999 Mn973 2.117 . S
O999 C976 1.264 . S
C1000 C993 1.403 . S
C1000 C1001 1.399 . S
C1000 H1006 0.929 . S
C1001 C981 1.449 . S
C1001 C1000 1.399 . S
C1001 H1007 0.930 . S
H1002 C982 0.931 . S
H1003 C983 0.930 . S
H1004 C991 0.931 . S
H1005 C992 0.929 . S
H1006 C1000 0.929 . S
H1007 C1001 0.930 . S
C1008 C1009 1.349 . S
C1008 C1010 1.327 . S
C1008 H1033 0.950 . S
C1009 C1008 1.349 . S
C1009 C1025 1.349 . S
C1010 C1008 1.327 . S
C1010 C1029 1.429 . S
C1010 H1034 0.950 . S
C1011 C1028 1.574 . S
C1011 C1030 1.368 . S
C1011 H1035 0.949 . S
H1012 C1016 0.949 . S
C1013 C1014 1.349 . S
C1013 C1015 1.327 . S
C1013 H1036 0.950 . S
C1014 C1013 1.349 . S
C1014 C1026 1.349 . S
C1015 C1013 1.327 . S
C1015 C1031 1.429 . S
C1015 H1037 0.950 . S
C1016 H1012 0.949 . S
C1016 C1024 1.574 . S
C1016 C1032 1.368 . S
H1017 C1025 0.950 . S
H1018 C1023 0.950 . S
H1019 C1024 0.949 . S
H1020 C1026 0.950 . S
H1021 C1027 0.950 . S
H1022 C1028 0.949 . S
C1023 H1018 0.950 . S
C1023 C1025 1.327 . S
C1023 C1029 1.429 . S
C1024 C1016 1.574 . S
C1024 H1019 0.949 . S
C1024 C1030 1.368 . S
C1025 C1009 1.349 . S
C1025 H1017 0.950 . S
C1025 C1023 1.327 . S
C1026 C1014 1.349 . S
C1026 H1020 0.950 . S
C1026 C1027 1.327 . S
C1027 H1021 0.950 . S
C1027 C1026 1.327 . S
C1027 C1031 1.429 . S
C1028 C1011 1.574 . S
C1028 H1022 0.949 . S
C1028 C1032 1.368 . S
C1029 C1010 1.429 . S
C1029 C1023 1.429 . S
C1029 C1030 1.523 . S
C1030 C1011 1.368 . S
C1030 C1024 1.368 . S
C1030 C1029 1.523 . S
C1031 C1015 1.429 . S
C1031 C1027 1.429 . S
C1031 C1032 1.523 . S
C1032 C1016 1.368 . S
C1032 C1028 1.368 . S
C1032 C1031 1.523 . S
H1033 C1008 0.950 . S
H1034 C1010 0.950 . S
H1035 C1011 0.949 . S
H1036 C1013 0.950 . S
H1037 C1015 0.950 . S
C1038 C1039 1.349 . S
C1038 C1040 1.327 . S
C1038 H1063 0.950 . S
C1039 C1038 1.349 . S
C1039 C1055 1.349 . S
C1040 C1038 1.327 . S
C1040 C1059 1.429 . S
C1040 H1064 0.950 . S
C1041 C1058 1.574 . S
C1041 C1060 1.368 . S
C1041 H1065 0.949 . S
H1042 C1046 0.949 . S
C1043 C1044 1.349 . S
C1043 C1045 1.327 . S
C1043 H1066 0.950 . S
C1044 C1043 1.349 . S
C1044 C1056 1.349 . S
C1045 C1043 1.327 . S
C1045 C1061 1.429 . S
C1045 H1067 0.950 . S
C1046 H1042 0.949 . S
C1046 C1054 1.574 . S
C1046 C1062 1.368 . S
H1047 C1055 0.950 . S
H1048 C1053 0.950 . S
H1049 C1054 0.949 . S
H1050 C1056 0.950 . S
H1051 C1057 0.950 . S
H1052 C1058 0.949 . S
C1053 H1048 0.950 . S
C1053 C1055 1.327 . S
C1053 C1059 1.429 . S
C1054 C1046 1.574 . S
C1054 H1049 0.949 . S
C1054 C1060 1.368 . S
C1055 C1039 1.349 . S
C1055 H1047 0.950 . S
C1055 C1053 1.327 . S
C1056 C1044 1.349 . S
C1056 H1050 0.950 . S
C1056 C1057 1.327 . S
C1057 H1051 0.950 . S
C1057 C1056 1.327 . S
C1057 C1061 1.429 . S
C1058 C1041 1.574 . S
C1058 H1052 0.949 . S
C1058 C1062 1.368 . S
C1059 C1040 1.429 . S
C1059 C1053 1.429 . S
C1059 C1060 1.523 . S
C1060 C1041 1.368 . S
C1060 C1054 1.368 . S
C1060 C1059 1.523 . S
C1061 C1045 1.429 . S
C1061 C1057 1.429 . S
C1061 C1062 1.523 . S
C1062 C1046 1.368 . S
C1062 C1058 1.368 . S
C1062 C1061 1.523 . S
H1063 C1038 0.950 . S
H1064 C1040 0.950 . S
H1065 C1041 0.949 . S
H1066 C1043 0.950 . S
H1067 C1045 0.950 . S
C1068 C1069 1.349 . S
C1068 C1070 1.327 . S
C1068 H1093 0.950 . S
C1069 C1068 1.349 . S
C1069 C1085 1.349 . S
C1070 C1068 1.327 . S
C1070 C1089 1.429 . S
C1070 H1094 0.950 . S
C1071 C1088 1.574 . S
C1071 C1090 1.368 . S
C1071 H1095 0.949 . S
H1072 C1076 0.949 . S
C1073 C1074 1.349 . S
C1073 C1075 1.327 . S
C1073 H1096 0.950 . S
C1074 C1073 1.349 . S
C1074 C1086 1.349 . S
C1075 C1073 1.327 . S
C1075 C1091 1.429 . S
C1075 H1097 0.950 . S
C1076 H1072 0.949 . S
C1076 C1084 1.574 . S
C1076 C1092 1.368 . S
H1077 C1085 0.950 . S
H1078 C1083 0.950 . S
H1079 C1084 0.949 . S
H1080 C1086 0.950 . S
H1081 C1087 0.950 . S
H1082 C1088 0.949 . S
C1083 H1078 0.950 . S
C1083 C1085 1.327 . S
C1083 C1089 1.429 . S
C1084 C1076 1.574 . S
C1084 H1079 0.949 . S
C1084 C1090 1.368 . S
C1085 C1069 1.349 . S
C1085 H1077 0.950 . S
C1085 C1083 1.327 . S
C1086 C1074 1.349 . S
C1086 H1080 0.950 . S
C1086 C1087 1.327 . S
C1087 H1081 0.950 . S
C1087 C1086 1.327 . S
C1087 C1091 1.429 . S
C1088 C1071 1.574 . S
C1088 H1082 0.949 . S
C1088 C1092 1.368 . S
C1089 C1070 1.429 . S
C1089 C1083 1.429 . S
C1089 C1090 1.523 . S
C1090 C1071 1.368 . S
C1090 C1084 1.368 . S
C1090 C1089 1.523 . S
C1091 C1075 1.429 . S
C1091 C1087 1.429 . S
C1091 C1092 1.523 . S
C1092 C1076 1.368 . S
C1092 C1088 1.368 . S
C1092 C1091 1.523 . S
H1093 C1068 0.950 . S
H1094 C1070 0.950 . S
H1095 C1071 0.949 . S
H1096 C1073 0.950 . S
H1097 C1075 0.950 . S
C1098 C1099 1.349 . S
C1098 C1100 1.327 . S
C1098 H1123 0.950 . S
C1099 C1098 1.349 . S
C1099 C1115 1.349 . S
C1100 C1098 1.327 . S
C1100 C1119 1.429 . S
C1100 H1124 0.950 . S
C1101 C1118 1.574 . S
C1101 C1120 1.368 1_545 S
C1101 H1125 0.949 . S
H1102 C1106 0.949 . S
C1103 C1104 1.349 . S
C1103 C1105 1.327 . S
C1103 H1126 0.950 . S
C1104 C1103 1.349 . S
C1104 C1116 1.349 1_545 S
C1105 C1103 1.327 . S
C1105 C1121 1.429 1_545 S
C1105 H1127 0.950 . S
C1106 H1102 0.949 . S
C1106 C1114 1.574 . S
C1106 C1122 1.368 . S
H1107 C1115 0.950 1_545 S
H1108 C1113 0.950 1_545 S
H1109 C1114 0.949 . S
H1110 C1116 0.950 . S
H1111 C1117 0.950 . S
H1112 C1118 0.949 . S
C1113 H1108 0.950 1_565 S
C1113 C1115 1.327 . S
C1113 C1119 1.429 . S
C1114 C1106 1.574 . S
C1114 H1109 0.949 . S
C1114 C1120 1.368 . S
C1115 C1099 1.349 . S
C1115 H1107 0.950 1_565 S
C1115 C1113 1.327 . S
C1116 C1104 1.349 1_565 S
C1116 H1110 0.950 . S
C1116 C1117 1.327 . S
C1117 H1111 0.950 . S
C1117 C1116 1.327 . S
C1117 C1121 1.429 . S
C1118 C1101 1.574 . S
C1118 H1112 0.949 . S
C1118 C1122 1.368 1_545 S
C1119 C1100 1.429 . S
C1119 C1113 1.429 . S
C1119 C1120 1.523 . S
C1120 C1101 1.368 1_565 S
C1120 C1114 1.368 . S
C1120 C1119 1.523 . S
C1121 C1105 1.429 1_565 S
C1121 C1117 1.429 . S
C1121 C1122 1.523 . S
C1122 C1106 1.368 . S
C1122 C1118 1.368 1_565 S
C1122 C1121 1.523 . S
H1123 C1098 0.950 . S
H1124 C1100 0.950 . S
H1125 C1101 0.949 . S
H1126 C1103 0.950 . S
H1127 C1105 0.950 . S
C1128 C1129 1.349 . S
C1128 C1130 1.327 . S
C1128 H1153 0.950 . S
C1129 C1128 1.349 . S
C1129 C1145 1.349 . S
C1130 C1128 1.327 . S
C1130 C1149 1.429 . S
C1130 H1154 0.950 . S
C1131 C1148 1.574 . S
C1131 C1150 1.368 . S
C1131 H1155 0.949 . S
H1132 C1136 0.949 . S
C1133 C1134 1.349 . S
C1133 C1135 1.327 . S
C1133 H1156 0.950 . S
C1134 C1133 1.349 . S
C1134 C1146 1.349 . S
C1135 C1133 1.327 . S
C1135 C1151 1.429 . S
C1135 H1157 0.950 . S
C1136 H1132 0.949 . S
C1136 C1144 1.574 . S
C1136 C1152 1.368 . S
H1137 C1145 0.950 . S
H1138 C1143 0.950 . S
H1139 C1144 0.949 . S
H1140 C1146 0.950 . S
H1141 C1147 0.950 . S
H1142 C1148 0.949 . S
C1143 H1138 0.950 . S
C1143 C1145 1.327 . S
C1143 C1149 1.429 . S
C1144 C1136 1.574 . S
C1144 H1139 0.949 . S
C1144 C1150 1.368 . S
C1145 C1129 1.349 . S
C1145 H1137 0.950 . S
C1145 C1143 1.327 . S
C1146 C1134 1.349 . S
C1146 H1140 0.950 . S
C1146 C1147 1.327 . S
C1147 H1141 0.950 . S
C1147 C1146 1.327 . S
C1147 C1151 1.429 . S
C1148 C1131 1.574 . S
C1148 H1142 0.949 . S
C1148 C1152 1.368 . S
C1149 C1130 1.429 . S
C1149 C1143 1.429 . S
C1149 C1150 1.523 . S
C1150 C1131 1.368 . S
C1150 C1144 1.368 . S
C1150 C1149 1.523 . S
C1151 C1135 1.429 . S
C1151 C1147 1.429 . S
C1151 C1152 1.523 . S
C1152 C1136 1.368 . S
C1152 C1148 1.368 . S
C1152 C1151 1.523 . S
H1153 C1128 0.950 . S
H1154 C1130 0.950 . S
H1155 C1131 0.949 . S
H1156 C1133 0.950 . S
H1157 C1135 0.950 . S
C1158 C1159 1.349 . S
C1158 C1160 1.327 . S
C1158 H1183 0.950 . S
C1159 C1158 1.349 . S
C1159 C1175 1.349 . S
C1160 C1158 1.327 . S
C1160 C1179 1.429 . S
C1160 H1184 0.950 . S
C1161 C1178 1.574 . S
C1161 C1180 1.368 . S
C1161 H1185 0.949 . S
H1162 C1166 0.949 . S
C1163 C1164 1.349 . S
C1163 C1165 1.327 . S
C1163 H1186 0.950 . S
C1164 C1163 1.349 . S
C1164 C1176 1.349 . S
C1165 C1163 1.327 . S
C1165 C1181 1.429 . S
C1165 H1187 0.950 . S
C1166 H1162 0.949 . S
C1166 C1174 1.574 . S
C1166 C1182 1.368 . S
H1167 C1175 0.950 . S
H1168 C1173 0.950 . S
H1169 C1174 0.949 . S
H1170 C1176 0.950 . S
H1171 C1177 0.950 . S
H1172 C1178 0.949 . S
C1173 H1168 0.950 . S
C1173 C1175 1.327 . S
C1173 C1179 1.429 . S
C1174 C1166 1.574 . S
C1174 H1169 0.949 . S
C1174 C1180 1.368 . S
C1175 C1159 1.349 . S
C1175 H1167 0.950 . S
C1175 C1173 1.327 . S
C1176 C1164 1.349 . S
C1176 H1170 0.950 . S
C1176 C1177 1.327 . S
C1177 H1171 0.950 . S
C1177 C1176 1.327 . S
C1177 C1181 1.429 . S
C1178 C1161 1.574 . S
C1178 H1172 0.949 . S
C1178 C1182 1.368 . S
C1179 C1160 1.429 . S
C1179 C1173 1.429 . S
C1179 C1180 1.523 . S
C1180 C1161 1.368 . S
C1180 C1174 1.368 . S
C1180 C1179 1.523 . S
C1181 C1165 1.429 . S
C1181 C1177 1.429 . S
C1181 C1182 1.523 . S
C1182 C1166 1.368 . S
C1182 C1178 1.368 . S
C1182 C1181 1.523 . S
H1183 C1158 0.950 . S
H1184 C1160 0.950 . S
H1185 C1161 0.949 . S
H1186 C1163 0.950 . S
H1187 C1165 0.950 . S
C1188 C1189 1.349 . S
C1188 C1190 1.327 . S
C1188 H1213 0.950 . S
C1189 C1188 1.349 . S
C1189 C1205 1.349 . S
C1190 C1188 1.327 . S
C1190 C1209 1.429 . S
C1190 H1214 0.950 . S
C1191 C1208 1.574 . S
C1191 C1210 1.368 . S
C1191 H1215 0.949 . S
H1192 C1196 0.949 . S
C1193 C1194 1.349 . S
C1193 C1195 1.327 . S
C1193 H1216 0.950 . S
C1194 C1193 1.349 . S
C1194 C1206 1.349 . S
C1195 C1193 1.327 . S
C1195 C1211 1.429 . S
C1195 H1217 0.950 . S
C1196 H1192 0.949 . S
C1196 C1204 1.574 . S
C1196 C1212 1.368 . S
H1197 C1205 0.950 . S
H1198 C1203 0.950 . S
H1199 C1204 0.949 . S
H1200 C1206 0.950 . S
H1201 C1207 0.950 . S
H1202 C1208 0.949 . S
C1203 H1198 0.950 . S
C1203 C1205 1.327 . S
C1203 C1209 1.429 . S
C1204 C1196 1.574 . S
C1204 H1199 0.949 . S
C1204 C1210 1.368 . S
C1205 C1189 1.349 . S
C1205 H1197 0.950 . S
C1205 C1203 1.327 . S
C1206 C1194 1.349 . S
C1206 H1200 0.950 . S
C1206 C1207 1.327 . S
C1207 H1201 0.950 . S
C1207 C1206 1.327 . S
C1207 C1211 1.429 . S
C1208 C1191 1.574 . S
C1208 H1202 0.949 . S
C1208 C1212 1.368 . S
C1209 C1190 1.429 . S
C1209 C1203 1.429 . S
C1209 C1210 1.523 . S
C1210 C1191 1.368 . S
C1210 C1204 1.368 . S
C1210 C1209 1.523 . S
C1211 C1195 1.429 . S
C1211 C1207 1.429 . S
C1211 C1212 1.523 . S
C1212 C1196 1.368 . S
C1212 C1208 1.368 . S
C1212 C1211 1.523 . S
H1213 C1188 0.950 . S
H1214 C1190 0.950 . S
H1215 C1191 0.949 . S
H1216 C1193 0.950 . S
H1217 C1195 0.950 . S
C1218 C1219 1.349 . S
C1218 C1220 1.327 . S
C1218 H1243 0.950 1_565 S
C1219 C1218 1.349 . S
C1219 C1235 1.349 . S
C1220 C1218 1.327 . S
C1220 C1239 1.429 . S
C1220 H1244 0.950 1_565 S
C1221 C1238 1.574 . S
C1221 C1240 1.368 . S
C1221 H1245 0.949 . S
H1222 C1226 0.949 . S
C1223 C1224 1.349 . S
C1223 C1225 1.327 . S
C1223 H1246 0.950 . S
C1224 C1223 1.349 . S
C1224 C1236 1.349 1_565 S
C1225 C1223 1.327 . S
C1225 C1241 1.429 . S
C1225 H1247 0.950 . S
C1226 H1222 0.949 . S
C1226 C1234 1.574 . S
C1226 C1242 1.368 1_545 S
H1227 C1235 0.950 . S
H1228 C1233 0.950 . S
H1229 C1234 0.949 . S
H1230 C1236 0.950 . S
H1231 C1237 0.950 . S
H1232 C1238 0.949 . S
C1233 H1228 0.950 . S
C1233 C1235 1.327 . S
C1233 C1239 1.429 . S
C1234 C1226 1.574 . S
C1234 H1229 0.949 . S
C1234 C1240 1.368 1_545 S
C1235 C1219 1.349 . S
C1235 H1227 0.950 . S
C1235 C1233 1.327 . S
C1236 C1224 1.349 1_545 S
C1236 H1230 0.950 . S
C1236 C1237 1.327 . S
C1237 H1231 0.950 . S
C1237 C1236 1.327 . S
C1237 C1241 1.429 1_545 S
C1238 C1221 1.574 . S
C1238 H1232 0.949 . S
C1238 C1242 1.368 . S
C1239 C1220 1.429 . S
C1239 C1233 1.429 . S
C1239 C1240 1.523 . S
C1240 C1221 1.368 . S
C1240 C1234 1.368 1_565 S
C1240 C1239 1.523 . S
C1241 C1225 1.429 . S
C1241 C1237 1.429 1_565 S
C1241 C1242 1.523 . S
C1242 C1226 1.368 1_565 S
C1242 C1238 1.368 . S
C1242 C1241 1.523 . S
H1243 C1218 0.950 1_545 S
H1244 C1220 0.950 1_545 S
H1245 C1221 0.949 . S
H1246 C1223 0.950 . S
H1247 C1225 0.950 . S
C1248 C1249 1.349 . S
C1248 C1250 1.327 . S
C1248 H1273 0.950 . S
C1249 C1248 1.349 . S
C1249 C1265 1.349 . S
C1250 C1248 1.327 . S
C1250 C1269 1.429 . S
C1250 H1274 0.950 . S
C1251 C1268 1.574 . S
C1251 C1270 1.368 . S
C1251 H1275 0.949 . S
H1252 C1256 0.949 . S
C1253 C1254 1.349 . S
C1253 C1255 1.327 . S
C1253 H1276 0.950 . S
C1254 C1253 1.349 . S
C1254 C1266 1.349 . S
C1255 C1253 1.327 . S
C1255 C1271 1.429 . S
C1255 H1277 0.950 . S
C1256 H1252 0.949 . S
C1256 C1264 1.574 . S
C1256 C1272 1.368 . S
H1257 C1265 0.950 . S
H1258 C1263 0.950 . S
H1259 C1264 0.949 . S
H1260 C1266 0.950 . S
H1261 C1267 0.950 . S
H1262 C1268 0.949 . S
C1263 H1258 0.950 . S
C1263 C1265 1.327 . S
C1263 C1269 1.429 . S
C1264 C1256 1.574 . S
C1264 H1259 0.949 . S
C1264 C1270 1.368 . S
C1265 C1249 1.349 . S
C1265 H1257 0.950 . S
C1265 C1263 1.327 . S
C1266 C1254 1.349 . S
C1266 H1260 0.950 . S
C1266 C1267 1.327 . S
C1267 H1261 0.950 . S
C1267 C1266 1.327 . S
C1267 C1271 1.429 . S
C1268 C1251 1.574 . S
C1268 H1262 0.949 . S
C1268 C1272 1.368 . S
C1269 C1250 1.429 . S
C1269 C1263 1.429 . S
C1269 C1270 1.523 . S
C1270 C1251 1.368 . S
C1270 C1264 1.368 . S
C1270 C1269 1.523 . S
C1271 C1255 1.429 . S
C1271 C1267 1.429 . S
C1271 C1272 1.523 . S
C1272 C1256 1.368 . S
C1272 C1268 1.368 . S
C1272 C1271 1.523 . S
H1273 C1248 0.950 . S
H1274 C1250 0.950 . S
H1275 C1251 0.949 . S
H1276 C1253 0.950 . S
H1277 C1255 0.950 . S
C1278 C1279 1.349 . S
C1278 C1280 1.327 . S
C1278 H1303 0.950 . S
C1279 C1278 1.349 . S
C1279 C1295 1.349 . S
C1280 C1278 1.327 . S
C1280 C1299 1.429 . S
C1280 H1304 0.950 . S
C1281 C1298 1.574 . S
C1281 C1300 1.368 . S
C1281 H1305 0.949 . S
H1282 C1286 0.949 . S
C1283 C1284 1.349 . S
C1283 C1285 1.327 . S
C1283 H1306 0.950 . S
C1284 C1283 1.349 . S
C1284 C1296 1.349 . S
C1285 C1283 1.327 . S
C1285 C1301 1.429 . S
C1285 H1307 0.950 . S
C1286 H1282 0.949 . S
C1286 C1294 1.574 . S
C1286 C1302 1.368 . S
H1287 C1295 0.950 . S
H1288 C1293 0.950 . S
H1289 C1294 0.949 . S
H1290 C1296 0.950 . S
H1291 C1297 0.950 . S
H1292 C1298 0.949 . S
C1293 H1288 0.950 . S
C1293 C1295 1.327 . S
C1293 C1299 1.429 . S
C1294 C1286 1.574 . S
C1294 H1289 0.949 . S
C1294 C1300 1.368 . S
C1295 C1279 1.349 . S
C1295 H1287 0.950 . S
C1295 C1293 1.327 . S
C1296 C1284 1.349 . S
C1296 H1290 0.950 . S
C1296 C1297 1.327 . S
C1297 H1291 0.950 . S
C1297 C1296 1.327 . S
C1297 C1301 1.429 . S
C1298 C1281 1.574 . S
C1298 H1292 0.949 . S
C1298 C1302 1.368 . S
C1299 C1280 1.429 . S
C1299 C1293 1.429 . S
C1299 C1300 1.523 . S
C1300 C1281 1.368 . S
C1300 C1294 1.368 . S
C1300 C1299 1.523 . S
C1301 C1285 1.429 . S
C1301 C1297 1.429 . S
C1301 C1302 1.523 . S
C1302 C1286 1.368 . S
C1302 C1298 1.368 . S
C1302 C1301 1.523 . S
H1303 C1278 0.950 . S
H1304 C1280 0.950 . S
H1305 C1281 0.949 . S
H1306 C1283 0.950 . S
H1307 C1285 0.950 . S
C1308 C1309 1.349 . S
C1308 C1310 1.327 . S
C1308 H1333 0.950 . S
C1309 C1308 1.349 . S
C1309 C1325 1.349 . S
C1310 C1308 1.327 . S
C1310 C1329 1.429 . S
C1310 H1334 0.950 . S
C1311 C1328 1.574 . S
C1311 C1330 1.368 . S
C1311 H1335 0.949 . S
H1312 C1316 0.949 . S
C1313 C1314 1.349 . S
C1313 C1315 1.327 . S
C1313 H1336 0.950 . S
C1314 C1313 1.349 . S
C1314 C1326 1.349 . S
C1315 C1313 1.327 . S
C1315 C1331 1.429 . S
C1315 H1337 0.950 . S
C1316 H1312 0.949 . S
C1316 C1324 1.574 . S
C1316 C1332 1.368 . S
H1317 C1325 0.950 . S
H1318 C1323 0.950 . S
H1319 C1324 0.949 . S
H1320 C1326 0.950 . S
H1321 C1327 0.950 . S
H1322 C1328 0.949 . S
C1323 H1318 0.950 . S
C1323 C1325 1.327 . S
C1323 C1329 1.429 . S
C1324 C1316 1.574 . S
C1324 H1319 0.949 . S
C1324 C1330 1.368 . S
C1325 C1309 1.349 . S
C1325 H1317 0.950 . S
C1325 C1323 1.327 . S
C1326 C1314 1.349 . S
C1326 H1320 0.950 . S
C1326 C1327 1.327 . S
C1327 H1321 0.950 . S
C1327 C1326 1.327 . S
C1327 C1331 1.429 . S
C1328 C1311 1.574 . S
C1328 H1322 0.949 . S
C1328 C1332 1.368 . S
C1329 C1310 1.429 . S
C1329 C1323 1.429 . S
C1329 C1330 1.523 . S
C1330 C1311 1.368 . S
C1330 C1324 1.368 . S
C1330 C1329 1.523 . S
C1331 C1315 1.429 . S
C1331 C1327 1.429 . S
C1331 C1332 1.523 . S
C1332 C1316 1.368 . S
C1332 C1328 1.368 . S
C1332 C1331 1.523 . S
H1333 C1308 0.950 . S
H1334 C1310 0.950 . S
H1335 C1311 0.949 . S
H1336 C1313 0.950 . S
H1337 C1315 0.950 . S
C1338 C1339 1.349 . S
C1338 C1340 1.327 . S
C1338 H1363 0.950 . S
C1339 C1338 1.349 . S
C1339 C1355 1.349 . S
C1340 C1338 1.327 . S
C1340 C1359 1.429 . S
C1340 H1364 0.950 . S
C1341 C1358 1.574 . S
C1341 C1360 1.368 . S
C1341 H1365 0.949 . S
H1342 C1346 0.949 . S
C1343 C1344 1.349 . S
C1343 C1345 1.327 . S
C1343 H1366 0.950 . S
C1344 C1343 1.349 . S
C1344 C1356 1.349 . S
C1345 C1343 1.327 . S
C1345 C1361 1.429 . S
C1345 H1367 0.950 . S
C1346 H1342 0.949 . S
C1346 C1354 1.574 . S
C1346 C1362 1.368 . S
H1347 C1355 0.950 . S
H1348 C1353 0.950 . S
H1349 C1354 0.949 . S
H1350 C1356 0.950 . S
H1351 C1357 0.950 . S
H1352 C1358 0.949 . S
C1353 H1348 0.950 . S
C1353 C1355 1.327 . S
C1353 C1359 1.429 . S
C1354 C1346 1.574 . S
C1354 H1349 0.949 . S
C1354 C1360 1.368 . S
C1355 C1339 1.349 . S
C1355 H1347 0.950 . S
C1355 C1353 1.327 . S
C1356 C1344 1.349 . S
C1356 H1350 0.950 . S
C1356 C1357 1.327 . S
C1357 H1351 0.950 . S
C1357 C1356 1.327 . S
C1357 C1361 1.429 . S
C1358 C1341 1.574 . S
C1358 H1352 0.949 . S
C1358 C1362 1.368 . S
C1359 C1340 1.429 . S
C1359 C1353 1.429 . S
C1359 C1360 1.523 . S
C1360 C1341 1.368 . S
C1360 C1354 1.368 . S
C1360 C1359 1.523 . S
C1361 C1345 1.429 . S
C1361 C1357 1.429 . S
C1361 C1362 1.523 . S
C1362 C1346 1.368 . S
C1362 C1358 1.368 . S
C1362 C1361 1.523 . S
H1363 C1338 0.950 . S
H1364 C1340 0.950 . S
H1365 C1341 0.949 . S
H1366 C1343 0.950 . S
H1367 C1345 0.950 . S
C1368 C1369 1.349 . S
C1368 C1370 1.327 . S
C1368 H1393 0.950 . S
C1369 C1368 1.349 . S
C1369 C1385 1.349 . S
C1370 C1368 1.327 . S
C1370 C1389 1.429 . S
C1370 H1394 0.950 . S
C1371 C1388 1.574 . S
C1371 C1390 1.368 . S
C1371 H1395 0.949 . S
H1372 C1376 0.949 . S
C1373 C1374 1.349 . S
C1373 C1375 1.327 . S
C1373 H1396 0.950 . S
C1374 C1373 1.349 . S
C1374 C1386 1.349 . S
C1375 C1373 1.327 . S
C1375 C1391 1.429 . S
C1375 H1397 0.950 . S
C1376 H1372 0.949 . S
C1376 C1384 1.574 . S
C1376 C1392 1.368 . S
H1377 C1385 0.950 . S
H1378 C1383 0.950 . S
H1379 C1384 0.949 . S
H1380 C1386 0.950 . S
H1381 C1387 0.950 . S
H1382 C1388 0.949 . S
C1383 H1378 0.950 . S
C1383 C1385 1.327 . S
C1383 C1389 1.429 . S
C1384 C1376 1.574 . S
C1384 H1379 0.949 . S
C1384 C1390 1.368 . S
C1385 C1369 1.349 . S
C1385 H1377 0.950 . S
C1385 C1383 1.327 . S
C1386 C1374 1.349 . S
C1386 H1380 0.950 . S
C1386 C1387 1.327 . S
C1387 H1381 0.950 . S
C1387 C1386 1.327 . S
C1387 C1391 1.429 . S
C1388 C1371 1.574 . S
C1388 H1382 0.949 . S
C1388 C1392 1.368 . S
C1389 C1370 1.429 . S
C1389 C1383 1.429 . S
C1389 C1390 1.523 . S
C1390 C1371 1.368 . S
C1390 C1384 1.368 . S
C1390 C1389 1.523 . S
C1391 C1375 1.429 . S
C1391 C1387 1.429 . S
C1391 C1392 1.523 . S
C1392 C1376 1.368 . S
C1392 C1388 1.368 . S
C1392 C1391 1.523 . S
H1393 C1368 0.950 . S
H1394 C1370 0.950 . S
H1395 C1371 0.949 . S
H1396 C1373 0.950 . S
H1397 C1375 0.950 . S
C1398 C1399 1.349 . S
C1398 C1400 1.327 . S
C1398 H1423 0.950 . S
C1399 C1398 1.349 . S
C1399 C1415 1.349 . S
C1400 C1398 1.327 . S
C1400 C1419 1.429 . S
C1400 H1424 0.950 . S
C1401 C1418 1.574 . S
C1401 C1420 1.368 . S
C1401 H1425 0.949 . S
H1402 C1406 0.949 . S
C1403 C1404 1.349 . S
C1403 C1405 1.327 . S
C1403 H1426 0.950 . S
C1404 C1403 1.349 . S
C1404 C1416 1.349 . S
C1405 C1403 1.327 . S
C1405 C1421 1.429 . S
C1405 H1427 0.950 . S
C1406 H1402 0.949 . S
C1406 C1414 1.574 . S
C1406 C1422 1.368 . S
H1407 C1415 0.950 . S
H1408 C1413 0.950 . S
H1409 C1414 0.949 . S
H1410 C1416 0.950 . S
H1411 C1417 0.950 . S
H1412 C1418 0.949 . S
C1413 H1408 0.950 . S
C1413 C1415 1.327 . S
C1413 C1419 1.429 . S
C1414 C1406 1.574 . S
C1414 H1409 0.949 . S
C1414 C1420 1.368 . S
C1415 C1399 1.349 . S
C1415 H1407 0.950 . S
C1415 C1413 1.327 . S
C1416 C1404 1.349 . S
C1416 H1410 0.950 . S
C1416 C1417 1.327 . S
C1417 H1411 0.950 . S
C1417 C1416 1.327 . S
C1417 C1421 1.429 . S
C1418 C1401 1.574 . S
C1418 H1412 0.949 . S
C1418 C1422 1.368 . S
C1419 C1400 1.429 . S
C1419 C1413 1.429 . S
C1419 C1420 1.523 . S
C1420 C1401 1.368 . S
C1420 C1414 1.368 . S
C1420 C1419 1.523 . S
C1421 C1405 1.429 . S
C1421 C1417 1.429 . S
C1421 C1422 1.523 . S
C1422 C1406 1.368 . S
C1422 C1418 1.368 . S
C1422 C1421 1.523 . S
H1423 C1398 0.950 . S
H1424 C1400 0.950 . S
H1425 C1401 0.949 . S
H1426 C1403 0.950 . S
H1427 C1405 0.950 . S
C1428 C1429 1.349 . S
C1428 C1430 1.327 . S
C1428 H1453 0.950 . S
C1429 C1428 1.349 . S
C1429 C1445 1.349 . S
C1430 C1428 1.327 . S
C1430 C1449 1.429 . S
C1430 H1454 0.950 . S
C1431 C1448 1.574 . S
C1431 C1450 1.368 . S
C1431 H1455 0.949 . S
H1432 C1436 0.949 . S
C1433 C1434 1.349 . S
C1433 C1435 1.327 . S
C1433 H1456 0.950 . S
C1434 C1433 1.349 . S
C1434 C1446 1.349 . S
C1435 C1433 1.327 . S
C1435 C1451 1.429 . S
C1435 H1457 0.950 . S
C1436 H1432 0.949 . S
C1436 C1444 1.574 . S
C1436 C1452 1.368 . S
H1437 C1445 0.950 . S
H1438 C1443 0.950 . S
H1439 C1444 0.949 . S
H1440 C1446 0.950 . S
H1441 C1447 0.950 . S
H1442 C1448 0.949 . S
C1443 H1438 0.950 . S
C1443 C1445 1.327 . S
C1443 C1449 1.429 . S
C1444 C1436 1.574 . S
C1444 H1439 0.949 . S
C1444 C1450 1.368 . S
C1445 C1429 1.349 . S
C1445 H1437 0.950 . S
C1445 C1443 1.327 . S
C1446 C1434 1.349 . S
C1446 H1440 0.950 . S
C1446 C1447 1.327 . S
C1447 H1441 0.950 . S
C1447 C1446 1.327 . S
C1447 C1451 1.429 . S
C1448 C1431 1.574 . S
C1448 H1442 0.949 . S
C1448 C1452 1.368 . S
C1449 C1430 1.429 . S
C1449 C1443 1.429 . S
C1449 C1450 1.523 . S
C1450 C1431 1.368 . S
C1450 C1444 1.368 . S
C1450 C1449 1.523 . S
C1451 C1435 1.429 . S
C1451 C1447 1.429 . S
C1451 C1452 1.523 . S
C1452 C1436 1.368 . S
C1452 C1448 1.368 . S
C1452 C1451 1.523 . S
H1453 C1428 0.950 . S
H1454 C1430 0.950 . S
H1455 C1431 0.949 . S
H1456 C1433 0.950 . S
H1457 C1435 0.950 . S
C1458 C1459 1.349 . S
C1458 C1460 1.327 . S
C1458 H1483 0.926 1_655 S
C1459 C1458 1.349 . S
C1459 C1475 1.349 . S
C1460 C1458 1.327 . S
C1460 C1479 1.429 . S
C1460 H1484 0.950 1_655 S
C1461 C1478 1.574 . S
C1461 C1480 1.368 . S
C1461 H1485 0.949 . S
H1462 C1466 0.949 . S
C1463 C1464 1.349 1_655 S
C1463 C1465 1.327 . S
C1463 H1486 0.950 . S
C1464 C1463 1.349 1_455 S
C1464 C1476 1.349 . S
C1465 C1463 1.327 . S
C1465 C1481 1.429 . S
C1465 H1487 0.950 . S
C1466 H1462 0.949 . S
C1466 C1474 1.574 . S
C1466 C1482 1.368 1_455 S
H1467 C1475 0.950 . S
H1468 C1473 0.950 . S
H1469 C1474 0.949 . S
H1470 C1476 0.950 . S
H1471 C1477 0.950 . S
H1472 C1478 0.949 . S
C1473 H1468 0.950 . S
C1473 C1475 1.327 . S
C1473 C1479 1.429 . S
C1474 C1466 1.574 . S
C1474 H1469 0.949 . S
C1474 C1480 1.368 1_455 S
C1475 C1459 1.349 . S
C1475 H1467 0.950 . S
C1475 C1473 1.327 . S
C1476 C1464 1.349 . S
C1476 H1470 0.950 . S
C1476 C1477 1.327 . S
C1477 H1471 0.950 . S
C1477 C1476 1.327 . S
C1477 C1481 1.429 1_455 S
C1478 C1461 1.574 . S
C1478 H1472 0.949 . S
C1478 C1482 1.368 . S
C1479 C1460 1.429 . S
C1479 C1473 1.429 . S
C1479 C1480 1.523 . S
C1480 C1461 1.368 . S
C1480 C1474 1.368 1_655 S
C1480 C1479 1.523 . S
C1481 C1465 1.429 . S
C1481 C1477 1.429 1_655 S
C1481 C1482 1.523 . S
C1482 C1466 1.368 1_655 S
C1482 C1478 1.368 . S
C1482 C1481 1.523 . S
H1483 C1458 0.926 1_455 S
H1484 C1460 0.950 1_455 S
H1485 C1461 0.949 . S
H1486 C1463 0.950 . S
H1487 C1465 0.950 . S
C1488 C1489 1.349 . S
C1488 C1490 1.327 . S
C1488 H1513 0.950 . S
C1489 C1488 1.349 . S
C1489 C1505 1.349 . S
C1490 C1488 1.327 . S
C1490 C1509 1.429 . S
C1490 H1514 0.950 . S
C1491 C1508 1.574 . S
C1491 C1510 1.368 . S
C1491 H1515 0.949 . S
H1492 C1496 0.949 . S
C1493 C1494 1.349 . S
C1493 C1495 1.327 . S
C1493 H1516 0.950 . S
C1494 C1493 1.349 . S
C1494 C1506 1.349 . S
C1495 C1493 1.327 . S
C1495 C1511 1.429 . S
C1495 H1517 0.950 . S
C1496 H1492 0.949 . S
C1496 C1504 1.574 . S
C1496 C1512 1.368 . S
H1497 C1505 0.950 . S
H1498 C1503 0.950 . S
H1499 C1504 0.949 . S
H1500 C1506 0.950 . S
H1501 C1507 0.950 . S
H1502 C1508 0.949 . S
C1503 H1498 0.950 . S
C1503 C1505 1.327 . S
C1503 C1509 1.429 . S
C1504 C1496 1.574 . S
C1504 H1499 0.949 . S
C1504 C1510 1.368 . S
C1505 C1489 1.349 . S
C1505 H1497 0.950 . S
C1505 C1503 1.327 . S
C1506 C1494 1.349 . S
C1506 H1500 0.950 . S
C1506 C1507 1.327 . S
C1507 H1501 0.950 . S
C1507 C1506 1.327 . S
C1507 C1511 1.429 . S
C1508 C1491 1.574 . S
C1508 H1502 0.949 . S
C1508 C1512 1.368 . S
C1509 C1490 1.429 . S
C1509 C1503 1.429 . S
C1509 C1510 1.523 . S
C1510 C1491 1.368 . S
C1510 C1504 1.368 . S
C1510 C1509 1.523 . S
C1511 C1495 1.429 . S
C1511 C1507 1.429 . S
C1511 C1512 1.523 . S
C1512 C1496 1.368 . S
C1512 C1508 1.368 . S
C1512 C1511 1.523 . S
H1513 C1488 0.950 . S
H1514 C1490 0.950 . S
H1515 C1491 0.949 . S
H1516 C1493 0.950 . S
H1517 C1495 0.950 . S
C1518 C1519 1.349 . S
C1518 C1520 1.327 . S
C1518 H1543 0.950 . S
C1519 C1518 1.349 . S
C1519 C1535 1.349 . S
C1520 C1518 1.327 . S
C1520 C1539 1.429 . S
C1520 H1544 0.950 . S
C1521 C1538 1.574 . S
C1521 C1540 1.368 . S
C1521 H1545 0.949 . S
H1522 C1526 0.949 . S
C1523 C1524 1.349 . S
C1523 C1525 1.327 . S
C1523 H1546 0.950 . S
C1524 C1523 1.349 . S
C1524 C1536 1.349 . S
C1525 C1523 1.327 . S
C1525 C1541 1.429 . S
C1525 H1547 0.950 . S
C1526 H1522 0.949 . S
C1526 C1534 1.574 . S
C1526 C1542 1.368 . S
H1527 C1535 0.950 . S
H1528 C1533 0.950 . S
H1529 C1534 0.949 . S
H1530 C1536 0.950 . S
H1531 C1537 0.950 . S
H1532 C1538 0.949 . S
C1533 H1528 0.950 . S
C1533 C1535 1.327 . S
C1533 C1539 1.429 . S
C1534 C1526 1.574 . S
C1534 H1529 0.949 . S
C1534 C1540 1.368 . S
C1535 C1519 1.349 . S
C1535 H1527 0.950 . S
C1535 C1533 1.327 . S
C1536 C1524 1.349 . S
C1536 H1530 0.950 . S
C1536 C1537 1.327 . S
C1537 H1531 0.950 . S
C1537 C1536 1.327 . S
C1537 C1541 1.429 . S
C1538 C1521 1.574 . S
C1538 H1532 0.949 . S
C1538 C1542 1.368 . S
C1539 C1520 1.429 . S
C1539 C1533 1.429 . S
C1539 C1540 1.523 . S
C1540 C1521 1.368 . S
C1540 C1534 1.368 . S
C1540 C1539 1.523 . S
C1541 C1525 1.429 . S
C1541 C1537 1.429 . S
C1541 C1542 1.523 . S
C1542 C1526 1.368 . S
C1542 C1538 1.368 . S
C1542 C1541 1.523 . S
H1543 C1518 0.950 . S
H1544 C1520 0.950 . S
H1545 C1521 0.949 . S
H1546 C1523 0.950 . S
H1547 C1525 0.950 . S
C1548 C1549 1.349 . S
C1548 C1550 1.327 . S
C1548 H1573 0.950 . S
C1549 C1548 1.349 . S
C1549 C1565 1.349 . S
C1550 C1548 1.327 . S
C1550 C1569 1.429 . S
C1550 H1574 0.950 . S
C1551 C1568 1.574 . S
C1551 C1570 1.368 1_554 S
C1551 H1575 0.949 . S
H1552 C1556 0.949 . S
C1553 C1554 1.349 . S
C1553 C1555 1.327 . S
C1553 H1576 0.950 . S
C1554 C1553 1.349 . S
C1554 C1566 1.349 1_554 S
C1555 C1553 1.327 . S
C1555 C1571 1.399 1_554 S
C1555 H1577 0.950 . S
C1556 H1552 0.949 . S
C1556 C1564 1.574 . S
C1556 C1572 1.368 . S
H1557 C1565 0.950 1_554 S
H1558 C1563 0.955 1_554 S
H1559 C1564 0.949 . S
H1560 C1566 0.950 . S
H1561 C1567 0.950 . S
H1562 C1568 0.949 . S
C1563 H1558 0.955 1_556 S
C1563 C1565 1.326 . S
C1563 C1569 1.425 . S
C1564 C1556 1.574 . S
C1564 H1559 0.949 . S
C1564 C1570 1.368 . S
C1565 C1549 1.349 . S
C1565 H1557 0.950 1_556 S
C1565 C1563 1.326 . S
C1566 C1554 1.349 1_556 S
C1566 H1560 0.950 . S
C1566 C1567 1.327 . S
C1567 H1561 0.950 . S
C1567 C1566 1.327 . S
C1567 C1571 1.452 . S
C1568 C1551 1.574 . S
C1568 H1562 0.949 . S
C1568 C1572 1.368 1_554 S
C1569 C1550 1.429 . S
C1569 C1563 1.425 . S
C1569 C1570 1.523 . S
C1570 C1551 1.368 1_556 S
C1570 C1564 1.368 . S
C1570 C1569 1.523 . S
C1571 C1555 1.399 1_556 S
C1571 C1567 1.452 . S
C1571 C1572 1.530 . S
C1572 C1556 1.368 . S
C1572 C1568 1.368 1_556 S
C1572 C1571 1.530 . S
H1573 C1548 0.950 . S
H1574 C1550 0.950 . S
H1575 C1551 0.949 . S
H1576 C1553 0.950 . S
H1577 C1555 0.950 . S
C1578 C1579 1.349 . S
C1578 C1580 1.327 . S
C1578 H1603 0.950 . S
C1579 C1578 1.349 . S
C1579 C1595 1.349 . S
C1580 C1578 1.327 . S
C1580 C1599 1.429 . S
C1580 H1604 0.950 . S
C1581 C1598 1.574 . S
C1581 C1600 1.368 . S
C1581 H1605 0.949 . S
H1582 C1586 0.949 . S
C1583 C1584 1.349 . S
C1583 C1585 1.327 . S
C1583 H1606 0.950 . S
C1584 C1583 1.349 . S
C1584 C1596 1.349 . S
C1585 C1583 1.327 . S
C1585 C1601 1.429 . S
C1585 H1607 0.950 . S
C1586 H1582 0.949 . S
C1586 C1594 1.574 . S
C1586 C1602 1.368 . S
H1587 C1595 0.950 . S
H1588 C1593 0.950 . S
H1589 C1594 0.949 . S
H1590 C1596 0.950 . S
H1591 C1597 0.950 . S
H1592 C1598 0.949 . S
C1593 H1588 0.950 . S
C1593 C1595 1.327 . S
C1593 C1599 1.429 . S
C1594 C1586 1.574 . S
C1594 H1589 0.949 . S
C1594 C1600 1.368 . S
C1595 C1579 1.349 . S
C1595 H1587 0.950 . S
C1595 C1593 1.327 . S
C1596 C1584 1.349 . S
C1596 H1590 0.950 . S
C1596 C1597 1.327 . S
C1597 H1591 0.950 . S
C1597 C1596 1.327 . S
C1597 C1601 1.429 . S
C1598 C1581 1.574 . S
C1598 H1592 0.949 . S
C1598 C1602 1.368 . S
C1599 C1580 1.429 . S
C1599 C1593 1.429 . S
C1599 C1600 1.523 . S
C1600 C1581 1.368 . S
C1600 C1594 1.368 . S
C1600 C1599 1.523 . S
C1601 C1585 1.429 . S
C1601 C1597 1.429 . S
C1601 C1602 1.523 . S
C1602 C1586 1.368 . S
C1602 C1598 1.368 . S
C1602 C1601 1.523 . S
H1603 C1578 0.950 . S
H1604 C1580 0.950 . S
H1605 C1581 0.949 . S
H1606 C1583 0.950 . S
H1607 C1585 0.950 . S
C1608 C1609 1.349 . S
C1608 C1610 1.327 . S
C1608 H1633 0.950 . S
C1609 C1608 1.349 . S
C1609 C1625 1.349 . S
C1610 C1608 1.327 . S
C1610 C1629 1.429 . S
C1610 H1634 0.950 . S
C1611 C1628 1.574 . S
C1611 C1630 1.368 . S
C1611 H1635 0.949 . S
H1612 C1616 0.949 . S
C1613 C1614 1.349 . S
C1613 C1615 1.327 . S
C1613 H1636 0.950 . S
C1614 C1613 1.349 . S
C1614 C1626 1.349 . S
C1615 C1613 1.327 . S
C1615 C1631 1.429 . S
C1615 H1637 0.950 . S
C1616 H1612 0.949 . S
C1616 C1624 1.574 . S
C1616 C1632 1.368 . S
H1617 C1625 0.950 . S
H1618 C1623 0.950 . S
H1619 C1624 0.949 . S
H1620 C1626 0.950 . S
H1621 C1627 0.950 . S
H1622 C1628 0.949 . S
C1623 H1618 0.950 . S
C1623 C1625 1.327 . S
C1623 C1629 1.429 . S
C1624 C1616 1.574 . S
C1624 H1619 0.949 . S
C1624 C1630 1.368 . S
C1625 C1609 1.349 . S
C1625 H1617 0.950 . S
C1625 C1623 1.327 . S
C1626 C1614 1.349 . S
C1626 H1620 0.950 . S
C1626 C1627 1.327 . S
C1627 H1621 0.950 . S
C1627 C1626 1.327 . S
C1627 C1631 1.429 . S
C1628 C1611 1.574 . S
C1628 H1622 0.949 . S
C1628 C1632 1.368 . S
C1629 C1610 1.429 . S
C1629 C1623 1.429 . S
C1629 C1630 1.523 . S
C1630 C1611 1.368 . S
C1630 C1624 1.368 . S
C1630 C1629 1.523 . S
C1631 C1615 1.429 . S
C1631 C1627 1.429 . S
C1631 C1632 1.523 . S
C1632 C1616 1.368 . S
C1632 C1628 1.368 . S
C1632 C1631 1.523 . S
H1633 C1608 0.950 . S
H1634 C1610 0.950 . S
H1635 C1611 0.949 . S
H1636 C1613 0.950 . S
H1637 C1615 0.950 . S
C1638 C1639 1.349 . S
C1638 C1640 1.327 . S
C1638 H1663 0.950 . S
C1639 C1638 1.349 . S
C1639 C1655 1.349 . S
C1640 C1638 1.327 . S
C1640 C1659 1.429 . S
C1640 H1664 0.950 . S
C1641 C1658 1.574 . S
C1641 C1660 1.368 . S
C1641 H1665 0.949 . S
H1642 C1646 0.949 . S
C1643 C1644 1.349 . S
C1643 C1645 1.327 . S
C1643 H1666 0.950 . S
C1644 C1643 1.349 . S
C1644 C1656 1.349 . S
C1645 C1643 1.327 . S
C1645 C1661 1.429 . S
C1645 H1667 0.950 . S
C1646 H1642 0.949 . S
C1646 C1654 1.574 . S
C1646 C1662 1.368 . S
H1647 C1655 0.950 . S
H1648 C1653 0.950 . S
H1649 C1654 0.949 . S
H1650 C1656 0.950 . S
H1651 C1657 0.950 . S
H1652 C1658 0.949 . S
C1653 H1648 0.950 . S
C1653 C1655 1.327 . S
C1653 C1659 1.429 . S
C1654 C1646 1.574 . S
C1654 H1649 0.949 . S
C1654 C1660 1.368 . S
C1655 C1639 1.349 . S
C1655 H1647 0.950 . S
C1655 C1653 1.327 . S
C1656 C1644 1.349 . S
C1656 H1650 0.950 . S
C1656 C1657 1.327 . S
C1657 H1651 0.950 . S
C1657 C1656 1.327 . S
C1657 C1661 1.429 . S
C1658 C1641 1.574 . S
C1658 H1652 0.949 . S
C1658 C1662 1.368 . S
C1659 C1640 1.429 . S
C1659 C1653 1.429 . S
C1659 C1660 1.523 . S
C1660 C1641 1.368 . S
C1660 C1654 1.368 . S
C1660 C1659 1.523 . S
C1661 C1645 1.429 . S
C1661 C1657 1.429 . S
C1661 C1662 1.523 . S
C1662 C1646 1.368 . S
C1662 C1658 1.368 . S
C1662 C1661 1.523 . S
H1663 C1638 0.950 . S
H1664 C1640 0.950 . S
H1665 C1641 0.949 . S
H1666 C1643 0.950 . S
H1667 C1645 0.950 . S
C1668 C1669 1.349 . S
C1668 C1670 1.327 . S
C1668 H1693 0.950 . S
C1669 C1668 1.349 . S
C1669 C1685 1.349 . S
C1670 C1668 1.327 . S
C1670 C1689 1.429 . S
C1670 H1694 0.950 . S
C1671 C1688 1.574 . S
C1671 C1690 1.368 . S
C1671 H1695 0.949 . S
H1672 C1676 0.949 . S
C1673 C1674 1.349 . S
C1673 C1675 1.327 . S
C1673 H1696 0.950 . S
C1674 C1673 1.349 . S
C1674 C1686 1.349 . S
C1675 C1673 1.327 . S
C1675 C1691 1.429 . S
C1675 H1697 0.950 . S
C1676 H1672 0.949 . S
C1676 C1684 1.574 . S
C1676 C1692 1.368 . S
H1677 C1685 0.950 . S
H1678 C1683 0.950 . S
H1679 C1684 0.949 . S
H1680 C1686 0.950 . S
H1681 C1687 0.950 . S
H1682 C1688 0.949 . S
C1683 H1678 0.950 . S
C1683 C1685 1.327 . S
C1683 C1689 1.429 . S
C1684 C1676 1.574 . S
C1684 H1679 0.949 . S
C1684 C1690 1.368 . S
C1685 C1669 1.349 . S
C1685 H1677 0.950 . S
C1685 C1683 1.327 . S
C1686 C1674 1.349 . S
C1686 H1680 0.950 . S
C1686 C1687 1.327 . S
C1687 H1681 0.950 . S
C1687 C1686 1.327 . S
C1687 C1691 1.429 . S
C1688 C1671 1.574 . S
C1688 H1682 0.949 . S
C1688 C1692 1.368 . S
C1689 C1670 1.429 . S
C1689 C1683 1.429 . S
C1689 C1690 1.523 . S
C1690 C1671 1.368 . S
C1690 C1684 1.368 . S
C1690 C1689 1.523 . S
C1691 C1675 1.429 . S
C1691 C1687 1.429 . S
C1691 C1692 1.523 . S
C1692 C1676 1.368 . S
C1692 C1688 1.368 . S
C1692 C1691 1.523 . S
H1693 C1668 0.950 . S
H1694 C1670 0.950 . S
H1695 C1671 0.949 . S
H1696 C1673 0.950 . S
H1697 C1675 0.950 . S
C1698 C1699 1.349 . S
C1698 C1700 1.327 . S
C1698 H1723 0.950 . S
C1699 C1698 1.349 . S
C1699 C1715 1.349 . S
C1700 C1698 1.327 . S
C1700 C1719 1.429 . S
C1700 H1724 0.950 . S
C1701 C1718 1.574 . S
C1701 C1720 1.368 . S
C1701 H1725 0.949 . S
H1702 C1706 0.949 . S
C1703 C1704 1.349 . S
C1703 C1705 1.327 . S
C1703 H1726 0.950 . S
C1704 C1703 1.349 . S
C1704 C1716 1.349 . S
C1705 C1703 1.327 . S
C1705 C1721 1.429 . S
C1705 H1727 0.950 . S
C1706 H1702 0.949 . S
C1706 C1714 1.574 . S
C1706 C1722 1.368 . S
H1707 C1715 0.950 . S
H1708 C1713 0.950 . S
H1709 C1714 0.949 . S
H1710 C1716 0.950 . S
H1711 C1717 0.950 . S
H1712 C1718 0.949 . S
C1713 H1708 0.950 . S
C1713 C1715 1.327 . S
C1713 C1719 1.429 . S
C1714 C1706 1.574 . S
C1714 H1709 0.949 . S
C1714 C1720 1.368 . S
C1715 C1699 1.349 . S
C1715 H1707 0.950 . S
C1715 C1713 1.327 . S
C1716 C1704 1.349 . S
C1716 H1710 0.950 . S
C1716 C1717 1.327 . S
C1717 H1711 0.950 . S
C1717 C1716 1.327 . S
C1717 C1721 1.429 . S
C1718 C1701 1.574 . S
C1718 H1712 0.949 . S
C1718 C1722 1.368 . S
C1719 C1700 1.429 . S
C1719 C1713 1.429 . S
C1719 C1720 1.523 . S
C1720 C1701 1.368 . S
C1720 C1714 1.368 . S
C1720 C1719 1.523 . S
C1721 C1705 1.429 . S
C1721 C1717 1.429 . S
C1721 C1722 1.523 . S
C1722 C1706 1.368 . S
C1722 C1718 1.368 . S
C1722 C1721 1.523 . S
H1723 C1698 0.950 . S
H1724 C1700 0.950 . S
H1725 C1701 0.949 . S
H1726 C1703 0.950 . S
H1727 C1705 0.950 . S
C1728 C1729 1.349 . S
C1728 C1730 1.327 . S
C1728 H1753 0.950 . S
C1729 C1728 1.349 . S
C1729 C1745 1.349 . S
C1730 C1728 1.327 . S
C1730 C1749 1.429 . S
C1730 H1754 0.950 . S
C1731 C1748 1.574 . S
C1731 C1750 1.368 . S
C1731 H1755 0.949 . S
H1732 C1736 0.949 . S
C1733 C1734 1.349 . S
C1733 C1735 1.327 . S
C1733 H1756 0.950 . S
C1734 C1733 1.349 . S
C1734 C1746 1.349 . S
C1735 C1733 1.327 . S
C1735 C1751 1.429 . S
C1735 H1757 0.950 . S
C1736 H1732 0.949 . S
C1736 C1744 1.574 . S
C1736 C1752 1.368 . S
H1737 C1745 0.950 . S
H1738 C1743 0.950 . S
H1739 C1744 0.949 . S
H1740 C1746 0.950 . S
H1741 C1747 0.950 . S
H1742 C1748 0.949 . S
C1743 H1738 0.950 . S
C1743 C1745 1.327 . S
C1743 C1749 1.429 . S
C1744 C1736 1.574 . S
C1744 H1739 0.949 . S
C1744 C1750 1.368 . S
C1745 C1729 1.349 . S
C1745 H1737 0.950 . S
C1745 C1743 1.327 . S
C1746 C1734 1.349 . S
C1746 H1740 0.950 . S
C1746 C1747 1.327 . S
C1747 H1741 0.950 . S
C1747 C1746 1.327 . S
C1747 C1751 1.429 . S
C1748 C1731 1.574 . S
C1748 H1742 0.949 . S
C1748 C1752 1.368 . S
C1749 C1730 1.429 . S
C1749 C1743 1.429 . S
C1749 C1750 1.523 . S
C1750 C1731 1.368 . S
C1750 C1744 1.368 . S
C1750 C1749 1.523 . S
C1751 C1735 1.429 . S
C1751 C1747 1.429 . S
C1751 C1752 1.523 . S
C1752 C1736 1.368 . S
C1752 C1748 1.368 . S
C1752 C1751 1.523 . S
H1753 C1728 0.950 . S
H1754 C1730 0.950 . S
H1755 C1731 0.949 . S
H1756 C1733 0.950 . S
H1757 C1735 0.950 . S
C1758 C1759 1.349 . S
C1758 C1760 1.327 . S
C1758 H1783 0.950 . S
C1759 C1758 1.349 . S
C1759 C1775 1.349 . S
C1760 C1758 1.327 . S
C1760 C1779 1.429 . S
C1760 H1784 0.950 . S
C1761 C1778 1.574 . S
C1761 C1780 1.368 . S
C1761 H1785 0.949 1_545 S
H1762 C1766 0.949 . S
C1763 C1764 1.349 1_565 S
C1763 C1765 1.327 . S
C1763 H1786 0.950 . S
C1764 C1763 1.349 1_545 S
C1764 C1776 1.349 . S
C1765 C1763 1.327 . S
C1765 C1781 1.429 1_565 S
C1765 H1787 0.950 . S
C1766 H1762 0.949 . S
C1766 C1774 1.574 . S
C1766 C1782 1.368 . S
H1767 C1775 0.950 . S
H1768 C1773 0.994 . S
H1769 C1774 0.949 . S
H1770 C1776 0.950 . S
H1771 C1777 0.950 . S
H1772 C1778 0.949 1_565 S
C1773 H1768 0.994 . S
C1773 C1775 1.327 . S
C1773 C1779 1.429 . S
C1774 C1766 1.574 . S
C1774 H1769 0.949 . S
C1774 C1780 1.368 . S
C1775 C1759 1.349 . S
C1775 H1767 0.950 . S
C1775 C1773 1.327 . S
C1776 C1764 1.349 . S
C1776 H1770 0.950 . S
C1776 C1777 1.327 . S
C1777 H1771 0.950 . S
C1777 C1776 1.327 . S
C1777 C1781 1.429 . S
C1778 C1761 1.574 . S
C1778 H1772 0.949 1_545 S
C1778 C1782 1.368 . S
C1779 C1760 1.429 . S
C1779 C1773 1.429 . S
C1779 C1780 1.523 . S
C1780 C1761 1.368 . S
C1780 C1774 1.368 . S
C1780 C1779 1.523 . S
C1781 C1765 1.429 1_545 S
C1781 C1777 1.429 . S
C1781 C1782 1.523 . S
C1782 C1766 1.368 . S
C1782 C1778 1.368 . S
C1782 C1781 1.523 . S
H1783 C1758 0.950 . S
H1784 C1760 0.950 . S
H1785 C1761 0.949 1_565 S
H1786 C1763 0.950 . S
H1787 C1765 0.950 . S
C1788 C1789 1.349 . S
C1788 C1790 1.327 . S
C1788 H1813 0.950 . S
C1789 C1788 1.349 . S
C1789 C1805 1.349 . S
C1790 C1788 1.327 . S
C1790 C1809 1.429 . S
C1790 H1814 0.950 . S
C1791 C1808 1.574 . S
C1791 C1810 1.368 . S
C1791 H1815 0.949 . S
H1792 C1796 0.949 . S
C1793 C1794 1.349 . S
C1793 C1795 1.327 . S
C1793 H1816 0.950 . S
C1794 C1793 1.349 . S
C1794 C1806 1.349 . S
C1795 C1793 1.327 . S
C1795 C1811 1.429 . S
C1795 H1817 0.950 . S
C1796 H1792 0.949 . S
C1796 C1804 1.574 . S
C1796 C1812 1.368 . S
H1797 C1805 0.950 . S
H1798 C1803 0.950 . S
H1799 C1804 0.949 . S
H1800 C1806 0.950 . S
H1801 C1807 0.950 . S
H1802 C1808 0.949 . S
C1803 H1798 0.950 . S
C1803 C1805 1.327 . S
C1803 C1809 1.429 . S
C1804 C1796 1.574 . S
C1804 H1799 0.949 . S
C1804 C1810 1.368 . S
C1805 C1789 1.349 . S
C1805 H1797 0.950 . S
C1805 C1803 1.327 . S
C1806 C1794 1.349 . S
C1806 H1800 0.950 . S
C1806 C1807 1.327 . S
C1807 H1801 0.950 . S
C1807 C1806 1.327 . S
C1807 C1811 1.429 . S
C1808 C1791 1.574 . S
C1808 H1802 0.949 . S
C1808 C1812 1.368 . S
C1809 C1790 1.429 . S
C1809 C1803 1.429 . S
C1809 C1810 1.523 . S
C1810 C1791 1.368 . S
C1810 C1804 1.368 . S
C1810 C1809 1.523 . S
C1811 C1795 1.429 . S
C1811 C1807 1.429 . S
C1811 C1812 1.523 . S
C1812 C1796 1.368 . S
C1812 C1808 1.368 . S
C1812 C1811 1.523 . S
H1813 C1788 0.950 . S
H1814 C1790 0.950 . S
H1815 C1791 0.949 . S
H1816 C1793 0.950 . S
H1817 C1795 0.950 . S
C1818 C1819 1.349 . S
C1818 C1820 1.327 . S
C1818 H1843 0.950 . S
C1819 C1818 1.349 . S
C1819 C1835 1.349 . S
C1820 C1818 1.327 . S
C1820 C1839 1.429 . S
C1820 H1844 0.950 . S
C1821 C1838 1.574 . S
C1821 C1840 1.368 . S
C1821 H1845 0.949 . S
H1822 C1826 0.949 . S
C1823 C1824 1.349 . S
C1823 C1825 1.327 . S
C1823 H1846 0.950 . S
C1824 C1823 1.349 . S
C1824 C1836 1.349 . S
C1825 C1823 1.327 . S
C1825 C1841 1.429 . S
C1825 H1847 0.950 . S
C1826 H1822 0.949 . S
C1826 C1834 1.574 . S
C1826 C1842 1.368 . S
H1827 C1835 0.950 . S
H1828 C1833 0.950 . S
H1829 C1834 0.949 . S
H1830 C1836 0.950 . S
H1831 C1837 0.950 . S
H1832 C1838 0.949 . S
C1833 H1828 0.950 . S
C1833 C1835 1.327 . S
C1833 C1839 1.429 . S
C1834 C1826 1.574 . S
C1834 H1829 0.949 . S
C1834 C1840 1.368 . S
C1835 C1819 1.349 . S
C1835 H1827 0.950 . S
C1835 C1833 1.327 . S
C1836 C1824 1.349 . S
C1836 H1830 0.950 . S
C1836 C1837 1.327 . S
C1837 H1831 0.950 . S
C1837 C1836 1.327 . S
C1837 C1841 1.429 . S
C1838 C1821 1.574 . S
C1838 H1832 0.949 . S
C1838 C1842 1.368 . S
C1839 C1820 1.429 . S
C1839 C1833 1.429 . S
C1839 C1840 1.523 . S
C1840 C1821 1.368 . S
C1840 C1834 1.368 . S
C1840 C1839 1.523 . S
C1841 C1825 1.429 . S
C1841 C1837 1.429 . S
C1841 C1842 1.523 . S
C1842 C1826 1.368 . S
C1842 C1838 1.368 . S
C1842 C1841 1.523 . S
H1843 C1818 0.950 . S
H1844 C1820 0.950 . S
H1845 C1821 0.949 . S
H1846 C1823 0.950 . S
H1847 C1825 0.950 . S
C1848 C1849 1.349 . S
C1848 C1850 1.327 . S
C1848 H1873 0.950 . S
C1849 C1848 1.349 . S
C1849 C1865 1.349 . S
C1850 C1848 1.327 . S
C1850 C1869 1.429 . S
C1850 H1874 0.950 . S
C1851 C1868 1.574 . S
C1851 C1870 1.368 . S
C1851 H1875 0.949 . S
H1852 C1856 0.949 . S
C1853 C1854 1.349 . S
C1853 C1855 1.327 . S
C1853 H1876 0.950 . S
C1854 C1853 1.349 . S
C1854 C1866 1.349 . S
C1855 C1853 1.327 . S
C1855 C1871 1.429 . S
C1855 H1877 0.950 . S
C1856 H1852 0.949 . S
C1856 C1864 1.574 . S
C1856 C1872 1.368 . S
H1857 C1865 0.950 . S
H1858 C1863 0.950 . S
H1859 C1864 0.949 . S
H1860 C1866 0.950 . S
H1861 C1867 0.950 . S
H1862 C1868 0.949 . S
C1863 H1858 0.950 . S
C1863 C1865 1.327 . S
C1863 C1869 1.429 . S
C1864 C1856 1.574 . S
C1864 H1859 0.949 . S
C1864 C1870 1.368 . S
C1865 C1849 1.349 . S
C1865 H1857 0.950 . S
C1865 C1863 1.327 . S
C1866 C1854 1.349 . S
C1866 H1860 0.950 . S
C1866 C1867 1.327 . S
C1867 H1861 0.950 . S
C1867 C1866 1.327 . S
C1867 C1871 1.429 . S
C1868 C1851 1.574 . S
C1868 H1862 0.949 . S
C1868 C1872 1.368 . S
C1869 C1850 1.429 . S
C1869 C1863 1.429 . S
C1869 C1870 1.523 . S
C1870 C1851 1.368 . S
C1870 C1864 1.368 . S
C1870 C1869 1.523 . S
C1871 C1855 1.429 . S
C1871 C1867 1.429 . S
C1871 C1872 1.523 . S
C1872 C1856 1.368 . S
C1872 C1868 1.368 . S
C1872 C1871 1.523 . S
H1873 C1848 0.950 . S
H1874 C1850 0.950 . S
H1875 C1851 0.949 . S
H1876 C1853 0.950 . S
H1877 C1855 0.950 . S
C1878 C1879 1.349 . S
C1878 C1880 1.327 . S
C1878 H1903 0.950 . S
C1879 C1878 1.349 . S
C1879 C1895 1.349 . S
C1880 C1878 1.327 . S
C1880 C1899 1.429 . S
C1880 H1904 0.950 . S
C1881 C1898 1.574 . S
C1881 C1900 1.368 . S
C1881 H1905 0.949 . S
H1882 C1886 0.949 1_565 S
C1883 C1884 1.349 . S
C1883 C1885 1.327 . S
C1883 H1906 0.950 . S
C1884 C1883 1.349 . S
C1884 C1896 1.349 . S
C1885 C1883 1.327 . S
C1885 C1901 1.429 . S
C1885 H1907 0.950 . S
C1886 H1882 0.949 1_545 S
C1886 C1894 1.574 . S
C1886 C1902 1.368 . S
H1887 C1895 0.950 . S
H1888 C1893 0.950 . S
H1889 C1894 0.967 . S
H1890 C1896 0.950 1_565 S
H1891 C1897 0.950 1_565 S
H1892 C1898 0.949 . S
C1893 H1888 0.950 . S
C1893 C1895 1.327 . S
C1893 C1899 1.429 . S
C1894 C1886 1.574 . S
C1894 H1889 0.967 . S
C1894 C1900 1.368 . S
C1895 C1879 1.349 . S
C1895 H1887 0.950 . S
C1895 C1893 1.327 . S
C1896 C1884 1.349 . S
C1896 H1890 0.950 1_545 S
C1896 C1897 1.327 . S
C1897 H1891 0.950 1_545 S
C1897 C1896 1.327 . S
C1897 C1901 1.429 . S
C1898 C1881 1.574 . S
C1898 H1892 0.949 . S
C1898 C1902 1.368 . S
C1899 C1880 1.429 . S
C1899 C1893 1.429 . S
C1899 C1900 1.523 . S
C1900 C1881 1.368 . S
C1900 C1894 1.368 . S
C1900 C1899 1.523 . S
C1901 C1885 1.429 . S
C1901 C1897 1.429 . S
C1901 C1902 1.523 . S
C1902 C1886 1.368 . S
C1902 C1898 1.368 . S
C1902 C1901 1.523 . S
H1903 C1878 0.950 . S
H1904 C1880 0.950 . S
H1905 C1881 0.949 . S
H1906 C1883 0.950 . S
H1907 C1885 0.950 . S
C1908 C1909 1.349 . S
C1908 C1910 1.327 . S
C1908 H1933 0.950 . S
C1909 C1908 1.349 . S
C1909 C1925 1.349 . S
C1910 C1908 1.327 . S
C1910 C1929 1.429 . S
C1910 H1934 0.950 . S
C1911 C1928 1.574 . S
C1911 C1930 1.368 . S
C1911 H1935 0.949 . S
H1912 C1916 0.949 . S
C1913 C1914 1.349 . S
C1913 C1915 1.327 . S
C1913 H1936 0.950 . S
C1914 C1913 1.349 . S
C1914 C1926 1.349 . S
C1915 C1913 1.327 . S
C1915 C1931 1.429 . S
C1915 H1937 0.950 . S
C1916 H1912 0.949 . S
C1916 C1924 1.574 . S
C1916 C1932 1.368 . S
H1917 C1925 0.950 . S
H1918 C1923 0.950 . S
H1919 C1924 0.949 . S
H1920 C1926 0.950 . S
H1921 C1927 0.950 . S
H1922 C1928 0.949 . S
C1923 H1918 0.950 . S
C1923 C1925 1.327 . S
C1923 C1929 1.429 . S
C1924 C1916 1.574 . S
C1924 H1919 0.949 . S
C1924 C1930 1.368 . S
C1925 C1909 1.349 . S
C1925 H1917 0.950 . S
C1925 C1923 1.327 . S
C1926 C1914 1.349 . S
C1926 H1920 0.950 . S
C1926 C1927 1.327 . S
C1927 H1921 0.950 . S
C1927 C1926 1.327 . S
C1927 C1931 1.429 . S
C1928 C1911 1.574 . S
C1928 H1922 0.949 . S
C1928 C1932 1.368 . S
C1929 C1910 1.429 . S
C1929 C1923 1.429 . S
C1929 C1930 1.523 . S
C1930 C1911 1.368 . S
C1930 C1924 1.368 . S
C1930 C1929 1.523 . S
C1931 C1915 1.429 . S
C1931 C1927 1.429 . S
C1931 C1932 1.523 . S
C1932 C1916 1.368 . S
C1932 C1928 1.368 . S
C1932 C1931 1.523 . S
H1933 C1908 0.950 . S
H1934 C1910 0.950 . S
H1935 C1911 0.949 . S
H1936 C1913 0.950 . S
H1937 C1915 0.950 . S
C1938 C1939 1.349 . S
C1938 C1940 1.327 . S
C1938 H1963 0.950 . S
C1939 C1938 1.349 . S
C1939 C1955 1.349 . S
C1940 C1938 1.327 . S
C1940 C1959 1.429 . S
C1940 H1964 0.950 . S
C1941 C1958 1.574 . S
C1941 C1960 1.368 . S
C1941 H1965 0.949 . S
H1942 C1946 0.949 . S
C1943 C1944 1.349 . S
C1943 C1945 1.327 . S
C1943 H1966 0.950 . S
C1944 C1943 1.349 . S
C1944 C1956 1.349 . S
C1945 C1943 1.327 . S
C1945 C1961 1.429 . S
C1945 H1967 0.950 . S
C1946 H1942 0.949 . S
C1946 C1954 1.574 . S
C1946 C1962 1.368 . S
H1947 C1955 0.950 . S
H1948 C1953 0.950 . S
H1949 C1954 0.949 . S
H1950 C1956 0.950 . S
H1951 C1957 0.950 . S
H1952 C1958 0.949 . S
C1953 H1948 0.950 . S
C1953 C1955 1.327 . S
C1953 C1959 1.429 . S
C1954 C1946 1.574 . S
C1954 H1949 0.949 . S
C1954 C1960 1.368 . S
C1955 C1939 1.349 . S
C1955 H1947 0.950 . S
C1955 C1953 1.327 . S
C1956 C1944 1.349 . S
C1956 H1950 0.950 . S
C1956 C1957 1.327 . S
C1957 H1951 0.950 . S
C1957 C1956 1.327 . S
C1957 C1961 1.429 . S
C1958 C1941 1.574 . S
C1958 H1952 0.949 . S
C1958 C1962 1.368 . S
C1959 C1940 1.429 . S
C1959 C1953 1.429 . S
C1959 C1960 1.523 . S
C1960 C1941 1.368 . S
C1960 C1954 1.368 . S
C1960 C1959 1.523 . S
C1961 C1945 1.429 . S
C1961 C1957 1.429 . S
C1961 C1962 1.523 . S
C1962 C1946 1.368 . S
C1962 C1958 1.368 . S
C1962 C1961 1.523 . S
H1963 C1938 0.950 . S
H1964 C1940 0.950 . S
H1965 C1941 0.949 . S
H1966 C1943 0.950 . S
H1967 C1945 0.950 . S
C1968 C1969 1.349 . S
C1968 C1970 1.327 . S
C1968 H1993 0.950 . S
C1969 C1968 1.349 . S
C1969 C1985 1.349 . S
C1970 C1968 1.327 . S
C1970 C1989 1.429 . S
C1970 H1994 0.950 . S
C1971 C1988 1.574 . S
C1971 C1990 1.368 . S
C1971 H1995 0.949 . S
H1972 C1976 0.949 . S
C1973 C1974 1.349 . S
C1973 C1975 1.327 . S
C1973 H1996 0.950 . S
C1974 C1973 1.349 . S
C1974 C1986 1.349 . S
C1975 C1973 1.327 . S
C1975 C1991 1.429 . S
C1975 H1997 0.950 . S
C1976 H1972 0.949 . S
C1976 C1984 1.574 . S
C1976 C1992 1.368 . S
H1977 C1985 0.950 . S
H1978 C1983 0.950 . S
H1979 C1984 0.949 . S
H1980 C1986 0.950 . S
H1981 C1987 0.950 . S
H1982 C1988 0.949 . S
C1983 H1978 0.950 . S
C1983 C1985 1.327 . S
C1983 C1989 1.429 . S
C1984 C1976 1.574 . S
C1984 H1979 0.949 . S
C1984 C1990 1.368 . S
C1985 C1969 1.349 . S
C1985 H1977 0.950 . S
C1985 C1983 1.327 . S
C1986 C1974 1.349 . S
C1986 H1980 0.950 . S
C1986 C1987 1.327 . S
C1987 H1981 0.950 . S
C1987 C1986 1.327 . S
C1987 C1991 1.429 . S
C1988 C1971 1.574 . S
C1988 H1982 0.949 . S
C1988 C1992 1.368 . S
C1989 C1970 1.429 . S
C1989 C1983 1.429 . S
C1989 C1990 1.523 . S
C1990 C1971 1.368 . S
C1990 C1984 1.368 . S
C1990 C1989 1.523 . S
C1991 C1975 1.429 . S
C1991 C1987 1.429 . S
C1991 C1992 1.523 . S
C1992 C1976 1.368 . S
C1992 C1988 1.368 . S
C1992 C1991 1.523 . S
H1993 C1968 0.950 . S
H1994 C1970 0.950 . S
H1995 C1971 0.949 . S
H1996 C1973 0.950 . S
H1997 C1975 0.950 . S
C1998 C1999 1.349 . S
C1998 C2000 1.327 . S
C1998 H2023 0.934 1_655 S
C1999 C1998 1.349 . S
C1999 C2015 1.349 . S
C2000 C1998 1.327 . S
C2000 C2019 1.429 . S
C2000 H2024 0.950 1_655 S
C2001 C2018 1.574 . S
C2001 C2020 1.368 . S
C2001 H2025 0.949 . S
H2002 C2006 0.949 . S
C2003 C2004 1.348 . S
C2003 C2005 1.327 . S
C2003 H2026 0.950 . S
C2004 C2003 1.348 . S
C2004 C2016 1.349 1_655 S
C2005 C2003 1.327 . S
C2005 C2021 1.429 . S
C2005 H2027 0.950 . S
C2006 H2002 0.949 . S
C2006 C2014 1.574 . S
C2006 C2022 1.368 1_455 S
H2007 C2015 0.950 . S
H2008 C2013 0.950 . S
H2009 C2014 0.949 . S
H2010 C2016 0.950 . S
H2011 C2017 0.950 . S
H2012 C2018 0.949 . S
C2013 H2008 0.950 . S
C2013 C2015 1.327 . S
C2013 C2019 1.429 . S
C2014 C2006 1.574 . S
C2014 H2009 0.949 . S
C2014 C2020 1.368 1_455 S
C2015 C1999 1.349 . S
C2015 H2007 0.950 . S
C2015 C2013 1.327 . S
C2016 C2004 1.349 1_455 S
C2016 H2010 0.950 . S
C2016 C2017 1.327 . S
C2017 H2011 0.950 . S
C2017 C2016 1.327 . S
C2017 C2021 1.429 1_455 S
C2018 C2001 1.574 . S
C2018 H2012 0.949 . S
C2018 C2022 1.368 . S
C2019 C2000 1.429 . S
C2019 C2013 1.429 . S
C2019 C2020 1.523 . S
C2020 C2001 1.368 . S
C2020 C2014 1.368 1_655 S
C2020 C2019 1.523 . S
C2021 C2005 1.429 . S
C2021 C2017 1.429 1_655 S
C2021 C2022 1.523 . S
C2022 C2006 1.368 1_655 S
C2022 C2018 1.368 . S
C2022 C2021 1.523 . S
H2023 C1998 0.934 1_455 S
H2024 C2000 0.950 1_455 S
H2025 C2001 0.949 . S
H2026 C2003 0.950 . S
H2027 C2005 0.950 . S
C2028 C2029 1.349 . S
C2028 C2030 1.327 . S
C2028 H2053 0.950 . S
C2029 C2028 1.349 . S
C2029 C2045 1.349 . S
C2030 C2028 1.327 . S
C2030 C2049 1.429 . S
C2030 H2054 0.950 . S
C2031 C2048 1.574 . S
C2031 C2050 1.368 . S
C2031 H2055 0.949 . S
H2032 C2036 0.949 . S
C2033 C2034 1.349 . S
C2033 C2035 1.327 . S
C2033 H2056 0.950 . S
C2034 C2033 1.349 . S
C2034 C2046 1.349 . S
C2035 C2033 1.327 . S
C2035 C2051 1.429 . S
C2035 H2057 0.950 . S
C2036 H2032 0.949 . S
C2036 C2044 1.574 . S
C2036 C2052 1.368 . S
H2037 C2045 0.950 . S
H2038 C2043 0.950 . S
H2039 C2044 0.949 . S
H2040 C2046 0.950 . S
H2041 C2047 0.950 . S
H2042 C2048 0.949 . S
C2043 H2038 0.950 . S
C2043 C2045 1.327 . S
C2043 C2049 1.429 . S
C2044 C2036 1.574 . S
C2044 H2039 0.949 . S
C2044 C2050 1.368 . S
C2045 C2029 1.349 . S
C2045 H2037 0.950 . S
C2045 C2043 1.327 . S
C2046 C2034 1.349 . S
C2046 H2040 0.950 . S
C2046 C2047 1.327 . S
C2047 H2041 0.950 . S
C2047 C2046 1.327 . S
C2047 C2051 1.429 . S
C2048 C2031 1.574 . S
C2048 H2042 0.949 . S
C2048 C2052 1.368 . S
C2049 C2030 1.429 . S
C2049 C2043 1.429 . S
C2049 C2050 1.523 . S
C2050 C2031 1.368 . S
C2050 C2044 1.368 . S
C2050 C2049 1.523 . S
C2051 C2035 1.429 . S
C2051 C2047 1.429 . S
C2051 C2052 1.523 . S
C2052 C2036 1.368 . S
C2052 C2048 1.368 . S
C2052 C2051 1.523 . S
H2053 C2028 0.950 . S
H2054 C2030 0.950 . S
H2055 C2031 0.949 . S
H2056 C2033 0.950 . S
H2057 C2035 0.950 . S
C2058 C2059 1.349 . S
C2058 C2060 1.327 . S
C2058 H2083 0.950 . S
C2059 C2058 1.349 . S
C2059 C2075 1.349 . S
C2060 C2058 1.327 . S
C2060 C2079 1.429 . S
C2060 H2084 0.950 . S
C2061 C2078 1.574 . S
C2061 C2080 1.368 . S
C2061 H2085 0.949 . S
H2062 C2066 0.949 . S
C2063 C2064 1.349 . S
C2063 C2065 1.327 . S
C2063 H2086 0.963 . S
C2064 C2063 1.349 . S
C2064 C2076 1.349 . S
C2065 C2063 1.327 . S
C2065 C2081 1.429 . S
C2065 H2087 0.950 . S
C2066 H2062 0.949 . S
C2066 C2074 1.574 . S
C2066 C2082 1.368 . S
H2067 C2075 0.950 . S
H2068 C2073 0.950 . S
H2069 C2074 0.949 . S
H2070 C2076 0.950 . S
H2071 C2077 0.950 . S
H2072 C2078 0.949 . S
C2073 H2068 0.950 . S
C2073 C2075 1.327 . S
C2073 C2079 1.429 . S
C2074 C2066 1.574 . S
C2074 H2069 0.949 . S
C2074 C2080 1.368 . S
C2075 C2059 1.349 . S
C2075 H2067 0.950 . S
C2075 C2073 1.327 . S
C2076 C2064 1.349 . S
C2076 H2070 0.950 . S
C2076 C2077 1.327 . S
C2077 H2071 0.950 . S
C2077 C2076 1.327 . S
C2077 C2081 1.429 . S
C2078 C2061 1.574 . S
C2078 H2072 0.949 . S
C2078 C2082 1.368 . S
C2079 C2060 1.429 . S
C2079 C2073 1.429 . S
C2079 C2080 1.523 . S
C2080 C2061 1.368 . S
C2080 C2074 1.368 . S
C2080 C2079 1.523 . S
C2081 C2065 1.429 . S
C2081 C2077 1.429 . S
C2081 C2082 1.523 . S
C2082 C2066 1.368 . S
C2082 C2078 1.368 . S
C2082 C2081 1.523 . S
H2083 C2058 0.950 . S
H2084 C2060 0.950 . S
H2085 C2061 0.949 . S
H2086 C2063 0.963 . S
H2087 C2065 0.950 . S
C2088 C2089 1.349 . S
C2088 C2090 1.327 . S
C2088 H2113 0.950 . S
C2089 C2088 1.349 . S
C2089 C2105 1.349 . S
C2090 C2088 1.327 . S
C2090 C2109 1.429 . S
C2090 H2114 0.950 . S
C2091 C2108 1.574 . S
C2091 C2110 1.368 . S
C2091 H2115 0.949 . S
H2092 C2096 0.949 . S
C2093 C2094 1.349 . S
C2093 C2095 1.327 . S
C2093 H2116 0.950 . S
C2094 C2093 1.349 . S
C2094 C2106 1.349 . S
C2095 C2093 1.327 . S
C2095 C2111 1.429 . S
C2095 H2117 0.950 . S
C2096 H2092 0.949 . S
C2096 C2104 1.574 . S
C2096 C2112 1.368 . S
H2097 C2105 0.950 . S
H2098 C2103 0.950 . S
H2099 C2104 0.949 . S
H2100 C2106 0.950 . S
H2101 C2107 0.950 . S
H2102 C2108 0.949 . S
C2103 H2098 0.950 . S
C2103 C2105 1.327 . S
C2103 C2109 1.429 . S
C2104 C2096 1.574 . S
C2104 H2099 0.949 . S
C2104 C2110 1.368 . S
C2105 C2089 1.349 . S
C2105 H2097 0.950 . S
C2105 C2103 1.327 . S
C2106 C2094 1.349 . S
C2106 H2100 0.950 . S
C2106 C2107 1.327 . S
C2107 H2101 0.950 . S
C2107 C2106 1.327 . S
C2107 C2111 1.429 . S
C2108 C2091 1.574 . S
C2108 H2102 0.949 . S
C2108 C2112 1.368 . S
C2109 C2090 1.429 . S
C2109 C2103 1.429 . S
C2109 C2110 1.523 . S
C2110 C2091 1.368 . S
C2110 C2104 1.368 . S
C2110 C2109 1.523 . S
C2111 C2095 1.429 . S
C2111 C2107 1.429 . S
C2111 C2112 1.523 . S
C2112 C2096 1.368 . S
C2112 C2108 1.368 . S
C2112 C2111 1.523 . S
H2113 C2088 0.950 . S
H2114 C2090 0.950 . S
H2115 C2091 0.949 . S
H2116 C2093 0.950 . S
H2117 C2095 0.950 . S
C2118 C2119 1.349 . S
C2118 C2120 1.327 . S
C2118 H2143 0.950 . S
C2119 C2118 1.349 . S
C2119 C2135 1.349 . S
C2120 C2118 1.327 . S
C2120 C2139 1.429 . S
C2120 H2144 0.950 . S
C2121 C2138 1.574 . S
C2121 C2140 1.368 . S
C2121 H2145 0.949 . S
H2122 C2126 0.949 . S
C2123 C2124 1.349 . S
C2123 C2125 1.327 . S
C2123 H2146 0.950 . S
C2124 C2123 1.349 . S
C2124 C2136 1.349 . S
C2125 C2123 1.327 . S
C2125 C2141 1.429 . S
C2125 H2147 0.950 . S
C2126 H2122 0.949 . S
C2126 C2134 1.574 . S
C2126 C2142 1.368 . S
H2127 C2135 0.950 . S
H2128 C2133 0.950 . S
H2129 C2134 0.949 . S
H2130 C2136 0.950 . S
H2131 C2137 0.950 . S
H2132 C2138 0.949 . S
C2133 H2128 0.950 . S
C2133 C2135 1.327 . S
C2133 C2139 1.429 . S
C2134 C2126 1.574 . S
C2134 H2129 0.949 . S
C2134 C2140 1.368 . S
C2135 C2119 1.349 . S
C2135 H2127 0.950 . S
C2135 C2133 1.327 . S
C2136 C2124 1.349 . S
C2136 H2130 0.950 . S
C2136 C2137 1.327 . S
C2137 H2131 0.950 . S
C2137 C2136 1.327 . S
C2137 C2141 1.429 . S
C2138 C2121 1.574 . S
C2138 H2132 0.949 . S
C2138 C2142 1.368 . S
C2139 C2120 1.429 . S
C2139 C2133 1.429 . S
C2139 C2140 1.523 . S
C2140 C2121 1.368 . S
C2140 C2134 1.368 . S
C2140 C2139 1.523 . S
C2141 C2125 1.429 . S
C2141 C2137 1.429 . S
C2141 C2142 1.523 . S
C2142 C2126 1.368 . S
C2142 C2138 1.368 . S
C2142 C2141 1.523 . S
H2143 C2118 0.950 . S
H2144 C2120 0.950 . S
H2145 C2121 0.949 . S
H2146 C2123 0.950 . S
H2147 C2125 0.950 . S
C2148 C2149 1.349 . S
C2148 C2150 1.327 . S
C2148 H2173 0.950 . S
C2149 C2148 1.349 . S
C2149 C2165 1.349 . S
C2150 C2148 1.327 . S
C2150 C2169 1.429 . S
C2150 H2174 0.950 . S
C2151 C2168 1.574 . S
C2151 C2170 1.368 . S
C2151 H2175 0.949 . S
H2152 C2156 0.949 . S
C2153 C2154 1.349 . S
C2153 C2155 1.327 . S
C2153 H2176 0.950 . S
C2154 C2153 1.349 . S
C2154 C2166 1.349 . S
C2155 C2153 1.327 . S
C2155 C2171 1.429 . S
C2155 H2177 0.950 . S
C2156 H2152 0.949 . S
C2156 C2164 1.574 . S
C2156 C2172 1.368 . S
H2157 C2165 0.950 . S
H2158 C2163 0.950 . S
H2159 C2164 0.949 . S
H2160 C2166 0.950 . S
H2161 C2167 0.950 . S
H2162 C2168 0.949 . S
C2163 H2158 0.950 . S
C2163 C2165 1.327 . S
C2163 C2169 1.429 . S
C2164 C2156 1.574 . S
C2164 H2159 0.949 . S
C2164 C2170 1.368 . S
C2165 C2149 1.349 . S
C2165 H2157 0.950 . S
C2165 C2163 1.327 . S
C2166 C2154 1.349 . S
C2166 H2160 0.950 . S
C2166 C2167 1.327 . S
C2167 H2161 0.950 . S
C2167 C2166 1.327 . S
C2167 C2171 1.429 . S
C2168 C2151 1.574 . S
C2168 H2162 0.949 . S
C2168 C2172 1.368 . S
C2169 C2150 1.429 . S
C2169 C2163 1.429 . S
C2169 C2170 1.523 . S
C2170 C2151 1.368 . S
C2170 C2164 1.368 . S
C2170 C2169 1.523 . S
C2171 C2155 1.429 . S
C2171 C2167 1.429 . S
C2171 C2172 1.523 . S
C2172 C2156 1.368 . S
C2172 C2168 1.368 . S
C2172 C2171 1.523 . S
H2173 C2148 0.950 . S
H2174 C2150 0.950 . S
H2175 C2151 0.949 . S
H2176 C2153 0.950 . S
H2177 C2155 0.950 . S
C2178 C2179 1.349 . S
C2178 C2180 1.327 . S
C2178 H2203 0.950 . S
C2179 C2178 1.349 . S
C2179 C2195 1.349 . S
C2180 C2178 1.327 . S
C2180 C2199 1.429 . S
C2180 H2204 0.950 . S
C2181 C2198 1.574 . S
C2181 C2200 1.368 . S
C2181 H2205 0.949 . S
H2182 C2186 0.949 . S
C2183 C2184 1.349 . S
C2183 C2185 1.327 . S
C2183 H2206 0.950 . S
C2184 C2183 1.349 . S
C2184 C2196 1.349 . S
C2185 C2183 1.327 . S
C2185 C2201 1.429 . S
C2185 H2207 0.950 . S
C2186 H2182 0.949 . S
C2186 C2194 1.574 . S
C2186 C2202 1.368 . S
H2187 C2195 0.950 . S
H2188 C2193 0.950 . S
H2189 C2194 0.949 . S
H2190 C2196 0.950 . S
H2191 C2197 0.950 . S
H2192 C2198 0.949 . S
C2193 H2188 0.950 . S
C2193 C2195 1.327 . S
C2193 C2199 1.429 . S
C2194 C2186 1.574 . S
C2194 H2189 0.949 . S
C2194 C2200 1.368 . S
C2195 C2179 1.349 . S
C2195 H2187 0.950 . S
C2195 C2193 1.327 . S
C2196 C2184 1.349 . S
C2196 H2190 0.950 . S
C2196 C2197 1.327 . S
C2197 H2191 0.950 . S
C2197 C2196 1.327 . S
C2197 C2201 1.429 . S
C2198 C2181 1.574 . S
C2198 H2192 0.949 . S
C2198 C2202 1.368 . S
C2199 C2180 1.429 . S
C2199 C2193 1.429 . S
C2199 C2200 1.523 . S
C2200 C2181 1.368 . S
C2200 C2194 1.368 . S
C2200 C2199 1.523 . S
C2201 C2185 1.429 . S
C2201 C2197 1.429 . S
C2201 C2202 1.523 . S
C2202 C2186 1.368 . S
C2202 C2198 1.368 . S
C2202 C2201 1.523 . S
H2203 C2178 0.950 . S
H2204 C2180 0.950 . S
H2205 C2181 0.949 . S
H2206 C2183 0.950 . S
H2207 C2185 0.950 . S
C2208 C2209 1.349 . S
C2208 C2210 1.327 . S
C2208 H2233 0.950 . S
C2209 C2208 1.349 . S
C2209 C2225 1.349 . S
C2210 C2208 1.327 . S
C2210 C2229 1.429 . S
C2210 H2234 0.950 . S
C2211 C2228 1.574 . S
C2211 C2230 1.368 . S
C2211 H2235 0.949 . S
H2212 C2216 0.949 . S
C2213 C2214 1.349 . S
C2213 C2215 1.327 . S
C2213 H2236 0.950 . S
C2214 C2213 1.349 . S
C2214 C2226 1.349 . S
C2215 C2213 1.327 . S
C2215 C2231 1.429 . S
C2215 H2237 0.950 . S
C2216 H2212 0.949 . S
C2216 C2224 1.574 . S
C2216 C2232 1.368 . S
H2217 C2225 0.950 . S
H2218 C2223 0.950 . S
H2219 C2224 0.949 . S
H2220 C2226 0.950 . S
H2221 C2227 0.950 . S
H2222 C2228 0.949 . S
C2223 H2218 0.950 . S
C2223 C2225 1.327 . S
C2223 C2229 1.429 . S
C2224 C2216 1.574 . S
C2224 H2219 0.949 . S
C2224 C2230 1.368 . S
C2225 C2209 1.349 . S
C2225 H2217 0.950 . S
C2225 C2223 1.327 . S
C2226 C2214 1.349 . S
C2226 H2220 0.950 . S
C2226 C2227 1.327 . S
C2227 H2221 0.950 . S
C2227 C2226 1.327 . S
C2227 C2231 1.429 . S
C2228 C2211 1.574 . S
C2228 H2222 0.949 . S
C2228 C2232 1.368 . S
C2229 C2210 1.429 . S
C2229 C2223 1.429 . S
C2229 C2230 1.523 . S
C2230 C2211 1.368 . S
C2230 C2224 1.368 . S
C2230 C2229 1.523 . S
C2231 C2215 1.429 . S
C2231 C2227 1.429 . S
C2231 C2232 1.523 . S
C2232 C2216 1.368 . S
C2232 C2228 1.368 . S
C2232 C2231 1.523 . S
H2233 C2208 0.950 . S
H2234 C2210 0.950 . S
H2235 C2211 0.949 . S
H2236 C2213 0.950 . S
H2237 C2215 0.950 . S
C2238 C2239 1.349 . S
C2238 C2240 1.327 . S
C2238 H2263 0.950 . S
C2239 C2238 1.349 . S
C2239 C2255 1.349 . S
C2240 C2238 1.327 . S
C2240 C2259 1.429 . S
C2240 H2264 0.950 . S
C2241 C2258 1.574 . S
C2241 C2260 1.368 . S
C2241 H2265 0.949 . S
H2242 C2246 0.949 . S
C2243 C2244 1.349 . S
C2243 C2245 1.327 . S
C2243 H2266 0.950 . S
C2244 C2243 1.349 . S
C2244 C2256 1.349 . S
C2245 C2243 1.327 . S
C2245 C2261 1.429 . S
C2245 H2267 0.950 . S
C2246 H2242 0.949 . S
C2246 C2254 1.574 . S
C2246 C2262 1.368 . S
H2247 C2255 0.950 . S
H2248 C2253 0.950 . S
H2249 C2254 0.949 . S
H2250 C2256 0.950 . S
H2251 C2257 0.950 . S
H2252 C2258 0.949 . S
C2253 H2248 0.950 . S
C2253 C2255 1.327 . S
C2253 C2259 1.429 . S
C2254 C2246 1.574 . S
C2254 H2249 0.949 . S
C2254 C2260 1.368 . S
C2255 C2239 1.349 . S
C2255 H2247 0.950 . S
C2255 C2253 1.327 . S
C2256 C2244 1.349 . S
C2256 H2250 0.950 . S
C2256 C2257 1.327 . S
C2257 H2251 0.950 . S
C2257 C2256 1.327 . S
C2257 C2261 1.429 . S
C2258 C2241 1.574 . S
C2258 H2252 0.949 . S
C2258 C2262 1.368 . S
C2259 C2240 1.429 . S
C2259 C2253 1.429 . S
C2259 C2260 1.523 . S
C2260 C2241 1.368 . S
C2260 C2254 1.368 . S
C2260 C2259 1.523 . S
C2261 C2245 1.429 . S
C2261 C2257 1.429 . S
C2261 C2262 1.523 . S
C2262 C2246 1.368 . S
C2262 C2258 1.368 . S
C2262 C2261 1.523 . S
H2263 C2238 0.950 . S
H2264 C2240 0.950 . S
H2265 C2241 0.949 . S
H2266 C2243 0.950 . S
H2267 C2245 0.950 . S
C2268 C2269 1.349 . S
C2268 C2270 1.327 . S
C2268 H2293 0.950 . S
C2269 C2268 1.349 . S
C2269 C2285 1.349 . S
C2270 C2268 1.327 . S
C2270 C2289 1.429 . S
C2270 H2294 0.950 . S
C2271 C2288 1.574 . S
C2271 C2290 1.368 . S
C2271 H2295 0.949 . S
H2272 C2276 0.949 . S
C2273 C2274 1.349 . S
C2273 C2275 1.327 . S
C2273 H2296 0.950 . S
C2274 C2273 1.349 . S
C2274 C2286 1.349 . S
C2275 C2273 1.327 . S
C2275 C2291 1.429 . S
C2275 H2297 0.950 . S
C2276 H2272 0.949 . S
C2276 C2284 1.574 . S
C2276 C2292 1.368 . S
H2277 C2285 0.950 . S
H2278 C2283 0.950 . S
H2279 C2284 0.949 . S
H2280 C2286 0.950 . S
H2281 C2287 0.950 . S
H2282 C2288 0.949 . S
C2283 H2278 0.950 . S
C2283 C2285 1.327 . S
C2283 C2289 1.429 . S
C2284 C2276 1.574 . S
C2284 H2279 0.949 . S
C2284 C2290 1.368 . S
C2285 C2269 1.349 . S
C2285 H2277 0.950 . S
C2285 C2283 1.327 . S
C2286 C2274 1.349 . S
C2286 H2280 0.950 . S
C2286 C2287 1.327 . S
C2287 H2281 0.950 . S
C2287 C2286 1.327 . S
C2287 C2291 1.429 . S
C2288 C2271 1.574 . S
C2288 H2282 0.949 . S
C2288 C2292 1.368 . S
C2289 C2270 1.429 . S
C2289 C2283 1.429 . S
C2289 C2290 1.523 . S
C2290 C2271 1.368 . S
C2290 C2284 1.368 . S
C2290 C2289 1.523 . S
C2291 C2275 1.429 . S
C2291 C2287 1.429 . S
C2291 C2292 1.523 . S
C2292 C2276 1.368 . S
C2292 C2288 1.368 . S
C2292 C2291 1.523 . S
H2293 C2268 0.950 . S
H2294 C2270 0.950 . S
H2295 C2271 0.949 . S
H2296 C2273 0.950 . S
H2297 C2275 0.950 . S
C2298 C2299 1.349 . S
C2298 C2300 1.327 . S
C2298 H2323 0.950 . S
C2299 C2298 1.349 . S
C2299 C2315 1.349 . S
C2300 C2298 1.327 . S
C2300 C2319 1.429 . S
C2300 H2324 0.950 . S
C2301 C2318 1.574 . S
C2301 C2320 1.368 . S
C2301 H2325 0.949 . S
H2302 C2306 0.949 . S
C2303 C2304 1.349 . S
C2303 C2305 1.327 . S
C2303 H2326 0.950 . S
C2304 C2303 1.349 . S
C2304 C2316 1.349 . S
C2305 C2303 1.327 . S
C2305 C2321 1.429 . S
C2305 H2327 0.950 . S
C2306 H2302 0.949 . S
C2306 C2314 1.574 . S
C2306 C2322 1.368 . S
H2307 C2315 0.950 . S
H2308 C2313 0.950 . S
H2309 C2314 0.949 . S
H2310 C2316 0.950 . S
H2311 C2317 0.950 . S
H2312 C2318 0.949 . S
C2313 H2308 0.950 . S
C2313 C2315 1.327 . S
C2313 C2319 1.429 . S
C2314 C2306 1.574 . S
C2314 H2309 0.949 . S
C2314 C2320 1.368 . S
C2315 C2299 1.349 . S
C2315 H2307 0.950 . S
C2315 C2313 1.327 . S
C2316 C2304 1.349 . S
C2316 H2310 0.950 . S
C2316 C2317 1.327 . S
C2317 H2311 0.950 . S
C2317 C2316 1.327 . S
C2317 C2321 1.429 . S
C2318 C2301 1.574 . S
C2318 H2312 0.949 . S
C2318 C2322 1.368 . S
C2319 C2300 1.429 . S
C2319 C2313 1.429 . S
C2319 C2320 1.523 . S
C2320 C2301 1.368 . S
C2320 C2314 1.368 . S
C2320 C2319 1.523 . S
C2321 C2305 1.429 . S
C2321 C2317 1.429 . S
C2321 C2322 1.523 . S
C2322 C2306 1.368 . S
C2322 C2318 1.368 . S
C2322 C2321 1.523 . S
H2323 C2298 0.950 . S
H2324 C2300 0.950 . S
H2325 C2301 0.949 . S
H2326 C2303 0.950 . S
H2327 C2305 0.950 . S
C2328 C2329 1.349 . S
C2328 C2330 1.327 . S
C2328 H2353 0.950 . S
C2329 C2328 1.349 . S
C2329 C2345 1.349 . S
C2330 C2328 1.327 . S
C2330 C2349 1.429 . S
C2330 H2354 0.950 . S
C2331 C2348 1.578 . S
C2331 C2350 1.368 . S
C2331 H2355 0.949 1_556 S
H2332 C2336 0.949 . S
C2333 C2334 1.349 1_554 S
C2333 C2335 1.327 . S
C2333 H2356 0.950 . S
C2334 C2333 1.349 1_556 S
C2334 C2346 1.349 . S
C2335 C2333 1.327 . S
C2335 C2351 1.429 1_554 S
C2335 H2357 0.950 . S
C2336 H2332 0.949 . S
C2336 C2344 1.574 . S
C2336 C2352 1.368 . S
H2337 C2345 0.950 . S
H2338 C2343 0.952 1_554 S
H2339 C2344 0.949 . S
H2340 C2346 0.950 . S
H2341 C2347 0.950 . S
H2342 C2348 0.929 1_554 S
C2343 H2338 0.952 1_556 S
C2343 C2345 1.327 . S
C2343 C2349 1.429 . S
C2344 C2336 1.574 . S
C2344 H2339 0.949 . S
C2344 C2350 1.368 . S
C2345 C2329 1.349 . S
C2345 H2337 0.950 . S
C2345 C2343 1.327 . S
C2346 C2334 1.349 . S
C2346 H2340 0.950 . S
C2346 C2347 1.327 . S
C2347 H2341 0.950 . S
C2347 C2346 1.327 . S
C2347 C2351 1.429 . S
C2348 C2331 1.578 . S
C2348 H2342 0.929 1_556 S
C2348 C2352 1.388 . S
C2349 C2330 1.429 . S
C2349 C2343 1.429 . S
C2349 C2350 1.523 . S
C2350 C2331 1.368 . S
C2350 C2344 1.368 . S
C2350 C2349 1.523 . S
C2351 C2335 1.429 1_556 S
C2351 C2347 1.429 . S
C2351 C2352 1.523 . S
C2352 C2336 1.368 . S
C2352 C2348 1.388 . S
C2352 C2351 1.523 . S
H2353 C2328 0.950 . S
H2354 C2330 0.950 . S
H2355 C2331 0.949 1_554 S
H2356 C2333 0.950 . S
H2357 C2335 0.950 . S
C2358 C2359 1.349 . S
C2358 C2360 1.327 . S
C2358 H2383 0.950 . S
C2359 C2358 1.349 . S
C2359 C2375 1.349 . S
C2360 C2358 1.327 . S
C2360 C2379 1.429 . S
C2360 H2384 0.950 . S
C2361 C2378 1.574 . S
C2361 C2380 1.368 . S
C2361 H2385 0.949 . S
H2362 C2366 0.949 . S
C2363 C2364 1.349 . S
C2363 C2365 1.327 . S
C2363 H2386 0.950 . S
C2364 C2363 1.349 . S
C2364 C2376 1.349 . S
C2365 C2363 1.327 . S
C2365 C2381 1.429 . S
C2365 H2387 0.950 . S
C2366 H2362 0.949 . S
C2366 C2374 1.574 . S
C2366 C2382 1.368 . S
H2367 C2375 0.950 . S
H2368 C2373 0.950 . S
H2369 C2374 0.949 . S
H2370 C2376 0.950 . S
H2371 C2377 0.950 . S
H2372 C2378 0.949 . S
C2373 H2368 0.950 . S
C2373 C2375 1.327 . S
C2373 C2379 1.429 . S
C2374 C2366 1.574 . S
C2374 H2369 0.949 . S
C2374 C2380 1.368 . S
C2375 C2359 1.349 . S
C2375 H2367 0.950 . S
C2375 C2373 1.327 . S
C2376 C2364 1.349 . S
C2376 H2370 0.950 . S
C2376 C2377 1.327 . S
C2377 H2371 0.950 . S
C2377 C2376 1.327 . S
C2377 C2381 1.429 . S
C2378 C2361 1.574 . S
C2378 H2372 0.949 . S
C2378 C2382 1.368 . S
C2379 C2360 1.429 . S
C2379 C2373 1.429 . S
C2379 C2380 1.523 . S
C2380 C2361 1.368 . S
C2380 C2374 1.368 . S
C2380 C2379 1.523 . S
C2381 C2365 1.429 . S
C2381 C2377 1.429 . S
C2381 C2382 1.523 . S
C2382 C2366 1.368 . S
C2382 C2378 1.368 . S
C2382 C2381 1.523 . S
H2383 C2358 0.950 . S
H2384 C2360 0.950 . S
H2385 C2361 0.949 . S
H2386 C2363 0.950 . S
H2387 C2365 0.950 . S
C2388 C2389 1.349 . S
C2388 C2390 1.327 . S
C2388 H2413 0.950 . S
C2389 C2388 1.349 . S
C2389 C2405 1.349 . S
C2390 C2388 1.327 . S
C2390 C2409 1.429 . S
C2390 H2414 0.899 1_554 S
C2391 C2408 1.574 . S
C2391 C2410 1.368 . S
C2391 H2415 0.949 . S
H2392 C2396 0.938 1_556 S
C2393 C2394 1.349 . S
C2393 C2395 1.327 . S
C2393 H2416 0.950 . S
C2394 C2393 1.349 . S
C2394 C2406 1.349 1_554 S
C2395 C2393 1.327 . S
C2395 C2411 1.429 . S
C2395 H2417 0.950 . S
C2396 H2392 0.938 1_554 S
C2396 C2404 1.576 . S
C2396 C2412 1.378 . S
H2397 C2405 0.950 . S
H2398 C2403 0.950 . S
H2399 C2404 0.949 1_556 S
H2400 C2406 0.950 . S
H2401 C2407 0.950 . S
H2402 C2408 0.949 . S
C2403 H2398 0.950 . S
C2403 C2405 1.327 . S
C2403 C2409 1.429 . S
C2404 C2396 1.576 . S
C2404 H2399 0.949 1_554 S
C2404 C2410 1.368 . S
C2405 C2389 1.349 . S
C2405 H2397 0.950 . S
C2405 C2403 1.327 . S
C2406 C2394 1.349 1_556 S
C2406 H2400 0.950 . S
C2406 C2407 1.327 . S
C2407 H2401 0.950 . S
C2407 C2406 1.327 . S
C2407 C2411 1.429 1_556 S
C2408 C2391 1.574 . S
C2408 H2402 0.949 . S
C2408 C2412 1.368 . S
C2409 C2390 1.429 . S
C2409 C2403 1.429 . S
C2409 C2410 1.523 . S
C2410 C2391 1.368 . S
C2410 C2404 1.368 . S
C2410 C2409 1.523 . S
C2411 C2395 1.429 . S
C2411 C2407 1.429 1_554 S
C2411 C2412 1.523 . S
C2412 C2396 1.378 . S
C2412 C2408 1.368 . S
C2412 C2411 1.523 . S
H2413 C2388 0.950 . S
H2414 C2390 0.899 1_556 S
H2415 C2391 0.949 . S
H2416 C2393 0.950 . S
H2417 C2395 0.950 . S
C2418 C2419 1.349 . S
C2418 C2420 1.327 . S
C2418 H2443 0.950 . S
C2419 C2418 1.349 . S
C2419 C2435 1.349 . S
C2420 C2418 1.327 . S
C2420 C2439 1.429 . S
C2420 H2444 0.950 . S
C2421 C2438 1.574 . S
C2421 C2440 1.368 . S
C2421 H2445 0.949 . S
H2422 C2426 0.949 . S
C2423 C2424 1.349 . S
C2423 C2425 1.327 . S
C2423 H2446 0.950 . S
C2424 C2423 1.349 . S
C2424 C2436 1.349 . S
C2425 C2423 1.327 . S
C2425 C2441 1.429 . S
C2425 H2447 0.950 . S
C2426 H2422 0.949 . S
C2426 C2434 1.574 . S
C2426 C2442 1.368 . S
H2427 C2435 0.950 . S
H2428 C2433 0.950 . S
H2429 C2434 0.949 . S
H2430 C2436 0.950 . S
H2431 C2437 0.950 . S
H2432 C2438 0.949 . S
C2433 H2428 0.950 . S
C2433 C2435 1.327 . S
C2433 C2439 1.429 . S
C2434 C2426 1.574 . S
C2434 H2429 0.949 . S
C2434 C2440 1.368 . S
C2435 C2419 1.349 . S
C2435 H2427 0.950 . S
C2435 C2433 1.327 . S
C2436 C2424 1.349 . S
C2436 H2430 0.950 . S
C2436 C2437 1.327 . S
C2437 H2431 0.950 . S
C2437 C2436 1.327 . S
C2437 C2441 1.429 . S
C2438 C2421 1.574 . S
C2438 H2432 0.949 . S
C2438 C2442 1.368 . S
C2439 C2420 1.429 . S
C2439 C2433 1.429 . S
C2439 C2440 1.523 . S
C2440 C2421 1.368 . S
C2440 C2434 1.368 . S
C2440 C2439 1.523 . S
C2441 C2425 1.429 . S
C2441 C2437 1.429 . S
C2441 C2442 1.523 . S
C2442 C2426 1.368 . S
C2442 C2438 1.368 . S
C2442 C2441 1.523 . S
H2443 C2418 0.950 . S
H2444 C2420 0.950 . S
H2445 C2421 0.949 . S
H2446 C2423 0.950 . S
H2447 C2425 0.950 . S
C1014 C578 1.411 . S
C1009 C181 1.423 . S
C1044 C626 1.658 . S
C1039 C247 1.711 . S
C1069 C283 1.414 . S
C1074 C662 1.352 . S
C1104 C698 1.603 . S
C1099 C169 1.647 . S
C1134 C724 1.449 . S
C1129 C361 1.454 . S
C1164 C760 1.605 . S
C1159 C433 1.601 . S
C1189 C421 1.477 . S
C1194 C795 1.479 . S
C1224 C832 1.640 1_565 S
C1219 C355 1.647 . S
C1249 C427 1.437 . S
C1254 C866 1.424 . S
C1284 C914 1.580 . S
C1279 C325 1.630 . S
C1309 C385 1.427 . S
C1314 C867 1.429 . S
C1344 C904 1.644 . S
C1339 C463 1.636 . S
C1369 C253 1.456 . S
C1374 C950 1.393 . S
C1399 C145 1.654 . S
C1404 C939 1.654 . S
C1429 C205 1.463 . S
C1434 C940 1.455 . S
C1459 C217 1.674 . S
C1464 C938 1.669 . S
C1489 C139 1.451 . S
C1494 C686 1.435 . S
C1519 C535 1.416 . S
C1524 C687 1.418 . S
C1554 C590 1.610 . S
C1549 C565 1.661 . S
C1584 C615 1.446 . S
C1579 C313 1.446 . S
C1609 C175 1.667 . S
C1614 C722 1.668 . S
C1644 C830 1.447 . S
C1639 C397 1.455 . S
C1674 C723 1.618 . S
C1669 C349 1.622 . S
C1704 C796 1.650 . S
C1699 C457 1.644 . S
C1734 C794 1.411 . S
C1729 C505 1.423 . S
C1759 C571 1.710 . S
C1764 C842 1.658 . S
C1789 C319 1.413 . S
C1794 C734 1.352 . S
C1824 C770 1.603 . S
C1819 C493 1.647 . S
C1849 C109 1.454 . S
C1854 C652 1.449 . S
C1884 C688 1.605 . S
C1879 C1 1.601 . S
C1914 C579 1.479 . S
C1909 C61 1.477 . S
C1944 C616 1.644 . S
C1939 C103 1.646 . S
C1969 C67 1.437 . S
C1974 C902 1.424 . S
C1999 C73 1.630 . S
C2004 C878 1.580 . S
C2029 C133 1.427 . S
C2034 C903 1.429 . S
C2059 C31 1.636 . S
C2064 C868 1.644 . S
C2094 C986 1.393 . S
C2089 C289 1.455 . S
C2124 C975 1.654 . S
C2119 C469 1.654 . S
C2154 C976 1.455 . S
C2149 C529 1.463 . S
C2179 C541 1.674 . S
C2184 C974 1.669 . S
C2209 C391 1.451 . S
C2214 C758 1.435 . S
C2244 C759 1.418 . S
C2239 C211 1.417 . S
C2274 C806 1.609 . S
C2269 C241 1.661 . S
C2304 C831 1.447 . S
C2299 C277 1.452 . S
C2329 C499 1.667 . S
C2334 C650 1.664 1_556 S
C2364 C614 1.448 . S
C2359 C37 1.462 . S
C2389 C97 1.622 . S
C2394 C651 1.618 . S
C2424 C580 1.650 . S
C2419 C25 1.644 . S
