# Generated by pormake.
# Topology tbo, (3,4)-cn, num edge types: 1
# Building blocks:
#     Node 0, Type 0, BuildingBlock: WUSLED_clean_sbu_0, # of connection points: 3
#     Node 1, Type 0, BuildingBlock: WUSLED_clean_sbu_0, # of connection points: 3
#     Node 2, Type 0, BuildingBlock: WUSLED_clean_sbu_0, # of connection points: 3
#     Node 3, Type 0, BuildingBlock: WUSLED_clean_sbu_0, # of connection points: 3
#     Node 4, Type 0, BuildingBlock: WUSLED_clean_sbu_0, # of connection points: 3
#     Node 5, Type 0, BuildingBlock: WUSLED_clean_sbu_0, # of connection points: 3
#     Node 6, Type 0, BuildingBlock: WUSLED_clean_sbu_0, # of connection points: 3
#     Node 7, Type 0, BuildingBlock: WUSLED_clean_sbu_0, # of connection points: 3
#     Node 8, Type 0, BuildingBlock: WUSLED_clean_sbu_0, # of connection points: 3
#     Node 9, Type 0, BuildingBlock: WUSLED_clean_sbu_0, # of connection points: 3
#     Node 10, Type 0, BuildingBlock: WUSLED_clean_sbu_0, # of connection points: 3
#     Node 11, Type 0, BuildingBlock: WUSLED_clean_sbu_0, # of connection points: 3
#     Node 12, Type 0, BuildingBlock: WUSLED_clean_sbu_0, # of connection points: 3
#     Node 13, Type 0, BuildingBlock: WUSLED_clean_sbu_0, # of connection points: 3
#     Node 14, Type 0, BuildingBlock: WUSLED_clean_sbu_0, # of connection points: 3
#     Node 15, Type 0, BuildingBlock: WUSLED_clean_sbu_0, # of connection points: 3
#     Node 16, Type 0, BuildingBlock: WUSLED_clean_sbu_0, # of connection points: 3
#     Node 17, Type 0, BuildingBlock: WUSLED_clean_sbu_0, # of connection points: 3
#     Node 18, Type 0, BuildingBlock: WUSLED_clean_sbu_0, # of connection points: 3
#     Node 19, Type 0, BuildingBlock: WUSLED_clean_sbu_0, # of connection points: 3
#     Node 20, Type 0, BuildingBlock: WUSLED_clean_sbu_0, # of connection points: 3
#     Node 21, Type 0, BuildingBlock: WUSLED_clean_sbu_0, # of connection points: 3
#     Node 22, Type 0, BuildingBlock: WUSLED_clean_sbu_0, # of connection points: 3
#     Node 23, Type 0, BuildingBlock: WUSLED_clean_sbu_0, # of connection points: 3
#     Node 24, Type 0, BuildingBlock: WUSLED_clean_sbu_0, # of connection points: 3
#     Node 25, Type 0, BuildingBlock: WUSLED_clean_sbu_0, # of connection points: 3
#     Node 26, Type 0, BuildingBlock: WUSLED_clean_sbu_0, # of connection points: 3
#     Node 27, Type 0, BuildingBlock: WUSLED_clean_sbu_0, # of connection points: 3
#     Node 28, Type 0, BuildingBlock: WUSLED_clean_sbu_0, # of connection points: 3
#     Node 29, Type 0, BuildingBlock: WUSLED_clean_sbu_0, # of connection points: 3
#     Node 30, Type 0, BuildingBlock: WUSLED_clean_sbu_0, # of connection points: 3
#     Node 31, Type 0, BuildingBlock: WUSLED_clean_sbu_0, # of connection points: 3
#     Node 32, Type 1, BuildingBlock: GIZVER_clean_linker_0, # of connection points: 4
#     Node 33, Type 1, BuildingBlock: GIZVER_clean_linker_0, # of connection points: 4
#     Node 34, Type 1, BuildingBlock: GIZVER_clean_linker_0, # of connection points: 4
#     Node 35, Type 1, BuildingBlock: GIZVER_clean_linker_0, # of connection points: 4
#     Node 36, Type 1, BuildingBlock: GIZVER_clean_linker_0, # of connection points: 4
#     Node 37, Type 1, BuildingBlock: GIZVER_clean_linker_0, # of connection points: 4
#     Node 38, Type 1, BuildingBlock: GIZVER_clean_linker_0, # of connection points: 4
#     Node 39, Type 1, BuildingBlock: GIZVER_clean_linker_0, # of connection points: 4
#     Node 40, Type 1, BuildingBlock: GIZVER_clean_linker_0, # of connection points: 4
#     Node 41, Type 1, BuildingBlock: GIZVER_clean_linker_0, # of connection points: 4
#     Node 42, Type 1, BuildingBlock: GIZVER_clean_linker_0, # of connection points: 4
#     Node 43, Type 1, BuildingBlock: GIZVER_clean_linker_0, # of connection points: 4
#     Node 44, Type 1, BuildingBlock: GIZVER_clean_linker_0, # of connection points: 4
#     Node 45, Type 1, BuildingBlock: GIZVER_clean_linker_0, # of connection points: 4
#     Node 46, Type 1, BuildingBlock: GIZVER_clean_linker_0, # of connection points: 4
#     Node 47, Type 1, BuildingBlock: GIZVER_clean_linker_0, # of connection points: 4
#     Node 48, Type 1, BuildingBlock: GIZVER_clean_linker_0, # of connection points: 4
#     Node 49, Type 1, BuildingBlock: GIZVER_clean_linker_0, # of connection points: 4
#     Node 50, Type 1, BuildingBlock: GIZVER_clean_linker_0, # of connection points: 4
#     Node 51, Type 1, BuildingBlock: GIZVER_clean_linker_0, # of connection points: 4
#     Node 52, Type 1, BuildingBlock: GIZVER_clean_linker_0, # of connection points: 4
#     Node 53, Type 1, BuildingBlock: GIZVER_clean_linker_0, # of connection points: 4
#     Node 54, Type 1, BuildingBlock: GIZVER_clean_linker_0, # of connection points: 4
#     Node 55, Type 1, BuildingBlock: GIZVER_clean_linker_0, # of connection points: 4
#     Edge 56, Type (0, 1), BuildingBlock: TEMPAE_clean_linker_10, # of connection points: 2
#     Edge 57, Type (0, 1), BuildingBlock: TEMPAE_clean_linker_10, # of connection points: 2
#     Edge 58, Type (0, 1), BuildingBlock: TEMPAE_clean_linker_10, # of connection points: 2
#     Edge 59, Type (0, 1), BuildingBlock: TEMPAE_clean_linker_10, # of connection points: 2
#     Edge 60, Type (0, 1), BuildingBlock: TEMPAE_clean_linker_10, # of connection points: 2
#     Edge 61, Type (0, 1), BuildingBlock: TEMPAE_clean_linker_10, # of connection points: 2
#     Edge 62, Type (0, 1), BuildingBlock: TEMPAE_clean_linker_10, # of connection points: 2
#     Edge 63, Type (0, 1), BuildingBlock: TEMPAE_clean_linker_10, # of connection points: 2
#     Edge 64, Type (0, 1), BuildingBlock: TEMPAE_clean_linker_10, # of connection points: 2
#     Edge 65, Type (0, 1), BuildingBlock: TEMPAE_clean_linker_10, # of connection points: 2
#     Edge 66, Type (0, 1), BuildingBlock: TEMPAE_clean_linker_10, # of connection points: 2
#     Edge 67, Type (0, 1), BuildingBlock: TEMPAE_clean_linker_10, # of connection points: 2
#     Edge 68, Type (0, 1), BuildingBlock: TEMPAE_clean_linker_10, # of connection points: 2
#     Edge 69, Type (0, 1), BuildingBlock: TEMPAE_clean_linker_10, # of connection points: 2
#     Edge 70, Type (0, 1), BuildingBlock: TEMPAE_clean_linker_10, # of connection points: 2
#     Edge 71, Type (0, 1), BuildingBlock: TEMPAE_clean_linker_10, # of connection points: 2
#     Edge 72, Type (0, 1), BuildingBlock: TEMPAE_clean_linker_10, # of connection points: 2
#     Edge 73, Type (0, 1), BuildingBlock: TEMPAE_clean_linker_10, # of connection points: 2
#     Edge 74, Type (0, 1), BuildingBlock: TEMPAE_clean_linker_10, # of connection points: 2
#     Edge 75, Type (0, 1), BuildingBlock: TEMPAE_clean_linker_10, # of connection points: 2
#     Edge 76, Type (0, 1), BuildingBlock: TEMPAE_clean_linker_10, # of connection points: 2
#     Edge 77, Type (0, 1), BuildingBlock: TEMPAE_clean_linker_10, # of connection points: 2
#     Edge 78, Type (0, 1), BuildingBlock: TEMPAE_clean_linker_10, # of connection points: 2
#     Edge 79, Type (0, 1), BuildingBlock: TEMPAE_clean_linker_10, # of connection points: 2
#     Edge 80, Type (0, 1), BuildingBlock: TEMPAE_clean_linker_10, # of connection points: 2
#     Edge 81, Type (0, 1), BuildingBlock: TEMPAE_clean_linker_10, # of connection points: 2
#     Edge 82, Type (0, 1), BuildingBlock: TEMPAE_clean_linker_10, # of connection points: 2
#     Edge 83, Type (0, 1), BuildingBlock: TEMPAE_clean_linker_10, # of connection points: 2
#     Edge 84, Type (0, 1), BuildingBlock: TEMPAE_clean_linker_10, # of connection points: 2
#     Edge 85, Type (0, 1), BuildingBlock: TEMPAE_clean_linker_10, # of connection points: 2
#     Edge 86, Type (0, 1), BuildingBlock: TEMPAE_clean_linker_10, # of connection points: 2
#     Edge 87, Type (0, 1), BuildingBlock: TEMPAE_clean_linker_10, # of connection points: 2
#     Edge 88, Type (0, 1), BuildingBlock: TEMPAE_clean_linker_10, # of connection points: 2
#     Edge 89, Type (0, 1), BuildingBlock: TEMPAE_clean_linker_10, # of connection points: 2
#     Edge 90, Type (0, 1), BuildingBlock: TEMPAE_clean_linker_10, # of connection points: 2
#     Edge 91, Type (0, 1), BuildingBlock: TEMPAE_clean_linker_10, # of connection points: 2
#     Edge 92, Type (0, 1), BuildingBlock: TEMPAE_clean_linker_10, # of connection points: 2
#     Edge 93, Type (0, 1), BuildingBlock: TEMPAE_clean_linker_10, # of connection points: 2
#     Edge 94, Type (0, 1), BuildingBlock: TEMPAE_clean_linker_10, # of connection points: 2
#     Edge 95, Type (0, 1), BuildingBlock: TEMPAE_clean_linker_10, # of connection points: 2
#     Edge 96, Type (0, 1), BuildingBlock: TEMPAE_clean_linker_10, # of connection points: 2
#     Edge 97, Type (0, 1), BuildingBlock: TEMPAE_clean_linker_10, # of connection points: 2
#     Edge 98, Type (0, 1), BuildingBlock: TEMPAE_clean_linker_10, # of connection points: 2
#     Edge 99, Type (0, 1), BuildingBlock: TEMPAE_clean_linker_10, # of connection points: 2
#     Edge 100, Type (0, 1), BuildingBlock: TEMPAE_clean_linker_10, # of connection points: 2
#     Edge 101, Type (0, 1), BuildingBlock: TEMPAE_clean_linker_10, # of connection points: 2
#     Edge 102, Type (0, 1), BuildingBlock: TEMPAE_clean_linker_10, # of connection points: 2
#     Edge 103, Type (0, 1), BuildingBlock: TEMPAE_clean_linker_10, # of connection points: 2
#     Edge 104, Type (0, 1), BuildingBlock: TEMPAE_clean_linker_10, # of connection points: 2
#     Edge 105, Type (0, 1), BuildingBlock: TEMPAE_clean_linker_10, # of connection points: 2
#     Edge 106, Type (0, 1), BuildingBlock: TEMPAE_clean_linker_10, # of connection points: 2
#     Edge 107, Type (0, 1), BuildingBlock: TEMPAE_clean_linker_10, # of connection points: 2
#     Edge 108, Type (0, 1), BuildingBlock: TEMPAE_clean_linker_10, # of connection points: 2
#     Edge 109, Type (0, 1), BuildingBlock: TEMPAE_clean_linker_10, # of connection points: 2
#     Edge 110, Type (0, 1), BuildingBlock: TEMPAE_clean_linker_10, # of connection points: 2
#     Edge 111, Type (0, 1), BuildingBlock: TEMPAE_clean_linker_10, # of connection points: 2
#     Edge 112, Type (0, 1), BuildingBlock: TEMPAE_clean_linker_10, # of connection points: 2
#     Edge 113, Type (0, 1), BuildingBlock: TEMPAE_clean_linker_10, # of connection points: 2
#     Edge 114, Type (0, 1), BuildingBlock: TEMPAE_clean_linker_10, # of connection points: 2
#     Edge 115, Type (0, 1), BuildingBlock: TEMPAE_clean_linker_10, # of connection points: 2
#     Edge 116, Type (0, 1), BuildingBlock: TEMPAE_clean_linker_10, # of connection points: 2
#     Edge 117, Type (0, 1), BuildingBlock: TEMPAE_clean_linker_10, # of connection points: 2
#     Edge 118, Type (0, 1), BuildingBlock: TEMPAE_clean_linker_10, # of connection points: 2
#     Edge 119, Type (0, 1), BuildingBlock: TEMPAE_clean_linker_10, # of connection points: 2
#     Edge 120, Type (0, 1), BuildingBlock: TEMPAE_clean_linker_10, # of connection points: 2
#     Edge 121, Type (0, 1), BuildingBlock: TEMPAE_clean_linker_10, # of connection points: 2
#     Edge 122, Type (0, 1), BuildingBlock: TEMPAE_clean_linker_10, # of connection points: 2
#     Edge 123, Type (0, 1), BuildingBlock: TEMPAE_clean_linker_10, # of connection points: 2
#     Edge 124, Type (0, 1), BuildingBlock: TEMPAE_clean_linker_10, # of connection points: 2
#     Edge 125, Type (0, 1), BuildingBlock: TEMPAE_clean_linker_10, # of connection points: 2
#     Edge 126, Type (0, 1), BuildingBlock: TEMPAE_clean_linker_10, # of connection points: 2
#     Edge 127, Type (0, 1), BuildingBlock: TEMPAE_clean_linker_10, # of connection points: 2
#     Edge 128, Type (0, 1), BuildingBlock: TEMPAE_clean_linker_10, # of connection points: 2
#     Edge 129, Type (0, 1), BuildingBlock: TEMPAE_clean_linker_10, # of connection points: 2
#     Edge 130, Type (0, 1), BuildingBlock: TEMPAE_clean_linker_10, # of connection points: 2
#     Edge 131, Type (0, 1), BuildingBlock: TEMPAE_clean_linker_10, # of connection points: 2
#     Edge 132, Type (0, 1), BuildingBlock: TEMPAE_clean_linker_10, # of connection points: 2
#     Edge 133, Type (0, 1), BuildingBlock: TEMPAE_clean_linker_10, # of connection points: 2
#     Edge 134, Type (0, 1), BuildingBlock: TEMPAE_clean_linker_10, # of connection points: 2
#     Edge 135, Type (0, 1), BuildingBlock: TEMPAE_clean_linker_10, # of connection points: 2
#     Edge 136, Type (0, 1), BuildingBlock: TEMPAE_clean_linker_10, # of connection points: 2
#     Edge 137, Type (0, 1), BuildingBlock: TEMPAE_clean_linker_10, # of connection points: 2
#     Edge 138, Type (0, 1), BuildingBlock: TEMPAE_clean_linker_10, # of connection points: 2
#     Edge 139, Type (0, 1), BuildingBlock: TEMPAE_clean_linker_10, # of connection points: 2
#     Edge 140, Type (0, 1), BuildingBlock: TEMPAE_clean_linker_10, # of connection points: 2
#     Edge 141, Type (0, 1), BuildingBlock: TEMPAE_clean_linker_10, # of connection points: 2
#     Edge 142, Type (0, 1), BuildingBlock: TEMPAE_clean_linker_10, # of connection points: 2
#     Edge 143, Type (0, 1), BuildingBlock: TEMPAE_clean_linker_10, # of connection points: 2
#     Edge 144, Type (0, 1), BuildingBlock: TEMPAE_clean_linker_10, # of connection points: 2
#     Edge 145, Type (0, 1), BuildingBlock: TEMPAE_clean_linker_10, # of connection points: 2
#     Edge 146, Type (0, 1), BuildingBlock: TEMPAE_clean_linker_10, # of connection points: 2
#     Edge 147, Type (0, 1), BuildingBlock: TEMPAE_clean_linker_10, # of connection points: 2
#     Edge 148, Type (0, 1), BuildingBlock: TEMPAE_clean_linker_10, # of connection points: 2
#     Edge 149, Type (0, 1), BuildingBlock: TEMPAE_clean_linker_10, # of connection points: 2
#     Edge 150, Type (0, 1), BuildingBlock: TEMPAE_clean_linker_10, # of connection points: 2
#     Edge 151, Type (0, 1), BuildingBlock: TEMPAE_clean_linker_10, # of connection points: 2
# Relax obj value: 0.000
# Max RMSD: 0.035
# Mean RMSD: 0.017
data_MOF--net-tbo--node1-WUSLED_clean_sbu_0--node2-GIZVER_clean_linker_0--edge1-TEMPAE_clean_linker_10
_symmetry_space_group_name_H-M    P1
_symmetry_Int_Tables_number       1
_symmetry_cell_setting            triclinic
loop_
_symmetry_equiv_pos_as_xyz
'x, y, z'
_cell_length_a     96.21057
_cell_length_b     96.5206
_cell_length_c     96.328986
_cell_angle_alpha  89.615219
_cell_angle_beta   90.427262
_cell_angle_gamma 91.005898
loop_
_atom_site_label
_atom_site_type_symbol
_atom_site_fract_x
_atom_site_fract_y
_atom_site_fract_z
_atom_type_partial_charge
C0 C 0.17619 0.13838 0.19797 0.0
C1 C 0.185 0.13122 0.18905 0.0
C2 C 0.1919 0.11591 0.2081 0.0
C3 C 0.19275 0.12004 0.19407 0.0
C4 C 0.18302 0.12315 0.21693 0.0
C5 C 0.17526 0.13425 0.2119 0.0
U6 U 0.16791 0.16837 0.17265 0.0
O7 O 0.14751 0.17549 0.16518 0.0
O8 O 0.16101 0.1894 0.17738 0.0
C9 C 0.14875 0.18747 0.17152 0.0
C10 C 0.16784 0.15016 0.19309 0.0
C11 C 0.13669 0.19172 0.17973 0.0
C12 C 0.1239 0.19246 0.20142 0.0
C13 C 0.13513 0.18772 0.19368 0.0
C14 C 0.11549 0.20499 0.18126 0.0
C15 C 0.11398 0.20125 0.19532 0.0
C16 C 0.12673 0.20028 0.17357 0.0
C17 C 0.19131 0.1757 0.14106 0.0
C18 C 0.19143 0.19695 0.12731 0.0
C19 C 0.20489 0.1774 0.1199 0.0
C20 C 0.20027 0.16979 0.13144 0.0
C21 C 0.20066 0.19114 0.11775 0.0
C22 C 0.18678 0.18929 0.13884 0.0
C23 C 0.18727 0.1677 0.15354 0.0
O24 O 0.17389 0.16244 0.19397 0.0
O25 O 0.16085 0.14837 0.18144 0.0
O26 O 0.17554 0.16056 0.15268 0.0
O27 O 0.18886 0.17414 0.16544 0.0
H28 H 0.1859 0.1343 0.17826 0.0
H29 H 0.19958 0.11477 0.18703 0.0
H30 H 0.18195 0.12015 0.22772 0.0
H31 H 0.1685 0.13961 0.21894 0.0
H32 H 0.12297 0.18925 0.21217 0.0
H33 H 0.14268 0.18105 0.19862 0.0
H34 H 0.10819 0.21187 0.17628 0.0
H35 H 0.12777 0.20351 0.16283 0.0
H36 H 0.18784 0.20744 0.12589 0.0
H37 H 0.21212 0.17265 0.11287 0.0
H38 H 0.20391 0.15932 0.13299 0.0
H39 H 0.1798 0.19403 0.14612 0.0
C40 C 0.82574 0.17821 0.1391 0.0
C41 C 0.822 0.19211 0.1409 0.0
C42 C 0.81561 0.19398 0.11643 0.0
C43 C 0.81696 0.19988 0.12969 0.0
C44 C 0.81969 0.18021 0.11457 0.0
C45 C 0.82463 0.17239 0.1258 0.0
U46 U 0.8502 0.16915 0.16958 0.0
O47 O 0.84533 0.16213 0.19075 0.0
O48 O 0.85708 0.14867 0.17699 0.0
C49 C 0.85056 0.14979 0.18887 0.0
C50 C 0.83007 0.16943 0.15101 0.0
C51 C 0.84182 0.13774 0.1932 0.0
C52 C 0.82011 0.12796 0.20212 0.0
C53 C 0.82782 0.13926 0.19694 0.0
C54 C 0.84004 0.11327 0.19946 0.0
C55 C 0.82618 0.11488 0.20359 0.0
C56 C 0.84779 0.1246 0.19439 0.0
C57 C 0.882 0.19278 0.17698 0.0
C58 C 0.89546 0.19282 0.19844 0.0
C59 C 0.90312 0.20683 0.1789 0.0
C60 C 0.89168 0.20208 0.17113 0.0
C61 C 0.90508 0.20238 0.1927 0.0
C62 C 0.88403 0.18803 0.19063 0.0
C63 C 0.8696 0.18865 0.16884 0.0
O64 O 0.84152 0.16239 0.14941 0.0
O65 O 0.829 0.17483 0.16345 0.0
O66 O 0.85762 0.19006 0.1751 0.0
O67 O 0.87043 0.17699 0.16195 0.0
H68 H 0.82275 0.19695 0.15099 0.0
H69 H 0.81404 0.21052 0.13142 0.0
H70 H 0.81865 0.17533 0.10451 0.0
H71 H 0.82735 0.16168 0.12415 0.0
H72 H 0.80941 0.12949 0.20506 0.0
H73 H 0.82286 0.14922 0.1961 0.0
H74 H 0.84503 0.10335 0.20058 0.0
H75 H 0.85857 0.12317 0.19165 0.0
H76 H 0.89675 0.18907 0.20898 0.0
H77 H 0.91021 0.21431 0.17421 0.0
H78 H 0.89026 0.20589 0.16062 0.0
H79 H 0.87668 0.1808 0.19531 0.0
C80 C 0.82462 0.84513 0.14409 0.0
C81 C 0.8335 0.836 0.13733 0.0
C82 C 0.81486 0.82949 0.12118 0.0
C83 C 0.82868 0.82829 0.12592 0.0
C84 C 0.80609 0.83874 0.12797 0.0
C85 C 0.81093 0.84647 0.13929 0.0
U86 U 0.84919 0.8527 0.17506 0.0
O87 O 0.8563 0.87276 0.18349 0.0
O88 O 0.84378 0.85856 0.19638 0.0
C89 C 0.84965 0.87091 0.19525 0.0
C90 C 0.82919 0.85317 0.15631 0.0
C91 C 0.84131 0.88258 0.20009 0.0
C92 C 0.8252 0.90139 0.19597 0.0
C93 C 0.8329 0.89028 0.19099 0.0
C94 C 0.83412 0.89712 0.21915 0.0
C95 C 0.82569 0.90491 0.21014 0.0
C96 C 0.84184 0.8861 0.21417 0.0
C97 C 0.88079 0.82965 0.18252 0.0
C98 C 0.89127 0.82143 0.2041 0.0
C99 C 0.90517 0.82323 0.18331 0.0
C100 C 0.89364 0.82814 0.17594 0.0
C101 C 0.9041 0.81961 0.19745 0.0
C102 C 0.87977 0.82643 0.19674 0.0
C103 C 0.8685 0.8338 0.1742 0.0
O104 O 0.82802 0.84675 0.16832 0.0
O105 O 0.8409 0.8603 0.1551 0.0
O106 O 0.86952 0.84571 0.16754 0.0
O107 O 0.85626 0.83168 0.17989 0.0
H108 H 0.84411 0.83477 0.14094 0.0
H109 H 0.83565 0.82117 0.121 0.0
H110 H 0.79546 0.84006 0.12449 0.0
H111 H 0.80392 0.85347 0.14436 0.0
H112 H 0.81871 0.90709 0.18878 0.0
H113 H 0.83229 0.88768 0.18008 0.0
H114 H 0.83489 0.89965 0.23007 0.0
H115 H 0.84829 0.88032 0.22134 0.0
H116 H 0.88995 0.81858 0.2149 0.0
H117 H 0.9149 0.82219 0.17788 0.0
H118 H 0.8947 0.83056 0.16499 0.0
H119 H 0.87002 0.82746 0.20214 0.0
C120 C 0.13804 0.82475 0.17833 0.0
C121 C 0.13141 0.83374 0.18748 0.0
C122 C 0.11549 0.81508 0.1946 0.0
C123 C 0.12018 0.82895 0.19551 0.0
C124 C 0.12214 0.8062 0.18533 0.0
C125 C 0.13328 0.811 0.17729 0.0
U126 U 0.16904 0.84921 0.16982 0.0
O127 O 0.19013 0.8437 0.16336 0.0
O128 O 0.17699 0.85605 0.14948 0.0
C129 C 0.18862 0.8492 0.15092 0.0
C130 C 0.15005 0.82928 0.16993 0.0
C131 C 0.19303 0.84058 0.13907 0.0
C132 C 0.19046 0.83279 0.11512 0.0
C133 C 0.18558 0.84032 0.12643 0.0
C134 C 0.21023 0.82555 0.12886 0.0
C135 C 0.20287 0.82534 0.11619 0.0
C136 C 0.20541 0.83313 0.14011 0.0
C137 C 0.17759 0.88093 0.19277 0.0
C138 C 0.19916 0.89121 0.20168 0.0
C139 C 0.17901 0.90554 0.19826 0.0
C140 C 0.17143 0.89399 0.19344 0.0
C141 C 0.1929 0.90422 0.20265 0.0
C142 C 0.19161 0.8797 0.19676 0.0
C143 C 0.169 0.86865 0.18878 0.0
O144 O 0.14872 0.84088 0.16284 0.0
O145 O 0.16225 0.82818 0.17599 0.0
O146 O 0.17458 0.85644 0.19074 0.0
O147 O 0.16201 0.86957 0.17704 0.0
H148 H 0.13499 0.8444 0.18847 0.0
H149 H 0.11535 0.83602 0.20262 0.0
H150 H 0.11868 0.79552 0.18421 0.0
H151 H 0.13825 0.80391 0.17028 0.0
H152 H 0.18449 0.83275 0.10554 0.0
H153 H 0.17606 0.84603 0.12519 0.0
H154 H 0.21994 0.82012 0.12998 0.0
H155 H 0.21149 0.8333 0.14962 0.0
H156 H 0.20989 0.8899 0.20482 0.0
H157 H 0.17386 0.91539 0.19899 0.0
H158 H 0.16062 0.89522 0.19052 0.0
H159 H 0.19672 0.8698 0.19635 0.0
C160 C 0.13678 0.82661 0.84422 0.0
C161 C 0.12981 0.8353 0.83483 0.0
C162 C 0.11415 0.81621 0.82835 0.0
C163 C 0.11854 0.83015 0.82699 0.0
C164 C 0.12115 0.80763 0.83788 0.0
C165 C 0.13233 0.8128 0.84572 0.0
U166 U 0.16708 0.85217 0.85138 0.0
O167 O 0.17546 0.85983 0.87128 0.0
O168 O 0.18861 0.84768 0.85758 0.0
C169 C 0.18729 0.85337 0.86985 0.0
C170 C 0.14889 0.83156 0.85235 0.0
C171 C 0.1923 0.84508 0.88185 0.0
C172 C 0.18965 0.83581 0.90532 0.0
C173 C 0.18438 0.84329 0.89398 0.0
C174 C 0.21075 0.83169 0.89259 0.0
C175 C 0.20294 0.82995 0.90479 0.0
C176 C 0.20553 0.83921 0.88131 0.0
C177 C 0.17353 0.88341 0.82733 0.0
C178 C 0.19493 0.89719 0.82734 0.0
C179 C 0.17542 0.9042 0.81305 0.0
C180 C 0.16768 0.89276 0.81786 0.0
C181 C 0.18919 0.90649 0.81762 0.0
C182 C 0.18715 0.88577 0.83217 0.0
C183 C 0.16544 0.87105 0.83167 0.0
O184 O 0.16093 0.83077 0.84609 0.0
O185 O 0.14739 0.84321 0.85913 0.0
O186 O 0.15891 0.87197 0.84356 0.0
O187 O 0.17167 0.85915 0.83012 0.0
H188 H 0.13316 0.84599 0.83347 0.0
H189 H 0.11344 0.83698 0.81966 0.0
H190 H 0.11793 0.79691 0.83931 0.0
H191 H 0.13758 0.80595 0.85293 0.0
H192 H 0.18339 0.83481 0.91458 0.0
H193 H 0.17417 0.84774 0.89478 0.0
H194 H 0.22091 0.82713 0.89168 0.0
H195 H 0.21188 0.84047 0.87213 0.0
H196 H 0.20544 0.89874 0.83118 0.0
H197 H 0.17074 0.91105 0.80547 0.0
H198 H 0.15719 0.89108 0.81399 0.0
H199 H 0.19182 0.87868 0.83955 0.0
C200 C 0.13781 0.17876 0.82877 0.0
C201 C 0.12554 0.17948 0.83659 0.0
C202 C 0.11499 0.19436 0.81899 0.0
C203 C 0.11425 0.18718 0.83173 0.0
C204 C 0.12728 0.19365 0.81124 0.0
C205 C 0.13851 0.18591 0.81604 0.0
U206 U 0.16872 0.16969 0.85294 0.0
O207 O 0.17631 0.14933 0.85969 0.0
O208 O 0.18974 0.16315 0.8473 0.0
C209 C 0.18816 0.15087 0.85309 0.0
C210 C 0.14969 0.17012 0.8332 0.0
C211 C 0.19268 0.13903 0.84475 0.0
C212 C 0.18828 0.12049 0.82819 0.0
C213 C 0.18353 0.13174 0.83589 0.0
C214 C 0.2113 0.1238 0.83809 0.0
C215 C 0.20225 0.11643 0.82915 0.0
C216 C 0.20655 0.13496 0.84579 0.0
C217 C 0.17772 0.19261 0.88458 0.0
C218 C 0.1994 0.20163 0.89453 0.0
C219 C 0.17938 0.19794 0.90926 0.0
C220 C 0.17168 0.19314 0.8978 0.0
C221 C 0.19327 0.20245 0.90771 0.0
C222 C 0.19174 0.19674 0.88311 0.0
C223 C 0.16901 0.18866 0.8724 0.0
O224 O 0.16211 0.17588 0.8319 0.0
O225 O 0.14833 0.16282 0.84471 0.0
O226 O 0.16183 0.17698 0.87341 0.0
O227 O 0.17458 0.19056 0.86009 0.0
H228 H 0.1246 0.17404 0.84642 0.0
H229 H 0.10497 0.18759 0.838 0.0
H230 H 0.12813 0.19886 0.80128 0.0
H231 H 0.14773 0.18539 0.80969 0.0
H232 H 0.18108 0.1151 0.82132 0.0
H233 H 0.17278 0.13476 0.83491 0.0
H234 H 0.22206 0.12085 0.83924 0.0
H235 H 0.21376 0.14042 0.85261 0.0
H236 H 0.21012 0.20487 0.89303 0.0
H237 H 0.17432 0.19855 0.91923 0.0
H238 H 0.16088 0.19013 0.89921 0.0
H239 H 0.19676 0.19644 0.87309 0.0
C240 C 0.82433 0.14072 0.8467 0.0
C241 C 0.83325 0.13402 0.83754 0.0
C242 C 0.81449 0.118 0.83083 0.0
C243 C 0.82838 0.12271 0.82971 0.0
C244 C 0.80566 0.12478 0.84007 0.0
C245 C 0.81053 0.13601 0.84791 0.0
U246 U 0.84951 0.1711 0.85473 0.0
O247 O 0.84485 0.19222 0.86147 0.0
O248 O 0.85713 0.17867 0.875 0.0
C249 C 0.85073 0.19054 0.87372 0.0
C250 C 0.82907 0.15267 0.85505 0.0
C251 C 0.84243 0.19476 0.88574 0.0
C252 C 0.82056 0.19544 0.89822 0.0
C253 C 0.8284 0.19074 0.88705 0.0
C254 C 0.84076 0.20793 0.90708 0.0
C255 C 0.82662 0.20418 0.90833 0.0
C256 C 0.84856 0.20328 0.89588 0.0
C257 C 0.88093 0.17834 0.83112 0.0
C258 C 0.89459 0.19979 0.83071 0.0
C259 C 0.90208 0.18004 0.8175 0.0
C260 C 0.89057 0.17236 0.82223 0.0
C261 C 0.90416 0.19391 0.82156 0.0
C262 C 0.88309 0.19207 0.83547 0.0
C263 C 0.86849 0.17025 0.83528 0.0
O264 O 0.84075 0.15116 0.86202 0.0
O265 O 0.82813 0.16484 0.84896 0.0
O266 O 0.85656 0.17652 0.83371 0.0
O267 O 0.86944 0.16335 0.84705 0.0
H268 H 0.84393 0.13756 0.83642 0.0
H269 H 0.83541 0.1178 0.8226 0.0
H270 H 0.79497 0.12132 0.84133 0.0
H271 H 0.8035 0.14103 0.85494 0.0
H272 H 0.80974 0.19223 0.89895 0.0
H273 H 0.82349 0.1841 0.87936 0.0
H274 H 0.84572 0.21477 0.91456 0.0
H275 H 0.85937 0.20651 0.89504 0.0
H276 H 0.89597 0.21039 0.83416 0.0
H277 H 0.90913 0.17524 0.81034 0.0
H278 H 0.88906 0.16179 0.81873 0.0
H279 H 0.87579 0.19685 0.8424 0.0
C280 C 0.84067 0.87956 0.82886 0.0
C281 C 0.84008 0.89176 0.83675 0.0
C282 C 0.8259 0.90283 0.81884 0.0
C283 C 0.83276 0.90325 0.8318 0.0
C284 C 0.82636 0.89053 0.8111 0.0
C285 C 0.8337 0.8791 0.81601 0.0
U286 U 0.8493 0.84836 0.85282 0.0
O287 O 0.8559 0.82749 0.84712 0.0
O288 O 0.8698 0.84077 0.8596 0.0
C289 C 0.86837 0.82918 0.85259 0.0
C290 C 0.84911 0.86755 0.8333 0.0
C291 C 0.88031 0.82519 0.84389 0.0
C292 C 0.88977 0.81702 0.82207 0.0
C293 C 0.87861 0.82193 0.82975 0.0
C294 C 0.9047 0.81897 0.84232 0.0
C295 C 0.90292 0.81533 0.8283 0.0
C296 C 0.8935 0.82378 0.85003 0.0
C297 C 0.82534 0.83986 0.88399 0.0
C298 C 0.82958 0.82328 0.90267 0.0
C299 C 0.80666 0.83283 0.89951 0.0
C300 C 0.81148 0.84066 0.88822 0.0
C301 C 0.81561 0.824 0.90686 0.0
C302 C 0.8344 0.83111 0.89129 0.0
C303 C 0.82991 0.84822 0.87193 0.0
O304 O 0.85634 0.86874 0.84489 0.0
O305 O 0.84324 0.85524 0.83182 0.0
O306 O 0.82828 0.84233 0.85975 0.0
O307 O 0.84178 0.85507 0.8732 0.0
H308 H 0.84542 0.89253 0.84666 0.0
H309 H 0.83274 0.91257 0.838 0.0
H310 H 0.82101 0.8897 0.8012 0.0
H311 H 0.83403 0.86989 0.80966 0.0
H312 H 0.8881 0.81447 0.81125 0.0
H313 H 0.8686 0.82293 0.82466 0.0
H314 H 0.91465 0.81768 0.84746 0.0
H315 H 0.89508 0.82614 0.86092 0.0
H316 H 0.83671 0.8165 0.90804 0.0
H317 H 0.79591 0.83381 0.90256 0.0
H318 H 0.80434 0.84737 0.88275 0.0
H319 H 0.84514 0.8303 0.88815 0.0
C320 C 0.17797 0.63754 0.6978 0.0
C321 C 0.17887 0.62537 0.68992 0.0
C322 C 0.19355 0.61479 0.70771 0.0
C323 C 0.18656 0.61411 0.69484 0.0
C324 C 0.19269 0.62702 0.71551 0.0
C325 C 0.18496 0.63821 0.71064 0.0
U326 U 0.16823 0.66768 0.67303 0.0
O327 O 0.14761 0.67502 0.66657 0.0
O328 O 0.16176 0.68878 0.67822 0.0
C329 C 0.14917 0.68689 0.6731 0.0
C330 C 0.16929 0.64936 0.69334 0.0
C331 C 0.13748 0.69144 0.6819 0.0
C332 C 0.11338 0.6894 0.68953 0.0
C333 C 0.12456 0.68434 0.68194 0.0
C334 C 0.12777 0.70868 0.69728 0.0
C335 C 0.11482 0.70167 0.69726 0.0
C336 C 0.13891 0.70367 0.68966 0.0
C337 C 0.19053 0.67468 0.64042 0.0
C338 C 0.18958 0.69526 0.62573 0.0
C339 C 0.20473 0.67649 0.6197 0.0
C340 C 0.20026 0.66905 0.63139 0.0
C341 C 0.19956 0.68975 0.61675 0.0
C342 C 0.1851 0.68778 0.63746 0.0
C343 C 0.18673 0.66688 0.65309 0.0
O344 O 0.17523 0.6617 0.69403 0.0
O345 O 0.16151 0.6477 0.68215 0.0
O346 O 0.17488 0.65992 0.65269 0.0
O347 O 0.18884 0.6734 0.66488 0.0
H348 H 0.17358 0.62447 0.68 0.0
H349 H 0.1871 0.60489 0.68853 0.0
H350 H 0.19776 0.62783 0.72555 0.0
H351 H 0.18431 0.64737 0.71702 0.0
H352 H 0.10359 0.68368 0.68936 0.0
H353 H 0.12301 0.67496 0.67598 0.0
H354 H 0.1292 0.71828 0.70293 0.0
H355 H 0.14862 0.70952 0.68966 0.0
H356 H 0.18528 0.70538 0.62372 0.0
H357 H 0.21258 0.67199 0.6132 0.0
H358 H 0.20462 0.65898 0.63354 0.0
H359 H 0.17756 0.69229 0.64431 0.0
C360 C 0.82577 0.67624 0.63632 0.0
C361 C 0.83081 0.68978 0.63401 0.0
C362 C 0.81588 0.69191 0.61354 0.0
C363 C 0.82589 0.69756 0.62273 0.0
C364 C 0.81111 0.67822 0.61576 0.0
C365 C 0.816 0.67047 0.62706 0.0
U366 U 0.85018 0.67009 0.66724 0.0
O367 O 0.84526 0.66366 0.68864 0.0
O368 O 0.85835 0.65061 0.67575 0.0
C369 C 0.85173 0.65184 0.68756 0.0
C370 C 0.83024 0.66816 0.64853 0.0
C371 C 0.84392 0.6395 0.69239 0.0
C372 C 0.82601 0.62165 0.68924 0.0
C373 C 0.83344 0.63325 0.68423 0.0
C374 C 0.83949 0.62248 0.71058 0.0
C375 C 0.82893 0.61613 0.70251 0.0
C376 C 0.84689 0.63402 0.70555 0.0
C377 C 0.88059 0.69535 0.67417 0.0
C378 C 0.89408 0.69557 0.69562 0.0
C379 C 0.90113 0.71023 0.67632 0.0
C380 C 0.88986 0.70517 0.66849 0.0
C381 C 0.90333 0.70559 0.69002 0.0
C382 C 0.88283 0.69048 0.68775 0.0
C383 C 0.86852 0.69056 0.66591 0.0
O384 O 0.84217 0.66185 0.64739 0.0
O385 O 0.82877 0.67428 0.66056 0.0
O386 O 0.85637 0.69159 0.67194 0.0
O387 O 0.86998 0.67875 0.6594 0.0
H388 H 0.83842 0.69438 0.64102 0.0
H389 H 0.8299 0.70802 0.62123 0.0
H390 H 0.8033 0.67361 0.60899 0.0
H391 H 0.81198 0.66004 0.6287 0.0
H392 H 0.81804 0.61698 0.68272 0.0
H393 H 0.83099 0.63737 0.67403 0.0
H394 H 0.84184 0.61873 0.72093 0.0
H395 H 0.85489 0.63876 0.71202 0.0
H396 H 0.89557 0.69166 0.70608 0.0
H397 H 0.90793 0.71804 0.67174 0.0
H398 H 0.88827 0.70907 0.65803 0.0
H399 H 0.87582 0.68283 0.69229 0.0
C400 C 0.82775 0.3454 0.64025 0.0
C401 C 0.83255 0.33191 0.6383 0.0
C402 C 0.81849 0.32968 0.61718 0.0
C403 C 0.82794 0.3241 0.62688 0.0
C404 C 0.81396 0.34332 0.61908 0.0
C405 C 0.81854 0.35107 0.6305 0.0
U406 U 0.85135 0.35342 0.67178 0.0
O407 O 0.85826 0.37375 0.6799 0.0
O408 O 0.84564 0.35968 0.69285 0.0
C409 C 0.8512 0.37216 0.69146 0.0
C410 C 0.83182 0.35359 0.65253 0.0
C411 C 0.84256 0.384 0.69566 0.0
C412 C 0.82095 0.39328 0.70444 0.0
C413 C 0.82856 0.38214 0.69948 0.0
C414 C 0.84101 0.40846 0.70152 0.0
C415 C 0.82712 0.40654 0.70566 0.0
C416 C 0.84866 0.39729 0.69664 0.0
C417 C 0.88285 0.3304 0.67969 0.0
C418 C 0.89571 0.32966 0.70153 0.0
C419 C 0.90411 0.31724 0.6816 0.0
C420 C 0.89283 0.32192 0.67373 0.0
C421 C 0.90564 0.32093 0.69565 0.0
C422 C 0.88443 0.33437 0.69361 0.0
C423 C 0.87067 0.33449 0.67133 0.0
O424 O 0.8304 0.3473 0.6646 0.0
O425 O 0.84349 0.36081 0.65154 0.0
O426 O 0.87177 0.34639 0.66467 0.0
O427 O 0.85849 0.33255 0.67719 0.0
H428 H 0.83972 0.32736 0.64568 0.0
H429 H 0.83176 0.3137 0.62565 0.0
H430 H 0.80657 0.34788 0.61194 0.0
H431 H 0.8147 0.36146 0.63184 0.0
H432 H 0.81022 0.39149 0.70739 0.0
H433 H 0.82351 0.37204 0.69883 0.0
H434 H 0.84612 0.4185 0.70245 0.0
H435 H 0.85945 0.399 0.69388 0.0
H436 H 0.89664 0.33283 0.71226 0.0
H437 H 0.91143 0.3104 0.67677 0.0
H438 H 0.89177 0.31871 0.66301 0.0
H439 H 0.87685 0.34097 0.6984 0.0
C440 C 0.13901 0.32546 0.67975 0.0
C441 C 0.1268 0.33323 0.68063 0.0
C442 C 0.11601 0.3154 0.69527 0.0
C443 C 0.11541 0.32822 0.68828 0.0
C444 C 0.12824 0.30769 0.69439 0.0
C445 C 0.13956 0.31264 0.68668 0.0
U446 U 0.16937 0.35073 0.67128 0.0
O447 O 0.19083 0.3461 0.66524 0.0
O448 O 0.17742 0.35787 0.65109 0.0
C449 C 0.18941 0.35173 0.65287 0.0
C450 C 0.15108 0.33018 0.67133 0.0
C451 C 0.19442 0.34347 0.64114 0.0
C452 C 0.19057 0.32738 0.62207 0.0
C453 C 0.18544 0.33495 0.63325 0.0
C454 C 0.21369 0.33666 0.62667 0.0
C455 C 0.20479 0.32812 0.61867 0.0
C456 C 0.20855 0.34424 0.63776 0.0
C457 C 0.17585 0.38263 0.69433 0.0
C458 C 0.19702 0.39678 0.69417 0.0
C459 C 0.17761 0.40343 0.70839 0.0
C460 C 0.17 0.39187 0.7037 0.0
C461 C 0.19129 0.40596 0.7038 0.0
C462 C 0.18936 0.38523 0.68946 0.0
C463 C 0.16791 0.37009 0.69026 0.0
O464 O 0.14962 0.3415 0.66381 0.0
O465 O 0.1633 0.32948 0.67746 0.0
O466 O 0.17427 0.3583 0.69224 0.0
O467 O 0.16127 0.37071 0.6783 0.0
H468 H 0.126 0.34314 0.67538 0.0
H469 H 0.10618 0.33445 0.68884 0.0
H470 H 0.12898 0.29768 0.69948 0.0
H471 H 0.14876 0.30636 0.68606 0.0
H472 H 0.18347 0.3208 0.61621 0.0
H473 H 0.17449 0.33414 0.63573 0.0
H474 H 0.22464 0.33762 0.62424 0.0
H475 H 0.21564 0.35078 0.64369 0.0
H476 H 0.20746 0.3985 0.6903 0.0
H477 H 0.17293 0.41015 0.71593 0.0
H478 H 0.15959 0.39001 0.70761 0.0
H479 H 0.19405 0.37823 0.68217 0.0
C480 C 0.13825 0.32753 0.34464 0.0
C481 C 0.13124 0.3362 0.33527 0.0
C482 C 0.11597 0.31694 0.32843 0.0
C483 C 0.12013 0.33096 0.32726 0.0
C484 C 0.12304 0.30836 0.33789 0.0
C485 C 0.13405 0.31362 0.34591 0.0
U486 U 0.16779 0.35363 0.35315 0.0
O487 O 0.17516 0.36087 0.37365 0.0
O488 O 0.18918 0.34964 0.36001 0.0
C489 C 0.1872 0.35475 0.37245 0.0
C490 C 0.15003 0.33263 0.35313 0.0
C491 C 0.19164 0.3461 0.3844 0.0
C492 C 0.20076 0.32462 0.39392 0.0
C493 C 0.19574 0.3323 0.38264 0.0
C494 C 0.19728 0.34417 0.40903 0.0
C495 C 0.20172 0.33051 0.40722 0.0
C496 C 0.19237 0.3519 0.39772 0.0
C497 C 0.17439 0.38545 0.32986 0.0
C498 C 0.19557 0.39956 0.33061 0.0
C499 C 0.1765 0.40622 0.31556 0.0
C500 C 0.16876 0.39468 0.32014 0.0
C501 C 0.19008 0.40871 0.3206 0.0
C502 C 0.18778 0.38805 0.33522 0.0
C503 C 0.16642 0.37288 0.33379 0.0
O504 O 0.16227 0.33224 0.3472 0.0
O505 O 0.14805 0.34411 0.36006 0.0
O506 O 0.15952 0.37346 0.3455 0.0
O507 O 0.17292 0.36115 0.3322 0.0
H508 H 0.13439 0.34698 0.3341 0.0
H509 H 0.11498 0.33779 0.31998 0.0
H510 H 0.11997 0.29758 0.33919 0.0
H511 H 0.13933 0.30678 0.35311 0.0
H512 H 0.20395 0.31406 0.39223 0.0
H513 H 0.19525 0.32746 0.37254 0.0
H514 H 0.19801 0.34903 0.41912 0.0
H515 H 0.18934 0.36252 0.39935 0.0
H516 H 0.20592 0.40127 0.33483 0.0
H517 H 0.17202 0.41294 0.30774 0.0
H518 H 0.15845 0.39282 0.31586 0.0
H519 H 0.19229 0.38105 0.34278 0.0
C520 C 0.13852 0.67785 0.32748 0.0
C521 C 0.13151 0.68671 0.33647 0.0
C522 C 0.11604 0.69372 0.31756 0.0
C523 C 0.12032 0.69454 0.33156 0.0
C524 C 0.12314 0.68481 0.30866 0.0
C525 C 0.13424 0.67697 0.31357 0.0
U526 U 0.16921 0.66936 0.35205 0.0
O527 O 0.17618 0.64889 0.35941 0.0
O528 O 0.19 0.66207 0.34677 0.0
C529 C 0.18792 0.64982 0.35253 0.0
C530 C 0.15027 0.66938 0.33222 0.0
C531 C 0.1917 0.63761 0.34419 0.0
C532 C 0.19938 0.62734 0.32257 0.0
C533 C 0.19458 0.63874 0.32993 0.0
C534 C 0.19806 0.6133 0.34344 0.0
C535 C 0.20138 0.61449 0.32926 0.0
C536 C 0.19334 0.62473 0.35081 0.0
C537 C 0.17857 0.69347 0.38288 0.0
C538 C 0.18648 0.69077 0.40687 0.0
C539 C 0.19373 0.71094 0.39355 0.0
C540 C 0.18607 0.70607 0.38214 0.0
C541 C 0.19399 0.70339 0.40609 0.0
C542 C 0.17886 0.68585 0.39539 0.0
C543 C 0.16993 0.68904 0.37081 0.0
O544 O 0.16269 0.67508 0.33083 0.0
O545 O 0.14868 0.66271 0.34407 0.0
O546 O 0.16243 0.67758 0.37213 0.0
O547 O 0.17577 0.69031 0.35856 0.0
H548 H 0.13471 0.68758 0.34724 0.0
H549 H 0.11516 0.70139 0.33865 0.0
H550 H 0.12 0.68376 0.29789 0.0
H551 H 0.13949 0.67017 0.30649 0.0
H552 H 0.20198 0.62875 0.31173 0.0
H553 H 0.19344 0.64853 0.3245 0.0
H554 H 0.19924 0.60354 0.3489 0.0
H555 H 0.1912 0.62357 0.36179 0.0
H556 H 0.18655 0.68465 0.41634 0.0
H557 H 0.19919 0.7208 0.39265 0.0
H558 H 0.18588 0.71228 0.37273 0.0
H559 H 0.17313 0.67614 0.39638 0.0
C560 C 0.82629 0.63569 0.3488 0.0
C561 C 0.83044 0.63439 0.33494 0.0
C562 C 0.81708 0.61274 0.3329 0.0
C563 C 0.82584 0.62303 0.32705 0.0
C564 C 0.81325 0.61397 0.34691 0.0
C565 C 0.81781 0.62534 0.35475 0.0
U566 U 0.84942 0.66767 0.357 0.0
O567 O 0.84331 0.68856 0.36319 0.0
O568 O 0.85589 0.67597 0.37739 0.0
C569 C 0.84873 0.68735 0.37571 0.0
C570 C 0.83018 0.64798 0.35709 0.0
C571 C 0.83995 0.69151 0.38752 0.0
C572 C 0.8184 0.70062 0.39662 0.0
C573 C 0.82607 0.69548 0.38554 0.0
C574 C 0.83813 0.69749 0.41198 0.0
C575 C 0.82439 0.70185 0.40993 0.0
C576 C 0.84583 0.69245 0.40088 0.0
C577 C 0.8811 0.6769 0.33412 0.0
C578 C 0.89081 0.69869 0.32528 0.0
C579 C 0.90569 0.67892 0.32836 0.0
C580 C 0.89434 0.67107 0.33324 0.0
C581 C 0.904 0.69276 0.3241 0.0
C582 C 0.87949 0.69087 0.33026 0.0
C583 C 0.86904 0.66801 0.33816 0.0
O584 O 0.8418 0.64721 0.36429 0.0
O585 O 0.82863 0.66004 0.35089 0.0
O586 O 0.85662 0.67314 0.33606 0.0
O587 O 0.87013 0.66127 0.35002 0.0
H588 H 0.83705 0.64224 0.33016 0.0
H589 H 0.82911 0.62231 0.31634 0.0
H590 H 0.80639 0.60635 0.35171 0.0
H591 H 0.81447 0.62619 0.36543 0.0
H592 H 0.80779 0.70374 0.39474 0.0
H593 H 0.82118 0.69489 0.3754 0.0
H594 H 0.84309 0.69843 0.42207 0.0
H595 H 0.85654 0.68958 0.40268 0.0
H596 H 0.88922 0.70937 0.32224 0.0
H597 H 0.91568 0.67402 0.32746 0.0
H598 H 0.89584 0.66031 0.33605 0.0
H599 H 0.86945 0.69572 0.33085 0.0
C600 C 0.84417 0.38008 0.32821 0.0
C601 C 0.83538 0.38709 0.33728 0.0
C602 C 0.82892 0.40313 0.31869 0.0
C603 C 0.82786 0.39856 0.33257 0.0
C604 C 0.83782 0.39608 0.30973 0.0
C605 C 0.84534 0.3847 0.31444 0.0
U606 U 0.85125 0.34886 0.35236 0.0
O607 O 0.85718 0.32771 0.3467 0.0
O608 O 0.87125 0.34052 0.35948 0.0
C609 C 0.86945 0.32883 0.35271 0.0
C610 C 0.85211 0.36788 0.33269 0.0
C611 C 0.88129 0.32405 0.34448 0.0
C612 C 0.90026 0.32807 0.32825 0.0
C613 C 0.88909 0.33307 0.33594 0.0
C614 C 0.89588 0.30503 0.33751 0.0
C615 C 0.90374 0.31396 0.32889 0.0
C616 C 0.8848 0.31003 0.3452 0.0
C617 C 0.82716 0.3406 0.38345 0.0
C618 C 0.82975 0.33271 0.40744 0.0
C619 C 0.80952 0.32559 0.39405 0.0
C620 C 0.81448 0.33319 0.38265 0.0
C621 C 0.81706 0.32528 0.40661 0.0
C622 C 0.83476 0.34028 0.39599 0.0
C623 C 0.83178 0.34915 0.37138 0.0
O624 O 0.85904 0.36898 0.34446 0.0
O625 O 0.84568 0.35584 0.33127 0.0
O626 O 0.82998 0.34354 0.35908 0.0
O627 O 0.84367 0.35599 0.37258 0.0
H628 H 0.83428 0.38363 0.34795 0.0
H629 H 0.82101 0.40367 0.33971 0.0
H630 H 0.83903 0.39942 0.29904 0.0
H631 H 0.85209 0.37946 0.30729 0.0
H632 H 0.90602 0.33519 0.32162 0.0
H633 H 0.88651 0.34393 0.33518 0.0
H634 H 0.89838 0.29416 0.33841 0.0
H635 H 0.87894 0.30291 0.35175 0.0
H636 H 0.83586 0.33261 0.41693 0.0
H637 H 0.79961 0.32018 0.3931 0.0
H638 H 0.80827 0.33341 0.37322 0.0
H639 H 0.84452 0.34594 0.39703 0.0
C640 C 0.67684 0.13882 0.69968 0.0
C641 C 0.68572 0.13181 0.69072 0.0
C642 C 0.69241 0.11614 0.70954 0.0
C643 C 0.6934 0.12052 0.69559 0.0
C644 C 0.68343 0.12321 0.71841 0.0
C645 C 0.67574 0.13441 0.71352 0.0
U646 U 0.66919 0.16924 0.67474 0.0
O647 O 0.64906 0.17718 0.6675 0.0
O648 O 0.66308 0.19048 0.67982 0.0
C649 C 0.65064 0.18893 0.67423 0.0
C650 C 0.66873 0.15083 0.695 0.0
C651 C 0.63879 0.19358 0.68275 0.0
C652 C 0.61491 0.19105 0.69088 0.0
C653 C 0.62615 0.18603 0.68334 0.0
C654 C 0.62871 0.21118 0.69745 0.0
C655 C 0.61605 0.20369 0.69802 0.0
C656 C 0.6399 0.20621 0.68986 0.0
C657 C 0.69312 0.17588 0.64323 0.0
C658 C 0.68982 0.19361 0.62548 0.0
C659 C 0.71081 0.18014 0.62578 0.0
C660 C 0.70601 0.17286 0.63743 0.0
C661 C 0.70281 0.19063 0.61962 0.0
C662 C 0.68501 0.1863 0.6372 0.0
C663 C 0.68855 0.16811 0.65566 0.0
O664 O 0.67508 0.16295 0.69597 0.0
O665 O 0.66163 0.14934 0.68337 0.0
O666 O 0.67654 0.16146 0.6547 0.0
O667 O 0.69031 0.1745 0.66756 0.0
H668 H 0.68677 0.13511 0.68 0.0
H669 H 0.70031 0.11539 0.68853 0.0
H670 H 0.68226 0.12001 0.72914 0.0
H671 H 0.66893 0.13967 0.72059 0.0
H672 H 0.60534 0.18498 0.69119 0.0
H673 H 0.62488 0.1763 0.67792 0.0
H674 H 0.62989 0.22106 0.70263 0.0
H675 H 0.64941 0.21237 0.68944 0.0
H676 H 0.68333 0.20155 0.62097 0.0
H677 H 0.72097 0.17773 0.62178 0.0
H678 H 0.71244 0.1649 0.64199 0.0
H679 H 0.67502 0.18879 0.64156 0.0
C680 C 0.32498 0.17925 0.63957 0.0
C681 C 0.33223 0.17987 0.62693 0.0
C682 C 0.31483 0.19517 0.61698 0.0
C683 C 0.3272 0.18773 0.61576 0.0
C684 C 0.30763 0.19457 0.62962 0.0
C685 C 0.31261 0.18666 0.64074 0.0
U686 U 0.34949 0.17041 0.67022 0.0
O687 O 0.34438 0.16272 0.6911 0.0
O688 O 0.35696 0.15004 0.67734 0.0
C689 C 0.35013 0.15065 0.68908 0.0
C690 C 0.32964 0.17041 0.65132 0.0
C691 C 0.34173 0.13822 0.69295 0.0
C692 C 0.32002 0.12742 0.70063 0.0
C693 C 0.32746 0.13905 0.69579 0.0
C694 C 0.34083 0.11377 0.69936 0.0
C695 C 0.32664 0.11465 0.70265 0.0
C696 C 0.34829 0.12543 0.69462 0.0
C697 C 0.38019 0.19515 0.67943 0.0
C698 C 0.40453 0.19364 0.68648 0.0
C699 C 0.39021 0.21159 0.69595 0.0
C700 C 0.37889 0.20669 0.68812 0.0
C701 C 0.40317 0.20515 0.69522 0.0
C702 C 0.39316 0.18868 0.67868 0.0
C703 C 0.36816 0.19062 0.67073 0.0
O704 O 0.34138 0.16381 0.64983 0.0
O705 O 0.32819 0.1756 0.6638 0.0
O706 O 0.35586 0.19145 0.6765 0.0
O707 O 0.36954 0.17932 0.66332 0.0
H708 H 0.34175 0.17421 0.62561 0.0
H709 H 0.33303 0.18806 0.60619 0.0
H710 H 0.29795 0.19999 0.63084 0.0
H711 H 0.30666 0.18621 0.65025 0.0
H712 H 0.30918 0.12859 0.70322 0.0
H713 H 0.32208 0.14875 0.69461 0.0
H714 H 0.34623 0.10408 0.70057 0.0
H715 H 0.35927 0.12452 0.6925 0.0
H716 H 0.41436 0.1884 0.68575 0.0
H717 H 0.38887 0.22062 0.70239 0.0
H718 H 0.36913 0.21207 0.68874 0.0
H719 H 0.39458 0.17985 0.67199 0.0
C720 C 0.3261 0.8429 0.64178 0.0
C721 C 0.33277 0.84378 0.62884 0.0
C722 C 0.31593 0.82743 0.61878 0.0
C723 C 0.32777 0.8361 0.61749 0.0
C724 C 0.30939 0.82644 0.63178 0.0
C725 C 0.31437 0.83412 0.64309 0.0
U726 U 0.34993 0.85278 0.673 0.0
O727 O 0.35661 0.87353 0.68026 0.0
O728 O 0.34409 0.85988 0.69373 0.0
C729 C 0.34957 0.87232 0.69187 0.0
C730 C 0.33049 0.85176 0.65365 0.0
C731 C 0.34087 0.88422 0.69572 0.0
C732 C 0.31907 0.89359 0.70392 0.0
C733 C 0.32671 0.88246 0.69898 0.0
C734 C 0.3394 0.90858 0.70197 0.0
C735 C 0.32537 0.90674 0.70565 0.0
C736 C 0.34707 0.89742 0.69713 0.0
C737 C 0.38116 0.82967 0.6828 0.0
C738 C 0.40536 0.83237 0.69026 0.0
C739 C 0.39149 0.813 0.69875 0.0
C740 C 0.38012 0.81761 0.69099 0.0
C741 C 0.40428 0.82027 0.69845 0.0
C742 C 0.39392 0.83703 0.68252 0.0
C743 C 0.36916 0.83375 0.67395 0.0
O744 O 0.32895 0.84634 0.66612 0.0
O745 O 0.34212 0.85903 0.65236 0.0
O746 O 0.3704 0.84525 0.66661 0.0
O747 O 0.35679 0.83208 0.67949 0.0
H748 H 0.34173 0.85057 0.62738 0.0
H749 H 0.33298 0.83722 0.60761 0.0
H750 H 0.3004 0.81971 0.63325 0.0
H751 H 0.30888 0.83331 0.65285 0.0
H752 H 0.30824 0.89188 0.7065 0.0
H753 H 0.32158 0.87244 0.69798 0.0
H754 H 0.34459 0.91854 0.70329 0.0
H755 H 0.35798 0.89904 0.69479 0.0
H756 H 0.41503 0.83826 0.68987 0.0
H757 H 0.39035 0.80351 0.70474 0.0
H758 H 0.37052 0.81156 0.69123 0.0
H759 H 0.39516 0.8463 0.67623 0.0
C760 C 0.6374 0.82616 0.67938 0.0
C761 C 0.62542 0.83413 0.68105 0.0
C762 C 0.61471 0.81586 0.69521 0.0
C763 C 0.61418 0.82901 0.68885 0.0
C764 C 0.62671 0.80794 0.69353 0.0
C765 C 0.63788 0.81301 0.68567 0.0
U766 U 0.66786 0.85138 0.67137 0.0
O767 O 0.6891 0.84685 0.66462 0.0
O768 O 0.67555 0.85944 0.65137 0.0
C769 C 0.68752 0.85316 0.6526 0.0
C770 C 0.64931 0.83107 0.67085 0.0
C771 C 0.69217 0.84545 0.64037 0.0
C772 C 0.68855 0.82806 0.62246 0.0
C773 C 0.68371 0.8353 0.63399 0.0
C774 C 0.7103 0.84103 0.62364 0.0
C775 C 0.70193 0.83084 0.61713 0.0
C776 C 0.70546 0.84825 0.63511 0.0
C777 C 0.67514 0.88193 0.6961 0.0
C778 C 0.69192 0.90069 0.69211 0.0
C779 C 0.68162 0.89756 0.71481 0.0
C780 C 0.67388 0.88621 0.70989 0.0
C781 C 0.6908 0.9049 0.70602 0.0
C782 C 0.68419 0.88924 0.6872 0.0
C783 C 0.66706 0.8697 0.69142 0.0
O784 O 0.64785 0.84275 0.66391 0.0
O785 O 0.66167 0.82991 0.67661 0.0
O786 O 0.67337 0.85779 0.69263 0.0
O787 O 0.66017 0.871 0.67965 0.0
H788 H 0.62468 0.84431 0.67633 0.0
H789 H 0.60513 0.8354 0.69003 0.0
H790 H 0.62738 0.7977 0.69812 0.0
H791 H 0.6469 0.80658 0.68443 0.0
H792 H 0.68178 0.82036 0.61767 0.0
H793 H 0.67341 0.83298 0.63794 0.0
H794 H 0.72075 0.84326 0.62005 0.0
H795 H 0.71216 0.85598 0.63995 0.0
H796 H 0.69898 0.90604 0.68511 0.0
H797 H 0.68037 0.90064 0.72552 0.0
H798 H 0.66694 0.88072 0.71691 0.0
H799 H 0.68536 0.88604 0.67652 0.0
C800 C 0.63634 0.82606 0.34662 0.0
C801 C 0.62946 0.83459 0.337 0.0
C802 C 0.6137 0.81546 0.33089 0.0
C803 C 0.61819 0.82934 0.32923 0.0
C804 C 0.62059 0.80705 0.34063 0.0
C805 C 0.63179 0.81231 0.34841 0.0
U806 U 0.66661 0.85171 0.35354 0.0
O807 O 0.67473 0.85971 0.37341 0.0
O808 O 0.68807 0.84734 0.36011 0.0
C809 C 0.68668 0.85345 0.37215 0.0
C810 C 0.64841 0.83112 0.35472 0.0
C811 C 0.69141 0.84547 0.38433 0.0
C812 C 0.68785 0.82758 0.40194 0.0
C813 C 0.68299 0.83513 0.39045 0.0
C814 C 0.70957 0.84063 0.40123 0.0
C815 C 0.70123 0.83024 0.40748 0.0
C816 C 0.7047 0.84816 0.38981 0.0
C817 C 0.67324 0.88266 0.32917 0.0
C818 C 0.69464 0.89645 0.32913 0.0
C819 C 0.67508 0.9035 0.31494 0.0
C820 C 0.66736 0.89203 0.31973 0.0
C821 C 0.68886 0.90578 0.31947 0.0
C822 C 0.68689 0.88501 0.33396 0.0
C823 C 0.66514 0.87031 0.33355 0.0
O824 O 0.66049 0.83023 0.34856 0.0
O825 O 0.64688 0.84288 0.36131 0.0
O826 O 0.65846 0.87137 0.34534 0.0
O827 O 0.67142 0.85841 0.33224 0.0
H828 H 0.63289 0.84523 0.33543 0.0
H829 H 0.61317 0.83604 0.32173 0.0
H830 H 0.61729 0.79638 0.34229 0.0
H831 H 0.63695 0.80558 0.3558 0.0
H832 H 0.68111 0.81974 0.40653 0.0
H833 H 0.67269 0.83288 0.38633 0.0
H834 H 0.72002 0.84278 0.405 0.0
H835 H 0.71137 0.85604 0.38516 0.0
H836 H 0.70517 0.89799 0.33295 0.0
H837 H 0.67036 0.91038 0.3074 0.0
H838 H 0.65685 0.89037 0.3159 0.0
H839 H 0.69159 0.87791 0.34131 0.0
C840 C 0.63925 0.17784 0.32951 0.0
C841 C 0.62705 0.17881 0.33739 0.0
C842 C 0.6165 0.19342 0.31956 0.0
C843 C 0.61578 0.1865 0.33245 0.0
C844 C 0.62873 0.19246 0.31175 0.0
C845 C 0.63993 0.18473 0.31664 0.0
U846 U 0.66956 0.16907 0.3544 0.0
O847 O 0.677 0.14881 0.36161 0.0
O848 O 0.69076 0.16251 0.34945 0.0
C849 C 0.68902 0.15028 0.35531 0.0
C850 C 0.65113 0.1693 0.33411 0.0
C851 C 0.69361 0.13836 0.34714 0.0
C852 C 0.68987 0.12093 0.32927 0.0
C853 C 0.68515 0.13229 0.33682 0.0
C854 C 0.71153 0.12169 0.34225 0.0
C855 C 0.70313 0.11546 0.33192 0.0
C856 C 0.7068 0.13298 0.34977 0.0
C857 C 0.67685 0.19218 0.38618 0.0
C858 C 0.6984 0.19295 0.39955 0.0
C859 C 0.67832 0.20521 0.40768 0.0
C860 C 0.67068 0.20056 0.39615 0.0
C861 C 0.69233 0.2016 0.40946 0.0
C862 C 0.69072 0.18825 0.38803 0.0
C863 C 0.66879 0.18817 0.37371 0.0
O864 O 0.66351 0.17521 0.33316 0.0
O865 O 0.64955 0.1619 0.34554 0.0
O866 O 0.66176 0.17639 0.37449 0.0
O867 O 0.67515 0.18994 0.36179 0.0
H868 H 0.62614 0.1736 0.34734 0.0
H869 H 0.60655 0.18711 0.33876 0.0
H870 H 0.62956 0.19749 0.30169 0.0
H871 H 0.64912 0.18403 0.31026 0.0
H872 H 0.6831 0.11636 0.32146 0.0
H873 H 0.67492 0.13633 0.33463 0.0
H874 H 0.72189 0.11798 0.34439 0.0
H875 H 0.71351 0.13757 0.35764 0.0
H876 H 0.70912 0.18984 0.40068 0.0
H877 H 0.67335 0.21198 0.41499 0.0
H878 H 0.65999 0.20373 0.39488 0.0
H879 H 0.69566 0.18173 0.38048 0.0
C880 C 0.32409 0.14 0.34606 0.0
C881 C 0.33303 0.13336 0.33687 0.0
C882 C 0.31425 0.11747 0.32992 0.0
C883 C 0.32816 0.12214 0.3289 0.0
C884 C 0.3054 0.1242 0.33918 0.0
C885 C 0.31028 0.13533 0.34715 0.0
U886 U 0.34948 0.17004 0.35482 0.0
O887 O 0.34498 0.19117 0.36162 0.0
O888 O 0.35671 0.17733 0.37535 0.0
C889 C 0.35037 0.18924 0.37405 0.0
C890 C 0.32884 0.15183 0.35456 0.0
C891 C 0.34194 0.19359 0.38603 0.0
C892 C 0.32042 0.2021 0.39578 0.0
C893 C 0.32784 0.19695 0.38453 0.0
C894 C 0.3409 0.20021 0.41036 0.0
C895 C 0.32689 0.20396 0.40882 0.0
C896 C 0.34833 0.19514 0.39909 0.0
C897 C 0.38143 0.17715 0.33182 0.0
C898 C 0.39515 0.19856 0.33145 0.0
C899 C 0.40283 0.17866 0.31859 0.0
C900 C 0.39121 0.17106 0.32317 0.0
C901 C 0.40487 0.19257 0.32253 0.0
C902 C 0.38355 0.19091 0.33608 0.0
C903 C 0.36884 0.16917 0.33574 0.0
O904 O 0.34037 0.15012 0.36173 0.0
O905 O 0.32816 0.16406 0.34856 0.0
O906 O 0.35699 0.17556 0.33399 0.0
O907 O 0.36951 0.16219 0.34748 0.0
H908 H 0.34374 0.13687 0.33584 0.0
H909 H 0.33521 0.11727 0.32179 0.0
H910 H 0.29469 0.12076 0.34038 0.0
H911 H 0.30324 0.14031 0.35421 0.0
H912 H 0.30973 0.20503 0.39411 0.0
H913 H 0.32259 0.19588 0.3746 0.0
H914 H 0.34618 0.20128 0.42027 0.0
H915 H 0.35918 0.19263 0.40053 0.0
H916 H 0.3965 0.20919 0.33482 0.0
H917 H 0.40999 0.17377 0.3116 0.0
H918 H 0.38973 0.16046 0.31974 0.0
H919 H 0.37613 0.19579 0.34281 0.0
C920 C 0.34206 0.88078 0.32729 0.0
C921 C 0.3412 0.89297 0.33516 0.0
C922 C 0.32684 0.90373 0.3172 0.0
C923 C 0.33366 0.9043 0.33018 0.0
C924 C 0.32757 0.89144 0.30948 0.0
C925 C 0.33513 0.88017 0.31443 0.0
U926 U 0.3514 0.84971 0.35118 0.0
O927 O 0.35855 0.82906 0.3454 0.0
O928 O 0.37208 0.84261 0.358 0.0
C929 C 0.37094 0.831 0.35099 0.0
C930 C 0.35079 0.86898 0.33175 0.0
C931 C 0.38306 0.82713 0.34246 0.0
C932 C 0.39282 0.81836 0.32102 0.0
C933 C 0.38152 0.82338 0.32843 0.0
C934 C 0.40756 0.82121 0.3413 0.0
C935 C 0.40594 0.81702 0.32742 0.0
C936 C 0.39623 0.82614 0.34875 0.0
C937 C 0.3276 0.83999 0.38228 0.0
C938 C 0.33015 0.8323 0.40635 0.0
C939 C 0.31015 0.82473 0.39285 0.0
C940 C 0.31508 0.83233 0.38144 0.0
C941 C 0.31757 0.82466 0.40549 0.0
C942 C 0.33512 0.83987 0.39488 0.0
C943 C 0.33199 0.84872 0.37027 0.0
O944 O 0.35791 0.87031 0.34339 0.0
O945 O 0.34525 0.85653 0.33019 0.0
O946 O 0.33051 0.84309 0.35795 0.0
O947 O 0.34355 0.85611 0.37155 0.0
H948 H 0.34651 0.89387 0.34508 0.0
H949 H 0.33343 0.91362 0.33636 0.0
H950 H 0.32226 0.89049 0.29957 0.0
H951 H 0.33568 0.87097 0.30808 0.0
H952 H 0.39127 0.81539 0.31029 0.0
H953 H 0.37154 0.82403 0.32324 0.0
H954 H 0.41748 0.82021 0.34657 0.0
H955 H 0.39768 0.82885 0.35956 0.0
H956 H 0.33617 0.83239 0.4159 0.0
H957 H 0.30032 0.81917 0.39187 0.0
H958 H 0.30893 0.83239 0.37197 0.0
H959 H 0.34476 0.84574 0.39596 0.0
C960 C 0.67557 0.63549 0.19711 0.0
C961 C 0.68951 0.63419 0.1932 0.0
C962 C 0.69127 0.6128 0.20676 0.0
C963 C 0.6973 0.62297 0.19801 0.0
C964 C 0.67721 0.61405 0.2104 0.0
C965 C 0.66947 0.62529 0.20564 0.0
U966 U 0.66814 0.66651 0.17304 0.0
O967 O 0.64807 0.67423 0.16529 0.0
O968 O 0.66146 0.68751 0.17829 0.0
C969 C 0.64938 0.68601 0.17198 0.0
C970 C 0.66732 0.64754 0.19277 0.0
C971 C 0.63716 0.69036 0.17989 0.0
C972 C 0.62296 0.68985 0.20071 0.0
C973 C 0.63428 0.68499 0.19316 0.0
C974 C 0.61716 0.70529 0.18169 0.0
C975 C 0.61434 0.70019 0.19512 0.0
C976 C 0.62845 0.70043 0.17418 0.0
C977 C 0.69255 0.6742 0.14224 0.0
C978 C 0.69138 0.69468 0.12742 0.0
C979 C 0.70846 0.67716 0.12292 0.0
C980 C 0.7035 0.66938 0.1342 0.0
C981 C 0.70257 0.68998 0.11945 0.0
C982 C 0.68642 0.68685 0.13873 0.0
C983 C 0.68798 0.66602 0.15441 0.0
O984 O 0.67342 0.65974 0.19424 0.0
O985 O 0.6605 0.6463 0.18096 0.0
O986 O 0.67613 0.65918 0.15306 0.0
O987 O 0.68936 0.67218 0.16649 0.0
H988 H 0.69441 0.64192 0.18655 0.0
H989 H 0.70805 0.62224 0.19487 0.0
H990 H 0.67228 0.60653 0.21724 0.0
H991 H 0.65873 0.62612 0.20879 0.0
H992 H 0.62119 0.68579 0.21106 0.0
H993 H 0.6409 0.67721 0.19775 0.0
H994 H 0.61064 0.71308 0.17697 0.0
H995 H 0.63047 0.70467 0.16393 0.0
H996 H 0.68668 0.70456 0.12514 0.0
H997 H 0.71693 0.67312 0.11691 0.0
H998 H 0.70833 0.65961 0.13672 0.0
H999 H 0.67795 0.69076 0.14485 0.0
C1000 C 0.32459 0.67852 0.13825 0.0
C1001 C 0.33356 0.68754 0.13096 0.0
C1002 C 0.31443 0.6945 0.11582 0.0
C1003 C 0.32853 0.69543 0.11978 0.0
C1004 C 0.30554 0.6854 0.12318 0.0
C1005 C 0.31058 0.6775 0.13427 0.0
U1006 U 0.35033 0.67024 0.16786 0.0
O1007 O 0.34603 0.66346 0.18924 0.0
O1008 O 0.35741 0.64986 0.17532 0.0
C1009 C 0.35114 0.65107 0.18732 0.0
C1010 C 0.32948 0.67011 0.15008 0.0
C1011 C 0.34241 0.63908 0.19185 0.0
C1012 C 0.32085 0.62943 0.20125 0.0
C1013 C 0.32858 0.64073 0.19609 0.0
C1014 C 0.34043 0.6145 0.19762 0.0
C1015 C 0.32673 0.61621 0.2022 0.0
C1016 C 0.3482 0.62584 0.19257 0.0
C1017 C 0.38236 0.69379 0.17423 0.0
C1018 C 0.39666 0.69314 0.19515 0.0
C1019 C 0.40296 0.7086 0.17622 0.0
C1020 C 0.39143 0.70381 0.1686 0.0
C1021 C 0.40562 0.70347 0.18967 0.0
C1022 C 0.38513 0.68834 0.18749 0.0
C1023 C 0.36977 0.68967 0.16639 0.0
O1024 O 0.34096 0.66321 0.14817 0.0
O1025 O 0.32898 0.67608 0.16228 0.0
O1026 O 0.35797 0.6912 0.17293 0.0
O1027 O 0.37035 0.67794 0.15958 0.0
H1028 H 0.34442 0.68852 0.13393 0.0
H1029 H 0.33561 0.70243 0.1144 0.0
H1030 H 0.29468 0.68429 0.12029 0.0
H1031 H 0.30351 0.67058 0.13976 0.0
H1032 H 0.31027 0.63105 0.20455 0.0
H1033 H 0.32375 0.65078 0.19563 0.0
H1034 H 0.34529 0.60448 0.19834 0.0
H1035 H 0.35885 0.62429 0.18944 0.0
H1036 H 0.3983 0.68906 0.20552 0.0
H1037 H 0.40974 0.7164 0.1716 0.0
H1038 H 0.38948 0.7081 0.15836 0.0
H1039 H 0.37821 0.6806 0.19202 0.0
C1040 C 0.32832 0.34533 0.14237 0.0
C1041 C 0.32515 0.33111 0.14366 0.0
C1042 C 0.31815 0.33007 0.11925 0.0
C1043 C 0.3201 0.32358 0.13225 0.0
C1044 C 0.3217 0.34423 0.11793 0.0
C1045 C 0.32667 0.35176 0.12936 0.0
U1046 U 0.35159 0.35325 0.17424 0.0
O1047 O 0.35953 0.3733 0.18206 0.0
O1048 O 0.34578 0.36037 0.19502 0.0
C1049 C 0.3525 0.37226 0.19368 0.0
C1050 C 0.33258 0.35381 0.15451 0.0
C1051 C 0.34487 0.38462 0.19793 0.0
C1052 C 0.32695 0.40179 0.19429 0.0
C1053 C 0.33423 0.39023 0.18969 0.0
C1054 C 0.34089 0.40221 0.21532 0.0
C1055 C 0.33017 0.40792 0.2072 0.0
C1056 C 0.34815 0.39071 0.21072 0.0
C1057 C 0.38149 0.32852 0.18379 0.0
C1058 C 0.40541 0.33085 0.19217 0.0
C1059 C 0.39143 0.31086 0.19888 0.0
C1060 C 0.38027 0.31593 0.1911 0.0
C1061 C 0.40418 0.31821 0.19946 0.0
C1062 C 0.3942 0.33596 0.18443 0.0
C1063 C 0.36972 0.33318 0.17496 0.0
O1064 O 0.33043 0.3483 0.16685 0.0
O1065 O 0.3446 0.36045 0.15358 0.0
O1066 O 0.37156 0.34469 0.16774 0.0
O1067 O 0.35728 0.33208 0.18045 0.0
H1068 H 0.3263 0.32582 0.15355 0.0
H1069 H 0.31732 0.31276 0.13376 0.0
H1070 H 0.32057 0.34954 0.10806 0.0
H1071 H 0.32904 0.36271 0.12808 0.0
H1072 H 0.31883 0.40596 0.18772 0.0
H1073 H 0.33154 0.38564 0.17978 0.0
H1074 H 0.3435 0.40641 0.22542 0.0
H1075 H 0.35626 0.38647 0.21726 0.0
H1076 H 0.41505 0.33681 0.19249 0.0
H1077 H 0.39018 0.301 0.20419 0.0
H1078 H 0.37069 0.30986 0.19064 0.0
H1079 H 0.39555 0.34567 0.17887 0.0
C1080 C 0.63706 0.32582 0.17838 0.0
C1081 C 0.63568 0.33007 0.1922 0.0
C1082 C 0.61406 0.31662 0.19428 0.0
C1083 C 0.62429 0.32548 0.20009 0.0
C1084 C 0.61535 0.31268 0.18031 0.0
C1085 C 0.62676 0.31722 0.17247 0.0
U1086 U 0.66922 0.34882 0.17091 0.0
O1087 O 0.69022 0.34268 0.16477 0.0
O1088 O 0.67789 0.35587 0.15092 0.0
C1089 C 0.68921 0.34854 0.15245 0.0
C1090 C 0.6494 0.32973 0.17015 0.0
C1091 C 0.69357 0.34003 0.14051 0.0
C1092 C 0.69098 0.3324 0.11651 0.0
C1093 C 0.68616 0.33993 0.12785 0.0
C1094 C 0.71062 0.32485 0.13026 0.0
C1095 C 0.70328 0.32478 0.11757 0.0
C1096 C 0.70585 0.33242 0.14154 0.0
C1097 C 0.67809 0.3796 0.1953 0.0
C1098 C 0.68596 0.40371 0.19343 0.0
C1099 C 0.69295 0.38986 0.21322 0.0
C1100 C 0.68544 0.37852 0.20791 0.0
C1101 C 0.69321 0.40266 0.20614 0.0
C1102 C 0.67847 0.39233 0.18809 0.0
C1103 C 0.66938 0.36769 0.19048 0.0
O1104 O 0.64874 0.34149 0.16323 0.0
O1105 O 0.66146 0.32795 0.17633 0.0
O1106 O 0.6747 0.35532 0.19214 0.0
O1107 O 0.66268 0.3691 0.17861 0.0
H1108 H 0.6435 0.33677 0.19694 0.0
H1109 H 0.62353 0.32884 0.21076 0.0
H1110 H 0.60777 0.30574 0.17556 0.0
H1111 H 0.62766 0.31381 0.16182 0.0
H1112 H 0.68503 0.33248 0.10691 0.0
H1113 H 0.6767 0.34574 0.12663 0.0
H1114 H 0.72024 0.31928 0.13138 0.0
H1115 H 0.7119 0.33246 0.15107 0.0
H1116 H 0.68582 0.41344 0.18776 0.0
H1117 H 0.69859 0.38856 0.2229 0.0
H1118 H 0.68526 0.36891 0.21378 0.0
H1119 H 0.6728 0.3936 0.17842 0.0
C1120 C 0.63969 0.32709 0.84415 0.0
C1121 C 0.63255 0.33589 0.835 0.0
C1122 C 0.61681 0.31686 0.82853 0.0
C1123 C 0.62115 0.33083 0.82729 0.0
C1124 C 0.62399 0.30817 0.8378 0.0
C1125 C 0.6353 0.31324 0.84552 0.0
U1126 U 0.67019 0.35246 0.85117 0.0
O1127 O 0.6787 0.36004 0.87104 0.0
O1128 O 0.69171 0.34779 0.8573 0.0
C1129 C 0.69044 0.35343 0.8696 0.0
C1130 C 0.65189 0.33195 0.85218 0.0
C1131 C 0.69522 0.34495 0.88155 0.0
C1132 C 0.69203 0.33517 0.90475 0.0
C1133 C 0.68705 0.34295 0.89348 0.0
C1134 C 0.71336 0.33117 0.89235 0.0
C1135 C 0.70523 0.32917 0.90429 0.0
C1136 C 0.70844 0.33902 0.88115 0.0
C1137 C 0.67651 0.38381 0.82715 0.0
C1138 C 0.69785 0.39769 0.82698 0.0
C1139 C 0.67815 0.40467 0.81294 0.0
C1140 C 0.67052 0.39317 0.81778 0.0
C1141 C 0.69196 0.407 0.81737 0.0
C1142 C 0.69018 0.3862 0.83185 0.0
C1143 C 0.6685 0.37141 0.83154 0.0
O1144 O 0.66388 0.33112 0.84583 0.0
O1145 O 0.65051 0.34359 0.85902 0.0
O1146 O 0.66204 0.37231 0.84346 0.0
O1147 O 0.67474 0.35953 0.82993 0.0
H1148 H 0.63585 0.34661 0.83375 0.0
H1149 H 0.61591 0.33775 0.82016 0.0
H1150 H 0.62081 0.29742 0.83913 0.0
H1151 H 0.64068 0.3063 0.85254 0.0
H1152 H 0.68548 0.33372 0.91376 0.0
H1153 H 0.67682 0.34738 0.89416 0.0
H1154 H 0.72365 0.32684 0.89174 0.0
H1155 H 0.71501 0.34051 0.87216 0.0
H1156 H 0.7084 0.39927 0.83071 0.0
H1157 H 0.67335 0.41152 0.80544 0.0
H1158 H 0.65999 0.39146 0.81402 0.0
H1159 H 0.69497 0.37911 0.83914 0.0
C1160 C 0.6386 0.6788 0.82809 0.0
C1161 C 0.62631 0.67931 0.8359 0.0
C1162 C 0.61563 0.69426 0.81843 0.0
C1163 C 0.61494 0.68694 0.8311 0.0
C1164 C 0.62795 0.69376 0.81069 0.0
C1165 C 0.63925 0.68609 0.81543 0.0
U1166 U 0.66958 0.66974 0.85218 0.0
O1167 O 0.67731 0.64938 0.85876 0.0
O1168 O 0.69066 0.66339 0.84649 0.0
C1169 C 0.68916 0.65106 0.85219 0.0
C1170 C 0.65056 0.67022 0.83244 0.0
C1171 C 0.6938 0.63932 0.84379 0.0
C1172 C 0.68961 0.62091 0.82701 0.0
C1173 C 0.68476 0.63208 0.83477 0.0
C1174 C 0.71252 0.6242 0.83717 0.0
C1175 C 0.70359 0.61689 0.82808 0.0
C1176 C 0.70767 0.63527 0.84492 0.0
C1177 C 0.67847 0.69235 0.88404 0.0
C1178 C 0.70019 0.70116 0.89409 0.0
C1179 C 0.68015 0.69744 0.90877 0.0
C1180 C 0.67243 0.6928 0.89726 0.0
C1181 C 0.69406 0.70189 0.90727 0.0
C1182 C 0.69251 0.69642 0.88261 0.0
C1183 C 0.66976 0.68851 0.87183 0.0
O1184 O 0.66293 0.67608 0.8312 0.0
O1185 O 0.64925 0.6628 0.84388 0.0
O1186 O 0.66264 0.67679 0.87272 0.0
O1187 O 0.67531 0.69058 0.85954 0.0
H1188 H 0.62541 0.67375 0.84566 0.0
H1189 H 0.60565 0.68719 0.83736 0.0
H1190 H 0.62876 0.69908 0.80079 0.0
H1191 H 0.64849 0.68573 0.80909 0.0
H1192 H 0.68249 0.61558 0.82002 0.0
H1193 H 0.674 0.63508 0.83371 0.0
H1194 H 0.72328 0.62127 0.8384 0.0
H1195 H 0.71479 0.64069 0.85186 0.0
H1196 H 0.71093 0.70435 0.89262 0.0
H1197 H 0.67509 0.69798 0.91875 0.0
H1198 H 0.66162 0.68982 0.89864 0.0
H1199 H 0.69753 0.69618 0.8726 0.0
C1200 C 0.32528 0.63838 0.84669 0.0
C1201 C 0.33286 0.62607 0.84591 0.0
C1202 C 0.31484 0.61552 0.83124 0.0
C1203 C 0.32767 0.61476 0.83828 0.0
C1204 C 0.30734 0.62787 0.83199 0.0
C1205 C 0.31247 0.63912 0.83967 0.0
U1206 U 0.35051 0.66876 0.8554 0.0
O1207 O 0.34585 0.68982 0.86231 0.0
O1208 O 0.35806 0.67614 0.87576 0.0
C1209 C 0.35171 0.68804 0.87455 0.0
C1210 C 0.33011 0.65028 0.85527 0.0
C1211 C 0.34343 0.69225 0.88658 0.0
C1212 C 0.32164 0.69272 0.89922 0.0
C1213 C 0.32948 0.688 0.88805 0.0
C1214 C 0.34169 0.70568 0.90774 0.0
C1215 C 0.32762 0.70172 0.90915 0.0
C1216 C 0.34949 0.701 0.89656 0.0
C1217 C 0.38198 0.67609 0.83174 0.0
C1218 C 0.39637 0.69707 0.83228 0.0
C1219 C 0.40219 0.67836 0.81686 0.0
C1220 C 0.39077 0.67063 0.82171 0.0
C1221 C 0.40504 0.69176 0.82194 0.0
C1222 C 0.38492 0.6893 0.83714 0.0
C1223 C 0.36952 0.66805 0.83595 0.0
O1224 O 0.34165 0.64878 0.86248 0.0
O1225 O 0.32914 0.66261 0.84948 0.0
O1226 O 0.35763 0.6744 0.83445 0.0
O1227 O 0.37047 0.6611 0.84769 0.0
H1228 H 0.34274 0.6251 0.85124 0.0
H1229 H 0.33376 0.60544 0.83782 0.0
H1230 H 0.29733 0.62874 0.82686 0.0
H1231 H 0.30631 0.64839 0.84023 0.0
H1232 H 0.31088 0.68935 0.90007 0.0
H1233 H 0.32463 0.68118 0.88048 0.0
H1234 H 0.34658 0.71273 0.91508 0.0
H1235 H 0.36023 0.70441 0.89559 0.0
H1236 H 0.39817 0.70739 0.83633 0.0
H1237 H 0.40875 0.67386 0.80906 0.0
H1238 H 0.38869 0.66043 0.81746 0.0
H1239 H 0.37823 0.69369 0.84489 0.0
C1240 C 0.34444 0.38033 0.82915 0.0
C1241 C 0.33378 0.38588 0.83715 0.0
C1242 C 0.32965 0.4036 0.8194 0.0
C1243 C 0.32645 0.39743 0.83232 0.0
C1244 C 0.34037 0.39792 0.81148 0.0
C1245 C 0.34767 0.38644 0.81632 0.0
U1246 U 0.35081 0.34902 0.85337 0.0
O1247 O 0.35749 0.32808 0.84798 0.0
O1248 O 0.37067 0.34109 0.86145 0.0
C1249 C 0.36948 0.32945 0.8545 0.0
C1250 C 0.35228 0.36814 0.83382 0.0
C1251 C 0.38182 0.3253 0.84665 0.0
C1252 C 0.39589 0.32573 0.82575 0.0
C1253 C 0.38444 0.3304 0.83322 0.0
C1254 C 0.40235 0.31106 0.84515 0.0
C1255 C 0.40494 0.31591 0.83159 0.0
C1256 C 0.39091 0.3157 0.85258 0.0
C1257 C 0.32557 0.34095 0.88346 0.0
C1258 C 0.32929 0.32432 0.9022 0.0
C1259 C 0.30658 0.33425 0.89874 0.0
C1260 C 0.31167 0.34198 0.88749 0.0
C1261 C 0.31529 0.32529 0.90623 0.0
C1262 C 0.33438 0.33205 0.89087 0.0
C1263 C 0.33052 0.34928 0.87152 0.0
O1264 O 0.35872 0.36924 0.84585 0.0
O1265 O 0.346 0.35607 0.83211 0.0
O1266 O 0.32939 0.34333 0.85933 0.0
O1267 O 0.34236 0.35609 0.87323 0.0
H1268 H 0.33112 0.38129 0.8471 0.0
H1269 H 0.31834 0.40156 0.83875 0.0
H1270 H 0.34296 0.40218 0.80138 0.0
H1271 H 0.35582 0.38225 0.80996 0.0
H1272 H 0.39765 0.3298 0.81539 0.0
H1273 H 0.37756 0.33786 0.82848 0.0
H1274 H 0.40895 0.30336 0.84991 0.0
H1275 H 0.38904 0.31161 0.86291 0.0
H1276 H 0.33625 0.31743 0.90766 0.0
H1277 H 0.29581 0.33541 0.90166 0.0
H1278 H 0.30472 0.34882 0.88193 0.0
H1279 H 0.34514 0.33105 0.88788 0.0
H1280 H 0.26741 0.28393 0.99944 0.0
H1281 H 0.23487 0.25273 0.99983 0.0
H1282 H 0.26164 0.25684 0.96453 0.0
H1283 H 0.24696 0.28626 0.01425 0.0
H1284 H 0.23354 0.27341 0.01443 0.0
H1285 H 0.26505 0.28606 0.03144 0.0
H1286 H 0.26094 0.25704 0.06524 0.0
H1287 H 0.23655 0.25131 0.02809 0.0
C1288 C 0.26225 0.27508 0.99466 0.0
C1289 C 0.26626 0.27086 0.98132 0.0
C1290 C 0.25102 0.26849 1.00151 0.0
C1291 C 0.24389 0.25746 0.99491 0.0
C1292 C 0.24782 0.25307 0.98163 0.0
C1293 C 0.25913 0.25969 0.97507 0.0
C1294 C 0.24504 0.27486 0.01446 0.0
C1295 C 0.25076 0.2689 0.0279 0.0
C1296 C 0.26078 0.27647 0.03564 0.0
C1297 C 0.26434 0.27238 0.04925 0.0
C1298 C 0.25833 0.26018 0.05473 0.0
C1299 C 0.24828 0.2525 0.04727 0.0
C1300 C 0.24461 0.25689 0.03379 0.0
H1301 H 0.76475 0.23621 0.02537 0.0
H1302 H 0.73482 0.26886 0.0256 0.0
H1303 H 0.76212 0.26305 0.06062 0.0
H1304 H 0.74421 0.23528 0.01013 0.0
H1305 H 0.73185 0.24877 0.01018 0.0
H1306 H 0.76574 0.23749 0.99628 0.0
H1307 H 0.76341 0.2657 0.9616 0.0
H1308 H 0.73467 0.26909 0.99524 0.0
C1309 C 0.76037 0.24517 0.03032 0.0
C1310 C 0.76506 0.24908 0.04361 0.0
C1311 C 0.74957 0.25236 0.02366 0.0
C1312 C 0.74347 0.2636 0.03046 0.0
C1313 C 0.74808 0.26764 0.04376 0.0
C1314 C 0.759 0.26044 0.0501 0.0
C1315 C 0.7432 0.24675 0.01038 0.0
C1316 C 0.74978 0.2529 0.99745 0.0
C1317 C 0.76118 0.24642 0.99126 0.0
C1318 C 0.76627 0.25105 0.97833 0.0
C1319 C 0.76002 0.26247 0.97185 0.0
C1320 C 0.74865 0.26903 0.97783 0.0
C1321 C 0.74365 0.26427 0.99071 0.0
H1322 H 0.73558 0.75195 0.03107 0.0
H1323 H 0.76774 0.78354 0.02915 0.0
H1324 H 0.76238 0.75906 0.06624 0.0
H1325 H 0.73392 0.77137 0.0147 0.0
H1326 H 0.74687 0.78467 0.01423 0.0
H1327 H 0.73544 0.75109 0.99999 0.0
H1328 H 0.76258 0.75533 0.96498 0.0
H1329 H 0.76795 0.78233 1.00002 0.0
C1330 C 0.74457 0.75713 0.03566 0.0
C1331 C 0.74837 0.75404 0.04945 0.0
C1332 C 0.75153 0.76778 0.02822 0.0
C1333 C 0.76267 0.77503 0.03463 0.0
C1334 C 0.76675 0.77187 0.04834 0.0
C1335 C 0.75963 0.76125 0.05552 0.0
C1336 C 0.74538 0.77322 0.01476 0.0
C1337 C 0.75147 0.76695 1.00181 0.0
C1338 C 0.74449 0.75585 0.99516 0.0
C1339 C 0.74856 0.75151 0.98191 0.0
C1340 C 0.75995 0.75813 0.97551 0.0
C1341 C 0.76703 0.76929 0.98187 0.0
C1342 C 0.76284 0.77349 0.99516 0.0
H1343 H 0.26557 0.73744 0.02425 0.0
H1344 H 0.23498 0.76947 0.02436 0.0
H1345 H 0.26237 0.7644 0.05938 0.0
H1346 H 0.24441 0.73574 0.00967 0.0
H1347 H 0.23219 0.74932 0.00927 0.0
H1348 H 0.26651 0.73774 0.99628 0.0
H1349 H 0.26357 0.76318 0.95962 0.0
H1350 H 0.23429 0.76802 0.99263 0.0
C1351 C 0.26103 0.74634 0.02917 0.0
C1352 C 0.26567 0.7504 0.04246 0.0
C1353 C 0.25003 0.75324 0.02251 0.0
C1354 C 0.24376 0.76442 0.02922 0.0
C1355 C 0.24833 0.76866 0.04247 0.0
C1356 C 0.25937 0.76168 0.04886 0.0
C1357 C 0.24352 0.74722 0.00947 0.0
C1358 C 0.25007 0.75272 0.99624 0.0
C1359 C 0.26168 0.74613 0.99059 0.0
C1360 C 0.26666 0.7499 0.97737 0.0
C1361 C 0.25998 0.76045 0.96994 0.0
C1362 C 0.24823 0.76698 0.97523 0.0
C1363 C 0.24355 0.7633 0.98857 0.0
H1364 H 0.02457 0.2355 0.25342 0.0
H1365 H 0.02464 0.26691 0.28493 0.0
H1366 H 0.06005 0.26272 0.25844 0.0
H1367 H 0.00931 0.2333 0.27358 0.0
H1368 H 0.00992 0.24582 0.28702 0.0
H1369 H 0.99477 0.2368 0.25269 0.0
H1370 H 0.9596 0.26285 0.25881 0.0
H1371 H 0.99489 0.26597 0.28631 0.0
C1372 C 0.02956 0.24434 0.25839 0.0
C1373 C 0.04293 0.2487 0.25419 0.0
C1374 C 0.02284 0.25094 0.26943 0.0
C1375 C 0.02959 0.26209 0.27617 0.0
C1376 C 0.043 0.26651 0.27218 0.0
C1377 C 0.04945 0.25985 0.26108 0.0
C1378 C 0.00969 0.24466 0.27553 0.0
C1379 C 0.99652 0.25101 0.26984 0.0
C1380 C 0.98985 0.24515 0.25817 0.0
C1381 C 0.97654 0.24946 0.25404 0.0
C1382 C 0.97015 0.26003 0.26149 0.0
C1383 C 0.97662 0.26611 0.27312 0.0
C1384 C 0.98991 0.26163 0.27716 0.0
H1385 H 0.78268 0.02429 0.25654 0.0
H1386 H 0.75223 0.02758 0.28885 0.0
H1387 H 0.75882 0.06128 0.26012 0.0
H1388 H 0.78414 0.01066 0.27871 0.0
H1389 H 0.77019 0.01055 0.29067 0.0
H1390 H 0.7834 0.99602 0.258 0.0
H1391 H 0.75535 0.96095 0.26032 0.0
H1392 H 0.74935 0.996 0.28675 0.0
C1393 C 0.77435 0.02988 0.26136 0.0
C1394 C 0.7712 0.04329 0.25665 0.0
C1395 C 0.76733 0.02399 0.27281 0.0
C1396 C 0.7571 0.03172 0.27956 0.0
C1397 C 0.75411 0.04528 0.27514 0.0
C1398 C 0.76091 0.05075 0.26343 0.0
C1399 C 0.77259 0.01076 0.27938 0.0
C1400 C 0.76673 0.99771 0.27275 0.0
C1401 C 0.77409 0.9911 0.26215 0.0
C1402 C 0.76994 0.97787 0.25746 0.0
C1403 C 0.75813 0.97145 0.2633 0.0
C1404 C 0.7506 0.97785 0.27385 0.0
C1405 C 0.75487 0.99109 0.27839 0.0
H1406 H 0.99482 0.73561 0.27149 0.0
H1407 H 0.99154 0.76621 0.23898 0.0
H1408 H 0.95847 0.76067 0.26841 0.0
H1409 H 0.00823 0.73403 0.24968 0.0
H1410 H 0.00779 0.7475 0.23706 0.0
H1411 H 0.02336 0.73589 0.27041 0.0
H1412 H 0.05916 0.76258 0.26503 0.0
H1413 H 0.02318 0.76775 0.23892 0.0
C1414 C 0.98933 0.74413 0.26669 0.0
C1415 C 0.97611 0.7476 0.27156 0.0
C1416 C 0.99515 0.75105 0.25513 0.0
C1417 C 0.98748 0.76148 0.24838 0.0
C1418 C 0.97411 0.76487 0.25296 0.0
C1419 C 0.9688 0.75821 0.26486 0.0
C1420 C 0.00811 0.74551 0.24845 0.0
C1421 C 0.02152 0.75152 0.25439 0.0
C1422 C 0.02835 0.74474 0.26543 0.0
C1423 C 0.04191 0.7488 0.26947 0.0
C1424 C 0.04843 0.75997 0.26254 0.0
C1425 C 0.04184 0.76689 0.2515 0.0
C1426 C 0.02826 0.76273 0.24764 0.0
H1427 H 0.23527 0.99569 0.2546 0.0
H1428 H 0.26679 0.99257 0.28641 0.0
H1429 H 0.26052 0.95951 0.25723 0.0
H1430 H 0.23404 0.00895 0.27655 0.0
H1431 H 0.2479 0.00868 0.2888 0.0
H1432 H 0.23532 0.02389 0.25556 0.0
H1433 H 0.26155 0.06005 0.26043 0.0
H1434 H 0.26773 0.02444 0.28662 0.0
C1435 C 0.24392 0.99025 0.25923 0.0
C1436 C 0.24735 0.97708 0.25429 0.0
C1437 C 0.2511 0.99608 0.27065 0.0
C1438 C 0.26177 0.9885 0.27715 0.0
C1439 C 0.26509 0.97517 0.27249 0.0
C1440 C 0.25812 0.96982 0.26079 0.0
C1441 C 0.24558 0.00896 0.27746 0.0
C1442 C 0.25128 0.0224 0.27137 0.0
C1443 C 0.24419 0.02904 0.26039 0.0
C1444 C 0.24798 0.0426 0.25623 0.0
C1445 C 0.25915 0.04932 0.263 0.0
C1446 C 0.26635 0.04294 0.27398 0.0
C1447 C 0.26249 0.02936 0.27794 0.0
H1448 H 0.9932 0.76538 0.7859 0.0
H1449 H 0.99308 0.73787 0.75091 0.0
H1450 H 0.95827 0.76424 0.75789 0.0
H1451 H 0.00816 0.74519 0.78575 0.0
H1452 H 1.00737 0.73322 0.77182 0.0
H1453 H 0.02272 0.76666 0.78401 0.0
H1454 H 0.05851 0.76265 0.75796 0.0
H1455 H 0.02321 0.73535 0.75239 0.0
C1456 C 0.98833 0.7616 0.77645 0.0
C1457 C 0.97517 0.76646 0.77248 0.0
C1458 C 0.99493 0.75136 0.76862 0.0
C1459 C 0.98823 0.74605 0.7567 0.0
C1460 C 0.97501 0.75071 0.75267 0.0
C1461 C 0.96873 0.76107 0.76051 0.0
C1462 C 0.00786 0.74448 0.77422 0.0
C1463 C 0.02124 0.75066 0.76851 0.0
C1464 C 0.02783 0.76187 0.77532 0.0
C1465 C 0.04128 0.76635 0.77152 0.0
C1466 C 0.04788 0.75975 0.76048 0.0
C1467 C 0.0415 0.74861 0.75347 0.0
C1468 C 0.02809 0.74418 0.75748 0.0
H1469 H 0.24991 0.99643 0.78528 0.0
H1470 H 0.28426 0.99668 0.7569 0.0
H1471 H 0.25605 0.96173 0.75837 0.0
H1472 H 0.27121 0.01072 0.78959 0.0
H1473 H 0.28466 0.01174 0.77708 0.0
H1474 H 0.25035 0.02492 0.78735 0.0
H1475 H 0.25491 0.06131 0.76174 0.0
H1476 H 0.28338 0.0278 0.75753 0.0
C1477 C 0.25547 0.99162 0.7769 0.0
C1478 C 0.25124 0.97842 0.77219 0.0
C1479 C 0.26732 0.99835 0.77136 0.0
C1480 C 0.27486 0.99179 0.76087 0.0
C1481 C 0.27071 0.97864 0.75597 0.0
C1482 C 0.25882 0.97217 0.76158 0.0
C1483 C 0.27316 0.01128 0.77822 0.0
C1484 C 0.26707 0.02453 0.77251 0.0
C1485 C 0.25548 0.03043 0.77894 0.0
C1486 C 0.25102 0.04373 0.7751 0.0
C1487 C 0.2581 0.05093 0.76452 0.0
C1488 C 0.26989 0.04543 0.75821 0.0
C1489 C 0.27408 0.03202 0.76201 0.0
H1490 H 0.99478 0.28494 0.75486 0.0
H1491 H 0.99449 0.25282 0.78611 0.0
H1492 H 0.95894 0.25814 0.75944 0.0
H1493 H 0.01039 0.28636 0.77511 0.0
H1494 H 0.01003 0.27331 0.78821 0.0
H1495 H 0.0246 0.28382 0.75417 0.0
H1496 H 0.0585 0.25561 0.75802 0.0
H1497 H 0.02425 0.25259 0.78634 0.0
C1498 C 0.98968 0.2761 0.75976 0.0
C1499 C 0.9762 0.27205 0.75547 0.0
C1500 C 0.9964 0.26915 0.77077 0.0
C1501 C 0.98952 0.25796 0.77741 0.0
C1502 C 0.97603 0.2538 0.77326 0.0
C1503 C 0.96958 0.26084 0.76222 0.0
C1504 C 0.00987 0.27494 0.77677 0.0
C1505 C 0.02269 0.26857 0.77061 0.0
C1506 C 0.02926 0.27489 0.75911 0.0
C1507 C 0.04214 0.27017 0.75442 0.0
C1508 C 0.04825 0.25884 0.76116 0.0
C1509 C 0.04195 0.25242 0.77269 0.0
C1510 C 0.02907 0.25726 0.77728 0.0
H1511 H 0.73629 0.99604 0.75534 0.0
H1512 H 0.76708 0.99258 0.78781 0.0
H1513 H 0.76075 0.95934 0.75889 0.0
H1514 H 0.73467 0.00914 0.77745 0.0
H1515 H 0.74843 0.00892 0.7898 0.0
H1516 H 0.73606 0.024 0.75645 0.0
H1517 H 0.76216 0.06023 0.76145 0.0
H1518 H 0.76831 0.02465 0.78768 0.0
C1519 C 0.74472 0.99044 0.76019 0.0
C1520 C 0.74797 0.97714 0.75543 0.0
C1521 C 0.75173 0.99622 0.77174 0.0
C1522 C 0.76217 0.98852 0.77849 0.0
C1523 C 0.76535 0.97511 0.774 0.0
C1524 C 0.75847 0.96975 0.76225 0.0
C1525 C 0.7462 0.00915 0.77845 0.0
C1526 C 0.75195 0.02256 0.77233 0.0
C1527 C 0.7449 0.02917 0.76132 0.0
C1528 C 0.74866 0.04274 0.75718 0.0
C1529 C 0.75978 0.04949 0.764 0.0
C1530 C 0.76695 0.04314 0.77501 0.0
C1531 C 0.76311 0.02954 0.77896 0.0
H1532 H 0.25134 0.73691 0.49828 0.0
H1533 H 0.28341 0.76861 0.49798 0.0
H1534 H 0.25517 0.76468 0.46341 0.0
H1535 H 0.27308 0.73453 0.51204 0.0
H1536 H 0.28564 0.74818 0.51268 0.0
H1537 H 0.25282 0.73419 0.52742 0.0
H1538 H 0.25826 0.75777 0.56471 0.0
H1539 H 0.28353 0.76728 0.52912 0.0
C1540 C 0.25618 0.74592 0.49342 0.0
C1541 C 0.2515 0.75037 0.48027 0.0
C1542 C 0.2676 0.75255 0.49998 0.0
C1543 C 0.27429 0.76381 0.49325 0.0
C1544 C 0.26976 0.76836 0.48008 0.0
C1545 C 0.25825 0.7617 0.47385 0.0
C1546 C 0.27424 0.746 0.51268 0.0
C1547 C 0.26831 0.75073 0.52637 0.0
C1548 C 0.25763 0.74287 0.53282 0.0
C1549 C 0.2541 0.74537 0.5467 0.0
C1550 C 0.26092 0.75604 0.55394 0.0
C1551 C 0.27154 0.76403 0.54776 0.0
C1552 C 0.27498 0.76154 0.53383 0.0
H1553 H 0.75257 0.78813 0.52917 0.0
H1554 H 0.78037 0.75383 0.52586 0.0
H1555 H 0.75632 0.75905 0.56285 0.0
H1556 H 0.77068 0.78888 0.51222 0.0
H1557 H 0.78412 0.77653 0.5129 0.0
H1558 H 0.75183 0.78667 0.49558 0.0
H1559 H 0.7577 0.75814 0.46215 0.0
H1560 H 0.78253 0.75486 0.49924 0.0
C1561 C 0.75666 0.77855 0.53331 0.0
C1562 C 0.75306 0.77427 0.54682 0.0
C1563 C 0.76652 0.7712 0.52564 0.0
C1564 C 0.77243 0.75923 0.5315 0.0
C1565 C 0.76869 0.75467 0.54488 0.0
C1566 C 0.75889 0.76219 0.55233 0.0
C1567 C 0.77261 0.77754 0.51256 0.0
C1568 C 0.76719 0.77097 0.4993 0.0
C1569 C 0.75665 0.77749 0.49153 0.0
C1570 C 0.75334 0.77305 0.478 0.0
C1571 C 0.76006 0.76146 0.47266 0.0
C1572 C 0.77056 0.75481 0.48021 0.0
C1573 C 0.77404 0.75958 0.49357 0.0
H1574 H 0.78268 0.26954 0.52792 0.0
H1575 H 0.75404 0.2348 0.53069 0.0
H1576 H 0.75879 0.26274 0.56497 0.0
H1577 H 0.78568 0.24803 0.514 0.0
H1578 H 0.77267 0.23476 0.51393 0.0
H1579 H 0.78372 0.26849 0.49903 0.0
H1580 H 0.75574 0.26418 0.46431 0.0
H1581 H 0.75152 0.23691 0.49955 0.0
C1582 C 0.77466 0.26383 0.5335 0.0
C1583 C 0.77112 0.26788 0.54701 0.0
C1584 C 0.76839 0.25201 0.52741 0.0
C1585 C 0.75841 0.24428 0.53501 0.0
C1586 C 0.75502 0.24805 0.54864 0.0
C1587 C 0.7612 0.26 0.55436 0.0
C1588 C 0.77422 0.24621 0.51413 0.0
C1589 C 0.76797 0.25237 0.50103 0.0
C1590 C 0.77467 0.26359 0.49426 0.0
C1591 C 0.77018 0.26804 0.48105 0.0
C1592 C 0.75874 0.26128 0.47479 0.0
C1593 C 0.75192 0.25005 0.4813 0.0
C1594 C 0.75649 0.24576 0.49454 0.0
H1595 H 0.25391 0.28803 0.52697 0.0
H1596 H 0.28329 0.2549 0.52654 0.0
H1597 H 0.25612 0.25947 0.56133 0.0
H1598 H 0.27476 0.28949 0.5124 0.0
H1599 H 0.28697 0.2759 0.5124 0.0
H1600 H 0.253 0.28772 0.4983 0.0
H1601 H 0.25656 0.26309 0.46158 0.0
H1602 H 0.2854 0.25769 0.49544 0.0
C1603 C 0.25812 0.27877 0.53169 0.0
C1604 C 0.25331 0.2743 0.54478 0.0
C1605 C 0.26887 0.27175 0.52498 0.0
C1606 C 0.2747 0.26006 0.53143 0.0
C1607 C 0.27001 0.25546 0.54449 0.0
C1608 C 0.25922 0.26254 0.55094 0.0
C1609 C 0.27564 0.27801 0.5122 0.0
C1610 C 0.26939 0.27271 0.49873 0.0
C1611 C 0.25789 0.2794 0.49276 0.0
C1612 C 0.25322 0.27595 0.47934 0.0
C1613 C 0.25997 0.26553 0.47204 0.0
C1614 C 0.27172 0.25898 0.4776 0.0
C1615 C 0.27614 0.26237 0.49115 0.0
H1616 H 0.78471 0.52864 0.75539 0.0
H1617 H 0.75194 0.52585 0.78554 0.0
H1618 H 0.75699 0.56259 0.76048 0.0
H1619 H 0.78622 0.51264 0.77504 0.0
H1620 H 0.77295 0.5117 0.78774 0.0
H1621 H 0.78572 0.49736 0.75515 0.0
H1622 H 0.75772 0.46228 0.75743 0.0
H1623 H 0.75159 0.49739 0.78381 0.0
C1624 C 0.77549 0.53289 0.76002 0.0
C1625 C 0.77147 0.5464 0.75648 0.0
C1626 C 0.76846 0.52536 0.77049 0.0
C1627 C 0.75705 0.53136 0.77712 0.0
C1628 C 0.75273 0.54478 0.77347 0.0
C1629 C 0.7599 0.55206 0.763 0.0
C1630 C 0.77473 0.51225 0.77634 0.0
C1631 C 0.76895 0.49912 0.76981 0.0
C1632 C 0.77639 0.49247 0.75928 0.0
C1633 C 0.77228 0.47922 0.75464 0.0
C1634 C 0.76045 0.4728 0.76044 0.0
C1635 C 0.75292 0.47919 0.77098 0.0
C1636 C 0.75712 0.49247 0.77547 0.0
H1637 H 0.25139 0.52402 0.74053 0.0
H1638 H 0.28249 0.52422 0.77293 0.0
H1639 H 0.25414 0.55796 0.76911 0.0
H1640 H 0.27248 0.5102 0.73855 0.0
H1641 H 0.28538 0.51046 0.75183 0.0
H1642 H 0.25078 0.49557 0.7413 0.0
H1643 H 0.25785 0.45788 0.76412 0.0
H1644 H 0.28554 0.49282 0.76963 0.0
C1645 C 0.25594 0.52872 0.74973 0.0
C1646 C 0.25104 0.54153 0.75435 0.0
C1647 C 0.26718 0.52228 0.7565 0.0
C1648 C 0.2735 0.52883 0.76802 0.0
C1649 C 0.26874 0.54167 0.77273 0.0
C1650 C 0.25739 0.54776 0.76596 0.0
C1651 C 0.27395 0.50985 0.75002 0.0
C1652 C 0.26839 0.49604 0.75537 0.0
C1653 C 0.25655 0.48986 0.7491 0.0
C1654 C 0.25259 0.47611 0.75231 0.0
C1655 C 0.26054 0.46864 0.76197 0.0
C1656 C 0.27244 0.4745 0.76822 0.0
C1657 C 0.27612 0.48835 0.76516 0.0
H1658 H 0.28445 0.52516 0.25483 0.0
H1659 H 0.2546 0.52801 0.2877 0.0
H1660 H 0.25931 0.56131 0.25812 0.0
H1661 H 0.28677 0.51187 0.27692 0.0
H1662 H 0.2733 0.51173 0.28941 0.0
H1663 H 0.2866 0.49542 0.25805 0.0
H1664 H 0.25816 0.46086 0.2618 0.0
H1665 H 0.25161 0.49772 0.28555 0.0
C1666 C 0.27602 0.53057 0.25971 0.0
C1667 C 0.27239 0.54381 0.25487 0.0
C1668 C 0.26942 0.52465 0.27138 0.0
C1669 C 0.25909 0.53217 0.27823 0.0
C1670 C 0.25551 0.54553 0.27364 0.0
C1671 C 0.26189 0.55098 0.26166 0.0
C1672 C 0.27526 0.51171 0.27804 0.0
C1673 C 0.2694 0.49836 0.27201 0.0
C1674 C 0.27704 0.49098 0.26213 0.0
C1675 C 0.27306 0.47738 0.25851 0.0
C1676 C 0.26101 0.47147 0.26433 0.0
C1677 C 0.25312 0.47869 0.27403 0.0
C1678 C 0.25734 0.49221 0.27774 0.0
H1679 H 0.75087 0.52386 0.24058 0.0
H1680 H 0.78258 0.5238 0.27236 0.0
H1681 H 0.75502 0.5582 0.26856 0.0
H1682 H 0.77137 0.50954 0.23826 0.0
H1683 H 0.78495 0.51016 0.25082 0.0
H1684 H 0.75257 0.49251 0.23997 0.0
H1685 H 0.75959 0.45799 0.26735 0.0
H1686 H 0.78406 0.49539 0.27193 0.0
C1687 C 0.75574 0.52863 0.24957 0.0
C1688 C 0.75121 0.54163 0.25411 0.0
C1689 C 0.76701 0.52207 0.25617 0.0
C1690 C 0.77365 0.52859 0.26753 0.0
C1691 C 0.76925 0.54158 0.27219 0.0
C1692 C 0.75797 0.54788 0.26549 0.0
C1693 C 0.77344 0.50948 0.24964 0.0
C1694 C 0.76836 0.4958 0.25575 0.0
C1695 C 0.75774 0.48812 0.24897 0.0
C1696 C 0.75468 0.47437 0.25298 0.0
C1697 C 0.76181 0.46864 0.26436 0.0
C1698 C 0.77241 0.47606 0.27129 0.0
C1699 C 0.77558 0.48971 0.26697 0.0
H1700 H 0.52466 0.23599 0.75452 0.0
H1701 H 0.52456 0.2674 0.78603 0.0
H1702 H 0.55965 0.26388 0.75897 0.0
H1703 H 0.50954 0.23358 0.77463 0.0
H1704 H 0.51042 0.24582 0.7883 0.0
H1705 H 0.49484 0.23787 0.75373 0.0
H1706 H 0.45895 0.26241 0.762 0.0
H1707 H 0.49449 0.26504 0.78906 0.0
C1708 C 0.5295 0.24496 0.75938 0.0
C1709 C 0.54272 0.24958 0.755 0.0
C1710 C 0.52281 0.25144 0.77051 0.0
C1711 C 0.52947 0.2627 0.77718 0.0
C1712 C 0.54275 0.26735 0.77302 0.0
C1713 C 0.54913 0.26085 0.76178 0.0
C1714 C 0.50988 0.2449 0.7768 0.0
C1715 C 0.49649 0.25121 0.77161 0.0
C1716 C 0.48978 0.24576 0.75974 0.0
C1717 C 0.47625 0.24984 0.75609 0.0
C1718 C 0.46961 0.25967 0.7643 0.0
C1719 C 0.47614 0.26524 0.77609 0.0
C1720 C 0.48966 0.26116 0.77963 0.0
H1721 H 0.49571 0.78472 0.75572 0.0
H1722 H 0.49308 0.75418 0.78848 0.0
H1723 H 0.45849 0.75997 0.76069 0.0
H1724 H 0.51061 0.7863 0.77691 0.0
H1725 H 0.51025 0.77292 0.78967 0.0
H1726 H 0.5243 0.78402 0.75553 0.0
H1727 H 0.55811 0.75563 0.75828 0.0
H1728 H 0.52436 0.75227 0.78718 0.0
C1729 C 0.4901 0.77636 0.7609 0.0
C1730 C 0.47648 0.77287 0.75657 0.0
C1731 C 0.49628 0.76949 0.77227 0.0
C1732 C 0.48864 0.75905 0.77934 0.0
C1733 C 0.4749 0.75571 0.77533 0.0
C1734 C 0.46911 0.76244 0.76375 0.0
C1735 C 0.50994 0.77484 0.77827 0.0
C1736 C 0.52258 0.76849 0.77172 0.0
C1737 C 0.52898 0.77498 0.76022 0.0
C1738 C 0.54174 0.77027 0.75522 0.0
C1739 C 0.54794 0.75882 0.76167 0.0
C1740 C 0.54183 0.75227 0.77323 0.0
C1741 C 0.52903 0.75706 0.7781 0.0
H1742 H 0.52595 0.73244 0.25475 0.0
H1743 H 0.52304 0.76491 0.285 0.0
H1744 H 0.56034 0.76069 0.26124 0.0
H1745 H 0.50864 0.73086 0.2726 0.0
H1746 H 0.50925 0.7425 0.28678 0.0
H1747 H 0.49275 0.73439 0.25333 0.0
H1748 H 0.45968 0.76292 0.25995 0.0
H1749 H 0.49589 0.76425 0.28631 0.0
C1750 C 0.53029 0.74165 0.25963 0.0
C1751 C 0.54401 0.74591 0.25658 0.0
C1752 C 0.5226 0.7485 0.26986 0.0
C1753 C 0.52868 0.75994 0.27677 0.0
C1754 C 0.54229 0.76448 0.27364 0.0
C1755 C 0.54971 0.75751 0.2634 0.0
C1756 C 0.50919 0.74207 0.27524 0.0
C1757 C 0.49619 0.74906 0.2699 0.0
C1758 C 0.48867 0.74327 0.25867 0.0
C1759 C 0.47536 0.74806 0.25519 0.0
C1760 C 0.46999 0.75928 0.26251 0.0
C1761 C 0.47727 0.76522 0.27372 0.0
C1762 C 0.49042 0.76008 0.27735 0.0
H1763 H 0.49556 0.28353 0.25627 0.0
H1764 H 0.49557 0.25131 0.28742 0.0
H1765 H 0.46011 0.25619 0.26052 0.0
H1766 H 0.5111 0.28505 0.27658 0.0
H1767 H 0.51093 0.2719 0.28958 0.0
H1768 H 0.52513 0.28269 0.25542 0.0
H1769 H 0.55967 0.2552 0.25924 0.0
H1770 H 0.52557 0.25152 0.28764 0.0
C1771 C 0.49059 0.27458 0.2611 0.0
C1772 C 0.4772 0.27034 0.25673 0.0
C1773 C 0.49736 0.26767 0.2721 0.0
C1774 C 0.49058 0.25639 0.27869 0.0
C1775 C 0.47716 0.25207 0.27447 0.0
C1776 C 0.4707 0.25902 0.26339 0.0
C1777 C 0.51074 0.27362 0.27815 0.0
C1778 C 0.52366 0.26749 0.27192 0.0
C1779 C 0.53004 0.2739 0.26037 0.0
C1780 C 0.54301 0.26945 0.25563 0.0
C1781 C 0.54937 0.25825 0.26239 0.0
C1782 C 0.5432 0.2517 0.2739 0.0
C1783 C 0.53026 0.2563 0.27856 0.0
C1784 C 0.21075 0.21329 0.10797 0.0
C1785 C 0.20635 0.19952 0.10593 0.0
C1786 C 0.2169 0.22109 0.09721 0.0
C1787 C 0.2187 0.215 0.08401 0.0
C1788 C 0.214 0.20121 0.08176 0.0
C1789 C 0.20791 0.19363 0.09275 0.0
C1790 C 0.22182 0.23574 0.10008 0.0
C1791 C 0.21562 0.19438 0.06783 0.0
C1792 C 0.22601 0.24082 0.05476 0.0
C1793 C 0.2406 0.24107 0.05454 0.0
C1794 C 0.21867 0.23187 0.0638 0.0
C1795 C 0.22609 0.22296 0.07283 0.0
C1796 C 0.24077 0.22256 0.072 0.0
C1797 C 0.24782 0.23159 0.06287 0.0
C1798 C 0.20302 0.23256 0.06427 0.0
C1799 C 0.24911 0.21316 0.08135 0.0
H1800 H 0.20977 0.21788 0.11815 0.0
H1801 H 0.20438 0.18305 0.09101 0.0
H1802 H 0.23326 0.23654 0.09882 0.0
H1803 H 0.21709 0.243 0.0925 0.0
H1804 H 0.21919 0.23913 0.11073 0.0
H1805 H 0.21076 0.18386 0.06755 0.0
H1806 H 0.21085 0.20082 0.05955 0.0
H1807 H 0.22682 0.19352 0.06538 0.0
H1808 H 0.22034 0.2482 0.04846 0.0
H1809 H 0.25909 0.23164 0.06264 0.0
H1810 H 0.19986 0.23746 0.07412 0.0
H1811 H 0.1983 0.222 0.06407 0.0
H1812 H 0.19872 0.23867 0.05547 0.0
H1813 H 0.24821 0.21661 0.09227 0.0
H1814 H 0.26029 0.21316 0.07856 0.0
H1815 H 0.24496 0.20238 0.08084 0.0
C1816 C 0.7973 0.20954 0.10679 0.0
C1817 C 0.80943 0.20199 0.10473 0.0
C1818 C 0.79108 0.21692 0.09585 0.0
C1819 C 0.79718 0.21686 0.08251 0.0
C1820 C 0.80949 0.20935 0.08038 0.0
C1821 C 0.81543 0.20193 0.0915 0.0
C1822 C 0.77789 0.22467 0.09856 0.0
C1823 C 0.81639 0.20917 0.06636 0.0
C1824 C 0.77248 0.2261 0.05303 0.0
C1825 C 0.77493 0.24041 0.05166 0.0
C1826 C 0.78012 0.21815 0.06258 0.0
C1827 C 0.79053 0.22464 0.07087 0.0
C1828 C 0.79363 0.23892 0.0689 0.0
C1829 C 0.78574 0.24664 0.05938 0.0
C1830 C 0.77643 0.20298 0.0644 0.0
C1831 C 0.80477 0.24621 0.07738 0.0
H1832 H 0.79251 0.20947 0.11694 0.0
H1833 H 0.82486 0.1962 0.08988 0.0
H1834 H 0.77948 0.23584 0.09616 0.0
H1835 H 0.76943 0.22076 0.09165 0.0
H1836 H 0.77443 0.22362 0.1095 0.0
H1837 H 0.82602 0.20297 0.06644 0.0
H1838 H 0.80911 0.20479 0.05849 0.0
H1839 H 0.81906 0.21991 0.06302 0.0
H1840 H 0.76403 0.22126 0.04722 0.0
H1841 H 0.78772 0.25769 0.05828 0.0
H1842 H 0.77154 0.20131 0.07469 0.0
H1843 H 0.78592 0.19663 0.06416 0.0
H1844 H 0.76909 0.1992 0.05625 0.0
H1845 H 0.80138 0.24687 0.08834 0.0
H1846 H 0.807 0.25687 0.07349 0.0
H1847 H 0.81452 0.24025 0.07729 0.0
C1848 C 0.81719 0.81929 0.09729 0.0
C1849 C 0.8094 0.82096 0.10941 0.0
C1850 C 0.81187 0.81157 0.08602 0.0
C1851 C 0.79848 0.80529 0.08695 0.0
C1852 C 0.79066 0.80681 0.09924 0.0
C1853 C 0.7962 0.81462 0.11027 0.0
C1854 C 0.82049 0.81024 0.07309 0.0
C1855 C 0.77641 0.80018 0.10074 0.0
C1856 C 0.77607 0.79514 0.05584 0.0
C1857 C 0.77705 0.78065 0.05609 0.0
C1858 C 0.7837 0.80341 0.06526 0.0
C1859 C 0.7925 0.79704 0.0752 0.0
C1860 C 0.79428 0.78252 0.07483 0.0
C1861 C 0.78657 0.77452 0.06527 0.0
C1862 C 0.78158 0.81886 0.0652 0.0
C1863 C 0.8036 0.77529 0.08516 0.0
H1864 H 0.82735 0.82426 0.0965 0.0
H1865 H 0.79021 0.81566 0.11968 0.0
H1866 H 0.82216 0.79914 0.07081 0.0
H1867 H 0.81486 0.8147 0.06407 0.0
H1868 H 0.83077 0.81557 0.07408 0.0
H1869 H 0.7717 0.80231 0.11099 0.0
H1870 H 0.76936 0.80408 0.09249 0.0
H1871 H 0.77706 0.7888 0.09947 0.0
H1872 H 0.76866 0.79997 0.04888 0.0
H1873 H 0.78753 0.76334 0.0654 0.0
H1874 H 0.79171 0.82449 0.06585 0.0
H1875 H 0.77547 0.82174 0.07444 0.0
H1876 H 0.77594 0.8224 0.05575 0.0
H1877 H 0.81388 0.78063 0.08581 0.0
H1878 H 0.80518 0.76427 0.08244 0.0
H1879 H 0.79887 0.77567 0.09562 0.0
C1880 C 0.21387 0.80432 0.10606 0.0
C1881 C 0.20831 0.81754 0.10413 0.0
C1882 C 0.21965 0.79708 0.09496 0.0
C1883 C 0.21994 0.80319 0.08155 0.0
C1884 C 0.21411 0.81643 0.07945 0.0
C1885 C 0.20835 0.82343 0.09075 0.0
C1886 C 0.22565 0.78295 0.09765 0.0
C1887 C 0.21427 0.82332 0.06535 0.0
C1888 C 0.24808 0.78916 0.0583 0.0
C1889 C 0.2407 0.77915 0.05058 0.0
C1890 C 0.24133 0.79755 0.06792 0.0
C1891 C 0.22682 0.79586 0.06993 0.0
C1892 C 0.21919 0.78631 0.06161 0.0
C1893 C 0.22622 0.77809 0.05201 0.0
C1894 C 0.24985 0.8077 0.07644 0.0
C1895 C 0.20373 0.78419 0.06341 0.0
H1896 H 0.21369 0.7996 0.1163 0.0
H1897 H 0.2042 0.83369 0.08919 0.0
H1898 H 0.22069 0.7752 0.09065 0.0
H1899 H 0.23694 0.78317 0.09538 0.0
H1900 H 0.22418 0.77944 0.10856 0.0
H1901 H 0.2087 0.83331 0.06527 0.0
H1902 H 0.22517 0.82532 0.0621 0.0
H1903 H 0.20941 0.81638 0.0575 0.0
H1904 H 0.25926 0.7901 0.05715 0.0
H1905 H 0.22047 0.77027 0.04619 0.0
H1906 H 0.25008 0.80419 0.08744 0.0
H1907 H 0.24506 0.81807 0.07619 0.0
H1908 H 0.26073 0.80872 0.07272 0.0
H1909 H 0.20169 0.77923 0.07363 0.0
H1910 H 0.19909 0.77753 0.05517 0.0
H1911 H 0.1984 0.79429 0.06331 0.0
C1912 C 0.22282 0.82309 0.92033 0.0
C1913 C 0.20865 0.82194 0.9168 0.0
C1914 C 0.22862 0.81486 0.93088 0.0
C1915 C 0.22005 0.8053 0.93824 0.0
C1916 C 0.20564 0.80452 0.93518 0.0
C1917 C 0.20012 0.8128 0.92447 0.0
C1918 C 0.24404 0.816 0.93378 0.0
C1919 C 0.19613 0.79454 0.94283 0.0
C1920 C 0.23795 0.7733 0.95214 0.0
C1921 C 0.24028 0.77664 0.96614 0.0
C1922 C 0.2312 0.78244 0.94308 0.0
C1923 C 0.22645 0.79524 0.94811 0.0
C1924 C 0.22831 0.79851 0.96234 0.0
C1925 C 0.23522 0.78917 0.9712 0.0
C1926 C 0.22942 0.77849 0.92801 0.0
C1927 C 0.22327 0.812 0.96812 0.0
H1928 H 0.22945 0.83034 0.91471 0.0
H1929 H 0.1892 0.81174 0.9218 0.0
H1930 H 0.24599 0.8177 0.945 0.0
H1931 H 0.24907 0.80615 0.93097 0.0
H1932 H 0.2491 0.82458 0.92783 0.0
H1933 H 0.185 0.79627 0.94033 0.0
H1934 H 0.19867 0.78375 0.94002 0.0
H1935 H 0.19768 0.79552 0.95421 0.0
H1936 H 0.24148 0.76348 0.94822 0.0
H1937 H 0.23697 0.79181 0.982 0.0
H1938 H 0.235 0.78612 0.92132 0.0
H1939 H 0.21827 0.7787 0.92501 0.0
H1940 H 0.23344 0.76801 0.92581 0.0
H1941 H 0.22904 0.82079 0.96325 0.0
H1942 H 0.22469 0.8126 0.97956 0.0
H1943 H 0.2121 0.81331 0.96559 0.0
C1944 C 0.2008 0.20234 0.93282 0.0
C1945 C 0.20114 0.20859 0.91962 0.0
C1946 C 0.20809 0.20822 0.94412 0.0
C1947 C 0.21577 0.22074 0.94222 0.0
C1948 C 0.2161 0.2271 0.92892 0.0
C1949 C 0.20885 0.22092 0.9178 0.0
C1950 C 0.20762 0.20104 0.95808 0.0
C1951 C 0.22403 0.24053 0.92645 0.0
C1952 C 0.22481 0.24506 0.972 0.0
C1953 C 0.23913 0.24302 0.97355 0.0
C1954 C 0.2169 0.23739 0.96231 0.0
C1955 C 0.22345 0.22735 0.95405 0.0
C1956 C 0.23773 0.22463 0.95623 0.0
C1957 C 0.24541 0.23255 0.96588 0.0
C1958 C 0.20174 0.24068 0.96028 0.0
C1959 C 0.24509 0.21389 0.94781 0.0
H1960 H 0.19495 0.19274 0.93427 0.0
H1961 H 0.209 0.22592 0.90769 0.0
H1962 H 0.21831 0.19857 0.96157 0.0
H1963 H 0.20317 0.20802 0.96593 0.0
H1964 H 0.20131 0.19129 0.95782 0.0
H1965 H 0.22317 0.24419 0.91552 0.0
H1966 H 0.22007 0.24869 0.93336 0.0
H1967 H 0.23519 0.23918 0.92901 0.0
H1968 H 0.21993 0.25324 0.97777 0.0
H1969 H 0.25647 0.2309 0.9671 0.0
H1970 H 0.1953 0.23103 0.96033 0.0
H1971 H 0.20025 0.24575 0.95001 0.0
H1972 H 0.19787 0.24769 0.96843 0.0
H1973 H 0.23902 0.20401 0.94772 0.0
H1974 H 0.25569 0.21185 0.95189 0.0
H1975 H 0.24599 0.21752 0.9369 0.0
C1976 C 0.82355 0.21062 0.93341 0.0
C1977 C 0.81815 0.20981 0.91984 0.0
C1978 C 0.81591 0.21656 0.94418 0.0
C1979 C 0.80256 0.22189 0.94132 0.0
C1980 C 0.79696 0.22089 0.92771 0.0
C1981 C 0.8048 0.21485 0.91717 0.0
C1982 C 0.82219 0.21731 0.95856 0.0
C1983 C 0.78281 0.22651 0.92419 0.0
C1984 C 0.7761 0.22881 0.96957 0.0
C1985 C 0.77705 0.24329 0.97068 0.0
C1986 C 0.78478 0.2216 0.96052 0.0
C1987 C 0.79461 0.22904 0.95235 0.0
C1988 C 0.7961 0.24356 0.954 0.0
C1989 C 0.78735 0.25049 0.96316 0.0
C1990 C 0.78292 0.20611 0.95916 0.0
C1991 C 0.80648 0.25191 0.94557 0.0
H1992 H 0.83379 0.2066 0.93561 0.0
H1993 H 0.80061 0.21444 0.9067 0.0
H1994 H 0.82367 0.2283 0.96162 0.0
H1995 H 0.81504 0.2124 0.96621 0.0
H1996 H 0.83239 0.21211 0.95924 0.0
H1997 H 0.77975 0.22453 0.91323 0.0
H1998 H 0.77483 0.22175 0.93107 0.0
H1999 H 0.78278 0.23786 0.92598 0.0
H2000 H 0.76809 0.22317 0.97522 0.0
H2001 H 0.78827 0.26165 0.9641 0.0
H2002 H 0.79312 0.20095 0.95983 0.0
H2003 H 0.77835 0.20366 0.94884 0.0
H2004 H 0.77599 0.20167 0.96729 0.0
H2005 H 0.81697 0.2474 0.94656 0.0
H2006 H 0.80709 0.26293 0.94882 0.0
H2007 H 0.80349 0.25154 0.93443 0.0
C2008 C 0.79716 0.80888 0.91775 0.0
C2009 C 0.81021 0.81553 0.91875 0.0
C2010 C 0.79154 0.80137 0.92897 0.0
C2011 C 0.79913 0.80044 0.9416 0.0
C2012 C 0.81242 0.80692 0.94263 0.0
C2013 C 0.81782 0.81437 0.93118 0.0
C2014 C 0.77739 0.79452 0.92735 0.0
C2015 C 0.82083 0.80619 0.95589 0.0
C2016 C 0.7763 0.79203 0.97272 0.0
C2017 C 0.7773 0.77756 0.97358 0.0
C2018 C 0.784 0.79974 0.96289 0.0
C2019 C 0.79291 0.79282 0.95367 0.0
C2020 C 0.79467 0.77834 0.95512 0.0
C2021 C 0.78686 0.77091 0.96505 0.0
C2022 C 0.78185 0.81516 0.96176 0.0
C2023 C 0.80413 0.77056 0.94561 0.0
H2024 H 0.79131 0.80951 0.90811 0.0
H2025 H 0.82786 0.81956 0.93209 0.0
H2026 H 0.7781 0.78323 0.92942 0.0
H2027 H 0.77011 0.79879 0.93504 0.0
H2028 H 0.77292 0.79605 0.91679 0.0
H2029 H 0.8312 0.81132 0.95487 0.0
H2030 H 0.81514 0.81125 0.96439 0.0
H2031 H 0.8223 0.79523 0.95901 0.0
H2032 H 0.76885 0.79727 0.97914 0.0
H2033 H 0.78781 0.75975 0.96576 0.0
H2034 H 0.77603 0.8175 0.95206 0.0
H2035 H 0.792 0.82077 0.96118 0.0
H2036 H 0.77593 0.81921 0.97067 0.0
H2037 H 0.79957 0.77035 0.93499 0.0
H2038 H 0.80566 0.75971 0.94914 0.0
H2039 H 0.81443 0.77586 0.94491 0.0
C2040 C 0.08894 0.20793 0.19798 0.0
C2041 C 0.10237 0.2069 0.20366 0.0
C2042 C 0.07811 0.21396 0.20546 0.0
C2043 C 0.08077 0.21915 0.21896 0.0
C2044 C 0.09423 0.21789 0.22486 0.0
C2045 C 0.10484 0.21179 0.21717 0.0
C2046 C 0.0639 0.215 0.19883 0.0
C2047 C 0.09753 0.22333 0.2392 0.0
C2048 C 0.05914 0.24802 0.23391 0.0
C2049 C 0.05096 0.24087 0.24372 0.0
C2050 C 0.06849 0.24101 0.22543 0.0
C2051 C 0.06971 0.22645 0.22673 0.0
C2052 C 0.06097 0.21908 0.2361 0.0
C2053 C 0.0517 0.22637 0.24448 0.0
C2054 C 0.07751 0.24928 0.21552 0.0
C2055 C 0.06189 0.20356 0.23777 0.0
H2056 H 0.08687 0.20402 0.18763 0.0
H2057 H 0.1152 0.21121 0.22159 0.0
H2058 H 0.05593 0.2102 0.20568 0.0
H2059 H 0.0612 0.22606 0.19746 0.0
H2060 H 0.06335 0.20988 0.18854 0.0
H2061 H 0.10834 0.22107 0.24252 0.0
H2062 H 0.09613 0.23471 0.23938 0.0
H2063 H 0.09025 0.21868 0.24687 0.0
H2064 H 0.05851 0.2592 0.23316 0.0
H2065 H 0.04555 0.22078 0.25213 0.0
H2066 H 0.0767 0.2449 0.20492 0.0
H2067 H 0.08855 0.24864 0.21883 0.0
H2068 H 0.07464 0.26037 0.21506 0.0
H2069 H 0.06131 0.19846 0.22749 0.0
H2070 H 0.05348 0.19922 0.24443 0.0
H2071 H 0.07205 0.20094 0.24253 0.0
C2072 C 0.81835 0.08985 0.20419 0.0
C2073 C 0.81826 0.10313 0.21003 0.0
C2074 C 0.81099 0.07871 0.21036 0.0
C2075 C 0.80352 0.08087 0.22275 0.0
C2076 C 0.80345 0.09426 0.2287 0.0
C2077 C 0.81075 0.10521 0.22224 0.0
C2078 C 0.81114 0.06465 0.20359 0.0
C2079 C 0.79576 0.097 0.24199 0.0
C2080 C 0.77358 0.05799 0.23525 0.0
C2081 C 0.77988 0.05058 0.24609 0.0
C2082 C 0.78135 0.06721 0.22691 0.0
C2083 C 0.79573 0.06925 0.22964 0.0
C2084 C 0.80229 0.06117 0.24005 0.0
C2085 C 0.79428 0.05187 0.2481 0.0
C2086 C 0.774 0.07541 0.21575 0.0
C2087 C 0.81755 0.06309 0.24339 0.0
H2088 H 0.82406 0.08821 0.1947 0.0
H2089 H 0.81081 0.1154 0.22691 0.0
H2090 H 0.81555 0.05691 0.21088 0.0
H2091 H 0.80036 0.06119 0.2011 0.0
H2092 H 0.81733 0.0647 0.1939 0.0
H2093 H 0.79689 0.10795 0.24536 0.0
H2094 H 0.78454 0.09453 0.24058 0.0
H2095 H 0.7997 0.09019 0.25041 0.0
H2096 H 0.76244 0.05698 0.23367 0.0
H2097 H 0.79915 0.04629 0.25659 0.0
H2098 H 0.77997 0.07531 0.20595 0.0
H2099 H 0.77324 0.08637 0.21903 0.0
H2100 H 0.76333 0.0713 0.21367 0.0
H2101 H 0.82381 0.06286 0.23378 0.0
H2102 H 0.82138 0.055 0.25066 0.0
H2103 H 0.81933 0.07338 0.24823 0.0
C2104 C 0.92452 0.80366 0.19854 0.0
C2105 C 0.91605 0.81332 0.20508 0.0
C2106 C 0.93509 0.79681 0.20586 0.0
C2107 C 0.93721 0.79955 0.22016 0.0
C2108 C 0.92905 0.80965 0.22671 0.0
C2109 C 0.91863 0.81643 0.2191 0.0
C2110 C 0.94357 0.78616 0.19845 0.0
C2111 C 0.93094 0.81286 0.24194 0.0
C2112 C 0.95088 0.77008 0.24239 0.0
C2113 C 0.96487 0.77398 0.24451 0.0
C2114 C 0.94184 0.77835 0.2346 0.0
C2115 C 0.94688 0.79084 0.22854 0.0
C2116 C 0.96102 0.7948 0.23043 0.0
C2117 C 0.96987 0.78632 0.2384 0.0
C2118 C 0.92686 0.77368 0.23284 0.0
C2119 C 0.9668 0.80799 0.22405 0.0
H2120 H 0.92256 0.80102 0.18778 0.0
H2121 H 0.91235 0.82406 0.22422 0.0
H2122 H 0.95482 0.78796 0.20047 0.0
H2123 H 0.94085 0.77566 0.20245 0.0
H2124 H 0.94172 0.78632 0.18705 0.0
H2125 H 0.92462 0.82177 0.24521 0.0
H2126 H 0.92784 0.80366 0.24824 0.0
H2127 H 0.94203 0.81519 0.24431 0.0
H2128 H 0.94698 0.76038 0.2467 0.0
H2129 H 0.98064 0.78942 0.23997 0.0
H2130 H 0.92442 0.77222 0.22167 0.0
H2131 H 0.91985 0.78175 0.23676 0.0
H2132 H 0.92453 0.76381 0.23843 0.0
H2133 H 0.96533 0.80777 0.21262 0.0
H2134 H 0.97803 0.80957 0.22639 0.0
H2135 H 0.96105 0.81701 0.22796 0.0
C2136 C 0.20023 0.92941 0.20266 0.0
C2137 C 0.20065 0.9162 0.20883 0.0
C2138 C 0.20742 0.94077 0.20858 0.0
C2139 C 0.21508 0.93891 0.22106 0.0
C2140 C 0.21547 0.9256 0.22734 0.0
C2141 C 0.20831 0.91444 0.22113 0.0
C2142 C 0.2069 0.95474 0.20148 0.0
C2143 C 0.22338 0.92317 0.24072 0.0
C2144 C 0.2448 0.96243 0.23301 0.0
C2145 C 0.23858 0.96974 0.24379 0.0
C2146 C 0.23704 0.95302 0.22486 0.0
C2147 C 0.22275 0.95075 0.22766 0.0
C2148 C 0.21623 0.95878 0.23793 0.0
C2149 C 0.22422 0.96823 0.24583 0.0
C2150 C 0.24437 0.94486 0.21388 0.0
C2151 C 0.20104 0.95666 0.2413 0.0
H2152 H 0.1944 0.93082 0.19309 0.0
H2153 H 0.20851 0.90431 0.22607 0.0
H2154 H 0.20248 0.96248 0.20858 0.0
H2155 H 0.21758 0.95836 0.19887 0.0
H2156 H 0.20054 0.95446 0.1918 0.0
H2157 H 0.22252 0.91224 0.24436 0.0
H2158 H 0.23453 0.92585 0.23929 0.0
H2159 H 0.2194 0.92999 0.24897 0.0
H2160 H 0.25589 0.96363 0.23137 0.0
H2161 H 0.21939 0.97373 0.25425 0.0
H2162 H 0.23824 0.94474 0.20409 0.0
H2163 H 0.24539 0.93395 0.21742 0.0
H2164 H 0.25493 0.94914 0.2117 0.0
H2165 H 0.19464 0.95662 0.23167 0.0
H2166 H 0.19716 0.96481 0.24831 0.0
H2167 H 0.1995 0.94644 0.24644 0.0
C2168 C 0.10376 0.79743 0.81353 0.0
C2169 C 0.10253 0.81045 0.81974 0.0
C2170 C 0.09282 0.79158 0.80569 0.0
C2171 C 0.08028 0.79889 0.80401 0.0
C2172 C 0.079 0.81212 0.8101 0.0
C2173 C 0.09016 0.81777 0.81786 0.0
C2174 C 0.0947 0.77751 0.79926 0.0
C2175 C 0.06578 0.8202 0.80859 0.0
C2176 C 0.05819 0.78638 0.77359 0.0
C2177 C 0.04934 0.7766 0.78002 0.0
C2178 C 0.0678 0.79431 0.78136 0.0
C2179 C 0.06856 0.79248 0.79594 0.0
C2180 C 0.059 0.78334 0.80259 0.0
C2181 C 0.04953 0.77549 0.79455 0.0
C2182 C 0.07774 0.80399 0.77385 0.0
C2183 C 0.05938 0.78115 0.81812 0.0
H2184 H 0.11336 0.79182 0.81474 0.0
H2185 H 0.0891 0.82779 0.82271 0.0
H2186 H 0.08676 0.77009 0.80334 0.0
H2187 H 0.09316 0.77818 0.78785 0.0
H2188 H 0.10516 0.77326 0.80139 0.0
H2189 H 0.06657 0.8305 0.81364 0.0
H2190 H 0.06323 0.82173 0.79744 0.0
H2191 H 0.057 0.81426 0.81328 0.0
H2192 H 0.05797 0.78744 0.76238 0.0
H2193 H 0.04284 0.76788 0.79963 0.0
H2194 H 0.08836 0.7997 0.77429 0.0
H2195 H 0.07818 0.81425 0.77895 0.0
H2196 H 0.07477 0.80546 0.76277 0.0
H2197 H 0.06892 0.77551 0.82104 0.0
H2198 H 0.05022 0.77507 0.82186 0.0
H2199 H 0.05976 0.79125 0.82356 0.0
C2200 C 0.19993 0.0922 0.81965 0.0
C2201 C 0.20755 0.10469 0.82083 0.0
C2202 C 0.20523 0.0809 0.81233 0.0
C2203 C 0.21845 0.08212 0.80599 0.0
C2204 C 0.22605 0.09479 0.80695 0.0
C2205 C 0.22052 0.10587 0.81433 0.0
C2206 C 0.19682 0.06758 0.81155 0.0
C2207 C 0.24012 0.09661 0.80026 0.0
C2208 C 0.24147 0.05169 0.79779 0.0
C2209 C 0.24042 0.05119 0.78326 0.0
C2210 C 0.23365 0.0611 0.80546 0.0
C2211 C 0.22456 0.07023 0.79844 0.0
C2212 C 0.22267 0.06902 0.7839 0.0
C2213 C 0.23061 0.05952 0.7765 0.0
C2214 C 0.23592 0.06198 0.82095 0.0
C2215 C 0.21301 0.07844 0.77601 0.0
H2216 H 0.18995 0.09116 0.82473 0.0
H2217 H 0.22638 0.11555 0.81498 0.0
H2218 H 0.1952 0.06456 0.80056 0.0
H2219 H 0.20259 0.0591 0.81671 0.0
H2220 H 0.18652 0.06845 0.81657 0.0
H2221 H 0.24463 0.10716 0.80184 0.0
H2222 H 0.24744 0.08894 0.80463 0.0
H2223 H 0.23927 0.09468 0.78894 0.0
H2224 H 0.2491 0.0454 0.80309 0.0
H2225 H 0.22963 0.05907 0.76529 0.0
H2226 H 0.22584 0.06242 0.82642 0.0
H2227 H 0.24184 0.07164 0.82341 0.0
H2228 H 0.24183 0.05304 0.82506 0.0
H2229 H 0.20281 0.07897 0.78126 0.0
H2230 H 0.21127 0.07496 0.76515 0.0
H2231 H 0.21753 0.08909 0.77574 0.0
C2232 C 0.92919 0.1966 0.8144 0.0
C2233 C 0.91595 0.20231 0.81579 0.0
C2234 C 0.94017 0.20418 0.80823 0.0
C2235 C 0.93785 0.21779 0.80327 0.0
C2236 C 0.92459 0.22371 0.80488 0.0
C2237 C 0.91383 0.21592 0.81113 0.0
C2238 C 0.95417 0.19754 0.80681 0.0
C2239 C 0.92164 0.23817 0.79967 0.0
C2240 C 0.96738 0.24349 0.79569 0.0
C2241 C 0.9679 0.24311 0.78114 0.0
C2242 C 0.95806 0.23488 0.80311 0.0
C2243 C 0.94903 0.22569 0.79581 0.0
C2244 C 0.95003 0.22477 0.78118 0.0
C2245 C 0.95945 0.23345 0.77405 0.0
C2246 C 0.95739 0.23613 0.8187 0.0
C2247 C 0.94067 0.21507 0.77298 0.0
H2248 H 0.93098 0.18616 0.81813 0.0
H2249 H 0.90361 0.22036 0.81198 0.0
H2250 H 0.9567 0.19642 0.79566 0.0
H2251 H 0.96239 0.20425 0.81151 0.0
H2252 H 0.95449 0.18715 0.81183 0.0
H2253 H 0.91095 0.24146 0.80219 0.0
H2254 H 0.92918 0.24569 0.80428 0.0
H2255 H 0.92294 0.23864 0.78824 0.0
H2256 H 0.97376 0.25101 0.80126 0.0
H2257 H 0.95993 0.23298 0.76282 0.0
H2258 H 0.95771 0.22574 0.82367 0.0
H2259 H 0.94741 0.24085 0.82163 0.0
H2260 H 0.96605 0.24262 0.82295 0.0
H2261 H 0.94125 0.20439 0.77724 0.0
H2262 H 0.94342 0.21487 0.76181 0.0
H2263 H 0.92972 0.21837 0.77388 0.0
C2264 C 0.81886 0.91848 0.79912 0.0
C2265 C 0.8183 0.91509 0.81331 0.0
C2266 C 0.81102 0.92934 0.79352 0.0
C2267 C 0.80245 0.93715 0.8023 0.0
C2268 C 0.80229 0.93421 0.81673 0.0
C2269 C 0.81017 0.9232 0.82206 0.0
C2270 C 0.8115 0.9321 0.77808 0.0
C2271 C 0.79335 0.94232 0.82647 0.0
C2272 C 0.78771 0.97054 0.78706 0.0
C2273 C 0.77465 0.96591 0.78224 0.0
C2274 C 0.79678 0.96143 0.79398 0.0
C2275 C 0.79266 0.94739 0.79613 0.0
C2276 C 0.77929 0.94285 0.79172 0.0
C2277 C 0.77047 0.95215 0.78492 0.0
C2278 C 0.8109 0.9667 0.79864 0.0
C2279 C 0.77441 0.92802 0.79381 0.0
H2280 H 0.82534 0.91252 0.79232 0.0
H2281 H 0.80959 0.92066 0.83301 0.0
H2282 H 0.80118 0.92971 0.77337 0.0
H2283 H 0.81386 0.94321 0.77602 0.0
H2284 H 0.8194 0.92577 0.77282 0.0
H2285 H 0.79555 0.93982 0.83754 0.0
H2286 H 0.79499 0.95361 0.8248 0.0
H2287 H 0.78222 0.93994 0.8243 0.0
H2288 H 0.79099 0.98117 0.78507 0.0
H2289 H 0.76025 0.94857 0.78155 0.0
H2290 H 0.81909 0.96154 0.79262 0.0
H2291 H 0.81266 0.96409 0.80975 0.0
H2292 H 0.81211 0.97809 0.79723 0.0
H2293 H 0.78123 0.92097 0.78803 0.0
H2294 H 0.76352 0.92627 0.79022 0.0
H2295 H 0.77512 0.92512 0.80495 0.0
C2296 C 0.20691 0.10535 0.22664 0.0
C2297 C 0.20028 0.10421 0.21366 0.0
C2298 C 0.21449 0.09435 0.2323 0.0
C2299 C 0.21553 0.08181 0.22483 0.0
C2300 C 0.209 0.08062 0.21165 0.0
C2301 C 0.20148 0.09184 0.20621 0.0
C2302 C 0.22139 0.09614 0.24633 0.0
C2303 C 0.20982 0.06743 0.20339 0.0
C2304 C 0.24573 0.05957 0.23649 0.0
C2305 C 0.23935 0.05067 0.24622 0.0
C2306 C 0.23798 0.06925 0.22886 0.0
C2307 C 0.22347 0.07006 0.23097 0.0
C2308 C 0.21683 0.06048 0.24008 0.0
C2309 C 0.22484 0.05091 0.24759 0.0
C2310 C 0.24549 0.07917 0.2192 0.0
C2311 C 0.20138 0.06093 0.24258 0.0
H2312 H 0.20624 0.11494 0.23237 0.0
H2313 H 0.1963 0.09082 0.19623 0.0
H2314 H 0.21732 0.08821 0.25369 0.0
H2315 H 0.23275 0.0946 0.24545 0.0
H2316 H 0.21966 0.10656 0.25076 0.0
H2317 H 0.20442 0.06824 0.19319 0.0
H2318 H 0.22085 0.06484 0.20158 0.0
H2319 H 0.20509 0.0587 0.20934 0.0
H2320 H 0.25691 0.05933 0.23525 0.0
H2321 H 0.21982 0.04419 0.25517 0.0
H2322 H 0.24546 0.08974 0.22365 0.0
H2323 H 0.24008 0.07966 0.209 0.0
H2324 H 0.25644 0.07619 0.2175 0.0
H2325 H 0.19893 0.07044 0.24841 0.0
H2326 H 0.19756 0.0518 0.24862 0.0
H2327 H 0.1956 0.06137 0.23258 0.0
C2328 C 0.21147 0.91614 0.80785 0.0
C2329 C 0.19768 0.91821 0.81185 0.0
C2330 C 0.21944 0.92688 0.80181 0.0
C2331 C 0.21352 0.94008 0.79974 0.0
C2332 C 0.19967 0.94232 0.80396 0.0
C2333 C 0.19191 0.93136 0.80993 0.0
C2334 C 0.23414 0.92402 0.79739 0.0
C2335 C 0.19303 0.95626 0.80203 0.0
C2336 C 0.23967 0.96952 0.79386 0.0
C2337 C 0.24004 0.97028 0.77931 0.0
C2338 C 0.23062 0.96018 0.80069 0.0
C2339 C 0.22177 0.95134 0.79279 0.0
C2340 C 0.22159 0.95256 0.77813 0.0
C2341 C 0.2307 0.96202 0.77158 0.0
C2342 C 0.23107 0.95927 0.81634 0.0
C2343 C 0.21227 0.94339 0.76931 0.0
H2344 H 0.21594 0.90597 0.80911 0.0
H2345 H 0.18131 0.93309 0.81314 0.0
H2346 H 0.2351 0.92556 0.78601 0.0
H2347 H 0.24149 0.93141 0.80247 0.0
H2348 H 0.23732 0.9133 0.80002 0.0
H2349 H 0.18233 0.95645 0.80628 0.0
H2350 H 0.19941 0.96441 0.80723 0.0
H2351 H 0.19256 0.95896 0.79083 0.0
H2352 H 0.24695 0.97573 0.79992 0.0
H2353 H 0.23081 0.96267 0.76034 0.0
H2354 H 0.23565 0.94927 0.81956 0.0
H2355 H 0.22041 0.95953 0.82063 0.0
H2356 H 0.23737 0.96782 0.821 0.0
H2357 H 0.21556 0.93247 0.77035 0.0
H2358 H 0.21257 0.94636 0.75816 0.0
H2359 H 0.20137 0.94385 0.77293 0.0
C2360 C 0.08938 0.19696 0.81419 0.0
C2361 C 0.10298 0.20244 0.81361 0.0
C2362 C 0.07811 0.20419 0.80841 0.0
C2363 C 0.08049 0.21723 0.80195 0.0
C2364 C 0.09415 0.22295 0.80165 0.0
C2365 C 0.1052 0.2155 0.80745 0.0
C2366 C 0.06373 0.19771 0.80891 0.0
C2367 C 0.09716 0.23688 0.79497 0.0
C2368 C 0.05684 0.23136 0.77364 0.0
C2369 C 0.04983 0.24181 0.78066 0.0
C2370 C 0.06631 0.2228 0.7806 0.0
C2371 C 0.0689 0.22474 0.79496 0.0
C2372 C 0.06125 0.23473 0.80228 0.0
C2373 C 0.05179 0.24313 0.79504 0.0
C2374 C 0.07411 0.21219 0.77242 0.0
C2375 C 0.06367 0.23713 0.81758 0.0
H2376 H 0.08758 0.18682 0.81882 0.0
H2377 H 0.11563 0.2199 0.80716 0.0
H2378 H 0.05633 0.20501 0.81355 0.0
H2379 H 0.06001 0.19551 0.79821 0.0
H2380 H 0.06347 0.18789 0.81499 0.0
H2381 H 0.10825 0.24011 0.79605 0.0
H2382 H 0.09447 0.23648 0.78375 0.0
H2383 H 0.09063 0.24491 0.7997 0.0
H2384 H 0.05527 0.23021 0.76254 0.0
H2385 H 0.04652 0.25127 0.80051 0.0
H2386 H 0.0736 0.20196 0.77771 0.0
H2387 H 0.08524 0.21534 0.77179 0.0
H2388 H 0.06995 0.21104 0.76169 0.0
H2389 H 0.0634 0.22716 0.82336 0.0
H2390 H 0.05583 0.2441 0.82205 0.0
H2391 H 0.07414 0.24187 0.81919 0.0
C2392 C 0.81686 0.09412 0.82077 0.0
C2393 C 0.80909 0.10618 0.82235 0.0
C2394 C 0.81157 0.08277 0.81317 0.0
C2395 C 0.79821 0.08351 0.80695 0.0
C2396 C 0.79043 0.09574 0.80833 0.0
C2397 C 0.79594 0.10689 0.816 0.0
C2398 C 0.82017 0.06991 0.81197 0.0
C2399 C 0.7762 0.09704 0.80176 0.0
C2400 C 0.78635 0.06082 0.77687 0.0
C2401 C 0.77699 0.0516 0.78341 0.0
C2402 C 0.79394 0.07078 0.7845 0.0
C2403 C 0.79218 0.07154 0.79905 0.0
C2404 C 0.78346 0.06168 0.80583 0.0
C2405 C 0.77597 0.05184 0.79793 0.0
C2406 C 0.80319 0.08102 0.77686 0.0
C2407 C 0.78134 0.06207 0.82133 0.0
H2408 H 0.82698 0.09345 0.82574 0.0
H2409 H 0.78997 0.11624 0.81697 0.0
H2410 H 0.81457 0.06097 0.81678 0.0
H2411 H 0.82172 0.06737 0.80088 0.0
H2412 H 0.8305 0.0711 0.81708 0.0
H2413 H 0.77155 0.1073 0.80369 0.0
H2414 H 0.77686 0.09549 0.79039 0.0
H2415 H 0.76909 0.08887 0.80593 0.0
H2416 H 0.78732 0.06059 0.76567 0.0
H2417 H 0.76866 0.04488 0.80309 0.0
H2418 H 0.81351 0.0819 0.78202 0.0
H2419 H 0.79846 0.09142 0.77708 0.0
H2420 H 0.8047 0.07807 0.76585 0.0
H2421 H 0.79148 0.06286 0.82685 0.0
H2422 H 0.7756 0.05275 0.82521 0.0
H2423 H 0.77534 0.07138 0.82401 0.0
C2424 C 0.91215 0.7975 0.8121 0.0
C2425 C 0.91455 0.80924 0.82035 0.0
C2426 C 0.92299 0.7914 0.80476 0.0
C2427 C 0.93659 0.79722 0.80554 0.0
C2428 C 0.93908 0.80913 0.81378 0.0
C2429 C 0.92805 0.81495 0.82114 0.0
C2430 C 0.91988 0.77864 0.79621 0.0
C2431 C 0.95338 0.81574 0.81476 0.0
C2432 C 0.96546 0.77273 0.79566 0.0
C2433 C 0.96719 0.77587 0.78154 0.0
C2434 C 0.95597 0.78002 0.80379 0.0
C2435 C 0.94811 0.79077 0.79767 0.0
C2436 C 0.95044 0.79451 0.78362 0.0
C2437 C 0.95988 0.78697 0.77572 0.0
C2438 C 0.95377 0.77564 0.81869 0.0
C2439 C 0.94245 0.80602 0.77673 0.0
H2440 H 0.9018 0.79291 0.8116 0.0
H2441 H 0.92996 0.82409 0.8274 0.0
H2442 H 0.92249 0.78067 0.78518 0.0
H2443 H 0.92642 0.76996 0.79985 0.0
H2444 H 0.90878 0.77531 0.7968 0.0
H2445 H 0.9536 0.82501 0.82155 0.0
H2446 H 0.96091 0.80815 0.8189 0.0
H2447 H 0.95698 0.81888 0.80426 0.0
H2448 H 0.97094 0.76406 0.80018 0.0
H2449 H 0.96125 0.78948 0.76482 0.0
H2450 H 0.94326 0.77086 0.81979 0.0
H2451 H 0.95429 0.78477 0.82562 0.0
H2452 H 0.96158 0.76803 0.82227 0.0
H2453 H 0.93136 0.80283 0.77563 0.0
H2454 H 0.94654 0.80865 0.76626 0.0
H2455 H 0.94285 0.81547 0.78322 0.0
C2456 C 0.81027 0.91501 0.22821 0.0
C2457 C 0.81739 0.91655 0.21562 0.0
C2458 C 0.80276 0.92595 0.23383 0.0
C2459 C 0.80234 0.93884 0.22673 0.0
C2460 C 0.80938 0.94045 0.21394 0.0
C2461 C 0.8168 0.92928 0.20852 0.0
C2462 C 0.7953 0.92372 0.24742 0.0
C2463 C 0.80923 0.95403 0.20608 0.0
C2464 C 0.77242 0.96151 0.23749 0.0
C2465 C 0.77868 0.9698 0.24778 0.0
C2466 C 0.78014 0.95189 0.23 0.0
C2467 C 0.79452 0.95054 0.23283 0.0
C2468 C 0.80108 0.9595 0.24256 0.0
C2469 C 0.79309 0.96901 0.24993 0.0
C2470 C 0.77273 0.94262 0.21967 0.0
C2471 C 0.8164 0.95846 0.24584 0.0
H2472 H 0.81049 0.90515 0.23366 0.0
H2473 H 0.82237 0.93061 0.19885 0.0
H2474 H 0.79932 0.93118 0.25525 0.0
H2475 H 0.78404 0.92565 0.24603 0.0
H2476 H 0.79655 0.91305 0.25159 0.0
H2477 H 0.81496 0.95353 0.19613 0.0
H2478 H 0.79836 0.95703 0.20382 0.0
H2479 H 0.81399 0.96234 0.21254 0.0
H2480 H 0.76132 0.96219 0.23564 0.0
H2481 H 0.79801 0.97526 0.25794 0.0
H2482 H 0.77233 0.93185 0.22376 0.0
H2483 H 0.77848 0.94246 0.20973 0.0
H2484 H 0.76193 0.94598 0.21755 0.0
H2485 H 0.81834 0.9486 0.25146 0.0
H2486 H 0.82024 0.96718 0.25238 0.0
H2487 H 0.82253 0.95832 0.23614 0.0
C2488 C 0.10483 0.79667 0.20983 0.0
C2489 C 0.10385 0.80969 0.20336 0.0
C2490 C 0.09382 0.7911 0.2177 0.0
C2491 C 0.08146 0.7987 0.21916 0.0
C2492 C 0.08046 0.81195 0.21284 0.0
C2493 C 0.09169 0.81731 0.20505 0.0
C2494 C 0.09541 0.777 0.22436 0.0
C2495 C 0.06746 0.82035 0.21413 0.0
C2496 C 0.05018 0.77599 0.22848 0.0
C2497 C 0.05006 0.77704 0.24301 0.0
C2498 C 0.05982 0.78364 0.22049 0.0
C2499 C 0.06961 0.79254 0.22716 0.0
C2500 C 0.06893 0.79433 0.24172 0.0
C2501 C 0.05917 0.78658 0.24945 0.0
C2502 C 0.06011 0.78148 0.20499 0.0
C2503 C 0.07909 0.80376 0.24925 0.0
H2504 H 0.11427 0.79083 0.20879 0.0
H2505 H 0.09081 0.82733 0.2 0.0
H2506 H 0.09391 0.77772 0.23574 0.0
H2507 H 0.0873 0.76975 0.22029 0.0
H2508 H 0.10577 0.77253 0.22241 0.0
H2509 H 0.0685 0.83067 0.20903 0.0
H2510 H 0.05854 0.81467 0.20934 0.0
H2511 H 0.06495 0.82186 0.22523 0.0
H2512 H 0.0433 0.76856 0.22341 0.0
H2513 H 0.05902 0.78758 0.26065 0.0
H2514 H 0.06953 0.77566 0.20224 0.0
H2515 H 0.06068 0.79158 0.19944 0.0
H2516 H 0.05083 0.77559 0.2012 0.0
H2517 H 0.0896 0.79922 0.24903 0.0
H2518 H 0.07616 0.8053 0.26026 0.0
H2519 H 0.07979 0.81402 0.24402 0.0
C2520 C 0.93007 0.21008 0.19551 0.0
C2521 C 0.91678 0.20818 0.20122 0.0
C2522 C 0.94097 0.21623 0.20323 0.0
C2523 C 0.93852 0.22065 0.21697 0.0
C2524 C 0.92519 0.21855 0.22286 0.0
C2525 C 0.91451 0.21234 0.21493 0.0
C2526 C 0.95505 0.2182 0.19662 0.0
C2527 C 0.92212 0.22316 0.23745 0.0
C2528 C 0.96778 0.22747 0.24297 0.0
C2529 C 0.96847 0.24201 0.24305 0.0
C2530 C 0.9585 0.22033 0.23409 0.0
C2531 C 0.94968 0.22791 0.2251 0.0
C2532 C 0.95085 0.24255 0.22464 0.0
C2533 C 0.96023 0.24941 0.23359 0.0
C2534 C 0.95764 0.20472 0.23486 0.0
C2535 C 0.94171 0.25103 0.21515 0.0
H2536 H 0.93196 0.20675 0.18498 0.0
H2537 H 0.90423 0.21109 0.21936 0.0
H2538 H 0.95771 0.22941 0.19589 0.0
H2539 H 0.96316 0.21331 0.20316 0.0
H2540 H 0.95542 0.2137 0.18604 0.0
H2541 H 0.91135 0.22038 0.24066 0.0
H2542 H 0.92949 0.21837 0.24489 0.0
H2543 H 0.92356 0.23456 0.23822 0.0
H2544 H 0.97398 0.22167 0.25034 0.0
H2545 H 0.96083 0.26064 0.23349 0.0
H2546 H 0.95805 0.20022 0.2243 0.0
H2547 H 0.94755 0.20145 0.23947 0.0
H2548 H 0.96616 0.20031 0.24126 0.0
H2549 H 0.94233 0.24723 0.20434 0.0
H2550 H 0.94462 0.26222 0.21526 0.0
H2551 H 0.93071 0.24987 0.21843 0.0
C2552 C 0.20814 0.69149 0.59213 0.0
C2553 C 0.20515 0.69797 0.60476 0.0
C2554 C 0.21482 0.69876 0.5813 0.0
C2555 C 0.21859 0.71288 0.58308 0.0
C2556 C 0.215 0.71966 0.59553 0.0
C2557 C 0.20835 0.71213 0.6062 0.0
C2558 C 0.21841 0.69114 0.56821 0.0
C2559 C 0.21879 0.73471 0.59786 0.0
C2560 C 0.25067 0.7277 0.56524 0.0
C2561 C 0.2449 0.73575 0.55458 0.0
C2562 C 0.24222 0.71986 0.57424 0.0
C2563 C 0.22758 0.72018 0.57266 0.0
C2564 C 0.2217 0.72796 0.5616 0.0
C2565 C 0.23046 0.73565 0.55263 0.0
C2566 C 0.24898 0.71163 0.58576 0.0
C2567 C 0.20616 0.72861 0.5596 0.0
H2568 H 0.20547 0.68062 0.5908 0.0
H2569 H 0.20623 0.71723 0.61593 0.0
H2570 H 0.21502 0.69709 0.55893 0.0
H2571 H 0.22985 0.69009 0.56757 0.0
H2572 H 0.21354 0.68063 0.56784 0.0
H2573 H 0.21408 0.73882 0.60745 0.0
H2574 H 0.23026 0.73592 0.59872 0.0
H2575 H 0.21538 0.74111 0.58889 0.0
H2576 H 0.26186 0.72785 0.56673 0.0
H2577 H 0.22603 0.74201 0.54446 0.0
H2578 H 0.24528 0.70068 0.58546 0.0
H2579 H 0.246 0.71588 0.59597 0.0
H2580 H 0.2605 0.71184 0.58507 0.0
H2581 H 0.2015 0.71802 0.5594 0.0
H2582 H 0.20327 0.73412 0.54987 0.0
H2583 H 0.20152 0.73409 0.56849 0.0
C2584 C 0.80625 0.7142 0.60439 0.0
C2585 C 0.81 0.70044 0.60203 0.0
C2586 C 0.80004 0.72219 0.5939 0.0
C2587 C 0.79752 0.71632 0.58065 0.0
C2588 C 0.80151 0.70253 0.57809 0.0
C2589 C 0.80767 0.69474 0.58882 0.0
C2590 C 0.79586 0.73683 0.5971 0.0
C2591 C 0.79911 0.69595 0.56409 0.0
C2592 C 0.7686 0.73361 0.56027 0.0
C2593 C 0.77605 0.74315 0.55202 0.0
C2594 C 0.77548 0.72433 0.56913 0.0
C2595 C 0.79019 0.72455 0.56975 0.0
C2596 C 0.79779 0.73353 0.56079 0.0
C2597 C 0.79062 0.74275 0.55204 0.0
C2598 C 0.76697 0.71488 0.57843 0.0
C2599 C 0.81347 0.73401 0.56104 0.0
H2600 H 0.80783 0.71862 0.61461 0.0
H2601 H 0.81067 0.68417 0.58686 0.0
H2602 H 0.80073 0.74418 0.5896 0.0
H2603 H 0.78443 0.73778 0.59599 0.0
H2604 H 0.79893 0.74 0.60778 0.0
H2605 H 0.80339 0.68535 0.56357 0.0
H2606 H 0.7878 0.69533 0.56179 0.0
H2607 H 0.80398 0.70243 0.55584 0.0
H2608 H 0.75734 0.73376 0.56017 0.0
H2609 H 0.79647 0.75017 0.5458 0.0
H2610 H 0.76835 0.71811 0.5894 0.0
H2611 H 0.77058 0.70406 0.57767 0.0
H2612 H 0.75571 0.71507 0.57581 0.0
H2613 H 0.81717 0.73865 0.57094 0.0
H2614 H 0.81781 0.74025 0.55231 0.0
H2615 H 0.81767 0.7234 0.56054 0.0
C2616 C 0.81112 0.32702 0.59217 0.0
C2617 C 0.81291 0.32117 0.60545 0.0
C2618 C 0.80507 0.31932 0.58127 0.0
C2619 C 0.80065 0.30545 0.58369 0.0
C2620 C 0.80271 0.2994 0.59697 0.0
C2621 C 0.80882 0.30731 0.60766 0.0
C2622 C 0.80315 0.32611 0.56724 0.0
C2623 C 0.7981 0.28466 0.60003 0.0
C2624 C 0.7715 0.28853 0.56266 0.0
C2625 C 0.77876 0.27924 0.55437 0.0
C2626 C 0.77854 0.29758 0.57176 0.0
C2627 C 0.79323 0.29739 0.57261 0.0
C2628 C 0.80067 0.28865 0.56366 0.0
C2629 C 0.79335 0.27967 0.55464 0.0
C2630 C 0.77018 0.3068 0.58102 0.0
C2631 C 0.81634 0.28818 0.56417 0.0
H2632 H 0.81442 0.33766 0.59031 0.0
H2633 H 0.80998 0.30276 0.61791 0.0
H2634 H 0.8079 0.31974 0.55905 0.0
H2635 H 0.79191 0.32681 0.56477 0.0
H2636 H 0.80785 0.33671 0.56682 0.0
H2637 H 0.80097 0.2813 0.61071 0.0
H2638 H 0.78665 0.28366 0.5988 0.0
H2639 H 0.80284 0.2775 0.59252 0.0
H2640 H 0.76023 0.28834 0.5624 0.0
H2641 H 0.79903 0.27243 0.54838 0.0
H2642 H 0.77412 0.31765 0.58038 0.0
H2643 H 0.77133 0.30336 0.59198 0.0
H2644 H 0.75895 0.3066 0.57826 0.0
H2645 H 0.8209 0.29881 0.56383 0.0
H2646 H 0.82062 0.28212 0.55547 0.0
H2647 H 0.8197 0.28334 0.5741 0.0
C2648 C 0.22308 0.31314 0.60844 0.0
C2649 C 0.21043 0.32002 0.60691 0.0
C2650 C 0.22887 0.30585 0.59739 0.0
C2651 C 0.22186 0.30541 0.5844 0.0
C2652 C 0.209 0.31218 0.58281 0.0
C2653 C 0.20342 0.31938 0.59409 0.0
C2654 C 0.24254 0.29867 0.5996 0.0
C2655 C 0.20124 0.31199 0.56914 0.0
C2656 C 0.24544 0.29707 0.55416 0.0
C2657 C 0.24346 0.28268 0.553 0.0
C2658 C 0.23791 0.30475 0.56382 0.0
C2659 C 0.22817 0.29789 0.57257 0.0
C2660 C 0.22552 0.28352 0.57085 0.0
C2661 C 0.23316 0.27611 0.56108 0.0
C2662 C 0.24101 0.32006 0.56524 0.0
C2663 C 0.21519 0.2758 0.57988 0.0
H2664 H 0.22846 0.31339 0.61837 0.0
H2665 H 0.1937 0.32476 0.59278 0.0
H2666 H 0.24128 0.28745 0.59739 0.0
H2667 H 0.25041 0.30293 0.59229 0.0
H2668 H 0.24659 0.29988 0.61036 0.0
H2669 H 0.19119 0.31746 0.56968 0.0
H2670 H 0.20771 0.31698 0.56097 0.0
H2671 H 0.19916 0.30115 0.56587 0.0
H2672 H 0.25346 0.30223 0.54808 0.0
H2673 H 0.23144 0.26503 0.56013 0.0
H2674 H 0.24651 0.322 0.57523 0.0
H2675 H 0.23122 0.32596 0.56542 0.0
H2676 H 0.2476 0.32414 0.55667 0.0
H2677 H 0.21921 0.27536 0.5907 0.0
H2678 H 0.21322 0.26503 0.57626 0.0
H2679 H 0.20516 0.2813 0.5801 0.0
C2680 C 0.22025 0.3154 0.41716 0.0
C2681 C 0.20787 0.32259 0.419 0.0
C2682 C 0.22642 0.30809 0.42816 0.0
C2683 C 0.22 0.30782 0.44135 0.0
C2684 C 0.20743 0.31497 0.44327 0.0
C2685 C 0.20156 0.32235 0.43209 0.0
C2686 C 0.23991 0.30074 0.42568 0.0
C2687 C 0.20019 0.31478 0.45712 0.0
C2688 C 0.23215 0.27802 0.46404 0.0
C2689 C 0.24275 0.28444 0.4719 0.0
C2690 C 0.224 0.28569 0.4547 0.0
C2691 C 0.22662 0.30009 0.45305 0.0
C2692 C 0.23672 0.30675 0.46159 0.0
C2693 C 0.24462 0.29885 0.47096 0.0
C2694 C 0.21318 0.27821 0.44598 0.0
C2695 C 0.23991 0.32206 0.46012 0.0
H2696 H 0.22528 0.31571 0.40712 0.0
H2697 H 0.19193 0.3278 0.43354 0.0
H2698 H 0.24808 0.30478 0.43285 0.0
H2699 H 0.23856 0.28951 0.42788 0.0
H2700 H 0.24362 0.30206 0.41485 0.0
H2701 H 0.1904 0.32071 0.45688 0.0
H2702 H 0.19773 0.30393 0.46026 0.0
H2703 H 0.20716 0.31923 0.46522 0.0
H2704 H 0.23064 0.26688 0.4648 0.0
H2705 H 0.2529 0.30384 0.47688 0.0
H2706 H 0.21682 0.27765 0.4351 0.0
H2707 H 0.20329 0.28394 0.44588 0.0
H2708 H 0.21111 0.26749 0.4498 0.0
H2709 H 0.24507 0.32407 0.45002 0.0
H2710 H 0.24685 0.32595 0.46855 0.0
H2711 H 0.23019 0.32807 0.46016 0.0
C2712 C 0.19612 0.70853 0.43164 0.0
C2713 C 0.20192 0.70887 0.41831 0.0
C2714 C 0.20322 0.71442 0.44306 0.0
C2715 C 0.21646 0.72077 0.44112 0.0
C2716 C 0.2225 0.72083 0.42775 0.0
C2717 C 0.21517 0.71491 0.41654 0.0
C2718 C 0.19641 0.71415 0.45713 0.0
C2719 C 0.23663 0.7274 0.42522 0.0
C2720 C 0.2306 0.74929 0.46458 0.0
C2721 C 0.24083 0.74235 0.47224 0.0
C2722 C 0.22209 0.74224 0.45494 0.0
C2723 C 0.22385 0.72787 0.45285 0.0
C2724 C 0.23359 0.72063 0.46114 0.0
C2725 C 0.24196 0.72796 0.47075 0.0
C2726 C 0.21174 0.75035 0.44644 0.0
C2727 C 0.23579 0.70532 0.45928 0.0
H2728 H 0.18585 0.704 0.43309 0.0
H2729 H 0.21983 0.71503 0.40633 0.0
H2730 H 0.2035 0.7096 0.46499 0.0
H2731 H 0.19428 0.7249 0.46043 0.0
H2732 H 0.18647 0.70812 0.4571 0.0
H2733 H 0.24009 0.72616 0.41433 0.0
H2734 H 0.23636 0.73863 0.42758 0.0
H2735 H 0.24447 0.72272 0.43224 0.0
H2736 H 0.2296 0.76039 0.46577 0.0
H2737 H 0.24994 0.72253 0.47651 0.0
H2738 H 0.20139 0.74512 0.44662 0.0
H2739 H 0.21515 0.75081 0.43546 0.0
H2740 H 0.21067 0.76111 0.45025 0.0
H2741 H 0.22569 0.6996 0.45924 0.0
H2742 H 0.24252 0.70092 0.46757 0.0
H2743 H 0.24076 0.70353 0.44911 0.0
C2744 C 0.81661 0.70243 0.43483 0.0
C2745 C 0.81656 0.70827 0.42145 0.0
C2746 C 0.80941 0.70862 0.44577 0.0
C2747 C 0.80212 0.72103 0.44331 0.0
C2748 C 0.80208 0.72698 0.42982 0.0
C2749 C 0.80924 0.72051 0.41907 0.0
C2750 C 0.80955 0.70186 0.45995 0.0
C2751 C 0.79458 0.74028 0.42675 0.0
C2752 C 0.77254 0.73355 0.46563 0.0
C2753 C 0.77904 0.74433 0.47306 0.0
C2754 C 0.78012 0.72525 0.45657 0.0
C2755 C 0.79452 0.72795 0.45473 0.0
C2756 C 0.80127 0.7383 0.46281 0.0
C2757 C 0.79346 0.74633 0.47194 0.0
C2758 C 0.77255 0.71417 0.44835 0.0
C2759 C 0.81657 0.74159 0.46111 0.0
H2760 H 0.82217 0.69292 0.43671 0.0
H2761 H 0.80933 0.7252 0.40881 0.0
H2762 H 0.81412 0.70911 0.46769 0.0
H2763 H 0.79875 0.69944 0.46326 0.0
H2764 H 0.81558 0.69215 0.46014 0.0
H2765 H 0.79566 0.74363 0.41575 0.0
H2766 H 0.78335 0.73895 0.42906 0.0
H2767 H 0.7987 0.74868 0.43352 0.0
H2768 H 0.7614 0.73196 0.46651 0.0
H2769 H 0.7985 0.75476 0.47753 0.0
H2770 H 0.77836 0.70435 0.44869 0.0
H2771 H 0.7718 0.71744 0.43731 0.0
H2772 H 0.76187 0.71215 0.45227 0.0
H2773 H 0.82056 0.74883 0.46919 0.0
H2774 H 0.81833 0.7464 0.45077 0.0
H2775 H 0.8227 0.73197 0.46158 0.0
C2776 C 0.80545 0.30417 0.417 0.0
C2777 C 0.81152 0.31736 0.4188 0.0
C2778 C 0.79955 0.29683 0.42821 0.0
C2779 C 0.79966 0.30282 0.4416 0.0
C2780 C 0.80602 0.31601 0.44356 0.0
C2781 C 0.8119 0.32312 0.43215 0.0
C2782 C 0.79297 0.28275 0.42565 0.0
C2783 C 0.80632 0.32278 0.45765 0.0
C2784 C 0.77116 0.28873 0.46518 0.0
C2785 C 0.77819 0.27858 0.47286 0.0
C2786 C 0.77818 0.29717 0.45548 0.0
C2787 C 0.79259 0.29542 0.45333 0.0
C2788 C 0.79989 0.28573 0.46161 0.0
C2789 C 0.79261 0.27744 0.47129 0.0
C2790 C 0.77 0.30746 0.447 0.0
C2791 C 0.81525 0.28354 0.45968 0.0
H2792 H 0.80531 0.29955 0.40677 0.0
H2793 H 0.81645 0.33336 0.43362 0.0
H2794 H 0.7977 0.27492 0.43264 0.0
H2795 H 0.78172 0.283 0.42804 0.0
H2796 H 0.79419 0.27933 0.41474 0.0
H2797 H 0.81233 0.33271 0.45763 0.0
H2798 H 0.79555 0.32484 0.461 0.0
H2799 H 0.81096 0.31571 0.46547 0.0
H2800 H 0.76004 0.28974 0.46644 0.0
H2801 H 0.79808 0.26952 0.47707 0.0
H2802 H 0.76952 0.30407 0.43602 0.0
H2803 H 0.77521 0.3178 0.44719 0.0
H2804 H 0.7592 0.30851 0.45082 0.0
H2805 H 0.81699 0.27863 0.44947 0.0
H2806 H 0.81969 0.27679 0.46792 0.0
H2807 H 0.82099 0.29361 0.45966 0.0
C2808 C 0.10486 0.71289 0.71836 0.0
C2809 C 0.10286 0.70735 0.70505 0.0
C2810 C 0.09388 0.7189 0.72558 0.0
C2811 C 0.0805 0.71943 0.71936 0.0
C2812 C 0.07832 0.71362 0.70604 0.0
C2813 C 0.08951 0.70764 0.69906 0.0
C2814 C 0.09666 0.72488 0.7398 0.0
C2815 C 0.06425 0.71402 0.69903 0.0
C2816 C 0.0508 0.72635 0.74421 0.0
C2817 C 0.04971 0.7408 0.74315 0.0
C2818 C 0.06037 0.71914 0.73609 0.0
C2819 C 0.06901 0.72655 0.72667 0.0
C2820 C 0.06739 0.74103 0.72502 0.0
C2821 C 0.05779 0.74797 0.73328 0.0
C2822 C 0.06174 0.70372 0.73817 0.0
C2823 C 0.07628 0.74933 0.71501 0.0
H2824 H 0.11508 0.71253 0.72316 0.0
H2825 H 0.08788 0.70353 0.68872 0.0
H2826 H 0.09471 0.73617 0.73965 0.0
H2827 H 0.08946 0.72009 0.74748 0.0
H2828 H 0.10751 0.72322 0.74338 0.0
H2829 H 0.06407 0.70843 0.68899 0.0
H2830 H 0.05621 0.70935 0.7059 0.0
H2831 H 0.06133 0.72494 0.69709 0.0
H2832 H 0.04472 0.72076 0.75191 0.0
H2833 H 0.05691 0.75912 0.73233 0.0
H2834 H 0.07189 0.70153 0.74318 0.0
H2835 H 0.06153 0.69834 0.72802 0.0
H2836 H 0.05334 0.69927 0.74478 0.0
H2837 H 0.08726 0.74931 0.71861 0.0
H2838 H 0.07292 0.76025 0.71407 0.0
H2839 H 0.07594 0.74454 0.70458 0.0
C2840 C 0.82735 0.59392 0.71626 0.0
C2841 C 0.82077 0.60413 0.70823 0.0
C2842 C 0.81964 0.58339 0.72298 0.0
C2843 C 0.80498 0.58295 0.72158 0.0
C2844 C 0.79834 0.59277 0.7129 0.0
C2845 C 0.8063 0.60325 0.70637 0.0
C2846 C 0.82714 0.57315 0.73213 0.0
C2847 C 0.78274 0.59264 0.71108 0.0
C2848 C 0.78476 0.55098 0.73439 0.0
C2849 C 0.78028 0.55543 0.74742 0.0
C2850 C 0.79278 0.55981 0.72578 0.0
C2851 C 0.79653 0.5733 0.73042 0.0
C2852 C 0.79222 0.57769 0.74367 0.0
C2853 C 0.78417 0.56873 0.75197 0.0
C2854 C 0.79711 0.5548 0.71168 0.0
C2855 C 0.79611 0.59189 0.74913 0.0
H2856 H 0.83855 0.59432 0.71753 0.0
H2857 H 0.80108 0.61112 0.70029 0.0
H2858 H 0.82445 0.57496 0.74314 0.0
H2859 H 0.82381 0.5624 0.7296 0.0
H2860 H 0.83862 0.57404 0.73107 0.0
H2861 H 0.77932 0.59989 0.70278 0.0
H2862 H 0.77887 0.58205 0.70853 0.0
H2863 H 0.7778 0.59567 0.72096 0.0
H2864 H 0.78177 0.54071 0.73085 0.0
H2865 H 0.78097 0.57212 0.76215 0.0
H2866 H 0.8086 0.55531 0.71079 0.0
H2867 H 0.79282 0.56167 0.70348 0.0
H2868 H 0.7935 0.544 0.70966 0.0
H2869 H 0.80759 0.5932 0.74944 0.0
H2870 H 0.79202 0.59365 0.75972 0.0
H2871 H 0.79199 0.6 0.74208 0.0
C2872 C 0.93066 0.31418 0.69872 0.0
C2873 C 0.91723 0.31521 0.7042 0.0
C2874 C 0.94144 0.30799 0.70637 0.0
C2875 C 0.93875 0.30266 0.71983 0.0
C2876 C 0.9253 0.30395 0.72554 0.0
C2877 C 0.91474 0.31021 0.71768 0.0
C2878 C 0.95564 0.30692 0.69994 0.0
C2879 C 0.92196 0.29836 0.73984 0.0
C2880 C 0.96 0.27328 0.73499 0.0
C2881 C 0.96826 0.28016 0.74493 0.0
C2882 C 0.95074 0.28055 0.7264 0.0
C2883 C 0.94972 0.2951 0.72773 0.0
C2884 C 0.95855 0.3022 0.73724 0.0
C2885 C 0.96772 0.29465 0.74573 0.0
C2886 C 0.94161 0.27255 0.71634 0.0
C2887 C 0.95784 0.31771 0.73894 0.0
H2888 H 0.93274 0.31818 0.68839 0.0
H2889 H 0.90437 0.31078 0.72195 0.0
H2890 H 0.96367 0.31148 0.70694 0.0
H2891 H 0.9582 0.29586 0.69853 0.0
H2892 H 0.95626 0.31224 0.6897 0.0
H2893 H 0.91119 0.30073 0.74303 0.0
H2894 H 0.9232 0.28695 0.74003 0.0
H2895 H 0.92932 0.30279 0.74761 0.0
H2896 H 0.96048 0.2621 0.73421 0.0
H2897 H 0.97395 0.30004 0.75348 0.0
H2898 H 0.94248 0.27708 0.70576 0.0
H2899 H 0.93058 0.27329 0.71949 0.0
H2900 H 0.94434 0.26143 0.71589 0.0
H2901 H 0.95845 0.32297 0.72868 0.0
H2902 H 0.96631 0.32184 0.74572 0.0
H2903 H 0.94772 0.32039 0.74358 0.0
C2904 C 0.1937 0.43072 0.71171 0.0
C2905 C 0.19969 0.41775 0.70957 0.0
C2906 C 0.20131 0.44163 0.71794 0.0
C2907 C 0.21523 0.43952 0.72221 0.0
C2908 C 0.22143 0.42655 0.71979 0.0
C2909 C 0.2136 0.41586 0.71351 0.0
C2910 C 0.19436 0.45532 0.72024 0.0
C2911 C 0.23623 0.42384 0.72422 0.0
C2912 C 0.24085 0.46903 0.73002 0.0
C2913 C 0.24125 0.46872 0.74459 0.0
C2914 C 0.23191 0.46005 0.72255 0.0
C2915 C 0.22319 0.45055 0.72982 0.0
C2916 C 0.22296 0.45081 0.74452 0.0
C2917 C 0.23197 0.45989 0.7517 0.0
C2918 C 0.23243 0.46017 0.7069 0.0
C2919 C 0.21376 0.44095 0.75269 0.0
H2920 H 0.18302 0.43234 0.70853 0.0
H2921 H 0.21828 0.40583 0.71208 0.0
H2922 H 0.19359 0.45733 0.73153 0.0
H2923 H 0.20069 0.46389 0.71567 0.0
H2924 H 0.18375 0.45557 0.71562 0.0
H2925 H 0.23971 0.41341 0.72107 0.0
H2926 H 0.24336 0.43175 0.71963 0.0
H2927 H 0.23719 0.42465 0.73567 0.0
H2928 H 0.24808 0.47573 0.72445 0.0
H2929 H 0.23215 0.45971 0.76296 0.0
H2930 H 0.22177 0.46032 0.70243 0.0
H2931 H 0.23739 0.45057 0.70326 0.0
H2932 H 0.23843 0.46923 0.7028 0.0
H2933 H 0.20288 0.44139 0.74884 0.0
H2934 H 0.2139 0.44328 0.76397 0.0
H2935 H 0.21731 0.43018 0.75126 0.0
C2936 C 0.09196 0.31831 0.31795 0.0
C2937 C 0.10442 0.31112 0.31976 0.0
C2938 C 0.08083 0.31256 0.31023 0.0
C2939 C 0.08222 0.29936 0.30411 0.0
C2940 C 0.09486 0.29219 0.30571 0.0
C2941 C 0.10577 0.29814 0.3135 0.0
C2942 C 0.06752 0.3205 0.3088 0.0
C2943 C 0.09684 0.27814 0.29926 0.0
C2944 C 0.05156 0.27569 0.29508 0.0
C2945 C 0.05118 0.27677 0.28055 0.0
C2946 C 0.06108 0.28361 0.30298 0.0
C2947 C 0.07049 0.2928 0.29619 0.0
C2948 C 0.06956 0.29458 0.28161 0.0
C2949 C 0.05991 0.28656 0.27398 0.0
C2950 C 0.06167 0.28146 0.31851 0.0
C2951 C 0.07933 0.30432 0.27396 0.0
H2952 H 0.09081 0.3283 0.32285 0.0
H2953 H 0.11543 0.29263 0.31465 0.0
H2954 H 0.06482 0.32192 0.29767 0.0
H2955 H 0.05885 0.31452 0.31363 0.0
H2956 H 0.06826 0.33085 0.31376 0.0
H2957 H 0.10738 0.27403 0.30129 0.0
H2958 H 0.08903 0.27063 0.30343 0.0
H2959 H 0.09517 0.27878 0.28787 0.0
H2960 H 0.04498 0.26806 0.30025 0.0
H2961 H 0.05954 0.28759 0.26276 0.0
H2962 H 0.06197 0.29157 0.32392 0.0
H2963 H 0.07133 0.27597 0.32133 0.0
H2964 H 0.05264 0.27526 0.32236 0.0
H2965 H 0.07971 0.31461 0.27902 0.0
H2966 H 0.07623 0.30571 0.26291 0.0
H2967 H 0.09 0.30014 0.27432 0.0
C2968 C 0.21742 0.59419 0.32815 0.0
C2969 C 0.20755 0.60266 0.32164 0.0
C2970 C 0.22419 0.58376 0.32082 0.0
C2971 C 0.22116 0.58177 0.30655 0.0
C2972 C 0.21086 0.58992 0.30003 0.0
C2973 C 0.20416 0.60021 0.30765 0.0
C2974 C 0.23507 0.57529 0.3282 0.0
C2975 C 0.20733 0.58817 0.28484 0.0
C2976 C 0.25037 0.56854 0.28418 0.0
C2977 C 0.2465 0.55459 0.28214 0.0
C2978 C 0.24217 0.57742 0.29199 0.0
C2979 C 0.22979 0.57227 0.29815 0.0
C2980 C 0.22587 0.55816 0.29633 0.0
C2981 C 0.23427 0.54948 0.28835 0.0
C2982 C 0.2468 0.59236 0.29366 0.0
C2983 C 0.2128 0.55227 0.30281 0.0
H2984 H 0.22028 0.59605 0.33889 0.0
H2985 H 0.19637 0.60648 0.30256 0.0
H2986 H 0.23329 0.56409 0.32622 0.0
H2987 H 0.2455 0.5781 0.32412 0.0
H2988 H 0.23513 0.57701 0.33959 0.0
H2989 H 0.19827 0.59444 0.2816 0.0
H2990 H 0.2164 0.59138 0.27846 0.0
H2991 H 0.20501 0.57713 0.28252 0.0
H2992 H 0.25998 0.57253 0.27979 0.0
H2993 H 0.2312 0.53874 0.28683 0.0
H2994 H 0.24847 0.5947 0.30482 0.0
H2995 H 0.23858 0.59935 0.28976 0.0
H2996 H 0.25657 0.5948 0.28801 0.0
H2997 H 0.21323 0.55362 0.31424 0.0
H2998 H 0.21124 0.54108 0.30053 0.0
H2999 H 0.20363 0.55797 0.29893 0.0
C3000 C 0.91369 0.70844 0.30559 0.0
C3001 C 0.91578 0.70078 0.31783 0.0
C3002 C 0.9247 0.71575 0.29924 0.0
C3003 C 0.93815 0.71554 0.30532 0.0
C3004 C 0.94032 0.70794 0.31776 0.0
C3005 C 0.92912 0.70058 0.32382 0.0
C3006 C 0.92194 0.72359 0.2859 0.0
C3007 C 0.95444 0.70761 0.32466 0.0
C3008 C 0.96723 0.72463 0.28016 0.0
C3009 C 0.96875 0.73896 0.28212 0.0
C3010 C 0.95783 0.7167 0.28817 0.0
C3011 C 0.94986 0.72323 0.29848 0.0
C3012 C 0.95211 0.73752 0.30116 0.0
C3013 C 0.96145 0.74522 0.29288 0.0
C3014 C 0.9557 0.70153 0.28489 0.0
C3015 C 0.94403 0.74486 0.31219 0.0
H3016 H 0.90346 0.70847 0.30079 0.0
H3017 H 0.93078 0.69476 0.33334 0.0
H3018 H 0.92458 0.73474 0.28727 0.0
H3019 H 0.92865 0.71966 0.27753 0.0
H3020 H 0.91091 0.72265 0.28247 0.0
H3021 H 0.95437 0.70141 0.33441 0.0
H3022 H 0.96212 0.70315 0.31749 0.0
H3023 H 0.95806 0.71831 0.32706 0.0
H3024 H 0.97271 0.71977 0.27174 0.0
H3025 H 0.96263 0.7563 0.29444 0.0
H3026 H 0.94533 0.69992 0.27999 0.0
H3027 H 0.95592 0.6952 0.29453 0.0
H3028 H 0.96372 0.69768 0.2777 0.0
H3029 H 0.93303 0.74576 0.30881 0.0
H3030 H 0.94829 0.75542 0.31425 0.0
H3031 H 0.9441 0.73882 0.32203 0.0
C3032 C 0.81404 0.41419 0.30038 0.0
C3033 C 0.82064 0.41501 0.31339 0.0
C3034 C 0.80647 0.42532 0.29498 0.0
C3035 C 0.80543 0.43767 0.30274 0.0
C3036 C 0.81197 0.43856 0.31594 0.0
C3037 C 0.81946 0.4272 0.32113 0.0
C3038 C 0.79955 0.42384 0.28092 0.0
C3039 C 0.81116 0.45155 0.32451 0.0
C3040 C 0.79569 0.46866 0.28033 0.0
C3041 C 0.78118 0.46857 0.28163 0.0
C3042 C 0.80387 0.45925 0.28788 0.0
C3043 C 0.79738 0.44951 0.29692 0.0
C3044 C 0.78286 0.4501 0.29906 0.0
C3045 C 0.77495 0.45963 0.29141 0.0
C3046 C 0.81934 0.45907 0.28538 0.0
C3047 C 0.7755 0.43999 0.30865 0.0
H3048 H 0.8147 0.40473 0.29443 0.0
H3049 H 0.82462 0.42797 0.33115 0.0
H3050 H 0.78818 0.4253 0.28187 0.0
H3051 H 0.80356 0.43198 0.27374 0.0
H3052 H 0.80132 0.41355 0.27622 0.0
H3053 H 0.81665 0.45054 0.33465 0.0
H3054 H 0.8158 0.46044 0.31871 0.0
H3055 H 0.80014 0.45404 0.32647 0.0
H3056 H 0.80059 0.47545 0.27273 0.0
H3057 H 0.76375 0.45961 0.29258 0.0
H3058 H 0.82189 0.44979 0.27923 0.0
H3059 H 0.82512 0.45838 0.29536 0.0
H3060 H 0.82303 0.46843 0.27963 0.0
H3061 H 0.77546 0.42951 0.30398 0.0
H3062 H 0.76457 0.44294 0.31054 0.0
H3063 H 0.78104 0.43931 0.31876 0.0
C3064 C 0.19608 0.58924 0.7124 0.0
C3065 C 0.20156 0.6028 0.71317 0.0
C3066 C 0.20324 0.57797 0.71822 0.0
C3067 C 0.21622 0.58029 0.72492 0.0
C3068 C 0.22194 0.59391 0.72543 0.0
C3069 C 0.21455 0.60496 0.71958 0.0
C3070 C 0.19675 0.56364 0.7175 0.0
C3071 C 0.2358 0.59686 0.73237 0.0
C3072 C 0.22995 0.55643 0.75322 0.0
C3073 C 0.24051 0.54947 0.74629 0.0
C3074 C 0.22149 0.56596 0.74622 0.0
C3075 C 0.22366 0.56868 0.73192 0.0
C3076 C 0.23378 0.56111 0.72469 0.0
C3077 C 0.24207 0.55157 0.73196 0.0
C3078 C 0.21073 0.57366 0.75432 0.0
C3079 C 0.23643 0.56367 0.70946 0.0
H3080 H 0.186 0.58748 0.70758 0.0
H3081 H 0.21896 0.61536 0.72004 0.0
H3082 H 0.20415 0.55631 0.71288 0.0
H3083 H 0.19441 0.55984 0.72813 0.0
H3084 H 0.18699 0.56343 0.71127 0.0
H3085 H 0.23905 0.60793 0.73145 0.0
H3086 H 0.23523 0.59408 0.74355 0.0
H3087 H 0.24395 0.5904 0.72771 0.0
H3088 H 0.22863 0.55476 0.76428 0.0
H3089 H 0.2503 0.54636 0.72656 0.0
H3090 H 0.20054 0.57321 0.74886 0.0
H3091 H 0.21389 0.58475 0.7551 0.0
H3092 H 0.20941 0.56942 0.76498 0.0
H3093 H 0.22651 0.56344 0.70351 0.0
H3094 H 0.2435 0.55591 0.70501 0.0
H3095 H 0.2412 0.57413 0.70803 0.0
C3096 C 0.19285 0.43346 0.31249 0.0
C3097 C 0.19867 0.42041 0.31494 0.0
C3098 C 0.20069 0.44432 0.30643 0.0
C3099 C 0.21466 0.44207 0.30265 0.0
C3100 C 0.22066 0.42901 0.30533 0.0
C3101 C 0.21261 0.41837 0.31145 0.0
C3102 C 0.19396 0.45812 0.30384 0.0
C3103 C 0.2355 0.42615 0.30141 0.0
C3104 C 0.23232 0.46266 0.27383 0.0
C3105 C 0.24157 0.47124 0.28131 0.0
C3106 C 0.22303 0.45359 0.28066 0.0
C3107 C 0.22293 0.4531 0.29535 0.0
C3108 C 0.23162 0.46235 0.30297 0.0
C3109 C 0.24086 0.4713 0.29585 0.0
C3110 C 0.21389 0.44399 0.27212 0.0
C3111 C 0.23177 0.46222 0.31863 0.0
H3112 H 0.18214 0.43517 0.31531 0.0
H3113 H 0.21714 0.40829 0.31312 0.0
H3114 H 0.20026 0.46655 0.30868 0.0
H3115 H 0.19352 0.46029 0.29253 0.0
H3116 H 0.18323 0.45842 0.30802 0.0
H3117 H 0.23876 0.41561 0.30463 0.0
H3118 H 0.2367 0.42716 0.28999 0.0
H3119 H 0.24264 0.43388 0.30628 0.0
H3120 H 0.23271 0.46268 0.26258 0.0
H3121 H 0.24806 0.47778 0.30172 0.0
H3122 H 0.20294 0.44452 0.27556 0.0
H3123 H 0.21726 0.43314 0.27367 0.0
H3124 H 0.21432 0.44649 0.26086 0.0
H3125 H 0.22102 0.46249 0.32269 0.0
H3126 H 0.23781 0.47112 0.32297 0.0
H3127 H 0.23648 0.45249 0.32245 0.0
C3128 C 0.09195 0.70335 0.31965 0.0
C3129 C 0.10431 0.70213 0.31212 0.0
C3130 C 0.08066 0.71081 0.31425 0.0
C3131 C 0.08176 0.71725 0.30103 0.0
C3132 C 0.09429 0.71624 0.29351 0.0
C3133 C 0.10537 0.70871 0.29912 0.0
C3134 C 0.06748 0.71163 0.32258 0.0
C3135 C 0.09597 0.72304 0.27944 0.0
C3136 C 0.05058 0.72596 0.2783 0.0
C3137 C 0.05019 0.74043 0.27952 0.0
C3138 C 0.06029 0.71816 0.28587 0.0
C3139 C 0.06986 0.72498 0.29488 0.0
C3140 C 0.06891 0.73946 0.29682 0.0
C3141 C 0.0591 0.747 0.28913 0.0
C3142 C 0.06088 0.70274 0.28353 0.0
C3143 C 0.07883 0.74715 0.30638 0.0
H3144 H 0.091 0.6982 0.32964 0.0
H3145 H 0.11495 0.70803 0.29334 0.0
H3146 H 0.06476 0.72262 0.32422 0.0
H3147 H 0.05874 0.7067 0.31676 0.0
H3148 H 0.06842 0.70643 0.33286 0.0
H3149 H 0.10643 0.7214 0.27498 0.0
H3150 H 0.08803 0.71884 0.27211 0.0
H3151 H 0.0943 0.73435 0.28024 0.0
H3152 H 0.04385 0.7208 0.27081 0.0
H3153 H 0.05875 0.75816 0.29025 0.0
H3154 H 0.0614 0.6971 0.29359 0.0
H3155 H 0.07045 0.70033 0.27771 0.0
H3156 H 0.05176 0.69877 0.27754 0.0
H3157 H 0.07943 0.74186 0.31662 0.0
H3158 H 0.07571 0.75805 0.30799 0.0
H3159 H 0.08941 0.74721 0.30188 0.0
C3160 C 0.80642 0.60357 0.31085 0.0
C3161 C 0.81143 0.60108 0.32434 0.0
C3162 C 0.80026 0.59289 0.30295 0.0
C3163 C 0.7991 0.57934 0.30862 0.0
C3164 C 0.80443 0.57667 0.3221 0.0
C3165 C 0.81049 0.58757 0.3298 0.0
C3166 C 0.79466 0.59622 0.28864 0.0
C3167 C 0.8035 0.56236 0.32847 0.0
C3168 C 0.77007 0.55708 0.29301 0.0
C3169 C 0.77717 0.54949 0.28299 0.0
C3170 C 0.77716 0.56641 0.30179 0.0
C3171 C 0.79175 0.56819 0.30061 0.0
C3172 C 0.79908 0.55999 0.29106 0.0
C3173 C 0.79171 0.55075 0.28236 0.0
C3174 C 0.76893 0.57486 0.31187 0.0
C3175 C 0.81464 0.5615 0.28953 0.0
H3176 H 0.80692 0.61399 0.30661 0.0
H3177 H 0.81449 0.58551 0.34015 0.0
H3178 H 0.79929 0.58929 0.28085 0.0
H3179 H 0.78325 0.59436 0.28837 0.0
H3180 H 0.79684 0.60714 0.28553 0.0
H3181 H 0.80875 0.56183 0.33877 0.0
H3182 H 0.79243 0.55922 0.32976 0.0
H3183 H 0.80826 0.55471 0.32149 0.0
H3184 H 0.75886 0.55603 0.29367 0.0
H3185 H 0.79727 0.54505 0.27456 0.0
H3186 H 0.76947 0.58595 0.30879 0.0
H3187 H 0.77345 0.57403 0.32247 0.0
H3188 H 0.75783 0.57153 0.31225 0.0
H3189 H 0.81723 0.57179 0.28495 0.0
H3190 H 0.81896 0.55338 0.28277 0.0
H3191 H 0.81984 0.56097 0.29983 0.0
C3192 C 0.9282 0.31556 0.31967 0.0
C3193 C 0.91539 0.30841 0.32055 0.0
C3194 C 0.93937 0.31007 0.31223 0.0
C3195 C 0.93767 0.29717 0.30544 0.0
C3196 C 0.9247 0.29003 0.30613 0.0
C3197 C 0.91376 0.29572 0.31366 0.0
C3198 C 0.95302 0.31798 0.31178 0.0
C3199 C 0.92237 0.27631 0.29894 0.0
C3200 C 0.96028 0.28598 0.27546 0.0
C3201 C 0.96857 0.27587 0.28179 0.0
C3202 C 0.9507 0.29354 0.28316 0.0
C3203 C 0.94936 0.29098 0.29759 0.0
C3204 C 0.95832 0.28143 0.3042 0.0
C3205 C 0.9678 0.27399 0.29622 0.0
C3206 C 0.94144 0.30368 0.2757 0.0
C3207 C 0.9573 0.27844 0.31956 0.0
H3208 H 0.92959 0.32531 0.32506 0.0
H3209 H 0.90384 0.29023 0.31408 0.0
H3210 H 0.96134 0.31166 0.31655 0.0
H3211 H 0.95603 0.32004 0.30085 0.0
H3212 H 0.95258 0.32801 0.31733 0.0
H3213 H 0.91164 0.27212 0.3004 0.0
H3214 H 0.92429 0.2775 0.28765 0.0
H3215 H 0.92982 0.26861 0.30301 0.0
H3216 H 0.96094 0.28762 0.26434 0.0
H3217 H 0.97405 0.26612 0.3012 0.0
H3218 H 0.94134 0.3137 0.28126 0.0
H3219 H 0.93061 0.29953 0.2755 0.0
H3220 H 0.94479 0.30561 0.26483 0.0
H3221 H 0.95724 0.28823 0.32551 0.0
H3222 H 0.96601 0.27201 0.3234 0.0
H3223 H 0.94737 0.27283 0.32172 0.0
C3224 C 0.8198 0.43148 0.70568 0.0
C3225 C 0.81926 0.4182 0.71172 0.0
C3226 C 0.81253 0.44254 0.71148 0.0
C3227 C 0.80464 0.44032 0.72368 0.0
C3228 C 0.80411 0.42695 0.72982 0.0
C3229 C 0.81136 0.41606 0.72375 0.0
C3230 C 0.81324 0.4566 0.70452 0.0
C3231 C 0.79593 0.42414 0.7429 0.0
C3232 C 0.79533 0.46971 0.74788 0.0
C3233 C 0.7811 0.47114 0.7451 0.0
C3234 C 0.8033 0.46015 0.74055 0.0
C3235 C 0.7969 0.45189 0.73012 0.0
C3236 C 0.78272 0.4539 0.72671 0.0
C3237 C 0.77499 0.46344 0.73428 0.0
C3238 C 0.81836 0.45831 0.74456 0.0
C3239 C 0.77553 0.44547 0.71555 0.0
H3240 H 0.82578 0.43317 0.69632 0.0
H3241 H 0.81106 0.40589 0.72859 0.0
H3242 H 0.80262 0.45993 0.70161 0.0
H3243 H 0.81757 0.4644 0.71185 0.0
H3244 H 0.81976 0.45661 0.69505 0.0
H3245 H 0.79666 0.41319 0.74644 0.0
H3246 H 0.7998 0.43098 0.75135 0.0
H3247 H 0.78482 0.42653 0.74113 0.0
H3248 H 0.80008 0.4755 0.75633 0.0
H3249 H 0.764 0.46458 0.73204 0.0
H3250 H 0.82502 0.45862 0.73521 0.0
H3251 H 0.81964 0.44801 0.74954 0.0
H3252 H 0.82212 0.4664 0.75189 0.0
H3253 H 0.78175 0.44565 0.7059 0.0
H3254 H 0.76496 0.44931 0.71312 0.0
H3255 H 0.77457 0.43451 0.719 0.0
C3256 C 0.09038 0.31049 0.69799 0.0
C3257 C 0.10395 0.30995 0.7034 0.0
C3258 C 0.07904 0.30477 0.70533 0.0
C3259 C 0.0813 0.29843 0.71844 0.0
C3260 C 0.09494 0.29813 0.72408 0.0
C3261 C 0.10607 0.30385 0.71649 0.0
C3262 C 0.06468 0.30523 0.69894 0.0
C3263 C 0.09782 0.29159 0.73807 0.0
C3264 C 0.05242 0.2922 0.74468 0.0
C3265 C 0.05021 0.27784 0.74361 0.0
C3266 C 0.06204 0.2992 0.73609 0.0
C3267 C 0.06958 0.29167 0.72616 0.0
C3268 C 0.06676 0.27732 0.72449 0.0
C3269 C 0.05715 0.27059 0.73325 0.0
C3270 C 0.06475 0.31449 0.73824 0.0
C3271 C 0.07443 0.26891 0.71393 0.0
H3272 H 0.08867 0.31507 0.68783 0.0
H3273 H 0.11649 0.30358 0.72083 0.0
H3274 H 0.06077 0.29452 0.69701 0.0
H3275 H 0.05736 0.3101 0.7062 0.0
H3276 H 0.06455 0.31107 0.68896 0.0
H3277 H 0.10893 0.29262 0.7412 0.0
H3278 H 0.09137 0.29647 0.74613 0.0
H3279 H 0.09493 0.28042 0.73783 0.0
H3280 H 0.04721 0.29785 0.75276 0.0
H3281 H 0.05539 0.2595 0.73232 0.0
H3282 H 0.06455 0.32012 0.72816 0.0
H3283 H 0.07525 0.31609 0.74284 0.0
H3284 H 0.05701 0.31914 0.74524 0.0
H3285 H 0.07406 0.27404 0.7036 0.0
H3286 H 0.07005 0.25823 0.71296 0.0
H3287 H 0.08553 0.26822 0.71703 0.0
C3288 C 0.92818 0.71374 0.6928 0.0
C3289 C 0.91496 0.71148 0.69856 0.0
C3290 C 0.93908 0.71974 0.70064 0.0
C3291 C 0.9367 0.72365 0.71455 0.0
C3292 C 0.92342 0.72127 0.72046 0.0
C3293 C 0.91274 0.71521 0.71241 0.0
C3294 C 0.95312 0.722 0.69401 0.0
C3295 C 0.92041 0.72535 0.73523 0.0
C3296 C 0.96609 0.72926 0.74068 0.0
C3297 C 0.96687 0.74378 0.74138 0.0
C3298 C 0.95675 0.72254 0.73155 0.0
C3299 C 0.94794 0.73052 0.72293 0.0
C3300 C 0.94917 0.74517 0.72308 0.0
C3301 C 0.95863 0.7516 0.73227 0.0
C3302 C 0.95582 0.70692 0.73166 0.0
C3303 C 0.94003 0.75407 0.71401 0.0
H3304 H 0.93003 0.71074 0.68216 0.0
H3305 H 0.90252 0.71368 0.71688 0.0
H3306 H 0.95583 0.73322 0.69386 0.0
H3307 H 0.96125 0.71674 0.70022 0.0
H3308 H 0.95339 0.71806 0.68321 0.0
H3309 H 0.90963 0.72255 0.73836 0.0
H3310 H 0.92776 0.72021 0.74245 0.0
H3311 H 0.92196 0.7367 0.73643 0.0
H3312 H 0.97228 0.72312 0.74779 0.0
H3313 H 0.95929 0.76282 0.73263 0.0
H3314 H 0.95619 0.70287 0.72092 0.0
H3315 H 0.94574 0.70349 0.73616 0.0
H3316 H 0.96434 0.70221 0.73784 0.0
H3317 H 0.94057 0.75071 0.70304 0.0
H3318 H 0.94301 0.76523 0.71456 0.0
H3319 H 0.92905 0.75284 0.71732 0.0
C3320 C 0.70677 0.21304 0.60655 0.0
C3321 C 0.70831 0.19862 0.60744 0.0
C3322 C 0.71312 0.22084 0.59588 0.0
C3323 C 0.72129 0.2141 0.58586 0.0
C3324 C 0.72235 0.19949 0.58633 0.0
C3325 C 0.71582 0.19195 0.59706 0.0
C3326 C 0.71165 0.23639 0.59573 0.0
C3327 C 0.73095 0.19188 0.57589 0.0
C3328 C 0.73316 0.23407 0.55351 0.0
C3329 C 0.7464 0.2388 0.55767 0.0
C3330 C 0.72481 0.22599 0.56253 0.0
C3331 C 0.72993 0.22242 0.57592 0.0
C3332 C 0.74344 0.2269 0.57997 0.0
C3333 C 0.75146 0.23503 0.57083 0.0
C3334 C 0.71044 0.22148 0.55787 0.0
C3335 C 0.74943 0.2232 0.59403 0.0
H3336 H 0.70109 0.21835 0.61454 0.0
H3337 H 0.71683 0.18079 0.59745 0.0
H3338 H 0.72178 0.24137 0.59845 0.0
H3339 H 0.70873 0.24007 0.58519 0.0
H3340 H 0.70374 0.23989 0.60321 0.0
H3341 H 0.72967 0.18045 0.57686 0.0
H3342 H 0.72807 0.19503 0.56517 0.0
H3343 H 0.7421 0.19462 0.57742 0.0
H3344 H 0.72922 0.237 0.54335 0.0
H3345 H 0.76179 0.23847 0.574 0.0
H3346 H 0.70257 0.22597 0.56482 0.0
H3347 H 0.70929 0.21005 0.55862 0.0
H3348 H 0.70814 0.22476 0.54703 0.0
H3349 H 0.74285 0.22745 0.60234 0.0
H3350 H 0.76022 0.22726 0.59547 0.0
H3351 H 0.74946 0.21177 0.59539 0.0
C3352 C 0.30896 0.19797 0.59163 0.0
C3353 C 0.3093 0.20342 0.6051 0.0
C3354 C 0.30317 0.20544 0.58048 0.0
C3355 C 0.29764 0.21872 0.58285 0.0
C3356 C 0.29821 0.22437 0.59638 0.0
C3357 C 0.30399 0.21666 0.60732 0.0
C3358 C 0.30271 0.19903 0.56623 0.0
C3359 C 0.29253 0.23853 0.59935 0.0
C3360 C 0.29186 0.24506 0.55393 0.0
C3361 C 0.27735 0.24446 0.55239 0.0
C3362 C 0.29872 0.23628 0.56334 0.0
C3363 C 0.29088 0.22662 0.57136 0.0
C3364 C 0.27633 0.22541 0.56922 0.0
C3365 C 0.26975 0.23436 0.5598 0.0
C3366 C 0.31424 0.23791 0.5653 0.0
C3367 C 0.2676 0.21517 0.57744 0.0
H3368 H 0.31292 0.18769 0.58986 0.0
H3369 H 0.3044 0.22102 0.61766 0.0
H3370 H 0.29174 0.19749 0.56287 0.0
H3371 H 0.30773 0.2061 0.55857 0.0
H3372 H 0.30797 0.18889 0.56598 0.0
H3373 H 0.29413 0.24161 0.61035 0.0
H3374 H 0.29763 0.24642 0.59258 0.0
H3375 H 0.28123 0.23864 0.59698 0.0
H3376 H 0.29779 0.25294 0.54836 0.0
H3377 H 0.25854 0.23378 0.55856 0.0
H3378 H 0.31929 0.22768 0.56499 0.0
H3379 H 0.31649 0.24243 0.57566 0.0
H3380 H 0.31901 0.24476 0.55727 0.0
H3381 H 0.27214 0.20469 0.57699 0.0
H3382 H 0.2567 0.21454 0.57358 0.0
H3383 H 0.26749 0.21828 0.5885 0.0
C3384 C 0.31917 0.81286 0.59743 0.0
C3385 C 0.31026 0.81949 0.60667 0.0
C3386 C 0.31385 0.80465 0.58653 0.0
C3387 C 0.29928 0.80297 0.58482 0.0
C3388 C 0.29026 0.81004 0.5938 0.0
C3389 C 0.29584 0.81822 0.60455 0.0
C3390 C 0.32383 0.79734 0.57717 0.0
C3391 C 0.27466 0.80855 0.59237 0.0
C3392 C 0.28279 0.78745 0.5521 0.0
C3393 C 0.2798 0.77386 0.55653 0.0
C3394 C 0.28953 0.797 0.56102 0.0
C3395 C 0.29341 0.7928 0.57463 0.0
C3396 C 0.29092 0.77893 0.5789 0.0
C3397 C 0.28422 0.76966 0.56981 0.0
C3398 C 0.29209 0.81167 0.55605 0.0
C3399 C 0.29492 0.77395 0.59326 0.0
H3400 H 0.33032 0.8137 0.599 0.0
H3401 H 0.28887 0.82354 0.61141 0.0
H3402 H 0.32318 0.78601 0.57916 0.0
H3403 H 0.321 0.79907 0.56612 0.0
H3404 H 0.33476 0.80088 0.57885 0.0
H3405 H 0.26908 0.81547 0.59953 0.0
H3406 H 0.27136 0.81093 0.58157 0.0
H3407 H 0.27142 0.79768 0.59463 0.0
H3408 H 0.27943 0.79075 0.54185 0.0
H3409 H 0.28225 0.75907 0.57319 0.0
H3410 H 0.3031 0.8148 0.55788 0.0
H3411 H 0.28557 0.81883 0.56205 0.0
H3412 H 0.28962 0.81298 0.54484 0.0
H3413 H 0.30612 0.7761 0.59527 0.0
H3414 H 0.29286 0.76268 0.59473 0.0
H3415 H 0.28897 0.77966 0.60115 0.0
C3416 C 0.70504 0.80858 0.60408 0.0
C3417 C 0.70741 0.82294 0.60512 0.0
C3418 C 0.71126 0.80084 0.59355 0.0
C3419 C 0.72014 0.80757 0.58386 0.0
C3420 C 0.72209 0.82213 0.58449 0.0
C3421 C 0.71568 0.82962 0.59506 0.0
C3422 C 0.70884 0.78535 0.59321 0.0
C3423 C 0.73148 0.82972 0.5744 0.0
C3424 C 0.74947 0.78636 0.56931 0.0
C3425 C 0.74458 0.78314 0.55594 0.0
C3426 C 0.74165 0.79434 0.57839 0.0
C3427 C 0.72852 0.79925 0.57406 0.0
C3428 C 0.72356 0.7962 0.5605 0.0
C3429 C 0.73171 0.78824 0.55154 0.0
C3430 C 0.74745 0.79749 0.59267 0.0
C3431 C 0.70959 0.80117 0.55554 0.0
H3432 H 0.69878 0.80327 0.61183 0.0
H3433 H 0.71734 0.84074 0.59557 0.0
H3434 H 0.70599 0.78198 0.58256 0.0
H3435 H 0.71858 0.78004 0.59615 0.0
H3436 H 0.70051 0.7819 0.60044 0.0
H3437 H 0.73095 0.84115 0.57549 0.0
H3438 H 0.7424 0.82658 0.57618 0.0
H3439 H 0.72869 0.82694 0.56357 0.0
H3440 H 0.75953 0.78265 0.57267 0.0
H3441 H 0.7279 0.78577 0.54122 0.0
H3442 H 0.74035 0.79327 0.60073 0.0
H3443 H 0.74822 0.80887 0.59417 0.0
H3444 H 0.75791 0.79305 0.59436 0.0
H3445 H 0.70128 0.79685 0.56232 0.0
H3446 H 0.70731 0.79811 0.54465 0.0
H3447 H 0.70918 0.81262 0.55626 0.0
C3448 C 0.70439 0.80763 0.42023 0.0
C3449 C 0.70673 0.82201 0.41944 0.0
C3450 C 0.71061 0.79961 0.43073 0.0
C3451 C 0.71947 0.80609 0.44065 0.0
C3452 C 0.72138 0.82066 0.44027 0.0
C3453 C 0.71496 0.82844 0.42973 0.0
C3454 C 0.70825 0.78411 0.4308 0.0
C3455 C 0.73075 0.828 0.45062 0.0
C3456 C 0.73143 0.78621 0.47291 0.0
C3457 C 0.74441 0.78149 0.46865 0.0
C3458 C 0.72307 0.79413 0.46389 0.0
C3459 C 0.72793 0.79753 0.4504 0.0
C3460 C 0.7411 0.7929 0.44616 0.0
C3461 C 0.74914 0.78495 0.45531 0.0
C3462 C 0.70905 0.7988 0.46875 0.0
C3463 C 0.74679 0.79641 0.43196 0.0
H3464 H 0.69815 0.80253 0.4123 0.0
H3465 H 0.71659 0.83957 0.4294 0.0
H3466 H 0.71798 0.77892 0.42784 0.0
H3467 H 0.70549 0.78041 0.44137 0.0
H3468 H 0.69988 0.78085 0.42345 0.0
H3469 H 0.73018 0.83945 0.44969 0.0
H3470 H 0.72797 0.8249 0.46136 0.0
H3471 H 0.74167 0.82494 0.44894 0.0
H3472 H 0.72774 0.78356 0.48321 0.0
H3473 H 0.75929 0.78158 0.45205 0.0
H3474 H 0.70079 0.79478 0.46167 0.0
H3475 H 0.7086 0.81028 0.4684 0.0
H3476 H 0.70673 0.79523 0.47948 0.0
H3477 H 0.75722 0.79199 0.43027 0.0
H3478 H 0.74758 0.80783 0.43063 0.0
H3479 H 0.73961 0.79243 0.4238 0.0
C3480 C 0.69497 0.20821 0.43461 0.0
C3481 C 0.70068 0.20734 0.42127 0.0
C3482 C 0.70247 0.21435 0.44563 0.0
C3483 C 0.71601 0.21982 0.44325 0.0
C3484 C 0.72193 0.21873 0.42989 0.0
C3485 C 0.71422 0.2125 0.41909 0.0
C3486 C 0.69583 0.2152 0.45973 0.0
C3487 C 0.7363 0.22449 0.42688 0.0
C3488 C 0.73124 0.24896 0.46529 0.0
C3489 C 0.74116 0.24202 0.47336 0.0
C3490 C 0.72258 0.24178 0.45587 0.0
C3491 C 0.72381 0.22725 0.45451 0.0
C3492 C 0.73325 0.22007 0.46319 0.0
C3493 C 0.74182 0.22753 0.47251 0.0
C3494 C 0.71262 0.24986 0.44689 0.0
C3495 C 0.73482 0.20458 0.46213 0.0
H3496 H 0.68458 0.20409 0.43644 0.0
H3497 H 0.71866 0.21205 0.4088 0.0
H3498 H 0.7027 0.21054 0.46774 0.0
H3499 H 0.69447 0.22621 0.46256 0.0
H3500 H 0.68553 0.20983 0.46007 0.0
H3501 H 0.73962 0.22236 0.41609 0.0
H3502 H 0.73653 0.23586 0.42847 0.0
H3503 H 0.74398 0.21996 0.43418 0.0
H3504 H 0.73056 0.26014 0.46601 0.0
H3505 H 0.74954 0.22209 0.47859 0.0
H3506 H 0.70201 0.24521 0.44749 0.0
H3507 H 0.71591 0.24937 0.43589 0.0
H3508 H 0.71215 0.26092 0.44995 0.0
H3509 H 0.7245 0.19928 0.46244 0.0
H3510 H 0.74143 0.20036 0.47061 0.0
H3511 H 0.73963 0.20205 0.45205 0.0
C3512 C 0.32593 0.22005 0.42925 0.0
C3513 C 0.31923 0.21037 0.42053 0.0
C3514 C 0.31864 0.22697 0.43963 0.0
C3515 C 0.30423 0.2243 0.44131 0.0
C3516 C 0.29749 0.21421 0.43289 0.0
C3517 C 0.30507 0.20735 0.42266 0.0
C3518 C 0.32624 0.23762 0.4484 0.0
C3519 C 0.28214 0.21105 0.43431 0.0
C3520 C 0.2859 0.23757 0.47356 0.0
C3521 C 0.28015 0.24991 0.46854 0.0
C3522 C 0.29378 0.22908 0.46486 0.0
C3523 C 0.29595 0.23304 0.45083 0.0
C3524 C 0.29027 0.24553 0.44577 0.0
C3525 C 0.28256 0.25382 0.45468 0.0
C3526 C 0.29975 0.21588 0.47066 0.0
C3527 C 0.29235 0.2502 0.43092 0.0
H3528 H 0.33681 0.22263 0.42764 0.0
H3529 H 0.29983 0.19972 0.41618 0.0
H3530 H 0.32252 0.24812 0.44569 0.0
H3531 H 0.32405 0.23583 0.45956 0.0
H3532 H 0.33767 0.23745 0.44685 0.0
H3533 H 0.27869 0.20216 0.4278 0.0
H3534 H 0.27957 0.20872 0.44529 0.0
H3535 H 0.27613 0.22028 0.43116 0.0
H3536 H 0.2841 0.23447 0.48424 0.0
H3537 H 0.27851 0.26351 0.45077 0.0
H3538 H 0.31122 0.21606 0.46947 0.0
H3539 H 0.29564 0.20687 0.46474 0.0
H3540 H 0.29726 0.21433 0.48181 0.0
H3541 H 0.3036 0.25161 0.42879 0.0
H3542 H 0.28706 0.26009 0.42855 0.0
H3543 H 0.28827 0.24215 0.42371 0.0
C3544 C 0.31218 0.82279 0.43101 0.0
C3545 C 0.31197 0.81686 0.41773 0.0
C3546 C 0.30616 0.81583 0.44243 0.0
C3547 C 0.2998 0.80262 0.44056 0.0
C3548 C 0.29986 0.79646 0.42725 0.0
C3549 C 0.30592 0.80364 0.41603 0.0
C3550 C 0.3063 0.82277 0.45643 0.0
C3551 C 0.29328 0.78236 0.42479 0.0
C3552 C 0.29232 0.77759 0.47044 0.0
C3553 C 0.27788 0.7788 0.47185 0.0
C3554 C 0.29974 0.78576 0.46076 0.0
C3555 C 0.29256 0.79538 0.45229 0.0
C3556 C 0.27813 0.79721 0.45426 0.0
C3557 C 0.27099 0.78891 0.46399 0.0
C3558 C 0.31511 0.78351 0.45904 0.0
C3559 C 0.27008 0.80742 0.44556 0.0
H3560 H 0.3167 0.83305 0.4324 0.0
H3561 H 0.30591 0.79889 0.40587 0.0
H3562 H 0.29549 0.82493 0.45961 0.0
H3563 H 0.31079 0.81578 0.46441 0.0
H3564 H 0.31236 0.83267 0.45637 0.0
H3565 H 0.29461 0.77881 0.41394 0.0
H3566 H 0.2979 0.77461 0.43192 0.0
H3567 H 0.28199 0.78267 0.42704 0.0
H3568 H 0.29771 0.76971 0.47635 0.0
H3569 H 0.25985 0.78998 0.46513 0.0
H3570 H 0.32087 0.79356 0.45896 0.0
H3571 H 0.31697 0.77846 0.44892 0.0
H3572 H 0.31944 0.77686 0.46742 0.0
H3573 H 0.27531 0.81775 0.4457 0.0
H3574 H 0.25924 0.80852 0.44923 0.0
H3575 H 0.26974 0.80391 0.43462 0.0
C3576 C 0.59058 0.20888 0.70023 0.0
C3577 C 0.60407 0.20922 0.7059 0.0
C3578 C 0.57936 0.21468 0.70731 0.0
C3579 C 0.58165 0.22093 0.72042 0.0
C3580 C 0.59519 0.22103 0.72632 0.0
C3581 C 0.60621 0.21521 0.71899 0.0
C3582 C 0.56512 0.21442 0.70064 0.0
C3583 C 0.59809 0.22748 0.74031 0.0
C3584 C 0.55838 0.24901 0.73432 0.0
C3585 C 0.55081 0.24181 0.74455 0.0
C3586 C 0.56795 0.2422 0.72592 0.0
C3587 C 0.57009 0.22782 0.72783 0.0
C3588 C 0.56194 0.22036 0.73765 0.0
C3589 C 0.55238 0.22744 0.74587 0.0
C3590 C 0.57627 0.25054 0.71548 0.0
C3591 C 0.5639 0.20505 0.74004 0.0
H3592 H 0.58886 0.2044 0.69007 0.0
H3593 H 0.61654 0.21534 0.72355 0.0
H3594 H 0.55741 0.20962 0.7078 0.0
H3595 H 0.56176 0.22517 0.69852 0.0
H3596 H 0.5649 0.20859 0.69073 0.0
H3597 H 0.60908 0.22629 0.74367 0.0
H3598 H 0.59575 0.23869 0.73991 0.0
H3599 H 0.59124 0.22266 0.74828 0.0
H3600 H 0.55713 0.26011 0.73319 0.0
H3601 H 0.54669 0.22184 0.75386 0.0
H3602 H 0.57587 0.24546 0.70518 0.0
H3603 H 0.58733 0.25104 0.71881 0.0
H3604 H 0.57246 0.26129 0.71433 0.0
H3605 H 0.56364 0.19943 0.73003 0.0
H3606 H 0.55581 0.20048 0.74695 0.0
H3607 H 0.57424 0.20333 0.74486 0.0
C3608 C 0.30488 0.10003 0.70554 0.0
C3609 C 0.31892 0.1026 0.70888 0.0
C3610 C 0.29712 0.08964 0.71243 0.0
C3611 C 0.30357 0.08149 0.72284 0.0
C3612 C 0.3179 0.08353 0.72575 0.0
C3613 C 0.32537 0.09408 0.71881 0.0
C3614 C 0.28185 0.08784 0.70903 0.0
C3615 C 0.3252 0.07503 0.73672 0.0
C3616 C 0.2811 0.06836 0.7525 0.0
C3617 C 0.27861 0.05443 0.74896 0.0
C3618 C 0.28909 0.0772 0.74404 0.0
C3619 C 0.29501 0.07202 0.73176 0.0
C3620 C 0.29277 0.05792 0.72819 0.0
C3621 C 0.28458 0.04929 0.73683 0.0
C3622 C 0.2912 0.09214 0.74828 0.0
C3623 C 0.29902 0.052 0.71524 0.0
H3624 H 0.29985 0.10633 0.6977 0.0
H3625 H 0.33615 0.09602 0.72162 0.0
H3626 H 0.27927 0.07678 0.70706 0.0
H3627 H 0.2756 0.09109 0.71804 0.0
H3628 H 0.27871 0.09406 0.69983 0.0
H3629 H 0.33665 0.0767 0.73657 0.0
H3630 H 0.32135 0.07787 0.74713 0.0
H3631 H 0.32288 0.06383 0.73526 0.0
H3632 H 0.27689 0.07236 0.76205 0.0
H3633 H 0.28272 0.03856 0.73402 0.0
H3634 H 0.28742 0.09913 0.73993 0.0
H3635 H 0.30244 0.09445 0.74982 0.0
H3636 H 0.28568 0.09461 0.75802 0.0
H3637 H 0.29518 0.05767 0.70596 0.0
H3638 H 0.29647 0.0408 0.71401 0.0
H3639 H 0.31049 0.05337 0.71554 0.0
C3640 C 0.41469 0.80972 0.71995 0.0
C3641 C 0.41645 0.81499 0.70646 0.0
C3642 C 0.42578 0.80381 0.72731 0.0
C3643 C 0.43904 0.80313 0.72107 0.0
C3644 C 0.44102 0.8088 0.70761 0.0
C3645 C 0.42971 0.81467 0.70047 0.0
C3646 C 0.42321 0.79798 0.74168 0.0
C3647 C 0.45497 0.80827 0.70059 0.0
C3648 C 0.46856 0.79543 0.74638 0.0
C3649 C 0.46909 0.78094 0.74564 0.0
C3650 C 0.45935 0.80293 0.73788 0.0
C3651 C 0.4505 0.79577 0.72843 0.0
C3652 C 0.4517 0.78124 0.72701 0.0
C3653 C 0.46095 0.77402 0.73563 0.0
C3654 C 0.45847 0.81841 0.73969 0.0
C3655 C 0.44259 0.77318 0.71698 0.0
H3656 H 0.40455 0.81013 0.72475 0.0
H3657 H 0.43116 0.81861 0.69001 0.0
H3658 H 0.42492 0.78664 0.74172 0.0
H3659 H 0.43067 0.80266 0.74921 0.0
H3660 H 0.41248 0.79987 0.7453 0.0
H3661 H 0.4551 0.81408 0.6906 0.0
H3662 H 0.46321 0.81262 0.70749 0.0
H3663 H 0.45761 0.79734 0.69854 0.0
H3664 H 0.47473 0.80083 0.75417 0.0
H3665 H 0.46142 0.76283 0.73495 0.0
H3666 H 0.44857 0.82088 0.74488 0.0
H3667 H 0.45845 0.82374 0.72945 0.0
H3668 H 0.46721 0.82264 0.74605 0.0
H3669 H 0.43165 0.77334 0.72054 0.0
H3670 H 0.44577 0.76222 0.7161 0.0
H3671 H 0.44289 0.77805 0.70652 0.0
C3672 C 0.7008 0.92915 0.70401 0.0
C3673 C 0.69932 0.91671 0.71154 0.0
C3674 C 0.70849 0.94045 0.70944 0.0
C3675 C 0.71491 0.93925 0.72266 0.0
C3676 C 0.71361 0.92664 0.7302 0.0
C3677 C 0.70584 0.91557 0.72456 0.0
C3678 C 0.70959 0.95372 0.70112 0.0
C3679 C 0.7204 0.92484 0.74427 0.0
C3680 C 0.74552 0.96145 0.73485 0.0
C3681 C 0.73927 0.96986 0.74478 0.0
C3682 C 0.73759 0.95205 0.72687 0.0
C3683 C 0.72303 0.95106 0.7288 0.0
C3684 C 0.71654 0.96031 0.73799 0.0
C3685 C 0.72474 0.96959 0.74588 0.0
C3686 C 0.74495 0.94246 0.71714 0.0
C3687 C 0.70104 0.9597 0.74027 0.0
H3688 H 0.69571 0.93014 0.69399 0.0
H3689 H 0.70494 0.90593 0.73034 0.0
H3690 H 0.70495 0.96231 0.70699 0.0
H3691 H 0.72068 0.95655 0.6994 0.0
H3692 H 0.70426 0.9529 0.69088 0.0
H3693 H 0.71848 0.91434 0.74873 0.0
H3694 H 0.73179 0.92661 0.74345 0.0
H3695 H 0.71641 0.93262 0.75159 0.0
H3696 H 0.75674 0.96173 0.73383 0.0
H3697 H 0.71982 0.97595 0.75359 0.0
H3698 H 0.73949 0.94197 0.70697 0.0
H3699 H 0.74486 0.93183 0.72159 0.0
H3700 H 0.75592 0.94576 0.71541 0.0
H3701 H 0.69538 0.95923 0.73021 0.0
H3702 H 0.69738 0.96878 0.74617 0.0
H3703 H 0.69829 0.95015 0.74619 0.0
C3704 C 0.58979 0.81695 0.32017 0.0
C3705 C 0.60209 0.80959 0.32232 0.0
C3706 C 0.57868 0.81123 0.31239 0.0
C3707 C 0.57993 0.79788 0.30656 0.0
C3708 C 0.59239 0.7905 0.30857 0.0
C3709 C 0.60328 0.79642 0.31642 0.0
C3710 C 0.56555 0.81939 0.31053 0.0
C3711 C 0.59424 0.77629 0.30242 0.0
C3712 C 0.54941 0.77436 0.29671 0.0
C3713 C 0.54971 0.77516 0.28216 0.0
C3714 C 0.55859 0.78242 0.30487 0.0
C3715 C 0.56833 0.79146 0.29833 0.0
C3716 C 0.56797 0.79305 0.28371 0.0
C3717 C 0.55865 0.78491 0.27582 0.0
C3718 C 0.55854 0.7805 0.32043 0.0
C3719 C 0.57809 0.80261 0.27631 0.0
H3720 H 0.58876 0.82708 0.32479 0.0
H3721 H 0.61282 0.79077 0.31784 0.0
H3722 H 0.56324 0.82084 0.29932 0.0
H3723 H 0.55663 0.81355 0.31508 0.0
H3724 H 0.5663 0.82973 0.31551 0.0
H3725 H 0.60461 0.77197 0.30487 0.0
H3726 H 0.58613 0.76903 0.30644 0.0
H3727 H 0.59297 0.7768 0.29097 0.0
H3728 H 0.54263 0.76679 0.30171 0.0
H3729 H 0.55879 0.78571 0.26459 0.0
H3730 H 0.55894 0.79068 0.32571 0.0
H3731 H 0.56791 0.77475 0.32369 0.0
H3732 H 0.54919 0.77462 0.32402 0.0
H3733 H 0.57851 0.81292 0.28132 0.0
H3734 H 0.57533 0.804 0.26517 0.0
H3735 H 0.58868 0.79826 0.27698 0.0
C3736 C 0.7164 0.0933 0.33034 0.0
C3737 C 0.70845 0.10355 0.32379 0.0
C3738 C 0.72268 0.0828 0.32268 0.0
C3739 C 0.7209 0.08242 0.30808 0.0
C3740 C 0.71232 0.09231 0.30148 0.0
C3741 C 0.70623 0.10276 0.30939 0.0
C3742 C 0.73174 0.07249 0.33015 0.0
C3743 C 0.7101 0.09225 0.28595 0.0
C3744 C 0.75041 0.06785 0.28701 0.0
C3745 C 0.74539 0.05453 0.28367 0.0
C3746 C 0.74253 0.07694 0.2949 0.0
C3747 C 0.72922 0.07269 0.29962 0.0
C3748 C 0.72408 0.05922 0.29637 0.0
C3749 C 0.73228 0.05025 0.2885 0.0
C3750 C 0.74853 0.09112 0.29825 0.0
C3751 C 0.7099 0.05435 0.30113 0.0
H3752 H 0.71794 0.09361 0.34149 0.0
H3753 H 0.7002 0.11066 0.30419 0.0
H3754 H 0.72874 0.06176 0.32718 0.0
H3755 H 0.74273 0.07419 0.32706 0.0
H3756 H 0.73108 0.0734 0.34161 0.0
H3757 H 0.70194 0.09959 0.2826 0.0
H3758 H 0.71996 0.09521 0.28071 0.0
H3759 H 0.70711 0.0817 0.28238 0.0
H3760 H 0.76066 0.07112 0.28356 0.0
H3761 H 0.72836 0.03998 0.28594 0.0
H3762 H 0.74923 0.09244 0.30967 0.0
H3763 H 0.74159 0.09926 0.29415 0.0
H3764 H 0.75905 0.09282 0.29381 0.0
H3765 H 0.70934 0.05475 0.31262 0.0
H3766 H 0.70739 0.04361 0.29774 0.0
H3767 H 0.70184 0.06137 0.29697 0.0
C3768 C 0.41471 0.21447 0.31201 0.0
C3769 C 0.41676 0.2009 0.31684 0.0
C3770 C 0.42556 0.22217 0.30581 0.0
C3771 C 0.43883 0.21622 0.30443 0.0
C3772 C 0.44107 0.20266 0.30958 0.0
C3773 C 0.43001 0.19516 0.31569 0.0
C3774 C 0.42269 0.23658 0.30041 0.0
C3775 C 0.45508 0.19598 0.3084 0.0
C3776 C 0.46073 0.2316 0.27529 0.0
C3777 C 0.46908 0.24136 0.28238 0.0
C3778 C 0.45126 0.22296 0.28242 0.0
C3779 C 0.45011 0.22403 0.29702 0.0
C3780 C 0.45905 0.2333 0.30432 0.0
C3781 C 0.46842 0.24187 0.29692 0.0
C3782 C 0.44201 0.21317 0.27421 0.0
C3783 C 0.45821 0.2347 0.31989 0.0
H3784 H 0.40448 0.21893 0.31268 0.0
H3785 H 0.43173 0.18475 0.31955 0.0
H3786 H 0.43018 0.24414 0.30502 0.0
H3787 H 0.42413 0.23692 0.28899 0.0
H3788 H 0.41197 0.23991 0.30276 0.0
H3789 H 0.45533 0.18566 0.31354 0.0
H3790 H 0.45774 0.19473 0.2973 0.0
H3791 H 0.46325 0.20274 0.31312 0.0
H3792 H 0.46131 0.23104 0.26408 0.0
H3793 H 0.47471 0.24946 0.30247 0.0
H3794 H 0.43105 0.21649 0.27492 0.0
H3795 H 0.44251 0.20254 0.27861 0.0
H3796 H 0.44491 0.21282 0.26308 0.0
H3797 H 0.44821 0.23949 0.32265 0.0
H3798 H 0.46684 0.24121 0.32416 0.0
H3799 H 0.45845 0.22436 0.32496 0.0
C3800 C 0.31071 0.9238 0.32033 0.0
C3801 C 0.31903 0.91584 0.31163 0.0
C3802 C 0.30265 0.93466 0.31497 0.0
C3803 C 0.30283 0.93761 0.30054 0.0
C3804 C 0.31158 0.92995 0.2918 0.0
C3805 C 0.31958 0.91923 0.29744 0.0
C3806 C 0.29351 0.9426 0.32466 0.0
C3807 C 0.31209 0.93273 0.27636 0.0
C3808 C 0.27066 0.95217 0.28311 0.0
C3809 C 0.27461 0.96603 0.28055 0.0
C3810 C 0.27962 0.94298 0.28985 0.0
C3811 C 0.29291 0.94771 0.29433 0.0
C3812 C 0.29681 0.96182 0.29226 0.0
C3813 C 0.28759 0.97083 0.2854 0.0
C3814 C 0.27498 0.92807 0.29187 0.0
C3815 C 0.31084 0.96728 0.29698 0.0
H3816 H 0.31012 0.92124 0.33128 0.0
H3817 H 0.3262 0.91338 0.29066 0.0
H3818 H 0.295 0.95392 0.32303 0.0
H3819 H 0.28243 0.94007 0.3224 0.0
H3820 H 0.29567 0.94011 0.33574 0.0
H3821 H 0.32012 0.92653 0.27113 0.0
H3822 H 0.30183 0.93018 0.2716 0.0
H3823 H 0.31428 0.94387 0.27432 0.0
H3824 H 0.26049 0.94846 0.27973 0.0
H3825 H 0.29069 0.98152 0.2835 0.0
H3826 H 0.27565 0.92514 0.303 0.0
H3827 H 0.28196 0.92115 0.28611 0.0
H3828 H 0.26414 0.92615 0.28819 0.0
H3829 H 0.31257 0.96474 0.3081 0.0
H3830 H 0.31191 0.97868 0.29553 0.0
H3831 H 0.31914 0.96221 0.29102 0.0
C3832 C 0.70736 0.10543 0.728 0.0
C3833 C 0.7008 0.10441 0.71499 0.0
C3834 C 0.71499 0.0944 0.73356 0.0
C3835 C 0.71611 0.08197 0.72594 0.0
C3836 C 0.70964 0.08089 0.71273 0.0
C3837 C 0.70209 0.09214 0.70739 0.0
C3838 C 0.72184 0.09607 0.74763 0.0
C3839 C 0.71055 0.06781 0.70431 0.0
C3840 C 0.74639 0.05978 0.7375 0.0
C3841 C 0.74002 0.05079 0.74716 0.0
C3842 C 0.73862 0.06947 0.72991 0.0
C3843 C 0.72409 0.07018 0.73197 0.0
C3844 C 0.71747 0.0605 0.74098 0.0
C3845 C 0.72551 0.05093 0.74847 0.0
C3846 C 0.7461 0.07952 0.72036 0.0
C3847 C 0.702 0.06083 0.74342 0.0
H3848 H 0.70662 0.11494 0.73385 0.0
H3849 H 0.69695 0.09122 0.69738 0.0
H3850 H 0.71777 0.08803 0.7549 0.0
H3851 H 0.73321 0.09457 0.74677 0.0
H3852 H 0.72005 0.10643 0.75217 0.0
H3853 H 0.70517 0.06871 0.69411 0.0
H3854 H 0.72159 0.0653 0.70251 0.0
H3855 H 0.70584 0.05899 0.71015 0.0
H3856 H 0.75758 0.05963 0.73631 0.0
H3857 H 0.7205 0.04414 0.75599 0.0
H3858 H 0.74604 0.09004 0.72492 0.0
H3859 H 0.74072 0.0801 0.71016 0.0
H3860 H 0.75708 0.07659 0.71866 0.0
H3861 H 0.69948 0.07026 0.74936 0.0
H3862 H 0.69821 0.05161 0.74933 0.0
H3863 H 0.69627 0.06136 0.7334 0.0
C3864 C 0.69151 0.93071 0.31192 0.0
C3865 C 0.69731 0.91757 0.31375 0.0
C3866 C 0.69923 0.94172 0.30597 0.0
C3867 C 0.71306 0.93953 0.30168 0.0
C3868 C 0.71902 0.92634 0.30367 0.0
C3869 C 0.7111 0.91555 0.30969 0.0
C3870 C 0.69254 0.95565 0.30414 0.0
C3871 C 0.73371 0.92353 0.29917 0.0
C3872 C 0.73 0.96153 0.27342 0.0
C3873 C 0.73941 0.96978 0.28107 0.0
C3874 C 0.72095 0.95206 0.28003 0.0
C3875 C 0.72123 0.95083 0.29469 0.0
C3876 C 0.73013 0.95969 0.30252 0.0
C3877 C 0.73913 0.96905 0.29562 0.0
C3878 C 0.71158 0.94288 0.27128 0.0
C3879 C 0.7307 0.95878 0.31817 0.0
H3880 H 0.68092 0.9324 0.31517 0.0
H3881 H 0.7156 0.90539 0.31088 0.0
H3882 H 0.69897 0.96381 0.30928 0.0
H3883 H 0.69197 0.95837 0.29294 0.0
H3884 H 0.68188 0.95582 0.30849 0.0
H3885 H 0.73694 0.91282 0.30178 0.0
H3886 H 0.73461 0.92508 0.28779 0.0
H3887 H 0.74106 0.93094 0.30421 0.0
H3888 H 0.73004 0.96216 0.26218 0.0
H3889 H 0.74645 0.97526 0.30163 0.0
H3890 H 0.70071 0.9433 0.27498 0.0
H3891 H 0.71491 0.93196 0.27227 0.0
H3892 H 0.71178 0.94587 0.26012 0.0
H3893 H 0.72007 0.95898 0.32253 0.0
H3894 H 0.73699 0.96736 0.32279 0.0
H3895 H 0.73536 0.9488 0.32135 0.0
C3896 C 0.60681 0.21451 0.30788 0.0
C3897 C 0.60453 0.20151 0.31415 0.0
C3898 C 0.59577 0.22203 0.30215 0.0
C3899 C 0.58207 0.21642 0.30262 0.0
C3900 C 0.57965 0.20342 0.30915 0.0
C3901 C 0.5909 0.19614 0.31487 0.0
C3902 C 0.59881 0.23591 0.2954 0.0
C3903 C 0.56523 0.19705 0.3098 0.0
C3904 C 0.55339 0.24244 0.2961 0.0
C3905 C 0.55123 0.24112 0.28174 0.0
C3906 C 0.56295 0.23404 0.30319 0.0
C3907 C 0.57046 0.22402 0.29577 0.0
C3908 C 0.56768 0.2221 0.28145 0.0
C3909 C 0.55814 0.23069 0.27461 0.0
C3910 C 0.5656 0.23644 0.31846 0.0
C3911 C 0.57531 0.21145 0.27316 0.0
H3912 H 0.61727 0.21883 0.30747 0.0
H3913 H 0.58907 0.18605 0.31958 0.0
H3914 H 0.59599 0.23551 0.28422 0.0
H3915 H 0.59241 0.24402 0.30019 0.0
H3916 H 0.60994 0.23905 0.29634 0.0
H3917 H 0.56496 0.1872 0.31583 0.0
H3918 H 0.55795 0.20439 0.31458 0.0
H3919 H 0.56135 0.19494 0.29913 0.0
H3920 H 0.5482 0.25058 0.30164 0.0
H3921 H 0.55642 0.22955 0.26354 0.0
H3922 H 0.57614 0.24106 0.31993 0.0
H3923 H 0.56528 0.22648 0.32426 0.0
H3924 H 0.55791 0.24351 0.32303 0.0
H3925 H 0.58645 0.21453 0.27239 0.0
H3926 H 0.57101 0.21032 0.26248 0.0
H3927 H 0.57481 0.20121 0.27845 0.0
C3928 C 0.29571 0.10652 0.31498 0.0
C3929 C 0.30884 0.10574 0.32133 0.0
C3930 C 0.29015 0.09542 0.30726 0.0
C3931 C 0.29789 0.08317 0.30582 0.0
C3932 C 0.31125 0.08236 0.31203 0.0
C3933 C 0.31658 0.09367 0.31969 0.0
C3934 C 0.27592 0.09679 0.30071 0.0
C3935 C 0.31981 0.06948 0.31076 0.0
C3936 C 0.27549 0.0516 0.29687 0.0
C3937 C 0.27645 0.05137 0.28234 0.0
C3938 C 0.28306 0.06139 0.30474 0.0
C3939 C 0.29179 0.07123 0.29794 0.0
C3940 C 0.29349 0.07047 0.28338 0.0
C3941 C 0.28582 0.06056 0.27577 0.0
C3942 C 0.281 0.06178 0.32025 0.0
C3943 C 0.30274 0.08068 0.27571 0.0
H3944 H 0.28976 0.11588 0.31599 0.0
H3945 H 0.32669 0.09293 0.32466 0.0
H3946 H 0.27656 0.09525 0.28933 0.0
H3947 H 0.26879 0.08864 0.30488 0.0
H3948 H 0.27132 0.10707 0.30265 0.0
H3949 H 0.33018 0.07065 0.3158 0.0
H3950 H 0.31423 0.06056 0.31561 0.0
H3951 H 0.32128 0.06694 0.29966 0.0
H3952 H 0.26819 0.04466 0.30204 0.0
H3953 H 0.28674 0.06034 0.26456 0.0
H3954 H 0.27506 0.07112 0.32297 0.0
H3955 H 0.29117 0.06252 0.32573 0.0
H3956 H 0.27523 0.05249 0.32415 0.0
H3957 H 0.29805 0.0911 0.27593 0.0
H3958 H 0.30421 0.07772 0.2647 0.0
H3959 H 0.31308 0.08153 0.28084 0.0
C3960 C 0.41537 0.7986 0.31205 0.0
C3961 C 0.41766 0.81067 0.31984 0.0
C3962 C 0.42628 0.79222 0.30506 0.0
C3963 C 0.43988 0.79809 0.30575 0.0
C3964 C 0.44228 0.81031 0.31353 0.0
C3965 C 0.43116 0.81641 0.32055 0.0
C3966 C 0.42326 0.77913 0.29699 0.0
C3967 C 0.45656 0.81698 0.31439 0.0
C3968 C 0.46846 0.77295 0.29678 0.0
C3969 C 0.47004 0.77543 0.28251 0.0
C3970 C 0.45921 0.78076 0.30468 0.0
C3971 C 0.45144 0.79137 0.29818 0.0
C3972 C 0.45376 0.79453 0.28399 0.0
C3973 C 0.46296 0.78649 0.27632 0.0
C3974 C 0.45705 0.777 0.31975 0.0
C3975 C 0.44588 0.80587 0.27668 0.0
H3976 H 0.40503 0.79396 0.31163 0.0
H3977 H 0.433 0.82579 0.32646 0.0
H3978 H 0.42592 0.78076 0.28591 0.0
H3979 H 0.42981 0.77062 0.30099 0.0
H3980 H 0.41217 0.77579 0.29764 0.0
H3981 H 0.45672 0.82646 0.32086 0.0
H3982 H 0.46407 0.80954 0.31882 0.0
H3983 H 0.46021 0.81978 0.30382 0.0
H3984 H 0.47378 0.76433 0.30158 0.0
H3985 H 0.46421 0.78848 0.26531 0.0
H3986 H 0.4466 0.77213 0.32103 0.0
H3987 H 0.45743 0.78642 0.32629 0.0
H3988 H 0.46495 0.76965 0.32365 0.0
H3989 H 0.4348 0.80266 0.27553 0.0
H3990 H 0.4501 0.80819 0.2662 0.0
H3991 H 0.44621 0.81551 0.28289 0.0
C3992 C 0.30938 0.91591 0.72371 0.0
C3993 C 0.3175 0.9183 0.71188 0.0
C3994 C 0.30216 0.92669 0.73 0.0
C3995 C 0.30296 0.94024 0.72427 0.0
C3996 C 0.31106 0.94272 0.71225 0.0
C3997 C 0.3183 0.93174 0.70625 0.0
C3998 C 0.29376 0.9236 0.74287 0.0
C3999 C 0.31205 0.95696 0.70573 0.0
C4000 C 0.27346 0.96339 0.73523 0.0
C4001 C 0.27954 0.97069 0.74632 0.0
C4002 C 0.28118 0.95399 0.72745 0.0
C4003 C 0.29528 0.95172 0.73095 0.0
C4004 C 0.30165 0.95958 0.7417 0.0
C4005 C 0.29372 0.96902 0.74922 0.0
C4006 C 0.27402 0.946 0.71595 0.0
C4007 C 0.31663 0.95742 0.74584 0.0
H4008 H 0.30887 0.9056 0.72825 0.0
H4009 H 0.32448 0.93364 0.69705 0.0
H4010 H 0.29759 0.93014 0.75158 0.0
H4011 H 0.28271 0.92618 0.74102 0.0
H4012 H 0.2943 0.91255 0.7461 0.0
H4013 H 0.31867 0.95717 0.69633 0.0
H4014 H 0.30152 0.96053 0.70281 0.0
H4015 H 0.31641 0.96448 0.71332 0.0
H4016 H 0.26252 0.96471 0.73291 0.0
H4017 H 0.29843 0.97451 0.75789 0.0
H4018 H 0.27287 0.93495 0.71906 0.0
H4019 H 0.28038 0.94638 0.70639 0.0
H4020 H 0.26355 0.95006 0.7135 0.0
H4021 H 0.31772 0.94695 0.7505 0.0
H4022 H 0.3204 0.96522 0.75348 0.0
H4023 H 0.32342 0.95795 0.73659 0.0
C4024 C 0.60524 0.80366 0.71628 0.0
C4025 C 0.60282 0.81032 0.70352 0.0
C4026 C 0.59425 0.79791 0.72404 0.0
C4027 C 0.58044 0.79874 0.71892 0.0
C4028 C 0.57789 0.80562 0.70614 0.0
C4029 C 0.5891 0.81137 0.69862 0.0
C4030 C 0.59744 0.7908 0.73769 0.0
C4031 C 0.56335 0.80664 0.70027 0.0
C4032 C 0.5561 0.77099 0.73362 0.0
C4033 C 0.54966 0.77809 0.74441 0.0
C4034 C 0.56558 0.77778 0.72476 0.0
C4035 C 0.56883 0.792 0.72681 0.0
C4036 C 0.56181 0.79938 0.73723 0.0
C4037 C 0.55226 0.79235 0.74587 0.0
C4038 C 0.57267 0.76955 0.71367 0.0
C4039 C 0.56499 0.81452 0.73982 0.0
H4040 H 0.61579 0.80298 0.72023 0.0
H4041 H 0.58716 0.81639 0.68871 0.0
H4042 H 0.5914 0.79552 0.74615 0.0
H4043 H 0.59426 0.77971 0.73714 0.0
H4044 H 0.60866 0.79146 0.74045 0.0
H4045 H 0.56303 0.81279 0.69049 0.0
H4046 H 0.55909 0.7961 0.69816 0.0
H4047 H 0.55642 0.81147 0.70794 0.0
H4048 H 0.55406 0.75998 0.73241 0.0
H4049 H 0.54744 0.79785 0.7543 0.0
H4050 H 0.58383 0.76846 0.71637 0.0
H4051 H 0.57211 0.77504 0.70353 0.0
H4052 H 0.56797 0.75902 0.71247 0.0
H4053 H 0.5757 0.81569 0.74407 0.0
H4054 H 0.55765 0.81911 0.74728 0.0
H4055 H 0.56458 0.8205 0.72996 0.0
C4056 C 0.41343 0.21466 0.71727 0.0
C4057 C 0.41522 0.21062 0.70345 0.0
C4058 C 0.42446 0.22049 0.725 0.0
C4059 C 0.43765 0.22238 0.71877 0.0
C4060 C 0.43963 0.21808 0.70491 0.0
C4061 C 0.4284 0.21223 0.69742 0.0
C4062 C 0.42192 0.22483 0.73979 0.0
C4063 C 0.45352 0.21997 0.69789 0.0
C4064 C 0.45989 0.25051 0.73574 0.0
C4065 C 0.46821 0.24278 0.74485 0.0
C4066 C 0.45041 0.24396 0.72666 0.0
C4067 C 0.44916 0.22931 0.72672 0.0
C4068 C 0.45808 0.22144 0.73534 0.0
C4069 C 0.46751 0.22827 0.74429 0.0
C4070 C 0.44121 0.25276 0.71755 0.0
C4071 C 0.45708 0.20581 0.73572 0.0
H4072 H 0.40334 0.21325 0.72207 0.0
H4073 H 0.42984 0.20925 0.6867 0.0
H4074 H 0.42938 0.21968 0.74689 0.0
H4075 H 0.42366 0.23617 0.74079 0.0
H4076 H 0.41119 0.22223 0.74325 0.0
H4077 H 0.45356 0.21545 0.68732 0.0
H4078 H 0.45618 0.23117 0.69707 0.0
H4079 H 0.4618 0.21507 0.7042 0.0
H4080 H 0.46048 0.26173 0.73605 0.0
H4081 H 0.47379 0.22223 0.7514 0.0
H4082 H 0.43031 0.25184 0.72116 0.0
H4083 H 0.4414 0.24906 0.70667 0.0
H4084 H 0.44441 0.26387 0.7177 0.0
H4085 H 0.44711 0.20253 0.74055 0.0
H4086 H 0.46574 0.20118 0.74175 0.0
H4087 H 0.45713 0.20158 0.72505 0.0
C4088 C 0.72287 0.69987 0.10618 0.0
C4089 C 0.70842 0.6986 0.10788 0.0
C4090 C 0.72864 0.70829 0.09568 0.0
C4091 C 0.71977 0.71571 0.0866 0.0
C4092 C 0.70517 0.71427 0.08805 0.0
C4093 C 0.69967 0.70576 0.09868 0.0
C4094 C 0.74426 0.7096 0.0946 0.0
C4095 C 0.69536 0.72196 0.07858 0.0
C4096 C 0.73571 0.74869 0.07145 0.0
C4097 C 0.73988 0.74443 0.05824 0.0
C4098 C 0.72877 0.73958 0.08055 0.0
C4099 C 0.72587 0.72579 0.07639 0.0
C4100 C 0.72956 0.72155 0.06285 0.0
C4101 C 0.73649 0.73095 0.0539 0.0
C4102 C 0.72494 0.74462 0.09482 0.0
C4103 C 0.72663 0.70694 0.05802 0.0
H4104 H 0.72973 0.69455 0.11333 0.0
H4105 H 0.6885 0.70471 0.09978 0.0
H4106 H 0.74759 0.70735 0.08386 0.0
H4107 H 0.74763 0.72039 0.09695 0.0
H4108 H 0.7497 0.70249 0.10185 0.0
H4109 H 0.68431 0.719 0.08041 0.0
H4110 H 0.69664 0.73328 0.08021 0.0
H4111 H 0.69786 0.71991 0.06756 0.0
H4112 H 0.73807 0.7592 0.07476 0.0
H4113 H 0.73968 0.72762 0.0437 0.0
H4114 H 0.73082 0.73879 0.10283 0.0
H4115 H 0.71372 0.74268 0.09674 0.0
H4116 H 0.72723 0.75586 0.09616 0.0
H4117 H 0.73294 0.69961 0.06423 0.0
H4118 H 0.7291 0.70558 0.04687 0.0
H4119 H 0.71554 0.7041 0.05968 0.0
C4120 C 0.29604 0.70959 0.10551 0.0
C4121 C 0.30885 0.70303 0.10416 0.0
C4122 C 0.29032 0.71727 0.09452 0.0
C4123 C 0.29755 0.71844 0.08179 0.0
C4124 C 0.31058 0.712 0.0804 0.0
C4125 C 0.3161 0.7044 0.09161 0.0
C4126 C 0.27646 0.72407 0.09651 0.0
C4127 C 0.31858 0.71298 0.067 0.0
C4128 C 0.27413 0.72747 0.05123 0.0
C4129 C 0.27572 0.74194 0.05059 0.0
C4130 C 0.28179 0.71957 0.06081 0.0
C4131 C 0.29125 0.72629 0.07 0.0
C4132 C 0.29354 0.74078 0.06879 0.0
C4133 C 0.28578 0.74841 0.0591 0.0
C4134 C 0.27909 0.70413 0.06168 0.0
C4135 C 0.30358 0.74835 0.07832 0.0
H4136 H 0.29049 0.70877 0.11524 0.0
H4137 H 0.32595 0.69927 0.09046 0.0
H4138 H 0.27749 0.73539 0.09464 0.0
H4139 H 0.26879 0.71994 0.08886 0.0
H4140 H 0.27227 0.72233 0.10711 0.0
H4141 H 0.32876 0.70777 0.06772 0.0
H4142 H 0.31239 0.70815 0.05849 0.0
H4143 H 0.3204 0.724 0.0641 0.0
H4144 H 0.26629 0.72238 0.04483 0.0
H4145 H 0.28719 0.75957 0.05853 0.0
H4146 H 0.27348 0.70163 0.07143 0.0
H4147 H 0.28903 0.69849 0.062 0.0
H4148 H 0.27275 0.70027 0.05279 0.0
H4149 H 0.29938 0.7483 0.08901 0.0
H4150 H 0.30536 0.75929 0.07502 0.0
H4151 H 0.31371 0.74306 0.0787 0.0
C4152 C 0.3021 0.32851 0.09852 0.0
C4153 C 0.31186 0.32223 0.10735 0.0
C4154 C 0.29529 0.32098 0.08795 0.0
C4155 C 0.29818 0.30677 0.0862 0.0
C4156 C 0.30836 0.30048 0.09473 0.0
C4157 C 0.3151 0.30828 0.10515 0.0
C4158 C 0.28454 0.32811 0.07906 0.0
C4159 C 0.31173 0.28535 0.09324 0.0
C4160 C 0.26903 0.28365 0.0722 0.0
C4161 C 0.27309 0.28146 0.05842 0.0
C4162 C 0.27711 0.29182 0.08126 0.0
C4163 C 0.28955 0.29817 0.07646 0.0
C4164 C 0.29363 0.29625 0.06249 0.0
C4165 C 0.28534 0.28792 0.05362 0.0
C4166 C 0.27231 0.2936 0.09604 0.0
C4167 C 0.30678 0.30293 0.05696 0.0
H4168 H 0.29936 0.33921 0.10018 0.0
H4169 H 0.32281 0.30338 0.11171 0.0
H4170 H 0.28639 0.32608 0.06791 0.0
H4171 H 0.27405 0.3239 0.08156 0.0
H4172 H 0.28458 0.3395 0.08069 0.0
H4173 H 0.32066 0.28229 0.0999 0.0
H4174 H 0.30254 0.27889 0.09616 0.0
H4175 H 0.31417 0.28299 0.08229 0.0
H4176 H 0.25939 0.27903 0.07592 0.0
H4177 H 0.28855 0.28628 0.04301 0.0
H4178 H 0.27078 0.30474 0.09821 0.0
H4179 H 0.28039 0.28985 0.10337 0.0
H4180 H 0.26243 0.28788 0.09817 0.0
H4181 H 0.30646 0.31432 0.05831 0.0
H4182 H 0.30836 0.30067 0.04579 0.0
H4183 H 0.31588 0.29917 0.06294 0.0
C4184 C 0.71398 0.30361 0.10742 0.0
C4185 C 0.70864 0.31693 0.1055 0.0
C4186 C 0.71969 0.29631 0.09633 0.0
C4187 C 0.72014 0.30247 0.08294 0.0
C4188 C 0.71454 0.3158 0.08086 0.0
C4189 C 0.70883 0.32286 0.09215 0.0
C4190 C 0.72544 0.28207 0.099 0.0
C4191 C 0.71488 0.32274 0.06677 0.0
C4192 C 0.74814 0.28804 0.05974 0.0
C4193 C 0.74062 0.2782 0.05193 0.0
C4194 C 0.74149 0.2965 0.06937 0.0
C4195 C 0.72695 0.29506 0.07132 0.0
C4196 C 0.7192 0.28567 0.06292 0.0
C4197 C 0.72612 0.27738 0.05331 0.0
C4198 C 0.75015 0.30647 0.07798 0.0
C4199 C 0.7037 0.2838 0.06466 0.0
H4200 H 0.71368 0.29887 0.11765 0.0
H4201 H 0.70486 0.3332 0.0906 0.0
H4202 H 0.72039 0.27443 0.09194 0.0
H4203 H 0.73674 0.28212 0.09678 0.0
H4204 H 0.72386 0.27855 0.10988 0.0
H4205 H 0.70949 0.33283 0.06671 0.0
H4206 H 0.72582 0.32455 0.06358 0.0
H4207 H 0.70993 0.31591 0.05888 0.0
H4208 H 0.75933 0.28879 0.05864 0.0
H4209 H 0.72026 0.26969 0.04742 0.0
H4210 H 0.75027 0.30292 0.08896 0.0
H4211 H 0.74554 0.31692 0.07774 0.0
H4212 H 0.76105 0.30731 0.07431 0.0
H4213 H 0.70153 0.27885 0.07486 0.0
H4214 H 0.69898 0.27723 0.05639 0.0
H4215 H 0.69854 0.29399 0.06456 0.0
C4216 C 0.7094 0.3256 0.92986 0.0
C4217 C 0.71058 0.32085 0.91619 0.0
C4218 C 0.71491 0.31804 0.94111 0.0
C4219 C 0.72165 0.30538 0.93863 0.0
C4220 C 0.72263 0.30042 0.92486 0.0
C4221 C 0.71714 0.30823 0.91383 0.0
C4222 C 0.71376 0.32374 0.9556 0.0
C4223 C 0.72961 0.2869 0.92176 0.0
C4224 C 0.74873 0.29058 0.96321 0.0
C4225 C 0.74123 0.27977 0.96967 0.0
C4226 C 0.74229 0.29948 0.95363 0.0
C4227 C 0.72804 0.29741 0.95029 0.0
C4228 C 0.72027 0.28692 0.95728 0.0
C4229 C 0.72695 0.27827 0.96695 0.0
C4230 C 0.75091 0.31065 0.94659 0.0
C4231 C 0.7051 0.2843 0.95395 0.0
H4232 H 0.70445 0.33541 0.93174 0.0
H4233 H 0.71792 0.30441 0.90331 0.0
H4234 H 0.70859 0.31601 0.96249 0.0
H4235 H 0.7243 0.32579 0.95995 0.0
H4236 H 0.70782 0.3335 0.95584 0.0
H4237 H 0.72911 0.28427 0.91056 0.0
H4238 H 0.74068 0.28749 0.92502 0.0
H4239 H 0.72461 0.27834 0.92777 0.0
H4240 H 0.75976 0.29179 0.96536 0.0
H4241 H 0.72116 0.26982 0.97179 0.0
H4242 H 0.74559 0.32074 0.94706 0.0
H4243 H 0.75216 0.30807 0.93547 0.0
H4244 H 0.7614 0.31184 0.95137 0.0
H4245 H 0.69927 0.2941 0.95433 0.0
H4246 H 0.70022 0.2767 0.96122 0.0
H4247 H 0.70406 0.28023 0.94324 0.0
C4248 C 0.70157 0.70145 0.93238 0.0
C4249 C 0.70197 0.70784 0.91925 0.0
C4250 C 0.70888 0.70718 0.94376 0.0
C4251 C 0.71662 0.71968 0.942 0.0
C4252 C 0.71702 0.72617 0.92877 0.0
C4253 C 0.70976 0.72015 0.91757 0.0
C4254 C 0.70834 0.69985 0.95763 0.0
C4255 C 0.72502 0.73958 0.92645 0.0
C4256 C 0.72559 0.74366 0.97207 0.0
C4257 C 0.7399 0.74156 0.97368 0.0
C4258 C 0.71771 0.73612 0.96226 0.0
C4259 C 0.72428 0.72614 0.95393 0.0
C4260 C 0.73853 0.72336 0.95615 0.0
C4261 C 0.74618 0.73116 0.96593 0.0
C4262 C 0.70257 0.73948 0.96018 0.0
C4263 C 0.7459 0.71269 0.94766 0.0
H4264 H 0.69567 0.69188 0.93372 0.0
H4265 H 0.70995 0.72526 0.90752 0.0
H4266 H 0.71902 0.69734 0.96116 0.0
H4267 H 0.70386 0.70675 0.96554 0.0
H4268 H 0.70202 0.69011 0.95725 0.0
H4269 H 0.72423 0.74335 0.91556 0.0
H4270 H 0.72106 0.74771 0.93342 0.0
H4271 H 0.73616 0.73817 0.92906 0.0
H4272 H 0.7207 0.7518 0.97789 0.0
H4273 H 0.75723 0.72946 0.96719 0.0
H4274 H 0.6961 0.72985 0.96012 0.0
H4275 H 0.70115 0.74464 0.94995 0.0
H4276 H 0.69868 0.74643 0.96838 0.0
H4277 H 0.7398 0.70283 0.94744 0.0
H4278 H 0.75648 0.71057 0.95178 0.0
H4279 H 0.74687 0.71643 0.93679 0.0
C4280 C 0.32462 0.70867 0.9341 0.0
C4281 C 0.31912 0.70743 0.9206 0.0
C4282 C 0.31697 0.71476 0.94478 0.0
C4283 C 0.30352 0.71982 0.94189 0.0
C4284 C 0.29781 0.71835 0.92836 0.0
C4285 C 0.30566 0.71217 0.91792 0.0
C4286 C 0.32338 0.71603 0.95907 0.0
C4287 C 0.28354 0.72366 0.92481 0.0
C4288 C 0.27707 0.72747 0.96994 0.0
C4289 C 0.27776 0.74199 0.97039 0.0
C4290 C 0.28588 0.72002 0.96122 0.0
C4291 C 0.29559 0.72727 0.95274 0.0
C4292 C 0.29689 0.74186 0.95382 0.0
C4293 C 0.288 0.74902 0.96263 0.0
C4294 C 0.28423 0.70446 0.96047 0.0
C4295 C 0.30715 0.75001 0.94506 0.0
H4296 H 0.33494 0.70487 0.93632 0.0
H4297 H 0.30139 0.71143 0.9075 0.0
H4298 H 0.32483 0.72713 0.96173 0.0
H4299 H 0.31632 0.71136 0.96694 0.0
H4300 H 0.33361 0.7109 0.95983 0.0
H4301 H 0.28038 0.72125 0.91396 0.0
H4302 H 0.2757 0.71904 0.93195 0.0
H4303 H 0.28337 0.73506 0.92619 0.0
H4304 H 0.26912 0.72196 0.97579 0.0
H4305 H 0.28869 0.76024 0.96307 0.0
H4306 H 0.29451 0.69946 0.96116 0.0
H4307 H 0.27951 0.70157 0.95033 0.0
H4308 H 0.2775 0.70024 0.96888 0.0
H4309 H 0.31768 0.7456 0.94608 0.0
H4310 H 0.30771 0.76112 0.94797 0.0
H4311 H 0.30406 0.7493 0.93396 0.0
C4312 C 0.29651 0.31053 0.91707 0.0
C4313 C 0.30967 0.31698 0.91812 0.0
C4314 C 0.29076 0.30308 0.92827 0.0
C4315 C 0.2983 0.302 0.94091 0.0
C4316 C 0.31167 0.30831 0.942 0.0
C4317 C 0.31721 0.3157 0.93059 0.0
C4318 C 0.27652 0.29642 0.92659 0.0
C4319 C 0.32003 0.30743 0.95528 0.0
C4320 C 0.27551 0.29359 0.97207 0.0
C4321 C 0.27646 0.27912 0.9729 0.0
C4322 C 0.28318 0.30129 0.96221 0.0
C4323 C 0.292 0.29436 0.95293 0.0
C4324 C 0.29367 0.27986 0.9543 0.0
C4325 C 0.2859 0.27243 0.96427 0.0
C4326 C 0.28114 0.31673 0.96116 0.0
C4327 C 0.30303 0.27205 0.94471 0.0
H4328 H 0.29071 0.31126 0.90742 0.0
H4329 H 0.32732 0.32074 0.93153 0.0
H4330 H 0.2771 0.2851 0.92857 0.0
H4331 H 0.2693 0.30071 0.93432 0.0
H4332 H 0.27208 0.29808 0.91604 0.0
H4333 H 0.33042 0.31254 0.95434 0.0
H4334 H 0.31432 0.31242 0.96382 0.0
H4335 H 0.32146 0.29643 0.95829 0.0
H4336 H 0.26815 0.29885 0.97857 0.0
H4337 H 0.28681 0.26127 0.96495 0.0
H4338 H 0.27533 0.31916 0.95147 0.0
H4339 H 0.29132 0.32227 0.96062 0.0
H4340 H 0.27524 0.32078 0.9701 0.0
H4341 H 0.29848 0.27202 0.93408 0.0
H4342 H 0.30441 0.26114 0.94811 0.0
H4343 H 0.31339 0.27722 0.94407 0.0
C4344 C 0.5942 0.6974 0.2116 0.0
C4345 C 0.60277 0.70602 0.20341 0.0
C4346 C 0.5836 0.70292 0.2198 0.0
C4347 C 0.58154 0.71742 0.21988 0.0
C4348 C 0.58998 0.72613 0.21142 0.0
C4349 C 0.60046 0.72035 0.20333 0.0
C4350 C 0.57482 0.69326 0.22862 0.0
C4351 C 0.58824 0.74165 0.21126 0.0
C4352 C 0.5485 0.73319 0.23427 0.0
C4353 C 0.55306 0.73762 0.2474 0.0
C4354 C 0.55752 0.72626 0.22529 0.0
C4355 C 0.57138 0.72365 0.22958 0.0
C4356 C 0.57582 0.72767 0.24303 0.0
C4357 C 0.56663 0.73454 0.25174 0.0
C4358 C 0.55237 0.7221 0.21106 0.0
C4359 C 0.59044 0.72504 0.2481 0.0
H4360 H 0.59576 0.68631 0.2116 0.0
H4361 H 0.60713 0.72714 0.19721 0.0
H4362 H 0.57676 0.69544 0.23977 0.0
H4363 H 0.56362 0.69501 0.22657 0.0
H4364 H 0.57706 0.68219 0.22669 0.0
H4365 H 0.59502 0.7469 0.20349 0.0
H4366 H 0.57727 0.74423 0.20893 0.0
H4367 H 0.5908 0.7459 0.22167 0.0
H4368 H 0.53803 0.73553 0.23087 0.0
H4369 H 0.57013 0.73764 0.26201 0.0
H4370 H 0.55438 0.71098 0.20924 0.0
H4371 H 0.55813 0.72812 0.20303 0.0
H4372 H 0.54107 0.72393 0.20966 0.0
H4373 H 0.59209 0.72828 0.25904 0.0
H4374 H 0.59799 0.73081 0.24148 0.0
H4375 H 0.59281 0.71388 0.24726 0.0
C4376 C 0.31155 0.60627 0.22092 0.0
C4377 C 0.31878 0.60441 0.20851 0.0
C4378 C 0.30425 0.59524 0.22725 0.0
C4379 C 0.30405 0.582 0.22097 0.0
C4380 C 0.31122 0.58007 0.20837 0.0
C4381 C 0.31858 0.59128 0.20233 0.0
C4382 C 0.29686 0.59773 0.24077 0.0
C4383 C 0.3111 0.56617 0.20127 0.0
C4384 C 0.29529 0.55252 0.24594 0.0
C4385 C 0.28084 0.55129 0.24423 0.0
C4386 C 0.30314 0.56195 0.23788 0.0
C4387 C 0.29637 0.57026 0.2278 0.0
C4388 C 0.28194 0.56831 0.22535 0.0
C4389 C 0.27433 0.55891 0.23366 0.0
C4390 C 0.31848 0.56374 0.24089 0.0
C4391 C 0.27435 0.57677 0.21456 0.0
H4392 H 0.31182 0.61633 0.22585 0.0
H4393 H 0.32407 0.58981 0.19267 0.0
H4394 H 0.28561 0.59531 0.23957 0.0
H4395 H 0.30097 0.59075 0.24897 0.0
H4396 H 0.29809 0.60861 0.24434 0.0
H4397 H 0.31702 0.56642 0.19141 0.0
H4398 H 0.31566 0.55825 0.20825 0.0
H4399 H 0.30024 0.56282 0.19899 0.0
H4400 H 0.30035 0.54679 0.25421 0.0
H4401 H 0.26316 0.55793 0.23227 0.0
H4402 H 0.32043 0.57391 0.2459 0.0
H4403 H 0.3245 0.5637 0.23111 0.0
H4404 H 0.32245 0.55548 0.24787 0.0
H4405 H 0.27372 0.58765 0.2181 0.0
H4406 H 0.26362 0.57274 0.21265 0.0
H4407 H 0.28009 0.57687 0.20461 0.0
C4408 C 0.41407 0.3065 0.22059 0.0
C4409 C 0.41615 0.31251 0.20746 0.0
C4410 C 0.42507 0.30044 0.22798 0.0
C4411 C 0.43853 0.30034 0.22211 0.0
C4412 C 0.44078 0.30664 0.20898 0.0
C4413 C 0.42957 0.31267 0.20182 0.0
C4414 C 0.42223 0.29394 0.242 0.0
C4415 C 0.45493 0.30669 0.20233 0.0
C4416 C 0.46794 0.29283 0.24761 0.0
C4417 C 0.46915 0.27844 0.2463 0.0
C4418 C 0.45845 0.30024 0.23936 0.0
C4419 C 0.45002 0.29309 0.22954 0.0
C4420 C 0.4518 0.27869 0.22762 0.0
C4421 C 0.46131 0.27155 0.23603 0.0
C4422 C 0.4569 0.31558 0.24173 0.0
C4423 C 0.44314 0.27068 0.21718 0.0
H4424 H 0.40379 0.30651 0.22512 0.0
H4425 H 0.43125 0.31718 0.19162 0.0
H4426 H 0.4243 0.28267 0.24165 0.0
H4427 H 0.4293 0.29852 0.24995 0.0
H4428 H 0.41132 0.29535 0.24536 0.0
H4429 H 0.45515 0.31268 0.19244 0.0
H4430 H 0.46283 0.31119 0.20952 0.0
H4431 H 0.45801 0.2959 0.20018 0.0
H4432 H 0.47386 0.29819 0.25562 0.0
H4433 H 0.46229 0.26044 0.2349 0.0
H4434 H 0.44668 0.31747 0.24657 0.0
H4435 H 0.45713 0.32131 0.23171 0.0
H4436 H 0.4652 0.31987 0.24863 0.0
H4437 H 0.43212 0.27041 0.22048 0.0
H4438 H 0.44667 0.25985 0.21605 0.0
H4439 H 0.44355 0.27586 0.20687 0.0
C4440 C 0.70888 0.42373 0.2036 0.0
C4441 C 0.70095 0.4148 0.2121 0.0
C4442 C 0.71689 0.43467 0.20928 0.0
C4443 C 0.71704 0.43671 0.22383 0.0
C4444 C 0.70868 0.42806 0.23241 0.0
C4445 C 0.70072 0.41727 0.22645 0.0
C4446 C 0.72561 0.44369 0.19976 0.0
C4447 C 0.70853 0.42985 0.24797 0.0
C4448 C 0.74935 0.45186 0.24122 0.0
C4449 C 0.7452 0.46529 0.24459 0.0
C4450 C 0.7404 0.44264 0.2342 0.0
C4451 C 0.72693 0.44693 0.23028 0.0
C4452 C 0.72284 0.46066 0.23315 0.0
C4453 C 0.73204 0.46971 0.24027 0.0
C4454 C 0.74525 0.42814 0.23132 0.0
C4455 C 0.70861 0.46566 0.22904 0.0
H4456 H 0.70921 0.42189 0.19252 0.0
H4457 H 0.69439 0.41065 0.23309 0.0
H4458 H 0.72397 0.4548 0.20199 0.0
H4459 H 0.73679 0.44163 0.20162 0.0
H4460 H 0.72321 0.44177 0.18864 0.0
H4461 H 0.70076 0.42291 0.25308 0.0
H4462 H 0.71896 0.42756 0.25233 0.0
H4463 H 0.7062 0.44072 0.25061 0.0
H4464 H 0.75964 0.44848 0.2442 0.0
H4465 H 0.72879 0.48008 0.2428 0.0
H4466 H 0.7443 0.42587 0.22007 0.0
H4467 H 0.73857 0.42049 0.23691 0.0
H4468 H 0.75622 0.42659 0.23459 0.0
H4469 H 0.70661 0.46368 0.21786 0.0
H4470 H 0.70739 0.47689 0.23104 0.0
H4471 H 0.70056 0.45981 0.23496 0.0
C4472 C 0.60614 0.29828 0.81366 0.0
C4473 C 0.60503 0.31121 0.82007 0.0
C4474 C 0.59504 0.2925 0.806 0.0
C4475 C 0.58244 0.2998 0.80472 0.0
C4476 C 0.58128 0.31295 0.81101 0.0
C4477 C 0.59261 0.31852 0.81858 0.0
C4478 C 0.59678 0.27851 0.79935 0.0
C4479 C 0.56802 0.32101 0.80992 0.0
C4480 C 0.55958 0.28748 0.77479 0.0
C4481 C 0.55095 0.2776 0.78138 0.0
C4482 C 0.56936 0.29539 0.78237 0.0
C4483 C 0.57052 0.29344 0.79691 0.0
C4484 C 0.56119 0.2842 0.80374 0.0
C4485 C 0.55154 0.27637 0.7959 0.0
C4486 C 0.57905 0.30517 0.77468 0.0
C4487 C 0.562 0.28187 0.81924 0.0
H4488 H 0.61577 0.29268 0.81457 0.0
H4489 H 0.59165 0.32848 0.8236 0.0
H4490 H 0.58899 0.27102 0.80357 0.0
H4491 H 0.59491 0.27931 0.788 0.0
H4492 H 0.60731 0.27429 0.80114 0.0
H4493 H 0.56893 0.33128 0.81502 0.0
H4494 H 0.56514 0.3226 0.79886 0.0
H4495 H 0.55939 0.31503 0.81482 0.0
H4496 H 0.55905 0.28863 0.7636 0.0
H4497 H 0.54504 0.26868 0.80108 0.0
H4498 H 0.58969 0.30091 0.77477 0.0
H4499 H 0.57962 0.31538 0.77989 0.0
H4500 H 0.57575 0.30675 0.76372 0.0
H4501 H 0.57164 0.27624 0.82184 0.0
H4502 H 0.55297 0.27573 0.82317 0.0
H4503 H 0.5625 0.29192 0.82476 0.0
C4504 C 0.70142 0.59275 0.81832 0.0
C4505 C 0.70901 0.60524 0.81971 0.0
C4506 C 0.70683 0.58154 0.81093 0.0
C4507 C 0.7201 0.58286 0.80473 0.0
C4508 C 0.72767 0.59553 0.8059 0.0
C4509 C 0.72204 0.60652 0.81335 0.0
C4510 C 0.69844 0.56822 0.80992 0.0
C4511 C 0.7418 0.59746 0.79936 0.0
C4512 C 0.74316 0.55254 0.79624 0.0
C4513 C 0.74218 0.55223 0.78171 0.0
C4514 C 0.73532 0.56186 0.80399 0.0
C4515 C 0.72627 0.5711 0.79705 0.0
C4516 C 0.72448 0.57009 0.78248 0.0
C4517 C 0.73245 0.56068 0.775 0.0
C4518 C 0.7375 0.56252 0.81951 0.0
C4519 C 0.71487 0.57963 0.77466 0.0
H4520 H 0.69139 0.59164 0.82329 0.0
H4521 H 0.72787 0.6162 0.81415 0.0
H4522 H 0.69688 0.56536 0.79888 0.0
H4523 H 0.70421 0.55968 0.81497 0.0
H4524 H 0.68812 0.56899 0.81491 0.0
H4525 H 0.74629 0.60799 0.80113 0.0
H4526 H 0.74908 0.58972 0.80367 0.0
H4527 H 0.74104 0.5957 0.788 0.0
H4528 H 0.75074 0.54615 0.8015 0.0
H4529 H 0.73153 0.56038 0.76378 0.0
H4530 H 0.72738 0.56287 0.82492 0.0
H4531 H 0.74338 0.57215 0.82214 0.0
H4532 H 0.74339 0.55353 0.82353 0.0
H4533 H 0.70463 0.58005 0.77984 0.0
H4534 H 0.71323 0.57633 0.76374 0.0
H4535 H 0.71938 0.59029 0.77461 0.0
C4536 C 0.4252 0.70862 0.82458 0.0
C4537 C 0.41664 0.70035 0.81601 0.0
C4538 C 0.43575 0.71719 0.81896 0.0
C4539 C 0.43779 0.71754 0.8044 0.0
C4540 C 0.42939 0.70899 0.79574 0.0
C4541 C 0.41895 0.70053 0.80164 0.0
C4542 C 0.44451 0.72611 0.82855 0.0
C4543 C 0.43112 0.70912 0.78017 0.0
C4544 C 0.45239 0.75005 0.78708 0.0
C4545 C 0.46597 0.74618 0.78378 0.0
C4546 C 0.4433 0.74097 0.79411 0.0
C4547 C 0.44786 0.72765 0.79806 0.0
C4548 C 0.46173 0.72383 0.79525 0.0
C4549 C 0.47064 0.73317 0.78816 0.0
C4550 C 0.42865 0.74553 0.79695 0.0
C4551 C 0.467 0.70974 0.79934 0.0
H4552 H 0.42362 0.70842 0.83571 0.0
H4553 H 0.41229 0.69434 0.7949 0.0
H4554 H 0.45571 0.72448 0.82663 0.0
H4555 H 0.44245 0.7372 0.82645 0.0
H4556 H 0.44233 0.72389 0.83966 0.0
H4557 H 0.42439 0.70122 0.77497 0.0
H4558 H 0.42847 0.71948 0.77596 0.0
H4559 H 0.4421 0.7072 0.77746 0.0
H4560 H 0.4488 0.76021 0.78401 0.0
H4561 H 0.48112 0.73013 0.78567 0.0
H4562 H 0.42632 0.74443 0.80816 0.0
H4563 H 0.42113 0.73879 0.79124 0.0
H4564 H 0.42693 0.75645 0.79376 0.0
H4565 H 0.465 0.70769 0.8105 0.0
H4566 H 0.4783 0.70875 0.79739 0.0
H4567 H 0.4613 0.70163 0.79336 0.0
C4568 C 0.32846 0.42637 0.80656 0.0
C4569 C 0.32167 0.41564 0.81391 0.0
C4570 C 0.32097 0.43706 0.80015 0.0
C4571 C 0.30629 0.43713 0.80115 0.0
C4572 C 0.29943 0.42672 0.80911 0.0
C4573 C 0.30718 0.4161 0.81536 0.0
C4574 C 0.32872 0.44794 0.79177 0.0
C4575 C 0.2838 0.42641 0.8105 0.0
C4576 C 0.28631 0.46929 0.78992 0.0
C4577 C 0.28171 0.46547 0.77662 0.0
C4578 C 0.29438 0.46022 0.79807 0.0
C4579 C 0.29805 0.44714 0.79269 0.0
C4580 C 0.29372 0.44346 0.77911 0.0
C4581 C 0.28561 0.45262 0.77129 0.0
C4582 C 0.29873 0.4645 0.81252 0.0
C4583 C 0.29754 0.42974 0.77285 0.0
H4584 H 0.33968 0.42631 0.80561 0.0
H4585 H 0.30179 0.40784 0.82091 0.0
H4586 H 0.32608 0.44672 0.7806 0.0
H4587 H 0.32554 0.45846 0.79484 0.0
H4588 H 0.34017 0.44719 0.79304 0.0
H4589 H 0.28018 0.41856 0.81821 0.0
H4590 H 0.28006 0.43673 0.81365 0.0
H4591 H 0.27895 0.42396 0.8003 0.0
H4592 H 0.28329 0.47919 0.79407 0.0
H4593 H 0.28227 0.44972 0.76092 0.0
H4594 H 0.31018 0.46397 0.81368 0.0
H4595 H 0.29412 0.4572 0.82023 0.0
H4596 H 0.29542 0.47516 0.81502 0.0
H4597 H 0.309 0.42867 0.77284 0.0
H4598 H 0.29361 0.42858 0.76204 0.0
H4599 H 0.29319 0.4211 0.77923 0.0
C4600 C 0.69409 0.58768 0.21333 0.0
C4601 C 0.69969 0.60119 0.21247 0.0
C4602 C 0.70169 0.57681 0.21933 0.0
C4603 C 0.71521 0.57951 0.22468 0.0
C4604 C 0.721 0.59307 0.22364 0.0
C4605 C 0.7132 0.60372 0.21754 0.0
C4606 C 0.69517 0.56249 0.22013 0.0
C4607 C 0.73535 0.59644 0.22928 0.0
C4608 C 0.73059 0.5572 0.25344 0.0
C4609 C 0.74052 0.54959 0.24627 0.0
C4610 C 0.72192 0.56657 0.24646 0.0
C4611 C 0.72313 0.56836 0.23191 0.0
C4612 C 0.7326 0.56016 0.2245 0.0
C4613 C 0.74119 0.55089 0.23177 0.0
C4614 C 0.71192 0.57502 0.25478 0.0
C4615 C 0.73416 0.56168 0.20899 0.0
H4616 H 0.68372 0.58558 0.20928 0.0
H4617 H 0.71756 0.61414 0.2171 0.0
H4618 H 0.70207 0.55486 0.21525 0.0
H4619 H 0.6939 0.55935 0.23115 0.0
H4620 H 0.68484 0.56194 0.21492 0.0
H4621 H 0.73856 0.60737 0.22724 0.0
H4622 H 0.73561 0.59457 0.24066 0.0
H4623 H 0.74309 0.58954 0.22457 0.0
H4624 H 0.72989 0.55614 0.26462 0.0
H4625 H 0.74892 0.54517 0.22615 0.0
H4626 H 0.7013 0.57418 0.25027 0.0
H4627 H 0.71512 0.58612 0.25434 0.0
H4628 H 0.71153 0.57171 0.26584 0.0
H4629 H 0.72385 0.56111 0.20378 0.0
H4630 H 0.74088 0.55359 0.20458 0.0
H4631 H 0.73883 0.57199 0.20653 0.0
C4632 C 0.71408 0.41685 0.80741 0.0
C4633 C 0.70031 0.41881 0.81157 0.0
C4634 C 0.72189 0.42765 0.80128 0.0
C4635 C 0.71583 0.4408 0.79926 0.0
C4636 C 0.70202 0.44293 0.80366 0.0
C4637 C 0.69442 0.43191 0.80972 0.0
C4638 C 0.73656 0.42491 0.79669 0.0
C4639 C 0.69523 0.45681 0.80179 0.0
C4640 C 0.74165 0.47043 0.79286 0.0
C4641 C 0.74182 0.47108 0.7783 0.0
C4642 C 0.73277 0.46106 0.79987 0.0
C4643 C 0.72388 0.4521 0.79215 0.0
C4644 C 0.72348 0.45323 0.77749 0.0
C4645 C 0.73243 0.46272 0.77076 0.0
C4646 C 0.73345 0.46024 0.81552 0.0
C4647 C 0.71411 0.44394 0.76885 0.0
H4648 H 0.71865 0.40672 0.80862 0.0
H4649 H 0.68385 0.43356 0.81306 0.0
H4650 H 0.73736 0.42639 0.78529 0.0
H4651 H 0.7439 0.4324 0.80162 0.0
H4652 H 0.73988 0.41424 0.79935 0.0
H4653 H 0.68461 0.45694 0.80622 0.0
H4654 H 0.70165 0.46504 0.80683 0.0
H4655 H 0.69455 0.45945 0.79058 0.0
H4656 H 0.74897 0.47673 0.79878 0.0
H4657 H 0.7324 0.46328 0.75951 0.0
H4658 H 0.7382 0.45031 0.81873 0.0
H4659 H 0.72285 0.4604 0.81996 0.0
H4660 H 0.73972 0.46889 0.82005 0.0
H4661 H 0.71752 0.43306 0.76988 0.0
H4662 H 0.71421 0.44687 0.75768 0.0
H4663 H 0.70326 0.44432 0.77263 0.0
C4664 C 0.58999 0.69665 0.81366 0.0
C4665 C 0.60354 0.70226 0.81312 0.0
C4666 C 0.57865 0.70384 0.80799 0.0
C4667 C 0.58089 0.71698 0.80168 0.0
C4668 C 0.5945 0.72282 0.80139 0.0
C4669 C 0.60563 0.7154 0.80709 0.0
C4670 C 0.56432 0.69724 0.80847 0.0
C4671 C 0.59737 0.73684 0.79486 0.0
C4672 C 0.5569 0.73131 0.77375 0.0
C4673 C 0.54986 0.7416 0.78097 0.0
C4674 C 0.56651 0.72274 0.78052 0.0
C4675 C 0.56919 0.7245 0.79488 0.0
C4676 C 0.56153 0.73432 0.8024 0.0
C4677 C 0.55194 0.74274 0.79536 0.0
C4678 C 0.57433 0.71232 0.77211 0.0
C4679 C 0.56404 0.73652 0.81772 0.0
H4680 H 0.58829 0.68646 0.81818 0.0
H4681 H 0.61603 0.71991 0.80682 0.0
H4682 H 0.55689 0.70439 0.8133 0.0
H4683 H 0.56055 0.6952 0.79775 0.0
H4684 H 0.56418 0.68731 0.81437 0.0
H4685 H 0.60845 0.74013 0.79589 0.0
H4686 H 0.59459 0.73657 0.78367 0.0
H4687 H 0.59082 0.74477 0.79976 0.0
H4688 H 0.55524 0.7303 0.76265 0.0
H4689 H 0.54666 0.75076 0.801 0.0
H4690 H 0.57394 0.70201 0.77726 0.0
H4691 H 0.58542 0.71557 0.77145 0.0
H4692 H 0.57009 0.71129 0.7614 0.0
H4693 H 0.56387 0.72646 0.82336 0.0
H4694 H 0.5562 0.74338 0.82235 0.0
H4695 H 0.5745 0.7413 0.81932 0.0
C4696 C 0.30303 0.60556 0.81014 0.0
C4697 C 0.30917 0.60349 0.82323 0.0
C4698 C 0.29714 0.59445 0.80266 0.0
C4699 C 0.29732 0.58089 0.8084 0.0
C4700 C 0.30368 0.57869 0.82152 0.0
C4701 C 0.30956 0.59001 0.82876 0.0
C4702 C 0.29056 0.59725 0.78866 0.0
C4703 C 0.30402 0.56443 0.82803 0.0
C4704 C 0.26925 0.55681 0.79379 0.0
C4705 C 0.27649 0.54976 0.78349 0.0
C4706 C 0.27605 0.56645 0.80246 0.0
C4707 C 0.29045 0.56919 0.80076 0.0
C4708 C 0.29797 0.56154 0.7909 0.0
C4709 C 0.2909 0.5519 0.7824 0.0
C4710 C 0.26766 0.57424 0.81294 0.0
C4711 C 0.31332 0.56414 0.78874 0.0
H4712 H 0.30286 0.6159 0.80571 0.0
H4713 H 0.31417 0.58834 0.83892 0.0
H4714 H 0.29541 0.59075 0.78063 0.0
H4715 H 0.27934 0.59443 0.78892 0.0
H4716 H 0.29164 0.6083 0.78547 0.0
H4717 H 0.30985 0.56435 0.83803 0.0
H4718 H 0.29326 0.56062 0.82993 0.0
H4719 H 0.30889 0.55704 0.82085 0.0
H4720 H 0.25812 0.55512 0.79474 0.0
H4721 H 0.29654 0.54661 0.77436 0.0
H4722 H 0.26703 0.58528 0.80975 0.0
H4723 H 0.27281 0.57394 0.82328 0.0
H4724 H 0.25692 0.56995 0.81394 0.0
H4725 H 0.31498 0.57458 0.78408 0.0
H4726 H 0.31793 0.55636 0.78178 0.0
H4727 H 0.31897 0.56398 0.79882 0.0
C4728 C 0.42962 0.30782 0.82983 0.0
C4729 C 0.41672 0.31029 0.82345 0.0
C4730 C 0.44043 0.30149 0.82258 0.0
C4731 C 0.43831 0.29751 0.80859 0.0
C4732 C 0.42548 0.3004 0.80195 0.0
C4733 C 0.41486 0.30674 0.80944 0.0
C4734 C 0.45395 0.29867 0.83004 0.0
C4735 C 0.42277 0.29631 0.78706 0.0
C4736 C 0.46866 0.28815 0.7853 0.0
C4737 C 0.46782 0.27366 0.78563 0.0
C4738 C 0.45937 0.29611 0.79303 0.0
C4739 C 0.44904 0.28937 0.80121 0.0
C4740 C 0.44851 0.2747 0.80185 0.0
C4741 C 0.45787 0.26704 0.79401 0.0
C4742 C 0.46027 0.31171 0.79205 0.0
C4743 C 0.43774 0.26707 0.81046 0.0
H4744 H 0.43125 0.31072 0.84058 0.0
H4745 H 0.40491 0.30846 0.80444 0.0
H4746 H 0.45533 0.28732 0.83109 0.0
H4747 H 0.46284 0.30282 0.82392 0.0
H4748 H 0.45435 0.30333 0.84055 0.0
H4749 H 0.41266 0.30015 0.7831 0.0
H4750 H 0.43118 0.30041 0.78029 0.0
H4751 H 0.42272 0.28485 0.78619 0.0
H4752 H 0.47627 0.29322 0.77866 0.0
H4753 H 0.45719 0.25581 0.79411 0.0
H4754 H 0.46075 0.31628 0.80258 0.0
H4755 H 0.45078 0.31567 0.78686 0.0
H4756 H 0.46949 0.31536 0.7861 0.0
H4757 H 0.43819 0.27071 0.82135 0.0
H4758 H 0.43919 0.25567 0.81041 0.0
H4759 H 0.42719 0.26928 0.80637 0.0
C4760 C 0.30765 0.42027 0.21092 0.0
C4761 C 0.32216 0.41987 0.21253 0.0
C4762 C 0.29986 0.43072 0.21715 0.0
C4763 C 0.30669 0.44099 0.22528 0.0
C4764 C 0.32137 0.44101 0.22642 0.0
C4765 C 0.32891 0.43052 0.22 0.0
C4766 C 0.28423 0.43035 0.21559 0.0
C4767 C 0.32909 0.45173 0.23499 0.0
C4768 C 0.2867 0.47277 0.23682 0.0
C4769 C 0.28221 0.46856 0.25003 0.0
C4770 C 0.29469 0.46393 0.22858 0.0
C4771 C 0.29843 0.45072 0.2338 0.0
C4772 C 0.29419 0.44663 0.24728 0.0
C4773 C 0.28611 0.45556 0.25518 0.0
C4774 C 0.29891 0.46861 0.21422 0.0
C4775 C 0.2981 0.43276 0.25337 0.0
H4776 H 0.30229 0.41208 0.20528 0.0
H4777 H 0.34013 0.4305 0.22107 0.0
H4778 H 0.27944 0.42753 0.22569 0.0
H4779 H 0.2804 0.44073 0.2126 0.0
H4780 H 0.28064 0.42272 0.2077 0.0
H4781 H 0.34054 0.45111 0.23381 0.0
H4782 H 0.3258 0.46231 0.23203 0.0
H4783 H 0.32654 0.45021 0.24612 0.0
H4784 H 0.28367 0.4828 0.23282 0.0
H4785 H 0.28282 0.45236 0.26547 0.0
H4786 H 0.29433 0.46146 0.20639 0.0
H4787 H 0.31037 0.46823 0.21316 0.0
H4788 H 0.29549 0.4793 0.21182 0.0
H4789 H 0.29374 0.42429 0.24684 0.0
H4790 H 0.29424 0.43129 0.26414 0.0
H4791 H 0.30956 0.43174 0.25347 0.0
C4792 C 0.60492 0.30613 0.21639 0.0
C4793 C 0.60239 0.31099 0.20287 0.0
C4794 C 0.59424 0.30004 0.22436 0.0
C4795 C 0.58063 0.2988 0.2187 0.0
C4796 C 0.57793 0.30396 0.20518 0.0
C4797 C 0.58883 0.30996 0.19741 0.0
C4798 C 0.5976 0.29461 0.23871 0.0
C4799 C 0.56356 0.30295 0.19882 0.0
C4800 C 0.5584 0.27003 0.2347 0.0
C4801 C 0.55084 0.27722 0.24468 0.0
C4802 C 0.5677 0.277 0.22579 0.0
C4803 C 0.56947 0.29156 0.22681 0.0
C4804 C 0.56129 0.29898 0.2363 0.0
C4805 C 0.55209 0.29172 0.24514 0.0
C4806 C 0.57614 0.26869 0.21577 0.0
C4807 C 0.56278 0.3145 0.23765 0.0
H4808 H 0.61538 0.3067 0.22063 0.0
H4809 H 0.58675 0.31384 0.18703 0.0
H4810 H 0.59068 0.29932 0.24646 0.0
H4811 H 0.59572 0.28323 0.23911 0.0
H4812 H 0.60857 0.29679 0.24178 0.0
H4813 H 0.56301 0.30806 0.18847 0.0
H4814 H 0.56041 0.2919 0.19767 0.0
H4815 H 0.5559 0.30779 0.20575 0.0
H4816 H 0.55737 0.25884 0.23417 0.0
H4817 H 0.54641 0.29735 0.2529 0.0
H4818 H 0.58728 0.26924 0.21883 0.0
H4819 H 0.57528 0.27308 0.20514 0.0
H4820 H 0.57279 0.25762 0.21551 0.0
H4821 H 0.57311 0.31715 0.2422 0.0
H4822 H 0.55464 0.31889 0.24437 0.0
H4823 H 0.56223 0.31956 0.22729 0.0
C4824 C 0.4255 0.70075 0.2066 0.0
C4825 C 0.41731 0.70934 0.19818 0.0
C4826 C 0.43601 0.70632 0.21525 0.0
C4827 C 0.43838 0.72084 0.21553 0.0
C4828 C 0.43041 0.72953 0.20677 0.0
C4829 C 0.41999 0.72369 0.19824 0.0
C4830 C 0.44429 0.6967 0.2244 0.0
C4831 C 0.43252 0.74507 0.2068 0.0
C4832 C 0.4524 0.73743 0.24851 0.0
C4833 C 0.46627 0.74051 0.24507 0.0
C4834 C 0.44335 0.73083 0.23909 0.0
C4835 C 0.44825 0.7271 0.22584 0.0
C4836 C 0.46235 0.72983 0.22239 0.0
C4837 C 0.47122 0.73647 0.23207 0.0
C4838 C 0.42844 0.72806 0.24326 0.0
C4839 C 0.46796 0.72598 0.20838 0.0
H4840 H 0.42365 0.68964 0.20649 0.0
H4841 H 0.41362 0.73045 0.19193 0.0
H4842 H 0.45559 0.6987 0.22301 0.0
H4843 H 0.44191 0.69867 0.23546 0.0
H4844 H 0.44198 0.68562 0.22216 0.0
H4845 H 0.42625 0.75028 0.19864 0.0
H4846 H 0.42955 0.74923 0.21705 0.0
H4847 H 0.44365 0.74779 0.2052 0.0
H4848 H 0.44858 0.7402 0.25867 0.0
H4849 H 0.48193 0.7388 0.22936 0.0
H4850 H 0.42586 0.71686 0.24227 0.0
H4851 H 0.42134 0.73375 0.23621 0.0
H4852 H 0.42637 0.73127 0.2541 0.0
H4853 H 0.46593 0.71483 0.20634 0.0
H4854 H 0.47931 0.72812 0.20756 0.0
H4855 H 0.46254 0.73193 0.20013 0.0
loop_
_geom_bond_atom_site_label_1
_geom_bond_atom_site_label_2
_geom_bond_distance
_geom_bond_site_symmetry_2
_ccdc_geom_bond_type
C0 C1 1.264 . S
C0 C5 1.479 . S
C0 C10 1.465 . S
C1 C0 1.264 . S
C1 C3 1.339 . S
C1 H28 0.931 . S
C2 C3 1.395 . S
C2 C4 1.320 . S
C3 C1 1.339 . S
C3 C2 1.395 . S
C3 H29 0.929 . S
C4 C2 1.320 . S
C4 C5 1.405 . S
C4 H30 0.930 . S
C5 C0 1.479 . S
C5 C4 1.405 . S
C5 H31 0.931 . S
U6 O7 2.454 . S
U6 O8 2.458 . S
U6 C9 2.984 . S
U6 C10 2.847 . S
U6 C23 2.882 . S
U6 O24 2.441 . S
U6 O25 2.420 . S
U6 O26 2.455 . S
U6 O27 2.449 . S
O7 U6 2.454 . S
O7 C9 1.353 . S
O8 U6 2.458 . S
O8 C9 1.286 . S
C9 U6 2.984 . S
C9 O7 1.353 . S
C9 O8 1.286 . S
C9 C11 1.363 . S
C10 C0 1.465 . S
C10 U6 2.847 . S
C10 O24 1.249 . S
C10 O25 1.202 . S
C11 C9 1.363 . S
C11 C13 1.408 . S
C11 C16 1.342 . S
C12 C13 1.310 . S
C12 C15 1.461 . S
C12 H32 0.932 . S
C13 C11 1.408 . S
C13 C12 1.310 . S
C13 H33 0.930 . S
C14 C15 1.474 . S
C14 C16 1.285 . S
C14 H34 0.929 . S
C15 C12 1.461 . S
C15 C14 1.474 . S
C16 C11 1.342 . S
C16 C14 1.285 . S
C16 H35 0.930 . S
C17 C20 1.424 . S
C17 C22 1.245 . S
C17 C23 1.428 . S
C18 C21 1.260 . S
C18 C22 1.477 . S
C18 H36 0.932 . S
C19 C20 1.384 . S
C19 C21 1.479 . S
C19 H37 0.929 . S
C20 C17 1.424 . S
C20 C19 1.384 . S
C20 H38 0.928 . S
C21 C18 1.260 . S
C21 C19 1.479 . S
C22 C17 1.245 . S
C22 C18 1.477 . S
C22 H39 0.932 . S
C23 U6 2.882 . S
C23 C17 1.428 . S
C23 O26 1.301 . S
C23 O27 1.282 . S
O24 U6 2.441 . S
O24 C10 1.249 . S
O25 U6 2.420 . S
O25 C10 1.202 . S
O26 U6 2.455 . S
O26 C23 1.301 . S
O27 U6 2.449 . S
O27 C23 1.282 . S
H28 C1 0.931 . S
H29 C3 0.929 . S
H30 C4 0.930 . S
H31 C5 0.931 . S
H32 C12 0.932 . S
H33 C13 0.930 . S
H34 C14 0.929 . S
H35 C16 0.930 . S
H36 C18 0.932 . S
H37 C19 0.929 . S
H38 C20 0.928 . S
H39 C22 0.932 . S
C40 C41 1.264 . S
C40 C45 1.479 . S
C40 C50 1.465 . S
C41 C40 1.264 . S
C41 C43 1.339 . S
C41 H68 0.931 . S
C42 C43 1.395 . S
C42 C44 1.320 . S
C43 C41 1.339 . S
C43 C42 1.395 . S
C43 H69 0.929 . S
C44 C42 1.320 . S
C44 C45 1.405 . S
C44 H70 0.930 . S
C45 C40 1.479 . S
C45 C44 1.405 . S
C45 H71 0.931 . S
U46 O47 2.454 . S
U46 O48 2.458 . S
U46 C49 2.984 . S
U46 C50 2.847 . S
U46 C63 2.882 . S
U46 O64 2.441 . S
U46 O65 2.420 . S
U46 O66 2.455 . S
U46 O67 2.449 . S
O47 U46 2.454 . S
O47 C49 1.353 . S
O48 U46 2.458 . S
O48 C49 1.286 . S
C49 U46 2.984 . S
C49 O47 1.353 . S
C49 O48 1.286 . S
C49 C51 1.363 . S
C50 C40 1.465 . S
C50 U46 2.847 . S
C50 O64 1.249 . S
C50 O65 1.202 . S
C51 C49 1.363 . S
C51 C53 1.408 . S
C51 C56 1.342 . S
C52 C53 1.310 . S
C52 C55 1.461 . S
C52 H72 0.932 . S
C53 C51 1.408 . S
C53 C52 1.310 . S
C53 H73 0.930 . S
C54 C55 1.474 . S
C54 C56 1.285 . S
C54 H74 0.929 . S
C55 C52 1.461 . S
C55 C54 1.474 . S
C56 C51 1.342 . S
C56 C54 1.285 . S
C56 H75 0.930 . S
C57 C60 1.424 . S
C57 C62 1.245 . S
C57 C63 1.428 . S
C58 C61 1.260 . S
C58 C62 1.477 . S
C58 H76 0.932 . S
C59 C60 1.384 . S
C59 C61 1.479 . S
C59 H77 0.929 . S
C60 C57 1.424 . S
C60 C59 1.384 . S
C60 H78 0.928 . S
C61 C58 1.260 . S
C61 C59 1.479 . S
C62 C57 1.245 . S
C62 C58 1.477 . S
C62 H79 0.932 . S
C63 U46 2.882 . S
C63 C57 1.428 . S
C63 O66 1.301 . S
C63 O67 1.282 . S
O64 U46 2.441 . S
O64 C50 1.249 . S
O65 U46 2.420 . S
O65 C50 1.202 . S
O66 U46 2.455 . S
O66 C63 1.301 . S
O67 U46 2.449 . S
O67 C63 1.282 . S
H68 C41 0.931 . S
H69 C43 0.929 . S
H70 C44 0.930 . S
H71 C45 0.931 . S
H72 C52 0.932 . S
H73 C53 0.930 . S
H74 C54 0.929 . S
H75 C56 0.930 . S
H76 C58 0.932 . S
H77 C59 0.929 . S
H78 C60 0.928 . S
H79 C62 0.932 . S
C80 C81 1.264 . S
C80 C85 1.479 . S
C80 C90 1.465 . S
C81 C80 1.264 . S
C81 C83 1.339 . S
C81 H108 0.931 . S
C82 C83 1.395 . S
C82 C84 1.320 . S
C83 C81 1.339 . S
C83 C82 1.395 . S
C83 H109 0.929 . S
C84 C82 1.320 . S
C84 C85 1.405 . S
C84 H110 0.930 . S
C85 C80 1.479 . S
C85 C84 1.405 . S
C85 H111 0.931 . S
U86 O87 2.454 . S
U86 O88 2.458 . S
U86 C89 2.984 . S
U86 C90 2.847 . S
U86 C103 2.882 . S
U86 O104 2.441 . S
U86 O105 2.420 . S
U86 O106 2.455 . S
U86 O107 2.449 . S
O87 U86 2.454 . S
O87 C89 1.353 . S
O88 U86 2.458 . S
O88 C89 1.286 . S
C89 U86 2.984 . S
C89 O87 1.353 . S
C89 O88 1.286 . S
C89 C91 1.363 . S
C90 C80 1.465 . S
C90 U86 2.847 . S
C90 O104 1.249 . S
C90 O105 1.202 . S
C91 C89 1.363 . S
C91 C93 1.408 . S
C91 C96 1.342 . S
C92 C93 1.310 . S
C92 C95 1.461 . S
C92 H112 0.932 . S
C93 C91 1.408 . S
C93 C92 1.310 . S
C93 H113 0.930 . S
C94 C95 1.474 . S
C94 C96 1.285 . S
C94 H114 0.929 . S
C95 C92 1.461 . S
C95 C94 1.474 . S
C96 C91 1.342 . S
C96 C94 1.285 . S
C96 H115 0.930 . S
C97 C100 1.424 . S
C97 C102 1.245 . S
C97 C103 1.428 . S
C98 C101 1.260 . S
C98 C102 1.477 . S
C98 H116 0.932 . S
C99 C100 1.384 . S
C99 C101 1.479 . S
C99 H117 0.929 . S
C100 C97 1.424 . S
C100 C99 1.384 . S
C100 H118 0.928 . S
C101 C98 1.260 . S
C101 C99 1.479 . S
C102 C97 1.245 . S
C102 C98 1.477 . S
C102 H119 0.932 . S
C103 U86 2.882 . S
C103 C97 1.428 . S
C103 O106 1.301 . S
C103 O107 1.282 . S
O104 U86 2.441 . S
O104 C90 1.249 . S
O105 U86 2.420 . S
O105 C90 1.202 . S
O106 U86 2.455 . S
O106 C103 1.301 . S
O107 U86 2.449 . S
O107 C103 1.282 . S
H108 C81 0.931 . S
H109 C83 0.929 . S
H110 C84 0.930 . S
H111 C85 0.931 . S
H112 C92 0.932 . S
H113 C93 0.930 . S
H114 C94 0.929 . S
H115 C96 0.930 . S
H116 C98 0.932 . S
H117 C99 0.929 . S
H118 C100 0.928 . S
H119 C102 0.932 . S
C120 C121 1.264 . S
C120 C125 1.479 . S
C120 C130 1.465 . S
C121 C120 1.264 . S
C121 C123 1.339 . S
C121 H148 0.931 . S
C122 C123 1.395 . S
C122 C124 1.320 . S
C123 C121 1.339 . S
C123 C122 1.395 . S
C123 H149 0.929 . S
C124 C122 1.320 . S
C124 C125 1.405 . S
C124 H150 0.930 . S
C125 C120 1.479 . S
C125 C124 1.405 . S
C125 H151 0.931 . S
U126 O127 2.454 . S
U126 O128 2.458 . S
U126 C129 2.984 . S
U126 C130 2.847 . S
U126 C143 2.882 . S
U126 O144 2.441 . S
U126 O145 2.420 . S
U126 O146 2.455 . S
U126 O147 2.449 . S
O127 U126 2.454 . S
O127 C129 1.353 . S
O128 U126 2.458 . S
O128 C129 1.286 . S
C129 U126 2.984 . S
C129 O127 1.353 . S
C129 O128 1.286 . S
C129 C131 1.363 . S
C130 C120 1.465 . S
C130 U126 2.847 . S
C130 O144 1.249 . S
C130 O145 1.202 . S
C131 C129 1.363 . S
C131 C133 1.408 . S
C131 C136 1.342 . S
C132 C133 1.310 . S
C132 C135 1.461 . S
C132 H152 0.932 . S
C133 C131 1.408 . S
C133 C132 1.310 . S
C133 H153 0.930 . S
C134 C135 1.474 . S
C134 C136 1.285 . S
C134 H154 0.929 . S
C135 C132 1.461 . S
C135 C134 1.474 . S
C136 C131 1.342 . S
C136 C134 1.285 . S
C136 H155 0.930 . S
C137 C140 1.424 . S
C137 C142 1.245 . S
C137 C143 1.428 . S
C138 C141 1.260 . S
C138 C142 1.477 . S
C138 H156 0.932 . S
C139 C140 1.384 . S
C139 C141 1.479 . S
C139 H157 0.929 . S
C140 C137 1.424 . S
C140 C139 1.384 . S
C140 H158 0.928 . S
C141 C138 1.260 . S
C141 C139 1.479 . S
C142 C137 1.245 . S
C142 C138 1.477 . S
C142 H159 0.932 . S
C143 U126 2.882 . S
C143 C137 1.428 . S
C143 O146 1.301 . S
C143 O147 1.282 . S
O144 U126 2.441 . S
O144 C130 1.249 . S
O145 U126 2.420 . S
O145 C130 1.202 . S
O146 U126 2.455 . S
O146 C143 1.301 . S
O147 U126 2.449 . S
O147 C143 1.282 . S
H148 C121 0.931 . S
H149 C123 0.929 . S
H150 C124 0.930 . S
H151 C125 0.931 . S
H152 C132 0.932 . S
H153 C133 0.930 . S
H154 C134 0.929 . S
H155 C136 0.930 . S
H156 C138 0.932 . S
H157 C139 0.929 . S
H158 C140 0.928 . S
H159 C142 0.932 . S
C160 C161 1.264 . S
C160 C165 1.479 . S
C160 C170 1.465 . S
C161 C160 1.264 . S
C161 C163 1.339 . S
C161 H188 0.931 . S
C162 C163 1.395 . S
C162 C164 1.320 . S
C163 C161 1.339 . S
C163 C162 1.395 . S
C163 H189 0.929 . S
C164 C162 1.320 . S
C164 C165 1.405 . S
C164 H190 0.930 . S
C165 C160 1.479 . S
C165 C164 1.405 . S
C165 H191 0.931 . S
U166 O167 2.454 . S
U166 O168 2.458 . S
U166 C169 2.984 . S
U166 C170 2.847 . S
U166 C183 2.882 . S
U166 O184 2.441 . S
U166 O185 2.420 . S
U166 O186 2.455 . S
U166 O187 2.449 . S
O167 U166 2.454 . S
O167 C169 1.353 . S
O168 U166 2.458 . S
O168 C169 1.286 . S
C169 U166 2.984 . S
C169 O167 1.353 . S
C169 O168 1.286 . S
C169 C171 1.363 . S
C170 C160 1.465 . S
C170 U166 2.847 . S
C170 O184 1.249 . S
C170 O185 1.202 . S
C171 C169 1.363 . S
C171 C173 1.408 . S
C171 C176 1.342 . S
C172 C173 1.310 . S
C172 C175 1.461 . S
C172 H192 0.932 . S
C173 C171 1.408 . S
C173 C172 1.310 . S
C173 H193 0.930 . S
C174 C175 1.474 . S
C174 C176 1.285 . S
C174 H194 0.929 . S
C175 C172 1.461 . S
C175 C174 1.474 . S
C176 C171 1.342 . S
C176 C174 1.285 . S
C176 H195 0.930 . S
C177 C180 1.424 . S
C177 C182 1.245 . S
C177 C183 1.428 . S
C178 C181 1.260 . S
C178 C182 1.477 . S
C178 H196 0.932 . S
C179 C180 1.384 . S
C179 C181 1.479 . S
C179 H197 0.929 . S
C180 C177 1.424 . S
C180 C179 1.384 . S
C180 H198 0.928 . S
C181 C178 1.260 . S
C181 C179 1.479 . S
C182 C177 1.245 . S
C182 C178 1.477 . S
C182 H199 0.932 . S
C183 U166 2.882 . S
C183 C177 1.428 . S
C183 O186 1.301 . S
C183 O187 1.282 . S
O184 U166 2.441 . S
O184 C170 1.249 . S
O185 U166 2.420 . S
O185 C170 1.202 . S
O186 U166 2.455 . S
O186 C183 1.301 . S
O187 U166 2.449 . S
O187 C183 1.282 . S
H188 C161 0.931 . S
H189 C163 0.929 . S
H190 C164 0.930 . S
H191 C165 0.931 . S
H192 C172 0.932 . S
H193 C173 0.930 . S
H194 C174 0.929 . S
H195 C176 0.930 . S
H196 C178 0.932 . S
H197 C179 0.929 . S
H198 C180 0.928 . S
H199 C182 0.932 . S
C200 C201 1.264 . S
C200 C205 1.479 . S
C200 C210 1.465 . S
C201 C200 1.264 . S
C201 C203 1.339 . S
C201 H228 0.931 . S
C202 C203 1.395 . S
C202 C204 1.320 . S
C203 C201 1.339 . S
C203 C202 1.395 . S
C203 H229 0.929 . S
C204 C202 1.320 . S
C204 C205 1.405 . S
C204 H230 0.930 . S
C205 C200 1.479 . S
C205 C204 1.405 . S
C205 H231 0.931 . S
U206 O207 2.454 . S
U206 O208 2.458 . S
U206 C209 2.984 . S
U206 C210 2.847 . S
U206 C223 2.882 . S
U206 O224 2.441 . S
U206 O225 2.420 . S
U206 O226 2.455 . S
U206 O227 2.449 . S
O207 U206 2.454 . S
O207 C209 1.353 . S
O208 U206 2.458 . S
O208 C209 1.286 . S
C209 U206 2.984 . S
C209 O207 1.353 . S
C209 O208 1.286 . S
C209 C211 1.363 . S
C210 C200 1.465 . S
C210 U206 2.847 . S
C210 O224 1.249 . S
C210 O225 1.202 . S
C211 C209 1.363 . S
C211 C213 1.408 . S
C211 C216 1.342 . S
C212 C213 1.310 . S
C212 C215 1.461 . S
C212 H232 0.932 . S
C213 C211 1.408 . S
C213 C212 1.310 . S
C213 H233 0.930 . S
C214 C215 1.474 . S
C214 C216 1.285 . S
C214 H234 0.929 . S
C215 C212 1.461 . S
C215 C214 1.474 . S
C216 C211 1.342 . S
C216 C214 1.285 . S
C216 H235 0.930 . S
C217 C220 1.424 . S
C217 C222 1.245 . S
C217 C223 1.428 . S
C218 C221 1.260 . S
C218 C222 1.477 . S
C218 H236 0.932 . S
C219 C220 1.384 . S
C219 C221 1.479 . S
C219 H237 0.929 . S
C220 C217 1.424 . S
C220 C219 1.384 . S
C220 H238 0.928 . S
C221 C218 1.260 . S
C221 C219 1.479 . S
C222 C217 1.245 . S
C222 C218 1.477 . S
C222 H239 0.932 . S
C223 U206 2.882 . S
C223 C217 1.428 . S
C223 O226 1.301 . S
C223 O227 1.282 . S
O224 U206 2.441 . S
O224 C210 1.249 . S
O225 U206 2.420 . S
O225 C210 1.202 . S
O226 U206 2.455 . S
O226 C223 1.301 . S
O227 U206 2.449 . S
O227 C223 1.282 . S
H228 C201 0.931 . S
H229 C203 0.929 . S
H230 C204 0.930 . S
H231 C205 0.931 . S
H232 C212 0.932 . S
H233 C213 0.930 . S
H234 C214 0.929 . S
H235 C216 0.930 . S
H236 C218 0.932 . S
H237 C219 0.929 . S
H238 C220 0.928 . S
H239 C222 0.932 . S
C240 C241 1.264 . S
C240 C245 1.479 . S
C240 C250 1.465 . S
C241 C240 1.264 . S
C241 C243 1.339 . S
C241 H268 0.931 . S
C242 C243 1.395 . S
C242 C244 1.320 . S
C243 C241 1.339 . S
C243 C242 1.395 . S
C243 H269 0.929 . S
C244 C242 1.320 . S
C244 C245 1.405 . S
C244 H270 0.930 . S
C245 C240 1.479 . S
C245 C244 1.405 . S
C245 H271 0.931 . S
U246 O247 2.454 . S
U246 O248 2.458 . S
U246 C249 2.984 . S
U246 C250 2.847 . S
U246 C263 2.882 . S
U246 O264 2.441 . S
U246 O265 2.420 . S
U246 O266 2.455 . S
U246 O267 2.449 . S
O247 U246 2.454 . S
O247 C249 1.353 . S
O248 U246 2.458 . S
O248 C249 1.286 . S
C249 U246 2.984 . S
C249 O247 1.353 . S
C249 O248 1.286 . S
C249 C251 1.363 . S
C250 C240 1.465 . S
C250 U246 2.847 . S
C250 O264 1.249 . S
C250 O265 1.202 . S
C251 C249 1.363 . S
C251 C253 1.408 . S
C251 C256 1.342 . S
C252 C253 1.310 . S
C252 C255 1.461 . S
C252 H272 0.932 . S
C253 C251 1.408 . S
C253 C252 1.310 . S
C253 H273 0.930 . S
C254 C255 1.474 . S
C254 C256 1.285 . S
C254 H274 0.929 . S
C255 C252 1.461 . S
C255 C254 1.474 . S
C256 C251 1.342 . S
C256 C254 1.285 . S
C256 H275 0.930 . S
C257 C260 1.424 . S
C257 C262 1.245 . S
C257 C263 1.428 . S
C258 C261 1.260 . S
C258 C262 1.477 . S
C258 H276 0.932 . S
C259 C260 1.384 . S
C259 C261 1.479 . S
C259 H277 0.929 . S
C260 C257 1.424 . S
C260 C259 1.384 . S
C260 H278 0.928 . S
C261 C258 1.260 . S
C261 C259 1.479 . S
C262 C257 1.245 . S
C262 C258 1.477 . S
C262 H279 0.932 . S
C263 U246 2.882 . S
C263 C257 1.428 . S
C263 O266 1.301 . S
C263 O267 1.282 . S
O264 U246 2.441 . S
O264 C250 1.249 . S
O265 U246 2.420 . S
O265 C250 1.202 . S
O266 U246 2.455 . S
O266 C263 1.301 . S
O267 U246 2.449 . S
O267 C263 1.282 . S
H268 C241 0.931 . S
H269 C243 0.929 . S
H270 C244 0.930 . S
H271 C245 0.931 . S
H272 C252 0.932 . S
H273 C253 0.930 . S
H274 C254 0.929 . S
H275 C256 0.930 . S
H276 C258 0.932 . S
H277 C259 0.929 . S
H278 C260 0.928 . S
H279 C262 0.932 . S
C280 C281 1.264 . S
C280 C285 1.479 . S
C280 C290 1.465 . S
C281 C280 1.264 . S
C281 C283 1.339 . S
C281 H308 0.931 . S
C282 C283 1.395 . S
C282 C284 1.320 . S
C283 C281 1.339 . S
C283 C282 1.395 . S
C283 H309 0.929 . S
C284 C282 1.320 . S
C284 C285 1.405 . S
C284 H310 0.930 . S
C285 C280 1.479 . S
C285 C284 1.405 . S
C285 H311 0.931 . S
U286 O287 2.454 . S
U286 O288 2.458 . S
U286 C289 2.984 . S
U286 C290 2.847 . S
U286 C303 2.882 . S
U286 O304 2.441 . S
U286 O305 2.420 . S
U286 O306 2.455 . S
U286 O307 2.449 . S
O287 U286 2.454 . S
O287 C289 1.353 . S
O288 U286 2.458 . S
O288 C289 1.286 . S
C289 U286 2.984 . S
C289 O287 1.353 . S
C289 O288 1.286 . S
C289 C291 1.363 . S
C290 C280 1.465 . S
C290 U286 2.847 . S
C290 O304 1.249 . S
C290 O305 1.202 . S
C291 C289 1.363 . S
C291 C293 1.408 . S
C291 C296 1.342 . S
C292 C293 1.310 . S
C292 C295 1.461 . S
C292 H312 0.932 . S
C293 C291 1.408 . S
C293 C292 1.310 . S
C293 H313 0.930 . S
C294 C295 1.474 . S
C294 C296 1.285 . S
C294 H314 0.929 . S
C295 C292 1.461 . S
C295 C294 1.474 . S
C296 C291 1.342 . S
C296 C294 1.285 . S
C296 H315 0.930 . S
C297 C300 1.424 . S
C297 C302 1.245 . S
C297 C303 1.428 . S
C298 C301 1.260 . S
C298 C302 1.477 . S
C298 H316 0.932 . S
C299 C300 1.384 . S
C299 C301 1.479 . S
C299 H317 0.929 . S
C300 C297 1.424 . S
C300 C299 1.384 . S
C300 H318 0.928 . S
C301 C298 1.260 . S
C301 C299 1.479 . S
C302 C297 1.245 . S
C302 C298 1.477 . S
C302 H319 0.932 . S
C303 U286 2.882 . S
C303 C297 1.428 . S
C303 O306 1.301 . S
C303 O307 1.282 . S
O304 U286 2.441 . S
O304 C290 1.249 . S
O305 U286 2.420 . S
O305 C290 1.202 . S
O306 U286 2.455 . S
O306 C303 1.301 . S
O307 U286 2.449 . S
O307 C303 1.282 . S
H308 C281 0.931 . S
H309 C283 0.929 . S
H310 C284 0.930 . S
H311 C285 0.931 . S
H312 C292 0.932 . S
H313 C293 0.930 . S
H314 C294 0.929 . S
H315 C296 0.930 . S
H316 C298 0.932 . S
H317 C299 0.929 . S
H318 C300 0.928 . S
H319 C302 0.932 . S
C320 C321 1.264 . S
C320 C325 1.479 . S
C320 C330 1.465 . S
C321 C320 1.264 . S
C321 C323 1.339 . S
C321 H348 0.931 . S
C322 C323 1.395 . S
C322 C324 1.320 . S
C323 C321 1.339 . S
C323 C322 1.395 . S
C323 H349 0.929 . S
C324 C322 1.320 . S
C324 C325 1.405 . S
C324 H350 0.930 . S
C325 C320 1.479 . S
C325 C324 1.405 . S
C325 H351 0.931 . S
U326 O327 2.454 . S
U326 O328 2.458 . S
U326 C329 2.984 . S
U326 C330 2.847 . S
U326 C343 2.882 . S
U326 O344 2.441 . S
U326 O345 2.420 . S
U326 O346 2.455 . S
U326 O347 2.449 . S
O327 U326 2.454 . S
O327 C329 1.353 . S
O328 U326 2.458 . S
O328 C329 1.286 . S
C329 U326 2.984 . S
C329 O327 1.353 . S
C329 O328 1.286 . S
C329 C331 1.363 . S
C330 C320 1.465 . S
C330 U326 2.847 . S
C330 O344 1.249 . S
C330 O345 1.202 . S
C331 C329 1.363 . S
C331 C333 1.408 . S
C331 C336 1.342 . S
C332 C333 1.310 . S
C332 C335 1.461 . S
C332 H352 0.932 . S
C333 C331 1.408 . S
C333 C332 1.310 . S
C333 H353 0.930 . S
C334 C335 1.474 . S
C334 C336 1.285 . S
C334 H354 0.929 . S
C335 C332 1.461 . S
C335 C334 1.474 . S
C336 C331 1.342 . S
C336 C334 1.285 . S
C336 H355 0.930 . S
C337 C340 1.424 . S
C337 C342 1.245 . S
C337 C343 1.428 . S
C338 C341 1.260 . S
C338 C342 1.477 . S
C338 H356 0.932 . S
C339 C340 1.384 . S
C339 C341 1.479 . S
C339 H357 0.929 . S
C340 C337 1.424 . S
C340 C339 1.384 . S
C340 H358 0.928 . S
C341 C338 1.260 . S
C341 C339 1.479 . S
C342 C337 1.245 . S
C342 C338 1.477 . S
C342 H359 0.932 . S
C343 U326 2.882 . S
C343 C337 1.428 . S
C343 O346 1.301 . S
C343 O347 1.282 . S
O344 U326 2.441 . S
O344 C330 1.249 . S
O345 U326 2.420 . S
O345 C330 1.202 . S
O346 U326 2.455 . S
O346 C343 1.301 . S
O347 U326 2.449 . S
O347 C343 1.282 . S
H348 C321 0.931 . S
H349 C323 0.929 . S
H350 C324 0.930 . S
H351 C325 0.931 . S
H352 C332 0.932 . S
H353 C333 0.930 . S
H354 C334 0.929 . S
H355 C336 0.930 . S
H356 C338 0.932 . S
H357 C339 0.929 . S
H358 C340 0.928 . S
H359 C342 0.932 . S
C360 C361 1.264 . S
C360 C365 1.479 . S
C360 C370 1.465 . S
C361 C360 1.264 . S
C361 C363 1.339 . S
C361 H388 0.931 . S
C362 C363 1.395 . S
C362 C364 1.320 . S
C363 C361 1.339 . S
C363 C362 1.395 . S
C363 H389 0.929 . S
C364 C362 1.320 . S
C364 C365 1.405 . S
C364 H390 0.930 . S
C365 C360 1.479 . S
C365 C364 1.405 . S
C365 H391 0.931 . S
U366 O367 2.454 . S
U366 O368 2.458 . S
U366 C369 2.984 . S
U366 C370 2.847 . S
U366 C383 2.882 . S
U366 O384 2.441 . S
U366 O385 2.420 . S
U366 O386 2.455 . S
U366 O387 2.449 . S
O367 U366 2.454 . S
O367 C369 1.353 . S
O368 U366 2.458 . S
O368 C369 1.286 . S
C369 U366 2.984 . S
C369 O367 1.353 . S
C369 O368 1.286 . S
C369 C371 1.363 . S
C370 C360 1.465 . S
C370 U366 2.847 . S
C370 O384 1.249 . S
C370 O385 1.202 . S
C371 C369 1.363 . S
C371 C373 1.408 . S
C371 C376 1.342 . S
C372 C373 1.310 . S
C372 C375 1.461 . S
C372 H392 0.932 . S
C373 C371 1.408 . S
C373 C372 1.310 . S
C373 H393 0.930 . S
C374 C375 1.474 . S
C374 C376 1.285 . S
C374 H394 0.929 . S
C375 C372 1.461 . S
C375 C374 1.474 . S
C376 C371 1.342 . S
C376 C374 1.285 . S
C376 H395 0.930 . S
C377 C380 1.424 . S
C377 C382 1.245 . S
C377 C383 1.428 . S
C378 C381 1.260 . S
C378 C382 1.477 . S
C378 H396 0.932 . S
C379 C380 1.384 . S
C379 C381 1.479 . S
C379 H397 0.929 . S
C380 C377 1.424 . S
C380 C379 1.384 . S
C380 H398 0.928 . S
C381 C378 1.260 . S
C381 C379 1.479 . S
C382 C377 1.245 . S
C382 C378 1.477 . S
C382 H399 0.932 . S
C383 U366 2.882 . S
C383 C377 1.428 . S
C383 O386 1.301 . S
C383 O387 1.282 . S
O384 U366 2.441 . S
O384 C370 1.249 . S
O385 U366 2.420 . S
O385 C370 1.202 . S
O386 U366 2.455 . S
O386 C383 1.301 . S
O387 U366 2.449 . S
O387 C383 1.282 . S
H388 C361 0.931 . S
H389 C363 0.929 . S
H390 C364 0.930 . S
H391 C365 0.931 . S
H392 C372 0.932 . S
H393 C373 0.930 . S
H394 C374 0.929 . S
H395 C376 0.930 . S
H396 C378 0.932 . S
H397 C379 0.929 . S
H398 C380 0.928 . S
H399 C382 0.932 . S
C400 C401 1.264 . S
C400 C405 1.479 . S
C400 C410 1.465 . S
C401 C400 1.264 . S
C401 C403 1.339 . S
C401 H428 0.931 . S
C402 C403 1.395 . S
C402 C404 1.320 . S
C403 C401 1.339 . S
C403 C402 1.395 . S
C403 H429 0.929 . S
C404 C402 1.320 . S
C404 C405 1.405 . S
C404 H430 0.930 . S
C405 C400 1.479 . S
C405 C404 1.405 . S
C405 H431 0.931 . S
U406 O407 2.454 . S
U406 O408 2.458 . S
U406 C409 2.984 . S
U406 C410 2.847 . S
U406 C423 2.882 . S
U406 O424 2.441 . S
U406 O425 2.420 . S
U406 O426 2.455 . S
U406 O427 2.449 . S
O407 U406 2.454 . S
O407 C409 1.353 . S
O408 U406 2.458 . S
O408 C409 1.286 . S
C409 U406 2.984 . S
C409 O407 1.353 . S
C409 O408 1.286 . S
C409 C411 1.363 . S
C410 C400 1.465 . S
C410 U406 2.847 . S
C410 O424 1.249 . S
C410 O425 1.202 . S
C411 C409 1.363 . S
C411 C413 1.408 . S
C411 C416 1.342 . S
C412 C413 1.310 . S
C412 C415 1.461 . S
C412 H432 0.932 . S
C413 C411 1.408 . S
C413 C412 1.310 . S
C413 H433 0.930 . S
C414 C415 1.474 . S
C414 C416 1.285 . S
C414 H434 0.929 . S
C415 C412 1.461 . S
C415 C414 1.474 . S
C416 C411 1.342 . S
C416 C414 1.285 . S
C416 H435 0.930 . S
C417 C420 1.424 . S
C417 C422 1.245 . S
C417 C423 1.428 . S
C418 C421 1.260 . S
C418 C422 1.477 . S
C418 H436 0.932 . S
C419 C420 1.384 . S
C419 C421 1.479 . S
C419 H437 0.929 . S
C420 C417 1.424 . S
C420 C419 1.384 . S
C420 H438 0.928 . S
C421 C418 1.260 . S
C421 C419 1.479 . S
C422 C417 1.245 . S
C422 C418 1.477 . S
C422 H439 0.932 . S
C423 U406 2.882 . S
C423 C417 1.428 . S
C423 O426 1.301 . S
C423 O427 1.282 . S
O424 U406 2.441 . S
O424 C410 1.249 . S
O425 U406 2.420 . S
O425 C410 1.202 . S
O426 U406 2.455 . S
O426 C423 1.301 . S
O427 U406 2.449 . S
O427 C423 1.282 . S
H428 C401 0.931 . S
H429 C403 0.929 . S
H430 C404 0.930 . S
H431 C405 0.931 . S
H432 C412 0.932 . S
H433 C413 0.930 . S
H434 C414 0.929 . S
H435 C416 0.930 . S
H436 C418 0.932 . S
H437 C419 0.929 . S
H438 C420 0.928 . S
H439 C422 0.932 . S
C440 C441 1.264 . S
C440 C445 1.479 . S
C440 C450 1.465 . S
C441 C440 1.264 . S
C441 C443 1.339 . S
C441 H468 0.931 . S
C442 C443 1.395 . S
C442 C444 1.320 . S
C443 C441 1.339 . S
C443 C442 1.395 . S
C443 H469 0.929 . S
C444 C442 1.320 . S
C444 C445 1.405 . S
C444 H470 0.930 . S
C445 C440 1.479 . S
C445 C444 1.405 . S
C445 H471 0.931 . S
U446 O447 2.454 . S
U446 O448 2.458 . S
U446 C449 2.984 . S
U446 C450 2.847 . S
U446 C463 2.882 . S
U446 O464 2.441 . S
U446 O465 2.420 . S
U446 O466 2.455 . S
U446 O467 2.449 . S
O447 U446 2.454 . S
O447 C449 1.353 . S
O448 U446 2.458 . S
O448 C449 1.286 . S
C449 U446 2.984 . S
C449 O447 1.353 . S
C449 O448 1.286 . S
C449 C451 1.363 . S
C450 C440 1.465 . S
C450 U446 2.847 . S
C450 O464 1.249 . S
C450 O465 1.202 . S
C451 C449 1.363 . S
C451 C453 1.408 . S
C451 C456 1.342 . S
C452 C453 1.310 . S
C452 C455 1.461 . S
C452 H472 0.932 . S
C453 C451 1.408 . S
C453 C452 1.310 . S
C453 H473 0.930 . S
C454 C455 1.474 . S
C454 C456 1.285 . S
C454 H474 0.929 . S
C455 C452 1.461 . S
C455 C454 1.474 . S
C456 C451 1.342 . S
C456 C454 1.285 . S
C456 H475 0.930 . S
C457 C460 1.424 . S
C457 C462 1.245 . S
C457 C463 1.428 . S
C458 C461 1.260 . S
C458 C462 1.477 . S
C458 H476 0.932 . S
C459 C460 1.384 . S
C459 C461 1.479 . S
C459 H477 0.929 . S
C460 C457 1.424 . S
C460 C459 1.384 . S
C460 H478 0.928 . S
C461 C458 1.260 . S
C461 C459 1.479 . S
C462 C457 1.245 . S
C462 C458 1.477 . S
C462 H479 0.932 . S
C463 U446 2.882 . S
C463 C457 1.428 . S
C463 O466 1.301 . S
C463 O467 1.282 . S
O464 U446 2.441 . S
O464 C450 1.249 . S
O465 U446 2.420 . S
O465 C450 1.202 . S
O466 U446 2.455 . S
O466 C463 1.301 . S
O467 U446 2.449 . S
O467 C463 1.282 . S
H468 C441 0.931 . S
H469 C443 0.929 . S
H470 C444 0.930 . S
H471 C445 0.931 . S
H472 C452 0.932 . S
H473 C453 0.930 . S
H474 C454 0.929 . S
H475 C456 0.930 . S
H476 C458 0.932 . S
H477 C459 0.929 . S
H478 C460 0.928 . S
H479 C462 0.932 . S
C480 C481 1.264 . S
C480 C485 1.479 . S
C480 C490 1.465 . S
C481 C480 1.264 . S
C481 C483 1.339 . S
C481 H508 0.931 . S
C482 C483 1.395 . S
C482 C484 1.320 . S
C483 C481 1.339 . S
C483 C482 1.395 . S
C483 H509 0.929 . S
C484 C482 1.320 . S
C484 C485 1.405 . S
C484 H510 0.930 . S
C485 C480 1.479 . S
C485 C484 1.405 . S
C485 H511 0.931 . S
U486 O487 2.454 . S
U486 O488 2.458 . S
U486 C489 2.984 . S
U486 C490 2.847 . S
U486 C503 2.882 . S
U486 O504 2.441 . S
U486 O505 2.420 . S
U486 O506 2.455 . S
U486 O507 2.449 . S
O487 U486 2.454 . S
O487 C489 1.353 . S
O488 U486 2.458 . S
O488 C489 1.286 . S
C489 U486 2.984 . S
C489 O487 1.353 . S
C489 O488 1.286 . S
C489 C491 1.363 . S
C490 C480 1.465 . S
C490 U486 2.847 . S
C490 O504 1.249 . S
C490 O505 1.202 . S
C491 C489 1.363 . S
C491 C493 1.408 . S
C491 C496 1.342 . S
C492 C493 1.310 . S
C492 C495 1.461 . S
C492 H512 0.932 . S
C493 C491 1.408 . S
C493 C492 1.310 . S
C493 H513 0.930 . S
C494 C495 1.474 . S
C494 C496 1.285 . S
C494 H514 0.929 . S
C495 C492 1.461 . S
C495 C494 1.474 . S
C496 C491 1.342 . S
C496 C494 1.285 . S
C496 H515 0.930 . S
C497 C500 1.424 . S
C497 C502 1.245 . S
C497 C503 1.428 . S
C498 C501 1.260 . S
C498 C502 1.477 . S
C498 H516 0.932 . S
C499 C500 1.384 . S
C499 C501 1.479 . S
C499 H517 0.929 . S
C500 C497 1.424 . S
C500 C499 1.384 . S
C500 H518 0.928 . S
C501 C498 1.260 . S
C501 C499 1.479 . S
C502 C497 1.245 . S
C502 C498 1.477 . S
C502 H519 0.932 . S
C503 U486 2.882 . S
C503 C497 1.428 . S
C503 O506 1.301 . S
C503 O507 1.282 . S
O504 U486 2.441 . S
O504 C490 1.249 . S
O505 U486 2.420 . S
O505 C490 1.202 . S
O506 U486 2.455 . S
O506 C503 1.301 . S
O507 U486 2.449 . S
O507 C503 1.282 . S
H508 C481 0.931 . S
H509 C483 0.929 . S
H510 C484 0.930 . S
H511 C485 0.931 . S
H512 C492 0.932 . S
H513 C493 0.930 . S
H514 C494 0.929 . S
H515 C496 0.930 . S
H516 C498 0.932 . S
H517 C499 0.929 . S
H518 C500 0.928 . S
H519 C502 0.932 . S
C520 C521 1.264 . S
C520 C525 1.479 . S
C520 C530 1.465 . S
C521 C520 1.264 . S
C521 C523 1.339 . S
C521 H548 0.931 . S
C522 C523 1.395 . S
C522 C524 1.320 . S
C523 C521 1.339 . S
C523 C522 1.395 . S
C523 H549 0.929 . S
C524 C522 1.320 . S
C524 C525 1.405 . S
C524 H550 0.930 . S
C525 C520 1.479 . S
C525 C524 1.405 . S
C525 H551 0.931 . S
U526 O527 2.454 . S
U526 O528 2.458 . S
U526 C529 2.984 . S
U526 C530 2.847 . S
U526 C543 2.882 . S
U526 O544 2.441 . S
U526 O545 2.420 . S
U526 O546 2.455 . S
U526 O547 2.449 . S
O527 U526 2.454 . S
O527 C529 1.353 . S
O528 U526 2.458 . S
O528 C529 1.286 . S
C529 U526 2.984 . S
C529 O527 1.353 . S
C529 O528 1.286 . S
C529 C531 1.363 . S
C530 C520 1.465 . S
C530 U526 2.847 . S
C530 O544 1.249 . S
C530 O545 1.202 . S
C531 C529 1.363 . S
C531 C533 1.408 . S
C531 C536 1.342 . S
C532 C533 1.310 . S
C532 C535 1.461 . S
C532 H552 0.932 . S
C533 C531 1.408 . S
C533 C532 1.310 . S
C533 H553 0.930 . S
C534 C535 1.474 . S
C534 C536 1.285 . S
C534 H554 0.929 . S
C535 C532 1.461 . S
C535 C534 1.474 . S
C536 C531 1.342 . S
C536 C534 1.285 . S
C536 H555 0.930 . S
C537 C540 1.424 . S
C537 C542 1.245 . S
C537 C543 1.428 . S
C538 C541 1.260 . S
C538 C542 1.477 . S
C538 H556 0.932 . S
C539 C540 1.384 . S
C539 C541 1.479 . S
C539 H557 0.929 . S
C540 C537 1.424 . S
C540 C539 1.384 . S
C540 H558 0.928 . S
C541 C538 1.260 . S
C541 C539 1.479 . S
C542 C537 1.245 . S
C542 C538 1.477 . S
C542 H559 0.932 . S
C543 U526 2.882 . S
C543 C537 1.428 . S
C543 O546 1.301 . S
C543 O547 1.282 . S
O544 U526 2.441 . S
O544 C530 1.249 . S
O545 U526 2.420 . S
O545 C530 1.202 . S
O546 U526 2.455 . S
O546 C543 1.301 . S
O547 U526 2.449 . S
O547 C543 1.282 . S
H548 C521 0.931 . S
H549 C523 0.929 . S
H550 C524 0.930 . S
H551 C525 0.931 . S
H552 C532 0.932 . S
H553 C533 0.930 . S
H554 C534 0.929 . S
H555 C536 0.930 . S
H556 C538 0.932 . S
H557 C539 0.929 . S
H558 C540 0.928 . S
H559 C542 0.932 . S
C560 C561 1.264 . S
C560 C565 1.479 . S
C560 C570 1.465 . S
C561 C560 1.264 . S
C561 C563 1.339 . S
C561 H588 0.931 . S
C562 C563 1.395 . S
C562 C564 1.320 . S
C563 C561 1.339 . S
C563 C562 1.395 . S
C563 H589 0.929 . S
C564 C562 1.320 . S
C564 C565 1.405 . S
C564 H590 0.930 . S
C565 C560 1.479 . S
C565 C564 1.405 . S
C565 H591 0.931 . S
U566 O567 2.454 . S
U566 O568 2.458 . S
U566 C569 2.984 . S
U566 C570 2.847 . S
U566 C583 2.882 . S
U566 O584 2.441 . S
U566 O585 2.420 . S
U566 O586 2.455 . S
U566 O587 2.449 . S
O567 U566 2.454 . S
O567 C569 1.353 . S
O568 U566 2.458 . S
O568 C569 1.286 . S
C569 U566 2.984 . S
C569 O567 1.353 . S
C569 O568 1.286 . S
C569 C571 1.363 . S
C570 C560 1.465 . S
C570 U566 2.847 . S
C570 O584 1.249 . S
C570 O585 1.202 . S
C571 C569 1.363 . S
C571 C573 1.408 . S
C571 C576 1.342 . S
C572 C573 1.310 . S
C572 C575 1.461 . S
C572 H592 0.932 . S
C573 C571 1.408 . S
C573 C572 1.310 . S
C573 H593 0.930 . S
C574 C575 1.474 . S
C574 C576 1.285 . S
C574 H594 0.929 . S
C575 C572 1.461 . S
C575 C574 1.474 . S
C576 C571 1.342 . S
C576 C574 1.285 . S
C576 H595 0.930 . S
C577 C580 1.424 . S
C577 C582 1.245 . S
C577 C583 1.428 . S
C578 C581 1.260 . S
C578 C582 1.477 . S
C578 H596 0.932 . S
C579 C580 1.384 . S
C579 C581 1.479 . S
C579 H597 0.929 . S
C580 C577 1.424 . S
C580 C579 1.384 . S
C580 H598 0.928 . S
C581 C578 1.260 . S
C581 C579 1.479 . S
C582 C577 1.245 . S
C582 C578 1.477 . S
C582 H599 0.932 . S
C583 U566 2.882 . S
C583 C577 1.428 . S
C583 O586 1.301 . S
C583 O587 1.282 . S
O584 U566 2.441 . S
O584 C570 1.249 . S
O585 U566 2.420 . S
O585 C570 1.202 . S
O586 U566 2.455 . S
O586 C583 1.301 . S
O587 U566 2.449 . S
O587 C583 1.282 . S
H588 C561 0.931 . S
H589 C563 0.929 . S
H590 C564 0.930 . S
H591 C565 0.931 . S
H592 C572 0.932 . S
H593 C573 0.930 . S
H594 C574 0.929 . S
H595 C576 0.930 . S
H596 C578 0.932 . S
H597 C579 0.929 . S
H598 C580 0.928 . S
H599 C582 0.932 . S
C600 C601 1.264 . S
C600 C605 1.479 . S
C600 C610 1.465 . S
C601 C600 1.264 . S
C601 C603 1.339 . S
C601 H628 0.931 . S
C602 C603 1.395 . S
C602 C604 1.320 . S
C603 C601 1.339 . S
C603 C602 1.395 . S
C603 H629 0.929 . S
C604 C602 1.320 . S
C604 C605 1.405 . S
C604 H630 0.930 . S
C605 C600 1.479 . S
C605 C604 1.405 . S
C605 H631 0.931 . S
U606 O607 2.454 . S
U606 O608 2.458 . S
U606 C609 2.984 . S
U606 C610 2.847 . S
U606 C623 2.882 . S
U606 O624 2.441 . S
U606 O625 2.420 . S
U606 O626 2.455 . S
U606 O627 2.449 . S
O607 U606 2.454 . S
O607 C609 1.353 . S
O608 U606 2.458 . S
O608 C609 1.286 . S
C609 U606 2.984 . S
C609 O607 1.353 . S
C609 O608 1.286 . S
C609 C611 1.363 . S
C610 C600 1.465 . S
C610 U606 2.847 . S
C610 O624 1.249 . S
C610 O625 1.202 . S
C611 C609 1.363 . S
C611 C613 1.408 . S
C611 C616 1.342 . S
C612 C613 1.310 . S
C612 C615 1.461 . S
C612 H632 0.932 . S
C613 C611 1.408 . S
C613 C612 1.310 . S
C613 H633 0.930 . S
C614 C615 1.474 . S
C614 C616 1.285 . S
C614 H634 0.929 . S
C615 C612 1.461 . S
C615 C614 1.474 . S
C616 C611 1.342 . S
C616 C614 1.285 . S
C616 H635 0.930 . S
C617 C620 1.424 . S
C617 C622 1.245 . S
C617 C623 1.428 . S
C618 C621 1.260 . S
C618 C622 1.477 . S
C618 H636 0.932 . S
C619 C620 1.384 . S
C619 C621 1.479 . S
C619 H637 0.929 . S
C620 C617 1.424 . S
C620 C619 1.384 . S
C620 H638 0.928 . S
C621 C618 1.260 . S
C621 C619 1.479 . S
C622 C617 1.245 . S
C622 C618 1.477 . S
C622 H639 0.932 . S
C623 U606 2.882 . S
C623 C617 1.428 . S
C623 O626 1.301 . S
C623 O627 1.282 . S
O624 U606 2.441 . S
O624 C610 1.249 . S
O625 U606 2.420 . S
O625 C610 1.202 . S
O626 U606 2.455 . S
O626 C623 1.301 . S
O627 U606 2.449 . S
O627 C623 1.282 . S
H628 C601 0.931 . S
H629 C603 0.929 . S
H630 C604 0.930 . S
H631 C605 0.931 . S
H632 C612 0.932 . S
H633 C613 0.930 . S
H634 C614 0.929 . S
H635 C616 0.930 . S
H636 C618 0.932 . S
H637 C619 0.929 . S
H638 C620 0.928 . S
H639 C622 0.932 . S
C640 C641 1.264 . S
C640 C645 1.479 . S
C640 C650 1.465 . S
C641 C640 1.264 . S
C641 C643 1.339 . S
C641 H668 0.931 . S
C642 C643 1.395 . S
C642 C644 1.320 . S
C643 C641 1.339 . S
C643 C642 1.395 . S
C643 H669 0.929 . S
C644 C642 1.320 . S
C644 C645 1.405 . S
C644 H670 0.930 . S
C645 C640 1.479 . S
C645 C644 1.405 . S
C645 H671 0.931 . S
U646 O647 2.454 . S
U646 O648 2.458 . S
U646 C649 2.984 . S
U646 C650 2.847 . S
U646 C663 2.882 . S
U646 O664 2.441 . S
U646 O665 2.420 . S
U646 O666 2.455 . S
U646 O667 2.449 . S
O647 U646 2.454 . S
O647 C649 1.353 . S
O648 U646 2.458 . S
O648 C649 1.286 . S
C649 U646 2.984 . S
C649 O647 1.353 . S
C649 O648 1.286 . S
C649 C651 1.363 . S
C650 C640 1.465 . S
C650 U646 2.847 . S
C650 O664 1.249 . S
C650 O665 1.202 . S
C651 C649 1.363 . S
C651 C653 1.408 . S
C651 C656 1.342 . S
C652 C653 1.310 . S
C652 C655 1.461 . S
C652 H672 0.932 . S
C653 C651 1.408 . S
C653 C652 1.310 . S
C653 H673 0.930 . S
C654 C655 1.474 . S
C654 C656 1.285 . S
C654 H674 0.929 . S
C655 C652 1.461 . S
C655 C654 1.474 . S
C656 C651 1.342 . S
C656 C654 1.285 . S
C656 H675 0.930 . S
C657 C660 1.424 . S
C657 C662 1.245 . S
C657 C663 1.428 . S
C658 C661 1.260 . S
C658 C662 1.477 . S
C658 H676 0.932 . S
C659 C660 1.384 . S
C659 C661 1.479 . S
C659 H677 0.929 . S
C660 C657 1.424 . S
C660 C659 1.384 . S
C660 H678 0.928 . S
C661 C658 1.260 . S
C661 C659 1.479 . S
C662 C657 1.245 . S
C662 C658 1.477 . S
C662 H679 0.932 . S
C663 U646 2.882 . S
C663 C657 1.428 . S
C663 O666 1.301 . S
C663 O667 1.282 . S
O664 U646 2.441 . S
O664 C650 1.249 . S
O665 U646 2.420 . S
O665 C650 1.202 . S
O666 U646 2.455 . S
O666 C663 1.301 . S
O667 U646 2.449 . S
O667 C663 1.282 . S
H668 C641 0.931 . S
H669 C643 0.929 . S
H670 C644 0.930 . S
H671 C645 0.931 . S
H672 C652 0.932 . S
H673 C653 0.930 . S
H674 C654 0.929 . S
H675 C656 0.930 . S
H676 C658 0.932 . S
H677 C659 0.929 . S
H678 C660 0.928 . S
H679 C662 0.932 . S
C680 C681 1.264 . S
C680 C685 1.479 . S
C680 C690 1.465 . S
C681 C680 1.264 . S
C681 C683 1.339 . S
C681 H708 0.931 . S
C682 C683 1.395 . S
C682 C684 1.320 . S
C683 C681 1.339 . S
C683 C682 1.395 . S
C683 H709 0.929 . S
C684 C682 1.320 . S
C684 C685 1.405 . S
C684 H710 0.930 . S
C685 C680 1.479 . S
C685 C684 1.405 . S
C685 H711 0.931 . S
U686 O687 2.454 . S
U686 O688 2.458 . S
U686 C689 2.984 . S
U686 C690 2.847 . S
U686 C703 2.882 . S
U686 O704 2.441 . S
U686 O705 2.420 . S
U686 O706 2.455 . S
U686 O707 2.449 . S
O687 U686 2.454 . S
O687 C689 1.353 . S
O688 U686 2.458 . S
O688 C689 1.286 . S
C689 U686 2.984 . S
C689 O687 1.353 . S
C689 O688 1.286 . S
C689 C691 1.363 . S
C690 C680 1.465 . S
C690 U686 2.847 . S
C690 O704 1.249 . S
C690 O705 1.202 . S
C691 C689 1.363 . S
C691 C693 1.408 . S
C691 C696 1.342 . S
C692 C693 1.310 . S
C692 C695 1.461 . S
C692 H712 0.932 . S
C693 C691 1.408 . S
C693 C692 1.310 . S
C693 H713 0.930 . S
C694 C695 1.474 . S
C694 C696 1.285 . S
C694 H714 0.929 . S
C695 C692 1.461 . S
C695 C694 1.474 . S
C696 C691 1.342 . S
C696 C694 1.285 . S
C696 H715 0.930 . S
C697 C700 1.424 . S
C697 C702 1.245 . S
C697 C703 1.428 . S
C698 C701 1.260 . S
C698 C702 1.477 . S
C698 H716 0.932 . S
C699 C700 1.384 . S
C699 C701 1.479 . S
C699 H717 0.929 . S
C700 C697 1.424 . S
C700 C699 1.384 . S
C700 H718 0.928 . S
C701 C698 1.260 . S
C701 C699 1.479 . S
C702 C697 1.245 . S
C702 C698 1.477 . S
C702 H719 0.932 . S
C703 U686 2.882 . S
C703 C697 1.428 . S
C703 O706 1.301 . S
C703 O707 1.282 . S
O704 U686 2.441 . S
O704 C690 1.249 . S
O705 U686 2.420 . S
O705 C690 1.202 . S
O706 U686 2.455 . S
O706 C703 1.301 . S
O707 U686 2.449 . S
O707 C703 1.282 . S
H708 C681 0.931 . S
H709 C683 0.929 . S
H710 C684 0.930 . S
H711 C685 0.931 . S
H712 C692 0.932 . S
H713 C693 0.930 . S
H714 C694 0.929 . S
H715 C696 0.930 . S
H716 C698 0.932 . S
H717 C699 0.929 . S
H718 C700 0.928 . S
H719 C702 0.932 . S
C720 C721 1.264 . S
C720 C725 1.479 . S
C720 C730 1.465 . S
C721 C720 1.264 . S
C721 C723 1.339 . S
C721 H748 0.931 . S
C722 C723 1.395 . S
C722 C724 1.320 . S
C723 C721 1.339 . S
C723 C722 1.395 . S
C723 H749 0.929 . S
C724 C722 1.320 . S
C724 C725 1.405 . S
C724 H750 0.930 . S
C725 C720 1.479 . S
C725 C724 1.405 . S
C725 H751 0.931 . S
U726 O727 2.454 . S
U726 O728 2.458 . S
U726 C729 2.984 . S
U726 C730 2.847 . S
U726 C743 2.882 . S
U726 O744 2.441 . S
U726 O745 2.420 . S
U726 O746 2.455 . S
U726 O747 2.449 . S
O727 U726 2.454 . S
O727 C729 1.353 . S
O728 U726 2.458 . S
O728 C729 1.286 . S
C729 U726 2.984 . S
C729 O727 1.353 . S
C729 O728 1.286 . S
C729 C731 1.363 . S
C730 C720 1.465 . S
C730 U726 2.847 . S
C730 O744 1.249 . S
C730 O745 1.202 . S
C731 C729 1.363 . S
C731 C733 1.408 . S
C731 C736 1.342 . S
C732 C733 1.310 . S
C732 C735 1.461 . S
C732 H752 0.932 . S
C733 C731 1.408 . S
C733 C732 1.310 . S
C733 H753 0.930 . S
C734 C735 1.474 . S
C734 C736 1.285 . S
C734 H754 0.929 . S
C735 C732 1.461 . S
C735 C734 1.474 . S
C736 C731 1.342 . S
C736 C734 1.285 . S
C736 H755 0.930 . S
C737 C740 1.424 . S
C737 C742 1.245 . S
C737 C743 1.428 . S
C738 C741 1.260 . S
C738 C742 1.477 . S
C738 H756 0.932 . S
C739 C740 1.384 . S
C739 C741 1.479 . S
C739 H757 0.929 . S
C740 C737 1.424 . S
C740 C739 1.384 . S
C740 H758 0.928 . S
C741 C738 1.260 . S
C741 C739 1.479 . S
C742 C737 1.245 . S
C742 C738 1.477 . S
C742 H759 0.932 . S
C743 U726 2.882 . S
C743 C737 1.428 . S
C743 O746 1.301 . S
C743 O747 1.282 . S
O744 U726 2.441 . S
O744 C730 1.249 . S
O745 U726 2.420 . S
O745 C730 1.202 . S
O746 U726 2.455 . S
O746 C743 1.301 . S
O747 U726 2.449 . S
O747 C743 1.282 . S
H748 C721 0.931 . S
H749 C723 0.929 . S
H750 C724 0.930 . S
H751 C725 0.931 . S
H752 C732 0.932 . S
H753 C733 0.930 . S
H754 C734 0.929 . S
H755 C736 0.930 . S
H756 C738 0.932 . S
H757 C739 0.929 . S
H758 C740 0.928 . S
H759 C742 0.932 . S
C760 C761 1.264 . S
C760 C765 1.479 . S
C760 C770 1.465 . S
C761 C760 1.264 . S
C761 C763 1.339 . S
C761 H788 0.931 . S
C762 C763 1.395 . S
C762 C764 1.320 . S
C763 C761 1.339 . S
C763 C762 1.395 . S
C763 H789 0.929 . S
C764 C762 1.320 . S
C764 C765 1.405 . S
C764 H790 0.930 . S
C765 C760 1.479 . S
C765 C764 1.405 . S
C765 H791 0.931 . S
U766 O767 2.454 . S
U766 O768 2.458 . S
U766 C769 2.984 . S
U766 C770 2.847 . S
U766 C783 2.882 . S
U766 O784 2.441 . S
U766 O785 2.420 . S
U766 O786 2.455 . S
U766 O787 2.449 . S
O767 U766 2.454 . S
O767 C769 1.353 . S
O768 U766 2.458 . S
O768 C769 1.286 . S
C769 U766 2.984 . S
C769 O767 1.353 . S
C769 O768 1.286 . S
C769 C771 1.363 . S
C770 C760 1.465 . S
C770 U766 2.847 . S
C770 O784 1.249 . S
C770 O785 1.202 . S
C771 C769 1.363 . S
C771 C773 1.408 . S
C771 C776 1.342 . S
C772 C773 1.310 . S
C772 C775 1.461 . S
C772 H792 0.932 . S
C773 C771 1.408 . S
C773 C772 1.310 . S
C773 H793 0.930 . S
C774 C775 1.474 . S
C774 C776 1.285 . S
C774 H794 0.929 . S
C775 C772 1.461 . S
C775 C774 1.474 . S
C776 C771 1.342 . S
C776 C774 1.285 . S
C776 H795 0.930 . S
C777 C780 1.424 . S
C777 C782 1.245 . S
C777 C783 1.428 . S
C778 C781 1.260 . S
C778 C782 1.477 . S
C778 H796 0.932 . S
C779 C780 1.384 . S
C779 C781 1.479 . S
C779 H797 0.929 . S
C780 C777 1.424 . S
C780 C779 1.384 . S
C780 H798 0.928 . S
C781 C778 1.260 . S
C781 C779 1.479 . S
C782 C777 1.245 . S
C782 C778 1.477 . S
C782 H799 0.932 . S
C783 U766 2.882 . S
C783 C777 1.428 . S
C783 O786 1.301 . S
C783 O787 1.282 . S
O784 U766 2.441 . S
O784 C770 1.249 . S
O785 U766 2.420 . S
O785 C770 1.202 . S
O786 U766 2.455 . S
O786 C783 1.301 . S
O787 U766 2.449 . S
O787 C783 1.282 . S
H788 C761 0.931 . S
H789 C763 0.929 . S
H790 C764 0.930 . S
H791 C765 0.931 . S
H792 C772 0.932 . S
H793 C773 0.930 . S
H794 C774 0.929 . S
H795 C776 0.930 . S
H796 C778 0.932 . S
H797 C779 0.929 . S
H798 C780 0.928 . S
H799 C782 0.932 . S
C800 C801 1.264 . S
C800 C805 1.479 . S
C800 C810 1.465 . S
C801 C800 1.264 . S
C801 C803 1.339 . S
C801 H828 0.931 . S
C802 C803 1.395 . S
C802 C804 1.320 . S
C803 C801 1.339 . S
C803 C802 1.395 . S
C803 H829 0.929 . S
C804 C802 1.320 . S
C804 C805 1.405 . S
C804 H830 0.930 . S
C805 C800 1.479 . S
C805 C804 1.405 . S
C805 H831 0.931 . S
U806 O807 2.454 . S
U806 O808 2.458 . S
U806 C809 2.984 . S
U806 C810 2.847 . S
U806 C823 2.882 . S
U806 O824 2.441 . S
U806 O825 2.420 . S
U806 O826 2.455 . S
U806 O827 2.449 . S
O807 U806 2.454 . S
O807 C809 1.353 . S
O808 U806 2.458 . S
O808 C809 1.286 . S
C809 U806 2.984 . S
C809 O807 1.353 . S
C809 O808 1.286 . S
C809 C811 1.363 . S
C810 C800 1.465 . S
C810 U806 2.847 . S
C810 O824 1.249 . S
C810 O825 1.202 . S
C811 C809 1.363 . S
C811 C813 1.408 . S
C811 C816 1.342 . S
C812 C813 1.310 . S
C812 C815 1.461 . S
C812 H832 0.932 . S
C813 C811 1.408 . S
C813 C812 1.310 . S
C813 H833 0.930 . S
C814 C815 1.474 . S
C814 C816 1.285 . S
C814 H834 0.929 . S
C815 C812 1.461 . S
C815 C814 1.474 . S
C816 C811 1.342 . S
C816 C814 1.285 . S
C816 H835 0.930 . S
C817 C820 1.424 . S
C817 C822 1.245 . S
C817 C823 1.428 . S
C818 C821 1.260 . S
C818 C822 1.477 . S
C818 H836 0.932 . S
C819 C820 1.384 . S
C819 C821 1.479 . S
C819 H837 0.929 . S
C820 C817 1.424 . S
C820 C819 1.384 . S
C820 H838 0.928 . S
C821 C818 1.260 . S
C821 C819 1.479 . S
C822 C817 1.245 . S
C822 C818 1.477 . S
C822 H839 0.932 . S
C823 U806 2.882 . S
C823 C817 1.428 . S
C823 O826 1.301 . S
C823 O827 1.282 . S
O824 U806 2.441 . S
O824 C810 1.249 . S
O825 U806 2.420 . S
O825 C810 1.202 . S
O826 U806 2.455 . S
O826 C823 1.301 . S
O827 U806 2.449 . S
O827 C823 1.282 . S
H828 C801 0.931 . S
H829 C803 0.929 . S
H830 C804 0.930 . S
H831 C805 0.931 . S
H832 C812 0.932 . S
H833 C813 0.930 . S
H834 C814 0.929 . S
H835 C816 0.930 . S
H836 C818 0.932 . S
H837 C819 0.929 . S
H838 C820 0.928 . S
H839 C822 0.932 . S
C840 C841 1.264 . S
C840 C845 1.479 . S
C840 C850 1.465 . S
C841 C840 1.264 . S
C841 C843 1.339 . S
C841 H868 0.931 . S
C842 C843 1.395 . S
C842 C844 1.320 . S
C843 C841 1.339 . S
C843 C842 1.395 . S
C843 H869 0.929 . S
C844 C842 1.320 . S
C844 C845 1.405 . S
C844 H870 0.930 . S
C845 C840 1.479 . S
C845 C844 1.405 . S
C845 H871 0.931 . S
U846 O847 2.454 . S
U846 O848 2.458 . S
U846 C849 2.984 . S
U846 C850 2.847 . S
U846 C863 2.882 . S
U846 O864 2.441 . S
U846 O865 2.420 . S
U846 O866 2.455 . S
U846 O867 2.449 . S
O847 U846 2.454 . S
O847 C849 1.353 . S
O848 U846 2.458 . S
O848 C849 1.286 . S
C849 U846 2.984 . S
C849 O847 1.353 . S
C849 O848 1.286 . S
C849 C851 1.363 . S
C850 C840 1.465 . S
C850 U846 2.847 . S
C850 O864 1.249 . S
C850 O865 1.202 . S
C851 C849 1.363 . S
C851 C853 1.408 . S
C851 C856 1.342 . S
C852 C853 1.310 . S
C852 C855 1.461 . S
C852 H872 0.932 . S
C853 C851 1.408 . S
C853 C852 1.310 . S
C853 H873 0.930 . S
C854 C855 1.474 . S
C854 C856 1.285 . S
C854 H874 0.929 . S
C855 C852 1.461 . S
C855 C854 1.474 . S
C856 C851 1.342 . S
C856 C854 1.285 . S
C856 H875 0.930 . S
C857 C860 1.424 . S
C857 C862 1.245 . S
C857 C863 1.428 . S
C858 C861 1.260 . S
C858 C862 1.477 . S
C858 H876 0.932 . S
C859 C860 1.384 . S
C859 C861 1.479 . S
C859 H877 0.929 . S
C860 C857 1.424 . S
C860 C859 1.384 . S
C860 H878 0.928 . S
C861 C858 1.260 . S
C861 C859 1.479 . S
C862 C857 1.245 . S
C862 C858 1.477 . S
C862 H879 0.932 . S
C863 U846 2.882 . S
C863 C857 1.428 . S
C863 O866 1.301 . S
C863 O867 1.282 . S
O864 U846 2.441 . S
O864 C850 1.249 . S
O865 U846 2.420 . S
O865 C850 1.202 . S
O866 U846 2.455 . S
O866 C863 1.301 . S
O867 U846 2.449 . S
O867 C863 1.282 . S
H868 C841 0.931 . S
H869 C843 0.929 . S
H870 C844 0.930 . S
H871 C845 0.931 . S
H872 C852 0.932 . S
H873 C853 0.930 . S
H874 C854 0.929 . S
H875 C856 0.930 . S
H876 C858 0.932 . S
H877 C859 0.929 . S
H878 C860 0.928 . S
H879 C862 0.932 . S
C880 C881 1.264 . S
C880 C885 1.479 . S
C880 C890 1.465 . S
C881 C880 1.264 . S
C881 C883 1.339 . S
C881 H908 0.931 . S
C882 C883 1.395 . S
C882 C884 1.320 . S
C883 C881 1.339 . S
C883 C882 1.395 . S
C883 H909 0.929 . S
C884 C882 1.320 . S
C884 C885 1.405 . S
C884 H910 0.930 . S
C885 C880 1.479 . S
C885 C884 1.405 . S
C885 H911 0.931 . S
U886 O887 2.454 . S
U886 O888 2.458 . S
U886 C889 2.984 . S
U886 C890 2.847 . S
U886 C903 2.882 . S
U886 O904 2.441 . S
U886 O905 2.420 . S
U886 O906 2.455 . S
U886 O907 2.449 . S
O887 U886 2.454 . S
O887 C889 1.353 . S
O888 U886 2.458 . S
O888 C889 1.286 . S
C889 U886 2.984 . S
C889 O887 1.353 . S
C889 O888 1.286 . S
C889 C891 1.363 . S
C890 C880 1.465 . S
C890 U886 2.847 . S
C890 O904 1.249 . S
C890 O905 1.202 . S
C891 C889 1.363 . S
C891 C893 1.408 . S
C891 C896 1.342 . S
C892 C893 1.310 . S
C892 C895 1.461 . S
C892 H912 0.932 . S
C893 C891 1.408 . S
C893 C892 1.310 . S
C893 H913 0.930 . S
C894 C895 1.474 . S
C894 C896 1.285 . S
C894 H914 0.929 . S
C895 C892 1.461 . S
C895 C894 1.474 . S
C896 C891 1.342 . S
C896 C894 1.285 . S
C896 H915 0.930 . S
C897 C900 1.424 . S
C897 C902 1.245 . S
C897 C903 1.428 . S
C898 C901 1.260 . S
C898 C902 1.477 . S
C898 H916 0.932 . S
C899 C900 1.384 . S
C899 C901 1.479 . S
C899 H917 0.929 . S
C900 C897 1.424 . S
C900 C899 1.384 . S
C900 H918 0.928 . S
C901 C898 1.260 . S
C901 C899 1.479 . S
C902 C897 1.245 . S
C902 C898 1.477 . S
C902 H919 0.932 . S
C903 U886 2.882 . S
C903 C897 1.428 . S
C903 O906 1.301 . S
C903 O907 1.282 . S
O904 U886 2.441 . S
O904 C890 1.249 . S
O905 U886 2.420 . S
O905 C890 1.202 . S
O906 U886 2.455 . S
O906 C903 1.301 . S
O907 U886 2.449 . S
O907 C903 1.282 . S
H908 C881 0.931 . S
H909 C883 0.929 . S
H910 C884 0.930 . S
H911 C885 0.931 . S
H912 C892 0.932 . S
H913 C893 0.930 . S
H914 C894 0.929 . S
H915 C896 0.930 . S
H916 C898 0.932 . S
H917 C899 0.929 . S
H918 C900 0.928 . S
H919 C902 0.932 . S
C920 C921 1.264 . S
C920 C925 1.479 . S
C920 C930 1.465 . S
C921 C920 1.264 . S
C921 C923 1.339 . S
C921 H948 0.931 . S
C922 C923 1.395 . S
C922 C924 1.320 . S
C923 C921 1.339 . S
C923 C922 1.395 . S
C923 H949 0.929 . S
C924 C922 1.320 . S
C924 C925 1.405 . S
C924 H950 0.930 . S
C925 C920 1.479 . S
C925 C924 1.405 . S
C925 H951 0.931 . S
U926 O927 2.454 . S
U926 O928 2.458 . S
U926 C929 2.984 . S
U926 C930 2.847 . S
U926 C943 2.882 . S
U926 O944 2.441 . S
U926 O945 2.420 . S
U926 O946 2.455 . S
U926 O947 2.449 . S
O927 U926 2.454 . S
O927 C929 1.353 . S
O928 U926 2.458 . S
O928 C929 1.286 . S
C929 U926 2.984 . S
C929 O927 1.353 . S
C929 O928 1.286 . S
C929 C931 1.363 . S
C930 C920 1.465 . S
C930 U926 2.847 . S
C930 O944 1.249 . S
C930 O945 1.202 . S
C931 C929 1.363 . S
C931 C933 1.408 . S
C931 C936 1.342 . S
C932 C933 1.310 . S
C932 C935 1.461 . S
C932 H952 0.932 . S
C933 C931 1.408 . S
C933 C932 1.310 . S
C933 H953 0.930 . S
C934 C935 1.474 . S
C934 C936 1.285 . S
C934 H954 0.929 . S
C935 C932 1.461 . S
C935 C934 1.474 . S
C936 C931 1.342 . S
C936 C934 1.285 . S
C936 H955 0.930 . S
C937 C940 1.424 . S
C937 C942 1.245 . S
C937 C943 1.428 . S
C938 C941 1.260 . S
C938 C942 1.477 . S
C938 H956 0.932 . S
C939 C940 1.384 . S
C939 C941 1.479 . S
C939 H957 0.929 . S
C940 C937 1.424 . S
C940 C939 1.384 . S
C940 H958 0.928 . S
C941 C938 1.260 . S
C941 C939 1.479 . S
C942 C937 1.245 . S
C942 C938 1.477 . S
C942 H959 0.932 . S
C943 U926 2.882 . S
C943 C937 1.428 . S
C943 O946 1.301 . S
C943 O947 1.282 . S
O944 U926 2.441 . S
O944 C930 1.249 . S
O945 U926 2.420 . S
O945 C930 1.202 . S
O946 U926 2.455 . S
O946 C943 1.301 . S
O947 U926 2.449 . S
O947 C943 1.282 . S
H948 C921 0.931 . S
H949 C923 0.929 . S
H950 C924 0.930 . S
H951 C925 0.931 . S
H952 C932 0.932 . S
H953 C933 0.930 . S
H954 C934 0.929 . S
H955 C936 0.930 . S
H956 C938 0.932 . S
H957 C939 0.929 . S
H958 C940 0.928 . S
H959 C942 0.932 . S
C960 C961 1.264 . S
C960 C965 1.479 . S
C960 C970 1.465 . S
C961 C960 1.264 . S
C961 C963 1.339 . S
C961 H988 0.931 . S
C962 C963 1.395 . S
C962 C964 1.320 . S
C963 C961 1.339 . S
C963 C962 1.395 . S
C963 H989 0.929 . S
C964 C962 1.320 . S
C964 C965 1.405 . S
C964 H990 0.930 . S
C965 C960 1.479 . S
C965 C964 1.405 . S
C965 H991 0.931 . S
U966 O967 2.454 . S
U966 O968 2.458 . S
U966 C969 2.984 . S
U966 C970 2.847 . S
U966 C983 2.882 . S
U966 O984 2.441 . S
U966 O985 2.420 . S
U966 O986 2.455 . S
U966 O987 2.449 . S
O967 U966 2.454 . S
O967 C969 1.353 . S
O968 U966 2.458 . S
O968 C969 1.286 . S
C969 U966 2.984 . S
C969 O967 1.353 . S
C969 O968 1.286 . S
C969 C971 1.363 . S
C970 C960 1.465 . S
C970 U966 2.847 . S
C970 O984 1.249 . S
C970 O985 1.202 . S
C971 C969 1.363 . S
C971 C973 1.408 . S
C971 C976 1.342 . S
C972 C973 1.310 . S
C972 C975 1.461 . S
C972 H992 0.932 . S
C973 C971 1.408 . S
C973 C972 1.310 . S
C973 H993 0.930 . S
C974 C975 1.474 . S
C974 C976 1.285 . S
C974 H994 0.929 . S
C975 C972 1.461 . S
C975 C974 1.474 . S
C976 C971 1.342 . S
C976 C974 1.285 . S
C976 H995 0.930 . S
C977 C980 1.424 . S
C977 C982 1.245 . S
C977 C983 1.428 . S
C978 C981 1.260 . S
C978 C982 1.477 . S
C978 H996 0.932 . S
C979 C980 1.384 . S
C979 C981 1.479 . S
C979 H997 0.929 . S
C980 C977 1.424 . S
C980 C979 1.384 . S
C980 H998 0.928 . S
C981 C978 1.260 . S
C981 C979 1.479 . S
C982 C977 1.245 . S
C982 C978 1.477 . S
C982 H999 0.932 . S
C983 U966 2.882 . S
C983 C977 1.428 . S
C983 O986 1.301 . S
C983 O987 1.282 . S
O984 U966 2.441 . S
O984 C970 1.249 . S
O985 U966 2.420 . S
O985 C970 1.202 . S
O986 U966 2.455 . S
O986 C983 1.301 . S
O987 U966 2.449 . S
O987 C983 1.282 . S
H988 C961 0.931 . S
H989 C963 0.929 . S
H990 C964 0.930 . S
H991 C965 0.931 . S
H992 C972 0.932 . S
H993 C973 0.930 . S
H994 C974 0.929 . S
H995 C976 0.930 . S
H996 C978 0.932 . S
H997 C979 0.929 . S
H998 C980 0.928 . S
H999 C982 0.932 . S
C1000 C1001 1.264 . S
C1000 C1005 1.479 . S
C1000 C1010 1.465 . S
C1001 C1000 1.264 . S
C1001 C1003 1.339 . S
C1001 H1028 0.931 . S
C1002 C1003 1.395 . S
C1002 C1004 1.320 . S
C1003 C1001 1.339 . S
C1003 C1002 1.395 . S
C1003 H1029 0.929 . S
C1004 C1002 1.320 . S
C1004 C1005 1.405 . S
C1004 H1030 0.930 . S
C1005 C1000 1.479 . S
C1005 C1004 1.405 . S
C1005 H1031 0.931 . S
U1006 O1007 2.454 . S
U1006 O1008 2.458 . S
U1006 C1009 2.984 . S
U1006 C1010 2.847 . S
U1006 C1023 2.882 . S
U1006 O1024 2.441 . S
U1006 O1025 2.420 . S
U1006 O1026 2.455 . S
U1006 O1027 2.449 . S
O1007 U1006 2.454 . S
O1007 C1009 1.353 . S
O1008 U1006 2.458 . S
O1008 C1009 1.286 . S
C1009 U1006 2.984 . S
C1009 O1007 1.353 . S
C1009 O1008 1.286 . S
C1009 C1011 1.363 . S
C1010 C1000 1.465 . S
C1010 U1006 2.847 . S
C1010 O1024 1.249 . S
C1010 O1025 1.202 . S
C1011 C1009 1.363 . S
C1011 C1013 1.408 . S
C1011 C1016 1.342 . S
C1012 C1013 1.310 . S
C1012 C1015 1.461 . S
C1012 H1032 0.932 . S
C1013 C1011 1.408 . S
C1013 C1012 1.310 . S
C1013 H1033 0.930 . S
C1014 C1015 1.474 . S
C1014 C1016 1.285 . S
C1014 H1034 0.929 . S
C1015 C1012 1.461 . S
C1015 C1014 1.474 . S
C1016 C1011 1.342 . S
C1016 C1014 1.285 . S
C1016 H1035 0.930 . S
C1017 C1020 1.424 . S
C1017 C1022 1.245 . S
C1017 C1023 1.428 . S
C1018 C1021 1.260 . S
C1018 C1022 1.477 . S
C1018 H1036 0.932 . S
C1019 C1020 1.384 . S
C1019 C1021 1.479 . S
C1019 H1037 0.929 . S
C1020 C1017 1.424 . S
C1020 C1019 1.384 . S
C1020 H1038 0.928 . S
C1021 C1018 1.260 . S
C1021 C1019 1.479 . S
C1022 C1017 1.245 . S
C1022 C1018 1.477 . S
C1022 H1039 0.932 . S
C1023 U1006 2.882 . S
C1023 C1017 1.428 . S
C1023 O1026 1.301 . S
C1023 O1027 1.282 . S
O1024 U1006 2.441 . S
O1024 C1010 1.249 . S
O1025 U1006 2.420 . S
O1025 C1010 1.202 . S
O1026 U1006 2.455 . S
O1026 C1023 1.301 . S
O1027 U1006 2.449 . S
O1027 C1023 1.282 . S
H1028 C1001 0.931 . S
H1029 C1003 0.929 . S
H1030 C1004 0.930 . S
H1031 C1005 0.931 . S
H1032 C1012 0.932 . S
H1033 C1013 0.930 . S
H1034 C1014 0.929 . S
H1035 C1016 0.930 . S
H1036 C1018 0.932 . S
H1037 C1019 0.929 . S
H1038 C1020 0.928 . S
H1039 C1022 0.932 . S
C1040 C1041 1.264 . S
C1040 C1045 1.479 . S
C1040 C1050 1.465 . S
C1041 C1040 1.264 . S
C1041 C1043 1.339 . S
C1041 H1068 0.931 . S
C1042 C1043 1.395 . S
C1042 C1044 1.320 . S
C1043 C1041 1.339 . S
C1043 C1042 1.395 . S
C1043 H1069 0.929 . S
C1044 C1042 1.320 . S
C1044 C1045 1.405 . S
C1044 H1070 0.930 . S
C1045 C1040 1.479 . S
C1045 C1044 1.405 . S
C1045 H1071 0.931 . S
U1046 O1047 2.454 . S
U1046 O1048 2.458 . S
U1046 C1049 2.984 . S
U1046 C1050 2.847 . S
U1046 C1063 2.882 . S
U1046 O1064 2.441 . S
U1046 O1065 2.420 . S
U1046 O1066 2.455 . S
U1046 O1067 2.449 . S
O1047 U1046 2.454 . S
O1047 C1049 1.353 . S
O1048 U1046 2.458 . S
O1048 C1049 1.286 . S
C1049 U1046 2.984 . S
C1049 O1047 1.353 . S
C1049 O1048 1.286 . S
C1049 C1051 1.363 . S
C1050 C1040 1.465 . S
C1050 U1046 2.847 . S
C1050 O1064 1.249 . S
C1050 O1065 1.202 . S
C1051 C1049 1.363 . S
C1051 C1053 1.408 . S
C1051 C1056 1.342 . S
C1052 C1053 1.310 . S
C1052 C1055 1.461 . S
C1052 H1072 0.932 . S
C1053 C1051 1.408 . S
C1053 C1052 1.310 . S
C1053 H1073 0.930 . S
C1054 C1055 1.474 . S
C1054 C1056 1.285 . S
C1054 H1074 0.929 . S
C1055 C1052 1.461 . S
C1055 C1054 1.474 . S
C1056 C1051 1.342 . S
C1056 C1054 1.285 . S
C1056 H1075 0.930 . S
C1057 C1060 1.424 . S
C1057 C1062 1.245 . S
C1057 C1063 1.428 . S
C1058 C1061 1.260 . S
C1058 C1062 1.477 . S
C1058 H1076 0.932 . S
C1059 C1060 1.384 . S
C1059 C1061 1.479 . S
C1059 H1077 0.929 . S
C1060 C1057 1.424 . S
C1060 C1059 1.384 . S
C1060 H1078 0.928 . S
C1061 C1058 1.260 . S
C1061 C1059 1.479 . S
C1062 C1057 1.245 . S
C1062 C1058 1.477 . S
C1062 H1079 0.932 . S
C1063 U1046 2.882 . S
C1063 C1057 1.428 . S
C1063 O1066 1.301 . S
C1063 O1067 1.282 . S
O1064 U1046 2.441 . S
O1064 C1050 1.249 . S
O1065 U1046 2.420 . S
O1065 C1050 1.202 . S
O1066 U1046 2.455 . S
O1066 C1063 1.301 . S
O1067 U1046 2.449 . S
O1067 C1063 1.282 . S
H1068 C1041 0.931 . S
H1069 C1043 0.929 . S
H1070 C1044 0.930 . S
H1071 C1045 0.931 . S
H1072 C1052 0.932 . S
H1073 C1053 0.930 . S
H1074 C1054 0.929 . S
H1075 C1056 0.930 . S
H1076 C1058 0.932 . S
H1077 C1059 0.929 . S
H1078 C1060 0.928 . S
H1079 C1062 0.932 . S
C1080 C1081 1.264 . S
C1080 C1085 1.479 . S
C1080 C1090 1.465 . S
C1081 C1080 1.264 . S
C1081 C1083 1.339 . S
C1081 H1108 0.931 . S
C1082 C1083 1.395 . S
C1082 C1084 1.320 . S
C1083 C1081 1.339 . S
C1083 C1082 1.395 . S
C1083 H1109 0.929 . S
C1084 C1082 1.320 . S
C1084 C1085 1.405 . S
C1084 H1110 0.930 . S
C1085 C1080 1.479 . S
C1085 C1084 1.405 . S
C1085 H1111 0.931 . S
U1086 O1087 2.454 . S
U1086 O1088 2.458 . S
U1086 C1089 2.984 . S
U1086 C1090 2.847 . S
U1086 C1103 2.882 . S
U1086 O1104 2.441 . S
U1086 O1105 2.420 . S
U1086 O1106 2.455 . S
U1086 O1107 2.449 . S
O1087 U1086 2.454 . S
O1087 C1089 1.353 . S
O1088 U1086 2.458 . S
O1088 C1089 1.286 . S
C1089 U1086 2.984 . S
C1089 O1087 1.353 . S
C1089 O1088 1.286 . S
C1089 C1091 1.363 . S
C1090 C1080 1.465 . S
C1090 U1086 2.847 . S
C1090 O1104 1.249 . S
C1090 O1105 1.202 . S
C1091 C1089 1.363 . S
C1091 C1093 1.408 . S
C1091 C1096 1.342 . S
C1092 C1093 1.310 . S
C1092 C1095 1.461 . S
C1092 H1112 0.932 . S
C1093 C1091 1.408 . S
C1093 C1092 1.310 . S
C1093 H1113 0.930 . S
C1094 C1095 1.474 . S
C1094 C1096 1.285 . S
C1094 H1114 0.929 . S
C1095 C1092 1.461 . S
C1095 C1094 1.474 . S
C1096 C1091 1.342 . S
C1096 C1094 1.285 . S
C1096 H1115 0.930 . S
C1097 C1100 1.424 . S
C1097 C1102 1.245 . S
C1097 C1103 1.428 . S
C1098 C1101 1.260 . S
C1098 C1102 1.477 . S
C1098 H1116 0.932 . S
C1099 C1100 1.384 . S
C1099 C1101 1.479 . S
C1099 H1117 0.929 . S
C1100 C1097 1.424 . S
C1100 C1099 1.384 . S
C1100 H1118 0.928 . S
C1101 C1098 1.260 . S
C1101 C1099 1.479 . S
C1102 C1097 1.245 . S
C1102 C1098 1.477 . S
C1102 H1119 0.932 . S
C1103 U1086 2.882 . S
C1103 C1097 1.428 . S
C1103 O1106 1.301 . S
C1103 O1107 1.282 . S
O1104 U1086 2.441 . S
O1104 C1090 1.249 . S
O1105 U1086 2.420 . S
O1105 C1090 1.202 . S
O1106 U1086 2.455 . S
O1106 C1103 1.301 . S
O1107 U1086 2.449 . S
O1107 C1103 1.282 . S
H1108 C1081 0.931 . S
H1109 C1083 0.929 . S
H1110 C1084 0.930 . S
H1111 C1085 0.931 . S
H1112 C1092 0.932 . S
H1113 C1093 0.930 . S
H1114 C1094 0.929 . S
H1115 C1096 0.930 . S
H1116 C1098 0.932 . S
H1117 C1099 0.929 . S
H1118 C1100 0.928 . S
H1119 C1102 0.932 . S
C1120 C1121 1.264 . S
C1120 C1125 1.479 . S
C1120 C1130 1.465 . S
C1121 C1120 1.264 . S
C1121 C1123 1.339 . S
C1121 H1148 0.931 . S
C1122 C1123 1.395 . S
C1122 C1124 1.320 . S
C1123 C1121 1.339 . S
C1123 C1122 1.395 . S
C1123 H1149 0.929 . S
C1124 C1122 1.320 . S
C1124 C1125 1.405 . S
C1124 H1150 0.930 . S
C1125 C1120 1.479 . S
C1125 C1124 1.405 . S
C1125 H1151 0.931 . S
U1126 O1127 2.454 . S
U1126 O1128 2.458 . S
U1126 C1129 2.984 . S
U1126 C1130 2.847 . S
U1126 C1143 2.882 . S
U1126 O1144 2.441 . S
U1126 O1145 2.420 . S
U1126 O1146 2.455 . S
U1126 O1147 2.449 . S
O1127 U1126 2.454 . S
O1127 C1129 1.353 . S
O1128 U1126 2.458 . S
O1128 C1129 1.286 . S
C1129 U1126 2.984 . S
C1129 O1127 1.353 . S
C1129 O1128 1.286 . S
C1129 C1131 1.363 . S
C1130 C1120 1.465 . S
C1130 U1126 2.847 . S
C1130 O1144 1.249 . S
C1130 O1145 1.202 . S
C1131 C1129 1.363 . S
C1131 C1133 1.408 . S
C1131 C1136 1.342 . S
C1132 C1133 1.310 . S
C1132 C1135 1.461 . S
C1132 H1152 0.932 . S
C1133 C1131 1.408 . S
C1133 C1132 1.310 . S
C1133 H1153 0.930 . S
C1134 C1135 1.474 . S
C1134 C1136 1.285 . S
C1134 H1154 0.929 . S
C1135 C1132 1.461 . S
C1135 C1134 1.474 . S
C1136 C1131 1.342 . S
C1136 C1134 1.285 . S
C1136 H1155 0.930 . S
C1137 C1140 1.424 . S
C1137 C1142 1.245 . S
C1137 C1143 1.428 . S
C1138 C1141 1.260 . S
C1138 C1142 1.477 . S
C1138 H1156 0.932 . S
C1139 C1140 1.384 . S
C1139 C1141 1.479 . S
C1139 H1157 0.929 . S
C1140 C1137 1.424 . S
C1140 C1139 1.384 . S
C1140 H1158 0.928 . S
C1141 C1138 1.260 . S
C1141 C1139 1.479 . S
C1142 C1137 1.245 . S
C1142 C1138 1.477 . S
C1142 H1159 0.932 . S
C1143 U1126 2.882 . S
C1143 C1137 1.428 . S
C1143 O1146 1.301 . S
C1143 O1147 1.282 . S
O1144 U1126 2.441 . S
O1144 C1130 1.249 . S
O1145 U1126 2.420 . S
O1145 C1130 1.202 . S
O1146 U1126 2.455 . S
O1146 C1143 1.301 . S
O1147 U1126 2.449 . S
O1147 C1143 1.282 . S
H1148 C1121 0.931 . S
H1149 C1123 0.929 . S
H1150 C1124 0.930 . S
H1151 C1125 0.931 . S
H1152 C1132 0.932 . S
H1153 C1133 0.930 . S
H1154 C1134 0.929 . S
H1155 C1136 0.930 . S
H1156 C1138 0.932 . S
H1157 C1139 0.929 . S
H1158 C1140 0.928 . S
H1159 C1142 0.932 . S
C1160 C1161 1.264 . S
C1160 C1165 1.479 . S
C1160 C1170 1.465 . S
C1161 C1160 1.264 . S
C1161 C1163 1.339 . S
C1161 H1188 0.931 . S
C1162 C1163 1.395 . S
C1162 C1164 1.320 . S
C1163 C1161 1.339 . S
C1163 C1162 1.395 . S
C1163 H1189 0.929 . S
C1164 C1162 1.320 . S
C1164 C1165 1.405 . S
C1164 H1190 0.930 . S
C1165 C1160 1.479 . S
C1165 C1164 1.405 . S
C1165 H1191 0.931 . S
U1166 O1167 2.454 . S
U1166 O1168 2.458 . S
U1166 C1169 2.984 . S
U1166 C1170 2.847 . S
U1166 C1183 2.882 . S
U1166 O1184 2.441 . S
U1166 O1185 2.420 . S
U1166 O1186 2.455 . S
U1166 O1187 2.449 . S
O1167 U1166 2.454 . S
O1167 C1169 1.353 . S
O1168 U1166 2.458 . S
O1168 C1169 1.286 . S
C1169 U1166 2.984 . S
C1169 O1167 1.353 . S
C1169 O1168 1.286 . S
C1169 C1171 1.363 . S
C1170 C1160 1.465 . S
C1170 U1166 2.847 . S
C1170 O1184 1.249 . S
C1170 O1185 1.202 . S
C1171 C1169 1.363 . S
C1171 C1173 1.408 . S
C1171 C1176 1.342 . S
C1172 C1173 1.310 . S
C1172 C1175 1.461 . S
C1172 H1192 0.932 . S
C1173 C1171 1.408 . S
C1173 C1172 1.310 . S
C1173 H1193 0.930 . S
C1174 C1175 1.474 . S
C1174 C1176 1.285 . S
C1174 H1194 0.929 . S
C1175 C1172 1.461 . S
C1175 C1174 1.474 . S
C1176 C1171 1.342 . S
C1176 C1174 1.285 . S
C1176 H1195 0.930 . S
C1177 C1180 1.424 . S
C1177 C1182 1.245 . S
C1177 C1183 1.428 . S
C1178 C1181 1.260 . S
C1178 C1182 1.477 . S
C1178 H1196 0.932 . S
C1179 C1180 1.384 . S
C1179 C1181 1.479 . S
C1179 H1197 0.929 . S
C1180 C1177 1.424 . S
C1180 C1179 1.384 . S
C1180 H1198 0.928 . S
C1181 C1178 1.260 . S
C1181 C1179 1.479 . S
C1182 C1177 1.245 . S
C1182 C1178 1.477 . S
C1182 H1199 0.932 . S
C1183 U1166 2.882 . S
C1183 C1177 1.428 . S
C1183 O1186 1.301 . S
C1183 O1187 1.282 . S
O1184 U1166 2.441 . S
O1184 C1170 1.249 . S
O1185 U1166 2.420 . S
O1185 C1170 1.202 . S
O1186 U1166 2.455 . S
O1186 C1183 1.301 . S
O1187 U1166 2.449 . S
O1187 C1183 1.282 . S
H1188 C1161 0.931 . S
H1189 C1163 0.929 . S
H1190 C1164 0.930 . S
H1191 C1165 0.931 . S
H1192 C1172 0.932 . S
H1193 C1173 0.930 . S
H1194 C1174 0.929 . S
H1195 C1176 0.930 . S
H1196 C1178 0.932 . S
H1197 C1179 0.929 . S
H1198 C1180 0.928 . S
H1199 C1182 0.932 . S
C1200 C1201 1.264 . S
C1200 C1205 1.479 . S
C1200 C1210 1.465 . S
C1201 C1200 1.264 . S
C1201 C1203 1.339 . S
C1201 H1228 0.931 . S
C1202 C1203 1.395 . S
C1202 C1204 1.320 . S
C1203 C1201 1.339 . S
C1203 C1202 1.395 . S
C1203 H1229 0.929 . S
C1204 C1202 1.320 . S
C1204 C1205 1.405 . S
C1204 H1230 0.930 . S
C1205 C1200 1.479 . S
C1205 C1204 1.405 . S
C1205 H1231 0.931 . S
U1206 O1207 2.454 . S
U1206 O1208 2.458 . S
U1206 C1209 2.984 . S
U1206 C1210 2.847 . S
U1206 C1223 2.882 . S
U1206 O1224 2.441 . S
U1206 O1225 2.420 . S
U1206 O1226 2.455 . S
U1206 O1227 2.449 . S
O1207 U1206 2.454 . S
O1207 C1209 1.353 . S
O1208 U1206 2.458 . S
O1208 C1209 1.286 . S
C1209 U1206 2.984 . S
C1209 O1207 1.353 . S
C1209 O1208 1.286 . S
C1209 C1211 1.363 . S
C1210 C1200 1.465 . S
C1210 U1206 2.847 . S
C1210 O1224 1.249 . S
C1210 O1225 1.202 . S
C1211 C1209 1.363 . S
C1211 C1213 1.408 . S
C1211 C1216 1.342 . S
C1212 C1213 1.310 . S
C1212 C1215 1.461 . S
C1212 H1232 0.932 . S
C1213 C1211 1.408 . S
C1213 C1212 1.310 . S
C1213 H1233 0.930 . S
C1214 C1215 1.474 . S
C1214 C1216 1.285 . S
C1214 H1234 0.929 . S
C1215 C1212 1.461 . S
C1215 C1214 1.474 . S
C1216 C1211 1.342 . S
C1216 C1214 1.285 . S
C1216 H1235 0.930 . S
C1217 C1220 1.424 . S
C1217 C1222 1.245 . S
C1217 C1223 1.428 . S
C1218 C1221 1.260 . S
C1218 C1222 1.477 . S
C1218 H1236 0.932 . S
C1219 C1220 1.384 . S
C1219 C1221 1.479 . S
C1219 H1237 0.929 . S
C1220 C1217 1.424 . S
C1220 C1219 1.384 . S
C1220 H1238 0.928 . S
C1221 C1218 1.260 . S
C1221 C1219 1.479 . S
C1222 C1217 1.245 . S
C1222 C1218 1.477 . S
C1222 H1239 0.932 . S
C1223 U1206 2.882 . S
C1223 C1217 1.428 . S
C1223 O1226 1.301 . S
C1223 O1227 1.282 . S
O1224 U1206 2.441 . S
O1224 C1210 1.249 . S
O1225 U1206 2.420 . S
O1225 C1210 1.202 . S
O1226 U1206 2.455 . S
O1226 C1223 1.301 . S
O1227 U1206 2.449 . S
O1227 C1223 1.282 . S
H1228 C1201 0.931 . S
H1229 C1203 0.929 . S
H1230 C1204 0.930 . S
H1231 C1205 0.931 . S
H1232 C1212 0.932 . S
H1233 C1213 0.930 . S
H1234 C1214 0.929 . S
H1235 C1216 0.930 . S
H1236 C1218 0.932 . S
H1237 C1219 0.929 . S
H1238 C1220 0.928 . S
H1239 C1222 0.932 . S
C1240 C1241 1.264 . S
C1240 C1245 1.479 . S
C1240 C1250 1.465 . S
C1241 C1240 1.264 . S
C1241 C1243 1.339 . S
C1241 H1268 0.931 . S
C1242 C1243 1.395 . S
C1242 C1244 1.320 . S
C1243 C1241 1.339 . S
C1243 C1242 1.395 . S
C1243 H1269 0.929 . S
C1244 C1242 1.320 . S
C1244 C1245 1.405 . S
C1244 H1270 0.930 . S
C1245 C1240 1.479 . S
C1245 C1244 1.405 . S
C1245 H1271 0.931 . S
U1246 O1247 2.454 . S
U1246 O1248 2.458 . S
U1246 C1249 2.984 . S
U1246 C1250 2.847 . S
U1246 C1263 2.882 . S
U1246 O1264 2.441 . S
U1246 O1265 2.420 . S
U1246 O1266 2.455 . S
U1246 O1267 2.449 . S
O1247 U1246 2.454 . S
O1247 C1249 1.353 . S
O1248 U1246 2.458 . S
O1248 C1249 1.286 . S
C1249 U1246 2.984 . S
C1249 O1247 1.353 . S
C1249 O1248 1.286 . S
C1249 C1251 1.363 . S
C1250 C1240 1.465 . S
C1250 U1246 2.847 . S
C1250 O1264 1.249 . S
C1250 O1265 1.202 . S
C1251 C1249 1.363 . S
C1251 C1253 1.408 . S
C1251 C1256 1.342 . S
C1252 C1253 1.310 . S
C1252 C1255 1.461 . S
C1252 H1272 0.932 . S
C1253 C1251 1.408 . S
C1253 C1252 1.310 . S
C1253 H1273 0.930 . S
C1254 C1255 1.474 . S
C1254 C1256 1.285 . S
C1254 H1274 0.929 . S
C1255 C1252 1.461 . S
C1255 C1254 1.474 . S
C1256 C1251 1.342 . S
C1256 C1254 1.285 . S
C1256 H1275 0.930 . S
C1257 C1260 1.424 . S
C1257 C1262 1.245 . S
C1257 C1263 1.428 . S
C1258 C1261 1.260 . S
C1258 C1262 1.477 . S
C1258 H1276 0.932 . S
C1259 C1260 1.384 . S
C1259 C1261 1.479 . S
C1259 H1277 0.929 . S
C1260 C1257 1.424 . S
C1260 C1259 1.384 . S
C1260 H1278 0.928 . S
C1261 C1258 1.260 . S
C1261 C1259 1.479 . S
C1262 C1257 1.245 . S
C1262 C1258 1.477 . S
C1262 H1279 0.932 . S
C1263 U1246 2.882 . S
C1263 C1257 1.428 . S
C1263 O1266 1.301 . S
C1263 O1267 1.282 . S
O1264 U1246 2.441 . S
O1264 C1250 1.249 . S
O1265 U1246 2.420 . S
O1265 C1250 1.202 . S
O1266 U1246 2.455 . S
O1266 C1263 1.301 . S
O1267 U1246 2.449 . S
O1267 C1263 1.282 . S
H1268 C1241 0.931 . S
H1269 C1243 0.929 . S
H1270 C1244 0.930 . S
H1271 C1245 0.931 . S
H1272 C1252 0.932 . S
H1273 C1253 0.930 . S
H1274 C1254 0.929 . S
H1275 C1256 0.930 . S
H1276 C1258 0.932 . S
H1277 C1259 0.929 . S
H1278 C1260 0.928 . S
H1279 C1262 0.932 . S
H1280 C1288 0.930 . S
H1281 C1291 0.930 . S
H1282 C1293 0.930 . S
H1283 C1294 0.970 . S
H1284 C1294 0.970 . S
H1285 C1296 0.930 . S
H1286 C1298 0.930 . S
H1287 C1300 0.930 . S
C1288 H1280 0.930 . S
C1288 C1289 1.382 . S
C1288 C1290 1.426 . S
C1289 C1288 1.382 . S
C1289 C1293 1.389 . S
C1290 C1288 1.426 . S
C1290 C1291 1.375 . S
C1290 C1294 1.532 1_556 S
C1291 H1281 0.930 . S
C1291 C1290 1.375 . S
C1291 C1292 1.416 . S
C1292 C1291 1.416 . S
C1292 C1293 1.371 . S
C1293 H1282 0.930 . S
C1293 C1289 1.389 . S
C1293 C1292 1.371 . S
C1294 H1283 0.970 . S
C1294 H1284 0.970 . S
C1294 C1290 1.532 1_554 S
C1294 C1295 1.499 . S
C1295 C1294 1.499 . S
C1295 C1296 1.370 . S
C1295 C1300 1.415 . S
C1296 H1285 0.930 . S
C1296 C1295 1.370 . S
C1296 C1297 1.407 . S
C1297 C1296 1.407 . S
C1297 C1298 1.365 . S
C1298 H1286 0.930 . S
C1298 C1297 1.365 . S
C1298 C1299 1.393 . S
C1299 C1298 1.393 . S
C1299 C1300 1.387 . S
C1300 H1287 0.930 . S
C1300 C1295 1.415 . S
C1300 C1299 1.387 . S
H1301 C1309 0.930 . S
H1302 C1312 0.930 . S
H1303 C1314 0.930 . S
H1304 C1315 0.970 . S
H1305 C1315 0.970 . S
H1306 C1317 0.930 . S
H1307 C1319 0.930 . S
H1308 C1321 0.930 . S
C1309 H1301 0.930 . S
C1309 C1310 1.382 . S
C1309 C1311 1.426 . S
C1310 C1309 1.382 . S
C1310 C1314 1.389 . S
C1311 C1309 1.426 . S
C1311 C1312 1.375 . S
C1311 C1315 1.532 . S
C1312 H1302 0.930 . S
C1312 C1311 1.375 . S
C1312 C1313 1.416 . S
C1313 C1312 1.416 . S
C1313 C1314 1.371 . S
C1314 H1303 0.930 . S
C1314 C1310 1.389 . S
C1314 C1313 1.371 . S
C1315 H1304 0.970 . S
C1315 H1305 0.970 . S
C1315 C1311 1.532 . S
C1315 C1316 1.499 1_554 S
C1316 C1315 1.499 1_556 S
C1316 C1317 1.370 . S
C1316 C1321 1.415 . S
C1317 H1306 0.930 . S
C1317 C1316 1.370 . S
C1317 C1318 1.407 . S
C1318 C1317 1.407 . S
C1318 C1319 1.365 . S
C1319 H1307 0.930 . S
C1319 C1318 1.365 . S
C1319 C1320 1.393 . S
C1320 C1319 1.393 . S
C1320 C1321 1.387 . S
C1321 H1308 0.930 . S
C1321 C1316 1.415 . S
C1321 C1320 1.387 . S
H1322 C1330 0.930 . S
H1323 C1333 0.930 . S
H1324 C1335 0.930 . S
H1325 C1336 0.970 . S
H1326 C1336 0.970 . S
H1327 C1338 0.930 . S
H1328 C1340 0.930 . S
H1329 C1342 0.930 . S
C1330 H1322 0.930 . S
C1330 C1331 1.382 . S
C1330 C1332 1.426 . S
C1331 C1330 1.382 . S
C1331 C1335 1.389 . S
C1332 C1330 1.426 . S
C1332 C1333 1.375 . S
C1332 C1336 1.532 . S
C1333 H1323 0.930 . S
C1333 C1332 1.375 . S
C1333 C1334 1.416 . S
C1334 C1333 1.416 . S
C1334 C1335 1.371 . S
C1335 H1324 0.930 . S
C1335 C1331 1.389 . S
C1335 C1334 1.371 . S
C1336 H1325 0.970 . S
C1336 H1326 0.970 . S
C1336 C1332 1.532 . S
C1336 C1337 1.499 1_554 S
C1337 C1336 1.499 1_556 S
C1337 C1338 1.370 . S
C1337 C1342 1.415 . S
C1338 H1327 0.930 . S
C1338 C1337 1.370 . S
C1338 C1339 1.407 . S
C1339 C1338 1.407 . S
C1339 C1340 1.365 . S
C1340 H1328 0.930 . S
C1340 C1339 1.365 . S
C1340 C1341 1.393 . S
C1341 C1340 1.393 . S
C1341 C1342 1.387 . S
C1342 H1329 0.930 . S
C1342 C1337 1.415 . S
C1342 C1341 1.387 . S
H1343 C1351 0.930 . S
H1344 C1354 0.930 . S
H1345 C1356 0.930 . S
H1346 C1357 0.970 . S
H1347 C1357 0.970 . S
H1348 C1359 0.930 . S
H1349 C1361 0.930 . S
H1350 C1363 0.930 . S
C1351 H1343 0.930 . S
C1351 C1352 1.382 . S
C1351 C1353 1.426 . S
C1352 C1351 1.382 . S
C1352 C1356 1.389 . S
C1353 C1351 1.426 . S
C1353 C1354 1.375 . S
C1353 C1357 1.532 . S
C1354 H1344 0.930 . S
C1354 C1353 1.375 . S
C1354 C1355 1.416 . S
C1355 C1354 1.416 . S
C1355 C1356 1.371 . S
C1356 H1345 0.930 . S
C1356 C1352 1.389 . S
C1356 C1355 1.371 . S
C1357 H1346 0.970 . S
C1357 H1347 0.970 . S
C1357 C1353 1.532 . S
C1357 C1358 1.499 1_554 S
C1358 C1357 1.499 1_556 S
C1358 C1359 1.370 . S
C1358 C1363 1.415 . S
C1359 H1348 0.930 . S
C1359 C1358 1.370 . S
C1359 C1360 1.407 . S
C1360 C1359 1.407 . S
C1360 C1361 1.365 . S
C1361 H1349 0.930 . S
C1361 C1360 1.365 . S
C1361 C1362 1.393 . S
C1362 C1361 1.393 . S
C1362 C1363 1.387 . S
C1363 H1350 0.930 . S
C1363 C1358 1.415 . S
C1363 C1362 1.387 . S
H1364 C1372 0.930 . S
H1365 C1375 0.930 . S
H1366 C1377 0.930 . S
H1367 C1378 0.970 . S
H1368 C1378 0.970 . S
H1369 C1380 0.930 . S
H1370 C1382 0.930 . S
H1371 C1384 0.930 . S
C1372 H1364 0.930 . S
C1372 C1373 1.382 . S
C1372 C1374 1.426 . S
C1373 C1372 1.382 . S
C1373 C1377 1.389 . S
C1374 C1372 1.426 . S
C1374 C1375 1.375 . S
C1374 C1378 1.532 . S
C1375 H1365 0.930 . S
C1375 C1374 1.375 . S
C1375 C1376 1.416 . S
C1376 C1375 1.416 . S
C1376 C1377 1.371 . S
C1377 H1366 0.930 . S
C1377 C1373 1.389 . S
C1377 C1376 1.371 . S
C1378 H1367 0.970 . S
C1378 H1368 0.970 . S
C1378 C1374 1.532 . S
C1378 C1379 1.499 1_455 S
C1379 C1378 1.499 1_655 S
C1379 C1380 1.370 . S
C1379 C1384 1.415 . S
C1380 H1369 0.930 . S
C1380 C1379 1.370 . S
C1380 C1381 1.407 . S
C1381 C1380 1.407 . S
C1381 C1382 1.365 . S
C1382 H1370 0.930 . S
C1382 C1381 1.365 . S
C1382 C1383 1.393 . S
C1383 C1382 1.393 . S
C1383 C1384 1.387 . S
C1384 H1371 0.930 . S
C1384 C1379 1.415 . S
C1384 C1383 1.387 . S
H1385 C1393 0.930 . S
H1386 C1396 0.930 . S
H1387 C1398 0.930 . S
H1388 C1399 0.970 . S
H1389 C1399 0.970 1_565 S
H1390 C1401 0.930 . S
H1391 C1403 0.930 . S
H1392 C1405 0.930 . S
C1393 H1385 0.930 . S
C1393 C1394 1.382 . S
C1393 C1395 1.426 . S
C1394 C1393 1.382 . S
C1394 C1398 1.389 . S
C1395 C1393 1.426 . S
C1395 C1396 1.375 . S
C1395 C1399 1.535 . S
C1396 H1386 0.930 . S
C1396 C1395 1.375 . S
C1396 C1397 1.416 . S
C1397 C1396 1.416 . S
C1397 C1398 1.371 . S
C1398 H1387 0.930 . S
C1398 C1394 1.389 . S
C1398 C1397 1.371 . S
C1399 H1388 0.970 . S
C1399 H1389 0.970 1_545 S
C1399 C1395 1.535 . S
C1399 C1400 1.497 1_545 S
C1400 C1399 1.497 1_565 S
C1400 C1401 1.370 . S
C1400 C1405 1.415 . S
C1401 H1390 0.930 . S
C1401 C1400 1.370 . S
C1401 C1402 1.407 . S
C1402 C1401 1.407 . S
C1402 C1403 1.365 . S
C1403 H1391 0.930 . S
C1403 C1402 1.365 . S
C1403 C1404 1.393 . S
C1404 C1403 1.393 . S
C1404 C1405 1.387 . S
C1405 H1392 0.930 . S
C1405 C1400 1.415 . S
C1405 C1404 1.387 . S
H1406 C1414 0.930 . S
H1407 C1417 0.930 . S
H1408 C1419 0.930 . S
H1409 C1420 0.970 . S
H1410 C1420 0.970 . S
H1411 C1422 0.930 . S
H1412 C1424 0.930 . S
H1413 C1426 0.930 . S
C1414 H1406 0.930 . S
C1414 C1415 1.382 . S
C1414 C1416 1.426 . S
C1415 C1414 1.382 . S
C1415 C1419 1.389 . S
C1416 C1414 1.426 . S
C1416 C1417 1.375 . S
C1416 C1420 1.526 1_655 S
C1417 H1407 0.930 . S
C1417 C1416 1.375 . S
C1417 C1418 1.416 . S
C1418 C1417 1.416 . S
C1418 C1419 1.371 . S
C1419 H1408 0.930 . S
C1419 C1415 1.389 . S
C1419 C1418 1.371 . S
C1420 H1409 0.970 . S
C1420 H1410 0.970 . S
C1420 C1416 1.526 1_455 S
C1420 C1421 1.506 . S
C1421 C1420 1.506 . S
C1421 C1422 1.370 . S
C1421 C1426 1.415 . S
C1422 H1411 0.930 . S
C1422 C1421 1.370 . S
C1422 C1423 1.407 . S
C1423 C1422 1.407 . S
C1423 C1424 1.365 . S
C1424 H1412 0.930 . S
C1424 C1423 1.365 . S
C1424 C1425 1.393 . S
C1425 C1424 1.393 . S
C1425 C1426 1.387 . S
C1426 H1413 0.930 . S
C1426 C1421 1.415 . S
C1426 C1425 1.387 . S
H1427 C1435 0.930 . S
H1428 C1438 0.930 . S
H1429 C1440 0.930 . S
H1430 C1441 0.970 . S
H1431 C1441 0.970 . S
H1432 C1443 0.930 . S
H1433 C1445 0.930 . S
H1434 C1447 0.930 . S
C1435 H1427 0.930 . S
C1435 C1436 1.382 . S
C1435 C1437 1.426 . S
C1436 C1435 1.382 . S
C1436 C1440 1.389 . S
C1437 C1435 1.426 . S
C1437 C1438 1.375 . S
C1437 C1441 1.532 1_565 S
C1438 H1428 0.930 . S
C1438 C1437 1.375 . S
C1438 C1439 1.416 . S
C1439 C1438 1.416 . S
C1439 C1440 1.371 . S
C1440 H1429 0.930 . S
C1440 C1436 1.389 . S
C1440 C1439 1.371 . S
C1441 H1430 0.970 . S
C1441 H1431 0.970 . S
C1441 C1437 1.532 1_545 S
C1441 C1442 1.499 . S
C1442 C1441 1.499 . S
C1442 C1443 1.370 . S
C1442 C1447 1.415 . S
C1443 H1432 0.930 . S
C1443 C1442 1.370 . S
C1443 C1444 1.407 . S
C1444 C1443 1.407 . S
C1444 C1445 1.365 . S
C1445 H1433 0.930 . S
C1445 C1444 1.365 . S
C1445 C1446 1.393 . S
C1446 C1445 1.393 . S
C1446 C1447 1.387 . S
C1447 H1434 0.930 . S
C1447 C1442 1.415 . S
C1447 C1446 1.387 . S
H1448 C1456 0.930 . S
H1449 C1459 0.930 . S
H1450 C1461 0.930 . S
H1451 C1462 0.970 . S
H1452 C1462 0.970 . S
H1453 C1464 0.930 . S
H1454 C1466 0.930 . S
H1455 C1468 0.930 . S
C1456 H1448 0.930 . S
C1456 C1457 1.382 . S
C1456 C1458 1.426 . S
C1457 C1456 1.382 . S
C1457 C1461 1.389 . S
C1458 C1456 1.426 . S
C1458 C1459 1.375 . S
C1458 C1462 1.532 1_655 S
C1459 H1449 0.930 . S
C1459 C1458 1.375 . S
C1459 C1460 1.416 . S
C1460 C1459 1.416 . S
C1460 C1461 1.371 . S
C1461 H1450 0.930 . S
C1461 C1457 1.389 . S
C1461 C1460 1.371 . S
C1462 H1451 0.970 . S
C1462 H1452 0.970 . S
C1462 C1458 1.532 1_455 S
C1462 C1463 1.499 . S
C1463 C1462 1.499 . S
C1463 C1464 1.370 . S
C1463 C1468 1.415 . S
C1464 H1453 0.930 . S
C1464 C1463 1.370 . S
C1464 C1465 1.407 . S
C1465 C1464 1.407 . S
C1465 C1466 1.365 . S
C1466 H1454 0.930 . S
C1466 C1465 1.365 . S
C1466 C1467 1.393 . S
C1467 C1466 1.393 . S
C1467 C1468 1.387 . S
C1468 H1455 0.930 . S
C1468 C1463 1.415 . S
C1468 C1467 1.387 . S
H1469 C1477 0.930 . S
H1470 C1480 0.930 . S
H1471 C1482 0.930 . S
H1472 C1483 0.970 . S
H1473 C1483 0.970 . S
H1474 C1485 0.930 . S
H1475 C1487 0.930 . S
H1476 C1489 0.930 . S
C1477 H1469 0.930 . S
C1477 C1478 1.382 . S
C1477 C1479 1.426 . S
C1478 C1477 1.382 . S
C1478 C1482 1.389 . S
C1479 C1477 1.426 . S
C1479 C1480 1.375 . S
C1479 C1483 1.532 1_565 S
C1480 H1470 0.930 . S
C1480 C1479 1.375 . S
C1480 C1481 1.416 . S
C1481 C1480 1.416 . S
C1481 C1482 1.371 . S
C1482 H1471 0.930 . S
C1482 C1478 1.389 . S
C1482 C1481 1.371 . S
C1483 H1472 0.970 . S
C1483 H1473 0.970 . S
C1483 C1479 1.532 1_545 S
C1483 C1484 1.499 . S
C1484 C1483 1.499 . S
C1484 C1485 1.370 . S
C1484 C1489 1.415 . S
C1485 H1474 0.930 . S
C1485 C1484 1.370 . S
C1485 C1486 1.407 . S
C1486 C1485 1.407 . S
C1486 C1487 1.365 . S
C1487 H1475 0.930 . S
C1487 C1486 1.365 . S
C1487 C1488 1.393 . S
C1488 C1487 1.393 . S
C1488 C1489 1.387 . S
C1489 H1476 0.930 . S
C1489 C1484 1.415 . S
C1489 C1488 1.387 . S
H1490 C1498 0.930 . S
H1491 C1501 0.930 . S
H1492 C1503 0.930 . S
H1493 C1504 0.970 . S
H1494 C1504 0.970 . S
H1495 C1506 0.930 . S
H1496 C1508 0.930 . S
H1497 C1510 0.930 . S
C1498 H1490 0.930 . S
C1498 C1499 1.382 . S
C1498 C1500 1.426 . S
C1499 C1498 1.382 . S
C1499 C1503 1.389 . S
C1500 C1498 1.426 . S
C1500 C1501 1.375 . S
C1500 C1504 1.532 1_655 S
C1501 H1491 0.930 . S
C1501 C1500 1.375 . S
C1501 C1502 1.416 . S
C1502 C1501 1.416 . S
C1502 C1503 1.371 . S
C1503 H1492 0.930 . S
C1503 C1499 1.389 . S
C1503 C1502 1.371 . S
C1504 H1493 0.970 . S
C1504 H1494 0.970 . S
C1504 C1500 1.532 1_455 S
C1504 C1505 1.499 . S
C1505 C1504 1.499 . S
C1505 C1506 1.370 . S
C1505 C1510 1.415 . S
C1506 H1495 0.930 . S
C1506 C1505 1.370 . S
C1506 C1507 1.407 . S
C1507 C1506 1.407 . S
C1507 C1508 1.365 . S
C1508 H1496 0.930 . S
C1508 C1507 1.365 . S
C1508 C1509 1.393 . S
C1509 C1508 1.393 . S
C1509 C1510 1.387 . S
C1510 H1497 0.930 . S
C1510 C1505 1.415 . S
C1510 C1509 1.387 . S
H1511 C1519 0.930 . S
H1512 C1522 0.930 . S
H1513 C1524 0.930 . S
H1514 C1525 0.970 . S
H1515 C1525 0.970 . S
H1516 C1527 0.930 . S
H1517 C1529 0.930 . S
H1518 C1531 0.930 . S
C1519 H1511 0.930 . S
C1519 C1520 1.382 . S
C1519 C1521 1.426 . S
C1520 C1519 1.382 . S
C1520 C1524 1.389 . S
C1521 C1519 1.426 . S
C1521 C1522 1.375 . S
C1521 C1525 1.532 1_565 S
C1522 H1512 0.930 . S
C1522 C1521 1.375 . S
C1522 C1523 1.416 . S
C1523 C1522 1.416 . S
C1523 C1524 1.371 . S
C1524 H1513 0.930 . S
C1524 C1520 1.389 . S
C1524 C1523 1.371 . S
C1525 H1514 0.970 . S
C1525 H1515 0.970 . S
C1525 C1521 1.532 1_545 S
C1525 C1526 1.499 . S
C1526 C1525 1.499 . S
C1526 C1527 1.370 . S
C1526 C1531 1.415 . S
C1527 H1516 0.930 . S
C1527 C1526 1.370 . S
C1527 C1528 1.407 . S
C1528 C1527 1.407 . S
C1528 C1529 1.365 . S
C1529 H1517 0.930 . S
C1529 C1528 1.365 . S
C1529 C1530 1.393 . S
C1530 C1529 1.393 . S
C1530 C1531 1.387 . S
C1531 H1518 0.930 . S
C1531 C1526 1.415 . S
C1531 C1530 1.387 . S
H1532 C1540 0.930 . S
H1533 C1543 0.930 . S
H1534 C1545 0.930 . S
H1535 C1546 0.970 . S
H1536 C1546 0.970 . S
H1537 C1548 0.930 . S
H1538 C1550 0.930 . S
H1539 C1552 0.930 . S
C1540 H1532 0.930 . S
C1540 C1541 1.382 . S
C1540 C1542 1.426 . S
C1541 C1540 1.382 . S
C1541 C1545 1.389 . S
C1542 C1540 1.426 . S
C1542 C1543 1.375 . S
C1542 C1546 1.532 . S
C1543 H1533 0.930 . S
C1543 C1542 1.375 . S
C1543 C1544 1.416 . S
C1544 C1543 1.416 . S
C1544 C1545 1.371 . S
C1545 H1534 0.930 . S
C1545 C1541 1.389 . S
C1545 C1544 1.371 . S
C1546 H1535 0.970 . S
C1546 H1536 0.970 . S
C1546 C1542 1.532 . S
C1546 C1547 1.499 . S
C1547 C1546 1.499 . S
C1547 C1548 1.370 . S
C1547 C1552 1.415 . S
C1548 H1537 0.930 . S
C1548 C1547 1.370 . S
C1548 C1549 1.407 . S
C1549 C1548 1.407 . S
C1549 C1550 1.365 . S
C1550 H1538 0.930 . S
C1550 C1549 1.365 . S
C1550 C1551 1.393 . S
C1551 C1550 1.393 . S
C1551 C1552 1.387 . S
C1552 H1539 0.930 . S
C1552 C1547 1.415 . S
C1552 C1551 1.387 . S
H1553 C1561 0.930 . S
H1554 C1564 0.930 . S
H1555 C1566 0.930 . S
H1556 C1567 0.970 . S
H1557 C1567 0.970 . S
H1558 C1569 0.930 . S
H1559 C1571 0.930 . S
H1560 C1573 0.930 . S
C1561 H1553 0.930 . S
C1561 C1562 1.382 . S
C1561 C1563 1.426 . S
C1562 C1561 1.382 . S
C1562 C1566 1.389 . S
C1563 C1561 1.426 . S
C1563 C1564 1.375 . S
C1563 C1567 1.532 . S
C1564 H1554 0.930 . S
C1564 C1563 1.375 . S
C1564 C1565 1.416 . S
C1565 C1564 1.416 . S
C1565 C1566 1.371 . S
C1566 H1555 0.930 . S
C1566 C1562 1.389 . S
C1566 C1565 1.371 . S
C1567 H1556 0.970 . S
C1567 H1557 0.970 . S
C1567 C1563 1.532 . S
C1567 C1568 1.499 . S
C1568 C1567 1.499 . S
C1568 C1569 1.370 . S
C1568 C1573 1.415 . S
C1569 H1558 0.930 . S
C1569 C1568 1.370 . S
C1569 C1570 1.407 . S
C1570 C1569 1.407 . S
C1570 C1571 1.365 . S
C1571 H1559 0.930 . S
C1571 C1570 1.365 . S
C1571 C1572 1.393 . S
C1572 C1571 1.393 . S
C1572 C1573 1.387 . S
C1573 H1560 0.930 . S
C1573 C1568 1.415 . S
C1573 C1572 1.387 . S
H1574 C1582 0.930 . S
H1575 C1585 0.930 . S
H1576 C1587 0.930 . S
H1577 C1588 0.970 . S
H1578 C1588 0.970 . S
H1579 C1590 0.930 . S
H1580 C1592 0.930 . S
H1581 C1594 0.930 . S
C1582 H1574 0.930 . S
C1582 C1583 1.382 . S
C1582 C1584 1.426 . S
C1583 C1582 1.382 . S
C1583 C1587 1.389 . S
C1584 C1582 1.426 . S
C1584 C1585 1.375 . S
C1584 C1588 1.532 . S
C1585 H1575 0.930 . S
C1585 C1584 1.375 . S
C1585 C1586 1.416 . S
C1586 C1585 1.416 . S
C1586 C1587 1.371 . S
C1587 H1576 0.930 . S
C1587 C1583 1.389 . S
C1587 C1586 1.371 . S
C1588 H1577 0.970 . S
C1588 H1578 0.970 . S
C1588 C1584 1.532 . S
C1588 C1589 1.499 . S
C1589 C1588 1.499 . S
C1589 C1590 1.370 . S
C1589 C1594 1.415 . S
C1590 H1579 0.930 . S
C1590 C1589 1.370 . S
C1590 C1591 1.407 . S
C1591 C1590 1.407 . S
C1591 C1592 1.365 . S
C1592 H1580 0.930 . S
C1592 C1591 1.365 . S
C1592 C1593 1.393 . S
C1593 C1592 1.393 . S
C1593 C1594 1.387 . S
C1594 H1581 0.930 . S
C1594 C1589 1.415 . S
C1594 C1593 1.387 . S
H1595 C1603 0.930 . S
H1596 C1606 0.930 . S
H1597 C1608 0.930 . S
H1598 C1609 0.970 . S
H1599 C1609 0.970 . S
H1600 C1611 0.930 . S
H1601 C1613 0.930 . S
H1602 C1615 0.930 . S
C1603 H1595 0.930 . S
C1603 C1604 1.382 . S
C1603 C1605 1.426 . S
C1604 C1603 1.382 . S
C1604 C1608 1.389 . S
C1605 C1603 1.426 . S
C1605 C1606 1.375 . S
C1605 C1609 1.532 . S
C1606 H1596 0.930 . S
C1606 C1605 1.375 . S
C1606 C1607 1.416 . S
C1607 C1606 1.416 . S
C1607 C1608 1.371 . S
C1608 H1597 0.930 . S
C1608 C1604 1.389 . S
C1608 C1607 1.371 . S
C1609 H1598 0.970 . S
C1609 H1599 0.970 . S
C1609 C1605 1.532 . S
C1609 C1610 1.499 . S
C1610 C1609 1.499 . S
C1610 C1611 1.370 . S
C1610 C1615 1.415 . S
C1611 H1600 0.930 . S
C1611 C1610 1.370 . S
C1611 C1612 1.407 . S
C1612 C1611 1.407 . S
C1612 C1613 1.365 . S
C1613 H1601 0.930 . S
C1613 C1612 1.365 . S
C1613 C1614 1.393 . S
C1614 C1613 1.393 . S
C1614 C1615 1.387 . S
C1615 H1602 0.930 . S
C1615 C1610 1.415 . S
C1615 C1614 1.387 . S
H1616 C1624 0.930 . S
H1617 C1627 0.930 . S
H1618 C1629 0.930 . S
H1619 C1630 0.970 . S
H1620 C1630 0.970 . S
H1621 C1632 0.930 . S
H1622 C1634 0.930 . S
H1623 C1636 0.930 . S
C1624 H1616 0.930 . S
C1624 C1625 1.382 . S
C1624 C1626 1.426 . S
C1625 C1624 1.382 . S
C1625 C1629 1.389 . S
C1626 C1624 1.426 . S
C1626 C1627 1.375 . S
C1626 C1630 1.532 . S
C1627 H1617 0.930 . S
C1627 C1626 1.375 . S
C1627 C1628 1.416 . S
C1628 C1627 1.416 . S
C1628 C1629 1.371 . S
C1629 H1618 0.930 . S
C1629 C1625 1.389 . S
C1629 C1628 1.371 . S
C1630 H1619 0.970 . S
C1630 H1620 0.970 . S
C1630 C1626 1.532 . S
C1630 C1631 1.499 . S
C1631 C1630 1.499 . S
C1631 C1632 1.370 . S
C1631 C1636 1.415 . S
C1632 H1621 0.930 . S
C1632 C1631 1.370 . S
C1632 C1633 1.407 . S
C1633 C1632 1.407 . S
C1633 C1634 1.365 . S
C1634 H1622 0.930 . S
C1634 C1633 1.365 . S
C1634 C1635 1.393 . S
C1635 C1634 1.393 . S
C1635 C1636 1.387 . S
C1636 H1623 0.930 . S
C1636 C1631 1.415 . S
C1636 C1635 1.387 . S
H1637 C1645 0.930 . S
H1638 C1648 0.930 . S
H1639 C1650 0.930 . S
H1640 C1651 0.970 . S
H1641 C1651 0.970 . S
H1642 C1653 0.930 . S
H1643 C1655 0.930 . S
H1644 C1657 0.930 . S
C1645 H1637 0.930 . S
C1645 C1646 1.382 . S
C1645 C1647 1.426 . S
C1646 C1645 1.382 . S
C1646 C1650 1.389 . S
C1647 C1645 1.426 . S
C1647 C1648 1.375 . S
C1647 C1651 1.532 . S
C1648 H1638 0.930 . S
C1648 C1647 1.375 . S
C1648 C1649 1.416 . S
C1649 C1648 1.416 . S
C1649 C1650 1.371 . S
C1650 H1639 0.930 . S
C1650 C1646 1.389 . S
C1650 C1649 1.371 . S
C1651 H1640 0.970 . S
C1651 H1641 0.970 . S
C1651 C1647 1.532 . S
C1651 C1652 1.499 . S
C1652 C1651 1.499 . S
C1652 C1653 1.370 . S
C1652 C1657 1.415 . S
C1653 H1642 0.930 . S
C1653 C1652 1.370 . S
C1653 C1654 1.407 . S
C1654 C1653 1.407 . S
C1654 C1655 1.365 . S
C1655 H1643 0.930 . S
C1655 C1654 1.365 . S
C1655 C1656 1.393 . S
C1656 C1655 1.393 . S
C1656 C1657 1.387 . S
C1657 H1644 0.930 . S
C1657 C1652 1.415 . S
C1657 C1656 1.387 . S
H1658 C1666 0.930 . S
H1659 C1669 0.930 . S
H1660 C1671 0.930 . S
H1661 C1672 0.970 . S
H1662 C1672 0.970 . S
H1663 C1674 0.930 . S
H1664 C1676 0.930 . S
H1665 C1678 0.930 . S
C1666 H1658 0.930 . S
C1666 C1667 1.382 . S
C1666 C1668 1.426 . S
C1667 C1666 1.382 . S
C1667 C1671 1.389 . S
C1668 C1666 1.426 . S
C1668 C1669 1.375 . S
C1668 C1672 1.532 . S
C1669 H1659 0.930 . S
C1669 C1668 1.375 . S
C1669 C1670 1.416 . S
C1670 C1669 1.416 . S
C1670 C1671 1.371 . S
C1671 H1660 0.930 . S
C1671 C1667 1.389 . S
C1671 C1670 1.371 . S
C1672 H1661 0.970 . S
C1672 H1662 0.970 . S
C1672 C1668 1.532 . S
C1672 C1673 1.499 . S
C1673 C1672 1.499 . S
C1673 C1674 1.370 . S
C1673 C1678 1.415 . S
C1674 H1663 0.930 . S
C1674 C1673 1.370 . S
C1674 C1675 1.407 . S
C1675 C1674 1.407 . S
C1675 C1676 1.365 . S
C1676 H1664 0.930 . S
C1676 C1675 1.365 . S
C1676 C1677 1.393 . S
C1677 C1676 1.393 . S
C1677 C1678 1.387 . S
C1678 H1665 0.930 . S
C1678 C1673 1.415 . S
C1678 C1677 1.387 . S
H1679 C1687 0.930 . S
H1680 C1690 0.930 . S
H1681 C1692 0.930 . S
H1682 C1693 0.970 . S
H1683 C1693 0.970 . S
H1684 C1695 0.930 . S
H1685 C1697 0.930 . S
H1686 C1699 0.930 . S
C1687 H1679 0.930 . S
C1687 C1688 1.382 . S
C1687 C1689 1.426 . S
C1688 C1687 1.382 . S
C1688 C1692 1.389 . S
C1689 C1687 1.426 . S
C1689 C1690 1.375 . S
C1689 C1693 1.532 . S
C1690 H1680 0.930 . S
C1690 C1689 1.375 . S
C1690 C1691 1.416 . S
C1691 C1690 1.416 . S
C1691 C1692 1.371 . S
C1692 H1681 0.930 . S
C1692 C1688 1.389 . S
C1692 C1691 1.371 . S
C1693 H1682 0.970 . S
C1693 H1683 0.970 . S
C1693 C1689 1.532 . S
C1693 C1694 1.499 . S
C1694 C1693 1.499 . S
C1694 C1695 1.370 . S
C1694 C1699 1.415 . S
C1695 H1684 0.930 . S
C1695 C1694 1.370 . S
C1695 C1696 1.407 . S
C1696 C1695 1.407 . S
C1696 C1697 1.365 . S
C1697 H1685 0.930 . S
C1697 C1696 1.365 . S
C1697 C1698 1.393 . S
C1698 C1697 1.393 . S
C1698 C1699 1.387 . S
C1699 H1686 0.930 . S
C1699 C1694 1.415 . S
C1699 C1698 1.387 . S
H1700 C1708 0.930 . S
H1701 C1711 0.930 . S
H1702 C1713 0.930 . S
H1703 C1714 0.970 . S
H1704 C1714 0.970 . S
H1705 C1716 0.930 . S
H1706 C1718 0.930 . S
H1707 C1720 0.930 . S
C1708 H1700 0.930 . S
C1708 C1709 1.382 . S
C1708 C1710 1.426 . S
C1709 C1708 1.382 . S
C1709 C1713 1.389 . S
C1710 C1708 1.426 . S
C1710 C1711 1.375 . S
C1710 C1714 1.532 . S
C1711 H1701 0.930 . S
C1711 C1710 1.375 . S
C1711 C1712 1.416 . S
C1712 C1711 1.416 . S
C1712 C1713 1.371 . S
C1713 H1702 0.930 . S
C1713 C1709 1.389 . S
C1713 C1712 1.371 . S
C1714 H1703 0.970 . S
C1714 H1704 0.970 . S
C1714 C1710 1.532 . S
C1714 C1715 1.499 . S
C1715 C1714 1.499 . S
C1715 C1716 1.370 . S
C1715 C1720 1.415 . S
C1716 H1705 0.930 . S
C1716 C1715 1.370 . S
C1716 C1717 1.407 . S
C1717 C1716 1.407 . S
C1717 C1718 1.365 . S
C1718 H1706 0.930 . S
C1718 C1717 1.365 . S
C1718 C1719 1.393 . S
C1719 C1718 1.393 . S
C1719 C1720 1.387 . S
C1720 H1707 0.930 . S
C1720 C1715 1.415 . S
C1720 C1719 1.387 . S
H1721 C1729 0.930 . S
H1722 C1732 0.930 . S
H1723 C1734 0.930 . S
H1724 C1735 0.970 . S
H1725 C1735 0.970 . S
H1726 C1737 0.930 . S
H1727 C1739 0.930 . S
H1728 C1741 0.930 . S
C1729 H1721 0.930 . S
C1729 C1730 1.382 . S
C1729 C1731 1.426 . S
C1730 C1729 1.382 . S
C1730 C1734 1.389 . S
C1731 C1729 1.426 . S
C1731 C1732 1.375 . S
C1731 C1735 1.532 . S
C1732 H1722 0.930 . S
C1732 C1731 1.375 . S
C1732 C1733 1.416 . S
C1733 C1732 1.416 . S
C1733 C1734 1.371 . S
C1734 H1723 0.930 . S
C1734 C1730 1.389 . S
C1734 C1733 1.371 . S
C1735 H1724 0.970 . S
C1735 H1725 0.970 . S
C1735 C1731 1.532 . S
C1735 C1736 1.499 . S
C1736 C1735 1.499 . S
C1736 C1737 1.370 . S
C1736 C1741 1.415 . S
C1737 H1726 0.930 . S
C1737 C1736 1.370 . S
C1737 C1738 1.407 . S
C1738 C1737 1.407 . S
C1738 C1739 1.365 . S
C1739 H1727 0.930 . S
C1739 C1738 1.365 . S
C1739 C1740 1.393 . S
C1740 C1739 1.393 . S
C1740 C1741 1.387 . S
C1741 H1728 0.930 . S
C1741 C1736 1.415 . S
C1741 C1740 1.387 . S
H1742 C1750 0.930 . S
H1743 C1753 0.930 . S
H1744 C1755 0.930 . S
H1745 C1756 0.970 . S
H1746 C1756 0.970 . S
H1747 C1758 0.930 . S
H1748 C1760 0.930 . S
H1749 C1762 0.930 . S
C1750 H1742 0.930 . S
C1750 C1751 1.382 . S
C1750 C1752 1.426 . S
C1751 C1750 1.382 . S
C1751 C1755 1.389 . S
C1752 C1750 1.426 . S
C1752 C1753 1.375 . S
C1752 C1756 1.532 . S
C1753 H1743 0.930 . S
C1753 C1752 1.375 . S
C1753 C1754 1.416 . S
C1754 C1753 1.416 . S
C1754 C1755 1.371 . S
C1755 H1744 0.930 . S
C1755 C1751 1.389 . S
C1755 C1754 1.371 . S
C1756 H1745 0.970 . S
C1756 H1746 0.970 . S
C1756 C1752 1.532 . S
C1756 C1757 1.499 . S
C1757 C1756 1.499 . S
C1757 C1758 1.370 . S
C1757 C1762 1.415 . S
C1758 H1747 0.930 . S
C1758 C1757 1.370 . S
C1758 C1759 1.407 . S
C1759 C1758 1.407 . S
C1759 C1760 1.365 . S
C1760 H1748 0.930 . S
C1760 C1759 1.365 . S
C1760 C1761 1.393 . S
C1761 C1760 1.393 . S
C1761 C1762 1.387 . S
C1762 H1749 0.930 . S
C1762 C1757 1.415 . S
C1762 C1761 1.387 . S
H1763 C1771 0.930 . S
H1764 C1774 0.930 . S
H1765 C1776 0.930 . S
H1766 C1777 0.970 . S
H1767 C1777 0.970 . S
H1768 C1779 0.930 . S
H1769 C1781 0.930 . S
H1770 C1783 0.930 . S
C1771 H1763 0.930 . S
C1771 C1772 1.382 . S
C1771 C1773 1.426 . S
C1772 C1771 1.382 . S
C1772 C1776 1.389 . S
C1773 C1771 1.426 . S
C1773 C1774 1.375 . S
C1773 C1777 1.532 . S
C1774 H1764 0.930 . S
C1774 C1773 1.375 . S
C1774 C1775 1.416 . S
C1775 C1774 1.416 . S
C1775 C1776 1.371 . S
C1776 H1765 0.930 . S
C1776 C1772 1.389 . S
C1776 C1775 1.371 . S
C1777 H1766 0.970 . S
C1777 H1767 0.970 . S
C1777 C1773 1.532 . S
C1777 C1778 1.499 . S
C1778 C1777 1.499 . S
C1778 C1779 1.370 . S
C1778 C1783 1.415 . S
C1779 H1768 0.930 . S
C1779 C1778 1.370 . S
C1779 C1780 1.407 . S
C1780 C1779 1.407 . S
C1780 C1781 1.365 . S
C1781 H1769 0.930 . S
C1781 C1780 1.365 . S
C1781 C1782 1.393 . S
C1782 C1781 1.393 . S
C1782 C1783 1.387 . S
C1783 H1770 0.930 . S
C1783 C1778 1.415 . S
C1783 C1782 1.387 . S
C1784 C1785 1.391 . S
C1784 C1786 1.394 . S
C1784 H1800 0.931 . S
C1785 C1784 1.391 . S
C1785 C1789 1.376 . S
C1786 C1784 1.394 . S
C1786 C1787 1.369 . S
C1786 C1790 1.531 . S
C1787 C1786 1.369 . S
C1787 C1788 1.410 . S
C1787 C1795 1.503 . S
C1788 C1787 1.410 . S
C1788 C1789 1.392 . S
C1788 C1791 1.511 . S
C1789 C1785 1.376 . S
C1789 C1788 1.392 . S
C1789 H1801 0.929 . S
C1790 C1786 1.531 . S
C1790 H1802 0.960 . S
C1790 H1803 0.962 . S
C1790 H1804 0.960 . S
C1791 C1788 1.511 . S
C1791 H1805 0.961 . S
C1791 H1806 0.961 . S
C1791 H1807 0.961 . S
C1792 C1793 1.370 . S
C1792 C1794 1.363 . S
C1792 H1808 0.931 . S
C1793 C1792 1.370 . S
C1793 C1797 1.408 . S
C1794 C1792 1.363 . S
C1794 C1795 1.370 . S
C1794 C1798 1.524 . S
C1795 C1787 1.503 . S
C1795 C1794 1.370 . S
C1795 C1796 1.403 . S
C1796 C1795 1.403 . S
C1796 C1797 1.404 . S
C1796 C1799 1.539 . S
C1797 C1793 1.408 . S
C1797 C1796 1.404 . S
C1797 H1809 0.930 . S
C1798 C1794 1.524 . S
C1798 H1810 0.956 . S
C1798 H1811 0.961 . S
C1798 H1812 0.961 . S
C1799 C1796 1.539 . S
C1799 H1813 0.958 . S
C1799 H1814 0.961 . S
C1799 H1815 0.960 . S
H1800 C1784 0.931 . S
H1801 C1789 0.929 . S
H1802 C1790 0.960 . S
H1803 C1790 0.962 . S
H1804 C1790 0.960 . S
H1805 C1791 0.961 . S
H1806 C1791 0.961 . S
H1807 C1791 0.961 . S
H1808 C1792 0.931 . S
H1809 C1797 0.930 . S
H1810 C1798 0.956 . S
H1811 C1798 0.961 . S
H1812 C1798 0.961 . S
H1813 C1799 0.958 . S
H1814 C1799 0.961 . S
H1815 C1799 0.960 . S
C1816 C1817 1.391 . S
C1816 C1818 1.394 . S
C1816 H1832 0.931 . S
C1817 C1816 1.391 . S
C1817 C1821 1.376 . S
C1818 C1816 1.394 . S
C1818 C1819 1.369 . S
C1818 C1822 1.531 . S
C1819 C1818 1.369 . S
C1819 C1820 1.410 . S
C1819 C1827 1.503 . S
C1820 C1819 1.410 . S
C1820 C1821 1.392 . S
C1820 C1823 1.511 . S
C1821 C1817 1.376 . S
C1821 C1820 1.392 . S
C1821 H1833 0.929 . S
C1822 C1818 1.531 . S
C1822 H1834 0.960 . S
C1822 H1835 0.962 . S
C1822 H1836 0.960 . S
C1823 C1820 1.511 . S
C1823 H1837 0.961 . S
C1823 H1838 0.961 . S
C1823 H1839 0.961 . S
C1824 C1825 1.370 . S
C1824 C1826 1.363 . S
C1824 H1840 0.931 . S
C1825 C1824 1.370 . S
C1825 C1829 1.408 . S
C1826 C1824 1.363 . S
C1826 C1827 1.370 . S
C1826 C1830 1.524 . S
C1827 C1819 1.503 . S
C1827 C1826 1.370 . S
C1827 C1828 1.403 . S
C1828 C1827 1.403 . S
C1828 C1829 1.404 . S
C1828 C1831 1.539 . S
C1829 C1825 1.408 . S
C1829 C1828 1.404 . S
C1829 H1841 0.930 . S
C1830 C1826 1.524 . S
C1830 H1842 0.956 . S
C1830 H1843 0.961 . S
C1830 H1844 0.961 . S
C1831 C1828 1.539 . S
C1831 H1845 0.958 . S
C1831 H1846 0.961 . S
C1831 H1847 0.960 . S
H1832 C1816 0.931 . S
H1833 C1821 0.929 . S
H1834 C1822 0.960 . S
H1835 C1822 0.962 . S
H1836 C1822 0.960 . S
H1837 C1823 0.961 . S
H1838 C1823 0.961 . S
H1839 C1823 0.961 . S
H1840 C1824 0.931 . S
H1841 C1829 0.930 . S
H1842 C1830 0.956 . S
H1843 C1830 0.961 . S
H1844 C1830 0.961 . S
H1845 C1831 0.958 . S
H1846 C1831 0.961 . S
H1847 C1831 0.960 . S
C1848 C1849 1.391 . S
C1848 C1850 1.394 . S
C1848 H1864 0.931 . S
C1849 C1848 1.391 . S
C1849 C1853 1.376 . S
C1850 C1848 1.394 . S
C1850 C1851 1.369 . S
C1850 C1854 1.531 . S
C1851 C1850 1.369 . S
C1851 C1852 1.410 . S
C1851 C1859 1.503 . S
C1852 C1851 1.410 . S
C1852 C1853 1.392 . S
C1852 C1855 1.511 . S
C1853 C1849 1.376 . S
C1853 C1852 1.392 . S
C1853 H1865 0.929 . S
C1854 C1850 1.531 . S
C1854 H1866 0.960 . S
C1854 H1867 0.962 . S
C1854 H1868 0.960 . S
C1855 C1852 1.511 . S
C1855 H1869 0.961 . S
C1855 H1870 0.961 . S
C1855 H1871 0.961 . S
C1856 C1857 1.370 . S
C1856 C1858 1.363 . S
C1856 H1872 0.931 . S
C1857 C1856 1.370 . S
C1857 C1861 1.408 . S
C1858 C1856 1.363 . S
C1858 C1859 1.370 . S
C1858 C1862 1.524 . S
C1859 C1851 1.503 . S
C1859 C1858 1.370 . S
C1859 C1860 1.403 . S
C1860 C1859 1.403 . S
C1860 C1861 1.404 . S
C1860 C1863 1.539 . S
C1861 C1857 1.408 . S
C1861 C1860 1.404 . S
C1861 H1873 0.930 . S
C1862 C1858 1.524 . S
C1862 H1874 0.956 . S
C1862 H1875 0.961 . S
C1862 H1876 0.961 . S
C1863 C1860 1.539 . S
C1863 H1877 0.958 . S
C1863 H1878 0.961 . S
C1863 H1879 0.960 . S
H1864 C1848 0.931 . S
H1865 C1853 0.929 . S
H1866 C1854 0.960 . S
H1867 C1854 0.962 . S
H1868 C1854 0.960 . S
H1869 C1855 0.961 . S
H1870 C1855 0.961 . S
H1871 C1855 0.961 . S
H1872 C1856 0.931 . S
H1873 C1861 0.930 . S
H1874 C1862 0.956 . S
H1875 C1862 0.961 . S
H1876 C1862 0.961 . S
H1877 C1863 0.958 . S
H1878 C1863 0.961 . S
H1879 C1863 0.960 . S
C1880 C1881 1.391 . S
C1880 C1882 1.394 . S
C1880 H1896 0.931 . S
C1881 C1880 1.391 . S
C1881 C1885 1.376 . S
C1882 C1880 1.394 . S
C1882 C1883 1.369 . S
C1882 C1886 1.531 . S
C1883 C1882 1.369 . S
C1883 C1884 1.410 . S
C1883 C1891 1.503 . S
C1884 C1883 1.410 . S
C1884 C1885 1.392 . S
C1884 C1887 1.511 . S
C1885 C1881 1.376 . S
C1885 C1884 1.392 . S
C1885 H1897 0.929 . S
C1886 C1882 1.531 . S
C1886 H1898 0.960 . S
C1886 H1899 0.962 . S
C1886 H1900 0.960 . S
C1887 C1884 1.511 . S
C1887 H1901 0.961 . S
C1887 H1902 0.961 . S
C1887 H1903 0.961 . S
C1888 C1889 1.370 . S
C1888 C1890 1.363 . S
C1888 H1904 0.931 . S
C1889 C1888 1.370 . S
C1889 C1893 1.408 . S
C1890 C1888 1.363 . S
C1890 C1891 1.370 . S
C1890 C1894 1.524 . S
C1891 C1883 1.503 . S
C1891 C1890 1.370 . S
C1891 C1892 1.403 . S
C1892 C1891 1.403 . S
C1892 C1893 1.404 . S
C1892 C1895 1.539 . S
C1893 C1889 1.408 . S
C1893 C1892 1.404 . S
C1893 H1905 0.930 . S
C1894 C1890 1.524 . S
C1894 H1906 0.956 . S
C1894 H1907 0.961 . S
C1894 H1908 0.961 . S
C1895 C1892 1.539 . S
C1895 H1909 0.958 . S
C1895 H1910 0.961 . S
C1895 H1911 0.960 . S
H1896 C1880 0.931 . S
H1897 C1885 0.929 . S
H1898 C1886 0.960 . S
H1899 C1886 0.962 . S
H1900 C1886 0.960 . S
H1901 C1887 0.961 . S
H1902 C1887 0.961 . S
H1903 C1887 0.961 . S
H1904 C1888 0.931 . S
H1905 C1893 0.930 . S
H1906 C1894 0.956 . S
H1907 C1894 0.961 . S
H1908 C1894 0.961 . S
H1909 C1895 0.958 . S
H1910 C1895 0.961 . S
H1911 C1895 0.960 . S
C1912 C1913 1.391 . S
C1912 C1914 1.394 . S
C1912 H1928 0.931 . S
C1913 C1912 1.391 . S
C1913 C1917 1.376 . S
C1914 C1912 1.394 . S
C1914 C1915 1.369 . S
C1914 C1918 1.531 . S
C1915 C1914 1.369 . S
C1915 C1916 1.410 . S
C1915 C1923 1.503 . S
C1916 C1915 1.410 . S
C1916 C1917 1.392 . S
C1916 C1919 1.511 . S
C1917 C1913 1.376 . S
C1917 C1916 1.392 . S
C1917 H1929 0.929 . S
C1918 C1914 1.531 . S
C1918 H1930 0.960 . S
C1918 H1931 0.962 . S
C1918 H1932 0.960 . S
C1919 C1916 1.511 . S
C1919 H1933 0.961 . S
C1919 H1934 0.961 . S
C1919 H1935 0.961 . S
C1920 C1921 1.370 . S
C1920 C1922 1.363 . S
C1920 H1936 0.931 . S
C1921 C1920 1.370 . S
C1921 C1925 1.408 . S
C1922 C1920 1.363 . S
C1922 C1923 1.370 . S
C1922 C1926 1.524 . S
C1923 C1915 1.503 . S
C1923 C1922 1.370 . S
C1923 C1924 1.403 . S
C1924 C1923 1.403 . S
C1924 C1925 1.404 . S
C1924 C1927 1.539 . S
C1925 C1921 1.408 . S
C1925 C1924 1.404 . S
C1925 H1937 0.930 . S
C1926 C1922 1.524 . S
C1926 H1938 0.956 . S
C1926 H1939 0.961 . S
C1926 H1940 0.961 . S
C1927 C1924 1.539 . S
C1927 H1941 0.958 . S
C1927 H1942 0.961 . S
C1927 H1943 0.960 . S
H1928 C1912 0.931 . S
H1929 C1917 0.929 . S
H1930 C1918 0.960 . S
H1931 C1918 0.962 . S
H1932 C1918 0.960 . S
H1933 C1919 0.961 . S
H1934 C1919 0.961 . S
H1935 C1919 0.961 . S
H1936 C1920 0.931 . S
H1937 C1925 0.930 . S
H1938 C1926 0.956 . S
H1939 C1926 0.961 . S
H1940 C1926 0.961 . S
H1941 C1927 0.958 . S
H1942 C1927 0.961 . S
H1943 C1927 0.960 . S
C1944 C1945 1.391 . S
C1944 C1946 1.394 . S
C1944 H1960 0.931 . S
C1945 C1944 1.391 . S
C1945 C1949 1.376 . S
C1946 C1944 1.394 . S
C1946 C1947 1.369 . S
C1946 C1950 1.531 . S
C1947 C1946 1.369 . S
C1947 C1948 1.410 . S
C1947 C1955 1.503 . S
C1948 C1947 1.410 . S
C1948 C1949 1.392 . S
C1948 C1951 1.511 . S
C1949 C1945 1.376 . S
C1949 C1948 1.392 . S
C1949 H1961 0.929 . S
C1950 C1946 1.531 . S
C1950 H1962 0.960 . S
C1950 H1963 0.962 . S
C1950 H1964 0.960 . S
C1951 C1948 1.511 . S
C1951 H1965 0.961 . S
C1951 H1966 0.961 . S
C1951 H1967 0.961 . S
C1952 C1953 1.370 . S
C1952 C1954 1.363 . S
C1952 H1968 0.931 . S
C1953 C1952 1.370 . S
C1953 C1957 1.408 . S
C1954 C1952 1.363 . S
C1954 C1955 1.370 . S
C1954 C1958 1.524 . S
C1955 C1947 1.503 . S
C1955 C1954 1.370 . S
C1955 C1956 1.403 . S
C1956 C1955 1.403 . S
C1956 C1957 1.404 . S
C1956 C1959 1.539 . S
C1957 C1953 1.408 . S
C1957 C1956 1.404 . S
C1957 H1969 0.930 . S
C1958 C1954 1.524 . S
C1958 H1970 0.956 . S
C1958 H1971 0.961 . S
C1958 H1972 0.961 . S
C1959 C1956 1.539 . S
C1959 H1973 0.958 . S
C1959 H1974 0.961 . S
C1959 H1975 0.960 . S
H1960 C1944 0.931 . S
H1961 C1949 0.929 . S
H1962 C1950 0.960 . S
H1963 C1950 0.962 . S
H1964 C1950 0.960 . S
H1965 C1951 0.961 . S
H1966 C1951 0.961 . S
H1967 C1951 0.961 . S
H1968 C1952 0.931 . S
H1969 C1957 0.930 . S
H1970 C1958 0.956 . S
H1971 C1958 0.961 . S
H1972 C1958 0.961 . S
H1973 C1959 0.958 . S
H1974 C1959 0.961 . S
H1975 C1959 0.960 . S
C1976 C1977 1.391 . S
C1976 C1978 1.394 . S
C1976 H1992 0.931 . S
C1977 C1976 1.391 . S
C1977 C1981 1.376 . S
C1978 C1976 1.394 . S
C1978 C1979 1.369 . S
C1978 C1982 1.531 . S
C1979 C1978 1.369 . S
C1979 C1980 1.410 . S
C1979 C1987 1.503 . S
C1980 C1979 1.410 . S
C1980 C1981 1.392 . S
C1980 C1983 1.511 . S
C1981 C1977 1.376 . S
C1981 C1980 1.392 . S
C1981 H1993 0.929 . S
C1982 C1978 1.531 . S
C1982 H1994 0.960 . S
C1982 H1995 0.962 . S
C1982 H1996 0.960 . S
C1983 C1980 1.511 . S
C1983 H1997 0.961 . S
C1983 H1998 0.961 . S
C1983 H1999 0.961 . S
C1984 C1985 1.370 . S
C1984 C1986 1.363 . S
C1984 H2000 0.931 . S
C1985 C1984 1.370 . S
C1985 C1989 1.408 . S
C1986 C1984 1.363 . S
C1986 C1987 1.370 . S
C1986 C1990 1.524 . S
C1987 C1979 1.503 . S
C1987 C1986 1.370 . S
C1987 C1988 1.403 . S
C1988 C1987 1.403 . S
C1988 C1989 1.404 . S
C1988 C1991 1.539 . S
C1989 C1985 1.408 . S
C1989 C1988 1.404 . S
C1989 H2001 0.930 . S
C1990 C1986 1.524 . S
C1990 H2002 0.956 . S
C1990 H2003 0.961 . S
C1990 H2004 0.961 . S
C1991 C1988 1.539 . S
C1991 H2005 0.958 . S
C1991 H2006 0.961 . S
C1991 H2007 0.960 . S
H1992 C1976 0.931 . S
H1993 C1981 0.929 . S
H1994 C1982 0.960 . S
H1995 C1982 0.962 . S
H1996 C1982 0.960 . S
H1997 C1983 0.961 . S
H1998 C1983 0.961 . S
H1999 C1983 0.961 . S
H2000 C1984 0.931 . S
H2001 C1989 0.930 . S
H2002 C1990 0.956 . S
H2003 C1990 0.961 . S
H2004 C1990 0.961 . S
H2005 C1991 0.958 . S
H2006 C1991 0.961 . S
H2007 C1991 0.960 . S
C2008 C2009 1.391 . S
C2008 C2010 1.394 . S
C2008 H2024 0.931 . S
C2009 C2008 1.391 . S
C2009 C2013 1.376 . S
C2010 C2008 1.394 . S
C2010 C2011 1.369 . S
C2010 C2014 1.531 . S
C2011 C2010 1.369 . S
C2011 C2012 1.410 . S
C2011 C2019 1.503 . S
C2012 C2011 1.410 . S
C2012 C2013 1.392 . S
C2012 C2015 1.511 . S
C2013 C2009 1.376 . S
C2013 C2012 1.392 . S
C2013 H2025 0.929 . S
C2014 C2010 1.531 . S
C2014 H2026 0.960 . S
C2014 H2027 0.962 . S
C2014 H2028 0.960 . S
C2015 C2012 1.511 . S
C2015 H2029 0.961 . S
C2015 H2030 0.961 . S
C2015 H2031 0.961 . S
C2016 C2017 1.370 . S
C2016 C2018 1.363 . S
C2016 H2032 0.931 . S
C2017 C2016 1.370 . S
C2017 C2021 1.408 . S
C2018 C2016 1.363 . S
C2018 C2019 1.370 . S
C2018 C2022 1.524 . S
C2019 C2011 1.503 . S
C2019 C2018 1.370 . S
C2019 C2020 1.403 . S
C2020 C2019 1.403 . S
C2020 C2021 1.404 . S
C2020 C2023 1.539 . S
C2021 C2017 1.408 . S
C2021 C2020 1.404 . S
C2021 H2033 0.930 . S
C2022 C2018 1.524 . S
C2022 H2034 0.956 . S
C2022 H2035 0.961 . S
C2022 H2036 0.961 . S
C2023 C2020 1.539 . S
C2023 H2037 0.958 . S
C2023 H2038 0.961 . S
C2023 H2039 0.960 . S
H2024 C2008 0.931 . S
H2025 C2013 0.929 . S
H2026 C2014 0.960 . S
H2027 C2014 0.962 . S
H2028 C2014 0.960 . S
H2029 C2015 0.961 . S
H2030 C2015 0.961 . S
H2031 C2015 0.961 . S
H2032 C2016 0.931 . S
H2033 C2021 0.930 . S
H2034 C2022 0.956 . S
H2035 C2022 0.961 . S
H2036 C2022 0.961 . S
H2037 C2023 0.958 . S
H2038 C2023 0.961 . S
H2039 C2023 0.960 . S
C2040 C2041 1.391 . S
C2040 C2042 1.394 . S
C2040 H2056 0.931 . S
C2041 C2040 1.391 . S
C2041 C2045 1.376 . S
C2042 C2040 1.394 . S
C2042 C2043 1.369 . S
C2042 C2046 1.531 . S
C2043 C2042 1.369 . S
C2043 C2044 1.410 . S
C2043 C2051 1.503 . S
C2044 C2043 1.410 . S
C2044 C2045 1.392 . S
C2044 C2047 1.511 . S
C2045 C2041 1.376 . S
C2045 C2044 1.392 . S
C2045 H2057 0.929 . S
C2046 C2042 1.531 . S
C2046 H2058 0.960 . S
C2046 H2059 0.962 . S
C2046 H2060 0.960 . S
C2047 C2044 1.511 . S
C2047 H2061 0.961 . S
C2047 H2062 0.961 . S
C2047 H2063 0.961 . S
C2048 C2049 1.370 . S
C2048 C2050 1.363 . S
C2048 H2064 0.931 . S
C2049 C2048 1.370 . S
C2049 C2053 1.408 . S
C2050 C2048 1.363 . S
C2050 C2051 1.370 . S
C2050 C2054 1.524 . S
C2051 C2043 1.503 . S
C2051 C2050 1.370 . S
C2051 C2052 1.403 . S
C2052 C2051 1.403 . S
C2052 C2053 1.404 . S
C2052 C2055 1.539 . S
C2053 C2049 1.408 . S
C2053 C2052 1.404 . S
C2053 H2065 0.930 . S
C2054 C2050 1.524 . S
C2054 H2066 0.956 . S
C2054 H2067 0.961 . S
C2054 H2068 0.961 . S
C2055 C2052 1.539 . S
C2055 H2069 0.958 . S
C2055 H2070 0.961 . S
C2055 H2071 0.960 . S
H2056 C2040 0.931 . S
H2057 C2045 0.929 . S
H2058 C2046 0.960 . S
H2059 C2046 0.962 . S
H2060 C2046 0.960 . S
H2061 C2047 0.961 . S
H2062 C2047 0.961 . S
H2063 C2047 0.961 . S
H2064 C2048 0.931 . S
H2065 C2053 0.930 . S
H2066 C2054 0.956 . S
H2067 C2054 0.961 . S
H2068 C2054 0.961 . S
H2069 C2055 0.958 . S
H2070 C2055 0.961 . S
H2071 C2055 0.960 . S
C2072 C2073 1.391 . S
C2072 C2074 1.394 . S
C2072 H2088 0.931 . S
C2073 C2072 1.391 . S
C2073 C2077 1.376 . S
C2074 C2072 1.394 . S
C2074 C2075 1.369 . S
C2074 C2078 1.531 . S
C2075 C2074 1.369 . S
C2075 C2076 1.410 . S
C2075 C2083 1.503 . S
C2076 C2075 1.410 . S
C2076 C2077 1.392 . S
C2076 C2079 1.511 . S
C2077 C2073 1.376 . S
C2077 C2076 1.392 . S
C2077 H2089 0.929 . S
C2078 C2074 1.531 . S
C2078 H2090 0.960 . S
C2078 H2091 0.962 . S
C2078 H2092 0.960 . S
C2079 C2076 1.511 . S
C2079 H2093 0.961 . S
C2079 H2094 0.961 . S
C2079 H2095 0.961 . S
C2080 C2081 1.370 . S
C2080 C2082 1.363 . S
C2080 H2096 0.931 . S
C2081 C2080 1.370 . S
C2081 C2085 1.408 . S
C2082 C2080 1.363 . S
C2082 C2083 1.370 . S
C2082 C2086 1.524 . S
C2083 C2075 1.503 . S
C2083 C2082 1.370 . S
C2083 C2084 1.403 . S
C2084 C2083 1.403 . S
C2084 C2085 1.404 . S
C2084 C2087 1.539 . S
C2085 C2081 1.408 . S
C2085 C2084 1.404 . S
C2085 H2097 0.930 . S
C2086 C2082 1.524 . S
C2086 H2098 0.956 . S
C2086 H2099 0.961 . S
C2086 H2100 0.961 . S
C2087 C2084 1.539 . S
C2087 H2101 0.958 . S
C2087 H2102 0.961 . S
C2087 H2103 0.960 . S
H2088 C2072 0.931 . S
H2089 C2077 0.929 . S
H2090 C2078 0.960 . S
H2091 C2078 0.962 . S
H2092 C2078 0.960 . S
H2093 C2079 0.961 . S
H2094 C2079 0.961 . S
H2095 C2079 0.961 . S
H2096 C2080 0.931 . S
H2097 C2085 0.930 . S
H2098 C2086 0.956 . S
H2099 C2086 0.961 . S
H2100 C2086 0.961 . S
H2101 C2087 0.958 . S
H2102 C2087 0.961 . S
H2103 C2087 0.960 . S
C2104 C2105 1.391 . S
C2104 C2106 1.394 . S
C2104 H2120 0.931 . S
C2105 C2104 1.391 . S
C2105 C2109 1.376 . S
C2106 C2104 1.394 . S
C2106 C2107 1.369 . S
C2106 C2110 1.531 . S
C2107 C2106 1.369 . S
C2107 C2108 1.410 . S
C2107 C2115 1.503 . S
C2108 C2107 1.410 . S
C2108 C2109 1.392 . S
C2108 C2111 1.511 . S
C2109 C2105 1.376 . S
C2109 C2108 1.392 . S
C2109 H2121 0.929 . S
C2110 C2106 1.531 . S
C2110 H2122 0.960 . S
C2110 H2123 0.962 . S
C2110 H2124 0.960 . S
C2111 C2108 1.511 . S
C2111 H2125 0.961 . S
C2111 H2126 0.961 . S
C2111 H2127 0.961 . S
C2112 C2113 1.370 . S
C2112 C2114 1.363 . S
C2112 H2128 0.931 . S
C2113 C2112 1.370 . S
C2113 C2117 1.408 . S
C2114 C2112 1.363 . S
C2114 C2115 1.370 . S
C2114 C2118 1.524 . S
C2115 C2107 1.503 . S
C2115 C2114 1.370 . S
C2115 C2116 1.403 . S
C2116 C2115 1.403 . S
C2116 C2117 1.404 . S
C2116 C2119 1.539 . S
C2117 C2113 1.408 . S
C2117 C2116 1.404 . S
C2117 H2129 0.930 . S
C2118 C2114 1.524 . S
C2118 H2130 0.956 . S
C2118 H2131 0.961 . S
C2118 H2132 0.961 . S
C2119 C2116 1.539 . S
C2119 H2133 0.958 . S
C2119 H2134 0.961 . S
C2119 H2135 0.960 . S
H2120 C2104 0.931 . S
H2121 C2109 0.929 . S
H2122 C2110 0.960 . S
H2123 C2110 0.962 . S
H2124 C2110 0.960 . S
H2125 C2111 0.961 . S
H2126 C2111 0.961 . S
H2127 C2111 0.961 . S
H2128 C2112 0.931 . S
H2129 C2117 0.930 . S
H2130 C2118 0.956 . S
H2131 C2118 0.961 . S
H2132 C2118 0.961 . S
H2133 C2119 0.958 . S
H2134 C2119 0.961 . S
H2135 C2119 0.960 . S
C2136 C2137 1.391 . S
C2136 C2138 1.394 . S
C2136 H2152 0.931 . S
C2137 C2136 1.391 . S
C2137 C2141 1.376 . S
C2138 C2136 1.394 . S
C2138 C2139 1.369 . S
C2138 C2142 1.531 . S
C2139 C2138 1.369 . S
C2139 C2140 1.410 . S
C2139 C2147 1.503 . S
C2140 C2139 1.410 . S
C2140 C2141 1.392 . S
C2140 C2143 1.511 . S
C2141 C2137 1.376 . S
C2141 C2140 1.392 . S
C2141 H2153 0.929 . S
C2142 C2138 1.531 . S
C2142 H2154 0.960 . S
C2142 H2155 0.962 . S
C2142 H2156 0.960 . S
C2143 C2140 1.511 . S
C2143 H2157 0.961 . S
C2143 H2158 0.961 . S
C2143 H2159 0.961 . S
C2144 C2145 1.370 . S
C2144 C2146 1.363 . S
C2144 H2160 0.931 . S
C2145 C2144 1.370 . S
C2145 C2149 1.408 . S
C2146 C2144 1.363 . S
C2146 C2147 1.370 . S
C2146 C2150 1.524 . S
C2147 C2139 1.503 . S
C2147 C2146 1.370 . S
C2147 C2148 1.403 . S
C2148 C2147 1.403 . S
C2148 C2149 1.404 . S
C2148 C2151 1.539 . S
C2149 C2145 1.408 . S
C2149 C2148 1.404 . S
C2149 H2161 0.930 . S
C2150 C2146 1.524 . S
C2150 H2162 0.956 . S
C2150 H2163 0.961 . S
C2150 H2164 0.961 . S
C2151 C2148 1.539 . S
C2151 H2165 0.958 . S
C2151 H2166 0.961 . S
C2151 H2167 0.960 . S
H2152 C2136 0.931 . S
H2153 C2141 0.929 . S
H2154 C2142 0.960 . S
H2155 C2142 0.962 . S
H2156 C2142 0.960 . S
H2157 C2143 0.961 . S
H2158 C2143 0.961 . S
H2159 C2143 0.961 . S
H2160 C2144 0.931 . S
H2161 C2149 0.930 . S
H2162 C2150 0.956 . S
H2163 C2150 0.961 . S
H2164 C2150 0.961 . S
H2165 C2151 0.958 . S
H2166 C2151 0.961 . S
H2167 C2151 0.960 . S
C2168 C2169 1.391 . S
C2168 C2170 1.394 . S
C2168 H2184 0.931 . S
C2169 C2168 1.391 . S
C2169 C2173 1.376 . S
C2170 C2168 1.394 . S
C2170 C2171 1.369 . S
C2170 C2174 1.531 . S
C2171 C2170 1.369 . S
C2171 C2172 1.410 . S
C2171 C2179 1.503 . S
C2172 C2171 1.410 . S
C2172 C2173 1.392 . S
C2172 C2175 1.511 . S
C2173 C2169 1.376 . S
C2173 C2172 1.392 . S
C2173 H2185 0.929 . S
C2174 C2170 1.531 . S
C2174 H2186 0.960 . S
C2174 H2187 0.962 . S
C2174 H2188 0.960 . S
C2175 C2172 1.511 . S
C2175 H2189 0.961 . S
C2175 H2190 0.961 . S
C2175 H2191 0.961 . S
C2176 C2177 1.370 . S
C2176 C2178 1.363 . S
C2176 H2192 0.931 . S
C2177 C2176 1.370 . S
C2177 C2181 1.408 . S
C2178 C2176 1.363 . S
C2178 C2179 1.370 . S
C2178 C2182 1.524 . S
C2179 C2171 1.503 . S
C2179 C2178 1.370 . S
C2179 C2180 1.403 . S
C2180 C2179 1.403 . S
C2180 C2181 1.404 . S
C2180 C2183 1.539 . S
C2181 C2177 1.408 . S
C2181 C2180 1.404 . S
C2181 H2193 0.930 . S
C2182 C2178 1.524 . S
C2182 H2194 0.956 . S
C2182 H2195 0.961 . S
C2182 H2196 0.961 . S
C2183 C2180 1.539 . S
C2183 H2197 0.958 . S
C2183 H2198 0.961 . S
C2183 H2199 0.960 . S
H2184 C2168 0.931 . S
H2185 C2173 0.929 . S
H2186 C2174 0.960 . S
H2187 C2174 0.962 . S
H2188 C2174 0.960 . S
H2189 C2175 0.961 . S
H2190 C2175 0.961 . S
H2191 C2175 0.961 . S
H2192 C2176 0.931 . S
H2193 C2181 0.930 . S
H2194 C2182 0.956 . S
H2195 C2182 0.961 . S
H2196 C2182 0.961 . S
H2197 C2183 0.958 . S
H2198 C2183 0.961 . S
H2199 C2183 0.960 . S
C2200 C2201 1.391 . S
C2200 C2202 1.394 . S
C2200 H2216 0.931 . S
C2201 C2200 1.391 . S
C2201 C2205 1.376 . S
C2202 C2200 1.394 . S
C2202 C2203 1.369 . S
C2202 C2206 1.531 . S
C2203 C2202 1.369 . S
C2203 C2204 1.410 . S
C2203 C2211 1.503 . S
C2204 C2203 1.410 . S
C2204 C2205 1.392 . S
C2204 C2207 1.511 . S
C2205 C2201 1.376 . S
C2205 C2204 1.392 . S
C2205 H2217 0.929 . S
C2206 C2202 1.531 . S
C2206 H2218 0.960 . S
C2206 H2219 0.962 . S
C2206 H2220 0.960 . S
C2207 C2204 1.511 . S
C2207 H2221 0.961 . S
C2207 H2222 0.961 . S
C2207 H2223 0.961 . S
C2208 C2209 1.370 . S
C2208 C2210 1.363 . S
C2208 H2224 0.931 . S
C2209 C2208 1.370 . S
C2209 C2213 1.408 . S
C2210 C2208 1.363 . S
C2210 C2211 1.370 . S
C2210 C2214 1.524 . S
C2211 C2203 1.503 . S
C2211 C2210 1.370 . S
C2211 C2212 1.403 . S
C2212 C2211 1.403 . S
C2212 C2213 1.404 . S
C2212 C2215 1.539 . S
C2213 C2209 1.408 . S
C2213 C2212 1.404 . S
C2213 H2225 0.930 . S
C2214 C2210 1.524 . S
C2214 H2226 0.956 . S
C2214 H2227 0.961 . S
C2214 H2228 0.961 . S
C2215 C2212 1.539 . S
C2215 H2229 0.958 . S
C2215 H2230 0.961 . S
C2215 H2231 0.960 . S
H2216 C2200 0.931 . S
H2217 C2205 0.929 . S
H2218 C2206 0.960 . S
H2219 C2206 0.962 . S
H2220 C2206 0.960 . S
H2221 C2207 0.961 . S
H2222 C2207 0.961 . S
H2223 C2207 0.961 . S
H2224 C2208 0.931 . S
H2225 C2213 0.930 . S
H2226 C2214 0.956 . S
H2227 C2214 0.961 . S
H2228 C2214 0.961 . S
H2229 C2215 0.958 . S
H2230 C2215 0.961 . S
H2231 C2215 0.960 . S
C2232 C2233 1.391 . S
C2232 C2234 1.394 . S
C2232 H2248 0.931 . S
C2233 C2232 1.391 . S
C2233 C2237 1.376 . S
C2234 C2232 1.394 . S
C2234 C2235 1.369 . S
C2234 C2238 1.531 . S
C2235 C2234 1.369 . S
C2235 C2236 1.410 . S
C2235 C2243 1.503 . S
C2236 C2235 1.410 . S
C2236 C2237 1.392 . S
C2236 C2239 1.511 . S
C2237 C2233 1.376 . S
C2237 C2236 1.392 . S
C2237 H2249 0.929 . S
C2238 C2234 1.531 . S
C2238 H2250 0.960 . S
C2238 H2251 0.962 . S
C2238 H2252 0.960 . S
C2239 C2236 1.511 . S
C2239 H2253 0.961 . S
C2239 H2254 0.961 . S
C2239 H2255 0.961 . S
C2240 C2241 1.370 . S
C2240 C2242 1.363 . S
C2240 H2256 0.931 . S
C2241 C2240 1.370 . S
C2241 C2245 1.408 . S
C2242 C2240 1.363 . S
C2242 C2243 1.370 . S
C2242 C2246 1.524 . S
C2243 C2235 1.503 . S
C2243 C2242 1.370 . S
C2243 C2244 1.403 . S
C2244 C2243 1.403 . S
C2244 C2245 1.404 . S
C2244 C2247 1.539 . S
C2245 C2241 1.408 . S
C2245 C2244 1.404 . S
C2245 H2257 0.930 . S
C2246 C2242 1.524 . S
C2246 H2258 0.956 . S
C2246 H2259 0.961 . S
C2246 H2260 0.961 . S
C2247 C2244 1.539 . S
C2247 H2261 0.958 . S
C2247 H2262 0.961 . S
C2247 H2263 0.960 . S
H2248 C2232 0.931 . S
H2249 C2237 0.929 . S
H2250 C2238 0.960 . S
H2251 C2238 0.962 . S
H2252 C2238 0.960 . S
H2253 C2239 0.961 . S
H2254 C2239 0.961 . S
H2255 C2239 0.961 . S
H2256 C2240 0.931 . S
H2257 C2245 0.930 . S
H2258 C2246 0.956 . S
H2259 C2246 0.961 . S
H2260 C2246 0.961 . S
H2261 C2247 0.958 . S
H2262 C2247 0.961 . S
H2263 C2247 0.960 . S
C2264 C2265 1.391 . S
C2264 C2266 1.394 . S
C2264 H2280 0.931 . S
C2265 C2264 1.391 . S
C2265 C2269 1.376 . S
C2266 C2264 1.394 . S
C2266 C2267 1.369 . S
C2266 C2270 1.531 . S
C2267 C2266 1.369 . S
C2267 C2268 1.410 . S
C2267 C2275 1.503 . S
C2268 C2267 1.410 . S
C2268 C2269 1.392 . S
C2268 C2271 1.511 . S
C2269 C2265 1.376 . S
C2269 C2268 1.392 . S
C2269 H2281 0.929 . S
C2270 C2266 1.531 . S
C2270 H2282 0.960 . S
C2270 H2283 0.962 . S
C2270 H2284 0.960 . S
C2271 C2268 1.511 . S
C2271 H2285 0.961 . S
C2271 H2286 0.961 . S
C2271 H2287 0.961 . S
C2272 C2273 1.370 . S
C2272 C2274 1.363 . S
C2272 H2288 0.931 . S
C2273 C2272 1.370 . S
C2273 C2277 1.408 . S
C2274 C2272 1.363 . S
C2274 C2275 1.370 . S
C2274 C2278 1.524 . S
C2275 C2267 1.503 . S
C2275 C2274 1.370 . S
C2275 C2276 1.403 . S
C2276 C2275 1.403 . S
C2276 C2277 1.404 . S
C2276 C2279 1.539 . S
C2277 C2273 1.408 . S
C2277 C2276 1.404 . S
C2277 H2289 0.930 . S
C2278 C2274 1.524 . S
C2278 H2290 0.956 . S
C2278 H2291 0.961 . S
C2278 H2292 0.961 . S
C2279 C2276 1.539 . S
C2279 H2293 0.958 . S
C2279 H2294 0.961 . S
C2279 H2295 0.960 . S
H2280 C2264 0.931 . S
H2281 C2269 0.929 . S
H2282 C2270 0.960 . S
H2283 C2270 0.962 . S
H2284 C2270 0.960 . S
H2285 C2271 0.961 . S
H2286 C2271 0.961 . S
H2287 C2271 0.961 . S
H2288 C2272 0.931 . S
H2289 C2277 0.930 . S
H2290 C2278 0.956 . S
H2291 C2278 0.961 . S
H2292 C2278 0.961 . S
H2293 C2279 0.958 . S
H2294 C2279 0.961 . S
H2295 C2279 0.960 . S
C2296 C2297 1.391 . S
C2296 C2298 1.394 . S
C2296 H2312 0.931 . S
C2297 C2296 1.391 . S
C2297 C2301 1.376 . S
C2298 C2296 1.394 . S
C2298 C2299 1.369 . S
C2298 C2302 1.531 . S
C2299 C2298 1.369 . S
C2299 C2300 1.410 . S
C2299 C2307 1.503 . S
C2300 C2299 1.410 . S
C2300 C2301 1.392 . S
C2300 C2303 1.511 . S
C2301 C2297 1.376 . S
C2301 C2300 1.392 . S
C2301 H2313 0.929 . S
C2302 C2298 1.531 . S
C2302 H2314 0.960 . S
C2302 H2315 0.962 . S
C2302 H2316 0.960 . S
C2303 C2300 1.511 . S
C2303 H2317 0.961 . S
C2303 H2318 0.961 . S
C2303 H2319 0.961 . S
C2304 C2305 1.370 . S
C2304 C2306 1.363 . S
C2304 H2320 0.931 . S
C2305 C2304 1.370 . S
C2305 C2309 1.408 . S
C2306 C2304 1.363 . S
C2306 C2307 1.370 . S
C2306 C2310 1.524 . S
C2307 C2299 1.503 . S
C2307 C2306 1.370 . S
C2307 C2308 1.403 . S
C2308 C2307 1.403 . S
C2308 C2309 1.404 . S
C2308 C2311 1.539 . S
C2309 C2305 1.408 . S
C2309 C2308 1.404 . S
C2309 H2321 0.930 . S
C2310 C2306 1.524 . S
C2310 H2322 0.956 . S
C2310 H2323 0.961 . S
C2310 H2324 0.961 . S
C2311 C2308 1.539 . S
C2311 H2325 0.958 . S
C2311 H2326 0.961 . S
C2311 H2327 0.960 . S
H2312 C2296 0.931 . S
H2313 C2301 0.929 . S
H2314 C2302 0.960 . S
H2315 C2302 0.962 . S
H2316 C2302 0.960 . S
H2317 C2303 0.961 . S
H2318 C2303 0.961 . S
H2319 C2303 0.961 . S
H2320 C2304 0.931 . S
H2321 C2309 0.930 . S
H2322 C2310 0.956 . S
H2323 C2310 0.961 . S
H2324 C2310 0.961 . S
H2325 C2311 0.958 . S
H2326 C2311 0.961 . S
H2327 C2311 0.960 . S
C2328 C2329 1.391 . S
C2328 C2330 1.394 . S
C2328 H2344 0.931 . S
C2329 C2328 1.391 . S
C2329 C2333 1.376 . S
C2330 C2328 1.394 . S
C2330 C2331 1.369 . S
C2330 C2334 1.531 . S
C2331 C2330 1.369 . S
C2331 C2332 1.410 . S
C2331 C2339 1.503 . S
C2332 C2331 1.410 . S
C2332 C2333 1.392 . S
C2332 C2335 1.511 . S
C2333 C2329 1.376 . S
C2333 C2332 1.392 . S
C2333 H2345 0.929 . S
C2334 C2330 1.531 . S
C2334 H2346 0.960 . S
C2334 H2347 0.962 . S
C2334 H2348 0.960 . S
C2335 C2332 1.511 . S
C2335 H2349 0.961 . S
C2335 H2350 0.961 . S
C2335 H2351 0.961 . S
C2336 C2337 1.370 . S
C2336 C2338 1.363 . S
C2336 H2352 0.931 . S
C2337 C2336 1.370 . S
C2337 C2341 1.408 . S
C2338 C2336 1.363 . S
C2338 C2339 1.370 . S
C2338 C2342 1.524 . S
C2339 C2331 1.503 . S
C2339 C2338 1.370 . S
C2339 C2340 1.403 . S
C2340 C2339 1.403 . S
C2340 C2341 1.404 . S
C2340 C2343 1.539 . S
C2341 C2337 1.408 . S
C2341 C2340 1.404 . S
C2341 H2353 0.930 . S
C2342 C2338 1.524 . S
C2342 H2354 0.956 . S
C2342 H2355 0.961 . S
C2342 H2356 0.961 . S
C2343 C2340 1.539 . S
C2343 H2357 0.958 . S
C2343 H2358 0.961 . S
C2343 H2359 0.960 . S
H2344 C2328 0.931 . S
H2345 C2333 0.929 . S
H2346 C2334 0.960 . S
H2347 C2334 0.962 . S
H2348 C2334 0.960 . S
H2349 C2335 0.961 . S
H2350 C2335 0.961 . S
H2351 C2335 0.961 . S
H2352 C2336 0.931 . S
H2353 C2341 0.930 . S
H2354 C2342 0.956 . S
H2355 C2342 0.961 . S
H2356 C2342 0.961 . S
H2357 C2343 0.958 . S
H2358 C2343 0.961 . S
H2359 C2343 0.960 . S
C2360 C2361 1.391 . S
C2360 C2362 1.394 . S
C2360 H2376 0.931 . S
C2361 C2360 1.391 . S
C2361 C2365 1.376 . S
C2362 C2360 1.394 . S
C2362 C2363 1.369 . S
C2362 C2366 1.531 . S
C2363 C2362 1.369 . S
C2363 C2364 1.410 . S
C2363 C2371 1.503 . S
C2364 C2363 1.410 . S
C2364 C2365 1.392 . S
C2364 C2367 1.511 . S
C2365 C2361 1.376 . S
C2365 C2364 1.392 . S
C2365 H2377 0.929 . S
C2366 C2362 1.531 . S
C2366 H2378 0.960 . S
C2366 H2379 0.962 . S
C2366 H2380 0.960 . S
C2367 C2364 1.511 . S
C2367 H2381 0.961 . S
C2367 H2382 0.961 . S
C2367 H2383 0.961 . S
C2368 C2369 1.370 . S
C2368 C2370 1.363 . S
C2368 H2384 0.931 . S
C2369 C2368 1.370 . S
C2369 C2373 1.408 . S
C2370 C2368 1.363 . S
C2370 C2371 1.370 . S
C2370 C2374 1.524 . S
C2371 C2363 1.503 . S
C2371 C2370 1.370 . S
C2371 C2372 1.403 . S
C2372 C2371 1.403 . S
C2372 C2373 1.404 . S
C2372 C2375 1.539 . S
C2373 C2369 1.408 . S
C2373 C2372 1.404 . S
C2373 H2385 0.930 . S
C2374 C2370 1.524 . S
C2374 H2386 0.956 . S
C2374 H2387 0.961 . S
C2374 H2388 0.961 . S
C2375 C2372 1.539 . S
C2375 H2389 0.958 . S
C2375 H2390 0.961 . S
C2375 H2391 0.960 . S
H2376 C2360 0.931 . S
H2377 C2365 0.929 . S
H2378 C2366 0.960 . S
H2379 C2366 0.962 . S
H2380 C2366 0.960 . S
H2381 C2367 0.961 . S
H2382 C2367 0.961 . S
H2383 C2367 0.961 . S
H2384 C2368 0.931 . S
H2385 C2373 0.930 . S
H2386 C2374 0.956 . S
H2387 C2374 0.961 . S
H2388 C2374 0.961 . S
H2389 C2375 0.958 . S
H2390 C2375 0.961 . S
H2391 C2375 0.960 . S
C2392 C2393 1.391 . S
C2392 C2394 1.394 . S
C2392 H2408 0.931 . S
C2393 C2392 1.391 . S
C2393 C2397 1.376 . S
C2394 C2392 1.394 . S
C2394 C2395 1.369 . S
C2394 C2398 1.531 . S
C2395 C2394 1.369 . S
C2395 C2396 1.410 . S
C2395 C2403 1.503 . S
C2396 C2395 1.410 . S
C2396 C2397 1.392 . S
C2396 C2399 1.511 . S
C2397 C2393 1.376 . S
C2397 C2396 1.392 . S
C2397 H2409 0.929 . S
C2398 C2394 1.531 . S
C2398 H2410 0.960 . S
C2398 H2411 0.962 . S
C2398 H2412 0.960 . S
C2399 C2396 1.511 . S
C2399 H2413 0.961 . S
C2399 H2414 0.961 . S
C2399 H2415 0.961 . S
C2400 C2401 1.370 . S
C2400 C2402 1.363 . S
C2400 H2416 0.931 . S
C2401 C2400 1.370 . S
C2401 C2405 1.408 . S
C2402 C2400 1.363 . S
C2402 C2403 1.370 . S
C2402 C2406 1.524 . S
C2403 C2395 1.503 . S
C2403 C2402 1.370 . S
C2403 C2404 1.403 . S
C2404 C2403 1.403 . S
C2404 C2405 1.404 . S
C2404 C2407 1.539 . S
C2405 C2401 1.408 . S
C2405 C2404 1.404 . S
C2405 H2417 0.930 . S
C2406 C2402 1.524 . S
C2406 H2418 0.956 . S
C2406 H2419 0.961 . S
C2406 H2420 0.961 . S
C2407 C2404 1.539 . S
C2407 H2421 0.958 . S
C2407 H2422 0.961 . S
C2407 H2423 0.960 . S
H2408 C2392 0.931 . S
H2409 C2397 0.929 . S
H2410 C2398 0.960 . S
H2411 C2398 0.962 . S
H2412 C2398 0.960 . S
H2413 C2399 0.961 . S
H2414 C2399 0.961 . S
H2415 C2399 0.961 . S
H2416 C2400 0.931 . S
H2417 C2405 0.930 . S
H2418 C2406 0.956 . S
H2419 C2406 0.961 . S
H2420 C2406 0.961 . S
H2421 C2407 0.958 . S
H2422 C2407 0.961 . S
H2423 C2407 0.960 . S
C2424 C2425 1.391 . S
C2424 C2426 1.394 . S
C2424 H2440 0.931 . S
C2425 C2424 1.391 . S
C2425 C2429 1.376 . S
C2426 C2424 1.394 . S
C2426 C2427 1.369 . S
C2426 C2430 1.531 . S
C2427 C2426 1.369 . S
C2427 C2428 1.410 . S
C2427 C2435 1.503 . S
C2428 C2427 1.410 . S
C2428 C2429 1.392 . S
C2428 C2431 1.511 . S
C2429 C2425 1.376 . S
C2429 C2428 1.392 . S
C2429 H2441 0.929 . S
C2430 C2426 1.531 . S
C2430 H2442 0.960 . S
C2430 H2443 0.962 . S
C2430 H2444 0.960 . S
C2431 C2428 1.511 . S
C2431 H2445 0.961 . S
C2431 H2446 0.961 . S
C2431 H2447 0.961 . S
C2432 C2433 1.370 . S
C2432 C2434 1.363 . S
C2432 H2448 0.931 . S
C2433 C2432 1.370 . S
C2433 C2437 1.408 . S
C2434 C2432 1.363 . S
C2434 C2435 1.370 . S
C2434 C2438 1.524 . S
C2435 C2427 1.503 . S
C2435 C2434 1.370 . S
C2435 C2436 1.403 . S
C2436 C2435 1.403 . S
C2436 C2437 1.404 . S
C2436 C2439 1.539 . S
C2437 C2433 1.408 . S
C2437 C2436 1.404 . S
C2437 H2449 0.930 . S
C2438 C2434 1.524 . S
C2438 H2450 0.956 . S
C2438 H2451 0.961 . S
C2438 H2452 0.961 . S
C2439 C2436 1.539 . S
C2439 H2453 0.958 . S
C2439 H2454 0.961 . S
C2439 H2455 0.960 . S
H2440 C2424 0.931 . S
H2441 C2429 0.929 . S
H2442 C2430 0.960 . S
H2443 C2430 0.962 . S
H2444 C2430 0.960 . S
H2445 C2431 0.961 . S
H2446 C2431 0.961 . S
H2447 C2431 0.961 . S
H2448 C2432 0.931 . S
H2449 C2437 0.930 . S
H2450 C2438 0.956 . S
H2451 C2438 0.961 . S
H2452 C2438 0.961 . S
H2453 C2439 0.958 . S
H2454 C2439 0.961 . S
H2455 C2439 0.960 . S
C2456 C2457 1.391 . S
C2456 C2458 1.394 . S
C2456 H2472 0.931 . S
C2457 C2456 1.391 . S
C2457 C2461 1.376 . S
C2458 C2456 1.394 . S
C2458 C2459 1.369 . S
C2458 C2462 1.531 . S
C2459 C2458 1.369 . S
C2459 C2460 1.410 . S
C2459 C2467 1.503 . S
C2460 C2459 1.410 . S
C2460 C2461 1.392 . S
C2460 C2463 1.511 . S
C2461 C2457 1.376 . S
C2461 C2460 1.392 . S
C2461 H2473 0.929 . S
C2462 C2458 1.531 . S
C2462 H2474 0.960 . S
C2462 H2475 0.962 . S
C2462 H2476 0.960 . S
C2463 C2460 1.511 . S
C2463 H2477 0.961 . S
C2463 H2478 0.961 . S
C2463 H2479 0.961 . S
C2464 C2465 1.370 . S
C2464 C2466 1.363 . S
C2464 H2480 0.931 . S
C2465 C2464 1.370 . S
C2465 C2469 1.408 . S
C2466 C2464 1.363 . S
C2466 C2467 1.370 . S
C2466 C2470 1.524 . S
C2467 C2459 1.503 . S
C2467 C2466 1.370 . S
C2467 C2468 1.403 . S
C2468 C2467 1.403 . S
C2468 C2469 1.404 . S
C2468 C2471 1.539 . S
C2469 C2465 1.408 . S
C2469 C2468 1.404 . S
C2469 H2481 0.930 . S
C2470 C2466 1.524 . S
C2470 H2482 0.956 . S
C2470 H2483 0.961 . S
C2470 H2484 0.961 . S
C2471 C2468 1.539 . S
C2471 H2485 0.958 . S
C2471 H2486 0.961 . S
C2471 H2487 0.960 . S
H2472 C2456 0.931 . S
H2473 C2461 0.929 . S
H2474 C2462 0.960 . S
H2475 C2462 0.962 . S
H2476 C2462 0.960 . S
H2477 C2463 0.961 . S
H2478 C2463 0.961 . S
H2479 C2463 0.961 . S
H2480 C2464 0.931 . S
H2481 C2469 0.930 . S
H2482 C2470 0.956 . S
H2483 C2470 0.961 . S
H2484 C2470 0.961 . S
H2485 C2471 0.958 . S
H2486 C2471 0.961 . S
H2487 C2471 0.960 . S
C2488 C2489 1.391 . S
C2488 C2490 1.394 . S
C2488 H2504 0.931 . S
C2489 C2488 1.391 . S
C2489 C2493 1.376 . S
C2490 C2488 1.394 . S
C2490 C2491 1.369 . S
C2490 C2494 1.531 . S
C2491 C2490 1.369 . S
C2491 C2492 1.410 . S
C2491 C2499 1.503 . S
C2492 C2491 1.410 . S
C2492 C2493 1.392 . S
C2492 C2495 1.511 . S
C2493 C2489 1.376 . S
C2493 C2492 1.392 . S
C2493 H2505 0.929 . S
C2494 C2490 1.531 . S
C2494 H2506 0.960 . S
C2494 H2507 0.962 . S
C2494 H2508 0.960 . S
C2495 C2492 1.511 . S
C2495 H2509 0.961 . S
C2495 H2510 0.961 . S
C2495 H2511 0.961 . S
C2496 C2497 1.370 . S
C2496 C2498 1.363 . S
C2496 H2512 0.931 . S
C2497 C2496 1.370 . S
C2497 C2501 1.408 . S
C2498 C2496 1.363 . S
C2498 C2499 1.370 . S
C2498 C2502 1.524 . S
C2499 C2491 1.503 . S
C2499 C2498 1.370 . S
C2499 C2500 1.403 . S
C2500 C2499 1.403 . S
C2500 C2501 1.404 . S
C2500 C2503 1.539 . S
C2501 C2497 1.408 . S
C2501 C2500 1.404 . S
C2501 H2513 0.930 . S
C2502 C2498 1.524 . S
C2502 H2514 0.956 . S
C2502 H2515 0.961 . S
C2502 H2516 0.961 . S
C2503 C2500 1.539 . S
C2503 H2517 0.958 . S
C2503 H2518 0.961 . S
C2503 H2519 0.960 . S
H2504 C2488 0.931 . S
H2505 C2493 0.929 . S
H2506 C2494 0.960 . S
H2507 C2494 0.962 . S
H2508 C2494 0.960 . S
H2509 C2495 0.961 . S
H2510 C2495 0.961 . S
H2511 C2495 0.961 . S
H2512 C2496 0.931 . S
H2513 C2501 0.930 . S
H2514 C2502 0.956 . S
H2515 C2502 0.961 . S
H2516 C2502 0.961 . S
H2517 C2503 0.958 . S
H2518 C2503 0.961 . S
H2519 C2503 0.960 . S
C2520 C2521 1.391 . S
C2520 C2522 1.394 . S
C2520 H2536 0.931 . S
C2521 C2520 1.391 . S
C2521 C2525 1.376 . S
C2522 C2520 1.394 . S
C2522 C2523 1.369 . S
C2522 C2526 1.531 . S
C2523 C2522 1.369 . S
C2523 C2524 1.410 . S
C2523 C2531 1.503 . S
C2524 C2523 1.410 . S
C2524 C2525 1.392 . S
C2524 C2527 1.511 . S
C2525 C2521 1.376 . S
C2525 C2524 1.392 . S
C2525 H2537 0.929 . S
C2526 C2522 1.531 . S
C2526 H2538 0.960 . S
C2526 H2539 0.962 . S
C2526 H2540 0.960 . S
C2527 C2524 1.511 . S
C2527 H2541 0.961 . S
C2527 H2542 0.961 . S
C2527 H2543 0.961 . S
C2528 C2529 1.370 . S
C2528 C2530 1.363 . S
C2528 H2544 0.931 . S
C2529 C2528 1.370 . S
C2529 C2533 1.408 . S
C2530 C2528 1.363 . S
C2530 C2531 1.370 . S
C2530 C2534 1.524 . S
C2531 C2523 1.503 . S
C2531 C2530 1.370 . S
C2531 C2532 1.403 . S
C2532 C2531 1.403 . S
C2532 C2533 1.404 . S
C2532 C2535 1.539 . S
C2533 C2529 1.408 . S
C2533 C2532 1.404 . S
C2533 H2545 0.930 . S
C2534 C2530 1.524 . S
C2534 H2546 0.956 . S
C2534 H2547 0.961 . S
C2534 H2548 0.961 . S
C2535 C2532 1.539 . S
C2535 H2549 0.958 . S
C2535 H2550 0.961 . S
C2535 H2551 0.960 . S
H2536 C2520 0.931 . S
H2537 C2525 0.929 . S
H2538 C2526 0.960 . S
H2539 C2526 0.962 . S
H2540 C2526 0.960 . S
H2541 C2527 0.961 . S
H2542 C2527 0.961 . S
H2543 C2527 0.961 . S
H2544 C2528 0.931 . S
H2545 C2533 0.930 . S
H2546 C2534 0.956 . S
H2547 C2534 0.961 . S
H2548 C2534 0.961 . S
H2549 C2535 0.958 . S
H2550 C2535 0.961 . S
H2551 C2535 0.960 . S
C2552 C2553 1.391 . S
C2552 C2554 1.394 . S
C2552 H2568 0.931 . S
C2553 C2552 1.391 . S
C2553 C2557 1.376 . S
C2554 C2552 1.394 . S
C2554 C2555 1.369 . S
C2554 C2558 1.531 . S
C2555 C2554 1.369 . S
C2555 C2556 1.410 . S
C2555 C2563 1.503 . S
C2556 C2555 1.410 . S
C2556 C2557 1.392 . S
C2556 C2559 1.511 . S
C2557 C2553 1.376 . S
C2557 C2556 1.392 . S
C2557 H2569 0.929 . S
C2558 C2554 1.531 . S
C2558 H2570 0.960 . S
C2558 H2571 0.962 . S
C2558 H2572 0.960 . S
C2559 C2556 1.511 . S
C2559 H2573 0.961 . S
C2559 H2574 0.961 . S
C2559 H2575 0.961 . S
C2560 C2561 1.370 . S
C2560 C2562 1.363 . S
C2560 H2576 0.931 . S
C2561 C2560 1.370 . S
C2561 C2565 1.408 . S
C2562 C2560 1.363 . S
C2562 C2563 1.370 . S
C2562 C2566 1.524 . S
C2563 C2555 1.503 . S
C2563 C2562 1.370 . S
C2563 C2564 1.403 . S
C2564 C2563 1.403 . S
C2564 C2565 1.404 . S
C2564 C2567 1.539 . S
C2565 C2561 1.408 . S
C2565 C2564 1.404 . S
C2565 H2577 0.930 . S
C2566 C2562 1.524 . S
C2566 H2578 0.956 . S
C2566 H2579 0.961 . S
C2566 H2580 0.961 . S
C2567 C2564 1.539 . S
C2567 H2581 0.958 . S
C2567 H2582 0.961 . S
C2567 H2583 0.960 . S
H2568 C2552 0.931 . S
H2569 C2557 0.929 . S
H2570 C2558 0.960 . S
H2571 C2558 0.962 . S
H2572 C2558 0.960 . S
H2573 C2559 0.961 . S
H2574 C2559 0.961 . S
H2575 C2559 0.961 . S
H2576 C2560 0.931 . S
H2577 C2565 0.930 . S
H2578 C2566 0.956 . S
H2579 C2566 0.961 . S
H2580 C2566 0.961 . S
H2581 C2567 0.958 . S
H2582 C2567 0.961 . S
H2583 C2567 0.960 . S
C2584 C2585 1.391 . S
C2584 C2586 1.394 . S
C2584 H2600 0.931 . S
C2585 C2584 1.391 . S
C2585 C2589 1.376 . S
C2586 C2584 1.394 . S
C2586 C2587 1.369 . S
C2586 C2590 1.531 . S
C2587 C2586 1.369 . S
C2587 C2588 1.410 . S
C2587 C2595 1.503 . S
C2588 C2587 1.410 . S
C2588 C2589 1.392 . S
C2588 C2591 1.511 . S
C2589 C2585 1.376 . S
C2589 C2588 1.392 . S
C2589 H2601 0.929 . S
C2590 C2586 1.531 . S
C2590 H2602 0.960 . S
C2590 H2603 0.962 . S
C2590 H2604 0.960 . S
C2591 C2588 1.511 . S
C2591 H2605 0.961 . S
C2591 H2606 0.961 . S
C2591 H2607 0.961 . S
C2592 C2593 1.370 . S
C2592 C2594 1.363 . S
C2592 H2608 0.931 . S
C2593 C2592 1.370 . S
C2593 C2597 1.408 . S
C2594 C2592 1.363 . S
C2594 C2595 1.370 . S
C2594 C2598 1.524 . S
C2595 C2587 1.503 . S
C2595 C2594 1.370 . S
C2595 C2596 1.403 . S
C2596 C2595 1.403 . S
C2596 C2597 1.404 . S
C2596 C2599 1.539 . S
C2597 C2593 1.408 . S
C2597 C2596 1.404 . S
C2597 H2609 0.930 . S
C2598 C2594 1.524 . S
C2598 H2610 0.956 . S
C2598 H2611 0.961 . S
C2598 H2612 0.961 . S
C2599 C2596 1.539 . S
C2599 H2613 0.958 . S
C2599 H2614 0.961 . S
C2599 H2615 0.960 . S
H2600 C2584 0.931 . S
H2601 C2589 0.929 . S
H2602 C2590 0.960 . S
H2603 C2590 0.962 . S
H2604 C2590 0.960 . S
H2605 C2591 0.961 . S
H2606 C2591 0.961 . S
H2607 C2591 0.961 . S
H2608 C2592 0.931 . S
H2609 C2597 0.930 . S
H2610 C2598 0.956 . S
H2611 C2598 0.961 . S
H2612 C2598 0.961 . S
H2613 C2599 0.958 . S
H2614 C2599 0.961 . S
H2615 C2599 0.960 . S
C2616 C2617 1.391 . S
C2616 C2618 1.394 . S
C2616 H2632 0.931 . S
C2617 C2616 1.391 . S
C2617 C2621 1.376 . S
C2618 C2616 1.394 . S
C2618 C2619 1.369 . S
C2618 C2622 1.531 . S
C2619 C2618 1.369 . S
C2619 C2620 1.410 . S
C2619 C2627 1.503 . S
C2620 C2619 1.410 . S
C2620 C2621 1.392 . S
C2620 C2623 1.511 . S
C2621 C2617 1.376 . S
C2621 C2620 1.392 . S
C2621 H2633 0.929 . S
C2622 C2618 1.531 . S
C2622 H2634 0.960 . S
C2622 H2635 0.962 . S
C2622 H2636 0.960 . S
C2623 C2620 1.511 . S
C2623 H2637 0.961 . S
C2623 H2638 0.961 . S
C2623 H2639 0.961 . S
C2624 C2625 1.370 . S
C2624 C2626 1.363 . S
C2624 H2640 0.931 . S
C2625 C2624 1.370 . S
C2625 C2629 1.408 . S
C2626 C2624 1.363 . S
C2626 C2627 1.370 . S
C2626 C2630 1.524 . S
C2627 C2619 1.503 . S
C2627 C2626 1.370 . S
C2627 C2628 1.403 . S
C2628 C2627 1.403 . S
C2628 C2629 1.404 . S
C2628 C2631 1.539 . S
C2629 C2625 1.408 . S
C2629 C2628 1.404 . S
C2629 H2641 0.930 . S
C2630 C2626 1.524 . S
C2630 H2642 0.956 . S
C2630 H2643 0.961 . S
C2630 H2644 0.961 . S
C2631 C2628 1.539 . S
C2631 H2645 0.958 . S
C2631 H2646 0.961 . S
C2631 H2647 0.960 . S
H2632 C2616 0.931 . S
H2633 C2621 0.929 . S
H2634 C2622 0.960 . S
H2635 C2622 0.962 . S
H2636 C2622 0.960 . S
H2637 C2623 0.961 . S
H2638 C2623 0.961 . S
H2639 C2623 0.961 . S
H2640 C2624 0.931 . S
H2641 C2629 0.930 . S
H2642 C2630 0.956 . S
H2643 C2630 0.961 . S
H2644 C2630 0.961 . S
H2645 C2631 0.958 . S
H2646 C2631 0.961 . S
H2647 C2631 0.960 . S
C2648 C2649 1.391 . S
C2648 C2650 1.394 . S
C2648 H2664 0.931 . S
C2649 C2648 1.391 . S
C2649 C2653 1.376 . S
C2650 C2648 1.394 . S
C2650 C2651 1.369 . S
C2650 C2654 1.531 . S
C2651 C2650 1.369 . S
C2651 C2652 1.410 . S
C2651 C2659 1.503 . S
C2652 C2651 1.410 . S
C2652 C2653 1.392 . S
C2652 C2655 1.511 . S
C2653 C2649 1.376 . S
C2653 C2652 1.392 . S
C2653 H2665 0.929 . S
C2654 C2650 1.531 . S
C2654 H2666 0.960 . S
C2654 H2667 0.962 . S
C2654 H2668 0.960 . S
C2655 C2652 1.511 . S
C2655 H2669 0.961 . S
C2655 H2670 0.961 . S
C2655 H2671 0.961 . S
C2656 C2657 1.370 . S
C2656 C2658 1.363 . S
C2656 H2672 0.931 . S
C2657 C2656 1.370 . S
C2657 C2661 1.408 . S
C2658 C2656 1.363 . S
C2658 C2659 1.370 . S
C2658 C2662 1.524 . S
C2659 C2651 1.503 . S
C2659 C2658 1.370 . S
C2659 C2660 1.403 . S
C2660 C2659 1.403 . S
C2660 C2661 1.404 . S
C2660 C2663 1.539 . S
C2661 C2657 1.408 . S
C2661 C2660 1.404 . S
C2661 H2673 0.930 . S
C2662 C2658 1.524 . S
C2662 H2674 0.956 . S
C2662 H2675 0.961 . S
C2662 H2676 0.961 . S
C2663 C2660 1.539 . S
C2663 H2677 0.958 . S
C2663 H2678 0.961 . S
C2663 H2679 0.960 . S
H2664 C2648 0.931 . S
H2665 C2653 0.929 . S
H2666 C2654 0.960 . S
H2667 C2654 0.962 . S
H2668 C2654 0.960 . S
H2669 C2655 0.961 . S
H2670 C2655 0.961 . S
H2671 C2655 0.961 . S
H2672 C2656 0.931 . S
H2673 C2661 0.930 . S
H2674 C2662 0.956 . S
H2675 C2662 0.961 . S
H2676 C2662 0.961 . S
H2677 C2663 0.958 . S
H2678 C2663 0.961 . S
H2679 C2663 0.960 . S
C2680 C2681 1.391 . S
C2680 C2682 1.394 . S
C2680 H2696 0.931 . S
C2681 C2680 1.391 . S
C2681 C2685 1.376 . S
C2682 C2680 1.394 . S
C2682 C2683 1.369 . S
C2682 C2686 1.531 . S
C2683 C2682 1.369 . S
C2683 C2684 1.410 . S
C2683 C2691 1.503 . S
C2684 C2683 1.410 . S
C2684 C2685 1.392 . S
C2684 C2687 1.511 . S
C2685 C2681 1.376 . S
C2685 C2684 1.392 . S
C2685 H2697 0.929 . S
C2686 C2682 1.531 . S
C2686 H2698 0.960 . S
C2686 H2699 0.962 . S
C2686 H2700 0.960 . S
C2687 C2684 1.511 . S
C2687 H2701 0.961 . S
C2687 H2702 0.961 . S
C2687 H2703 0.961 . S
C2688 C2689 1.370 . S
C2688 C2690 1.363 . S
C2688 H2704 0.931 . S
C2689 C2688 1.370 . S
C2689 C2693 1.408 . S
C2690 C2688 1.363 . S
C2690 C2691 1.370 . S
C2690 C2694 1.524 . S
C2691 C2683 1.503 . S
C2691 C2690 1.370 . S
C2691 C2692 1.403 . S
C2692 C2691 1.403 . S
C2692 C2693 1.404 . S
C2692 C2695 1.539 . S
C2693 C2689 1.408 . S
C2693 C2692 1.404 . S
C2693 H2705 0.930 . S
C2694 C2690 1.524 . S
C2694 H2706 0.956 . S
C2694 H2707 0.961 . S
C2694 H2708 0.961 . S
C2695 C2692 1.539 . S
C2695 H2709 0.958 . S
C2695 H2710 0.961 . S
C2695 H2711 0.960 . S
H2696 C2680 0.931 . S
H2697 C2685 0.929 . S
H2698 C2686 0.960 . S
H2699 C2686 0.962 . S
H2700 C2686 0.960 . S
H2701 C2687 0.961 . S
H2702 C2687 0.961 . S
H2703 C2687 0.961 . S
H2704 C2688 0.931 . S
H2705 C2693 0.930 . S
H2706 C2694 0.956 . S
H2707 C2694 0.961 . S
H2708 C2694 0.961 . S
H2709 C2695 0.958 . S
H2710 C2695 0.961 . S
H2711 C2695 0.960 . S
C2712 C2713 1.391 . S
C2712 C2714 1.394 . S
C2712 H2728 0.931 . S
C2713 C2712 1.391 . S
C2713 C2717 1.376 . S
C2714 C2712 1.394 . S
C2714 C2715 1.369 . S
C2714 C2718 1.531 . S
C2715 C2714 1.369 . S
C2715 C2716 1.410 . S
C2715 C2723 1.503 . S
C2716 C2715 1.410 . S
C2716 C2717 1.392 . S
C2716 C2719 1.511 . S
C2717 C2713 1.376 . S
C2717 C2716 1.392 . S
C2717 H2729 0.929 . S
C2718 C2714 1.531 . S
C2718 H2730 0.960 . S
C2718 H2731 0.962 . S
C2718 H2732 0.960 . S
C2719 C2716 1.511 . S
C2719 H2733 0.961 . S
C2719 H2734 0.961 . S
C2719 H2735 0.961 . S
C2720 C2721 1.370 . S
C2720 C2722 1.363 . S
C2720 H2736 0.931 . S
C2721 C2720 1.370 . S
C2721 C2725 1.408 . S
C2722 C2720 1.363 . S
C2722 C2723 1.370 . S
C2722 C2726 1.524 . S
C2723 C2715 1.503 . S
C2723 C2722 1.370 . S
C2723 C2724 1.403 . S
C2724 C2723 1.403 . S
C2724 C2725 1.404 . S
C2724 C2727 1.539 . S
C2725 C2721 1.408 . S
C2725 C2724 1.404 . S
C2725 H2737 0.930 . S
C2726 C2722 1.524 . S
C2726 H2738 0.956 . S
C2726 H2739 0.961 . S
C2726 H2740 0.961 . S
C2727 C2724 1.539 . S
C2727 H2741 0.958 . S
C2727 H2742 0.961 . S
C2727 H2743 0.960 . S
H2728 C2712 0.931 . S
H2729 C2717 0.929 . S
H2730 C2718 0.960 . S
H2731 C2718 0.962 . S
H2732 C2718 0.960 . S
H2733 C2719 0.961 . S
H2734 C2719 0.961 . S
H2735 C2719 0.961 . S
H2736 C2720 0.931 . S
H2737 C2725 0.930 . S
H2738 C2726 0.956 . S
H2739 C2726 0.961 . S
H2740 C2726 0.961 . S
H2741 C2727 0.958 . S
H2742 C2727 0.961 . S
H2743 C2727 0.960 . S
C2744 C2745 1.391 . S
C2744 C2746 1.394 . S
C2744 H2760 0.931 . S
C2745 C2744 1.391 . S
C2745 C2749 1.376 . S
C2746 C2744 1.394 . S
C2746 C2747 1.369 . S
C2746 C2750 1.531 . S
C2747 C2746 1.369 . S
C2747 C2748 1.410 . S
C2747 C2755 1.503 . S
C2748 C2747 1.410 . S
C2748 C2749 1.392 . S
C2748 C2751 1.511 . S
C2749 C2745 1.376 . S
C2749 C2748 1.392 . S
C2749 H2761 0.929 . S
C2750 C2746 1.531 . S
C2750 H2762 0.960 . S
C2750 H2763 0.962 . S
C2750 H2764 0.960 . S
C2751 C2748 1.511 . S
C2751 H2765 0.961 . S
C2751 H2766 0.961 . S
C2751 H2767 0.961 . S
C2752 C2753 1.370 . S
C2752 C2754 1.363 . S
C2752 H2768 0.931 . S
C2753 C2752 1.370 . S
C2753 C2757 1.408 . S
C2754 C2752 1.363 . S
C2754 C2755 1.370 . S
C2754 C2758 1.524 . S
C2755 C2747 1.503 . S
C2755 C2754 1.370 . S
C2755 C2756 1.403 . S
C2756 C2755 1.403 . S
C2756 C2757 1.404 . S
C2756 C2759 1.539 . S
C2757 C2753 1.408 . S
C2757 C2756 1.404 . S
C2757 H2769 0.930 . S
C2758 C2754 1.524 . S
C2758 H2770 0.956 . S
C2758 H2771 0.961 . S
C2758 H2772 0.961 . S
C2759 C2756 1.539 . S
C2759 H2773 0.958 . S
C2759 H2774 0.961 . S
C2759 H2775 0.960 . S
H2760 C2744 0.931 . S
H2761 C2749 0.929 . S
H2762 C2750 0.960 . S
H2763 C2750 0.962 . S
H2764 C2750 0.960 . S
H2765 C2751 0.961 . S
H2766 C2751 0.961 . S
H2767 C2751 0.961 . S
H2768 C2752 0.931 . S
H2769 C2757 0.930 . S
H2770 C2758 0.956 . S
H2771 C2758 0.961 . S
H2772 C2758 0.961 . S
H2773 C2759 0.958 . S
H2774 C2759 0.961 . S
H2775 C2759 0.960 . S
C2776 C2777 1.391 . S
C2776 C2778 1.394 . S
C2776 H2792 0.931 . S
C2777 C2776 1.391 . S
C2777 C2781 1.376 . S
C2778 C2776 1.394 . S
C2778 C2779 1.369 . S
C2778 C2782 1.531 . S
C2779 C2778 1.369 . S
C2779 C2780 1.410 . S
C2779 C2787 1.503 . S
C2780 C2779 1.410 . S
C2780 C2781 1.392 . S
C2780 C2783 1.511 . S
C2781 C2777 1.376 . S
C2781 C2780 1.392 . S
C2781 H2793 0.929 . S
C2782 C2778 1.531 . S
C2782 H2794 0.960 . S
C2782 H2795 0.962 . S
C2782 H2796 0.960 . S
C2783 C2780 1.511 . S
C2783 H2797 0.961 . S
C2783 H2798 0.961 . S
C2783 H2799 0.961 . S
C2784 C2785 1.370 . S
C2784 C2786 1.363 . S
C2784 H2800 0.931 . S
C2785 C2784 1.370 . S
C2785 C2789 1.408 . S
C2786 C2784 1.363 . S
C2786 C2787 1.370 . S
C2786 C2790 1.524 . S
C2787 C2779 1.503 . S
C2787 C2786 1.370 . S
C2787 C2788 1.403 . S
C2788 C2787 1.403 . S
C2788 C2789 1.404 . S
C2788 C2791 1.539 . S
C2789 C2785 1.408 . S
C2789 C2788 1.404 . S
C2789 H2801 0.930 . S
C2790 C2786 1.524 . S
C2790 H2802 0.956 . S
C2790 H2803 0.961 . S
C2790 H2804 0.961 . S
C2791 C2788 1.539 . S
C2791 H2805 0.958 . S
C2791 H2806 0.961 . S
C2791 H2807 0.960 . S
H2792 C2776 0.931 . S
H2793 C2781 0.929 . S
H2794 C2782 0.960 . S
H2795 C2782 0.962 . S
H2796 C2782 0.960 . S
H2797 C2783 0.961 . S
H2798 C2783 0.961 . S
H2799 C2783 0.961 . S
H2800 C2784 0.931 . S
H2801 C2789 0.930 . S
H2802 C2790 0.956 . S
H2803 C2790 0.961 . S
H2804 C2790 0.961 . S
H2805 C2791 0.958 . S
H2806 C2791 0.961 . S
H2807 C2791 0.960 . S
C2808 C2809 1.391 . S
C2808 C2810 1.394 . S
C2808 H2824 0.931 . S
C2809 C2808 1.391 . S
C2809 C2813 1.376 . S
C2810 C2808 1.394 . S
C2810 C2811 1.369 . S
C2810 C2814 1.531 . S
C2811 C2810 1.369 . S
C2811 C2812 1.410 . S
C2811 C2819 1.503 . S
C2812 C2811 1.410 . S
C2812 C2813 1.392 . S
C2812 C2815 1.511 . S
C2813 C2809 1.376 . S
C2813 C2812 1.392 . S
C2813 H2825 0.929 . S
C2814 C2810 1.531 . S
C2814 H2826 0.960 . S
C2814 H2827 0.962 . S
C2814 H2828 0.960 . S
C2815 C2812 1.511 . S
C2815 H2829 0.961 . S
C2815 H2830 0.961 . S
C2815 H2831 0.961 . S
C2816 C2817 1.370 . S
C2816 C2818 1.363 . S
C2816 H2832 0.931 . S
C2817 C2816 1.370 . S
C2817 C2821 1.408 . S
C2818 C2816 1.363 . S
C2818 C2819 1.370 . S
C2818 C2822 1.524 . S
C2819 C2811 1.503 . S
C2819 C2818 1.370 . S
C2819 C2820 1.403 . S
C2820 C2819 1.403 . S
C2820 C2821 1.404 . S
C2820 C2823 1.539 . S
C2821 C2817 1.408 . S
C2821 C2820 1.404 . S
C2821 H2833 0.930 . S
C2822 C2818 1.524 . S
C2822 H2834 0.956 . S
C2822 H2835 0.961 . S
C2822 H2836 0.961 . S
C2823 C2820 1.539 . S
C2823 H2837 0.958 . S
C2823 H2838 0.961 . S
C2823 H2839 0.960 . S
H2824 C2808 0.931 . S
H2825 C2813 0.929 . S
H2826 C2814 0.960 . S
H2827 C2814 0.962 . S
H2828 C2814 0.960 . S
H2829 C2815 0.961 . S
H2830 C2815 0.961 . S
H2831 C2815 0.961 . S
H2832 C2816 0.931 . S
H2833 C2821 0.930 . S
H2834 C2822 0.956 . S
H2835 C2822 0.961 . S
H2836 C2822 0.961 . S
H2837 C2823 0.958 . S
H2838 C2823 0.961 . S
H2839 C2823 0.960 . S
C2840 C2841 1.391 . S
C2840 C2842 1.394 . S
C2840 H2856 0.931 . S
C2841 C2840 1.391 . S
C2841 C2845 1.376 . S
C2842 C2840 1.394 . S
C2842 C2843 1.369 . S
C2842 C2846 1.531 . S
C2843 C2842 1.369 . S
C2843 C2844 1.410 . S
C2843 C2851 1.503 . S
C2844 C2843 1.410 . S
C2844 C2845 1.392 . S
C2844 C2847 1.511 . S
C2845 C2841 1.376 . S
C2845 C2844 1.392 . S
C2845 H2857 0.929 . S
C2846 C2842 1.531 . S
C2846 H2858 0.960 . S
C2846 H2859 0.962 . S
C2846 H2860 0.960 . S
C2847 C2844 1.511 . S
C2847 H2861 0.961 . S
C2847 H2862 0.961 . S
C2847 H2863 0.961 . S
C2848 C2849 1.370 . S
C2848 C2850 1.363 . S
C2848 H2864 0.931 . S
C2849 C2848 1.370 . S
C2849 C2853 1.408 . S
C2850 C2848 1.363 . S
C2850 C2851 1.370 . S
C2850 C2854 1.524 . S
C2851 C2843 1.503 . S
C2851 C2850 1.370 . S
C2851 C2852 1.403 . S
C2852 C2851 1.403 . S
C2852 C2853 1.404 . S
C2852 C2855 1.539 . S
C2853 C2849 1.408 . S
C2853 C2852 1.404 . S
C2853 H2865 0.930 . S
C2854 C2850 1.524 . S
C2854 H2866 0.956 . S
C2854 H2867 0.961 . S
C2854 H2868 0.961 . S
C2855 C2852 1.539 . S
C2855 H2869 0.958 . S
C2855 H2870 0.961 . S
C2855 H2871 0.960 . S
H2856 C2840 0.931 . S
H2857 C2845 0.929 . S
H2858 C2846 0.960 . S
H2859 C2846 0.962 . S
H2860 C2846 0.960 . S
H2861 C2847 0.961 . S
H2862 C2847 0.961 . S
H2863 C2847 0.961 . S
H2864 C2848 0.931 . S
H2865 C2853 0.930 . S
H2866 C2854 0.956 . S
H2867 C2854 0.961 . S
H2868 C2854 0.961 . S
H2869 C2855 0.958 . S
H2870 C2855 0.961 . S
H2871 C2855 0.960 . S
C2872 C2873 1.391 . S
C2872 C2874 1.394 . S
C2872 H2888 0.931 . S
C2873 C2872 1.391 . S
C2873 C2877 1.376 . S
C2874 C2872 1.394 . S
C2874 C2875 1.369 . S
C2874 C2878 1.531 . S
C2875 C2874 1.369 . S
C2875 C2876 1.410 . S
C2875 C2883 1.503 . S
C2876 C2875 1.410 . S
C2876 C2877 1.392 . S
C2876 C2879 1.511 . S
C2877 C2873 1.376 . S
C2877 C2876 1.392 . S
C2877 H2889 0.929 . S
C2878 C2874 1.531 . S
C2878 H2890 0.960 . S
C2878 H2891 0.962 . S
C2878 H2892 0.960 . S
C2879 C2876 1.511 . S
C2879 H2893 0.961 . S
C2879 H2894 0.961 . S
C2879 H2895 0.961 . S
C2880 C2881 1.370 . S
C2880 C2882 1.363 . S
C2880 H2896 0.931 . S
C2881 C2880 1.370 . S
C2881 C2885 1.408 . S
C2882 C2880 1.363 . S
C2882 C2883 1.370 . S
C2882 C2886 1.524 . S
C2883 C2875 1.503 . S
C2883 C2882 1.370 . S
C2883 C2884 1.403 . S
C2884 C2883 1.403 . S
C2884 C2885 1.404 . S
C2884 C2887 1.539 . S
C2885 C2881 1.408 . S
C2885 C2884 1.404 . S
C2885 H2897 0.930 . S
C2886 C2882 1.524 . S
C2886 H2898 0.956 . S
C2886 H2899 0.961 . S
C2886 H2900 0.961 . S
C2887 C2884 1.539 . S
C2887 H2901 0.958 . S
C2887 H2902 0.961 . S
C2887 H2903 0.960 . S
H2888 C2872 0.931 . S
H2889 C2877 0.929 . S
H2890 C2878 0.960 . S
H2891 C2878 0.962 . S
H2892 C2878 0.960 . S
H2893 C2879 0.961 . S
H2894 C2879 0.961 . S
H2895 C2879 0.961 . S
H2896 C2880 0.931 . S
H2897 C2885 0.930 . S
H2898 C2886 0.956 . S
H2899 C2886 0.961 . S
H2900 C2886 0.961 . S
H2901 C2887 0.958 . S
H2902 C2887 0.961 . S
H2903 C2887 0.960 . S
C2904 C2905 1.391 . S
C2904 C2906 1.394 . S
C2904 H2920 0.931 . S
C2905 C2904 1.391 . S
C2905 C2909 1.376 . S
C2906 C2904 1.394 . S
C2906 C2907 1.369 . S
C2906 C2910 1.531 . S
C2907 C2906 1.369 . S
C2907 C2908 1.410 . S
C2907 C2915 1.503 . S
C2908 C2907 1.410 . S
C2908 C2909 1.392 . S
C2908 C2911 1.511 . S
C2909 C2905 1.376 . S
C2909 C2908 1.392 . S
C2909 H2921 0.929 . S
C2910 C2906 1.531 . S
C2910 H2922 0.960 . S
C2910 H2923 0.962 . S
C2910 H2924 0.960 . S
C2911 C2908 1.511 . S
C2911 H2925 0.961 . S
C2911 H2926 0.961 . S
C2911 H2927 0.961 . S
C2912 C2913 1.370 . S
C2912 C2914 1.363 . S
C2912 H2928 0.931 . S
C2913 C2912 1.370 . S
C2913 C2917 1.408 . S
C2914 C2912 1.363 . S
C2914 C2915 1.370 . S
C2914 C2918 1.524 . S
C2915 C2907 1.503 . S
C2915 C2914 1.370 . S
C2915 C2916 1.403 . S
C2916 C2915 1.403 . S
C2916 C2917 1.404 . S
C2916 C2919 1.539 . S
C2917 C2913 1.408 . S
C2917 C2916 1.404 . S
C2917 H2929 0.930 . S
C2918 C2914 1.524 . S
C2918 H2930 0.956 . S
C2918 H2931 0.961 . S
C2918 H2932 0.961 . S
C2919 C2916 1.539 . S
C2919 H2933 0.958 . S
C2919 H2934 0.961 . S
C2919 H2935 0.960 . S
H2920 C2904 0.931 . S
H2921 C2909 0.929 . S
H2922 C2910 0.960 . S
H2923 C2910 0.962 . S
H2924 C2910 0.960 . S
H2925 C2911 0.961 . S
H2926 C2911 0.961 . S
H2927 C2911 0.961 . S
H2928 C2912 0.931 . S
H2929 C2917 0.930 . S
H2930 C2918 0.956 . S
H2931 C2918 0.961 . S
H2932 C2918 0.961 . S
H2933 C2919 0.958 . S
H2934 C2919 0.961 . S
H2935 C2919 0.960 . S
C2936 C2937 1.391 . S
C2936 C2938 1.394 . S
C2936 H2952 0.931 . S
C2937 C2936 1.391 . S
C2937 C2941 1.376 . S
C2938 C2936 1.394 . S
C2938 C2939 1.369 . S
C2938 C2942 1.531 . S
C2939 C2938 1.369 . S
C2939 C2940 1.410 . S
C2939 C2947 1.503 . S
C2940 C2939 1.410 . S
C2940 C2941 1.392 . S
C2940 C2943 1.511 . S
C2941 C2937 1.376 . S
C2941 C2940 1.392 . S
C2941 H2953 0.929 . S
C2942 C2938 1.531 . S
C2942 H2954 0.960 . S
C2942 H2955 0.962 . S
C2942 H2956 0.960 . S
C2943 C2940 1.511 . S
C2943 H2957 0.961 . S
C2943 H2958 0.961 . S
C2943 H2959 0.961 . S
C2944 C2945 1.370 . S
C2944 C2946 1.363 . S
C2944 H2960 0.931 . S
C2945 C2944 1.370 . S
C2945 C2949 1.408 . S
C2946 C2944 1.363 . S
C2946 C2947 1.370 . S
C2946 C2950 1.524 . S
C2947 C2939 1.503 . S
C2947 C2946 1.370 . S
C2947 C2948 1.403 . S
C2948 C2947 1.403 . S
C2948 C2949 1.404 . S
C2948 C2951 1.539 . S
C2949 C2945 1.408 . S
C2949 C2948 1.404 . S
C2949 H2961 0.930 . S
C2950 C2946 1.524 . S
C2950 H2962 0.956 . S
C2950 H2963 0.961 . S
C2950 H2964 0.961 . S
C2951 C2948 1.539 . S
C2951 H2965 0.958 . S
C2951 H2966 0.961 . S
C2951 H2967 0.960 . S
H2952 C2936 0.931 . S
H2953 C2941 0.929 . S
H2954 C2942 0.960 . S
H2955 C2942 0.962 . S
H2956 C2942 0.960 . S
H2957 C2943 0.961 . S
H2958 C2943 0.961 . S
H2959 C2943 0.961 . S
H2960 C2944 0.931 . S
H2961 C2949 0.930 . S
H2962 C2950 0.956 . S
H2963 C2950 0.961 . S
H2964 C2950 0.961 . S
H2965 C2951 0.958 . S
H2966 C2951 0.961 . S
H2967 C2951 0.960 . S
C2968 C2969 1.391 . S
C2968 C2970 1.394 . S
C2968 H2984 0.931 . S
C2969 C2968 1.391 . S
C2969 C2973 1.376 . S
C2970 C2968 1.394 . S
C2970 C2971 1.369 . S
C2970 C2974 1.531 . S
C2971 C2970 1.369 . S
C2971 C2972 1.410 . S
C2971 C2979 1.503 . S
C2972 C2971 1.410 . S
C2972 C2973 1.392 . S
C2972 C2975 1.511 . S
C2973 C2969 1.376 . S
C2973 C2972 1.392 . S
C2973 H2985 0.929 . S
C2974 C2970 1.531 . S
C2974 H2986 0.960 . S
C2974 H2987 0.962 . S
C2974 H2988 0.960 . S
C2975 C2972 1.511 . S
C2975 H2989 0.961 . S
C2975 H2990 0.961 . S
C2975 H2991 0.961 . S
C2976 C2977 1.370 . S
C2976 C2978 1.363 . S
C2976 H2992 0.931 . S
C2977 C2976 1.370 . S
C2977 C2981 1.408 . S
C2978 C2976 1.363 . S
C2978 C2979 1.370 . S
C2978 C2982 1.524 . S
C2979 C2971 1.503 . S
C2979 C2978 1.370 . S
C2979 C2980 1.403 . S
C2980 C2979 1.403 . S
C2980 C2981 1.404 . S
C2980 C2983 1.539 . S
C2981 C2977 1.408 . S
C2981 C2980 1.404 . S
C2981 H2993 0.930 . S
C2982 C2978 1.524 . S
C2982 H2994 0.956 . S
C2982 H2995 0.961 . S
C2982 H2996 0.961 . S
C2983 C2980 1.539 . S
C2983 H2997 0.958 . S
C2983 H2998 0.961 . S
C2983 H2999 0.960 . S
H2984 C2968 0.931 . S
H2985 C2973 0.929 . S
H2986 C2974 0.960 . S
H2987 C2974 0.962 . S
H2988 C2974 0.960 . S
H2989 C2975 0.961 . S
H2990 C2975 0.961 . S
H2991 C2975 0.961 . S
H2992 C2976 0.931 . S
H2993 C2981 0.930 . S
H2994 C2982 0.956 . S
H2995 C2982 0.961 . S
H2996 C2982 0.961 . S
H2997 C2983 0.958 . S
H2998 C2983 0.961 . S
H2999 C2983 0.960 . S
C3000 C3001 1.391 . S
C3000 C3002 1.394 . S
C3000 H3016 0.931 . S
C3001 C3000 1.391 . S
C3001 C3005 1.376 . S
C3002 C3000 1.394 . S
C3002 C3003 1.369 . S
C3002 C3006 1.531 . S
C3003 C3002 1.369 . S
C3003 C3004 1.410 . S
C3003 C3011 1.503 . S
C3004 C3003 1.410 . S
C3004 C3005 1.392 . S
C3004 C3007 1.511 . S
C3005 C3001 1.376 . S
C3005 C3004 1.392 . S
C3005 H3017 0.929 . S
C3006 C3002 1.531 . S
C3006 H3018 0.960 . S
C3006 H3019 0.962 . S
C3006 H3020 0.960 . S
C3007 C3004 1.511 . S
C3007 H3021 0.961 . S
C3007 H3022 0.961 . S
C3007 H3023 0.961 . S
C3008 C3009 1.370 . S
C3008 C3010 1.363 . S
C3008 H3024 0.931 . S
C3009 C3008 1.370 . S
C3009 C3013 1.408 . S
C3010 C3008 1.363 . S
C3010 C3011 1.370 . S
C3010 C3014 1.524 . S
C3011 C3003 1.503 . S
C3011 C3010 1.370 . S
C3011 C3012 1.403 . S
C3012 C3011 1.403 . S
C3012 C3013 1.404 . S
C3012 C3015 1.539 . S
C3013 C3009 1.408 . S
C3013 C3012 1.404 . S
C3013 H3025 0.930 . S
C3014 C3010 1.524 . S
C3014 H3026 0.956 . S
C3014 H3027 0.961 . S
C3014 H3028 0.961 . S
C3015 C3012 1.539 . S
C3015 H3029 0.958 . S
C3015 H3030 0.961 . S
C3015 H3031 0.960 . S
H3016 C3000 0.931 . S
H3017 C3005 0.929 . S
H3018 C3006 0.960 . S
H3019 C3006 0.962 . S
H3020 C3006 0.960 . S
H3021 C3007 0.961 . S
H3022 C3007 0.961 . S
H3023 C3007 0.961 . S
H3024 C3008 0.931 . S
H3025 C3013 0.930 . S
H3026 C3014 0.956 . S
H3027 C3014 0.961 . S
H3028 C3014 0.961 . S
H3029 C3015 0.958 . S
H3030 C3015 0.961 . S
H3031 C3015 0.960 . S
C3032 C3033 1.391 . S
C3032 C3034 1.394 . S
C3032 H3048 0.931 . S
C3033 C3032 1.391 . S
C3033 C3037 1.376 . S
C3034 C3032 1.394 . S
C3034 C3035 1.369 . S
C3034 C3038 1.531 . S
C3035 C3034 1.369 . S
C3035 C3036 1.410 . S
C3035 C3043 1.503 . S
C3036 C3035 1.410 . S
C3036 C3037 1.392 . S
C3036 C3039 1.511 . S
C3037 C3033 1.376 . S
C3037 C3036 1.392 . S
C3037 H3049 0.929 . S
C3038 C3034 1.531 . S
C3038 H3050 0.960 . S
C3038 H3051 0.962 . S
C3038 H3052 0.960 . S
C3039 C3036 1.511 . S
C3039 H3053 0.961 . S
C3039 H3054 0.961 . S
C3039 H3055 0.961 . S
C3040 C3041 1.370 . S
C3040 C3042 1.363 . S
C3040 H3056 0.931 . S
C3041 C3040 1.370 . S
C3041 C3045 1.408 . S
C3042 C3040 1.363 . S
C3042 C3043 1.370 . S
C3042 C3046 1.524 . S
C3043 C3035 1.503 . S
C3043 C3042 1.370 . S
C3043 C3044 1.403 . S
C3044 C3043 1.403 . S
C3044 C3045 1.404 . S
C3044 C3047 1.539 . S
C3045 C3041 1.408 . S
C3045 C3044 1.404 . S
C3045 H3057 0.930 . S
C3046 C3042 1.524 . S
C3046 H3058 0.956 . S
C3046 H3059 0.961 . S
C3046 H3060 0.961 . S
C3047 C3044 1.539 . S
C3047 H3061 0.958 . S
C3047 H3062 0.961 . S
C3047 H3063 0.960 . S
H3048 C3032 0.931 . S
H3049 C3037 0.929 . S
H3050 C3038 0.960 . S
H3051 C3038 0.962 . S
H3052 C3038 0.960 . S
H3053 C3039 0.961 . S
H3054 C3039 0.961 . S
H3055 C3039 0.961 . S
H3056 C3040 0.931 . S
H3057 C3045 0.930 . S
H3058 C3046 0.956 . S
H3059 C3046 0.961 . S
H3060 C3046 0.961 . S
H3061 C3047 0.958 . S
H3062 C3047 0.961 . S
H3063 C3047 0.960 . S
C3064 C3065 1.391 . S
C3064 C3066 1.394 . S
C3064 H3080 0.931 . S
C3065 C3064 1.391 . S
C3065 C3069 1.376 . S
C3066 C3064 1.394 . S
C3066 C3067 1.369 . S
C3066 C3070 1.531 . S
C3067 C3066 1.369 . S
C3067 C3068 1.410 . S
C3067 C3075 1.503 . S
C3068 C3067 1.410 . S
C3068 C3069 1.392 . S
C3068 C3071 1.511 . S
C3069 C3065 1.376 . S
C3069 C3068 1.392 . S
C3069 H3081 0.929 . S
C3070 C3066 1.531 . S
C3070 H3082 0.960 . S
C3070 H3083 0.962 . S
C3070 H3084 0.960 . S
C3071 C3068 1.511 . S
C3071 H3085 0.961 . S
C3071 H3086 0.961 . S
C3071 H3087 0.961 . S
C3072 C3073 1.370 . S
C3072 C3074 1.363 . S
C3072 H3088 0.931 . S
C3073 C3072 1.370 . S
C3073 C3077 1.408 . S
C3074 C3072 1.363 . S
C3074 C3075 1.370 . S
C3074 C3078 1.524 . S
C3075 C3067 1.503 . S
C3075 C3074 1.370 . S
C3075 C3076 1.403 . S
C3076 C3075 1.403 . S
C3076 C3077 1.404 . S
C3076 C3079 1.539 . S
C3077 C3073 1.408 . S
C3077 C3076 1.404 . S
C3077 H3089 0.930 . S
C3078 C3074 1.524 . S
C3078 H3090 0.956 . S
C3078 H3091 0.961 . S
C3078 H3092 0.961 . S
C3079 C3076 1.539 . S
C3079 H3093 0.958 . S
C3079 H3094 0.961 . S
C3079 H3095 0.960 . S
H3080 C3064 0.931 . S
H3081 C3069 0.929 . S
H3082 C3070 0.960 . S
H3083 C3070 0.962 . S
H3084 C3070 0.960 . S
H3085 C3071 0.961 . S
H3086 C3071 0.961 . S
H3087 C3071 0.961 . S
H3088 C3072 0.931 . S
H3089 C3077 0.930 . S
H3090 C3078 0.956 . S
H3091 C3078 0.961 . S
H3092 C3078 0.961 . S
H3093 C3079 0.958 . S
H3094 C3079 0.961 . S
H3095 C3079 0.960 . S
C3096 C3097 1.391 . S
C3096 C3098 1.394 . S
C3096 H3112 0.931 . S
C3097 C3096 1.391 . S
C3097 C3101 1.376 . S
C3098 C3096 1.394 . S
C3098 C3099 1.369 . S
C3098 C3102 1.531 . S
C3099 C3098 1.369 . S
C3099 C3100 1.410 . S
C3099 C3107 1.503 . S
C3100 C3099 1.410 . S
C3100 C3101 1.392 . S
C3100 C3103 1.511 . S
C3101 C3097 1.376 . S
C3101 C3100 1.392 . S
C3101 H3113 0.929 . S
C3102 C3098 1.531 . S
C3102 H3114 0.960 . S
C3102 H3115 0.962 . S
C3102 H3116 0.960 . S
C3103 C3100 1.511 . S
C3103 H3117 0.961 . S
C3103 H3118 0.961 . S
C3103 H3119 0.961 . S
C3104 C3105 1.370 . S
C3104 C3106 1.363 . S
C3104 H3120 0.931 . S
C3105 C3104 1.370 . S
C3105 C3109 1.408 . S
C3106 C3104 1.363 . S
C3106 C3107 1.370 . S
C3106 C3110 1.524 . S
C3107 C3099 1.503 . S
C3107 C3106 1.370 . S
C3107 C3108 1.403 . S
C3108 C3107 1.403 . S
C3108 C3109 1.404 . S
C3108 C3111 1.539 . S
C3109 C3105 1.408 . S
C3109 C3108 1.404 . S
C3109 H3121 0.930 . S
C3110 C3106 1.524 . S
C3110 H3122 0.956 . S
C3110 H3123 0.961 . S
C3110 H3124 0.961 . S
C3111 C3108 1.539 . S
C3111 H3125 0.958 . S
C3111 H3126 0.961 . S
C3111 H3127 0.960 . S
H3112 C3096 0.931 . S
H3113 C3101 0.929 . S
H3114 C3102 0.960 . S
H3115 C3102 0.962 . S
H3116 C3102 0.960 . S
H3117 C3103 0.961 . S
H3118 C3103 0.961 . S
H3119 C3103 0.961 . S
H3120 C3104 0.931 . S
H3121 C3109 0.930 . S
H3122 C3110 0.956 . S
H3123 C3110 0.961 . S
H3124 C3110 0.961 . S
H3125 C3111 0.958 . S
H3126 C3111 0.961 . S
H3127 C3111 0.960 . S
C3128 C3129 1.391 . S
C3128 C3130 1.394 . S
C3128 H3144 0.931 . S
C3129 C3128 1.391 . S
C3129 C3133 1.376 . S
C3130 C3128 1.394 . S
C3130 C3131 1.369 . S
C3130 C3134 1.531 . S
C3131 C3130 1.369 . S
C3131 C3132 1.410 . S
C3131 C3139 1.503 . S
C3132 C3131 1.410 . S
C3132 C3133 1.392 . S
C3132 C3135 1.511 . S
C3133 C3129 1.376 . S
C3133 C3132 1.392 . S
C3133 H3145 0.929 . S
C3134 C3130 1.531 . S
C3134 H3146 0.960 . S
C3134 H3147 0.962 . S
C3134 H3148 0.960 . S
C3135 C3132 1.511 . S
C3135 H3149 0.961 . S
C3135 H3150 0.961 . S
C3135 H3151 0.961 . S
C3136 C3137 1.370 . S
C3136 C3138 1.363 . S
C3136 H3152 0.931 . S
C3137 C3136 1.370 . S
C3137 C3141 1.408 . S
C3138 C3136 1.363 . S
C3138 C3139 1.370 . S
C3138 C3142 1.524 . S
C3139 C3131 1.503 . S
C3139 C3138 1.370 . S
C3139 C3140 1.403 . S
C3140 C3139 1.403 . S
C3140 C3141 1.404 . S
C3140 C3143 1.539 . S
C3141 C3137 1.408 . S
C3141 C3140 1.404 . S
C3141 H3153 0.930 . S
C3142 C3138 1.524 . S
C3142 H3154 0.956 . S
C3142 H3155 0.961 . S
C3142 H3156 0.961 . S
C3143 C3140 1.539 . S
C3143 H3157 0.958 . S
C3143 H3158 0.961 . S
C3143 H3159 0.960 . S
H3144 C3128 0.931 . S
H3145 C3133 0.929 . S
H3146 C3134 0.960 . S
H3147 C3134 0.962 . S
H3148 C3134 0.960 . S
H3149 C3135 0.961 . S
H3150 C3135 0.961 . S
H3151 C3135 0.961 . S
H3152 C3136 0.931 . S
H3153 C3141 0.930 . S
H3154 C3142 0.956 . S
H3155 C3142 0.961 . S
H3156 C3142 0.961 . S
H3157 C3143 0.958 . S
H3158 C3143 0.961 . S
H3159 C3143 0.960 . S
C3160 C3161 1.391 . S
C3160 C3162 1.394 . S
C3160 H3176 0.931 . S
C3161 C3160 1.391 . S
C3161 C3165 1.376 . S
C3162 C3160 1.394 . S
C3162 C3163 1.369 . S
C3162 C3166 1.531 . S
C3163 C3162 1.369 . S
C3163 C3164 1.410 . S
C3163 C3171 1.503 . S
C3164 C3163 1.410 . S
C3164 C3165 1.392 . S
C3164 C3167 1.511 . S
C3165 C3161 1.376 . S
C3165 C3164 1.392 . S
C3165 H3177 0.929 . S
C3166 C3162 1.531 . S
C3166 H3178 0.960 . S
C3166 H3179 0.962 . S
C3166 H3180 0.960 . S
C3167 C3164 1.511 . S
C3167 H3181 0.961 . S
C3167 H3182 0.961 . S
C3167 H3183 0.961 . S
C3168 C3169 1.370 . S
C3168 C3170 1.363 . S
C3168 H3184 0.931 . S
C3169 C3168 1.370 . S
C3169 C3173 1.408 . S
C3170 C3168 1.363 . S
C3170 C3171 1.370 . S
C3170 C3174 1.524 . S
C3171 C3163 1.503 . S
C3171 C3170 1.370 . S
C3171 C3172 1.403 . S
C3172 C3171 1.403 . S
C3172 C3173 1.404 . S
C3172 C3175 1.539 . S
C3173 C3169 1.408 . S
C3173 C3172 1.404 . S
C3173 H3185 0.930 . S
C3174 C3170 1.524 . S
C3174 H3186 0.956 . S
C3174 H3187 0.961 . S
C3174 H3188 0.961 . S
C3175 C3172 1.539 . S
C3175 H3189 0.958 . S
C3175 H3190 0.961 . S
C3175 H3191 0.960 . S
H3176 C3160 0.931 . S
H3177 C3165 0.929 . S
H3178 C3166 0.960 . S
H3179 C3166 0.962 . S
H3180 C3166 0.960 . S
H3181 C3167 0.961 . S
H3182 C3167 0.961 . S
H3183 C3167 0.961 . S
H3184 C3168 0.931 . S
H3185 C3173 0.930 . S
H3186 C3174 0.956 . S
H3187 C3174 0.961 . S
H3188 C3174 0.961 . S
H3189 C3175 0.958 . S
H3190 C3175 0.961 . S
H3191 C3175 0.960 . S
C3192 C3193 1.391 . S
C3192 C3194 1.394 . S
C3192 H3208 0.931 . S
C3193 C3192 1.391 . S
C3193 C3197 1.376 . S
C3194 C3192 1.394 . S
C3194 C3195 1.369 . S
C3194 C3198 1.531 . S
C3195 C3194 1.369 . S
C3195 C3196 1.410 . S
C3195 C3203 1.503 . S
C3196 C3195 1.410 . S
C3196 C3197 1.392 . S
C3196 C3199 1.511 . S
C3197 C3193 1.376 . S
C3197 C3196 1.392 . S
C3197 H3209 0.929 . S
C3198 C3194 1.531 . S
C3198 H3210 0.960 . S
C3198 H3211 0.962 . S
C3198 H3212 0.960 . S
C3199 C3196 1.511 . S
C3199 H3213 0.961 . S
C3199 H3214 0.961 . S
C3199 H3215 0.961 . S
C3200 C3201 1.370 . S
C3200 C3202 1.363 . S
C3200 H3216 0.931 . S
C3201 C3200 1.370 . S
C3201 C3205 1.408 . S
C3202 C3200 1.363 . S
C3202 C3203 1.370 . S
C3202 C3206 1.524 . S
C3203 C3195 1.503 . S
C3203 C3202 1.370 . S
C3203 C3204 1.403 . S
C3204 C3203 1.403 . S
C3204 C3205 1.404 . S
C3204 C3207 1.539 . S
C3205 C3201 1.408 . S
C3205 C3204 1.404 . S
C3205 H3217 0.930 . S
C3206 C3202 1.524 . S
C3206 H3218 0.956 . S
C3206 H3219 0.961 . S
C3206 H3220 0.961 . S
C3207 C3204 1.539 . S
C3207 H3221 0.958 . S
C3207 H3222 0.961 . S
C3207 H3223 0.960 . S
H3208 C3192 0.931 . S
H3209 C3197 0.929 . S
H3210 C3198 0.960 . S
H3211 C3198 0.962 . S
H3212 C3198 0.960 . S
H3213 C3199 0.961 . S
H3214 C3199 0.961 . S
H3215 C3199 0.961 . S
H3216 C3200 0.931 . S
H3217 C3205 0.930 . S
H3218 C3206 0.956 . S
H3219 C3206 0.961 . S
H3220 C3206 0.961 . S
H3221 C3207 0.958 . S
H3222 C3207 0.961 . S
H3223 C3207 0.960 . S
C3224 C3225 1.391 . S
C3224 C3226 1.394 . S
C3224 H3240 0.931 . S
C3225 C3224 1.391 . S
C3225 C3229 1.376 . S
C3226 C3224 1.394 . S
C3226 C3227 1.369 . S
C3226 C3230 1.531 . S
C3227 C3226 1.369 . S
C3227 C3228 1.410 . S
C3227 C3235 1.503 . S
C3228 C3227 1.410 . S
C3228 C3229 1.392 . S
C3228 C3231 1.511 . S
C3229 C3225 1.376 . S
C3229 C3228 1.392 . S
C3229 H3241 0.929 . S
C3230 C3226 1.531 . S
C3230 H3242 0.960 . S
C3230 H3243 0.962 . S
C3230 H3244 0.960 . S
C3231 C3228 1.511 . S
C3231 H3245 0.961 . S
C3231 H3246 0.961 . S
C3231 H3247 0.961 . S
C3232 C3233 1.370 . S
C3232 C3234 1.363 . S
C3232 H3248 0.931 . S
C3233 C3232 1.370 . S
C3233 C3237 1.408 . S
C3234 C3232 1.363 . S
C3234 C3235 1.370 . S
C3234 C3238 1.524 . S
C3235 C3227 1.503 . S
C3235 C3234 1.370 . S
C3235 C3236 1.403 . S
C3236 C3235 1.403 . S
C3236 C3237 1.404 . S
C3236 C3239 1.539 . S
C3237 C3233 1.408 . S
C3237 C3236 1.404 . S
C3237 H3249 0.930 . S
C3238 C3234 1.524 . S
C3238 H3250 0.956 . S
C3238 H3251 0.961 . S
C3238 H3252 0.961 . S
C3239 C3236 1.539 . S
C3239 H3253 0.958 . S
C3239 H3254 0.961 . S
C3239 H3255 0.960 . S
H3240 C3224 0.931 . S
H3241 C3229 0.929 . S
H3242 C3230 0.960 . S
H3243 C3230 0.962 . S
H3244 C3230 0.960 . S
H3245 C3231 0.961 . S
H3246 C3231 0.961 . S
H3247 C3231 0.961 . S
H3248 C3232 0.931 . S
H3249 C3237 0.930 . S
H3250 C3238 0.956 . S
H3251 C3238 0.961 . S
H3252 C3238 0.961 . S
H3253 C3239 0.958 . S
H3254 C3239 0.961 . S
H3255 C3239 0.960 . S
C3256 C3257 1.391 . S
C3256 C3258 1.394 . S
C3256 H3272 0.931 . S
C3257 C3256 1.391 . S
C3257 C3261 1.376 . S
C3258 C3256 1.394 . S
C3258 C3259 1.369 . S
C3258 C3262 1.531 . S
C3259 C3258 1.369 . S
C3259 C3260 1.410 . S
C3259 C3267 1.503 . S
C3260 C3259 1.410 . S
C3260 C3261 1.392 . S
C3260 C3263 1.511 . S
C3261 C3257 1.376 . S
C3261 C3260 1.392 . S
C3261 H3273 0.929 . S
C3262 C3258 1.531 . S
C3262 H3274 0.960 . S
C3262 H3275 0.962 . S
C3262 H3276 0.960 . S
C3263 C3260 1.511 . S
C3263 H3277 0.961 . S
C3263 H3278 0.961 . S
C3263 H3279 0.961 . S
C3264 C3265 1.370 . S
C3264 C3266 1.363 . S
C3264 H3280 0.931 . S
C3265 C3264 1.370 . S
C3265 C3269 1.408 . S
C3266 C3264 1.363 . S
C3266 C3267 1.370 . S
C3266 C3270 1.524 . S
C3267 C3259 1.503 . S
C3267 C3266 1.370 . S
C3267 C3268 1.403 . S
C3268 C3267 1.403 . S
C3268 C3269 1.404 . S
C3268 C3271 1.539 . S
C3269 C3265 1.408 . S
C3269 C3268 1.404 . S
C3269 H3281 0.930 . S
C3270 C3266 1.524 . S
C3270 H3282 0.956 . S
C3270 H3283 0.961 . S
C3270 H3284 0.961 . S
C3271 C3268 1.539 . S
C3271 H3285 0.958 . S
C3271 H3286 0.961 . S
C3271 H3287 0.960 . S
H3272 C3256 0.931 . S
H3273 C3261 0.929 . S
H3274 C3262 0.960 . S
H3275 C3262 0.962 . S
H3276 C3262 0.960 . S
H3277 C3263 0.961 . S
H3278 C3263 0.961 . S
H3279 C3263 0.961 . S
H3280 C3264 0.931 . S
H3281 C3269 0.930 . S
H3282 C3270 0.956 . S
H3283 C3270 0.961 . S
H3284 C3270 0.961 . S
H3285 C3271 0.958 . S
H3286 C3271 0.961 . S
H3287 C3271 0.960 . S
C3288 C3289 1.391 . S
C3288 C3290 1.394 . S
C3288 H3304 0.931 . S
C3289 C3288 1.391 . S
C3289 C3293 1.376 . S
C3290 C3288 1.394 . S
C3290 C3291 1.369 . S
C3290 C3294 1.531 . S
C3291 C3290 1.369 . S
C3291 C3292 1.410 . S
C3291 C3299 1.503 . S
C3292 C3291 1.410 . S
C3292 C3293 1.392 . S
C3292 C3295 1.511 . S
C3293 C3289 1.376 . S
C3293 C3292 1.392 . S
C3293 H3305 0.929 . S
C3294 C3290 1.531 . S
C3294 H3306 0.960 . S
C3294 H3307 0.962 . S
C3294 H3308 0.960 . S
C3295 C3292 1.511 . S
C3295 H3309 0.961 . S
C3295 H3310 0.961 . S
C3295 H3311 0.961 . S
C3296 C3297 1.370 . S
C3296 C3298 1.363 . S
C3296 H3312 0.931 . S
C3297 C3296 1.370 . S
C3297 C3301 1.408 . S
C3298 C3296 1.363 . S
C3298 C3299 1.370 . S
C3298 C3302 1.524 . S
C3299 C3291 1.503 . S
C3299 C3298 1.370 . S
C3299 C3300 1.403 . S
C3300 C3299 1.403 . S
C3300 C3301 1.404 . S
C3300 C3303 1.539 . S
C3301 C3297 1.408 . S
C3301 C3300 1.404 . S
C3301 H3313 0.930 . S
C3302 C3298 1.524 . S
C3302 H3314 0.956 . S
C3302 H3315 0.961 . S
C3302 H3316 0.961 . S
C3303 C3300 1.539 . S
C3303 H3317 0.958 . S
C3303 H3318 0.961 . S
C3303 H3319 0.960 . S
H3304 C3288 0.931 . S
H3305 C3293 0.929 . S
H3306 C3294 0.960 . S
H3307 C3294 0.962 . S
H3308 C3294 0.960 . S
H3309 C3295 0.961 . S
H3310 C3295 0.961 . S
H3311 C3295 0.961 . S
H3312 C3296 0.931 . S
H3313 C3301 0.930 . S
H3314 C3302 0.956 . S
H3315 C3302 0.961 . S
H3316 C3302 0.961 . S
H3317 C3303 0.958 . S
H3318 C3303 0.961 . S
H3319 C3303 0.960 . S
C3320 C3321 1.391 . S
C3320 C3322 1.394 . S
C3320 H3336 0.931 . S
C3321 C3320 1.391 . S
C3321 C3325 1.376 . S
C3322 C3320 1.394 . S
C3322 C3323 1.369 . S
C3322 C3326 1.531 . S
C3323 C3322 1.369 . S
C3323 C3324 1.410 . S
C3323 C3331 1.503 . S
C3324 C3323 1.410 . S
C3324 C3325 1.392 . S
C3324 C3327 1.511 . S
C3325 C3321 1.376 . S
C3325 C3324 1.392 . S
C3325 H3337 0.929 . S
C3326 C3322 1.531 . S
C3326 H3338 0.960 . S
C3326 H3339 0.962 . S
C3326 H3340 0.960 . S
C3327 C3324 1.511 . S
C3327 H3341 0.961 . S
C3327 H3342 0.961 . S
C3327 H3343 0.961 . S
C3328 C3329 1.370 . S
C3328 C3330 1.363 . S
C3328 H3344 0.931 . S
C3329 C3328 1.370 . S
C3329 C3333 1.408 . S
C3330 C3328 1.363 . S
C3330 C3331 1.370 . S
C3330 C3334 1.524 . S
C3331 C3323 1.503 . S
C3331 C3330 1.370 . S
C3331 C3332 1.403 . S
C3332 C3331 1.403 . S
C3332 C3333 1.404 . S
C3332 C3335 1.539 . S
C3333 C3329 1.408 . S
C3333 C3332 1.404 . S
C3333 H3345 0.930 . S
C3334 C3330 1.524 . S
C3334 H3346 0.956 . S
C3334 H3347 0.961 . S
C3334 H3348 0.961 . S
C3335 C3332 1.539 . S
C3335 H3349 0.958 . S
C3335 H3350 0.961 . S
C3335 H3351 0.960 . S
H3336 C3320 0.931 . S
H3337 C3325 0.929 . S
H3338 C3326 0.960 . S
H3339 C3326 0.962 . S
H3340 C3326 0.960 . S
H3341 C3327 0.961 . S
H3342 C3327 0.961 . S
H3343 C3327 0.961 . S
H3344 C3328 0.931 . S
H3345 C3333 0.930 . S
H3346 C3334 0.956 . S
H3347 C3334 0.961 . S
H3348 C3334 0.961 . S
H3349 C3335 0.958 . S
H3350 C3335 0.961 . S
H3351 C3335 0.960 . S
C3352 C3353 1.391 . S
C3352 C3354 1.394 . S
C3352 H3368 0.931 . S
C3353 C3352 1.391 . S
C3353 C3357 1.376 . S
C3354 C3352 1.394 . S
C3354 C3355 1.369 . S
C3354 C3358 1.531 . S
C3355 C3354 1.369 . S
C3355 C3356 1.410 . S
C3355 C3363 1.503 . S
C3356 C3355 1.410 . S
C3356 C3357 1.392 . S
C3356 C3359 1.511 . S
C3357 C3353 1.376 . S
C3357 C3356 1.392 . S
C3357 H3369 0.929 . S
C3358 C3354 1.531 . S
C3358 H3370 0.960 . S
C3358 H3371 0.962 . S
C3358 H3372 0.960 . S
C3359 C3356 1.511 . S
C3359 H3373 0.961 . S
C3359 H3374 0.961 . S
C3359 H3375 0.961 . S
C3360 C3361 1.370 . S
C3360 C3362 1.363 . S
C3360 H3376 0.931 . S
C3361 C3360 1.370 . S
C3361 C3365 1.408 . S
C3362 C3360 1.363 . S
C3362 C3363 1.370 . S
C3362 C3366 1.524 . S
C3363 C3355 1.503 . S
C3363 C3362 1.370 . S
C3363 C3364 1.403 . S
C3364 C3363 1.403 . S
C3364 C3365 1.404 . S
C3364 C3367 1.539 . S
C3365 C3361 1.408 . S
C3365 C3364 1.404 . S
C3365 H3377 0.930 . S
C3366 C3362 1.524 . S
C3366 H3378 0.956 . S
C3366 H3379 0.961 . S
C3366 H3380 0.961 . S
C3367 C3364 1.539 . S
C3367 H3381 0.958 . S
C3367 H3382 0.961 . S
C3367 H3383 0.960 . S
H3368 C3352 0.931 . S
H3369 C3357 0.929 . S
H3370 C3358 0.960 . S
H3371 C3358 0.962 . S
H3372 C3358 0.960 . S
H3373 C3359 0.961 . S
H3374 C3359 0.961 . S
H3375 C3359 0.961 . S
H3376 C3360 0.931 . S
H3377 C3365 0.930 . S
H3378 C3366 0.956 . S
H3379 C3366 0.961 . S
H3380 C3366 0.961 . S
H3381 C3367 0.958 . S
H3382 C3367 0.961 . S
H3383 C3367 0.960 . S
C3384 C3385 1.391 . S
C3384 C3386 1.394 . S
C3384 H3400 0.931 . S
C3385 C3384 1.391 . S
C3385 C3389 1.376 . S
C3386 C3384 1.394 . S
C3386 C3387 1.369 . S
C3386 C3390 1.531 . S
C3387 C3386 1.369 . S
C3387 C3388 1.410 . S
C3387 C3395 1.503 . S
C3388 C3387 1.410 . S
C3388 C3389 1.392 . S
C3388 C3391 1.511 . S
C3389 C3385 1.376 . S
C3389 C3388 1.392 . S
C3389 H3401 0.929 . S
C3390 C3386 1.531 . S
C3390 H3402 0.960 . S
C3390 H3403 0.962 . S
C3390 H3404 0.960 . S
C3391 C3388 1.511 . S
C3391 H3405 0.961 . S
C3391 H3406 0.961 . S
C3391 H3407 0.961 . S
C3392 C3393 1.370 . S
C3392 C3394 1.363 . S
C3392 H3408 0.931 . S
C3393 C3392 1.370 . S
C3393 C3397 1.408 . S
C3394 C3392 1.363 . S
C3394 C3395 1.370 . S
C3394 C3398 1.524 . S
C3395 C3387 1.503 . S
C3395 C3394 1.370 . S
C3395 C3396 1.403 . S
C3396 C3395 1.403 . S
C3396 C3397 1.404 . S
C3396 C3399 1.539 . S
C3397 C3393 1.408 . S
C3397 C3396 1.404 . S
C3397 H3409 0.930 . S
C3398 C3394 1.524 . S
C3398 H3410 0.956 . S
C3398 H3411 0.961 . S
C3398 H3412 0.961 . S
C3399 C3396 1.539 . S
C3399 H3413 0.958 . S
C3399 H3414 0.961 . S
C3399 H3415 0.960 . S
H3400 C3384 0.931 . S
H3401 C3389 0.929 . S
H3402 C3390 0.960 . S
H3403 C3390 0.962 . S
H3404 C3390 0.960 . S
H3405 C3391 0.961 . S
H3406 C3391 0.961 . S
H3407 C3391 0.961 . S
H3408 C3392 0.931 . S
H3409 C3397 0.930 . S
H3410 C3398 0.956 . S
H3411 C3398 0.961 . S
H3412 C3398 0.961 . S
H3413 C3399 0.958 . S
H3414 C3399 0.961 . S
H3415 C3399 0.960 . S
C3416 C3417 1.391 . S
C3416 C3418 1.394 . S
C3416 H3432 0.931 . S
C3417 C3416 1.391 . S
C3417 C3421 1.376 . S
C3418 C3416 1.394 . S
C3418 C3419 1.369 . S
C3418 C3422 1.531 . S
C3419 C3418 1.369 . S
C3419 C3420 1.410 . S
C3419 C3427 1.503 . S
C3420 C3419 1.410 . S
C3420 C3421 1.392 . S
C3420 C3423 1.511 . S
C3421 C3417 1.376 . S
C3421 C3420 1.392 . S
C3421 H3433 0.929 . S
C3422 C3418 1.531 . S
C3422 H3434 0.960 . S
C3422 H3435 0.962 . S
C3422 H3436 0.960 . S
C3423 C3420 1.511 . S
C3423 H3437 0.961 . S
C3423 H3438 0.961 . S
C3423 H3439 0.961 . S
C3424 C3425 1.370 . S
C3424 C3426 1.363 . S
C3424 H3440 0.931 . S
C3425 C3424 1.370 . S
C3425 C3429 1.408 . S
C3426 C3424 1.363 . S
C3426 C3427 1.370 . S
C3426 C3430 1.524 . S
C3427 C3419 1.503 . S
C3427 C3426 1.370 . S
C3427 C3428 1.403 . S
C3428 C3427 1.403 . S
C3428 C3429 1.404 . S
C3428 C3431 1.539 . S
C3429 C3425 1.408 . S
C3429 C3428 1.404 . S
C3429 H3441 0.930 . S
C3430 C3426 1.524 . S
C3430 H3442 0.956 . S
C3430 H3443 0.961 . S
C3430 H3444 0.961 . S
C3431 C3428 1.539 . S
C3431 H3445 0.958 . S
C3431 H3446 0.961 . S
C3431 H3447 0.960 . S
H3432 C3416 0.931 . S
H3433 C3421 0.929 . S
H3434 C3422 0.960 . S
H3435 C3422 0.962 . S
H3436 C3422 0.960 . S
H3437 C3423 0.961 . S
H3438 C3423 0.961 . S
H3439 C3423 0.961 . S
H3440 C3424 0.931 . S
H3441 C3429 0.930 . S
H3442 C3430 0.956 . S
H3443 C3430 0.961 . S
H3444 C3430 0.961 . S
H3445 C3431 0.958 . S
H3446 C3431 0.961 . S
H3447 C3431 0.960 . S
C3448 C3449 1.391 . S
C3448 C3450 1.394 . S
C3448 H3464 0.931 . S
C3449 C3448 1.391 . S
C3449 C3453 1.376 . S
C3450 C3448 1.394 . S
C3450 C3451 1.369 . S
C3450 C3454 1.531 . S
C3451 C3450 1.369 . S
C3451 C3452 1.410 . S
C3451 C3459 1.503 . S
C3452 C3451 1.410 . S
C3452 C3453 1.392 . S
C3452 C3455 1.511 . S
C3453 C3449 1.376 . S
C3453 C3452 1.392 . S
C3453 H3465 0.929 . S
C3454 C3450 1.531 . S
C3454 H3466 0.960 . S
C3454 H3467 0.962 . S
C3454 H3468 0.960 . S
C3455 C3452 1.511 . S
C3455 H3469 0.961 . S
C3455 H3470 0.961 . S
C3455 H3471 0.961 . S
C3456 C3457 1.370 . S
C3456 C3458 1.363 . S
C3456 H3472 0.931 . S
C3457 C3456 1.370 . S
C3457 C3461 1.408 . S
C3458 C3456 1.363 . S
C3458 C3459 1.370 . S
C3458 C3462 1.524 . S
C3459 C3451 1.503 . S
C3459 C3458 1.370 . S
C3459 C3460 1.403 . S
C3460 C3459 1.403 . S
C3460 C3461 1.404 . S
C3460 C3463 1.539 . S
C3461 C3457 1.408 . S
C3461 C3460 1.404 . S
C3461 H3473 0.930 . S
C3462 C3458 1.524 . S
C3462 H3474 0.956 . S
C3462 H3475 0.961 . S
C3462 H3476 0.961 . S
C3463 C3460 1.539 . S
C3463 H3477 0.958 . S
C3463 H3478 0.961 . S
C3463 H3479 0.960 . S
H3464 C3448 0.931 . S
H3465 C3453 0.929 . S
H3466 C3454 0.960 . S
H3467 C3454 0.962 . S
H3468 C3454 0.960 . S
H3469 C3455 0.961 . S
H3470 C3455 0.961 . S
H3471 C3455 0.961 . S
H3472 C3456 0.931 . S
H3473 C3461 0.930 . S
H3474 C3462 0.956 . S
H3475 C3462 0.961 . S
H3476 C3462 0.961 . S
H3477 C3463 0.958 . S
H3478 C3463 0.961 . S
H3479 C3463 0.960 . S
C3480 C3481 1.391 . S
C3480 C3482 1.394 . S
C3480 H3496 0.931 . S
C3481 C3480 1.391 . S
C3481 C3485 1.376 . S
C3482 C3480 1.394 . S
C3482 C3483 1.369 . S
C3482 C3486 1.531 . S
C3483 C3482 1.369 . S
C3483 C3484 1.410 . S
C3483 C3491 1.503 . S
C3484 C3483 1.410 . S
C3484 C3485 1.392 . S
C3484 C3487 1.511 . S
C3485 C3481 1.376 . S
C3485 C3484 1.392 . S
C3485 H3497 0.929 . S
C3486 C3482 1.531 . S
C3486 H3498 0.960 . S
C3486 H3499 0.962 . S
C3486 H3500 0.960 . S
C3487 C3484 1.511 . S
C3487 H3501 0.961 . S
C3487 H3502 0.961 . S
C3487 H3503 0.961 . S
C3488 C3489 1.370 . S
C3488 C3490 1.363 . S
C3488 H3504 0.931 . S
C3489 C3488 1.370 . S
C3489 C3493 1.408 . S
C3490 C3488 1.363 . S
C3490 C3491 1.370 . S
C3490 C3494 1.524 . S
C3491 C3483 1.503 . S
C3491 C3490 1.370 . S
C3491 C3492 1.403 . S
C3492 C3491 1.403 . S
C3492 C3493 1.404 . S
C3492 C3495 1.539 . S
C3493 C3489 1.408 . S
C3493 C3492 1.404 . S
C3493 H3505 0.930 . S
C3494 C3490 1.524 . S
C3494 H3506 0.956 . S
C3494 H3507 0.961 . S
C3494 H3508 0.961 . S
C3495 C3492 1.539 . S
C3495 H3509 0.958 . S
C3495 H3510 0.961 . S
C3495 H3511 0.960 . S
H3496 C3480 0.931 . S
H3497 C3485 0.929 . S
H3498 C3486 0.960 . S
H3499 C3486 0.962 . S
H3500 C3486 0.960 . S
H3501 C3487 0.961 . S
H3502 C3487 0.961 . S
H3503 C3487 0.961 . S
H3504 C3488 0.931 . S
H3505 C3493 0.930 . S
H3506 C3494 0.956 . S
H3507 C3494 0.961 . S
H3508 C3494 0.961 . S
H3509 C3495 0.958 . S
H3510 C3495 0.961 . S
H3511 C3495 0.960 . S
C3512 C3513 1.391 . S
C3512 C3514 1.394 . S
C3512 H3528 0.931 . S
C3513 C3512 1.391 . S
C3513 C3517 1.376 . S
C3514 C3512 1.394 . S
C3514 C3515 1.369 . S
C3514 C3518 1.531 . S
C3515 C3514 1.369 . S
C3515 C3516 1.410 . S
C3515 C3523 1.503 . S
C3516 C3515 1.410 . S
C3516 C3517 1.392 . S
C3516 C3519 1.511 . S
C3517 C3513 1.376 . S
C3517 C3516 1.392 . S
C3517 H3529 0.929 . S
C3518 C3514 1.531 . S
C3518 H3530 0.960 . S
C3518 H3531 0.962 . S
C3518 H3532 0.960 . S
C3519 C3516 1.511 . S
C3519 H3533 0.961 . S
C3519 H3534 0.961 . S
C3519 H3535 0.961 . S
C3520 C3521 1.370 . S
C3520 C3522 1.363 . S
C3520 H3536 0.931 . S
C3521 C3520 1.370 . S
C3521 C3525 1.408 . S
C3522 C3520 1.363 . S
C3522 C3523 1.370 . S
C3522 C3526 1.524 . S
C3523 C3515 1.503 . S
C3523 C3522 1.370 . S
C3523 C3524 1.403 . S
C3524 C3523 1.403 . S
C3524 C3525 1.404 . S
C3524 C3527 1.539 . S
C3525 C3521 1.408 . S
C3525 C3524 1.404 . S
C3525 H3537 0.930 . S
C3526 C3522 1.524 . S
C3526 H3538 0.956 . S
C3526 H3539 0.961 . S
C3526 H3540 0.961 . S
C3527 C3524 1.539 . S
C3527 H3541 0.958 . S
C3527 H3542 0.961 . S
C3527 H3543 0.960 . S
H3528 C3512 0.931 . S
H3529 C3517 0.929 . S
H3530 C3518 0.960 . S
H3531 C3518 0.962 . S
H3532 C3518 0.960 . S
H3533 C3519 0.961 . S
H3534 C3519 0.961 . S
H3535 C3519 0.961 . S
H3536 C3520 0.931 . S
H3537 C3525 0.930 . S
H3538 C3526 0.956 . S
H3539 C3526 0.961 . S
H3540 C3526 0.961 . S
H3541 C3527 0.958 . S
H3542 C3527 0.961 . S
H3543 C3527 0.960 . S
C3544 C3545 1.391 . S
C3544 C3546 1.394 . S
C3544 H3560 0.931 . S
C3545 C3544 1.391 . S
C3545 C3549 1.376 . S
C3546 C3544 1.394 . S
C3546 C3547 1.369 . S
C3546 C3550 1.531 . S
C3547 C3546 1.369 . S
C3547 C3548 1.410 . S
C3547 C3555 1.503 . S
C3548 C3547 1.410 . S
C3548 C3549 1.392 . S
C3548 C3551 1.511 . S
C3549 C3545 1.376 . S
C3549 C3548 1.392 . S
C3549 H3561 0.929 . S
C3550 C3546 1.531 . S
C3550 H3562 0.960 . S
C3550 H3563 0.962 . S
C3550 H3564 0.960 . S
C3551 C3548 1.511 . S
C3551 H3565 0.961 . S
C3551 H3566 0.961 . S
C3551 H3567 0.961 . S
C3552 C3553 1.370 . S
C3552 C3554 1.363 . S
C3552 H3568 0.931 . S
C3553 C3552 1.370 . S
C3553 C3557 1.408 . S
C3554 C3552 1.363 . S
C3554 C3555 1.370 . S
C3554 C3558 1.524 . S
C3555 C3547 1.503 . S
C3555 C3554 1.370 . S
C3555 C3556 1.403 . S
C3556 C3555 1.403 . S
C3556 C3557 1.404 . S
C3556 C3559 1.539 . S
C3557 C3553 1.408 . S
C3557 C3556 1.404 . S
C3557 H3569 0.930 . S
C3558 C3554 1.524 . S
C3558 H3570 0.956 . S
C3558 H3571 0.961 . S
C3558 H3572 0.961 . S
C3559 C3556 1.539 . S
C3559 H3573 0.958 . S
C3559 H3574 0.961 . S
C3559 H3575 0.960 . S
H3560 C3544 0.931 . S
H3561 C3549 0.929 . S
H3562 C3550 0.960 . S
H3563 C3550 0.962 . S
H3564 C3550 0.960 . S
H3565 C3551 0.961 . S
H3566 C3551 0.961 . S
H3567 C3551 0.961 . S
H3568 C3552 0.931 . S
H3569 C3557 0.930 . S
H3570 C3558 0.956 . S
H3571 C3558 0.961 . S
H3572 C3558 0.961 . S
H3573 C3559 0.958 . S
H3574 C3559 0.961 . S
H3575 C3559 0.960 . S
C3576 C3577 1.391 . S
C3576 C3578 1.394 . S
C3576 H3592 0.931 . S
C3577 C3576 1.391 . S
C3577 C3581 1.376 . S
C3578 C3576 1.394 . S
C3578 C3579 1.369 . S
C3578 C3582 1.531 . S
C3579 C3578 1.369 . S
C3579 C3580 1.410 . S
C3579 C3587 1.503 . S
C3580 C3579 1.410 . S
C3580 C3581 1.392 . S
C3580 C3583 1.511 . S
C3581 C3577 1.376 . S
C3581 C3580 1.392 . S
C3581 H3593 0.929 . S
C3582 C3578 1.531 . S
C3582 H3594 0.960 . S
C3582 H3595 0.962 . S
C3582 H3596 0.960 . S
C3583 C3580 1.511 . S
C3583 H3597 0.961 . S
C3583 H3598 0.961 . S
C3583 H3599 0.961 . S
C3584 C3585 1.370 . S
C3584 C3586 1.363 . S
C3584 H3600 0.931 . S
C3585 C3584 1.370 . S
C3585 C3589 1.408 . S
C3586 C3584 1.363 . S
C3586 C3587 1.370 . S
C3586 C3590 1.524 . S
C3587 C3579 1.503 . S
C3587 C3586 1.370 . S
C3587 C3588 1.403 . S
C3588 C3587 1.403 . S
C3588 C3589 1.404 . S
C3588 C3591 1.539 . S
C3589 C3585 1.408 . S
C3589 C3588 1.404 . S
C3589 H3601 0.930 . S
C3590 C3586 1.524 . S
C3590 H3602 0.956 . S
C3590 H3603 0.961 . S
C3590 H3604 0.961 . S
C3591 C3588 1.539 . S
C3591 H3605 0.958 . S
C3591 H3606 0.961 . S
C3591 H3607 0.960 . S
H3592 C3576 0.931 . S
H3593 C3581 0.929 . S
H3594 C3582 0.960 . S
H3595 C3582 0.962 . S
H3596 C3582 0.960 . S
H3597 C3583 0.961 . S
H3598 C3583 0.961 . S
H3599 C3583 0.961 . S
H3600 C3584 0.931 . S
H3601 C3589 0.930 . S
H3602 C3590 0.956 . S
H3603 C3590 0.961 . S
H3604 C3590 0.961 . S
H3605 C3591 0.958 . S
H3606 C3591 0.961 . S
H3607 C3591 0.960 . S
C3608 C3609 1.391 . S
C3608 C3610 1.394 . S
C3608 H3624 0.931 . S
C3609 C3608 1.391 . S
C3609 C3613 1.376 . S
C3610 C3608 1.394 . S
C3610 C3611 1.369 . S
C3610 C3614 1.531 . S
C3611 C3610 1.369 . S
C3611 C3612 1.410 . S
C3611 C3619 1.503 . S
C3612 C3611 1.410 . S
C3612 C3613 1.392 . S
C3612 C3615 1.511 . S
C3613 C3609 1.376 . S
C3613 C3612 1.392 . S
C3613 H3625 0.929 . S
C3614 C3610 1.531 . S
C3614 H3626 0.960 . S
C3614 H3627 0.962 . S
C3614 H3628 0.960 . S
C3615 C3612 1.511 . S
C3615 H3629 0.961 . S
C3615 H3630 0.961 . S
C3615 H3631 0.961 . S
C3616 C3617 1.370 . S
C3616 C3618 1.363 . S
C3616 H3632 0.931 . S
C3617 C3616 1.370 . S
C3617 C3621 1.408 . S
C3618 C3616 1.363 . S
C3618 C3619 1.370 . S
C3618 C3622 1.524 . S
C3619 C3611 1.503 . S
C3619 C3618 1.370 . S
C3619 C3620 1.403 . S
C3620 C3619 1.403 . S
C3620 C3621 1.404 . S
C3620 C3623 1.539 . S
C3621 C3617 1.408 . S
C3621 C3620 1.404 . S
C3621 H3633 0.930 . S
C3622 C3618 1.524 . S
C3622 H3634 0.956 . S
C3622 H3635 0.961 . S
C3622 H3636 0.961 . S
C3623 C3620 1.539 . S
C3623 H3637 0.958 . S
C3623 H3638 0.961 . S
C3623 H3639 0.960 . S
H3624 C3608 0.931 . S
H3625 C3613 0.929 . S
H3626 C3614 0.960 . S
H3627 C3614 0.962 . S
H3628 C3614 0.960 . S
H3629 C3615 0.961 . S
H3630 C3615 0.961 . S
H3631 C3615 0.961 . S
H3632 C3616 0.931 . S
H3633 C3621 0.930 . S
H3634 C3622 0.956 . S
H3635 C3622 0.961 . S
H3636 C3622 0.961 . S
H3637 C3623 0.958 . S
H3638 C3623 0.961 . S
H3639 C3623 0.960 . S
C3640 C3641 1.391 . S
C3640 C3642 1.394 . S
C3640 H3656 0.931 . S
C3641 C3640 1.391 . S
C3641 C3645 1.376 . S
C3642 C3640 1.394 . S
C3642 C3643 1.369 . S
C3642 C3646 1.531 . S
C3643 C3642 1.369 . S
C3643 C3644 1.410 . S
C3643 C3651 1.503 . S
C3644 C3643 1.410 . S
C3644 C3645 1.392 . S
C3644 C3647 1.511 . S
C3645 C3641 1.376 . S
C3645 C3644 1.392 . S
C3645 H3657 0.929 . S
C3646 C3642 1.531 . S
C3646 H3658 0.960 . S
C3646 H3659 0.962 . S
C3646 H3660 0.960 . S
C3647 C3644 1.511 . S
C3647 H3661 0.961 . S
C3647 H3662 0.961 . S
C3647 H3663 0.961 . S
C3648 C3649 1.370 . S
C3648 C3650 1.363 . S
C3648 H3664 0.931 . S
C3649 C3648 1.370 . S
C3649 C3653 1.408 . S
C3650 C3648 1.363 . S
C3650 C3651 1.370 . S
C3650 C3654 1.524 . S
C3651 C3643 1.503 . S
C3651 C3650 1.370 . S
C3651 C3652 1.403 . S
C3652 C3651 1.403 . S
C3652 C3653 1.404 . S
C3652 C3655 1.539 . S
C3653 C3649 1.408 . S
C3653 C3652 1.404 . S
C3653 H3665 0.930 . S
C3654 C3650 1.524 . S
C3654 H3666 0.956 . S
C3654 H3667 0.961 . S
C3654 H3668 0.961 . S
C3655 C3652 1.539 . S
C3655 H3669 0.958 . S
C3655 H3670 0.961 . S
C3655 H3671 0.960 . S
H3656 C3640 0.931 . S
H3657 C3645 0.929 . S
H3658 C3646 0.960 . S
H3659 C3646 0.962 . S
H3660 C3646 0.960 . S
H3661 C3647 0.961 . S
H3662 C3647 0.961 . S
H3663 C3647 0.961 . S
H3664 C3648 0.931 . S
H3665 C3653 0.930 . S
H3666 C3654 0.956 . S
H3667 C3654 0.961 . S
H3668 C3654 0.961 . S
H3669 C3655 0.958 . S
H3670 C3655 0.961 . S
H3671 C3655 0.960 . S
C3672 C3673 1.391 . S
C3672 C3674 1.394 . S
C3672 H3688 0.931 . S
C3673 C3672 1.391 . S
C3673 C3677 1.376 . S
C3674 C3672 1.394 . S
C3674 C3675 1.369 . S
C3674 C3678 1.531 . S
C3675 C3674 1.369 . S
C3675 C3676 1.410 . S
C3675 C3683 1.503 . S
C3676 C3675 1.410 . S
C3676 C3677 1.392 . S
C3676 C3679 1.511 . S
C3677 C3673 1.376 . S
C3677 C3676 1.392 . S
C3677 H3689 0.929 . S
C3678 C3674 1.531 . S
C3678 H3690 0.960 . S
C3678 H3691 0.962 . S
C3678 H3692 0.960 . S
C3679 C3676 1.511 . S
C3679 H3693 0.961 . S
C3679 H3694 0.961 . S
C3679 H3695 0.961 . S
C3680 C3681 1.370 . S
C3680 C3682 1.363 . S
C3680 H3696 0.931 . S
C3681 C3680 1.370 . S
C3681 C3685 1.408 . S
C3682 C3680 1.363 . S
C3682 C3683 1.370 . S
C3682 C3686 1.524 . S
C3683 C3675 1.503 . S
C3683 C3682 1.370 . S
C3683 C3684 1.403 . S
C3684 C3683 1.403 . S
C3684 C3685 1.404 . S
C3684 C3687 1.539 . S
C3685 C3681 1.408 . S
C3685 C3684 1.404 . S
C3685 H3697 0.930 . S
C3686 C3682 1.524 . S
C3686 H3698 0.956 . S
C3686 H3699 0.961 . S
C3686 H3700 0.961 . S
C3687 C3684 1.539 . S
C3687 H3701 0.958 . S
C3687 H3702 0.961 . S
C3687 H3703 0.960 . S
H3688 C3672 0.931 . S
H3689 C3677 0.929 . S
H3690 C3678 0.960 . S
H3691 C3678 0.962 . S
H3692 C3678 0.960 . S
H3693 C3679 0.961 . S
H3694 C3679 0.961 . S
H3695 C3679 0.961 . S
H3696 C3680 0.931 . S
H3697 C3685 0.930 . S
H3698 C3686 0.956 . S
H3699 C3686 0.961 . S
H3700 C3686 0.961 . S
H3701 C3687 0.958 . S
H3702 C3687 0.961 . S
H3703 C3687 0.960 . S
C3704 C3705 1.391 . S
C3704 C3706 1.394 . S
C3704 H3720 0.931 . S
C3705 C3704 1.391 . S
C3705 C3709 1.376 . S
C3706 C3704 1.394 . S
C3706 C3707 1.369 . S
C3706 C3710 1.531 . S
C3707 C3706 1.369 . S
C3707 C3708 1.410 . S
C3707 C3715 1.503 . S
C3708 C3707 1.410 . S
C3708 C3709 1.392 . S
C3708 C3711 1.511 . S
C3709 C3705 1.376 . S
C3709 C3708 1.392 . S
C3709 H3721 0.929 . S
C3710 C3706 1.531 . S
C3710 H3722 0.960 . S
C3710 H3723 0.962 . S
C3710 H3724 0.960 . S
C3711 C3708 1.511 . S
C3711 H3725 0.961 . S
C3711 H3726 0.961 . S
C3711 H3727 0.961 . S
C3712 C3713 1.370 . S
C3712 C3714 1.363 . S
C3712 H3728 0.931 . S
C3713 C3712 1.370 . S
C3713 C3717 1.408 . S
C3714 C3712 1.363 . S
C3714 C3715 1.370 . S
C3714 C3718 1.524 . S
C3715 C3707 1.503 . S
C3715 C3714 1.370 . S
C3715 C3716 1.403 . S
C3716 C3715 1.403 . S
C3716 C3717 1.404 . S
C3716 C3719 1.539 . S
C3717 C3713 1.408 . S
C3717 C3716 1.404 . S
C3717 H3729 0.930 . S
C3718 C3714 1.524 . S
C3718 H3730 0.956 . S
C3718 H3731 0.961 . S
C3718 H3732 0.961 . S
C3719 C3716 1.539 . S
C3719 H3733 0.958 . S
C3719 H3734 0.961 . S
C3719 H3735 0.960 . S
H3720 C3704 0.931 . S
H3721 C3709 0.929 . S
H3722 C3710 0.960 . S
H3723 C3710 0.962 . S
H3724 C3710 0.960 . S
H3725 C3711 0.961 . S
H3726 C3711 0.961 . S
H3727 C3711 0.961 . S
H3728 C3712 0.931 . S
H3729 C3717 0.930 . S
H3730 C3718 0.956 . S
H3731 C3718 0.961 . S
H3732 C3718 0.961 . S
H3733 C3719 0.958 . S
H3734 C3719 0.961 . S
H3735 C3719 0.960 . S
C3736 C3737 1.391 . S
C3736 C3738 1.394 . S
C3736 H3752 0.931 . S
C3737 C3736 1.391 . S
C3737 C3741 1.376 . S
C3738 C3736 1.394 . S
C3738 C3739 1.369 . S
C3738 C3742 1.531 . S
C3739 C3738 1.369 . S
C3739 C3740 1.410 . S
C3739 C3747 1.503 . S
C3740 C3739 1.410 . S
C3740 C3741 1.392 . S
C3740 C3743 1.511 . S
C3741 C3737 1.376 . S
C3741 C3740 1.392 . S
C3741 H3753 0.929 . S
C3742 C3738 1.531 . S
C3742 H3754 0.960 . S
C3742 H3755 0.962 . S
C3742 H3756 0.960 . S
C3743 C3740 1.511 . S
C3743 H3757 0.961 . S
C3743 H3758 0.961 . S
C3743 H3759 0.961 . S
C3744 C3745 1.370 . S
C3744 C3746 1.363 . S
C3744 H3760 0.931 . S
C3745 C3744 1.370 . S
C3745 C3749 1.408 . S
C3746 C3744 1.363 . S
C3746 C3747 1.370 . S
C3746 C3750 1.524 . S
C3747 C3739 1.503 . S
C3747 C3746 1.370 . S
C3747 C3748 1.403 . S
C3748 C3747 1.403 . S
C3748 C3749 1.404 . S
C3748 C3751 1.539 . S
C3749 C3745 1.408 . S
C3749 C3748 1.404 . S
C3749 H3761 0.930 . S
C3750 C3746 1.524 . S
C3750 H3762 0.956 . S
C3750 H3763 0.961 . S
C3750 H3764 0.961 . S
C3751 C3748 1.539 . S
C3751 H3765 0.958 . S
C3751 H3766 0.961 . S
C3751 H3767 0.960 . S
H3752 C3736 0.931 . S
H3753 C3741 0.929 . S
H3754 C3742 0.960 . S
H3755 C3742 0.962 . S
H3756 C3742 0.960 . S
H3757 C3743 0.961 . S
H3758 C3743 0.961 . S
H3759 C3743 0.961 . S
H3760 C3744 0.931 . S
H3761 C3749 0.930 . S
H3762 C3750 0.956 . S
H3763 C3750 0.961 . S
H3764 C3750 0.961 . S
H3765 C3751 0.958 . S
H3766 C3751 0.961 . S
H3767 C3751 0.960 . S
C3768 C3769 1.391 . S
C3768 C3770 1.394 . S
C3768 H3784 0.931 . S
C3769 C3768 1.391 . S
C3769 C3773 1.376 . S
C3770 C3768 1.394 . S
C3770 C3771 1.369 . S
C3770 C3774 1.531 . S
C3771 C3770 1.369 . S
C3771 C3772 1.410 . S
C3771 C3779 1.503 . S
C3772 C3771 1.410 . S
C3772 C3773 1.392 . S
C3772 C3775 1.511 . S
C3773 C3769 1.376 . S
C3773 C3772 1.392 . S
C3773 H3785 0.929 . S
C3774 C3770 1.531 . S
C3774 H3786 0.960 . S
C3774 H3787 0.962 . S
C3774 H3788 0.960 . S
C3775 C3772 1.511 . S
C3775 H3789 0.961 . S
C3775 H3790 0.961 . S
C3775 H3791 0.961 . S
C3776 C3777 1.370 . S
C3776 C3778 1.363 . S
C3776 H3792 0.931 . S
C3777 C3776 1.370 . S
C3777 C3781 1.408 . S
C3778 C3776 1.363 . S
C3778 C3779 1.370 . S
C3778 C3782 1.524 . S
C3779 C3771 1.503 . S
C3779 C3778 1.370 . S
C3779 C3780 1.403 . S
C3780 C3779 1.403 . S
C3780 C3781 1.404 . S
C3780 C3783 1.539 . S
C3781 C3777 1.408 . S
C3781 C3780 1.404 . S
C3781 H3793 0.930 . S
C3782 C3778 1.524 . S
C3782 H3794 0.956 . S
C3782 H3795 0.961 . S
C3782 H3796 0.961 . S
C3783 C3780 1.539 . S
C3783 H3797 0.958 . S
C3783 H3798 0.961 . S
C3783 H3799 0.960 . S
H3784 C3768 0.931 . S
H3785 C3773 0.929 . S
H3786 C3774 0.960 . S
H3787 C3774 0.962 . S
H3788 C3774 0.960 . S
H3789 C3775 0.961 . S
H3790 C3775 0.961 . S
H3791 C3775 0.961 . S
H3792 C3776 0.931 . S
H3793 C3781 0.930 . S
H3794 C3782 0.956 . S
H3795 C3782 0.961 . S
H3796 C3782 0.961 . S
H3797 C3783 0.958 . S
H3798 C3783 0.961 . S
H3799 C3783 0.960 . S
C3800 C3801 1.391 . S
C3800 C3802 1.394 . S
C3800 H3816 0.931 . S
C3801 C3800 1.391 . S
C3801 C3805 1.376 . S
C3802 C3800 1.394 . S
C3802 C3803 1.369 . S
C3802 C3806 1.531 . S
C3803 C3802 1.369 . S
C3803 C3804 1.410 . S
C3803 C3811 1.503 . S
C3804 C3803 1.410 . S
C3804 C3805 1.392 . S
C3804 C3807 1.511 . S
C3805 C3801 1.376 . S
C3805 C3804 1.392 . S
C3805 H3817 0.929 . S
C3806 C3802 1.531 . S
C3806 H3818 0.960 . S
C3806 H3819 0.962 . S
C3806 H3820 0.960 . S
C3807 C3804 1.511 . S
C3807 H3821 0.961 . S
C3807 H3822 0.961 . S
C3807 H3823 0.961 . S
C3808 C3809 1.370 . S
C3808 C3810 1.363 . S
C3808 H3824 0.931 . S
C3809 C3808 1.370 . S
C3809 C3813 1.408 . S
C3810 C3808 1.363 . S
C3810 C3811 1.370 . S
C3810 C3814 1.524 . S
C3811 C3803 1.503 . S
C3811 C3810 1.370 . S
C3811 C3812 1.403 . S
C3812 C3811 1.403 . S
C3812 C3813 1.404 . S
C3812 C3815 1.539 . S
C3813 C3809 1.408 . S
C3813 C3812 1.404 . S
C3813 H3825 0.930 . S
C3814 C3810 1.524 . S
C3814 H3826 0.956 . S
C3814 H3827 0.961 . S
C3814 H3828 0.961 . S
C3815 C3812 1.539 . S
C3815 H3829 0.958 . S
C3815 H3830 0.961 . S
C3815 H3831 0.960 . S
H3816 C3800 0.931 . S
H3817 C3805 0.929 . S
H3818 C3806 0.960 . S
H3819 C3806 0.962 . S
H3820 C3806 0.960 . S
H3821 C3807 0.961 . S
H3822 C3807 0.961 . S
H3823 C3807 0.961 . S
H3824 C3808 0.931 . S
H3825 C3813 0.930 . S
H3826 C3814 0.956 . S
H3827 C3814 0.961 . S
H3828 C3814 0.961 . S
H3829 C3815 0.958 . S
H3830 C3815 0.961 . S
H3831 C3815 0.960 . S
C3832 C3833 1.391 . S
C3832 C3834 1.394 . S
C3832 H3848 0.931 . S
C3833 C3832 1.391 . S
C3833 C3837 1.376 . S
C3834 C3832 1.394 . S
C3834 C3835 1.369 . S
C3834 C3838 1.531 . S
C3835 C3834 1.369 . S
C3835 C3836 1.410 . S
C3835 C3843 1.503 . S
C3836 C3835 1.410 . S
C3836 C3837 1.392 . S
C3836 C3839 1.511 . S
C3837 C3833 1.376 . S
C3837 C3836 1.392 . S
C3837 H3849 0.929 . S
C3838 C3834 1.531 . S
C3838 H3850 0.960 . S
C3838 H3851 0.962 . S
C3838 H3852 0.960 . S
C3839 C3836 1.511 . S
C3839 H3853 0.961 . S
C3839 H3854 0.961 . S
C3839 H3855 0.961 . S
C3840 C3841 1.370 . S
C3840 C3842 1.363 . S
C3840 H3856 0.931 . S
C3841 C3840 1.370 . S
C3841 C3845 1.408 . S
C3842 C3840 1.363 . S
C3842 C3843 1.370 . S
C3842 C3846 1.524 . S
C3843 C3835 1.503 . S
C3843 C3842 1.370 . S
C3843 C3844 1.403 . S
C3844 C3843 1.403 . S
C3844 C3845 1.404 . S
C3844 C3847 1.539 . S
C3845 C3841 1.408 . S
C3845 C3844 1.404 . S
C3845 H3857 0.930 . S
C3846 C3842 1.524 . S
C3846 H3858 0.956 . S
C3846 H3859 0.961 . S
C3846 H3860 0.961 . S
C3847 C3844 1.539 . S
C3847 H3861 0.958 . S
C3847 H3862 0.961 . S
C3847 H3863 0.960 . S
H3848 C3832 0.931 . S
H3849 C3837 0.929 . S
H3850 C3838 0.960 . S
H3851 C3838 0.962 . S
H3852 C3838 0.960 . S
H3853 C3839 0.961 . S
H3854 C3839 0.961 . S
H3855 C3839 0.961 . S
H3856 C3840 0.931 . S
H3857 C3845 0.930 . S
H3858 C3846 0.956 . S
H3859 C3846 0.961 . S
H3860 C3846 0.961 . S
H3861 C3847 0.958 . S
H3862 C3847 0.961 . S
H3863 C3847 0.960 . S
C3864 C3865 1.391 . S
C3864 C3866 1.394 . S
C3864 H3880 0.931 . S
C3865 C3864 1.391 . S
C3865 C3869 1.376 . S
C3866 C3864 1.394 . S
C3866 C3867 1.369 . S
C3866 C3870 1.531 . S
C3867 C3866 1.369 . S
C3867 C3868 1.410 . S
C3867 C3875 1.503 . S
C3868 C3867 1.410 . S
C3868 C3869 1.392 . S
C3868 C3871 1.511 . S
C3869 C3865 1.376 . S
C3869 C3868 1.392 . S
C3869 H3881 0.929 . S
C3870 C3866 1.531 . S
C3870 H3882 0.960 . S
C3870 H3883 0.962 . S
C3870 H3884 0.960 . S
C3871 C3868 1.511 . S
C3871 H3885 0.961 . S
C3871 H3886 0.961 . S
C3871 H3887 0.961 . S
C3872 C3873 1.370 . S
C3872 C3874 1.363 . S
C3872 H3888 0.931 . S
C3873 C3872 1.370 . S
C3873 C3877 1.408 . S
C3874 C3872 1.363 . S
C3874 C3875 1.370 . S
C3874 C3878 1.524 . S
C3875 C3867 1.503 . S
C3875 C3874 1.370 . S
C3875 C3876 1.403 . S
C3876 C3875 1.403 . S
C3876 C3877 1.404 . S
C3876 C3879 1.539 . S
C3877 C3873 1.408 . S
C3877 C3876 1.404 . S
C3877 H3889 0.930 . S
C3878 C3874 1.524 . S
C3878 H3890 0.956 . S
C3878 H3891 0.961 . S
C3878 H3892 0.961 . S
C3879 C3876 1.539 . S
C3879 H3893 0.958 . S
C3879 H3894 0.961 . S
C3879 H3895 0.960 . S
H3880 C3864 0.931 . S
H3881 C3869 0.929 . S
H3882 C3870 0.960 . S
H3883 C3870 0.962 . S
H3884 C3870 0.960 . S
H3885 C3871 0.961 . S
H3886 C3871 0.961 . S
H3887 C3871 0.961 . S
H3888 C3872 0.931 . S
H3889 C3877 0.930 . S
H3890 C3878 0.956 . S
H3891 C3878 0.961 . S
H3892 C3878 0.961 . S
H3893 C3879 0.958 . S
H3894 C3879 0.961 . S
H3895 C3879 0.960 . S
C3896 C3897 1.391 . S
C3896 C3898 1.394 . S
C3896 H3912 0.931 . S
C3897 C3896 1.391 . S
C3897 C3901 1.376 . S
C3898 C3896 1.394 . S
C3898 C3899 1.369 . S
C3898 C3902 1.531 . S
C3899 C3898 1.369 . S
C3899 C3900 1.410 . S
C3899 C3907 1.503 . S
C3900 C3899 1.410 . S
C3900 C3901 1.392 . S
C3900 C3903 1.511 . S
C3901 C3897 1.376 . S
C3901 C3900 1.392 . S
C3901 H3913 0.929 . S
C3902 C3898 1.531 . S
C3902 H3914 0.960 . S
C3902 H3915 0.962 . S
C3902 H3916 0.960 . S
C3903 C3900 1.511 . S
C3903 H3917 0.961 . S
C3903 H3918 0.961 . S
C3903 H3919 0.961 . S
C3904 C3905 1.370 . S
C3904 C3906 1.363 . S
C3904 H3920 0.931 . S
C3905 C3904 1.370 . S
C3905 C3909 1.408 . S
C3906 C3904 1.363 . S
C3906 C3907 1.370 . S
C3906 C3910 1.524 . S
C3907 C3899 1.503 . S
C3907 C3906 1.370 . S
C3907 C3908 1.403 . S
C3908 C3907 1.403 . S
C3908 C3909 1.404 . S
C3908 C3911 1.539 . S
C3909 C3905 1.408 . S
C3909 C3908 1.404 . S
C3909 H3921 0.930 . S
C3910 C3906 1.524 . S
C3910 H3922 0.956 . S
C3910 H3923 0.961 . S
C3910 H3924 0.961 . S
C3911 C3908 1.539 . S
C3911 H3925 0.958 . S
C3911 H3926 0.961 . S
C3911 H3927 0.960 . S
H3912 C3896 0.931 . S
H3913 C3901 0.929 . S
H3914 C3902 0.960 . S
H3915 C3902 0.962 . S
H3916 C3902 0.960 . S
H3917 C3903 0.961 . S
H3918 C3903 0.961 . S
H3919 C3903 0.961 . S
H3920 C3904 0.931 . S
H3921 C3909 0.930 . S
H3922 C3910 0.956 . S
H3923 C3910 0.961 . S
H3924 C3910 0.961 . S
H3925 C3911 0.958 . S
H3926 C3911 0.961 . S
H3927 C3911 0.960 . S
C3928 C3929 1.391 . S
C3928 C3930 1.394 . S
C3928 H3944 0.931 . S
C3929 C3928 1.391 . S
C3929 C3933 1.376 . S
C3930 C3928 1.394 . S
C3930 C3931 1.369 . S
C3930 C3934 1.531 . S
C3931 C3930 1.369 . S
C3931 C3932 1.410 . S
C3931 C3939 1.503 . S
C3932 C3931 1.410 . S
C3932 C3933 1.392 . S
C3932 C3935 1.511 . S
C3933 C3929 1.376 . S
C3933 C3932 1.392 . S
C3933 H3945 0.929 . S
C3934 C3930 1.531 . S
C3934 H3946 0.960 . S
C3934 H3947 0.962 . S
C3934 H3948 0.960 . S
C3935 C3932 1.511 . S
C3935 H3949 0.961 . S
C3935 H3950 0.961 . S
C3935 H3951 0.961 . S
C3936 C3937 1.370 . S
C3936 C3938 1.363 . S
C3936 H3952 0.931 . S
C3937 C3936 1.370 . S
C3937 C3941 1.408 . S
C3938 C3936 1.363 . S
C3938 C3939 1.370 . S
C3938 C3942 1.524 . S
C3939 C3931 1.503 . S
C3939 C3938 1.370 . S
C3939 C3940 1.403 . S
C3940 C3939 1.403 . S
C3940 C3941 1.404 . S
C3940 C3943 1.539 . S
C3941 C3937 1.408 . S
C3941 C3940 1.404 . S
C3941 H3953 0.930 . S
C3942 C3938 1.524 . S
C3942 H3954 0.956 . S
C3942 H3955 0.961 . S
C3942 H3956 0.961 . S
C3943 C3940 1.539 . S
C3943 H3957 0.958 . S
C3943 H3958 0.961 . S
C3943 H3959 0.960 . S
H3944 C3928 0.931 . S
H3945 C3933 0.929 . S
H3946 C3934 0.960 . S
H3947 C3934 0.962 . S
H3948 C3934 0.960 . S
H3949 C3935 0.961 . S
H3950 C3935 0.961 . S
H3951 C3935 0.961 . S
H3952 C3936 0.931 . S
H3953 C3941 0.930 . S
H3954 C3942 0.956 . S
H3955 C3942 0.961 . S
H3956 C3942 0.961 . S
H3957 C3943 0.958 . S
H3958 C3943 0.961 . S
H3959 C3943 0.960 . S
C3960 C3961 1.391 . S
C3960 C3962 1.394 . S
C3960 H3976 0.931 . S
C3961 C3960 1.391 . S
C3961 C3965 1.376 . S
C3962 C3960 1.394 . S
C3962 C3963 1.369 . S
C3962 C3966 1.531 . S
C3963 C3962 1.369 . S
C3963 C3964 1.410 . S
C3963 C3971 1.503 . S
C3964 C3963 1.410 . S
C3964 C3965 1.392 . S
C3964 C3967 1.511 . S
C3965 C3961 1.376 . S
C3965 C3964 1.392 . S
C3965 H3977 0.929 . S
C3966 C3962 1.531 . S
C3966 H3978 0.960 . S
C3966 H3979 0.962 . S
C3966 H3980 0.960 . S
C3967 C3964 1.511 . S
C3967 H3981 0.961 . S
C3967 H3982 0.961 . S
C3967 H3983 0.961 . S
C3968 C3969 1.370 . S
C3968 C3970 1.363 . S
C3968 H3984 0.931 . S
C3969 C3968 1.370 . S
C3969 C3973 1.408 . S
C3970 C3968 1.363 . S
C3970 C3971 1.370 . S
C3970 C3974 1.524 . S
C3971 C3963 1.503 . S
C3971 C3970 1.370 . S
C3971 C3972 1.403 . S
C3972 C3971 1.403 . S
C3972 C3973 1.404 . S
C3972 C3975 1.539 . S
C3973 C3969 1.408 . S
C3973 C3972 1.404 . S
C3973 H3985 0.930 . S
C3974 C3970 1.524 . S
C3974 H3986 0.956 . S
C3974 H3987 0.961 . S
C3974 H3988 0.961 . S
C3975 C3972 1.539 . S
C3975 H3989 0.958 . S
C3975 H3990 0.961 . S
C3975 H3991 0.960 . S
H3976 C3960 0.931 . S
H3977 C3965 0.929 . S
H3978 C3966 0.960 . S
H3979 C3966 0.962 . S
H3980 C3966 0.960 . S
H3981 C3967 0.961 . S
H3982 C3967 0.961 . S
H3983 C3967 0.961 . S
H3984 C3968 0.931 . S
H3985 C3973 0.930 . S
H3986 C3974 0.956 . S
H3987 C3974 0.961 . S
H3988 C3974 0.961 . S
H3989 C3975 0.958 . S
H3990 C3975 0.961 . S
H3991 C3975 0.960 . S
C3992 C3993 1.391 . S
C3992 C3994 1.394 . S
C3992 H4008 0.931 . S
C3993 C3992 1.391 . S
C3993 C3997 1.376 . S
C3994 C3992 1.394 . S
C3994 C3995 1.369 . S
C3994 C3998 1.531 . S
C3995 C3994 1.369 . S
C3995 C3996 1.410 . S
C3995 C4003 1.503 . S
C3996 C3995 1.410 . S
C3996 C3997 1.392 . S
C3996 C3999 1.511 . S
C3997 C3993 1.376 . S
C3997 C3996 1.392 . S
C3997 H4009 0.929 . S
C3998 C3994 1.531 . S
C3998 H4010 0.960 . S
C3998 H4011 0.962 . S
C3998 H4012 0.960 . S
C3999 C3996 1.511 . S
C3999 H4013 0.961 . S
C3999 H4014 0.961 . S
C3999 H4015 0.961 . S
C4000 C4001 1.370 . S
C4000 C4002 1.363 . S
C4000 H4016 0.931 . S
C4001 C4000 1.370 . S
C4001 C4005 1.408 . S
C4002 C4000 1.363 . S
C4002 C4003 1.370 . S
C4002 C4006 1.524 . S
C4003 C3995 1.503 . S
C4003 C4002 1.370 . S
C4003 C4004 1.403 . S
C4004 C4003 1.403 . S
C4004 C4005 1.404 . S
C4004 C4007 1.539 . S
C4005 C4001 1.408 . S
C4005 C4004 1.404 . S
C4005 H4017 0.930 . S
C4006 C4002 1.524 . S
C4006 H4018 0.956 . S
C4006 H4019 0.961 . S
C4006 H4020 0.961 . S
C4007 C4004 1.539 . S
C4007 H4021 0.958 . S
C4007 H4022 0.961 . S
C4007 H4023 0.960 . S
H4008 C3992 0.931 . S
H4009 C3997 0.929 . S
H4010 C3998 0.960 . S
H4011 C3998 0.962 . S
H4012 C3998 0.960 . S
H4013 C3999 0.961 . S
H4014 C3999 0.961 . S
H4015 C3999 0.961 . S
H4016 C4000 0.931 . S
H4017 C4005 0.930 . S
H4018 C4006 0.956 . S
H4019 C4006 0.961 . S
H4020 C4006 0.961 . S
H4021 C4007 0.958 . S
H4022 C4007 0.961 . S
H4023 C4007 0.960 . S
C4024 C4025 1.391 . S
C4024 C4026 1.394 . S
C4024 H4040 0.931 . S
C4025 C4024 1.391 . S
C4025 C4029 1.376 . S
C4026 C4024 1.394 . S
C4026 C4027 1.369 . S
C4026 C4030 1.531 . S
C4027 C4026 1.369 . S
C4027 C4028 1.410 . S
C4027 C4035 1.503 . S
C4028 C4027 1.410 . S
C4028 C4029 1.392 . S
C4028 C4031 1.511 . S
C4029 C4025 1.376 . S
C4029 C4028 1.392 . S
C4029 H4041 0.929 . S
C4030 C4026 1.531 . S
C4030 H4042 0.960 . S
C4030 H4043 0.962 . S
C4030 H4044 0.960 . S
C4031 C4028 1.511 . S
C4031 H4045 0.961 . S
C4031 H4046 0.961 . S
C4031 H4047 0.961 . S
C4032 C4033 1.370 . S
C4032 C4034 1.363 . S
C4032 H4048 0.931 . S
C4033 C4032 1.370 . S
C4033 C4037 1.408 . S
C4034 C4032 1.363 . S
C4034 C4035 1.370 . S
C4034 C4038 1.524 . S
C4035 C4027 1.503 . S
C4035 C4034 1.370 . S
C4035 C4036 1.403 . S
C4036 C4035 1.403 . S
C4036 C4037 1.404 . S
C4036 C4039 1.539 . S
C4037 C4033 1.408 . S
C4037 C4036 1.404 . S
C4037 H4049 0.930 . S
C4038 C4034 1.524 . S
C4038 H4050 0.956 . S
C4038 H4051 0.961 . S
C4038 H4052 0.961 . S
C4039 C4036 1.539 . S
C4039 H4053 0.958 . S
C4039 H4054 0.961 . S
C4039 H4055 0.960 . S
H4040 C4024 0.931 . S
H4041 C4029 0.929 . S
H4042 C4030 0.960 . S
H4043 C4030 0.962 . S
H4044 C4030 0.960 . S
H4045 C4031 0.961 . S
H4046 C4031 0.961 . S
H4047 C4031 0.961 . S
H4048 C4032 0.931 . S
H4049 C4037 0.930 . S
H4050 C4038 0.956 . S
H4051 C4038 0.961 . S
H4052 C4038 0.961 . S
H4053 C4039 0.958 . S
H4054 C4039 0.961 . S
H4055 C4039 0.960 . S
C4056 C4057 1.391 . S
C4056 C4058 1.394 . S
C4056 H4072 0.931 . S
C4057 C4056 1.391 . S
C4057 C4061 1.376 . S
C4058 C4056 1.394 . S
C4058 C4059 1.369 . S
C4058 C4062 1.531 . S
C4059 C4058 1.369 . S
C4059 C4060 1.410 . S
C4059 C4067 1.503 . S
C4060 C4059 1.410 . S
C4060 C4061 1.392 . S
C4060 C4063 1.511 . S
C4061 C4057 1.376 . S
C4061 C4060 1.392 . S
C4061 H4073 0.929 . S
C4062 C4058 1.531 . S
C4062 H4074 0.960 . S
C4062 H4075 0.962 . S
C4062 H4076 0.960 . S
C4063 C4060 1.511 . S
C4063 H4077 0.961 . S
C4063 H4078 0.961 . S
C4063 H4079 0.961 . S
C4064 C4065 1.370 . S
C4064 C4066 1.363 . S
C4064 H4080 0.931 . S
C4065 C4064 1.370 . S
C4065 C4069 1.408 . S
C4066 C4064 1.363 . S
C4066 C4067 1.370 . S
C4066 C4070 1.524 . S
C4067 C4059 1.503 . S
C4067 C4066 1.370 . S
C4067 C4068 1.403 . S
C4068 C4067 1.403 . S
C4068 C4069 1.404 . S
C4068 C4071 1.539 . S
C4069 C4065 1.408 . S
C4069 C4068 1.404 . S
C4069 H4081 0.930 . S
C4070 C4066 1.524 . S
C4070 H4082 0.956 . S
C4070 H4083 0.961 . S
C4070 H4084 0.961 . S
C4071 C4068 1.539 . S
C4071 H4085 0.958 . S
C4071 H4086 0.961 . S
C4071 H4087 0.960 . S
H4072 C4056 0.931 . S
H4073 C4061 0.929 . S
H4074 C4062 0.960 . S
H4075 C4062 0.962 . S
H4076 C4062 0.960 . S
H4077 C4063 0.961 . S
H4078 C4063 0.961 . S
H4079 C4063 0.961 . S
H4080 C4064 0.931 . S
H4081 C4069 0.930 . S
H4082 C4070 0.956 . S
H4083 C4070 0.961 . S
H4084 C4070 0.961 . S
H4085 C4071 0.958 . S
H4086 C4071 0.961 . S
H4087 C4071 0.960 . S
C4088 C4089 1.391 . S
C4088 C4090 1.394 . S
C4088 H4104 0.931 . S
C4089 C4088 1.391 . S
C4089 C4093 1.376 . S
C4090 C4088 1.394 . S
C4090 C4091 1.369 . S
C4090 C4094 1.531 . S
C4091 C4090 1.369 . S
C4091 C4092 1.410 . S
C4091 C4099 1.503 . S
C4092 C4091 1.410 . S
C4092 C4093 1.392 . S
C4092 C4095 1.511 . S
C4093 C4089 1.376 . S
C4093 C4092 1.392 . S
C4093 H4105 0.929 . S
C4094 C4090 1.531 . S
C4094 H4106 0.960 . S
C4094 H4107 0.962 . S
C4094 H4108 0.960 . S
C4095 C4092 1.511 . S
C4095 H4109 0.961 . S
C4095 H4110 0.961 . S
C4095 H4111 0.961 . S
C4096 C4097 1.370 . S
C4096 C4098 1.363 . S
C4096 H4112 0.931 . S
C4097 C4096 1.370 . S
C4097 C4101 1.408 . S
C4098 C4096 1.363 . S
C4098 C4099 1.370 . S
C4098 C4102 1.524 . S
C4099 C4091 1.503 . S
C4099 C4098 1.370 . S
C4099 C4100 1.403 . S
C4100 C4099 1.403 . S
C4100 C4101 1.404 . S
C4100 C4103 1.539 . S
C4101 C4097 1.408 . S
C4101 C4100 1.404 . S
C4101 H4113 0.930 . S
C4102 C4098 1.524 . S
C4102 H4114 0.956 . S
C4102 H4115 0.961 . S
C4102 H4116 0.961 . S
C4103 C4100 1.539 . S
C4103 H4117 0.958 . S
C4103 H4118 0.961 . S
C4103 H4119 0.960 . S
H4104 C4088 0.931 . S
H4105 C4093 0.929 . S
H4106 C4094 0.960 . S
H4107 C4094 0.962 . S
H4108 C4094 0.960 . S
H4109 C4095 0.961 . S
H4110 C4095 0.961 . S
H4111 C4095 0.961 . S
H4112 C4096 0.931 . S
H4113 C4101 0.930 . S
H4114 C4102 0.956 . S
H4115 C4102 0.961 . S
H4116 C4102 0.961 . S
H4117 C4103 0.958 . S
H4118 C4103 0.961 . S
H4119 C4103 0.960 . S
C4120 C4121 1.391 . S
C4120 C4122 1.394 . S
C4120 H4136 0.931 . S
C4121 C4120 1.391 . S
C4121 C4125 1.376 . S
C4122 C4120 1.394 . S
C4122 C4123 1.369 . S
C4122 C4126 1.531 . S
C4123 C4122 1.369 . S
C4123 C4124 1.410 . S
C4123 C4131 1.503 . S
C4124 C4123 1.410 . S
C4124 C4125 1.392 . S
C4124 C4127 1.511 . S
C4125 C4121 1.376 . S
C4125 C4124 1.392 . S
C4125 H4137 0.929 . S
C4126 C4122 1.531 . S
C4126 H4138 0.960 . S
C4126 H4139 0.962 . S
C4126 H4140 0.960 . S
C4127 C4124 1.511 . S
C4127 H4141 0.961 . S
C4127 H4142 0.961 . S
C4127 H4143 0.961 . S
C4128 C4129 1.370 . S
C4128 C4130 1.363 . S
C4128 H4144 0.931 . S
C4129 C4128 1.370 . S
C4129 C4133 1.408 . S
C4130 C4128 1.363 . S
C4130 C4131 1.370 . S
C4130 C4134 1.524 . S
C4131 C4123 1.503 . S
C4131 C4130 1.370 . S
C4131 C4132 1.403 . S
C4132 C4131 1.403 . S
C4132 C4133 1.404 . S
C4132 C4135 1.539 . S
C4133 C4129 1.408 . S
C4133 C4132 1.404 . S
C4133 H4145 0.930 . S
C4134 C4130 1.524 . S
C4134 H4146 0.956 . S
C4134 H4147 0.961 . S
C4134 H4148 0.961 . S
C4135 C4132 1.539 . S
C4135 H4149 0.958 . S
C4135 H4150 0.961 . S
C4135 H4151 0.960 . S
H4136 C4120 0.931 . S
H4137 C4125 0.929 . S
H4138 C4126 0.960 . S
H4139 C4126 0.962 . S
H4140 C4126 0.960 . S
H4141 C4127 0.961 . S
H4142 C4127 0.961 . S
H4143 C4127 0.961 . S
H4144 C4128 0.931 . S
H4145 C4133 0.930 . S
H4146 C4134 0.956 . S
H4147 C4134 0.961 . S
H4148 C4134 0.961 . S
H4149 C4135 0.958 . S
H4150 C4135 0.961 . S
H4151 C4135 0.960 . S
C4152 C4153 1.391 . S
C4152 C4154 1.394 . S
C4152 H4168 0.931 . S
C4153 C4152 1.391 . S
C4153 C4157 1.376 . S
C4154 C4152 1.394 . S
C4154 C4155 1.369 . S
C4154 C4158 1.531 . S
C4155 C4154 1.369 . S
C4155 C4156 1.410 . S
C4155 C4163 1.503 . S
C4156 C4155 1.410 . S
C4156 C4157 1.392 . S
C4156 C4159 1.511 . S
C4157 C4153 1.376 . S
C4157 C4156 1.392 . S
C4157 H4169 0.929 . S
C4158 C4154 1.531 . S
C4158 H4170 0.960 . S
C4158 H4171 0.962 . S
C4158 H4172 0.960 . S
C4159 C4156 1.511 . S
C4159 H4173 0.961 . S
C4159 H4174 0.961 . S
C4159 H4175 0.961 . S
C4160 C4161 1.370 . S
C4160 C4162 1.363 . S
C4160 H4176 0.931 . S
C4161 C4160 1.370 . S
C4161 C4165 1.408 . S
C4162 C4160 1.363 . S
C4162 C4163 1.370 . S
C4162 C4166 1.524 . S
C4163 C4155 1.503 . S
C4163 C4162 1.370 . S
C4163 C4164 1.403 . S
C4164 C4163 1.403 . S
C4164 C4165 1.404 . S
C4164 C4167 1.539 . S
C4165 C4161 1.408 . S
C4165 C4164 1.404 . S
C4165 H4177 0.930 . S
C4166 C4162 1.524 . S
C4166 H4178 0.956 . S
C4166 H4179 0.961 . S
C4166 H4180 0.961 . S
C4167 C4164 1.539 . S
C4167 H4181 0.958 . S
C4167 H4182 0.961 . S
C4167 H4183 0.960 . S
H4168 C4152 0.931 . S
H4169 C4157 0.929 . S
H4170 C4158 0.960 . S
H4171 C4158 0.962 . S
H4172 C4158 0.960 . S
H4173 C4159 0.961 . S
H4174 C4159 0.961 . S
H4175 C4159 0.961 . S
H4176 C4160 0.931 . S
H4177 C4165 0.930 . S
H4178 C4166 0.956 . S
H4179 C4166 0.961 . S
H4180 C4166 0.961 . S
H4181 C4167 0.958 . S
H4182 C4167 0.961 . S
H4183 C4167 0.960 . S
C4184 C4185 1.391 . S
C4184 C4186 1.394 . S
C4184 H4200 0.931 . S
C4185 C4184 1.391 . S
C4185 C4189 1.376 . S
C4186 C4184 1.394 . S
C4186 C4187 1.369 . S
C4186 C4190 1.531 . S
C4187 C4186 1.369 . S
C4187 C4188 1.410 . S
C4187 C4195 1.503 . S
C4188 C4187 1.410 . S
C4188 C4189 1.392 . S
C4188 C4191 1.511 . S
C4189 C4185 1.376 . S
C4189 C4188 1.392 . S
C4189 H4201 0.929 . S
C4190 C4186 1.531 . S
C4190 H4202 0.960 . S
C4190 H4203 0.962 . S
C4190 H4204 0.960 . S
C4191 C4188 1.511 . S
C4191 H4205 0.961 . S
C4191 H4206 0.961 . S
C4191 H4207 0.961 . S
C4192 C4193 1.370 . S
C4192 C4194 1.363 . S
C4192 H4208 0.931 . S
C4193 C4192 1.370 . S
C4193 C4197 1.408 . S
C4194 C4192 1.363 . S
C4194 C4195 1.370 . S
C4194 C4198 1.524 . S
C4195 C4187 1.503 . S
C4195 C4194 1.370 . S
C4195 C4196 1.403 . S
C4196 C4195 1.403 . S
C4196 C4197 1.404 . S
C4196 C4199 1.539 . S
C4197 C4193 1.408 . S
C4197 C4196 1.404 . S
C4197 H4209 0.930 . S
C4198 C4194 1.524 . S
C4198 H4210 0.956 . S
C4198 H4211 0.961 . S
C4198 H4212 0.961 . S
C4199 C4196 1.539 . S
C4199 H4213 0.958 . S
C4199 H4214 0.961 . S
C4199 H4215 0.960 . S
H4200 C4184 0.931 . S
H4201 C4189 0.929 . S
H4202 C4190 0.960 . S
H4203 C4190 0.962 . S
H4204 C4190 0.960 . S
H4205 C4191 0.961 . S
H4206 C4191 0.961 . S
H4207 C4191 0.961 . S
H4208 C4192 0.931 . S
H4209 C4197 0.930 . S
H4210 C4198 0.956 . S
H4211 C4198 0.961 . S
H4212 C4198 0.961 . S
H4213 C4199 0.958 . S
H4214 C4199 0.961 . S
H4215 C4199 0.960 . S
C4216 C4217 1.391 . S
C4216 C4218 1.394 . S
C4216 H4232 0.931 . S
C4217 C4216 1.391 . S
C4217 C4221 1.376 . S
C4218 C4216 1.394 . S
C4218 C4219 1.369 . S
C4218 C4222 1.531 . S
C4219 C4218 1.369 . S
C4219 C4220 1.410 . S
C4219 C4227 1.503 . S
C4220 C4219 1.410 . S
C4220 C4221 1.392 . S
C4220 C4223 1.511 . S
C4221 C4217 1.376 . S
C4221 C4220 1.392 . S
C4221 H4233 0.929 . S
C4222 C4218 1.531 . S
C4222 H4234 0.960 . S
C4222 H4235 0.962 . S
C4222 H4236 0.960 . S
C4223 C4220 1.511 . S
C4223 H4237 0.961 . S
C4223 H4238 0.961 . S
C4223 H4239 0.961 . S
C4224 C4225 1.370 . S
C4224 C4226 1.363 . S
C4224 H4240 0.931 . S
C4225 C4224 1.370 . S
C4225 C4229 1.408 . S
C4226 C4224 1.363 . S
C4226 C4227 1.370 . S
C4226 C4230 1.524 . S
C4227 C4219 1.503 . S
C4227 C4226 1.370 . S
C4227 C4228 1.403 . S
C4228 C4227 1.403 . S
C4228 C4229 1.404 . S
C4228 C4231 1.539 . S
C4229 C4225 1.408 . S
C4229 C4228 1.404 . S
C4229 H4241 0.930 . S
C4230 C4226 1.524 . S
C4230 H4242 0.956 . S
C4230 H4243 0.961 . S
C4230 H4244 0.961 . S
C4231 C4228 1.539 . S
C4231 H4245 0.958 . S
C4231 H4246 0.961 . S
C4231 H4247 0.960 . S
H4232 C4216 0.931 . S
H4233 C4221 0.929 . S
H4234 C4222 0.960 . S
H4235 C4222 0.962 . S
H4236 C4222 0.960 . S
H4237 C4223 0.961 . S
H4238 C4223 0.961 . S
H4239 C4223 0.961 . S
H4240 C4224 0.931 . S
H4241 C4229 0.930 . S
H4242 C4230 0.956 . S
H4243 C4230 0.961 . S
H4244 C4230 0.961 . S
H4245 C4231 0.958 . S
H4246 C4231 0.961 . S
H4247 C4231 0.960 . S
C4248 C4249 1.391 . S
C4248 C4250 1.394 . S
C4248 H4264 0.931 . S
C4249 C4248 1.391 . S
C4249 C4253 1.376 . S
C4250 C4248 1.394 . S
C4250 C4251 1.369 . S
C4250 C4254 1.531 . S
C4251 C4250 1.369 . S
C4251 C4252 1.410 . S
C4251 C4259 1.503 . S
C4252 C4251 1.410 . S
C4252 C4253 1.392 . S
C4252 C4255 1.511 . S
C4253 C4249 1.376 . S
C4253 C4252 1.392 . S
C4253 H4265 0.929 . S
C4254 C4250 1.531 . S
C4254 H4266 0.960 . S
C4254 H4267 0.962 . S
C4254 H4268 0.960 . S
C4255 C4252 1.511 . S
C4255 H4269 0.961 . S
C4255 H4270 0.961 . S
C4255 H4271 0.961 . S
C4256 C4257 1.370 . S
C4256 C4258 1.363 . S
C4256 H4272 0.931 . S
C4257 C4256 1.370 . S
C4257 C4261 1.408 . S
C4258 C4256 1.363 . S
C4258 C4259 1.370 . S
C4258 C4262 1.524 . S
C4259 C4251 1.503 . S
C4259 C4258 1.370 . S
C4259 C4260 1.403 . S
C4260 C4259 1.403 . S
C4260 C4261 1.404 . S
C4260 C4263 1.539 . S
C4261 C4257 1.408 . S
C4261 C4260 1.404 . S
C4261 H4273 0.930 . S
C4262 C4258 1.524 . S
C4262 H4274 0.956 . S
C4262 H4275 0.961 . S
C4262 H4276 0.961 . S
C4263 C4260 1.539 . S
C4263 H4277 0.958 . S
C4263 H4278 0.961 . S
C4263 H4279 0.960 . S
H4264 C4248 0.931 . S
H4265 C4253 0.929 . S
H4266 C4254 0.960 . S
H4267 C4254 0.962 . S
H4268 C4254 0.960 . S
H4269 C4255 0.961 . S
H4270 C4255 0.961 . S
H4271 C4255 0.961 . S
H4272 C4256 0.931 . S
H4273 C4261 0.930 . S
H4274 C4262 0.956 . S
H4275 C4262 0.961 . S
H4276 C4262 0.961 . S
H4277 C4263 0.958 . S
H4278 C4263 0.961 . S
H4279 C4263 0.960 . S
C4280 C4281 1.391 . S
C4280 C4282 1.394 . S
C4280 H4296 0.931 . S
C4281 C4280 1.391 . S
C4281 C4285 1.376 . S
C4282 C4280 1.394 . S
C4282 C4283 1.369 . S
C4282 C4286 1.531 . S
C4283 C4282 1.369 . S
C4283 C4284 1.410 . S
C4283 C4291 1.503 . S
C4284 C4283 1.410 . S
C4284 C4285 1.392 . S
C4284 C4287 1.511 . S
C4285 C4281 1.376 . S
C4285 C4284 1.392 . S
C4285 H4297 0.929 . S
C4286 C4282 1.531 . S
C4286 H4298 0.960 . S
C4286 H4299 0.962 . S
C4286 H4300 0.960 . S
C4287 C4284 1.511 . S
C4287 H4301 0.961 . S
C4287 H4302 0.961 . S
C4287 H4303 0.961 . S
C4288 C4289 1.370 . S
C4288 C4290 1.363 . S
C4288 H4304 0.931 . S
C4289 C4288 1.370 . S
C4289 C4293 1.408 . S
C4290 C4288 1.363 . S
C4290 C4291 1.370 . S
C4290 C4294 1.524 . S
C4291 C4283 1.503 . S
C4291 C4290 1.370 . S
C4291 C4292 1.403 . S
C4292 C4291 1.403 . S
C4292 C4293 1.404 . S
C4292 C4295 1.539 . S
C4293 C4289 1.408 . S
C4293 C4292 1.404 . S
C4293 H4305 0.930 . S
C4294 C4290 1.524 . S
C4294 H4306 0.956 . S
C4294 H4307 0.961 . S
C4294 H4308 0.961 . S
C4295 C4292 1.539 . S
C4295 H4309 0.958 . S
C4295 H4310 0.961 . S
C4295 H4311 0.960 . S
H4296 C4280 0.931 . S
H4297 C4285 0.929 . S
H4298 C4286 0.960 . S
H4299 C4286 0.962 . S
H4300 C4286 0.960 . S
H4301 C4287 0.961 . S
H4302 C4287 0.961 . S
H4303 C4287 0.961 . S
H4304 C4288 0.931 . S
H4305 C4293 0.930 . S
H4306 C4294 0.956 . S
H4307 C4294 0.961 . S
H4308 C4294 0.961 . S
H4309 C4295 0.958 . S
H4310 C4295 0.961 . S
H4311 C4295 0.960 . S
C4312 C4313 1.391 . S
C4312 C4314 1.394 . S
C4312 H4328 0.931 . S
C4313 C4312 1.391 . S
C4313 C4317 1.376 . S
C4314 C4312 1.394 . S
C4314 C4315 1.369 . S
C4314 C4318 1.531 . S
C4315 C4314 1.369 . S
C4315 C4316 1.410 . S
C4315 C4323 1.503 . S
C4316 C4315 1.410 . S
C4316 C4317 1.392 . S
C4316 C4319 1.511 . S
C4317 C4313 1.376 . S
C4317 C4316 1.392 . S
C4317 H4329 0.929 . S
C4318 C4314 1.531 . S
C4318 H4330 0.960 . S
C4318 H4331 0.962 . S
C4318 H4332 0.960 . S
C4319 C4316 1.511 . S
C4319 H4333 0.961 . S
C4319 H4334 0.961 . S
C4319 H4335 0.961 . S
C4320 C4321 1.370 . S
C4320 C4322 1.363 . S
C4320 H4336 0.931 . S
C4321 C4320 1.370 . S
C4321 C4325 1.408 . S
C4322 C4320 1.363 . S
C4322 C4323 1.370 . S
C4322 C4326 1.524 . S
C4323 C4315 1.503 . S
C4323 C4322 1.370 . S
C4323 C4324 1.403 . S
C4324 C4323 1.403 . S
C4324 C4325 1.404 . S
C4324 C4327 1.539 . S
C4325 C4321 1.408 . S
C4325 C4324 1.404 . S
C4325 H4337 0.930 . S
C4326 C4322 1.524 . S
C4326 H4338 0.956 . S
C4326 H4339 0.961 . S
C4326 H4340 0.961 . S
C4327 C4324 1.539 . S
C4327 H4341 0.958 . S
C4327 H4342 0.961 . S
C4327 H4343 0.960 . S
H4328 C4312 0.931 . S
H4329 C4317 0.929 . S
H4330 C4318 0.960 . S
H4331 C4318 0.962 . S
H4332 C4318 0.960 . S
H4333 C4319 0.961 . S
H4334 C4319 0.961 . S
H4335 C4319 0.961 . S
H4336 C4320 0.931 . S
H4337 C4325 0.930 . S
H4338 C4326 0.956 . S
H4339 C4326 0.961 . S
H4340 C4326 0.961 . S
H4341 C4327 0.958 . S
H4342 C4327 0.961 . S
H4343 C4327 0.960 . S
C4344 C4345 1.391 . S
C4344 C4346 1.394 . S
C4344 H4360 0.931 . S
C4345 C4344 1.391 . S
C4345 C4349 1.376 . S
C4346 C4344 1.394 . S
C4346 C4347 1.369 . S
C4346 C4350 1.531 . S
C4347 C4346 1.369 . S
C4347 C4348 1.410 . S
C4347 C4355 1.503 . S
C4348 C4347 1.410 . S
C4348 C4349 1.392 . S
C4348 C4351 1.511 . S
C4349 C4345 1.376 . S
C4349 C4348 1.392 . S
C4349 H4361 0.929 . S
C4350 C4346 1.531 . S
C4350 H4362 0.960 . S
C4350 H4363 0.962 . S
C4350 H4364 0.960 . S
C4351 C4348 1.511 . S
C4351 H4365 0.961 . S
C4351 H4366 0.961 . S
C4351 H4367 0.961 . S
C4352 C4353 1.370 . S
C4352 C4354 1.363 . S
C4352 H4368 0.931 . S
C4353 C4352 1.370 . S
C4353 C4357 1.408 . S
C4354 C4352 1.363 . S
C4354 C4355 1.370 . S
C4354 C4358 1.524 . S
C4355 C4347 1.503 . S
C4355 C4354 1.370 . S
C4355 C4356 1.403 . S
C4356 C4355 1.403 . S
C4356 C4357 1.404 . S
C4356 C4359 1.539 . S
C4357 C4353 1.408 . S
C4357 C4356 1.404 . S
C4357 H4369 0.930 . S
C4358 C4354 1.524 . S
C4358 H4370 0.956 . S
C4358 H4371 0.961 . S
C4358 H4372 0.961 . S
C4359 C4356 1.539 . S
C4359 H4373 0.958 . S
C4359 H4374 0.961 . S
C4359 H4375 0.960 . S
H4360 C4344 0.931 . S
H4361 C4349 0.929 . S
H4362 C4350 0.960 . S
H4363 C4350 0.962 . S
H4364 C4350 0.960 . S
H4365 C4351 0.961 . S
H4366 C4351 0.961 . S
H4367 C4351 0.961 . S
H4368 C4352 0.931 . S
H4369 C4357 0.930 . S
H4370 C4358 0.956 . S
H4371 C4358 0.961 . S
H4372 C4358 0.961 . S
H4373 C4359 0.958 . S
H4374 C4359 0.961 . S
H4375 C4359 0.960 . S
C4376 C4377 1.391 . S
C4376 C4378 1.394 . S
C4376 H4392 0.931 . S
C4377 C4376 1.391 . S
C4377 C4381 1.376 . S
C4378 C4376 1.394 . S
C4378 C4379 1.369 . S
C4378 C4382 1.531 . S
C4379 C4378 1.369 . S
C4379 C4380 1.410 . S
C4379 C4387 1.503 . S
C4380 C4379 1.410 . S
C4380 C4381 1.392 . S
C4380 C4383 1.511 . S
C4381 C4377 1.376 . S
C4381 C4380 1.392 . S
C4381 H4393 0.929 . S
C4382 C4378 1.531 . S
C4382 H4394 0.960 . S
C4382 H4395 0.962 . S
C4382 H4396 0.960 . S
C4383 C4380 1.511 . S
C4383 H4397 0.961 . S
C4383 H4398 0.961 . S
C4383 H4399 0.961 . S
C4384 C4385 1.370 . S
C4384 C4386 1.363 . S
C4384 H4400 0.931 . S
C4385 C4384 1.370 . S
C4385 C4389 1.408 . S
C4386 C4384 1.363 . S
C4386 C4387 1.370 . S
C4386 C4390 1.524 . S
C4387 C4379 1.503 . S
C4387 C4386 1.370 . S
C4387 C4388 1.403 . S
C4388 C4387 1.403 . S
C4388 C4389 1.404 . S
C4388 C4391 1.539 . S
C4389 C4385 1.408 . S
C4389 C4388 1.404 . S
C4389 H4401 0.930 . S
C4390 C4386 1.524 . S
C4390 H4402 0.956 . S
C4390 H4403 0.961 . S
C4390 H4404 0.961 . S
C4391 C4388 1.539 . S
C4391 H4405 0.958 . S
C4391 H4406 0.961 . S
C4391 H4407 0.960 . S
H4392 C4376 0.931 . S
H4393 C4381 0.929 . S
H4394 C4382 0.960 . S
H4395 C4382 0.962 . S
H4396 C4382 0.960 . S
H4397 C4383 0.961 . S
H4398 C4383 0.961 . S
H4399 C4383 0.961 . S
H4400 C4384 0.931 . S
H4401 C4389 0.930 . S
H4402 C4390 0.956 . S
H4403 C4390 0.961 . S
H4404 C4390 0.961 . S
H4405 C4391 0.958 . S
H4406 C4391 0.961 . S
H4407 C4391 0.960 . S
C4408 C4409 1.391 . S
C4408 C4410 1.394 . S
C4408 H4424 0.931 . S
C4409 C4408 1.391 . S
C4409 C4413 1.376 . S
C4410 C4408 1.394 . S
C4410 C4411 1.369 . S
C4410 C4414 1.531 . S
C4411 C4410 1.369 . S
C4411 C4412 1.410 . S
C4411 C4419 1.503 . S
C4412 C4411 1.410 . S
C4412 C4413 1.392 . S
C4412 C4415 1.511 . S
C4413 C4409 1.376 . S
C4413 C4412 1.392 . S
C4413 H4425 0.929 . S
C4414 C4410 1.531 . S
C4414 H4426 0.960 . S
C4414 H4427 0.962 . S
C4414 H4428 0.960 . S
C4415 C4412 1.511 . S
C4415 H4429 0.961 . S
C4415 H4430 0.961 . S
C4415 H4431 0.961 . S
C4416 C4417 1.370 . S
C4416 C4418 1.363 . S
C4416 H4432 0.931 . S
C4417 C4416 1.370 . S
C4417 C4421 1.408 . S
C4418 C4416 1.363 . S
C4418 C4419 1.370 . S
C4418 C4422 1.524 . S
C4419 C4411 1.503 . S
C4419 C4418 1.370 . S
C4419 C4420 1.403 . S
C4420 C4419 1.403 . S
C4420 C4421 1.404 . S
C4420 C4423 1.539 . S
C4421 C4417 1.408 . S
C4421 C4420 1.404 . S
C4421 H4433 0.930 . S
C4422 C4418 1.524 . S
C4422 H4434 0.956 . S
C4422 H4435 0.961 . S
C4422 H4436 0.961 . S
C4423 C4420 1.539 . S
C4423 H4437 0.958 . S
C4423 H4438 0.961 . S
C4423 H4439 0.960 . S
H4424 C4408 0.931 . S
H4425 C4413 0.929 . S
H4426 C4414 0.960 . S
H4427 C4414 0.962 . S
H4428 C4414 0.960 . S
H4429 C4415 0.961 . S
H4430 C4415 0.961 . S
H4431 C4415 0.961 . S
H4432 C4416 0.931 . S
H4433 C4421 0.930 . S
H4434 C4422 0.956 . S
H4435 C4422 0.961 . S
H4436 C4422 0.961 . S
H4437 C4423 0.958 . S
H4438 C4423 0.961 . S
H4439 C4423 0.960 . S
C4440 C4441 1.391 . S
C4440 C4442 1.394 . S
C4440 H4456 0.931 . S
C4441 C4440 1.391 . S
C4441 C4445 1.376 . S
C4442 C4440 1.394 . S
C4442 C4443 1.369 . S
C4442 C4446 1.531 . S
C4443 C4442 1.369 . S
C4443 C4444 1.410 . S
C4443 C4451 1.503 . S
C4444 C4443 1.410 . S
C4444 C4445 1.392 . S
C4444 C4447 1.511 . S
C4445 C4441 1.376 . S
C4445 C4444 1.392 . S
C4445 H4457 0.929 . S
C4446 C4442 1.531 . S
C4446 H4458 0.960 . S
C4446 H4459 0.962 . S
C4446 H4460 0.960 . S
C4447 C4444 1.511 . S
C4447 H4461 0.961 . S
C4447 H4462 0.961 . S
C4447 H4463 0.961 . S
C4448 C4449 1.370 . S
C4448 C4450 1.363 . S
C4448 H4464 0.931 . S
C4449 C4448 1.370 . S
C4449 C4453 1.408 . S
C4450 C4448 1.363 . S
C4450 C4451 1.370 . S
C4450 C4454 1.524 . S
C4451 C4443 1.503 . S
C4451 C4450 1.370 . S
C4451 C4452 1.403 . S
C4452 C4451 1.403 . S
C4452 C4453 1.404 . S
C4452 C4455 1.539 . S
C4453 C4449 1.408 . S
C4453 C4452 1.404 . S
C4453 H4465 0.930 . S
C4454 C4450 1.524 . S
C4454 H4466 0.956 . S
C4454 H4467 0.961 . S
C4454 H4468 0.961 . S
C4455 C4452 1.539 . S
C4455 H4469 0.958 . S
C4455 H4470 0.961 . S
C4455 H4471 0.960 . S
H4456 C4440 0.931 . S
H4457 C4445 0.929 . S
H4458 C4446 0.960 . S
H4459 C4446 0.962 . S
H4460 C4446 0.960 . S
H4461 C4447 0.961 . S
H4462 C4447 0.961 . S
H4463 C4447 0.961 . S
H4464 C4448 0.931 . S
H4465 C4453 0.930 . S
H4466 C4454 0.956 . S
H4467 C4454 0.961 . S
H4468 C4454 0.961 . S
H4469 C4455 0.958 . S
H4470 C4455 0.961 . S
H4471 C4455 0.960 . S
C4472 C4473 1.391 . S
C4472 C4474 1.394 . S
C4472 H4488 0.931 . S
C4473 C4472 1.391 . S
C4473 C4477 1.376 . S
C4474 C4472 1.394 . S
C4474 C4475 1.369 . S
C4474 C4478 1.531 . S
C4475 C4474 1.369 . S
C4475 C4476 1.410 . S
C4475 C4483 1.503 . S
C4476 C4475 1.410 . S
C4476 C4477 1.392 . S
C4476 C4479 1.511 . S
C4477 C4473 1.376 . S
C4477 C4476 1.392 . S
C4477 H4489 0.929 . S
C4478 C4474 1.531 . S
C4478 H4490 0.960 . S
C4478 H4491 0.962 . S
C4478 H4492 0.960 . S
C4479 C4476 1.511 . S
C4479 H4493 0.961 . S
C4479 H4494 0.961 . S
C4479 H4495 0.961 . S
C4480 C4481 1.370 . S
C4480 C4482 1.363 . S
C4480 H4496 0.931 . S
C4481 C4480 1.370 . S
C4481 C4485 1.408 . S
C4482 C4480 1.363 . S
C4482 C4483 1.370 . S
C4482 C4486 1.524 . S
C4483 C4475 1.503 . S
C4483 C4482 1.370 . S
C4483 C4484 1.403 . S
C4484 C4483 1.403 . S
C4484 C4485 1.404 . S
C4484 C4487 1.539 . S
C4485 C4481 1.408 . S
C4485 C4484 1.404 . S
C4485 H4497 0.930 . S
C4486 C4482 1.524 . S
C4486 H4498 0.956 . S
C4486 H4499 0.961 . S
C4486 H4500 0.961 . S
C4487 C4484 1.539 . S
C4487 H4501 0.958 . S
C4487 H4502 0.961 . S
C4487 H4503 0.960 . S
H4488 C4472 0.931 . S
H4489 C4477 0.929 . S
H4490 C4478 0.960 . S
H4491 C4478 0.962 . S
H4492 C4478 0.960 . S
H4493 C4479 0.961 . S
H4494 C4479 0.961 . S
H4495 C4479 0.961 . S
H4496 C4480 0.931 . S
H4497 C4485 0.930 . S
H4498 C4486 0.956 . S
H4499 C4486 0.961 . S
H4500 C4486 0.961 . S
H4501 C4487 0.958 . S
H4502 C4487 0.961 . S
H4503 C4487 0.960 . S
C4504 C4505 1.391 . S
C4504 C4506 1.394 . S
C4504 H4520 0.931 . S
C4505 C4504 1.391 . S
C4505 C4509 1.376 . S
C4506 C4504 1.394 . S
C4506 C4507 1.369 . S
C4506 C4510 1.531 . S
C4507 C4506 1.369 . S
C4507 C4508 1.410 . S
C4507 C4515 1.503 . S
C4508 C4507 1.410 . S
C4508 C4509 1.392 . S
C4508 C4511 1.511 . S
C4509 C4505 1.376 . S
C4509 C4508 1.392 . S
C4509 H4521 0.929 . S
C4510 C4506 1.531 . S
C4510 H4522 0.960 . S
C4510 H4523 0.962 . S
C4510 H4524 0.960 . S
C4511 C4508 1.511 . S
C4511 H4525 0.961 . S
C4511 H4526 0.961 . S
C4511 H4527 0.961 . S
C4512 C4513 1.370 . S
C4512 C4514 1.363 . S
C4512 H4528 0.931 . S
C4513 C4512 1.370 . S
C4513 C4517 1.408 . S
C4514 C4512 1.363 . S
C4514 C4515 1.370 . S
C4514 C4518 1.524 . S
C4515 C4507 1.503 . S
C4515 C4514 1.370 . S
C4515 C4516 1.403 . S
C4516 C4515 1.403 . S
C4516 C4517 1.404 . S
C4516 C4519 1.539 . S
C4517 C4513 1.408 . S
C4517 C4516 1.404 . S
C4517 H4529 0.930 . S
C4518 C4514 1.524 . S
C4518 H4530 0.956 . S
C4518 H4531 0.961 . S
C4518 H4532 0.961 . S
C4519 C4516 1.539 . S
C4519 H4533 0.958 . S
C4519 H4534 0.961 . S
C4519 H4535 0.960 . S
H4520 C4504 0.931 . S
H4521 C4509 0.929 . S
H4522 C4510 0.960 . S
H4523 C4510 0.962 . S
H4524 C4510 0.960 . S
H4525 C4511 0.961 . S
H4526 C4511 0.961 . S
H4527 C4511 0.961 . S
H4528 C4512 0.931 . S
H4529 C4517 0.930 . S
H4530 C4518 0.956 . S
H4531 C4518 0.961 . S
H4532 C4518 0.961 . S
H4533 C4519 0.958 . S
H4534 C4519 0.961 . S
H4535 C4519 0.960 . S
C4536 C4537 1.391 . S
C4536 C4538 1.394 . S
C4536 H4552 0.931 . S
C4537 C4536 1.391 . S
C4537 C4541 1.376 . S
C4538 C4536 1.394 . S
C4538 C4539 1.369 . S
C4538 C4542 1.531 . S
C4539 C4538 1.369 . S
C4539 C4540 1.410 . S
C4539 C4547 1.503 . S
C4540 C4539 1.410 . S
C4540 C4541 1.392 . S
C4540 C4543 1.511 . S
C4541 C4537 1.376 . S
C4541 C4540 1.392 . S
C4541 H4553 0.929 . S
C4542 C4538 1.531 . S
C4542 H4554 0.960 . S
C4542 H4555 0.962 . S
C4542 H4556 0.960 . S
C4543 C4540 1.511 . S
C4543 H4557 0.961 . S
C4543 H4558 0.961 . S
C4543 H4559 0.961 . S
C4544 C4545 1.370 . S
C4544 C4546 1.363 . S
C4544 H4560 0.931 . S
C4545 C4544 1.370 . S
C4545 C4549 1.408 . S
C4546 C4544 1.363 . S
C4546 C4547 1.370 . S
C4546 C4550 1.524 . S
C4547 C4539 1.503 . S
C4547 C4546 1.370 . S
C4547 C4548 1.403 . S
C4548 C4547 1.403 . S
C4548 C4549 1.404 . S
C4548 C4551 1.539 . S
C4549 C4545 1.408 . S
C4549 C4548 1.404 . S
C4549 H4561 0.930 . S
C4550 C4546 1.524 . S
C4550 H4562 0.956 . S
C4550 H4563 0.961 . S
C4550 H4564 0.961 . S
C4551 C4548 1.539 . S
C4551 H4565 0.958 . S
C4551 H4566 0.961 . S
C4551 H4567 0.960 . S
H4552 C4536 0.931 . S
H4553 C4541 0.929 . S
H4554 C4542 0.960 . S
H4555 C4542 0.962 . S
H4556 C4542 0.960 . S
H4557 C4543 0.961 . S
H4558 C4543 0.961 . S
H4559 C4543 0.961 . S
H4560 C4544 0.931 . S
H4561 C4549 0.930 . S
H4562 C4550 0.956 . S
H4563 C4550 0.961 . S
H4564 C4550 0.961 . S
H4565 C4551 0.958 . S
H4566 C4551 0.961 . S
H4567 C4551 0.960 . S
C4568 C4569 1.391 . S
C4568 C4570 1.394 . S
C4568 H4584 0.931 . S
C4569 C4568 1.391 . S
C4569 C4573 1.376 . S
C4570 C4568 1.394 . S
C4570 C4571 1.369 . S
C4570 C4574 1.531 . S
C4571 C4570 1.369 . S
C4571 C4572 1.410 . S
C4571 C4579 1.503 . S
C4572 C4571 1.410 . S
C4572 C4573 1.392 . S
C4572 C4575 1.511 . S
C4573 C4569 1.376 . S
C4573 C4572 1.392 . S
C4573 H4585 0.929 . S
C4574 C4570 1.531 . S
C4574 H4586 0.960 . S
C4574 H4587 0.962 . S
C4574 H4588 0.960 . S
C4575 C4572 1.511 . S
C4575 H4589 0.961 . S
C4575 H4590 0.961 . S
C4575 H4591 0.961 . S
C4576 C4577 1.370 . S
C4576 C4578 1.363 . S
C4576 H4592 0.931 . S
C4577 C4576 1.370 . S
C4577 C4581 1.408 . S
C4578 C4576 1.363 . S
C4578 C4579 1.370 . S
C4578 C4582 1.524 . S
C4579 C4571 1.503 . S
C4579 C4578 1.370 . S
C4579 C4580 1.403 . S
C4580 C4579 1.403 . S
C4580 C4581 1.404 . S
C4580 C4583 1.539 . S
C4581 C4577 1.408 . S
C4581 C4580 1.404 . S
C4581 H4593 0.930 . S
C4582 C4578 1.524 . S
C4582 H4594 0.956 . S
C4582 H4595 0.961 . S
C4582 H4596 0.961 . S
C4583 C4580 1.539 . S
C4583 H4597 0.958 . S
C4583 H4598 0.961 . S
C4583 H4599 0.960 . S
H4584 C4568 0.931 . S
H4585 C4573 0.929 . S
H4586 C4574 0.960 . S
H4587 C4574 0.962 . S
H4588 C4574 0.960 . S
H4589 C4575 0.961 . S
H4590 C4575 0.961 . S
H4591 C4575 0.961 . S
H4592 C4576 0.931 . S
H4593 C4581 0.930 . S
H4594 C4582 0.956 . S
H4595 C4582 0.961 . S
H4596 C4582 0.961 . S
H4597 C4583 0.958 . S
H4598 C4583 0.961 . S
H4599 C4583 0.960 . S
C4600 C4601 1.391 . S
C4600 C4602 1.394 . S
C4600 H4616 0.931 . S
C4601 C4600 1.391 . S
C4601 C4605 1.376 . S
C4602 C4600 1.394 . S
C4602 C4603 1.369 . S
C4602 C4606 1.531 . S
C4603 C4602 1.369 . S
C4603 C4604 1.410 . S
C4603 C4611 1.503 . S
C4604 C4603 1.410 . S
C4604 C4605 1.392 . S
C4604 C4607 1.511 . S
C4605 C4601 1.376 . S
C4605 C4604 1.392 . S
C4605 H4617 0.929 . S
C4606 C4602 1.531 . S
C4606 H4618 0.960 . S
C4606 H4619 0.962 . S
C4606 H4620 0.960 . S
C4607 C4604 1.511 . S
C4607 H4621 0.961 . S
C4607 H4622 0.961 . S
C4607 H4623 0.961 . S
C4608 C4609 1.370 . S
C4608 C4610 1.363 . S
C4608 H4624 0.931 . S
C4609 C4608 1.370 . S
C4609 C4613 1.408 . S
C4610 C4608 1.363 . S
C4610 C4611 1.370 . S
C4610 C4614 1.524 . S
C4611 C4603 1.503 . S
C4611 C4610 1.370 . S
C4611 C4612 1.403 . S
C4612 C4611 1.403 . S
C4612 C4613 1.404 . S
C4612 C4615 1.539 . S
C4613 C4609 1.408 . S
C4613 C4612 1.404 . S
C4613 H4625 0.930 . S
C4614 C4610 1.524 . S
C4614 H4626 0.956 . S
C4614 H4627 0.961 . S
C4614 H4628 0.961 . S
C4615 C4612 1.539 . S
C4615 H4629 0.958 . S
C4615 H4630 0.961 . S
C4615 H4631 0.960 . S
H4616 C4600 0.931 . S
H4617 C4605 0.929 . S
H4618 C4606 0.960 . S
H4619 C4606 0.962 . S
H4620 C4606 0.960 . S
H4621 C4607 0.961 . S
H4622 C4607 0.961 . S
H4623 C4607 0.961 . S
H4624 C4608 0.931 . S
H4625 C4613 0.930 . S
H4626 C4614 0.956 . S
H4627 C4614 0.961 . S
H4628 C4614 0.961 . S
H4629 C4615 0.958 . S
H4630 C4615 0.961 . S
H4631 C4615 0.960 . S
C4632 C4633 1.391 . S
C4632 C4634 1.394 . S
C4632 H4648 0.931 . S
C4633 C4632 1.391 . S
C4633 C4637 1.376 . S
C4634 C4632 1.394 . S
C4634 C4635 1.369 . S
C4634 C4638 1.531 . S
C4635 C4634 1.369 . S
C4635 C4636 1.410 . S
C4635 C4643 1.503 . S
C4636 C4635 1.410 . S
C4636 C4637 1.392 . S
C4636 C4639 1.511 . S
C4637 C4633 1.376 . S
C4637 C4636 1.392 . S
C4637 H4649 0.929 . S
C4638 C4634 1.531 . S
C4638 H4650 0.960 . S
C4638 H4651 0.962 . S
C4638 H4652 0.960 . S
C4639 C4636 1.511 . S
C4639 H4653 0.961 . S
C4639 H4654 0.961 . S
C4639 H4655 0.961 . S
C4640 C4641 1.370 . S
C4640 C4642 1.363 . S
C4640 H4656 0.931 . S
C4641 C4640 1.370 . S
C4641 C4645 1.408 . S
C4642 C4640 1.363 . S
C4642 C4643 1.370 . S
C4642 C4646 1.524 . S
C4643 C4635 1.503 . S
C4643 C4642 1.370 . S
C4643 C4644 1.403 . S
C4644 C4643 1.403 . S
C4644 C4645 1.404 . S
C4644 C4647 1.539 . S
C4645 C4641 1.408 . S
C4645 C4644 1.404 . S
C4645 H4657 0.930 . S
C4646 C4642 1.524 . S
C4646 H4658 0.956 . S
C4646 H4659 0.961 . S
C4646 H4660 0.961 . S
C4647 C4644 1.539 . S
C4647 H4661 0.958 . S
C4647 H4662 0.961 . S
C4647 H4663 0.960 . S
H4648 C4632 0.931 . S
H4649 C4637 0.929 . S
H4650 C4638 0.960 . S
H4651 C4638 0.962 . S
H4652 C4638 0.960 . S
H4653 C4639 0.961 . S
H4654 C4639 0.961 . S
H4655 C4639 0.961 . S
H4656 C4640 0.931 . S
H4657 C4645 0.930 . S
H4658 C4646 0.956 . S
H4659 C4646 0.961 . S
H4660 C4646 0.961 . S
H4661 C4647 0.958 . S
H4662 C4647 0.961 . S
H4663 C4647 0.960 . S
C4664 C4665 1.391 . S
C4664 C4666 1.394 . S
C4664 H4680 0.931 . S
C4665 C4664 1.391 . S
C4665 C4669 1.376 . S
C4666 C4664 1.394 . S
C4666 C4667 1.369 . S
C4666 C4670 1.531 . S
C4667 C4666 1.369 . S
C4667 C4668 1.410 . S
C4667 C4675 1.503 . S
C4668 C4667 1.410 . S
C4668 C4669 1.392 . S
C4668 C4671 1.511 . S
C4669 C4665 1.376 . S
C4669 C4668 1.392 . S
C4669 H4681 0.929 . S
C4670 C4666 1.531 . S
C4670 H4682 0.960 . S
C4670 H4683 0.962 . S
C4670 H4684 0.960 . S
C4671 C4668 1.511 . S
C4671 H4685 0.961 . S
C4671 H4686 0.961 . S
C4671 H4687 0.961 . S
C4672 C4673 1.370 . S
C4672 C4674 1.363 . S
C4672 H4688 0.931 . S
C4673 C4672 1.370 . S
C4673 C4677 1.408 . S
C4674 C4672 1.363 . S
C4674 C4675 1.370 . S
C4674 C4678 1.524 . S
C4675 C4667 1.503 . S
C4675 C4674 1.370 . S
C4675 C4676 1.403 . S
C4676 C4675 1.403 . S
C4676 C4677 1.404 . S
C4676 C4679 1.539 . S
C4677 C4673 1.408 . S
C4677 C4676 1.404 . S
C4677 H4689 0.930 . S
C4678 C4674 1.524 . S
C4678 H4690 0.956 . S
C4678 H4691 0.961 . S
C4678 H4692 0.961 . S
C4679 C4676 1.539 . S
C4679 H4693 0.958 . S
C4679 H4694 0.961 . S
C4679 H4695 0.960 . S
H4680 C4664 0.931 . S
H4681 C4669 0.929 . S
H4682 C4670 0.960 . S
H4683 C4670 0.962 . S
H4684 C4670 0.960 . S
H4685 C4671 0.961 . S
H4686 C4671 0.961 . S
H4687 C4671 0.961 . S
H4688 C4672 0.931 . S
H4689 C4677 0.930 . S
H4690 C4678 0.956 . S
H4691 C4678 0.961 . S
H4692 C4678 0.961 . S
H4693 C4679 0.958 . S
H4694 C4679 0.961 . S
H4695 C4679 0.960 . S
C4696 C4697 1.391 . S
C4696 C4698 1.394 . S
C4696 H4712 0.931 . S
C4697 C4696 1.391 . S
C4697 C4701 1.376 . S
C4698 C4696 1.394 . S
C4698 C4699 1.369 . S
C4698 C4702 1.531 . S
C4699 C4698 1.369 . S
C4699 C4700 1.410 . S
C4699 C4707 1.503 . S
C4700 C4699 1.410 . S
C4700 C4701 1.392 . S
C4700 C4703 1.511 . S
C4701 C4697 1.376 . S
C4701 C4700 1.392 . S
C4701 H4713 0.929 . S
C4702 C4698 1.531 . S
C4702 H4714 0.960 . S
C4702 H4715 0.962 . S
C4702 H4716 0.960 . S
C4703 C4700 1.511 . S
C4703 H4717 0.961 . S
C4703 H4718 0.961 . S
C4703 H4719 0.961 . S
C4704 C4705 1.370 . S
C4704 C4706 1.363 . S
C4704 H4720 0.931 . S
C4705 C4704 1.370 . S
C4705 C4709 1.408 . S
C4706 C4704 1.363 . S
C4706 C4707 1.370 . S
C4706 C4710 1.524 . S
C4707 C4699 1.503 . S
C4707 C4706 1.370 . S
C4707 C4708 1.403 . S
C4708 C4707 1.403 . S
C4708 C4709 1.404 . S
C4708 C4711 1.539 . S
C4709 C4705 1.408 . S
C4709 C4708 1.404 . S
C4709 H4721 0.930 . S
C4710 C4706 1.524 . S
C4710 H4722 0.956 . S
C4710 H4723 0.961 . S
C4710 H4724 0.961 . S
C4711 C4708 1.539 . S
C4711 H4725 0.958 . S
C4711 H4726 0.961 . S
C4711 H4727 0.960 . S
H4712 C4696 0.931 . S
H4713 C4701 0.929 . S
H4714 C4702 0.960 . S
H4715 C4702 0.962 . S
H4716 C4702 0.960 . S
H4717 C4703 0.961 . S
H4718 C4703 0.961 . S
H4719 C4703 0.961 . S
H4720 C4704 0.931 . S
H4721 C4709 0.930 . S
H4722 C4710 0.956 . S
H4723 C4710 0.961 . S
H4724 C4710 0.961 . S
H4725 C4711 0.958 . S
H4726 C4711 0.961 . S
H4727 C4711 0.960 . S
C4728 C4729 1.391 . S
C4728 C4730 1.394 . S
C4728 H4744 0.931 . S
C4729 C4728 1.391 . S
C4729 C4733 1.376 . S
C4730 C4728 1.394 . S
C4730 C4731 1.369 . S
C4730 C4734 1.531 . S
C4731 C4730 1.369 . S
C4731 C4732 1.410 . S
C4731 C4739 1.503 . S
C4732 C4731 1.410 . S
C4732 C4733 1.392 . S
C4732 C4735 1.511 . S
C4733 C4729 1.376 . S
C4733 C4732 1.392 . S
C4733 H4745 0.929 . S
C4734 C4730 1.531 . S
C4734 H4746 0.960 . S
C4734 H4747 0.962 . S
C4734 H4748 0.960 . S
C4735 C4732 1.511 . S
C4735 H4749 0.961 . S
C4735 H4750 0.961 . S
C4735 H4751 0.961 . S
C4736 C4737 1.370 . S
C4736 C4738 1.363 . S
C4736 H4752 0.931 . S
C4737 C4736 1.370 . S
C4737 C4741 1.408 . S
C4738 C4736 1.363 . S
C4738 C4739 1.370 . S
C4738 C4742 1.524 . S
C4739 C4731 1.503 . S
C4739 C4738 1.370 . S
C4739 C4740 1.403 . S
C4740 C4739 1.403 . S
C4740 C4741 1.404 . S
C4740 C4743 1.539 . S
C4741 C4737 1.408 . S
C4741 C4740 1.404 . S
C4741 H4753 0.930 . S
C4742 C4738 1.524 . S
C4742 H4754 0.956 . S
C4742 H4755 0.961 . S
C4742 H4756 0.961 . S
C4743 C4740 1.539 . S
C4743 H4757 0.958 . S
C4743 H4758 0.961 . S
C4743 H4759 0.960 . S
H4744 C4728 0.931 . S
H4745 C4733 0.929 . S
H4746 C4734 0.960 . S
H4747 C4734 0.962 . S
H4748 C4734 0.960 . S
H4749 C4735 0.961 . S
H4750 C4735 0.961 . S
H4751 C4735 0.961 . S
H4752 C4736 0.931 . S
H4753 C4741 0.930 . S
H4754 C4742 0.956 . S
H4755 C4742 0.961 . S
H4756 C4742 0.961 . S
H4757 C4743 0.958 . S
H4758 C4743 0.961 . S
H4759 C4743 0.960 . S
C4760 C4761 1.391 . S
C4760 C4762 1.394 . S
C4760 H4776 0.931 . S
C4761 C4760 1.391 . S
C4761 C4765 1.376 . S
C4762 C4760 1.394 . S
C4762 C4763 1.369 . S
C4762 C4766 1.531 . S
C4763 C4762 1.369 . S
C4763 C4764 1.410 . S
C4763 C4771 1.503 . S
C4764 C4763 1.410 . S
C4764 C4765 1.392 . S
C4764 C4767 1.511 . S
C4765 C4761 1.376 . S
C4765 C4764 1.392 . S
C4765 H4777 0.929 . S
C4766 C4762 1.531 . S
C4766 H4778 0.960 . S
C4766 H4779 0.962 . S
C4766 H4780 0.960 . S
C4767 C4764 1.511 . S
C4767 H4781 0.961 . S
C4767 H4782 0.961 . S
C4767 H4783 0.961 . S
C4768 C4769 1.370 . S
C4768 C4770 1.363 . S
C4768 H4784 0.931 . S
C4769 C4768 1.370 . S
C4769 C4773 1.408 . S
C4770 C4768 1.363 . S
C4770 C4771 1.370 . S
C4770 C4774 1.524 . S
C4771 C4763 1.503 . S
C4771 C4770 1.370 . S
C4771 C4772 1.403 . S
C4772 C4771 1.403 . S
C4772 C4773 1.404 . S
C4772 C4775 1.539 . S
C4773 C4769 1.408 . S
C4773 C4772 1.404 . S
C4773 H4785 0.930 . S
C4774 C4770 1.524 . S
C4774 H4786 0.956 . S
C4774 H4787 0.961 . S
C4774 H4788 0.961 . S
C4775 C4772 1.539 . S
C4775 H4789 0.958 . S
C4775 H4790 0.961 . S
C4775 H4791 0.960 . S
H4776 C4760 0.931 . S
H4777 C4765 0.929 . S
H4778 C4766 0.960 . S
H4779 C4766 0.962 . S
H4780 C4766 0.960 . S
H4781 C4767 0.961 . S
H4782 C4767 0.961 . S
H4783 C4767 0.961 . S
H4784 C4768 0.931 . S
H4785 C4773 0.930 . S
H4786 C4774 0.956 . S
H4787 C4774 0.961 . S
H4788 C4774 0.961 . S
H4789 C4775 0.958 . S
H4790 C4775 0.961 . S
H4791 C4775 0.960 . S
C4792 C4793 1.391 . S
C4792 C4794 1.394 . S
C4792 H4808 0.931 . S
C4793 C4792 1.391 . S
C4793 C4797 1.376 . S
C4794 C4792 1.394 . S
C4794 C4795 1.369 . S
C4794 C4798 1.531 . S
C4795 C4794 1.369 . S
C4795 C4796 1.410 . S
C4795 C4803 1.503 . S
C4796 C4795 1.410 . S
C4796 C4797 1.392 . S
C4796 C4799 1.511 . S
C4797 C4793 1.376 . S
C4797 C4796 1.392 . S
C4797 H4809 0.929 . S
C4798 C4794 1.531 . S
C4798 H4810 0.960 . S
C4798 H4811 0.962 . S
C4798 H4812 0.960 . S
C4799 C4796 1.511 . S
C4799 H4813 0.961 . S
C4799 H4814 0.961 . S
C4799 H4815 0.961 . S
C4800 C4801 1.370 . S
C4800 C4802 1.363 . S
C4800 H4816 0.931 . S
C4801 C4800 1.370 . S
C4801 C4805 1.408 . S
C4802 C4800 1.363 . S
C4802 C4803 1.370 . S
C4802 C4806 1.524 . S
C4803 C4795 1.503 . S
C4803 C4802 1.370 . S
C4803 C4804 1.403 . S
C4804 C4803 1.403 . S
C4804 C4805 1.404 . S
C4804 C4807 1.539 . S
C4805 C4801 1.408 . S
C4805 C4804 1.404 . S
C4805 H4817 0.930 . S
C4806 C4802 1.524 . S
C4806 H4818 0.956 . S
C4806 H4819 0.961 . S
C4806 H4820 0.961 . S
C4807 C4804 1.539 . S
C4807 H4821 0.958 . S
C4807 H4822 0.961 . S
C4807 H4823 0.960 . S
H4808 C4792 0.931 . S
H4809 C4797 0.929 . S
H4810 C4798 0.960 . S
H4811 C4798 0.962 . S
H4812 C4798 0.960 . S
H4813 C4799 0.961 . S
H4814 C4799 0.961 . S
H4815 C4799 0.961 . S
H4816 C4800 0.931 . S
H4817 C4805 0.930 . S
H4818 C4806 0.956 . S
H4819 C4806 0.961 . S
H4820 C4806 0.961 . S
H4821 C4807 0.958 . S
H4822 C4807 0.961 . S
H4823 C4807 0.960 . S
C4824 C4825 1.391 . S
C4824 C4826 1.394 . S
C4824 H4840 0.931 . S
C4825 C4824 1.391 . S
C4825 C4829 1.376 . S
C4826 C4824 1.394 . S
C4826 C4827 1.369 . S
C4826 C4830 1.531 . S
C4827 C4826 1.369 . S
C4827 C4828 1.410 . S
C4827 C4835 1.503 . S
C4828 C4827 1.410 . S
C4828 C4829 1.392 . S
C4828 C4831 1.511 . S
C4829 C4825 1.376 . S
C4829 C4828 1.392 . S
C4829 H4841 0.929 . S
C4830 C4826 1.531 . S
C4830 H4842 0.960 . S
C4830 H4843 0.962 . S
C4830 H4844 0.960 . S
C4831 C4828 1.511 . S
C4831 H4845 0.961 . S
C4831 H4846 0.961 . S
C4831 H4847 0.961 . S
C4832 C4833 1.370 . S
C4832 C4834 1.363 . S
C4832 H4848 0.931 . S
C4833 C4832 1.370 . S
C4833 C4837 1.408 . S
C4834 C4832 1.363 . S
C4834 C4835 1.370 . S
C4834 C4838 1.524 . S
C4835 C4827 1.503 . S
C4835 C4834 1.370 . S
C4835 C4836 1.403 . S
C4836 C4835 1.403 . S
C4836 C4837 1.404 . S
C4836 C4839 1.539 . S
C4837 C4833 1.408 . S
C4837 C4836 1.404 . S
C4837 H4849 0.930 . S
C4838 C4834 1.524 . S
C4838 H4850 0.956 . S
C4838 H4851 0.961 . S
C4838 H4852 0.961 . S
C4839 C4836 1.539 . S
C4839 H4853 0.958 . S
C4839 H4854 0.961 . S
C4839 H4855 0.960 . S
H4840 C4824 0.931 . S
H4841 C4829 0.929 . S
H4842 C4830 0.960 . S
H4843 C4830 0.962 . S
H4844 C4830 0.960 . S
H4845 C4831 0.961 . S
H4846 C4831 0.961 . S
H4847 C4831 0.961 . S
H4848 C4832 0.931 . S
H4849 C4837 0.930 . S
H4850 C4838 0.956 . S
H4851 C4838 0.961 . S
H4852 C4838 0.961 . S
H4853 C4839 0.958 . S
H4854 C4839 0.961 . S
H4855 C4839 0.960 . S
C1793 C1299 1.481 . S
C1785 C21 1.559 . S
C1825 C1310 1.424 . S
C1817 C42 1.520 . S
C1849 C82 1.559 . S
C1857 C1334 1.427 . S
C1889 C1355 1.399 . S
C1881 C135 1.540 . S
C1913 C175 1.475 . S
C1921 C1362 1.416 . S
C1945 C221 1.528 . S
C1953 C1292 1.457 . S
C1977 C255 1.541 . S
C1985 C1318 1.403 . S
C2017 C1341 1.498 . S
C2009 C301 1.587 . S
C2049 C1373 1.444 . S
C2041 C15 1.531 . S
C2073 C55 1.513 . S
C2081 C1394 1.382 . S
C2105 C101 1.537 . S
C2113 C1418 1.480 . S
C2145 C1436 1.425 . S
C2137 C141 1.541 . S
C2169 C162 1.474 . S
C2177 C1465 1.415 . S
C2209 C1486 1.427 . S
C2201 C215 1.559 . S
C2233 C261 1.563 . S
C2241 C1502 1.442 . S
C2273 C1523 1.414 . S
C2265 C282 1.549 . S
C2297 C2 1.521 . S
C2305 C1444 1.430 . S
C2329 C181 1.478 . S
C2337 C1478 1.407 . S
C2369 C1509 1.475 . S
C2361 C202 1.551 . S
C2393 C242 1.546 . S
C2401 C1530 1.460 . S
C2433 C1457 1.448 . S
C2425 C295 1.528 . S
C2465 C1402 1.440 . S
C2457 C95 1.566 . S
C2489 C122 1.548 . S
C2497 C1425 1.462 . S
C2529 C1381 1.384 . S
C2521 C61 1.522 . S
C2561 C1549 1.474 . S
C2553 C341 1.519 . S
C2585 C362 1.519 . S
C2593 C1565 1.387 . S
C2617 C402 1.517 . S
C2625 C1583 1.465 . S
C2657 C1604 1.459 . S
C2649 C455 1.553 . S
C2681 C495 1.501 . S
C2689 C1612 1.368 . S
C2713 C541 1.544 . S
C2721 C1541 1.472 . S
C2745 C575 1.537 . S
C2753 C1572 1.424 . S
C2777 C621 1.582 . S
C2785 C1591 1.455 . S
C2817 C1467 1.458 . S
C2809 C335 1.538 . S
C2841 C375 1.519 . S
C2849 C1625 1.388 . S
C2881 C1499 1.480 . S
C2873 C421 1.532 . S
C2905 C461 1.548 . S
C2913 C1654 1.418 . S
C2937 C482 1.513 . S
C2945 C1376 1.401 . S
C2977 C1670 1.455 . S
C2969 C535 1.549 . S
C3001 C581 1.554 . S
C3009 C1415 1.464 . S
C3041 C1698 1.461 . S
C3033 C602 1.554 . S
C3065 C322 1.538 . S
C3073 C1646 1.446 . S
C3105 C1677 1.421 . S
C3097 C501 1.456 . S
C3129 C522 1.574 . S
C3137 C1423 1.456 . S
C3169 C1691 1.418 . S
C3161 C562 1.558 . S
C3193 C615 1.531 . S
C3201 C1383 1.439 . S
C3225 C415 1.545 . S
C3233 C1633 1.450 . S
C3257 C442 1.550 . S
C3265 C1507 1.449 . S
C3289 C381 1.529 . S
C3297 C1460 1.394 . S
C3321 C661 1.572 . S
C3329 C1586 1.436 . S
C3361 C1607 1.400 . S
C3353 C682 1.503 . S
C3385 C722 1.546 . S
C3393 C1551 1.459 . S
C3417 C775 1.532 . S
C3425 C1562 1.461 . S
C3449 C815 1.506 . S
C3457 C1570 1.361 . S
C3481 C861 1.525 . S
C3489 C1593 1.476 . S
C3521 C1614 1.429 . S
C3513 C895 1.540 . S
C3545 C941 1.590 . S
C3553 C1544 1.478 . S
C3585 C1709 1.427 . S
C3577 C655 1.546 . S
C3609 C695 1.489 . S
C3617 C1488 1.426 . S
C3649 C1730 1.494 . S
C3641 C741 1.542 . S
C3673 C781 1.549 . S
C3681 C1520 1.441 . S
C3705 C802 1.513 . S
C3713 C1754 1.400 . S
C3737 C855 1.541 . S
C3745 C1397 1.449 . S
C3777 C1775 1.425 . S
C3769 C901 1.557 . S
C3801 C922 1.559 . S
C3809 C1439 1.441 . S
C3841 C1528 1.444 . S
C3833 C642 1.523 . S
C3873 C1404 1.422 . S
C3865 C821 1.453 . S
C3897 C842 1.525 . S
C3905 C1782 1.500 . S
C3929 C882 1.551 . S
C3937 C1446 1.453 . S
C3969 C1761 1.459 . S
C3961 C935 1.532 . S
C4001 C1481 1.414 . S
C3993 C735 1.561 . S
C4033 C1738 1.415 . S
C4025 C762 1.553 . S
C4065 C1717 1.385 . S
C4057 C701 1.529 . S
C4089 C981 1.526 . S
C4097 C1331 1.491 . S
C4121 C1002 1.517 . S
C4129 C1352 1.408 . S
C4161 C1297 1.457 . S
C4153 C1042 1.506 . S
C4193 C1313 1.406 . S
C4185 C1095 1.555 . S
C4225 C1320 1.382 . S
C4217 C1135 1.499 . S
C4257 C1339 1.465 . S
C4249 C1181 1.532 . S
C4289 C1360 1.400 . S
C4281 C1215 1.545 . S
C4313 C1261 1.579 . S
C4321 C1289 1.470 . S
C4345 C975 1.549 . S
C4353 C1751 1.426 . S
C4385 C1667 1.421 . S
C4377 C1015 1.496 . S
C4417 C1772 1.497 . S
C4409 C1061 1.545 . S
C4449 C1696 1.443 . S
C4441 C1101 1.555 . S
C4473 C1122 1.492 . S
C4481 C1712 1.385 . S
C4513 C1628 1.422 . S
C4505 C1175 1.560 . S
C4545 C1733 1.453 . S
C4537 C1221 1.565 . S
C4569 C1242 1.541 . S
C4577 C1656 1.445 . S
C4609 C1688 1.451 . S
C4601 C962 1.522 . S
C4641 C1635 1.407 . S
C4633 C1141 1.486 . S
C4673 C1740 1.484 . S
C4665 C1162 1.546 . S
C4697 C1202 1.570 . S
C4705 C1649 1.425 . S
C4729 C1255 1.536 . S
C4737 C1719 1.422 . S
C4761 C1055 1.571 . S
C4769 C1675 1.430 . S
C4793 C1082 1.562 . S
C4801 C1780 1.430 . S
C4833 C1759 1.418 . S
C4825 C1021 1.526 . S
