# Generated by pormake.
# Topology zzz, (3,6)-cn, num edge types: 1
# Building blocks:
#     Node 0, Type 0, BuildingBlock: MIDCAF_clean_linker_0, # of connection points: 3
#     Node 1, Type 0, BuildingBlock: MIDCAF_clean_linker_0, # of connection points: 3
#     Node 2, Type 0, BuildingBlock: MIDCAF_clean_linker_0, # of connection points: 3
#     Node 3, Type 0, BuildingBlock: MIDCAF_clean_linker_0, # of connection points: 3
#     Node 4, Type 0, BuildingBlock: MIDCAF_clean_linker_0, # of connection points: 3
#     Node 5, Type 0, BuildingBlock: MIDCAF_clean_linker_0, # of connection points: 3
#     Node 6, Type 0, BuildingBlock: MIDCAF_clean_linker_0, # of connection points: 3
#     Node 7, Type 0, BuildingBlock: MIDCAF_clean_linker_0, # of connection points: 3
#     Node 8, Type 1, BuildingBlock: NUHQIS_clean_sbu_0, # of connection points: 6
#     Node 9, Type 1, BuildingBlock: NUHQIS_clean_sbu_0, # of connection points: 6
#     Node 10, Type 1, BuildingBlock: NUHQIS_clean_sbu_0, # of connection points: 6
#     Node 11, Type 1, BuildingBlock: NUHQIS_clean_sbu_0, # of connection points: 6
#     Edge 12, Type (0, 1), BuildingBlock: EZIPEK_clean_linker_0, # of connection points: 2
#     Edge 13, Type (0, 1), BuildingBlock: EZIPEK_clean_linker_0, # of connection points: 2
#     Edge 14, Type (0, 1), BuildingBlock: EZIPEK_clean_linker_0, # of connection points: 2
#     Edge 15, Type (0, 1), BuildingBlock: EZIPEK_clean_linker_0, # of connection points: 2
#     Edge 16, Type (0, 1), BuildingBlock: EZIPEK_clean_linker_0, # of connection points: 2
#     Edge 17, Type (0, 1), BuildingBlock: EZIPEK_clean_linker_0, # of connection points: 2
#     Edge 18, Type (0, 1), BuildingBlock: EZIPEK_clean_linker_0, # of connection points: 2
#     Edge 19, Type (0, 1), BuildingBlock: EZIPEK_clean_linker_0, # of connection points: 2
#     Edge 20, Type (0, 1), BuildingBlock: EZIPEK_clean_linker_0, # of connection points: 2
#     Edge 21, Type (0, 1), BuildingBlock: EZIPEK_clean_linker_0, # of connection points: 2
#     Edge 22, Type (0, 1), BuildingBlock: EZIPEK_clean_linker_0, # of connection points: 2
#     Edge 23, Type (0, 1), BuildingBlock: EZIPEK_clean_linker_0, # of connection points: 2
#     Edge 24, Type (0, 1), BuildingBlock: EZIPEK_clean_linker_0, # of connection points: 2
#     Edge 25, Type (0, 1), BuildingBlock: EZIPEK_clean_linker_0, # of connection points: 2
#     Edge 26, Type (0, 1), BuildingBlock: EZIPEK_clean_linker_0, # of connection points: 2
#     Edge 27, Type (0, 1), BuildingBlock: EZIPEK_clean_linker_0, # of connection points: 2
#     Edge 28, Type (0, 1), BuildingBlock: EZIPEK_clean_linker_0, # of connection points: 2
#     Edge 29, Type (0, 1), BuildingBlock: EZIPEK_clean_linker_0, # of connection points: 2
#     Edge 30, Type (0, 1), BuildingBlock: EZIPEK_clean_linker_0, # of connection points: 2
#     Edge 31, Type (0, 1), BuildingBlock: EZIPEK_clean_linker_0, # of connection points: 2
#     Edge 32, Type (0, 1), BuildingBlock: EZIPEK_clean_linker_0, # of connection points: 2
#     Edge 33, Type (0, 1), BuildingBlock: EZIPEK_clean_linker_0, # of connection points: 2
#     Edge 34, Type (0, 1), BuildingBlock: EZIPEK_clean_linker_0, # of connection points: 2
#     Edge 35, Type (0, 1), BuildingBlock: EZIPEK_clean_linker_0, # of connection points: 2
# Relax obj value: 0.479
# Max RMSD: 0.251
# Mean RMSD: 0.235
data_MOF--net-zzz--node1-NUHQIS_clean_sbu_0--node2-MIDCAF_clean_linker_0--edge1-EZIPEK_clean_linker_0
_symmetry_space_group_name_H-M    P1
_symmetry_Int_Tables_number       1
_symmetry_cell_setting            triclinic
loop_
_symmetry_equiv_pos_as_xyz
'x, y, z'
_cell_length_a     45.739171
_cell_length_b     45.564479
_cell_length_c     14.831983
_cell_angle_alpha  89.651529
_cell_angle_beta   90.05512
_cell_angle_gamma 89.937262
loop_
_atom_site_label
_atom_site_type_symbol
_atom_site_fract_x
_atom_site_fract_y
_atom_site_fract_z
_atom_type_partial_charge
C0 C 0.83342 0.53109 0.46482 0.0
C1 C 0.8396 0.51931 0.55063 0.0
C2 C 0.81722 0.5048 0.59773 0.0
C3 C 0.79006 0.49981 0.55654 0.0
H4 H 0.67422 0.45697 0.27384 0.0
H5 H 0.63493 0.47049 0.17024 0.0
H6 H 0.67262 0.55646 0.13672 0.0
H7 H 0.71242 0.543 0.24193 0.0
H8 H 0.75952 0.43268 0.16116 0.0
H9 H 0.80317 0.40991 0.099 0.0
H10 H 0.82957 0.3823 0.36539 0.0
H11 H 0.78634 0.40616 0.42872 0.0
H12 H 0.80299 0.53306 0.35439 0.0
H13 H 0.85042 0.54217 0.42695 0.0
H14 H 0.82151 0.49535 0.66362 0.0
H15 H 0.77431 0.48596 0.59089 0.0
N16 N 0.73963 0.50477 0.37048 0.0
N17 N 0.73178 0.45976 0.29622 0.0
N18 N 0.77107 0.46462 0.39512 0.0
C19 C 0.72304 0.4877 0.31408 0.0
C20 C 0.75568 0.44809 0.33673 0.0
C21 C 0.76349 0.49268 0.41275 0.0
C22 C 0.69661 0.49886 0.26589 0.0
C23 C 0.67393 0.47902 0.24605 0.0
C24 C 0.65136 0.4867 0.18683 0.0
C25 C 0.65086 0.51439 0.14528 0.0
C26 C 0.67252 0.53499 0.16838 0.0
C27 C 0.69518 0.52733 0.22873 0.0
C28 C 0.77014 0.42193 0.29994 0.0
C29 C 0.77362 0.42025 0.20607 0.0
C30 C 0.79871 0.40736 0.17036 0.0
C31 C 0.81997 0.39548 0.22824 0.0
C32 C 0.81352 0.39181 0.32008 0.0
C33 C 0.78876 0.40536 0.3561 0.0
C34 C 0.78456 0.5095 0.46784 0.0
C35 C 0.80611 0.52629 0.42388 0.0
C36 C 0.04042 0.8243 0.52558 0.0
C37 C 0.0132 0.8384 0.51977 0.0
C38 C 0.99109 0.82542 0.46706 0.0
C39 C 0.99687 0.79997 0.41621 0.0
H40 H 0.97882 0.70401 0.22555 0.0
H41 H 0.96576 0.65896 0.1428 0.0
H42 H 0.05637 0.63301 0.1406 0.0
H43 H 0.06931 0.67734 0.22305 0.0
H44 H 0.08517 0.82007 0.21745 0.0
H45 H 0.1108 0.84541 0.09714 0.0
H46 H 0.12323 0.76368 0.95718 0.0
H47 H 0.09648 0.73779 0.07716 0.0
H48 H 0.0681 0.79007 0.47588 0.0
H49 H 0.05787 0.83388 0.56511 0.0
H50 H 0.96999 0.83604 0.46078 0.0
H51 H 0.98027 0.79186 0.37059 0.0
N52 N 0.02351 0.7405 0.32481 0.0
N53 N 0.05676 0.7359 0.20398 0.0
N54 N 0.0565 0.77858 0.28964 0.0
C55 C 0.03509 0.72427 0.25551 0.0
C56 C 0.0674 0.76304 0.21991 0.0
C57 C 0.03487 0.76778 0.34267 0.0
C58 C 0.02508 0.6942 0.23126 0.0
C59 C 0.99569 0.68808 0.2106 0.0
C60 C 0.98828 0.66248 0.16249 0.0
C61 C 1.01018 0.64272 0.13414 0.0
C62 C 0.03911 0.64786 0.16097 0.0
C63 C 0.04645 0.67322 0.20861 0.0
C64 C 0.08811 0.77696 0.15609 0.0
C65 C 0.09368 0.80719 0.16221 0.0
C66 C 0.10845 0.82177 0.09343 0.0
C67 C 0.11832 0.80647 0.0176 0.0
C68 C 0.11535 0.77586 1.01477 0.0
C69 C 0.10004 0.76119 0.08329 0.0
C70 C 0.02484 0.78708 0.41732 0.0
C71 C 0.04616 0.79906 0.47494 0.0
C72 C 0.69358 0.99524 0.46313 0.0
C73 C 0.68738 1.00706 0.54841 0.0
C74 C 0.70964 0.0219 0.59465 0.0
C75 C 0.73666 0.02719 0.553 0.0
H76 H 0.85288 0.06967 0.27497 0.0
H77 H 0.89202 0.05703 0.1704 0.0
H78 H 0.85209 0.97283 0.12436 0.0
H79 H 0.81255 0.98538 0.23079 0.0
H80 H 0.7664 0.0948 0.15591 0.0
H81 H 0.72269 0.11778 0.0938 0.0
H82 H 0.69692 0.14513 0.35985 0.0
H83 H 0.74018 0.12098 0.42321 0.0
H84 H 0.72388 0.99352 0.35257 0.0
H85 H 0.67665 0.98393 0.42592 0.0
H86 H 0.70531 0.03139 0.66008 0.0
H87 H 0.75229 0.04126 0.58657 0.0
N88 N 0.78676 0.02241 0.36631 0.0
N89 N 0.79445 0.06757 0.29111 0.0
N90 N 0.75538 0.06251 0.39073 0.0
C91 C 0.8032 0.03959 0.30935 0.0
C92 C 0.77063 0.07915 0.33176 0.0
C93 C 0.76302 0.03441 0.40878 0.0
C94 C 0.82952 0.02856 0.26109 0.0
C95 C 0.85271 0.04814 0.24436 0.0
C96 C 0.87516 0.04096 0.18454 0.0
C97 C 0.87498 1.01408 0.13912 0.0
C98 C 0.85274 0.99367 0.15904 0.0
C99 C 0.83024 1.00079 0.22012 0.0
C100 C 0.75608 0.10537 0.29458 0.0
C101 C 0.75242 0.1072 0.20072 0.0
C102 C 0.72729 0.12021 0.16505 0.0
C103 C 0.70619 0.13208 0.22291 0.0
C104 C 0.71284 0.13561 0.31458 0.0
C105 C 0.73762 0.1219 0.35061 0.0
C106 C 0.74214 0.01747 0.46472 0.0
C107 C 0.72077 1.00034 0.42174 0.0
C108 C 0.38124 0.72012 0.27704 0.0
C109 C 0.38704 0.71162 0.18801 0.0
C110 C 0.4025 0.7307 0.13089 0.0
C111 C 0.4163 0.7554 0.16624 0.0
H112 H 0.44707 0.85385 0.21944 0.0
H113 H 0.4632 0.89508 0.1274 0.0
H114 H 0.55293 0.86915 0.16651 0.0
H115 H 0.53676 0.82697 0.25962 0.0
H116 H 0.46058 0.75137 0.55496 0.0
H117 H 0.47316 0.70578 0.63375 0.0
H118 H 0.54687 0.69404 0.45712 0.0
H119 H 0.53404 0.73985 0.37685 0.0
H120 H 0.39452 0.74817 0.38503 0.0
H121 H 0.36905 0.70575 0.32167 0.0
H122 H 0.40684 0.72466 0.06161 0.0
H123 H 0.43106 0.76771 0.12327 0.0
N124 N 0.45254 0.79943 0.26347 0.0
N125 N 0.49444 0.79365 0.35512 0.0
N126 N 0.45487 0.76085 0.36703 0.0
C127 C 0.47917 0.80935 0.29087 0.0
C128 C 0.48176 0.7694 0.39437 0.0
C129 C 0.44024 0.77542 0.30164 0.0
C130 C 0.49057 0.83667 0.24647 0.0
C131 C 0.47034 0.85682 0.20946 0.0
C132 C 0.4795 0.88061 0.15672 0.0
C133 C 0.50922 0.88516 0.13888 0.0
C134 C 0.52982 0.86602 0.17898 0.0
C135 C 0.52057 0.84199 0.23253 0.0
C136 C 0.49657 0.74959 0.46041 0.0
C137 C 0.48032 0.73985 0.5355 0.0
C138 C 0.48732 0.71358 0.58021 0.0
C139 C 0.51083 0.69627 0.55124 0.0
C140 C 0.5287 0.70709 0.48111 0.0
C141 C 0.52159 0.73351 0.4359 0.0
C142 C 0.41521 0.76068 0.25929 0.0
C143 C 0.39579 0.74434 0.31311 0.0
C144 C 0.20676 0.54841 0.94026 0.0
C145 C 0.19397 0.52046 0.94218 0.0
C146 C 0.20788 0.49803 0.99223 0.0
C147 C 0.23294 0.5041 0.04451 0.0
H148 H 0.32566 0.4849 0.24275 0.0
H149 H 0.36962 0.47081 0.32989 0.0
H150 H 0.39669 0.56131 0.33591 0.0
H151 H 0.35353 0.57528 0.24888 0.0
H152 H 0.29278 0.60117 0.39494 0.0
H153 H 0.26668 0.62688 0.51562 0.0
H154 H 0.18615 0.61871 0.36664 0.0
H155 H 0.21173 0.59391 0.24573 0.0
H156 H 0.23959 0.57682 0.99428 0.0
H157 H 0.19645 0.56609 0.90274 0.0
H158 H 0.19826 0.47634 0.99543 0.0
H159 H 0.2418 0.4871 0.08799 0.0
N160 N 0.2905 0.53062 0.14217 0.0
N161 N 0.29498 0.56339 0.26404 0.0
N162 N 0.25275 0.564 0.17628 0.0
C163 C 0.30655 0.54178 0.2125 0.0
C164 C 0.26811 0.57443 0.24713 0.0
C165 C 0.26351 0.54242 0.12316 0.0
C166 C 0.33618 0.53118 0.23853 0.0
C167 C 0.34165 0.50152 0.25945 0.0
C168 C 0.36658 0.49353 0.31014 0.0
C169 C 0.38627 0.51511 0.34073 0.0
C170 C 0.38184 0.54431 0.31371 0.0
C171 C 0.35716 0.55222 0.26352 0.0
C172 C 0.25422 0.59489 0.3114 0.0
C173 C 0.26963 0.60546 0.38694 0.0
C174 C 0.25485 0.62019 0.45588 0.0
C175 C 0.22449 0.62405 0.45049 0.0
C176 C 0.2096 0.61564 0.37217 0.0
C177 C 0.2243 0.60136 0.30309 0.0
C178 C 0.24443 0.53272 0.04754 0.0
C179 C 0.23158 0.55445 0.99232 0.0
C180 C 1.00646 0.2072 0.97815 0.0
C181 C 0.02512 0.19372 0.91502 0.0
C182 C 0.05061 0.20871 0.88912 0.0
C183 C 0.05858 0.23509 0.9309 0.0
H184 H 1.008 0.3336 0.17692 0.0
H185 H 0.99587 0.37712 0.26864 0.0
H186 H 0.08587 0.38354 0.35211 0.0
H187 H 0.09811 0.34119 0.26082 0.0
H188 H 0.08798 0.26143 0.371 0.0
H189 H 0.0711 0.21585 0.43842 0.0
H190 H 0.10729 0.16739 0.2163 0.0
H191 H 0.12395 0.21312 0.14769 0.0
H192 H 1.00126 0.24178 0.07525 0.0
H193 H 0.98668 0.19615 0.99959 0.0
H194 H 0.06542 0.19896 0.84082 0.0
H195 H 0.07976 0.24446 0.9154 0.0
N196 N 0.04743 0.29181 0.10088 0.0
N197 N 0.08298 0.28871 0.21616 0.0
N198 N 0.0783 0.25066 0.11357 0.0
C199 C 0.06178 0.30433 0.17276 0.0
C200 C 0.09132 0.26188 0.18737 0.0
C201 C 0.05652 0.26489 0.06999 0.0
C202 C 0.05399 0.33355 0.21198 0.0
C203 C 0.02526 0.34475 0.21307 0.0
C204 C 0.01829 0.36949 0.26609 0.0
C205 C 0.03992 0.38338 0.31881 0.0
C206 C 0.06874 0.37318 0.31315 0.0
C207 C 0.07566 0.34879 0.2606 0.0
C208 C 0.10496 0.24077 0.25049 0.0
C209 C 0.09436 0.24102 0.33945 0.0
C210 C 0.08438 0.21489 0.37803 0.0
C211 C 0.08665 0.1887 0.32948 0.0
C212 C 0.10477 0.18765 0.25339 0.0
C213 C 0.11456 0.21388 0.21469 0.0
C214 C 0.04132 0.24735 0.99979 0.0
C215 C 0.01452 0.23369 0.02027 0.0
C216 C 0.31969 0.03485 0.98136 0.0
C217 C 0.33291 1.01112 0.93644 0.0
C218 C 0.31957 0.98347 0.94151 0.0
C219 C 0.29488 0.97906 0.9957 0.0
H220 H 0.2051 0.05343 0.26718 0.0
H221 H 0.16089 0.06537 0.35482 0.0
H222 H 0.12712 0.97871 0.30508 0.0
H223 H 0.17084 0.96695 0.21759 0.0
H224 H 0.23277 0.94142 0.40659 0.0
H225 H 0.25751 0.91481 0.52945 0.0
H226 H 0.33866 0.91941 0.38251 0.0
H227 H 0.31445 0.94509 0.2596 0.0
H228 H 0.28636 0.0485 0.07507 0.0
H229 H 0.32978 0.05633 0.97919 0.0
H230 H 0.3294 0.96482 0.90809 0.0
H231 H 0.28644 0.95697 1.00332 0.0
N232 N 0.23685 1.00723 0.13941 0.0
N233 N 0.23184 0.97758 0.26958 0.0
N234 N 0.27404 0.97416 0.18241 0.0
C235 C 0.22073 0.99812 0.21248 0.0
C236 C 0.25851 0.96568 0.25564 0.0
C237 C 0.26365 0.99463 0.12385 0.0
C238 C 0.19117 1.00944 0.23416 0.0
C239 C 0.18754 0.03754 0.27119 0.0
C240 C 0.16247 0.04422 0.32228 0.0
C241 C 0.14083 0.02277 0.33771 0.0
C242 C 0.14346 0.99558 0.29454 0.0
C243 C 0.16836 0.98898 0.24371 0.0
C244 C 0.27174 0.94583 0.32374 0.0
C245 C 0.25578 0.93627 0.39976 0.0
C246 C 0.26977 0.92105 0.46994 0.0
C247 C 0.29991 0.91568 0.46531 0.0
C248 C 0.31537 0.92358 0.38733 0.0
C249 C 0.30146 0.93834 0.31709 0.0
C250 C 0.28271 1.0022 0.04584 0.0
C251 C 0.29472 0.03043 0.03558 0.0
C252 C 0.43405 0.34429 0.25739 0.0
C253 C 0.45328 0.34349 0.33094 0.0
C254 C 0.45735 0.31715 0.3786 0.0
C255 C 0.44745 0.29088 0.34165 0.0
H256 H 0.43379 0.18951 0.25784 0.0
H257 H 0.44429 0.14594 0.34784 0.0
H258 H 0.53407 0.14822 0.26047 0.0
H259 H 0.52369 0.19279 0.16981 0.0
H260 H 0.45341 0.28304 0.90974 0.0
H261 H 0.46654 0.32873 0.8322 0.0
H262 H 0.54583 0.33338 0.98825 0.0
H263 H 0.5325 0.28765 0.06661 0.0
H264 H 0.41371 0.31872 0.15492 0.0
H265 H 0.43031 0.36463 0.22092 0.0
H266 H 0.47168 0.31638 0.4368 0.0
H267 H 0.45496 0.27053 0.37196 0.0
N268 N 0.45287 0.24196 0.21798 0.0
N269 N 0.4852 0.23669 0.09494 0.0
N270 N 0.45814 0.28011 0.1145 0.0
C271 C 0.47169 0.22498 0.16996 0.0
C272 C 0.47758 0.26443 0.06622 0.0
C273 C 0.44597 0.26948 0.19073 0.0
C274 C 0.47796 0.19498 0.20698 0.0
C275 C 0.45577 0.18063 0.25628 0.0
C276 C 0.4617 0.15559 0.30807 0.0
C277 C 0.49001 0.14393 0.31239 0.0
C278 C 0.51204 0.15695 0.2588 0.0
C279 C 0.50606 0.18229 0.2064 0.0
C280 C 0.49229 0.28108 0.99271 0.0
C281 C 0.47454 0.29278 0.92359 0.0
C282 C 0.48181 0.31927 0.88015 0.0
C283 C 0.50705 0.33484 0.90472 0.0
C284 C 0.52627 0.32182 0.96767 0.0
C285 C 0.51892 0.29528 1.01137 0.0
C286 C 0.43476 0.29116 0.2553 0.0
C287 C 0.42433 0.31797 0.22024 0.0
Tb288 Tb 0.03077 1.00542 0.80385 0.0
Eu289 Eu 0.98078 0.0238 0.65749 0.0
C290 C 0.04796 0.02345 0.60674 0.0
C291 C 1.01086 0.07263 0.78754 0.0
C292 C 0.09168 0.96475 0.90285 0.0
C293 C 0.12144 0.93211 0.8112 0.0
C294 C 0.10655 0.95871 0.82183 0.0
C295 C 0.09348 0.94475 0.97461 0.0
C296 C 0.10787 0.91807 0.96342 0.0
C297 C 0.12089 0.9111 0.88056 0.0
C298 C 0.07084 0.98925 0.90918 0.0
O299 O 0.99068 1.01337 0.88114 0.0
O300 O 0.95647 1.00295 0.77308 0.0
O301 O 0.99219 0.97699 0.62269 0.0
O302 O 0.01702 0.96269 0.75052 0.0
C303 C 0.96368 1.00683 0.85785 0.0
O304 O 0.94196 0.04847 0.61554 0.0
O305 O 0.96308 0.01929 0.52185 0.0
O306 O 0.02421 0.0395 0.60331 0.0
O307 O 0.05139 1.00386 0.67108 0.0
O308 O 0.03131 0.05353 0.80992 0.0
O309 O 0.98814 0.06521 0.73832 0.0
C310 C 1.00473 0.95662 0.6724 0.0
O311 O 0.07381 1.01044 0.85043 0.0
O312 O 0.04356 0.98144 0.91849 0.0
C313 C 0.95379 0.06703 0.47061 0.0
C314 C 0.99196 0.10838 0.39542 0.0
C315 C 0.97465 0.11599 0.46943 0.0
C316 C 0.9555 0.0955 0.50662 0.0
C317 C 0.96793 0.06121 0.38826 0.0
C318 C 0.98723 0.08172 0.35132 0.0
C319 C 0.94623 0.04219 0.5307 0.0
H320 H 0.1317 0.92718 0.74727 0.0
H321 H 0.10544 0.97379 0.76516 0.0
H322 H 0.08219 0.94896 0.03744 0.0
H323 H 0.10744 0.90212 0.01793 0.0
H324 H 0.97767 0.13689 0.5026 0.0
H325 H 0.94457 0.10098 0.56907 0.0
H326 H 0.96677 0.03961 0.35828 0.0
H327 H 1.00018 0.07586 0.29299 0.0
Tb328 Tb 0.51551 0.04135 0.7934 0.0
Eu329 Eu 0.50123 0.98632 0.65928 0.0
C330 C 0.50158 0.05229 0.58851 0.0
C331 C 0.45044 0.01602 0.78056 0.0
C332 C 0.55002 0.09703 0.9442 0.0
C333 C 0.56924 0.13257 0.0502 0.0
C334 C 0.5459 0.1215 0.99983 0.0
C335 C 0.57767 0.08394 0.9381 0.0
C336 C 0.60092 0.09496 0.98837 0.0
C337 C 0.59678 0.11916 0.04503 0.0
C338 C 0.52532 0.08513 0.89356 0.0
O339 O 0.53143 1.00196 0.86495 0.0
O340 O 0.49968 0.96926 0.80179 0.0
O341 O 0.55046 0.98841 0.66104 0.0
O342 O 0.55736 0.0341 0.72436 0.0
C343 C 0.51752 0.97663 0.867 0.0
O344 O 0.5061 0.93991 0.62671 0.0
O345 O 0.48019 0.96833 0.54008 0.0
O346 O 0.51021 0.02556 0.56982 0.0
O347 O 0.49464 0.05938 0.67168 0.0
O348 O 0.47067 0.02927 0.82842 0.0
O349 O 0.45669 1.00223 0.70533 0.0
C350 C 0.56725 1.01077 0.68172 0.0
O351 O 0.52807 0.08541 0.80631 0.0
O352 O 0.51501 0.06018 0.92241 0.0
C353 C 0.46116 0.92173 0.57066 0.0
C354 C 0.40458 0.89972 0.59755 0.0
C355 C 0.4251 0.89812 0.66761 0.0
C356 C 0.4532 0.90949 0.65466 0.0
C357 C 0.44163 0.91999 0.49815 0.0
C358 C 0.41348 0.90924 0.51165 0.0
C359 C 0.48661 0.9413 0.56239 0.0
H360 H 0.56572 0.15105 0.09449 0.0
H361 H 0.5246 0.13177 1.00515 0.0
H362 H 0.58113 0.06503 0.89543 0.0
H363 H 0.62206 0.08427 0.98449 0.0
H364 H 0.41869 0.89035 0.73386 0.0
H365 H 0.46786 0.91053 0.71194 0.0
H366 H 0.4473 0.92922 0.43295 0.0
H367 H 0.39796 0.91029 0.45643 0.0
Tb368 Tb 0.49481 0.52304 0.81173 0.0
Eu369 Eu 0.54574 0.51011 0.66294 0.0
C370 C 0.47844 0.50849 0.61097 0.0
C371 C 0.51736 0.45743 0.78363 0.0
C372 C 0.43491 0.55611 0.95001 0.0
C373 C 0.39234 0.57201 0.03466 0.0
C374 C 0.40941 0.54944 0.9986 0.0
C375 C 0.44194 0.58549 0.93169 0.0
C376 C 0.42523 0.60794 0.96887 0.0
C377 C 0.40116 0.60129 0.0238 0.0
C378 C 0.45556 0.53261 0.92771 0.0
O379 O 0.53562 0.51451 0.88541 0.0
O380 O 0.5686 0.53071 0.78101 0.0
O381 O 0.53182 0.55685 0.63583 0.0
O382 O 0.50702 0.56755 0.7668 0.0
C383 C 0.56194 0.52392 0.8645 0.0
O384 O 0.5869 0.48979 0.62143 0.0
O385 O 0.56283 0.51688 0.52736 0.0
O386 O 0.50311 0.49397 0.60432 0.0
O387 O 0.47368 0.52596 0.67962 0.0
O388 O 0.49571 0.47503 0.80576 0.0
O389 O 0.54021 0.46691 0.73825 0.0
C390 C 0.5189 0.57566 0.68943 0.0
O391 O 0.45095 0.51852 0.85294 0.0
O392 O 0.48315 0.53887 0.93872 0.0
C393 C 0.57816 0.47111 0.47529 0.0
C394 C 0.54423 0.42777 0.39375 0.0
C395 C 0.56047 0.42099 0.47108 0.0
C396 C 0.57756 0.44248 0.51145 0.0
C397 C 0.56567 0.47624 0.38979 0.0
C398 C 0.54847 0.45467 0.34948 0.0
C399 C 0.58232 0.49617 0.53658 0.0
H400 H 0.37374 0.56661 0.07663 0.0
H401 H 0.40361 0.52683 1.01283 0.0
H402 H 0.46134 0.59107 0.89342 0.0
H403 H 0.43221 0.63049 0.95968 0.0
H404 H 0.55784 0.39995 0.50458 0.0
H405 H 0.58738 0.43753 0.57628 0.0
H406 H 0.56611 0.49798 0.35976 0.0
H407 H 0.53634 0.45991 0.28869 0.0
Tb408 Tb 1.01169 0.48508 0.79754 0.0
Eu409 Eu 0.02572 0.54017 0.66152 0.0
C410 C 0.026 0.47414 0.59341 0.0
C411 C 0.07653 0.51132 0.7862 0.0
C412 C 0.97687 0.42983 0.95029 0.0
C413 C 0.95712 0.3948 0.05819 0.0
C414 C 0.98068 0.40556 1.00789 0.0
C415 C 0.9493 0.44302 0.94224 0.0
C416 C 0.92582 0.43231 0.99241 0.0
C417 C 0.92965 0.40831 0.05098 0.0
C418 C 1.00178 0.44146 0.89973 0.0
O419 O 0.99491 0.52437 0.86613 0.0
O420 O 0.02663 0.55736 0.8033 0.0
O421 O 0.9765 0.53775 0.66286 0.0
O422 O 0.96989 0.49195 0.72728 0.0
C423 C 1.00845 0.5499 0.86768 0.0
O424 O 0.02021 0.58639 0.62592 0.0
O425 O 0.04694 0.55819 0.54213 0.0
O426 O 0.01712 0.50078 0.57368 0.0
O427 O 0.03283 0.46707 0.677 0.0
O428 O 0.05637 0.49758 0.83345 0.0
O429 O 0.07031 0.52509 0.71034 0.0
C430 C 0.95985 0.51526 0.68394 0.0
O431 O 0.99923 0.44101 0.81241 0.0
O432 O 1.01213 0.46642 0.92747 0.0
C433 C 0.06457 0.60557 0.56816 0.0
C434 C 0.11975 0.63144 0.58991 0.0
C435 C 0.09963 0.63195 0.66108 0.0
C436 C 0.07226 0.61868 0.65071 0.0
C437 C 0.08361 0.60798 0.49462 0.0
C438 C 0.11105 0.62067 0.50556 0.0
C439 C 0.03976 0.58515 0.56192 0.0
H440 H 0.96041 0.37648 0.10399 0.0
H441 H 1.00192 0.39522 1.01477 0.0
H442 H 0.94607 0.46179 0.89809 0.0
H443 H 0.90475 0.44308 0.98695 0.0
H444 H 0.10586 0.64061 0.72616 0.0
H445 H 0.05797 0.61713 0.70872 0.0
H446 H 0.07812 0.59809 0.43051 0.0
H447 H 0.12626 0.62038 0.44956 0.0
C448 C 0.12372 0.02715 0.49959 0.0
C449 C 0.11698 0.02708 0.40595 0.0
C450 C 0.06455 0.02484 0.44291 0.0
C451 C 0.07129 0.02681 0.53648 0.0
N452 N 0.10703 0.03818 0.6506 0.0
N453 N 0.08091 0.0328 0.28891 0.0
C454 C 0.10082 0.03049 0.56376 0.0
C455 C 0.08732 0.0282 0.37784 0.0
N456 N 0.15181 0.02257 0.52795 0.0
N457 N 0.0368 0.01812 0.41585 0.0
H458 H 0.09707 0.03538 0.2399 0.0
H459 H 0.05981 0.03691 0.26542 0.0
H460 H 0.01968 1.01444 0.4607 0.0
H461 H 0.03133 1.01347 0.34928 0.0
H462 H 0.15733 0.01903 0.59532 0.0
H463 H 0.16929 0.01962 0.48391 0.0
H464 H 0.12793 0.04389 0.67222 0.0
H465 H 0.09083 0.04207 0.6985 0.0
C466 C 0.51163 0.12487 0.45929 0.0
C467 C 0.49617 0.11932 0.37795 0.0
C468 C 0.48305 0.07019 0.43598 0.0
C469 C 0.50012 0.07505 0.51475 0.0
N470 N 0.53666 0.1044 0.58926 0.0
N471 N 0.4724 0.08447 0.28118 0.0
C472 C 0.51614 0.10165 0.52285 0.0
C473 C 0.48355 0.09121 0.36399 0.0
N474 N 0.52095 0.15265 0.47812 0.0
N475 N 0.46513 0.04625 0.43165 0.0
H476 H 0.47265 0.09926 0.22718 0.0
H477 H 0.46555 0.06347 0.26363 0.0
H478 H 0.46345 0.03084 0.48363 0.0
H479 H 0.4499 0.04311 0.38038 0.0
H480 H 0.52919 0.1587 0.54082 0.0
H481 H 0.51823 0.17032 0.43392 0.0
H482 H 0.55117 0.12196 0.59279 0.0
H483 H 0.54135 0.08765 0.63515 0.0
C484 C 0.43991 0.51124 0.38029 0.0
C485 C 0.41025 0.50832 0.40701 0.0
C486 C 0.42655 0.49846 0.56264 0.0
C487 C 0.45563 0.50607 0.53872 0.0
N488 N 0.4895 0.52305 0.42484 0.0
N489 N 0.37502 0.50262 0.52705 0.0
C490 C 0.4623 0.51301 0.44725 0.0
C491 C 0.40348 0.50259 0.49904 0.0
N492 N 0.44665 0.51216 0.2906 0.0
N493 N 0.42104 0.48648 0.6456 0.0
H494 H 0.35739 0.50559 0.48336 0.0
H495 H 0.36897 0.50208 0.59474 0.0
H496 H 0.43747 0.48241 0.6929 0.0
H497 H 0.40083 0.47777 0.6638 0.0
H498 H 0.46798 0.51126 0.26625 0.0
H499 H 0.43075 0.51094 0.24023 0.0
H500 H 0.49471 0.53145 0.36143 0.0
H501 H 0.50629 0.52555 0.47161 0.0
C502 C 0.04484 0.43614 0.3696 0.0
C503 C 0.033 0.40767 0.38399 0.0
C504 C 0.01263 0.42452 0.52856 0.0
C505 C 0.02803 0.45152 0.52017 0.0
N506 N 0.06243 0.48123 0.43683 0.0
N507 N 1.00919 0.37348 0.48485 0.0
C508 C 0.04496 0.45695 0.44139 0.0
C509 C 0.01774 0.40154 0.46544 0.0
N510 N 0.0556 0.44346 0.28657 0.0
N511 N 0.99215 0.42115 0.59476 0.0
H512 H 1.01244 0.35597 0.44108 0.0
H513 H 1.00111 0.36712 0.54763 0.0
H514 H 0.98698 0.43773 0.64013 0.0
H515 H 0.9781 0.40321 0.59851 0.0
H516 H 0.06186 0.4647 0.26885 0.0
H517 H 0.05555 0.42887 0.23258 0.0
H518 H 0.07755 0.4848 0.38548 0.0
H519 H 0.06392 0.49648 0.48877 0.0
C520 C 0.9214 0.99123 0.07651 0.0
C521 C 0.89636 1.00928 0.06404 0.0
C522 C 0.91609 0.02656 0.91903 0.0
C523 C 0.94017 1.00699 0.92804 0.0
N524 N 0.96296 0.96675 1.00773 0.0
N525 N 0.86673 0.03889 0.96442 0.0
C526 C 0.94204 0.98818 1.00475 0.0
C527 C 0.89274 0.02523 0.98229 0.0
N528 N 0.92595 0.97777 0.15787 0.0
N529 N 0.91626 0.04774 0.85332 0.0
H530 H 0.84907 0.03838 1.00891 0.0
H531 H 0.86167 0.04823 0.90203 0.0
H532 H 0.93337 0.05044 0.80775 0.0
H533 H 0.90089 0.0646 0.84981 0.0
H534 H 0.94534 0.96709 0.17495 0.0
H535 H 0.91104 0.97904 0.21088 0.0
H536 H 0.96371 0.95048 0.05726 0.0
H537 H 0.97809 0.96362 0.95606 0.0
C538 C 0.51432 0.93908 0.09999 0.0
C539 C 0.51779 0.90928 0.07431 0.0
C540 C 0.53024 0.92571 0.92053 0.0
C541 C 0.5219 0.95487 0.94232 0.0
N542 N 0.50417 0.9892 0.05286 0.0
N543 N 0.52683 0.8739 0.95718 0.0
C544 C 0.51391 0.96167 0.03252 0.0
C545 C 0.52554 0.90252 0.98399 0.0
N546 N 0.51152 0.94575 0.18926 0.0
N547 N 0.54313 0.92028 0.83922 0.0
H548 H 0.52385 0.85624 1.00122 0.0
H549 H 0.52873 0.86764 0.89002 0.0
H550 H 0.54734 0.93682 0.79204 0.0
H551 H 0.55232 0.90012 0.82239 0.0
H552 H 0.51171 0.96711 0.21379 0.0
H553 H 0.51176 0.9297 0.23979 0.0
H554 H 0.49465 0.99459 0.11431 0.0
H555 H 0.50358 1.00631 1.006 0.0
C556 C 0.634 0.50675 0.98578 0.0
C557 C 0.62933 0.52005 0.07086 0.0
C558 C 0.58234 0.53968 1.01565 0.0
C559 C 0.5855 0.52338 0.93472 0.0
N560 N 0.61204 0.48659 0.85131 0.0
N561 N 0.5977 0.54667 0.17109 0.0
C562 C 0.61082 0.50578 0.92174 0.0
C563 C 0.60314 0.53594 0.08693 0.0
N564 N 0.66081 0.49522 0.96572 0.0
N565 N 0.55999 0.55944 0.02327 0.0
H566 H 0.61271 0.54494 0.22388 0.0
H567 H 0.57763 0.55545 0.19026 0.0
H568 H 0.54469 0.56303 0.97217 0.0
H569 H 0.5581 0.57409 0.07655 0.0
H570 H 0.66651 0.48806 0.90153 0.0
H571 H 0.67831 0.49541 1.01091 0.0
H572 H 0.62849 0.47096 0.8441 0.0
H573 H 0.5951 0.48407 0.80504 0.0
C574 C 1.00746 0.58847 0.09803 0.0
C575 C 1.00399 0.61812 0.06955 0.0
C576 C 0.99455 0.60088 0.91518 0.0
C577 C 1.00287 0.57194 0.94053 0.0
N578 N 0.01941 0.5384 0.05638 0.0
N579 N 0.99761 0.65282 0.94727 0.0
C580 C 1.00949 0.56565 0.0324 0.0
C581 C 0.99809 0.62439 0.97724 0.0
N582 N 1.00862 0.58214 0.18812 0.0
N583 N 0.98275 0.60584 0.83175 0.0
H584 H 1.0003 0.67079 0.98958 0.0
H585 H 0.99699 0.65855 0.8792 0.0
H586 H 0.9793 0.58907 0.78537 0.0
H587 H 0.97359 0.62584 0.81227 0.0
H588 H 1.0083 0.56085 0.21401 0.0
H589 H 1.00712 0.59834 0.23738 0.0
H590 H 0.02795 0.53345 0.11978 0.0
H591 H 0.02119 0.52117 1.01091 0.0
C592 C 0.06746 0.14279 0.40238 0.0
C593 C 0.06352 0.16632 0.34097 0.0
C594 C 0.01299 0.15089 0.31101 0.0
C595 C 0.01713 0.12707 0.37112 0.0
N596 N 0.04854 0.09739 0.46551 0.0
N597 N 0.03431 0.19141 0.22803 0.0
C598 C 0.04453 0.12208 0.41407 0.0
C599 C 0.03681 0.16989 0.29236 0.0
N600 N 0.09277 0.14089 0.45127 0.0
N601 N 0.98594 0.15582 0.27428 0.0
H602 H 0.05055 0.20678 0.21464 0.0
H603 H 0.0168 0.19324 0.18359 0.0
H604 H 0.96837 0.14152 0.28337 0.0
H605 H 0.98018 0.17471 0.23877 0.0
H606 H 0.09604 0.12626 0.50444 0.0
H607 H 0.11028 0.15524 0.44174 0.0
H608 H 0.0686 0.0909 0.49202 0.0
H609 H 0.03199 0.08217 0.47747 0.0
C610 C 0.32815 0.92476 0.60558 0.0
C611 C 0.31693 0.90424 0.54288 0.0
C612 C 0.35894 0.87227 0.56736 0.0
C613 C 0.37288 0.89544 0.61299 0.0
N614 N 0.36807 0.93845 0.70541 0.0
N615 N 0.31756 0.85478 0.48531 0.0
C616 C 0.35629 0.91973 0.64366 0.0
C617 C 0.33049 0.87653 0.53338 0.0
N618 N 0.31305 0.95009 0.62159 0.0
N619 N 0.37372 0.84687 0.55097 0.0
H620 H 0.29662 0.85668 0.45801 0.0
H621 H 0.29662 0.85668 0.45801 0.0
H622 H 0.39479 0.84327 0.57594 0.0
H623 H 0.36451 0.82958 0.51486 0.0
H624 H 0.32117 0.96768 0.65822 0.0
H625 H 0.29201 0.95362 0.59677 0.0
H626 H 0.3568 0.95583 0.73448 0.0
H627 H 0.38868 0.93513 0.73359 0.0
C628 C 0.502 0.36461 0.29168 0.0
C629 C 0.47531 0.36696 0.34065 0.0
C630 C 0.49207 0.41254 0.40924 0.0
C631 C 0.51983 0.40837 0.36811 0.0
N632 N 0.55242 0.38028 0.27506 0.0
N633 N 0.44514 0.39137 0.44979 0.0
C634 C 0.52507 0.38447 0.31004 0.0
C635 C 0.47029 0.39057 0.40008 0.0
N636 N 0.50516 0.34351 0.22708 0.0
N637 N 0.48655 0.43764 0.4564 0.0
H638 H 0.42842 0.37601 0.44235 0.0
H639 H 0.44148 0.40604 0.5021 0.0
H640 H 0.50216 0.45397 0.46617 0.0
H641 H 0.46598 0.44342 0.48041 0.0
H642 H 0.52264 0.3427 0.18229 0.0
H643 H 0.48932 0.32777 0.21321 0.0
H644 H 0.55885 0.36135 0.2415 0.0
H645 H 0.56946 0.39519 0.28403 0.0
C646 C 0.1916 0.66067 0.51993 0.0
C647 C 0.20673 0.63373 0.5283 0.0
C648 C 0.16969 0.61571 0.63332 0.0
C649 C 0.15107 0.63853 0.6027 0.0
N650 N 0.14515 0.68625 0.53668 0.0
N651 N 0.21363 0.58743 0.6048 0.0
C652 C 0.16271 0.66269 0.55452 0.0
C653 C 0.19736 0.61226 0.59156 0.0
N654 N 0.20449 0.6833 0.47438 0.0
N655 N 0.16021 0.59673 0.6986 0.0
H656 H 0.23445 0.58483 0.57765 0.0
H657 H 0.20638 0.56913 0.64063 0.0
H658 H 0.13986 0.59887 0.72936 0.0
H659 H 0.1733 0.58066 0.72829 0.0
H660 H 0.19534 0.70411 0.46745 0.0
H661 H 0.22569 0.68146 0.44882 0.0
H662 H 0.15098 0.70375 0.49511 0.0
H663 H 0.1242 0.68788 0.56427 0.0
C664 C 0.1542 0.84092 0.95163 0.0
C665 C 0.12862 0.82404 0.93947 0.0
C666 C 0.10997 0.86039 0.83225 0.0
C667 C 0.13065 0.88044 0.86693 0.0
N668 N 0.17656 0.88928 0.93945 0.0
N669 N 0.0849 0.81401 0.85449 0.0
C670 C 0.15473 0.87017 0.91795 0.0
C671 C 0.10791 0.83213 0.87257 0.0
N672 N 0.17676 0.82931 1.0004 0.0
N673 N 0.09154 0.86904 0.76463 0.0
H674 H 0.08355 0.79277 0.88045 0.0
H675 H 0.06695 0.81999 0.81531 0.0
H676 H 0.09276 0.8898 0.73507 0.0
H677 H 0.07696 0.85508 0.73232 0.0
H678 H 0.19665 0.83983 1.01062 0.0
H679 H 0.17588 0.80784 0.02547 0.0
H680 H 0.19374 0.88437 0.98299 0.0
H681 H 0.17705 0.91055 0.91275 0.0
C682 C 0.66748 0.15443 0.12392 0.0
C683 C 0.67547 0.13366 0.19115 0.0
C684 C 0.62681 0.11154 0.1823 0.0
C685 C 0.62112 0.1284 0.10404 0.0
N686 N 0.63523 0.16615 0.99853 0.0
N687 N 0.66391 0.08934 0.2757 0.0
C688 C 0.64104 0.15029 0.07495 0.0
C689 C 0.65529 0.11166 0.21945 0.0
N690 N 0.68525 0.1779 0.10715 0.0
N691 N 0.60508 0.09494 0.21994 0.0
H692 H 0.68492 0.08728 0.30195 0.0
H693 H 0.65094 0.07109 0.28961 0.0
H694 H 0.58397 0.09419 0.19335 0.0
H695 H 0.60718 0.08443 0.28223 0.0
H696 H 0.67962 0.19517 0.06424 0.0
H697 H 0.7047 0.18129 0.1425 0.0
H698 H 0.65031 0.18005 0.96775 0.0
H699 H 0.61557 0.16425 0.96326 0.0
C700 C 0.36515 0.67294 0.08874 0.0
C701 C 0.38402 0.68047 0.16088 0.0
C702 C 0.40318 0.63031 0.16405 0.0
C703 C 0.38911 0.62492 0.08089 0.0
N704 N 0.35556 0.63971 0.96445 0.0
N705 N 0.4242 0.66704 0.26019 0.0
C706 C 0.3693 0.64568 0.04401 0.0
C707 C 0.40345 0.65919 0.19828 0.0
N708 N 0.34361 0.69201 0.06297 0.0
N709 N 0.41733 0.60807 0.20847 0.0
H710 H 0.42669 0.6882 0.28497 0.0
H711 H 0.44105 0.65313 0.28084 0.0
H712 H 0.41838 0.58672 0.18395 0.0
H713 H 0.4254 0.61012 0.27385 0.0
H714 H 0.32767 0.68703 1.01532 0.0
H715 H 0.3403 0.71204 0.09521 0.0
H716 H 0.34338 0.65508 0.92821 0.0
H717 H 0.35734 0.61933 0.93308 0.0
C718 C 0.87067 0.4163 0.22342 0.0
C719 C 0.85064 0.3941 0.19627 0.0
C720 C 0.88525 0.37735 0.08156 0.0
C721 C 0.90507 0.39938 0.10969 0.0
N722 N 0.92076 0.43337 0.22344 0.0
N723 N 0.84108 0.34967 0.11462 0.0
C724 C 0.89918 0.4165 0.18662 0.0
C725 C 0.85876 0.37324 0.13032 0.0
N726 N 0.86188 0.43867 0.27833 0.0
N727 N 0.89121 0.36132 1.00623 0.0
H728 H 0.8216 0.3463 0.14978 0.0
H729 H 0.84683 0.33232 0.07284 0.0
H730 H 0.91089 0.36319 0.97114 0.0
H731 H 0.87621 0.34729 0.97603 0.0
H732 H 0.8747 0.45705 0.29132 0.0
H733 H 0.84084 0.44062 0.30436 0.0
H734 H 0.91854 0.44407 0.28497 0.0
H735 H 0.94189 0.43421 0.19708 0.0
C736 C 0.0222 0.13868 0.94384 0.0
C737 C 0.01984 0.16278 0.88265 0.0
C738 C 0.01399 0.12764 0.75768 0.0
C739 C 0.01346 0.10378 0.82009 0.0
N740 N 1.0108 0.08767 0.97512 0.0
N741 N 1.00839 0.18011 0.73295 0.0
C742 C 0.01577 0.10964 0.91392 0.0
C743 C 0.01423 0.15719 0.78998 0.0
N744 N 0.03196 0.14323 0.02977 0.0
N745 N 0.01572 0.12216 0.66737 0.0
H746 H 1.00816 0.20189 0.75423 0.0
H747 H 1.00118 0.17736 0.66691 0.0
H748 H 0.01599 0.10101 0.64095 0.0
H749 H 0.01969 0.13844 0.61934 0.0
H750 H 0.037 0.12624 0.07445 0.0
H751 H 0.03787 0.16385 0.0537 0.0
H752 H 1.00905 0.09128 0.04421 0.0
H753 H 1.00547 0.06632 0.9564 0.0
C754 C 0.38757 1.00545 0.94805 0.0
C755 C 0.36287 1.01374 0.8957 0.0
C756 C 0.39556 0.0252 0.76791 0.0
C757 C 0.41994 1.01454 0.81809 0.0
N758 N 0.43752 0.98798 0.94866 0.0
N759 N 0.34263 0.02747 0.75169 0.0
C760 C 0.41549 1.00296 0.90633 0.0
C761 C 0.36667 0.02244 0.80428 0.0
N762 N 0.38446 1.00024 0.03845 0.0
N763 N 0.40007 0.0391 0.68722 0.0
H764 H 0.32135 0.02643 0.77685 0.0
H765 H 0.34365 0.03056 0.68214 0.0
H766 H 0.42078 0.04183 0.65906 0.0
H767 H 0.38365 0.05004 0.65177 0.0
H768 H 0.40213 0.99749 0.08207 0.0
H769 H 0.36438 1.00123 0.07157 0.0
H770 H 0.43474 0.97634 1.00869 0.0
H771 H 0.45781 0.98441 0.91905 0.0
C772 C 0.51701 0.37273 0.78117 0.0
C773 C 0.51117 0.36617 0.87332 0.0
C774 C 0.5135 0.41905 0.90739 0.0
C775 C 0.51613 0.42586 0.81401 0.0
N776 N 0.51569 0.40896 0.66026 0.0
N777 N 0.49777 0.38396 0.0207 0.0
C778 C 0.51675 0.4026 0.75036 0.0
C779 C 0.5078 0.38959 0.93551 0.0
N780 N 0.52351 0.35045 0.72334 0.0
N781 N 0.51748 0.44057 0.96998 0.0
H782 H 0.4924 0.36296 0.04348 0.0
H783 H 0.49197 0.40038 0.06588 0.0
H784 H 0.52223 0.46224 0.95268 0.0
H785 H 0.51903 0.43636 0.03894 0.0
H786 H 0.53092 0.3539 0.65775 0.0
H787 H 0.52395 0.32848 0.74354 0.0
H788 H 0.5126 0.3931 0.61088 0.0
H789 H 0.51528 0.43037 0.63507 0.0
C790 C 0.16046 0.50759 0.81102 0.0
C791 C 0.16404 0.51631 0.9022 0.0
C792 C 0.11097 0.52479 0.91301 0.0
C793 C 0.10691 0.51335 0.82476 0.0
N794 N 0.12763 0.48973 0.69455 0.0
N795 N 0.14213 0.52882 0.0447 0.0
C796 C 0.13166 0.50372 0.77484 0.0
C797 C 0.13907 0.52345 0.95457 0.0
N798 N 0.18462 0.50353 0.75843 0.0
N799 N 0.08836 0.53865 0.9554 0.0
H800 H 0.12446 0.53069 0.08856 0.0
H801 H 0.16231 0.52893 0.07745 0.0
H802 H 0.06785 0.54139 0.92609 0.0
H803 H 0.0907 0.55022 1.0153 0.0
H804 H 0.18364 0.50055 0.68895 0.0
H805 H 0.20587 0.50521 0.78353 0.0
H806 H 0.14443 0.4795 0.65931 0.0
H807 H 0.10702 0.48611 0.66668 0.0
C808 C 0.01868 0.89342 0.50784 0.0
C809 C 1.00961 0.86859 0.55898 0.0
C810 C 0.99547 0.90149 0.68345 0.0
C811 C 1.00683 0.92603 0.63505 0.0
N812 N 0.03509 0.94394 0.50882 0.0
N813 N 0.99312 0.84835 0.70022 0.0
C814 C 0.01992 0.9216 0.54912 0.0
C815 C 0.99911 0.87246 0.64831 0.0
N816 N 0.02589 0.89017 0.41899 0.0
N817 N 0.98007 0.90598 0.76107 0.0
H818 H 0.99464 0.82698 0.67571 0.0
H819 H 0.98866 0.84938 0.76895 0.0
H820 H 0.97662 0.92678 0.7881 0.0
H821 H 0.96863 0.88948 0.79462 0.0
H822 H 0.02928 0.90782 0.37529 0.0
H823 H 0.0261 0.86991 0.38667 0.0
H824 H 0.0478 0.94127 0.45123 0.0
H825 H 0.03757 0.96453 0.53787 0.0
C826 C 0.64703 0.98698 0.64856 0.0
C827 C 0.65663 1.0078 0.5834 0.0
C828 C 0.60736 0.02966 0.57988 0.0
C829 C 0.59831 1.0103 0.65 0.0
N830 N 0.61046 0.97314 0.75999 0.0
N831 N 0.64742 0.05195 0.49719 0.0
C832 C 0.61843 0.9896 0.68668 0.0
C833 C 0.63719 0.03002 0.55212 0.0
N834 N 0.66509 0.96431 0.67246 0.0
N835 N 0.58712 0.04677 0.53657 0.0
H836 H 0.66887 0.05274 0.47348 0.0
H837 H 0.63535 0.07062 0.48066 0.0
H838 H 0.56509 0.04696 0.55407 0.0
H839 H 0.59154 0.05882 0.47828 0.0
H840 H 0.65851 0.94658 0.71207 0.0
H841 H 0.68625 0.96213 0.6471 0.0
H842 H 0.62485 0.95977 0.79592 0.0
H843 H 0.58985 0.97466 0.7897 0.0
C844 C 0.5008 0.6419 0.53841 0.0
C845 C 0.51395 0.66535 0.58656 0.0
C846 C 0.53087 0.63002 0.70268 0.0
C847 C 0.51622 0.6069 0.6572 0.0
N848 N 0.48294 0.59176 0.54026 0.0
N849 N 0.53851 0.6826 0.71963 0.0
C850 C 0.50013 0.61312 0.57712 0.0
C851 C 0.52808 0.65962 0.67035 0.0
N852 N 0.48901 0.64708 0.45498 0.0
N853 N 0.54848 0.62351 0.77462 0.0
H854 H 0.53803 0.70424 0.69623 0.0
H855 H 0.54599 0.68057 0.78567 0.0
H856 H 0.55086 0.60228 0.80035 0.0
H857 H 0.56233 0.63863 0.80498 0.0
H858 H 0.48247 0.63052 0.41134 0.0
H859 H 0.48752 0.66794 0.42609 0.0
H860 H 0.46812 0.59548 0.48814 0.0
H861 H 0.48143 0.57067 0.56716 0.0
C862 C 0.88968 0.49603 0.55554 0.0
C863 C 0.87037 0.5184 0.5857 0.0
C864 C 0.90871 0.53649 0.68821 0.0
C865 C 0.92872 0.51568 0.65249 0.0
N866 N 0.93966 0.47889 0.54121 0.0
N867 N 0.8622 0.56205 0.67265 0.0
C868 C 0.91954 0.49624 0.58342 0.0
C869 C 0.88011 0.53924 0.64989 0.0
N870 N 0.8793 0.47412 0.5016 0.0
N871 N 0.91676 0.55293 0.76091 0.0
H872 H 0.84105 0.56434 0.64714 0.0
H873 H 0.86892 0.57979 0.71136 0.0
H874 H 0.93734 0.55127 0.79096 0.0
H875 H 0.90244 0.5664 0.79619 0.0
H876 H 0.89125 0.45538 0.48588 0.0
H877 H 0.85784 0.47344 0.47789 0.0
H878 H 0.93515 0.46678 0.48356 0.0
H879 H 0.96169 0.47852 0.55899 0.0
loop_
_geom_bond_atom_site_label_1
_geom_bond_atom_site_label_2
_geom_bond_distance
_geom_bond_site_symmetry_2
_ccdc_geom_bond_type
C0 C1 1.384 . S
C0 H13 0.947 . S
C0 C35 1.382 . S
C1 C0 1.384 . S
C1 C2 1.378 . S
C2 C1 1.378 . S
C2 C3 1.378 . S
C2 H14 0.952 . S
C3 C2 1.378 . S
C3 H15 0.950 . S
C3 C34 1.383 . S
H4 C23 0.947 . S
H5 C24 0.946 . S
H6 C26 0.953 . S
H7 C27 0.945 . S
H8 C29 0.952 . S
H9 C30 0.949 . S
H10 C32 0.950 . S
H11 C33 0.948 . S
H12 C35 0.951 . S
H13 C0 0.947 . S
H14 C2 0.952 . S
H15 C3 0.950 . S
N16 C19 1.382 . S
N16 C21 1.363 . S
N17 C19 1.371 . S
N17 C20 1.372 . S
N18 C20 1.361 . S
N18 C21 1.377 . S
C19 N16 1.382 . S
C19 N17 1.371 . S
C19 C22 1.480 . S
C20 N17 1.372 . S
C20 N18 1.361 . S
C20 C28 1.457 . S
C21 N16 1.363 . S
C21 N18 1.377 . S
C21 C34 1.479 . S
C22 C19 1.480 . S
C22 C23 1.383 . S
C22 C27 1.385 . S
C23 H4 0.947 . S
C23 C22 1.383 . S
C23 C24 1.388 . S
C24 H5 0.946 . S
C24 C23 1.388 . S
C24 C25 1.384 . S
C25 C24 1.384 . S
C25 C26 1.377 . S
C26 H6 0.953 . S
C26 C25 1.377 . S
C26 C27 1.369 . S
C27 H7 0.945 . S
C27 C22 1.385 . S
C27 C26 1.369 . S
C28 C20 1.457 . S
C28 C29 1.372 . S
C28 C33 1.364 . S
C29 H8 0.952 . S
C29 C28 1.372 . S
C29 C30 1.389 . S
C30 H9 0.949 . S
C30 C29 1.389 . S
C30 C31 1.387 . S
C31 C30 1.387 . S
C31 C32 1.372 . S
C32 H10 0.950 . S
C32 C31 1.372 . S
C32 C33 1.379 . S
C33 H11 0.948 . S
C33 C28 1.364 . S
C33 C32 1.379 . S
C34 C3 1.383 . S
C34 C21 1.479 . S
C34 C35 1.398 . S
C35 C0 1.382 . S
C35 H12 0.951 . S
C35 C34 1.398 . S
C36 C37 1.384 1_655 S
C36 H49 0.948 . S
C36 C71 1.382 1_655 S
C37 C36 1.384 1_455 S
C37 C38 1.378 . S
C38 C37 1.378 . S
C38 C39 1.378 . S
C38 H50 0.952 . S
C39 C38 1.378 . S
C39 H51 0.950 . S
C39 C70 1.383 . S
H40 C59 0.947 . S
H41 C60 0.952 . S
H42 C62 0.953 . S
H43 C63 0.945 . S
H44 C65 0.949 1_655 S
H45 C66 0.949 . S
H46 C68 0.950 . S
H47 C69 0.948 . S
H48 C71 0.951 1_655 S
H49 C36 0.948 . S
H50 C38 0.952 . S
H51 C39 0.950 . S
N52 C55 1.382 . S
N52 C57 1.363 . S
N53 C55 1.371 . S
N53 C56 1.372 . S
N54 C56 1.361 . S
N54 C57 1.377 . S
C55 N52 1.382 . S
C55 N53 1.371 . S
C55 C58 1.480 . S
C56 N53 1.372 . S
C56 N54 1.361 . S
C56 C64 1.457 . S
C57 N52 1.363 . S
C57 N54 1.377 . S
C57 C70 1.479 . S
C58 C55 1.480 . S
C58 C59 1.383 . S
C58 C63 1.385 . S
C59 H40 0.947 . S
C59 C58 1.383 . S
C59 C60 1.386 1_455 S
C60 H41 0.952 . S
C60 C59 1.386 1_655 S
C60 C61 1.381 1_655 S
C61 C60 1.381 1_455 S
C61 C62 1.377 . S
C62 H42 0.953 . S
C62 C61 1.377 . S
C62 C63 1.369 . S
C63 H43 0.945 . S
C63 C58 1.385 . S
C63 C62 1.369 . S
C64 C56 1.457 . S
C64 C65 1.377 . S
C64 C69 1.364 . S
C65 H44 0.949 1_455 S
C65 C64 1.377 . S
C65 C66 1.387 1_455 S
C66 H45 0.949 . S
C66 C65 1.387 1_655 S
C66 C67 1.387 1_655 S
C67 C66 1.387 1_455 S
C67 C68 1.372 . S
C68 H46 0.950 . S
C68 C67 1.372 . S
C68 C69 1.379 . S
C69 H47 0.948 . S
C69 C64 1.364 . S
C69 C68 1.379 . S
C70 C39 1.383 . S
C70 C57 1.479 . S
C70 C71 1.398 . S
C71 C36 1.382 1_455 S
C71 H48 0.951 1_455 S
C71 C70 1.398 . S
C72 C73 1.384 1_565 S
C72 H85 0.948 . S
C72 C107 1.382 1_565 S
C73 C72 1.384 1_545 S
C73 C74 1.378 . S
C74 C73 1.378 . S
C74 C75 1.378 . S
C74 H86 0.952 . S
C75 C74 1.378 . S
C75 H87 0.950 . S
C75 C106 1.383 . S
H76 C95 0.947 . S
H77 C96 0.952 . S
H78 C98 0.953 . S
H79 C99 0.945 . S
H80 C101 0.949 1_565 S
H81 C102 0.949 . S
H82 C104 0.950 . S
H83 C105 0.948 . S
H84 C107 0.951 1_565 S
H85 C72 0.948 . S
H86 C74 0.952 . S
H87 C75 0.950 . S
N88 C91 1.382 . S
N88 C93 1.363 . S
N89 C91 1.371 . S
N89 C92 1.372 . S
N90 C92 1.361 . S
N90 C93 1.377 . S
C91 N88 1.382 . S
C91 N89 1.371 . S
C91 C94 1.480 . S
C92 N89 1.372 . S
C92 N90 1.361 . S
C92 C100 1.457 . S
C93 N88 1.363 . S
C93 N90 1.377 . S
C93 C106 1.479 . S
C94 C91 1.480 . S
C94 C95 1.383 . S
C94 C99 1.385 . S
C95 H76 0.947 . S
C95 C94 1.383 . S
C95 C96 1.386 1_545 S
C96 H77 0.952 . S
C96 C95 1.386 1_565 S
C96 C97 1.382 1_565 S
C97 C96 1.382 1_545 S
C97 C98 1.377 . S
C98 H78 0.953 . S
C98 C97 1.377 . S
C98 C99 1.369 . S
C99 H79 0.945 . S
C99 C94 1.385 . S
C99 C98 1.369 . S
C100 C92 1.457 . S
C100 C101 1.377 . S
C100 C105 1.364 . S
C101 H80 0.949 1_545 S
C101 C100 1.377 . S
C101 C102 1.387 1_545 S
C102 H81 0.949 . S
C102 C101 1.387 1_565 S
C102 C103 1.387 1_565 S
C103 C102 1.387 1_545 S
C103 C104 1.372 . S
C104 H82 0.950 . S
C104 C103 1.372 . S
C104 C105 1.379 . S
C105 H83 0.948 . S
C105 C100 1.364 . S
C105 C104 1.379 . S
C106 C75 1.383 . S
C106 C93 1.479 . S
C106 C107 1.398 . S
C107 C72 1.382 1_545 S
C107 H84 0.951 1_545 S
C107 C106 1.398 . S
C108 C109 1.384 . S
C108 H121 0.947 . S
C108 C143 1.382 . S
C109 C108 1.384 . S
C109 C110 1.378 . S
C110 C109 1.378 . S
C110 C111 1.378 . S
C110 H122 0.952 . S
C111 C110 1.378 . S
C111 H123 0.950 . S
C111 C142 1.383 . S
H112 C131 0.947 . S
H113 C132 0.946 . S
H114 C134 0.953 . S
H115 C135 0.945 . S
H116 C137 0.952 . S
H117 C138 0.949 . S
H118 C140 0.950 . S
H119 C141 0.948 . S
H120 C143 0.951 . S
H121 C108 0.947 . S
H122 C110 0.952 . S
H123 C111 0.950 . S
N124 C127 1.382 . S
N124 C129 1.363 . S
N125 C127 1.371 . S
N125 C128 1.372 . S
N126 C128 1.361 . S
N126 C129 1.377 . S
C127 N124 1.382 . S
C127 N125 1.371 . S
C127 C130 1.480 . S
C128 N125 1.372 . S
C128 N126 1.361 . S
C128 C136 1.457 . S
C129 N124 1.363 . S
C129 N126 1.377 . S
C129 C142 1.479 . S
C130 C127 1.480 . S
C130 C131 1.383 . S
C130 C135 1.385 . S
C131 H112 0.947 . S
C131 C130 1.383 . S
C131 C132 1.388 . S
C132 H113 0.946 . S
C132 C131 1.388 . S
C132 C133 1.384 . S
C133 C132 1.384 . S
C133 C134 1.377 . S
C134 H114 0.953 . S
C134 C133 1.377 . S
C134 C135 1.369 . S
C135 H115 0.945 . S
C135 C130 1.385 . S
C135 C134 1.369 . S
C136 C128 1.457 . S
C136 C137 1.372 . S
C136 C141 1.364 . S
C137 H116 0.952 . S
C137 C136 1.372 . S
C137 C138 1.389 . S
C138 H117 0.949 . S
C138 C137 1.389 . S
C138 C139 1.387 . S
C139 C138 1.387 . S
C139 C140 1.372 . S
C140 H118 0.950 . S
C140 C139 1.372 . S
C140 C141 1.379 . S
C141 H119 0.948 . S
C141 C136 1.364 . S
C141 C140 1.379 . S
C142 C111 1.383 . S
C142 C129 1.479 . S
C142 C143 1.398 . S
C143 C108 1.382 . S
C143 H120 0.951 . S
C143 C142 1.398 . S
C144 C145 1.384 . S
C144 H157 0.947 . S
C144 C179 1.382 . S
C145 C144 1.384 . S
C145 C146 1.378 . S
C146 C145 1.378 . S
C146 C147 1.378 . S
C146 H158 0.952 . S
C147 C146 1.378 . S
C147 H159 0.950 . S
C147 C178 1.383 . S
H148 C167 0.947 1_556 S
H149 C168 0.946 . S
H150 C170 0.953 . S
H151 C171 0.945 . S
H152 C173 0.952 . S
H153 C174 0.949 . S
H154 C176 0.950 . S
H155 C177 0.948 . S
H156 C179 0.951 . S
H157 C144 0.947 . S
H158 C146 0.952 . S
H159 C147 0.950 . S
N160 C163 1.382 1_556 S
N160 C165 1.363 . S
N161 C163 1.371 . S
N161 C164 1.372 . S
N162 C164 1.361 . S
N162 C165 1.377 1_554 S
C163 N160 1.382 1_554 S
C163 N161 1.371 . S
C163 C166 1.480 . S
C164 N161 1.372 . S
C164 N162 1.361 . S
C164 C172 1.457 . S
C165 N160 1.363 . S
C165 N162 1.377 1_556 S
C165 C178 1.479 . S
C166 C163 1.480 . S
C166 C167 1.383 . S
C166 C171 1.385 . S
C167 H148 0.947 1_554 S
C167 C166 1.383 . S
C167 C168 1.388 . S
C168 H149 0.946 . S
C168 C167 1.388 . S
C168 C169 1.384 . S
C169 C168 1.384 . S
C169 C170 1.377 . S
C170 H150 0.953 . S
C170 C169 1.377 . S
C170 C171 1.369 . S
C171 H151 0.945 . S
C171 C166 1.385 . S
C171 C170 1.369 . S
C172 C164 1.457 . S
C172 C173 1.372 . S
C172 C177 1.364 . S
C173 H152 0.952 . S
C173 C172 1.372 . S
C173 C174 1.389 . S
C174 H153 0.949 . S
C174 C173 1.389 . S
C174 C175 1.387 . S
C175 C174 1.387 . S
C175 C176 1.372 . S
C176 H154 0.950 . S
C176 C175 1.372 . S
C176 C177 1.379 . S
C177 H155 0.948 . S
C177 C172 1.364 . S
C177 C176 1.379 . S
C178 C147 1.383 . S
C178 C165 1.479 . S
C178 C179 1.398 . S
C179 C144 1.382 . S
C179 H156 0.951 . S
C179 C178 1.398 . S
C180 C181 1.384 1_655 S
C180 H193 0.947 . S
C180 C215 1.382 1_655 S
C181 C180 1.384 1_455 S
C181 C182 1.378 . S
C182 C181 1.378 . S
C182 C183 1.378 . S
C182 H194 0.952 . S
C183 C182 1.378 . S
C183 H195 0.950 . S
C183 C214 1.383 . S
H184 C203 0.947 1_556 S
H185 C204 0.950 . S
H186 C206 0.953 . S
H187 C207 0.945 . S
H188 C209 0.947 1_655 S
H189 C210 0.954 . S
H190 C212 0.950 . S
H191 C213 0.948 . S
H192 C215 0.950 1_655 S
H193 C180 0.947 . S
H194 C182 0.952 . S
H195 C183 0.950 . S
N196 C199 1.382 1_556 S
N196 C201 1.363 . S
N197 C199 1.371 . S
N197 C200 1.372 . S
N198 C200 1.361 . S
N198 C201 1.377 1_554 S
C199 N196 1.382 1_554 S
C199 N197 1.371 . S
C199 C202 1.480 . S
C200 N197 1.372 . S
C200 N198 1.361 . S
C200 C208 1.457 . S
C201 N196 1.363 . S
C201 N198 1.377 1_556 S
C201 C214 1.479 . S
C202 C199 1.480 . S
C202 C203 1.383 . S
C202 C207 1.385 . S
C203 H184 0.947 1_554 S
C203 C202 1.383 . S
C203 C204 1.387 1_455 S
C204 H185 0.950 . S
C204 C203 1.387 1_655 S
C204 C205 1.382 1_655 S
C205 C204 1.382 1_455 S
C205 C206 1.377 . S
C206 H186 0.953 . S
C206 C205 1.377 . S
C206 C207 1.369 . S
C207 H187 0.945 . S
C207 C202 1.385 . S
C207 C206 1.369 . S
C208 C200 1.457 . S
C208 C209 1.379 . S
C208 C213 1.364 . S
C209 H188 0.947 1_455 S
C209 C208 1.379 . S
C209 C210 1.387 1_455 S
C210 H189 0.954 . S
C210 C209 1.387 1_655 S
C210 C211 1.383 1_655 S
C211 C210 1.383 1_455 S
C211 C212 1.372 . S
C212 H190 0.950 . S
C212 C211 1.372 . S
C212 C213 1.379 . S
C213 H191 0.948 . S
C213 C208 1.364 . S
C213 C212 1.379 . S
C214 C183 1.383 . S
C214 C201 1.479 . S
C214 C215 1.399 . S
C215 C180 1.382 1_455 S
C215 H192 0.950 1_455 S
C215 C214 1.399 . S
C216 C217 1.384 1_565 S
C216 H229 0.947 . S
C216 C251 1.382 1_565 S
C217 C216 1.384 1_545 S
C217 C218 1.378 . S
C218 C217 1.378 . S
C218 C219 1.378 . S
C218 H230 0.952 . S
C219 C218 1.378 . S
C219 H231 0.950 . S
C219 C250 1.383 . S
H220 C239 0.947 1_556 S
H221 C240 0.950 . S
H222 C242 0.953 . S
H223 C243 0.945 . S
H224 C245 0.948 1_565 S
H225 C246 0.954 . S
H226 C248 0.950 . S
H227 C249 0.948 . S
H228 C251 0.950 1_565 S
H229 C216 0.947 . S
H230 C218 0.952 . S
H231 C219 0.950 . S
N232 C235 1.382 1_556 S
N232 C237 1.363 . S
N233 C235 1.371 . S
N233 C236 1.372 . S
N234 C236 1.361 . S
N234 C237 1.377 1_554 S
C235 N232 1.382 1_554 S
C235 N233 1.371 . S
C235 C238 1.480 . S
C236 N233 1.372 . S
C236 N234 1.361 . S
C236 C244 1.457 . S
C237 N232 1.363 . S
C237 N234 1.377 1_556 S
C237 C250 1.479 . S
C238 C235 1.480 . S
C238 C239 1.383 . S
C238 C243 1.385 . S
C239 H220 0.947 1_554 S
C239 C238 1.383 . S
C239 C240 1.387 1_545 S
C240 H221 0.950 . S
C240 C239 1.387 1_565 S
C240 C241 1.382 1_565 S
C241 C240 1.382 1_545 S
C241 C242 1.377 . S
C242 H222 0.953 . S
C242 C241 1.377 . S
C242 C243 1.369 . S
C243 H223 0.945 . S
C243 C238 1.385 . S
C243 C242 1.369 . S
C244 C236 1.457 . S
C244 C245 1.379 . S
C244 C249 1.364 . S
C245 H224 0.948 1_545 S
C245 C244 1.379 . S
C245 C246 1.387 1_545 S
C246 H225 0.954 . S
C246 C245 1.387 1_565 S
C246 C247 1.384 1_565 S
C247 C246 1.384 1_545 S
C247 C248 1.372 . S
C248 H226 0.950 . S
C248 C247 1.372 . S
C248 C249 1.379 . S
C249 H227 0.948 . S
C249 C244 1.364 . S
C249 C248 1.379 . S
C250 C219 1.383 . S
C250 C237 1.479 . S
C250 C251 1.399 . S
C251 C216 1.382 1_545 S
C251 H228 0.950 1_545 S
C251 C250 1.399 . S
C252 C253 1.384 . S
C252 H265 0.947 . S
C252 C287 1.382 . S
C253 C252 1.384 . S
C253 C254 1.378 . S
C254 C253 1.378 . S
C254 C255 1.378 . S
C254 H266 0.952 . S
C255 C254 1.378 . S
C255 H267 0.950 . S
C255 C286 1.383 . S
H256 C275 0.947 . S
H257 C276 0.946 . S
H258 C278 0.953 1_556 S
H259 C279 0.945 1_556 S
H260 C281 0.952 . S
H261 C282 0.949 . S
H262 C284 0.950 . S
H263 C285 0.948 . S
H264 C287 0.951 . S
H265 C252 0.947 . S
H266 C254 0.952 . S
H267 C255 0.950 . S
N268 C271 1.382 . S
N268 C273 1.363 . S
N269 C271 1.371 1_556 S
N269 C272 1.372 . S
N270 C272 1.361 1_554 S
N270 C273 1.377 . S
C271 N268 1.382 . S
C271 N269 1.371 1_554 S
C271 C274 1.480 . S
C272 N269 1.372 . S
C272 N270 1.361 1_556 S
C272 C280 1.457 . S
C273 N268 1.363 . S
C273 N270 1.377 . S
C273 C286 1.479 . S
C274 C271 1.480 . S
C274 C275 1.383 . S
C274 C279 1.385 . S
C275 H256 0.947 . S
C275 C274 1.383 . S
C275 C276 1.388 . S
C276 H257 0.946 . S
C276 C275 1.388 . S
C276 C277 1.384 . S
C277 C276 1.384 . S
C277 C278 1.377 . S
C278 H258 0.953 1_554 S
C278 C277 1.377 . S
C278 C279 1.369 . S
C279 H259 0.945 1_554 S
C279 C274 1.385 . S
C279 C278 1.369 . S
C280 C272 1.457 . S
C280 C281 1.372 . S
C280 C285 1.364 . S
C281 H260 0.952 . S
C281 C280 1.372 . S
C281 C282 1.389 . S
C282 H261 0.949 . S
C282 C281 1.389 . S
C282 C283 1.387 . S
C283 C282 1.387 . S
C283 C284 1.372 . S
C284 H262 0.950 . S
C284 C283 1.372 . S
C284 C285 1.379 . S
C285 H263 0.948 . S
C285 C280 1.364 . S
C285 C284 1.379 . S
C286 C255 1.383 . S
C286 C273 1.479 . S
C286 C287 1.398 . S
C287 C252 1.382 . S
C287 H264 0.951 . S
C287 C286 1.398 . S
Tb288 C298 2.825 . S
Tb288 O299 2.347 1_455 S
Tb288 O302 2.366 . S
Tb288 O307 2.418 . S
Tb288 O308 2.384 1_565 S
Tb288 O311 2.479 . S
Tb288 O312 2.471 . S
Eu289 O300 2.418 . S
Eu289 O301 2.384 1_545 S
Eu289 O304 2.479 . S
Eu289 O305 2.471 . S
Eu289 O306 2.347 1_655 S
Eu289 O309 2.366 . S
Eu289 C319 2.825 . S
C290 O306 1.259 1_565 S
C290 O307 1.265 . S
C291 O308 1.255 . S
C291 O309 1.265 1_455 S
C292 C294 1.380 . S
C292 C295 1.374 . S
C292 C298 1.507 . S
C293 C294 1.384 1_554 S
C293 C297 1.387 . S
C293 H320 0.930 . S
C294 C292 1.380 . S
C294 C293 1.384 1_556 S
C294 H321 0.931 . S
C295 C292 1.374 . S
C295 C296 1.390 1_556 S
C295 H322 0.930 1_455 S
C296 C295 1.390 1_554 S
C296 C297 1.391 . S
C296 H323 0.930 1_455 S
C297 C293 1.387 . S
C297 C296 1.391 . S
C298 Tb288 2.825 . S
C298 C292 1.507 . S
C298 O311 1.238 . S
C298 O312 1.247 . S
O299 Tb288 2.347 1_655 S
O299 C303 1.259 1_565 S
O300 Eu289 2.418 . S
O300 C303 1.265 . S
O301 Eu289 2.384 1_565 S
O301 C310 1.255 . S
O302 Tb288 2.366 . S
O302 C310 1.265 1_455 S
C303 O299 1.259 1_545 S
C303 O300 1.265 . S
O304 Eu289 2.479 . S
O304 C319 1.238 . S
O305 Eu289 2.471 . S
O305 C319 1.247 . S
O306 Eu289 2.347 1_455 S
O306 C290 1.259 1_545 S
O307 Tb288 2.418 . S
O307 C290 1.265 . S
O308 Tb288 2.384 1_545 S
O308 C291 1.255 . S
O309 Eu289 2.366 . S
O309 C291 1.265 1_655 S
C310 O301 1.255 . S
C310 O302 1.265 1_655 S
O311 Tb288 2.479 . S
O311 C298 1.238 . S
O312 Tb288 2.471 . S
O312 C298 1.247 . S
C313 C316 1.380 . S
C313 C317 1.374 . S
C313 C319 1.507 . S
C314 C315 1.387 . S
C314 C318 1.391 . S
C315 C314 1.387 . S
C315 C316 1.384 . S
C315 H324 0.930 . S
C316 C313 1.380 . S
C316 C315 1.384 . S
C316 H325 0.931 . S
C317 C313 1.374 . S
C317 C318 1.390 . S
C317 H326 0.930 1_655 S
C318 C314 1.391 . S
C318 C317 1.390 . S
C318 H327 0.930 1_655 S
C319 Eu289 2.825 . S
C319 O304 1.238 . S
C319 O305 1.247 . S
C319 C313 1.507 . S
H320 C293 0.930 . S
H321 C294 0.931 . S
H322 C295 0.930 1_655 S
H323 C296 0.930 1_655 S
H324 C315 0.930 . S
H325 C316 0.931 . S
H326 C317 0.930 1_455 S
H327 C318 0.930 1_455 S
Tb328 C338 2.825 . S
Tb328 O339 2.347 1_545 S
Tb328 O342 2.366 . S
Tb328 O347 2.418 . S
Tb328 O348 2.384 . S
Tb328 O351 2.479 . S
Tb328 O352 2.471 . S
Eu329 O340 2.418 . S
Eu329 O341 2.384 . S
Eu329 O344 2.479 . S
Eu329 O345 2.471 . S
Eu329 O346 2.347 1_565 S
Eu329 O349 2.366 . S
Eu329 C359 2.825 . S
C330 O346 1.259 . S
C330 O347 1.265 . S
C331 O348 1.255 . S
C331 O349 1.265 1_545 S
C332 C334 1.380 . S
C332 C335 1.374 . S
C332 C338 1.507 . S
C333 C334 1.384 1_554 S
C333 C337 1.387 . S
C333 H360 0.930 . S
C334 C332 1.380 . S
C334 C333 1.384 1_556 S
C334 H361 0.931 . S
C335 C332 1.374 . S
C335 C336 1.390 1_556 S
C335 H362 0.930 1_545 S
C336 C335 1.390 1_554 S
C336 C337 1.391 . S
C336 H363 0.930 1_545 S
C337 C333 1.387 . S
C337 C336 1.391 . S
C338 Tb328 2.825 . S
C338 C332 1.507 . S
C338 O351 1.238 . S
C338 O352 1.247 . S
O339 Tb328 2.347 1_565 S
O339 C343 1.259 . S
O340 Eu329 2.418 . S
O340 C343 1.265 . S
O341 Eu329 2.384 . S
O341 C350 1.255 . S
O342 Tb328 2.366 . S
O342 C350 1.265 1_545 S
C343 O339 1.259 . S
C343 O340 1.265 . S
O344 Eu329 2.479 . S
O344 C359 1.238 . S
O345 Eu329 2.471 . S
O345 C359 1.247 . S
O346 Eu329 2.347 1_545 S
O346 C330 1.259 . S
O347 Tb328 2.418 . S
O347 C330 1.265 . S
O348 Tb328 2.384 . S
O348 C331 1.255 . S
O349 Eu329 2.366 . S
O349 C331 1.265 1_565 S
C350 O341 1.255 . S
C350 O342 1.265 1_565 S
O351 Tb328 2.479 . S
O351 C338 1.238 . S
O352 Tb328 2.471 . S
O352 C338 1.247 . S
C353 C356 1.380 . S
C353 C357 1.374 . S
C353 C359 1.507 . S
C354 C355 1.387 . S
C354 C358 1.391 . S
C355 C354 1.387 . S
C355 C356 1.384 . S
C355 H364 0.930 . S
C356 C353 1.380 . S
C356 C355 1.384 . S
C356 H365 0.931 . S
C357 C353 1.374 . S
C357 C358 1.390 . S
C357 H366 0.930 1_565 S
C358 C354 1.391 . S
C358 C357 1.390 . S
C358 H367 0.930 1_565 S
C359 Eu329 2.825 . S
C359 O344 1.238 . S
C359 O345 1.247 . S
C359 C353 1.507 . S
H360 C333 0.930 . S
H361 C334 0.931 . S
H362 C335 0.930 1_565 S
H363 C336 0.930 1_565 S
H364 C355 0.930 . S
H365 C356 0.931 . S
H366 C357 0.930 1_545 S
H367 C358 0.930 1_545 S
Tb368 C378 2.825 . S
Tb368 O379 2.347 . S
Tb368 O382 2.366 . S
Tb368 O387 2.418 . S
Tb368 O388 2.384 . S
Tb368 O391 2.479 . S
Tb368 O392 2.471 . S
Eu369 O380 2.418 . S
Eu369 O381 2.384 . S
Eu369 O384 2.479 . S
Eu369 O385 2.471 . S
Eu369 O386 2.347 . S
Eu369 O389 2.366 . S
Eu369 C399 2.825 . S
C370 O386 1.259 . S
C370 O387 1.265 . S
C371 O388 1.255 . S
C371 O389 1.265 . S
C372 C374 1.380 . S
C372 C375 1.374 . S
C372 C378 1.507 . S
C373 C374 1.384 1_554 S
C373 C377 1.387 . S
C373 H400 0.930 . S
C374 C372 1.380 . S
C374 C373 1.384 1_556 S
C374 H401 0.931 . S
C375 C372 1.374 . S
C375 C376 1.390 1_556 S
C375 H402 0.930 . S
C376 C375 1.390 1_554 S
C376 C377 1.391 . S
C376 H403 0.930 . S
C377 C373 1.387 . S
C377 C376 1.391 . S
C378 Tb368 2.825 . S
C378 C372 1.507 . S
C378 O391 1.238 . S
C378 O392 1.247 . S
O379 Tb368 2.347 . S
O379 C383 1.259 . S
O380 Eu369 2.418 . S
O380 C383 1.265 . S
O381 Eu369 2.384 . S
O381 C390 1.255 . S
O382 Tb368 2.366 . S
O382 C390 1.265 . S
C383 O379 1.259 . S
C383 O380 1.265 . S
O384 Eu369 2.479 . S
O384 C399 1.238 . S
O385 Eu369 2.471 . S
O385 C399 1.247 . S
O386 Eu369 2.347 . S
O386 C370 1.259 . S
O387 Tb368 2.418 . S
O387 C370 1.265 . S
O388 Tb368 2.384 . S
O388 C371 1.255 . S
O389 Eu369 2.366 . S
O389 C371 1.265 . S
C390 O381 1.255 . S
C390 O382 1.265 . S
O391 Tb368 2.479 . S
O391 C378 1.238 . S
O392 Tb368 2.471 . S
O392 C378 1.247 . S
C393 C396 1.380 . S
C393 C397 1.374 . S
C393 C399 1.507 . S
C394 C395 1.387 . S
C394 C398 1.391 . S
C395 C394 1.387 . S
C395 C396 1.384 . S
C395 H404 0.930 . S
C396 C393 1.380 . S
C396 C395 1.384 . S
C396 H405 0.931 . S
C397 C393 1.374 . S
C397 C398 1.390 . S
C397 H406 0.930 . S
C398 C394 1.391 . S
C398 C397 1.390 . S
C398 H407 0.930 . S
C399 Eu369 2.825 . S
C399 O384 1.238 . S
C399 O385 1.247 . S
C399 C393 1.507 . S
H400 C373 0.930 . S
H401 C374 0.931 . S
H402 C375 0.930 . S
H403 C376 0.930 . S
H404 C395 0.930 . S
H405 C396 0.931 . S
H406 C397 0.930 . S
H407 C398 0.930 . S
Tb408 C418 2.825 . S
Tb408 O419 2.347 . S
Tb408 O422 2.366 . S
Tb408 O427 2.418 . S
Tb408 O428 2.384 1_655 S
Tb408 O431 2.479 . S
Tb408 O432 2.471 . S
Eu409 O420 2.418 . S
Eu409 O421 2.384 1_455 S
Eu409 O424 2.479 . S
Eu409 O425 2.471 . S
Eu409 O426 2.347 . S
Eu409 O429 2.366 . S
Eu409 C439 2.825 . S
C410 O426 1.259 1_655 S
C410 O427 1.265 . S
C411 O428 1.255 . S
C411 O429 1.265 . S
C412 C414 1.380 . S
C412 C415 1.374 . S
C412 C418 1.507 . S
C413 C414 1.384 1_554 S
C413 C417 1.387 . S
C413 H440 0.930 . S
C414 C412 1.380 . S
C414 C413 1.384 1_556 S
C414 H441 0.931 . S
C415 C412 1.374 . S
C415 C416 1.390 1_556 S
C415 H442 0.930 . S
C416 C415 1.390 1_554 S
C416 C417 1.391 . S
C416 H443 0.930 . S
C417 C413 1.387 . S
C417 C416 1.391 . S
C418 Tb408 2.825 . S
C418 C412 1.507 . S
C418 O431 1.238 . S
C418 O432 1.247 . S
O419 Tb408 2.347 . S
O419 C423 1.259 1_655 S
O420 Eu409 2.418 . S
O420 C423 1.265 . S
O421 Eu409 2.384 1_655 S
O421 C430 1.255 . S
O422 Tb408 2.366 . S
O422 C430 1.265 . S
C423 O419 1.259 1_455 S
C423 O420 1.265 . S
O424 Eu409 2.479 . S
O424 C439 1.238 . S
O425 Eu409 2.471 . S
O425 C439 1.247 . S
O426 Eu409 2.347 . S
O426 C410 1.259 1_455 S
O427 Tb408 2.418 . S
O427 C410 1.265 . S
O428 Tb408 2.384 1_455 S
O428 C411 1.255 . S
O429 Eu409 2.366 . S
O429 C411 1.265 . S
C430 O421 1.255 . S
C430 O422 1.265 . S
O431 Tb408 2.479 . S
O431 C418 1.238 . S
O432 Tb408 2.471 . S
O432 C418 1.247 . S
C433 C436 1.380 . S
C433 C437 1.374 . S
C433 C439 1.507 . S
C434 C435 1.387 . S
C434 C438 1.391 . S
C435 C434 1.387 . S
C435 C436 1.384 . S
C435 H444 0.930 . S
C436 C433 1.380 . S
C436 C435 1.384 . S
C436 H445 0.931 . S
C437 C433 1.374 . S
C437 C438 1.390 . S
C437 H446 0.930 . S
C438 C434 1.391 . S
C438 C437 1.390 . S
C438 H447 0.930 . S
C439 Eu409 2.825 . S
C439 O424 1.238 . S
C439 O425 1.247 . S
C439 C433 1.507 . S
H440 C413 0.930 . S
H441 C414 0.931 . S
H442 C415 0.930 . S
H443 C416 0.930 . S
H444 C435 0.930 . S
H445 C436 0.931 . S
H446 C437 0.930 . S
H447 C438 0.930 . S
C448 C449 1.363 . S
C448 C454 1.379 . S
C448 N456 1.356 . S
C449 C448 1.363 . S
C449 C455 1.363 1_545 S
C450 C451 1.363 1_565 S
C450 C455 1.379 . S
C450 N457 1.356 . S
C451 C450 1.363 1_545 S
C451 C454 1.363 . S
N452 C454 1.356 . S
N452 H464 0.984 . S
N452 H465 0.985 . S
N453 C455 1.356 . S
N453 H458 0.984 . S
N453 H459 0.985 . S
C454 C448 1.379 . S
C454 C451 1.363 . S
C454 N452 1.356 . S
C455 C449 1.363 1_565 S
C455 C450 1.379 . S
C455 N453 1.356 . S
N456 C448 1.356 . S
N456 H462 0.984 . S
N456 H463 0.984 . S
N457 C450 1.356 . S
N457 H460 0.984 . S
N457 H461 0.985 . S
H458 N453 0.984 . S
H459 N453 0.985 . S
H460 N457 0.984 . S
H461 N457 0.985 . S
H462 N456 0.984 . S
H463 N456 0.984 . S
H464 N452 0.984 . S
H465 N452 0.985 . S
C466 C467 1.363 . S
C466 C472 1.379 . S
C466 N474 1.356 . S
C467 C466 1.363 . S
C467 C473 1.363 . S
C468 C469 1.363 . S
C468 C473 1.379 . S
C468 N475 1.356 . S
C469 C468 1.363 . S
C469 C472 1.363 . S
N470 C472 1.356 . S
N470 H482 0.984 . S
N470 H483 0.985 . S
N471 C473 1.356 . S
N471 H476 0.984 . S
N471 H477 0.985 . S
C472 C466 1.379 . S
C472 C469 1.363 . S
C472 N470 1.356 . S
C473 C467 1.363 . S
C473 C468 1.379 . S
C473 N471 1.356 . S
N474 C466 1.356 . S
N474 H480 0.984 . S
N474 H481 0.984 . S
N475 C468 1.356 . S
N475 H478 0.984 . S
N475 H479 0.985 . S
H476 N471 0.984 . S
H477 N471 0.985 . S
H478 N475 0.984 . S
H479 N475 0.985 . S
H480 N474 0.984 . S
H481 N474 0.984 . S
H482 N470 0.984 . S
H483 N470 0.985 . S
C484 C485 1.363 . S
C484 C490 1.379 . S
C484 N492 1.356 . S
C485 C484 1.363 . S
C485 C491 1.363 . S
C486 C487 1.363 . S
C486 C491 1.379 . S
C486 N493 1.356 . S
C487 C486 1.363 . S
C487 C490 1.363 . S
N488 C490 1.356 . S
N488 H500 0.984 . S
N488 H501 0.985 . S
N489 C491 1.356 . S
N489 H494 0.984 . S
N489 H495 0.985 . S
C490 C484 1.379 . S
C490 C487 1.363 . S
C490 N488 1.356 . S
C491 C485 1.363 . S
C491 C486 1.379 . S
C491 N489 1.356 . S
N492 C484 1.356 . S
N492 H498 0.984 . S
N492 H499 0.984 . S
N493 C486 1.356 . S
N493 H496 0.984 . S
N493 H497 0.985 . S
H494 N489 0.984 . S
H495 N489 0.985 . S
H496 N493 0.984 . S
H497 N493 0.985 . S
H498 N492 0.984 . S
H499 N492 0.984 . S
H500 N488 0.984 . S
H501 N488 0.985 . S
C502 C503 1.375 . S
C502 C508 1.379 . S
C502 N510 1.356 . S
C503 C502 1.375 . S
C503 C509 1.352 1_455 S
C504 C505 1.363 1_655 S
C504 C509 1.379 . S
C504 N511 1.356 . S
C505 C504 1.363 1_455 S
C505 C508 1.363 . S
N506 C508 1.356 . S
N506 H518 0.984 . S
N506 H519 0.985 . S
N507 C509 1.356 . S
N507 H512 0.984 . S
N507 H513 0.985 . S
C508 C502 1.379 . S
C508 C505 1.363 . S
C508 N506 1.356 . S
C509 C503 1.352 1_655 S
C509 C504 1.379 . S
C509 N507 1.356 . S
N510 C502 1.356 . S
N510 H516 0.984 . S
N510 H517 0.984 . S
N511 C504 1.356 . S
N511 H514 0.984 . S
N511 H515 0.985 . S
H512 N507 0.984 . S
H513 N507 0.985 . S
H514 N511 0.984 . S
H515 N511 0.985 . S
H516 N510 0.984 . S
H517 N510 0.984 . S
H518 N506 0.984 . S
H519 N506 0.985 . S
C520 C521 1.363 1_565 S
C520 C526 1.379 . S
C520 N528 1.356 . S
C521 C520 1.363 1_545 S
C521 C527 1.363 . S
C522 C523 1.363 1_554 S
C522 C527 1.379 . S
C522 N529 1.356 1_554 S
C523 C522 1.363 1_556 S
C523 C526 1.363 1_546 S
N524 C526 1.356 1_556 S
N524 H536 0.984 1_556 S
N524 H537 0.985 . S
N525 C527 1.356 . S
N525 H530 0.984 . S
N525 H531 0.985 . S
C526 C520 1.379 . S
C526 C523 1.363 1_564 S
C526 N524 1.356 1_554 S
C527 C521 1.363 . S
C527 C522 1.379 . S
C527 N525 1.356 . S
N528 C520 1.356 . S
N528 H534 0.984 . S
N528 H535 0.984 . S
N529 C522 1.356 1_556 S
N529 H532 0.984 . S
N529 H533 0.985 . S
H530 N525 0.984 . S
H531 N525 0.985 . S
H532 N529 0.984 . S
H533 N529 0.985 . S
H534 N528 0.984 . S
H535 N528 0.984 . S
H536 N524 0.984 1_554 S
H537 N524 0.985 . S
C538 C539 1.363 . S
C538 C544 1.379 . S
C538 N546 1.356 . S
C539 C538 1.363 . S
C539 C545 1.363 . S
C540 C541 1.363 1_554 S
C540 C545 1.379 . S
C540 N547 1.356 1_554 S
C541 C540 1.363 1_556 S
C541 C544 1.363 1_556 S
N542 C544 1.356 1_556 S
N542 H554 0.984 1_556 S
N542 H555 0.985 . S
N543 C545 1.356 . S
N543 H548 0.984 . S
N543 H549 0.985 . S
C544 C538 1.379 . S
C544 C541 1.363 1_554 S
C544 N542 1.356 1_554 S
C545 C539 1.363 . S
C545 C540 1.379 . S
C545 N543 1.356 . S
N546 C538 1.356 . S
N546 H552 0.984 . S
N546 H553 0.984 . S
N547 C540 1.356 1_556 S
N547 H550 0.984 . S
N547 H551 0.985 . S
H548 N543 0.984 . S
H549 N543 0.985 . S
H550 N547 0.984 . S
H551 N547 0.985 . S
H552 N546 0.984 . S
H553 N546 0.984 . S
H554 N542 0.984 1_554 S
H555 N542 0.985 . S
C556 C557 1.363 . S
C556 C562 1.379 . S
C556 N564 1.356 . S
C557 C556 1.363 . S
C557 C563 1.363 . S
C558 C559 1.363 1_554 S
C558 C563 1.379 . S
C558 N565 1.356 1_554 S
C559 C558 1.363 1_556 S
C559 C562 1.363 1_556 S
N560 C562 1.356 1_556 S
N560 H572 0.984 . S
N560 H573 0.985 . S
N561 C563 1.356 . S
N561 H566 0.984 . S
N561 H567 0.985 . S
C562 C556 1.379 . S
C562 C559 1.363 1_554 S
C562 N560 1.356 1_554 S
C563 C557 1.363 . S
C563 C558 1.379 . S
C563 N561 1.356 . S
N564 C556 1.356 . S
N564 H570 0.984 . S
N564 H571 0.984 . S
N565 C558 1.356 1_556 S
N565 H568 0.984 . S
N565 H569 0.985 1_556 S
H566 N561 0.984 . S
H567 N561 0.985 . S
H568 N565 0.984 . S
H569 N565 0.985 1_554 S
H570 N564 0.984 . S
H571 N564 0.984 . S
H572 N560 0.984 . S
H573 N560 0.985 . S
C574 C575 1.351 1_455 S
C574 C580 1.379 . S
C574 N582 1.356 . S
C575 C574 1.351 1_655 S
C575 C581 1.376 . S
C576 C577 1.363 1_554 S
C576 C581 1.379 . S
C576 N583 1.356 1_554 S
C577 C576 1.363 1_556 S
C577 C580 1.363 1_656 S
N578 C580 1.356 1_556 S
N578 H590 0.984 1_556 S
N578 H591 0.985 . S
N579 C581 1.356 . S
N579 H584 0.984 . S
N579 H585 0.985 . S
C580 C574 1.379 . S
C580 C577 1.363 1_454 S
C580 N578 1.356 1_554 S
C581 C575 1.376 . S
C581 C576 1.379 . S
C581 N579 1.356 . S
N582 C574 1.356 . S
N582 H588 0.984 . S
N582 H589 0.984 . S
N583 C576 1.356 1_556 S
N583 H586 0.984 . S
N583 H587 0.985 . S
H584 N579 0.984 . S
H585 N579 0.985 . S
H586 N583 0.984 . S
H587 N583 0.985 . S
H588 N582 0.984 . S
H589 N582 0.984 . S
H590 N578 0.984 1_554 S
H591 N578 0.985 . S
C592 C593 1.363 1_655 S
C592 C598 1.379 . S
C592 N600 1.356 1_655 S
C593 C592 1.363 1_455 S
C593 C599 1.360 1_455 S
C594 C595 1.363 . S
C594 C599 1.379 . S
C594 N601 1.356 . S
C595 C594 1.363 . S
C595 C598 1.363 . S
N596 C598 1.356 . S
N596 H608 0.984 . S
N596 H609 0.985 . S
N597 C599 1.356 . S
N597 H602 0.984 1_655 S
N597 H603 0.985 . S
C598 C592 1.379 . S
C598 C595 1.363 . S
C598 N596 1.356 . S
C599 C593 1.360 1_655 S
C599 C594 1.379 . S
C599 N597 1.356 . S
N600 C592 1.356 1_455 S
N600 H606 0.984 . S
N600 H607 0.984 . S
N601 C594 1.356 . S
N601 H604 0.984 . S
N601 H605 0.985 . S
H602 N597 0.984 1_455 S
H603 N597 0.985 . S
H604 N601 0.984 . S
H605 N601 0.985 . S
H606 N600 0.984 . S
H607 N600 0.984 . S
H608 N596 0.984 . S
H609 N596 0.985 . S
C610 C611 1.365 . S
C610 C616 1.379 1_545 S
C610 N618 1.356 . S
C611 C610 1.365 . S
C611 C617 1.354 1_545 S
C612 C613 1.363 . S
C612 C617 1.379 . S
C612 N619 1.356 . S
C613 C612 1.363 . S
C613 C616 1.363 . S
N614 C616 1.356 . S
N614 H626 0.966 1_565 S
N614 H627 0.985 . S
N615 C617 1.356 . S
N615 H620 0.984 . S
N615 H621 0.985 . S
C616 C610 1.379 1_565 S
C616 C613 1.363 . S
C616 N614 1.356 . S
C617 C611 1.354 1_565 S
C617 C612 1.379 . S
C617 N615 1.356 . S
N618 C610 1.356 . S
N618 H624 0.984 . S
N618 H625 0.984 . S
N619 C612 1.356 . S
N619 H622 0.984 . S
N619 H623 0.985 . S
H620 N615 0.984 . S
H621 N615 0.985 . S
H622 N619 0.984 . S
H623 N619 0.985 . S
H624 N618 0.984 . S
H625 N618 0.984 . S
H626 N614 0.966 1_545 S
H627 N614 0.985 . S
C628 C629 1.363 . S
C628 C634 1.379 . S
C628 N636 1.356 . S
C629 C628 1.363 . S
C629 C635 1.363 . S
C630 C631 1.363 . S
C630 C635 1.379 . S
C630 N637 1.356 . S
C631 C630 1.363 . S
C631 C634 1.363 . S
N632 C634 1.356 . S
N632 H644 0.984 . S
N632 H645 0.985 . S
N633 C635 1.356 . S
N633 H638 0.984 . S
N633 H639 0.985 . S
C634 C628 1.379 . S
C634 C631 1.363 . S
C634 N632 1.356 . S
C635 C629 1.363 . S
C635 C630 1.379 . S
C635 N633 1.356 . S
N636 C628 1.356 . S
N636 H642 0.984 . S
N636 H643 0.984 . S
N637 C630 1.356 . S
N637 H640 0.984 . S
N637 H641 0.985 . S
H638 N633 0.984 . S
H639 N633 0.985 . S
H640 N637 0.984 . S
H641 N637 0.985 . S
H642 N636 0.984 . S
H643 N636 0.984 . S
H644 N632 0.984 . S
H645 N632 0.985 . S
C646 C647 1.363 . S
C646 C652 1.379 . S
C646 N654 1.356 . S
C647 C646 1.363 . S
C647 C653 1.363 . S
C648 C649 1.363 . S
C648 C653 1.379 . S
C648 N655 1.356 . S
C649 C648 1.363 . S
C649 C652 1.363 . S
N650 C652 1.356 . S
N650 H662 0.984 . S
N650 H663 0.985 . S
N651 C653 1.356 . S
N651 H656 0.984 . S
N651 H657 0.985 . S
C652 C646 1.379 . S
C652 C649 1.363 . S
C652 N650 1.356 . S
C653 C647 1.363 . S
C653 C648 1.379 . S
C653 N651 1.356 . S
N654 C646 1.356 . S
N654 H660 0.984 . S
N654 H661 0.984 . S
N655 C648 1.356 . S
N655 H658 0.984 . S
N655 H659 0.985 . S
H656 N651 0.984 . S
H657 N651 0.985 . S
H658 N655 0.984 . S
H659 N655 0.985 . S
H660 N654 0.984 . S
H661 N654 0.984 . S
H662 N650 0.984 . S
H663 N650 0.985 . S
C664 C665 1.361 1_455 S
C664 C670 1.379 . S
C664 N672 1.356 1_455 S
C665 C664 1.361 1_655 S
C665 C671 1.361 1_655 S
C666 C667 1.369 . S
C666 C671 1.381 . S
C666 N673 1.350 1_554 S
C667 C666 1.369 . S
C667 C670 1.363 . S
N668 C670 1.356 . S
N668 H680 0.984 . S
N668 H681 0.985 . S
N669 C671 1.356 1_656 S
N669 H674 0.984 1_556 S
N669 H675 0.992 . S
C670 C664 1.379 . S
C670 C667 1.363 . S
C670 N668 1.356 . S
C671 C665 1.361 1_455 S
C671 C666 1.381 . S
C671 N669 1.356 1_454 S
N672 C664 1.356 1_655 S
N672 H678 0.984 . S
N672 H679 0.984 . S
N673 C666 1.350 1_556 S
N673 H676 0.984 . S
N673 H677 0.985 . S
H674 N669 0.984 1_554 S
H675 N669 0.992 . S
H676 N673 0.984 . S
H677 N673 0.985 . S
H678 N672 0.984 . S
H679 N672 0.984 . S
H680 N668 0.984 . S
H681 N668 0.985 . S
C682 C683 1.363 1_545 S
C682 C688 1.379 . S
C682 N690 1.356 . S
C683 C682 1.363 1_565 S
C683 C689 1.363 1_565 S
C684 C685 1.363 . S
C684 C689 1.379 . S
C684 N691 1.356 . S
C685 C684 1.363 . S
C685 C688 1.363 . S
N686 C688 1.356 1_556 S
N686 H698 0.984 . S
N686 H699 0.985 . S
N687 C689 1.356 1_565 S
N687 H692 0.984 . S
N687 H693 0.985 . S
C688 C682 1.379 . S
C688 C685 1.363 . S
C688 N686 1.356 1_554 S
C689 C683 1.363 1_545 S
C689 C684 1.379 . S
C689 N687 1.356 1_545 S
N690 C682 1.356 . S
N690 H696 0.984 1_554 S
N690 H697 0.984 1_545 S
N691 C684 1.356 . S
N691 H694 0.984 . S
N691 H695 0.985 . S
H692 N687 0.984 . S
H693 N687 0.985 . S
H694 N691 0.984 . S
H695 N691 0.985 . S
H696 N690 0.984 1_556 S
H697 N690 0.984 1_565 S
H698 N686 0.984 . S
H699 N686 0.985 . S
C700 C701 1.363 . S
C700 C706 1.379 . S
C700 N708 1.356 . S
C701 C700 1.363 . S
C701 C707 1.363 . S
C702 C703 1.363 . S
C702 C707 1.379 . S
C702 N709 1.356 . S
C703 C702 1.363 . S
C703 C706 1.363 . S
N704 C706 1.356 . S
N704 H716 0.984 1_554 S
N704 H717 0.985 . S
N705 C707 1.356 . S
N705 H710 0.984 . S
N705 H711 0.985 . S
C706 C700 1.379 . S
C706 C703 1.363 . S
C706 N704 1.356 . S
C707 C701 1.363 . S
C707 C702 1.379 . S
C707 N705 1.356 . S
N708 C700 1.356 . S
N708 H714 0.984 . S
N708 H715 0.984 . S
N709 C702 1.356 . S
N709 H712 0.984 . S
N709 H713 0.985 . S
H710 N705 0.984 . S
H711 N705 0.985 . S
H712 N709 0.984 . S
H713 N709 0.985 . S
H714 N708 0.984 . S
H715 N708 0.984 . S
H716 N704 0.984 1_556 S
H717 N704 0.985 . S
C718 C719 1.363 . S
C718 C724 1.379 . S
C718 N726 1.356 . S
C719 C718 1.363 . S
C719 C725 1.363 . S
C720 C721 1.363 . S
C720 C725 1.379 . S
C720 N727 1.356 1_554 S
C721 C720 1.363 . S
C721 C724 1.363 . S
N722 C724 1.356 . S
N722 H734 0.984 . S
N722 H735 0.985 . S
N723 C725 1.356 . S
N723 H728 0.984 . S
N723 H729 0.985 1_554 S
C724 C718 1.379 . S
C724 C721 1.363 . S
C724 N722 1.356 . S
C725 C719 1.363 . S
C725 C720 1.379 . S
C725 N723 1.356 . S
N726 C718 1.356 . S
N726 H732 0.984 . S
N726 H733 0.984 . S
N727 C720 1.356 1_556 S
N727 H730 0.984 . S
N727 H731 0.985 . S
H728 N723 0.984 . S
H729 N723 0.985 1_556 S
H730 N727 0.984 . S
H731 N727 0.985 . S
H732 N726 0.984 . S
H733 N726 0.984 . S
H734 N722 0.984 . S
H735 N722 0.985 . S
C736 C737 1.363 . S
C736 C742 1.379 . S
C736 N744 1.356 . S
C737 C736 1.363 . S
C737 C743 1.363 1_455 S
C738 C739 1.363 1_655 S
C738 C743 1.379 . S
C738 N745 1.356 . S
C739 C738 1.363 1_455 S
C739 C742 1.363 . S
N740 C742 1.356 . S
N740 H752 0.984 . S
N740 H753 0.985 . S
N741 C743 1.356 . S
N741 H746 0.984 . S
N741 H747 0.985 . S
C742 C736 1.379 . S
C742 C739 1.363 . S
C742 N740 1.356 . S
C743 C737 1.363 1_655 S
C743 C738 1.379 . S
C743 N741 1.356 . S
N744 C736 1.356 . S
N744 H750 0.984 . S
N744 H751 0.984 . S
N745 C738 1.356 . S
N745 H748 0.984 . S
N745 H749 0.985 . S
H746 N741 0.984 . S
H747 N741 0.985 . S
H748 N745 0.984 . S
H749 N745 0.985 . S
H750 N744 0.984 . S
H751 N744 0.984 . S
H752 N740 0.984 . S
H753 N740 0.985 . S
C754 C755 1.363 1_565 S
C754 C760 1.379 . S
C754 N762 1.356 . S
C755 C754 1.363 1_545 S
C755 C761 1.363 . S
C756 C757 1.363 . S
C756 C761 1.379 . S
C756 N763 1.356 . S
C757 C756 1.363 . S
C757 C760 1.363 1_545 S
N758 C760 1.356 . S
N758 H770 0.984 . S
N758 H771 0.985 . S
N759 C761 1.356 . S
N759 H764 0.984 . S
N759 H765 0.985 . S
C760 C754 1.379 . S
C760 C757 1.363 1_565 S
C760 N758 1.356 . S
C761 C755 1.363 . S
C761 C756 1.379 . S
C761 N759 1.356 . S
N762 C754 1.356 . S
N762 H768 0.984 . S
N762 H769 0.984 . S
N763 C756 1.356 . S
N763 H766 0.984 . S
N763 H767 0.985 . S
H764 N759 0.984 . S
H765 N759 0.985 . S
H766 N763 0.984 . S
H767 N763 0.985 . S
H768 N762 0.984 . S
H769 N762 0.984 . S
H770 N758 0.984 . S
H771 N758 0.985 . S
C772 C773 1.363 . S
C772 C778 1.379 . S
C772 N780 1.356 . S
C773 C772 1.363 . S
C773 C779 1.363 . S
C774 C775 1.363 . S
C774 C779 1.379 . S
C774 N781 1.356 . S
C775 C774 1.363 . S
C775 C778 1.363 . S
N776 C778 1.356 . S
N776 H788 0.984 . S
N776 H789 0.985 . S
N777 C779 1.356 . S
N777 H782 0.984 . S
N777 H783 0.985 . S
C778 C772 1.379 . S
C778 C775 1.363 . S
C778 N776 1.356 . S
C779 C773 1.363 . S
C779 C774 1.379 . S
C779 N777 1.356 . S
N780 C772 1.356 . S
N780 H786 0.984 . S
N780 H787 0.984 . S
N781 C774 1.356 . S
N781 H784 0.984 . S
N781 H785 0.985 . S
H782 N777 0.984 . S
H783 N777 0.985 . S
H784 N781 0.984 . S
H785 N781 0.985 . S
H786 N780 0.984 . S
H787 N780 0.984 . S
H788 N776 0.984 . S
H789 N776 0.985 . S
C790 C791 1.363 . S
C790 C796 1.379 . S
C790 N798 1.356 . S
C791 C790 1.363 . S
C791 C797 1.363 . S
C792 C793 1.363 . S
C792 C797 1.379 . S
C792 N799 1.356 . S
C793 C792 1.363 . S
C793 C796 1.363 . S
N794 C796 1.356 . S
N794 H806 0.984 . S
N794 H807 0.985 . S
N795 C797 1.356 . S
N795 H800 0.984 . S
N795 H801 0.985 . S
C796 C790 1.379 . S
C796 C793 1.363 . S
C796 N794 1.356 . S
C797 C791 1.363 . S
C797 C792 1.379 . S
C797 N795 1.356 . S
N798 C790 1.356 . S
N798 H804 0.984 . S
N798 H805 0.984 . S
N799 C792 1.356 . S
N799 H802 0.984 . S
N799 H803 0.985 . S
H800 N795 0.984 . S
H801 N795 0.985 . S
H802 N799 0.984 . S
H803 N799 0.985 . S
H804 N798 0.984 . S
H805 N798 0.984 . S
H806 N794 0.984 . S
H807 N794 0.985 . S
C808 C809 1.363 . S
C808 C814 1.379 . S
C808 N816 1.356 . S
C809 C808 1.363 . S
C809 C815 1.363 1_655 S
C810 C811 1.363 1_455 S
C810 C815 1.379 . S
C810 N817 1.356 . S
C811 C810 1.363 1_655 S
C811 C814 1.363 . S
N812 C814 1.356 . S
N812 H824 0.984 . S
N812 H825 0.985 . S
N813 C815 1.356 . S
N813 H818 0.984 . S
N813 H819 0.985 . S
C814 C808 1.379 . S
C814 C811 1.363 . S
C814 N812 1.356 . S
C815 C809 1.363 1_455 S
C815 C810 1.379 . S
C815 N813 1.356 . S
N816 C808 1.356 . S
N816 H822 0.984 . S
N816 H823 0.984 . S
N817 C810 1.356 . S
N817 H820 0.984 . S
N817 H821 0.985 . S
H818 N813 0.984 . S
H819 N813 0.985 . S
H820 N817 0.984 . S
H821 N817 0.985 . S
H822 N816 0.984 . S
H823 N816 0.984 . S
H824 N812 0.984 . S
H825 N812 0.985 . S
C826 C827 1.363 . S
C826 C832 1.379 . S
C826 N834 1.356 . S
C827 C826 1.363 . S
C827 C833 1.363 1_565 S
C828 C829 1.363 1_545 S
C828 C833 1.379 . S
C828 N835 1.356 . S
C829 C828 1.363 1_565 S
C829 C832 1.363 . S
N830 C832 1.356 . S
N830 H842 0.984 . S
N830 H843 0.985 . S
N831 C833 1.356 . S
N831 H836 0.984 . S
N831 H837 0.985 . S
C832 C826 1.379 . S
C832 C829 1.363 . S
C832 N830 1.356 . S
C833 C827 1.363 1_545 S
C833 C828 1.379 . S
C833 N831 1.356 . S
N834 C826 1.356 . S
N834 H840 0.984 . S
N834 H841 0.984 . S
N835 C828 1.356 . S
N835 H838 0.984 . S
N835 H839 0.985 . S
H836 N831 0.984 . S
H837 N831 0.985 . S
H838 N835 0.984 . S
H839 N835 0.985 . S
H840 N834 0.984 . S
H841 N834 0.984 . S
H842 N830 0.984 . S
H843 N830 0.985 . S
C844 C845 1.363 . S
C844 C850 1.379 . S
C844 N852 1.356 . S
C845 C844 1.363 . S
C845 C851 1.363 . S
C846 C847 1.363 . S
C846 C851 1.379 . S
C846 N853 1.356 . S
C847 C846 1.363 . S
C847 C850 1.363 . S
N848 C850 1.356 . S
N848 H860 0.984 . S
N848 H861 0.985 . S
N849 C851 1.356 . S
N849 H854 0.984 . S
N849 H855 0.985 . S
C850 C844 1.379 . S
C850 C847 1.363 . S
C850 N848 1.356 . S
C851 C845 1.363 . S
C851 C846 1.379 . S
C851 N849 1.356 . S
N852 C844 1.356 . S
N852 H858 0.984 . S
N852 H859 0.984 . S
N853 C846 1.356 . S
N853 H856 0.984 . S
N853 H857 0.985 . S
H854 N849 0.984 . S
H855 N849 0.985 . S
H856 N853 0.984 . S
H857 N853 0.985 . S
H858 N852 0.984 . S
H859 N852 0.984 . S
H860 N848 0.984 . S
H861 N848 0.985 . S
C862 C863 1.363 . S
C862 C868 1.379 . S
C862 N870 1.356 . S
C863 C862 1.363 . S
C863 C869 1.363 . S
C864 C865 1.363 . S
C864 C869 1.379 . S
C864 N871 1.356 . S
C865 C864 1.363 . S
C865 C868 1.363 . S
N866 C868 1.356 . S
N866 H878 0.984 . S
N866 H879 0.985 . S
N867 C869 1.356 . S
N867 H872 0.984 . S
N867 H873 0.985 . S
C868 C862 1.379 . S
C868 C865 1.363 . S
C868 N866 1.356 . S
C869 C863 1.363 . S
C869 C864 1.379 . S
C869 N867 1.356 . S
N870 C862 1.356 . S
N870 H876 0.984 . S
N870 H877 0.984 . S
N871 C864 1.356 . S
N871 H874 0.984 . S
N871 H875 0.985 . S
H872 N867 0.984 . S
H873 N867 0.985 . S
H874 N871 0.984 . S
H875 N871 0.985 . S
H876 N870 0.984 . S
H877 N870 0.984 . S
H878 N866 0.984 . S
H879 N866 0.985 . S
C449 C241 2.457 . S
C451 C290 2.836 1_545 S
C469 C330 2.877 . S
C467 C277 2.587 . S
C487 C370 2.861 . S
C485 C169 2.480 . S
C505 C410 2.850 1_455 S
C503 C205 2.473 . S
C523 C303 2.837 . S
C521 C97 2.458 . S
C539 C133 2.575 . S
C541 C343 2.878 . S
C557 C25 2.496 . S
C559 C383 2.861 . S
C575 C61 2.473 1_655 S
C577 C423 2.850 1_655 S
C595 C314 0.745 . S
C593 C211 0.743 . S
C613 C354 0.741 . S
C611 C247 0.741 . S
C631 C394 0.694 . S
C629 C253 0.699 . S
C647 C175 0.701 . S
C649 C434 0.701 . S
C665 C67 0.746 1_655 S
C667 C297 0.749 . S
C685 C337 0.741 . S
C683 C103 0.741 1_565 S
C703 C377 0.694 . S
C701 C109 0.688 . S
C719 C31 0.713 . S
C721 C417 0.709 . S
C737 C181 3.221 . S
C739 C291 3.688 . S
C755 C217 3.174 . S
C757 C331 3.649 . S
C775 C371 3.650 . S
C773 C283 3.107 . S
C793 C411 3.676 . S
C791 C145 3.193 . S
C809 C37 3.232 1_655 S
C811 C310 3.696 . S
C829 C350 3.649 . S
C827 C73 3.185 1_565 S
C847 C390 3.650 . S
C845 C139 3.080 . S
C863 C1 3.217 . S
C865 C430 3.680 . S
