# Generated by pormake.
# Topology ctn, (3,4)-cn, num edge types: 1
# Building blocks:
#     Node 0, Type 0, BuildingBlock: CUQRIR_clean_linker_1, # of connection points: 3
#     Node 1, Type 0, BuildingBlock: CUQRIR_clean_linker_1, # of connection points: 3
#     Node 2, Type 0, BuildingBlock: CUQRIR_clean_linker_1, # of connection points: 3
#     Node 3, Type 0, BuildingBlock: CUQRIR_clean_linker_1, # of connection points: 3
#     Node 4, Type 0, BuildingBlock: CUQRIR_clean_linker_1, # of connection points: 3
#     Node 5, Type 0, BuildingBlock: CUQRIR_clean_linker_1, # of connection points: 3
#     Node 6, Type 0, BuildingBlock: CUQRIR_clean_linker_1, # of connection points: 3
#     Node 7, Type 0, BuildingBlock: CUQRIR_clean_linker_1, # of connection points: 3
#     Node 8, Type 0, BuildingBlock: CUQRIR_clean_linker_1, # of connection points: 3
#     Node 9, Type 0, BuildingBlock: CUQRIR_clean_linker_1, # of connection points: 3
#     Node 10, Type 0, BuildingBlock: CUQRIR_clean_linker_1, # of connection points: 3
#     Node 11, Type 0, BuildingBlock: CUQRIR_clean_linker_1, # of connection points: 3
#     Node 12, Type 0, BuildingBlock: CUQRIR_clean_linker_1, # of connection points: 3
#     Node 13, Type 0, BuildingBlock: CUQRIR_clean_linker_1, # of connection points: 3
#     Node 14, Type 0, BuildingBlock: CUQRIR_clean_linker_1, # of connection points: 3
#     Node 15, Type 0, BuildingBlock: CUQRIR_clean_linker_1, # of connection points: 3
#     Node 16, Type 1, BuildingBlock: AZAVOO_clean_sbu_0, # of connection points: 4
#     Node 17, Type 1, BuildingBlock: AZAVOO_clean_sbu_0, # of connection points: 4
#     Node 18, Type 1, BuildingBlock: AZAVOO_clean_sbu_0, # of connection points: 4
#     Node 19, Type 1, BuildingBlock: AZAVOO_clean_sbu_0, # of connection points: 4
#     Node 20, Type 1, BuildingBlock: AZAVOO_clean_sbu_0, # of connection points: 4
#     Node 21, Type 1, BuildingBlock: AZAVOO_clean_sbu_0, # of connection points: 4
#     Node 22, Type 1, BuildingBlock: AZAVOO_clean_sbu_0, # of connection points: 4
#     Node 23, Type 1, BuildingBlock: AZAVOO_clean_sbu_0, # of connection points: 4
#     Node 24, Type 1, BuildingBlock: AZAVOO_clean_sbu_0, # of connection points: 4
#     Node 25, Type 1, BuildingBlock: AZAVOO_clean_sbu_0, # of connection points: 4
#     Node 26, Type 1, BuildingBlock: AZAVOO_clean_sbu_0, # of connection points: 4
#     Node 27, Type 1, BuildingBlock: AZAVOO_clean_sbu_0, # of connection points: 4
#     Edge 28, Type (0, 1), BuildingBlock: AJUNOK_clean_linker_0, # of connection points: 2
#     Edge 29, Type (0, 1), BuildingBlock: AJUNOK_clean_linker_0, # of connection points: 2
#     Edge 30, Type (0, 1), BuildingBlock: AJUNOK_clean_linker_0, # of connection points: 2
#     Edge 31, Type (0, 1), BuildingBlock: AJUNOK_clean_linker_0, # of connection points: 2
#     Edge 32, Type (0, 1), BuildingBlock: AJUNOK_clean_linker_0, # of connection points: 2
#     Edge 33, Type (0, 1), BuildingBlock: AJUNOK_clean_linker_0, # of connection points: 2
#     Edge 34, Type (0, 1), BuildingBlock: AJUNOK_clean_linker_0, # of connection points: 2
#     Edge 35, Type (0, 1), BuildingBlock: AJUNOK_clean_linker_0, # of connection points: 2
#     Edge 36, Type (0, 1), BuildingBlock: AJUNOK_clean_linker_0, # of connection points: 2
#     Edge 37, Type (0, 1), BuildingBlock: AJUNOK_clean_linker_0, # of connection points: 2
#     Edge 38, Type (0, 1), BuildingBlock: AJUNOK_clean_linker_0, # of connection points: 2
#     Edge 39, Type (0, 1), BuildingBlock: AJUNOK_clean_linker_0, # of connection points: 2
#     Edge 40, Type (0, 1), BuildingBlock: AJUNOK_clean_linker_0, # of connection points: 2
#     Edge 41, Type (0, 1), BuildingBlock: AJUNOK_clean_linker_0, # of connection points: 2
#     Edge 42, Type (0, 1), BuildingBlock: AJUNOK_clean_linker_0, # of connection points: 2
#     Edge 43, Type (0, 1), BuildingBlock: AJUNOK_clean_linker_0, # of connection points: 2
#     Edge 44, Type (0, 1), BuildingBlock: AJUNOK_clean_linker_0, # of connection points: 2
#     Edge 45, Type (0, 1), BuildingBlock: AJUNOK_clean_linker_0, # of connection points: 2
#     Edge 46, Type (0, 1), BuildingBlock: AJUNOK_clean_linker_0, # of connection points: 2
#     Edge 47, Type (0, 1), BuildingBlock: AJUNOK_clean_linker_0, # of connection points: 2
#     Edge 48, Type (0, 1), BuildingBlock: AJUNOK_clean_linker_0, # of connection points: 2
#     Edge 49, Type (0, 1), BuildingBlock: AJUNOK_clean_linker_0, # of connection points: 2
#     Edge 50, Type (0, 1), BuildingBlock: AJUNOK_clean_linker_0, # of connection points: 2
#     Edge 51, Type (0, 1), BuildingBlock: AJUNOK_clean_linker_0, # of connection points: 2
#     Edge 52, Type (0, 1), BuildingBlock: AJUNOK_clean_linker_0, # of connection points: 2
#     Edge 53, Type (0, 1), BuildingBlock: AJUNOK_clean_linker_0, # of connection points: 2
#     Edge 54, Type (0, 1), BuildingBlock: AJUNOK_clean_linker_0, # of connection points: 2
#     Edge 55, Type (0, 1), BuildingBlock: AJUNOK_clean_linker_0, # of connection points: 2
#     Edge 56, Type (0, 1), BuildingBlock: AJUNOK_clean_linker_0, # of connection points: 2
#     Edge 57, Type (0, 1), BuildingBlock: AJUNOK_clean_linker_0, # of connection points: 2
#     Edge 58, Type (0, 1), BuildingBlock: AJUNOK_clean_linker_0, # of connection points: 2
#     Edge 59, Type (0, 1), BuildingBlock: AJUNOK_clean_linker_0, # of connection points: 2
#     Edge 60, Type (0, 1), BuildingBlock: AJUNOK_clean_linker_0, # of connection points: 2
#     Edge 61, Type (0, 1), BuildingBlock: AJUNOK_clean_linker_0, # of connection points: 2
#     Edge 62, Type (0, 1), BuildingBlock: AJUNOK_clean_linker_0, # of connection points: 2
#     Edge 63, Type (0, 1), BuildingBlock: AJUNOK_clean_linker_0, # of connection points: 2
#     Edge 64, Type (0, 1), BuildingBlock: AJUNOK_clean_linker_0, # of connection points: 2
#     Edge 65, Type (0, 1), BuildingBlock: AJUNOK_clean_linker_0, # of connection points: 2
#     Edge 66, Type (0, 1), BuildingBlock: AJUNOK_clean_linker_0, # of connection points: 2
#     Edge 67, Type (0, 1), BuildingBlock: AJUNOK_clean_linker_0, # of connection points: 2
#     Edge 68, Type (0, 1), BuildingBlock: AJUNOK_clean_linker_0, # of connection points: 2
#     Edge 69, Type (0, 1), BuildingBlock: AJUNOK_clean_linker_0, # of connection points: 2
#     Edge 70, Type (0, 1), BuildingBlock: AJUNOK_clean_linker_0, # of connection points: 2
#     Edge 71, Type (0, 1), BuildingBlock: AJUNOK_clean_linker_0, # of connection points: 2
#     Edge 72, Type (0, 1), BuildingBlock: AJUNOK_clean_linker_0, # of connection points: 2
#     Edge 73, Type (0, 1), BuildingBlock: AJUNOK_clean_linker_0, # of connection points: 2
#     Edge 74, Type (0, 1), BuildingBlock: AJUNOK_clean_linker_0, # of connection points: 2
#     Edge 75, Type (0, 1), BuildingBlock: AJUNOK_clean_linker_0, # of connection points: 2
# Relax obj value: 0.084
# Max RMSD: 0.207
# Mean RMSD: 0.131
data_MOF--net-ctn--node1-AZAVOO_clean_sbu_0--node2-CUQRIR_clean_linker_1--edge1-AJUNOK_clean_linker_0
_symmetry_space_group_name_H-M    P1
_symmetry_Int_Tables_number       1
_symmetry_cell_setting            triclinic
loop_
_symmetry_equiv_pos_as_xyz
'x, y, z'
_cell_length_a     36.206115
_cell_length_b     34.145968
_cell_length_c     35.16616
_cell_angle_alpha  97.309276
_cell_angle_beta   92.092252
_cell_angle_gamma 96.474569
loop_
_atom_site_label
_atom_site_type_symbol
_atom_site_fract_x
_atom_site_fract_y
_atom_site_fract_z
_atom_type_partial_charge
C0 C 0.0267 0.97442 0.05036 0.0
N1 N 0.04757 0.99138 0.02426 0.0
N2 N 0.99465 0.99108 0.05535 0.0
C3 C 0.0396 0.94461 0.07438 0.0
C4 C 0.99635 0.01822 0.0304 0.0
N5 N 0.02855 0.01888 0.01181 0.0
C6 C 0.96978 0.04921 0.02957 0.0
H7 H 0.016 0.92997 0.08868 0.0
H8 H 0.06071 0.95995 0.0966 0.0
H9 H 0.05294 0.92176 0.05621 0.0
H10 H 0.97615 0.07206 0.05506 0.0
H11 H 0.94068 0.0357 0.03078 0.0
H12 H 0.97191 0.06398 1.00329 0.0
C13 C 0.27927 0.76052 0.2546 0.0
N14 N 0.29275 0.74056 0.28189 0.0
N15 N 0.30647 0.78568 0.24246 0.0
C16 C 0.24051 0.75126 0.23591 0.0
C17 C 0.33735 0.77995 0.26307 0.0
N18 N 0.32916 0.75235 0.28723 0.0
C19 C 0.37534 0.80113 0.25892 0.0
H20 H 0.23628 0.71982 0.22227 0.0
H21 H 0.23533 0.77083 0.21393 0.0
H22 H 0.21962 0.75487 0.25795 0.0
H23 H 0.3914 0.80701 0.28694 0.0
H24 H 0.3732 0.82961 0.24738 0.0
H25 H 0.39056 0.78217 0.23847 0.0
C26 C 0.99627 0.51087 0.09591 0.0
N27 N 0.01603 0.47949 0.09672 0.0
N28 N 0.97282 0.5055 0.06432 0.0
C29 C 1.00026 0.54694 0.12586 0.0
C30 C 0.97921 0.47005 0.04563 0.0
N31 N 1.00579 0.4544 0.06493 0.0
C32 C 0.95987 0.45068 0.00819 0.0
H33 H 0.98809 0.53866 0.15263 0.0
H34 H 0.98585 0.57136 0.11662 0.0
H35 H 0.03017 0.55762 0.13259 0.0
H36 H 0.98044 0.44928 0.98558 0.0
H37 H 0.93716 0.46713 0.99897 0.0
H38 H 0.94839 0.41969 0.01092 0.0
C39 C 0.69232 0.7788 0.22464 0.0
N40 N 0.72247 0.79543 0.20836 0.0
N41 N 0.68306 0.80353 0.255 0.0
C42 C 0.67387 0.73703 0.21316 0.0
C43 C 0.70878 0.83576 0.25682 0.0
N44 N 0.73247 0.83113 0.22812 0.0
C45 C 0.71322 0.86988 0.28893 0.0
H46 H 0.67753 0.72682 0.18244 0.0
H47 H 0.64375 0.73509 0.21851 0.0
H48 H 0.68665 0.71691 0.23083 0.0
H49 H 0.74222 0.87419 0.30143 0.0
H50 H 0.69358 0.86511 0.31182 0.0
H51 H 0.70804 0.89759 0.27736 0.0
C52 C 0.02583 0.99503 0.50079 0.0
N53 N 0.05794 1.00016 0.52316 0.0
N54 N 0.02722 0.02043 0.47417 0.0
C55 C 0.99515 0.96134 0.50125 0.0
C56 C 0.06158 0.04077 0.4805 0.0
N57 N 0.0806 0.02835 0.50974 0.0
C58 C 0.07761 0.07077 0.45586 0.0
H59 H 0.9746 0.95912 0.47668 0.0
H60 H 0.98026 0.96614 0.52814 0.0
H61 H 1.00713 0.93275 0.50064 0.0
H62 H 0.05524 0.08255 0.43987 0.0
H63 H 0.09564 0.05624 0.43489 0.0
H64 H 0.09497 0.09577 0.4737 0.0
C65 C 0.17636 0.7318 0.79088 0.0
N66 N 0.20535 0.7198 0.80995 0.0
N67 N 0.17095 0.71152 0.75517 0.0
C68 C 0.15403 0.76434 0.80654 0.0
C69 C 0.19743 0.68639 0.75322 0.0
N70 N 0.21816 0.69106 0.78672 0.0
C71 C 0.20451 0.65893 0.71798 0.0
H72 H 0.15347 0.76678 0.83827 0.0
H73 H 0.12501 0.75902 0.79433 0.0
H74 H 0.16686 0.79304 0.79858 0.0
H75 H 0.23371 0.66577 0.71007 0.0
H76 H 0.18526 0.66136 0.69337 0.0
H77 H 0.20093 0.62778 0.72434 0.0
C78 C 0.95043 0.50305 0.45672 0.0
N79 N 0.97489 0.53659 0.4594 0.0
N80 N 0.92367 0.5075 0.48228 0.0
C81 C 0.954 0.46494 0.43112 0.0
C82 C 0.93298 0.54441 0.50115 0.0
N83 N 0.96435 0.562 0.48769 0.0
C84 C 0.91245 0.56227 0.53428 0.0
H85 H 0.93944 0.46561 0.40295 0.0
H86 H 0.94093 0.43869 0.44332 0.0
H87 H 0.98364 0.46148 0.42631 0.0
H88 H 0.92359 0.55322 0.56123 0.0
H89 H 0.88234 0.55128 0.53083 0.0
H90 H 0.91603 0.59522 0.53686 0.0
C91 C 0.77914 0.78182 0.81371 0.0
N92 N 0.81057 0.76338 0.81215 0.0
N93 N 0.78275 0.81406 0.79502 0.0
C94 C 0.74534 0.76913 0.83495 0.0
C95 C 0.81767 0.8154 0.78263 0.0
N96 N 0.83492 0.78485 0.79301 0.0
C97 C 0.83516 0.84668 0.76009 0.0
H98 H 0.72301 0.78843 0.83227 0.0
H99 H 0.75338 0.76965 0.86578 0.0
H100 H 0.73404 0.7382 0.82337 0.0
H101 H 0.82271 0.87489 0.76638 0.0
H102 H 0.83048 0.83595 0.72898 0.0
H103 H 0.86563 0.8524 0.76675 0.0
C104 C 0.2836 0.29635 0.32193 0.0
N105 N 0.31176 0.27341 0.31622 0.0
N106 N 0.28631 0.32559 0.29936 0.0
C107 C 0.25538 0.29245 0.35212 0.0
C108 C 0.31748 0.3204 0.28025 0.0
N109 N 0.33365 0.28926 0.29097 0.0
C110 C 0.33071 0.34442 0.24918 0.0
H111 H 0.23238 0.26918 0.34075 0.0
H112 H 0.24351 0.32075 0.36004 0.0
H113 H 0.26809 0.28341 0.37834 0.0
H114 H 0.35215 0.36887 0.26178 0.0
H115 H 0.30743 0.35768 0.2363 0.0
H116 H 0.3433 0.32574 0.22616 0.0
C117 C 0.49834 0.00882 0.59002 0.0
N118 N 0.5174 0.97693 0.59102 0.0
N119 N 0.47545 1.0041 0.55806 0.0
C120 C 0.50183 0.04441 0.62053 0.0
C121 C 0.48161 0.9686 0.53925 0.0
N122 N 0.50747 0.95222 0.5589 0.0
C123 C 0.46183 0.94927 0.50203 0.0
H124 H 0.48497 0.03694 0.64489 0.0
H125 H 0.49161 0.07055 0.60978 0.0
H126 H 0.53121 0.0523 0.63148 0.0
H127 H 0.44197 0.96803 0.49088 0.0
H128 H 0.44669 0.92018 0.50632 0.0
H129 H 0.48255 0.94344 0.48018 0.0
C130 C 0.19518 0.27845 0.72179 0.0
N131 N 0.22507 0.29645 0.70625 0.0
N132 N 0.1856 0.30153 0.75315 0.0
C133 C 0.1766 0.23722 0.70779 0.0
C134 C 0.21083 0.33431 0.75624 0.0
N135 N 0.23462 0.33149 0.72742 0.0
C136 C 0.21492 0.36674 0.78995 0.0
H137 H 0.14721 0.23388 0.71601 0.0
H138 H 0.19143 0.21526 0.72108 0.0
H139 H 0.17769 0.23062 0.67615 0.0
H140 H 0.20225 0.35635 0.81567 0.0
H141 H 0.20052 0.39189 0.78234 0.0
H142 H 0.24467 0.37788 0.79708 0.0
C143 C 0.78288 0.25162 0.75422 0.0
N144 N 0.79786 0.23167 0.78065 0.0
N145 N 0.80864 0.27884 0.74276 0.0
C146 C 0.74404 0.24105 0.73603 0.0
C147 C 0.84016 0.27462 0.76309 0.0
N148 N 0.83379 0.24562 0.78613 0.0
C149 C 0.87683 0.29906 0.76003 0.0
H150 H 0.7411 0.21013 0.72105 0.0
H151 H 0.73734 0.26142 0.71529 0.0
H152 H 0.72344 0.24234 0.75858 0.0
H153 H 0.87228 0.32916 0.75349 0.0
H154 H 0.89167 0.28469 0.736 0.0
H155 H 0.89444 0.30171 0.78692 0.0
C156 C 0.5254 0.47459 0.5515 0.0
N157 N 0.54303 0.48787 0.52146 0.0
N158 N 0.49557 0.49414 0.55972 0.0
C159 C 0.53823 0.44342 0.57387 0.0
C160 C 0.4951 0.51917 0.53291 0.0
N161 N 0.52388 0.51555 0.50955 0.0
C162 C 0.47012 0.55178 0.53379 0.0
H163 H 0.54571 0.41804 0.55385 0.0
H164 H 0.51634 0.43261 0.59258 0.0
H165 H 0.56358 0.45609 0.59191 0.0
H166 H 0.47988 0.57536 0.5579 0.0
H167 H 0.44116 0.54006 0.53878 0.0
H168 H 0.46999 0.56518 0.50671 0.0
C169 C 0.52039 0.49482 0.0082 0.0
N170 N 0.55381 0.49922 0.02832 0.0
N171 N 0.52178 0.51656 0.97854 0.0
C172 C 0.48745 0.46564 0.0147 0.0
C173 C 0.5573 0.53412 0.98086 0.0
N174 N 0.57699 0.52326 0.0105 0.0
C175 C 0.57371 0.5596 0.95231 0.0
H176 H 0.49596 0.43529 0.01344 0.0
H177 H 0.46408 0.46528 0.99335 0.0
H178 H 0.47715 0.47381 0.04358 0.0
H179 H 0.55189 0.57086 0.93518 0.0
H180 H 0.59036 0.54161 0.9325 0.0
H181 H 0.59264 0.5852 0.96724 0.0
C182 C 0.68612 0.23862 0.2893 0.0
N183 N 0.71293 0.22503 0.3102 0.0
N184 N 0.6828 0.21936 0.25313 0.0
C185 C 0.66573 0.27353 0.30282 0.0
C186 C 0.70881 0.19377 0.2525 0.0
N187 N 0.72724 0.19719 0.28719 0.0
C188 C 0.71651 0.16555 0.21809 0.0
H189 H 0.63812 0.26244 0.3125 0.0
H190 H 0.66102 0.2911 0.27899 0.0
H191 H 0.68138 0.29328 0.32697 0.0
H192 H 0.69284 0.1606 0.19642 0.0
H193 H 0.72212 0.13665 0.22696 0.0
H194 H 0.74179 0.17815 0.20489 0.0
C195 C 0.4547 1.00003 0.95098 0.0
N196 N 0.48056 0.03249 0.95541 0.0
N197 N 0.42733 1.0049 0.97578 0.0
C198 C 0.45734 0.96268 0.92395 0.0
C199 C 0.43762 0.04112 0.99587 0.0
N200 N 0.4701 0.05783 0.98383 0.0
C201 C 0.41709 0.05902 0.02904 0.0
H202 H 0.45082 0.96818 0.89417 0.0
H203 H 0.43753 0.93747 0.93037 0.0
H204 H 0.48613 0.95451 0.92533 0.0
H205 H 0.42751 0.04907 0.05584 0.0
H206 H 0.38682 0.04914 0.02527 0.0
H207 H 0.42163 0.09198 0.03228 0.0
Mg208 Mg 0.2305 0.85367 0.03853 0.0
O209 O 0.28382 0.89213 0.02528 0.0
O210 O 0.32924 0.85272 0.02532 0.0
Mg211 Mg 0.30768 0.7918 0.04093 0.0
C212 C 0.31771 0.88594 0.02089 0.0
C213 C 0.18815 0.93178 0.03612 0.0
O214 O 0.21114 0.94503 0.0659 0.0
O215 O 0.23029 0.81964 0.97791 0.0
O216 O 0.27379 0.7785 0.98356 0.0
O217 O 0.24164 0.86971 0.10313 0.0
O218 O 0.26224 0.81914 0.06911 0.0
C219 C 0.24811 0.79115 0.96429 0.0
C220 C 0.26061 0.83965 0.10207 0.0
O221 O 0.19094 0.8974 0.01824 0.0
Mg222 Mg 0.16083 0.5331 0.3081 0.0
O223 O 0.12748 0.51828 0.24925 0.0
O224 O 0.16852 0.51627 0.20362 0.0
Mg225 Mg 0.22715 0.53669 0.23186 0.0
C226 C 0.13503 0.51158 0.21392 0.0
C227 C 0.10802 0.53734 0.37396 0.0
O228 O 0.13881 0.55868 0.38891 0.0
O229 O 0.17952 0.47028 0.30159 0.0
O230 O 0.22491 0.48033 0.26076 0.0
O231 O 0.16357 0.59935 0.31049 0.0
O232 O 0.20592 0.56437 0.2851 0.0
C233 C 0.20736 0.4592 0.28332 0.0
C234 C 0.19545 0.59871 0.29515 0.0
O235 O 0.10804 0.51872 0.34015 0.0
Mg236 Mg 0.80468 0.658 0.02618 0.0
O237 O 0.74703 0.61792 0.02139 0.0
O238 O 0.70515 0.66056 0.01638 0.0
Mg239 Mg 0.73405 0.72395 0.01459 0.0
C240 C 0.71322 0.62557 0.01938 0.0
C241 C 0.87204 0.61438 0.02377 0.0
O242 O 0.88446 0.65235 0.02645 0.0
O243 O 0.80592 0.66464 0.96164 0.0
O244 O 0.76627 0.71002 0.95922 0.0
O245 O 0.80045 0.67038 0.08949 0.0
O246 O 0.78068 0.70876 0.04931 0.0
C247 C 0.79005 0.68889 0.94358 0.0
C248 C 0.7844 0.70133 0.08417 0.0
O249 O 0.83705 0.60433 0.02027 0.0
Mg250 Mg 0.89814 0.04014 0.26265 0.0
O251 O 0.8604 0.98051 0.25125 0.0
O252 O 0.89586 0.93215 0.23482 0.0
Mg253 Mg 0.95642 0.96027 0.23535 0.0
C254 C 0.86411 0.94397 0.24074 0.0
C255 C 0.85452 0.11017 0.2853 0.0
O256 O 0.88622 0.1253 0.27313 0.0
O257 O 0.92118 0.02659 0.32152 0.0
O258 O 0.95797 0.98149 0.29949 0.0
O259 O 0.89338 0.04484 0.19917 0.0
O260 O 0.93738 0.0171 0.22713 0.0
C261 C 0.94591 1.00354 0.32722 0.0
C262 C 0.92242 0.02598 0.19631 0.0
O263 O 0.85 0.07293 0.28726 0.0
Mg264 Mg 0.30872 0.16134 0.52416 0.0
O265 O 0.25083 0.1218 0.52041 0.0
O266 O 0.20864 0.16438 0.51696 0.0
Mg267 Mg 0.23772 0.22727 0.51372 0.0
C268 C 0.21698 0.12944 0.51959 0.0
C269 C 0.37504 0.11496 0.52121 0.0
O270 O 0.3892 0.15243 0.5238 0.0
O271 O 0.309 0.16806 0.45971 0.0
O272 O 0.26761 0.21167 0.4571 0.0
O273 O 0.30528 0.17384 0.58743 0.0
O274 O 0.28529 0.21237 0.54741 0.0
C275 C 0.29166 0.19098 0.44135 0.0
C276 C 0.28924 0.20485 0.58223 0.0
O277 O 0.33985 0.10672 0.51765 0.0
Mg278 Mg 0.39769 0.54275 0.76662 0.0
O279 O 0.36099 0.48276 0.75265 0.0
O280 O 0.39724 0.43482 0.73806 0.0
Mg281 Mg 0.45776 0.46387 0.74351 0.0
C282 C 0.36513 0.44635 0.74217 0.0
C283 C 0.35006 0.61092 0.7904 0.0
O284 O 0.38221 0.63 0.78361 0.0
O285 O 0.41633 0.52824 0.82631 0.0
O286 O 0.4539 0.4824 0.80793 0.0
O287 O 0.39652 0.54833 0.70364 0.0
O288 O 0.43945 0.52086 0.73376 0.0
C289 C 0.43925 0.50406 0.8342 0.0
C290 C 0.42593 0.52999 0.70228 0.0
O291 O 0.34724 0.57314 0.78797 0.0
Mg292 Mg 0.72905 0.35397 0.54356 0.0
O293 O 0.78329 0.39177 0.53118 0.0
O294 O 0.82896 0.35278 0.5318 0.0
Mg295 Mg 0.80584 0.29092 0.5426 0.0
C296 C 0.81747 0.38613 0.52819 0.0
C297 C 0.66642 0.39882 0.50244 0.0
O298 O 0.66073 0.36517 0.47919 0.0
O299 O 0.72665 0.32128 0.48192 0.0
O300 O 0.77335 0.28348 0.48465 0.0
O301 O 0.74169 0.36747 0.60783 0.0
O302 O 0.75993 0.31655 0.57194 0.0
C303 C 0.74652 0.29542 0.46649 0.0
C304 C 0.75959 0.33657 0.60539 0.0
O305 O 0.69244 0.40299 0.52867 0.0
Mg306 Mg 0.66459 0.02371 0.80224 0.0
O307 O 0.63006 0.01113 0.74363 0.0
O308 O 0.67008 1.00766 0.69711 0.0
Mg309 Mg 0.72923 0.02172 0.72458 0.0
C310 C 0.6368 1.00479 0.70803 0.0
C311 C 0.6134 0.03027 0.86937 0.0
O312 O 0.64527 0.04988 0.8835 0.0
O313 O 0.67878 0.95937 0.79528 0.0
O314 O 0.72071 0.96311 0.75002 0.0
O315 O 0.671 0.08971 0.80468 0.0
O316 O 0.71157 0.05221 0.77902 0.0
C317 C 0.7025 0.94396 0.77365 0.0
C318 C 0.70271 0.08735 0.78923 0.0
O319 O 0.61159 0.01255 0.83506 0.0
Mg320 Mg 0.03676 0.22978 0.92531 0.0
O321 O 0.97954 0.22376 0.89205 0.0
O322 O 0.93604 0.21107 0.93329 0.0
Mg323 Mg 0.96671 0.20125 0.99 0.0
C324 C 0.94533 0.21792 0.89984 0.0
C325 C 0.09657 0.2497 0.87385 0.0
O326 O 0.10874 0.22612 0.897 0.0
O327 O 0.02716 0.28881 0.96069 0.0
O328 O 0.98879 0.2682 1.00428 0.0
O329 O 0.04347 0.16533 0.90892 0.0
O330 O 0.01944 0.18954 0.96249 0.0
C331 C 0.00968 0.29578 0.99134 0.0
C332 C 0.03051 0.15953 0.9418 0.0
O333 O 0.06414 0.25985 0.87807 0.0
Mg334 Mg 0.53054 0.72483 0.42216 0.0
O335 O 0.47269 0.72132 0.39053 0.0
O336 O 0.43029 0.70875 0.43285 0.0
Mg337 Mg 0.46186 0.69641 0.48804 0.0
C338 C 0.43875 0.71658 0.39946 0.0
C339 C 0.59167 0.754 0.37472 0.0
O340 O 0.6074 0.73715 0.40169 0.0
O341 O 0.5228 0.78375 0.45914 0.0
O342 O 0.48496 0.76303 0.5031 0.0
O343 O 0.53546 0.66027 0.40386 0.0
O344 O 0.51369 0.68375 0.45898 0.0
C345 C 0.5059 0.79059 0.49022 0.0
C346 C 0.5233 0.65381 0.43691 0.0
O347 O 0.55684 0.7557 0.37492 0.0
Mg348 Mg 0.99244 0.7816 0.6133 0.0
O349 O 0.04359 0.76543 0.64596 0.0
O350 O 0.08627 0.75341 0.60281 0.0
Mg351 Mg 0.06379 0.76156 0.54325 0.0
C352 C 0.07558 0.7557 0.63712 0.0
C353 C 0.96156 0.77852 0.70015 0.0
O354 O 0.96066 0.79898 0.67118 0.0
O355 O 0.02246 0.8456 0.6076 0.0
O356 O 0.06182 0.82787 0.5629 0.0
O357 O 0.97224 0.71691 0.60099 0.0
O358 O 1.00736 0.74852 0.56195 0.0
C359 C 0.04809 0.85477 0.58471 0.0
C360 C 0.991 0.71559 0.57039 0.0
O361 O 0.96126 0.79802 0.67121 0.0
Mg362 Mg 0.49567 0.27482 0.11383 0.0
O363 O 0.54937 0.26219 0.14441 0.0
O364 O 0.59145 0.25244 0.10022 0.0
Mg365 Mg 0.56658 0.26001 0.04144 0.0
C366 C 0.58172 0.25427 0.13485 0.0
C367 C 0.44311 0.26022 0.18147 0.0
O368 O 0.4369 0.22735 0.15729 0.0
O369 O 0.52213 0.3403 0.10811 0.0
O370 O 0.56159 0.32538 0.06251 0.0
O371 O 0.47971 0.20925 0.10063 0.0
O372 O 0.51108 0.24349 0.06102 0.0
C373 C 0.54688 0.35108 0.08488 0.0
C374 C 0.49726 0.20955 0.06946 0.0
O375 O 0.46705 0.28809 0.17302 0.0
C376 C 0.2293 0.77787 0.85676 0.0
C377 C 0.22027 0.73645 0.84781 0.0
C378 C 0.23801 0.7955 0.89466 0.0
C379 C 0.23924 0.7721 0.9246 0.0
H380 H 0.22853 0.79678 0.83434 0.0
H381 H 0.24394 0.82757 0.90057 0.0
S382 S 0.22017 0.66228 0.91588 0.0
N383 N 0.21378 0.67259 0.87165 0.0
N384 N 0.23261 0.70541 0.94278 0.0
C385 C 0.23219 0.73053 0.91578 0.0
C386 C 0.22225 0.71273 0.87733 0.0
C387 C 0.04333 0.5469 0.4568 0.0
C388 C 1.00792 0.54176 0.43801 0.0
C389 C 0.07558 0.54549 0.43582 0.0
C390 C 0.07344 0.53813 0.39535 0.0
H391 H 0.04596 0.55064 0.48785 0.0
H392 H 0.10235 0.54924 0.45147 0.0
S393 S 0.98705 0.52675 0.33289 0.0
N394 N 0.97254 0.53261 0.37702 0.0
N395 N 0.0328 0.52854 0.33748 0.0
C396 C 0.0381 0.53405 0.37634 0.0
C397 C 1.00546 0.53629 0.3977 0.0
C398 C 0.79584 0.69982 0.83767 0.0
C399 C 0.81876 0.73635 0.83898 0.0
C400 C 0.78864 0.68215 0.87125 0.0
C401 C 0.80501 0.69989 0.90707 0.0
H402 H 0.77995 0.68747 0.81136 0.0
H403 H 0.76806 0.65631 0.86961 0.0
S404 S 0.87165 0.79172 0.92501 0.0
N405 N 0.86081 0.78676 0.87848 0.0
N406 N 0.84869 0.75303 0.94102 0.0
C407 C 0.83113 0.73378 0.90794 0.0
C408 C 0.83801 0.75191 0.87396 0.0
C409 C 0.97304 0.03283 0.43417 0.0
C410 C 1.00565 0.01476 0.43834 0.0
C411 C 0.95298 0.02824 0.39844 0.0
C412 C 0.96488 1.00519 0.36595 0.0
H413 H 0.96346 0.05102 0.45847 0.0
H414 H 0.92841 0.04335 0.39617 0.0
S415 S 0.04891 0.95109 0.36399 0.0
N416 N 0.04872 0.97276 0.40864 0.0
N417 N 0.01186 0.9634 0.34174 0.0
C418 C 0.99734 0.98628 0.37066 0.0
C419 C 0.01751 0.99128 0.40678 0.0
C420 C 0.24266 0.28673 0.63906 0.0
C421 C 0.24604 0.27775 0.67671 0.0
C422 C 0.25718 0.26336 0.60863 0.0
C423 C 0.27531 0.23009 0.61498 0.0
H424 H 0.22746 0.31098 0.63302 0.0
H425 H 0.25347 0.27102 0.57992 0.0
S426 S 0.29296 0.19653 0.70981 0.0
N427 N 0.27003 0.23543 0.71951 0.0
N428 N 0.29738 0.19122 0.66292 0.0
C429 C 0.27985 0.22193 0.65307 0.0
C430 C 0.26519 0.24583 0.68379 0.0
C431 C 0.43946 0.49393 0.59766 0.0
C432 C 0.47842 0.49945 0.596 0.0
C433 C 0.42228 0.5041 0.63215 0.0
C434 C 0.44371 0.51917 0.66606 0.0
H435 H 0.42229 0.4825 0.57193 0.0
H436 H 0.39218 0.49995 0.63234 0.0
S437 S 0.54654 0.54043 0.67631 0.0
N438 N 0.53764 0.52272 0.63059 0.0
N439 N 0.5057 0.53949 0.69581 0.0
C440 C 0.48267 0.52407 0.66483 0.0
C441 C 0.49997 0.51475 0.62967 0.0
C442 C 0.79307 0.33461 0.70935 0.0
C443 C 0.80514 0.29685 0.70816 0.0
C444 C 0.78006 0.34814 0.67568 0.0
C445 C 0.77808 0.324 0.63978 0.0
H446 H 0.79189 0.35282 0.73674 0.0
H447 H 0.77001 0.377 0.67811 0.0
S448 S 0.80651 0.22207 0.62266 0.0
N449 N 0.81547 0.23604 0.66904 0.0
N450 N 0.78975 0.25995 0.60607 0.0
C451 C 0.79124 0.28647 0.63848 0.0
C452 C 0.80509 0.27331 0.67258 0.0
C453 C 0.58401 0.98141 0.60986 0.0
C454 C 0.54674 0.97417 0.61915 0.0
C455 C 0.61283 0.99042 0.63869 0.0
C456 C 0.60551 0.99288 0.67812 0.0
H457 H 0.59063 0.98246 0.58019 0.0
H458 H 0.64096 0.9969 0.62987 0.0
S459 S 0.51213 0.972 0.71672 0.0
N460 N 0.50395 0.96669 0.66973 0.0
N461 N 0.55759 0.98361 0.72413 0.0
C462 C 0.56825 0.98355 0.68748 0.0
C463 C 0.53907 0.97417 0.65799 0.0
C464 C 0.85295 0.23683 0.85263 0.0
C465 C 0.86004 0.23371 0.81338 0.0
C466 C 0.88015 0.23048 0.88024 0.0
C467 C 0.91568 0.22095 0.86971 0.0
H468 H 0.82667 0.24573 0.86214 0.0
H469 H 0.87369 0.23449 0.91021 0.0
S470 S 0.94562 0.20311 0.76963 0.0
N471 N 0.90312 0.21565 0.76483 0.0
N472 N 0.95453 0.20467 0.81624 0.0
C473 C 0.92223 0.21579 0.83017 0.0
C474 C 0.89437 0.22186 0.80217 0.0
C475 C 0.53492 0.9023 0.51576 0.0
C476 C 0.51607 0.91211 0.54923 0.0
C477 C 0.53251 0.86288 0.49762 0.0
C478 C 0.51084 0.83164 0.51212 0.0
H479 H 0.54946 0.92578 0.50209 0.0
H480 H 0.54646 0.85727 0.47109 0.0
S481 S 0.45889 0.84214 0.60156 0.0
N482 N 0.47735 0.88786 0.59774 0.0
N483 N 0.47278 0.81364 0.56456 0.0
C484 C 0.49377 0.84102 0.54714 0.0
C485 C 0.49648 0.88122 0.56549 0.0
C486 C 0.12943 0.30312 0.79043 0.0
C487 C 0.16338 0.28837 0.783 0.0
C488 C 0.10786 0.2905 0.81994 0.0
C489 C 0.11986 0.263 0.84304 0.0
H490 H 0.11962 0.32437 0.77323 0.0
H491 H 0.08169 0.30244 0.82469 0.0
S492 S 0.20814 0.21712 0.83477 0.0
N493 N 0.20881 0.24626 0.80074 0.0
N494 N 0.16875 0.22206 0.85613 0.0
C495 C 0.15422 0.24848 0.83575 0.0
C496 C 0.17589 0.26131 0.80572 0.0
C497 C 0.51935 0.54399 0.44912 0.0
C498 C 0.53632 0.54553 0.48607 0.0
C499 C 0.51637 0.57896 0.43229 0.0
C500 C 0.52924 0.61655 0.45254 0.0
H501 H 0.50546 0.516 0.43474 0.0
H502 H 0.50183 0.57675 0.4045 0.0
S503 S 0.58004 0.63588 0.5478 0.0
N504 N 0.56979 0.58708 0.54008 0.0
N505 N 0.56355 0.6527 0.50937 0.0
C506 C 0.54869 0.61807 0.48814 0.0
C507 C 0.55262 0.58256 0.50454 0.0
C508 C 0.9032 0.78594 0.78891 0.0
C509 C 0.86689 0.77192 0.77363 0.0
C510 C 0.93403 0.78673 0.76529 0.0
C511 C 0.92934 0.77535 0.7253 0.0
H512 H 0.90742 0.79869 0.81873 0.0
H513 H 0.96136 0.79842 0.77807 0.0
S514 S 0.84053 0.73394 0.67172 0.0
N515 N 0.82883 0.74355 0.71662 0.0
N516 N 0.88594 0.74674 0.67215 0.0
C517 C 0.89351 0.7597 0.71008 0.0
C518 C 0.8626 0.75753 0.73425 0.0
C519 C 0.04242 0.96485 0.57851 0.0
C520 C 0.0669 0.97261 0.54929 0.0
C521 C 0.03842 0.92779 0.59262 0.0
C522 C 0.0594 0.89723 0.57859 0.0
H523 H 0.02327 0.98603 0.58738 0.0
H524 H 0.01672 0.92211 0.61228 0.0
S525 S 0.13416 0.90659 0.50912 0.0
N526 N 0.11631 0.94915 0.51146 0.0
N527 N 0.11135 0.88101 0.53948 0.0
C528 C 0.08768 0.90696 0.55334 0.0
C529 C 0.09095 0.94429 0.53846 0.0
C530 C 0.10868 0.7138 0.72551 0.0
C531 C 0.14755 0.72087 0.72453 0.0
C532 C 0.08549 0.72584 0.69747 0.0
C533 C 0.10055 0.74473 0.66722 0.0
H534 H 0.09629 0.69931 0.74842 0.0
H535 H 0.05562 0.71981 0.6992 0.0
S536 S 0.20096 0.77054 0.65282 0.0
N537 N 0.20023 0.74863 0.69209 0.0
N538 N 0.15696 0.77023 0.63844 0.0
C539 C 0.13952 0.75156 0.66588 0.0
C540 C 0.16297 0.73984 0.69478 0.0
C541 C 0.97882 0.6338 0.48603 0.0
C542 C 0.98345 0.60002 0.50387 0.0
C543 C 0.98448 0.67208 0.50713 0.0
C544 C 0.99406 0.67728 0.54676 0.0
H545 H 0.96771 0.63026 0.45663 0.0
H546 H 0.9783 0.69724 0.49313 0.0
S547 S 0.01541 0.59871 0.60481 0.0
N548 N 1.00342 0.57466 0.56155 0.0
N549 N 0.0127 0.64618 0.60161 0.0
C550 C 1.00185 0.64405 0.56393 0.0
C551 C 0.99703 0.60548 0.54228 0.0
C552 C 0.80074 0.84626 0.23446 0.0
C553 C 0.76583 0.85723 0.22447 0.0
C554 C 0.83264 0.87429 0.23884 0.0
C555 C 0.83045 0.91438 0.23408 0.0
H556 H 0.80301 0.81634 0.24064 0.0
H557 H 0.8589 0.86483 0.24746 0.0
S558 S 0.74557 0.95637 0.20371 0.0
N559 N 0.73115 0.90924 0.20657 0.0
N560 N 0.79062 0.9624 0.21555 0.0
C561 C 0.79574 0.9251 0.22253 0.0
C562 C 0.76357 0.89639 0.21752 0.0
C563 C 0.75803 0.14094 0.3057 0.0
C564 C 0.76044 0.17922 0.29466 0.0
C565 C 0.78901 0.11929 0.30431 0.0
C566 C 0.82342 0.13523 0.29168 0.0
H567 H 0.73155 0.12699 0.31355 0.0
H568 H 0.78551 0.08934 0.31178 0.0
S569 S 0.84329 0.23529 0.26047 0.0
N570 N 0.79914 0.23235 0.27113 0.0
N571 N 0.85769 0.19306 0.2695 0.0
C572 C 0.82621 0.17437 0.2821 0.0
C573 C 0.79462 0.19595 0.28323 0.0
C574 C 0.41005 0.94428 1.00481 0.0
C575 C 0.39944 0.97515 0.98575 0.0
C576 C 0.38333 0.91587 0.01632 0.0
C577 C 0.34495 0.91763 0.00956 0.0
H578 H 0.43927 0.94235 0.01097 0.0
H579 H 0.39293 0.89249 0.03088 0.0
S580 S 0.30346 0.99338 0.96017 0.0
N581 N 0.34884 1.00626 0.96008 0.0
N582 N 0.29804 0.95327 0.98214 0.0
C583 C 0.33411 0.94881 0.99064 0.0
C584 C 0.36151 0.97747 0.97859 0.0
C585 C 0.28215 0.39726 0.30736 0.0
C586 C 0.26448 0.35824 0.29928 0.0
C587 C 0.26259 0.42966 0.30372 0.0
C588 C 0.22451 0.42423 0.29238 0.0
H589 H 0.31159 0.40259 0.31556 0.0
H590 H 0.27764 0.45929 0.3089 0.0
S591 S 0.16508 0.32792 0.26963 0.0
N592 N 0.2067 0.31563 0.28053 0.0
N593 N 0.1694 0.37706 0.27454 0.0
C594 C 0.20599 0.38546 0.28589 0.0
C595 C 0.22616 0.35226 0.28915 0.0
C596 C 0.14743 0.03599 0.49729 0.0
C597 C 0.11855 0.04404 0.52204 0.0
C598 C 0.18076 0.06204 0.49852 0.0
C599 C 0.18593 0.09783 0.52376 0.0
H600 H 0.14273 0.01128 0.47443 0.0
H601 H 0.20115 0.05573 0.47749 0.0
S602 S 0.12057 0.13109 0.59668 0.0
N603 N 0.09908 0.0886 0.57454 0.0
N604 N 0.16087 0.13807 0.57648 0.0
C605 C 0.15838 0.1049 0.55026 0.0
C606 C 0.125 0.07788 0.54954 0.0
C607 C 0.74721 0.19468 0.81033 0.0
C608 C 0.78014 0.19472 0.7905 0.0
C609 C 0.72239 0.15991 0.8094 0.0
C610 C 0.72971 0.12361 0.78886 0.0
H611 H 0.73956 0.2224 0.82459 0.0
H612 H 0.69696 0.16178 0.82446 0.0
S613 S 0.81421 0.10794 0.73469 0.0
N614 N 0.8199 0.1558 0.75128 0.0
N615 N 0.77434 0.08977 0.75062 0.0
C616 C 0.7638 0.12294 0.77073 0.0
C617 C 0.7888 0.1586 0.77143 0.0
C618 C 0.46321 0.06699 0.53567 0.0
C619 C 0.44985 0.03036 0.547 0.0
C620 C 0.43864 0.09356 0.52613 0.0
C621 C 0.39977 0.08422 0.52729 0.0
H622 H 0.4929 0.07527 0.53477 0.0
H623 H 0.4503 0.12189 0.51833 0.0
S624 S 0.35136 0.99054 0.55397 0.0
N625 N 0.39604 0.98517 0.55814 0.0
N626 N 0.34937 0.03457 0.53971 0.0
C627 C 0.38616 0.04687 0.53754 0.0
C628 C 0.41134 0.02007 0.54755 0.0
C629 C 0.5773 0.44332 0.47943 0.0
C630 C 0.57787 0.47575 0.50839 0.0
C631 C 0.60727 0.42034 0.47597 0.0
C632 C 0.63895 0.42862 0.50168 0.0
H633 H 0.55216 0.43363 0.4615 0.0
H634 H 0.60436 0.39432 0.45451 0.0
S635 S 0.65555 0.51398 0.57954 0.0
N636 N 0.61381 0.51753 0.56068 0.0
N637 N 0.67029 0.47503 0.55444 0.0
C638 C 0.641 0.46315 0.52874 0.0
C639 C 0.61047 0.4865 0.53201 0.0
C640 C 0.75825 0.25727 0.36218 0.0
C641 C 0.72269 0.23786 0.35025 0.0
C642 C 0.76583 0.27592 0.40004 0.0
C643 C 0.73771 0.27684 0.42664 0.0
H644 H 0.77988 0.25934 0.34193 0.0
H645 H 0.79358 0.29064 0.40832 0.0
S646 S 0.641 0.22761 0.41026 0.0
N647 N 0.66016 0.21775 0.36872 0.0
N648 N 0.67379 0.25477 0.43922 0.0
C649 C 0.70234 0.25689 0.41526 0.0
C650 C 0.69502 0.23685 0.37722 0.0
C651 C 0.51233 0.03257 0.89461 0.0
C652 C 0.51433 0.03666 0.93497 0.0
C653 C 0.54437 0.02992 0.87355 0.0
C654 C 0.57974 0.03194 0.89214 0.0
H655 H 0.48557 0.03053 0.87927 0.0
H656 H 0.54141 0.02654 0.84249 0.0
S657 S 0.59975 0.04196 0.99747 0.0
N658 N 0.55416 0.04145 0.99264 0.0
N659 N 0.61473 0.03852 0.95349 0.0
C660 C 0.58215 0.03695 0.93259 0.0
C661 C 0.54938 0.03888 0.95391 0.0
C662 C 0.34224 0.24898 0.3705 0.0
C663 C 0.31746 0.24126 0.338 0.0
C664 C 0.33595 0.2289 0.40276 0.0
C665 C 0.30453 0.20063 0.40363 0.0
H666 H 0.36391 0.27388 0.37277 0.0
H667 H 0.35368 0.23842 0.42852 0.0
S668 S 0.23505 0.16516 0.32338 0.0
N669 N 0.26382 0.19918 0.30656 0.0
N670 N 0.25124 0.16255 0.36743 0.0
C671 C 0.2819 0.18979 0.36992 0.0
C672 C 0.28883 0.20954 0.3369 0.0
C673 C 0.47722 0.54255 0.93589 0.0
C674 C 0.49652 0.51132 0.94522 0.0
C675 C 0.45607 0.53907 0.90097 0.0
C676 C 0.45377 0.50423 0.87432 0.0
H677 H 0.47978 0.57028 0.95505 0.0
H678 H 0.44332 0.56461 0.89391 0.0
S679 S 0.4963 0.41256 0.88802 0.0
N680 N 0.51012 0.44389 0.92694 0.0
N681 N 0.46983 0.43649 0.862 0.0
C682 C 0.47123 0.47198 0.88478 0.0
C683 C 0.49281 0.47576 0.92001 0.0
C684 C 0.73885 0.78419 0.14084 0.0
C685 C 0.7426 0.7757 0.17865 0.0
C686 C 0.75275 0.76025 0.1104 0.0
C687 C 0.77068 0.72689 0.11687 0.0
H688 H 0.72388 0.80859 0.13473 0.0
H689 H 0.74881 0.7676 0.0816 0.0
S690 S 0.78914 0.69438 0.21203 0.0
N691 N 0.76666 0.73364 0.22165 0.0
N692 N 0.79293 0.6884 0.16505 0.0
C693 C 0.77554 0.71914 0.15508 0.0
C694 C 0.76146 0.74361 0.18582 0.0
C695 C 0.99613 0.0111 0.12489 0.0
C696 C 0.97565 0.99534 0.09062 0.0
C697 C 0.97834 0.02033 0.15886 0.0
C698 C 0.93933 0.01538 0.15958 0.0
H699 H 0.02613 0.01738 0.12511 0.0
H700 H 0.99528 0.03256 0.18458 0.0
S701 S 0.87311 0.97304 0.0781 0.0
N702 N 0.91453 0.97264 0.05985 0.0
N703 N 0.88066 0.99228 0.12367 0.0
C704 C 0.9184 0.99936 0.12569 0.0
C705 C 0.93669 0.98878 0.09118 0.0
C706 C 0.29173 0.84044 0.2072 0.0
C707 C 0.30414 0.80294 0.2073 0.0
C708 C 0.27943 0.85305 0.17277 0.0
C709 C 0.27851 0.82823 0.13736 0.0
H710 H 0.28968 0.85912 0.23414 0.0
H711 H 0.26906 0.88171 0.17421 0.0
S712 S 0.30784 0.72654 0.12359 0.0
N713 N 0.31565 0.74158 0.16994 0.0
N714 N 0.29134 0.76377 0.10556 0.0
C715 C 0.29197 0.79096 0.13738 0.0
C716 C 0.30508 0.77872 0.17226 0.0
C717 C 0.0829 0.48675 0.11542 0.0
C718 C 0.04582 0.47741 0.12456 0.0
C719 C 0.11161 0.4966 0.14435 0.0
C720 C 0.10429 0.49792 0.18371 0.0
H721 H 0.08934 0.48882 0.08586 0.0
H722 H 0.13953 0.50481 0.13573 0.0
S723 S 0.01159 0.47158 0.22184 0.0
N724 N 1.00343 0.46675 0.17486 0.0
N725 N 0.05676 0.48529 0.22941 0.0
C726 C 0.06733 0.48646 0.19285 0.0
C727 C 0.03832 0.47619 0.16328 0.0
C728 C 0.38901 0.72755 0.30393 0.0
C729 C 0.35446 0.73934 0.31483 0.0
C730 C 0.41565 0.7195 0.33124 0.0
C731 C 0.40871 0.72218 0.37068 0.0
H732 H 0.39576 0.72518 0.27406 0.0
H733 H 0.44209 0.71145 0.32131 0.0
S734 S 0.32174 0.75062 0.41383 0.0
N735 N 0.31453 0.75278 0.36755 0.0
N736 N 0.36358 0.73638 0.4187 0.0
C737 C 0.37355 0.73245 0.38166 0.0
C738 C 0.34671 0.74121 0.35383 0.0
C739 C 0.9967 0.38274 0.06761 0.0
C740 C 0.01654 0.4154 0.05406 0.0
C741 C 0.99556 0.34415 0.04779 0.0
C742 C 0.01407 0.33672 0.01336 0.0
H743 H 0.97966 0.3876 0.09206 0.0
H744 H 0.9787 0.32028 0.05881 0.0
S745 S 0.07287 0.41273 0.96833 0.0
N746 N 0.05717 0.43808 0.00629 0.0
N747 N 0.05567 0.36589 0.96881 0.0
C748 C 0.03598 0.36913 1.00099 0.0
C749 C 0.0371 0.4083 0.02142 0.0
C750 C 0.67557 0.78133 0.31807 0.0
C751 C 0.65968 0.79265 0.28485 0.0
C752 C 0.65327 0.76952 0.34718 0.0
C753 C 0.61425 0.76863 0.34402 0.0
H754 H 0.70544 0.78134 0.32123 0.0
H755 H 0.66682 0.76077 0.37221 0.0
S756 S 0.55982 0.79601 0.26179 0.0
N757 N 0.60356 0.80277 0.24982 0.0
N758 N 0.56095 0.78051 0.30442 0.0
C759 C 0.59817 0.78034 0.31076 0.0
C760 C 0.62109 0.7923 0.28114 0.0
C761 C 0.03254 0.05001 0.95274 0.0
C762 C 0.04231 0.05154 0.99206 0.0
C763 C 0.02985 0.08505 0.936 0.0
C764 C 0.03573 0.12262 0.95844 0.0
H765 H 0.02393 0.02152 0.9357 0.0
H766 H 0.02098 0.08261 0.90595 0.0
S767 S 0.06615 0.1426 0.06166 0.0
N768 N 0.06131 0.09368 0.05177 0.0
N769 N 0.05598 0.15928 0.02095 0.0
C770 C 0.04807 0.12451 0.99708 0.0
C771 C 0.05167 0.08906 0.01365 0.0
C772 C 0.36172 0.24174 0.24582 0.0
C773 C 0.36625 0.27512 0.27393 0.0
C774 C 0.38781 0.23638 0.21745 0.0
C775 C 0.41939 0.26453 0.21559 0.0
H776 H 0.33619 0.22156 0.24371 0.0
H777 H 0.38177 0.21105 0.19537 0.0
S778 S 0.44669 0.35391 0.28675 0.0
N779 N 0.40693 0.33392 0.30151 0.0
N780 N 0.45562 0.32453 0.24793 0.0
C781 C 0.42573 0.29632 0.24556 0.0
C782 C 0.39939 0.30129 0.27482 0.0
C783 C 0.58436 0.44037 0.03691 0.0
C784 C 0.56401 0.47052 0.05257 0.0
C785 C 0.58099 0.40303 0.05005 0.0
C786 C 0.55665 0.3939 0.0792 0.0
H787 H 0.59988 0.44425 0.01164 0.0
H788 H 0.59553 0.38026 0.03494 0.0
S789 S 0.5046 0.46663 0.13595 0.0
N790 N 0.52492 0.49199 0.10384 0.0
N791 N 0.51739 0.42147 0.12798 0.0
C792 C 0.53969 0.42551 0.09817 0.0
C793 C 0.54381 0.46388 0.0851 0.0
C794 C 0.61957 0.22265 0.22684 0.0
C795 C 0.65812 0.22644 0.22247 0.0
C796 C 0.59509 0.23203 0.19851 0.0
C797 C 0.60837 0.24538 0.16468 0.0
H798 H 0.60841 0.21251 0.25251 0.0
H799 H 0.56553 0.22845 0.20304 0.0
S800 S 0.7076 0.26235 0.14104 0.0
N801 N 0.70885 0.24601 0.18324 0.0
N802 N 0.66311 0.26295 0.12925 0.0
C803 C 0.64709 0.24932 0.16014 0.0
C804 C 0.67192 0.24002 0.18922 0.0
C805 C 0.48702 0.1296 0.98357 0.0
C806 C 0.48982 0.0952 1.00105 0.0
C807 C 0.49305 0.16757 1.0053 0.0
C808 C 0.50133 0.17185 0.04515 0.0
H809 H 0.47686 0.12685 0.9539 0.0
H810 H 0.48793 0.19323 0.99155 0.0
S811 S 0.51792 0.09126 0.10262 0.0
N812 N 0.50654 0.06817 0.05889 0.0
N813 N 0.51718 0.1391 0.09987 0.0
C814 C 0.50761 0.13793 0.06197 0.0
C815 C 0.50213 0.09965 0.03982 0.0
C816 C 0.3029 0.3475 0.73153 0.0
C817 C 0.26743 0.35867 0.7244 0.0
C818 C 0.33454 0.37587 0.73619 0.0
C819 C 0.33164 0.41648 0.73447 0.0
H820 H 0.30592 0.31706 0.73538 0.0
H821 H 0.36123 0.3661 0.74269 0.0
S822 S 0.24473 0.45957 0.71277 0.0
N823 N 0.23119 0.41175 0.71286 0.0
N824 N 0.2902 0.46546 0.7221 0.0
C825 C 0.29626 0.42752 0.72579 0.0
C826 C 0.2643 0.39851 0.72062 0.0
C827 C 0.24862 0.63073 0.79214 0.0
C828 C 0.25108 0.67224 0.79354 0.0
C829 C 0.28073 0.61122 0.79312 0.0
C830 C 0.31659 0.63257 0.79525 0.0
H831 H 0.22158 0.6132 0.7892 0.0
H832 H 0.27732 0.57906 0.79063 0.0
S833 S 0.33743 0.74254 0.80252 0.0
N834 N 0.29154 0.73435 0.79914 0.0
N835 N 0.35211 0.69837 0.80161 0.0
C836 C 0.31919 0.67448 0.79855 0.0
C837 C 0.2864 0.69415 0.79754 0.0
C838 C 0.85921 0.47631 0.48457 0.0
C839 C 0.89733 0.47724 0.49382 0.0
C840 C 0.83321 0.44739 0.49675 0.0
C841 C 0.84475 0.41848 0.51834 0.0
H842 H 0.84963 0.498 0.46777 0.0
H843 H 0.80407 0.44714 0.48845 0.0
S844 S 0.94184 0.41129 0.55231 0.0
N845 N 0.94541 0.44933 0.52747 0.0
N846 N 0.8971 0.39448 0.55015 0.0
C847 C 0.88298 0.41998 0.52837 0.0
C848 C 0.90915 0.44954 0.51619 0.0
C849 C 0.74569 0.86647 0.82158 0.0
C850 C 0.75622 0.84151 0.78992 0.0
C851 C 0.72458 0.89762 0.81635 0.0
C852 C 0.71402 0.90497 0.77924 0.0
H853 H 0.75554 0.86309 0.8503 0.0
H854 H 0.71906 0.91786 0.84124 0.0
S855 S 0.73076 0.8445 0.68763 0.0
N856 N 0.75107 0.82302 0.72096 0.0
N857 N 0.71254 0.88235 0.71076 0.0
C858 C 0.72245 0.87854 0.74764 0.0
C859 C 0.74336 0.84661 0.75307 0.0
C860 C 0.64416 0.53111 0.99882 0.0
C861 C 0.61471 0.54021 0.02236 0.0
C862 C 0.6774 0.55738 0.99971 0.0
C863 C 0.68187 0.59419 0.0235 0.0
H864 H 0.64015 0.50506 0.9774 0.0
H865 H 0.6984 0.5502 0.97965 0.0
S866 S 0.6148 0.62991 0.09346 0.0
N867 N 0.59392 0.58663 0.07249 0.0
N868 N 0.65551 0.63625 0.07396 0.0
C869 C 0.65368 0.6022 0.04897 0.0
C870 C 0.62042 0.57513 0.04854 0.0
C871 C 0.28026 0.66784 0.2743 0.0
C872 C 0.27309 0.70496 0.29259 0.0
C873 C 0.25488 0.6337 0.27501 0.0
C874 C 0.22117 0.63559 0.29371 0.0
H875 H 0.30466 0.66573 0.25757 0.0
H876 H 0.26145 0.60583 0.26008 0.0
S877 S 0.19141 0.72604 0.34856 0.0
N878 N 0.23172 0.74164 0.33184 0.0
N879 N 0.18366 0.67791 0.33331 0.0
C880 C 0.21456 0.67254 0.3134 0.0
C881 C 0.24065 0.70704 0.31291 0.0
C882 C 0.90927 0.52247 0.05352 0.0
C883 C 0.9479 0.53198 0.05236 0.0
C884 C 0.88469 0.54854 0.04265 0.0
C885 C 0.89807 0.58509 0.03053 0.0
H886 H 0.89819 0.49496 0.06341 0.0
H887 H 0.85512 0.54053 0.04493 0.0
S888 S 0.99731 0.62137 0.01962 0.0
N889 N 0.99855 0.57828 0.036 0.0
N890 N 0.95285 0.62785 0.01589 0.0
C891 C 0.93683 0.59411 0.02822 0.0
C892 C 0.96164 0.5674 0.03908 0.0
C893 C 0.09475 0.95314 0.99374 0.0
C894 C 0.08613 0.98581 0.01897 0.0
C895 C 0.12887 0.93741 0.99773 0.0
C896 C 0.1557 0.95361 0.02739 0.0
H897 H 0.0737 0.9377 0.97277 0.0
H898 H 0.13319 0.91088 0.97884 0.0
S899 S 0.14728 0.04168 0.09909 0.0
N900 N 0.10768 0.03511 0.07307 0.0
N901 N 0.17199 1.00697 0.08026 0.0
C902 C 0.14832 0.98822 0.051 0.0
C903 C 0.11354 1.00392 0.04689 0.0
loop_
_geom_bond_atom_site_label_1
_geom_bond_atom_site_label_2
_geom_bond_distance
_geom_bond_site_symmetry_2
_ccdc_geom_bond_type
C0 N1 1.317 . S
C0 N2 1.332 1_465 S
C0 C3 1.485 . S
N1 C0 1.317 . S
N1 N5 1.370 1_565 S
N2 C0 1.332 1_645 S
N2 C4 1.368 . S
C3 C0 1.485 . S
C3 H7 0.960 . S
C3 H8 0.961 . S
C3 H9 0.960 . S
C4 N2 1.368 . S
C4 N5 1.307 1_655 S
C4 C6 1.486 . S
N5 N1 1.370 1_545 S
N5 C4 1.307 1_455 S
C6 C4 1.486 . S
C6 H10 0.960 . S
C6 H11 0.960 . S
C6 H12 0.959 . S
H7 C3 0.960 . S
H8 C3 0.961 . S
H9 C3 0.960 . S
H10 C6 0.960 . S
H11 C6 0.960 . S
H12 C6 0.959 . S
C13 N14 1.317 . S
C13 N15 1.348 . S
C13 C16 1.485 . S
N14 C13 1.317 . S
N14 N18 1.370 . S
N15 C13 1.348 . S
N15 C17 1.346 . S
C16 C13 1.485 . S
C16 H20 0.960 . S
C16 H21 0.961 . S
C16 H22 0.960 . S
C17 N15 1.346 . S
C17 N18 1.307 . S
C17 C19 1.486 . S
N18 N14 1.370 . S
N18 C17 1.307 . S
C19 C17 1.486 . S
C19 H23 0.960 . S
C19 H24 0.960 . S
C19 H25 0.959 . S
H20 C16 0.960 . S
H21 C16 0.961 . S
H22 C16 0.960 . S
H23 C19 0.960 . S
H24 C19 0.960 . S
H25 C19 0.959 . S
C26 N27 1.320 . S
C26 N28 1.348 . S
C26 C29 1.485 . S
N27 C26 1.320 . S
N27 N31 1.371 . S
N28 C26 1.348 . S
N28 C30 1.346 . S
C29 C26 1.485 . S
C29 H33 0.960 . S
C29 H34 0.961 . S
C29 H35 0.960 1_655 S
C30 N28 1.346 . S
C30 N31 1.307 . S
C30 C32 1.486 . S
N31 N27 1.371 . S
N31 C30 1.307 . S
C32 C30 1.486 . S
C32 H36 0.960 1_554 S
C32 H37 0.960 . S
C32 H38 0.958 1_554 S
H33 C29 0.960 . S
H34 C29 0.961 . S
H35 C29 0.960 1_455 S
H36 C32 0.960 1_556 S
H37 C32 0.960 . S
H38 C32 0.958 1_556 S
C39 N40 1.317 . S
C39 N41 1.348 . S
C39 C42 1.485 . S
N40 C39 1.317 . S
N40 N44 1.370 . S
N41 C39 1.348 . S
N41 C43 1.346 . S
C42 C39 1.485 . S
C42 H46 0.960 . S
C42 H47 0.961 . S
C42 H48 0.960 . S
C43 N41 1.346 . S
C43 N44 1.307 . S
C43 C45 1.486 . S
N44 N40 1.370 . S
N44 C43 1.307 . S
C45 C43 1.486 . S
C45 H49 0.960 . S
C45 H50 0.960 . S
C45 H51 0.959 . S
H46 C42 0.960 . S
H47 C42 0.961 . S
H48 C42 0.960 . S
H49 C45 0.960 . S
H50 C45 0.960 . S
H51 C45 0.959 . S
C52 N53 1.317 . S
C52 N54 1.348 . S
C52 C55 1.485 1_455 S
N53 C52 1.317 . S
N53 N57 1.370 . S
N54 C52 1.348 . S
N54 C56 1.346 1_565 S
C55 C52 1.485 1_655 S
C55 H59 0.960 . S
C55 H60 0.961 . S
C55 H61 0.960 . S
C56 N54 1.346 1_545 S
C56 N57 1.307 1_545 S
C56 C58 1.486 . S
N57 N53 1.370 . S
N57 C56 1.307 1_565 S
C58 C56 1.486 . S
C58 H62 0.960 . S
C58 H63 0.960 . S
C58 H64 0.959 . S
H59 C55 0.960 . S
H60 C55 0.961 . S
H61 C55 0.960 . S
H62 C58 0.960 . S
H63 C58 0.960 . S
H64 C58 0.959 . S
C65 N66 1.317 . S
C65 N67 1.348 . S
C65 C68 1.485 . S
N66 C65 1.317 . S
N66 N70 1.370 . S
N67 C65 1.348 . S
N67 C69 1.346 . S
C68 C65 1.485 . S
C68 H72 0.960 . S
C68 H73 0.961 . S
C68 H74 0.960 . S
C69 N67 1.346 . S
C69 N70 1.307 . S
C69 C71 1.486 . S
N70 N66 1.370 . S
N70 C69 1.307 . S
C71 C69 1.486 . S
C71 H75 0.960 . S
C71 H76 0.960 . S
C71 H77 0.959 . S
H72 C68 0.960 . S
H73 C68 0.961 . S
H74 C68 0.960 . S
H75 C71 0.960 . S
H76 C71 0.960 . S
H77 C71 0.959 . S
C78 N79 1.317 . S
C78 N80 1.348 . S
C78 C81 1.485 . S
N79 C78 1.317 . S
N79 N83 1.370 . S
N80 C78 1.348 . S
N80 C82 1.346 . S
C81 C78 1.485 . S
C81 H85 0.960 . S
C81 H86 0.961 . S
C81 H87 0.960 . S
C82 N80 1.346 . S
C82 N83 1.307 . S
C82 C84 1.486 . S
N83 N79 1.370 . S
N83 C82 1.307 . S
C84 C82 1.486 . S
C84 H88 0.960 . S
C84 H89 0.960 . S
C84 H90 0.959 . S
H85 C81 0.960 . S
H86 C81 0.961 . S
H87 C81 0.960 . S
H88 C84 0.960 . S
H89 C84 0.960 . S
H90 C84 0.959 . S
C91 N92 1.317 . S
C91 N93 1.348 . S
C91 C94 1.485 . S
N92 C91 1.317 . S
N92 N96 1.370 . S
N93 C91 1.348 . S
N93 C95 1.346 . S
C94 C91 1.485 . S
C94 H98 0.960 . S
C94 H99 0.961 . S
C94 H100 0.960 . S
C95 N93 1.346 . S
C95 N96 1.307 . S
C95 C97 1.486 . S
N96 N92 1.370 . S
N96 C95 1.307 . S
C97 C95 1.486 . S
C97 H101 0.960 . S
C97 H102 0.960 . S
C97 H103 0.959 . S
H98 C94 0.960 . S
H99 C94 0.961 . S
H100 C94 0.960 . S
H101 C97 0.960 . S
H102 C97 0.960 . S
H103 C97 0.959 . S
C104 N105 1.317 . S
C104 N106 1.348 . S
C104 C107 1.485 . S
N105 C104 1.317 . S
N105 N109 1.370 . S
N106 C104 1.348 . S
N106 C108 1.346 . S
C107 C104 1.485 . S
C107 H111 0.960 . S
C107 H112 0.961 . S
C107 H113 0.960 . S
C108 N106 1.346 . S
C108 N109 1.307 . S
C108 C110 1.486 . S
N109 N105 1.370 . S
N109 C108 1.307 . S
C110 C108 1.486 . S
C110 H114 0.960 . S
C110 H115 0.960 . S
C110 H116 0.959 . S
H111 C107 0.960 . S
H112 C107 0.961 . S
H113 C107 0.960 . S
H114 C110 0.960 . S
H115 C110 0.960 . S
H116 C110 0.959 . S
C117 N118 1.317 . S
C117 N119 1.348 . S
C117 C120 1.485 1_565 S
N118 C117 1.317 . S
N118 N122 1.370 . S
N119 C117 1.348 . S
N119 C121 1.346 . S
C120 C117 1.485 1_545 S
C120 H124 0.960 . S
C120 H125 0.961 . S
C120 H126 0.960 . S
C121 N119 1.346 . S
C121 N122 1.307 . S
C121 C123 1.486 . S
N122 N118 1.370 . S
N122 C121 1.307 . S
C123 C121 1.486 . S
C123 H127 0.960 . S
C123 H128 0.960 . S
C123 H129 0.959 . S
H124 C120 0.960 . S
H125 C120 0.961 . S
H126 C120 0.960 . S
H127 C123 0.960 . S
H128 C123 0.960 . S
H129 C123 0.959 . S
C130 N131 1.317 . S
C130 N132 1.348 . S
C130 C133 1.485 . S
N131 C130 1.317 . S
N131 N135 1.370 . S
N132 C130 1.348 . S
N132 C134 1.346 . S
C133 C130 1.485 . S
C133 H137 0.960 . S
C133 H138 0.961 . S
C133 H139 0.960 . S
C134 N132 1.346 . S
C134 N135 1.307 . S
C134 C136 1.486 . S
N135 N131 1.370 . S
N135 C134 1.307 . S
C136 C134 1.486 . S
C136 H140 0.960 . S
C136 H141 0.960 . S
C136 H142 0.959 . S
H137 C133 0.960 . S
H138 C133 0.961 . S
H139 C133 0.960 . S
H140 C136 0.960 . S
H141 C136 0.960 . S
H142 C136 0.959 . S
C143 N144 1.317 . S
C143 N145 1.348 . S
C143 C146 1.485 . S
N144 C143 1.317 . S
N144 N148 1.370 . S
N145 C143 1.348 . S
N145 C147 1.346 . S
C146 C143 1.485 . S
C146 H150 0.960 . S
C146 H151 0.961 . S
C146 H152 0.960 . S
C147 N145 1.346 . S
C147 N148 1.307 . S
C147 C149 1.486 . S
N148 N144 1.370 . S
N148 C147 1.307 . S
C149 C147 1.486 . S
C149 H153 0.960 . S
C149 H154 0.960 . S
C149 H155 0.959 . S
H150 C146 0.960 . S
H151 C146 0.961 . S
H152 C146 0.960 . S
H153 C149 0.960 . S
H154 C149 0.960 . S
H155 C149 0.959 . S
C156 N157 1.317 . S
C156 N158 1.348 . S
C156 C159 1.485 . S
N157 C156 1.317 . S
N157 N161 1.370 . S
N158 C156 1.348 . S
N158 C160 1.346 . S
C159 C156 1.485 . S
C159 H163 0.960 . S
C159 H164 0.961 . S
C159 H165 0.960 . S
C160 N158 1.346 . S
C160 N161 1.307 . S
C160 C162 1.486 . S
N161 N157 1.370 . S
N161 C160 1.307 . S
C162 C160 1.486 . S
C162 H166 0.960 . S
C162 H167 0.960 . S
C162 H168 0.959 . S
H163 C159 0.960 . S
H164 C159 0.961 . S
H165 C159 0.960 . S
H166 C162 0.960 . S
H167 C162 0.960 . S
H168 C162 0.959 . S
C169 N170 1.317 . S
C169 N171 1.348 . S
C169 C172 1.485 . S
N170 C169 1.317 . S
N170 N174 1.370 . S
N171 C169 1.348 . S
N171 C173 1.346 . S
C172 C169 1.485 . S
C172 H176 0.960 . S
C172 H177 0.961 . S
C172 H178 0.960 . S
C173 N171 1.346 . S
C173 N174 1.307 . S
C173 C175 1.486 . S
N174 N170 1.370 . S
N174 C173 1.307 . S
C175 C173 1.486 . S
C175 H179 0.960 . S
C175 H180 0.960 . S
C175 H181 0.959 . S
H176 C172 0.960 . S
H177 C172 0.961 . S
H178 C172 0.960 . S
H179 C175 0.960 . S
H180 C175 0.960 . S
H181 C175 0.959 . S
C182 N183 1.317 . S
C182 N184 1.348 . S
C182 C185 1.485 . S
N183 C182 1.317 . S
N183 N187 1.370 . S
N184 C182 1.348 . S
N184 C186 1.346 . S
C185 C182 1.485 . S
C185 H189 0.960 . S
C185 H190 0.961 . S
C185 H191 0.960 . S
C186 N184 1.346 . S
C186 N187 1.307 . S
C186 C188 1.486 . S
N187 N183 1.370 . S
N187 C186 1.307 . S
C188 C186 1.486 . S
C188 H192 0.960 . S
C188 H193 0.960 . S
C188 H194 0.959 . S
H189 C185 0.960 . S
H190 C185 0.961 . S
H191 C185 0.960 . S
H192 C188 0.960 . S
H193 C188 0.960 . S
H194 C188 0.959 . S
C195 N196 1.317 . S
C195 N197 1.348 . S
C195 C198 1.485 1_545 S
N196 C195 1.317 . S
N196 N200 1.370 . S
N197 C195 1.348 . S
N197 C199 1.346 1_556 S
C198 C195 1.485 1_565 S
C198 H202 0.960 . S
C198 H203 0.961 . S
C198 H204 0.960 . S
C199 N197 1.346 1_554 S
C199 N200 1.307 1_554 S
C199 C201 1.486 . S
N200 N196 1.370 . S
N200 C199 1.307 1_556 S
C201 C199 1.486 . S
C201 H205 0.960 . S
C201 H206 0.960 . S
C201 H207 0.959 . S
H202 C198 0.960 . S
H203 C198 0.961 . S
H204 C198 0.960 . S
H205 C201 0.960 . S
H206 C201 0.960 . S
H207 C201 0.959 . S
Mg208 O209 2.028 . S
Mg208 O215 1.986 1_554 S
Mg208 O217 2.114 . S
Mg208 O218 2.251 . S
Mg208 O221 2.010 . S
O209 Mg208 2.028 . S
O209 C212 1.250 . S
O210 Mg211 2.030 1_554 S
O210 C212 1.250 . S
Mg211 O210 2.030 1_556 S
Mg211 O216 2.032 . S
Mg211 O218 2.079 1_556 S
C212 O209 1.250 . S
C212 O210 1.250 . S
C213 O214 1.264 . S
C213 O221 1.249 . S
O214 C213 1.264 . S
O215 Mg208 1.986 1_556 S
O215 C219 1.246 . S
O216 Mg211 2.032 . S
O216 C219 1.259 . S
O217 Mg208 2.114 . S
O217 C220 1.252 . S
O218 Mg208 2.251 . S
O218 Mg211 2.079 1_554 S
O218 C220 1.273 . S
C219 O215 1.246 . S
C219 O216 1.259 . S
C220 O217 1.252 . S
C220 O218 1.273 . S
O221 Mg208 2.010 . S
O221 C213 1.249 . S
Mg222 O223 2.028 . S
Mg222 O229 1.986 . S
Mg222 O231 2.114 . S
Mg222 O232 2.251 . S
Mg222 O235 2.010 . S
O223 Mg222 2.028 . S
O223 C226 1.250 . S
O224 Mg225 2.028 . S
O224 C226 1.248 . S
Mg225 O224 2.028 . S
Mg225 O230 2.032 . S
Mg225 O232 2.079 . S
C226 O223 1.250 . S
C226 O224 1.248 . S
C227 O228 1.264 . S
C227 O235 1.249 . S
O228 C227 1.264 . S
O229 Mg222 1.986 . S
O229 C233 1.246 . S
O230 Mg225 2.032 . S
O230 C233 1.259 . S
O231 Mg222 2.114 . S
O231 C234 1.252 . S
O232 Mg222 2.251 . S
O232 Mg225 2.079 . S
O232 C234 1.273 . S
C233 O229 1.246 . S
C233 O230 1.259 . S
C234 O231 1.252 . S
C234 O232 1.273 . S
O235 Mg222 2.010 . S
O235 C227 1.249 . S
Mg236 O237 2.028 . S
Mg236 O243 1.986 1_554 S
Mg236 O245 2.114 . S
Mg236 O246 2.251 . S
Mg236 O249 2.010 . S
O237 Mg236 2.028 . S
O237 C240 1.250 1_554 S
O238 Mg239 2.028 1_556 S
O238 C240 1.248 . S
Mg239 O238 2.028 1_554 S
Mg239 O244 2.032 1_554 S
Mg239 O246 2.079 . S
C240 O237 1.250 1_556 S
C240 O238 1.248 . S
C241 O242 1.264 . S
C241 O249 1.249 . S
O242 C241 1.264 . S
O243 Mg236 1.986 1_556 S
O243 C247 1.246 . S
O244 Mg239 2.032 1_556 S
O244 C247 1.259 . S
O245 Mg236 2.114 . S
O245 C248 1.252 . S
O246 Mg236 2.251 . S
O246 Mg239 2.079 . S
O246 C248 1.273 . S
C247 O243 1.246 . S
C247 O244 1.259 . S
C248 O245 1.252 . S
C248 O246 1.273 . S
O249 Mg236 2.010 . S
O249 C241 1.249 . S
Mg250 O251 2.028 1_545 S
Mg250 O257 1.986 . S
Mg250 O259 2.114 . S
Mg250 O260 2.251 1_545 S
Mg250 O263 2.010 . S
O251 Mg250 2.028 1_565 S
O251 C254 1.250 . S
O252 Mg253 2.028 . S
O252 C254 1.248 . S
Mg253 O252 2.028 . S
Mg253 O258 2.032 . S
Mg253 O260 2.079 . S
C254 O251 1.250 . S
C254 O252 1.248 . S
C255 O256 1.264 . S
C255 O263 1.249 . S
O256 C255 1.264 . S
O257 Mg250 1.986 . S
O257 C261 1.247 . S
O258 Mg253 2.032 . S
O258 C261 1.257 1_565 S
O259 Mg250 2.114 . S
O259 C262 1.252 . S
O260 Mg250 2.251 1_565 S
O260 Mg253 2.079 . S
O260 C262 1.273 1_565 S
C261 O257 1.247 . S
C261 O258 1.257 1_545 S
C262 O259 1.252 . S
C262 O260 1.273 1_545 S
O263 Mg250 2.010 . S
O263 C255 1.249 . S
Mg264 O265 2.028 . S
Mg264 O271 1.986 . S
Mg264 O273 2.114 . S
Mg264 O274 2.251 . S
Mg264 O277 2.010 . S
O265 Mg264 2.028 . S
O265 C268 1.250 . S
O266 Mg267 2.028 . S
O266 C268 1.248 . S
Mg267 O266 2.028 . S
Mg267 O272 2.032 . S
Mg267 O274 2.079 . S
C268 O265 1.250 . S
C268 O266 1.248 . S
C269 O270 1.264 . S
C269 O277 1.249 . S
O270 C269 1.264 . S
O271 Mg264 1.986 . S
O271 C275 1.246 . S
O272 Mg267 2.032 . S
O272 C275 1.259 . S
O273 Mg264 2.114 . S
O273 C276 1.252 . S
O274 Mg264 2.251 . S
O274 Mg267 2.079 . S
O274 C276 1.273 . S
C275 O271 1.246 . S
C275 O272 1.259 . S
C276 O273 1.252 . S
C276 O274 1.273 . S
O277 Mg264 2.010 . S
O277 C269 1.249 . S
Mg278 O279 2.028 . S
Mg278 O285 1.986 . S
Mg278 O287 2.114 . S
Mg278 O288 2.251 . S
Mg278 O291 2.010 . S
O279 Mg278 2.028 . S
O279 C282 1.250 . S
O280 Mg281 2.028 . S
O280 C282 1.248 . S
Mg281 O280 2.028 . S
Mg281 O286 2.032 . S
Mg281 O288 2.079 . S
C282 O279 1.250 . S
C282 O280 1.248 . S
C283 O284 1.264 . S
C283 O291 1.249 . S
O284 C283 1.264 . S
O285 Mg278 1.986 . S
O285 C289 1.246 . S
O286 Mg281 2.032 . S
O286 C289 1.259 . S
O287 Mg278 2.114 . S
O287 C290 1.252 . S
O288 Mg278 2.251 . S
O288 Mg281 2.079 . S
O288 C290 1.273 . S
C289 O285 1.246 . S
C289 O286 1.259 . S
C290 O287 1.252 . S
C290 O288 1.273 . S
O291 Mg278 2.010 . S
O291 C283 1.249 . S
Mg292 O293 2.028 . S
Mg292 O299 1.986 . S
Mg292 O301 2.114 . S
Mg292 O302 2.251 . S
Mg292 O305 2.010 . S
O293 Mg292 2.028 . S
O293 C296 1.250 . S
O294 Mg295 2.028 . S
O294 C296 1.248 . S
Mg295 O294 2.028 . S
Mg295 O300 2.032 . S
Mg295 O302 2.079 . S
C296 O293 1.250 . S
C296 O294 1.248 . S
C297 O298 1.264 . S
C297 O305 1.249 . S
O298 C297 1.264 . S
O299 Mg292 1.986 . S
O299 C303 1.246 . S
O300 Mg295 2.032 . S
O300 C303 1.259 . S
O301 Mg292 2.114 . S
O301 C304 1.252 . S
O302 Mg292 2.251 . S
O302 Mg295 2.079 . S
O302 C304 1.273 . S
C303 O299 1.246 . S
C303 O300 1.259 . S
C304 O301 1.252 . S
C304 O302 1.273 . S
O305 Mg292 2.010 . S
O305 C297 1.249 . S
Mg306 O307 2.028 . S
Mg306 O313 1.986 1_545 S
Mg306 O315 2.114 . S
Mg306 O316 2.251 . S
Mg306 O319 2.010 . S
O307 Mg306 2.028 . S
O307 C310 1.250 1_545 S
O308 Mg309 2.028 . S
O308 C310 1.248 . S
Mg309 O308 2.028 . S
Mg309 O314 2.032 . S
Mg309 O316 2.079 1_565 S
C310 O307 1.250 1_565 S
C310 O308 1.248 . S
C311 O312 1.264 . S
C311 O319 1.249 . S
O312 C311 1.264 . S
O313 Mg306 1.986 1_565 S
O313 C317 1.246 . S
O314 Mg309 2.032 . S
O314 C317 1.259 . S
O315 Mg306 2.114 . S
O315 C318 1.252 . S
O316 Mg306 2.251 . S
O316 Mg309 2.079 1_545 S
O316 C318 1.273 . S
C317 O313 1.246 . S
C317 O314 1.259 . S
C318 O315 1.252 . S
C318 O316 1.273 . S
O319 Mg306 2.010 . S
O319 C311 1.249 . S
Mg320 O321 2.028 1_455 S
Mg320 O327 1.986 . S
Mg320 O329 2.114 . S
Mg320 O330 2.251 1_455 S
Mg320 O333 2.010 . S
O321 Mg320 2.028 1_655 S
O321 C324 1.250 . S
O322 Mg323 2.028 . S
O322 C324 1.248 . S
Mg323 O322 2.028 . S
Mg323 O328 2.032 . S
Mg323 O330 2.079 . S
C324 O321 1.250 . S
C324 O322 1.248 . S
C325 O326 1.264 . S
C325 O333 1.249 . S
O326 C325 1.264 . S
O327 Mg320 1.986 . S
O327 C331 1.246 1_455 S
O328 Mg323 2.032 . S
O328 C331 1.259 . S
O329 Mg320 2.114 . S
O329 C332 1.252 . S
O330 Mg320 2.251 1_655 S
O330 Mg323 2.079 . S
O330 C332 1.273 1_655 S
C331 O327 1.246 1_655 S
C331 O328 1.259 . S
C332 O329 1.252 . S
C332 O330 1.273 1_455 S
O333 Mg320 2.010 . S
O333 C325 1.249 . S
Mg334 O335 2.028 . S
Mg334 O341 1.986 . S
Mg334 O343 2.114 . S
Mg334 O344 2.251 . S
Mg334 O347 2.010 . S
O335 Mg334 2.028 . S
O335 C338 1.250 . S
O336 Mg337 2.028 . S
O336 C338 1.248 . S
Mg337 O336 2.028 . S
Mg337 O342 2.032 . S
Mg337 O344 2.079 . S
C338 O335 1.250 . S
C338 O336 1.248 . S
C339 O340 1.264 . S
C339 O347 1.249 . S
O340 C339 1.264 . S
O341 Mg334 1.986 . S
O341 C345 1.246 . S
O342 Mg337 2.032 . S
O342 C345 1.259 . S
O343 Mg334 2.114 . S
O343 C346 1.252 . S
O344 Mg334 2.251 . S
O344 Mg337 2.079 . S
O344 C346 1.273 . S
C345 O341 1.246 . S
C345 O342 1.259 . S
C346 O343 1.252 . S
C346 O344 1.273 . S
O347 Mg334 2.010 . S
O347 C339 1.249 . S
Mg348 O349 2.028 . S
Mg348 O355 1.986 . S
Mg348 O357 2.114 1_455 S
Mg348 O358 2.251 . S
Mg348 O361 2.010 1_455 S
O349 Mg348 2.028 . S
O349 C352 1.250 . S
O350 Mg351 2.028 . S
O350 C352 1.248 . S
Mg351 O350 2.028 . S
Mg351 O356 2.032 . S
Mg351 O358 2.079 . S
C352 O349 1.250 . S
C352 O350 1.248 . S
C353 O354 1.264 . S
C353 O361 1.249 . S
O354 C353 1.264 . S
O355 Mg348 1.986 . S
O355 C359 1.246 . S
O356 Mg351 2.032 . S
O356 C359 1.259 . S
O357 Mg348 2.114 1_655 S
O357 C360 1.252 1_655 S
O358 Mg348 2.251 . S
O358 Mg351 2.079 . S
O358 C360 1.273 . S
C359 O355 1.246 . S
C359 O356 1.259 . S
C360 O357 1.252 1_455 S
C360 O358 1.273 . S
O361 Mg348 2.010 1_655 S
O361 C353 1.249 . S
Mg362 O363 2.028 . S
Mg362 O369 1.986 . S
Mg362 O371 2.114 . S
Mg362 O372 2.251 . S
Mg362 O375 2.010 . S
O363 Mg362 2.028 . S
O363 C366 1.250 . S
O364 Mg365 2.028 . S
O364 C366 1.248 . S
Mg365 O364 2.028 . S
Mg365 O370 2.032 . S
Mg365 O372 2.079 . S
C366 O363 1.250 . S
C366 O364 1.248 . S
C367 O368 1.264 . S
C367 O375 1.249 . S
O368 C367 1.264 . S
O369 Mg362 1.986 . S
O369 C373 1.246 . S
O370 Mg365 2.032 . S
O370 C373 1.259 . S
O371 Mg362 2.114 . S
O371 C374 1.252 . S
O372 Mg362 2.251 . S
O372 Mg365 2.079 . S
O372 C374 1.273 . S
C373 O369 1.246 . S
C373 O370 1.259 . S
C374 O371 1.252 . S
C374 O372 1.273 . S
O375 Mg362 2.010 . S
O375 C367 1.249 . S
C376 C377 1.369 . S
C376 C378 1.419 . S
C376 H380 0.930 . S
C377 C376 1.369 . S
C377 C386 1.429 . S
C378 C376 1.419 . S
C378 C379 1.363 . S
C378 H381 0.929 . S
C379 C378 1.363 . S
C379 C385 1.428 . S
H380 C376 0.930 . S
H381 C378 0.929 . S
S382 N383 1.613 . S
S382 N384 1.610 . S
N383 S382 1.613 . S
N383 C386 1.350 . S
N384 S382 1.610 . S
N384 C385 1.351 . S
C385 C379 1.428 . S
C385 N384 1.351 . S
C385 C386 1.434 . S
C386 C377 1.429 . S
C386 N383 1.350 . S
C386 C385 1.434 . S
C387 C388 1.369 . S
C387 C389 1.419 . S
C387 H391 0.930 . S
C388 C387 1.369 . S
C388 C397 1.429 . S
C389 C387 1.419 . S
C389 C390 1.363 . S
C389 H392 0.929 . S
C390 C389 1.363 . S
C390 C396 1.428 . S
H391 C387 0.930 . S
H392 C389 0.929 . S
S393 N394 1.613 1_455 S
S393 N395 1.610 . S
N394 S393 1.613 1_655 S
N394 C397 1.350 1_655 S
N395 S393 1.610 . S
N395 C396 1.351 . S
C396 C390 1.428 . S
C396 N395 1.351 . S
C396 C397 1.434 . S
C397 C388 1.429 . S
C397 N394 1.350 1_455 S
C397 C396 1.434 . S
C398 C399 1.369 . S
C398 C400 1.419 . S
C398 H402 0.930 . S
C399 C398 1.369 . S
C399 C408 1.429 . S
C400 C398 1.419 . S
C400 C401 1.363 . S
C400 H403 0.929 . S
C401 C400 1.363 . S
C401 C407 1.428 . S
H402 C398 0.930 . S
H403 C400 0.929 . S
S404 N405 1.613 . S
S404 N406 1.610 . S
N405 S404 1.613 . S
N405 C408 1.350 . S
N406 S404 1.610 . S
N406 C407 1.351 . S
C407 C401 1.428 . S
C407 N406 1.351 . S
C407 C408 1.434 . S
C408 C399 1.429 . S
C408 N405 1.350 . S
C408 C407 1.434 . S
C409 C410 1.369 1_655 S
C409 C411 1.419 . S
C409 H413 0.930 . S
C410 C409 1.369 1_455 S
C410 C419 1.429 1_565 S
C411 C409 1.419 . S
C411 C412 1.363 1_565 S
C411 H414 0.929 . S
C412 C411 1.363 1_545 S
C412 C418 1.428 . S
H413 C409 0.930 . S
H414 C411 0.929 . S
S415 N416 1.613 . S
S415 N417 1.610 1_455 S
N416 S415 1.613 . S
N416 C419 1.350 . S
N417 S415 1.610 1_655 S
N417 C418 1.351 . S
C418 C412 1.428 . S
C418 N417 1.351 . S
C418 C419 1.434 1_655 S
C419 C410 1.429 1_545 S
C419 N416 1.350 . S
C419 C418 1.434 1_455 S
C420 C421 1.369 . S
C420 C422 1.419 . S
C420 H424 0.930 . S
C421 C420 1.369 . S
C421 C430 1.429 . S
C422 C420 1.419 . S
C422 C423 1.363 . S
C422 H425 0.929 . S
C423 C422 1.363 . S
C423 C429 1.428 . S
H424 C420 0.930 . S
H425 C422 0.929 . S
S426 N427 1.613 . S
S426 N428 1.610 . S
N427 S426 1.613 . S
N427 C430 1.350 . S
N428 S426 1.610 . S
N428 C429 1.351 . S
C429 C423 1.428 . S
C429 N428 1.351 . S
C429 C430 1.434 . S
C430 C421 1.429 . S
C430 N427 1.350 . S
C430 C429 1.434 . S
C431 C432 1.369 . S
C431 C433 1.419 . S
C431 H435 0.930 . S
C432 C431 1.369 . S
C432 C441 1.429 . S
C433 C431 1.419 . S
C433 C434 1.363 . S
C433 H436 0.929 . S
C434 C433 1.363 . S
C434 C440 1.428 . S
H435 C431 0.930 . S
H436 C433 0.929 . S
S437 N438 1.613 . S
S437 N439 1.610 . S
N438 S437 1.613 . S
N438 C441 1.350 . S
N439 S437 1.610 . S
N439 C440 1.351 . S
C440 C434 1.428 . S
C440 N439 1.351 . S
C440 C441 1.434 . S
C441 C432 1.429 . S
C441 N438 1.350 . S
C441 C440 1.434 . S
C442 C443 1.369 . S
C442 C444 1.419 . S
C442 H446 0.930 . S
C443 C442 1.369 . S
C443 C452 1.429 . S
C444 C442 1.419 . S
C444 C445 1.363 . S
C444 H447 0.929 . S
C445 C444 1.363 . S
C445 C451 1.428 . S
H446 C442 0.930 . S
H447 C444 0.929 . S
S448 N449 1.613 . S
S448 N450 1.610 . S
N449 S448 1.613 . S
N449 C452 1.350 . S
N450 S448 1.610 . S
N450 C451 1.351 . S
C451 C445 1.428 . S
C451 N450 1.351 . S
C451 C452 1.434 . S
C452 C443 1.429 . S
C452 N449 1.350 . S
C452 C451 1.434 . S
C453 C454 1.369 . S
C453 C455 1.419 . S
C453 H457 0.930 . S
C454 C453 1.369 . S
C454 C463 1.429 . S
C455 C453 1.419 . S
C455 C456 1.363 . S
C455 H458 0.929 . S
C456 C455 1.363 . S
C456 C462 1.428 1_565 S
H457 C453 0.930 . S
H458 C455 0.929 . S
S459 N460 1.613 . S
S459 N461 1.610 . S
N460 S459 1.613 . S
N460 C463 1.350 1_545 S
N461 S459 1.610 . S
N461 C462 1.351 . S
C462 C456 1.428 1_545 S
C462 N461 1.351 . S
C462 C463 1.434 1_545 S
C463 C454 1.429 . S
C463 N460 1.350 1_565 S
C463 C462 1.434 1_565 S
C464 C465 1.369 . S
C464 C466 1.419 . S
C464 H468 0.930 . S
C465 C464 1.369 . S
C465 C474 1.429 . S
C466 C464 1.419 . S
C466 C467 1.363 . S
C466 H469 0.929 . S
C467 C466 1.363 . S
C467 C473 1.428 . S
H468 C464 0.930 . S
H469 C466 0.929 . S
S470 N471 1.613 . S
S470 N472 1.610 . S
N471 S470 1.613 . S
N471 C474 1.350 . S
N472 S470 1.610 . S
N472 C473 1.351 . S
C473 C467 1.428 . S
C473 N472 1.351 . S
C473 C474 1.434 . S
C474 C465 1.429 . S
C474 N471 1.350 . S
C474 C473 1.434 . S
C475 C476 1.369 . S
C475 C477 1.419 . S
C475 H479 0.930 . S
C476 C475 1.369 . S
C476 C485 1.429 . S
C477 C475 1.419 . S
C477 C478 1.363 . S
C477 H480 0.929 . S
C478 C477 1.363 . S
C478 C484 1.428 . S
H479 C475 0.930 . S
H480 C477 0.929 . S
S481 N482 1.613 . S
S481 N483 1.610 . S
N482 S481 1.613 . S
N482 C485 1.350 . S
N483 S481 1.610 . S
N483 C484 1.351 . S
C484 C478 1.428 . S
C484 N483 1.351 . S
C484 C485 1.434 . S
C485 C476 1.429 . S
C485 N482 1.350 . S
C485 C484 1.434 . S
C486 C487 1.369 . S
C486 C488 1.419 . S
C486 H490 0.930 . S
C487 C486 1.369 . S
C487 C496 1.429 . S
C488 C486 1.419 . S
C488 C489 1.363 . S
C488 H491 0.929 . S
C489 C488 1.363 . S
C489 C495 1.428 . S
H490 C486 0.930 . S
H491 C488 0.929 . S
S492 N493 1.613 . S
S492 N494 1.610 . S
N493 S492 1.613 . S
N493 C496 1.350 . S
N494 S492 1.610 . S
N494 C495 1.351 . S
C495 C489 1.428 . S
C495 N494 1.351 . S
C495 C496 1.434 . S
C496 C487 1.429 . S
C496 N493 1.350 . S
C496 C495 1.434 . S
C497 C498 1.369 . S
C497 C499 1.419 . S
C497 H501 0.930 . S
C498 C497 1.369 . S
C498 C507 1.429 . S
C499 C497 1.419 . S
C499 C500 1.363 . S
C499 H502 0.929 . S
C500 C499 1.363 . S
C500 C506 1.428 . S
H501 C497 0.930 . S
H502 C499 0.929 . S
S503 N504 1.613 . S
S503 N505 1.610 . S
N504 S503 1.613 . S
N504 C507 1.350 . S
N505 S503 1.610 . S
N505 C506 1.351 . S
C506 C500 1.428 . S
C506 N505 1.351 . S
C506 C507 1.434 . S
C507 C498 1.429 . S
C507 N504 1.350 . S
C507 C506 1.434 . S
C508 C509 1.369 . S
C508 C510 1.419 . S
C508 H512 0.930 . S
C509 C508 1.369 . S
C509 C518 1.429 . S
C510 C508 1.419 . S
C510 C511 1.363 . S
C510 H513 0.929 . S
C511 C510 1.363 . S
C511 C517 1.428 . S
H512 C508 0.930 . S
H513 C510 0.929 . S
S514 N515 1.613 . S
S514 N516 1.610 . S
N515 S514 1.613 . S
N515 C518 1.350 . S
N516 S514 1.610 . S
N516 C517 1.351 . S
C517 C511 1.428 . S
C517 N516 1.351 . S
C517 C518 1.434 . S
C518 C509 1.429 . S
C518 N515 1.350 . S
C518 C517 1.434 . S
C519 C520 1.369 . S
C519 C521 1.419 . S
C519 H523 0.930 . S
C520 C519 1.369 . S
C520 C529 1.429 . S
C521 C519 1.419 . S
C521 C522 1.363 . S
C521 H524 0.929 . S
C522 C521 1.363 . S
C522 C528 1.428 . S
H523 C519 0.930 . S
H524 C521 0.929 . S
S525 N526 1.613 . S
S525 N527 1.610 . S
N526 S525 1.613 . S
N526 C529 1.350 . S
N527 S525 1.610 . S
N527 C528 1.351 . S
C528 C522 1.428 . S
C528 N527 1.351 . S
C528 C529 1.434 . S
C529 C520 1.429 . S
C529 N526 1.350 . S
C529 C528 1.434 . S
C530 C531 1.369 . S
C530 C532 1.419 . S
C530 H534 0.930 . S
C531 C530 1.369 . S
C531 C540 1.429 . S
C532 C530 1.419 . S
C532 C533 1.363 . S
C532 H535 0.929 . S
C533 C532 1.363 . S
C533 C539 1.428 . S
H534 C530 0.930 . S
H535 C532 0.929 . S
S536 N537 1.613 . S
S536 N538 1.610 . S
N537 S536 1.613 . S
N537 C540 1.350 . S
N538 S536 1.610 . S
N538 C539 1.351 . S
C539 C533 1.428 . S
C539 N538 1.351 . S
C539 C540 1.434 . S
C540 C531 1.429 . S
C540 N537 1.350 . S
C540 C539 1.434 . S
C541 C542 1.369 . S
C541 C543 1.419 . S
C541 H545 0.930 . S
C542 C541 1.369 . S
C542 C551 1.429 . S
C543 C541 1.419 . S
C543 C544 1.363 . S
C543 H546 0.929 . S
C544 C543 1.363 . S
C544 C550 1.429 . S
H545 C541 0.930 . S
H546 C543 0.929 . S
S547 N548 1.613 1_455 S
S547 N549 1.610 . S
N548 S547 1.613 1_655 S
N548 C551 1.350 . S
N549 S547 1.610 . S
N549 C550 1.350 1_455 S
C550 C544 1.429 . S
C550 N549 1.350 1_655 S
C550 C551 1.434 . S
C551 C542 1.429 . S
C551 N548 1.350 . S
C551 C550 1.434 . S
C552 C553 1.369 . S
C552 C554 1.419 . S
C552 H556 0.930 . S
C553 C552 1.369 . S
C553 C562 1.429 . S
C554 C552 1.419 . S
C554 C555 1.363 . S
C554 H557 0.929 . S
C555 C554 1.363 . S
C555 C561 1.428 . S
H556 C552 0.930 . S
H557 C554 0.929 . S
S558 N559 1.613 . S
S558 N560 1.610 . S
N559 S558 1.613 . S
N559 C562 1.350 . S
N560 S558 1.610 . S
N560 C561 1.351 . S
C561 C555 1.428 . S
C561 N560 1.351 . S
C561 C562 1.434 . S
C562 C553 1.429 . S
C562 N559 1.350 . S
C562 C561 1.434 . S
C563 C564 1.369 . S
C563 C565 1.419 . S
C563 H567 0.930 . S
C564 C563 1.369 . S
C564 C573 1.429 . S
C565 C563 1.419 . S
C565 C566 1.363 . S
C565 H568 0.929 . S
C566 C565 1.363 . S
C566 C572 1.428 . S
H567 C563 0.930 . S
H568 C565 0.929 . S
S569 N570 1.613 . S
S569 N571 1.610 . S
N570 S569 1.613 . S
N570 C573 1.350 . S
N571 S569 1.610 . S
N571 C572 1.351 . S
C572 C566 1.428 . S
C572 N571 1.351 . S
C572 C573 1.434 . S
C573 C564 1.429 . S
C573 N570 1.350 . S
C573 C572 1.434 . S
C574 C575 1.369 1_554 S
C574 C576 1.419 . S
C574 H578 0.930 . S
C575 C574 1.369 1_556 S
C575 C584 1.429 . S
C576 C574 1.419 . S
C576 C577 1.363 . S
C576 H579 0.929 . S
C577 C576 1.363 . S
C577 C583 1.428 1_554 S
H578 C574 0.930 . S
H579 C576 0.929 . S
S580 N581 1.613 . S
S580 N582 1.610 1_545 S
N581 S580 1.613 . S
N581 C584 1.350 1_545 S
N582 S580 1.610 1_565 S
N582 C583 1.351 . S
C583 C577 1.428 1_556 S
C583 N582 1.351 . S
C583 C584 1.434 . S
C584 C575 1.429 . S
C584 N581 1.350 1_565 S
C584 C583 1.434 . S
C585 C586 1.369 . S
C585 C587 1.419 . S
C585 H589 0.930 . S
C586 C585 1.369 . S
C586 C595 1.429 . S
C587 C585 1.419 . S
C587 C588 1.363 . S
C587 H590 0.929 . S
C588 C587 1.363 . S
C588 C594 1.428 . S
H589 C585 0.930 . S
H590 C587 0.929 . S
S591 N592 1.613 . S
S591 N593 1.610 . S
N592 S591 1.613 . S
N592 C595 1.350 . S
N593 S591 1.610 . S
N593 C594 1.351 . S
C594 C588 1.428 . S
C594 N593 1.351 . S
C594 C595 1.434 . S
C595 C586 1.429 . S
C595 N592 1.350 . S
C595 C594 1.434 . S
C596 C597 1.369 . S
C596 C598 1.419 . S
C596 H600 0.930 . S
C597 C596 1.369 . S
C597 C606 1.429 . S
C598 C596 1.419 . S
C598 C599 1.363 . S
C598 H601 0.929 . S
C599 C598 1.363 . S
C599 C605 1.428 . S
H600 C596 0.930 . S
H601 C598 0.929 . S
S602 N603 1.613 . S
S602 N604 1.610 . S
N603 S602 1.613 . S
N603 C606 1.350 . S
N604 S602 1.610 . S
N604 C605 1.351 . S
C605 C599 1.428 . S
C605 N604 1.351 . S
C605 C606 1.434 . S
C606 C597 1.429 . S
C606 N603 1.350 . S
C606 C605 1.434 . S
C607 C608 1.369 . S
C607 C609 1.419 . S
C607 H611 0.930 . S
C608 C607 1.369 . S
C608 C617 1.429 . S
C609 C607 1.419 . S
C609 C610 1.363 . S
C609 H612 0.929 . S
C610 C609 1.363 . S
C610 C616 1.428 . S
H611 C607 0.930 . S
H612 C609 0.929 . S
S613 N614 1.613 . S
S613 N615 1.610 . S
N614 S613 1.613 . S
N614 C617 1.350 . S
N615 S613 1.610 . S
N615 C616 1.351 . S
C616 C610 1.428 . S
C616 N615 1.351 . S
C616 C617 1.434 . S
C617 C608 1.429 . S
C617 N614 1.350 . S
C617 C616 1.434 . S
C618 C619 1.369 . S
C618 C620 1.419 . S
C618 H622 0.930 . S
C619 C618 1.369 . S
C619 C628 1.429 . S
C620 C618 1.419 . S
C620 C621 1.363 . S
C620 H623 0.929 . S
C621 C620 1.363 . S
C621 C627 1.428 . S
H622 C618 0.930 . S
H623 C620 0.929 . S
S624 N625 1.613 . S
S624 N626 1.610 1_565 S
N625 S624 1.613 . S
N625 C628 1.350 1_565 S
N626 S624 1.610 1_545 S
N626 C627 1.351 . S
C627 C621 1.428 . S
C627 N626 1.351 . S
C627 C628 1.434 . S
C628 C619 1.429 . S
C628 N625 1.350 1_545 S
C628 C627 1.434 . S
C629 C630 1.369 . S
C629 C631 1.419 . S
C629 H633 0.930 . S
C630 C629 1.369 . S
C630 C639 1.429 . S
C631 C629 1.419 . S
C631 C632 1.363 . S
C631 H634 0.929 . S
C632 C631 1.363 . S
C632 C638 1.428 . S
H633 C629 0.930 . S
H634 C631 0.929 . S
S635 N636 1.613 . S
S635 N637 1.610 . S
N636 S635 1.613 . S
N636 C639 1.350 . S
N637 S635 1.610 . S
N637 C638 1.351 . S
C638 C632 1.428 . S
C638 N637 1.351 . S
C638 C639 1.434 . S
C639 C630 1.429 . S
C639 N636 1.350 . S
C639 C638 1.434 . S
C640 C641 1.369 . S
C640 C642 1.419 . S
C640 H644 0.930 . S
C641 C640 1.369 . S
C641 C650 1.429 . S
C642 C640 1.419 . S
C642 C643 1.363 . S
C642 H645 0.929 . S
C643 C642 1.363 . S
C643 C649 1.428 . S
H644 C640 0.930 . S
H645 C642 0.929 . S
S646 N647 1.613 . S
S646 N648 1.610 . S
N647 S646 1.613 . S
N647 C650 1.350 . S
N648 S646 1.610 . S
N648 C649 1.351 . S
C649 C643 1.428 . S
C649 N648 1.351 . S
C649 C650 1.434 . S
C650 C641 1.429 . S
C650 N647 1.350 . S
C650 C649 1.434 . S
C651 C652 1.369 . S
C651 C653 1.419 . S
C651 H655 0.930 1_545 S
C652 C651 1.369 . S
C652 C661 1.429 . S
C653 C651 1.419 . S
C653 C654 1.363 . S
C653 H656 0.929 1_545 S
C654 C653 1.363 . S
C654 C660 1.428 . S
H655 C651 0.930 1_565 S
H656 C653 0.929 1_565 S
S657 N658 1.613 . S
S657 N659 1.610 . S
N658 S657 1.613 . S
N658 C661 1.350 . S
N659 S657 1.610 . S
N659 C660 1.351 . S
C660 C654 1.428 . S
C660 N659 1.351 . S
C660 C661 1.434 . S
C661 C652 1.429 . S
C661 N658 1.350 . S
C661 C660 1.434 . S
C662 C663 1.369 . S
C662 C664 1.419 . S
C662 H666 0.930 . S
C663 C662 1.369 . S
C663 C672 1.429 . S
C664 C662 1.419 . S
C664 C665 1.363 . S
C664 H667 0.929 . S
C665 C664 1.363 . S
C665 C671 1.428 . S
H666 C662 0.930 . S
H667 C664 0.929 . S
S668 N669 1.613 . S
S668 N670 1.610 . S
N669 S668 1.613 . S
N669 C672 1.350 . S
N670 S668 1.610 . S
N670 C671 1.351 . S
C671 C665 1.428 . S
C671 N670 1.351 . S
C671 C672 1.434 . S
C672 C663 1.429 . S
C672 N669 1.350 . S
C672 C671 1.434 . S
C673 C674 1.369 . S
C673 C675 1.419 . S
C673 H677 0.930 . S
C674 C673 1.369 . S
C674 C683 1.429 . S
C675 C673 1.419 . S
C675 C676 1.363 . S
C675 H678 0.929 . S
C676 C675 1.363 . S
C676 C682 1.428 . S
H677 C673 0.930 . S
H678 C675 0.929 . S
S679 N680 1.613 . S
S679 N681 1.610 . S
N680 S679 1.613 . S
N680 C683 1.350 . S
N681 S679 1.610 . S
N681 C682 1.351 . S
C682 C676 1.428 . S
C682 N681 1.351 . S
C682 C683 1.434 . S
C683 C674 1.429 . S
C683 N680 1.350 . S
C683 C682 1.434 . S
C684 C685 1.369 . S
C684 C686 1.419 . S
C684 H688 0.930 . S
C685 C684 1.369 . S
C685 C694 1.429 . S
C686 C684 1.419 . S
C686 C687 1.363 . S
C686 H689 0.929 . S
C687 C686 1.363 . S
C687 C693 1.428 . S
H688 C684 0.930 . S
H689 C686 0.929 . S
S690 N691 1.613 . S
S690 N692 1.610 . S
N691 S690 1.613 . S
N691 C694 1.350 . S
N692 S690 1.610 . S
N692 C693 1.351 . S
C693 C687 1.428 . S
C693 N692 1.351 . S
C693 C694 1.434 . S
C694 C685 1.429 . S
C694 N691 1.350 . S
C694 C693 1.434 . S
C695 C696 1.375 . S
C695 C697 1.419 . S
C695 H699 0.956 . S
C696 C695 1.375 . S
C696 C705 1.422 1_565 S
C697 C695 1.419 . S
C697 C698 1.363 1_565 S
C697 H700 0.929 . S
C698 C697 1.363 1_545 S
C698 C704 1.428 . S
H699 C695 0.956 . S
H700 C697 0.929 . S
S701 N702 1.613 . S
S701 N703 1.610 . S
N702 S701 1.613 . S
N702 C705 1.350 . S
N703 S701 1.610 . S
N703 C704 1.351 . S
C704 C698 1.428 . S
C704 N703 1.351 . S
C704 C705 1.434 . S
C705 C696 1.422 1_545 S
C705 N702 1.350 . S
C705 C704 1.434 . S
C706 C707 1.369 . S
C706 C708 1.419 . S
C706 H710 0.930 . S
C707 C706 1.369 . S
C707 C716 1.429 . S
C708 C706 1.419 . S
C708 C709 1.363 . S
C708 H711 0.929 . S
C709 C708 1.363 . S
C709 C715 1.428 . S
H710 C706 0.930 . S
H711 C708 0.929 . S
S712 N713 1.613 . S
S712 N714 1.610 . S
N713 S712 1.613 . S
N713 C716 1.350 . S
N714 S712 1.610 . S
N714 C715 1.351 . S
C715 C709 1.428 . S
C715 N714 1.351 . S
C715 C716 1.434 . S
C716 C707 1.429 . S
C716 N713 1.350 . S
C716 C715 1.434 . S
C717 C718 1.369 . S
C717 C719 1.419 . S
C717 H721 0.930 . S
C718 C717 1.369 . S
C718 C727 1.429 . S
C719 C717 1.419 . S
C719 C720 1.363 . S
C719 H722 0.929 . S
C720 C719 1.363 . S
C720 C726 1.428 . S
H721 C717 0.930 . S
H722 C719 0.929 . S
S723 N724 1.613 . S
S723 N725 1.610 1_655 S
N724 S723 1.613 . S
N724 C727 1.350 1_655 S
N725 S723 1.610 1_455 S
N725 C726 1.351 . S
C726 C720 1.428 . S
C726 N725 1.351 . S
C726 C727 1.434 . S
C727 C718 1.429 . S
C727 N724 1.350 1_455 S
C727 C726 1.434 . S
C728 C729 1.369 . S
C728 C730 1.419 . S
C728 H732 0.930 . S
C729 C728 1.369 . S
C729 C738 1.429 . S
C730 C728 1.419 . S
C730 C731 1.363 . S
C730 H733 0.929 . S
C731 C730 1.363 . S
C731 C737 1.428 . S
H732 C728 0.930 . S
H733 C730 0.929 . S
S734 N735 1.613 . S
S734 N736 1.610 . S
N735 S734 1.613 . S
N735 C738 1.350 . S
N736 S734 1.610 . S
N736 C737 1.351 . S
C737 C731 1.428 . S
C737 N736 1.351 . S
C737 C738 1.434 . S
C738 C729 1.429 . S
C738 N735 1.350 . S
C738 C737 1.434 . S
C739 C740 1.369 1_455 S
C739 C741 1.419 . S
C739 H743 0.930 . S
C740 C739 1.369 1_655 S
C740 C749 1.429 1_554 S
C741 C739 1.419 . S
C741 C742 1.367 1_554 S
C741 H744 0.929 . S
C742 C741 1.367 1_556 S
C742 C748 1.419 1_455 S
H743 C739 0.930 . S
H744 C741 0.929 . S
S745 N746 1.613 . S
S745 N747 1.610 . S
N746 S745 1.613 . S
N746 C749 1.350 . S
N747 S745 1.610 . S
N747 C748 1.351 . S
C748 C742 1.419 1_655 S
C748 N747 1.351 . S
C748 C749 1.434 . S
C749 C740 1.429 1_556 S
C749 N746 1.350 . S
C749 C748 1.434 . S
C750 C751 1.369 . S
C750 C752 1.419 . S
C750 H754 0.930 . S
C751 C750 1.369 . S
C751 C760 1.429 . S
C752 C750 1.419 . S
C752 C753 1.363 . S
C752 H755 0.929 . S
C753 C752 1.363 . S
C753 C759 1.428 . S
H754 C750 0.930 . S
H755 C752 0.929 . S
S756 N757 1.613 . S
S756 N758 1.610 . S
N757 S756 1.613 . S
N757 C760 1.350 . S
N758 S756 1.610 . S
N758 C759 1.351 . S
C759 C753 1.428 . S
C759 N758 1.351 . S
C759 C760 1.434 . S
C760 C751 1.429 . S
C760 N757 1.350 . S
C760 C759 1.434 . S
C761 C762 1.368 1_656 S
C761 C763 1.421 . S
C761 H765 0.928 1_556 S
C762 C761 1.368 1_454 S
C762 C771 1.419 1_554 S
C763 C761 1.421 . S
C763 C764 1.363 1_655 S
C763 H766 0.929 . S
C764 C763 1.363 1_455 S
C764 C770 1.428 . S
H765 C761 0.928 1_554 S
H766 C763 0.929 . S
S767 N768 1.613 . S
S767 N769 1.610 . S
N768 S767 1.613 . S
N768 C771 1.350 . S
N769 S767 1.610 . S
N769 C770 1.351 . S
C770 C764 1.428 . S
C770 N769 1.351 . S
C770 C771 1.434 . S
C771 C762 1.419 1_556 S
C771 N768 1.350 . S
C771 C770 1.434 . S
C772 C773 1.369 . S
C772 C774 1.419 . S
C772 H776 0.930 . S
C773 C772 1.369 . S
C773 C782 1.429 . S
C774 C772 1.419 . S
C774 C775 1.363 . S
C774 H777 0.929 . S
C775 C774 1.363 . S
C775 C781 1.428 . S
H776 C772 0.930 . S
H777 C774 0.929 . S
S778 N779 1.613 . S
S778 N780 1.610 . S
N779 S778 1.613 . S
N779 C782 1.350 . S
N780 S778 1.610 . S
N780 C781 1.351 . S
C781 C775 1.428 . S
C781 N780 1.351 . S
C781 C782 1.434 . S
C782 C773 1.429 . S
C782 N779 1.350 . S
C782 C781 1.434 . S
C783 C784 1.369 . S
C783 C785 1.419 . S
C783 H787 0.930 1_554 S
C784 C783 1.369 . S
C784 C793 1.429 . S
C785 C783 1.419 . S
C785 C786 1.363 . S
C785 H788 0.929 . S
C786 C785 1.363 . S
C786 C792 1.428 . S
H787 C783 0.930 1_556 S
H788 C785 0.929 . S
S789 N790 1.613 . S
S789 N791 1.610 . S
N790 S789 1.613 . S
N790 C793 1.350 . S
N791 S789 1.610 . S
N791 C792 1.351 . S
C792 C786 1.428 . S
C792 N791 1.351 . S
C792 C793 1.434 . S
C793 C784 1.429 . S
C793 N790 1.350 . S
C793 C792 1.434 . S
C794 C795 1.369 . S
C794 C796 1.419 . S
C794 H798 0.930 . S
C795 C794 1.369 . S
C795 C804 1.429 . S
C796 C794 1.419 . S
C796 C797 1.363 . S
C796 H799 0.929 . S
C797 C796 1.363 . S
C797 C803 1.428 . S
H798 C794 0.930 . S
H799 C796 0.929 . S
S800 N801 1.613 . S
S800 N802 1.610 . S
N801 S800 1.613 . S
N801 C804 1.350 . S
N802 S800 1.610 . S
N802 C803 1.351 . S
C803 C797 1.428 . S
C803 N802 1.351 . S
C803 C804 1.434 . S
C804 C795 1.429 . S
C804 N801 1.350 . S
C804 C803 1.434 . S
C805 C806 1.369 . S
C805 C807 1.419 . S
C805 H809 0.930 . S
C806 C805 1.369 . S
C806 C815 1.429 . S
C807 C805 1.419 . S
C807 C808 1.363 . S
C807 H810 0.929 . S
C808 C807 1.363 . S
C808 C814 1.428 . S
H809 C805 0.930 . S
H810 C807 0.929 . S
S811 N812 1.613 . S
S811 N813 1.610 . S
N812 S811 1.613 . S
N812 C815 1.350 . S
N813 S811 1.610 . S
N813 C814 1.351 . S
C814 C808 1.428 . S
C814 N813 1.351 . S
C814 C815 1.434 . S
C815 C806 1.429 . S
C815 N812 1.350 . S
C815 C814 1.434 . S
C816 C817 1.369 . S
C816 C818 1.419 . S
C816 H820 0.930 . S
C817 C816 1.369 . S
C817 C826 1.429 . S
C818 C816 1.419 . S
C818 C819 1.363 . S
C818 H821 0.929 . S
C819 C818 1.363 . S
C819 C825 1.428 . S
H820 C816 0.930 . S
H821 C818 0.929 . S
S822 N823 1.613 . S
S822 N824 1.610 . S
N823 S822 1.613 . S
N823 C826 1.350 . S
N824 S822 1.610 . S
N824 C825 1.351 . S
C825 C819 1.428 . S
C825 N824 1.351 . S
C825 C826 1.434 . S
C826 C817 1.429 . S
C826 N823 1.350 . S
C826 C825 1.434 . S
C827 C828 1.369 . S
C827 C829 1.419 . S
C827 H831 0.930 . S
C828 C827 1.369 . S
C828 C837 1.429 . S
C829 C827 1.419 . S
C829 C830 1.363 . S
C829 H832 0.929 . S
C830 C829 1.363 . S
C830 C836 1.428 . S
H831 C827 0.930 . S
H832 C829 0.929 . S
S833 N834 1.613 . S
S833 N835 1.610 . S
N834 S833 1.613 . S
N834 C837 1.350 . S
N835 S833 1.610 . S
N835 C836 1.351 . S
C836 C830 1.428 . S
C836 N835 1.351 . S
C836 C837 1.434 . S
C837 C828 1.429 . S
C837 N834 1.350 . S
C837 C836 1.434 . S
C838 C839 1.369 . S
C838 C840 1.419 . S
C838 H842 0.930 . S
C839 C838 1.369 . S
C839 C848 1.429 . S
C840 C838 1.419 . S
C840 C841 1.363 . S
C840 H843 0.929 . S
C841 C840 1.363 . S
C841 C847 1.428 . S
H842 C838 0.930 . S
H843 C840 0.929 . S
S844 N845 1.613 . S
S844 N846 1.610 . S
N845 S844 1.613 . S
N845 C848 1.350 . S
N846 S844 1.610 . S
N846 C847 1.351 . S
C847 C841 1.428 . S
C847 N846 1.351 . S
C847 C848 1.434 . S
C848 C839 1.429 . S
C848 N845 1.350 . S
C848 C847 1.434 . S
C849 C850 1.369 . S
C849 C851 1.419 . S
C849 H853 0.930 . S
C850 C849 1.369 . S
C850 C859 1.429 . S
C851 C849 1.419 . S
C851 C852 1.363 . S
C851 H854 0.929 . S
C852 C851 1.363 . S
C852 C858 1.428 . S
H853 C849 0.930 . S
H854 C851 0.929 . S
S855 N856 1.613 . S
S855 N857 1.610 . S
N856 S855 1.613 . S
N856 C859 1.350 . S
N857 S855 1.610 . S
N857 C858 1.351 . S
C858 C852 1.428 . S
C858 N857 1.351 . S
C858 C859 1.434 . S
C859 C850 1.429 . S
C859 N856 1.350 . S
C859 C858 1.434 . S
C860 C861 1.369 . S
C860 C862 1.419 . S
C860 H864 0.930 . S
C861 C860 1.369 . S
C861 C870 1.429 1_556 S
C862 C860 1.419 . S
C862 C863 1.363 . S
C862 H865 0.929 . S
C863 C862 1.363 . S
C863 C869 1.428 1_556 S
H864 C860 0.930 . S
H865 C862 0.929 . S
S866 N867 1.613 . S
S866 N868 1.610 . S
N867 S866 1.613 . S
N867 C870 1.350 . S
N868 S866 1.610 . S
N868 C869 1.351 . S
C869 C863 1.428 1_554 S
C869 N868 1.351 . S
C869 C870 1.434 . S
C870 C861 1.429 1_554 S
C870 N867 1.350 . S
C870 C869 1.434 . S
C871 C872 1.369 . S
C871 C873 1.419 . S
C871 H875 0.930 . S
C872 C871 1.369 . S
C872 C881 1.429 . S
C873 C871 1.419 . S
C873 C874 1.363 . S
C873 H876 0.929 . S
C874 C873 1.363 . S
C874 C880 1.428 . S
H875 C871 0.930 . S
H876 C873 0.929 . S
S877 N878 1.613 . S
S877 N879 1.610 . S
N878 S877 1.613 . S
N878 C881 1.350 . S
N879 S877 1.610 . S
N879 C880 1.351 . S
C880 C874 1.428 . S
C880 N879 1.351 . S
C880 C881 1.434 . S
C881 C872 1.429 . S
C881 N878 1.350 . S
C881 C880 1.434 . S
C882 C883 1.369 . S
C882 C884 1.419 . S
C882 H886 0.930 . S
C883 C882 1.369 . S
C883 C892 1.429 . S
C884 C882 1.419 . S
C884 C885 1.363 . S
C884 H887 0.929 . S
C885 C884 1.363 . S
C885 C891 1.428 . S
H886 C882 0.930 . S
H887 C884 0.929 . S
S888 N889 1.613 . S
S888 N890 1.610 . S
N889 S888 1.613 . S
N889 C892 1.350 . S
N890 S888 1.610 . S
N890 C891 1.351 . S
C891 C885 1.428 . S
C891 N890 1.351 . S
C891 C892 1.434 . S
C892 C883 1.429 . S
C892 N889 1.350 . S
C892 C891 1.434 . S
C893 C894 1.369 1_556 S
C893 C895 1.419 . S
C893 H897 0.930 . S
C894 C893 1.369 1_554 S
C894 C903 1.429 . S
C895 C893 1.419 . S
C895 C896 1.363 1_556 S
C895 H898 0.929 . S
C896 C895 1.363 1_554 S
C896 C902 1.428 . S
H897 C893 0.930 . S
H898 C895 0.929 . S
S899 N900 1.613 . S
S899 N901 1.610 . S
N900 S899 1.613 . S
N900 C903 1.350 . S
N901 S899 1.610 . S
N901 C902 1.351 . S
C902 C896 1.428 . S
C902 N901 1.351 . S
C902 C903 1.434 . S
C903 C894 1.429 . S
C903 N900 1.350 . S
C903 C902 1.434 . S
C379 C219 1.318 . S
C377 N66 1.315 . S
C390 C227 1.374 . S
C388 N79 1.555 1_455 S
C399 N92 1.629 . S
C401 C247 1.633 . S
C412 C261 1.364 . S
C410 N54 1.412 . S
C423 C276 1.518 . S
C421 N131 1.506 . S
C434 C290 1.314 . S
C432 N158 1.304 . S
C443 N145 1.570 . S
C445 C304 1.575 . S
C456 C310 1.665 . S
C454 N118 1.666 . S
C465 N148 1.860 . S
C467 C324 1.819 . S
C478 C345 1.582 . S
C476 N122 1.569 . S
C487 N132 1.316 . S
C489 C325 1.115 . S
C500 C346 1.537 . S
C498 N161 1.493 . S
C509 N96 1.735 . S
C511 C353 1.462 . S
C520 N53 1.656 . S
C522 C359 1.666 . S
C531 N67 1.188 . S
C533 C352 1.154 . S
C542 N83 1.381 . S
C544 C360 1.400 1_655 S
C553 N44 1.453 . S
C555 C254 1.427 . S
C564 N187 1.490 . S
C566 C255 1.241 . S
C577 C212 1.253 . S
C575 N197 1.304 1_565 S
C588 C233 1.319 . S
C586 N106 1.345 . S
C597 N57 1.713 1_545 S
C599 C268 1.681 . S
C610 C318 1.474 . S
C608 N144 1.450 . S
C621 C269 1.163 . S
C619 N119 1.385 1_545 S
C632 C297 1.426 . S
C630 N157 1.716 . S
C643 C303 1.321 . S
C641 N183 1.308 . S
C652 N196 1.556 . S
C654 C311 1.365 . S
C663 N105 1.632 . S
C665 C275 1.633 . S
C676 C289 1.360 . S
C674 N171 1.412 . S
C685 N40 1.508 . S
C687 C248 1.519 . S
C698 C262 1.314 . S
C696 N2 1.302 1_565 S
C709 C220 1.575 . S
C707 N15 1.572 . S
C720 C226 1.666 . S
C718 N27 1.664 1_455 S
C729 N18 1.859 . S
C731 C338 1.816 . S
C740 N31 1.565 . S
C742 C331 1.584 1_455 S
C751 N41 1.317 . S
C753 C339 1.128 . S
C762 N5 1.510 . S
C764 C332 1.537 . S
C775 C367 1.475 . S
C773 N109 1.736 . S
C786 C373 1.668 . S
C784 N170 1.657 1_554 S
C797 C366 1.160 . S
C795 N184 1.183 . S
C806 N200 1.383 1_554 S
C808 C374 1.400 . S
C817 N135 1.455 . S
C819 C282 1.425 . S
C830 C283 1.242 . S
C828 N70 1.490 . S
C841 C296 1.244 . S
C839 N80 1.305 . S
C852 C317 1.315 . S
C850 N93 1.346 . S
C861 N174 1.714 . S
C863 C240 1.682 . S
C874 C234 1.476 . S
C872 N14 1.451 . S
C883 N28 1.384 . S
C885 C241 1.148 . S
C896 C213 1.423 . S
C894 N1 1.709 . S
