# Generated by pormake.
# Topology dag, (6,3)-cn, num edge types: 1
# Building blocks:
#     Node 0, Type 0, BuildingBlock: IZENUY_clean_sbu_0, # of connection points: 6
#     Node 1, Type 0, BuildingBlock: IZENUY_clean_sbu_0, # of connection points: 6
#     Node 2, Type 0, BuildingBlock: IZENUY_clean_sbu_0, # of connection points: 6
#     Node 3, Type 0, BuildingBlock: IZENUY_clean_sbu_0, # of connection points: 6
#     Node 4, Type 1, BuildingBlock: BETDIP_clean_linker_0, # of connection points: 3
#     Node 5, Type 1, BuildingBlock: BETDIP_clean_linker_0, # of connection points: 3
#     Node 6, Type 1, BuildingBlock: BETDIP_clean_linker_0, # of connection points: 3
#     Node 7, Type 1, BuildingBlock: BETDIP_clean_linker_0, # of connection points: 3
#     Node 8, Type 1, BuildingBlock: BETDIP_clean_linker_0, # of connection points: 3
#     Node 9, Type 1, BuildingBlock: BETDIP_clean_linker_0, # of connection points: 3
#     Node 10, Type 1, BuildingBlock: BETDIP_clean_linker_0, # of connection points: 3
#     Node 11, Type 1, BuildingBlock: BETDIP_clean_linker_0, # of connection points: 3
#     Edge 12, Type (0, 1), BuildingBlock: ZUJKAS_clean_linker_0, # of connection points: 2
#     Edge 13, Type (0, 1), BuildingBlock: ZUJKAS_clean_linker_0, # of connection points: 2
#     Edge 14, Type (0, 1), BuildingBlock: ZUJKAS_clean_linker_0, # of connection points: 2
#     Edge 15, Type (0, 1), BuildingBlock: ZUJKAS_clean_linker_0, # of connection points: 2
#     Edge 16, Type (0, 1), BuildingBlock: ZUJKAS_clean_linker_0, # of connection points: 2
#     Edge 17, Type (0, 1), BuildingBlock: ZUJKAS_clean_linker_0, # of connection points: 2
#     Edge 18, Type (0, 1), BuildingBlock: ZUJKAS_clean_linker_0, # of connection points: 2
#     Edge 19, Type (0, 1), BuildingBlock: ZUJKAS_clean_linker_0, # of connection points: 2
#     Edge 20, Type (0, 1), BuildingBlock: ZUJKAS_clean_linker_0, # of connection points: 2
#     Edge 21, Type (0, 1), BuildingBlock: ZUJKAS_clean_linker_0, # of connection points: 2
#     Edge 22, Type (0, 1), BuildingBlock: ZUJKAS_clean_linker_0, # of connection points: 2
#     Edge 23, Type (0, 1), BuildingBlock: ZUJKAS_clean_linker_0, # of connection points: 2
#     Edge 24, Type (0, 1), BuildingBlock: ZUJKAS_clean_linker_0, # of connection points: 2
#     Edge 25, Type (0, 1), BuildingBlock: ZUJKAS_clean_linker_0, # of connection points: 2
#     Edge 26, Type (0, 1), BuildingBlock: ZUJKAS_clean_linker_0, # of connection points: 2
#     Edge 27, Type (0, 1), BuildingBlock: ZUJKAS_clean_linker_0, # of connection points: 2
#     Edge 28, Type (0, 1), BuildingBlock: ZUJKAS_clean_linker_0, # of connection points: 2
#     Edge 29, Type (0, 1), BuildingBlock: ZUJKAS_clean_linker_0, # of connection points: 2
#     Edge 30, Type (0, 1), BuildingBlock: ZUJKAS_clean_linker_0, # of connection points: 2
#     Edge 31, Type (0, 1), BuildingBlock: ZUJKAS_clean_linker_0, # of connection points: 2
#     Edge 32, Type (0, 1), BuildingBlock: ZUJKAS_clean_linker_0, # of connection points: 2
#     Edge 33, Type (0, 1), BuildingBlock: ZUJKAS_clean_linker_0, # of connection points: 2
#     Edge 34, Type (0, 1), BuildingBlock: ZUJKAS_clean_linker_0, # of connection points: 2
#     Edge 35, Type (0, 1), BuildingBlock: ZUJKAS_clean_linker_0, # of connection points: 2
# Relax obj value: 0.092
# Max RMSD: 0.098
# Mean RMSD: 0.081
data_MOF--net-dag--node1-IZENUY_clean_sbu_0--node2-BETDIP_clean_linker_0--edge1-ZUJKAS_clean_linker_0
_symmetry_space_group_name_H-M    P1
_symmetry_Int_Tables_number       1
_symmetry_cell_setting            triclinic
loop_
_symmetry_equiv_pos_as_xyz
'x, y, z'
_cell_length_a     52.210675
_cell_length_b     51.269145
_cell_length_c     46.351265
_cell_angle_alpha  86.086801
_cell_angle_beta   90.00059
_cell_angle_gamma 90.087015
loop_
_atom_site_label
_atom_site_type_symbol
_atom_site_fract_x
_atom_site_fract_y
_atom_site_fract_z
_atom_type_partial_charge
Fe0 Fe 0.18367 0.86755 0.9895 0.0
Fe1 Fe 0.12824 0.87787 0.00688 0.0
O2 O 0.15298 0.85563 0.00017 0.0
Fe3 Fe 0.147 0.82155 0.0041 0.0
O4 O 0.17162 0.81703 0.03141 0.0
O5 O 0.20134 0.83993 0.0075 0.0
O6 O 0.18748 0.88426 0.0225 0.0
C7 C 0.17206 0.9012 0.03056 0.0
C8 C 0.17812 0.82768 0.95388 0.0
O9 O 0.14962 0.90281 0.02021 0.0
C10 C 0.10241 0.83833 0.9784 0.0
O11 O 0.17158 0.89729 0.96938 0.0
O12 O 0.1298 0.89223 0.9702 0.0
O13 O 0.169 0.81351 0.97493 0.0
O14 O 0.18184 0.85177 0.95593 0.0
C15 C 0.12017 0.84121 0.05133 0.0
O16 O 0.1023 0.85708 0.99481 0.0
O17 O 0.12178 0.82381 0.97707 0.0
C18 C 0.14963 0.90238 0.95869 0.0
O19 O 0.12511 0.8648 0.04394 0.0
O20 O 0.12396 0.82351 0.03398 0.0
C21 C 0.19473 0.82365 0.02797 0.0
Fe22 Fe 0.68419 0.63362 0.55604 0.0
Fe23 Fe 0.64566 0.6784 0.54377 0.0
O24 O 0.65285 0.64451 0.54681 0.0
Fe25 Fe 0.62865 0.62141 0.54065 0.0
O26 O 0.64117 0.59611 0.56664 0.0
O27 O 0.67282 0.61505 0.58836 0.0
O28 O 0.69108 0.6604 0.57912 0.0
C29 C 0.67628 0.67547 0.5918 0.0
C30 C 0.66891 0.59981 0.51335 0.0
O31 O 0.65484 0.68198 0.58105 0.0
C32 C 0.61891 0.66199 0.49762 0.0
O33 O 0.69761 0.65144 0.52445 0.0
O34 O 0.67755 0.68839 0.53037 0.0
O35 O 0.64651 0.60889 0.51107 0.0
O36 O 0.68296 0.60481 0.53457 0.0
C37 C 0.60179 0.65571 0.5715 0.0
O38 O 0.63589 0.67721 0.50618 0.0
O39 O 0.61159 0.64242 0.51361 0.0
C40 C 0.69504 0.67569 0.51859 0.0
O41 O 0.61249 0.6744 0.55675 0.0
O42 O 0.60934 0.63251 0.56982 0.0
C43 C 0.65554 0.59783 0.58839 0.0
Fe44 Fe 0.85355 0.18354 0.0363 0.0
Fe45 Fe 0.86975 0.12627 0.0352 0.0
O46 O 0.8461 0.14982 0.04138 0.0
Fe47 Fe 0.81498 0.13964 0.05264 0.0
O48 O 0.80062 0.15626 0.02091 0.0
O49 O 0.82123 0.19335 0.02425 0.0
O50 O 0.86157 0.1808 0.99849 0.0
C51 C 0.87828 0.16535 0.9899 0.0
C52 C 0.8252 0.18276 0.08587 0.0
O53 O 0.88587 0.14612 0.00624 0.0
C54 C 0.84415 0.10469 0.08521 0.0
O55 O 0.88721 0.17985 0.04757 0.0
O56 O 0.89052 0.1384 0.06251 0.0
O57 O 0.8094 0.16762 0.07466 0.0
O58 O 0.84623 0.18844 0.07366 0.0
C59 C 0.82831 0.1035 0.01143 0.0
O60 O 0.858 0.10211 0.06315 0.0
O61 O 0.82732 0.1223 0.08512 0.0
C62 C 0.89846 0.16163 0.06243 0.0
O63 O 0.85052 0.11267 0.0074 0.0
O64 O 0.815 0.10973 0.03277 0.0
C65 C 0.80327 0.18028 0.01375 0.0
Fe66 Fe 0.36839 0.37422 0.50263 0.0
Fe67 Fe 0.31337 0.36142 0.48564 0.0
O68 O 0.34447 0.3509 0.49637 0.0
Fe69 Fe 0.35186 0.31715 0.50077 0.0
O70 O 0.36039 0.31941 0.53858 0.0
O71 O 0.38517 0.35368 0.53042 0.0
O72 O 0.34982 0.387 0.53142 0.0
C73 C 0.32736 0.39584 0.52841 0.0
C74 C 0.39594 0.33943 0.47341 0.0
O75 O 0.31377 0.39048 0.50689 0.0
C76 C 0.32305 0.31881 0.45134 0.0
O77 O 0.35621 0.39925 0.47611 0.0
O78 O 0.32556 0.37972 0.45348 0.0
O79 O 0.38534 0.32115 0.48891 0.0
O80 O 0.38824 0.36269 0.47411 0.0
C81 C 0.30165 0.31992 0.52367 0.0
O82 O 0.30755 0.33417 0.46265 0.0
O83 O 0.34401 0.31269 0.46344 0.0
C84 C 0.34232 0.39742 0.45399 0.0
O85 O 0.29898 0.34399 0.51689 0.0
O86 O 0.3197 0.30709 0.51313 0.0
C87 C 0.37756 0.33454 0.54689 0.0
H88 H 0.16559 0.20541 0.1743 0.0
H89 H 0.22686 0.1493 0.17335 0.0
H90 H 0.15613 0.1348 0.13042 0.0
H91 H 0.25062 0.18033 0.19031 0.0
C92 C 0.23813 0.19334 0.20128 0.0
C93 C 0.17308 0.18712 0.16748 0.0
C94 C 0.15787 0.17127 0.15083 0.0
C95 C 0.19802 0.17962 0.17555 0.0
C96 C 0.20789 0.15578 0.16692 0.0
C97 C 0.19301 0.13986 0.14999 0.0
C98 C 0.16806 0.14771 0.14226 0.0
N99 N 0.21191 0.19604 0.19346 0.0
H100 H 0.28084 0.6304 0.69849 0.0
H101 H 0.34192 0.68608 0.70584 0.0
H102 H 0.35641 0.61337 0.66816 0.0
H103 H 0.30818 0.7149 0.70538 0.0
C104 C 0.29466 0.70385 0.71923 0.0
C105 C 0.30067 0.63603 0.6949 0.0
C106 C 0.31771 0.61881 0.68262 0.0
C107 C 0.30907 0.66047 0.70291 0.0
C108 C 0.33495 0.66767 0.69882 0.0
C109 C 0.35222 0.65055 0.68667 0.0
C110 C 0.34337 0.62628 0.67849 0.0
N111 N 0.29137 0.67663 0.71656 0.0
H112 H 0.92262 0.80931 0.28532 0.0
H113 H 0.86599 0.86935 0.29359 0.0
H114 H 0.92129 0.87717 0.22529 0.0
H115 H 0.86489 0.85302 0.33989 0.0
C116 C 0.86694 0.83212 0.33809 0.0
C117 C 0.91452 0.82805 0.27796 0.0
C118 C 0.92446 0.84192 0.25326 0.0
C119 C 0.89381 0.83795 0.29305 0.0
C120 C 0.88268 0.86192 0.28304 0.0
C121 C 0.89235 0.87591 0.25835 0.0
C122 C 0.91335 0.86593 0.24384 0.0
N123 N 0.88369 0.82257 0.31709 0.0
H124 H 0.55899 0.30993 0.7979 0.0
H125 H 0.6198 0.3667 0.7981 0.0
H126 H 0.55897 0.37664 0.73623 0.0
H127 H 0.6219 0.3522 0.84553 0.0
C128 C 0.61988 0.33125 0.84397 0.0
C129 C 0.56762 0.32798 0.78907 0.0
C130 C 0.55598 0.34239 0.76577 0.0
C131 C 0.59022 0.33695 0.80145 0.0
C132 C 0.6017 0.3602 0.78975 0.0
C133 C 0.59056 0.37455 0.76615 0.0
C134 C 0.56761 0.36562 0.75449 0.0
N135 N 0.6017 0.32149 0.82457 0.0
H136 H 0.65628 0.3059 0.3414 0.0
H137 H 0.7165 0.36306 0.3459 0.0
H138 H 0.64153 0.37927 0.37773 0.0
H139 H 0.74238 0.33132 0.33483 0.0
C140 C 0.73129 0.31685 0.32422 0.0
C141 C 0.66287 0.32477 0.34762 0.0
C142 C 0.64566 0.34191 0.35975 0.0
C143 C 0.6885 0.33196 0.34278 0.0
C144 C 0.69703 0.35676 0.35016 0.0
C145 C 0.67999 0.37406 0.36241 0.0
C146 C 0.65449 0.36635 0.36731 0.0
N147 N 0.70452 0.31414 0.3291 0.0
H148 H 0.0583 0.18886 0.73758 0.0
H149 H 0.11604 0.12894 0.73899 0.0
H150 H 0.052 0.1208 0.7968 0.0
H151 H 0.12267 0.14519 0.69335 0.0
C152 C 0.12062 0.16612 0.69493 0.0
C153 C 0.06553 0.1701 0.74618 0.0
C154 C 0.052 0.15567 0.76807 0.0
C155 C 0.08831 0.1604 0.73505 0.0
C156 C 0.09804 0.13628 0.74663 0.0
C157 C 0.08483 0.1217 0.76865 0.0
C158 C 0.06178 0.13149 0.77906 0.0
N159 N 0.10159 0.1759 0.71326 0.0
H160 H 0.42866 0.69212 0.25585 0.0
H161 H 0.37569 0.63032 0.24016 0.0
H162 H 0.43087 0.61986 0.30871 0.0
H163 H 0.38013 0.65045 0.19252 0.0
C164 C 0.37714 0.67036 0.19846 0.0
C165 C 0.42165 0.67245 0.26105 0.0
C166 C 0.43246 0.65701 0.28408 0.0
C167 C 0.40149 0.66283 0.24484 0.0
C168 C 0.39174 0.6376 0.25205 0.0
C169 C 0.40227 0.62193 0.2751 0.0
C170 C 0.42273 0.63177 0.29079 0.0
N171 N 0.39033 0.67952 0.22259 0.0
H172 H 0.77888 0.85129 0.87056 0.0
H173 H 0.83765 0.79347 0.86161 0.0
H174 H 0.85107 0.85795 0.91395 0.0
H175 H 0.80453 0.76814 0.85075 0.0
C176 C 0.79146 0.7813 0.83878 0.0
C177 C 0.79776 0.84366 0.87596 0.0
C178 C 0.81383 0.85703 0.8942 0.0
C179 C 0.80581 0.82031 0.86476 0.0
C180 C 0.83068 0.81083 0.87103 0.0
C181 C 0.84701 0.82415 0.88912 0.0
C182 C 0.83828 0.84704 0.9008 0.0
N183 N 0.78891 0.80762 0.84616 0.0
H184 H 0.14423 0.94123 0.05013 0.0
H185 H 0.15929 0.97705 0.07745 0.0
H186 H 0.23505 0.94357 0.08147 0.0
H187 H 0.2202 0.90757 0.0534 0.0
H188 H 0.18168 0.9777 0.13182 0.0
H189 H 0.24731 0.01774 0.04481 0.0
H190 H 0.22356 0.99319 0.03844 0.0
H191 H 0.25207 0.98441 0.05842 0.0
C192 C 0.1641 0.94131 0.05684 0.0
C193 C 0.18108 0.92166 0.04923 0.0
C194 C 0.17266 0.9618 0.07259 0.0
C195 C 0.19835 0.96315 0.08117 0.0
C196 C 0.21524 0.94311 0.07462 0.0
H197 H 0.21822 0.10142 0.18295 0.0
H198 H 0.22762 0.0569 0.16959 0.0
C199 C 0.20668 0.92252 0.0587 0.0
C200 C 0.20707 0.98632 0.09589 0.0
H201 H 0.23965 0.04375 0.08344 0.0
C202 C 0.1948 0.99196 0.12166 0.0
C203 C 0.22417 0.00481 0.08245 0.0
C204 C 0.2375 -3e-05 0.05442 0.0
C205 C 0.19764 0.01638 0.13323 0.0
C206 C 0.2137 0.03542 0.11894 0.0
C207 C 0.22745 0.02905 0.09436 0.0
C208 C 0.21285 0.06315 0.12604 0.0
C209 C 0.18181 0.02226 0.15926 0.0
C210 C 0.20288 0.08177 0.10547 0.0
C211 C 0.19787 0.10714 0.11287 0.0
C212 C 0.20263 0.11442 0.14105 0.0
C213 C 0.21431 0.09633 0.16108 0.0
C214 C 0.21946 0.07085 0.15358 0.0
H215 H 0.16748 0.00671 0.16497 0.0
H216 H 0.1946 0.02393 0.17816 0.0
H217 H 0.17153 0.04111 0.15528 0.0
H218 H 0.19776 0.07631 0.08403 0.0
H219 H 0.18932 0.12081 0.09682 0.0
H220 H 0.57435 0.62065 0.6063 0.0
H221 H 0.53385 0.62809 0.63081 0.0
H222 H 0.53554 0.70918 0.59942 0.0
H223 H 0.57603 0.70198 0.57458 0.0
H224 H 0.52027 0.66575 0.67295 0.0
H225 H 0.4669 0.67981 0.56892 0.0
H226 H 0.4983 0.66513 0.57113 0.0
H227 H 0.49484 0.69978 0.57305 0.0
C228 C 0.56622 0.64012 0.60468 0.0
C229 C 0.57829 0.66065 0.58816 0.0
C230 C 0.54313 0.64434 0.61881 0.0
C231 C 0.53163 0.66909 0.61661 0.0
C232 C 0.54401 0.68987 0.60105 0.0
H233 H 0.37183 0.69709 0.66382 0.0
H234 H 0.41655 0.70668 0.65064 0.0
C235 C 0.56716 0.6857 0.58694 0.0
C236 C 0.50606 0.6726 0.62949 0.0
H237 H 0.44299 0.68007 0.61166 0.0
C238 C 0.50337 0.66919 0.65963 0.0
C239 C 0.48413 0.67728 0.61201 0.0
C240 C 0.48597 0.68057 0.57946 0.0
C241 C 0.47915 0.66961 0.67273 0.0
C242 C 0.45709 0.67295 0.65514 0.0
C243 C 0.45993 0.67755 0.62511 0.0
C244 C 0.43088 0.66889 0.66687 0.0
C245 C 0.47741 0.66616 0.70525 0.0
C246 C 0.42419 0.64462 0.68065 0.0
C247 C 0.39881 0.63917 0.68825 0.0
C248 C 0.37951 0.65778 0.68195 0.0
C249 C 0.38633 0.68246 0.66914 0.0
C250 C 0.41182 0.68791 0.66151 0.0
H251 H 0.49512 0.67316 0.71558 0.0
H252 H 0.46075 0.67682 0.71354 0.0
H253 H 0.4752 0.64507 0.71188 0.0
H254 H 0.43843 0.62943 0.68442 0.0
H255 H 0.39416 0.62007 0.69836 0.0
H256 H 0.81103 0.09617 0.13104 0.0
H257 H 0.81369 0.06165 0.17032 0.0
H258 H 0.88416 0.03433 0.13448 0.0
H259 H 0.88177 0.06854 0.09544 0.0
H260 H 0.81498 0.00716 0.16285 0.0
H261 H 0.90106 0.03873 0.22077 0.0
H262 H 0.88298 0.06066 0.19633 0.0
H263 H 0.90611 0.03872 0.18247 0.0
C264 C 0.82724 0.08299 0.13174 0.0
C265 C 0.84615 0.08504 0.11004 0.0
C266 C 0.82871 0.06331 0.15417 0.0
C267 C 0.8493 0.04571 0.1555 0.0
C268 C 0.86837 0.04803 0.13417 0.0
H269 H 0.87879 0.88978 0.2028 0.0
H270 H 0.86351 0.93225 0.18292 0.0
C271 C 0.86684 0.06749 0.11171 0.0
C272 C 0.85023 0.02356 0.17768 0.0
H273 H 0.89061 0.99272 0.22675 0.0
C274 C 0.8312 0.00423 0.17733 0.0
C275 C 0.87117 0.01997 0.19688 0.0
C276 C 0.89136 0.04076 0.1994 0.0
C277 C 0.83364 0.98049 0.19403 0.0
C278 C 0.85578 0.97596 0.21121 0.0
C279 C 0.87376 0.99611 0.21332 0.0
C280 C 0.86226 0.94961 0.22418 0.0
C281 C 0.81294 0.9601 0.19237 0.0
C282 C 0.86678 0.94532 0.25399 0.0
C283 C 0.87563 0.92098 0.26542 0.0
C284 C 0.8805 0.90082 0.24709 0.0
C285 C 0.87537 0.90505 0.21739 0.0
C286 C 0.86638 0.92921 0.20606 0.0
H287 H 0.79417 0.96921 0.18658 0.0
H288 H 0.81796 0.94681 0.17532 0.0
H289 H 0.81094 0.94823 0.21321 0.0
H290 H 0.86396 0.96093 0.26827 0.0
H291 H 0.87961 0.91826 0.28837 0.0
H292 H 0.41713 0.36175 0.56838 0.0
H293 H 0.44193 0.35115 0.61194 0.0
H294 H 0.39481 0.28325 0.63204 0.0
H295 H 0.36956 0.29362 0.58785 0.0
H296 H 0.40744 0.32086 0.6803 0.0
H297 H 0.49088 0.28406 0.62128 0.0
H298 H 0.47749 0.31391 0.60521 0.0
H299 H 0.45872 0.28443 0.60677 0.0
C300 C 0.41186 0.34454 0.58194 0.0
C301 C 0.39145 0.32839 0.57441 0.0
C302 C 0.42614 0.33852 0.60685 0.0
C303 C 0.42036 0.31629 0.62491 0.0
C304 C 0.39959 0.30042 0.61816 0.0
H305 H 0.54476 0.29295 0.7505 0.0
H306 H 0.50808 0.27949 0.72193 0.0
C307 C 0.38524 0.30637 0.59296 0.0
C308 C 0.43663 0.31012 0.65054 0.0
H309 H 0.49931 0.29958 0.66804 0.0
C310 C 0.42738 0.31551 0.6779 0.0
C311 C 0.46248 0.30276 0.64737 0.0
C312 C 0.473 0.29571 0.61861 0.0
C313 C 0.44397 0.31585 0.70175 0.0
C314 C 0.47042 0.31111 0.69786 0.0
C315 C 0.4791 0.30345 0.67105 0.0
C316 C 0.4899 0.3175 0.7196 0.0
C317 C 0.43317 0.32224 0.7306 0.0
C318 C 0.49167 0.34318 0.72815 0.0
C319 C 0.51249 0.35085 0.74443 0.0
C320 C 0.53216 0.33307 0.75229 0.0
C321 C 0.5298 0.30702 0.74493 0.0
C322 C 0.50891 0.29934 0.72856 0.0
H323 H 0.41301 0.31547 0.73298 0.0
H324 H 0.44463 0.31318 0.7488 0.0
H325 H 0.43327 0.34376 0.73202 0.0
H326 H 0.47764 0.35774 0.72094 0.0
H327 H 0.51367 0.37099 0.75002 0.0
H328 H 0.71303 0.57101 0.5162 0.0
H329 H 0.72544 0.5362 0.48553 0.0
H330 H 0.65696 0.54956 0.4347 0.0
H331 H 0.6444 0.58448 0.46509 0.0
H332 H 0.6954 0.49166 0.48008 0.0
H333 H 0.71287 0.54325 0.37301 0.0
H334 H 0.71274 0.55982 0.4062 0.0
H335 H 0.68306 0.552 0.38905 0.0
C336 C 0.70077 0.56684 0.49823 0.0
C337 C 0.6776 0.58042 0.49323 0.0
C338 C 0.70795 0.54697 0.48071 0.0
C339 C 0.6923 0.54055 0.45766 0.0
C340 C 0.66958 0.55459 0.45203 0.0
H341 H 0.65537 0.42051 0.35205 0.0
H342 H 0.66447 0.4616 0.37363 0.0
C343 C 0.66232 0.57438 0.4696 0.0
C344 C 0.69808 0.51735 0.44151 0.0
H345 H 0.70467 0.49703 0.37333 0.0
C346 C 0.69799 0.49279 0.45681 0.0
C347 C 0.70142 0.519 0.41119 0.0
C348 C 0.70279 0.54496 0.3939 0.0
C349 C 0.69942 0.46967 0.44239 0.0
C350 C 0.70165 0.47125 0.41187 0.0
C351 C 0.70304 0.49588 0.39671 0.0
C352 C 0.69908 0.44772 0.39526 0.0
C353 C 0.69681 0.4438 0.4598 0.0
C354 C 0.71615 0.42662 0.39924 0.0
C355 C 0.7108 0.40291 0.38717 0.0
C356 C 0.68839 0.40011 0.37084 0.0
C357 C 0.6725 0.42196 0.36504 0.0
C358 C 0.67778 0.44551 0.37717 0.0
H359 H 0.69049 0.44626 0.48235 0.0
H360 H 0.68284 0.43096 0.44954 0.0
H361 H 0.71562 0.43375 0.46074 0.0
H362 H 0.73298 0.42813 0.41268 0.0
H363 H 0.72341 0.38642 0.39191 0.0
H364 H 0.91645 0.13724 0.96695 0.0
H365 H 0.94062 0.14775 0.92284 0.0
H366 H 0.89501 0.21697 0.90492 0.0
H367 H 0.87043 0.20667 0.94955 0.0
H368 H 0.90541 0.18156 0.85557 0.0
H369 H 0.99171 0.21238 0.91404 0.0
H370 H 0.97788 0.18232 0.92902 0.0
H371 H 0.96 0.21221 0.92973 0.0
C372 C 0.91138 0.15471 0.95373 0.0
C373 C 0.89163 0.17127 0.962 0.0
C374 C 0.92529 0.16068 0.92851 0.0
C375 C 0.9198 0.18329 0.91095 0.0
C376 C 0.89959 0.19952 0.91841 0.0
H377 H 0.04346 0.20511 0.78488 0.0
H378 H 0.00752 0.21961 0.81377 0.0
C379 C 0.88562 0.1936 0.94387 0.0
C380 C 0.93579 0.18957 0.88511 0.0
H381 H 0.99845 0.19812 0.86634 0.0
C382 C 0.92564 0.18586 0.85769 0.0
C383 C 0.96202 0.19568 0.88791 0.0
C384 C 0.97356 0.20114 0.91674 0.0
C385 C 0.94162 0.18587 0.83328 0.0
C386 C 0.96835 0.18924 0.83667 0.0
C387 C 0.97802 0.1953 0.86369 0.0
C388 C 0.98703 0.18285 0.81409 0.0
C389 C 0.92982 0.18135 0.80435 0.0
C390 C 0.98716 0.15762 0.80409 0.0
C391 C 0.00755 0.14938 0.78755 0.0
C392 C 0.0284 0.16609 0.78092 0.0
C393 C 0.02758 0.19186 0.78948 0.0
C394 C 0.0071 0.20014 0.80605 0.0
H395 H 0.91008 0.1894 0.80284 0.0
H396 H 0.94142 0.19041 0.78624 0.0
H397 H 0.92849 0.16001 0.80189 0.0
H398 H 0.97229 0.14368 0.81055 0.0
H399 H 0.00755 0.12949 0.78101 0.0
H400 H 0.31349 0.40358 0.40405 0.0
H401 H 0.31671 0.4392 0.36587 0.0
H402 H 0.37896 0.47308 0.41172 0.0
H403 H 0.37596 0.43805 0.44965 0.0
H404 H 0.3369 0.50803 0.39435 0.0
H405 H 0.37642 0.45294 0.30483 0.0
H406 H 0.34876 0.44006 0.32426 0.0
H407 H 0.37912 0.44085 0.34223 0.0
C408 C 0.32793 0.41856 0.40589 0.0
C409 C 0.34437 0.41801 0.43002 0.0
C410 C 0.32979 0.43881 0.38403 0.0
C411 C 0.34811 0.45868 0.38602 0.0
C412 C 0.36466 0.45794 0.40984 0.0
H413 H 0.42805 0.57671 0.29034 0.0
H414 H 0.41037 0.53612 0.31285 0.0
C415 C 0.36288 0.43784 0.43153 0.0
C416 C 0.34996 0.48098 0.3641 0.0
H417 H 0.37404 0.49869 0.2971 0.0
C418 C 0.34454 0.50603 0.37285 0.0
C419 C 0.3601 0.47817 0.33622 0.0
C420 C 0.3666 0.45162 0.32614 0.0
C421 C 0.35014 0.52851 0.355 0.0
C422 C 0.36107 0.5258 0.32742 0.0
C423 C 0.36548 0.50067 0.31816 0.0
C424 C 0.37091 0.54881 0.30967 0.0
C425 C 0.34581 0.55498 0.36659 0.0
C426 C 0.35451 0.56906 0.29945 0.0
C427 C 0.3646 0.59245 0.28685 0.0
C428 C 0.39126 0.59588 0.28415 0.0
C429 C 0.40746 0.57485 0.29263 0.0
C430 C 0.39738 0.55156 0.30526 0.0
H431 H 0.34154 0.55352 0.39013 0.0
H432 H 0.36289 0.56768 0.36276 0.0
H433 H 0.32932 0.56464 0.35521 0.0
H434 H 0.33398 0.56717 0.30226 0.0
H435 H 0.35161 0.60829 0.28059 0.0
H436 H 0.05854 0.86695 0.9748 0.0
H437 H 0.01813 0.85589 0.95249 0.0
H438 H 0.0511 0.78466 0.92489 0.0
H439 H 0.09193 0.79546 0.94759 0.0
H440 H 0.00759 0.84596 0.89418 0.0
H441 H 0.98606 0.76053 0.97126 0.0
H442 H 0.0102 0.7844 0.9787 0.0
H443 H 0.01629 0.76091 0.95258 0.0
C444 C 0.05734 0.84891 0.96399 0.0
C445 C 0.07845 0.83196 0.96324 0.0
C446 C 0.0342 0.84267 0.95116 0.0
C447 C 0.03156 0.81934 0.93733 0.0
C448 C 0.05269 0.80259 0.93583 0.0
H449 H 0.8821 0.8081 0.85004 0.0
H450 H 0.92802 0.80069 0.85812 0.0
C451 C 0.076 0.80886 0.94868 0.0
C452 C 0.0063 0.81283 0.9252 0.0
H453 H 0.95357 0.77449 0.93886 0.0
C454 C 0.99589 0.83002 0.90347 0.0
C455 C 0.99115 0.7921 0.93759 0.0
C456 C 0.0013 0.77343 0.96145 0.0
C457 C 0.97025 0.82795 0.89487 0.0
C458 C 0.95477 0.80781 0.90804 0.0
C459 C 0.96557 0.78977 0.9287 0.0
C460 C 0.92666 0.80754 0.90365 0.0
C461 C 0.95951 0.84842 0.87322 0.0
C462 C 0.91054 0.81241 0.92688 0.0
C463 C 0.88437 0.81634 0.92242 0.0
C464 C 0.8738 0.81549 0.89461 0.0
C465 C 0.88968 0.80884 0.87172 0.0
C466 C 0.91594 0.80485 0.87624 0.0
H467 H 0.97293 0.86504 0.86878 0.0
H468 H 0.9557 0.83946 0.85252 0.0
H469 H 0.94113 0.85618 0.88109 0.0
H470 H 0.91841 0.81443 0.94825 0.0
H471 H 0.87254 0.82099 0.94056 0.0
H472 H 0.84769 0.08993 0.95987 0.0
H473 H 0.83785 0.05077 0.93476 0.0
H474 H 0.78081 0.0285 0.99917 0.0
H475 H 0.79003 0.06798 0.02397 0.0
H476 H 0.84618 0.00306 0.95856 0.0
H477 H 0.74421 0.01064 0.92638 0.0
H478 H 0.76243 0.03836 0.93709 0.0
H479 H 0.74896 0.01535 0.96401 0.0
C480 C 0.83266 0.07698 0.96836 0.0
C481 C 0.81978 0.08195 0.99404 0.0
C482 C 0.82702 0.05464 0.95394 0.0
C483 C 0.80846 0.03677 0.96494 0.0
C484 C 0.79478 0.04226 0.98988 0.0
H485 H 0.81644 0.87114 0.94963 0.0
H486 H 0.81177 0.91516 0.96628 0.0
C487 C 0.80023 0.06478 0.00417 0.0
C488 C 0.80593 0.01096 0.95258 0.0
H489 H 0.76302 0.96779 0.92684 0.0
C490 C 0.82802 0.99552 0.95133 0.0
C491 C 0.78227 0.00115 0.94301 0.0
C492 C 0.75817 0.01735 0.94239 0.0
C493 C 0.82704 0.97035 0.94146 0.0
C494 C 0.8032 0.96003 0.93324 0.0
C495 C 0.78118 0.97565 0.93362 0.0
C496 C 0.8012 0.93295 0.92431 0.0
C497 C 0.85163 0.95502 0.93984 0.0
C498 C 0.79536 0.92821 0.89558 0.0
C499 C 0.79781 0.903 0.88607 0.0
C500 C 0.80621 0.88232 0.9052 0.0
C501 C 0.81025 0.88684 0.9344 0.0
C502 C 0.80761 0.91192 0.94391 0.0
H503 H 0.86873 0.96796 0.9397 0.0
H504 H 0.85301 0.94091 0.95902 0.0
H505 H 0.85208 0.94384 0.92015 0.0
H506 H 0.79031 0.94423 0.88018 0.0
H507 H 0.79469 0.90002 0.86342 0.0
H508 H 0.42215 0.37281 0.43547 0.0
H509 H 0.46237 0.3645 0.41082 0.0
H510 H 0.46315 0.28556 0.44939 0.0
H511 H 0.4229 0.29364 0.47427 0.0
H512 H 0.50849 0.31457 0.45729 0.0
H513 H 0.47892 0.31984 0.34224 0.0
H514 H 0.46768 0.34674 0.36164 0.0
H515 H 0.45645 0.31421 0.37168 0.0
C516 C 0.43071 0.35359 0.43851 0.0
C517 C 0.41939 0.33394 0.45698 0.0
C518 C 0.45357 0.34881 0.4242 0.0
C519 C 0.46549 0.32431 0.42801 0.0
C520 C 0.45408 0.30451 0.44601 0.0
H521 H 0.62635 0.29507 0.3824 0.0
H522 H 0.58182 0.28534 0.39622 0.0
C523 C 0.43112 0.30921 0.46023 0.0
C524 C 0.49104 0.32034 0.41531 0.0
H525 H 0.52381 0.32503 0.3515 0.0
C526 C 0.51188 0.31633 0.43415 0.0
C527 C 0.49524 0.32264 0.38514 0.0
C528 C 0.47336 0.32585 0.36395 0.0
C529 C 0.53708 0.31625 0.4237 0.0
C530 C 0.5414 0.31966 0.39353 0.0
C531 C 0.52042 0.32239 0.37461 0.0
C532 C 0.56751 0.32357 0.38156 0.0
C533 C 0.55888 0.31418 0.44515 0.0
C534 C 0.57387 0.34774 0.36738 0.0
C535 C 0.59908 0.35319 0.35915 0.0
C536 C 0.61848 0.33459 0.36501 0.0
C537 C 0.61183 0.3098 0.37766 0.0
C538 C 0.58647 0.3043 0.38581 0.0
H539 H 0.55232 0.3167 0.4676 0.0
H540 H 0.56782 0.29459 0.44477 0.0
H541 H 0.57379 0.3291 0.43943 0.0
H542 H 0.55948 0.36282 0.36371 0.0
H543 H 0.60352 0.37227 0.34885 0.0
H544 H 0.18696 0.93382 0.9331 0.0
H545 H 0.18137 0.96928 0.89547 0.0
H546 H 0.1005 0.95259 0.89237 0.0
H547 H 0.10583 0.91706 0.92971 0.0
H548 H 0.12514 0.96177 0.83668 0.0
H549 H 0.14584 0.03917 0.91213 0.0
H550 H 0.16941 0.01382 0.91014 0.0
H551 H 0.1383 0.00597 0.92478 0.0
C552 C 0.168 0.93757 0.9243 0.0
C553 C 0.14679 0.92276 0.93466 0.0
C554 C 0.16485 0.95789 0.90288 0.0
C555 C 0.14048 0.96372 0.89147 0.0
C556 C 0.11946 0.94843 0.90101 0.0
H557 H 0.05916 0.07623 0.78332 0.0
H558 H 0.07558 0.03713 0.8101 0.0
C559 C 0.12255 0.92819 0.92243 0.0
C560 C 0.13648 0.98632 0.87034 0.0
H561 H 0.13535 0.05301 0.86428 0.0
C562 C 0.12757 0.98174 0.84257 0.0
C563 C 0.13978 0.0123 0.87812 0.0
C564 C 0.14869 0.01829 0.90795 0.0
C565 C 0.12147 0.00253 0.82247 0.0
C566 C 0.12384 0.02852 0.83062 0.0
C567 C 0.13357 0.03307 0.85807 0.0
C568 C 0.11461 0.05123 0.81199 0.0
C569 C 0.11248 0.99645 0.79272 0.0
C570 C 0.13101 0.07232 0.80441 0.0
C571 C 0.12157 0.09489 0.78942 0.0
C572 C 0.0955 0.09684 0.78195 0.0
C573 C 0.07929 0.0754 0.78896 0.0
C574 C 0.08872 0.0529 0.80394 0.0
H575 H 0.11966 0.97714 0.78679 0.0
H576 H 0.09124 0.99571 0.79251 0.0
H577 H 0.11887 0.01166 0.77605 0.0
H578 H 0.15101 0.07153 0.81066 0.0
H579 H 0.13448 0.11117 0.78468 0.0
H580 H 0.6187 0.70801 0.46298 0.0
H581 H 0.59289 0.71777 0.41913 0.0
H582 H 0.56261 0.6393 0.42643 0.0
H583 H 0.58818 0.62937 0.46958 0.0
H584 H 0.57754 0.65769 0.36922 0.0
H585 H 0.51348 0.72672 0.42273 0.0
H586 H 0.54751 0.7324 0.42326 0.0
H587 H 0.53431 0.70442 0.44335 0.0
C588 C 0.6067 0.69282 0.45502 0.0
C589 C 0.60525 0.66801 0.46997 0.0
C590 C 0.59192 0.69845 0.43009 0.0
C591 C 0.57567 0.67931 0.41976 0.0
C592 C 0.575 0.65435 0.43406 0.0
H593 H 0.437 0.65346 0.34277 0.0
H594 H 0.47392 0.66507 0.37153 0.0
C595 C 0.58956 0.64877 0.45886 0.0
C596 C 0.5582 0.68493 0.39494 0.0
H597 H 0.50009 0.71241 0.37825 0.0
C598 C 0.56091 0.67017 0.37072 0.0
C599 C 0.5365 0.70113 0.3972 0.0
C600 C 0.53252 0.71706 0.42302 0.0
C601 C 0.54163 0.66976 0.34965 0.0
C602 C 0.51924 0.68484 0.35274 0.0
C603 C 0.51733 0.70096 0.37594 0.0
C604 C 0.49613 0.68087 0.33497 0.0
C605 C 0.5445 0.65165 0.3255 0.0
C606 C 0.4961 0.68653 0.30489 0.0
C607 C 0.47501 0.67965 0.2883 0.0
C608 C 0.4537 0.66703 0.30159 0.0
C609 C 0.45335 0.66267 0.33185 0.0
C610 C 0.47434 0.66951 0.34834 0.0
H611 H 0.56143 0.63866 0.32855 0.0
H612 H 0.52713 0.6393 0.32392 0.0
H613 H 0.54677 0.6634 0.30465 0.0
H614 H 0.51261 0.69562 0.29421 0.0
H615 H 0.47579 0.68328 0.26502 0.0
H616 H 0.28207 0.42291 0.52588 0.0
H617 H 0.26895 0.45794 0.55604 0.0
H618 H 0.33872 0.44813 0.60533 0.0
H619 H 0.35189 0.41298 0.57567 0.0
H620 H 0.29334 0.4559 0.63921 0.0
H621 H 0.30486 0.53006 0.54637 0.0
H622 H 0.28381 0.50297 0.54127 0.0
H623 H 0.31755 0.4974 0.54567 0.0
C624 C 0.29453 0.42803 0.5433 0.0
C625 C 0.31822 0.41539 0.54809 0.0
C626 C 0.287 0.44807 0.56046 0.0
C627 C 0.30305 0.4558 0.58259 0.0
C628 C 0.32611 0.44245 0.58827 0.0
H629 H 0.34103 0.57161 0.69257 0.0
H630 H 0.33074 0.53092 0.67079 0.0
C631 C 0.33365 0.42244 0.57119 0.0
C632 C 0.29694 0.47888 0.59875 0.0
H633 H 0.29636 0.54552 0.59167 0.0
C634 C 0.29358 0.47551 0.62881 0.0
C635 C 0.29709 0.50439 0.58503 0.0
C636 C 0.30117 0.50912 0.55285 0.0
C637 C 0.29142 0.49708 0.64571 0.0
C638 C 0.29316 0.5226 0.6322 0.0
C639 C 0.295 0.52593 0.60196 0.0
C640 C 0.29661 0.54593 0.64894 0.0
C641 C 0.28789 0.49235 0.67794 0.0
C642 C 0.28085 0.56794 0.64393 0.0
C643 C 0.28689 0.59139 0.65616 0.0
C644 C 0.30896 0.59321 0.67326 0.0
C645 C 0.32402 0.5708 0.67927 0.0
C646 C 0.31796 0.54744 0.66714 0.0
H647 H 0.27782 0.47354 0.68336 0.0
H648 H 0.30696 0.49117 0.68851 0.0
H649 H 0.27689 0.50839 0.68703 0.0
H650 H 0.26444 0.56724 0.62969 0.0
H651 H 0.27507 0.60842 0.651 0.0
H652 H 0.09849 0.87525 0.08694 0.0
H653 H 0.07111 0.8649 0.12856 0.0
H654 H 0.0828 0.78249 0.11996 0.0
H655 H 0.10965 0.79274 0.07735 0.0
H656 H 0.03429 0.79173 0.12507 0.0
H657 H 0.0827 0.84183 0.21096 0.0
H658 H 0.07821 0.86464 0.1804 0.0
H659 H 0.09835 0.83639 0.17717 0.0
C660 C 0.09565 0.8549 0.09412 0.0
C661 C 0.10618 0.83481 0.0787 0.0
C662 C 0.08014 0.849 0.11819 0.0
C663 C 0.07525 0.82291 0.12784 0.0
C664 C 0.08643 0.80278 0.11306 0.0
H665 H 0.96852 0.81878 0.2749 0.0
H666 H 0.00629 0.80636 0.24752 0.0
C667 C 0.10175 0.80867 0.0887 0.0
C668 C 0.05618 0.81699 0.15116 0.0
H669 H 0.036 0.83795 0.2156 0.0
C670 C 0.03499 0.80132 0.1452 0.0
C671 C 0.05727 0.82879 0.17786 0.0
C672 C 0.08056 0.84357 0.18706 0.0
C673 C 0.01393 0.7991 0.164 0.0
C674 C 0.01372 0.81358 0.18891 0.0
C675 C 0.03585 0.82728 0.19619 0.0
C676 C 0.98991 0.81749 0.20557 0.0
C677 C 0.99186 0.78178 0.15648 0.0
C678 C 0.96809 0.8276 0.19113 0.0
C679 C 0.94651 0.83437 0.20662 0.0
C680 C 0.94639 0.83171 0.237 0.0
C681 C 0.96795 0.82087 0.2515 0.0
C682 C 0.98958 0.8139 0.2359 0.0
H683 H 0.99875 0.76478 0.14503 0.0
H684 H 0.98107 0.77444 0.17603 0.0
H685 H 0.97861 0.79305 0.14165 0.0
H686 H 0.96804 0.83124 0.16784 0.0
H687 H 0.93009 0.84233 0.19477 0.0
H688 H 0.6149 0.56585 0.60028 0.0
H689 H 0.61054 0.53165 0.63906 0.0
H690 H 0.68548 0.55021 0.67104 0.0
H691 H 0.69007 0.58489 0.63198 0.0
H692 H 0.67583 0.49522 0.66225 0.0
H693 H 0.59983 0.53857 0.7271 0.0
H694 H 0.5929 0.54037 0.68906 0.0
H695 H 0.61992 0.55793 0.70209 0.0
C696 C 0.63046 0.56284 0.6156 0.0
C697 C 0.65291 0.57801 0.61296 0.0
C698 C 0.62783 0.5434 0.6379 0.0
C699 C 0.64754 0.53865 0.65808 0.0
C700 C 0.66997 0.55379 0.65576 0.0
H701 H 0.6106 0.41553 0.79376 0.0
H702 H 0.62942 0.456 0.77148 0.0
C703 C 0.67255 0.57355 0.63349 0.0
C704 C 0.64491 0.51664 0.68023 0.0
H705 H 0.60386 0.49164 0.73234 0.0
C706 C 0.66049 0.4946 0.67806 0.0
C707 C 0.62508 0.51599 0.70104 0.0
C708 C 0.60862 0.53959 0.70522 0.0
C709 C 0.65551 0.47124 0.69473 0.0
C710 C 0.6343 0.46995 0.71375 0.0
C711 C 0.61995 0.49259 0.7175 0.0
C712 C 0.62503 0.44481 0.72759 0.0
C713 C 0.67247 0.4479 0.69115 0.0
C714 C 0.61625 0.42526 0.71026 0.0
C715 C 0.60544 0.40232 0.72285 0.0
C716 C 0.60313 0.39849 0.75305 0.0
C717 C 0.61232 0.4179 0.77044 0.0
C718 C 0.623 0.44099 0.75777 0.0
H719 H 0.69183 0.45398 0.68329 0.0
H720 H 0.67449 0.43581 0.71183 0.0
H721 H 0.66383 0.43558 0.67493 0.0
H722 H 0.61718 0.42802 0.6869 0.0
H723 H 0.59875 0.3876 0.70892 0.0
H724 H 0.91808 0.20909 0.07493 0.0
H725 H 0.96032 0.21798 0.09505 0.0
H726 H 0.97707 0.13541 0.10085 0.0
H727 H 0.93469 0.12631 0.08185 0.0
H728 H 0.9938 0.15787 0.14758 0.0
H729 H 0.02531 0.21667 0.0487 0.0
H730 H 0.99756 0.22913 0.06597 0.0
H731 H 0.99592 0.19813 0.05008 0.0
C732 C 0.93073 0.19283 0.08067 0.0
C733 C 0.92315 0.16702 0.0765 0.0
C734 C 0.95491 0.19796 0.092 0.0
C735 C 0.97209 0.17742 0.09881 0.0
C736 C 0.96418 0.15159 0.09562 0.0
H737 H 0.13318 0.16555 0.09966 0.0
H738 H 0.08765 0.17096 0.08953 0.0
C739 C 0.93993 0.14642 0.08471 0.0
C740 C 0.9986 0.18252 0.10848 0.0
H741 H 0.05511 0.21107 0.08661 0.0
C742 C 0.00719 0.16968 0.1344 0.0
C743 C 0.01605 0.19781 0.09109 0.0
C744 C 0.00839 0.21105 0.06229 0.0
C745 C 0.03295 0.17082 0.14288 0.0
C746 C 0.05044 0.18596 0.12539 0.0
C747 C 0.04162 0.19965 0.10007 0.0
C748 C 0.07839 0.18535 0.13111 0.0
C749 C 0.04139 0.15457 0.16958 0.0
C750 C 0.08854 0.19245 0.15752 0.0
C751 C 0.11459 0.18882 0.16365 0.0
C752 C 0.13098 0.17838 0.14327 0.0
C753 C 0.12099 0.17299 0.11613 0.0
C754 C 0.09498 0.17632 0.11018 0.0
H755 H 0.02685 0.13965 0.17672 0.0
H756 H 0.05971 0.14442 0.16567 0.0
H757 H 0.04437 0.16751 0.18751 0.0
H758 H 0.0762 0.20011 0.1737 0.0
H759 H 0.12163 0.19318 0.18476 0.0
H760 H 0.18804 0.79761 0.08069 0.0
H761 H 0.22023 0.77412 0.11052 0.0
H762 H 0.27787 0.79469 0.04618 0.0
H763 H 0.24594 0.81909 0.01675 0.0
H764 H 0.24681 0.73281 0.09939 0.0
H765 H 0.31476 0.81304 0.11755 0.0
H766 H 0.28334 0.81894 0.10232 0.0
H767 H 0.30936 0.80934 0.07985 0.0
C768 C 0.20763 0.79734 0.07302 0.0
C769 C 0.21447 0.81025 0.0464 0.0
C770 C 0.22602 0.78391 0.09009 0.0
C771 C 0.25159 0.78292 0.08083 0.0
C772 C 0.25846 0.79577 0.05421 0.0
H773 H 0.35743 0.66172 0.14595 0.0
H774 H 0.3277 0.68943 0.11677 0.0
C775 C 0.24013 0.80957 0.0373 0.0
C776 C 0.27061 0.76723 0.09834 0.0
H777 H 0.3296 0.76966 0.12991 0.0
C778 C 0.26485 0.74094 0.10621 0.0
C779 C 0.29401 0.77789 0.1076 0.0
C780 C 0.30064 0.80642 0.10166 0.0
C781 C 0.28186 0.72496 0.12277 0.0
C782 C 0.30578 0.73527 0.13087 0.0
C783 C 0.31143 0.76165 0.12335 0.0
C784 C 0.32493 0.71915 0.14767 0.0
C785 C 0.27368 0.69738 0.132 0.0
C786 C 0.3342 0.7272 0.17409 0.0
C787 C 0.35162 0.71168 0.19044 0.0
C788 C 0.35995 0.68776 0.18068 0.0
C789 C 0.35111 0.67998 0.154 0.0
C790 C 0.33399 0.69569 0.13746 0.0
H791 H 0.2525 0.69528 0.13183 0.0
H792 H 0.28163 0.6838 0.11666 0.0
H793 H 0.28076 0.69134 0.15404 0.0
H794 H 0.32759 0.74528 0.18233 0.0
H795 H 0.35807 0.71815 0.21098 0.0
H796 H 0.71829 0.6614 0.62399 0.0
H797 H 0.73427 0.68098 0.66694 0.0
H798 H 0.6715 0.7357 0.66247 0.0
H799 H 0.65496 0.71581 0.61963 0.0
H800 H 0.75008 0.73131 0.67098 0.0
H801 H 0.66952 0.70795 0.74686 0.0
H802 H 0.673 0.69266 0.71314 0.0
H803 H 0.66055 0.7253 0.71342 0.0
C804 C 0.70775 0.67752 0.63217 0.0
C805 C 0.68536 0.68709 0.61832 0.0
C806 C 0.71692 0.68867 0.65676 0.0
C807 C 0.70395 0.70961 0.66807 0.0
C808 C 0.68153 0.71921 0.65443 0.0
H809 H 0.754 0.80649 0.80577 0.0
H810 H 0.73139 0.78991 0.76438 0.0
C811 C 0.67219 0.70792 0.62986 0.0
C812 C 0.71475 0.72192 0.69339 0.0
H813 H 0.70305 0.73416 0.76374 0.0
C814 C 0.73976 0.73197 0.69123 0.0
C815 C 0.70122 0.72278 0.71978 0.0
C816 C 0.67467 0.71141 0.72366 0.0
C817 C 0.75171 0.7426 0.71483 0.0
C818 C 0.73832 0.74315 0.74121 0.0
C819 C 0.71315 0.73367 0.74333 0.0
C820 C 0.75076 0.75259 0.76711 0.0
C821 C 0.77867 0.75302 0.71158 0.0
C822 C 0.76881 0.73685 0.78239 0.0
C823 C 0.78165 0.74617 0.80603 0.0
C824 C 0.77671 0.7714 0.81463 0.0
C825 C 0.75826 0.78698 0.79958 0.0
C826 C 0.74529 0.77756 0.77601 0.0
H827 H 0.78507 0.75456 0.68867 0.0
H828 H 0.78008 0.7726 0.72035 0.0
H829 H 0.79195 0.73975 0.72419 0.0
H830 H 0.77317 0.71749 0.77576 0.0
H831 H 0.79576 0.73381 0.81731 0.0
H832 H 0.78009 0.17849 0.11589 0.0
H833 H 0.76833 0.20029 0.15927 0.0
H834 H 0.84267 0.237 0.15988 0.0
H835 H 0.85455 0.21562 0.1163 0.0
H836 H 0.79217 0.198 0.2142 0.0
H837 H 0.79278 0.29875 0.1614 0.0
H838 H 0.79273 0.27 0.141 0.0
H839 H 0.82175 0.28044 0.15759 0.0
C840 C 0.79394 0.19125 0.12518 0.0
C841 C 0.81816 0.19554 0.11242 0.0
C842 C 0.78721 0.20361 0.15001 0.0
C843 C 0.80451 0.22051 0.16248 0.0
C844 C 0.82888 0.22441 0.15023 0.0
H845 H 0.78064 0.32042 0.30593 0.0
H846 H 0.80134 0.29554 0.26894 0.0
C847 C 0.83563 0.21211 0.12536 0.0
C848 C 0.79688 0.23414 0.18823 0.0
H849 H 0.78443 0.29458 0.21147 0.0
C850 C 0.79056 0.21912 0.21368 0.0
C851 C 0.79494 0.2617 0.18745 0.0
C852 C 0.8007 0.27873 0.16036 0.0
C853 C 0.78209 0.23094 0.23837 0.0
C854 C 0.77955 0.25843 0.23734 0.0
C855 C 0.7865 0.2735 0.21215 0.0
C856 C 0.76796 0.27189 0.26135 0.0
C857 C 0.77593 0.21392 0.26532 0.0
C858 C 0.74242 0.26679 0.26922 0.0
C859 C 0.73061 0.28095 0.29015 0.0
C860 C 0.74414 0.30057 0.30349 0.0
C861 C 0.76985 0.30535 0.29598 0.0
C862 C 0.78165 0.2912 0.27492 0.0
H863 H 0.78588 0.19476 0.26549 0.0
H864 H 0.78139 0.22369 0.28508 0.0
H865 H 0.75501 0.21009 0.26614 0.0
H866 H 0.73137 0.25235 0.25857 0.0
H867 H 0.71074 0.2768 0.29542 0.0
H868 H 0.29837 0.26741 0.53784 0.0
H869 H 0.26624 0.24427 0.56807 0.0
H870 H 0.22947 0.31743 0.58284 0.0
H871 H 0.26132 0.34083 0.55214 0.0
H872 H 0.25474 0.24942 0.62555 0.0
H873 H 0.17011 0.27326 0.5559 0.0
H874 H 0.20256 0.27832 0.54327 0.0
H875 H 0.1881 0.30101 0.56625 0.0
C876 C 0.28342 0.27864 0.5474 0.0
C877 C 0.28232 0.30599 0.54237 0.0
C878 C 0.26508 0.26535 0.5647 0.0
C879 C 0.24526 0.27908 0.57733 0.0
C880 C 0.24429 0.30641 0.57278 0.0
H881 H 0.12053 0.21996 0.69007 0.0
H882 H 0.1507 0.24864 0.66247 0.0
C883 C 0.26259 0.31975 0.55534 0.0
C884 C 0.22599 0.26464 0.59565 0.0
H885 H 0.16232 0.24952 0.60059 0.0
C886 C 0.23453 0.24948 0.62012 0.0
C887 C 0.19962 0.26484 0.58855 0.0
C888 C 0.18949 0.28003 0.56194 0.0
C889 C 0.21743 0.23435 0.63758 0.0
C890 C 0.19118 0.23416 0.63017 0.0
C891 C 0.18249 0.24977 0.60613 0.0
C892 C 0.17268 0.21696 0.64644 0.0
C893 C 0.22756 0.21867 0.66386 0.0
C894 C 0.17487 0.18972 0.64607 0.0
C895 C 0.15766 0.17334 0.66165 0.0
C896 C 0.13799 0.18392 0.67783 0.0
C897 C 0.13556 0.21124 0.67785 0.0
C898 C 0.15274 0.22764 0.66211 0.0
H899 H 0.24664 0.2258 0.6705 0.0
H900 H 0.21413 0.21944 0.68236 0.0
H901 H 0.22958 0.19793 0.6588 0.0
H902 H 0.18991 0.18114 0.63372 0.0
H903 H 0.15986 0.15236 0.66124 0.0
H904 H 0.73384 0.65532 0.48715 0.0
H905 H 0.76573 0.67946 0.45704 0.0
H906 H 0.73121 0.75228 0.47741 0.0
H907 H 0.69936 0.72852 0.50748 0.0
H908 H 0.75594 0.7173 0.40821 0.0
H909 H 0.80856 0.75988 0.49796 0.0
H910 H 0.78778 0.73177 0.50351 0.0
H911 H 0.7744 0.76405 0.4988 0.0
C912 C 0.73307 0.67647 0.48529 0.0
C913 C 0.71413 0.68999 0.49989 0.0
C914 C 0.75128 0.6902 0.46807 0.0
C915 C 0.751 0.71761 0.46542 0.0
C916 C 0.73197 0.73112 0.47962 0.0
H917 H 0.83171 0.84511 0.37732 0.0
H918 H 0.80465 0.81573 0.40809 0.0
C919 C 0.71371 0.71747 0.49668 0.0
C920 C 0.77023 0.73227 0.44737 0.0
H921 H 0.81803 0.77746 0.45035 0.0
C922 C 0.76974 0.73026 0.41736 0.0
C923 C 0.7881 0.74912 0.4595 0.0
C924 C 0.78999 0.75125 0.49174 0.0
C925 C 0.78605 0.7455 0.39895 0.0
C926 C 0.80364 0.76275 0.41104 0.0
C927 C 0.8045 0.76426 0.44115 0.0
C928 C 0.82056 0.78024 0.39279 0.0
C929 C 0.78359 0.74378 0.36669 0.0
C930 C 0.83877 0.77 0.37437 0.0
C931 C 0.85414 0.78675 0.35669 0.0
C932 C 0.85169 0.81401 0.35741 0.0
C933 C 0.83392 0.82418 0.37636 0.0
C934 C 0.81849 0.80744 0.39392 0.0
H935 H 0.76525 0.73451 0.36077 0.0
H936 H 0.7848 0.76348 0.35521 0.0
H937 H 0.79949 0.73175 0.35893 0.0
H938 H 0.84106 0.74906 0.37365 0.0
H939 H 0.86781 0.77833 0.34243 0.0
H940 H 0.76258 0.15891 0.98621 0.0
H941 H 0.7307 0.18186 0.95518 0.0
H942 H 0.76798 0.25527 0.96806 0.0
H943 H 0.80009 0.23261 0.99858 0.0
H944 H 0.69682 0.22059 0.96852 0.0
H945 H 0.76213 0.25702 0.88058 0.0
H946 H 0.77134 0.23183 0.90768 0.0
H947 H 0.7726 0.26571 0.91552 0.0
C948 C 0.76408 0.17993 0.98232 0.0
C949 C 0.78396 0.19391 0.99482 0.0
C950 C 0.74584 0.19299 0.9646 0.0
C951 C 0.74724 0.22019 0.95894 0.0
C952 C 0.7669 0.2342 0.97158 0.0
H953 H 0.6582 0.34511 0.8789 0.0
H954 H 0.68811 0.31643 0.90665 0.0
C955 C 0.78516 0.22119 0.98919 0.0
C956 C 0.72773 0.23419 0.9406 0.0
H957 H 0.72077 0.27703 0.88145 0.0
C958 C 0.70197 0.23267 0.94927 0.0
C959 C 0.73453 0.24984 0.91544 0.0
C960 C 0.76162 0.25102 0.90406 0.0
C961 C 0.68296 0.24728 0.93407 0.0
C962 C 0.68995 0.2636 0.90954 0.0
C963 C 0.71557 0.2646 0.90044 0.0
C964 C 0.67116 0.28057 0.89355 0.0
C965 C 0.6557 0.24589 0.94485 0.0
C966 C 0.65178 0.26982 0.87704 0.0
C967 C 0.63474 0.28617 0.8611 0.0
C968 C 0.63688 0.31348 0.86153 0.0
C969 C 0.65613 0.32412 0.87831 0.0
C970 C 0.67321 0.30781 0.89408 0.0
H971 H 0.65418 0.2356 0.96667 0.0
H972 H 0.64761 0.26585 0.94568 0.0
H973 H 0.64383 0.23521 0.92965 0.0
H974 H 0.65012 0.24883 0.87613 0.0
H975 H 0.62011 0.27741 0.84829 0.0
H976 H 0.27783 0.32375 0.42156 0.0
H977 H 0.26585 0.30293 0.3776 0.0
H978 H 0.3399 0.26592 0.37601 0.0
H979 H 0.35198 0.28629 0.42016 0.0
H980 H 0.28944 0.30676 0.32303 0.0
H981 H 0.29007 0.20455 0.37148 0.0
H982 H 0.29019 0.2325 0.39315 0.0
H983 H 0.31919 0.22245 0.37622 0.0
C984 C 0.29156 0.31111 0.41195 0.0
C985 C 0.31577 0.30648 0.42456 0.0
C986 C 0.28469 0.29928 0.3868 0.0
C987 C 0.30185 0.28259 0.37386 0.0
C988 C 0.32619 0.2783 0.38604 0.0
H989 H 0.28621 0.19025 0.2234 0.0
H990 H 0.30351 0.21316 0.26399 0.0
C991 C 0.33307 0.29005 0.41122 0.0
C992 C 0.29428 0.26984 0.34746 0.0
H993 H 0.28345 0.2103 0.32098 0.0
C994 C 0.28812 0.28568 0.32255 0.0
C995 C 0.29269 0.24233 0.34694 0.0
C996 C 0.29816 0.22441 0.37342 0.0
C997 C 0.28041 0.2747 0.29703 0.0
C998 C 0.27851 0.24722 0.29663 0.0
C999 C 0.28504 0.23138 0.32139 0.0
C1000 C 0.26863 0.23451 0.27119 0.0
C1001 C 0.27456 0.29257 0.27064 0.0
C1002 C 0.24331 0.23889 0.262 0.0
C1003 C 0.23343 0.22585 0.23898 0.0
C1004 C 0.2487 0.20811 0.22484 0.0
C1005 C 0.2741 0.20389 0.23392 0.0
C1006 C 0.28397 0.21691 0.25703 0.0
H1007 H 0.28349 0.31214 0.27201 0.0
H1008 H 0.28139 0.28403 0.25065 0.0
H1009 H 0.25353 0.2953 0.26885 0.0
H1010 H 0.23103 0.25201 0.27302 0.0
H1011 H 0.21374 0.22946 0.23258 0.0
H1012 H 0.20223 0.85159 0.90684 0.0
H1013 H 0.21904 0.83124 0.86468 0.0
H1014 H 0.19153 0.75613 0.89914 0.0
H1015 H 0.17449 0.77628 0.9415 0.0
H1016 H 0.25609 0.79007 0.86759 0.0
H1017 H 0.16588 0.76197 0.81399 0.0
H1018 H 0.1669 0.78627 0.84041 0.0
H1019 H 0.1683 0.75214 0.85188 0.0
C1020 C 0.19953 0.83076 0.90542 0.0
C1021 C 0.18709 0.81553 0.92764 0.0
C1022 C 0.20915 0.8192 0.88128 0.0
C1023 C 0.2063 0.79228 0.87873 0.0
C1024 C 0.19355 0.77704 0.90055 0.0
H1025 H 0.26115 0.68252 0.75997 0.0
H1026 H 0.23936 0.705 0.79777 0.0
C1027 C 0.18397 0.78856 0.92481 0.0
C1028 C 0.21812 0.77996 0.8541 0.0
H1029 H 0.20464 0.74612 0.79504 0.0
C1030 C 0.24488 0.78058 0.85159 0.0
C1031 C 0.20336 0.76755 0.83346 0.0
C1032 C 0.17449 0.76704 0.8348 0.0
C1033 C 0.2574 0.76862 0.82923 0.0
C1034 C 0.24266 0.75625 0.80848 0.0
C1035 C 0.21585 0.75571 0.81094 0.0
C1036 C 0.25481 0.74314 0.78453 0.0
C1037 C 0.28631 0.76869 0.82856 0.0
C1038 C 0.27027 0.75728 0.76419 0.0
C1039 C 0.28289 0.74445 0.74267 0.0
C1040 C 0.28 0.71739 0.74097 0.0
C1041 C 0.26381 0.70341 0.76075 0.0
C1042 C 0.25131 0.71622 0.78234 0.0
H1043 H 0.29461 0.77293 0.84981 0.0
H1044 H 0.29382 0.74959 0.8224 0.0
H1045 H 0.29302 0.78407 0.81229 0.0
H1046 H 0.27279 0.77817 0.76515 0.0
H1047 H 0.29514 0.75564 0.72754 0.0
loop_
_geom_bond_atom_site_label_1
_geom_bond_atom_site_label_2
_geom_bond_distance
_geom_bond_site_symmetry_2
_ccdc_geom_bond_type
Fe0 O2 1.918 . S
Fe0 O5 1.997 1_556 S
Fe0 O6 2.002 1_556 S
Fe0 O11 1.976 . S
Fe0 O14 1.996 . S
Fe1 O2 1.918 1_554 S
Fe1 O9 1.997 . S
Fe1 O12 1.996 1_554 S
Fe1 O16 1.976 1_554 S
Fe1 O19 2.002 . S
O2 Fe0 1.918 . S
O2 Fe1 1.918 1_556 S
O2 Fe3 1.918 1_556 S
Fe3 O2 1.918 1_554 S
Fe3 O4 2.002 . S
Fe3 O13 1.976 1_554 S
Fe3 O17 1.996 1_554 S
Fe3 O20 1.997 . S
O4 Fe3 2.002 . S
O4 C21 1.295 . S
O5 Fe0 1.997 1_554 S
O5 C21 1.235 . S
O6 Fe0 2.002 1_554 S
O6 C7 1.295 . S
C7 O6 1.295 . S
C7 O9 1.235 . S
C8 O13 1.287 . S
C8 O14 1.255 . S
O9 Fe1 1.997 . S
O9 C7 1.235 . S
C10 O16 1.287 . S
C10 O17 1.255 . S
O11 Fe0 1.976 . S
O11 C18 1.287 . S
O12 Fe1 1.996 1_556 S
O12 C18 1.255 . S
O13 Fe3 1.976 1_556 S
O13 C8 1.287 . S
O14 Fe0 1.996 . S
O14 C8 1.255 . S
C15 O19 1.295 . S
C15 O20 1.235 . S
O16 Fe1 1.976 1_556 S
O16 C10 1.287 . S
O17 Fe3 1.996 1_556 S
O17 C10 1.255 . S
C18 O11 1.287 . S
C18 O12 1.255 . S
O19 Fe1 2.002 . S
O19 C15 1.295 . S
O20 Fe3 1.997 . S
O20 C15 1.235 . S
C21 O4 1.295 . S
C21 O5 1.235 . S
Fe22 O24 1.918 . S
Fe22 O27 1.997 . S
Fe22 O28 2.002 . S
Fe22 O33 1.976 . S
Fe22 O36 1.996 . S
Fe23 O24 1.918 . S
Fe23 O31 1.997 . S
Fe23 O34 1.996 . S
Fe23 O38 1.976 . S
Fe23 O41 2.002 . S
O24 Fe22 1.918 . S
O24 Fe23 1.918 . S
O24 Fe25 1.918 . S
Fe25 O24 1.918 . S
Fe25 O26 2.002 . S
Fe25 O35 1.976 . S
Fe25 O39 1.996 . S
Fe25 O42 1.997 . S
O26 Fe25 2.002 . S
O26 C43 1.295 . S
O27 Fe22 1.997 . S
O27 C43 1.235 . S
O28 Fe22 2.002 . S
O28 C29 1.295 . S
C29 O28 1.295 . S
C29 O31 1.235 . S
C30 O35 1.287 . S
C30 O36 1.255 . S
O31 Fe23 1.997 . S
O31 C29 1.235 . S
C32 O38 1.287 . S
C32 O39 1.255 . S
O33 Fe22 1.976 . S
O33 C40 1.287 . S
O34 Fe23 1.996 . S
O34 C40 1.255 . S
O35 Fe25 1.976 . S
O35 C30 1.287 . S
O36 Fe22 1.996 . S
O36 C30 1.255 . S
C37 O41 1.295 . S
C37 O42 1.235 . S
O38 Fe23 1.976 . S
O38 C32 1.287 . S
O39 Fe25 1.996 . S
O39 C32 1.255 . S
C40 O33 1.287 . S
C40 O34 1.255 . S
O41 Fe23 2.002 . S
O41 C37 1.295 . S
O42 Fe25 1.997 . S
O42 C37 1.235 . S
C43 O26 1.295 . S
C43 O27 1.235 . S
Fe44 O46 1.918 . S
Fe44 O49 1.997 . S
Fe44 O50 2.006 . S
Fe44 O55 1.976 . S
Fe44 O58 1.996 . S
Fe45 O46 1.918 . S
Fe45 O53 1.997 . S
Fe45 O56 1.996 . S
Fe45 O60 1.976 . S
Fe45 O63 2.002 . S
O46 Fe44 1.918 . S
O46 Fe45 1.918 . S
O46 Fe47 1.918 . S
Fe47 O46 1.918 . S
Fe47 O48 2.002 . S
Fe47 O57 1.976 . S
Fe47 O61 1.996 . S
Fe47 O64 1.997 . S
O48 Fe47 2.002 . S
O48 C65 1.295 . S
O49 Fe44 1.997 . S
O49 C65 1.235 . S
O50 Fe44 2.006 . S
O50 C51 1.293 1_554 S
C51 O50 1.293 1_556 S
C51 O53 1.235 1_556 S
C52 O57 1.287 . S
C52 O58 1.255 . S
O53 Fe45 1.997 . S
O53 C51 1.235 1_554 S
C54 O60 1.287 . S
C54 O61 1.255 . S
O55 Fe44 1.976 . S
O55 C62 1.287 . S
O56 Fe45 1.996 . S
O56 C62 1.255 . S
O57 Fe47 1.976 . S
O57 C52 1.287 . S
O58 Fe44 1.996 . S
O58 C52 1.255 . S
C59 O63 1.295 . S
C59 O64 1.235 . S
O60 Fe45 1.976 . S
O60 C54 1.287 . S
O61 Fe47 1.996 . S
O61 C54 1.255 . S
C62 O55 1.287 . S
C62 O56 1.255 . S
O63 Fe45 2.002 . S
O63 C59 1.295 . S
O64 Fe47 1.997 . S
O64 C59 1.235 . S
C65 O48 1.295 . S
C65 O49 1.235 . S
Fe66 O68 1.918 . S
Fe66 O71 1.997 . S
Fe66 O72 2.002 . S
Fe66 O77 1.976 . S
Fe66 O80 1.996 . S
Fe67 O68 1.918 . S
Fe67 O75 1.997 . S
Fe67 O78 1.996 . S
Fe67 O82 1.976 . S
Fe67 O85 2.002 . S
O68 Fe66 1.918 . S
O68 Fe67 1.918 . S
O68 Fe69 1.918 . S
Fe69 O68 1.918 . S
Fe69 O70 2.002 . S
Fe69 O79 1.976 . S
Fe69 O83 1.996 . S
Fe69 O86 1.997 . S
O70 Fe69 2.002 . S
O70 C87 1.295 . S
O71 Fe66 1.997 . S
O71 C87 1.235 . S
O72 Fe66 2.002 . S
O72 C73 1.295 . S
C73 O72 1.295 . S
C73 O75 1.235 . S
C74 O79 1.287 . S
C74 O80 1.255 . S
O75 Fe67 1.997 . S
O75 C73 1.235 . S
C76 O82 1.287 . S
C76 O83 1.255 . S
O77 Fe66 1.976 . S
O77 C84 1.287 . S
O78 Fe67 1.996 . S
O78 C84 1.255 . S
O79 Fe69 1.976 . S
O79 C74 1.287 . S
O80 Fe66 1.996 . S
O80 C74 1.255 . S
C81 O85 1.295 . S
C81 O86 1.235 . S
O82 Fe67 1.976 . S
O82 C76 1.287 . S
O83 Fe69 1.996 . S
O83 C76 1.255 . S
C84 O77 1.287 . S
C84 O78 1.255 . S
O85 Fe67 2.002 . S
O85 C81 1.295 . S
O86 Fe69 1.997 . S
O86 C81 1.235 . S
C87 O70 1.295 . S
C87 O71 1.235 . S
H88 C93 0.930 . S
H89 C96 0.930 . S
H90 C98 0.930 . S
H91 C92 1.016 . S
C92 H91 1.016 . S
C92 N99 1.286 . S
C93 H88 0.930 . S
C93 C94 1.397 . S
C93 C95 1.361 . S
C94 C93 1.397 . S
C94 C98 1.390 . S
C95 C93 1.361 . S
C95 C96 1.393 . S
C95 N99 1.413 . S
C96 H89 0.930 . S
C96 C95 1.393 . S
C96 C97 1.399 . S
C97 C96 1.399 . S
C97 C98 1.381 . S
C98 H90 0.930 . S
C98 C94 1.390 . S
C98 C97 1.381 . S
N99 C92 1.286 . S
N99 C95 1.413 . S
H100 C105 0.930 . S
H101 C108 0.930 . S
H102 C110 0.930 . S
H103 C104 1.016 . S
C104 H103 1.016 . S
C104 N111 1.286 . S
C105 H100 0.930 . S
C105 C106 1.397 . S
C105 C107 1.361 . S
C106 C105 1.397 . S
C106 C110 1.390 . S
C107 C105 1.361 . S
C107 C108 1.393 . S
C107 N111 1.413 . S
C108 H101 0.930 . S
C108 C107 1.393 . S
C108 C109 1.399 . S
C109 C108 1.399 . S
C109 C110 1.381 . S
C110 H102 0.930 . S
C110 C106 1.390 . S
C110 C109 1.381 . S
N111 C104 1.286 . S
N111 C107 1.413 . S
H112 C117 0.930 . S
H113 C120 0.930 . S
H114 C122 0.930 . S
H115 C116 1.016 . S
C116 H115 1.016 . S
C116 N123 1.286 . S
C117 H112 0.930 . S
C117 C118 1.397 . S
C117 C119 1.361 . S
C118 C117 1.397 . S
C118 C122 1.390 . S
C119 C117 1.361 . S
C119 C120 1.393 . S
C119 N123 1.413 . S
C120 H113 0.930 . S
C120 C119 1.393 . S
C120 C121 1.399 . S
C121 C120 1.399 . S
C121 C122 1.381 . S
C122 H114 0.930 . S
C122 C118 1.390 . S
C122 C121 1.381 . S
N123 C116 1.286 . S
N123 C119 1.413 . S
H124 C129 0.930 . S
H125 C132 0.930 . S
H126 C134 0.930 . S
H127 C128 1.016 . S
C128 H127 1.016 . S
C128 N135 1.286 . S
C129 H124 0.930 . S
C129 C130 1.397 . S
C129 C131 1.361 . S
C130 C129 1.397 . S
C130 C134 1.390 . S
C131 C129 1.361 . S
C131 C132 1.393 . S
C131 N135 1.413 . S
C132 H125 0.930 . S
C132 C131 1.393 . S
C132 C133 1.399 . S
C133 C132 1.399 . S
C133 C134 1.381 . S
C134 H126 0.930 . S
C134 C130 1.390 . S
C134 C133 1.381 . S
N135 C128 1.286 . S
N135 C131 1.413 . S
H136 C141 0.930 . S
H137 C144 0.930 . S
H138 C146 0.930 . S
H139 C140 1.016 . S
C140 H139 1.016 . S
C140 N147 1.286 . S
C141 H136 0.930 . S
C141 C142 1.397 . S
C141 C143 1.361 . S
C142 C141 1.397 . S
C142 C146 1.390 . S
C143 C141 1.361 . S
C143 C144 1.393 . S
C143 N147 1.413 . S
C144 H137 0.930 . S
C144 C143 1.393 . S
C144 C145 1.399 . S
C145 C144 1.399 . S
C145 C146 1.381 . S
C146 H138 0.930 . S
C146 C142 1.390 . S
C146 C145 1.381 . S
N147 C140 1.286 . S
N147 C143 1.413 . S
H148 C153 0.930 . S
H149 C156 0.930 . S
H150 C158 0.930 . S
H151 C152 1.016 . S
C152 H151 1.016 . S
C152 N159 1.286 . S
C153 H148 0.930 . S
C153 C154 1.397 . S
C153 C155 1.361 . S
C154 C153 1.397 . S
C154 C158 1.390 . S
C155 C153 1.361 . S
C155 C156 1.393 . S
C155 N159 1.413 . S
C156 H149 0.930 . S
C156 C155 1.393 . S
C156 C157 1.399 . S
C157 C156 1.399 . S
C157 C158 1.381 . S
C158 H150 0.930 . S
C158 C154 1.390 . S
C158 C157 1.381 . S
N159 C152 1.286 . S
N159 C155 1.413 . S
H160 C165 0.930 . S
H161 C168 0.930 . S
H162 C170 0.930 . S
H163 C164 1.016 . S
C164 H163 1.016 . S
C164 N171 1.286 . S
C165 H160 0.930 . S
C165 C166 1.397 . S
C165 C167 1.361 . S
C166 C165 1.397 . S
C166 C170 1.390 . S
C167 C165 1.361 . S
C167 C168 1.393 . S
C167 N171 1.413 . S
C168 H161 0.930 . S
C168 C167 1.393 . S
C168 C169 1.399 . S
C169 C168 1.399 . S
C169 C170 1.381 . S
C170 H162 0.930 . S
C170 C166 1.390 . S
C170 C169 1.381 . S
N171 C164 1.286 . S
N171 C167 1.413 . S
H172 C177 0.930 . S
H173 C180 0.930 . S
H174 C182 0.930 . S
H175 C176 1.016 . S
C176 H175 1.016 . S
C176 N183 1.286 . S
C177 H172 0.930 . S
C177 C178 1.397 . S
C177 C179 1.361 . S
C178 C177 1.397 . S
C178 C182 1.390 . S
C179 C177 1.361 . S
C179 C180 1.393 . S
C179 N183 1.413 . S
C180 H173 0.930 . S
C180 C179 1.393 . S
C180 C181 1.399 . S
C181 C180 1.399 . S
C181 C182 1.381 . S
C182 H174 0.930 . S
C182 C178 1.390 . S
C182 C181 1.381 . S
N183 C176 1.286 . S
N183 C179 1.413 . S
H184 C192 0.929 . S
H185 C194 0.930 . S
H186 C196 0.930 . S
H187 C199 0.929 . S
H188 C202 0.930 . S
H189 C204 0.960 . S
H190 C204 0.960 . S
H191 C204 0.960 . S
C192 H184 0.929 . S
C192 C193 1.377 . S
C192 C194 1.384 . S
C193 C192 1.377 . S
C193 C199 1.390 . S
C194 H185 0.930 . S
C194 C192 1.384 . S
C194 C195 1.372 . S
C195 C194 1.372 . S
C195 C196 1.400 . S
C195 C200 1.490 1_565 S
C196 H186 0.930 . S
C196 C195 1.400 . S
C196 C199 1.386 . S
H197 C213 0.930 . S
H198 C214 0.931 . S
C199 H187 0.929 . S
C199 C193 1.390 . S
C199 C196 1.386 . S
C200 C195 1.490 1_545 S
C200 C202 1.395 . S
C200 C203 1.403 . S
H201 C207 0.930 . S
C202 H188 0.930 . S
C202 C200 1.395 . S
C202 C205 1.403 . S
C203 C200 1.403 . S
C203 C204 1.524 . S
C203 C207 1.400 . S
C204 H189 0.960 . S
C204 H190 0.960 . S
C204 H191 0.960 . S
C204 C203 1.524 . S
C205 C202 1.403 . S
C205 C206 1.392 . S
C205 C209 1.495 . S
C206 C205 1.392 . S
C206 C207 1.385 . S
C206 C208 1.478 . S
C207 H201 0.930 . S
C207 C203 1.400 . S
C207 C206 1.385 . S
C208 C206 1.478 . S
C208 C210 1.381 . S
C208 C214 1.383 . S
C209 C205 1.495 . S
C209 H215 0.959 . S
C209 H216 0.961 . S
C209 H217 0.960 . S
C210 C208 1.381 . S
C210 C211 1.394 . S
C210 H218 0.930 . S
C211 C210 1.394 . S
C211 C212 1.383 . S
C211 H219 0.929 . S
C212 C211 1.383 . S
C212 C213 1.377 . S
C213 H197 0.930 . S
C213 C212 1.377 . S
C213 C214 1.379 . S
C214 H198 0.931 . S
C214 C208 1.383 . S
C214 C213 1.379 . S
H215 C209 0.959 . S
H216 C209 0.961 . S
H217 C209 0.960 . S
H218 C210 0.930 . S
H219 C211 0.929 . S
H220 C228 0.929 . S
H221 C230 0.930 . S
H222 C232 0.930 . S
H223 C235 0.929 . S
H224 C238 0.930 . S
H225 C240 0.960 . S
H226 C240 0.960 . S
H227 C240 0.960 . S
C228 H220 0.929 . S
C228 C229 1.377 . S
C228 C230 1.384 . S
C229 C228 1.377 . S
C229 C235 1.390 . S
C230 H221 0.930 . S
C230 C228 1.384 . S
C230 C231 1.372 . S
C231 C230 1.372 . S
C231 C232 1.400 . S
C231 C236 1.490 . S
C232 H222 0.930 . S
C232 C231 1.400 . S
C232 C235 1.386 . S
H233 C249 0.930 . S
H234 C250 0.931 . S
C235 H223 0.929 . S
C235 C229 1.390 . S
C235 C232 1.386 . S
C236 C231 1.490 . S
C236 C238 1.395 . S
C236 C239 1.403 . S
H237 C243 0.930 . S
C238 H224 0.930 . S
C238 C236 1.395 . S
C238 C241 1.403 . S
C239 C236 1.403 . S
C239 C240 1.524 . S
C239 C243 1.400 . S
C240 H225 0.960 . S
C240 H226 0.960 . S
C240 H227 0.960 . S
C240 C239 1.524 . S
C241 C238 1.403 . S
C241 C242 1.392 . S
C241 C245 1.495 . S
C242 C241 1.392 . S
C242 C243 1.385 . S
C242 C244 1.478 . S
C243 H237 0.930 . S
C243 C239 1.400 . S
C243 C242 1.385 . S
C244 C242 1.478 . S
C244 C246 1.381 . S
C244 C250 1.383 . S
C245 C241 1.495 . S
C245 H251 0.959 . S
C245 H252 0.961 . S
C245 H253 0.960 . S
C246 C244 1.381 . S
C246 C247 1.394 . S
C246 H254 0.930 . S
C247 C246 1.394 . S
C247 C248 1.383 . S
C247 H255 0.929 . S
C248 C247 1.383 . S
C248 C249 1.377 . S
C249 H233 0.930 . S
C249 C248 1.377 . S
C249 C250 1.379 . S
C250 H234 0.931 . S
C250 C244 1.383 . S
C250 C249 1.379 . S
H251 C245 0.959 . S
H252 C245 0.961 . S
H253 C245 0.960 . S
H254 C246 0.930 . S
H255 C247 0.929 . S
H256 C264 0.929 . S
H257 C266 0.930 . S
H258 C268 0.930 . S
H259 C271 0.929 . S
H260 C274 0.930 . S
H261 C276 0.960 . S
H262 C276 0.960 . S
H263 C276 0.960 . S
C264 H256 0.929 . S
C264 C265 1.377 . S
C264 C266 1.384 . S
C265 C264 1.377 . S
C265 C271 1.390 . S
C266 H257 0.930 . S
C266 C264 1.384 . S
C266 C267 1.372 . S
C267 C266 1.372 . S
C267 C268 1.400 . S
C267 C272 1.490 1_545 S
C268 H258 0.930 . S
C268 C267 1.400 . S
C268 C271 1.386 . S
H269 C285 0.930 . S
H270 C286 0.931 . S
C271 H259 0.929 . S
C271 C265 1.390 . S
C271 C268 1.386 . S
C272 C267 1.490 1_565 S
C272 C274 1.395 . S
C272 C275 1.403 . S
H273 C279 0.930 . S
C274 H260 0.930 . S
C274 C272 1.395 . S
C274 C277 1.403 . S
C275 C272 1.403 . S
C275 C276 1.524 1_565 S
C275 C279 1.400 . S
C276 H261 0.960 . S
C276 H262 0.960 . S
C276 H263 0.960 . S
C276 C275 1.524 1_545 S
C277 C274 1.403 . S
C277 C278 1.392 . S
C277 C281 1.495 . S
C278 C277 1.392 . S
C278 C279 1.385 . S
C278 C280 1.478 . S
C279 H273 0.930 . S
C279 C275 1.400 . S
C279 C278 1.385 . S
C280 C278 1.478 . S
C280 C282 1.381 . S
C280 C286 1.383 . S
C281 C277 1.495 . S
C281 H287 0.959 . S
C281 H288 0.961 . S
C281 H289 0.960 . S
C282 C280 1.381 . S
C282 C283 1.394 . S
C282 H290 0.930 . S
C283 C282 1.394 . S
C283 C284 1.383 . S
C283 H291 0.929 . S
C284 C283 1.383 . S
C284 C285 1.377 . S
C285 H269 0.930 . S
C285 C284 1.377 . S
C285 C286 1.379 . S
C286 H270 0.931 . S
C286 C280 1.383 . S
C286 C285 1.379 . S
H287 C281 0.959 . S
H288 C281 0.961 . S
H289 C281 0.960 . S
H290 C282 0.930 . S
H291 C283 0.929 . S
H292 C300 0.929 . S
H293 C302 0.930 . S
H294 C304 0.930 . S
H295 C307 0.929 . S
H296 C310 0.930 . S
H297 C312 0.960 . S
H298 C312 0.960 . S
H299 C312 0.960 . S
C300 H292 0.929 . S
C300 C301 1.377 . S
C300 C302 1.384 . S
C301 C300 1.377 . S
C301 C307 1.390 . S
C302 H293 0.930 . S
C302 C300 1.384 . S
C302 C303 1.372 . S
C303 C302 1.372 . S
C303 C304 1.400 . S
C303 C308 1.490 . S
C304 H294 0.930 . S
C304 C303 1.400 . S
C304 C307 1.386 . S
H305 C321 0.930 . S
H306 C322 0.931 . S
C307 H295 0.929 . S
C307 C301 1.390 . S
C307 C304 1.386 . S
C308 C303 1.490 . S
C308 C310 1.395 . S
C308 C311 1.403 . S
H309 C315 0.930 . S
C310 H296 0.930 . S
C310 C308 1.395 . S
C310 C313 1.403 . S
C311 C308 1.403 . S
C311 C312 1.524 . S
C311 C315 1.400 . S
C312 H297 0.960 . S
C312 H298 0.960 . S
C312 H299 0.960 . S
C312 C311 1.524 . S
C313 C310 1.403 . S
C313 C314 1.392 . S
C313 C317 1.495 . S
C314 C313 1.392 . S
C314 C315 1.385 . S
C314 C316 1.478 . S
C315 H309 0.930 . S
C315 C311 1.400 . S
C315 C314 1.385 . S
C316 C314 1.478 . S
C316 C318 1.381 . S
C316 C322 1.383 . S
C317 C313 1.495 . S
C317 H323 0.959 . S
C317 H324 0.961 . S
C317 H325 0.960 . S
C318 C316 1.381 . S
C318 C319 1.394 . S
C318 H326 0.930 . S
C319 C318 1.394 . S
C319 C320 1.383 . S
C319 H327 0.929 . S
C320 C319 1.383 . S
C320 C321 1.377 . S
C321 H305 0.930 . S
C321 C320 1.377 . S
C321 C322 1.379 . S
C322 H306 0.931 . S
C322 C316 1.383 . S
C322 C321 1.379 . S
H323 C317 0.959 . S
H324 C317 0.961 . S
H325 C317 0.960 . S
H326 C318 0.930 . S
H327 C319 0.929 . S
H328 C336 0.929 . S
H329 C338 0.930 . S
H330 C340 0.930 . S
H331 C343 0.929 . S
H332 C346 0.930 . S
H333 C348 0.960 . S
H334 C348 0.960 . S
H335 C348 0.960 . S
C336 H328 0.929 . S
C336 C337 1.377 . S
C336 C338 1.384 . S
C337 C336 1.377 . S
C337 C343 1.390 . S
C338 H329 0.930 . S
C338 C336 1.384 . S
C338 C339 1.372 . S
C339 C338 1.372 . S
C339 C340 1.400 . S
C339 C344 1.490 . S
C340 H330 0.930 . S
C340 C339 1.400 . S
C340 C343 1.386 . S
H341 C357 0.930 . S
H342 C358 0.931 . S
C343 H331 0.929 . S
C343 C337 1.390 . S
C343 C340 1.386 . S
C344 C339 1.490 . S
C344 C346 1.395 . S
C344 C347 1.403 . S
H345 C351 0.930 . S
C346 H332 0.930 . S
C346 C344 1.395 . S
C346 C349 1.403 . S
C347 C344 1.403 . S
C347 C348 1.524 . S
C347 C351 1.400 . S
C348 H333 0.960 . S
C348 H334 0.960 . S
C348 H335 0.960 . S
C348 C347 1.524 . S
C349 C346 1.403 . S
C349 C350 1.392 . S
C349 C353 1.495 . S
C350 C349 1.392 . S
C350 C351 1.385 . S
C350 C352 1.478 . S
C351 H345 0.930 . S
C351 C347 1.400 . S
C351 C350 1.385 . S
C352 C350 1.478 . S
C352 C354 1.381 . S
C352 C358 1.383 . S
C353 C349 1.495 . S
C353 H359 0.959 . S
C353 H360 0.961 . S
C353 H361 0.960 . S
C354 C352 1.381 . S
C354 C355 1.394 . S
C354 H362 0.930 . S
C355 C354 1.394 . S
C355 C356 1.383 . S
C355 H363 0.929 . S
C356 C355 1.383 . S
C356 C357 1.377 . S
C357 H341 0.930 . S
C357 C356 1.377 . S
C357 C358 1.379 . S
C358 H342 0.931 . S
C358 C352 1.383 . S
C358 C357 1.379 . S
H359 C353 0.959 . S
H360 C353 0.961 . S
H361 C353 0.960 . S
H362 C354 0.930 . S
H363 C355 0.929 . S
H364 C372 0.929 . S
H365 C374 0.930 . S
H366 C376 0.930 . S
H367 C379 0.929 . S
H368 C382 0.930 . S
H369 C384 0.960 . S
H370 C384 0.959 1_655 S
H371 C384 0.960 1_655 S
C372 H364 0.929 . S
C372 C373 1.377 . S
C372 C374 1.384 . S
C373 C372 1.377 . S
C373 C379 1.390 . S
C374 H365 0.930 . S
C374 C372 1.384 . S
C374 C375 1.372 . S
C375 C374 1.372 . S
C375 C376 1.400 . S
C375 C380 1.490 . S
C376 H366 0.930 . S
C376 C375 1.400 . S
C376 C379 1.386 . S
H377 C393 0.930 . S
H378 C394 0.931 . S
C379 H367 0.929 . S
C379 C373 1.390 . S
C379 C376 1.386 . S
C380 C375 1.490 . S
C380 C382 1.395 . S
C380 C383 1.403 . S
H381 C387 0.930 . S
C382 H368 0.930 . S
C382 C380 1.395 . S
C382 C385 1.403 . S
C383 C380 1.403 . S
C383 C384 1.524 1_655 S
C383 C387 1.400 1_655 S
C384 H369 0.960 . S
C384 H370 0.959 1_455 S
C384 H371 0.960 1_455 S
C384 C383 1.524 1_455 S
C385 C382 1.403 . S
C385 C386 1.392 . S
C385 C389 1.495 . S
C386 C385 1.392 . S
C386 C387 1.385 1_655 S
C386 C388 1.478 1_655 S
C387 H381 0.930 . S
C387 C383 1.400 1_455 S
C387 C386 1.385 1_455 S
C388 C386 1.478 1_455 S
C388 C390 1.381 . S
C388 C394 1.383 . S
C389 C385 1.495 . S
C389 H395 0.959 . S
C389 H396 0.961 . S
C389 H397 0.960 . S
C390 C388 1.381 . S
C390 C391 1.394 . S
C390 H398 0.930 . S
C391 C390 1.394 . S
C391 C392 1.383 . S
C391 H399 0.929 . S
C392 C391 1.383 . S
C392 C393 1.377 . S
C393 H377 0.930 . S
C393 C392 1.377 . S
C393 C394 1.379 . S
C394 H378 0.931 . S
C394 C388 1.383 . S
C394 C393 1.379 . S
H395 C389 0.959 . S
H396 C389 0.961 . S
H397 C389 0.960 . S
H398 C390 0.930 . S
H399 C391 0.929 . S
H400 C408 0.929 . S
H401 C410 0.930 . S
H402 C412 0.930 . S
H403 C415 0.929 . S
H404 C418 0.930 . S
H405 C420 0.960 . S
H406 C420 0.960 . S
H407 C420 0.960 . S
C408 H400 0.929 . S
C408 C409 1.377 . S
C408 C410 1.384 . S
C409 C408 1.377 . S
C409 C415 1.390 . S
C410 H401 0.930 . S
C410 C408 1.384 . S
C410 C411 1.372 . S
C411 C410 1.372 . S
C411 C412 1.400 . S
C411 C416 1.490 . S
C412 H402 0.930 . S
C412 C411 1.400 . S
C412 C415 1.386 . S
H413 C429 0.930 . S
H414 C430 0.931 . S
C415 H403 0.929 . S
C415 C409 1.390 . S
C415 C412 1.386 . S
C416 C411 1.490 . S
C416 C418 1.395 . S
C416 C419 1.403 . S
H417 C423 0.930 . S
C418 H404 0.930 . S
C418 C416 1.395 . S
C418 C421 1.403 . S
C419 C416 1.403 . S
C419 C420 1.524 . S
C419 C423 1.400 . S
C420 H405 0.960 . S
C420 H406 0.960 . S
C420 H407 0.960 . S
C420 C419 1.524 . S
C421 C418 1.403 . S
C421 C422 1.392 . S
C421 C425 1.495 . S
C422 C421 1.392 . S
C422 C423 1.385 . S
C422 C424 1.478 . S
C423 H417 0.930 . S
C423 C419 1.400 . S
C423 C422 1.385 . S
C424 C422 1.478 . S
C424 C426 1.381 . S
C424 C430 1.383 . S
C425 C421 1.495 . S
C425 H431 0.959 . S
C425 H432 0.961 . S
C425 H433 0.960 . S
C426 C424 1.381 . S
C426 C427 1.394 . S
C426 H434 0.930 . S
C427 C426 1.394 . S
C427 C428 1.383 . S
C427 H435 0.929 . S
C428 C427 1.383 . S
C428 C429 1.377 . S
C429 H413 0.930 . S
C429 C428 1.377 . S
C429 C430 1.379 . S
C430 H414 0.931 . S
C430 C424 1.383 . S
C430 C429 1.379 . S
H431 C425 0.959 . S
H432 C425 0.961 . S
H433 C425 0.960 . S
H434 C426 0.930 . S
H435 C427 0.929 . S
H436 C444 0.929 . S
H437 C446 0.923 1_655 S
H438 C448 0.930 . S
H439 C451 0.929 . S
H440 C454 0.930 . S
H441 C456 0.960 . S
H442 C456 0.960 . S
H443 C456 0.960 . S
C444 H436 0.929 . S
C444 C445 1.377 . S
C444 C446 1.384 . S
C445 C444 1.377 . S
C445 C451 1.390 . S
C446 H437 0.923 1_455 S
C446 C444 1.384 . S
C446 C447 1.372 . S
C447 C446 1.372 . S
C447 C448 1.400 . S
C447 C452 1.490 1_455 S
C448 H438 0.930 . S
C448 C447 1.400 . S
C448 C451 1.386 . S
H449 C465 0.930 . S
H450 C466 0.931 . S
C451 H439 0.929 . S
C451 C445 1.390 . S
C451 C448 1.386 . S
C452 C447 1.490 1_655 S
C452 C454 1.395 . S
C452 C455 1.403 . S
H453 C459 0.930 . S
C454 H440 0.930 . S
C454 C452 1.395 . S
C454 C457 1.403 . S
C455 C452 1.403 . S
C455 C456 1.524 . S
C455 C459 1.400 . S
C456 H441 0.960 . S
C456 H442 0.960 . S
C456 H443 0.960 . S
C456 C455 1.524 . S
C457 C454 1.403 . S
C457 C458 1.392 . S
C457 C461 1.495 . S
C458 C457 1.392 . S
C458 C459 1.385 . S
C458 C460 1.478 . S
C459 H453 0.930 . S
C459 C455 1.400 . S
C459 C458 1.385 . S
C460 C458 1.478 . S
C460 C462 1.381 . S
C460 C466 1.383 . S
C461 C457 1.495 . S
C461 H467 0.959 . S
C461 H468 0.961 . S
C461 H469 0.960 . S
C462 C460 1.381 . S
C462 C463 1.394 . S
C462 H470 0.930 . S
C463 C462 1.394 . S
C463 C464 1.383 . S
C463 H471 0.929 . S
C464 C463 1.383 . S
C464 C465 1.377 . S
C465 H449 0.930 . S
C465 C464 1.377 . S
C465 C466 1.379 . S
C466 H450 0.931 . S
C466 C460 1.383 . S
C466 C465 1.379 . S
H467 C461 0.959 . S
H468 C461 0.961 . S
H469 C461 0.960 . S
H470 C462 0.930 . S
H471 C463 0.929 . S
H472 C480 0.929 . S
H473 C482 0.930 . S
H474 C484 0.930 . S
H475 C487 0.929 1_554 S
H476 C490 0.930 . S
H477 C492 0.960 . S
H478 C492 0.960 . S
H479 C492 0.960 . S
C480 H472 0.929 . S
C480 C481 1.377 . S
C480 C482 1.384 . S
C481 C480 1.377 . S
C481 C487 1.390 . S
C482 H473 0.930 . S
C482 C480 1.384 . S
C482 C483 1.372 . S
C483 C482 1.372 . S
C483 C484 1.400 . S
C483 C488 1.490 1_545 S
C484 H474 0.930 . S
C484 C483 1.400 . S
C484 C487 1.386 . S
H485 C501 0.930 . S
H486 C502 0.931 . S
C487 H475 0.929 1_556 S
C487 C481 1.390 . S
C487 C484 1.386 . S
C488 C483 1.490 1_565 S
C488 C490 1.395 . S
C488 C491 1.403 . S
H489 C495 0.930 . S
C490 H476 0.930 . S
C490 C488 1.395 . S
C490 C493 1.403 . S
C491 C488 1.403 . S
C491 C492 1.524 1_565 S
C491 C495 1.400 . S
C492 H477 0.960 . S
C492 H478 0.960 . S
C492 H479 0.960 . S
C492 C491 1.524 1_545 S
C493 C490 1.403 . S
C493 C494 1.392 . S
C493 C497 1.495 . S
C494 C493 1.392 . S
C494 C495 1.385 . S
C494 C496 1.478 . S
C495 H489 0.930 . S
C495 C491 1.400 . S
C495 C494 1.385 . S
C496 C494 1.478 . S
C496 C498 1.381 . S
C496 C502 1.383 . S
C497 C493 1.495 . S
C497 H503 0.959 . S
C497 H504 0.961 . S
C497 H505 0.960 . S
C498 C496 1.381 . S
C498 C499 1.394 . S
C498 H506 0.930 . S
C499 C498 1.394 . S
C499 C500 1.383 . S
C499 H507 0.929 . S
C500 C499 1.383 . S
C500 C501 1.377 . S
C501 H485 0.930 . S
C501 C500 1.377 . S
C501 C502 1.379 . S
C502 H486 0.931 . S
C502 C496 1.383 . S
C502 C501 1.379 . S
H503 C497 0.959 . S
H504 C497 0.961 . S
H505 C497 0.960 . S
H506 C498 0.930 . S
H507 C499 0.929 . S
H508 C516 0.929 . S
H509 C518 0.930 . S
H510 C520 0.930 . S
H511 C523 0.929 . S
H512 C526 0.930 . S
H513 C528 0.960 . S
H514 C528 0.960 . S
H515 C528 0.960 . S
C516 H508 0.929 . S
C516 C517 1.377 . S
C516 C518 1.384 . S
C517 C516 1.377 . S
C517 C523 1.390 . S
C518 H509 0.930 . S
C518 C516 1.384 . S
C518 C519 1.372 . S
C519 C518 1.372 . S
C519 C520 1.400 . S
C519 C524 1.490 . S
C520 H510 0.930 . S
C520 C519 1.400 . S
C520 C523 1.386 . S
H521 C537 0.930 . S
H522 C538 0.931 . S
C523 H511 0.929 . S
C523 C517 1.390 . S
C523 C520 1.386 . S
C524 C519 1.490 . S
C524 C526 1.395 . S
C524 C527 1.403 . S
H525 C531 0.930 . S
C526 H512 0.930 . S
C526 C524 1.395 . S
C526 C529 1.403 . S
C527 C524 1.403 . S
C527 C528 1.524 . S
C527 C531 1.400 . S
C528 H513 0.960 . S
C528 H514 0.960 . S
C528 H515 0.960 . S
C528 C527 1.524 . S
C529 C526 1.403 . S
C529 C530 1.392 . S
C529 C533 1.495 . S
C530 C529 1.392 . S
C530 C531 1.385 . S
C530 C532 1.478 . S
C531 H525 0.930 . S
C531 C527 1.400 . S
C531 C530 1.385 . S
C532 C530 1.478 . S
C532 C534 1.381 . S
C532 C538 1.383 . S
C533 C529 1.495 . S
C533 H539 0.959 . S
C533 H540 0.961 . S
C533 H541 0.960 . S
C534 C532 1.381 . S
C534 C535 1.394 . S
C534 H542 0.930 . S
C535 C534 1.394 . S
C535 C536 1.383 . S
C535 H543 0.929 . S
C536 C535 1.383 . S
C536 C537 1.377 . S
C537 H521 0.930 . S
C537 C536 1.377 . S
C537 C538 1.379 . S
C538 H522 0.931 . S
C538 C532 1.383 . S
C538 C537 1.379 . S
H539 C533 0.959 . S
H540 C533 0.961 . S
H541 C533 0.960 . S
H542 C534 0.930 . S
H543 C535 0.929 . S
H544 C552 0.929 . S
H545 C554 0.930 . S
H546 C556 0.930 . S
H547 C559 0.929 . S
H548 C562 0.930 1_565 S
H549 C564 0.960 . S
H550 C564 0.960 . S
H551 C564 0.960 . S
C552 H544 0.929 . S
C552 C553 1.377 . S
C552 C554 1.384 . S
C553 C552 1.377 . S
C553 C559 1.390 . S
C554 H545 0.930 . S
C554 C552 1.384 . S
C554 C555 1.372 . S
C555 C554 1.372 . S
C555 C556 1.400 . S
C555 C560 1.490 1_565 S
C556 H546 0.930 . S
C556 C555 1.400 . S
C556 C559 1.386 . S
H557 C573 0.930 . S
H558 C574 0.931 . S
C559 H547 0.929 . S
C559 C553 1.390 . S
C559 C556 1.386 . S
C560 C555 1.490 1_545 S
C560 C562 1.395 . S
C560 C563 1.403 . S
H561 C567 0.930 . S
C562 H548 0.930 1_545 S
C562 C560 1.395 . S
C562 C565 1.403 . S
C563 C560 1.403 . S
C563 C564 1.524 . S
C563 C567 1.400 . S
C564 H549 0.960 . S
C564 H550 0.960 . S
C564 H551 0.960 . S
C564 C563 1.524 . S
C565 C562 1.403 . S
C565 C566 1.392 . S
C565 C569 1.495 . S
C566 C565 1.392 . S
C566 C567 1.385 . S
C566 C568 1.478 . S
C567 H561 0.930 . S
C567 C563 1.400 . S
C567 C566 1.385 . S
C568 C566 1.478 . S
C568 C570 1.381 . S
C568 C574 1.383 . S
C569 C565 1.495 . S
C569 H575 0.959 . S
C569 H576 0.961 . S
C569 H577 0.960 . S
C570 C568 1.381 . S
C570 C571 1.394 . S
C570 H578 0.930 . S
C571 C570 1.394 . S
C571 C572 1.383 . S
C571 H579 0.929 . S
C572 C571 1.383 . S
C572 C573 1.377 . S
C573 H557 0.930 . S
C573 C572 1.377 . S
C573 C574 1.379 . S
C574 H558 0.931 . S
C574 C568 1.383 . S
C574 C573 1.379 . S
H575 C569 0.959 . S
H576 C569 0.961 . S
H577 C569 0.960 . S
H578 C570 0.930 . S
H579 C571 0.929 . S
H580 C588 0.929 . S
H581 C590 0.930 . S
H582 C592 0.930 . S
H583 C595 0.929 . S
H584 C598 0.930 . S
H585 C600 0.960 . S
H586 C600 0.960 . S
H587 C600 0.960 . S
C588 H580 0.929 . S
C588 C589 1.377 . S
C588 C590 1.384 . S
C589 C588 1.377 . S
C589 C595 1.390 . S
C590 H581 0.930 . S
C590 C588 1.384 . S
C590 C591 1.372 . S
C591 C590 1.372 . S
C591 C592 1.400 . S
C591 C596 1.490 . S
C592 H582 0.930 . S
C592 C591 1.400 . S
C592 C595 1.386 . S
H593 C609 0.930 . S
H594 C610 0.931 . S
C595 H583 0.929 . S
C595 C589 1.390 . S
C595 C592 1.386 . S
C596 C591 1.490 . S
C596 C598 1.395 . S
C596 C599 1.403 . S
H597 C603 0.930 . S
C598 H584 0.930 . S
C598 C596 1.395 . S
C598 C601 1.403 . S
C599 C596 1.403 . S
C599 C600 1.524 . S
C599 C603 1.400 . S
C600 H585 0.960 . S
C600 H586 0.960 . S
C600 H587 0.960 . S
C600 C599 1.524 . S
C601 C598 1.403 . S
C601 C602 1.392 . S
C601 C605 1.495 . S
C602 C601 1.392 . S
C602 C603 1.385 . S
C602 C604 1.478 . S
C603 H597 0.930 . S
C603 C599 1.400 . S
C603 C602 1.385 . S
C604 C602 1.478 . S
C604 C606 1.381 . S
C604 C610 1.383 . S
C605 C601 1.495 . S
C605 H611 0.959 . S
C605 H612 0.961 . S
C605 H613 0.960 . S
C606 C604 1.381 . S
C606 C607 1.394 . S
C606 H614 0.930 . S
C607 C606 1.394 . S
C607 C608 1.383 . S
C607 H615 0.929 . S
C608 C607 1.383 . S
C608 C609 1.377 . S
C609 H593 0.930 . S
C609 C608 1.377 . S
C609 C610 1.379 . S
C610 H594 0.931 . S
C610 C604 1.383 . S
C610 C609 1.379 . S
H611 C605 0.959 . S
H612 C605 0.961 . S
H613 C605 0.960 . S
H614 C606 0.930 . S
H615 C607 0.929 . S
H616 C624 0.929 . S
H617 C626 0.930 . S
H618 C628 0.930 . S
H619 C631 0.929 . S
H620 C634 0.930 . S
H621 C636 0.960 . S
H622 C636 0.960 . S
H623 C636 0.960 . S
C624 H616 0.929 . S
C624 C625 1.377 . S
C624 C626 1.384 . S
C625 C624 1.377 . S
C625 C631 1.390 . S
C626 H617 0.930 . S
C626 C624 1.384 . S
C626 C627 1.372 . S
C627 C626 1.372 . S
C627 C628 1.400 . S
C627 C632 1.490 . S
C628 H618 0.930 . S
C628 C627 1.400 . S
C628 C631 1.386 . S
H629 C645 0.930 . S
H630 C646 0.931 . S
C631 H619 0.929 . S
C631 C625 1.390 . S
C631 C628 1.386 . S
C632 C627 1.490 . S
C632 C634 1.395 . S
C632 C635 1.403 . S
H633 C639 0.930 . S
C634 H620 0.930 . S
C634 C632 1.395 . S
C634 C637 1.403 . S
C635 C632 1.403 . S
C635 C636 1.524 . S
C635 C639 1.400 . S
C636 H621 0.960 . S
C636 H622 0.960 . S
C636 H623 0.960 . S
C636 C635 1.524 . S
C637 C634 1.403 . S
C637 C638 1.392 . S
C637 C641 1.495 . S
C638 C637 1.392 . S
C638 C639 1.385 . S
C638 C640 1.478 . S
C639 H633 0.930 . S
C639 C635 1.400 . S
C639 C638 1.385 . S
C640 C638 1.478 . S
C640 C642 1.381 . S
C640 C646 1.383 . S
C641 C637 1.495 . S
C641 H647 0.959 . S
C641 H648 0.961 . S
C641 H649 0.960 . S
C642 C640 1.381 . S
C642 C643 1.394 . S
C642 H650 0.930 . S
C643 C642 1.394 . S
C643 C644 1.383 . S
C643 H651 0.929 . S
C644 C643 1.383 . S
C644 C645 1.377 . S
C645 H629 0.930 . S
C645 C644 1.377 . S
C645 C646 1.379 . S
C646 H630 0.931 . S
C646 C640 1.383 . S
C646 C645 1.379 . S
H647 C641 0.959 . S
H648 C641 0.961 . S
H649 C641 0.960 . S
H650 C642 0.930 . S
H651 C643 0.929 . S
H652 C660 0.929 . S
H653 C662 0.930 . S
H654 C664 0.930 . S
H655 C667 0.929 . S
H656 C670 0.930 . S
H657 C672 0.960 . S
H658 C672 0.960 . S
H659 C672 0.960 . S
C660 H652 0.929 . S
C660 C661 1.377 . S
C660 C662 1.384 . S
C661 C660 1.377 . S
C661 C667 1.390 . S
C662 H653 0.930 . S
C662 C660 1.384 . S
C662 C663 1.372 . S
C663 C662 1.372 . S
C663 C664 1.400 . S
C663 C668 1.490 . S
C664 H654 0.930 . S
C664 C663 1.400 . S
C664 C667 1.386 . S
H665 C681 0.930 . S
H666 C682 0.931 . S
C667 H655 0.929 . S
C667 C661 1.390 . S
C667 C664 1.386 . S
C668 C663 1.490 . S
C668 C670 1.395 . S
C668 C671 1.403 . S
H669 C675 0.930 . S
C670 H656 0.930 . S
C670 C668 1.395 . S
C670 C673 1.403 1_455 S
C671 C668 1.403 . S
C671 C672 1.524 . S
C671 C675 1.400 . S
C672 H657 0.960 . S
C672 H658 0.960 . S
C672 H659 0.960 . S
C672 C671 1.524 . S
C673 C670 1.403 1_655 S
C673 C674 1.392 . S
C673 C677 1.495 . S
C674 C673 1.392 . S
C674 C675 1.385 1_655 S
C674 C676 1.478 . S
C675 H669 0.930 . S
C675 C671 1.400 . S
C675 C674 1.385 1_455 S
C676 C674 1.478 . S
C676 C678 1.381 . S
C676 C682 1.383 . S
C677 C673 1.495 . S
C677 H683 0.959 . S
C677 H684 0.961 . S
C677 H685 0.960 . S
C678 C676 1.381 . S
C678 C679 1.394 . S
C678 H686 0.930 . S
C679 C678 1.394 . S
C679 C680 1.383 . S
C679 H687 0.929 . S
C680 C679 1.383 . S
C680 C681 1.377 . S
C681 H665 0.930 . S
C681 C680 1.377 . S
C681 C682 1.379 . S
C682 H666 0.931 . S
C682 C676 1.383 . S
C682 C681 1.379 . S
H683 C677 0.959 . S
H684 C677 0.961 . S
H685 C677 0.960 . S
H686 C678 0.930 . S
H687 C679 0.929 . S
H688 C696 0.929 . S
H689 C698 0.930 . S
H690 C700 0.930 . S
H691 C703 0.929 . S
H692 C706 0.930 . S
H693 C708 0.960 . S
H694 C708 0.960 . S
H695 C708 0.960 . S
C696 H688 0.929 . S
C696 C697 1.377 . S
C696 C698 1.384 . S
C697 C696 1.377 . S
C697 C703 1.390 . S
C698 H689 0.930 . S
C698 C696 1.384 . S
C698 C699 1.372 . S
C699 C698 1.372 . S
C699 C700 1.400 . S
C699 C704 1.490 . S
C700 H690 0.930 . S
C700 C699 1.400 . S
C700 C703 1.386 . S
H701 C717 0.930 . S
H702 C718 0.931 . S
C703 H691 0.929 . S
C703 C697 1.390 . S
C703 C700 1.386 . S
C704 C699 1.490 . S
C704 C706 1.395 . S
C704 C707 1.403 . S
H705 C711 0.930 . S
C706 H692 0.930 . S
C706 C704 1.395 . S
C706 C709 1.403 . S
C707 C704 1.403 . S
C707 C708 1.524 . S
C707 C711 1.400 . S
C708 H693 0.960 . S
C708 H694 0.960 . S
C708 H695 0.960 . S
C708 C707 1.524 . S
C709 C706 1.403 . S
C709 C710 1.392 . S
C709 C713 1.495 . S
C710 C709 1.392 . S
C710 C711 1.385 . S
C710 C712 1.478 . S
C711 H705 0.930 . S
C711 C707 1.400 . S
C711 C710 1.385 . S
C712 C710 1.478 . S
C712 C714 1.381 . S
C712 C718 1.383 . S
C713 C709 1.495 . S
C713 H719 0.959 . S
C713 H720 0.961 . S
C713 H721 0.960 . S
C714 C712 1.381 . S
C714 C715 1.394 . S
C714 H722 0.930 . S
C715 C714 1.394 . S
C715 C716 1.383 . S
C715 H723 0.929 . S
C716 C715 1.383 . S
C716 C717 1.377 . S
C717 H701 0.930 . S
C717 C716 1.377 . S
C717 C718 1.379 . S
C718 H702 0.931 . S
C718 C712 1.383 . S
C718 C717 1.379 . S
H719 C713 0.959 . S
H720 C713 0.961 . S
H721 C713 0.960 . S
H722 C714 0.930 . S
H723 C715 0.929 . S
H724 C732 0.929 . S
H725 C734 0.930 . S
H726 C736 0.930 . S
H727 C739 0.929 . S
H728 C742 0.930 . S
H729 C744 0.960 . S
H730 C744 0.960 . S
H731 C744 0.960 . S
C732 H724 0.929 . S
C732 C733 1.377 . S
C732 C734 1.384 . S
C733 C732 1.377 . S
C733 C739 1.390 . S
C734 H725 0.930 . S
C734 C732 1.384 . S
C734 C735 1.372 . S
C735 C734 1.372 . S
C735 C736 1.400 . S
C735 C740 1.490 1_655 S
C736 H726 0.930 . S
C736 C735 1.400 . S
C736 C739 1.386 . S
H737 C753 0.930 . S
H738 C754 0.931 . S
C739 H727 0.929 . S
C739 C733 1.390 . S
C739 C736 1.386 . S
C740 C735 1.490 1_455 S
C740 C742 1.395 . S
C740 C743 1.403 . S
H741 C747 0.930 . S
C742 H728 0.930 . S
C742 C740 1.395 . S
C742 C745 1.403 . S
C743 C740 1.403 . S
C743 C744 1.524 . S
C743 C747 1.400 . S
C744 H729 0.960 . S
C744 H730 0.960 . S
C744 H731 0.960 . S
C744 C743 1.524 . S
C745 C742 1.403 . S
C745 C746 1.392 . S
C745 C749 1.495 . S
C746 C745 1.392 . S
C746 C747 1.385 . S
C746 C748 1.478 . S
C747 H741 0.930 . S
C747 C743 1.400 . S
C747 C746 1.385 . S
C748 C746 1.478 . S
C748 C750 1.381 . S
C748 C754 1.383 . S
C749 C745 1.495 . S
C749 H755 0.959 . S
C749 H756 0.961 . S
C749 H757 0.960 . S
C750 C748 1.381 . S
C750 C751 1.394 . S
C750 H758 0.930 . S
C751 C750 1.394 . S
C751 C752 1.383 . S
C751 H759 0.929 . S
C752 C751 1.383 . S
C752 C753 1.377 . S
C753 H737 0.930 . S
C753 C752 1.377 . S
C753 C754 1.379 . S
C754 H738 0.931 . S
C754 C748 1.383 . S
C754 C753 1.379 . S
H755 C749 0.959 . S
H756 C749 0.961 . S
H757 C749 0.960 . S
H758 C750 0.930 . S
H759 C751 0.929 . S
H760 C768 0.929 . S
H761 C770 0.930 . S
H762 C772 0.930 . S
H763 C775 0.929 . S
H764 C778 0.930 . S
H765 C780 0.960 . S
H766 C780 0.960 . S
H767 C780 0.960 . S
C768 H760 0.929 . S
C768 C769 1.377 . S
C768 C770 1.384 . S
C769 C768 1.377 . S
C769 C775 1.390 . S
C770 H761 0.930 . S
C770 C768 1.384 . S
C770 C771 1.372 . S
C771 C770 1.372 . S
C771 C772 1.400 . S
C771 C776 1.490 . S
C772 H762 0.930 . S
C772 C771 1.400 . S
C772 C775 1.386 . S
H773 C789 0.930 . S
H774 C790 0.931 . S
C775 H763 0.929 . S
C775 C769 1.390 . S
C775 C772 1.386 . S
C776 C771 1.490 . S
C776 C778 1.395 . S
C776 C779 1.403 . S
H777 C783 0.930 . S
C778 H764 0.930 . S
C778 C776 1.395 . S
C778 C781 1.403 . S
C779 C776 1.403 . S
C779 C780 1.524 . S
C779 C783 1.400 . S
C780 H765 0.960 . S
C780 H766 0.960 . S
C780 H767 0.960 . S
C780 C779 1.524 . S
C781 C778 1.403 . S
C781 C782 1.392 . S
C781 C785 1.495 . S
C782 C781 1.392 . S
C782 C783 1.385 . S
C782 C784 1.478 . S
C783 H777 0.930 . S
C783 C779 1.400 . S
C783 C782 1.385 . S
C784 C782 1.478 . S
C784 C786 1.381 . S
C784 C790 1.383 . S
C785 C781 1.495 . S
C785 H791 0.959 . S
C785 H792 0.961 . S
C785 H793 0.960 . S
C786 C784 1.381 . S
C786 C787 1.394 . S
C786 H794 0.930 . S
C787 C786 1.394 . S
C787 C788 1.383 . S
C787 H795 0.929 . S
C788 C787 1.383 . S
C788 C789 1.377 . S
C789 H773 0.930 . S
C789 C788 1.377 . S
C789 C790 1.379 . S
C790 H774 0.931 . S
C790 C784 1.383 . S
C790 C789 1.379 . S
H791 C785 0.959 . S
H792 C785 0.961 . S
H793 C785 0.960 . S
H794 C786 0.930 . S
H795 C787 0.929 . S
H796 C804 0.929 . S
H797 C806 0.930 . S
H798 C808 0.930 . S
H799 C811 0.929 . S
H800 C814 0.930 . S
H801 C816 0.960 . S
H802 C816 0.960 . S
H803 C816 0.960 . S
C804 H796 0.929 . S
C804 C805 1.377 . S
C804 C806 1.384 . S
C805 C804 1.377 . S
C805 C811 1.390 . S
C806 H797 0.930 . S
C806 C804 1.384 . S
C806 C807 1.372 . S
C807 C806 1.372 . S
C807 C808 1.400 . S
C807 C812 1.490 . S
C808 H798 0.930 . S
C808 C807 1.400 . S
C808 C811 1.386 . S
H809 C825 0.930 . S
H810 C826 0.931 . S
C811 H799 0.929 . S
C811 C805 1.390 . S
C811 C808 1.386 . S
C812 C807 1.490 . S
C812 C814 1.395 . S
C812 C815 1.403 . S
H813 C819 0.930 . S
C814 H800 0.930 . S
C814 C812 1.395 . S
C814 C817 1.403 . S
C815 C812 1.403 . S
C815 C816 1.524 . S
C815 C819 1.400 . S
C816 H801 0.960 . S
C816 H802 0.960 . S
C816 H803 0.960 . S
C816 C815 1.524 . S
C817 C814 1.403 . S
C817 C818 1.392 . S
C817 C821 1.495 . S
C818 C817 1.392 . S
C818 C819 1.385 . S
C818 C820 1.478 . S
C819 H813 0.930 . S
C819 C815 1.400 . S
C819 C818 1.385 . S
C820 C818 1.478 . S
C820 C822 1.381 . S
C820 C826 1.383 . S
C821 C817 1.495 . S
C821 H827 0.959 . S
C821 H828 0.961 . S
C821 H829 0.960 . S
C822 C820 1.381 . S
C822 C823 1.394 . S
C822 H830 0.930 . S
C823 C822 1.394 . S
C823 C824 1.383 . S
C823 H831 0.929 . S
C824 C823 1.383 . S
C824 C825 1.377 . S
C825 H809 0.930 . S
C825 C824 1.377 . S
C825 C826 1.379 . S
C826 H810 0.931 . S
C826 C820 1.383 . S
C826 C825 1.379 . S
H827 C821 0.959 . S
H828 C821 0.961 . S
H829 C821 0.960 . S
H830 C822 0.930 . S
H831 C823 0.929 . S
H832 C840 0.929 . S
H833 C842 0.930 . S
H834 C844 0.930 . S
H835 C847 0.929 . S
H836 C850 0.930 . S
H837 C852 0.960 . S
H838 C852 0.960 . S
H839 C852 0.960 . S
C840 H832 0.929 . S
C840 C841 1.377 . S
C840 C842 1.384 . S
C841 C840 1.377 . S
C841 C847 1.390 . S
C842 H833 0.930 . S
C842 C840 1.384 . S
C842 C843 1.372 . S
C843 C842 1.372 . S
C843 C844 1.400 . S
C843 C848 1.490 . S
C844 H834 0.930 . S
C844 C843 1.400 . S
C844 C847 1.386 . S
H845 C861 0.930 . S
H846 C862 0.931 . S
C847 H835 0.929 . S
C847 C841 1.390 . S
C847 C844 1.386 . S
C848 C843 1.490 . S
C848 C850 1.395 . S
C848 C851 1.403 . S
H849 C855 0.930 . S
C850 H836 0.930 . S
C850 C848 1.395 . S
C850 C853 1.403 . S
C851 C848 1.403 . S
C851 C852 1.524 . S
C851 C855 1.400 . S
C852 H837 0.960 . S
C852 H838 0.960 . S
C852 H839 0.960 . S
C852 C851 1.524 . S
C853 C850 1.403 . S
C853 C854 1.392 . S
C853 C857 1.495 . S
C854 C853 1.392 . S
C854 C855 1.385 . S
C854 C856 1.478 . S
C855 H849 0.930 . S
C855 C851 1.400 . S
C855 C854 1.385 . S
C856 C854 1.478 . S
C856 C858 1.381 . S
C856 C862 1.383 . S
C857 C853 1.495 . S
C857 H863 0.959 . S
C857 H864 0.961 . S
C857 H865 0.960 . S
C858 C856 1.381 . S
C858 C859 1.394 . S
C858 H866 0.930 . S
C859 C858 1.394 . S
C859 C860 1.383 . S
C859 H867 0.929 . S
C860 C859 1.383 . S
C860 C861 1.377 . S
C861 H845 0.930 . S
C861 C860 1.377 . S
C861 C862 1.379 . S
C862 H846 0.931 . S
C862 C856 1.383 . S
C862 C861 1.379 . S
H863 C857 0.959 . S
H864 C857 0.961 . S
H865 C857 0.960 . S
H866 C858 0.930 . S
H867 C859 0.929 . S
H868 C876 0.929 . S
H869 C878 0.930 . S
H870 C880 0.930 . S
H871 C883 0.929 . S
H872 C886 0.930 . S
H873 C888 0.960 . S
H874 C888 0.960 . S
H875 C888 0.960 . S
C876 H868 0.929 . S
C876 C877 1.377 . S
C876 C878 1.384 . S
C877 C876 1.377 . S
C877 C883 1.390 . S
C878 H869 0.930 . S
C878 C876 1.384 . S
C878 C879 1.372 . S
C879 C878 1.372 . S
C879 C880 1.400 . S
C879 C884 1.490 . S
C880 H870 0.930 . S
C880 C879 1.400 . S
C880 C883 1.386 . S
H881 C897 0.930 . S
H882 C898 0.931 . S
C883 H871 0.929 . S
C883 C877 1.390 . S
C883 C880 1.386 . S
C884 C879 1.490 . S
C884 C886 1.395 . S
C884 C887 1.403 . S
H885 C891 0.930 . S
C886 H872 0.930 . S
C886 C884 1.395 . S
C886 C889 1.403 . S
C887 C884 1.403 . S
C887 C888 1.524 . S
C887 C891 1.400 . S
C888 H873 0.960 . S
C888 H874 0.960 . S
C888 H875 0.960 . S
C888 C887 1.524 . S
C889 C886 1.403 . S
C889 C890 1.392 . S
C889 C893 1.495 . S
C890 C889 1.392 . S
C890 C891 1.385 . S
C890 C892 1.478 . S
C891 H885 0.930 . S
C891 C887 1.400 . S
C891 C890 1.385 . S
C892 C890 1.478 . S
C892 C894 1.381 . S
C892 C898 1.383 . S
C893 C889 1.495 . S
C893 H899 0.959 . S
C893 H900 0.961 . S
C893 H901 0.960 . S
C894 C892 1.381 . S
C894 C895 1.394 . S
C894 H902 0.930 . S
C895 C894 1.394 . S
C895 C896 1.383 . S
C895 H903 0.929 . S
C896 C895 1.383 . S
C896 C897 1.377 . S
C897 H881 0.930 . S
C897 C896 1.377 . S
C897 C898 1.379 . S
C898 H882 0.931 . S
C898 C892 1.383 . S
C898 C897 1.379 . S
H899 C893 0.959 . S
H900 C893 0.961 . S
H901 C893 0.960 . S
H902 C894 0.930 . S
H903 C895 0.929 . S
H904 C912 0.929 . S
H905 C914 0.930 . S
H906 C916 0.930 . S
H907 C919 0.929 . S
H908 C922 0.930 . S
H909 C924 0.960 . S
H910 C924 0.960 . S
H911 C924 0.960 . S
C912 H904 0.929 . S
C912 C913 1.377 . S
C912 C914 1.384 . S
C913 C912 1.377 . S
C913 C919 1.390 . S
C914 H905 0.930 . S
C914 C912 1.384 . S
C914 C915 1.372 . S
C915 C914 1.372 . S
C915 C916 1.400 . S
C915 C920 1.490 . S
C916 H906 0.930 . S
C916 C915 1.400 . S
C916 C919 1.386 . S
H917 C933 0.930 . S
H918 C934 0.931 . S
C919 H907 0.929 . S
C919 C913 1.390 . S
C919 C916 1.386 . S
C920 C915 1.490 . S
C920 C922 1.395 . S
C920 C923 1.403 . S
H921 C927 0.930 . S
C922 H908 0.930 . S
C922 C920 1.395 . S
C922 C925 1.403 . S
C923 C920 1.403 . S
C923 C924 1.524 . S
C923 C927 1.400 . S
C924 H909 0.960 . S
C924 H910 0.960 . S
C924 H911 0.960 . S
C924 C923 1.524 . S
C925 C922 1.403 . S
C925 C926 1.392 . S
C925 C929 1.495 . S
C926 C925 1.392 . S
C926 C927 1.385 . S
C926 C928 1.478 . S
C927 H921 0.930 . S
C927 C923 1.400 . S
C927 C926 1.385 . S
C928 C926 1.478 . S
C928 C930 1.381 . S
C928 C934 1.383 . S
C929 C925 1.495 . S
C929 H935 0.959 . S
C929 H936 0.961 . S
C929 H937 0.960 . S
C930 C928 1.381 . S
C930 C931 1.394 . S
C930 H938 0.930 . S
C931 C930 1.394 . S
C931 C932 1.383 . S
C931 H939 0.929 . S
C932 C931 1.383 . S
C932 C933 1.377 . S
C933 H917 0.930 . S
C933 C932 1.377 . S
C933 C934 1.379 . S
C934 H918 0.931 . S
C934 C928 1.383 . S
C934 C933 1.379 . S
H935 C929 0.959 . S
H936 C929 0.961 . S
H937 C929 0.960 . S
H938 C930 0.930 . S
H939 C931 0.929 . S
H940 C948 0.929 . S
H941 C950 0.930 . S
H942 C952 0.930 . S
H943 C955 0.929 1_554 S
H944 C958 0.930 . S
H945 C960 0.960 . S
H946 C960 0.960 . S
H947 C960 0.960 . S
C948 H940 0.929 . S
C948 C949 1.377 . S
C948 C950 1.384 . S
C949 C948 1.377 . S
C949 C955 1.390 . S
C950 H941 0.930 . S
C950 C948 1.384 . S
C950 C951 1.372 . S
C951 C950 1.372 . S
C951 C952 1.400 . S
C951 C956 1.490 . S
C952 H942 0.930 . S
C952 C951 1.400 . S
C952 C955 1.386 . S
H953 C969 0.930 . S
H954 C970 0.931 . S
C955 H943 0.929 1_556 S
C955 C949 1.390 . S
C955 C952 1.386 . S
C956 C951 1.490 . S
C956 C958 1.395 . S
C956 C959 1.403 . S
H957 C963 0.930 . S
C958 H944 0.930 . S
C958 C956 1.395 . S
C958 C961 1.403 . S
C959 C956 1.403 . S
C959 C960 1.524 . S
C959 C963 1.400 . S
C960 H945 0.960 . S
C960 H946 0.960 . S
C960 H947 0.960 . S
C960 C959 1.524 . S
C961 C958 1.403 . S
C961 C962 1.392 . S
C961 C965 1.495 . S
C962 C961 1.392 . S
C962 C963 1.385 . S
C962 C964 1.478 . S
C963 H957 0.930 . S
C963 C959 1.400 . S
C963 C962 1.385 . S
C964 C962 1.478 . S
C964 C966 1.381 . S
C964 C970 1.383 . S
C965 C961 1.495 . S
C965 H971 0.959 . S
C965 H972 0.961 . S
C965 H973 0.960 . S
C966 C964 1.381 . S
C966 C967 1.394 . S
C966 H974 0.930 . S
C967 C966 1.394 . S
C967 C968 1.383 . S
C967 H975 0.929 . S
C968 C967 1.383 . S
C968 C969 1.377 . S
C969 H953 0.930 . S
C969 C968 1.377 . S
C969 C970 1.379 . S
C970 H954 0.931 . S
C970 C964 1.383 . S
C970 C969 1.379 . S
H971 C965 0.959 . S
H972 C965 0.961 . S
H973 C965 0.960 . S
H974 C966 0.930 . S
H975 C967 0.929 . S
H976 C984 0.929 . S
H977 C986 0.930 . S
H978 C988 0.930 . S
H979 C991 0.929 . S
H980 C994 0.930 . S
H981 C996 0.960 . S
H982 C996 0.960 . S
H983 C996 0.960 . S
C984 H976 0.929 . S
C984 C985 1.377 . S
C984 C986 1.384 . S
C985 C984 1.377 . S
C985 C991 1.390 . S
C986 H977 0.930 . S
C986 C984 1.384 . S
C986 C987 1.372 . S
C987 C986 1.372 . S
C987 C988 1.400 . S
C987 C992 1.490 . S
C988 H978 0.930 . S
C988 C987 1.400 . S
C988 C991 1.386 . S
H989 C1005 0.930 . S
H990 C1006 0.931 . S
C991 H979 0.929 . S
C991 C985 1.390 . S
C991 C988 1.386 . S
C992 C987 1.490 . S
C992 C994 1.395 . S
C992 C995 1.403 . S
H993 C999 0.930 . S
C994 H980 0.930 . S
C994 C992 1.395 . S
C994 C997 1.403 . S
C995 C992 1.403 . S
C995 C996 1.524 . S
C995 C999 1.400 . S
C996 H981 0.960 . S
C996 H982 0.960 . S
C996 H983 0.960 . S
C996 C995 1.524 . S
C997 C994 1.403 . S
C997 C998 1.392 . S
C997 C1001 1.495 . S
C998 C997 1.392 . S
C998 C999 1.385 . S
C998 C1000 1.478 . S
C999 H993 0.930 . S
C999 C995 1.400 . S
C999 C998 1.385 . S
C1000 C998 1.478 . S
C1000 C1002 1.381 . S
C1000 C1006 1.383 . S
C1001 C997 1.495 . S
C1001 H1007 0.959 . S
C1001 H1008 0.961 . S
C1001 H1009 0.960 . S
C1002 C1000 1.381 . S
C1002 C1003 1.394 . S
C1002 H1010 0.930 . S
C1003 C1002 1.394 . S
C1003 C1004 1.383 . S
C1003 H1011 0.929 . S
C1004 C1003 1.383 . S
C1004 C1005 1.377 . S
C1005 H989 0.930 . S
C1005 C1004 1.377 . S
C1005 C1006 1.379 . S
C1006 H990 0.931 . S
C1006 C1000 1.383 . S
C1006 C1005 1.379 . S
H1007 C1001 0.959 . S
H1008 C1001 0.961 . S
H1009 C1001 0.960 . S
H1010 C1002 0.930 . S
H1011 C1003 0.929 . S
H1012 C1020 0.929 . S
H1013 C1022 0.930 . S
H1014 C1024 0.930 . S
H1015 C1027 0.929 . S
H1016 C1030 0.930 . S
H1017 C1032 0.960 . S
H1018 C1032 0.960 . S
H1019 C1032 0.960 . S
C1020 H1012 0.929 . S
C1020 C1021 1.377 . S
C1020 C1022 1.384 . S
C1021 C1020 1.377 . S
C1021 C1027 1.390 . S
C1022 H1013 0.930 . S
C1022 C1020 1.384 . S
C1022 C1023 1.372 . S
C1023 C1022 1.372 . S
C1023 C1024 1.400 . S
C1023 C1028 1.490 . S
C1024 H1014 0.930 . S
C1024 C1023 1.400 . S
C1024 C1027 1.386 . S
H1025 C1041 0.930 . S
H1026 C1042 0.931 . S
C1027 H1015 0.929 . S
C1027 C1021 1.390 . S
C1027 C1024 1.386 . S
C1028 C1023 1.490 . S
C1028 C1030 1.395 . S
C1028 C1031 1.403 . S
H1029 C1035 0.930 . S
C1030 H1016 0.930 . S
C1030 C1028 1.395 . S
C1030 C1033 1.403 . S
C1031 C1028 1.403 . S
C1031 C1032 1.524 . S
C1031 C1035 1.400 . S
C1032 H1017 0.960 . S
C1032 H1018 0.960 . S
C1032 H1019 0.960 . S
C1032 C1031 1.524 . S
C1033 C1030 1.403 . S
C1033 C1034 1.392 . S
C1033 C1037 1.495 . S
C1034 C1033 1.392 . S
C1034 C1035 1.385 . S
C1034 C1036 1.478 . S
C1035 H1029 0.930 . S
C1035 C1031 1.400 . S
C1035 C1034 1.385 . S
C1036 C1034 1.478 . S
C1036 C1038 1.381 . S
C1036 C1042 1.383 . S
C1037 C1033 1.495 . S
C1037 H1043 0.959 . S
C1037 H1044 0.961 . S
C1037 H1045 0.960 . S
C1038 C1036 1.381 . S
C1038 C1039 1.394 . S
C1038 H1046 0.930 . S
C1039 C1038 1.394 . S
C1039 C1040 1.383 . S
C1039 H1047 0.929 . S
C1040 C1039 1.383 . S
C1040 C1041 1.377 . S
C1041 H1025 0.930 . S
C1041 C1040 1.377 . S
C1041 C1042 1.379 . S
C1042 H1026 0.931 . S
C1042 C1036 1.383 . S
C1042 C1041 1.379 . S
H1043 C1037 0.959 . S
H1044 C1037 0.961 . S
H1045 C1037 0.960 . S
H1046 C1038 0.930 . S
H1047 C1039 0.929 . S
C193 C7 1.327 . S
C212 C97 1.261 . S
C229 C37 1.377 . S
C248 C109 1.353 . S
C265 C54 1.302 . S
C284 C121 1.262 . S
C320 C130 1.215 . S
C301 C87 1.221 . S
C356 C145 1.208 . S
C337 C30 1.294 . S
C373 C51 1.231 . S
C392 C154 1.226 . S
C409 C84 1.316 . S
C428 C169 1.256 . S
C445 C10 1.380 . S
C464 C181 1.316 . S
C481 C59 1.248 1_556 S
C500 C178 1.209 . S
C536 C142 1.197 . S
C517 C74 1.211 . S
C572 C157 1.296 . S
C553 C18 1.304 . S
C589 C32 1.206 . S
C608 C166 1.192 . S
C644 C106 1.199 . S
C625 C73 1.194 . S
C661 C15 1.243 . S
C680 C118 1.191 . S
C716 C133 1.311 . S
C697 C43 1.338 . S
C752 C94 1.192 . S
C733 C62 1.203 . S
C788 C164 1.300 . S
C769 C21 1.333 . S
C824 C176 1.352 . S
C805 C29 1.392 . S
C841 C52 1.323 . S
C860 C140 1.323 . S
C896 C152 1.304 . S
C877 C81 1.344 . S
C932 C116 1.313 . S
C913 C40 1.348 . S
C949 C65 1.351 1_556 S
C968 C128 1.350 . S
C1004 C92 1.338 . S
C985 C76 1.338 . S
C1040 C104 1.313 . S
C1021 C8 1.350 . S
