# Generated by pormake.
# Topology pyr, (3,6)-cn, num edge types: 1
# Building blocks:
#     Node 0, Type 0, BuildingBlock: QEWDON_clean_linker_0, # of connection points: 3
#     Node 1, Type 0, BuildingBlock: QEWDON_clean_linker_0, # of connection points: 3
#     Node 2, Type 0, BuildingBlock: QEWDON_clean_linker_0, # of connection points: 3
#     Node 3, Type 0, BuildingBlock: QEWDON_clean_linker_0, # of connection points: 3
#     Node 4, Type 0, BuildingBlock: QEWDON_clean_linker_0, # of connection points: 3
#     Node 5, Type 0, BuildingBlock: QEWDON_clean_linker_0, # of connection points: 3
#     Node 6, Type 0, BuildingBlock: QEWDON_clean_linker_0, # of connection points: 3
#     Node 7, Type 0, BuildingBlock: QEWDON_clean_linker_0, # of connection points: 3
#     Node 8, Type 1, BuildingBlock: PAMTUU_clean_sbu_0, # of connection points: 6
#     Node 9, Type 1, BuildingBlock: PAMTUU_clean_sbu_0, # of connection points: 6
#     Node 10, Type 1, BuildingBlock: PAMTUU_clean_sbu_0, # of connection points: 6
#     Node 11, Type 1, BuildingBlock: PAMTUU_clean_sbu_0, # of connection points: 6
#     Edge 12, Type (0, 1), BuildingBlock: UVAHIK_clean_linker_0, # of connection points: 2
#     Edge 13, Type (0, 1), BuildingBlock: UVAHIK_clean_linker_0, # of connection points: 2
#     Edge 14, Type (0, 1), BuildingBlock: UVAHIK_clean_linker_0, # of connection points: 2
#     Edge 15, Type (0, 1), BuildingBlock: UVAHIK_clean_linker_0, # of connection points: 2
#     Edge 16, Type (0, 1), BuildingBlock: UVAHIK_clean_linker_0, # of connection points: 2
#     Edge 17, Type (0, 1), BuildingBlock: UVAHIK_clean_linker_0, # of connection points: 2
#     Edge 18, Type (0, 1), BuildingBlock: UVAHIK_clean_linker_0, # of connection points: 2
#     Edge 19, Type (0, 1), BuildingBlock: UVAHIK_clean_linker_0, # of connection points: 2
#     Edge 20, Type (0, 1), BuildingBlock: UVAHIK_clean_linker_0, # of connection points: 2
#     Edge 21, Type (0, 1), BuildingBlock: UVAHIK_clean_linker_0, # of connection points: 2
#     Edge 22, Type (0, 1), BuildingBlock: UVAHIK_clean_linker_0, # of connection points: 2
#     Edge 23, Type (0, 1), BuildingBlock: UVAHIK_clean_linker_0, # of connection points: 2
#     Edge 24, Type (0, 1), BuildingBlock: UVAHIK_clean_linker_0, # of connection points: 2
#     Edge 25, Type (0, 1), BuildingBlock: UVAHIK_clean_linker_0, # of connection points: 2
#     Edge 26, Type (0, 1), BuildingBlock: UVAHIK_clean_linker_0, # of connection points: 2
#     Edge 27, Type (0, 1), BuildingBlock: UVAHIK_clean_linker_0, # of connection points: 2
#     Edge 28, Type (0, 1), BuildingBlock: UVAHIK_clean_linker_0, # of connection points: 2
#     Edge 29, Type (0, 1), BuildingBlock: UVAHIK_clean_linker_0, # of connection points: 2
#     Edge 30, Type (0, 1), BuildingBlock: UVAHIK_clean_linker_0, # of connection points: 2
#     Edge 31, Type (0, 1), BuildingBlock: UVAHIK_clean_linker_0, # of connection points: 2
#     Edge 32, Type (0, 1), BuildingBlock: UVAHIK_clean_linker_0, # of connection points: 2
#     Edge 33, Type (0, 1), BuildingBlock: UVAHIK_clean_linker_0, # of connection points: 2
#     Edge 34, Type (0, 1), BuildingBlock: UVAHIK_clean_linker_0, # of connection points: 2
#     Edge 35, Type (0, 1), BuildingBlock: UVAHIK_clean_linker_0, # of connection points: 2
# Relax obj value: 0.130
# Max RMSD: 0.247
# Mean RMSD: 0.188
data_MOF--net-pyr--node1-PAMTUU_clean_sbu_0--node2-QEWDON_clean_linker_0--edge1-UVAHIK_clean_linker_0
_symmetry_space_group_name_H-M    P1
_symmetry_Int_Tables_number       1
_symmetry_cell_setting            triclinic
loop_
_symmetry_equiv_pos_as_xyz
'x, y, z'
_cell_length_a     49.850471
_cell_length_b     50.868009
_cell_length_c     51.730273
_cell_angle_alpha  90.063262
_cell_angle_beta   89.604016
_cell_angle_gamma 108.47085
loop_
_atom_site_label
_atom_site_type_symbol
_atom_site_fract_x
_atom_site_fract_y
_atom_site_fract_z
_atom_type_partial_charge
H0 H 0.3625 0.31088 0.18582 0.0
C1 C 0.35076 0.30489 0.20375 0.0
C2 C 0.34938 0.27968 0.21563 0.0
C3 C 0.33607 0.32188 0.21427 0.0
H4 H 0.33284 0.25268 0.24805 0.0
C5 C 0.33378 0.27198 0.23863 0.0
C6 C 0.31918 0.28884 0.2495 0.0
C7 C 0.32009 0.3136 0.23703 0.0
C8 C 0.33738 0.34825 0.2014 0.0
H9 H 0.30899 0.32679 0.24541 0.0
C10 C 0.31244 0.35459 0.19636 0.0
C11 C 0.31348 0.37953 0.18395 0.0
C12 C 0.36355 0.36709 0.19395 0.0
H13 H 0.38305 0.3627 0.19774 0.0
C14 C 0.3648 0.39198 0.18191 0.0
H15 H 0.2922 0.33967 0.20143 0.0
C16 C 0.34 0.39824 0.17695 0.0
H17 H 0.34165 0.41785 0.16784 0.0
H18 H 0.38508 0.40652 0.17644 0.0
H19 H 0.20035 0.82979 0.76709 0.0
C20 C 0.21258 0.81846 0.75736 0.0
C21 C 0.23893 0.81903 0.76722 0.0
C22 C 0.20138 0.80231 0.73557 0.0
H23 H 0.27523 0.80538 0.76149 0.0
C24 C 0.25437 0.80404 0.75453 0.0
C25 C 0.24363 0.78804 0.73256 0.0
C26 C 0.21692 0.78711 0.72329 0.0
C27 C 0.17303 0.80068 0.72606 0.0
H28 H 0.20818 0.77456 0.70655 0.0
C29 C 0.16708 0.8248 0.71858 0.0
C30 C 0.14007 0.8232 0.7095 0.0
C31 C 0.15177 0.7749 0.72448 0.0
H32 H 0.15596 0.7561 0.73018 0.0
C33 C 0.12481 0.77327 0.71589 0.0
H34 H 0.18353 0.84471 0.71964 0.0
C35 C 0.11892 0.79723 0.70847 0.0
H36 H 0.09802 0.79538 0.70135 0.0
H37 H 0.10847 0.75334 0.71483 0.0
H38 H 0.69288 0.46336 0.88388 0.0
C39 C 0.68389 0.44205 0.89023 0.0
C40 C 0.70057 0.42927 0.90423 0.0
C41 C 0.65514 0.42793 0.88565 0.0
H42 H 0.70038 0.39221 0.92461 0.0
C43 C 0.68815 0.40182 0.91287 0.0
C44 C 0.65952 0.3873 0.90834 0.0
C45 C 0.64314 0.40062 0.89477 0.0
C46 C 0.63648 0.44305 0.87538 0.0
H47 H 0.62084 0.38998 0.8917 0.0
C48 C 0.63869 0.45299 0.84969 0.0
C49 C 0.6208 0.46786 0.84105 0.0
C50 C 0.61625 0.4479 0.89209 0.0
H51 H 0.61424 0.44048 0.91187 0.0
C52 C 0.59874 0.46268 0.88365 0.0
H53 H 0.65414 0.44922 0.83661 0.0
C54 C 0.60101 0.47265 0.85839 0.0
H55 H 0.58687 0.48378 0.85223 0.0
H56 H 0.58329 0.46638 0.89674 0.0
H57 H 0.88846 0.76583 0.36071 0.0
C58 C 0.87124 0.75169 0.3716 0.0
C59 C 0.86764 0.75648 0.39802 0.0
C60 C 0.85188 0.72941 0.35872 0.0
H61 H 0.84065 0.74258 0.43133 0.0
C62 C 0.84454 0.73823 0.4114 0.0
C63 C 0.82503 0.71573 0.39886 0.0
C64 C 0.82896 0.71146 0.37241 0.0
C65 C 0.8525 0.72816 0.33019 0.0
H66 H 0.81371 0.69475 0.3622 0.0
C67 C 0.86824 0.71376 0.31678 0.0
C68 C 0.869 0.71403 0.28947 0.0
C69 C 0.83725 0.74228 0.31628 0.0
H70 H 0.82503 0.75339 0.32633 0.0
C71 C 0.83776 0.74235 0.28936 0.0
H72 H 0.88014 0.70292 0.32746 0.0
C73 C 0.85356 0.72844 0.27602 0.0
H74 H 0.85353 0.72873 0.25508 0.0
H75 H 0.82592 0.7533 0.27878 0.0
H76 H 0.72862 0.79226 0.94435 0.0
C77 C 0.73661 0.80674 0.92861 0.0
C78 C 0.76304 0.80914 0.91751 0.0
C79 C 0.72042 0.82296 0.91951 0.0
H80 H 0.79378 0.83019 0.88875 0.0
C81 C 0.77329 0.82811 0.89731 0.0
C82 C 0.75749 0.84447 0.888 0.0
C83 C 0.73097 0.84175 0.8991 0.0
C84 C 0.69253 0.82024 0.93143 0.0
H85 H 0.7186 0.85424 0.8919 0.0
C86 C 0.68557 0.84393 0.93884 0.0
C87 C 0.65954 0.84134 0.95107 0.0
C88 C 0.67298 0.79387 0.93599 0.0
H89 H 0.67773 0.77533 0.93026 0.0
C90 C 0.64699 0.79119 0.94776 0.0
H91 H 0.70082 0.86431 0.9359 0.0
C92 C 0.64029 0.81471 0.95533 0.0
H93 H 0.61993 0.81207 0.96435 0.0
H94 H 0.63199 0.7708 0.95107 0.0
H95 H 0.82436 0.26161 0.46484 0.0
C96 C 0.81879 0.25962 0.44454 0.0
C97 C 0.83511 0.2498 0.42717 0.0
C98 C 0.79468 0.26574 0.4363 0.0
H99 H 0.84046 0.23983 0.38746 0.0
C100 C 0.82808 0.2477 0.40088 0.0
C101 C 0.80411 0.25393 0.39209 0.0
C102 C 0.78766 0.26326 0.40995 0.0
C103 C 0.77545 0.27174 0.45584 0.0
H104 H 0.76838 0.26678 0.4037 0.0
C105 C 0.76375 0.29329 0.45225 0.0
C106 C 0.74636 0.29916 0.47151 0.0
C107 C 0.76884 0.25566 0.47854 0.0
H108 H 0.77701 0.23855 0.48159 0.0
C109 C 0.75139 0.26123 0.49745 0.0
H110 H 0.76881 0.30593 0.43493 0.0
C111 C 0.74029 0.28288 0.49406 0.0
H112 H 0.72661 0.28667 0.50898 0.0
H113 H 0.74641 0.24868 0.5148 0.0
H114 H 0.40523 0.75983 0.23241 0.0
C115 C 0.38305 0.74921 0.22875 0.0
C116 C 0.36694 0.76262 0.21474 0.0
C117 C 0.37133 0.72125 0.23611 0.0
H118 H 0.32593 0.7577 0.19829 0.0
C119 C 0.33859 0.74774 0.20905 0.0
C120 C 0.32689 0.71958 0.21548 0.0
C121 C 0.34339 0.70654 0.22919 0.0
C122 C 0.38986 0.70571 0.24563 0.0
H123 H 0.33491 0.68459 0.23357 0.0
C124 C 0.39537 0.70357 0.27218 0.0
C125 C 0.41272 0.68783 0.28025 0.0
C126 C 0.40157 0.69206 0.22735 0.0
H127 H 0.39744 0.69338 0.20693 0.0
C128 C 0.41843 0.6764 0.23517 0.0
H129 H 0.38635 0.71415 0.28631 0.0
C130 C 0.42388 0.67417 0.26131 0.0
H131 H 0.43656 0.66129 0.26669 0.0
H132 H 0.42716 0.66573 0.22091 0.0
H133 H 0.21104 0.43275 0.75614 0.0
C134 C 0.1991 0.41441 0.74559 0.0
C135 C 0.20534 0.41132 0.71933 0.0
C136 C 0.17868 0.39307 0.75884 0.0
H137 H 0.1952 0.38363 0.68654 0.0
C138 C 0.18983 0.38695 0.70634 0.0
C139 C 0.16896 0.36567 0.71915 0.0
C140 C 0.16362 0.36889 0.74547 0.0
C141 C 0.17635 0.39385 0.7874 0.0
H142 H 0.14814 0.35231 0.75581 0.0
C143 C 0.16766 0.41427 0.80034 0.0
C144 C 0.1666 0.41459 0.82763 0.0
C145 C 0.18367 0.37385 0.80192 0.0
H146 H 0.19049 0.35805 0.79237 0.0
C147 C 0.1828 0.37429 0.82883 0.0
H148 H 0.16181 0.4297 0.78932 0.0
C149 C 0.17443 0.39454 0.84162 0.0
H150 H 0.17364 0.3943 0.86257 0.0
H151 H 0.18862 0.35886 0.83982 0.0
Tb152 Tb 0.05075 0.06819 0.53572 0.0
Tb153 Tb 0.99731 0.05363 0.57691 0.0
C154 C 0.99995 0.01233 0.53353 0.0
C155 C 0.10758 0.10346 0.48746 0.0
C156 C 0.14238 0.14685 0.45659 0.0
C157 C 0.11935 0.12631 0.44572 0.0
C158 C 0.10225 0.10481 0.46095 0.0
C159 C 0.13028 0.12429 0.49852 0.0
C160 C 0.14752 0.14578 0.48321 0.0
C161 C 0.09033 0.07937 0.50268 0.0
O162 O 0.02778 0.0968 0.52687 0.0
O163 O 0.98449 0.06969 0.54179 0.0
O164 O 0.02033 0.09744 0.58124 0.0
O165 O 0.06416 0.09807 0.56707 0.0
O166 O 0.954 0.0348 0.58484 0.0
O167 O 0.98192 0.06056 0.61319 0.0
O168 O 0.03008 0.04118 0.59603 0.0
O169 O 0.05579 0.03567 0.56043 0.0
O170 O 0.01662 0.03341 0.52048 0.0
O171 O 0.99427 0.01459 0.55809 0.0
C172 C 1.00017 0.09058 0.52787 0.0
O173 O 0.09433 0.07953 0.52758 0.0
O174 O 0.06358 0.06984 0.49694 0.0
C175 C 0.04786 0.10913 0.58029 0.0
C176 C 0.94196 0.02534 0.6295 0.0
C177 C 0.91021 0.99261 0.67009 0.0
C178 C 0.92945 0.01899 0.67508 0.0
C179 C 0.94503 0.03517 0.65503 0.0
C180 C 0.92311 0.99875 0.62444 0.0
C181 C 0.90739 0.98252 0.64458 0.0
C182 C 0.95642 0.04427 0.60846 0.0
C183 C 0.04893 0.03155 0.58502 0.0
H184 H 0.11513 0.12625 0.42521 0.0
H185 H 0.08515 0.08886 0.45183 0.0
H186 H 0.13504 0.12379 0.51887 0.0
H187 H 0.16504 0.16141 0.49213 0.0
H188 H 0.93177 0.0276 0.69441 0.0
H189 H 0.95898 0.05578 0.65943 0.0
H190 H 0.92005 0.99068 0.60492 0.0
H191 H 0.89289 0.96219 0.64017 0.0
Tb192 Tb 0.54219 0.08713 0.09076 0.0
Tb193 Tb 0.49432 0.06989 0.04482 0.0
C194 C 0.54749 0.05046 0.04362 0.0
C195 C 0.60376 0.12281 0.13551 0.0
C196 C 0.65242 0.15713 0.16075 0.0
C197 C 0.6545 0.13686 0.14299 0.0
C198 C 0.63038 0.11976 0.13059 0.0
C199 C 0.60202 0.1442 0.15197 0.0
C200 C 0.62603 0.16117 0.16439 0.0
C201 C 0.57745 0.10149 0.12718 0.0
O202 O 0.55039 0.12429 0.06707 0.0
O203 O 0.5289 0.10431 0.02949 0.0
O204 O 0.48863 0.10389 0.06694 0.0
O205 O 0.50251 0.09086 0.10509 0.0
O206 O 0.4836 0.06245 1.00579 0.0
O207 O 0.45187 0.06268 0.03455 0.0
O208 O 0.47842 0.03823 0.07467 0.0
O209 O 0.51859 0.0442 0.09903 0.0
O210 O 0.5608 0.07187 0.05807 0.0
O211 O 0.52 0.04294 0.04039 0.0
C212 C 0.54582 0.12548 0.04214 0.0
O213 O 0.55499 0.10914 0.12509 0.0
O214 O 0.57883 0.08418 0.10899 0.0
C215 C 0.48828 0.10408 0.09219 0.0
C216 C 0.43619 0.03478 0.99755 0.0
C217 C 0.39708 0.99359 0.96814 0.0
C218 C 0.38916 0.01506 0.97971 0.0
C219 C 0.40855 0.03547 0.99419 0.0
C220 C 0.44392 0.01274 0.98699 0.0
C221 C 0.42451 0.99231 0.97239 0.0
C222 C 0.45681 0.05841 1.01037 0.0
C223 C 0.49253 0.02993 0.0927 0.0
H224 H 0.67458 0.13344 0.13947 0.0
H225 H 0.63242 0.10335 0.11815 0.0
H226 H 0.58178 0.14687 0.15649 0.0
H227 H 0.62342 0.17621 0.1782 0.0
H228 H 0.36806 0.01636 0.97721 0.0
H229 H 0.40215 0.05226 1.00224 0.0
H230 H 0.46515 0.01172 0.98936 0.0
H231 H 0.43135 0.97616 0.9636 0.0
Tb232 Tb 0.50948 0.54744 0.54673 0.0
Tb233 Tb 0.51795 0.60649 0.57637 0.0
C234 C 0.49083 0.59508 0.52216 0.0
C235 C 0.52573 0.48871 0.51657 0.0
C236 C 0.56633 0.46345 0.50201 0.0
C237 C 0.53804 0.45224 0.49401 0.0
C238 C 0.51792 0.46484 0.50121 0.0
C239 C 0.55381 0.49983 0.5248 0.0
C240 C 0.57394 0.48737 0.51754 0.0
C241 C 0.50505 0.50282 0.52294 0.0
O242 O 0.55448 0.56933 0.54439 0.0
O243 O 0.55345 0.6139 0.54944 0.0
O244 O 0.54531 0.58776 0.59694 0.0
O245 O 0.52297 0.54233 0.58594 0.0
O246 O 0.52457 0.64929 0.57403 0.0
O247 O 0.51937 0.62858 0.61094 0.0
O248 O 0.48181 0.57584 0.59412 0.0
O249 O 0.46748 0.54574 0.56025 0.0
O250 O 0.50455 0.57724 0.51854 0.0
O251 O 0.48751 0.60368 0.54551 0.0
C252 C 0.56624 0.59622 0.54175 0.0
O253 O 0.49912 0.504 0.54739 0.0
O254 O 0.50953 0.52669 0.51168 0.0
C255 C 0.54009 0.56107 0.60096 0.0
C256 C 0.49854 0.66351 0.6062 0.0
C257 C 0.455 0.68385 0.62307 0.0
C258 C 0.48152 0.69231 0.63525 0.0
C259 C 0.50313 0.68223 0.62684 0.0
C260 C 0.4722 0.65521 0.59383 0.0
C261 C 0.45067 0.66541 0.6021 0.0
C262 C 0.5205 0.6513 0.59878 0.0
C263 C 0.46245 0.55563 0.58259 0.0
H264 H 0.53139 0.43363 0.48236 0.0
H265 H 0.49632 0.45606 0.49465 0.0
H266 H 0.56022 0.51836 0.53658 0.0
H267 H 0.59558 0.49678 0.52374 0.0
H268 H 0.48553 0.70666 0.65133 0.0
H269 H 0.52327 0.68869 0.63671 0.0
H270 H 0.46812 0.64044 0.57807 0.0
H271 H 0.43037 0.65823 0.59257 0.0
Tb272 Tb 0.02319 0.59658 0.0401 0.0
Tb273 Tb 0.01122 0.53806 0.07173 0.0
C274 C 0.04503 0.54858 0.01972 0.0
C275 C 0.00928 0.65672 1.01119 0.0
C276 C 0.9692 0.68326 0.99922 0.0
C277 C 0.99513 0.69002 0.98574 0.0
C278 C 0.015 0.67682 0.99168 0.0
C279 C 0.98374 0.6503 0.0251 0.0
C280 C 0.96389 0.66353 0.01922 0.0
C281 C 0.02884 0.64091 0.0156 0.0
O282 O 0.97807 0.57508 0.03708 0.0
O283 O 0.97927 0.53074 0.04166 0.0
O284 O 0.98381 0.55864 0.09002 0.0
O285 O 0.00935 0.60321 0.07885 0.0
O286 O 1.00106 0.49474 0.07095 0.0
O287 O 0.00802 0.51692 0.1071 0.0
O288 O 0.04765 0.56805 0.08956 0.0
O289 O 0.06408 0.59833 0.05587 0.0
O290 O 0.03347 0.56765 1.0138 0.0
O291 O 0.04394 0.53898 0.04339 0.0
C292 C 0.96673 0.54831 0.0335 0.0
O293 O 0.03711 0.64014 0.03935 0.0
O294 O 0.02139 0.61648 1.00497 0.0
C295 C 0.99061 0.58554 0.09366 0.0
C296 C 0.02545 0.47902 0.10369 0.0
C297 C 0.06699 0.45567 0.11974 0.0
C298 C 0.0507 0.46446 0.13806 0.0
C299 C 0.03004 0.47589 0.1301 0.0
C300 C 0.04133 0.46967 0.08535 0.0
C301 C 0.0618 0.45802 0.09332 0.0
C302 C 0.00529 0.49337 0.09569 0.0
C303 C 0.06775 0.58823 0.07848 0.0
H304 H 0.99994 0.70537 0.97044 0.0
H305 H 0.03456 0.68188 0.98069 0.0
H306 H 0.97888 0.63457 0.04006 0.0
H307 H 0.94401 0.65763 0.02974 0.0
H308 H 0.05406 0.46264 0.15856 0.0
H309 H 0.01802 0.48284 0.14461 0.0
H310 H 0.03844 0.47186 0.06483 0.0
H311 H 0.07422 0.45168 0.07877 0.0
C312 C 0.31511 0.27077 0.29476 0.0
C313 C 0.30292 0.28024 0.27382 0.0
C314 C 0.29926 0.26063 0.31702 0.0
C315 C 0.23248 0.25658 0.35178 0.0
H316 H 0.24192 0.18959 0.38025 0.0
C317 C 0.15139 0.18069 0.41974 0.0
C318 C 0.16193 0.1681 0.43972 0.0
C319 C 0.16982 0.19814 0.40194 0.0
C320 C 0.23933 0.20854 0.37283 0.0
H321 H 0.26488 0.28727 0.25993 0.0
H322 H 0.23685 0.26898 0.29865 0.0
H323 H 0.2717 0.2129 0.34443 0.0
H324 H 0.20011 0.16477 0.45727 0.0
H325 H 0.23227 0.19546 0.42636 0.0
H326 H 0.19937 0.2515 0.37988 0.0
C327 C 0.25883 0.26983 0.2981 0.0
C328 C 0.25644 0.22195 0.35227 0.0
C329 C 0.27481 0.28022 0.27588 0.0
C330 C 0.19134 0.17429 0.4422 0.0
C331 C 0.20974 0.19164 0.42435 0.0
C332 C 0.2152 0.24302 0.37232 0.0
C333 C 0.27074 0.25946 0.31875 0.0
C334 C 0.25318 0.24607 0.34139 0.0
C335 C 0.19914 0.20323 0.40368 0.0
C336 C 0.21839 0.21878 0.38297 0.0
H337 H 0.33691 0.271 0.29383 0.0
H338 H 0.30931 0.25342 0.33278 0.0
H339 H 0.22963 0.27529 0.34407 0.0
H340 H 0.12884 0.17654 0.41752 0.0
H341 H 0.161 0.20665 0.38616 0.0
C342 C 0.26332 0.82335 0.80986 0.0
C343 C 0.2506 0.83505 0.79082 0.0
C344 C 0.27632 0.83891 0.83117 0.0
C345 C 0.28209 0.90248 0.86866 0.0
H346 H 0.35562 0.89732 0.88684 0.0
C347 C 0.36119 0.98307 0.93273 0.0
C348 C 0.37737 0.97367 0.95048 0.0
C349 C 0.3436 0.9648 0.9152 0.0
C350 C 0.33493 0.89869 0.88231 0.0
H351 H 0.24077 0.87196 0.77958 0.0
H352 H 0.2637 0.89935 0.81683 0.0
H353 H 0.32848 0.86805 0.85268 0.0
H354 H 0.38716 0.9375 0.96415 0.0
H355 H 0.35641 0.90551 0.93343 0.0
H356 H 0.28884 0.9335 0.89809 0.0
C357 C 0.26336 0.87801 0.81538 0.0
C358 C 0.31936 0.88192 0.86271 0.0
C359 C 0.25026 0.86237 0.79403 0.0
C360 C 0.37524 0.94545 0.95051 0.0
C361 C 0.35763 0.92715 0.93294 0.0
C362 C 0.2977 0.91929 0.88829 0.0
C363 C 0.27695 0.86658 0.83396 0.0
C364 C 0.29284 0.88373 0.85553 0.0
C365 C 0.3418 0.93668 0.91494 0.0
C366 C 0.3244 0.91773 0.89519 0.0
H367 H 0.26341 0.80215 0.80816 0.0
H368 H 0.28606 0.8293 0.84541 0.0
H369 H 0.26157 0.9041 0.86383 0.0
H370 H 0.36272 1.00477 0.93184 0.0
H371 H 0.33208 0.97292 0.90131 0.0
C372 C 0.62287 0.50563 0.80931 0.0
C373 C 0.62154 0.47802 0.81399 0.0
C374 C 0.61867 0.51437 0.78446 0.0
C375 C 0.58123 0.48714 0.72457 0.0
H376 H 0.62237 0.55964 0.69694 0.0
C377 C 0.55193 0.52369 0.62576 0.0
C378 C 0.55323 0.55162 0.62342 0.0
C379 C 0.56313 0.51444 0.64742 0.0
C380 C 0.61041 0.53944 0.70444 0.0
H381 H 0.61572 0.43814 0.79611 0.0
H382 H 0.60824 0.45336 0.75249 0.0
H383 H 0.63775 0.54407 0.73715 0.0
H384 H 0.56766 0.59177 0.64213 0.0
H385 H 0.5865 0.57562 0.6801 0.0
H386 H 0.55328 0.48276 0.69252 0.0
C387 C 0.61252 0.46825 0.76813 0.0
C388 C 0.61936 0.53045 0.72748 0.0
C389 C 0.61711 0.45959 0.79302 0.0
C390 C 0.5664 0.57015 0.64317 0.0
C391 C 0.57739 0.56085 0.66495 0.0
C392 C 0.57212 0.49621 0.70166 0.0
C393 C 0.61268 0.49563 0.76366 0.0
C394 C 0.60474 0.50429 0.73798 0.0
C395 C 0.57575 0.5328 0.66753 0.0
C396 C 0.58639 0.52262 0.69134 0.0
H397 H 0.6262 0.52027 0.82513 0.0
H398 H 0.61874 0.53551 0.78182 0.0
H399 H 0.56918 0.46706 0.7323 0.0
H400 H 0.54218 0.50884 0.61085 0.0
H401 H 0.56191 0.49283 0.64832 0.0
C402 C 0.88206 0.67137 0.27835 0.0
C403 C 0.88571 0.69964 0.27446 0.0
C404 C 0.89504 0.6572 0.26163 0.0
C405 C 0.95214 0.66815 0.21237 0.0
H406 H 0.90472 0.59896 0.18308 0.0
C407 C 0.98304 0.62529 0.11794 0.0
C408 C 0.97783 0.59657 0.11549 0.0
C409 C 0.97245 0.63615 0.13906 0.0
C410 C 0.91842 0.61803 0.19131 0.0
H411 H 0.90685 0.73552 0.25094 0.0
H412 H 0.92962 0.71106 0.22208 0.0
H413 H 0.88637 0.62089 0.21806 0.0
H414 H 0.9569 0.5567 0.13334 0.0
H415 H 0.93853 0.57573 0.1704 0.0
H416 H 0.98409 0.66558 0.18559 0.0
C417 C 0.91675 0.6997 0.23788 0.0
C418 C 0.9079 0.63059 0.21141 0.0
C419 C 0.90358 0.7137 0.25434 0.0
C420 C 0.96127 0.57892 0.13455 0.0
C421 C 0.95068 0.58983 0.15579 0.0
C422 C 0.96268 0.65558 0.1924 0.0
C423 C 0.91225 0.67116 0.24098 0.0
C424 C 0.92444 0.6561 0.22181 0.0
C425 C 0.95639 0.61865 0.15845 0.0
C426 C 0.94577 0.63067 0.18119 0.0
H427 H 0.86826 0.66 0.29362 0.0
H428 H 0.89134 0.63527 0.26466 0.0
H429 H 0.96563 0.68753 0.22025 0.0
H430 H 0.99547 0.63956 0.10357 0.0
H431 H 0.97674 0.65837 0.14007 0.0
C432 C 0.34934 0.2324 0.20201 0.0
C433 C 0.3636 0.261 0.20378 0.0
C434 C 0.36253 0.21471 0.19077 0.0
C435 C 0.38918 0.18594 0.15142 0.0
H436 H 0.46728 0.19381 0.16727 0.0
C437 C 0.45523 0.13217 0.09233 0.0
C438 C 0.47273 0.12025 0.10602 0.0
C439 C 0.44131 0.14834 0.10509 0.0
C440 C 0.44539 0.19123 0.16282 0.0
H441 H 0.40293 0.29346 0.19539 0.0
H442 H 0.42598 0.26251 0.17554 0.0
H443 H 0.44432 0.22422 0.18817 0.0
H444 H 0.48914 0.11574 0.14393 0.0
H445 H 0.46475 0.14406 0.16623 0.0
H446 H 0.39021 0.15293 0.12612 0.0
C447 C 0.40464 0.2538 0.18301 0.0
C448 C 0.43236 0.20882 0.17456 0.0
C449 C 0.39137 0.27154 0.19413 0.0
C450 C 0.47579 0.12462 0.13283 0.0
C451 C 0.46198 0.14097 0.14557 0.0
C452 C 0.40226 0.16848 0.13956 0.0
C453 C 0.39031 0.22521 0.18115 0.0
C454 C 0.40413 0.20639 0.16893 0.0
C455 C 0.44468 0.15307 0.1318 0.0
C456 C 0.43053 0.171 0.14507 0.0
H457 H 0.32782 0.22372 0.20904 0.0
H458 H 0.35103 0.19275 0.18979 0.0
H459 H 0.36748 0.18371 0.14654 0.0
H460 H 0.45242 0.12921 0.07166 0.0
H461 H 0.42836 0.15762 0.09391 0.0
C462 C 0.10908 0.85353 0.7073 0.0
C463 C 0.13413 0.84831 0.70006 0.0
C464 C 0.10253 0.8761 0.6969 0.0
C465 C 0.11461 0.91909 0.63908 0.0
H466 H 0.08509 0.96779 0.67998 0.0
C467 C 0.08617 0.00885 0.59154 0.0
C468 C 0.0616 0.014 0.60035 0.0
C469 C 0.09729 0.99102 0.60515 0.0
C470 C 0.093 0.95419 0.66822 0.0
H471 H 0.17219 0.86279 0.67661 0.0
H472 H 0.16063 0.90214 0.65827 0.0
H473 H 0.10024 0.93215 0.7014 0.0
H474 H 0.02959 1.00476 0.63057 0.0
H475 H 0.04839 0.97296 0.65387 0.0
H476 H 0.10649 0.94013 0.60584 0.0
C477 C 0.14611 0.8888 0.67203 0.0
C478 C 0.10178 0.93388 0.68054 0.0
C479 C 0.15282 0.86644 0.68266 0.0
C480 C 0.04866 1.00134 0.62335 0.0
C481 C 0.05956 0.9832 0.6368 0.0
C482 C 0.10553 0.93913 0.62675 0.0
C483 C 0.12076 0.89367 0.67882 0.0
C484 C 0.11259 0.91607 0.66606 0.0
C485 C 0.08386 0.97755 0.62772 0.0
C486 C 0.0945 0.95691 0.64112 0.0
H487 H 0.09439 0.83998 0.72081 0.0
H488 H 0.08276 0.87927 0.70236 0.0
H489 H 0.12244 0.90536 0.6274 0.0
H490 H 0.09683 0.01854 0.57403 0.0
H491 H 0.11638 0.98771 0.59787 0.0
C492 C 0.75089 0.43174 0.91329 0.0
C493 C 0.73005 0.44498 0.91221 0.0
C494 C 0.77734 0.44504 0.92415 0.0
C495 C 0.81243 0.50201 0.96961 0.0
H496 H 0.88017 0.48674 0.94656 0.0
C497 C 0.92359 0.5553 1.01354 0.0
C498 C 0.9396 0.53774 0.01933 0.0
C499 C 0.89842 0.54543 0.99952 0.0
C500 C 0.86139 0.49109 0.95331 0.0
H501 H 0.72141 0.48327 0.92083 0.0
H502 H 0.7679 0.50688 0.93876 0.0
H503 H 0.83643 0.46809 0.9224 0.0
H504 H 0.94159 0.49598 0.01484 0.0
H505 H 0.8979 0.47891 0.99029 0.0
H506 H 0.83768 0.52525 1.00041 0.0
C507 C 0.76352 0.48586 0.93183 0.0
C508 C 0.83624 0.48034 0.93949 0.0
C509 C 0.73694 0.47245 0.92112 0.0
C510 C 0.92981 0.51009 1.0108 0.0
C511 C 0.90485 0.50033 0.99655 0.0
C512 C 0.83769 0.513 0.98327 0.0
C513 C 0.78389 0.47212 0.93404 0.0
C514 C 0.81127 0.48531 0.94763 0.0
C515 C 0.88889 0.51788 0.99069 0.0
C516 C 0.86237 0.50736 0.97548 0.0
H517 H 0.74651 0.41073 0.90631 0.0
H518 H 0.79223 0.43358 0.92564 0.0
H519 H 0.79363 0.50596 0.97681 0.0
H520 H 0.9305 0.57673 0.01977 0.0
H521 H 0.88668 0.55951 0.9952 0.0
C522 C 0.77257 0.69107 0.40137 0.0
C523 C 0.79933 0.69856 0.41307 0.0
C524 C 0.74811 0.67758 0.41562 0.0
C525 C 0.72112 0.66974 0.48235 0.0
H526 H 0.65864 0.61049 0.45403 0.0
C527 C 0.60641 0.58838 0.51679 0.0
C528 C 0.59431 0.60678 0.52887 0.0
C529 C 0.63209 0.59838 0.50336 0.0
C530 C 0.67599 0.62688 0.46229 0.0
H531 H 0.82136 0.69639 0.44863 0.0
H532 H 0.77868 0.67312 0.4735 0.0
H533 H 0.70227 0.62895 0.42888 0.0
H534 H 0.60016 0.65016 0.53666 0.0
H535 H 0.64502 0.66754 0.51334 0.0
H536 H 0.69481 0.66779 0.51568 0.0
C537 C 0.77662 0.67804 0.45339 0.0
C538 C 0.70087 0.63761 0.44779 0.0
C539 C 0.80107 0.69135 0.43912 0.0
C540 C 0.60883 0.63539 0.52761 0.0
C541 C 0.63463 0.64536 0.51434 0.0
C542 C 0.69616 0.65917 0.49675 0.0
C543 C 0.74982 0.6714 0.44193 0.0
C544 C 0.7237 0.65922 0.45762 0.0
C545 C 0.64642 0.62699 0.50185 0.0
C546 C 0.67326 0.63769 0.48685 0.0
H547 H 0.77034 0.69664 0.38149 0.0
H548 H 0.72776 0.67298 0.40629 0.0
H549 H 0.7382 0.68658 0.49037 0.0
H550 H 0.59584 0.56622 0.51732 0.0
H551 H 0.64077 0.58368 0.49419 0.0
C552 C 0.28434 0.39887 0.15463 0.0
C553 C 0.28699 0.38585 0.178 0.0
C554 C 0.25952 0.40484 0.14898 0.0
C555 C 0.19984 0.40182 0.13503 0.0
H556 H 0.16052 0.42745 0.18954 0.0
C557 C 0.09393 0.42165 0.11643 0.0
C558 C 0.09015 0.4452 0.12807 0.0
C559 C 0.11662 0.41265 0.12343 0.0
C560 C 0.17134 0.4205 0.17403 0.0
H561 H 0.26549 0.36901 0.21382 0.0
H562 H 0.22187 0.37854 0.20356 0.0
H563 H 0.20313 0.416 0.1996 0.0
H564 H 0.10716 0.47784 0.15609 0.0
H565 H 0.14702 0.46253 0.16798 0.0
H566 H 0.16878 0.40745 0.10926 0.0
C567 C 0.23919 0.38459 0.18977 0.0
C568 C 0.19559 0.41356 0.17988 0.0
C569 C 0.2641 0.37879 0.19551 0.0
C570 C 0.10931 0.45938 0.14706 0.0
C571 C 0.13213 0.45054 0.1539 0.0
C572 C 0.17572 0.40894 0.12915 0.0
C573 C 0.2366 0.39774 0.16645 0.0
C574 C 0.21026 0.40429 0.16042 0.0
C575 C 0.1362 0.42717 0.14205 0.0
C576 C 0.16123 0.41853 0.14855 0.0
H577 H 0.30135 0.40427 0.14051 0.0
H578 H 0.25848 0.41532 0.13099 0.0
H579 H 0.21032 0.39436 0.11961 0.0
H580 H 0.07929 0.41014 0.10194 0.0
H581 H 0.11878 0.39429 0.11424 0.0
C582 C 0.66123 0.33957 0.91894 0.0
C583 C 0.64658 0.35909 0.91962 0.0
C584 C 0.65023 0.31389 0.93131 0.0
C585 C 0.60094 0.27915 0.98369 0.0
H586 H 0.60752 0.21191 0.95293 0.0
C587 C 0.57471 0.17607 0.0409 0.0
C588 C 0.55917 0.1518 0.02783 0.0
C589 C 0.58588 0.20114 0.02749 0.0
C590 C 0.60537 0.23046 0.96175 0.0
H591 H 0.6086 0.36664 0.93367 0.0
H592 H 0.58918 0.32167 0.9549 0.0
H593 H 0.62461 0.25556 0.92921 0.0
H594 H 0.54369 0.13497 0.99021 0.0
H595 H 0.56305 0.17854 0.967 0.0
H596 H 0.58135 0.25399 0.01608 0.0
C597 C 0.60936 0.32636 0.94499 0.0
C598 C 0.61542 0.25556 0.94824 0.0
C599 C 0.62032 0.35201 0.93252 0.0
C600 C 0.55555 0.15318 1.00097 0.0
C601 C 0.5668 0.17819 0.98758 0.0
C602 C 0.591 0.25408 0.99724 0.0
C603 C 0.62432 0.30707 0.94478 0.0
C604 C 0.61329 0.28024 0.95901 0.0
C605 C 0.58191 0.20256 1.00067 0.0
C606 C 0.59304 0.22938 0.98644 0.0
H607 H 0.68141 0.34426 0.90902 0.0
H608 H 0.66244 0.29967 0.93088 0.0
H609 H 0.59925 0.29779 0.99272 0.0
H610 H 0.57796 0.17583 0.06156 0.0
H611 H 0.59772 0.21943 0.03815 0.0
C612 C 0.89289 0.78093 0.43758 0.0
C613 C 0.88607 0.78182 0.41129 0.0
C614 C 0.90716 0.80522 0.45092 0.0
C615 C 0.95248 0.87751 0.44298 0.0
H616 H 0.9184 0.88996 0.50753 0.0
C617 C 0.98742 0.98441 0.49288 0.0
C618 C 0.98739 0.98554 0.52003 0.0
C619 C 0.97597 0.95921 0.47997 0.0
C620 C 0.92857 0.88672 0.48979 0.0
H621 H 0.88992 0.80921 0.37834 0.0
H622 H 0.91561 0.85138 0.40146 0.0
H623 H 0.89828 0.84648 0.48439 0.0
H624 H 0.97552 0.96093 0.55493 0.0
H625 H 0.95633 0.91683 0.5325 0.0
H626 H 0.98308 0.91741 0.44845 0.0
C627 C 0.90973 0.8318 0.41171 0.0
C628 C 0.91693 0.86177 0.47649 0.0
C629 C 0.89512 0.80754 0.39842 0.0
C630 C 0.97567 0.96082 0.53399 0.0
C631 C 0.96453 0.93551 0.52107 0.0
C632 C 0.96437 0.90232 0.45644 0.0
C633 C 0.91536 0.83096 0.43823 0.0
C634 C 0.92861 0.85699 0.45284 0.0
C635 C 0.9645 0.93434 0.49385 0.0
C636 C 0.95242 0.90742 0.47994 0.0
H637 H 0.88679 0.76147 0.44803 0.0
H638 H 0.91162 0.80389 0.47126 0.0
H639 H 0.96212 0.87427 0.42492 0.0
H640 H 0.99607 1.00309 0.4815 0.0
H641 H 0.97582 0.95937 0.45905 0.0
C642 C 0.276 0.75912 0.73382 0.0
C643 C 0.26077 0.77287 0.7193 0.0
C644 C 0.29425 0.74705 0.72166 0.0
C645 C 0.33623 0.75209 0.66194 0.0
H646 H 0.34713 0.68485 0.68823 0.0
C647 C 0.41428 0.70185 0.61544 0.0
C648 C 0.4316 0.69342 0.63274 0.0
C649 C 0.39182 0.71024 0.62461 0.0
C650 C 0.34441 0.70373 0.68077 0.0
H651 H 0.25206 0.78391 0.6805 0.0
H652 H 0.28351 0.7622 0.65914 0.0
H653 H 0.30954 0.70061 0.70621 0.0
H654 H 0.4388 0.6869 0.67317 0.0
H655 H 0.39974 0.70172 0.6892 0.0
H656 H 0.37124 0.7552 0.63656 0.0
C657 C 0.28167 0.7612 0.68001 0.0
C658 C 0.32289 0.71277 0.69107 0.0
C659 C 0.26339 0.77335 0.69222 0.0
C660 C 0.426 0.69356 0.65939 0.0
C661 C 0.40345 0.70173 0.66854 0.0
C662 C 0.35766 0.74294 0.65153 0.0
C663 C 0.29765 0.74828 0.69464 0.0
C664 C 0.31882 0.73731 0.68207 0.0
C665 C 0.38609 0.71011 0.65125 0.0
C666 C 0.36225 0.71891 0.66113 0.0
H667 H 0.27415 0.75805 0.75469 0.0
H668 H 0.30641 0.73753 0.73357 0.0
H669 H 0.33397 0.77128 0.6548 0.0
H670 H 0.4182 0.70211 0.5948 0.0
H671 H 0.37872 0.71647 0.61084 0.0
C672 C 0.7973 0.88117 0.86699 0.0
C673 C 0.76902 0.86399 0.86643 0.0
C674 C 0.80952 0.89711 0.84552 0.0
C675 C 0.80321 0.89804 0.7751 0.0
H676 H 0.85883 0.97086 0.78194 0.0
C677 C 0.8634 0.96275 0.6878 0.0
C678 C 0.89242 0.97643 0.69141 0.0
C679 C 0.84625 0.94954 0.70854 0.0
C680 C 0.84348 0.95046 0.77974 0.0
H681 H 0.73098 0.8508 0.84338 0.0
H682 H 0.75235 0.87901 0.80566 0.0
H683 H 0.83153 0.94853 0.81966 0.0
H684 H 0.92643 0.98583 0.7193 0.0
H685 H 0.89659 0.96283 0.75539 0.0
H686 H 0.81555 0.89987 0.73521 0.0
C687 C 0.7651 0.87987 0.8227 0.0
C688 C 0.82779 0.93771 0.80133 0.0
C689 C 0.7528 0.86397 0.84433 0.0
C690 C 0.90406 0.97592 0.71599 0.0
C691 C 0.88695 0.96281 0.73668 0.0
C692 C 0.8189 0.91085 0.75346 0.0
C693 C 0.79375 0.89625 0.82293 0.0
C694 C 0.80788 0.91112 0.79938 0.0
C695 C 0.85779 0.94983 0.73329 0.0
C696 C 0.83961 0.93696 0.75568 0.0
H697 H 0.81021 0.88174 0.88388 0.0
H698 H 0.83169 0.90927 0.84628 0.0
H699 H 0.78826 0.87742 0.77302 0.0
H700 H 0.85373 0.96304 0.66916 0.0
H701 H 0.82383 0.93983 0.70536 0.0
C702 C 0.78258 0.26488 0.35114 0.0
C703 C 0.79442 0.24752 0.36499 0.0
C704 C 0.77159 0.25748 0.32637 0.0
C705 C 0.74178 0.19523 0.28661 0.0
H706 H 0.74918 0.2471 0.23008 0.0
C707 C 0.69299 0.15656 0.18885 0.0
C708 C 0.67641 0.17145 0.17798 0.0
C709 C 0.71183 0.168 0.20877 0.0
C710 C 0.74687 0.23242 0.24573 0.0
H711 H 0.80415 0.20884 0.36342 0.0
H712 H 0.78588 0.19647 0.32023 0.0
H713 H 0.77328 0.2632 0.271 0.0
H714 H 0.66859 0.21105 0.17801 0.0
H715 H 0.70093 0.23072 0.21331 0.0
H716 H 0.71503 0.16458 0.26187 0.0
C717 C 0.78477 0.21565 0.32856 0.0
C718 C 0.76061 0.24164 0.26915 0.0
C719 C 0.79563 0.22297 0.35324 0.0
C720 C 0.68066 0.19882 0.18628 0.0
C721 C 0.69942 0.21022 0.20634 0.0
C722 C 0.72812 0.18605 0.26333 0.0
C723 C 0.77215 0.23252 0.31501 0.0
C724 C 0.75819 0.2231 0.28984 0.0
C725 C 0.71443 0.19452 0.21845 0.0
C726 C 0.73045 0.20449 0.24259 0.0
H727 H 0.7815 0.28402 0.35958 0.0
H728 H 0.76184 0.27084 0.31649 0.0
H729 H 0.73891 0.18052 0.30233 0.0
H730 H 0.69023 0.13538 0.18314 0.0
H731 H 0.72354 0.15558 0.21731 0.0
C732 C 0.39807 0.67974 0.32744 0.0
C733 C 0.41913 0.68462 0.30809 0.0
C734 C 0.40344 0.67244 0.35267 0.0
C735 C 0.44067 0.63277 0.38422 0.0
H736 H 0.44484 0.67411 0.44787 0.0
C737 C 0.4904 0.60282 0.47444 0.0
C738 C 0.48023 0.60628 0.49919 0.0
C739 C 0.48088 0.61311 0.45253 0.0
C740 C 0.44326 0.66199 0.4304 0.0
H741 H 0.46309 0.68806 0.30094 0.0
H742 H 0.4719 0.67444 0.34437 0.0
H743 H 0.43124 0.69182 0.40756 0.0
H744 H 0.45204 0.62356 0.52025 0.0
H745 H 0.43455 0.64081 0.48177 0.0
H746 H 0.45194 0.60265 0.40648 0.0
C747 C 0.45127 0.67609 0.33998 0.0
C748 C 0.43557 0.67225 0.40733 0.0
C749 C 0.44609 0.68372 0.31505 0.0
C750 C 0.46029 0.62052 0.50146 0.0
C751 C 0.4504 0.63055 0.47936 0.0
C752 C 0.44784 0.6223 0.40719 0.0
C753 C 0.42986 0.66973 0.35885 0.0
C754 C 0.43482 0.65797 0.38396 0.0
C755 C 0.46045 0.62684 0.4545 0.0
C756 C 0.45003 0.63707 0.43057 0.0
H757 H 0.37706 0.68016 0.3228 0.0
H758 H 0.38658 0.66758 0.36695 0.0
H759 H 0.43995 0.62124 0.36647 0.0
H760 H 0.5061 0.59237 0.47192 0.0
H761 H 0.48992 0.61051 0.43399 0.0
C762 C 0.12891 0.43548 0.83968 0.0
C763 C 0.15676 0.43499 0.84219 0.0
C764 C 0.11794 0.45064 0.85716 0.0
C765 C 0.1013 0.49142 0.89226 0.0
H766 H 0.12644 0.49087 0.96296 0.0
C767 C 0.06396 0.54972 0.9744 0.0
C768 C 0.0591 0.5373 0.99901 0.0
C769 C 0.07656 0.53872 0.95466 0.0
C770 C 0.11892 0.49104 0.9434 0.0
H771 H 0.19557 0.45125 0.86369 0.0
H772 H 0.17708 0.47868 0.89337 0.0
H773 H 0.14663 0.46973 0.92921 0.0
H774 H 0.06358 0.50335 0.02203 0.0
H775 H 0.08487 0.48383 0.98759 0.0
H776 H 0.07263 0.51167 0.9068 0.0
C777 C 0.1632 0.46666 0.87863 0.0
C778 C 0.13092 0.47929 0.92384 0.0
C779 C 0.17397 0.45123 0.86143 0.0
C780 C 0.0672 0.51361 1.00339 0.0
C781 C 0.07958 0.50248 0.9836 0.0
C782 C 0.08913 0.50302 0.91191 0.0
C783 C 0.13474 0.46583 0.87736 0.0
C784 C 0.12232 0.47927 0.89796 0.0
C785 C 0.08446 0.51487 0.95892 0.0
C786 C 0.0977 0.50292 0.9378 0.0
H787 H 0.11512 0.42284 0.82519 0.0
H788 H 0.0959 0.44927 0.85558 0.0
H789 H 0.09425 0.49205 0.8726 0.0
H790 H 0.05813 0.56807 0.97033 0.0
H791 H 0.08036 0.54916 0.93612 0.0
C792 C 0.64 0.86655 0.98414 0.0
C793 C 0.65258 0.86626 0.95979 0.0
C794 C 0.63272 0.88962 0.99221 0.0
C795 C 0.63231 0.94641 1.00989 0.0
H796 H 0.59226 0.97837 0.96148 0.0
C797 C 0.59173 0.0373 0.03813 0.0
C798 C 0.56349 0.03361 0.0314 0.0
C799 C 0.60596 0.01989 0.02788 0.0
C800 C 0.60347 0.9697 0.97521 0.0
H801 H 0.66762 0.89008 0.92489 0.0
H802 H 0.65497 0.93054 0.93906 0.0
H803 H 0.61101 0.9419 0.94708 0.0
H804 H 0.5284 0.00932 1.00796 0.0
H805 H 0.55312 0.97907 0.99026 0.0
H806 H 0.62392 0.97353 0.03825 0.0
C807 C 0.65064 0.91281 0.95184 0.0
C808 C 0.61444 0.94899 0.96689 0.0
C809 C 0.65808 0.88975 0.94381 0.0
C810 C 0.55011 0.01272 1.01363 0.0
C811 C 0.56436 0.99547 1.0033 0.0
C812 C 0.62145 0.9672 0.01818 0.0
C813 C 0.63775 0.91293 0.97609 0.0
C814 C 0.62851 0.93674 0.98428 0.0
C815 C 0.59231 0.9986 1.01056 0.0
C816 C 0.60643 0.9787 1.00105 0.0
H817 H 0.6358 0.84891 0.99702 0.0
H818 H 0.62253 0.88891 1.01087 0.0
H819 H 0.64336 0.93761 0.02367 0.0
H820 H 0.60267 0.05321 0.05175 0.0
H821 H 0.62758 0.02296 0.03366 0.0
C822 C 0.85108 0.22135 0.45917 0.0
C823 C 0.857 0.23838 0.43712 0.0
C824 C 0.87058 0.20916 0.46816 0.0
C825 C 0.93053 0.1868 0.4475 0.0
H826 H 0.93664 0.17736 0.5214 0.0
C827 C 1.00127 0.12882 0.49677 0.0
C828 C 0.98643 0.10873 0.51486 0.0
C829 C 0.98859 0.14715 0.48595 0.0
C830 C 0.93518 0.1799 0.50071 0.0
H831 H 0.88817 0.25602 0.40723 0.0
H832 H 0.92264 0.23466 0.42315 0.0
H833 H 0.90996 0.20658 0.50543 0.0
H834 H 0.94652 0.09186 0.53542 0.0
H835 H 0.92473 0.12397 0.51683 0.0
H836 H 0.95579 0.15981 0.44303 0.0
C837 C 0.9027 0.23072 0.43333 0.0
C838 C 0.91986 0.19655 0.49155 0.0
C839 C 0.88303 0.24297 0.42426 0.0
C840 C 0.95856 0.10703 0.52154 0.0
C841 C 0.94611 0.12553 0.51105 0.0
C842 C 0.94618 0.17031 0.45673 0.0
C843 C 0.89662 0.21364 0.4554 0.0
C844 C 0.91655 0.19947 0.46484 0.0
C845 C 0.96109 0.14594 0.4934 0.0
C846 C 0.94786 0.16607 0.48341 0.0
H847 H 0.83092 0.21674 0.46912 0.0
H848 H 0.86485 0.19554 0.48478 0.0
H849 H 0.92828 0.18851 0.42682 0.0
H850 H 0.02275 0.13059 0.49119 0.0
H851 H 1.00051 0.16272 0.47234 0.0
C852 C 0.29557 0.67861 0.19134 0.0
C853 C 0.2988 0.70336 0.20495 0.0
C854 C 0.27031 0.66512 0.17851 0.0
C855 C 0.19458 0.65871 0.17535 0.0
H856 H 0.20029 0.63522 0.10471 0.0
C857 C 0.09742 0.5924 0.11819 0.0
C858 C 0.09477 0.60041 0.09254 0.0
C859 C 0.12231 0.60447 0.132 0.0
C860 C 0.19835 0.64176 0.12438 0.0
H861 H 0.27771 0.73278 0.21655 0.0
H862 H 0.23344 0.70903 0.19441 0.0
H863 H 0.24329 0.65672 0.12946 0.0
H864 H 0.11658 0.62721 0.06123 0.0
H865 H 0.16019 0.64814 0.08536 0.0
H866 H 0.14965 0.64388 0.17025 0.0
C867 C 0.25048 0.70011 0.1936 0.0
C868 C 0.22296 0.65381 0.13865 0.0
C869 C 0.27585 0.71377 0.2062 0.0
C870 C 0.11786 0.62053 0.08093 0.0
C871 C 0.1429 0.63245 0.09472 0.0
C872 C 0.16997 0.6464 0.16118 0.0
C873 C 0.2476 0.67591 0.1792 0.0
C874 C 0.22137 0.6625 0.16428 0.0
C875 C 0.14531 0.62472 0.12049 0.0
C876 C 0.17155 0.63783 0.1355 0.0
H877 H 0.31297 0.67025 0.18974 0.0
H878 H 0.26865 0.64636 0.16781 0.0
H879 H 0.19263 0.66506 0.19509 0.0
H880 H 0.08014 0.57695 0.12781 0.0
H881 H 0.1236 0.59779 0.15169 0.0
C882 C 0.2552 0.4445 0.71935 0.0
C883 C 0.22992 0.43175 0.706 0.0
C884 C 0.27942 0.46064 0.70617 0.0
C885 C 0.30558 0.494 0.64206 0.0
H886 H 0.37669 0.48758 0.66624 0.0
C887 C 0.41109 0.52644 0.58257 0.0
C888 C 0.4349 0.54314 0.59592 0.0
C889 C 0.38537 0.51442 0.59565 0.0
C890 C 0.357 0.48968 0.65935 0.0
H891 H 0.21007 0.42774 0.66835 0.0
H892 H 0.25245 0.45441 0.64525 0.0
H893 H 0.3333 0.46453 0.68989 0.0
H894 H 0.45029 0.56029 0.63347 0.0
H895 H 0.40575 0.53883 0.6562 0.0
H896 H 0.32963 0.51833 0.61083 0.0
C897 C 0.2536 0.45241 0.66601 0.0
C898 C 0.33205 0.47667 0.67303 0.0
C899 C 0.22926 0.43669 0.67927 0.0
C900 C 0.43239 0.54759 0.62255 0.0
C901 C 0.40692 0.53522 0.63564 0.0
C902 C 0.33054 0.50664 0.62811 0.0
C903 C 0.27925 0.46414 0.67917 0.0
C904 C 0.30593 0.4787 0.6647 0.0
C905 C 0.38317 0.51845 0.62238 0.0
C906 C 0.3565 0.5047 0.6367 0.0
H907 H 0.25679 0.44113 0.73986 0.0
H908 H 0.29846 0.4699 0.71719 0.0
H909 H 0.28607 0.49649 0.63516 0.0
H910 H 0.41231 0.52269 0.56205 0.0
H911 H 0.36739 0.50146 0.585 0.0
C912 C 0.78464 0.78978 0.95359 0.0
C913 C 0.78048 0.79237 0.92699 0.0
C914 C 0.80355 0.77645 0.96224 0.0
C915 C 0.86672 0.76037 0.94011 0.0
H916 H 0.85241 0.7104 0.99882 0.0
C917 C 0.94156 0.69863 0.9655 0.0
C918 C 0.94729 0.69585 0.99172 0.0
C919 C 0.92059 0.70992 0.95828 0.0
C920 C 0.85684 0.72458 0.98258 0.0
H921 H 0.79136 0.78145 0.88869 0.0
H922 H 0.82426 0.75826 0.90373 0.0
H923 H 0.816 0.73013 0.98505 0.0
H924 H 0.93564 0.70292 0.03096 0.0
H925 H 0.89911 0.72292 0.01834 0.0
H926 H 0.90754 0.75516 0.93766 0.0
C927 C 0.81345 0.76704 0.9179 0.0
C928 C 0.83597 0.73581 0.97468 0.0
C929 C 0.79459 0.78029 0.90929 0.0
C930 C 0.93153 0.70458 1.0106 0.0
C931 C 0.91057 0.71596 1.00337 0.0
C932 C 0.88756 0.74926 0.94803 0.0
C933 C 0.81862 0.76551 0.94442 0.0
C934 C 0.84064 0.75366 0.95322 0.0
C935 C 0.90489 0.71879 0.97711 0.0
C936 C 0.88283 0.73108 0.96924 0.0
H937 H 0.77419 0.79904 0.96767 0.0
H938 H 0.8072 0.77569 0.9828 0.0
H939 H 0.8712 0.77453 0.92384 0.0
H940 H 0.95293 0.69159 0.95051 0.0
H941 H 0.91639 0.7113 0.9379 0.0
C942 C 0.37261 0.79743 0.17886 0.0
C943 C 0.38016 0.79103 0.20372 0.0
C944 C 0.38452 0.82386 0.1683 0.0
C945 C 0.44664 0.88599 0.17075 0.0
H946 H 0.3978 0.92125 0.1369 0.0
C947 C 0.49045 0.99722 0.1295 0.0
C948 C 0.47886 1.00333 0.10642 0.0
C949 C 0.47814 0.97203 0.14233 0.0
C950 C 0.41186 0.91161 0.14592 0.0
H951 H 0.40684 0.80775 0.23665 0.0
H952 H 0.42821 0.85393 0.2178 0.0
H953 H 0.37729 0.87626 0.15761 0.0
H954 H 0.44515 0.98752 0.07873 0.0
H955 H 0.42412 0.94326 0.10064 0.0
H956 H 0.4813 0.9208 0.15847 0.0
C957 C 0.41277 0.83829 0.20669 0.0
C958 C 0.40004 0.88584 0.15794 0.0
C959 C 0.40056 0.81181 0.21745 0.0
C960 C 0.45453 0.9836 0.09655 0.0
C961 C 0.44237 0.95822 0.10925 0.0
C962 C 0.45852 0.91164 0.15847 0.0
C963 C 0.40469 0.84464 0.18205 0.0
C964 C 0.41728 0.87266 0.17039 0.0
C965 C 0.45403 0.95203 0.13232 0.0
C966 C 0.44132 0.92481 0.14577 0.0
H967 H 0.35775 0.78186 0.16722 0.0
H968 H 0.37829 0.82789 0.14906 0.0
H969 H 0.46051 0.87621 0.1799 0.0
H970 H 0.50903 0.01202 0.13784 0.0
H971 H 0.48746 0.96841 0.16027 0.0
C972 C 0.15121 0.31355 0.71716 0.0
C973 C 0.1545 0.3393 0.70537 0.0
C974 C 0.13938 0.28883 0.70355 0.0
C975 C 0.09502 0.25902 0.64705 0.0
H976 H 0.12978 0.20103 0.65285 0.0
C977 C 0.08995 0.14857 0.59484 0.0
C978 C 0.06048 0.13588 0.59393 0.0
C979 C 0.10159 0.17359 0.60811 0.0
C980 C 0.11996 0.21709 0.65087 0.0
H981 H 0.14724 0.35917 0.67025 0.0
H982 H 0.12674 0.31606 0.64646 0.0
H983 H 0.14935 0.2442 0.67678 0.0
H984 H 0.02016 0.13979 0.60621 0.0
H985 H 0.04043 0.18317 0.62927 0.0
H986 H 0.06581 0.23204 0.62093 0.0
C987 C 0.13321 0.31497 0.66626 0.0
C988 C 0.13096 0.24171 0.66483 0.0
C989 C 0.14516 0.33969 0.67983 0.0
C990 C 0.04296 0.14892 0.60644 0.0
C991 C 0.05457 0.17394 0.61957 0.0
C992 C 0.08393 0.23435 0.6332 0.0
C993 C 0.13043 0.28924 0.67787 0.0
C994 C 0.11861 0.26297 0.66311 0.0
C995 C 0.08402 0.18658 0.62063 0.0
C996 C 0.09623 0.21306 0.63496 0.0
H997 H 0.15847 0.31251 0.7367 0.0
H998 H 0.13724 0.26936 0.71317 0.0
H999 H 0.08486 0.27487 0.64542 0.0
H1000 H 0.10408 0.13915 0.5854 0.0
H1001 H 0.12437 0.18293 0.60833 0.0
C1002 C 0.7348 0.34 0.48923 0.0
C1003 C 0.73421 0.32204 0.46845 0.0
C1004 C 0.72044 0.35942 0.48783 0.0
C1005 C 0.65898 0.36945 0.45659 0.0
H1006 H 0.68514 0.44084 0.49082 0.0
C1007 C 0.58803 0.4394 0.46931 0.0
C1008 C 0.58785 0.45023 0.49432 0.0
C1009 C 0.60816 0.42676 0.46227 0.0
C1010 C 0.67754 0.42094 0.48121 0.0
H1011 H 0.71932 0.31119 0.42941 0.0
H1012 H 0.69417 0.34542 0.42686 0.0
H1013 H 0.71763 0.41419 0.4844 0.0
H1014 H 0.60862 0.45603 0.53159 0.0
H1015 H 0.64371 0.43417 0.5193 0.0
H1016 H 0.61866 0.37586 0.45407 0.0
C1017 C 0.70557 0.34423 0.44433 0.0
C1018 C 0.69614 0.40571 0.4775 0.0
C1019 C 0.72013 0.32482 0.4457 0.0
C1020 C 0.60842 0.44835 0.51204 0.0
C1021 C 0.62858 0.43584 0.50498 0.0
C1022 C 0.64038 0.38473 0.46026 0.0
C1023 C 0.70509 0.36133 0.46562 0.0
C1024 C 0.68685 0.37944 0.4658 0.0
C1025 C 0.62863 0.42481 0.48006 0.0
C1026 C 0.64925 0.41029 0.47325 0.0
H1027 H 0.74579 0.33851 0.5069 0.0
H1028 H 0.72031 0.37205 0.50467 0.0
H1029 H 0.65105 0.34916 0.44777 0.0
H1030 H 0.57276 0.44091 0.45506 0.0
H1031 H 0.60782 0.41867 0.44286 0.0
loop_
_geom_bond_atom_site_label_1
_geom_bond_atom_site_label_2
_geom_bond_distance
_geom_bond_site_symmetry_2
_ccdc_geom_bond_type
H0 C1 0.949 . S
C1 H0 0.949 . S
C1 C2 1.395 . S
C1 C3 1.391 . S
C2 C1 1.395 . S
C2 C5 1.390 . S
C3 C1 1.391 . S
C3 C7 1.387 . S
C3 C8 1.491 . S
H4 C5 0.950 . S
C5 C2 1.390 . S
C5 H4 0.950 . S
C5 C6 1.378 . S
C6 C5 1.378 . S
C6 C7 1.409 . S
C7 C3 1.387 . S
C7 C6 1.409 . S
C7 H9 0.951 . S
C8 C3 1.491 . S
C8 C10 1.382 . S
C8 C12 1.404 . S
H9 C7 0.951 . S
C10 C8 1.382 . S
C10 C11 1.390 . S
C10 H15 0.949 . S
C11 C10 1.390 . S
C11 C16 1.399 . S
C12 C8 1.404 . S
C12 H13 0.950 . S
C12 C14 1.375 . S
H13 C12 0.950 . S
C14 C12 1.375 . S
C14 C16 1.382 . S
C14 H18 0.950 . S
H15 C10 0.949 . S
C16 C11 1.399 . S
C16 C14 1.382 . S
C16 H17 0.952 . S
H17 C16 0.952 . S
H18 C14 0.950 . S
H19 C20 0.949 . S
C20 H19 0.949 . S
C20 C21 1.395 . S
C20 C22 1.391 . S
C21 C20 1.395 . S
C21 C24 1.390 . S
C22 C20 1.391 . S
C22 C26 1.387 . S
C22 C27 1.491 . S
H23 C24 0.950 . S
C24 C21 1.390 . S
C24 H23 0.950 . S
C24 C25 1.378 . S
C25 C24 1.378 . S
C25 C26 1.409 . S
C26 C22 1.387 . S
C26 C25 1.409 . S
C26 H28 0.951 . S
C27 C22 1.491 . S
C27 C29 1.382 . S
C27 C31 1.404 . S
H28 C26 0.951 . S
C29 C27 1.382 . S
C29 C30 1.390 . S
C29 H34 0.949 . S
C30 C29 1.390 . S
C30 C35 1.399 . S
C31 C27 1.404 . S
C31 H32 0.950 . S
C31 C33 1.375 . S
H32 C31 0.950 . S
C33 C31 1.375 . S
C33 C35 1.382 . S
C33 H37 0.950 . S
H34 C29 0.949 . S
C35 C30 1.399 . S
C35 C33 1.382 . S
C35 H36 0.952 . S
H36 C35 0.952 . S
H37 C33 0.950 . S
H38 C39 0.949 . S
C39 H38 0.949 . S
C39 C40 1.395 . S
C39 C41 1.391 . S
C40 C39 1.395 . S
C40 C43 1.390 . S
C41 C39 1.391 . S
C41 C45 1.387 . S
C41 C46 1.491 . S
H42 C43 0.950 . S
C43 C40 1.390 . S
C43 H42 0.950 . S
C43 C44 1.378 . S
C44 C43 1.378 . S
C44 C45 1.409 . S
C45 C41 1.387 . S
C45 C44 1.409 . S
C45 H47 0.951 . S
C46 C41 1.491 . S
C46 C48 1.382 . S
C46 C50 1.404 . S
H47 C45 0.951 . S
C48 C46 1.382 . S
C48 C49 1.390 . S
C48 H53 0.949 . S
C49 C48 1.390 . S
C49 C54 1.399 . S
C50 C46 1.404 . S
C50 H51 0.950 . S
C50 C52 1.375 . S
H51 C50 0.950 . S
C52 C50 1.375 . S
C52 C54 1.382 . S
C52 H56 0.950 . S
H53 C48 0.949 . S
C54 C49 1.399 . S
C54 C52 1.382 . S
C54 H55 0.952 . S
H55 C54 0.952 . S
H56 C52 0.950 . S
H57 C58 0.949 . S
C58 H57 0.949 . S
C58 C59 1.395 . S
C58 C60 1.391 . S
C59 C58 1.395 . S
C59 C62 1.390 . S
C60 C58 1.391 . S
C60 C64 1.387 . S
C60 C65 1.491 . S
H61 C62 0.950 . S
C62 C59 1.390 . S
C62 H61 0.950 . S
C62 C63 1.378 . S
C63 C62 1.378 . S
C63 C64 1.409 . S
C64 C60 1.387 . S
C64 C63 1.409 . S
C64 H66 0.951 . S
C65 C60 1.491 . S
C65 C67 1.382 . S
C65 C69 1.404 . S
H66 C64 0.951 . S
C67 C65 1.382 . S
C67 C68 1.390 . S
C67 H72 0.949 . S
C68 C67 1.390 . S
C68 C73 1.399 . S
C69 C65 1.404 . S
C69 H70 0.950 . S
C69 C71 1.375 . S
H70 C69 0.950 . S
C71 C69 1.375 . S
C71 C73 1.382 . S
C71 H75 0.950 . S
H72 C67 0.949 . S
C73 C68 1.399 . S
C73 C71 1.382 . S
C73 H74 0.952 . S
H74 C73 0.952 . S
H75 C71 0.950 . S
H76 C77 0.949 . S
C77 H76 0.949 . S
C77 C78 1.395 . S
C77 C79 1.391 . S
C78 C77 1.395 . S
C78 C81 1.390 . S
C79 C77 1.391 . S
C79 C83 1.387 . S
C79 C84 1.491 . S
H80 C81 0.950 . S
C81 C78 1.390 . S
C81 H80 0.950 . S
C81 C82 1.378 . S
C82 C81 1.378 . S
C82 C83 1.409 . S
C83 C79 1.387 . S
C83 C82 1.409 . S
C83 H85 0.951 . S
C84 C79 1.491 . S
C84 C86 1.382 . S
C84 C88 1.404 . S
H85 C83 0.951 . S
C86 C84 1.382 . S
C86 C87 1.390 . S
C86 H91 0.949 . S
C87 C86 1.390 . S
C87 C92 1.399 . S
C88 C84 1.404 . S
C88 H89 0.950 . S
C88 C90 1.375 . S
H89 C88 0.950 . S
C90 C88 1.375 . S
C90 C92 1.382 . S
C90 H94 0.950 . S
H91 C86 0.949 . S
C92 C87 1.399 . S
C92 C90 1.382 . S
C92 H93 0.952 . S
H93 C92 0.952 . S
H94 C90 0.950 . S
H95 C96 0.949 . S
C96 H95 0.949 . S
C96 C97 1.395 . S
C96 C98 1.391 . S
C97 C96 1.395 . S
C97 C100 1.390 . S
C98 C96 1.391 . S
C98 C102 1.387 . S
C98 C103 1.491 . S
H99 C100 0.950 . S
C100 C97 1.390 . S
C100 H99 0.950 . S
C100 C101 1.378 . S
C101 C100 1.378 . S
C101 C102 1.409 . S
C102 C98 1.387 . S
C102 C101 1.409 . S
C102 H104 0.951 . S
C103 C98 1.491 . S
C103 C105 1.382 . S
C103 C107 1.404 . S
H104 C102 0.951 . S
C105 C103 1.382 . S
C105 C106 1.390 . S
C105 H110 0.949 . S
C106 C105 1.390 . S
C106 C111 1.399 . S
C107 C103 1.404 . S
C107 H108 0.950 . S
C107 C109 1.375 . S
H108 C107 0.950 . S
C109 C107 1.375 . S
C109 C111 1.382 . S
C109 H113 0.950 . S
H110 C105 0.949 . S
C111 C106 1.399 . S
C111 C109 1.382 . S
C111 H112 0.952 . S
H112 C111 0.952 . S
H113 C109 0.950 . S
H114 C115 0.949 . S
C115 H114 0.949 . S
C115 C116 1.395 . S
C115 C117 1.391 . S
C116 C115 1.395 . S
C116 C119 1.390 . S
C117 C115 1.391 . S
C117 C121 1.387 . S
C117 C122 1.491 . S
H118 C119 0.950 . S
C119 C116 1.390 . S
C119 H118 0.950 . S
C119 C120 1.378 . S
C120 C119 1.378 . S
C120 C121 1.409 . S
C121 C117 1.387 . S
C121 C120 1.409 . S
C121 H123 0.951 . S
C122 C117 1.491 . S
C122 C124 1.382 . S
C122 C126 1.404 . S
H123 C121 0.951 . S
C124 C122 1.382 . S
C124 C125 1.390 . S
C124 H129 0.949 . S
C125 C124 1.390 . S
C125 C130 1.399 . S
C126 C122 1.404 . S
C126 H127 0.950 . S
C126 C128 1.375 . S
H127 C126 0.950 . S
C128 C126 1.375 . S
C128 C130 1.382 . S
C128 H132 0.950 . S
H129 C124 0.949 . S
C130 C125 1.399 . S
C130 C128 1.382 . S
C130 H131 0.952 . S
H131 C130 0.952 . S
H132 C128 0.950 . S
H133 C134 0.949 . S
C134 H133 0.949 . S
C134 C135 1.395 . S
C134 C136 1.391 . S
C135 C134 1.395 . S
C135 C138 1.390 . S
C136 C134 1.391 . S
C136 C140 1.387 . S
C136 C141 1.491 . S
H137 C138 0.950 . S
C138 C135 1.390 . S
C138 H137 0.950 . S
C138 C139 1.378 . S
C139 C138 1.378 . S
C139 C140 1.409 . S
C140 C136 1.387 . S
C140 C139 1.409 . S
C140 H142 0.951 . S
C141 C136 1.491 . S
C141 C143 1.382 . S
C141 C145 1.404 . S
H142 C140 0.951 . S
C143 C141 1.382 . S
C143 C144 1.390 . S
C143 H148 0.949 . S
C144 C143 1.390 . S
C144 C149 1.399 . S
C145 C141 1.404 . S
C145 H146 0.950 . S
C145 C147 1.375 . S
H146 C145 0.950 . S
C147 C145 1.375 . S
C147 C149 1.382 . S
C147 H151 0.950 . S
H148 C143 0.949 . S
C149 C144 1.399 . S
C149 C147 1.382 . S
C149 H150 0.952 . S
H150 C149 0.952 . S
H151 C147 0.950 . S
Tb152 C161 2.764 . S
Tb152 O162 2.325 . S
Tb152 O165 2.303 . S
Tb152 O169 2.322 . S
Tb152 O170 2.349 . S
Tb152 O173 2.415 . S
Tb152 O174 2.399 . S
Tb153 O163 2.322 . S
Tb153 O164 2.349 1_655 S
Tb153 O166 2.415 1_545 S
Tb153 O167 2.399 . S
Tb153 O168 2.325 1_655 S
Tb153 O171 2.303 . S
Tb153 C182 2.764 1_545 S
C154 O170 1.261 1_665 S
C154 O171 1.257 1_565 S
C155 C158 1.358 . S
C155 C159 1.332 . S
C155 C161 1.504 . S
C156 C157 1.373 . S
C156 C160 1.308 . S
C157 C156 1.373 . S
C157 C158 1.429 . S
C157 H184 0.932 . S
C158 C155 1.358 . S
C158 C157 1.429 . S
C158 H185 0.930 . S
C159 C155 1.332 . S
C159 C160 1.394 . S
C159 H186 0.932 . S
C160 C156 1.308 . S
C160 C159 1.394 . S
C160 H187 0.929 . S
C161 Tb152 2.764 . S
C161 C155 1.504 . S
C161 O173 1.239 . S
C161 O174 1.263 . S
O162 Tb152 2.325 . S
O162 C172 1.236 1_455 S
O163 Tb153 2.322 . S
O163 C172 1.257 . S
O164 Tb153 2.349 1_455 S
O164 C175 1.261 . S
O165 Tb152 2.303 . S
O165 C175 1.257 . S
O166 Tb153 2.415 1_565 S
O166 C182 1.239 . S
O167 Tb153 2.399 . S
O167 C182 1.263 1_545 S
O168 Tb153 2.325 1_455 S
O168 C183 1.236 . S
O169 Tb152 2.322 . S
O169 C183 1.257 . S
O170 Tb152 2.349 . S
O170 C154 1.261 1_445 S
O171 Tb153 2.303 . S
O171 C154 1.257 1_545 S
C172 O162 1.236 1_655 S
C172 O163 1.257 . S
O173 Tb152 2.415 . S
O173 C161 1.239 . S
O174 Tb152 2.399 . S
O174 C161 1.263 . S
C175 O164 1.261 . S
C175 O165 1.257 . S
C176 C179 1.358 . S
C176 C180 1.332 . S
C176 C182 1.504 . S
C177 C178 1.373 . S
C177 C181 1.308 . S
C178 C177 1.373 . S
C178 C179 1.429 . S
C178 H188 0.932 . S
C179 C176 1.358 . S
C179 C178 1.429 . S
C179 H189 0.930 1_565 S
C180 C176 1.332 . S
C180 C181 1.394 . S
C180 H190 0.932 . S
C181 C177 1.308 . S
C181 C180 1.394 . S
C181 H191 0.929 . S
C182 Tb153 2.764 1_565 S
C182 O166 1.239 . S
C182 O167 1.263 1_565 S
C182 C176 1.504 . S
C183 O168 1.236 . S
C183 O169 1.257 . S
H184 C157 0.932 . S
H185 C158 0.930 . S
H186 C159 0.932 . S
H187 C160 0.929 . S
H188 C178 0.932 . S
H189 C179 0.930 1_545 S
H190 C180 0.932 . S
H191 C181 0.929 . S
Tb192 C201 2.764 . S
Tb192 O202 2.325 . S
Tb192 O205 2.303 . S
Tb192 O209 2.322 1_545 S
Tb192 O210 2.349 . S
Tb192 O213 2.415 . S
Tb192 O214 2.399 . S
Tb193 O203 2.322 . S
Tb193 O204 2.349 . S
Tb193 O206 2.415 1_545 S
Tb193 O207 2.399 . S
Tb193 O208 2.325 1_545 S
Tb193 O211 2.303 . S
Tb193 C222 2.764 1_545 S
C194 O210 1.261 . S
C194 O211 1.257 . S
C195 C198 1.358 . S
C195 C199 1.332 . S
C195 C201 1.504 . S
C196 C197 1.373 . S
C196 C200 1.308 . S
C197 C196 1.373 . S
C197 C198 1.429 . S
C197 H224 0.932 . S
C198 C195 1.358 . S
C198 C197 1.429 . S
C198 H225 0.930 . S
C199 C195 1.332 . S
C199 C200 1.394 . S
C199 H226 0.932 . S
C200 C196 1.308 . S
C200 C199 1.394 . S
C200 H227 0.929 . S
C201 Tb192 2.764 . S
C201 C195 1.504 . S
C201 O213 1.239 . S
C201 O214 1.263 . S
O202 Tb192 2.325 . S
O202 C212 1.236 . S
O203 Tb193 2.322 . S
O203 C212 1.257 . S
O204 Tb193 2.349 . S
O204 C215 1.261 . S
O205 Tb192 2.303 . S
O205 C215 1.257 . S
O206 Tb193 2.415 1_565 S
O206 C222 1.239 . S
O207 Tb193 2.399 . S
O207 C222 1.263 1_545 S
O208 Tb193 2.325 1_565 S
O208 C223 1.236 . S
O209 Tb192 2.322 1_565 S
O209 C223 1.257 . S
O210 Tb192 2.349 . S
O210 C194 1.261 . S
O211 Tb193 2.303 . S
O211 C194 1.257 . S
C212 O202 1.236 . S
C212 O203 1.257 . S
O213 Tb192 2.415 . S
O213 C201 1.239 . S
O214 Tb192 2.399 . S
O214 C201 1.263 . S
C215 O204 1.261 . S
C215 O205 1.257 . S
C216 C219 1.360 . S
C216 C220 1.326 1_554 S
C216 C222 1.504 . S
C217 C218 1.373 . S
C217 C221 1.308 . S
C218 C217 1.373 . S
C218 C219 1.423 1_556 S
C218 H228 0.932 . S
C219 C216 1.360 . S
C219 C218 1.423 1_554 S
C219 H229 0.934 . S
C220 C216 1.326 1_556 S
C220 C221 1.408 . S
C220 H230 0.925 1_556 S
C221 C217 1.308 . S
C221 C220 1.408 . S
C221 H231 0.929 . S
C222 Tb193 2.764 1_565 S
C222 O206 1.239 . S
C222 O207 1.263 1_565 S
C222 C216 1.504 . S
C223 O208 1.236 . S
C223 O209 1.257 . S
H224 C197 0.932 . S
H225 C198 0.930 . S
H226 C199 0.932 . S
H227 C200 0.929 . S
H228 C218 0.932 . S
H229 C219 0.934 . S
H230 C220 0.925 1_554 S
H231 C221 0.929 . S
Tb232 C241 2.764 . S
Tb232 O242 2.325 . S
Tb232 O245 2.303 . S
Tb232 O249 2.322 . S
Tb232 O250 2.349 . S
Tb232 O253 2.415 . S
Tb232 O254 2.399 . S
Tb233 O243 2.322 . S
Tb233 O244 2.349 . S
Tb233 O246 2.415 . S
Tb233 O247 2.399 . S
Tb233 O248 2.325 . S
Tb233 O251 2.303 . S
Tb233 C262 2.764 . S
C234 O250 1.261 . S
C234 O251 1.257 . S
C235 C238 1.358 . S
C235 C239 1.332 . S
C235 C241 1.504 . S
C236 C237 1.373 . S
C236 C240 1.308 . S
C237 C236 1.373 . S
C237 C238 1.429 . S
C237 H264 0.932 . S
C238 C235 1.358 . S
C238 C237 1.429 . S
C238 H265 0.930 . S
C239 C235 1.332 . S
C239 C240 1.394 . S
C239 H266 0.932 . S
C240 C236 1.308 . S
C240 C239 1.394 . S
C240 H267 0.929 . S
C241 Tb232 2.764 . S
C241 C235 1.504 . S
C241 O253 1.239 . S
C241 O254 1.263 . S
O242 Tb232 2.325 . S
O242 C252 1.236 . S
O243 Tb233 2.322 . S
O243 C252 1.257 . S
O244 Tb233 2.349 . S
O244 C255 1.261 . S
O245 Tb232 2.303 . S
O245 C255 1.257 . S
O246 Tb233 2.415 . S
O246 C262 1.239 . S
O247 Tb233 2.399 . S
O247 C262 1.263 . S
O248 Tb233 2.325 . S
O248 C263 1.236 . S
O249 Tb232 2.322 . S
O249 C263 1.257 . S
O250 Tb232 2.349 . S
O250 C234 1.261 . S
O251 Tb233 2.303 . S
O251 C234 1.257 . S
C252 O242 1.236 . S
C252 O243 1.257 . S
O253 Tb232 2.415 . S
O253 C241 1.239 . S
O254 Tb232 2.399 . S
O254 C241 1.263 . S
C255 O244 1.261 . S
C255 O245 1.257 . S
C256 C259 1.358 . S
C256 C260 1.332 . S
C256 C262 1.504 . S
C257 C258 1.373 . S
C257 C261 1.308 . S
C258 C257 1.373 . S
C258 C259 1.429 . S
C258 H268 0.932 . S
C259 C256 1.358 . S
C259 C258 1.429 . S
C259 H269 0.930 . S
C260 C256 1.332 . S
C260 C261 1.394 . S
C260 H270 0.932 . S
C261 C257 1.308 . S
C261 C260 1.394 . S
C261 H271 0.929 . S
C262 Tb233 2.764 . S
C262 O246 1.239 . S
C262 O247 1.263 . S
C262 C256 1.504 . S
C263 O248 1.236 . S
C263 O249 1.257 . S
H264 C237 0.932 . S
H265 C238 0.930 . S
H266 C239 0.932 . S
H267 C240 0.929 . S
H268 C258 0.932 . S
H269 C259 0.930 . S
H270 C260 0.932 . S
H271 C261 0.929 . S
Tb272 C281 2.764 . S
Tb272 O282 2.325 . S
Tb272 O285 2.303 1_556 S
Tb272 O289 2.322 1_556 S
Tb272 O290 2.349 . S
Tb272 O293 2.414 1_556 S
Tb272 O294 2.399 . S
Tb273 O283 2.322 1_455 S
Tb273 O284 2.349 . S
Tb273 O286 2.415 . S
Tb273 O287 2.399 . S
Tb273 O288 2.325 . S
Tb273 O291 2.303 1_554 S
Tb273 C302 2.764 . S
C274 O290 1.261 . S
C274 O291 1.257 . S
C275 C278 1.358 . S
C275 C279 1.332 . S
C275 C281 1.504 1_655 S
C276 C277 1.373 . S
C276 C280 1.308 . S
C277 C276 1.373 . S
C277 C278 1.429 . S
C277 H304 0.932 . S
C278 C275 1.358 . S
C278 C277 1.429 . S
C278 H305 0.930 1_655 S
C279 C275 1.332 . S
C279 C280 1.394 . S
C279 H306 0.932 . S
C280 C276 1.308 . S
C280 C279 1.394 . S
C280 H307 0.929 . S
C281 Tb272 2.764 . S
C281 C275 1.504 1_455 S
C281 O293 1.202 1_556 S
C281 O294 1.263 . S
O282 Tb272 2.325 . S
O282 C292 1.236 1_455 S
O283 Tb273 2.322 1_655 S
O283 C292 1.257 1_554 S
O284 Tb273 2.349 . S
O284 C295 1.261 . S
O285 Tb272 2.303 1_554 S
O285 C295 1.257 . S
O286 Tb273 2.415 . S
O286 C302 1.239 . S
O287 Tb273 2.399 . S
O287 C302 1.263 . S
O288 Tb273 2.325 . S
O288 C303 1.236 . S
O289 Tb272 2.322 1_554 S
O289 C303 1.257 . S
O290 Tb272 2.349 . S
O290 C274 1.261 . S
O291 Tb273 2.303 1_556 S
O291 C274 1.257 . S
C292 O282 1.236 1_655 S
C292 O283 1.257 1_556 S
O293 Tb272 2.414 1_554 S
O293 C281 1.202 1_554 S
O294 Tb272 2.399 . S
O294 C281 1.263 . S
C295 O284 1.261 . S
C295 O285 1.257 . S
C296 C299 1.358 . S
C296 C300 1.332 . S
C296 C302 1.504 . S
C297 C298 1.373 . S
C297 C301 1.308 . S
C298 C297 1.373 . S
C298 C299 1.429 . S
C298 H308 0.932 . S
C299 C296 1.358 . S
C299 C298 1.429 . S
C299 H309 0.930 . S
C300 C296 1.332 . S
C300 C301 1.394 . S
C300 H310 0.932 . S
C301 C297 1.308 . S
C301 C300 1.394 . S
C301 H311 0.929 . S
C302 Tb273 2.764 . S
C302 O286 1.239 . S
C302 O287 1.263 . S
C302 C296 1.504 . S
C303 O288 1.236 . S
C303 O289 1.257 . S
H304 C277 0.932 . S
H305 C278 0.930 1_455 S
H306 C279 0.932 . S
H307 C280 0.929 . S
H308 C298 0.932 . S
H309 C299 0.930 . S
H310 C300 0.932 . S
H311 C301 0.929 . S
C312 C313 1.349 . S
C312 C314 1.327 . S
C312 H337 0.950 . S
C313 C312 1.349 . S
C313 C329 1.349 . S
C314 C312 1.327 . S
C314 C333 1.429 . S
C314 H338 0.950 . S
C315 C332 1.574 . S
C315 C334 1.368 . S
C315 H339 0.949 . S
H316 C320 0.949 . S
C317 C318 1.349 . S
C317 C319 1.327 . S
C317 H340 0.950 . S
C318 C317 1.349 . S
C318 C330 1.349 . S
C319 C317 1.327 . S
C319 C335 1.429 . S
C319 H341 0.950 . S
C320 H316 0.949 . S
C320 C328 1.574 . S
C320 C336 1.368 . S
H321 C329 0.950 . S
H322 C327 0.950 . S
H323 C328 0.949 . S
H324 C330 0.950 . S
H325 C331 0.950 . S
H326 C332 0.949 . S
C327 H322 0.950 . S
C327 C329 1.327 . S
C327 C333 1.429 . S
C328 C320 1.574 . S
C328 H323 0.949 . S
C328 C334 1.368 . S
C329 C313 1.349 . S
C329 H321 0.950 . S
C329 C327 1.327 . S
C330 C318 1.349 . S
C330 H324 0.950 . S
C330 C331 1.327 . S
C331 H325 0.950 . S
C331 C330 1.327 . S
C331 C335 1.429 . S
C332 C315 1.574 . S
C332 H326 0.949 . S
C332 C336 1.368 . S
C333 C314 1.429 . S
C333 C327 1.429 . S
C333 C334 1.523 . S
C334 C315 1.368 . S
C334 C328 1.368 . S
C334 C333 1.523 . S
C335 C319 1.429 . S
C335 C331 1.429 . S
C335 C336 1.523 . S
C336 C320 1.368 . S
C336 C332 1.368 . S
C336 C335 1.523 . S
H337 C312 0.950 . S
H338 C314 0.950 . S
H339 C315 0.949 . S
H340 C317 0.950 . S
H341 C319 0.950 . S
C342 C343 1.349 . S
C342 C344 1.327 . S
C342 H367 0.950 . S
C343 C342 1.349 . S
C343 C359 1.349 . S
C344 C342 1.327 . S
C344 C363 1.429 . S
C344 H368 0.950 . S
C345 C362 1.574 . S
C345 C364 1.368 . S
C345 H369 0.949 . S
H346 C350 0.949 . S
C347 C348 1.349 . S
C347 C349 1.327 . S
C347 H370 0.950 . S
C348 C347 1.349 . S
C348 C360 1.349 . S
C349 C347 1.327 . S
C349 C365 1.429 . S
C349 H371 0.950 . S
C350 H346 0.949 . S
C350 C358 1.574 . S
C350 C366 1.368 . S
H351 C359 0.950 . S
H352 C357 0.950 . S
H353 C358 0.949 . S
H354 C360 0.950 . S
H355 C361 0.950 . S
H356 C362 0.949 . S
C357 H352 0.950 . S
C357 C359 1.327 . S
C357 C363 1.429 . S
C358 C350 1.574 . S
C358 H353 0.949 . S
C358 C364 1.368 . S
C359 C343 1.349 . S
C359 H351 0.950 . S
C359 C357 1.327 . S
C360 C348 1.349 . S
C360 H354 0.950 . S
C360 C361 1.327 . S
C361 H355 0.950 . S
C361 C360 1.327 . S
C361 C365 1.429 . S
C362 C345 1.574 . S
C362 H356 0.949 . S
C362 C366 1.368 . S
C363 C344 1.429 . S
C363 C357 1.429 . S
C363 C364 1.523 . S
C364 C345 1.368 . S
C364 C358 1.368 . S
C364 C363 1.523 . S
C365 C349 1.429 . S
C365 C361 1.429 . S
C365 C366 1.523 . S
C366 C350 1.368 . S
C366 C362 1.368 . S
C366 C365 1.523 . S
H367 C342 0.950 . S
H368 C344 0.950 . S
H369 C345 0.949 . S
H370 C347 0.950 . S
H371 C349 0.950 . S
C372 C373 1.349 . S
C372 C374 1.327 . S
C372 H397 0.950 . S
C373 C372 1.349 . S
C373 C389 1.349 . S
C374 C372 1.327 . S
C374 C393 1.429 . S
C374 H398 0.950 . S
C375 C392 1.574 . S
C375 C394 1.368 . S
C375 H399 0.949 . S
H376 C380 0.949 . S
C377 C378 1.349 . S
C377 C379 1.327 . S
C377 H400 0.950 . S
C378 C377 1.349 . S
C378 C390 1.349 . S
C379 C377 1.327 . S
C379 C395 1.429 . S
C379 H401 0.950 . S
C380 H376 0.949 . S
C380 C388 1.574 . S
C380 C396 1.368 . S
H381 C389 0.950 . S
H382 C387 0.950 . S
H383 C388 0.949 . S
H384 C390 0.950 . S
H385 C391 0.950 . S
H386 C392 0.949 . S
C387 H382 0.950 . S
C387 C389 1.327 . S
C387 C393 1.429 . S
C388 C380 1.574 . S
C388 H383 0.949 . S
C388 C394 1.368 . S
C389 C373 1.349 . S
C389 H381 0.950 . S
C389 C387 1.327 . S
C390 C378 1.349 . S
C390 H384 0.950 . S
C390 C391 1.327 . S
C391 H385 0.950 . S
C391 C390 1.327 . S
C391 C395 1.429 . S
C392 C375 1.574 . S
C392 H386 0.949 . S
C392 C396 1.368 . S
C393 C374 1.429 . S
C393 C387 1.429 . S
C393 C394 1.523 . S
C394 C375 1.368 . S
C394 C388 1.368 . S
C394 C393 1.523 . S
C395 C379 1.429 . S
C395 C391 1.429 . S
C395 C396 1.523 . S
C396 C380 1.368 . S
C396 C392 1.368 . S
C396 C395 1.523 . S
H397 C372 0.950 . S
H398 C374 0.950 . S
H399 C375 0.949 . S
H400 C377 0.950 . S
H401 C379 0.950 . S
C402 C403 1.349 . S
C402 C404 1.327 . S
C402 H427 0.950 . S
C403 C402 1.349 . S
C403 C419 1.349 . S
C404 C402 1.327 . S
C404 C423 1.429 . S
C404 H428 0.950 . S
C405 C422 1.574 . S
C405 C424 1.368 . S
C405 H429 0.949 . S
H406 C410 0.949 . S
C407 C408 1.349 1_455 S
C407 C409 1.327 . S
C407 H430 0.950 . S
C408 C407 1.349 1_655 S
C408 C420 1.349 . S
C409 C407 1.327 . S
C409 C425 1.429 1_455 S
C409 H431 0.950 . S
C410 H406 0.949 . S
C410 C418 1.574 . S
C410 C426 1.368 . S
H411 C419 0.950 . S
H412 C417 0.950 . S
H413 C418 0.949 . S
H414 C420 0.950 . S
H415 C421 0.950 . S
H416 C422 0.949 . S
C417 H412 0.950 . S
C417 C419 1.327 . S
C417 C423 1.429 . S
C418 C410 1.574 . S
C418 H413 0.949 . S
C418 C424 1.368 . S
C419 C403 1.349 . S
C419 H411 0.950 . S
C419 C417 1.327 . S
C420 C408 1.349 . S
C420 H414 0.950 . S
C420 C421 1.327 . S
C421 H415 0.950 . S
C421 C420 1.327 . S
C421 C425 1.429 . S
C422 C405 1.574 . S
C422 H416 0.949 . S
C422 C426 1.368 . S
C423 C404 1.429 . S
C423 C417 1.429 . S
C423 C424 1.523 . S
C424 C405 1.368 . S
C424 C418 1.368 . S
C424 C423 1.523 . S
C425 C409 1.429 1_655 S
C425 C421 1.429 . S
C425 C426 1.523 . S
C426 C410 1.368 . S
C426 C422 1.368 . S
C426 C425 1.523 . S
H427 C402 0.950 . S
H428 C404 0.950 . S
H429 C405 0.949 . S
H430 C407 0.950 . S
H431 C409 0.950 . S
C432 C433 1.349 . S
C432 C434 1.327 . S
C432 H457 0.950 . S
C433 C432 1.349 . S
C433 C449 1.349 . S
C434 C432 1.327 . S
C434 C453 1.429 . S
C434 H458 0.950 . S
C435 C452 1.574 . S
C435 C454 1.368 . S
C435 H459 0.949 . S
H436 C440 0.949 . S
C437 C438 1.349 . S
C437 C439 1.327 . S
C437 H460 0.950 . S
C438 C437 1.349 . S
C438 C450 1.349 . S
C439 C437 1.327 . S
C439 C455 1.429 . S
C439 H461 0.950 . S
C440 H436 0.949 . S
C440 C448 1.574 . S
C440 C456 1.368 . S
H441 C449 0.950 . S
H442 C447 0.950 . S
H443 C448 0.949 . S
H444 C450 0.950 . S
H445 C451 0.950 . S
H446 C452 0.949 . S
C447 H442 0.950 . S
C447 C449 1.327 . S
C447 C453 1.429 . S
C448 C440 1.574 . S
C448 H443 0.949 . S
C448 C454 1.368 . S
C449 C433 1.349 . S
C449 H441 0.950 . S
C449 C447 1.327 . S
C450 C438 1.349 . S
C450 H444 0.950 . S
C450 C451 1.327 . S
C451 H445 0.950 . S
C451 C450 1.327 . S
C451 C455 1.429 . S
C452 C435 1.574 . S
C452 H446 0.949 . S
C452 C456 1.368 . S
C453 C434 1.429 . S
C453 C447 1.429 . S
C453 C454 1.523 . S
C454 C435 1.368 . S
C454 C448 1.368 . S
C454 C453 1.523 . S
C455 C439 1.429 . S
C455 C451 1.429 . S
C455 C456 1.523 . S
C456 C440 1.368 . S
C456 C452 1.368 . S
C456 C455 1.523 . S
H457 C432 0.950 . S
H458 C434 0.950 . S
H459 C435 0.949 . S
H460 C437 0.950 . S
H461 C439 0.950 . S
C462 C463 1.349 . S
C462 C464 1.327 . S
C462 H487 0.950 . S
C463 C462 1.349 . S
C463 C479 1.349 . S
C464 C462 1.327 . S
C464 C483 1.429 . S
C464 H488 0.950 . S
C465 C482 1.574 . S
C465 C484 1.368 . S
C465 H489 0.949 . S
H466 C470 0.949 . S
C467 C468 1.349 . S
C467 C469 1.327 . S
C467 H490 0.950 . S
C468 C467 1.349 . S
C468 C480 1.349 . S
C469 C467 1.327 . S
C469 C485 1.429 . S
C469 H491 0.950 . S
C470 H466 0.949 . S
C470 C478 1.574 . S
C470 C486 1.368 . S
H471 C479 0.950 . S
H472 C477 0.950 . S
H473 C478 0.949 . S
H474 C480 0.950 1_545 S
H475 C481 0.950 . S
H476 C482 0.949 . S
C477 H472 0.950 . S
C477 C479 1.327 . S
C477 C483 1.429 . S
C478 C470 1.574 . S
C478 H473 0.949 . S
C478 C484 1.368 . S
C479 C463 1.349 . S
C479 H471 0.950 . S
C479 C477 1.327 . S
C480 C468 1.349 . S
C480 H474 0.950 1_565 S
C480 C481 1.327 . S
C481 H475 0.950 . S
C481 C480 1.327 . S
C481 C485 1.429 . S
C482 C465 1.574 . S
C482 H476 0.949 . S
C482 C486 1.368 . S
C483 C464 1.429 . S
C483 C477 1.429 . S
C483 C484 1.523 . S
C484 C465 1.368 . S
C484 C478 1.368 . S
C484 C483 1.523 . S
C485 C469 1.429 . S
C485 C481 1.429 . S
C485 C486 1.523 . S
C486 C470 1.368 . S
C486 C482 1.368 . S
C486 C485 1.523 . S
H487 C462 0.950 . S
H488 C464 0.950 . S
H489 C465 0.949 . S
H490 C467 0.950 . S
H491 C469 0.950 . S
C492 C493 1.349 . S
C492 C494 1.327 . S
C492 H517 0.950 . S
C493 C492 1.349 . S
C493 C509 1.349 . S
C494 C492 1.327 . S
C494 C513 1.429 . S
C494 H518 0.950 . S
C495 C512 1.574 . S
C495 C514 1.368 . S
C495 H519 0.949 . S
H496 C500 0.949 . S
C497 C498 1.347 1_554 S
C497 C499 1.325 1_554 S
C497 H520 0.954 . S
C498 C497 1.347 1_556 S
C498 C510 1.349 . S
C499 C497 1.325 1_556 S
C499 C515 1.429 . S
C499 H521 0.936 1_556 S
C500 H496 0.949 . S
C500 C508 1.574 . S
C500 C516 1.368 . S
H501 C509 0.950 . S
H502 C507 0.950 . S
H503 C508 0.949 . S
H504 C510 0.950 . S
H505 C511 0.950 . S
H506 C512 0.949 . S
C507 H502 0.950 . S
C507 C509 1.327 . S
C507 C513 1.429 . S
C508 C500 1.574 . S
C508 H503 0.949 . S
C508 C514 1.368 . S
C509 C493 1.349 . S
C509 H501 0.950 . S
C509 C507 1.327 . S
C510 C498 1.349 . S
C510 H504 0.950 . S
C510 C511 1.327 . S
C511 H505 0.950 . S
C511 C510 1.327 . S
C511 C515 1.429 . S
C512 C495 1.574 . S
C512 H506 0.949 . S
C512 C516 1.368 . S
C513 C494 1.429 . S
C513 C507 1.429 . S
C513 C514 1.523 . S
C514 C495 1.368 . S
C514 C508 1.368 . S
C514 C513 1.523 . S
C515 C499 1.429 . S
C515 C511 1.429 . S
C515 C516 1.523 . S
C516 C500 1.368 . S
C516 C512 1.368 . S
C516 C515 1.523 . S
H517 C492 0.950 . S
H518 C494 0.950 . S
H519 C495 0.949 . S
H520 C497 0.954 . S
H521 C499 0.936 1_554 S
C522 C523 1.349 . S
C522 C524 1.327 . S
C522 H547 0.950 . S
C523 C522 1.349 . S
C523 C539 1.349 . S
C524 C522 1.327 . S
C524 C543 1.429 . S
C524 H548 0.950 . S
C525 C542 1.574 . S
C525 C544 1.368 . S
C525 H549 0.949 . S
H526 C530 0.949 . S
C527 C528 1.349 . S
C527 C529 1.327 . S
C527 H550 0.950 . S
C528 C527 1.349 . S
C528 C540 1.349 . S
C529 C527 1.327 . S
C529 C545 1.429 . S
C529 H551 0.950 . S
C530 H526 0.949 . S
C530 C538 1.574 . S
C530 C546 1.368 . S
H531 C539 0.950 . S
H532 C537 0.950 . S
H533 C538 0.949 . S
H534 C540 0.950 . S
H535 C541 0.950 . S
H536 C542 0.949 . S
C537 H532 0.950 . S
C537 C539 1.327 . S
C537 C543 1.429 . S
C538 C530 1.574 . S
C538 H533 0.949 . S
C538 C544 1.368 . S
C539 C523 1.349 . S
C539 H531 0.950 . S
C539 C537 1.327 . S
C540 C528 1.349 . S
C540 H534 0.950 . S
C540 C541 1.327 . S
C541 H535 0.950 . S
C541 C540 1.327 . S
C541 C545 1.429 . S
C542 C525 1.574 . S
C542 H536 0.949 . S
C542 C546 1.368 . S
C543 C524 1.429 . S
C543 C537 1.429 . S
C543 C544 1.523 . S
C544 C525 1.368 . S
C544 C538 1.368 . S
C544 C543 1.523 . S
C545 C529 1.429 . S
C545 C541 1.429 . S
C545 C546 1.523 . S
C546 C530 1.368 . S
C546 C542 1.368 . S
C546 C545 1.523 . S
H547 C522 0.950 . S
H548 C524 0.950 . S
H549 C525 0.949 . S
H550 C527 0.950 . S
H551 C529 0.950 . S
C552 C553 1.349 . S
C552 C554 1.327 . S
C552 H577 0.950 . S
C553 C552 1.349 . S
C553 C569 1.349 . S
C554 C552 1.327 . S
C554 C573 1.429 . S
C554 H578 0.950 . S
C555 C572 1.574 . S
C555 C574 1.368 . S
C555 H579 0.949 . S
H556 C560 0.949 . S
C557 C558 1.349 . S
C557 C559 1.327 . S
C557 H580 0.950 . S
C558 C557 1.349 . S
C558 C570 1.349 . S
C559 C557 1.327 . S
C559 C575 1.429 . S
C559 H581 0.950 . S
C560 H556 0.949 . S
C560 C568 1.574 . S
C560 C576 1.368 . S
H561 C569 0.950 . S
H562 C567 0.950 . S
H563 C568 0.949 . S
H564 C570 0.950 . S
H565 C571 0.950 . S
H566 C572 0.949 . S
C567 H562 0.950 . S
C567 C569 1.327 . S
C567 C573 1.429 . S
C568 C560 1.574 . S
C568 H563 0.949 . S
C568 C574 1.368 . S
C569 C553 1.349 . S
C569 H561 0.950 . S
C569 C567 1.327 . S
C570 C558 1.349 . S
C570 H564 0.950 . S
C570 C571 1.327 . S
C571 H565 0.950 . S
C571 C570 1.327 . S
C571 C575 1.429 . S
C572 C555 1.574 . S
C572 H566 0.949 . S
C572 C576 1.368 . S
C573 C554 1.429 . S
C573 C567 1.429 . S
C573 C574 1.523 . S
C574 C555 1.368 . S
C574 C568 1.368 . S
C574 C573 1.523 . S
C575 C559 1.429 . S
C575 C571 1.429 . S
C575 C576 1.523 . S
C576 C560 1.368 . S
C576 C572 1.368 . S
C576 C575 1.523 . S
H577 C552 0.950 . S
H578 C554 0.950 . S
H579 C555 0.949 . S
H580 C557 0.950 . S
H581 C559 0.950 . S
C582 C583 1.349 . S
C582 C584 1.327 . S
C582 H607 0.950 . S
C583 C582 1.349 . S
C583 C599 1.349 . S
C584 C582 1.327 . S
C584 C603 1.429 . S
C584 H608 0.950 . S
C585 C602 1.574 . S
C585 C604 1.368 1_554 S
C585 H609 0.949 . S
H586 C590 0.949 . S
C587 C588 1.349 . S
C587 C589 1.327 . S
C587 H610 0.950 . S
C588 C587 1.349 . S
C588 C600 1.349 . S
C589 C587 1.327 . S
C589 C605 1.429 . S
C589 H611 0.950 . S
C590 H586 0.949 . S
C590 C598 1.574 . S
C590 C606 1.368 1_556 S
H591 C599 0.950 . S
H592 C597 0.950 . S
H593 C598 0.949 . S
H594 C600 0.950 . S
H595 C601 0.950 1_556 S
H596 C602 0.949 . S
C597 H592 0.950 . S
C597 C599 1.327 . S
C597 C603 1.429 . S
C598 C590 1.574 . S
C598 H593 0.949 . S
C598 C604 1.368 . S
C599 C583 1.349 . S
C599 H591 0.950 . S
C599 C597 1.327 . S
C600 C588 1.349 . S
C600 H594 0.950 . S
C600 C601 1.327 . S
C601 H595 0.950 1_554 S
C601 C600 1.327 . S
C601 C605 1.429 . S
C602 C585 1.574 . S
C602 H596 0.949 . S
C602 C606 1.368 . S
C603 C584 1.429 . S
C603 C597 1.429 . S
C603 C604 1.523 . S
C604 C585 1.368 1_556 S
C604 C598 1.368 . S
C604 C603 1.523 . S
C605 C589 1.429 . S
C605 C601 1.429 . S
C605 C606 1.523 . S
C606 C590 1.368 1_554 S
C606 C602 1.368 . S
C606 C605 1.523 . S
H607 C582 0.950 . S
H608 C584 0.950 . S
H609 C585 0.949 . S
H610 C587 0.950 . S
H611 C589 0.950 . S
C612 C613 1.349 . S
C612 C614 1.327 . S
C612 H637 0.950 . S
C613 C612 1.349 . S
C613 C629 1.349 . S
C614 C612 1.327 . S
C614 C633 1.429 . S
C614 H638 0.950 . S
C615 C632 1.574 . S
C615 C634 1.368 . S
C615 H639 0.949 . S
H616 C620 0.949 . S
C617 C618 1.349 . S
C617 C619 1.327 . S
C617 H640 0.950 . S
C618 C617 1.349 . S
C618 C630 1.349 . S
C619 C617 1.327 . S
C619 C635 1.429 . S
C619 H641 0.950 . S
C620 H616 0.949 . S
C620 C628 1.574 . S
C620 C636 1.368 . S
H621 C629 0.950 . S
H622 C627 0.950 . S
H623 C628 0.949 . S
H624 C630 0.950 . S
H625 C631 0.950 . S
H626 C632 0.949 . S
C627 H622 0.950 . S
C627 C629 1.327 . S
C627 C633 1.429 . S
C628 C620 1.574 . S
C628 H623 0.949 . S
C628 C634 1.368 . S
C629 C613 1.349 . S
C629 H621 0.950 . S
C629 C627 1.327 . S
C630 C618 1.349 . S
C630 H624 0.950 . S
C630 C631 1.327 . S
C631 H625 0.950 . S
C631 C630 1.327 . S
C631 C635 1.429 . S
C632 C615 1.574 . S
C632 H626 0.949 . S
C632 C636 1.368 . S
C633 C614 1.429 . S
C633 C627 1.429 . S
C633 C634 1.523 . S
C634 C615 1.368 . S
C634 C628 1.368 . S
C634 C633 1.523 . S
C635 C619 1.429 . S
C635 C631 1.429 . S
C635 C636 1.523 . S
C636 C620 1.368 . S
C636 C632 1.368 . S
C636 C635 1.523 . S
H637 C612 0.950 . S
H638 C614 0.950 . S
H639 C615 0.949 . S
H640 C617 0.950 . S
H641 C619 0.950 . S
C642 C643 1.349 . S
C642 C644 1.327 . S
C642 H667 0.950 . S
C643 C642 1.349 . S
C643 C659 1.349 . S
C644 C642 1.327 . S
C644 C663 1.429 . S
C644 H668 0.950 . S
C645 C662 1.574 . S
C645 C664 1.368 . S
C645 H669 0.949 . S
H646 C650 0.949 . S
C647 C648 1.349 . S
C647 C649 1.327 . S
C647 H670 0.950 . S
C648 C647 1.349 . S
C648 C660 1.349 . S
C649 C647 1.327 . S
C649 C665 1.429 . S
C649 H671 0.950 . S
C650 H646 0.949 . S
C650 C658 1.574 . S
C650 C666 1.368 . S
H651 C659 0.950 . S
H652 C657 0.950 . S
H653 C658 0.949 . S
H654 C660 0.950 . S
H655 C661 0.950 . S
H656 C662 0.949 . S
C657 H652 0.950 . S
C657 C659 1.327 . S
C657 C663 1.429 . S
C658 C650 1.574 . S
C658 H653 0.949 . S
C658 C664 1.368 . S
C659 C643 1.349 . S
C659 H651 0.950 . S
C659 C657 1.327 . S
C660 C648 1.349 . S
C660 H654 0.950 . S
C660 C661 1.327 . S
C661 H655 0.950 . S
C661 C660 1.327 . S
C661 C665 1.429 . S
C662 C645 1.574 . S
C662 H656 0.949 . S
C662 C666 1.368 . S
C663 C644 1.429 . S
C663 C657 1.429 . S
C663 C664 1.523 . S
C664 C645 1.368 . S
C664 C658 1.368 . S
C664 C663 1.523 . S
C665 C649 1.429 . S
C665 C661 1.429 . S
C665 C666 1.523 . S
C666 C650 1.368 . S
C666 C662 1.368 . S
C666 C665 1.523 . S
H667 C642 0.950 . S
H668 C644 0.950 . S
H669 C645 0.949 . S
H670 C647 0.950 . S
H671 C649 0.950 . S
C672 C673 1.349 . S
C672 C674 1.327 . S
C672 H697 0.950 . S
C673 C672 1.349 . S
C673 C689 1.349 . S
C674 C672 1.327 . S
C674 C693 1.429 . S
C674 H698 0.950 . S
C675 C692 1.574 . S
C675 C694 1.368 . S
C675 H699 0.949 . S
H676 C680 0.949 . S
C677 C678 1.349 . S
C677 C679 1.327 . S
C677 H700 0.950 . S
C678 C677 1.349 . S
C678 C690 1.349 . S
C679 C677 1.327 . S
C679 C695 1.429 . S
C679 H701 0.950 . S
C680 H676 0.949 . S
C680 C688 1.574 . S
C680 C696 1.368 . S
H681 C689 0.950 . S
H682 C687 0.950 . S
H683 C688 0.949 . S
H684 C690 0.950 . S
H685 C691 0.950 . S
H686 C692 0.949 . S
C687 H682 0.950 . S
C687 C689 1.327 . S
C687 C693 1.429 . S
C688 C680 1.574 . S
C688 H683 0.949 . S
C688 C694 1.368 . S
C689 C673 1.349 . S
C689 H681 0.950 . S
C689 C687 1.327 . S
C690 C678 1.349 . S
C690 H684 0.950 . S
C690 C691 1.327 . S
C691 H685 0.950 . S
C691 C690 1.327 . S
C691 C695 1.429 . S
C692 C675 1.574 . S
C692 H686 0.949 . S
C692 C696 1.368 . S
C693 C674 1.429 . S
C693 C687 1.429 . S
C693 C694 1.523 . S
C694 C675 1.368 . S
C694 C688 1.368 . S
C694 C693 1.523 . S
C695 C679 1.429 . S
C695 C691 1.429 . S
C695 C696 1.523 . S
C696 C680 1.368 . S
C696 C692 1.368 . S
C696 C695 1.523 . S
H697 C672 0.950 . S
H698 C674 0.950 . S
H699 C675 0.949 . S
H700 C677 0.950 . S
H701 C679 0.950 . S
C702 C703 1.349 . S
C702 C704 1.327 . S
C702 H727 0.950 . S
C703 C702 1.349 . S
C703 C719 1.349 . S
C704 C702 1.327 . S
C704 C723 1.429 . S
C704 H728 0.950 . S
C705 C722 1.574 . S
C705 C724 1.368 . S
C705 H729 0.949 . S
H706 C710 0.949 . S
C707 C708 1.349 . S
C707 C709 1.327 . S
C707 H730 0.950 . S
C708 C707 1.349 . S
C708 C720 1.349 . S
C709 C707 1.327 . S
C709 C725 1.429 . S
C709 H731 0.950 . S
C710 H706 0.949 . S
C710 C718 1.574 . S
C710 C726 1.368 . S
H711 C719 0.950 . S
H712 C717 0.950 . S
H713 C718 0.949 . S
H714 C720 0.950 . S
H715 C721 0.950 . S
H716 C722 0.949 . S
C717 H712 0.950 . S
C717 C719 1.327 . S
C717 C723 1.429 . S
C718 C710 1.574 . S
C718 H713 0.949 . S
C718 C724 1.368 . S
C719 C703 1.349 . S
C719 H711 0.950 . S
C719 C717 1.327 . S
C720 C708 1.349 . S
C720 H714 0.950 . S
C720 C721 1.327 . S
C721 H715 0.950 . S
C721 C720 1.327 . S
C721 C725 1.429 . S
C722 C705 1.574 . S
C722 H716 0.949 . S
C722 C726 1.368 . S
C723 C704 1.429 . S
C723 C717 1.429 . S
C723 C724 1.523 . S
C724 C705 1.368 . S
C724 C718 1.368 . S
C724 C723 1.523 . S
C725 C709 1.429 . S
C725 C721 1.429 . S
C725 C726 1.523 . S
C726 C710 1.368 . S
C726 C722 1.368 . S
C726 C725 1.523 . S
H727 C702 0.950 . S
H728 C704 0.950 . S
H729 C705 0.949 . S
H730 C707 0.950 . S
H731 C709 0.950 . S
C732 C733 1.349 . S
C732 C734 1.327 . S
C732 H757 0.950 . S
C733 C732 1.349 . S
C733 C749 1.349 . S
C734 C732 1.327 . S
C734 C753 1.429 . S
C734 H758 0.950 . S
C735 C752 1.574 . S
C735 C754 1.368 . S
C735 H759 0.949 . S
H736 C740 0.949 . S
C737 C738 1.349 . S
C737 C739 1.327 . S
C737 H760 0.950 . S
C738 C737 1.349 . S
C738 C750 1.349 . S
C739 C737 1.327 . S
C739 C755 1.429 . S
C739 H761 0.950 . S
C740 H736 0.949 . S
C740 C748 1.574 . S
C740 C756 1.368 . S
H741 C749 0.950 . S
H742 C747 0.950 . S
H743 C748 0.949 . S
H744 C750 0.950 . S
H745 C751 0.950 . S
H746 C752 0.949 . S
C747 H742 0.950 . S
C747 C749 1.327 . S
C747 C753 1.429 . S
C748 C740 1.574 . S
C748 H743 0.949 . S
C748 C754 1.368 . S
C749 C733 1.349 . S
C749 H741 0.950 . S
C749 C747 1.327 . S
C750 C738 1.349 . S
C750 H744 0.950 . S
C750 C751 1.327 . S
C751 H745 0.950 . S
C751 C750 1.327 . S
C751 C755 1.429 . S
C752 C735 1.574 . S
C752 H746 0.949 . S
C752 C756 1.368 . S
C753 C734 1.429 . S
C753 C747 1.429 . S
C753 C754 1.523 . S
C754 C735 1.368 . S
C754 C748 1.368 . S
C754 C753 1.523 . S
C755 C739 1.429 . S
C755 C751 1.429 . S
C755 C756 1.523 . S
C756 C740 1.368 . S
C756 C752 1.368 . S
C756 C755 1.523 . S
H757 C732 0.950 . S
H758 C734 0.950 . S
H759 C735 0.949 . S
H760 C737 0.950 . S
H761 C739 0.950 . S
C762 C763 1.349 . S
C762 C764 1.327 . S
C762 H787 0.950 . S
C763 C762 1.349 . S
C763 C779 1.349 . S
C764 C762 1.327 . S
C764 C783 1.429 . S
C764 H788 0.950 . S
C765 C782 1.574 . S
C765 C784 1.368 . S
C765 H789 0.949 . S
H766 C770 0.949 . S
C767 C768 1.349 . S
C767 C769 1.327 . S
C767 H790 0.950 . S
C768 C767 1.349 . S
C768 C780 1.349 . S
C769 C767 1.327 . S
C769 C785 1.429 . S
C769 H791 0.950 . S
C770 H766 0.949 . S
C770 C778 1.574 . S
C770 C786 1.368 . S
H771 C779 0.950 . S
H772 C777 0.950 . S
H773 C778 0.949 . S
H774 C780 0.950 . S
H775 C781 0.950 . S
H776 C782 0.949 . S
C777 H772 0.950 . S
C777 C779 1.327 . S
C777 C783 1.429 . S
C778 C770 1.574 . S
C778 H773 0.949 . S
C778 C784 1.368 . S
C779 C763 1.349 . S
C779 H771 0.950 . S
C779 C777 1.327 . S
C780 C768 1.349 . S
C780 H774 0.950 . S
C780 C781 1.327 . S
C781 H775 0.950 . S
C781 C780 1.327 . S
C781 C785 1.429 . S
C782 C765 1.574 . S
C782 H776 0.949 . S
C782 C786 1.368 . S
C783 C764 1.429 . S
C783 C777 1.429 . S
C783 C784 1.523 . S
C784 C765 1.368 . S
C784 C778 1.368 . S
C784 C783 1.523 . S
C785 C769 1.429 . S
C785 C781 1.429 . S
C785 C786 1.523 . S
C786 C770 1.368 . S
C786 C782 1.368 . S
C786 C785 1.523 . S
H787 C762 0.950 . S
H788 C764 0.950 . S
H789 C765 0.949 . S
H790 C767 0.950 . S
H791 C769 0.950 . S
C792 C793 1.349 . S
C792 C794 1.327 . S
C792 H817 0.950 . S
C793 C792 1.349 . S
C793 C809 1.349 . S
C794 C792 1.327 . S
C794 C813 1.429 . S
C794 H818 0.950 . S
C795 C812 1.574 1_556 S
C795 C814 1.368 . S
C795 H819 0.949 1_556 S
H796 C800 0.949 . S
C797 C798 1.349 . S
C797 C799 1.327 . S
C797 H820 0.950 1_565 S
C798 C797 1.349 . S
C798 C810 1.349 . S
C799 C797 1.327 . S
C799 C815 1.429 . S
C799 H821 0.950 . S
C800 H796 0.949 . S
C800 C808 1.574 . S
C800 C816 1.368 1_556 S
H801 C809 0.950 . S
H802 C807 0.950 . S
H803 C808 0.949 . S
H804 C810 0.950 . S
H805 C811 0.950 1_556 S
H806 C812 0.949 . S
C807 H802 0.950 . S
C807 C809 1.327 . S
C807 C813 1.429 . S
C808 C800 1.574 . S
C808 H803 0.949 . S
C808 C814 1.368 . S
C809 C793 1.349 . S
C809 H801 0.950 . S
C809 C807 1.327 . S
C810 C798 1.349 . S
C810 H804 0.950 . S
C810 C811 1.327 . S
C811 H805 0.950 1_554 S
C811 C810 1.327 . S
C811 C815 1.429 . S
C812 C795 1.574 1_554 S
C812 H806 0.949 . S
C812 C816 1.368 . S
C813 C794 1.429 . S
C813 C807 1.429 . S
C813 C814 1.523 . S
C814 C795 1.368 . S
C814 C808 1.368 . S
C814 C813 1.523 . S
C815 C799 1.429 . S
C815 C811 1.429 . S
C815 C816 1.523 . S
C816 C800 1.368 1_554 S
C816 C812 1.368 . S
C816 C815 1.523 . S
H817 C792 0.950 . S
H818 C794 0.950 . S
H819 C795 0.949 1_554 S
H820 C797 0.950 1_545 S
H821 C799 0.950 . S
C822 C823 1.349 . S
C822 C824 1.327 . S
C822 H847 0.950 . S
C823 C822 1.349 . S
C823 C839 1.349 . S
C824 C822 1.327 . S
C824 C843 1.429 . S
C824 H848 0.950 . S
C825 C842 1.574 . S
C825 C844 1.368 . S
C825 H849 0.949 . S
H826 C830 0.949 . S
C827 C828 1.349 . S
C827 C829 1.327 . S
C827 H850 0.950 . S
C828 C827 1.349 . S
C828 C840 1.349 . S
C829 C827 1.327 . S
C829 C845 1.429 . S
C829 H851 0.950 . S
C830 H826 0.949 . S
C830 C838 1.574 . S
C830 C846 1.368 . S
H831 C839 0.950 . S
H832 C837 0.950 . S
H833 C838 0.949 . S
H834 C840 0.950 . S
H835 C841 0.950 . S
H836 C842 0.949 . S
C837 H832 0.950 . S
C837 C839 1.327 . S
C837 C843 1.429 . S
C838 C830 1.574 . S
C838 H833 0.949 . S
C838 C844 1.368 . S
C839 C823 1.349 . S
C839 H831 0.950 . S
C839 C837 1.327 . S
C840 C828 1.349 . S
C840 H834 0.950 . S
C840 C841 1.327 . S
C841 H835 0.950 . S
C841 C840 1.327 . S
C841 C845 1.429 . S
C842 C825 1.574 . S
C842 H836 0.949 . S
C842 C846 1.368 . S
C843 C824 1.429 . S
C843 C837 1.429 . S
C843 C844 1.523 . S
C844 C825 1.368 . S
C844 C838 1.368 . S
C844 C843 1.523 . S
C845 C829 1.429 . S
C845 C841 1.429 . S
C845 C846 1.523 . S
C846 C830 1.368 . S
C846 C842 1.368 . S
C846 C845 1.523 . S
H847 C822 0.950 . S
H848 C824 0.950 . S
H849 C825 0.949 . S
H850 C827 0.950 . S
H851 C829 0.950 . S
C852 C853 1.349 . S
C852 C854 1.327 . S
C852 H877 0.950 . S
C853 C852 1.349 . S
C853 C869 1.349 . S
C854 C852 1.327 . S
C854 C873 1.429 . S
C854 H878 0.950 . S
C855 C872 1.574 . S
C855 C874 1.368 . S
C855 H879 0.949 . S
H856 C860 0.949 . S
C857 C858 1.349 . S
C857 C859 1.327 . S
C857 H880 0.950 . S
C858 C857 1.349 . S
C858 C870 1.349 . S
C859 C857 1.327 . S
C859 C875 1.429 . S
C859 H881 0.950 . S
C860 H856 0.949 . S
C860 C868 1.574 . S
C860 C876 1.368 . S
H861 C869 0.950 . S
H862 C867 0.950 . S
H863 C868 0.949 . S
H864 C870 0.950 . S
H865 C871 0.950 . S
H866 C872 0.949 . S
C867 H862 0.950 . S
C867 C869 1.327 . S
C867 C873 1.429 . S
C868 C860 1.574 . S
C868 H863 0.949 . S
C868 C874 1.368 . S
C869 C853 1.349 . S
C869 H861 0.950 . S
C869 C867 1.327 . S
C870 C858 1.349 . S
C870 H864 0.950 . S
C870 C871 1.327 . S
C871 H865 0.950 . S
C871 C870 1.327 . S
C871 C875 1.429 . S
C872 C855 1.574 . S
C872 H866 0.949 . S
C872 C876 1.368 . S
C873 C854 1.429 . S
C873 C867 1.429 . S
C873 C874 1.523 . S
C874 C855 1.368 . S
C874 C868 1.368 . S
C874 C873 1.523 . S
C875 C859 1.429 . S
C875 C871 1.429 . S
C875 C876 1.523 . S
C876 C860 1.368 . S
C876 C872 1.368 . S
C876 C875 1.523 . S
H877 C852 0.950 . S
H878 C854 0.950 . S
H879 C855 0.949 . S
H880 C857 0.950 . S
H881 C859 0.950 . S
C882 C883 1.349 . S
C882 C884 1.327 . S
C882 H907 0.950 . S
C883 C882 1.349 . S
C883 C899 1.349 . S
C884 C882 1.327 . S
C884 C903 1.429 . S
C884 H908 0.950 . S
C885 C902 1.574 . S
C885 C904 1.368 . S
C885 H909 0.949 . S
H886 C890 0.949 . S
C887 C888 1.349 . S
C887 C889 1.327 . S
C887 H910 0.950 . S
C888 C887 1.349 . S
C888 C900 1.349 . S
C889 C887 1.327 . S
C889 C905 1.429 . S
C889 H911 0.950 . S
C890 H886 0.949 . S
C890 C898 1.574 . S
C890 C906 1.368 . S
H891 C899 0.950 . S
H892 C897 0.950 . S
H893 C898 0.949 . S
H894 C900 0.950 . S
H895 C901 0.950 . S
H896 C902 0.949 . S
C897 H892 0.950 . S
C897 C899 1.327 . S
C897 C903 1.429 . S
C898 C890 1.574 . S
C898 H893 0.949 . S
C898 C904 1.368 . S
C899 C883 1.349 . S
C899 H891 0.950 . S
C899 C897 1.327 . S
C900 C888 1.349 . S
C900 H894 0.950 . S
C900 C901 1.327 . S
C901 H895 0.950 . S
C901 C900 1.327 . S
C901 C905 1.429 . S
C902 C885 1.574 . S
C902 H896 0.949 . S
C902 C906 1.368 . S
C903 C884 1.429 . S
C903 C897 1.429 . S
C903 C904 1.523 . S
C904 C885 1.368 . S
C904 C898 1.368 . S
C904 C903 1.523 . S
C905 C889 1.429 . S
C905 C901 1.429 . S
C905 C906 1.523 . S
C906 C890 1.368 . S
C906 C902 1.368 . S
C906 C905 1.523 . S
H907 C882 0.950 . S
H908 C884 0.950 . S
H909 C885 0.949 . S
H910 C887 0.950 . S
H911 C889 0.950 . S
C912 C913 1.349 . S
C912 C914 1.327 . S
C912 H937 0.950 . S
C913 C912 1.349 . S
C913 C929 1.349 . S
C914 C912 1.327 . S
C914 C933 1.429 . S
C914 H938 0.950 . S
C915 C932 1.574 . S
C915 C934 1.368 . S
C915 H939 0.949 . S
H916 C920 0.949 . S
C917 C918 1.349 . S
C917 C919 1.327 . S
C917 H940 0.950 . S
C918 C917 1.349 . S
C918 C930 1.349 . S
C919 C917 1.327 . S
C919 C935 1.429 . S
C919 H941 0.950 . S
C920 H916 0.949 . S
C920 C928 1.574 . S
C920 C936 1.368 . S
H921 C929 0.950 . S
H922 C927 0.950 . S
H923 C928 0.949 . S
H924 C930 0.950 . S
H925 C931 0.950 . S
H926 C932 0.949 . S
C927 H922 0.950 . S
C927 C929 1.327 . S
C927 C933 1.429 . S
C928 C920 1.574 . S
C928 H923 0.949 . S
C928 C934 1.368 . S
C929 C913 1.349 . S
C929 H921 0.950 . S
C929 C927 1.327 . S
C930 C918 1.349 . S
C930 H924 0.950 . S
C930 C931 1.327 . S
C931 H925 0.950 . S
C931 C930 1.327 . S
C931 C935 1.429 . S
C932 C915 1.574 . S
C932 H926 0.949 . S
C932 C936 1.368 . S
C933 C914 1.429 . S
C933 C927 1.429 . S
C933 C934 1.523 . S
C934 C915 1.368 . S
C934 C928 1.368 . S
C934 C933 1.523 . S
C935 C919 1.429 . S
C935 C931 1.429 . S
C935 C936 1.523 . S
C936 C920 1.368 . S
C936 C932 1.368 . S
C936 C935 1.523 . S
H937 C912 0.950 . S
H938 C914 0.950 . S
H939 C915 0.949 . S
H940 C917 0.950 . S
H941 C919 0.950 . S
C942 C943 1.349 . S
C942 C944 1.327 . S
C942 H967 0.950 . S
C943 C942 1.349 . S
C943 C959 1.349 . S
C944 C942 1.327 . S
C944 C963 1.429 . S
C944 H968 0.950 . S
C945 C962 1.574 . S
C945 C964 1.368 . S
C945 H969 0.949 . S
H946 C950 0.949 . S
C947 C948 1.349 . S
C947 C949 1.327 . S
C947 H970 0.950 . S
C948 C947 1.349 . S
C948 C960 1.349 . S
C949 C947 1.327 . S
C949 C965 1.429 . S
C949 H971 0.950 . S
C950 H946 0.949 . S
C950 C958 1.574 . S
C950 C966 1.368 . S
H951 C959 0.950 . S
H952 C957 0.950 . S
H953 C958 0.949 . S
H954 C960 0.950 . S
H955 C961 0.950 . S
H956 C962 0.949 . S
C957 H952 0.950 . S
C957 C959 1.327 . S
C957 C963 1.429 . S
C958 C950 1.574 . S
C958 H953 0.949 . S
C958 C964 1.368 . S
C959 C943 1.349 . S
C959 H951 0.950 . S
C959 C957 1.327 . S
C960 C948 1.349 . S
C960 H954 0.950 . S
C960 C961 1.327 . S
C961 H955 0.950 . S
C961 C960 1.327 . S
C961 C965 1.429 . S
C962 C945 1.574 . S
C962 H956 0.949 . S
C962 C966 1.368 . S
C963 C944 1.429 . S
C963 C957 1.429 . S
C963 C964 1.523 . S
C964 C945 1.368 . S
C964 C958 1.368 . S
C964 C963 1.523 . S
C965 C949 1.429 . S
C965 C961 1.429 . S
C965 C966 1.523 . S
C966 C950 1.368 . S
C966 C962 1.368 . S
C966 C965 1.523 . S
H967 C942 0.950 . S
H968 C944 0.950 . S
H969 C945 0.949 . S
H970 C947 0.950 . S
H971 C949 0.950 . S
C972 C973 1.349 . S
C972 C974 1.327 . S
C972 H997 0.950 . S
C973 C972 1.349 . S
C973 C989 1.349 . S
C974 C972 1.327 . S
C974 C993 1.429 . S
C974 H998 0.950 . S
C975 C992 1.574 . S
C975 C994 1.368 . S
C975 H999 0.949 . S
H976 C980 0.949 . S
C977 C978 1.349 . S
C977 C979 1.327 . S
C977 H1000 0.950 . S
C978 C977 1.349 . S
C978 C990 1.349 . S
C979 C977 1.327 . S
C979 C995 1.429 . S
C979 H1001 0.950 . S
C980 H976 0.949 . S
C980 C988 1.574 . S
C980 C996 1.368 . S
H981 C989 0.950 . S
H982 C987 0.950 . S
H983 C988 0.949 . S
H984 C990 0.950 . S
H985 C991 0.950 . S
H986 C992 0.949 . S
C987 H982 0.950 . S
C987 C989 1.327 . S
C987 C993 1.429 . S
C988 C980 1.574 . S
C988 H983 0.949 . S
C988 C994 1.368 . S
C989 C973 1.349 . S
C989 H981 0.950 . S
C989 C987 1.327 . S
C990 C978 1.349 . S
C990 H984 0.950 . S
C990 C991 1.327 . S
C991 H985 0.950 . S
C991 C990 1.327 . S
C991 C995 1.429 . S
C992 C975 1.574 . S
C992 H986 0.949 . S
C992 C996 1.368 . S
C993 C974 1.429 . S
C993 C987 1.429 . S
C993 C994 1.523 . S
C994 C975 1.368 . S
C994 C988 1.368 . S
C994 C993 1.523 . S
C995 C979 1.429 . S
C995 C991 1.429 . S
C995 C996 1.523 . S
C996 C980 1.368 . S
C996 C992 1.368 . S
C996 C995 1.523 . S
H997 C972 0.950 . S
H998 C974 0.950 . S
H999 C975 0.949 . S
H1000 C977 0.950 . S
H1001 C979 0.950 . S
C1002 C1003 1.349 . S
C1002 C1004 1.327 . S
C1002 H1027 0.950 . S
C1003 C1002 1.349 . S
C1003 C1019 1.349 . S
C1004 C1002 1.327 . S
C1004 C1023 1.429 . S
C1004 H1028 0.950 . S
C1005 C1022 1.574 . S
C1005 C1024 1.368 . S
C1005 H1029 0.949 . S
H1006 C1010 0.949 . S
C1007 C1008 1.349 . S
C1007 C1009 1.327 . S
C1007 H1030 0.950 . S
C1008 C1007 1.349 . S
C1008 C1020 1.349 . S
C1009 C1007 1.327 . S
C1009 C1025 1.429 . S
C1009 H1031 0.950 . S
C1010 H1006 0.949 . S
C1010 C1018 1.574 . S
C1010 C1026 1.368 . S
H1011 C1019 0.950 . S
H1012 C1017 0.950 . S
H1013 C1018 0.949 . S
H1014 C1020 0.950 . S
H1015 C1021 0.950 . S
H1016 C1022 0.949 . S
C1017 H1012 0.950 . S
C1017 C1019 1.327 . S
C1017 C1023 1.429 . S
C1018 C1010 1.574 . S
C1018 H1013 0.949 . S
C1018 C1024 1.368 . S
C1019 C1003 1.349 . S
C1019 H1011 0.950 . S
C1019 C1017 1.327 . S
C1020 C1008 1.349 . S
C1020 H1014 0.950 . S
C1020 C1021 1.327 . S
C1021 H1015 0.950 . S
C1021 C1020 1.327 . S
C1021 C1025 1.429 . S
C1022 C1005 1.574 . S
C1022 H1016 0.949 . S
C1022 C1026 1.368 . S
C1023 C1004 1.429 . S
C1023 C1017 1.429 . S
C1023 C1024 1.523 . S
C1024 C1005 1.368 . S
C1024 C1018 1.368 . S
C1024 C1023 1.523 . S
C1025 C1009 1.429 . S
C1025 C1021 1.429 . S
C1025 C1026 1.523 . S
C1026 C1010 1.368 . S
C1026 C1022 1.368 . S
C1026 C1025 1.523 . S
H1027 C1002 0.950 . S
H1028 C1004 0.950 . S
H1029 C1005 0.949 . S
H1030 C1007 0.950 . S
H1031 C1009 0.950 . S
C313 C6 1.000 . S
C318 C156 1.008 . S
C343 C21 1.622 . S
C348 C217 1.661 . S
C378 C255 1.805 . S
C373 C49 1.750 . S
C403 C68 1.978 . S
C408 C295 2.061 1_655 S
C438 C215 2.251 . S
C433 C2 2.248 . S
C468 C183 1.648 1_565 S
C463 C30 1.587 . S
C498 C292 1.507 . S
C493 C40 1.510 . S
C528 C252 1.475 . S
C523 C63 1.510 . S
C553 C11 0.893 . S
C558 C297 0.969 . S
C588 C212 2.738 . S
C583 C44 2.741 . S
C613 C59 1.640 . S
C618 C154 1.622 . S
C643 C25 1.787 . S
C648 C257 1.793 . S
C678 C177 1.302 . S
C673 C82 1.297 . S
C703 C101 1.250 . S
C708 C196 1.274 . S
C733 C125 2.248 . S
C738 C234 2.265 . S
C763 C144 1.555 . S
C768 C274 1.632 . S
C793 C87 0.890 . S
C798 C194 0.925 1_565 S
C828 C172 2.852 . S
C823 C97 2.777 . S
C858 C303 1.328 . S
C853 C120 1.359 . S
C888 C263 1.693 . S
C883 C135 1.692 . S
C913 C78 1.446 . S
C918 C276 1.483 . S
C948 C223 1.915 . S
C943 C116 1.897 . S
C978 C175 2.419 . S
C973 C139 2.462 . S
C1003 C106 1.088 . S
C1008 C236 1.342 . S
