# Generated by pormake.
# Topology ptr, (4,4)-cn, num edge types: 1
# Building blocks:
#     Node 0, Type 0, BuildingBlock: UXUYUI_clean_sbu_0, # of connection points: 4
#     Node 1, Type 0, BuildingBlock: UXUYUI_clean_sbu_0, # of connection points: 4
#     Node 2, Type 0, BuildingBlock: UXUYUI_clean_sbu_0, # of connection points: 4
#     Node 3, Type 0, BuildingBlock: UXUYUI_clean_sbu_0, # of connection points: 4
#     Node 4, Type 0, BuildingBlock: UXUYUI_clean_sbu_0, # of connection points: 4
#     Node 5, Type 0, BuildingBlock: UXUYUI_clean_sbu_0, # of connection points: 4
#     Node 6, Type 0, BuildingBlock: UXUYUI_clean_sbu_0, # of connection points: 4
#     Node 7, Type 0, BuildingBlock: UXUYUI_clean_sbu_0, # of connection points: 4
#     Node 8, Type 0, BuildingBlock: UXUYUI_clean_sbu_0, # of connection points: 4
#     Node 9, Type 0, BuildingBlock: UXUYUI_clean_sbu_0, # of connection points: 4
#     Node 10, Type 0, BuildingBlock: UXUYUI_clean_sbu_0, # of connection points: 4
#     Node 11, Type 0, BuildingBlock: UXUYUI_clean_sbu_0, # of connection points: 4
#     Node 12, Type 0, BuildingBlock: UXUYUI_clean_sbu_0, # of connection points: 4
#     Node 13, Type 0, BuildingBlock: UXUYUI_clean_sbu_0, # of connection points: 4
#     Node 14, Type 0, BuildingBlock: UXUYUI_clean_sbu_0, # of connection points: 4
#     Node 15, Type 0, BuildingBlock: UXUYUI_clean_sbu_0, # of connection points: 4
#     Node 16, Type 0, BuildingBlock: UXUYUI_clean_sbu_0, # of connection points: 4
#     Node 17, Type 0, BuildingBlock: UXUYUI_clean_sbu_0, # of connection points: 4
#     Node 18, Type 1, BuildingBlock: NAHDIM_clean_linker_0, # of connection points: 4
#     Node 19, Type 1, BuildingBlock: NAHDIM_clean_linker_0, # of connection points: 4
#     Node 20, Type 1, BuildingBlock: NAHDIM_clean_linker_0, # of connection points: 4
#     Node 21, Type 1, BuildingBlock: NAHDIM_clean_linker_0, # of connection points: 4
#     Node 22, Type 1, BuildingBlock: NAHDIM_clean_linker_0, # of connection points: 4
#     Node 23, Type 1, BuildingBlock: NAHDIM_clean_linker_0, # of connection points: 4
#     Node 24, Type 1, BuildingBlock: NAHDIM_clean_linker_0, # of connection points: 4
#     Node 25, Type 1, BuildingBlock: NAHDIM_clean_linker_0, # of connection points: 4
#     Node 26, Type 1, BuildingBlock: NAHDIM_clean_linker_0, # of connection points: 4
#     Node 27, Type 1, BuildingBlock: NAHDIM_clean_linker_0, # of connection points: 4
#     Node 28, Type 1, BuildingBlock: NAHDIM_clean_linker_0, # of connection points: 4
#     Node 29, Type 1, BuildingBlock: NAHDIM_clean_linker_0, # of connection points: 4
#     Node 30, Type 1, BuildingBlock: NAHDIM_clean_linker_0, # of connection points: 4
#     Node 31, Type 1, BuildingBlock: NAHDIM_clean_linker_0, # of connection points: 4
#     Node 32, Type 1, BuildingBlock: NAHDIM_clean_linker_0, # of connection points: 4
#     Node 33, Type 1, BuildingBlock: NAHDIM_clean_linker_0, # of connection points: 4
#     Node 34, Type 1, BuildingBlock: NAHDIM_clean_linker_0, # of connection points: 4
#     Node 35, Type 1, BuildingBlock: NAHDIM_clean_linker_0, # of connection points: 4
#     Edge 36, Type (0, 1), BuildingBlock: ZUJKAS_clean_linker_0, # of connection points: 2
#     Edge 37, Type (0, 1), BuildingBlock: ZUJKAS_clean_linker_0, # of connection points: 2
#     Edge 38, Type (0, 1), BuildingBlock: ZUJKAS_clean_linker_0, # of connection points: 2
#     Edge 39, Type (0, 1), BuildingBlock: ZUJKAS_clean_linker_0, # of connection points: 2
#     Edge 40, Type (0, 1), BuildingBlock: ZUJKAS_clean_linker_0, # of connection points: 2
#     Edge 41, Type (0, 1), BuildingBlock: ZUJKAS_clean_linker_0, # of connection points: 2
#     Edge 42, Type (0, 1), BuildingBlock: ZUJKAS_clean_linker_0, # of connection points: 2
#     Edge 43, Type (0, 1), BuildingBlock: ZUJKAS_clean_linker_0, # of connection points: 2
#     Edge 44, Type (0, 1), BuildingBlock: ZUJKAS_clean_linker_0, # of connection points: 2
#     Edge 45, Type (0, 1), BuildingBlock: ZUJKAS_clean_linker_0, # of connection points: 2
#     Edge 46, Type (0, 1), BuildingBlock: ZUJKAS_clean_linker_0, # of connection points: 2
#     Edge 47, Type (0, 1), BuildingBlock: ZUJKAS_clean_linker_0, # of connection points: 2
#     Edge 48, Type (0, 1), BuildingBlock: ZUJKAS_clean_linker_0, # of connection points: 2
#     Edge 49, Type (0, 1), BuildingBlock: ZUJKAS_clean_linker_0, # of connection points: 2
#     Edge 50, Type (0, 1), BuildingBlock: ZUJKAS_clean_linker_0, # of connection points: 2
#     Edge 51, Type (0, 1), BuildingBlock: ZUJKAS_clean_linker_0, # of connection points: 2
#     Edge 52, Type (0, 1), BuildingBlock: ZUJKAS_clean_linker_0, # of connection points: 2
#     Edge 53, Type (0, 1), BuildingBlock: ZUJKAS_clean_linker_0, # of connection points: 2
#     Edge 54, Type (0, 1), BuildingBlock: ZUJKAS_clean_linker_0, # of connection points: 2
#     Edge 55, Type (0, 1), BuildingBlock: ZUJKAS_clean_linker_0, # of connection points: 2
#     Edge 56, Type (0, 1), BuildingBlock: ZUJKAS_clean_linker_0, # of connection points: 2
#     Edge 57, Type (0, 1), BuildingBlock: ZUJKAS_clean_linker_0, # of connection points: 2
#     Edge 58, Type (0, 1), BuildingBlock: ZUJKAS_clean_linker_0, # of connection points: 2
#     Edge 59, Type (0, 1), BuildingBlock: ZUJKAS_clean_linker_0, # of connection points: 2
#     Edge 60, Type (0, 1), BuildingBlock: ZUJKAS_clean_linker_0, # of connection points: 2
#     Edge 61, Type (0, 1), BuildingBlock: ZUJKAS_clean_linker_0, # of connection points: 2
#     Edge 62, Type (0, 1), BuildingBlock: ZUJKAS_clean_linker_0, # of connection points: 2
#     Edge 63, Type (0, 1), BuildingBlock: ZUJKAS_clean_linker_0, # of connection points: 2
#     Edge 64, Type (0, 1), BuildingBlock: ZUJKAS_clean_linker_0, # of connection points: 2
#     Edge 65, Type (0, 1), BuildingBlock: ZUJKAS_clean_linker_0, # of connection points: 2
#     Edge 66, Type (0, 1), BuildingBlock: ZUJKAS_clean_linker_0, # of connection points: 2
#     Edge 67, Type (0, 1), BuildingBlock: ZUJKAS_clean_linker_0, # of connection points: 2
#     Edge 68, Type (0, 1), BuildingBlock: ZUJKAS_clean_linker_0, # of connection points: 2
#     Edge 69, Type (0, 1), BuildingBlock: ZUJKAS_clean_linker_0, # of connection points: 2
#     Edge 70, Type (0, 1), BuildingBlock: ZUJKAS_clean_linker_0, # of connection points: 2
#     Edge 71, Type (0, 1), BuildingBlock: ZUJKAS_clean_linker_0, # of connection points: 2
#     Edge 72, Type (0, 1), BuildingBlock: ZUJKAS_clean_linker_0, # of connection points: 2
#     Edge 73, Type (0, 1), BuildingBlock: ZUJKAS_clean_linker_0, # of connection points: 2
#     Edge 74, Type (0, 1), BuildingBlock: ZUJKAS_clean_linker_0, # of connection points: 2
#     Edge 75, Type (0, 1), BuildingBlock: ZUJKAS_clean_linker_0, # of connection points: 2
#     Edge 76, Type (0, 1), BuildingBlock: ZUJKAS_clean_linker_0, # of connection points: 2
#     Edge 77, Type (0, 1), BuildingBlock: ZUJKAS_clean_linker_0, # of connection points: 2
#     Edge 78, Type (0, 1), BuildingBlock: ZUJKAS_clean_linker_0, # of connection points: 2
#     Edge 79, Type (0, 1), BuildingBlock: ZUJKAS_clean_linker_0, # of connection points: 2
#     Edge 80, Type (0, 1), BuildingBlock: ZUJKAS_clean_linker_0, # of connection points: 2
#     Edge 81, Type (0, 1), BuildingBlock: ZUJKAS_clean_linker_0, # of connection points: 2
#     Edge 82, Type (0, 1), BuildingBlock: ZUJKAS_clean_linker_0, # of connection points: 2
#     Edge 83, Type (0, 1), BuildingBlock: ZUJKAS_clean_linker_0, # of connection points: 2
#     Edge 84, Type (0, 1), BuildingBlock: ZUJKAS_clean_linker_0, # of connection points: 2
#     Edge 85, Type (0, 1), BuildingBlock: ZUJKAS_clean_linker_0, # of connection points: 2
#     Edge 86, Type (0, 1), BuildingBlock: ZUJKAS_clean_linker_0, # of connection points: 2
#     Edge 87, Type (0, 1), BuildingBlock: ZUJKAS_clean_linker_0, # of connection points: 2
#     Edge 88, Type (0, 1), BuildingBlock: ZUJKAS_clean_linker_0, # of connection points: 2
#     Edge 89, Type (0, 1), BuildingBlock: ZUJKAS_clean_linker_0, # of connection points: 2
#     Edge 90, Type (0, 1), BuildingBlock: ZUJKAS_clean_linker_0, # of connection points: 2
#     Edge 91, Type (0, 1), BuildingBlock: ZUJKAS_clean_linker_0, # of connection points: 2
#     Edge 92, Type (0, 1), BuildingBlock: ZUJKAS_clean_linker_0, # of connection points: 2
#     Edge 93, Type (0, 1), BuildingBlock: ZUJKAS_clean_linker_0, # of connection points: 2
#     Edge 94, Type (0, 1), BuildingBlock: ZUJKAS_clean_linker_0, # of connection points: 2
#     Edge 95, Type (0, 1), BuildingBlock: ZUJKAS_clean_linker_0, # of connection points: 2
#     Edge 96, Type (0, 1), BuildingBlock: ZUJKAS_clean_linker_0, # of connection points: 2
#     Edge 97, Type (0, 1), BuildingBlock: ZUJKAS_clean_linker_0, # of connection points: 2
#     Edge 98, Type (0, 1), BuildingBlock: ZUJKAS_clean_linker_0, # of connection points: 2
#     Edge 99, Type (0, 1), BuildingBlock: ZUJKAS_clean_linker_0, # of connection points: 2
#     Edge 100, Type (0, 1), BuildingBlock: ZUJKAS_clean_linker_0, # of connection points: 2
#     Edge 101, Type (0, 1), BuildingBlock: ZUJKAS_clean_linker_0, # of connection points: 2
#     Edge 102, Type (0, 1), BuildingBlock: ZUJKAS_clean_linker_0, # of connection points: 2
#     Edge 103, Type (0, 1), BuildingBlock: ZUJKAS_clean_linker_0, # of connection points: 2
#     Edge 104, Type (0, 1), BuildingBlock: ZUJKAS_clean_linker_0, # of connection points: 2
#     Edge 105, Type (0, 1), BuildingBlock: ZUJKAS_clean_linker_0, # of connection points: 2
#     Edge 106, Type (0, 1), BuildingBlock: ZUJKAS_clean_linker_0, # of connection points: 2
#     Edge 107, Type (0, 1), BuildingBlock: ZUJKAS_clean_linker_0, # of connection points: 2
# Relax obj value: 0.120
# Max RMSD: 0.337
# Mean RMSD: 0.137
data_MOF--net-ptr--node1-UXUYUI_clean_sbu_0--node2-NAHDIM_clean_linker_0--edge1-ZUJKAS_clean_linker_0
_symmetry_space_group_name_H-M    P1
_symmetry_Int_Tables_number       1
_symmetry_cell_setting            triclinic
loop_
_symmetry_equiv_pos_as_xyz
'x, y, z'
_cell_length_a     131.11362
_cell_length_b     130.86165
_cell_length_c     107.55915
_cell_angle_alpha  90.772811
_cell_angle_beta   90.175536
_cell_angle_gamma 120.44068
loop_
_atom_site_label
_atom_site_type_symbol
_atom_site_fract_x
_atom_site_fract_y
_atom_site_fract_z
_atom_type_partial_charge
Li0 Li 0.99579 0.33257 0.99972 0.0
Li1 Li 0.01507 0.34309 0.0102 0.0
Li2 Li 0.99931 0.34825 0.01471 0.0
Li3 Li 0.01006 0.35405 0.99513 0.0
C4 C 0.99206 0.32248 0.02281 0.0
N5 N 0.97747 0.30041 0.03275 0.0
C6 C 0.99637 0.31484 0.02505 0.0
C7 C 0.9804 0.31898 0.02586 0.0
C8 C 0.98883 0.30369 0.03001 0.0
C9 C 0.97314 0.30777 0.03081 0.0
C10 C 0.02028 0.33948 0.98528 0.0
C11 C 0.03946 0.34925 0.97568 0.0
N12 N 0.03754 0.33857 0.97145 0.0
C13 C 0.01843 0.32862 0.98068 0.0
C14 C 0.03082 0.34989 0.98264 0.0
C15 C 0.02729 0.32833 0.97377 0.0
C16 C 0.97598 0.31623 0.98488 0.0
N17 N 0.98492 0.31759 0.99245 0.0
C18 C 0.98008 0.29765 0.98827 0.0
C19 C 0.98708 0.3086 0.99421 0.0
C20 C 0.9709 0.296 0.98019 0.0
C21 C 0.9688 0.30544 0.97864 0.0
H22 H 0.97467 0.32364 0.98336 0.0
H23 H 0.99448 0.31003 0.99994 0.0
C24 C 0.03212 0.34675 0.02841 0.0
N25 N 0.02683 0.34071 0.0177 0.0
C26 C 0.03954 0.34402 0.03514 0.0
C27 C 0.03612 0.32911 0.01955 0.0
C28 C 0.02874 0.33209 0.01316 0.0
C29 C 0.04145 0.33495 0.03082 0.0
H30 H 0.03025 0.3534 0.03194 0.0
H31 H 0.02405 0.32708 0.00493 0.0
C32 C 0.98294 0.34702 0.99791 0.0
N33 N 0.96335 0.34968 0.99884 0.0
C34 C 0.98352 0.35722 0.99327 0.0
C35 C 0.97235 0.33809 0.00283 0.0
C36 C 0.97353 0.35843 0.99388 0.0
C37 C 0.96255 0.33962 0.00327 0.0
C38 C 0.02679 0.36962 0.01339 0.0
C39 C 0.02656 0.37943 0.01835 0.0
C40 C 0.03758 0.37077 0.00993 0.0
C41 C 0.0371 0.39031 0.01946 0.0
C42 C 0.04794 0.38179 0.01119 0.0
N43 N 0.04748 0.39126 0.01587 0.0
C44 C 0.99071 0.34948 0.03862 0.0
C45 C 0.99306 0.36415 0.02437 0.0
C46 C 0.98799 0.35508 0.04812 0.0
N47 N 0.9933 0.35417 0.02708 0.0
C48 C 0.99032 0.36998 0.03352 0.0
C49 C 0.98804 0.36564 0.04568 0.0
H50 H 0.99128 0.3417 0.0406 0.0
H51 H 0.99554 0.36791 0.01523 0.0
C52 C 0.0155 0.3631 0.97069 0.0
N53 N 0.01511 0.36586 0.98284 0.0
C54 C 0.01718 0.37121 0.96145 0.0
C55 C 0.01833 0.38491 0.97746 0.0
C56 C 0.01662 0.37656 0.98636 0.0
C57 C 0.0183 0.38216 0.96479 0.0
H58 H 0.01393 0.3544 0.96813 0.0
H59 H 0.0158 0.37835 0.99601 0.0
O60 O 0.99931 0.33342 0.01795 0.0
O61 O 0.01166 0.33989 0.99201 0.0
O62 O 0.99265 0.34572 0.99746 0.0
O63 O 0.01654 0.35888 0.01234 0.0
H64 H 0.00541 0.31744 0.02288 0.0
H65 H 0.97702 0.3249 0.02452 0.0
H66 H 0.99203 0.29766 0.03168 0.0
H67 H 0.96409 0.30494 0.03316 0.0
H68 H 0.04767 0.35725 0.9736 0.0
H69 H 0.01027 0.32048 0.98249 0.0
H70 H 0.03225 0.35841 0.98577 0.0
H71 H 0.02601 0.31998 0.97023 0.0
H72 H 0.98197 0.29062 0.98986 0.0
H73 H 0.96197 0.30466 0.97234 0.0
H74 H 0.04351 0.34877 0.04378 0.0
H75 H 0.03713 0.32189 0.01603 0.0
H76 H 0.9916 0.36417 0.98931 0.0
H77 H 0.97167 0.33002 0.00618 0.0
H78 H 0.97388 0.36631 0.9904 0.0
H79 H 0.95431 0.33278 0.0071 0.0
H80 H 0.01832 0.37868 0.02125 0.0
H81 H 0.038 0.36321 0.00646 0.0
H82 H 0.03704 0.39799 0.02319 0.0
H83 H 0.05634 0.3828 0.00852 0.0
H84 H 0.98648 0.35152 0.0574 0.0
H85 H 0.99035 0.37802 0.03119 0.0
H86 H 0.01692 0.36866 0.95178 0.0
H87 H 0.01921 0.39326 0.98045 0.0
Li88 Li 0.66677 0.65573 0.00808 0.0
Li89 Li 0.65835 0.66532 0.02069 0.0
Li90 Li 0.65134 0.64346 0.02315 0.0
Li91 Li 0.64572 0.65057 0.00499 0.0
C92 C 0.67776 0.65999 0.03163 0.0
N93 N 0.69911 0.66489 0.04209 0.0
C94 C 0.68693 0.67172 0.03328 0.0
C95 C 0.67937 0.65077 0.03561 0.0
C96 C 0.69768 0.67401 0.03849 0.0
C97 C 0.69025 0.65342 0.04079 0.0
C98 C 0.66273 0.67659 0.99809 0.0
C99 C 0.6573 0.69158 0.9962 0.0
N100 N 0.66746 0.6985 0.98993 0.0
C101 C 0.67308 0.68381 0.99155 0.0
C102 C 0.65474 0.68048 0.00037 0.0
C103 C 0.67533 0.69487 0.98752 0.0
C104 C 0.68214 0.65161 0.99233 0.0
N105 N 0.68118 0.65931 0.00018 0.0
C106 C 0.70126 0.6742 0.99656 0.0
C107 C 0.69043 0.67044 0.00228 0.0
C108 C 0.70261 0.66643 0.98852 0.0
C109 C 0.69286 0.65497 0.98645 0.0
H110 H 0.67457 0.64294 0.99044 0.0
H111 H 0.68928 0.67655 0.00813 0.0
C112 C 0.65598 0.67978 0.03902 0.0
N113 N 0.66252 0.67974 0.02927 0.0
C114 C 0.65948 0.69025 0.04582 0.0
C115 C 0.67626 0.70041 0.03227 0.0
C116 C 0.67248 0.68977 0.02581 0.0
C117 C 0.66983 0.70074 0.04254 0.0
H118 H 0.64818 0.67163 0.04168 0.0
H119 H 0.67765 0.68947 0.01816 0.0
C120 C 0.65251 0.62949 0.00384 0.0
N121 N 0.65263 0.6085 0.00131 0.0
C122 C 0.64366 0.62003 0.99686 0.0
C123 C 0.66149 0.6283 0.00939 0.0
C124 C 0.64385 0.60948 0.99573 0.0
C125 C 0.66139 0.61762 0.00804 0.0
C126 C 0.6304 0.64867 0.02284 0.0
C127 C 0.62152 0.63679 0.0237 0.0
C128 C 0.62732 0.65743 0.02216 0.0
C129 C 0.60968 0.63383 0.02355 0.0
C130 C 0.61538 0.65412 0.02205 0.0
N131 N 0.60688 0.64249 0.02272 0.0
C132 C 0.64964 0.63349 0.0467 0.0
C133 C 0.63755 0.61972 0.031 0.0
C134 C 0.64524 0.62456 0.05555 0.0
N135 N 0.64577 0.63091 0.0347 0.0
C136 C 0.63289 0.61054 0.03953 0.0
C137 C 0.63666 0.61292 0.05201 0.0
H138 H 0.65603 0.64251 0.04943 0.0
H139 H 0.6344 0.61794 0.02148 0.0
C140 C 0.63331 0.6533 0.9845 0.0
N141 N 0.63321 0.64576 0.99313 0.0
C142 C 0.62427 0.6493 0.97557 0.0
C143 C 0.61524 0.62983 0.98453 0.0
C144 C 0.6244 0.63424 0.99332 0.0
C145 C 0.61511 0.63738 0.97543 0.0
H146 H 0.64049 0.66237 0.98436 0.0
H147 H 0.6246 0.62839 0.00019 0.0
O148 O 0.66715 0.65758 0.02658 0.0
O149 O 0.6605 0.66584 0.00233 0.0
O150 O 0.65232 0.6398 0.00528 0.0
O151 O 0.64205 0.65172 0.02287 0.0
H152 H 0.68581 0.67899 0.0305 0.0
H153 H 0.67229 0.64165 0.03484 0.0
H154 H 0.70487 0.68305 0.03969 0.0
H155 H 0.69161 0.64635 0.04384 0.0
H156 H 0.65121 0.69471 0.99795 0.0
H157 H 0.6793 0.68091 0.98956 0.0
H158 H 0.64666 0.67497 0.00531 0.0
H159 H 0.68332 0.70056 0.98248 0.0
H160 H 0.70838 0.68322 0.99817 0.0
H161 H 0.69348 0.64867 0.98034 0.0
H162 H 0.65433 0.69004 0.05377 0.0
H163 H 0.68419 0.70829 0.02927 0.0
H164 H 0.63671 0.62081 0.99237 0.0
H165 H 0.66855 0.63561 0.01452 0.0
H166 H 0.63703 0.60208 0.99041 0.0
H167 H 0.66829 0.61659 0.01231 0.0
H168 H 0.62373 0.6299 0.02434 0.0
H169 H 0.63407 0.66669 0.02182 0.0
H170 H 0.60271 0.62466 0.02409 0.0
H171 H 0.61288 0.66081 0.02148 0.0
H172 H 0.64827 0.62683 0.0651 0.0
H173 H 0.62636 0.60169 0.03638 0.0
H174 H 0.62449 0.65549 0.96884 0.0
H175 H 0.60853 0.62053 0.98468 0.0
Li176 Li 0.34964 0.99603 0.99701 0.0
Li177 Li 0.35517 0.00641 0.01726 0.0
Li178 Li 0.33378 0.99209 0.01172 0.0
Li179 Li 0.34416 0.01151 0.00232 0.0
C180 C 0.34816 0.97922 0.01401 0.0
N181 N 0.3505 0.95939 0.01431 0.0
C182 C 0.35821 0.97985 0.01936 0.0
C183 C 0.33922 0.96844 0.00903 0.0
C184 C 0.35925 0.96975 0.01936 0.0
C185 C 0.34059 0.95853 0.00921 0.0
C186 C 0.37128 0.02286 4e-05 0.0
C187 C 0.38521 0.04359 0.004 0.0
N188 N 0.39398 0.04216 0.99911 0.0
C189 C 0.3804 0.02164 0.9949 0.0
C190 C 0.37368 0.03395 0.0045 0.0
C191 C 0.39183 0.03149 0.99458 0.0
C192 C 0.35222 0.98994 0.9723 0.0
N193 N 0.35573 0.99043 0.98431 0.0
C194 C 0.37077 0.98634 0.97804 0.0
C195 C 0.36471 0.98856 0.98732 0.0
C196 C 0.36768 0.98623 0.9655 0.0
C197 C 0.35807 0.98777 0.96269 0.0
H198 H 0.34526 0.99179 0.97015 0.0
H199 H 0.36764 0.98946 0.99686 0.0
C200 C 0.36379 0.01179 0.04208 0.0
N201 N 0.36682 0.01136 0.03009 0.0
C202 C 0.37175 0.01377 0.05176 0.0
C203 C 0.38586 0.01504 0.03654 0.0
C204 C 0.37763 0.01302 0.02718 0.0
C205 C 0.38287 0.01518 0.04904 0.0
H206 H 0.35501 0.01011 0.04416 0.0
H207 H 0.37966 0.01219 0.01764 0.0
C208 C 0.32434 0.98748 0.98803 0.0
N209 N 0.30353 0.97052 0.97665 0.0
C210 C 0.31533 0.98993 0.98555 0.0
C211 C 0.32286 0.97649 0.98448 0.0
C212 C 0.30485 0.98121 0.97987 0.0
C213 C 0.31226 0.96801 0.9788 0.0
C214 C 0.34049 0.01685 0.02634 0.0
C215 C 0.32956 0.01556 0.02949 0.0
C216 C 0.3509 0.0273 0.02964 0.0
C217 C 0.32924 0.02488 0.03559 0.0
C218 C 0.35022 0.03641 0.03575 0.0
N219 N 0.33949 0.03504 0.03855 0.0
C220 C 0.31697 0.97192 0.02543 0.0
C221 C 0.31004 0.98371 0.01637 0.0
C222 C 0.30604 0.96485 0.0311 0.0
N223 N 0.31874 0.98114 0.01826 0.0
C224 C 0.29903 0.97692 0.02184 0.0
C225 C 0.29696 0.96746 0.02948 0.0
H226 H 0.32415 0.97027 0.0271 0.0
H227 H 0.31179 0.99129 0.01092 0.0
C228 C 0.34913 0.03173 0.98793 0.0
N229 N 0.34139 0.0233 0.99574 0.0
C230 C 0.34631 0.03964 0.98247 0.0
C231 C 0.32759 0.02994 0.99309 0.0
C232 C 0.33078 0.02227 0.99836 0.0
C233 C 0.33536 0.03874 0.98495 0.0
H234 H 0.35736 0.03215 0.98571 0.0
H235 H 0.32461 0.0152 0.00421 0.0
O236 O 0.34701 0.98905 0.01392 0.0
O237 O 0.36002 0.0133 0.00039 0.0
O238 O 0.33465 0.99589 0.99366 0.0
O239 O 0.34097 0.00781 0.02034 0.0
H240 H 0.36516 0.98808 0.0234 0.0
H241 H 0.33124 0.96769 0.00519 0.0
H242 H 0.36702 0.97014 0.02338 0.0
H243 H 0.33374 0.95014 0.00535 0.0
H244 H 0.38719 0.05221 0.00744 0.0
H245 H 0.3787 0.01318 0.99127 0.0
H246 H 0.36668 0.03516 0.00813 0.0
H247 H 0.39898 0.03065 0.99072 0.0
H248 H 0.37808 0.98514 0.98063 0.0
H249 H 0.35551 0.98795 0.95315 0.0
H250 H 0.369 0.0136 0.06127 0.0
H251 H 0.39434 0.01614 0.03401 0.0
H252 H 0.31639 0.99844 0.98806 0.0
H253 H 0.32987 0.97457 0.98598 0.0
H254 H 0.29776 0.98295 0.978 0.0
H255 H 0.31098 0.95945 0.97605 0.0
H256 H 0.32141 0.00747 0.0272 0.0
H257 H 0.35943 0.02832 0.02762 0.0
H258 H 0.32084 0.02404 0.03799 0.0
H259 H 0.35822 0.04456 0.0383 0.0
H260 H 0.30488 0.95774 0.03706 0.0
H261 H 0.29225 0.97918 0.02025 0.0
H262 H 0.35258 0.0463 0.97628 0.0
H263 H 0.31893 0.02868 0.99504 0.0
Li264 Li 0.01139 0.67348 0.01816 0.0
Li265 Li 0.99635 0.65321 0.0227 0.0
Li266 Li 0.00607 0.6586 0.00177 0.0
Li267 Li 0.9915 0.66434 0.00763 0.0
C268 C 0.02421 0.66351 0.02333 0.0
N269 N 0.04655 0.67238 0.03356 0.0
C270 C 0.02558 0.66224 0.036 0.0
C271 C 0.03419 0.66914 0.01583 0.0
C272 C 0.03695 0.66683 0.04102 0.0
C273 C 0.04541 0.67361 0.02118 0.0
C274 C 0.98777 0.66628 0.0349 0.0
C275 C 0.96779 0.65881 0.04189 0.0
N276 N 0.97201 0.66327 0.05348 0.0
C277 C 0.99191 0.67094 0.04684 0.0
C278 C 0.97562 0.66029 0.03237 0.0
C279 C 0.9838 0.66926 0.05612 0.0
C280 C 0.02881 0.69782 0.01864 0.0
N281 N 0.02343 0.68789 0.02559 0.0
C282 C 0.03311 0.69911 0.04402 0.0
C283 C 0.02553 0.6883 0.03802 0.0
C284 C 0.03852 0.70958 0.03715 0.0
C285 C 0.03648 0.70881 0.02424 0.0
H286 H 0.02677 0.69731 0.00883 0.0
H287 H 0.02099 0.6803 0.04336 0.0
C288 C 0.98569 0.62977 0.03095 0.0
N289 N 0.9908 0.64124 0.03493 0.0
C290 C 0.98279 0.62075 0.03943 0.0
C291 C 0.99052 0.63549 0.05599 0.0
C292 C 0.99317 0.64423 0.04719 0.0
C293 C 0.98542 0.62357 0.05213 0.0
H294 H 0.9842 0.62766 0.02112 0.0
H295 H 0.99764 0.65344 0.05008 0.0
C296 C 0.01227 0.67881 0.98921 0.0
N297 N 0.0219 0.68748 0.96622 0.0
C298 C 0.00524 0.67924 0.97968 0.0
C299 C 0.02425 0.68295 0.9871 0.0
C300 C 0.01026 0.68362 0.96811 0.0
C301 C 0.02894 0.68725 0.9754 0.0
C302 C 0.97802 0.63952 0.00211 0.0
C303 C 0.976 0.63489 0.98998 0.0
C304 C 0.96867 0.63508 0.01051 0.0
C305 C 0.9646 0.62607 0.98638 0.0
C306 C 0.95741 0.62626 0.00656 0.0
N307 N 0.95562 0.62199 0.99466 0.0
C308 C 0.01707 0.64703 0.99067 0.0
C309 C 0.00702 0.65277 0.9766 0.0
C310 C 0.01935 0.64113 0.98112 0.0
N311 N 0.01092 0.65259 0.98827 0.0
C312 C 0.00916 0.64708 0.96678 0.0
C313 C 0.01518 0.64093 0.969 0.0
H314 H 0.01981 0.64676 0.0001 0.0
H315 H 0.0018 0.65689 0.975 0.0
C316 C 0.98071 0.67791 0.00574 0.0
N317 N 0.98017 0.66793 0.00112 0.0
C318 C 0.97376 0.68206 0.00051 0.0
C319 C 0.96562 0.66544 0.98603 0.0
C320 C 0.97279 0.66165 0.99149 0.0
C321 C 0.96621 0.67589 0.9904 0.0
H322 H 0.98679 0.68282 0.01328 0.0
H323 H 0.97279 0.65399 0.98769 0.0
O324 O 0.01316 0.65918 0.01828 0.0
O325 O 0.99562 0.6679 0.02569 0.0
O326 O 0.00749 0.6745 0.00058 0.0
O327 O 0.98914 0.64814 0.00579 0.0
H328 H 0.01795 0.65784 0.04193 0.0
H329 H 0.03328 0.66999 0.00597 0.0
H330 H 0.03813 0.66598 0.05083 0.0
H331 H 0.05322 0.67802 0.01549 0.0
H332 H 0.95837 0.65415 0.04005 0.0
H333 H 0.00128 0.67574 0.04895 0.0
H334 H 0.97226 0.6569 0.02313 0.0
H335 H 0.98689 0.67274 0.06542 0.0
H336 H 0.0345 0.69929 0.05397 0.0
H337 H 0.0403 0.71667 0.01862 0.0
H338 H 0.97876 0.61169 0.03602 0.0
H339 H 0.99293 0.63814 0.06563 0.0
H340 H 0.99598 0.67617 0.98115 0.0
H341 H 0.02986 0.68287 0.99442 0.0
H342 H 0.0049 0.68393 0.96063 0.0
H343 H 0.03818 0.69043 0.97363 0.0
H344 H 0.98313 0.63811 0.98339 0.0
H345 H 0.97013 0.63827 0.02004 0.0
H346 H 0.9629 0.62247 0.97699 0.0
H347 H 0.9501 0.62277 0.01296 0.0
H348 H 0.02385 0.63636 0.98332 0.0
H349 H 0.00589 0.64727 0.95758 0.0
H350 H 0.9744 0.6901 0.00423 0.0
H351 H 0.96007 0.66053 0.97813 0.0
Li352 Li 0.33787 0.34651 0.00779 0.0
Li353 Li 0.35876 0.35196 0.00992 0.0
Li354 Li 0.35246 0.35805 0.99152 0.0
Li355 Li 0.34635 0.33708 0.99404 0.0
C356 C 0.34866 0.371 0.01002 0.0
N357 N 0.34153 0.38755 0.01136 0.0
C358 C 0.35392 0.38036 0.01867 0.0
C359 C 0.33979 0.37007 0.00202 0.0
C360 C 0.35019 0.38863 0.01922 0.0
C361 C 0.33631 0.37852 0.00285 0.0
C362 C 0.34183 0.32881 0.02176 0.0
C363 C 0.34076 0.31143 0.03054 0.0
N364 N 0.33624 0.31325 0.04115 0.0
C365 C 0.3371 0.33047 0.03273 0.0
C366 C 0.34361 0.31917 0.02063 0.0
C367 C 0.33437 0.32253 0.04243 0.0
C368 C 0.31459 0.33131 0.0138 0.0
N369 N 0.32364 0.34249 0.0162 0.0
C370 C 0.312 0.34572 0.03106 0.0
C371 C 0.32259 0.34972 0.02465 0.0
C372 C 0.30253 0.33414 0.02885 0.0
C373 C 0.30391 0.32693 0.02004 0.0
H374 H 0.31575 0.32574 0.00712 0.0
H375 H 0.33001 0.35847 0.02664 0.0
C376 C 0.38263 0.36441 0.01808 0.0
N377 N 0.37135 0.35684 0.0217 0.0
C378 C 0.39199 0.3686 0.02666 0.0
C379 C 0.37793 0.35708 0.04249 0.0
C380 C 0.36887 0.3532 0.03364 0.0
C381 C 0.38967 0.36493 0.03906 0.0
H382 H 0.38435 0.36731 0.00855 0.0
H383 H 0.35985 0.34748 0.0364 0.0
C384 C 0.32862 0.33986 0.97994 0.0
N385 N 0.31259 0.33121 0.96037 0.0
C386 C 0.33136 0.33602 0.96893 0.0
C387 C 0.31773 0.33931 0.981 0.0
C388 C 0.32313 0.33167 0.95914 0.0
C389 C 0.30975 0.33491 0.97099 0.0
C390 C 0.37057 0.34698 0.99082 0.0
C391 C 0.37847 0.3508 0.98093 0.0
C392 C 0.37065 0.33907 0.99936 0.0
C393 C 0.38632 0.34659 0.97972 0.0
C394 C 0.37864 0.33507 0.99784 0.0
N395 N 0.38624 0.33888 0.98813 0.0
C396 C 0.36612 0.38149 0.98353 0.0
C397 C 0.35265 0.36838 0.96821 0.0
C398 C 0.37051 0.3909 0.97527 0.0
N399 N 0.35737 0.3705 0.97988 0.0
C400 C 0.35681 0.37751 0.95963 0.0
C401 C 0.36592 0.38894 0.96309 0.0
H402 H 0.3698 0.38291 0.99284 0.0
H403 H 0.34575 0.3596 0.96549 0.0
C404 C 0.33136 0.31309 0.99031 0.0
N405 N 0.34167 0.32227 0.98614 0.0
C406 C 0.32674 0.3018 0.98503 0.0
C407 C 0.34334 0.30962 0.97105 0.0
C408 C 0.3477 0.32079 0.97669 0.0
C409 C 0.33273 0.29995 0.97525 0.0
H410 H 0.32668 0.3146 0.99771 0.0
H411 H 0.35578 0.32829 0.9734 0.0
O412 O 0.35226 0.36285 0.00942 0.0
O413 O 0.34435 0.33636 0.01205 0.0
O414 O 0.33646 0.344 0.98972 0.0
O415 O 0.36277 0.35095 0.99201 0.0
H416 H 0.36081 0.3812 0.02491 0.0
H417 H 0.33562 0.36292 0.99524 0.0
H418 H 0.35417 0.39592 0.02588 0.0
H419 H 0.32945 0.37791 0.99673 0.0
H420 H 0.34211 0.30395 0.02979 0.0
H421 H 0.33571 0.3379 0.03381 0.0
H422 H 0.34712 0.31764 0.01217 0.0
H423 H 0.33076 0.32375 0.05098 0.0
H424 H 0.31133 0.3515 0.03789 0.0
H425 H 0.29679 0.318 0.01797 0.0
H426 H 0.40092 0.37463 0.02364 0.0
H427 H 0.37572 0.35423 0.05201 0.0
H428 H 0.33981 0.33652 0.96791 0.0
H429 H 0.31549 0.34228 0.98944 0.0
H430 H 0.32514 0.32868 0.95056 0.0
H431 H 0.3013 0.33445 0.97167 0.0
H432 H 0.3785 0.35692 0.97423 0.0
H433 H 0.36467 0.33611 0.00711 0.0
H434 H 0.39248 0.34945 0.97209 0.0
H435 H 0.3788 0.32895 0.00439 0.0
H436 H 0.37762 0.39954 0.97828 0.0
H437 H 0.35293 0.37563 0.95038 0.0
H438 H 0.31843 0.29465 0.9884 0.0
H439 H 0.34822 0.30855 0.96355 0.0
Li440 Li 0.66263 0.99097 0.01417 0.0
Li441 Li 0.6578 0.0059 0.02088 0.0
Li442 Li 0.65193 0.99683 1e-05 0.0
Li443 Li 0.67258 0.01087 0.00477 0.0
C444 C 0.63814 0.97726 0.0145 0.0
N445 N 0.62089 0.95382 0.01056 0.0
C446 C 0.62793 0.97213 0.02171 0.0
C447 C 0.63958 0.97047 0.00529 0.0
C448 C 0.61931 0.96027 0.01958 0.0
C449 C 0.63075 0.95863 0.00344 0.0
C450 C 0.67998 0.01436 0.03142 0.0
C451 C 0.69213 0.03439 0.0392 0.0
N452 N 0.69349 0.03013 0.05016 0.0
C453 C 0.68159 0.01017 0.04271 0.0
C454 C 0.68536 0.02655 0.02959 0.0
C455 C 0.68842 0.01829 0.05209 0.0
C456 C 0.67447 0.97836 0.01445 0.0
N457 N 0.66542 0.979 0.01973 0.0
C458 C 0.6625 0.96432 0.03447 0.0
C459 C 0.65933 0.97212 0.02945 0.0
C460 C 0.67211 0.96373 0.0295 0.0
C461 C 0.67797 0.97072 0.01919 0.0
H462 H 0.67927 0.98412 0.00686 0.0
H463 H 0.65226 0.97295 0.03355 0.0
C464 C 0.64651 0.01685 0.03255 0.0
N465 N 0.65242 0.01099 0.03467 0.0
C466 C 0.64103 0.01928 0.04232 0.0
C467 C 0.64789 0.00966 0.05629 0.0
C468 C 0.65323 0.0074 0.04624 0.0
C469 C 0.64151 0.01549 0.05436 0.0
H470 H 0.64562 0.0192 0.02317 0.0
H471 H 0.65762 0.00239 0.04759 0.0
C472 C 0.66823 0.99513 0.98406 0.0
N473 N 0.67323 0.99532 0.95911 0.0
C474 C 0.66937 0.00427 0.97657 0.0
C475 C 0.66965 0.98608 0.97888 0.0
C476 C 0.6719 0.00422 0.96397 0.0
C477 C 0.67216 0.98633 0.96624 0.0
C478 C 0.66127 0.02435 0.00071 0.0
C479 C 0.65826 0.02537 0.98849 0.0
C480 C 0.66634 0.03431 0.00862 0.0
C481 C 0.6606 0.03641 0.98432 0.0
C482 C 0.66854 0.04519 0.0041 0.0
N483 N 0.66567 0.04601 0.99214 0.0
C484 C 0.63222 0.99605 0.99004 0.0
C485 C 0.63869 0.98534 0.97765 0.0
C486 C 0.62344 0.99392 0.98134 0.0
N487 N 0.63975 0.99197 0.98794 0.0
C488 C 0.63006 0.98304 0.96864 0.0
C489 C 0.62242 0.98755 0.97033 0.0
H490 H 0.63323 0.0012 0.99839 0.0
H491 H 0.64467 0.98203 0.97629 0.0
C492 C 0.69538 0.01809 0.99852 0.0
N493 N 0.6875 0.02192 0.99794 0.0
C494 C 0.70635 0.02444 0.99284 0.0
C495 C 0.7011 0.0388 0.98631 0.0
C496 C 0.69016 0.03211 0.99209 0.0
C497 C 0.70927 0.03486 0.98648 0.0
H498 H 0.69298 0.00991 0.00317 0.0
H499 H 0.68375 0.03493 0.99156 0.0
O500 O 0.64661 0.98888 0.01651 0.0
O501 O 0.67327 0.00652 0.02217 0.0
O502 O 0.66576 0.99497 0.99642 0.0
O503 O 0.65896 0.01359 0.00497 0.0
H504 H 0.62669 0.97728 0.02887 0.0
H505 H 0.64741 0.97425 0.99962 0.0
H506 H 0.61137 0.95618 0.02509 0.0
H507 H 0.63175 0.95328 0.99635 0.0
H508 H 0.69632 0.04385 0.03793 0.0
H509 H 0.67754 0.00074 0.04421 0.0
H510 H 0.68437 0.02993 0.02084 0.0
H511 H 0.68968 0.01519 0.06091 0.0
H512 H 0.65767 0.95901 0.04233 0.0
H513 H 0.68554 0.97072 0.01519 0.0
H514 H 0.63601 0.02357 0.04034 0.0
H515 H 0.64853 0.00662 0.06542 0.0
H516 H 0.66833 0.01134 0.98044 0.0
H517 H 0.66877 0.97892 0.98457 0.0
H518 H 0.67281 0.01125 0.95807 0.0
H519 H 0.67325 0.97937 0.96209 0.0
H520 H 0.65414 0.01773 0.98228 0.0
H521 H 0.66851 0.03364 0.01817 0.0
H522 H 0.65837 0.03734 0.97487 0.0
H523 H 0.67251 0.05298 0.0101 0.0
H524 H 0.6176 0.99734 0.98316 0.0
H525 H 0.62964 0.97814 0.96028 0.0
H526 H 0.71246 0.02118 0.99335 0.0
H527 H 0.70297 0.04673 0.98142 0.0
Li528 Li 0.65938 0.67215 0.3358 0.0
Li529 Li 0.67749 0.68009 0.34822 0.0
Li530 Li 0.66318 0.68655 0.352 0.0
Li531 Li 0.67548 0.69262 0.33352 0.0
C532 C 0.65536 0.66712 0.36483 0.0
N533 N 0.64438 0.6613 0.38764 0.0
C534 C 0.66175 0.66767 0.3755 0.0
C535 C 0.64338 0.66355 0.36575 0.0
C536 C 0.65603 0.66469 0.38695 0.0
C537 C 0.638 0.66068 0.37737 0.0
C538 C 0.68237 0.67298 0.32742 0.0
C539 C 0.70146 0.67466 0.32516 0.0
N540 N 0.69605 0.66269 0.32363 0.0
C541 C 0.677 0.66071 0.32577 0.0
C542 C 0.6947 0.68004 0.32706 0.0
C543 C 0.68407 0.65567 0.32388 0.0
C544 C 0.64798 0.65781 0.31454 0.0
N545 N 0.64793 0.65823 0.32718 0.0
C546 C 0.63312 0.63773 0.32785 0.0
C547 C 0.64064 0.64851 0.33387 0.0
C548 C 0.63314 0.63694 0.31481 0.0
C549 C 0.64053 0.64721 0.30812 0.0
H550 H 0.65409 0.6656 0.30948 0.0
H551 H 0.64096 0.64902 0.34391 0.0
C552 C 0.69835 0.68354 0.36074 0.0
N553 N 0.68755 0.67552 0.35595 0.0
C554 C 0.70516 0.67967 0.36691 0.0
C555 C 0.68961 0.65942 0.36296 0.0
C556 C 0.68313 0.66367 0.3569 0.0
C557 C 0.70073 0.66745 0.3682 0.0
H558 H 0.70158 0.69291 0.35997 0.0
H559 H 0.67447 0.65751 0.35307 0.0
C560 C 0.64934 0.68313 0.32626 0.0
N561 N 0.63125 0.67504 0.30885 0.0
C562 C 0.65187 0.6865 0.31386 0.0
C563 C 0.63762 0.6757 0.32982 0.0
C564 C 0.64259 0.68231 0.3052 0.0
C565 C 0.6286 0.67168 0.32087 0.0
C566 C 0.68873 0.70809 0.35099 0.0
C567 C 0.68569 0.71632 0.3553 0.0
C568 C 0.69994 0.71206 0.34604 0.0
C569 C 0.69392 0.72842 0.35447 0.0
C570 C 0.70791 0.72423 0.34535 0.0
N571 N 0.70476 0.73209 0.34954 0.0
C572 C 0.66079 0.69361 0.3762 0.0
C573 C 0.64756 0.69376 0.36122 0.0
C574 C 0.65609 0.69753 0.38547 0.0
N575 N 0.6564 0.69171 0.3644 0.0
C576 C 0.6427 0.69783 0.37017 0.0
C577 C 0.64696 0.69974 0.38248 0.0
H578 H 0.66801 0.69217 0.37838 0.0
H579 H 0.64435 0.69233 0.35173 0.0
C580 C 0.6895 0.70433 0.31251 0.0
N581 N 0.68312 0.70511 0.32203 0.0
C582 C 0.6944 0.71323 0.30365 0.0
C583 C 0.68619 0.72358 0.31468 0.0
C584 C 0.68135 0.71444 0.32323 0.0
C585 C 0.6927 0.723 0.30462 0.0
H586 H 0.69053 0.69667 0.31163 0.0
H587 H 0.67603 0.71469 0.33076 0.0
O588 O 0.66084 0.67018 0.35356 0.0
O589 O 0.67563 0.67806 0.32956 0.0
O590 O 0.65831 0.68697 0.33486 0.0
O591 O 0.68074 0.69622 0.35156 0.0
H592 H 0.67104 0.6705 0.375 0.0
H593 H 0.63833 0.66315 0.3576 0.0
H594 H 0.66087 0.66513 0.3953 0.0
H595 H 0.62876 0.65798 0.37823 0.0
H596 H 0.711 0.68 0.32494 0.0
H597 H 0.66748 0.6551 0.3261 0.0
H598 H 0.69899 0.68955 0.32836 0.0
H599 H 0.68004 0.64618 0.32265 0.0
H600 H 0.6275 0.63004 0.33334 0.0
H601 H 0.64093 0.64694 0.29808 0.0
H602 H 0.71363 0.68616 0.37093 0.0
H603 H 0.68593 0.64993 0.36358 0.0
H604 H 0.66089 0.6922 0.31093 0.0
H605 H 0.63552 0.67297 0.33937 0.0
H606 H 0.64441 0.6848 0.29556 0.0
H607 H 0.61949 0.66587 0.32348 0.0
H608 H 0.67705 0.71341 0.35913 0.0
H609 H 0.70241 0.70581 0.34263 0.0
H610 H 0.69168 0.73489 0.35771 0.0
H611 H 0.71659 0.72743 0.34146 0.0
H612 H 0.65973 0.69907 0.39482 0.0
H613 H 0.63564 0.69941 0.36751 0.0
H614 H 0.69916 0.71227 0.29594 0.0
H615 H 0.68477 0.73099 0.31593 0.0
Li616 Li 0.30393 0.98021 0.34193 0.0
Li617 Li 0.30858 0.97329 0.36034 0.0
Li618 Li 0.31614 0.99526 0.35699 0.0
Li619 Li 0.32354 0.98406 0.34421 0.0
C620 C 0.28817 0.97821 0.36027 0.0
N621 N 0.26437 0.97053 0.36208 0.0
C622 C 0.27977 0.96626 0.35823 0.0
C623 C 0.2845 0.98625 0.36331 0.0
C624 C 0.26777 0.96255 0.35915 0.0
C625 C 0.27241 0.98219 0.36416 0.0
C626 C 0.31172 0.95955 0.34292 0.0
C627 C 0.32371 0.95171 0.35041 0.0
N628 N 0.31745 0.94192 0.34302 0.0
C629 C 0.30541 0.94942 0.3354 0.0
C630 C 0.32095 0.96071 0.35049 0.0
C631 C 0.30843 0.9406 0.33558 0.0
C632 C 0.29219 0.96892 0.31998 0.0
N633 N 0.29181 0.97566 0.32948 0.0
C634 C 0.27464 0.97476 0.32054 0.0
C635 C 0.28341 0.97883 0.3298 0.0
C636 C 0.27466 0.96755 0.31073 0.0
C637 C 0.28373 0.96481 0.31045 0.0
H638 H 0.29914 0.96678 0.31978 0.0
H639 H 0.28346 0.98449 0.33721 0.0
C640 C 0.30678 0.96457 0.38461 0.0
N641 N 0.30307 0.96142 0.37262 0.0
C642 C 0.30264 0.95599 0.39382 0.0
C643 C 0.29085 0.94115 0.37818 0.0
C644 C 0.29525 0.94999 0.36928 0.0
C645 C 0.29451 0.9441 0.39065 0.0
H646 H 0.31287 0.97377 0.38702 0.0
H647 H 0.29235 0.94775 0.3597 0.0
C648 C 0.31507 0.99907 0.32889 0.0
N649 N 0.30658 0.00539 0.30865 0.0
C650 C 0.31719 0.99653 0.31683 0.0
C651 C 0.3087 0.00487 0.33066 0.0
C652 C 0.3128 0.99978 0.30672 0.0
C653 C 0.30447 0.00799 0.3203 0.0
C654 C 0.33528 0.99254 0.36897 0.0
C655 C 0.34308 0.0047 0.36766 0.0
C656 C 0.33825 0.98608 0.37695 0.0
C657 C 0.35375 0.01019 0.37436 0.0
C658 C 0.34901 0.99189 0.38347 0.0
N659 N 0.35646 0.00372 0.38206 0.0
C660 C 0.31859 0.00991 0.37759 0.0
C661 C 0.32662 0.02007 0.35882 0.0
C662 C 0.32286 0.02066 0.38409 0.0
N663 N 0.32064 0.00985 0.36523 0.0
C664 C 0.33103 0.031 0.36493 0.0
C665 C 0.3293 0.0314 0.37778 0.0
H666 H 0.31388 0.00162 0.38245 0.0
H667 H 0.32831 0.01974 0.34903 0.0
C668 C 0.33432 0.97942 0.32429 0.0
N669 N 0.3367 0.98502 0.33558 0.0
C670 C 0.34341 0.97969 0.3173 0.0
C671 C 0.35723 0.99146 0.33367 0.0
C672 C 0.34788 0.99095 0.34035 0.0
C673 C 0.35506 0.98582 0.32196 0.0
H674 H 0.32534 0.97476 0.32071 0.0
H675 H 0.34962 0.99528 0.34931 0.0
O676 O 0.29996 0.98205 0.35939 0.0
O677 O 0.30881 0.96822 0.34279 0.0
O678 O 0.31901 0.99567 0.33891 0.0
O679 O 0.32469 0.98702 0.36267 0.0
H680 H 0.2825 0.95995 0.35579 0.0
H681 H 0.29093 0.99554 0.36494 0.0
H682 H 0.26115 0.95334 0.35753 0.0
H683 H 0.26942 0.98831 0.36647 0.0
H684 H 0.33084 0.95251 0.35622 0.0
H685 H 0.29822 0.94836 0.3295 0.0
H686 H 0.32596 0.96848 0.35634 0.0
H687 H 0.30361 0.93271 0.32982 0.0
H688 H 0.26783 0.97709 0.32122 0.0
H689 H 0.28436 0.95959 0.30292 0.0
H690 H 0.30557 0.95867 0.40335 0.0
H691 H 0.28468 0.93208 0.37532 0.0
H692 H 0.32209 0.99201 0.31531 0.0
H693 H 0.30686 0.00677 0.33994 0.0
H694 H 0.31432 0.99781 0.29733 0.0
H695 H 0.29945 0.01241 0.32153 0.0
H696 H 0.34105 0.00979 0.36136 0.0
H697 H 0.33234 0.97666 0.37807 0.0
H698 H 0.35988 0.01958 0.37339 0.0
H699 H 0.35143 0.98699 0.38965 0.0
H700 H 0.32122 0.02055 0.39397 0.0
H701 H 0.33611 0.03904 0.35973 0.0
H702 H 0.34135 0.9753 0.30827 0.0
H703 H 0.36604 0.99611 0.33773 0.0
Li704 Li 0.02448 0.32475 0.33285 0.0
Li705 Li 0.03126 0.33624 0.3517 0.0
Li706 Li 0.00925 0.32142 0.34739 0.0
Li707 Li 0.0206 0.34046 0.33543 0.0
C708 C 0.02609 0.31046 0.34979 0.0
N709 N 0.0332 0.2939 0.34896 0.0
C710 C 0.03795 0.31406 0.3478 0.0
C711 C 0.01784 0.29848 0.35146 0.0
C712 C 0.04137 0.30553 0.34737 0.0
C713 C 0.02162 0.29023 0.35099 0.0
C714 C 0.04552 0.3533 0.33495 0.0
C715 C 0.05357 0.37372 0.34139 0.0
N716 N 0.06405 0.37649 0.3361 0.0
C717 C 0.05638 0.35636 0.32957 0.0
C718 C 0.04412 0.36205 0.34091 0.0
C719 C 0.06564 0.36813 0.33025 0.0
C720 C 0.03743 0.32469 0.31241 0.0
N721 N 0.029 0.31722 0.32038 0.0
C722 C 0.02821 0.30046 0.3102 0.0
C723 C 0.0242 0.30527 0.3193 0.0
C724 C 0.03717 0.30802 0.30207 0.0
C725 C 0.04167 0.32028 0.30318 0.0
H726 H 0.04084 0.33412 0.3132 0.0
H727 H 0.01728 0.29946 0.32551 0.0
C728 C 0.03999 0.34388 0.37622 0.0
N729 N 0.04303 0.34272 0.36444 0.0
C730 C 0.04858 0.34863 0.38567 0.0
C731 C 0.06318 0.35063 0.37072 0.0
C732 C 0.05434 0.34591 0.36157 0.0
C733 C 0.06035 0.35206 0.38296 0.0
H734 H 0.03088 0.34105 0.37829 0.0
H735 H 0.0565 0.34474 0.35217 0.0
C736 C 0.00571 0.31728 0.31894 0.0
N737 N 0.99918 0.30315 0.29773 0.0
C738 C 0.00971 0.32238 0.30733 0.0
C739 C 0.99832 0.30501 0.31977 0.0
C740 C 0.00634 0.31508 0.29671 0.0
C741 C 0.99512 0.29801 0.30894 0.0
C742 C 0.01362 0.34479 0.36026 0.0
C743 C 0.00154 0.3408 0.36111 0.0
C744 C 0.02179 0.3553 0.36642 0.0
C745 C 0.99784 0.34749 0.36793 0.0
C746 C 0.01774 0.36174 0.37314 0.0
N747 N 0.00595 0.35773 0.37374 0.0
C748 C 0.99388 0.30579 0.36564 0.0
C749 C 0.98459 0.30927 0.34862 0.0
C750 C 0.98294 0.29867 0.37123 0.0
N751 N 0.99447 0.31096 0.35459 0.0
C752 C 0.97349 0.30235 0.35392 0.0
C753 C 0.97254 0.29698 0.36543 0.0
H754 H 0.00193 0.30731 0.37016 0.0
H755 H 0.98537 0.31361 0.33989 0.0
C756 C 0.02577 0.35722 0.31681 0.0
N757 N 0.01905 0.35236 0.32704 0.0
C758 C 0.02498 0.36593 0.31025 0.0
C759 C 0.0102 0.36431 0.32475 0.0
C760 C 0.01126 0.35561 0.33098 0.0
C761 C 0.01713 0.36963 0.31423 0.0
H762 H 0.03174 0.3543 0.31372 0.0
H763 H 0.00581 0.35144 0.33892 0.0
O764 O 0.02255 0.31865 0.35021 0.0
O765 O 0.03643 0.34177 0.33446 0.0
O766 O 0.00914 0.32424 0.32946 0.0
O767 O 0.01738 0.33825 0.35376 0.0
H768 H 0.04442 0.3233 0.34643 0.0
H769 H 0.00862 0.29558 0.35303 0.0
H770 H 0.05051 0.30817 0.34575 0.0
H771 H 0.01534 0.28091 0.35222 0.0
H772 H 0.05257 0.38057 0.34595 0.0
H773 H 0.05768 0.34969 0.32501 0.0
H774 H 0.03579 0.35989 0.34501 0.0
H775 H 0.07409 0.3706 0.32616 0.0
H776 H 0.02448 0.29095 0.30969 0.0
H777 H 0.04835 0.32643 0.29691 0.0
H778 H 0.04599 0.34942 0.39503 0.0
H779 H 0.07216 0.35323 0.36822 0.0
H780 H 0.01547 0.33187 0.30655 0.0
H781 H 0.99522 0.30092 0.32871 0.0
H782 H 0.00943 0.31889 0.28767 0.0
H783 H 0.98947 0.28849 0.30944 0.0
H784 H 0.99508 0.33272 0.35642 0.0
H785 H 0.03117 0.35846 0.3661 0.0
H786 H 0.98852 0.34453 0.36857 0.0
H787 H 0.02398 0.36989 0.37792 0.0
H788 H 0.98264 0.29458 0.38001 0.0
H789 H 0.96581 0.30153 0.34918 0.0
H790 H 0.03034 0.36963 0.30208 0.0
H791 H 0.00411 0.36694 0.32823 0.0
Li792 Li 0.67581 0.9901 0.35243 0.0
Li793 Li 0.66216 0.969 0.35619 0.0
Li794 Li 0.67377 0.97538 0.33638 0.0
Li795 Li 0.65698 0.97829 0.34007 0.0
C796 C 0.69079 0.98086 0.35813 0.0
N797 N 0.71341 0.98815 0.36665 0.0
C798 C 0.69263 0.97844 0.37029 0.0
C799 C 0.70045 0.9868 0.35024 0.0
C800 C 0.70413 0.98226 0.37444 0.0
C801 C 0.71182 0.99046 0.35474 0.0
C802 C 0.65385 0.98072 0.36935 0.0
C803 C 0.63675 0.97035 0.38236 0.0
N804 N 0.64323 0.97708 0.39229 0.0
C805 C 0.66032 0.98761 0.37966 0.0
C806 C 0.64194 0.97209 0.37067 0.0
C807 C 0.6548 0.98561 0.39119 0.0
C808 C 0.68394 0.01408 0.35535 0.0
N809 N 0.68579 0.00544 0.35967 0.0
C810 C 0.70045 0.01911 0.37409 0.0
C811 C 0.69382 0.0077 0.3689 0.0
C812 C 0.69868 0.02821 0.36983 0.0
C813 C 0.69032 0.02558 0.3603 0.0
H814 H 0.67741 0.012 0.34809 0.0
H815 H 0.69494 0.00066 0.37242 0.0
C816 C 0.6488 0.94571 0.36523 0.0
N817 N 0.65622 0.95721 0.36866 0.0
C818 C 0.64428 0.93687 0.37416 0.0
C819 C 0.65519 0.95186 0.38997 0.0
C820 C 0.65956 0.96039 0.38072 0.0
C821 C 0.64743 0.93989 0.38675 0.0
H822 H 0.64644 0.94338 0.35555 0.0
H823 H 0.6656 0.96957 0.38319 0.0
C824 C 0.68069 0.9979 0.32588 0.0
N825 N 0.69622 0.01403 0.30908 0.0
C826 C 0.67653 0.99931 0.31443 0.0
C827 C 0.69271 0.00485 0.32888 0.0
C828 C 0.68453 0.00746 0.30603 0.0
C829 C 0.70043 0.01291 0.32024 0.0
C830 C 0.64702 0.9561 0.33182 0.0
C831 C 0.64809 0.95346 0.31943 0.0
C832 C 0.63579 0.95167 0.33691 0.0
C833 C 0.63787 0.94657 0.31226 0.0
C834 C 0.62579 0.94483 0.32944 0.0
N835 N 0.62703 0.94245 0.31737 0.0
C836 C 0.68672 0.96494 0.32759 0.0
C837 C 0.6811 0.97383 0.31202 0.0
C838 C 0.69183 0.96109 0.31869 0.0
N839 N 0.68153 0.97121 0.32413 0.0
C840 C 0.68608 0.97015 0.30282 0.0
C841 C 0.69148 0.96361 0.30609 0.0
H842 H 0.6867 0.96275 0.33725 0.0
H843 H 0.67661 0.9785 0.30945 0.0
C844 C 0.63831 0.983 0.33885 0.0
N845 N 0.64468 0.97944 0.33201 0.0
C846 C 0.62982 0.98483 0.33311 0.0
C847 C 0.63445 0.97908 0.31343 0.0
C848 C 0.64291 0.97744 0.31954 0.0
C849 C 0.62789 0.98298 0.32022 0.0
H850 H 0.64 0.98467 0.34872 0.0
H851 H 0.64827 0.97484 0.31428 0.0
O852 O 0.67957 0.97716 0.35392 0.0
O853 O 0.65913 0.98249 0.35801 0.0
O854 O 0.67294 0.98999 0.33423 0.0
O855 O 0.65692 0.96296 0.33894 0.0
H856 H 0.68526 0.97374 0.37648 0.0
H857 H 0.69919 0.98845 0.34071 0.0
H858 H 0.70568 0.98052 0.38386 0.0
H859 H 0.71937 0.9951 0.34875 0.0
H860 H 0.62755 0.96364 0.38353 0.0
H861 H 0.66953 0.99435 0.37881 0.0
H862 H 0.63678 0.96677 0.36278 0.0
H863 H 0.65972 0.99082 0.39926 0.0
H864 H 0.70669 0.02072 0.38154 0.0
H865 H 0.68877 0.03235 0.35664 0.0
H866 H 0.63851 0.92774 0.37119 0.0
H867 H 0.65777 0.95466 0.39955 0.0
H868 H 0.66724 0.99412 0.31201 0.0
H869 H 0.69605 0.00414 0.33782 0.0
H870 H 0.68144 0.00858 0.29709 0.0
H871 H 0.70976 0.01833 0.32243 0.0
H872 H 0.65671 0.95674 0.31536 0.0
H873 H 0.63481 0.95355 0.3465 0.0
H874 H 0.63857 0.94451 0.30264 0.0
H875 H 0.61704 0.94141 0.33324 0.0
H876 H 0.69573 0.95591 0.32161 0.0
H877 H 0.68567 0.97237 0.29325 0.0
H878 H 0.62487 0.98774 0.3387 0.0
H879 H 0.63334 0.97771 0.30345 0.0
Li880 Li 0.02932 0.69565 0.35531 0.0
Li881 Li 0.00833 0.68855 0.35131 0.0
Li882 Li 0.01945 0.68119 0.33873 0.0
Li883 Li 0.02293 0.70118 0.33559 0.0
C884 C 0.01711 0.67531 0.36786 0.0
N885 N 0.0203 0.66778 0.39066 0.0
C886 C 0.01072 0.67548 0.37816 0.0
C887 C 0.025 0.67117 0.36912 0.0
C888 C 0.01248 0.67167 0.38962 0.0
C889 C 0.02653 0.66745 0.38073 0.0
C890 C 0.01835 0.71306 0.35775 0.0
C891 C 0.00925 0.72492 0.35486 0.0
N892 N 0.01188 0.72877 0.36689 0.0
C893 C 0.02108 0.71724 0.37003 0.0
C894 C 0.0125 0.71702 0.35005 0.0
C895 C 0.01769 0.72514 0.3745 0.0
C896 C 0.05264 0.70508 0.36463 0.0
N897 N 0.04128 0.70124 0.36794 0.0
C898 C 0.04698 0.70527 0.38939 0.0
C899 C 0.03835 0.7014 0.38003 0.0
C900 C 0.05877 0.70914 0.38626 0.0
C901 C 0.06157 0.70908 0.37368 0.0
H902 H 0.05479 0.70503 0.35494 0.0
H903 H 0.02931 0.69854 0.38241 0.0
C904 C 0.98455 0.67248 0.35439 0.0
N905 N 0.99322 0.68334 0.35846 0.0
C906 C 0.97322 0.66734 0.35937 0.0
C907 C 0.97989 0.6847 0.37259 0.0
C908 C 0.99112 0.68949 0.3674 0.0
C909 C 0.97079 0.67343 0.36864 0.0
H910 H 0.9865 0.66777 0.34734 0.0
H911 H 0.99817 0.69797 0.37071 0.0
C912 C 0.04184 0.69324 0.33138 0.0
N913 N 0.05542 0.68659 0.31773 0.0
C914 C 0.04517 0.69731 0.31928 0.0
C915 C 0.04556 0.68593 0.33659 0.0
C916 C 0.05201 0.69382 0.31252 0.0
C917 C 0.05238 0.68263 0.32952 0.0
C918 C 0.00018 0.686 0.32478 0.0
C919 C 0.99845 0.68059 0.31305 0.0
C920 C 0.99361 0.6913 0.3281 0.0
C921 C 0.99039 0.68085 0.30472 0.0
C922 C 0.98561 0.69135 0.31952 0.0
N923 N 0.9842 0.68619 0.3081 0.0
C924 C 0.01447 0.65746 0.33581 0.0
C925 C 0.02019 0.66891 0.31754 0.0
C926 C 0.01309 0.64759 0.32914 0.0
N927 N 0.018 0.66784 0.32993 0.0
C928 C 0.01905 0.65934 0.31055 0.0
C929 C 0.01543 0.64849 0.31634 0.0
H930 H 0.01264 0.65682 0.34565 0.0
H931 H 0.02275 0.6772 0.31306 0.0
C932 C 0.03313 0.72468 0.32663 0.0
N933 N 0.02721 0.71299 0.32333 0.0
C934 C 0.03705 0.73334 0.3175 0.0
C935 C 0.02877 0.71776 0.3018 0.0
C936 C 0.025 0.70943 0.31121 0.0
C937 C 0.03498 0.72991 0.30488 0.0
H938 H 0.03504 0.72728 0.33633 0.0
H939 H 0.02064 0.7001 0.30882 0.0
O940 O 0.01556 0.67908 0.35659 0.0
O941 O 0.02163 0.70532 0.35324 0.0
O942 O 0.03498 0.6964 0.33808 0.0
O943 O 0.00802 0.68579 0.33305 0.0
H944 H 0.00455 0.67863 0.37737 0.0
H945 H 0.02991 0.67083 0.36122 0.0
H946 H 0.00765 0.67182 0.39769 0.0
H947 H 0.03266 0.66428 0.38185 0.0
H948 H 0.00469 0.72803 0.34901 0.0
H949 H 0.02572 0.71438 0.37609 0.0
H950 H 0.01059 0.71414 0.34044 0.0
H951 H 0.01968 0.72839 0.38401 0.0
H952 H 0.04447 0.70535 0.39895 0.0
H953 H 0.07053 0.71193 0.37086 0.0
H954 H 0.96643 0.65869 0.35597 0.0
H955 H 0.97842 0.68963 0.37983 0.0
H956 H 0.04247 0.70305 0.31514 0.0
H957 H 0.04316 0.6828 0.34597 0.0
H958 H 0.05459 0.69684 0.30312 0.0
H959 H 0.05525 0.6769 0.33342 0.0
H960 H 0.00334 0.67631 0.31037 0.0
H961 H 0.99455 0.69522 0.33723 0.0
H962 H 0.98904 0.67678 0.29559 0.0
H963 H 0.98049 0.69546 0.32196 0.0
H964 H 0.01031 0.63938 0.33394 0.0
H965 H 0.02075 0.66034 0.30066 0.0
H966 H 0.04195 0.74261 0.32029 0.0
H967 H 0.02691 0.71471 0.2922 0.0
Li968 Li 0.31594 0.3409 0.35419 0.0
Li969 Li 0.32173 0.32619 0.35019 0.0
Li970 Li 0.32959 0.34414 0.33774 0.0
Li971 Li 0.3092 0.32856 0.33449 0.0
C972 C 0.33698 0.34926 0.36634 0.0
N973 N 0.34689 0.36213 0.38807 0.0
C974 C 0.33863 0.34382 0.37664 0.0
C975 C 0.34043 0.36126 0.36709 0.0
C976 C 0.34365 0.35048 0.38753 0.0
C977 C 0.3454 0.36761 0.37816 0.0
C978 C 0.2991 0.316 0.36142 0.0
C979 C 0.28142 0.29888 0.36878 0.0
N980 N 0.28644 0.30077 0.3803 0.0
C981 C 0.3041 0.31772 0.3733 0.0
C982 C 0.28769 0.30647 0.35911 0.0
C983 C 0.29755 0.30995 0.38274 0.0
C984 C 0.30461 0.35312 0.36262 0.0
N985 N 0.31084 0.34803 0.36658 0.0
C986 C 0.30928 0.35294 0.38772 0.0
C987 C 0.31311 0.34776 0.37889 0.0
C988 C 0.30285 0.35827 0.3839 0.0
C989 C 0.30045 0.35828 0.37117 0.0
H990 H 0.30281 0.35313 0.3528 0.0
H991 H 0.31784 0.3435 0.38195 0.0
C992 C 0.33786 0.31998 0.35813 0.0
N993 N 0.32601 0.31559 0.35726 0.0
C994 C 0.34225 0.31333 0.36351 0.0
C995 C 0.32215 0.29754 0.36668 0.0
C996 C 0.31813 0.3045 0.36118 0.0
C997 C 0.33438 0.30199 0.36803 0.0
H998 H 0.3439 0.32875 0.35473 0.0
H999 H 0.30875 0.30105 0.3601 0.0
C1000 C 0.31947 0.35548 0.32959 0.0
N1001 N 0.32849 0.37512 0.31466 0.0
C1002 C 0.31783 0.35407 0.3167 0.0
C1003 C 0.32557 0.36686 0.3349 0.0
C1004 C 0.32249 0.36412 0.30931 0.0
C1005 C 0.33011 0.37668 0.32719 0.0
C1006 C 0.32092 0.31685 0.32673 0.0
C1007 C 0.32846 0.31609 0.31808 0.0
C1008 C 0.31063 0.30655 0.33025 0.0
C1009 C 0.32555 0.30502 0.31308 0.0
C1010 C 0.30805 0.29565 0.32505 0.0
N1011 N 0.3155 0.29512 0.31664 0.0
C1012 C 0.35305 0.3636 0.33482 0.0
C1013 C 0.34315 0.35323 0.31632 0.0
C1014 C 0.36341 0.37067 0.32826 0.0
N1015 N 0.34323 0.35505 0.3288 0.0
C1016 C 0.35331 0.36011 0.30938 0.0
C1017 C 0.36369 0.36884 0.31538 0.0
H1018 H 0.35299 0.36467 0.34478 0.0
H1019 H 0.33526 0.34623 0.3118 0.0
C1020 C 0.28566 0.31836 0.32568 0.0
N1021 N 0.29677 0.32105 0.32252 0.0
C1022 C 0.2765 0.3134 0.31683 0.0
C1023 C 0.29041 0.31404 0.3017 0.0
C1024 C 0.29929 0.31906 0.3108 0.0
C1025 C 0.27884 0.3112 0.30465 0.0
H1026 H 0.28396 0.32021 0.33503 0.0
H1027 H 0.30827 0.32156 0.30845 0.0
O1028 O 0.33207 0.34288 0.35559 0.0
O1029 O 0.30543 0.32334 0.35197 0.0
O1030 O 0.31521 0.34575 0.33695 0.0
O1031 O 0.3237 0.32764 0.33171 0.0
H1032 H 0.33596 0.33454 0.37629 0.0
H1033 H 0.33919 0.36561 0.35925 0.0
H1034 H 0.34492 0.34636 0.39558 0.0
H1035 H 0.34805 0.37689 0.37888 0.0
H1036 H 0.27259 0.29146 0.36712 0.0
H1037 H 0.31306 0.32479 0.37511 0.0
H1038 H 0.28376 0.30491 0.34991 0.0
H1039 H 0.30134 0.31115 0.39196 0.0
H1040 H 0.31115 0.35258 0.39747 0.0
H1041 H 0.29552 0.36231 0.36787 0.0
H1042 H 0.35174 0.31703 0.36404 0.0
H1043 H 0.31575 0.28885 0.37002 0.0
H1044 H 0.31312 0.34532 0.31245 0.0
H1045 H 0.3268 0.36808 0.34487 0.0
H1046 H 0.32136 0.36317 0.29931 0.0
H1047 H 0.3349 0.38555 0.33117 0.0
H1048 H 0.33646 0.32399 0.31526 0.0
H1049 H 0.30468 0.30694 0.33691 0.0
H1050 H 0.3313 0.30431 0.30637 0.0
H1051 H 0.30011 0.28761 0.32769 0.0
H1052 H 0.37126 0.37714 0.33332 0.0
H1053 H 0.35307 0.35846 0.29946 0.0
H1054 H 0.2677 0.31131 0.31949 0.0
H1055 H 0.29264 0.3127 0.29237 0.0
Li1056 Li 0.32564 0.00657 0.66551 0.0
Li1057 Li 0.34375 0.019 0.67746 0.0
Li1058 Li 0.32694 0.0221 0.67868 0.0
Li1059 Li 0.33906 0.0272 0.66001 0.0
C1060 C 0.32185 0.99659 0.68713 0.0
N1061 N 0.30991 0.97275 0.69261 0.0
C1062 C 0.32814 0.9909 0.68994 0.0
C1063 C 0.30948 0.99017 0.68717 0.0
C1064 C 0.32194 0.97884 0.69268 0.0
C1065 C 0.30361 0.97812 0.68993 0.0
C1066 C 0.34774 0.01525 0.6489 0.0
C1067 C 0.36488 0.02566 0.63594 0.0
N1068 N 0.35861 0.01851 0.62615 0.0
C1069 C 0.34146 0.00799 0.63871 0.0
C1070 C 0.35955 0.02413 0.64752 0.0
C1071 C 0.34712 0.00978 0.62728 0.0
C1072 C 0.305 0.98751 0.65402 0.0
N1073 N 0.31589 0.991 0.65887 0.0
C1074 C 0.31402 0.97238 0.65338 0.0
C1075 C 0.32045 0.98371 0.65871 0.0
C1076 C 0.3028 0.96855 0.64812 0.0
C1077 C 0.29824 0.97622 0.64861 0.0
H1078 H 0.30167 0.99355 0.65414 0.0
H1079 H 0.32918 0.98678 0.66257 0.0
C1080 C 0.35604 0.02035 0.69944 0.0
N1081 N 0.35596 0.01896 0.68689 0.0
C1082 C 0.3647 0.02005 0.70673 0.0
C1083 C 0.37282 0.0166 0.68806 0.0
C1084 C 0.36409 0.01709 0.68111 0.0
C1085 C 0.37317 0.01806 0.70104 0.0
H1086 H 0.34928 0.02154 0.70379 0.0
H1087 H 0.36368 0.0158 0.67115 0.0
C1088 C 0.31341 0.02211 0.66094 0.0
N1089 N 0.2973 0.0298 0.66186 0.0
C1090 C 0.31635 0.03315 0.65619 0.0
C1091 C 0.30226 0.01496 0.66611 0.0
C1092 C 0.30808 0.03687 0.65674 0.0
C1093 C 0.29425 0.01902 0.66652 0.0
C1094 C 0.35302 0.04124 0.6846 0.0
C1095 C 0.35081 0.04347 0.69675 0.0
C1096 C 0.36468 0.04592 0.68068 0.0
C1097 C 0.36034 0.05029 0.70482 0.0
C1098 C 0.37396 0.05267 0.68904 0.0
N1099 N 0.37162 0.0547 0.70083 0.0
C1100 C 0.3119 0.02004 0.6986 0.0
C1101 C 0.32097 0.03845 0.68832 0.0
C1102 C 0.30668 0.02411 0.70711 0.0
N1103 N 0.31891 0.02723 0.68949 0.0
C1104 C 0.31594 0.04289 0.69662 0.0
C1105 C 0.30877 0.03573 0.70626 0.0
H1106 H 0.31053 0.01121 0.69942 0.0
H1107 H 0.32677 0.04404 0.68111 0.0
C1108 C 0.34074 0.03397 0.63497 0.0
N1109 N 0.34516 0.03792 0.64661 0.0
C1110 C 0.3445 0.04181 0.62508 0.0
C1111 C 0.35722 0.05767 0.63938 0.0
C1112 C 0.3533 0.04949 0.64897 0.0
C1113 C 0.35271 0.0539 0.62725 0.0
H1114 H 0.3341 0.02476 0.63342 0.0
H1115 H 0.35647 0.05244 0.65836 0.0
O1116 O 0.32775 0.00833 0.68418 0.0
O1117 O 0.34233 0.01372 0.66013 0.0
O1118 O 0.32146 0.0184 0.66072 0.0
O1119 O 0.34381 0.03441 0.67662 0.0
H1120 H 0.33771 0.9957 0.68989 0.0
H1121 H 0.30447 0.9944 0.68489 0.0
H1122 H 0.3267 0.97432 0.69483 0.0
H1123 H 0.29404 0.97303 0.68991 0.0
H1124 H 0.374 0.03254 0.63473 0.0
H1125 H 0.33229 0.00113 0.63955 0.0
H1126 H 0.36452 0.02987 0.65529 0.0
H1127 H 0.34236 0.00426 0.61931 0.0
H1128 H 0.31781 0.96671 0.65333 0.0
H1129 H 0.2897 0.97367 0.64453 0.0
H1130 H 0.36456 0.02102 0.71674 0.0
H1131 H 0.37922 0.01506 0.68334 0.0
H1132 H 0.32495 0.03883 0.65221 0.0
H1133 H 0.29989 0.00644 0.66994 0.0
H1134 H 0.31024 0.04541 0.65314 0.0
H1135 H 0.28563 0.01361 0.67057 0.0
H1136 H 0.34185 0.03985 0.69999 0.0
H1137 H 0.36655 0.04424 0.67133 0.0
H1138 H 0.35876 0.05203 0.71427 0.0
H1139 H 0.38303 0.05628 0.68616 0.0
H1140 H 0.30112 0.01825 0.71431 0.0
H1141 H 0.31796 0.05196 0.69572 0.0
H1142 H 0.34085 0.03847 0.61589 0.0
H1143 H 0.36335 0.06691 0.64158 0.0
Li1144 Li 0.99467 0.31412 0.66808 0.0
Li1145 Li 0.98276 0.32019 0.68001 0.0
Li1146 Li 0.97984 0.30025 0.68179 0.0
Li1147 Li 0.97374 0.3062 0.66307 0.0
C1148 C 0.00558 0.32139 0.68957 0.0
N1149 N 0.02958 0.33369 0.6947 0.0
C1150 C 0.01152 0.33367 0.69154 0.0
C1151 C 0.01182 0.31536 0.69029 0.0
C1152 C 0.02366 0.33973 0.69411 0.0
C1153 C 0.02396 0.32174 0.69286 0.0
C1154 C 0.98489 0.32615 0.6511 0.0
C1155 C 0.9736 0.33161 0.63785 0.0
N1156 N 0.98007 0.33171 0.62795 0.0
C1157 C 0.99144 0.32632 0.64079 0.0
C1158 C 0.97592 0.32884 0.64964 0.0
C1159 C 0.98887 0.32916 0.62916 0.0
C1160 C 0.01372 0.31259 0.6571 0.0
N1161 N 0.01002 0.31999 0.66134 0.0
C1162 C 0.02842 0.33696 0.65593 0.0
C1163 C 0.01707 0.33196 0.66081 0.0
C1164 C 0.03253 0.32957 0.65146 0.0
C1165 C 0.02501 0.31722 0.65209 0.0
H1166 H 0.00789 0.30311 0.65755 0.0
H1167 H 0.01382 0.33762 0.66412 0.0
C1168 C 0.98297 0.33251 0.70171 0.0
N1169 N 0.98327 0.33297 0.6891 0.0
C1170 C 0.98367 0.34188 0.70875 0.0
C1171 C 0.98511 0.35208 0.68968 0.0
C1172 C 0.98432 0.34248 0.68301 0.0
C1173 C 0.98485 0.35189 0.70274 0.0
H1174 H 0.98228 0.32488 0.7063 0.0
H1175 H 0.98478 0.34271 0.67299 0.0
C1176 C 0.97948 0.28598 0.66418 0.0
N1177 N 0.97283 0.26232 0.66522 0.0
C1178 C 0.96863 0.27731 0.6591 0.0
C1179 C 0.98698 0.28264 0.66972 0.0
C1180 C 0.96543 0.26539 0.65972 0.0
C1181 C 0.98345 0.27062 0.67018 0.0
C1182 C 0.9612 0.30725 0.68816 0.0
C1183 C 0.95968 0.30315 0.70033 0.0
C1184 C 0.95647 0.31424 0.68456 0.0
C1185 C 0.95349 0.30617 0.70873 0.0
C1186 C 0.95036 0.31709 0.69325 0.0
N1187 N 0.949 0.31303 0.70505 0.0
C1188 C 0.9821 0.28879 0.70302 0.0
C1189 C 0.96438 0.27774 0.69125 0.0
C1190 C 0.97807 0.2799 0.7119 0.0
N1191 N 0.97521 0.28757 0.693 0.0
C1192 C 0.96005 0.26862 0.69983 0.0
C1193 C 0.96682 0.2697 0.71045 0.0
H1194 H 0.99056 0.29682 0.70432 0.0
H1195 H 0.95899 0.27713 0.68334 0.0
C1196 C 0.96517 0.29929 0.63835 0.0
N1197 N 0.96223 0.30083 0.65004 0.0
C1198 C 0.95684 0.29553 0.62868 0.0
C1199 C 0.94256 0.29478 0.64335 0.0
C1200 C 0.95116 0.29857 0.65271 0.0
C1201 C 0.94535 0.29326 0.63112 0.0
H1202 H 0.97402 0.30102 0.63653 0.0
H1203 H 0.94899 0.29963 0.66213 0.0
O1204 O 0.99375 0.31533 0.68674 0.0
O1205 O 0.98713 0.32319 0.66252 0.0
O1206 O 0.98271 0.29768 0.66381 0.0
O1207 O 0.96741 0.30456 0.67984 0.0
H1208 H 0.00685 0.33849 0.69094 0.0
H1209 H 0.00735 0.30587 0.68873 0.0
H1210 H 0.0284 0.34923 0.69559 0.0
H1211 H 0.02891 0.3172 0.69336 0.0
H1212 H 0.96662 0.33363 0.63658 0.0
H1213 H 0.99835 0.32416 0.64171 0.0
H1214 H 0.97068 0.32863 0.65749 0.0
H1215 H 0.99384 0.32929 0.6211 0.0
H1216 H 0.03382 0.34652 0.65544 0.0
H1217 H 0.02786 0.3112 0.64884 0.0
H1218 H 0.98333 0.3413 0.71879 0.0
H1219 H 0.98624 0.3597 0.68466 0.0
H1220 H 0.9627 0.27974 0.65481 0.0
H1221 H 0.99538 0.28923 0.67377 0.0
H1222 H 0.95703 0.25858 0.65587 0.0
H1223 H 0.98913 0.2679 0.67451 0.0
H1224 H 0.96333 0.2978 0.70332 0.0
H1225 H 0.95766 0.31759 0.67522 0.0
H1226 H 0.95228 0.3031 0.7182 0.0
H1227 H 0.94673 0.32256 0.69061 0.0
H1228 H 0.98352 0.28123 0.72003 0.0
H1229 H 0.95141 0.26086 0.69821 0.0
H1230 H 0.95941 0.29455 0.61938 0.0
H1231 H 0.93376 0.29289 0.64572 0.0
Li1232 Li 0.68052 0.67502 0.6681 0.0
Li1233 Li 0.67183 0.65683 0.68002 0.0
Li1234 Li 0.69322 0.67245 0.68343 0.0
Li1235 Li 0.68666 0.65969 0.66476 0.0
C1236 C 0.67874 0.68277 0.69226 0.0
N1237 N 0.67883 0.7017 0.7041 0.0
C1238 C 0.66841 0.68134 0.69764 0.0
C1239 C 0.68916 0.69378 0.69312 0.0
C1240 C 0.66862 0.69103 0.70351 0.0
C1241 C 0.68902 0.70325 0.69909 0.0
C1242 C 0.65981 0.64993 0.65837 0.0
C1243 C 0.6451 0.6295 0.65408 0.0
N1244 N 0.63689 0.63275 0.65214 0.0
C1245 C 0.65126 0.65309 0.65617 0.0
C1246 C 0.65675 0.63806 0.65717 0.0
C1247 C 0.63971 0.64427 0.65309 0.0
C1248 C 0.68252 0.6918 0.65012 0.0
N1249 N 0.67664 0.68561 0.66032 0.0
C1250 C 0.66327 0.69291 0.65897 0.0
C1251 C 0.66718 0.68605 0.66479 0.0
C1252 C 0.66911 0.69936 0.64838 0.0
C1253 C 0.67895 0.69886 0.64403 0.0
H1254 H 0.68983 0.69106 0.64657 0.0
H1255 H 0.66243 0.68075 0.67265 0.0
C1256 C 0.65604 0.63671 0.69454 0.0
N1257 N 0.65745 0.64613 0.68797 0.0
C1258 C 0.64547 0.62956 0.70082 0.0
C1259 C 0.63806 0.64194 0.69333 0.0
C1260 C 0.64873 0.64881 0.68725 0.0
C1261 C 0.63635 0.63224 0.70036 0.0
H1262 H 0.6632 0.63488 0.69514 0.0
H1263 H 0.65014 0.65643 0.68206 0.0
C1264 C 0.70718 0.68732 0.66346 0.0
N1265 N 0.72851 0.70756 0.65862 0.0
C1266 C 0.71659 0.68644 0.65862 0.0
C1267 C 0.70856 0.69852 0.66558 0.0
C1268 C 0.72732 0.69676 0.65632 0.0
C1269 C 0.71942 0.70864 0.66314 0.0
C1270 C 0.68904 0.64651 0.68272 0.0
C1271 C 0.70021 0.64944 0.6873 0.0
C1272 C 0.68125 0.63495 0.67848 0.0
C1273 C 0.70349 0.64081 0.68729 0.0
C1274 C 0.68486 0.62658 0.67861 0.0
N1275 N 0.69582 0.62966 0.68297 0.0
C1276 C 0.70299 0.6812 0.70738 0.0
C1277 C 0.71695 0.68325 0.69222 0.0
C1278 C 0.71184 0.68612 0.71654 0.0
N1279 N 0.70569 0.67993 0.69547 0.0
C1280 C 0.72606 0.68818 0.70107 0.0
C1281 C 0.72356 0.68962 0.71345 0.0
H1282 H 0.69392 0.67823 0.70979 0.0
H1283 H 0.71882 0.68179 0.68282 0.0
C1284 C 0.68566 0.64807 0.64187 0.0
N1285 N 0.69187 0.65261 0.65266 0.0
C1286 C 0.68993 0.64366 0.63259 0.0
C1287 C 0.70682 0.64859 0.64576 0.0
C1288 C 0.70226 0.65292 0.65474 0.0
C1289 C 0.70072 0.644 0.63442 0.0
H1290 H 0.67755 0.64814 0.64033 0.0
H1291 H 0.70717 0.65683 0.66325 0.0
O1292 O 0.67867 0.67335 0.68645 0.0
O1293 O 0.67114 0.65843 0.66158 0.0
O1294 O 0.69657 0.67727 0.66568 0.0
O1295 O 0.68571 0.65487 0.68258 0.0
H1296 H 0.66029 0.67285 0.69725 0.0
H1297 H 0.69731 0.69496 0.6894 0.0
H1298 H 0.66066 0.69006 0.70763 0.0
H1299 H 0.69703 0.71182 0.69979 0.0
H1300 H 0.6426 0.62027 0.65319 0.0
H1301 H 0.65349 0.66224 0.65692 0.0
H1302 H 0.6633 0.6355 0.65857 0.0
H1303 H 0.63298 0.64658 0.65147 0.0
H1304 H 0.65569 0.69309 0.66267 0.0
H1305 H 0.68358 0.70357 0.6358 0.0
H1306 H 0.64458 0.62224 0.70623 0.0
H1307 H 0.63122 0.64423 0.69255 0.0
H1308 H 0.71567 0.67787 0.65674 0.0
H1309 H 0.70128 0.69942 0.66889 0.0
H1310 H 0.7347 0.69619 0.65267 0.0
H1311 H 0.7206 0.71735 0.66478 0.0
H1312 H 0.70631 0.6583 0.69074 0.0
H1313 H 0.6725 0.63246 0.67515 0.0
H1314 H 0.71214 0.64299 0.69072 0.0
H1315 H 0.67894 0.61762 0.67529 0.0
H1316 H 0.70948 0.68688 0.72601 0.0
H1317 H 0.73497 0.69079 0.69826 0.0
H1318 H 0.68501 0.64038 0.62393 0.0
H1319 H 0.7151 0.64892 0.64766 0.0
Li1320 Li 0.34336 0.32822 0.67983 0.0
Li1321 Li 0.32795 0.30765 0.68358 0.0
Li1322 Li 0.33917 0.31302 0.6635 0.0
Li1323 Li 0.32418 0.31844 0.66797 0.0
C1324 C 0.35605 0.31646 0.68495 0.0
N1325 N 0.37803 0.32117 0.69324 0.0
C1326 C 0.35759 0.31396 0.69718 0.0
C1327 C 0.36565 0.32113 0.67687 0.0
C1328 C 0.36878 0.31648 0.70122 0.0
C1329 C 0.3767 0.32351 0.68125 0.0
C1330 C 0.32191 0.32096 0.69728 0.0
C1331 C 0.30475 0.31157 0.71036 0.0
N1332 N 0.31152 0.31806 0.72027 0.0
C1333 C 0.32868 0.3276 0.70757 0.0
C1334 C 0.30983 0.31295 0.69866 0.0
C1335 C 0.32327 0.32598 0.71912 0.0
C1336 C 0.35446 0.35257 0.68249 0.0
N1337 N 0.35462 0.34306 0.68718 0.0
C1338 C 0.36865 0.35527 0.70286 0.0
C1339 C 0.36157 0.34419 0.69711 0.0
C1340 C 0.3685 0.36523 0.69834 0.0
C1341 C 0.36141 0.36379 0.6879 0.0
H1342 H 0.34864 0.35136 0.67476 0.0
H1343 H 0.36133 0.33648 0.70088 0.0
C1344 C 0.31299 0.28457 0.6928 0.0
N1345 N 0.32126 0.29588 0.69606 0.0
C1346 C 0.30825 0.27576 0.70178 0.0
C1347 C 0.32057 0.29045 0.7173 0.0
C1348 C 0.32511 0.29893 0.70802 0.0
C1349 C 0.31208 0.27865 0.71423 0.0
H1350 H 0.31018 0.28234 0.68319 0.0
H1351 H 0.33175 0.30796 0.71036 0.0
C1352 C 0.34876 0.33617 0.65357 0.0
N1353 N 0.3656 0.35146 0.63714 0.0
C1354 C 0.3453 0.33884 0.64235 0.0
C1355 C 0.36079 0.34145 0.65652 0.0
C1356 C 0.35394 0.34653 0.63413 0.0
C1357 C 0.36917 0.34911 0.64808 0.0
C1358 C 0.31189 0.2967 0.65908 0.0
C1359 C 0.31266 0.29492 0.64636 0.0
C1360 C 0.30084 0.29295 0.66434 0.0
C1361 C 0.30236 0.28956 0.63906 0.0
C1362 C 0.29074 0.28764 0.65674 0.0
N1363 N 0.2917 0.28608 0.64436 0.0
C1364 C 0.34946 0.30011 0.65419 0.0
C1365 C 0.34622 0.31115 0.63901 0.0
C1366 C 0.35404 0.29575 0.64521 0.0
N1367 N 0.34574 0.30771 0.65096 0.0
C1368 C 0.35073 0.30702 0.62974 0.0
C1369 C 0.35469 0.29918 0.63278 0.0
H1370 H 0.34878 0.29735 0.66373 0.0
H1371 H 0.34293 0.31694 0.63661 0.0
C1372 C 0.30767 0.32611 0.66818 0.0
N1373 N 0.31298 0.32182 0.66062 0.0
C1374 C 0.30053 0.33011 0.66316 0.0
C1375 C 0.3042 0.32498 0.64265 0.0
C1376 C 0.3113 0.32108 0.64809 0.0
C1377 C 0.2989 0.32979 0.65022 0.0
H1378 H 0.30929 0.32679 0.67809 0.0
H1379 H 0.31581 0.31785 0.64226 0.0
O1380 O 0.34512 0.31397 0.68084 0.0
O1381 O 0.32708 0.32235 0.68592 0.0
O1382 O 0.34039 0.32869 0.66174 0.0
O1383 O 0.3219 0.3021 0.66634 0.0
H1384 H 0.35026 0.3102 0.70353 0.0
H1385 H 0.36459 0.32279 0.66728 0.0
H1386 H 0.37011 0.31468 0.71069 0.0
H1387 H 0.38421 0.32717 0.6751 0.0
H1388 H 0.29542 0.30534 0.71157 0.0
H1389 H 0.33802 0.33389 0.70668 0.0
H1390 H 0.30445 0.30781 0.69078 0.0
H1391 H 0.32841 0.33102 0.72717 0.0
H1392 H 0.37401 0.356 0.71088 0.0
H1393 H 0.36084 0.37116 0.68425 0.0
H1394 H 0.30185 0.26676 0.69894 0.0
H1395 H 0.32367 0.29315 0.72678 0.0
H1396 H 0.33603 0.33496 0.63996 0.0
H1397 H 0.36365 0.33981 0.66531 0.0
H1398 H 0.35137 0.3486 0.62538 0.0
H1399 H 0.37851 0.35324 0.65025 0.0
H1400 H 0.32113 0.29772 0.64214 0.0
H1401 H 0.30008 0.29416 0.67418 0.0
H1402 H 0.30283 0.28819 0.62919 0.0
H1403 H 0.28214 0.28476 0.66067 0.0
H1404 H 0.35682 0.2896 0.64794 0.0
H1405 H 0.35114 0.30998 0.62031 0.0
H1406 H 0.2965 0.33363 0.66935 0.0
H1407 H 0.30328 0.32468 0.63263 0.0
Li1408 Li 0.68101 0.02008 0.672 0.0
Li1409 Li 0.70097 0.02338 0.67485 0.0
Li1410 Li 0.69542 0.02924 0.65494 0.0
Li1411 Li 0.68822 0.00841 0.65979 0.0
C1412 C 0.69522 0.04504 0.67527 0.0
N1413 N 0.69327 0.06455 0.68145 0.0
C1414 C 0.69966 0.05097 0.68666 0.0
C1415 C 0.68999 0.04917 0.66694 0.0
C1416 C 0.69853 0.06077 0.68964 0.0
C1417 C 0.68904 0.05902 0.67025 0.0
C1418 C 0.68746 0.00476 0.68893 0.0
C1419 C 0.69652 0.99587 0.70077 0.0
N1420 N 0.69156 0.99724 0.71129 0.0
C1421 C 0.68236 0.00597 0.69983 0.0
C1422 C 0.69451 0.99957 0.68937 0.0
C1423 C 0.68457 0.00215 0.71105 0.0
C1424 C 0.65679 0.01101 0.67601 0.0
N1425 N 0.66778 0.01908 0.68031 0.0
C1426 C 0.6596 0.02459 0.69714 0.0
C1427 C 0.66935 0.02577 0.6907 0.0
C1428 C 0.64812 0.0164 0.69286 0.0
C1429 C 0.64678 0.00958 0.68212 0.0
H1430 H 0.65579 0.00558 0.66792 0.0
H1431 H 0.67817 0.03183 0.69416 0.0
C1432 C 0.72367 0.02928 0.68467 0.0
N1433 N 0.71297 0.02808 0.68726 0.0
C1434 C 0.73243 0.03318 0.69394 0.0
C1435 C 0.71892 0.03438 0.70831 0.0
C1436 C 0.71048 0.03053 0.69878 0.0
C1437 C 0.73012 0.03588 0.70594 0.0
H1438 H 0.72545 0.02737 0.67538 0.0
H1439 H 0.70192 0.02955 0.70055 0.0
C1440 C 0.67138 0.01606 0.64551 0.0
N1441 N 0.65606 0.01681 0.62832 0.0
C1442 C 0.66825 0.00906 0.63467 0.0
C1443 C 0.66654 0.02328 0.6477 0.0
C1444 C 0.66055 0.00961 0.62606 0.0
C1445 C 0.65885 0.02358 0.63888 0.0
C1446 C 0.70948 0.01633 0.6498 0.0
C1447 C 0.71092 0.01898 0.63716 0.0
C1448 C 0.71266 0.00843 0.65454 0.0
C1449 C 0.71535 0.01351 0.62941 0.0
C1450 C 0.71704 0.00314 0.64649 0.0
N1451 N 0.71828 0.00576 0.63419 0.0
C1452 C 0.70987 0.05195 0.64514 0.0
C1453 C 0.6959 0.03804 0.63068 0.0
C1454 C 0.71399 0.06087 0.6363 0.0
N1455 N 0.70088 0.04084 0.64224 0.0
C1456 C 0.69967 0.04669 0.6216 0.0
C1457 C 0.70877 0.0583 0.62439 0.0
H1458 H 0.71376 0.0539 0.65437 0.0
H1459 H 0.68905 0.02908 0.62845 0.0
C1460 C 0.67753 0.98362 0.66036 0.0
N1461 N 0.68303 0.99305 0.65273 0.0
C1462 C 0.67259 0.97209 0.65556 0.0
C1463 C 0.67919 0.98017 0.63514 0.0
C1464 C 0.68398 0.99155 0.64034 0.0
C1465 C 0.67325 0.97024 0.64276 0.0
H1466 H 0.67672 0.98502 0.67014 0.0
H1467 H 0.68814 0.99917 0.63441 0.0
O1468 O 0.69626 0.03541 0.67222 0.0
O1469 O 0.68552 0.00859 0.67788 0.0
O1470 O 0.6789 0.01559 0.65404 0.0
O1471 O 0.70508 0.02153 0.65751 0.0
H1472 H 0.70389 0.04802 0.69317 0.0
H1473 H 0.68683 0.04496 0.65794 0.0
H1474 H 0.70185 0.06539 0.69847 0.0
H1475 H 0.68498 0.06228 0.66389 0.0
H1476 H 0.70202 0.99191 0.70126 0.0
H1477 H 0.67682 0.00989 0.69964 0.0
H1478 H 0.69841 0.99846 0.68101 0.0
H1479 H 0.68075 0.0031 0.71957 0.0
H1480 H 0.66102 0.03004 0.70536 0.0
H1481 H 0.6381 0.003 0.67865 0.0
H1482 H 0.74097 0.03432 0.69166 0.0
H1483 H 0.71664 0.03613 0.71745 0.0
H1484 H 0.67179 0.00332 0.63286 0.0
H1485 H 0.66852 0.02846 0.65619 0.0
H1486 H 0.65813 0.00431 0.61759 0.0
H1487 H 0.65507 0.02915 0.64046 0.0
H1488 H 0.70856 0.02512 0.63335 0.0
H1489 H 0.71173 0.00639 0.66432 0.0
H1490 H 0.71644 0.01542 0.61959 0.0
H1491 H 0.71948 0.99695 0.65001 0.0
H1492 H 0.72101 0.06973 0.63883 0.0
H1493 H 0.69558 0.04428 0.61244 0.0
H1494 H 0.66821 0.9647 0.66181 0.0
H1495 H 0.67977 0.97915 0.6252 0.0
Li1496 Li 0.97538 0.67426 0.68511 0.0
Li1497 Li 0.97878 0.65775 0.68127 0.0
Li1498 Li 0.98981 0.67633 0.67002 0.0
Li1499 Li 0.9688 0.66265 0.66572 0.0
C1500 C 0.99349 0.67881 0.69948 0.0
N1501 N 0.99956 0.68894 0.72302 0.0
C1502 C 0.99124 0.67168 0.70985 0.0
C1503 C 0.99889 0.69109 0.70106 0.0
C1504 C 0.99437 0.67697 0.72168 0.0
C1505 C 0.00186 0.69604 0.71304 0.0
C1506 C 0.95163 0.65084 0.68136 0.0
C1507 C 0.93394 0.63335 0.67395 0.0
N1508 N 0.92748 0.63845 0.67713 0.0
C1509 C 0.94482 0.65591 0.68458 0.0
C1510 C 0.94615 0.63945 0.67605 0.0
C1511 C 0.93262 0.6495 0.68237 0.0
C1512 C 0.97148 0.69215 0.6955 0.0
N1513 N 0.97118 0.68179 0.69765 0.0
C1514 C 0.96374 0.68095 0.71809 0.0
C1515 C 0.96739 0.67614 0.70865 0.0
C1516 C 0.96387 0.69161 0.71615 0.0
C1517 C 0.96788 0.69726 0.70469 0.0
H1518 H 0.97435 0.69634 0.68659 0.0
H1519 H 0.9671 0.66783 0.71002 0.0
C1520 C 0.99131 0.64731 0.69052 0.0
N1521 N 0.98025 0.64559 0.68903 0.0
C1522 C 0.99295 0.63873 0.69623 0.0
C1523 C 0.97179 0.62686 0.69897 0.0
C1524 C 0.97056 0.63566 0.69316 0.0
C1525 C 0.98312 0.62833 0.70058 0.0
H1526 H 0.99886 0.65536 0.68725 0.0
H1527 H 0.96189 0.63462 0.69204 0.0
C1528 C 0.98215 0.68956 0.66039 0.0
N1529 N 0.99333 0.70854 0.64463 0.0
C1530 C 0.97928 0.68807 0.64771 0.0
C1531 C 0.99065 0.70071 0.66507 0.0
C1532 C 0.98505 0.69778 0.6399 0.0
C1533 C 0.99622 0.71019 0.65694 0.0
C1534 C 0.98574 0.65202 0.66094 0.0
C1535 C 0.99778 0.65597 0.65975 0.0
C1536 C 0.97751 0.63987 0.66036 0.0
C1537 C 0.0014 0.64768 0.65804 0.0
C1538 C 0.98148 0.63186 0.65868 0.0
N1539 N 0.99325 0.6359 0.65756 0.0
C1540 C 0.01445 0.69225 0.67022 0.0
C1541 C 0.00562 0.68727 0.65012 0.0
C1542 C 0.02567 0.69886 0.6651 0.0
N1543 N 0.00473 0.68658 0.66271 0.0
C1544 C 0.01668 0.69388 0.64459 0.0
C1545 C 0.0269 0.69963 0.65212 0.0
H1546 H 0.01352 0.69137 0.68019 0.0
H1547 H 0.99777 0.6824 0.64437 0.0
C1548 C 0.94892 0.6604 0.65288 0.0
N1549 N 0.95682 0.65659 0.65315 0.0
C1550 C 0.93995 0.65601 0.64385 0.0
C1551 C 0.94759 0.64403 0.63538 0.0
C1552 C 0.95638 0.64863 0.6446 0.0
C1553 C 0.93919 0.64768 0.63494 0.0
H1554 H 0.94957 0.66684 0.65974 0.0
H1555 H 0.96289 0.64591 0.64488 0.0
O1556 O 0.99036 0.67378 0.68783 0.0
O1557 O 0.96362 0.65706 0.68323 0.0
O1558 O 0.97672 0.68014 0.66817 0.0
O1559 O 0.98203 0.65998 0.66285 0.0
H1560 H 0.98702 0.66215 0.70881 0.0
H1561 H 0.00066 0.69673 0.69313 0.0
H1562 H 0.99264 0.67156 0.7298 0.0
H1563 H 0.00598 0.70553 0.71442 0.0
H1564 H 0.9296 0.62456 0.66976 0.0
H1565 H 0.9489 0.66474 0.68862 0.0
H1566 H 0.95131 0.63544 0.67339 0.0
H1567 H 0.92724 0.65333 0.68477 0.0
H1568 H 0.96088 0.67636 0.72682 0.0
H1569 H 0.96796 0.7054 0.70272 0.0
H1570 H 0.00182 0.6402 0.69713 0.0
H1571 H 0.96399 0.61908 0.70236 0.0
H1572 H 0.97276 0.67949 0.64393 0.0
H1573 H 0.99299 0.70201 0.67484 0.0
H1574 H 0.98295 0.69675 0.63006 0.0
H1575 H 0.00286 0.71886 0.66042 0.0
H1576 H 0.00429 0.66533 0.66024 0.0
H1577 H 0.96816 0.63665 0.66139 0.0
H1578 H 0.0107 0.65062 0.65715 0.0
H1579 H 0.97522 0.62243 0.6583 0.0
H1580 H 0.03333 0.70323 0.67122 0.0
H1581 H 0.01726 0.69411 0.63455 0.0
H1582 H 0.93363 0.65901 0.64392 0.0
H1583 H 0.94749 0.63782 0.62856 0.0
C1584 C 0.17881 0.26901 0.06936 0.0
C1585 C 0.18559 0.27882 0.07911 0.0
C1586 C 0.17806 0.27564 0.10007 0.0
C1587 C 0.18073 0.28709 0.10356 0.0
C1588 C 0.17392 0.28882 0.11247 0.0
C1589 C 0.16415 0.27885 0.11783 0.0
C1590 C 0.16177 0.26729 0.11467 0.0
C1591 C 0.16894 0.26586 0.10598 0.0
C1592 C 0.17693 0.30128 0.11582 0.0
C1593 C 0.15134 0.25642 0.12002 0.0
C1594 C 0.09406 0.29336 0.08466 0.0
C1595 C 0.09967 0.28731 0.09082 0.0
C1596 C 0.11683 0.29206 0.10398 0.0
C1597 C 0.11337 0.28021 0.10646 0.0
C1598 C 0.12051 0.27749 0.11381 0.0
C1599 C 0.13128 0.28678 0.11882 0.0
C1600 C 0.1347 0.2987 0.1165 0.0
C1601 C 0.12741 0.30118 0.1091 0.0
C1602 C 0.11663 0.26468 0.11614 0.0
C1603 C 0.14611 0.30882 0.12173 0.0
C1604 C 0.10807 0.27874 0.19821 0.0
C1605 C 0.10645 0.26816 0.19279 0.0
C1606 C 0.1157 0.26794 0.18651 0.0
C1607 C 0.1268 0.27849 0.18559 0.0
C1608 C 0.12854 0.28909 0.19122 0.0
C1609 C 0.11914 0.28906 0.19747 0.0
C1610 C 0.11357 0.25646 0.18065 0.0
C1611 C 0.14027 0.30048 0.19044 0.0
C1612 C 0.20216 0.26583 0.19169 0.0
C1613 C 0.19912 0.27382 0.19943 0.0
C1614 C 0.17897 0.26998 0.19687 0.0
C1615 C 0.16792 0.26042 0.19342 0.0
C1616 C 0.15943 0.26224 0.18749 0.0
C1617 C 0.16204 0.27394 0.1852 0.0
C1618 C 0.17297 0.28367 0.1893 0.0
C1619 C 0.18132 0.28159 0.19513 0.0
C1620 C 0.14779 0.25167 0.1834 0.0
C1621 C 0.17587 0.29625 0.18732 0.0
C1622 C 0.15573 0.28046 0.12564 0.0
C1623 C 0.1477 0.28274 0.1195 0.0
C1624 C 0.13924 0.28404 0.12604 0.0
C1625 C 0.13854 0.28281 0.13909 0.0
C1626 C 0.1299 0.28373 0.14592 0.0
C1627 C 0.12918 0.28233 0.15874 0.0
C1628 C 0.13715 0.28008 0.16525 0.0
C1629 C 0.13639 0.2785 0.17827 0.0
C1630 C 0.14461 0.27656 0.1845 0.0
C1631 C 0.15356 0.27599 0.17804 0.0
C1632 C 0.1543 0.27728 0.16497 0.0
C1633 C 0.16305 0.27653 0.15814 0.0
C1634 C 0.1636 0.27766 0.14527 0.0
C1635 C 0.15542 0.27955 0.13874 0.0
C1636 C 0.14668 0.28058 0.14546 0.0
C1637 C 0.14606 0.27934 0.15857 0.0
C1638 C 0.08058 0.26869 0.19339 0.0
C1639 C 0.0876 0.2706 0.20549 0.0
O1640 O 0.18391 0.27381 0.09074 0.0
O1641 O 0.18711 0.26771 0.20192 0.0
O1642 O 0.09928 0.27949 0.20409 0.0
O1643 O 0.11032 0.29509 0.0967 0.0
H1644 H 0.18182 0.28477 0.07869 0.0
H1645 H 0.1692 0.26433 0.0714 0.0
H1646 H 0.18179 0.26242 0.06941 0.0
H1647 H 0.18014 0.27283 0.05993 0.0
H1648 H 0.18803 0.29466 0.09917 0.0
H1649 H 0.16706 0.25706 0.10326 0.0
H1650 H 0.17041 0.30312 0.11132 0.0
H1651 H 0.18591 0.30798 0.11267 0.0
H1652 H 0.17642 0.30228 0.12603 0.0
H1653 H 0.1502 0.24807 0.11589 0.0
H1654 H 0.14309 0.25667 0.11841 0.0
H1655 H 0.15257 0.25631 0.13021 0.0
H1656 H 0.1001 0.28043 0.08499 0.0
H1657 H 0.07848 0.28775 0.09469 0.0
H1658 H 0.09402 0.29135 0.07444 0.0
H1659 H 0.10113 0.30297 0.08393 0.0
H1660 H 0.10515 0.27306 0.10264 0.0
H1661 H 0.12998 0.31028 0.10718 0.0
H1662 H 0.12328 0.26265 0.11235 0.0
H1663 H 0.10788 0.25848 0.11181 0.0
H1664 H 0.11611 0.26313 0.1263 0.0
H1665 H 0.14734 0.31761 0.11938 0.0
H1666 H 0.1537 0.30822 0.11804 0.0
H1667 H 0.14628 0.30816 0.13201 0.0
H1668 H 0.08722 0.26218 0.20795 0.0
H1669 H 0.09799 0.26005 0.19329 0.0
H1670 H 0.12035 0.29717 0.20171 0.0
H1671 H 0.11434 0.25737 0.1704 0.0
H1672 H 0.1047 0.24886 0.18283 0.0
H1673 H 0.12041 0.25447 0.18392 0.0
H1674 H 0.14023 0.30798 0.19535 0.0
H1675 H 0.14251 0.30281 0.18054 0.0
H1676 H 0.14735 0.29925 0.19455 0.0
H1677 H 0.20159 0.28173 0.19368 0.0
H1678 H 0.21179 0.2705 0.18975 0.0
H1679 H 0.19727 0.26353 0.18268 0.0
H1680 H 0.19964 0.25748 0.19661 0.0
H1681 H 0.16611 0.2515 0.19504 0.0
H1682 H 0.18966 0.28903 0.19835 0.0
H1683 H 0.14676 0.25176 0.17316 0.0
H1684 H 0.14038 0.25219 0.18771 0.0
H1685 H 0.14708 0.24313 0.18596 0.0
H1686 H 0.18446 0.30285 0.1917 0.0
H1687 H 0.16877 0.29756 0.19123 0.0
H1688 H 0.17629 0.29797 0.1772 0.0
H1689 H 0.14803 0.28351 0.10946 0.0
H1690 H 0.12355 0.28545 0.1414 0.0
H1691 H 0.12231 0.28306 0.16349 0.0
H1692 H 0.144 0.27539 0.19449 0.0
H1693 H 0.16954 0.27501 0.16265 0.0
H1694 H 0.17051 0.277 0.14049 0.0
H1695 H 0.07116 0.26176 0.19465 0.0
H1696 H 0.08418 0.26572 0.18575 0.0
H1697 H 0.08104 0.27704 0.19056 0.0
C1698 C 0.74559 0.9304 0.10396 0.0
C1699 C 0.73427 0.91947 0.09908 0.0
C1700 C 0.72652 0.90397 0.1149 0.0
C1701 C 0.71645 0.89687 0.12185 0.0
C1702 C 0.71521 0.88703 0.12823 0.0
C1703 C 0.72449 0.8845 0.12795 0.0
C1704 C 0.73481 0.89176 0.12107 0.0
C1705 C 0.73569 0.90138 0.11453 0.0
C1706 C 0.70396 0.87935 0.13524 0.0
C1707 C 0.74493 0.88938 0.12069 0.0
C1708 C 0.7093 0.79808 0.09336 0.0
C1709 C 0.71542 0.81003 0.09941 0.0
C1710 C 0.71076 0.82343 0.11079 0.0
C1711 C 0.72252 0.83152 0.11439 0.0
C1712 C 0.72524 0.84145 0.1219 0.0
C1713 C 0.71603 0.84324 0.12604 0.0
C1714 C 0.70419 0.8351 0.12249 0.0
C1715 C 0.70172 0.82531 0.11485 0.0
C1716 C 0.73799 0.85006 0.12539 0.0
C1717 C 0.69416 0.83674 0.12677 0.0
C1718 C 0.72416 0.8249 0.20386 0.0
C1719 C 0.73483 0.83361 0.19862 0.0
C1720 C 0.73564 0.84362 0.19304 0.0
C1721 C 0.72559 0.84496 0.19265 0.0
C1722 C 0.71491 0.83634 0.19809 0.0
C1723 C 0.71435 0.82642 0.20364 0.0
C1724 C 0.74718 0.85269 0.18735 0.0
C1725 C 0.70404 0.8375 0.19781 0.0
C1726 C 0.75166 0.93872 0.20425 0.0
C1727 C 0.74129 0.92686 0.20837 0.0
C1728 C 0.74153 0.9084 0.20649 0.0
C1729 C 0.74974 0.90487 0.20399 0.0
C1730 C 0.74629 0.89403 0.19789 0.0
C1731 C 0.73425 0.88643 0.19456 0.0
C1732 C 0.72577 0.88962 0.19787 0.0
C1733 C 0.72951 0.90063 0.20373 0.0
C1734 C 0.75557 0.89088 0.19466 0.0
C1735 C 0.7128 0.88153 0.19493 0.0
C1736 C 0.72337 0.87422 0.13481 0.0
C1737 C 0.72018 0.86381 0.12807 0.0
C1738 C 0.71883 0.85375 0.13393 0.0
C1739 C 0.72047 0.85394 0.14695 0.0
C1740 C 0.71894 0.84389 0.15319 0.0
C1741 C 0.72075 0.84422 0.16598 0.0
C1742 C 0.72412 0.85461 0.17303 0.0
C1743 C 0.72615 0.85509 0.18601 0.0
C1744 C 0.72925 0.86547 0.1928 0.0
C1745 C 0.73068 0.87557 0.18691 0.0
C1746 C 0.72899 0.87536 0.17388 0.0
C1747 C 0.73075 0.88548 0.16758 0.0
C1748 C 0.72897 0.88515 0.1548 0.0
C1749 C 0.72536 0.87469 0.14779 0.0
C1750 C 0.72377 0.86447 0.1539 0.0
C1751 C 0.72558 0.8648 0.16695 0.0
C1752 C 0.73214 0.8061 0.19744 0.0
C1753 C 0.73117 0.81136 0.20991 0.0
O1754 O 0.72704 0.91328 0.10889 0.0
O1755 O 0.74548 0.91938 0.21147 0.0
O1756 O 0.72284 0.81488 0.20906 0.0
O1757 O 0.70777 0.81374 0.10347 0.0
H1758 H 0.73673 0.91372 0.0937 0.0
H1759 H 0.75067 0.92769 0.10997 0.0
H1760 H 0.74346 0.93628 0.10954 0.0
H1761 H 0.75128 0.93547 0.09608 0.0
H1762 H 0.70945 0.89897 0.12211 0.0
H1763 H 0.74361 0.9069 0.10932 0.0
H1764 H 0.70036 0.86987 0.1327 0.0
H1765 H 0.69707 0.8817 0.13333 0.0
H1766 H 0.70589 0.88038 0.14537 0.0
H1767 H 0.7528 0.8965 0.11596 0.0
H1768 H 0.74206 0.88087 0.11566 0.0
H1769 H 0.74753 0.8885 0.13028 0.0
H1770 H 0.72311 0.81697 0.0942 0.0
H1771 H 0.71244 0.7997 0.08347 0.0
H1772 H 0.70005 0.79598 0.09097 0.0
H1773 H 0.7128 0.78775 0.10542 0.0
H1774 H 0.72962 0.83019 0.11133 0.0
H1775 H 0.69269 0.81903 0.11204 0.0
H1776 H 0.74038 0.85918 0.12274 0.0
H1777 H 0.74419 0.84779 0.12083 0.0
H1778 H 0.73917 0.85011 0.13562 0.0
H1779 H 0.68538 0.82927 0.12377 0.0
H1780 H 0.69526 0.84508 0.12296 0.0
H1781 H 0.69436 0.83757 0.13707 0.0
H1782 H 0.73995 0.8191 0.21249 0.0
H1783 H 0.74255 0.83266 0.19869 0.0
H1784 H 0.70617 0.81969 0.20772 0.0
H1785 H 0.74596 0.85292 0.17716 0.0
H1786 H 0.75438 0.85074 0.18904 0.0
H1787 H 0.74996 0.86165 0.19121 0.0
H1788 H 0.69644 0.83011 0.20261 0.0
H1789 H 0.70143 0.83766 0.18802 0.0
H1790 H 0.70605 0.84601 0.20232 0.0
H1791 H 0.73508 0.92319 0.20026 0.0
H1792 H 0.74851 0.94488 0.20172 0.0
H1793 H 0.75585 0.9373 0.19596 0.0
H1794 H 0.75844 0.94288 0.21177 0.0
H1795 H 0.75896 0.91086 0.20638 0.0
H1796 H 0.72308 0.90318 0.20612 0.0
H1797 H 0.75526 0.88899 0.18453 0.0
H1798 H 0.75369 0.88272 0.1996 0.0
H1799 H 0.76464 0.89807 0.19725 0.0
H1800 H 0.70718 0.88442 0.19976 0.0
H1801 H 0.70994 0.87231 0.19762 0.0
H1802 H 0.7113 0.88147 0.18476 0.0
H1803 H 0.71881 0.86357 0.11808 0.0
H1804 H 0.71634 0.83565 0.14825 0.0
H1805 H 0.71945 0.83622 0.17026 0.0
H1806 H 0.73076 0.86575 0.20275 0.0
H1807 H 0.73355 0.89379 0.17245 0.0
H1808 H 0.73047 0.89321 0.15047 0.0
H1809 H 0.73862 0.80304 0.19824 0.0
H1810 H 0.73522 0.81285 0.19008 0.0
H1811 H 0.72342 0.79848 0.19451 0.0
C1812 C 0.1761 0.90527 0.08203 0.0
C1813 C 0.18536 0.90918 0.09253 0.0
C1814 C 0.17431 0.89349 0.10772 0.0
C1815 C 0.16649 0.89732 0.11144 0.0
C1816 C 0.15694 0.89037 0.11924 0.0
C1817 C 0.15521 0.87942 0.12345 0.0
C1818 C 0.16328 0.87573 0.12008 0.0
C1819 C 0.17276 0.88286 0.11229 0.0
C1820 C 0.14855 0.8946 0.12278 0.0
C1821 C 0.16172 0.86412 0.12445 0.0
C1822 C 0.08017 0.83183 0.07615 0.0
C1823 C 0.0875 0.82828 0.08414 0.0
C1824 C 0.09447 0.83519 0.10517 0.0
C1825 C 0.10348 0.83247 0.1062 0.0
C1826 C 0.11283 0.83862 0.11476 0.0
C1827 C 0.11332 0.84791 0.12215 0.0
C1828 C 0.10411 0.85055 0.12118 0.0
C1829 C 0.09462 0.84389 0.11293 0.0
C1830 C 0.12231 0.83534 0.11567 0.0
C1831 C 0.10443 0.86064 0.1285 0.0
C1832 C 0.09114 0.83085 0.20118 0.0
C1833 C 0.09964 0.82771 0.19825 0.0
C1834 C 0.11027 0.83582 0.19254 0.0
C1835 C 0.11243 0.84728 0.18972 0.0
C1836 C 0.1041 0.85062 0.19318 0.0
C1837 C 0.0936 0.84237 0.199 0.0
C1838 C 0.11914 0.83211 0.18933 0.0
C1839 C 0.10618 0.86281 0.19046 0.0
C1840 C 0.19219 0.92628 0.20108 0.0
C1841 C 0.18636 0.91941 0.2129 0.0
C1842 C 0.17282 0.89921 0.20464 0.0
C1843 C 0.17135 0.88793 0.20302 0.0
C1844 C 0.16174 0.87902 0.19618 0.0
C1845 C 0.15333 0.88147 0.19091 0.0
C1846 C 0.15461 0.8928 0.1927 0.0
C1847 C 0.16437 0.90158 0.19949 0.0
C1848 C 0.16065 0.86705 0.19443 0.0
C1849 C 0.14571 0.89566 0.18734 0.0
C1850 C 0.14453 0.87144 0.13067 0.0
C1851 C 0.13431 0.86357 0.12399 0.0
C1852 C 0.12394 0.85552 0.13003 0.0
C1853 C 0.12376 0.8552 0.14317 0.0
C1854 C 0.11367 0.84692 0.14958 0.0
C1855 C 0.11344 0.84699 0.16252 0.0
C1856 C 0.12335 0.85528 0.16955 0.0
C1857 C 0.12313 0.85559 0.1827 0.0
C1858 C 0.13306 0.86409 0.18938 0.0
C1859 C 0.14333 0.8723 0.18329 0.0
C1860 C 0.14381 0.87197 0.17016 0.0
C1861 C 0.1541 0.87992 0.16374 0.0
C1862 C 0.1544 0.87969 0.15081 0.0
C1863 C 0.1444 0.87158 0.1438 0.0
C1864 C 0.13398 0.86341 0.15007 0.0
C1865 C 0.13373 0.86352 0.16327 0.0
C1866 C 0.06221 0.80887 0.19686 0.0
C1867 C 0.07372 0.81112 0.203 0.0
O1868 O 0.1833 0.89957 0.09964 0.0
O1869 O 0.18253 0.90747 0.21112 0.0
O1870 O 0.08055 0.82305 0.20619 0.0
O1871 O 0.08568 0.82972 0.09657 0.0
H1872 H 0.18498 0.91597 0.09853 0.0
H1873 H 0.1671 0.90168 0.08587 0.0
H1874 H 0.17614 0.89827 0.0761 0.0
H1875 H 0.17798 0.91294 0.07615 0.0
H1876 H 0.16765 0.90562 0.10819 0.0
H1877 H 0.17888 0.88001 0.10947 0.0
H1878 H 0.13961 0.88837 0.11888 0.0
H1879 H 0.15147 0.90363 0.11934 0.0
H1880 H 0.14775 0.89466 0.13306 0.0
H1881 H 0.16897 0.86269 0.12133 0.0
H1882 H 0.15318 0.85669 0.12086 0.0
H1883 H 0.16138 0.86387 0.13476 0.0
H1884 H 0.09696 0.83437 0.08175 0.0
H1885 H 0.0816 0.83092 0.06611 0.0
H1886 H 0.08288 0.84123 0.07815 0.0
H1887 H 0.07059 0.82619 0.07817 0.0
H1888 H 0.1032 0.82554 0.10031 0.0
H1889 H 0.08755 0.84584 0.11205 0.0
H1890 H 0.12479 0.83526 0.12553 0.0
H1891 H 0.13033 0.84204 0.11079 0.0
H1892 H 0.11942 0.82651 0.11134 0.0
H1893 H 0.09783 0.86288 0.12497 0.0
H1894 H 0.11335 0.8687 0.12816 0.0
H1895 H 0.10243 0.85812 0.13838 0.0
H1896 H 0.07823 0.8085 0.19598 0.0
H1897 H 0.098 0.81896 0.20046 0.0
H1898 H 0.08708 0.84477 0.20152 0.0
H1899 H 0.11992 0.83185 0.17907 0.0
H1900 H 0.11659 0.82324 0.19299 0.0
H1901 H 0.128 0.83871 0.19314 0.0
H1902 H 0.09874 0.86396 0.19356 0.0
H1903 H 0.10739 0.86442 0.18031 0.0
H1904 H 0.11442 0.86962 0.19521 0.0
H1905 H 0.17872 0.9205 0.21531 0.0
H1906 H 0.19536 0.93586 0.20255 0.0
H1907 H 0.18576 0.92299 0.19321 0.0
H1908 H 0.19981 0.92523 0.19849 0.0
H1909 H 0.17788 0.88616 0.20704 0.0
H1910 H 0.16529 0.91023 0.20065 0.0
H1911 H 0.1604 0.86497 0.18435 0.0
H1912 H 0.15222 0.86011 0.19847 0.0
H1913 H 0.16809 0.86663 0.19887 0.0
H1914 H 0.14748 0.90458 0.1903 0.0
H1915 H 0.13665 0.88894 0.19024 0.0
H1916 H 0.14592 0.89531 0.17703 0.0
H1917 H 0.13441 0.86376 0.1139 0.0
H1918 H 0.10579 0.84033 0.14466 0.0
H1919 H 0.10536 0.84049 0.16693 0.0
H1920 H 0.13275 0.8644 0.19945 0.0
H1921 H 0.16203 0.88642 0.16864 0.0
H1922 H 0.16253 0.88604 0.14636 0.0
H1923 H 0.05654 0.79934 0.19428 0.0
H1924 H 0.06423 0.81415 0.18827 0.0
H1925 H 0.05723 0.8115 0.20322 0.0
C1926 C 0.2817 0.10676 0.93544 0.0
C1927 C 0.28359 0.09979 0.92501 0.0
C1928 C 0.28683 0.11306 0.90756 0.0
C1929 C 0.27495 0.10989 0.90571 0.0
C1930 C 0.27196 0.11647 0.89784 0.0
C1931 C 0.28102 0.12649 0.8918 0.0
C1932 C 0.29296 0.12952 0.8934 0.0
C1933 C 0.29567 0.12266 0.90114 0.0
C1934 C 0.25913 0.11288 0.89619 0.0
C1935 C 0.30288 0.14022 0.88722 0.0
C1936 C 0.25753 0.1751 0.94009 0.0
C1937 C 0.26773 0.17961 0.93091 0.0
C1938 C 0.26601 0.17131 0.91017 0.0
C1939 C 0.27777 0.17426 0.90833 0.0
C1940 C 0.2805 0.16786 0.89974 0.0
C1941 C 0.27124 0.15816 0.89307 0.0
C1942 C 0.25939 0.15538 0.89473 0.0
C1943 C 0.25698 0.16221 0.90307 0.0
C1944 C 0.29326 0.1713 0.89801 0.0
C1945 C 0.2492 0.14493 0.88809 0.0
C1946 C 0.2645 0.17437 0.81441 0.0
C1947 C 0.27618 0.17738 0.81716 0.0
C1948 C 0.27859 0.16917 0.82269 0.0
C1949 C 0.26913 0.15774 0.82553 0.0
C1950 C 0.25741 0.15451 0.8222 0.0
C1951 C 0.25527 0.16286 0.81654 0.0
C1952 C 0.29123 0.17276 0.82575 0.0
C1953 C 0.24713 0.14236 0.82492 0.0
C1954 C 0.26548 0.07735 0.81239 0.0
C1955 C 0.26859 0.0855 0.80118 0.0
C1956 C 0.27624 0.10533 0.81078 0.0
C1957 C 0.28647 0.11623 0.81323 0.0
C1958 C 0.28604 0.12525 0.81999 0.0
C1959 C 0.27505 0.12328 0.82441 0.0
C1960 C 0.26462 0.11233 0.82185 0.0
C1961 C 0.2653 0.10347 0.81506 0.0
C1962 C 0.29732 0.13682 0.82256 0.0
C1963 C 0.25275 0.10997 0.82642 0.0
C1964 C 0.27812 0.13429 0.88458 0.0
C1965 C 0.27627 0.14243 0.89124 0.0
C1966 C 0.27383 0.15035 0.88519 0.0
C1967 C 0.27348 0.15036 0.87205 0.0
C1968 C 0.27159 0.15855 0.86562 0.0
C1969 C 0.27093 0.15827 0.8527 0.0
C1970 C 0.27221 0.14983 0.84569 0.0
C1971 C 0.27141 0.14939 0.83255 0.0
C1972 C 0.27253 0.14077 0.82589 0.0
C1973 C 0.27447 0.13253 0.832 0.0
C1974 C 0.27548 0.13295 0.84513 0.0
C1975 C 0.27757 0.12488 0.85156 0.0
C1976 C 0.27848 0.12532 0.86448 0.0
C1977 C 0.27726 0.13379 0.87146 0.0
C1978 C 0.27503 0.14193 0.86517 0.0
C1979 C 0.27428 0.1416 0.85198 0.0
C1980 C 0.25805 0.19647 0.81937 0.0
C1981 C 0.26718 0.1942 0.8131 0.0
O1982 O 0.2902 0.10731 0.91554 0.0
O1983 O 0.2774 0.09693 0.80439 0.0
O1984 O 0.26183 0.18231 0.80967 0.0
O1985 O 0.26312 0.17694 0.91891 0.0
H1986 H 0.27487 0.09278 0.92125 0.0
H1987 H 0.2766 0.1108 0.93195 0.0
H1988 H 0.29035 0.11395 0.93916 0.0
H1989 H 0.27663 0.10077 0.94314 0.0
H1990 H 0.26795 0.10237 0.91043 0.0
H1991 H 0.30479 0.12499 0.90255 0.0
H1992 H 0.25752 0.11954 0.90085 0.0
H1993 H 0.25306 0.10406 0.90018 0.0
H1994 H 0.25696 0.11264 0.88616 0.0
H1995 H 0.31173 0.1417 0.88989 0.0
H1996 H 0.30248 0.14826 0.88977 0.0
H1997 H 0.30185 0.13905 0.87697 0.0
H1998 H 0.27257 0.17485 0.93296 0.0
H1999 H 0.26099 0.17702 0.94981 0.0
H2000 H 0.25171 0.16535 0.93891 0.0
H2001 H 0.25215 0.17934 0.93848 0.0
H2002 H 0.28478 0.18153 0.91366 0.0
H2003 H 0.24795 0.1601 0.90453 0.0
H2004 H 0.2949 0.16471 0.90261 0.0
H2005 H 0.29946 0.1802 0.90209 0.0
H2006 H 0.29522 0.17127 0.88797 0.0
H2007 H 0.24049 0.143 0.89172 0.0
H2008 H 0.24993 0.13688 0.88904 0.0
H2009 H 0.24946 0.1468 0.87803 0.0
H2010 H 0.27432 0.19659 0.82015 0.0
H2011 H 0.28341 0.18613 0.81498 0.0
H2012 H 0.24631 0.16057 0.81415 0.0
H2013 H 0.29244 0.17313 0.836 0.0
H2014 H 0.29766 0.18156 0.82196 0.0
H2015 H 0.29324 0.16604 0.82198 0.0
H2016 H 0.23851 0.14131 0.82197 0.0
H2017 H 0.24685 0.14067 0.83504 0.0
H2018 H 0.24833 0.13553 0.82001 0.0
H2019 H 0.26055 0.08556 0.79797 0.0
H2020 H 0.25855 0.06816 0.80974 0.0
H2021 H 0.26201 0.08042 0.82007 0.0
H2022 H 0.27342 0.07727 0.81588 0.0
H2023 H 0.29487 0.11761 0.8099 0.0
H2024 H 0.25726 0.09512 0.81327 0.0
H2025 H 0.29888 0.13823 0.83276 0.0
H2026 H 0.29648 0.14428 0.81897 0.0
H2027 H 0.30513 0.13708 0.81824 0.0
H2028 H 0.24542 0.10105 0.82354 0.0
H2029 H 0.25088 0.11675 0.82277 0.0
H2030 H 0.25294 0.11068 0.83673 0.0
H2031 H 0.27666 0.14255 0.90133 0.0
H2032 H 0.27056 0.16524 0.87053 0.0
H2033 H 0.26936 0.16474 0.84828 0.0
H2034 H 0.27176 0.14039 0.81582 0.0
H2035 H 0.27855 0.11814 0.84669 0.0
H2036 H 0.28009 0.11889 0.86894 0.0
H2037 H 0.26212 0.20598 0.8221 0.0
H2038 H 0.25475 0.19109 0.8279 0.0
H2039 H 0.25039 0.19399 0.81306 0.0
C2040 C 0.8301 0.0833 0.94184 0.0
C2041 C 0.82479 0.08873 0.93334 0.0
C2042 C 0.83081 0.09416 0.91207 0.0
C2043 C 0.82772 0.10284 0.91034 0.0
C2044 C 0.83368 0.11183 0.90165 0.0
C2045 C 0.84312 0.11228 0.89482 0.0
C2046 C 0.846 0.10328 0.89633 0.0
C2047 C 0.83957 0.09415 0.90474 0.0
C2048 C 0.83013 0.12106 0.90013 0.0
C2049 C 0.85618 0.10356 0.88951 0.0
C2050 C 0.91454 0.1995 0.92675 0.0
C2051 C 0.90889 0.18788 0.92003 0.0
C2052 C 0.89013 0.17394 0.90972 0.0
C2053 C 0.89398 0.16641 0.90496 0.0
C2054 C 0.88643 0.15646 0.89756 0.0
C2055 C 0.87489 0.15411 0.89469 0.0
C2056 C 0.87106 0.16176 0.89933 0.0
C2057 C 0.87873 0.17154 0.90686 0.0
C2058 C 0.89074 0.14839 0.8929 0.0
C2059 C 0.85884 0.15955 0.89639 0.0
C2060 C 0.89597 0.171 0.81505 0.0
C2061 C 0.89788 0.1623 0.82029 0.0
C2062 C 0.88877 0.15261 0.82647 0.0
C2063 C 0.87753 0.15159 0.82749 0.0
C2064 C 0.87552 0.1602 0.82208 0.0
C2065 C 0.88478 0.16979 0.81591 0.0
C2066 C 0.8912 0.14352 0.83207 0.0
C2067 C 0.86366 0.15939 0.82304 0.0
C2068 C 0.80586 0.05919 0.81726 0.0
C2069 C 0.8086 0.07107 0.81186 0.0
C2070 C 0.82807 0.08873 0.81513 0.0
C2071 C 0.83961 0.09159 0.81811 0.0
C2072 C 0.84745 0.10231 0.82424 0.0
C2073 C 0.84368 0.11044 0.82722 0.0
C2074 C 0.83222 0.10788 0.82361 0.0
C2075 C 0.82452 0.09703 0.81758 0.0
C2076 C 0.85966 0.10483 0.82779 0.0
C2077 C 0.82807 0.11652 0.8263 0.0
C2078 C 0.85077 0.12281 0.8872 0.0
C2079 C 0.85877 0.13325 0.89356 0.0
C2080 C 0.86668 0.14343 0.88719 0.0
C2081 C 0.86682 0.14322 0.87406 0.0
C2082 C 0.87483 0.15324 0.86736 0.0
C2083 C 0.87521 0.1528 0.85445 0.0
C2084 C 0.86748 0.14237 0.84773 0.0
C2085 C 0.86807 0.14172 0.83464 0.0
C2086 C 0.86008 0.13131 0.82821 0.0
C2087 C 0.85157 0.12139 0.83454 0.0
C2088 C 0.851 0.12178 0.84767 0.0
C2089 C 0.84271 0.11189 0.85437 0.0
C2090 C 0.84246 0.11226 0.86731 0.0
C2091 C 0.85057 0.12249 0.87404 0.0
C2092 C 0.85877 0.13269 0.86746 0.0
C2093 C 0.85903 0.13231 0.85427 0.0
C2094 C 0.92336 0.18951 0.81985 0.0
C2095 C 0.91637 0.18391 0.80777 0.0
O2096 O 0.82577 0.08598 0.92108 0.0
O2097 O 0.82067 0.07792 0.80988 0.0
O2098 O 0.90461 0.1807 0.80922 0.0
O2099 O 0.89708 0.18353 0.91711 0.0
H2100 H 0.8301 0.09852 0.93499 0.0
H2101 H 0.8396 0.08702 0.93965 0.0
H2102 H 0.82547 0.07352 0.94051 0.0
H2103 H 0.82943 0.08541 0.95174 0.0
H2104 H 0.82074 0.10265 0.91588 0.0
H2105 H 0.8418 0.08732 0.90615 0.0
H2106 H 0.83657 0.12928 0.90524 0.0
H2107 H 0.82119 0.11806 0.9039 0.0
H2108 H 0.83024 0.12327 0.89018 0.0
H2109 H 0.85828 0.09688 0.89305 0.0
H2110 H 0.86423 0.11248 0.89041 0.0
H2111 H 0.85393 0.10169 0.87948 0.0
H2112 H 0.91059 0.18111 0.92421 0.0
H2113 H 0.91703 0.19765 0.93613 0.0
H2114 H 0.90716 0.20072 0.9304 0.0
H2115 H 0.92713 0.21116 0.91421 0.0
H2116 H 0.90281 0.16817 0.90706 0.0
H2117 H 0.87585 0.1774 0.91054 0.0
H2118 H 0.88451 0.13913 0.89569 0.0
H2119 H 0.89972 0.15107 0.89651 0.0
H2120 H 0.89098 0.14847 0.88258 0.0
H2121 H 0.85755 0.16685 0.89985 0.0
H2122 H 0.85214 0.15117 0.90073 0.0
H2123 H 0.85722 0.15849 0.88619 0.0
H2124 H 0.91696 0.17595 0.8053 0.0
H2125 H 0.90644 0.16301 0.81975 0.0
H2126 H 0.88336 0.1765 0.81183 0.0
H2127 H 0.8905 0.14374 0.84235 0.0
H2128 H 0.90014 0.14512 0.82975 0.0
H2129 H 0.88449 0.1345 0.82874 0.0
H2130 H 0.86351 0.16683 0.81836 0.0
H2131 H 0.86139 0.1594 0.83298 0.0
H2132 H 0.85671 0.1509 0.81877 0.0
H2133 H 0.80567 0.0753 0.81895 0.0
H2134 H 0.7962 0.05349 0.81882 0.0
H2135 H 0.81054 0.06073 0.82632 0.0
H2136 H 0.80882 0.05446 0.8109 0.0
H2137 H 0.84233 0.08521 0.81596 0.0
H2138 H 0.81576 0.09508 0.81478 0.0
H2139 H 0.86105 0.1064 0.83799 0.0
H2140 H 0.8664 0.11302 0.82318 0.0
H2141 H 0.86112 0.09745 0.8251 0.0
H2142 H 0.81925 0.11362 0.82209 0.0
H2143 H 0.83455 0.12539 0.82271 0.0
H2144 H 0.82754 0.11748 0.83651 0.0
H2145 H 0.85892 0.13343 0.90366 0.0
H2146 H 0.88102 0.16149 0.87204 0.0
H2147 H 0.88167 0.16074 0.84981 0.0
H2148 H 0.86065 0.13085 0.81818 0.0
H2149 H 0.83635 0.10371 0.8497 0.0
H2150 H 0.83591 0.10439 0.87198 0.0
H2151 H 0.92273 0.19737 0.82267 0.0
H2152 H 0.93283 0.19228 0.81859 0.0
H2153 H 0.91986 0.18304 0.8275 0.0
C2154 C 0.8243 0.7221 0.93786 0.0
C2155 C 0.81525 0.71924 0.92735 0.0
C2156 C 0.82542 0.71542 0.91027 0.0
C2157 C 0.83407 0.7273 0.90819 0.0
C2158 C 0.84372 0.73014 0.90045 0.0
C2159 C 0.84476 0.72092 0.89473 0.0
C2160 C 0.83588 0.70897 0.89648 0.0
C2161 C 0.82626 0.7064 0.90415 0.0
C2162 C 0.85296 0.74298 0.89862 0.0
C2163 C 0.83674 0.69893 0.89055 0.0
C2164 C 0.90972 0.74122 0.94667 0.0
C2165 C 0.90662 0.73148 0.93685 0.0
C2166 C 0.90288 0.73441 0.91553 0.0
C2167 C 0.89445 0.7228 0.91189 0.0
C2168 C 0.88609 0.72066 0.90253 0.0
C2169 C 0.88607 0.73036 0.89687 0.0
C2170 C 0.89492 0.7421 0.90018 0.0
C2171 C 0.90338 0.74395 0.90932 0.0
C2172 C 0.877 0.70803 0.89905 0.0
C2173 C 0.89508 0.75268 0.89455 0.0
C2174 C 0.91208 0.74207 0.81895 0.0
C2175 C 0.90381 0.7301 0.82109 0.0
C2176 C 0.89278 0.72679 0.82633 0.0
C2177 C 0.89003 0.73565 0.82954 0.0
C2178 C 0.89815 0.74765 0.82685 0.0
C2179 C 0.90903 0.75068 0.82144 0.0
C2180 C 0.88416 0.71388 0.82867 0.0
C2181 C 0.89545 0.7573 0.83 0.0
C2182 C 0.80973 0.73226 0.82027 0.0
C2183 C 0.81502 0.73147 0.80784 0.0
C2184 C 0.82909 0.72533 0.81463 0.0
C2185 C 0.83073 0.71562 0.81563 0.0
C2186 C 0.84047 0.71654 0.82213 0.0
C2187 C 0.84883 0.72752 0.82769 0.0
C2188 C 0.84745 0.7375 0.8264 0.0
C2189 C 0.83758 0.73631 0.81991 0.0
C2190 C 0.8417 0.70574 0.82332 0.0
C2191 C 0.85629 0.74937 0.8321 0.0
C2192 C 0.85558 0.72375 0.88771 0.0
C2193 C 0.86543 0.72554 0.89454 0.0
C2194 C 0.876 0.72824 0.88871 0.0
C2195 C 0.87678 0.7291 0.87562 0.0
C2196 C 0.88718 0.73159 0.86941 0.0
C2197 C 0.88793 0.73271 0.85654 0.0
C2198 C 0.87826 0.73124 0.84937 0.0
C2199 C 0.87898 0.73247 0.8363 0.0
C2200 C 0.86922 0.73105 0.82948 0.0
C2201 C 0.85871 0.72844 0.83538 0.0
C2202 C 0.85779 0.72709 0.84843 0.0
C2203 C 0.84731 0.7244 0.85465 0.0
C2204 C 0.84655 0.72328 0.86751 0.0
C2205 C 0.85623 0.72478 0.87464 0.0
C2206 C 0.86687 0.72745 0.86857 0.0
C2207 C 0.86763 0.72855 0.85544 0.0
C2208 C 0.94185 0.75025 0.82251 0.0
C2209 C 0.92987 0.7406 0.81733 0.0
O2210 O 0.81628 0.71223 0.91822 0.0
O2211 O 0.81916 0.72362 0.80864 0.0
O2212 O 0.92305 0.74563 0.81453 0.0
O2213 O 0.9103 0.73661 0.92531 0.0
H2214 H 0.81673 0.72762 0.9232 0.0
H2215 H 0.83346 0.72729 0.93433 0.0
H2216 H 0.82309 0.71381 0.94194 0.0
H2217 H 0.82326 0.72748 0.94529 0.0
H2218 H 0.83347 0.73443 0.91267 0.0
H2219 H 0.8195 0.69727 0.90572 0.0
H2220 H 0.86139 0.74488 0.9031 0.0
H2221 H 0.85028 0.74912 0.90266 0.0
H2222 H 0.85465 0.74478 0.88855 0.0
H2223 H 0.82912 0.69011 0.89289 0.0
H2224 H 0.84503 0.69935 0.89368 0.0
H2225 H 0.83714 0.69982 0.88029 0.0
H2226 H 0.8968 0.72566 0.93699 0.0
H2227 H 0.90694 0.73729 0.95602 0.0
H2228 H 0.90501 0.74605 0.94448 0.0
H2229 H 0.91938 0.74769 0.94687 0.0
H2230 H 0.89431 0.71543 0.91654 0.0
H2231 H 0.91002 0.75288 0.91217 0.0
H2232 H 0.87584 0.70696 0.88879 0.0
H2233 H 0.86835 0.70581 0.90309 0.0
H2234 H 0.87949 0.70163 0.90255 0.0
H2235 H 0.90205 0.76119 0.89877 0.0
H2236 H 0.88636 0.75202 0.89578 0.0
H2237 H 0.89668 0.75282 0.88441 0.0
H2238 H 0.92572 0.73397 0.82482 0.0
H2239 H 0.90596 0.72335 0.81868 0.0
H2240 H 0.9154 0.75986 0.81953 0.0
H2241 H 0.88323 0.71239 0.83884 0.0
H2242 H 0.88707 0.70799 0.82447 0.0
H2243 H 0.8753 0.71135 0.82484 0.0
H2244 H 0.90286 0.76625 0.82767 0.0
H2245 H 0.89358 0.75717 0.84008 0.0
H2246 H 0.88742 0.75567 0.82482 0.0
H2247 H 0.82241 0.7404 0.80539 0.0
H2248 H 0.80621 0.73838 0.81953 0.0
H2249 H 0.81657 0.73572 0.82774 0.0
H2250 H 0.80244 0.72337 0.82299 0.0
H2251 H 0.82419 0.70721 0.81148 0.0
H2252 H 0.83657 0.74397 0.81916 0.0
H2253 H 0.84163 0.70363 0.83329 0.0
H2254 H 0.85031 0.7076 0.81948 0.0
H2255 H 0.83448 0.69786 0.81838 0.0
H2256 H 0.85443 0.75647 0.82953 0.0
H2257 H 0.86536 0.75195 0.82907 0.0
H2258 H 0.85612 0.74871 0.84238 0.0
H2259 H 0.86489 0.72488 0.90459 0.0
H2260 H 0.89487 0.73277 0.87445 0.0
H2261 H 0.89622 0.73477 0.8523 0.0
H2262 H 0.86988 0.73213 0.81948 0.0
H2263 H 0.83957 0.72316 0.84965 0.0
H2264 H 0.83829 0.72126 0.8718 0.0
H2265 H 0.9475 0.74643 0.8248 0.0
H2266 H 0.94053 0.75416 0.83116 0.0
H2267 H 0.9465 0.75744 0.81569 0.0
C2268 C 0.84496 0.6045 0.40183 0.0
C2269 C 0.85107 0.61402 0.41201 0.0
C2270 C 0.84267 0.61042 0.43261 0.0
C2271 C 0.84545 0.62187 0.43628 0.0
C2272 C 0.83851 0.62358 0.44502 0.0
C2273 C 0.82848 0.6136 0.45003 0.0
C2274 C 0.82594 0.60203 0.44666 0.0
C2275 C 0.83325 0.60061 0.43816 0.0
C2276 C 0.84167 0.63604 0.44859 0.0
C2277 C 0.81522 0.59116 0.4516 0.0
C2278 C 0.75828 0.6285 0.41725 0.0
C2279 C 0.76419 0.62252 0.42293 0.0
C2280 C 0.78147 0.62734 0.43591 0.0
C2281 C 0.77803 0.6155 0.43838 0.0
C2282 C 0.7852 0.61279 0.44572 0.0
C2283 C 0.79598 0.6221 0.4507 0.0
C2284 C 0.7994 0.63401 0.44832 0.0
C2285 C 0.79207 0.63646 0.44096 0.0
C2286 C 0.7813 0.59999 0.4481 0.0
C2287 C 0.81084 0.64413 0.45349 0.0
C2288 C 0.77289 0.61524 0.53031 0.0
C2289 C 0.77081 0.60445 0.52501 0.0
C2290 C 0.77977 0.60377 0.51861 0.0
C2291 C 0.79105 0.61406 0.51749 0.0
C2292 C 0.79324 0.62488 0.52298 0.0
C2293 C 0.78412 0.62531 0.52932 0.0
C2294 C 0.77716 0.59208 0.51288 0.0
C2295 C 0.80516 0.63601 0.52196 0.0
C2296 C 0.86097 0.59131 0.52613 0.0
C2297 C 0.85862 0.60101 0.53077 0.0
C2298 C 0.83946 0.5997 0.52833 0.0
C2299 C 0.82778 0.59119 0.52538 0.0
C2300 C 0.82019 0.59438 0.51964 0.0
C2301 C 0.82437 0.60645 0.51712 0.0
C2302 C 0.83598 0.6152 0.5208 0.0
C2303 C 0.84345 0.61172 0.52633 0.0
C2304 C 0.80781 0.58482 0.516 0.0
C2305 C 0.84057 0.62817 0.51866 0.0
C2306 C 0.82004 0.61527 0.45775 0.0
C2307 C 0.81227 0.61788 0.45156 0.0
C2308 C 0.80387 0.61935 0.45801 0.0
C2309 C 0.80306 0.6181 0.47106 0.0
C2310 C 0.79459 0.61937 0.47782 0.0
C2311 C 0.79374 0.61794 0.49064 0.0
C2312 C 0.80135 0.61524 0.4972 0.0
C2313 C 0.8004 0.61356 0.51021 0.0
C2314 C 0.80815 0.61094 0.51646 0.0
C2315 C 0.81679 0.6098 0.51004 0.0
C2316 C 0.81782 0.61137 0.49701 0.0
C2317 C 0.82635 0.61019 0.49023 0.0
C2318 C 0.82722 0.61164 0.4774 0.0
C2319 C 0.81947 0.61412 0.47083 0.0
C2320 C 0.81088 0.61546 0.47749 0.0
C2321 C 0.81005 0.61408 0.49059 0.0
C2322 C 0.74553 0.60605 0.5259 0.0
C2323 C 0.75263 0.60785 0.53791 0.0
O2324 O 0.84874 0.60863 0.42349 0.0
O2325 O 0.84663 0.596 0.53306 0.0
O2326 O 0.76441 0.61643 0.53632 0.0
O2327 O 0.77487 0.63033 0.42873 0.0
H2328 H 0.84721 0.61989 0.41138 0.0
H2329 H 0.83525 0.59963 0.40325 0.0
H2330 H 0.84807 0.59802 0.40204 0.0
H2331 H 0.84678 0.60863 0.39252 0.0
H2332 H 0.85296 0.62945 0.43217 0.0
H2333 H 0.83129 0.59182 0.43531 0.0
H2334 H 0.83532 0.63811 0.44407 0.0
H2335 H 0.85074 0.6427 0.44565 0.0
H2336 H 0.84101 0.63687 0.45881 0.0
H2337 H 0.81396 0.58284 0.44725 0.0
H2338 H 0.80714 0.59169 0.4499 0.0
H2339 H 0.81619 0.59072 0.46179 0.0
H2340 H 0.76469 0.61583 0.41682 0.0
H2341 H 0.75811 0.62663 0.40699 0.0
H2342 H 0.76517 0.63819 0.41658 0.0
H2343 H 0.74282 0.62242 0.42765 0.0
H2344 H 0.76982 0.60832 0.43458 0.0
H2345 H 0.79463 0.64556 0.43903 0.0
H2346 H 0.78796 0.59794 0.44435 0.0
H2347 H 0.77256 0.59377 0.44377 0.0
H2348 H 0.78077 0.59847 0.45827 0.0
H2349 H 0.81211 0.65292 0.45103 0.0
H2350 H 0.8184 0.64346 0.44986 0.0
H2351 H 0.811 0.64357 0.46378 0.0
H2352 H 0.75195 0.59932 0.54045 0.0
H2353 H 0.76222 0.59652 0.52569 0.0
H2354 H 0.78568 0.63359 0.53346 0.0
H2355 H 0.7782 0.59294 0.50264 0.0
H2356 H 0.76806 0.58479 0.5149 0.0
H2357 H 0.78359 0.58964 0.51644 0.0
H2358 H 0.80551 0.64369 0.52689 0.0
H2359 H 0.80724 0.63822 0.51201 0.0
H2360 H 0.81212 0.6345 0.5259 0.0
H2361 H 0.8614 0.60759 0.52318 0.0
H2362 H 0.87053 0.59511 0.52415 0.0
H2363 H 0.85587 0.58723 0.51741 0.0
H2364 H 0.85824 0.58426 0.53315 0.0
H2365 H 0.82474 0.58196 0.52719 0.0
H2366 H 0.85237 0.61839 0.52908 0.0
H2367 H 0.8063 0.58529 0.50591 0.0
H2368 H 0.80131 0.58627 0.52113 0.0
H2369 H 0.80612 0.5758 0.51805 0.0
H2370 H 0.84926 0.63395 0.52333 0.0
H2371 H 0.83413 0.63065 0.52212 0.0
H2372 H 0.8416 0.62989 0.50854 0.0
H2373 H 0.81273 0.61873 0.44152 0.0
H2374 H 0.78849 0.62142 0.47326 0.0
H2375 H 0.78701 0.61897 0.49534 0.0
H2376 H 0.80732 0.60958 0.52642 0.0
H2377 H 0.83246 0.60813 0.49475 0.0
H2378 H 0.83398 0.61068 0.47268 0.0
H2379 H 0.73606 0.59935 0.52728 0.0
H2380 H 0.74888 0.60284 0.51822 0.0
H2381 H 0.74624 0.61452 0.52304 0.0
C2382 C 0.40027 0.24292 0.40118 0.0
C2383 C 0.39126 0.23978 0.41155 0.0
C2384 C 0.39566 0.236 0.43232 0.0
C2385 C 0.38434 0.2275 0.43623 0.0
C2386 C 0.38287 0.21935 0.44541 0.0
C2387 C 0.39295 0.21964 0.45062 0.0
C2388 C 0.4044 0.22849 0.44695 0.0
C2389 C 0.4056 0.23673 0.43799 0.0
C2390 C 0.37052 0.21024 0.44928 0.0
C2391 C 0.41535 0.22897 0.45212 0.0
C2392 C 0.37537 0.13177 0.42326 0.0
C2393 C 0.38148 0.14403 0.42819 0.0
C2394 C 0.37749 0.15717 0.44098 0.0
C2395 C 0.38944 0.16597 0.44268 0.0
C2396 C 0.39258 0.17651 0.44926 0.0
C2397 C 0.38361 0.17832 0.45418 0.0
C2398 C 0.37159 0.16946 0.45254 0.0
C2399 C 0.3687 0.15896 0.44601 0.0
C2400 C 0.40549 0.18576 0.45092 0.0
C2401 C 0.3618 0.17113 0.45759 0.0
C2402 C 0.38198 0.16558 0.53728 0.0
C2403 C 0.39368 0.17308 0.5337 0.0
C2404 C 0.39672 0.18267 0.52584 0.0
C2405 C 0.38777 0.18476 0.52143 0.0
C2406 C 0.37589 0.17716 0.5249 0.0
C2407 C 0.3731 0.16764 0.53274 0.0
C2408 C 0.40946 0.19057 0.52224 0.0
C2409 C 0.36613 0.17914 0.52034 0.0
C2410 C 0.41522 0.27931 0.52822 0.0
C2411 C 0.40521 0.26706 0.5319 0.0
C2412 C 0.4062 0.24899 0.52934 0.0
C2413 C 0.41457 0.2456 0.52723 0.0
C2414 C 0.41137 0.23468 0.52146 0.0
C2415 C 0.39942 0.22688 0.518 0.0
C2416 C 0.39078 0.23002 0.52068 0.0
C2417 C 0.39427 0.24108 0.52629 0.0
C2418 C 0.42078 0.23155 0.5189 0.0
C2419 C 0.37789 0.22172 0.51752 0.0
C2420 C 0.39144 0.21007 0.45902 0.0
C2421 C 0.38858 0.19918 0.45354 0.0
C2422 C 0.3868 0.18962 0.46074 0.0
C2423 C 0.38794 0.1909 0.47382 0.0
C2424 C 0.38619 0.18145 0.48134 0.0
C2425 C 0.38714 0.18273 0.49422 0.0
C2426 C 0.38996 0.19354 0.50007 0.0
C2427 C 0.39076 0.19487 0.51317 0.0
C2428 C 0.39384 0.2058 0.51869 0.0
C2429 C 0.396 0.21549 0.51148 0.0
C2430 C 0.39494 0.21426 0.49837 0.0
C2431 C 0.39675 0.22373 0.49083 0.0
C2432 C 0.39549 0.22236 0.47796 0.0
C2433 C 0.39264 0.21154 0.4721 0.0
C2434 C 0.39087 0.20191 0.47952 0.0
C2435 C 0.39195 0.20325 0.49266 0.0
C2436 C 0.36647 0.15532 0.56126 0.0
C2437 C 0.36898 0.14895 0.55067 0.0
O2438 O 0.39721 0.24341 0.42289 0.0
O2439 O 0.40994 0.25991 0.53438 0.0
O2440 O 0.3797 0.15661 0.54516 0.0
O2441 O 0.37407 0.1469 0.43454 0.0
H2442 H 0.38539 0.22994 0.41117 0.0
H2443 H 0.40532 0.23831 0.40266 0.0
H2444 H 0.40661 0.25262 0.40109 0.0
H2445 H 0.3957 0.24004 0.39199 0.0
H2446 H 0.37666 0.22718 0.43201 0.0
H2447 H 0.41431 0.24343 0.43495 0.0
H2448 H 0.3683 0.20142 0.44545 0.0
H2449 H 0.3638 0.21234 0.44588 0.0
H2450 H 0.37002 0.20961 0.45958 0.0
H2451 H 0.42356 0.23592 0.4477 0.0
H2452 H 0.41475 0.22025 0.45071 0.0
H2453 H 0.41604 0.23082 0.46228 0.0
H2454 H 0.38725 0.15076 0.42132 0.0
H2455 H 0.38239 0.12301 0.4331 0.0
H2456 H 0.366 0.12861 0.42037 0.0
H2457 H 0.366 0.12861 0.42037 0.0
H2458 H 0.39635 0.16467 0.4389 0.0
H2459 H 0.35952 0.15212 0.44468 0.0
H2460 H 0.40758 0.18804 0.46095 0.0
H2461 H 0.40736 0.19398 0.44611 0.0
H2462 H 0.41143 0.18275 0.44716 0.0
H2463 H 0.35288 0.16355 0.45518 0.0
H2464 H 0.36258 0.17937 0.45387 0.0
H2465 H 0.36265 0.17216 0.46787 0.0
H2466 H 0.36175 0.14565 0.5436 0.0
H2467 H 0.40048 0.17144 0.53719 0.0
H2468 H 0.36397 0.16194 0.53528 0.0
H2469 H 0.4102 0.19075 0.51195 0.0
H2470 H 0.41534 0.18759 0.5262 0.0
H2471 H 0.4126 0.19978 0.52554 0.0
H2472 H 0.35737 0.17264 0.52416 0.0
H2473 H 0.36557 0.17843 0.51003 0.0
H2474 H 0.36817 0.18822 0.52299 0.0
H2475 H 0.39904 0.2635 0.52375 0.0
H2476 H 0.41166 0.28522 0.52613 0.0
H2477 H 0.41963 0.27852 0.51977 0.0
H2478 H 0.42193 0.28341 0.53582 0.0
H2479 H 0.42372 0.25169 0.52981 0.0
H2480 H 0.38768 0.24349 0.52837 0.0
H2481 H 0.42078 0.22953 0.50884 0.0
H2482 H 0.41878 0.22347 0.52407 0.0
H2483 H 0.42976 0.23881 0.52168 0.0
H2484 H 0.37216 0.22507 0.52107 0.0
H2485 H 0.3749 0.21287 0.52151 0.0
H2486 H 0.37673 0.22054 0.50728 0.0
H2487 H 0.38767 0.1981 0.4435 0.0
H2488 H 0.38402 0.17293 0.47735 0.0
H2489 H 0.38564 0.17513 0.49954 0.0
H2490 H 0.39446 0.20675 0.52875 0.0
H2491 H 0.39906 0.23229 0.49481 0.0
H2492 H 0.39683 0.2299 0.47264 0.0
H2493 H 0.37369 0.15884 0.56836 0.0
H2494 H 0.35797 0.14911 0.56578 0.0
H2495 H 0.36576 0.16285 0.55768 0.0
C2496 C 0.84756 0.22777 0.40696 0.0
C2497 C 0.85551 0.23564 0.41771 0.0
C2498 C 0.84453 0.22268 0.43507 0.0
C2499 C 0.83534 0.22525 0.43547 0.0
C2500 C 0.8252 0.21839 0.44257 0.0
C2501 C 0.82417 0.20869 0.44928 0.0
C2502 C 0.8335 0.20621 0.44907 0.0
C2503 C 0.84364 0.21338 0.44211 0.0
C2504 C 0.8155 0.22139 0.44275 0.0
C2505 C 0.83265 0.19583 0.45594 0.0
C2506 C 0.75921 0.15611 0.39684 0.0
C2507 C 0.76208 0.15075 0.40792 0.0
C2508 C 0.76642 0.16055 0.42818 0.0
C2509 C 0.77505 0.1581 0.43249 0.0
C2510 C 0.78339 0.16541 0.44156 0.0
C2511 C 0.78313 0.17542 0.44629 0.0
C2512 C 0.77412 0.17762 0.4423 0.0
C2513 C 0.76574 0.16999 0.43343 0.0
C2514 C 0.79266 0.16261 0.44583 0.0
C2515 C 0.77363 0.18828 0.44702 0.0
C2516 C 0.75594 0.16059 0.52345 0.0
C2517 C 0.76485 0.1578 0.52149 0.0
C2518 C 0.77578 0.16618 0.51652 0.0
C2519 C 0.7778 0.17754 0.51344 0.0
C2520 C 0.76907 0.18055 0.51602 0.0
C2521 C 0.75827 0.17205 0.52113 0.0
C2522 C 0.78507 0.16282 0.51428 0.0
C2523 C 0.77101 0.19264 0.51302 0.0
C2524 C 0.85779 0.25592 0.52566 0.0
C2525 C 0.85295 0.24901 0.53771 0.0
C2526 C 0.83877 0.22893 0.5296 0.0
C2527 C 0.83714 0.21765 0.52745 0.0
C2528 C 0.82726 0.20894 0.52078 0.0
C2529 C 0.81878 0.2116 0.51619 0.0
C2530 C 0.82014 0.22288 0.51865 0.0
C2531 C 0.83012 0.23144 0.52534 0.0
C2532 C 0.82603 0.19697 0.51839 0.0
C2533 C 0.81118 0.22594 0.51396 0.0
C2534 C 0.81308 0.20075 0.45596 0.0
C2535 C 0.8035 0.19218 0.44894 0.0
C2536 C 0.79286 0.18413 0.45455 0.0
C2537 C 0.79172 0.18452 0.46759 0.0
C2538 C 0.78126 0.17639 0.47358 0.0
C2539 C 0.78022 0.1769 0.48642 0.0
C2540 C 0.78967 0.18549 0.49378 0.0
C2541 C 0.78875 0.186 0.50686 0.0
C2542 C 0.79831 0.19462 0.51389 0.0
C2543 C 0.80885 0.20283 0.5082 0.0
C2544 C 0.80992 0.20248 0.49514 0.0
C2545 C 0.82038 0.21064 0.48912 0.0
C2546 C 0.82141 0.21016 0.47629 0.0
C2547 C 0.81204 0.20146 0.46898 0.0
C2548 C 0.80135 0.19325 0.47482 0.0
C2549 C 0.80031 0.19375 0.48792 0.0
C2550 C 0.72687 0.13689 0.51908 0.0
C2551 C 0.73907 0.14045 0.52446 0.0
O2552 O 0.85429 0.22878 0.42795 0.0
O2553 O 0.84884 0.23705 0.53564 0.0
O2554 O 0.74502 0.15245 0.52747 0.0
O2555 O 0.75883 0.1541 0.4188 0.0
H2556 H 0.85306 0.24237 0.42027 0.0
H2557 H 0.83811 0.22326 0.40963 0.0
H2558 H 0.84984 0.22091 0.4044 0.0
H2559 H 0.84864 0.2332 0.39868 0.0
H2560 H 0.83596 0.23254 0.43024 0.0
H2561 H 0.8508 0.21151 0.4418 0.0
H2562 H 0.80761 0.21435 0.4377 0.0
H2563 H 0.81824 0.23001 0.43832 0.0
H2564 H 0.81285 0.22174 0.45248 0.0
H2565 H 0.84024 0.19454 0.454 0.0
H2566 H 0.82433 0.18757 0.45329 0.0
H2567 H 0.83239 0.19727 0.4661 0.0
H2568 H 0.77183 0.15443 0.40776 0.0
H2569 H 0.76166 0.15345 0.388 0.0
H2570 H 0.76433 0.16593 0.39768 0.0
H2571 H 0.74964 0.15318 0.39651 0.0
H2572 H 0.77532 0.15054 0.42867 0.0
H2573 H 0.75893 0.1717 0.43012 0.0
H2574 H 0.79342 0.16315 0.45614 0.0
H2575 H 0.80138 0.16926 0.44208 0.0
H2576 H 0.79065 0.15366 0.44266 0.0
H2577 H 0.76644 0.18906 0.4425 0.0
H2578 H 0.7822 0.19649 0.44533 0.0
H2579 H 0.77219 0.18764 0.45721 0.0
H2580 H 0.74372 0.13851 0.51697 0.0
H2581 H 0.76326 0.14909 0.52379 0.0
H2582 H 0.75141 0.17416 0.5229 0.0
H2583 H 0.78637 0.16245 0.50412 0.0
H2584 H 0.78258 0.15407 0.51824 0.0
H2585 H 0.79366 0.16966 0.51843 0.0
H2586 H 0.76333 0.1936 0.51559 0.0
H2587 H 0.77263 0.19424 0.50291 0.0
H2588 H 0.77899 0.19957 0.51806 0.0
H2589 H 0.84563 0.2502 0.54119 0.0
H2590 H 0.86134 0.26553 0.52744 0.0
H2591 H 0.8507 0.25286 0.5185 0.0
H2592 H 0.86497 0.25465 0.5219 0.0
H2593 H 0.84379 0.21576 0.53083 0.0
H2594 H 0.83113 0.24007 0.52705 0.0
H2595 H 0.82624 0.19549 0.50823 0.0
H2596 H 0.81736 0.18988 0.52183 0.0
H2597 H 0.83318 0.19615 0.52297 0.0
H2598 H 0.81322 0.23491 0.51712 0.0
H2599 H 0.80222 0.21931 0.51722 0.0
H2600 H 0.81093 0.22559 0.50364 0.0
H2601 H 0.80435 0.19174 0.43894 0.0
H2602 H 0.77374 0.16955 0.4684 0.0
H2603 H 0.77193 0.17044 0.4905 0.0
H2604 H 0.79757 0.19492 0.52392 0.0
H2605 H 0.82792 0.21749 0.49426 0.0
H2606 H 0.82966 0.21667 0.47217 0.0
H2607 H 0.72187 0.12725 0.51676 0.0
H2608 H 0.7279 0.14185 0.51043 0.0
H2609 H 0.72168 0.13893 0.52578 0.0
C2610 C 0.01778 0.47743 0.27154 0.0
C2611 C 0.01066 0.467 0.26252 0.0
C2612 C 0.01165 0.47486 0.24188 0.0
C2613 C 0.9996 0.47045 0.23936 0.0
C2614 C 0.99605 0.47602 0.23073 0.0
C2615 C 0.00472 0.4861 0.22445 0.0
C2616 C 0.01687 0.49018 0.22651 0.0
C2617 C 0.02017 0.4844 0.23514 0.0
C2618 C 0.98303 0.47128 0.2285 0.0
C2619 C 0.02634 0.50083 0.21985 0.0
C2620 C 0.00908 0.56673 0.25307 0.0
C2621 C 0.01037 0.55866 0.2442 0.0
C2622 C 0.99941 0.53854 0.23559 0.0
C2623 C 0.00842 0.54006 0.22743 0.0
C2624 C 0.00749 0.53047 0.22051 0.0
C2625 C 0.99723 0.51915 0.22155 0.0
C2626 C 0.98794 0.51768 0.22937 0.0
C2627 C 0.98917 0.52741 0.23632 0.0
C2628 C 0.01764 0.53238 0.21232 0.0
C2629 C 0.97682 0.50576 0.23057 0.0
C2630 C 0.97851 0.52212 0.14337 0.0
C2631 C 0.99045 0.52659 0.14637 0.0
C2632 C 0.99409 0.51947 0.15232 0.0
C2633 C 0.98555 0.50771 0.15545 0.0
C2634 C 0.97358 0.50302 0.15185 0.0
C2635 C 0.97024 0.51028 0.14569 0.0
C2636 C 0.00701 0.52462 0.15556 0.0
C2637 C 0.96427 0.49048 0.15488 0.0
C2638 C 0.01378 0.44209 0.1548 0.0
C2639 C 0.00369 0.4425 0.14811 0.0
C2640 C 0.00405 0.46141 0.14806 0.0
C2641 C 0.01234 0.47352 0.14881 0.0
C2642 C 0.00927 0.4816 0.15363 0.0
C2643 C 0.99754 0.47742 0.15758 0.0
C2644 C 0.98892 0.46528 0.15607 0.0
C2645 C 0.99225 0.45738 0.15128 0.0
C2646 C 0.01865 0.49452 0.15492 0.0
C2647 C 0.97627 0.46063 0.15987 0.0
C2648 C 0.00111 0.49286 0.21642 0.0
C2649 C -6e-05 0.50188 0.22206 0.0
C2650 C 0.9967 0.50878 0.21517 0.0
C2651 C 0.99419 0.50642 0.20232 0.0
C2652 C 0.99038 0.51283 0.19522 0.0
C2653 C 0.98842 0.51077 0.18247 0.0
C2654 C 0.99038 0.50237 0.17631 0.0
C2655 C 0.98899 0.50064 0.16325 0.0
C2656 C 0.99116 0.49231 0.15741 0.0
C2657 C 0.99463 0.48558 0.1643 0.0
C2658 C 0.9959 0.48707 0.17738 0.0
C2659 C 0.99927 0.48034 0.1846 0.0
C2660 C 0.00078 0.48207 0.19742 0.0
C2661 C 0.99917 0.49072 0.20348 0.0
C2662 C 0.99567 0.49752 0.19641 0.0
C2663 C 0.99391 0.4956 0.18336 0.0
C2664 C 0.96709 0.53787 0.15201 0.0
C2665 C 0.97706 0.53987 0.14321 0.0
O2666 O 0.01532 0.47007 0.25069 0.0
O2667 O 0.00778 0.45396 0.14411 0.0
O2668 O 0.97476 0.52907 0.13822 0.0
O2669 O 0.00037 0.5475 0.24301 0.0
H2670 H 0.00137 0.46508 0.26273 0.0
H2671 H 0.01702 0.48515 0.2687 0.0
H2672 H 0.02729 0.48011 0.27157 0.0
H2673 H 0.01431 0.47502 0.28112 0.0
H2674 H 0.99296 0.46266 0.24408 0.0
H2675 H 0.02944 0.48757 0.237 0.0
H2676 H 0.98077 0.47804 0.23152 0.0
H2677 H 0.97738 0.46298 0.23361 0.0
H2678 H 0.98095 0.46955 0.21841 0.0
H2679 H 0.03537 0.50259 0.22211 0.0
H2680 H 0.0258 0.50878 0.22247 0.0
H2681 H 0.02487 0.49947 0.20965 0.0
H2682 H 0.01868 0.55838 0.24547 0.0
H2683 H 0.01565 0.56847 0.26074 0.0
H2684 H 0.00108 0.561 0.25887 0.0
H2685 H 0.01026 0.58016 0.24171 0.0
H2686 H 0.01631 0.54867 0.22653 0.0
H2687 H 0.98221 0.52633 0.24254 0.0
H2688 H 0.01467 0.53073 0.20245 0.0
H2689 H 0.02055 0.52601 0.2147 0.0
H2690 H 0.02535 0.54152 0.21325 0.0
H2691 H 0.96988 0.50636 0.23588 0.0
H2692 H 0.97894 0.49962 0.23541 0.0
H2693 H 0.97325 0.50188 0.2212 0.0
H2694 H 0.98546 0.5441 0.14873 0.0
H2695 H 0.99692 0.53564 0.1441 0.0
H2696 H 0.96106 0.50689 0.1431 0.0
H2697 H 0.00829 0.52614 0.16576 0.0
H2698 H 0.01271 0.53318 0.1509 0.0
H2699 H 0.00995 0.5183 0.15287 0.0
H2700 H 0.95531 0.48824 0.15162 0.0
H2701 H 0.96406 0.48923 0.16509 0.0
H2702 H 0.96655 0.48418 0.15048 0.0
H2703 H 0.99648 0.4398 0.15499 0.0
H2704 H 0.01074 0.43299 0.15811 0.0
H2705 H 0.0168 0.44823 0.16298 0.0
H2706 H 0.02141 0.4448 0.1485 0.0
H2707 H 0.02136 0.47656 0.14602 0.0
H2708 H 0.98565 0.44809 0.15009 0.0
H2709 H 0.02003 0.49719 0.16491 0.0
H2710 H 0.01567 0.50005 0.15017 0.0
H2711 H 0.02723 0.49642 0.15094 0.0
H2712 H 0.97042 0.45116 0.15718 0.0
H2713 H 0.97282 0.46595 0.15554 0.0
H2714 H 0.97591 0.46156 0.17011 0.0
H2715 H 0.00186 0.50375 0.23193 0.0
H2716 H 0.98891 0.51951 0.19945 0.0
H2717 H 0.9855 0.51598 0.1775 0.0
H2718 H 0.99028 0.49118 0.14738 0.0
H2719 H 0.0008 0.47367 0.18044 0.0
H2720 H 0.0034 0.47666 0.2025 0.0
H2721 H 0.95844 0.53355 0.14698 0.0
H2722 H 0.96879 0.54645 0.1561 0.0
H2723 H 0.96657 0.53207 0.15972 0.0
C2724 C 0.48517 0.41929 0.27107 0.0
C2725 C 0.47976 0.42482 0.26287 0.0
C2726 C 0.48743 0.43093 0.24221 0.0
C2727 C 0.48561 0.44043 0.24016 0.0
C2728 C 0.49294 0.44955 0.2321 0.0
C2729 C 0.50244 0.44924 0.22621 0.0
C2730 C 0.50413 0.43949 0.22813 0.0
C2731 C 0.49638 0.4303 0.2359 0.0
C2732 C 0.49069 0.45963 0.23013 0.0
C2733 C 0.51432 0.43894 0.22235 0.0
C2734 C 0.56445 0.51265 0.26846 0.0
C2735 C 0.56817 0.52096 0.25733 0.0
C2736 C 0.55155 0.5095 0.24268 0.0
C2737 C 0.55444 0.5008 0.23953 0.0
C2738 C 0.54692 0.49109 0.23182 0.0
C2739 C 0.53636 0.49009 0.22713 0.0
C2740 C 0.53354 0.49892 0.23008 0.0
C2741 C 0.54121 0.50853 0.2378 0.0
C2742 C 0.5502 0.48183 0.22877 0.0
C2743 C 0.52236 0.49813 0.22519 0.0
C2744 C 0.56001 0.50765 0.14849 0.0
C2745 C 0.56163 0.49869 0.15351 0.0
C2746 C 0.55226 0.48885 0.15925 0.0
C2747 C 0.54109 0.48799 0.16009 0.0
C2748 C 0.53935 0.49684 0.15482 0.0
C2749 C 0.54884 0.50653 0.14904 0.0
C2750 C 0.55436 0.47948 0.16465 0.0
C2751 C 0.52754 0.49617 0.15553 0.0
C2752 C 0.46552 0.39889 0.15249 0.0
C2753 C 0.4688 0.40973 0.14455 0.0
C2754 C 0.489 0.42627 0.1471 0.0
C2755 C 0.49996 0.42791 0.15079 0.0
C2756 C 0.50842 0.43846 0.15676 0.0
C2757 C 0.50586 0.44763 0.15887 0.0
C2758 C 0.49507 0.44629 0.15445 0.0
C2759 C 0.48675 0.43562 0.14856 0.0
C2760 C 0.51993 0.43969 0.16118 0.0
C2761 C 0.49223 0.45604 0.15624 0.0
C2762 C 0.51114 0.45953 0.2189 0.0
C2763 C 0.51936 0.46969 0.22552 0.0
C2764 C 0.52808 0.47962 0.21941 0.0
C2765 C 0.52885 0.47942 0.20632 0.0
C2766 C 0.53768 0.48917 0.19992 0.0
C2767 C 0.5385 0.4888 0.18705 0.0
C2768 C 0.53048 0.47868 0.18008 0.0
C2769 C 0.5314 0.47812 0.16701 0.0
C2770 C 0.52323 0.46796 0.16035 0.0
C2771 C 0.51412 0.45825 0.16641 0.0
C2772 C 0.5131 0.45861 0.17948 0.0
C2773 C 0.50406 0.44898 0.18588 0.0
C2774 C 0.50328 0.44932 0.19877 0.0
C2775 C 0.51158 0.45925 0.20577 0.0
C2776 C 0.52058 0.46918 0.19948 0.0
C2777 C 0.52136 0.46884 0.18633 0.0
C2778 C 0.58667 0.52604 0.15559 0.0
C2779 C 0.58082 0.52113 0.14284 0.0
O2780 O 0.48084 0.42244 0.2505 0.0
O2781 O 0.48083 0.41558 0.14218 0.0
O2782 O 0.5689 0.51754 0.14319 0.0
O2783 O 0.55833 0.51886 0.25043 0.0
H2784 H 0.48485 0.43457 0.26481 0.0
H2785 H 0.49467 0.42313 0.26883 0.0
H2786 H 0.48059 0.40954 0.26949 0.0
H2787 H 0.48449 0.42117 0.28105 0.0
H2788 H 0.4785 0.44072 0.24496 0.0
H2789 H 0.49763 0.42285 0.23755 0.0
H2790 H 0.49746 0.4676 0.23533 0.0
H2791 H 0.48181 0.45749 0.23343 0.0
H2792 H 0.49143 0.46189 0.22013 0.0
H2793 H 0.51538 0.4317 0.22623 0.0
H2794 H 0.52272 0.44748 0.22384 0.0
H2795 H 0.5128 0.43739 0.21217 0.0
H2796 H 0.57427 0.51953 0.25135 0.0
H2797 H 0.57234 0.51449 0.27409 0.0
H2798 H 0.56 0.50325 0.26528 0.0
H2799 H 0.55824 0.51386 0.27445 0.0
H2800 H 0.56246 0.50144 0.24309 0.0
H2801 H 0.53907 0.5153 0.24022 0.0
H2802 H 0.54324 0.47308 0.23219 0.0
H2803 H 0.55883 0.48398 0.23297 0.0
H2804 H 0.55067 0.48099 0.21853 0.0
H2805 H 0.52155 0.50585 0.22815 0.0
H2806 H 0.51455 0.48991 0.22855 0.0
H2807 H 0.52218 0.4976 0.21487 0.0
H2808 H 0.58188 0.51348 0.14016 0.0
H2809 H 0.57016 0.4993 0.1531 0.0
H2810 H 0.54764 0.51344 0.1451 0.0
H2811 H 0.55353 0.47949 0.17492 0.0
H2812 H 0.56327 0.48094 0.1624 0.0
H2813 H 0.54756 0.47057 0.16109 0.0
H2814 H 0.52763 0.50379 0.15099 0.0
H2815 H 0.52504 0.49598 0.16541 0.0
H2816 H 0.52062 0.48783 0.15098 0.0
H2817 H 0.46639 0.4154 0.15013 0.0
H2818 H 0.45586 0.39392 0.15425 0.0
H2819 H 0.47026 0.4018 0.16158 0.0
H2820 H 0.46805 0.39288 0.14784 0.0
H2821 H 0.5017 0.42072 0.14938 0.0
H2822 H 0.4785 0.4346 0.14514 0.0
H2823 H 0.52057 0.44067 0.17147 0.0
H2824 H 0.52748 0.44781 0.15729 0.0
H2825 H 0.52075 0.43192 0.15843 0.0
H2826 H 0.48378 0.45392 0.15162 0.0
H2827 H 0.49948 0.46445 0.15248 0.0
H2828 H 0.4916 0.45751 0.16633 0.0
H2829 H 0.51899 0.46986 0.23559 0.0
H2830 H 0.54412 0.49718 0.2048 0.0
H2831 H 0.54552 0.49656 0.18264 0.0
H2832 H 0.52402 0.46757 0.15034 0.0
H2833 H 0.49749 0.44104 0.18101 0.0
H2834 H 0.49613 0.44167 0.20319 0.0
H2835 H 0.58555 0.53359 0.15854 0.0
H2836 H 0.59626 0.52911 0.15522 0.0
H2837 H 0.58264 0.51908 0.16273 0.0
C2838 C 0.45952 0.98331 0.27298 0.0
C2839 C 0.45612 0.99037 0.26439 0.0
C2840 C 0.46278 0.9892 0.2437 0.0
C2841 C 0.4701 0.00121 0.24092 0.0
C2842 C 0.47943 0.00479 0.23254 0.0
C2843 C 0.48143 0.99616 0.22684 0.0
C2844 C 0.47368 0.98399 0.22917 0.0
C2845 C 0.46433 0.98066 0.23749 0.0
C2846 C 0.48734 0.01781 0.22999 0.0
C2847 C 0.47555 0.97456 0.22323 0.0
C2848 C 0.54906 0.02452 0.27465 0.0
C2849 C 0.54779 0.01483 0.26557 0.0
C2850 C 0.54221 0.01616 0.24447 0.0
C2851 C 0.5345 0.00421 0.24134 0.0
C2852 C 0.52538 0.00095 0.23256 0.0
C2853 C 0.52391 0.00986 0.22694 0.0
C2854 C 0.53204 0.02196 0.22971 0.0
C2855 C 0.54125 0.02495 0.23831 0.0
C2856 C 0.51708 0.98799 0.22961 0.0
C2857 C 0.53067 0.0317 0.22406 0.0
C2858 C 0.54538 0.01644 0.14818 0.0
C2859 C 0.53721 0.00462 0.15102 0.0
C2860 C 0.5264 0.0016 0.15659 0.0
C2861 C 0.52375 0.0106 0.15937 0.0
C2862 C 0.5317 0.02242 0.15591 0.0
C2863 C 0.5424 0.02516 0.15022 0.0
C2864 C 0.51793 0.98885 0.1598 0.0
C2865 C 0.52907 0.03219 0.15861 0.0
C2866 C 0.42987 0.98214 0.15386 0.0
C2867 C 0.44076 0.99278 0.14837 0.0
C2868 C 0.45938 0.99274 0.14868 0.0
C2869 C 0.46305 0.98443 0.14937 0.0
C2870 C 0.47396 0.98741 0.15485 0.0
C2871 C 0.48144 0.99908 0.1595 0.0
C2872 C 0.47812 0.00774 0.15806 0.0
C2873 C 0.4671 0.00447 0.15266 0.0
C2874 C 0.4773 0.978 0.15608 0.0
C2875 C 0.48607 0.02035 0.16254 0.0
C2876 C 0.49217 0.99992 0.2193 0.0
C2877 C 0.50267 0.00303 0.22566 0.0
C2878 C 0.51317 0.00647 0.21932 0.0
C2879 C 0.51324 0.00676 0.20618 0.0
C2880 C 0.52356 0.00987 0.19947 0.0
C2881 C 0.52355 0.01024 0.18655 0.0
C2882 C 0.51319 0.00747 0.17983 0.0
C2883 C 0.51308 0.00777 0.16669 0.0
C2884 C 0.50268 0.00509 0.16031 0.0
C2885 C 0.49226 0.00196 0.16674 0.0
C2886 C 0.49216 0.00142 0.17987 0.0
C2887 C 0.48177 0.99808 0.18661 0.0
C2888 C 0.48175 0.9976 0.19952 0.0
C2889 C 0.4921 0.00041 0.20619 0.0
C2890 C 0.50268 0.00381 0.19961 0.0
C2891 C 0.50268 0.00425 0.18643 0.0
C2892 C 0.57084 0.02419 0.1592 0.0
C2893 C 0.5638 0.01618 0.14814 0.0
O2894 O 0.45425 0.98565 0.25242 0.0
O2895 O 0.44841 0.98914 0.14408 0.0
O2896 O 0.55618 0.01967 0.14348 0.0
O2897 O 0.5504 0.01936 0.25368 0.0
H2898 H 0.46359 0.99971 0.26465 0.0
H2899 H 0.4679 0.98402 0.26981 0.0
H2900 H 0.45252 0.9738 0.27292 0.0
H2901 H 0.46088 0.9869 0.28265 0.0
H2902 H 0.46857 0.00778 0.24535 0.0
H2903 H 0.45848 0.97139 0.23958 0.0
H2904 H 0.4963 0.0209 0.23394 0.0
H2905 H 0.48389 0.02328 0.23412 0.0
H2906 H 0.48828 0.01926 0.21981 0.0
H2907 H 0.46873 0.96549 0.22601 0.0
H2908 H 0.48441 0.97609 0.22589 0.0
H2909 H 0.47532 0.97511 0.21295 0.0
H2910 H 0.53842 0.00746 0.26608 0.0
H2911 H 0.54704 0.02108 0.28426 0.0
H2912 H 0.54274 0.02744 0.27201 0.0
H2913 H 0.55817 0.03233 0.27447 0.0
H2914 H 0.53551 0.99745 0.24592 0.0
H2915 H 0.54737 0.03416 0.24074 0.0
H2916 H 0.51554 0.98652 0.21941 0.0
H2917 H 0.50842 0.98509 0.23403 0.0
H2918 H 0.52055 0.98236 0.23308 0.0
H2919 H 0.53736 0.04062 0.22771 0.0
H2920 H 0.5217 0.03022 0.22599 0.0
H2921 H 0.53158 0.03155 0.21382 0.0
H2922 H 0.55876 0.00694 0.15153 0.0
H2923 H 0.53922 0.99773 0.14887 0.0
H2924 H 0.5487 0.03422 0.14777 0.0
H2925 H 0.51726 0.98799 0.17006 0.0
H2926 H 0.52079 0.98276 0.15605 0.0
H2927 H 0.50896 0.98603 0.15608 0.0
H2928 H 0.53606 0.04089 0.1551 0.0
H2929 H 0.52827 0.03301 0.1688 0.0
H2930 H 0.52048 0.02995 0.15426 0.0
H2931 H 0.44493 0.9995 0.15602 0.0
H2932 H 0.42361 0.98482 0.15743 0.0
H2933 H 0.4326 0.97859 0.16171 0.0
H2934 H 0.42527 0.97497 0.14673 0.0
H2935 H 0.45712 0.97546 0.14601 0.0
H2936 H 0.46452 0.01108 0.15158 0.0
H2937 H 0.47853 0.97677 0.16606 0.0
H2938 H 0.48585 0.98089 0.15139 0.0
H2939 H 0.4705 0.96934 0.15198 0.0
H2940 H 0.48284 0.02631 0.15952 0.0
H2941 H 0.49518 0.0238 0.15903 0.0
H2942 H 0.48657 0.0206 0.17286 0.0
H2943 H 0.50267 0.00276 0.23575 0.0
H2944 H 0.53176 0.01205 0.20415 0.0
H2945 H 0.53178 0.01275 0.18189 0.0
H2946 H 0.50266 0.00536 0.15024 0.0
H2947 H 0.47352 0.99578 0.18199 0.0
H2948 H 0.47351 0.995 0.20422 0.0
H2949 H 0.57711 0.02159 0.16288 0.0
H2950 H 0.5647 0.02329 0.16677 0.0
H2951 H 0.57587 0.03362 0.15643 0.0
C2952 C 0.53174 0.98482 0.74638 0.0
C2953 C 0.54171 0.99466 0.75425 0.0
C2954 C 0.53489 0.9937 0.77523 0.0
C2955 C 0.5384 0.00548 0.77823 0.0
C2956 C 0.53183 0.00815 0.78656 0.0
C2957 C 0.52148 0.99879 0.79186 0.0
C2958 C 0.5182 0.98687 0.78918 0.0
C2959 C 0.52511 0.98449 0.78103 0.0
C2960 C 0.53574 0.02094 0.78941 0.0
C2961 C 0.50714 0.97665 0.79449 0.0
C2962 C 0.44696 0.00437 0.75591 0.0
C2963 C 0.45486 0.00075 0.76183 0.0
C2964 C 0.47238 0.00873 0.7752 0.0
C2965 C 0.47058 0.99756 0.77846 0.0
C2966 C 0.47867 0.99658 0.78615 0.0
C2967 C 0.48887 0.00698 0.79056 0.0
C2968 C 0.49077 0.01824 0.78728 0.0
C2969 C 0.48243 0.01896 0.77971 0.0
C2970 C 0.47634 0.98442 0.7895 0.0
C2971 C 0.50163 0.02947 0.79175 0.0
C2972 C 0.46856 0.0098 0.86807 0.0
C2973 C 0.46516 0.99834 0.86372 0.0
C2974 C 0.47351 0.99587 0.85852 0.0
C2975 C 0.48546 0.00506 0.8577 0.0
C2976 C 0.489 0.01644 0.86269 0.0
C2977 C 0.48049 0.01863 0.86793 0.0
C2978 C 0.46952 0.98353 0.85363 0.0
C2979 C 0.50169 0.02639 0.86211 0.0
C2980 C 0.54622 0.97397 0.86039 0.0
C2981 C 0.54694 0.98276 0.87038 0.0
C2982 C 0.52918 0.98422 0.86965 0.0
C2983 C 0.51744 0.97649 0.86613 0.0
C2984 C 0.51066 0.98076 0.86058 0.0
C2985 C 0.51575 0.9931 0.85882 0.0
C2986 C 0.52738 0.00102 0.86319 0.0
C2987 C 0.53401 0.99649 0.86855 0.0
C2988 C 0.49822 0.97208 0.85619 0.0
C2989 C 0.5329 0.01424 0.86181 0.0
C2990 C 0.51348 0.00147 0.79911 0.0
C2991 C 0.5059 0.00398 0.79241 0.0
C2992 C 0.49759 0.00592 0.79841 0.0
C2993 C 0.49694 0.00564 0.81152 0.0
C2994 C 0.48877 0.00769 0.81784 0.0
C2995 C 0.48797 0.00707 0.83072 0.0
C2996 C 0.49515 0.00412 0.83776 0.0
C2997 C 0.49408 0.003 0.85083 0.0
C2998 C 0.50108 0.99968 0.8575 0.0
C2999 C 0.50926 0.99753 0.85145 0.0
C3000 C 0.5107 0.99894 0.83844 0.0
C3001 C 0.51904 0.9971 0.8321 0.0
C3002 C 0.52018 0.99822 0.81926 0.0
C3003 C 0.51284 0.00092 0.81223 0.0
C3004 C 0.50451 0.003 0.81844 0.0
C3005 C 0.50351 0.0021 0.83157 0.0
C3006 C 0.44918 0.01907 0.86167 0.0
C3007 C 0.44937 0.00869 0.8678 0.0
O3008 O 0.54064 0.99106 0.76648 0.0
O3009 O 0.53562 0.97958 0.87413 0.0
O3010 O 0.46063 0.01262 0.87259 0.0
O3011 O 0.46467 0.00996 0.76779 0.0
H3012 H 0.54083 0.00268 0.7536 0.0
H3013 H 0.52304 0.98304 0.74989 0.0
H3014 H 0.53204 0.9765 0.74682 0.0
H3015 H 0.53249 0.98755 0.73652 0.0
H3016 H 0.54618 0.01257 0.77389 0.0
H3017 H 0.52258 0.97542 0.77869 0.0
H3018 H 0.52957 0.02322 0.78483 0.0
H3019 H 0.54483 0.02708 0.78607 0.0
H3020 H 0.53546 0.02235 0.79958 0.0
H3021 H 0.50535 0.96794 0.7907 0.0
H3022 H 0.49939 0.97765 0.79245 0.0
H3023 H 0.50805 0.97664 0.80475 0.0
H3024 H 0.45713 0.99515 0.75586 0.0
H3025 H 0.44745 0.00284 0.74566 0.0
H3026 H 0.45217 0.01434 0.75534 0.0
H3027 H 0.43119 0.9952 0.76595 0.0
H3028 H 0.46286 0.98953 0.77506 0.0
H3029 H 0.48376 0.02753 0.77716 0.0
H3030 H 0.4768 0.98376 0.79975 0.0
H3031 H 0.48328 0.98298 0.78539 0.0
H3032 H 0.46757 0.97724 0.7861 0.0
H3033 H 0.502 0.03754 0.78807 0.0
H3034 H 0.50971 0.02937 0.78884 0.0
H3035 H 0.50174 0.02994 0.80207 0.0
H3036 H 0.44699 0.00176 0.86044 0.0
H3037 H 0.45602 0.99132 0.86438 0.0
H3038 H 0.48304 0.02738 0.87157 0.0
H3039 H 0.47046 0.98372 0.84337 0.0
H3040 H 0.46016 0.97714 0.85592 0.0
H3041 H 0.47522 0.98033 0.85755 0.0
H3042 H 0.50306 0.03468 0.86665 0.0
H3043 H 0.50443 0.02823 0.85225 0.0
H3044 H 0.50754 0.0237 0.86673 0.0
H3045 H 0.55143 0.99169 0.86615 0.0
H3046 H 0.55524 0.97634 0.85735 0.0
H3047 H 0.54121 0.97424 0.85218 0.0
H3048 H 0.54164 0.96479 0.86397 0.0
H3049 H 0.51375 0.96705 0.86728 0.0
H3050 H 0.54294 0.00251 0.87185 0.0
H3051 H 0.49753 0.97277 0.84598 0.0
H3052 H 0.49193 0.97428 0.86064 0.0
H3053 H 0.49553 0.96277 0.85838 0.0
H3054 H 0.54154 0.01927 0.8668 0.0
H3055 H 0.52684 0.01716 0.86542 0.0
H3056 H 0.53432 0.01647 0.85181 0.0
H3057 H 0.5062 0.00405 0.78232 0.0
H3058 H 0.48289 0.00982 0.8129 0.0
H3059 H 0.48153 0.00877 0.83507 0.0
H3060 H 0.50003 0.99858 0.86748 0.0
H3061 H 0.52478 0.99477 0.83699 0.0
H3062 H 0.52676 0.99674 0.81489 0.0
H3063 H 0.45155 0.02639 0.86853 0.0
H3064 H 0.44026 0.01615 0.85772 0.0
H3065 H 0.45567 0.0225 0.854 0.0
C3066 C 0.01339 0.54068 0.74637 0.0
C3067 C 0.00432 0.54084 0.75517 0.0
C3068 C 0.00636 0.5353 0.77605 0.0
C3069 C 0.99462 0.52706 0.779 0.0
C3070 C 0.99203 0.51823 0.78774 0.0
C3071 C 0.0014 0.51763 0.79357 0.0
C3072 C 0.01327 0.52621 0.79091 0.0
C3073 C 0.01559 0.53509 0.78231 0.0
C3074 C 0.97928 0.50937 0.79054 0.0
C3075 C 0.02349 0.52578 0.79684 0.0
C3076 C 0.99785 0.43469 0.76828 0.0
C3077 C 0.00062 0.44478 0.77688 0.0
C3078 C 0.99243 0.45688 0.78402 0.0
C3079 C 0.00313 0.46584 0.78934 0.0
C3080 C 0.00382 0.47577 0.79525 0.0
C3081 C 0.99358 0.47674 0.79603 0.0
C3082 C 0.9828 0.46781 0.79065 0.0
C3083 C 0.98238 0.45798 0.78468 0.0
C3084 C 0.01552 0.48521 0.80075 0.0
C3085 C 0.97174 0.4686 0.79135 0.0
C3086 C 0.98779 0.4582 0.87386 0.0
C3087 C 0.99927 0.46582 0.86958 0.0
C3088 C 0.00219 0.47666 0.86418 0.0
C3089 C 0.9934 0.47984 0.86296 0.0
C3090 C 0.98205 0.4725 0.868 0.0
C3091 C 0.97944 0.46181 0.87354 0.0
C3092 C 0.01452 0.48448 0.85933 0.0
C3093 C 0.97253 0.47571 0.86702 0.0
C3094 C 0.02458 0.57198 0.86202 0.0
C3095 C 0.01601 0.56444 0.87218 0.0
C3096 C 0.01445 0.5451 0.87164 0.0
C3097 C 0.0222 0.54103 0.86897 0.0
C3098 C 0.01806 0.52978 0.86353 0.0
C3099 C 0.00582 0.52238 0.86099 0.0
C3100 C 0.99785 0.5262 0.86434 0.0
C3101 C 0.00225 0.53756 0.86964 0.0
C3102 C 0.0268 0.52592 0.86022 0.0
C3103 C 0.98472 0.51837 0.86212 0.0
C3104 C 0.99876 0.50749 0.80165 0.0
C3105 C 0.99647 0.49691 0.7958 0.0
C3106 C 0.99422 0.48704 0.80271 0.0
C3107 C 0.99391 0.48755 0.81581 0.0
C3108 C 0.99121 0.47762 0.82299 0.0
C3109 C 0.9915 0.47835 0.8359 0.0
C3110 C 0.99472 0.48911 0.84214 0.0
C3111 C 0.99567 0.49009 0.85526 0.0
C3112 C 0.99907 0.50096 0.86116 0.0
C3113 C 0.00149 0.51092 0.85427 0.0
C3114 C 0.00038 0.51005 0.84114 0.0
C3115 C 0.00256 0.51984 0.83393 0.0
C3116 C 0.00174 0.51896 0.82101 0.0
C3117 C 0.999 0.50834 0.81479 0.0
C3118 C 0.99658 0.49832 0.82188 0.0
C3119 C 0.99714 0.49914 0.83507 0.0
C3120 C 0.97641 0.4283 0.86859 0.0
C3121 C 0.98761 0.43948 0.87317 0.0
O3122 O 0.009 0.54348 0.76715 0.0
O3123 O 0.01898 0.55628 0.87629 0.0
O3124 O 0.98448 0.4473 0.87826 0.0
O3125 O 0.99149 0.44714 0.77819 0.0
H3126 H 0.99626 0.53186 0.75467 0.0
H3127 H 0.01542 0.53379 0.74928 0.0
H3128 H 0.02174 0.54941 0.74654 0.0
H3129 H 0.00981 0.53857 0.73671 0.0
H3130 H 0.98749 0.52752 0.77441 0.0
H3131 H 0.02463 0.54162 0.78005 0.0
H3132 H 0.97704 0.50052 0.78682 0.0
H3133 H 0.97309 0.51185 0.78635 0.0
H3134 H 0.97794 0.50861 0.80075 0.0
H3135 H 0.03218 0.53277 0.79331 0.0
H3136 H 0.02259 0.51699 0.79502 0.0
H3137 H 0.02339 0.52695 0.80707 0.0
H3138 H 0.00467 0.44462 0.78597 0.0
H3139 H 0.00967 0.4427 0.7536 0.0
H3140 H 0.98795 0.42965 0.76692 0.0
H3141 H 0.99798 0.42777 0.77429 0.0
H3142 H 0.01101 0.46516 0.78892 0.0
H3143 H 0.97418 0.45107 0.78054 0.0
H3144 H 0.01485 0.48536 0.81103 0.0
H3145 H 0.01772 0.49408 0.79739 0.0
H3146 H 0.02288 0.48368 0.79838 0.0
H3147 H 0.96396 0.46075 0.78702 0.0
H3148 H 0.97319 0.47669 0.78656 0.0
H3149 H 0.96974 0.46941 0.80122 0.0
H3150 H 0.99333 0.44335 0.86489 0.0
H3151 H 0.0059 0.46325 0.87034 0.0
H3152 H 0.97067 0.45595 0.87712 0.0
H3153 H 0.01428 0.48412 0.84901 0.0
H3154 H 0.02076 0.48168 0.86262 0.0
H3155 H 0.01794 0.49384 0.86228 0.0
H3156 H 0.96422 0.46917 0.87163 0.0
H3157 H 0.97055 0.47621 0.85708 0.0
H3158 H 0.9757 0.48459 0.87134 0.0
H3159 H 0.00696 0.5599 0.868 0.0
H3160 H 0.0224 0.57868 0.85874 0.0
H3161 H 0.02384 0.56622 0.85398 0.0
H3162 H 0.03386 0.57659 0.86553 0.0
H3163 H 0.03157 0.54685 0.87079 0.0
H3164 H 0.99616 0.54048 0.87228 0.0
H3165 H 0.02631 0.524 0.85008 0.0
H3166 H 0.02448 0.51761 0.86511 0.0
H3167 H 0.03604 0.53275 0.86274 0.0
H3168 H 0.9796 0.52227 0.86609 0.0
H3169 H 0.98156 0.50955 0.86628 0.0
H3170 H 0.98288 0.51694 0.85196 0.0
H3171 H 0.99676 0.49646 0.78574 0.0
H3172 H 0.98886 0.46916 0.81871 0.0
H3173 H 0.98935 0.47039 0.84091 0.0
H3174 H -0.0 0.50171 0.87121 0.0
H3175 H 0.00494 0.52832 0.83819 0.0
H3176 H 0.0035 0.52677 0.81594 0.0
H3177 H 0.97867 0.42191 0.86437 0.0
H3178 H 0.97188 0.43066 0.86141 0.0
H3179 H 0.97021 0.42397 0.87639 0.0
C3180 C 0.51522 0.56504 0.75042 0.0
C3181 C 0.52398 0.56941 0.76143 0.0
C3182 C 0.51285 0.55381 0.7767 0.0
C3183 C 0.50446 0.55716 0.77951 0.0
C3184 C 0.49482 0.55018 0.78719 0.0
C3185 C 0.49358 0.5397 0.79225 0.0
C3186 C 0.50217 0.53647 0.78975 0.0
C3187 C 0.51171 0.5436 0.78201 0.0
C3188 C 0.48583 0.55389 0.78973 0.0
C3189 C 0.50115 0.5254 0.79509 0.0
C3190 C 0.40698 0.47822 0.76912 0.0
C3191 C 0.41729 0.47713 0.76397 0.0
C3192 C 0.43363 0.48669 0.77931 0.0
C3193 C 0.44082 0.48455 0.78715 0.0
C3194 C 0.45049 0.49384 0.7935 0.0
C3195 C 0.45278 0.50557 0.79229 0.0
C3196 C 0.44556 0.50784 0.78434 0.0
C3197 C 0.43612 0.49839 0.77782 0.0
C3198 C 0.45821 0.49107 0.80156 0.0
C3199 C 0.44772 0.52024 0.78286 0.0
C3200 C 0.42729 0.49877 0.86995 0.0
C3201 C 0.43506 0.49472 0.86698 0.0
C3202 C 0.44595 0.50225 0.86135 0.0
C3203 C 0.44899 0.51399 0.85846 0.0
C3204 C 0.44135 0.5182 0.86192 0.0
C3205 C 0.43065 0.51056 0.86781 0.0
C3206 C 0.4541 0.49759 0.85831 0.0
C3207 C 0.44432 0.53067 0.85908 0.0
C3208 C 0.53317 0.58831 0.86553 0.0
C3209 C 0.52661 0.58448 0.87791 0.0
C3210 C 0.51067 0.56421 0.87237 0.0
C3211 C 0.50765 0.55233 0.87252 0.0
C3212 C 0.4978 0.54359 0.86586 0.0
C3213 C 0.49063 0.54682 0.85908 0.0
C3214 C 0.49337 0.55877 0.85921 0.0
C3215 C 0.50344 0.56737 0.86574 0.0
C3216 C 0.49514 0.53094 0.86592 0.0
C3217 C 0.48573 0.56246 0.85235 0.0
C3218 C 0.48297 0.53183 0.79964 0.0
C3219 C 0.47316 0.52278 0.7933 0.0
C3220 C 0.46264 0.5154 0.79948 0.0
C3221 C 0.46176 0.51716 0.81234 0.0
C3222 C 0.45112 0.51028 0.81873 0.0
C3223 C 0.45045 0.51182 0.83145 0.0
C3224 C 0.46039 0.52028 0.83831 0.0
C3225 C 0.45988 0.52165 0.85133 0.0
C3226 C 0.46985 0.53036 0.85779 0.0
C3227 C 0.48041 0.53773 0.85163 0.0
C3228 C 0.48115 0.53634 0.83865 0.0
C3229 C 0.49169 0.54346 0.83218 0.0
C3230 C 0.4923 0.54206 0.81939 0.0
C3231 C 0.48244 0.53339 0.81262 0.0
C3232 C 0.47177 0.52605 0.81897 0.0
C3233 C 0.4711 0.52757 0.83198 0.0
C3234 C 0.39727 0.47906 0.86637 0.0
C3235 C 0.40875 0.47995 0.87095 0.0
O3236 O 0.52203 0.55999 0.76883 0.0
O3237 O 0.52059 0.57222 0.8787 0.0
O3238 O 0.4165 0.49152 0.8749 0.0
O3239 O 0.42435 0.47718 0.7736 0.0
H3240 H 0.52289 0.57598 0.76707 0.0
H3241 H 0.50598 0.56101 0.75372 0.0
H3242 H 0.51598 0.55826 0.74481 0.0
H3243 H 0.51699 0.57257 0.74437 0.0
H3244 H 0.50523 0.56511 0.77566 0.0
H3245 H 0.51825 0.54111 0.77989 0.0
H3246 H 0.47698 0.54687 0.78631 0.0
H3247 H 0.48809 0.56235 0.78519 0.0
H3248 H 0.48517 0.55494 0.7999 0.0
H3249 H 0.50888 0.52443 0.79279 0.0
H3250 H 0.49301 0.51751 0.7914 0.0
H3251 H 0.50035 0.52553 0.80535 0.0
H3252 H 0.4226 0.48468 0.7577 0.0
H3253 H 0.40119 0.4779 0.76138 0.0
H3254 H 0.41032 0.48676 0.77423 0.0
H3255 H 0.40162 0.47093 0.77562 0.0
H3256 H 0.43886 0.4755 0.7882 0.0
H3257 H 0.43066 0.50022 0.77177 0.0
H3258 H 0.45653 0.49201 0.8115 0.0
H3259 H 0.46771 0.4974 0.7998 0.0
H3260 H 0.45642 0.4819 0.79992 0.0
H3261 H 0.44061 0.52038 0.77735 0.0
H3262 H 0.45627 0.52574 0.7781 0.0
H3263 H 0.44837 0.52439 0.79213 0.0
H3264 H 0.41244 0.47749 0.86289 0.0
H3265 H 0.43261 0.48569 0.86907 0.0
H3266 H 0.42464 0.51363 0.87035 0.0
H3267 H 0.45405 0.49619 0.8481 0.0
H3268 H 0.45136 0.48903 0.86289 0.0
H3269 H 0.46332 0.50413 0.86121 0.0
H3270 H 0.4371 0.53235 0.86168 0.0
H3271 H 0.44612 0.53237 0.84901 0.0
H3272 H 0.45248 0.5371 0.86426 0.0
H3273 H 0.52027 0.58773 0.87864 0.0
H3274 H 0.53806 0.59813 0.86486 0.0
H3275 H 0.52681 0.58462 0.85761 0.0
H3276 H 0.53954 0.58511 0.86469 0.0
H3277 H 0.51323 0.54997 0.87772 0.0
H3278 H 0.50555 0.5765 0.8656 0.0
H3279 H 0.49444 0.52759 0.85623 0.0
H3280 H 0.4865 0.52525 0.87043 0.0
H3281 H 0.50204 0.53003 0.87098 0.0
H3282 H 0.48821 0.57175 0.85459 0.0
H3283 H 0.47627 0.55651 0.85468 0.0
H3284 H 0.48662 0.56164 0.84218 0.0
H3285 H 0.47372 0.52147 0.78339 0.0
H3286 H 0.4432 0.50359 0.81396 0.0
H3287 H 0.44202 0.50625 0.83585 0.0
H3288 H 0.46939 0.5314 0.86777 0.0
H3289 H 0.49961 0.5502 0.83691 0.0
H3290 H 0.50063 0.5478 0.8149 0.0
H3291 H 0.39311 0.48152 0.87393 0.0
H3292 H 0.39093 0.46989 0.86305 0.0
H3293 H 0.39917 0.48518 0.85851 0.0
C3294 C 0.61439 0.76719 0.603 0.0
C3295 C 0.61799 0.76239 0.59179 0.0
C3296 C 0.62241 0.77798 0.57657 0.0
C3297 C 0.61061 0.77478 0.57401 0.0
C3298 C 0.608 0.78196 0.56666 0.0
C3299 C 0.61734 0.79255 0.56178 0.0
C3300 C 0.6292 0.79566 0.56409 0.0
C3301 C 0.63156 0.78828 0.5714 0.0
C3302 C 0.59524 0.77833 0.56425 0.0
C3303 C 0.63937 0.8069 0.55902 0.0
C3304 C 0.60004 0.84375 0.61207 0.0
C3305 C 0.6094 0.84851 0.60191 0.0
C3306 C 0.60561 0.83942 0.58135 0.0
C3307 C 0.61704 0.84211 0.57812 0.0
C3308 C 0.61875 0.8351 0.56934 0.0
C3309 C 0.60881 0.82509 0.56388 0.0
C3310 C 0.59725 0.82256 0.56692 0.0
C3311 C 0.59583 0.82995 0.57544 0.0
C3312 C 0.6312 0.83824 0.56614 0.0
C3313 C 0.58641 0.81182 0.56155 0.0
C3314 C 0.5945 0.83741 0.48665 0.0
C3315 C 0.60652 0.84134 0.48876 0.0
C3316 C 0.61003 0.8337 0.49369 0.0
C3317 C 0.60133 0.82197 0.49668 0.0
C3318 C 0.58927 0.81783 0.49396 0.0
C3319 C 0.58604 0.8256 0.48883 0.0
C3320 C 0.623 0.83826 0.49602 0.0
C3321 C 0.57977 0.80533 0.49687 0.0
C3322 C 0.60892 0.74724 0.48887 0.0
C3323 C 0.60736 0.75136 0.47608 0.0
C3324 C 0.61222 0.77172 0.48149 0.0
C3325 C 0.62149 0.78349 0.48193 0.0
C3326 C 0.62046 0.79224 0.48853 0.0
C3327 C 0.60978 0.78915 0.49467 0.0
C3328 C 0.60016 0.77736 0.49384 0.0
C3329 C 0.6015 0.76874 0.48734 0.0
C3330 C 0.63088 0.80473 0.4892 0.0
C3331 C 0.58854 0.77382 0.50001 0.0
C3332 C 0.61469 0.80065 0.5548 0.0
C3333 C 0.61317 0.80892 0.56164 0.0
C3334 C 0.61049 0.81676 0.55581 0.0
C3335 C 0.60926 0.81637 0.54271 0.0
C3336 C 0.60664 0.82416 0.5365 0.0
C3337 C 0.6051 0.82347 0.52365 0.0
C3338 C 0.60635 0.8151 0.51647 0.0
C3339 C 0.60472 0.81427 0.5034 0.0
C3340 C 0.60599 0.80582 0.49656 0.0
C3341 C 0.60884 0.7981 0.50243 0.0
C3342 C 0.61054 0.79883 0.51548 0.0
C3343 C 0.61348 0.79125 0.52168 0.0
C3344 C 0.61486 0.79183 0.53454 0.0
C3345 C 0.61345 0.80008 0.54171 0.0
C3346 C 0.61067 0.80794 0.53565 0.0
C3347 C 0.60922 0.80731 0.52252 0.0
C3348 C 0.58624 0.85907 0.49049 0.0
C3349 C 0.59588 0.85669 0.48589 0.0
O3350 O 0.62538 0.77157 0.58407 0.0
O3351 O 0.61408 0.76362 0.47544 0.0
O3352 O 0.59077 0.84478 0.48267 0.0
O3353 O 0.60379 0.84564 0.59038 0.0
H3354 H 0.60994 0.75585 0.5865 0.0
H3355 H 0.60934 0.77143 0.59994 0.0
H3356 H 0.62235 0.77388 0.60828 0.0
H3357 H 0.60865 0.75985 0.60929 0.0
H3358 H 0.60338 0.76677 0.57777 0.0
H3359 H 0.64063 0.79065 0.57335 0.0
H3360 H 0.5934 0.785 0.56852 0.0
H3361 H 0.58898 0.7695 0.56809 0.0
H3362 H 0.59359 0.7781 0.55409 0.0
H3363 H 0.6481 0.80802 0.56157 0.0
H3364 H 0.63896 0.81467 0.56264 0.0
H3365 H 0.63863 0.80683 0.54873 0.0
H3366 H 0.61465 0.84403 0.6031 0.0
H3367 H 0.60434 0.84595 0.62142 0.0
H3368 H 0.59451 0.83395 0.61112 0.0
H3369 H 0.59418 0.84756 0.61133 0.0
H3370 H 0.6246 0.84965 0.58253 0.0
H3371 H 0.58705 0.82804 0.57798 0.0
H3372 H 0.63209 0.83777 0.55591 0.0
H3373 H 0.63316 0.83175 0.57042 0.0
H3374 H 0.63787 0.84726 0.56958 0.0
H3375 H 0.57813 0.8104 0.5659 0.0
H3376 H 0.58704 0.80375 0.56283 0.0
H3377 H 0.58582 0.81292 0.55141 0.0
H3378 H 0.60219 0.85899 0.49384 0.0
H3379 H 0.61315 0.85037 0.48661 0.0
H3380 H 0.57681 0.82261 0.48695 0.0
H3381 H 0.62479 0.83911 0.50619 0.0
H3382 H 0.62873 0.84704 0.49178 0.0
H3383 H 0.62545 0.83187 0.49222 0.0
H3384 H 0.57077 0.80357 0.49445 0.0
H3385 H 0.58008 0.80368 0.50693 0.0
H3386 H 0.58141 0.79894 0.49162 0.0
H3387 H 0.59787 0.74838 0.47444 0.0
H3388 H 0.60367 0.73741 0.48933 0.0
H3389 H 0.60578 0.75089 0.49633 0.0
H3390 H 0.61839 0.75025 0.49068 0.0
H3391 H 0.62969 0.78573 0.47731 0.0
H3392 H 0.59415 0.75972 0.48696 0.0
H3393 H 0.6334 0.8075 0.49907 0.0
H3394 H 0.62838 0.81089 0.48507 0.0
H3395 H 0.6387 0.80563 0.48421 0.0
H3396 H 0.58151 0.76469 0.49731 0.0
H3397 H 0.58552 0.78009 0.49754 0.0
H3398 H 0.58974 0.77426 0.51026 0.0
H3399 H 0.61403 0.80921 0.5717 0.0
H3400 H 0.60565 0.83082 0.54153 0.0
H3401 H 0.60292 0.82959 0.51943 0.0
H3402 H 0.60464 0.80518 0.48656 0.0
H3403 H 0.61469 0.78472 0.51666 0.0
H3404 H 0.61703 0.78571 0.53881 0.0
H3405 H 0.59012 0.86859 0.49306 0.0
H3406 H 0.58201 0.85372 0.49886 0.0
H3407 H 0.57929 0.85663 0.48324 0.0
C3408 C 0.1528 0.75834 0.61876 0.0
C3409 C 0.14664 0.76127 0.60848 0.0
C3410 C 0.15536 0.76561 0.58802 0.0
C3411 C 0.15284 0.77428 0.58417 0.0
C3412 C 0.16004 0.7828 0.57551 0.0
C3413 C 0.17005 0.78269 0.57077 0.0
C3414 C 0.17234 0.77364 0.57432 0.0
C3415 C 0.16479 0.76506 0.58276 0.0
C3416 C 0.15717 0.79212 0.57173 0.0
C3417 C 0.18301 0.77333 0.56962 0.0
C3418 C 0.24349 0.86907 0.60187 0.0
C3419 C 0.23708 0.85691 0.59632 0.0
C3420 C 0.21894 0.84397 0.58445 0.0
C3421 C 0.22206 0.83544 0.58134 0.0
C3422 C 0.2144 0.82534 0.57419 0.0
C3423 C 0.20343 0.82377 0.57004 0.0
C3424 C 0.20031 0.83236 0.57308 0.0
C3425 C 0.20812 0.84237 0.58027 0.0
C3426 C 0.21798 0.81632 0.5711 0.0
C3427 C 0.18869 0.83095 0.56879 0.0
C3428 C 0.22438 0.83951 0.49042 0.0
C3429 C 0.22689 0.83122 0.49564 0.0
C3430 C 0.21813 0.82131 0.5019 0.0
C3431 C 0.20666 0.81969 0.50301 0.0
C3432 C 0.20403 0.82787 0.49755 0.0
C3433 C 0.21293 0.83765 0.49128 0.0
C3434 C 0.22119 0.81269 0.50753 0.0
C3435 C 0.19188 0.82639 0.49855 0.0
C3436 C 0.13673 0.72535 0.49174 0.0
C3437 C 0.13962 0.73789 0.48856 0.0
C3438 C 0.15877 0.75593 0.492 0.0
C3439 C 0.17048 0.75942 0.49492 0.0
C3440 C 0.17798 0.77036 0.50084 0.0
C3441 C 0.17369 0.77811 0.5036 0.0
C3442 C 0.16203 0.77491 0.50002 0.0
C3443 C 0.15465 0.7638 0.4943 0.0
C3444 C 0.1904 0.77353 0.50438 0.0
C3445 C 0.15732 0.78314 0.50241 0.0
C3446 C 0.17868 0.79263 0.56305 0.0
C3447 C 0.18669 0.80318 0.56924 0.0
C3448 C 0.19513 0.81298 0.56274 0.0
C3449 C 0.19566 0.81232 0.54965 0.0
C3450 C 0.20401 0.82205 0.54283 0.0
C3451 C 0.20459 0.82126 0.52997 0.0
C3452 C 0.19687 0.8107 0.52344 0.0
C3453 C 0.19758 0.80974 0.51039 0.0
C3454 C 0.18978 0.79912 0.50418 0.0
C3455 C 0.18127 0.78932 0.51067 0.0
C3456 C 0.18041 0.79011 0.52373 0.0
C3457 C 0.17196 0.78043 0.53057 0.0
C3458 C 0.17124 0.78129 0.54342 0.0
C3459 C 0.17911 0.79176 0.54996 0.0
C3460 C 0.18767 0.80165 0.54325 0.0
C3461 C 0.18828 0.80084 0.53012 0.0
C3462 C 0.25092 0.85932 0.49618 0.0
C3463 C 0.24469 0.85372 0.48375 0.0
O3464 O 0.14901 0.7579 0.59707 0.0
O3465 O 0.15173 0.74493 0.487 0.0
O3466 O 0.23265 0.84945 0.48462 0.0
O3467 O 0.22607 0.85383 0.59143 0.0
H3468 H 0.15041 0.77105 0.60898 0.0
H3469 H 0.16251 0.76333 0.61732 0.0
H3470 H 0.14973 0.74871 0.61869 0.0
H3471 H 0.15098 0.76093 0.62801 0.0
H3472 H 0.14531 0.77447 0.58806 0.0
H3473 H 0.16655 0.75822 0.58575 0.0
H3474 H 0.16367 0.80075 0.57612 0.0
H3475 H 0.14815 0.78989 0.57464 0.0
H3476 H 0.15784 0.79324 0.56149 0.0
H3477 H 0.18392 0.76614 0.57388 0.0
H3478 H 0.19117 0.78194 0.57166 0.0
H3479 H 0.18231 0.77196 0.55938 0.0
H3480 H 0.23689 0.84986 0.6022 0.0
H3481 H 0.24433 0.86768 0.61204 0.0
H3482 H 0.23676 0.87191 0.60328 0.0
H3483 H 0.25821 0.87818 0.59038 0.0
H3484 H 0.23042 0.83657 0.58449 0.0
H3485 H 0.20581 0.849 0.58269 0.0
H3486 H 0.21127 0.80752 0.57465 0.0
H3487 H 0.22675 0.81877 0.57513 0.0
H3488 H 0.21831 0.81541 0.56085 0.0
H3489 H 0.18776 0.83865 0.57154 0.0
H3490 H 0.18127 0.82282 0.57282 0.0
H3491 H 0.18789 0.82986 0.55851 0.0
H3492 H 0.24622 0.84634 0.48117 0.0
H3493 H 0.23566 0.83242 0.49499 0.0
H3494 H 0.21104 0.84405 0.48719 0.0
H3495 H 0.22051 0.8129 0.5178 0.0
H3496 H 0.23028 0.81475 0.50516 0.0
H3497 H 0.21479 0.80353 0.50424 0.0
H3498 H 0.19123 0.8335 0.49374 0.0
H3499 H 0.18967 0.82646 0.5085 0.0
H3500 H 0.18518 0.81768 0.49447 0.0
H3501 H 0.1367 0.74117 0.49663 0.0
H3502 H 0.12706 0.71953 0.49315 0.0
H3503 H 0.1414 0.72559 0.50047 0.0
H3504 H 0.13958 0.72151 0.48418 0.0
H3505 H 0.17361 0.75334 0.49291 0.0
H3506 H 0.14571 0.76131 0.49162 0.0
H3507 H 0.19194 0.77566 0.51448 0.0
H3508 H 0.19684 0.78155 0.49931 0.0
H3509 H 0.19217 0.76625 0.50218 0.0
H3510 H 0.14857 0.77993 0.49788 0.0
H3511 H 0.16365 0.79213 0.49898 0.0
H3512 H 0.15639 0.78396 0.51258 0.0
H3513 H 0.18638 0.80376 0.57929 0.0
H3514 H 0.21021 0.83038 0.54736 0.0
H3515 H 0.21122 0.82904 0.52522 0.0
H3516 H 0.19045 0.79842 0.49419 0.0
H3517 H 0.16578 0.77208 0.52607 0.0
H3518 H 0.16452 0.77358 0.54819 0.0
H3519 H 0.24936 0.86661 0.499 0.0
H3520 H 0.2606 0.86292 0.49539 0.0
H3521 H 0.24757 0.85262 0.5036 0.0
C3522 C 0.15749 0.38945 0.60883 0.0
C3523 C 0.14884 0.38562 0.59775 0.0
C3524 C 0.15975 0.38109 0.58208 0.0
C3525 C 0.16857 0.39287 0.5798 0.0
C3526 C 0.17832 0.39538 0.57236 0.0
C3527 C 0.17926 0.38595 0.56705 0.0
C3528 C 0.17022 0.3741 0.56899 0.0
C3529 C 0.16055 0.37185 0.57644 0.0
C3530 C 0.18776 0.40812 0.57033 0.0
C3531 C 0.17091 0.36383 0.56342 0.0
C3532 C 0.2455 0.40061 0.61811 0.0
C3533 C 0.2412 0.39125 0.60766 0.0
C3534 C 0.23668 0.3953 0.58706 0.0
C3535 C 0.22746 0.38398 0.58357 0.0
C3536 C 0.21901 0.38258 0.57463 0.0
C3537 C 0.21973 0.39273 0.56922 0.0
C3538 C 0.2293 0.40415 0.57243 0.0
C3539 C 0.2378 0.40525 0.58116 0.0
C3540 C 0.20912 0.37026 0.57122 0.0
C3541 C 0.23028 0.4152 0.56705 0.0
C3542 C 0.24431 0.40007 0.49041 0.0
C3543 C 0.23467 0.3886 0.49215 0.0
C3544 C 0.22433 0.38689 0.49788 0.0
C3545 C 0.22358 0.39685 0.50182 0.0
C3546 C 0.23306 0.40841 0.49953 0.0
C3547 C 0.24329 0.40987 0.49375 0.0
C3548 C 0.21424 0.37444 0.49989 0.0
C3549 C 0.23247 0.41921 0.50343 0.0
C3550 C 0.14636 0.39946 0.48994 0.0
C3551 C 0.15138 0.3972 0.47803 0.0
C3552 C 0.16441 0.39032 0.48635 0.0
C3553 C 0.16532 0.38027 0.48824 0.0
C3554 C 0.17482 0.38095 0.495 0.0
C3555 C 0.18367 0.39201 0.49994 0.0
C3556 C 0.18299 0.4023 0.49782 0.0
C3557 C 0.17336 0.40136 0.49105 0.0
C3558 C 0.1753 0.36982 0.49704 0.0
C3559 C 0.19235 0.41425 0.50289 0.0
C3560 C 0.19002 0.38842 0.56011 0.0
C3561 C 0.19961 0.38954 0.56696 0.0
C3562 C 0.20994 0.39148 0.56113 0.0
C3563 C 0.21076 0.39228 0.54804 0.0
C3564 C 0.22087 0.39388 0.54181 0.0
C3565 C 0.22165 0.39483 0.52893 0.0
C3566 C 0.21232 0.39416 0.52177 0.0
C3567 C 0.21304 0.39516 0.50868 0.0
C3568 C 0.20361 0.39448 0.50185 0.0
C3569 C 0.19338 0.39274 0.50774 0.0
C3570 C 0.19245 0.39164 0.52082 0.0
C3571 C 0.18223 0.38977 0.52703 0.0
C3572 C 0.1814 0.38869 0.53989 0.0
C3573 C 0.19077 0.38949 0.54704 0.0
C3574 C 0.20118 0.3914 0.54098 0.0
C3575 C 0.20199 0.39241 0.52785 0.0
C3576 C 0.27102 0.40301 0.49616 0.0
C3577 C 0.26012 0.39554 0.4879 0.0
O3578 O 0.15045 0.37818 0.58973 0.0
O3579 O 0.15471 0.38885 0.48008 0.0
O3580 O 0.25463 0.402 0.48542 0.0
O3581 O 0.24442 0.39688 0.59631 0.0
H3582 H 0.15029 0.39359 0.59268 0.0
H3583 H 0.16677 0.39464 0.60567 0.0
H3584 H 0.15636 0.38158 0.61385 0.0
H3585 H 0.15594 0.39514 0.6154 0.0
H3586 H 0.16801 0.40016 0.58389 0.0
H3587 H 0.15367 0.36279 0.57815 0.0
H3588 H 0.19623 0.40983 0.57459 0.0
H3589 H 0.1854 0.41447 0.57444 0.0
H3590 H 0.18926 0.40979 0.56022 0.0
H3591 H 0.16305 0.35513 0.56565 0.0
H3592 H 0.17897 0.36401 0.56696 0.0
H3593 H 0.17165 0.36466 0.55316 0.0
H3594 H 0.23138 0.38594 0.60842 0.0
H3595 H 0.24306 0.39629 0.62731 0.0
H3596 H 0.24126 0.40607 0.61708 0.0
H3597 H 0.25525 0.40658 0.6178 0.0
H3598 H 0.22682 0.37626 0.58793 0.0
H3599 H 0.24504 0.41393 0.58386 0.0
H3600 H 0.20775 0.36926 0.56098 0.0
H3601 H 0.20077 0.36879 0.57545 0.0
H3602 H 0.2109 0.36332 0.57459 0.0
H3603 H 0.23772 0.42342 0.57126 0.0
H3604 H 0.22193 0.41526 0.56851 0.0
H3605 H 0.2317 0.4153 0.55687 0.0
H3606 H 0.25426 0.38747 0.49328 0.0
H3607 H 0.23518 0.38098 0.489 0.0
H3608 H 0.25069 0.41868 0.49213 0.0
H3609 H 0.21262 0.37291 0.51 0.0
H3610 H 0.21604 0.36763 0.49593 0.0
H3611 H 0.20603 0.3733 0.49554 0.0
H3612 H 0.2405 0.4276 0.50078 0.0
H3613 H 0.23143 0.41928 0.51367 0.0
H3614 H 0.2246 0.41886 0.49908 0.0
H3615 H 0.15916 0.40563 0.47499 0.0
H3616 H 0.1435 0.40599 0.4882 0.0
H3617 H 0.15317 0.4031 0.49745 0.0
H3618 H 0.13866 0.39109 0.49321 0.0
H3619 H 0.15842 0.3718 0.48453 0.0
H3620 H 0.17289 0.40927 0.4896 0.0
H3621 H 0.1752 0.36821 0.50716 0.0
H3622 H 0.1837 0.37095 0.49331 0.0
H3623 H 0.16777 0.3619 0.49249 0.0
H3624 H 0.19086 0.4215 0.49996 0.0
H3625 H 0.20121 0.41624 0.4997 0.0
H3626 H 0.19243 0.41407 0.51321 0.0
H3627 H 0.199 0.38884 0.57701 0.0
H3628 H 0.2283 0.39443 0.54685 0.0
H3629 H 0.22967 0.39611 0.52467 0.0
H3630 H 0.20423 0.39526 0.49181 0.0
H3631 H 0.17474 0.38909 0.52202 0.0
H3632 H 0.17332 0.38726 0.54417 0.0
H3633 H 0.27571 0.39809 0.49801 0.0
H3634 H 0.26826 0.40498 0.50521 0.0
H3635 H 0.27723 0.41155 0.49173 0.0
H3636 H 0.97291 0.35752 0.06554 0.0
H3637 H 0.97195 0.36926 0.083 0.0
H3638 H 0.99946 0.4012 0.0665 0.0
H3639 H 0.0006 0.38963 0.04922 0.0
H3640 H 0.99036 0.38359 0.09932 0.0
H3641 H 0.97473 0.41021 0.07504 0.0
H3642 H 0.9735 0.39692 0.06826 0.0
H3643 H 0.98725 0.41081 0.06762 0.0
C3644 C 0.97871 0.36705 0.06561 0.0
C3645 C 0.98676 0.37264 0.05592 0.0
C3646 C 0.9781 0.37374 0.07554 0.0
C3647 C 0.98547 0.38611 0.0759 0.0
C3648 C 0.99345 0.3917 0.06623 0.0
H3649 H 0.01344 0.44561 0.12487 0.0
H3650 H 0.00728 0.43112 0.10773 0.0
C3651 C 0.99408 0.38505 0.05634 0.0
C3652 C 0.98558 0.39321 0.0868 0.0
H3653 H 0.98442 0.41792 0.09486 0.0
C3654 C 0.98883 0.39095 0.09843 0.0
C3655 C 0.98358 0.40281 0.08557 0.0
C3656 C 0.97945 0.40527 0.07347 0.0
C3657 C 0.9908 0.39846 0.10873 0.0
C3658 C 0.98931 0.40836 0.10735 0.0
C3659 C 0.9856 0.41034 0.09585 0.0
C3660 C 0.99241 0.41722 0.11749 0.0
C3661 C 0.99503 0.3961 0.12083 0.0
C3662 C 0.98596 0.41423 0.12855 0.0
C3663 C 0.98943 0.42252 0.13833 0.0
C3664 C 0.99933 0.43395 0.13714 0.0
C3665 C 0.00566 0.43694 0.12596 0.0
C3666 C 0.00217 0.42868 0.11619 0.0
H3667 H 0.99761 0.38926 0.11976 0.0
H3668 H 0.00272 0.40436 0.12462 0.0
H3669 H 0.98783 0.39294 0.12774 0.0
H3670 H 0.97835 0.40545 0.12967 0.0
H3671 H 0.9845 0.41994 0.1469 0.0
H3672 H 0.648 0.60858 0.07088 0.0
H3673 H 0.6392 0.59286 0.08628 0.0
H3674 H 0.60474 0.58014 0.06974 0.0
H3675 H 0.61343 0.5958 0.05437 0.0
H3676 H 0.62187 0.58835 0.10362 0.0
H3677 H 0.60706 0.55021 0.0709 0.0
H3678 H 0.61745 0.56526 0.06659 0.0
H3679 H 0.60184 0.56003 0.06674 0.0
C3680 C 0.63854 0.60244 0.07054 0.0
C3681 C 0.63143 0.60338 0.06134 0.0
C3682 C 0.63354 0.59345 0.07931 0.0
C3683 C 0.62136 0.58522 0.07901 0.0
C3684 C 0.61421 0.58622 0.06995 0.0
H3685 H 0.57742 0.53979 0.13773 0.0
H3686 H 0.58764 0.5554 0.12245 0.0
C3687 C 0.6192 0.59517 0.06117 0.0
C3688 C 0.61603 0.57576 0.08837 0.0
H3689 H 0.59949 0.54574 0.09147 0.0
C3690 C 0.61704 0.57903 0.10099 0.0
C3691 C 0.60988 0.5636 0.08491 0.0
C3692 C 0.60907 0.55953 0.07156 0.0
C3693 C 0.61178 0.57047 0.11023 0.0
C3694 C 0.60518 0.55833 0.10672 0.0
C3695 C 0.60444 0.55505 0.09413 0.0
C3696 C 0.59896 0.54888 0.11595 0.0
C3697 C 0.61346 0.57449 0.12368 0.0
C3698 C 0.60173 0.53989 0.11715 0.0
C3699 C 0.59579 0.53089 0.12574 0.0
C3700 C 0.58686 0.53062 0.13318 0.0
C3701 C 0.58414 0.53967 0.13199 0.0
C3702 C 0.59006 0.54866 0.12337 0.0
H3703 H 0.6213 0.5835 0.125 0.0
H3704 H 0.60555 0.5748 0.12678 0.0
H3705 H 0.61451 0.56826 0.12972 0.0
H3706 H 0.60857 0.53991 0.11151 0.0
H3707 H 0.5982 0.52414 0.12662 0.0
H3708 H 0.38805 0.02746 0.07129 0.0
H3709 H 0.40021 0.02711 0.08847 0.0
H3710 H 0.40762 0.00362 0.06697 0.0
H3711 H 0.39554 0.00388 0.04988 0.0
H3712 H 0.39628 0.00759 0.10135 0.0
H3713 H 0.44034 0.02804 0.0796 0.0
H3714 H 0.42825 0.02914 0.07303 0.0
H3715 H 0.42922 0.01605 0.07032 0.0
C3716 C 0.39236 0.0223 0.07021 0.0
C3717 C 0.3909 0.01577 0.05918 0.0
C3718 C 0.39933 0.02216 0.08 0.0
C3719 C 0.40501 0.01553 0.07891 0.0
C3720 C 0.40363 0.00908 0.06788 0.0
H3721 H 0.43569 0.98503 0.12397 0.0
H3722 H 0.42792 0.99213 0.10759 0.0
C3723 C 0.39669 0.00924 0.05811 0.0
C3724 C 0.41155 0.01447 0.0896 0.0
H3725 H 0.43765 0.01632 0.09772 0.0
C3726 C 0.4054 0.0097 0.10065 0.0
C3727 C 0.42345 0.01723 0.08865 0.0
C3728 C 0.43074 0.02301 0.0773 0.0
C3729 C 0.41062 0.00706 0.11056 0.0
C3730 C 0.42234 0.00936 0.1094 0.0
C3731 C 0.42864 0.01451 0.09853 0.0
C3732 C 0.4279 0.00581 0.11908 0.0
C3733 C 0.4034 0.00132 0.12197 0.0
C3734 C 0.43064 0.01131 0.13088 0.0
C3735 C 0.43515 0.00732 0.14022 0.0
C3736 C 0.43708 0.99784 0.13788 0.0
C3737 C 0.4345 0.99249 0.12597 0.0
C3738 C 0.43004 0.99651 0.11663 0.0
H3739 H 0.3939 0.99837 0.12056 0.0
H3740 H 0.40417 0.99356 0.1246 0.0
H3741 H 0.40684 0.00779 0.12986 0.0
H3742 H 0.4291 0.01855 0.13291 0.0
H3743 H 0.43691 0.01149 0.14936 0.0
H3744 H 0.36054 0.97401 0.94319 0.0
H3745 H 0.37316 0.97441 0.92618 0.0
H3746 H 0.4042 0.9979 0.94801 0.0
H3747 H 0.39175 0.99757 0.96493 0.0
H3748 H 0.38905 0.99383 0.91335 0.0
H3749 H 0.41235 0.97355 0.93582 0.0
H3750 H 0.39912 0.97247 0.94218 0.0
H3751 H 0.41332 0.98556 0.945 0.0
C3752 C 0.37006 0.97917 0.94438 0.0
C3753 C 0.37514 0.98567 0.95546 0.0
C3754 C 0.37724 0.97935 0.93469 0.0
C3755 C 0.38962 0.98599 0.93593 0.0
C3756 C 0.39469 0.99242 0.94699 0.0
H3757 H 0.45156 0.0169 0.89196 0.0
H3758 H 0.43633 0.00985 0.90796 0.0
C3759 C 0.38754 0.99223 0.95666 0.0
C3760 C 0.39732 0.98704 0.92537 0.0
H3761 H 0.42173 0.98539 0.91784 0.0
C3762 C 0.39605 0.99177 0.91423 0.0
C3763 C 0.40645 0.98434 0.92655 0.0
C3764 C 0.40782 0.97858 0.93799 0.0
C3765 C 0.40406 0.99446 0.90447 0.0
C3766 C 0.41349 0.99225 0.90589 0.0
C3767 C 0.41452 0.98712 0.91684 0.0
C3768 C 0.42278 0.99588 0.8964 0.0
C3769 C 0.40272 0.00013 0.89294 0.0
C3770 C 0.4202 0.99023 0.88469 0.0
C3771 C 0.42891 0.99418 0.87557 0.0
C3772 C 0.44034 0.00378 0.87806 0.0
C3773 C 0.4429 0.00934 0.88986 0.0
C3774 C 0.43422 0.00535 0.89898 0.0
H3775 H 0.39601 0.00286 0.89407 0.0
H3776 H 0.4113 0.00803 0.89052 0.0
H3777 H 0.39993 0.99372 0.88502 0.0
H3778 H 0.41142 0.98288 0.88257 0.0
H3779 H 0.42666 0.98986 0.8665 0.0
H3780 H 0.00595 0.39376 0.96503 0.0
H3781 H 0.00455 0.40574 0.94871 0.0
H3782 H 0.02878 0.40049 0.92628 0.0
H3783 H 0.03023 0.38839 0.94266 0.0
H3784 H 0.02153 0.42638 0.93736 0.0
H3785 H 0.99978 0.38857 0.90352 0.0
H3786 H 0.00154 0.38649 0.91977 0.0
H3787 H 0.01393 0.39181 0.90952 0.0
C3788 C 0.01116 0.3953 0.95673 0.0
C3789 C 0.01822 0.39013 0.95515 0.0
C3790 C 0.0103 0.40212 0.94738 0.0
C3791 C 0.01644 0.40388 0.93623 0.0
C3792 C 0.02379 0.39905 0.93473 0.0
H3793 H 0.00586 0.43533 0.86941 0.0
H3794 H 0.01488 0.42815 0.88437 0.0
C3795 C 0.02462 0.39216 0.94409 0.0
C3796 C 0.0147 0.41045 0.92613 0.0
H3797 H 0.00224 0.4068 0.89729 0.0
C3798 C 0.01743 0.42215 0.92854 0.0
C3799 C 0.00936 0.4049 0.91463 0.0
C3800 C 0.00588 0.39223 0.91168 0.0
C3801 C 0.01468 0.42834 0.91989 0.0
C3802 C 0.00893 0.42263 0.90861 0.0
C3803 C 0.00666 0.41113 0.90596 0.0
C3804 C 0.00434 0.42803 0.89987 0.0
C3805 C 0.01781 0.4409 0.92294 0.0
C3806 C 0.99542 0.43028 0.90364 0.0
C3807 C 0.99026 0.43435 0.89514 0.0
C3808 C 0.99399 0.43631 0.88272 0.0
C3809 C 0.00299 0.43412 0.87899 0.0
C3810 C 0.00811 0.43 0.88749 0.0
H3811 H 0.02507 0.44509 0.92998 0.0
H3812 H 0.02054 0.4464 0.91448 0.0
H3813 H 0.00995 0.44082 0.92683 0.0
H3814 H 0.99216 0.42852 0.91307 0.0
H3815 H 0.98314 0.43567 0.89819 0.0
H3816 H 0.59154 0.62083 0.97774 0.0
H3817 H 0.57654 0.61207 0.96126 0.0
H3818 H 0.60213 0.635 0.93455 0.0
H3819 H 0.61736 0.64329 0.95079 0.0
H3820 H 0.56716 0.62114 0.946 0.0
H3821 H 0.59014 0.60309 0.91817 0.0
H3822 H 0.59485 0.60903 0.93371 0.0
H3823 H 0.59898 0.61881 0.92069 0.0
C3824 C 0.59404 0.62392 0.96833 0.0
C3825 C 0.60573 0.63268 0.9656 0.0
C3826 C 0.58541 0.61897 0.95894 0.0
C3827 C 0.58827 0.6227 0.94662 0.0
C3828 C 0.59979 0.63177 0.94393 0.0
H3829 H 0.536 0.60681 0.88785 0.0
H3830 H 0.55089 0.61629 0.90443 0.0
C3831 C 0.60846 0.63664 0.95329 0.0
C3832 C 0.57919 0.61707 0.93662 0.0
H3833 H 0.57343 0.60243 0.90866 0.0
C3834 C 0.5685 0.617 0.93785 0.0
C3835 C 0.58087 0.6115 0.92609 0.0
C3836 C 0.59178 0.61049 0.92462 0.0
C3837 C 0.55949 0.61162 0.9288 0.0
C3838 C 0.56137 0.60648 0.91802 0.0
C3839 C 0.57203 0.60647 0.91685 0.0
C3840 C 0.55233 0.60082 0.90796 0.0
C3841 C 0.54794 0.61124 0.93106 0.0
C3842 C 0.54855 0.58914 0.90406 0.0
C3843 C 0.54026 0.58381 0.8944 0.0
C3844 C 0.5354 0.58998 0.88861 0.0
C3845 C 0.53936 0.60175 0.89239 0.0
C3846 C 0.5478 0.60714 0.90191 0.0
H3847 H 0.54662 0.61218 0.94112 0.0
H3848 H 0.54803 0.61871 0.92621 0.0
H3849 H 0.5403 0.60282 0.92749 0.0
H3850 H 0.55202 0.58413 0.90848 0.0
H3851 H 0.53767 0.57485 0.89151 0.0
H3852 H 0.03413 0.63798 0.9642 0.0
H3853 H 0.03563 0.62552 0.94791 0.0
H3854 H 0.00054 0.61516 0.93484 0.0
H3855 H 0.99882 0.62729 0.95117 0.0
H3856 H 0.01953 0.60013 0.94369 0.0
H3857 H 0.02168 0.62724 0.90343 0.0
H3858 H 0.02487 0.63306 0.91918 0.0
H3859 H 0.00981 0.62384 0.91398 0.0
C3860 C 0.02672 0.63302 0.95788 0.0
C3861 C 0.0164 0.63374 0.95893 0.0
C3862 C 0.02762 0.62596 0.94857 0.0
C3863 C 0.01826 0.61959 0.94009 0.0
C3864 C 0.00795 0.62022 0.94114 0.0
H3865 H 0.99987 0.57109 0.87823 0.0
H3866 H 0.00099 0.58436 0.89512 0.0
C3867 C 0.00701 0.62721 0.95046 0.0
C3868 C 0.01905 0.61197 0.93032 0.0
H3869 H 0.01822 0.60791 0.89886 0.0
C3870 C 0.01938 0.60187 0.93388 0.0
C3871 C 0.01881 0.61429 0.91756 0.0
C3872 C 0.01888 0.62525 0.91326 0.0
C3873 C 0.01903 0.59375 0.92497 0.0
C3874 C 0.01858 0.59596 0.91219 0.0
C3875 C 0.01852 0.60621 0.90866 0.0
C3876 C 0.01782 0.5876 0.90231 0.0
C3877 C 0.01871 0.58267 0.92931 0.0
C3878 C 0.02695 0.58509 0.90074 0.0
C3879 C 0.02629 0.57745 0.89115 0.0
C3880 C 0.0165 0.57223 0.88295 0.0
C3881 C 0.00743 0.57486 0.88451 0.0
C3882 C 0.00808 0.58246 0.89411 0.0
H3883 H 0.01623 0.58092 0.93925 0.0
H3884 H 0.01233 0.57483 0.92364 0.0
H3885 H 0.02761 0.58373 0.92825 0.0
H3886 H 0.03468 0.58918 0.90679 0.0
H3887 H 0.03349 0.57572 0.89002 0.0
H3888 H 0.37183 0.41207 0.96684 0.0
H3889 H 0.37974 0.428 0.95164 0.0
H3890 H 0.37907 0.40377 0.92362 0.0
H3891 H 0.37115 0.38783 0.93871 0.0
H3892 H 0.40041 0.43747 0.93784 0.0
H3893 H 0.36088 0.41749 0.90681 0.0
H3894 H 0.36059 0.41226 0.92232 0.0
H3895 H 0.36658 0.40783 0.90971 0.0
C3896 C 0.37341 0.41015 0.95745 0.0
C3897 C 0.37076 0.39866 0.95395 0.0
C3898 C 0.3779 0.41925 0.94877 0.0
C3899 C 0.3798 0.41702 0.93645 0.0
C3900 C 0.37739 0.40562 0.933 0.0
H3901 H 0.40587 0.45776 0.86947 0.0
H3902 H 0.39964 0.44295 0.8858 0.0
C3903 C 0.37286 0.39652 0.94164 0.0
C3904 C 0.38443 0.42662 0.92721 0.0
H3905 H 0.37822 0.43414 0.8991 0.0
C3906 C 0.39553 0.43679 0.92941 0.0
C3907 C 0.37804 0.42571 0.91623 0.0
C3908 C 0.36581 0.41529 0.91365 0.0
C3909 C 0.40055 0.44596 0.92074 0.0
C3910 C 0.39422 0.44496 0.90969 0.0
C3911 C 0.38308 0.43484 0.90755 0.0
C3912 C 0.39893 0.45429 0.90017 0.0
C3913 C 0.41268 0.45651 0.92332 0.0
C3914 C 0.40061 0.46557 0.90287 0.0
C3915 C 0.40418 0.47404 0.89356 0.0
C3916 C 0.40619 0.47138 0.88142 0.0
C3917 C 0.40459 0.46011 0.8788 0.0
C3918 C 0.40099 0.45165 0.88809 0.0
H3919 H 0.41744 0.45472 0.93076 0.0
H3920 H 0.41811 0.4591 0.91479 0.0
H3921 H 0.41178 0.46415 0.9264 0.0
H3922 H 0.39881 0.4677 0.91207 0.0
H3923 H 0.40508 0.48257 0.89577 0.0
H3924 H 0.60869 0.96798 0.95549 0.0
H3925 H 0.59507 0.96608 0.93875 0.0
H3926 H 0.60297 0.00182 0.94626 0.0
H3927 H 0.61674 0.00392 0.96277 0.0
H3928 H 0.57804 0.98417 0.94345 0.0
H3929 H 0.60593 0.98359 0.90484 0.0
H3930 H 0.60282 0.97322 0.91709 0.0
H3931 H 0.61174 0.98883 0.92034 0.0
C3932 C 0.60759 0.97546 0.95352 0.0
C3933 C 0.61381 0.9861 0.96047 0.0
C3934 C 0.59979 0.97435 0.94399 0.0
C3935 C 0.59811 0.98385 0.94126 0.0
C3936 C 0.60414 0.99439 0.94828 0.0
H3937 H 0.5699 0.99921 0.87649 0.0
H3938 H 0.58184 0.99905 0.89397 0.0
C3939 C 0.61196 0.99553 0.95776 0.0
C3940 C 0.59019 0.98294 0.93097 0.0
H3941 H 0.58747 0.98135 0.89934 0.0
C3942 C 0.58004 0.98349 0.9338 0.0
C3943 C 0.59295 0.98219 0.91842 0.0
C3944 C 0.60399 0.98201 0.91491 0.0
C3945 C 0.57255 0.98334 0.92436 0.0
C3946 C 0.57526 0.98251 0.91181 0.0
C3947 C 0.5854 0.98193 0.90899 0.0
C3948 C 0.5679 0.98261 0.90143 0.0
C3949 C 0.56198 0.98439 0.92787 0.0
C3950 C 0.55617 0.97337 0.89982 0.0
C3951 C 0.54933 0.97347 0.88988 0.0
C3952 C 0.55413 0.98283 0.88142 0.0
C3953 C 0.56594 0.99199 0.88298 0.0
C3954 C 0.57276 0.99188 0.89291 0.0
H3955 H 0.56259 0.98754 0.93764 0.0
H3956 H 0.56107 0.99059 0.92163 0.0
H3957 H 0.55384 0.97557 0.92688 0.0
H3958 H 0.55235 0.96601 0.90616 0.0
H3959 H 0.54033 0.96619 0.88874 0.0
H3960 H 0.62847 0.99935 0.07205 0.0
H3961 H 0.61627 0.00106 0.08812 0.0
H3962 H 0.62658 0.03619 0.07584 0.0
H3963 H 0.63895 0.03463 0.05976 0.0
H3964 H 0.62262 0.01817 0.10763 0.0
H3965 H 0.59006 0.01836 0.07448 0.0
H3966 H 0.60047 0.01388 0.0699 0.0
H3967 H 0.60529 0.02932 0.07194 0.0
C3968 C 0.62831 0.00753 0.07287 0.0
C3969 C 0.63468 0.01686 0.0646 0.0
C3970 C 0.62127 0.00845 0.08201 0.0
C3971 C 0.6204 0.01867 0.08304 0.0
C3972 C 0.62696 0.02813 0.07503 0.0
H3973 H 0.57641 0.03416 0.13166 0.0
H3974 H 0.59065 0.03545 0.11608 0.0
C3975 C 0.63402 0.02722 0.06586 0.0
C3976 C 0.61252 0.01931 0.09245 0.0
H3977 H 0.58721 0.02042 0.09581 0.0
C3978 C 0.61489 0.01869 0.10506 0.0
C3979 C 0.60248 0.02003 0.08905 0.0
C3980 C 0.59932 0.02035 0.07561 0.0
C3981 C 0.60746 0.01875 0.11439 0.0
C3982 C 0.59727 0.0192 0.11097 0.0
C3983 C 0.59502 0.02006 0.09838 0.0
C3984 C 0.58862 0.01841 0.12031 0.0
C3985 C 0.61065 0.01843 0.12781 0.0
C3986 C 0.58265 0.00832 0.12768 0.0
C3987 C 0.57454 0.00756 0.13654 0.0
C3988 C 0.57213 0.01681 0.13807 0.0
C3989 C 0.57803 0.02686 0.13058 0.0
C3990 C 0.58616 0.02761 0.12172 0.0
H3991 H 0.62022 0.02154 0.12899 0.0
H3992 H 0.60843 0.02399 0.13381 0.0
H3993 H 0.60557 0.00917 0.13109 0.0
H3994 H 0.58424 0.00101 0.12656 0.0
H3995 H 0.57019 0.99975 0.14223 0.0
H3996 H 0.98906 0.60492 0.04849 0.0
H3997 H 0.98667 0.59001 0.0634 0.0
H3998 H 0.97607 0.60661 0.09134 0.0
H3999 H 0.97788 0.62127 0.07629 0.0
H4000 H 0.99855 0.59347 0.08505 0.0
H4001 H 0.95047 0.57211 0.09404 0.0
H4002 H 0.95742 0.58192 0.08119 0.0
H4003 H 0.95832 0.58787 0.09659 0.0
C4004 C 0.98594 0.60526 0.05771 0.0
C4005 C 0.98356 0.61426 0.06114 0.0
C4006 C 0.98469 0.59678 0.06626 0.0
C4007 C 0.98105 0.5971 0.07844 0.0
C4008 C 0.97866 0.60605 0.08193 0.0
H4009 H 0.99195 0.56388 0.14232 0.0
H4010 H 0.99298 0.57759 0.12645 0.0
C4011 C 0.97985 0.61451 0.07335 0.0
C4012 C 0.9803 0.58837 0.08759 0.0
H4013 H 0.96162 0.5671 0.10759 0.0
C4014 C 0.99046 0.58767 0.08994 0.0
C4015 C 0.96969 0.5807 0.09384 0.0
C4016 C 0.95832 0.58058 0.09121 0.0
C4017 C 0.99037 0.57963 0.0985 0.0
C4018 C 0.97989 0.57227 0.10509 0.0
C4019 C 0.96967 0.57283 0.1026 0.0
C4020 C 0.97936 0.56395 0.11463 0.0
C4021 C 0.00145 0.57896 0.10024 0.0
C4022 C 0.97114 0.55177 0.11343 0.0
C4023 C 0.97049 0.54394 0.12253 0.0
C4024 C 0.97811 0.54814 0.13296 0.0
C4025 C 0.9862 0.56036 0.13422 0.0
C4026 C 0.98681 0.56819 0.12516 0.0
H4027 H 0.0074 0.58256 0.09213 0.0
H4028 H 0.00636 0.58432 0.10857 0.0
H4029 H 0.99928 0.56969 0.10166 0.0
H4030 H 0.96522 0.54833 0.10545 0.0
H4031 H 0.96397 0.5346 0.12147 0.0
H4032 H 0.40762 0.38782 0.04264 0.0
H4033 H 0.42237 0.39569 0.05947 0.0
H4034 H 0.40815 0.36045 0.07379 0.0
H4035 H 0.3933 0.35255 0.05706 0.0
H4036 H 0.41036 0.37605 0.09161 0.0
H4037 H 0.4522 0.39441 0.06544 0.0
H4038 H 0.44284 0.39989 0.06032 0.0
H4039 H 0.43796 0.38439 0.05843 0.0
C4040 C 0.40779 0.38172 0.04924 0.0
C4041 C 0.3993 0.36957 0.04855 0.0
C4042 C 0.41625 0.38623 0.05883 0.0
C4043 C 0.41645 0.37864 0.0678 0.0
C4044 C 0.40816 0.36647 0.06695 0.0
H4045 H 0.47007 0.39648 0.12515 0.0
H4046 H 0.45756 0.38916 0.1064 0.0
C4047 C 0.39966 0.36197 0.05742 0.0
C4048 C 0.42471 0.38347 0.07861 0.0
H4049 H 0.4539 0.40006 0.08689 0.0
C4050 C 0.41989 0.38125 0.09058 0.0
C4051 C 0.43713 0.39014 0.07725 0.0
C4052 C 0.44287 0.39226 0.06467 0.0
C4053 C 0.42713 0.38562 0.10122 0.0
C4054 C 0.43953 0.3927 0.09986 0.0
C4055 C 0.44438 0.39477 0.0879 0.0
C4056 C 0.44759 0.39778 0.11078 0.0
C4057 C 0.4214 0.38241 0.11383 0.0
C4058 C 0.44636 0.40531 0.11928 0.0
C4059 C 0.45337 0.40935 0.13005 0.0
C4060 C 0.46187 0.40609 0.13243 0.0
C4061 C 0.46349 0.39902 0.1236 0.0
C4062 C 0.45639 0.39488 0.11289 0.0
H4063 H 0.41245 0.37437 0.11329 0.0
H4064 H 0.42688 0.3808 0.12053 0.0
H4065 H 0.42042 0.38982 0.1175 0.0
H4066 H 0.43984 0.40792 0.11767 0.0
H4067 H 0.45202 0.4149 0.13662 0.0
H4068 H 0.64021 0.69165 0.40604 0.0
H4069 H 0.63245 0.69937 0.42198 0.0
H4070 H 0.63548 0.72606 0.39667 0.0
H4071 H 0.64295 0.71818 0.38063 0.0
H4072 H 0.64242 0.72041 0.43322 0.0
H4073 H 0.60222 0.71308 0.40832 0.0
H4074 H 0.61087 0.70674 0.40295 0.0
H4075 H 0.61533 0.72186 0.39949 0.0
C4076 C 0.63916 0.69913 0.40388 0.0
C4077 C 0.6421 0.70427 0.39208 0.0
C4078 C 0.63471 0.70352 0.41297 0.0
C4079 C 0.63316 0.71315 0.41045 0.0
C4080 C 0.63624 0.71839 0.39871 0.0
H4081 H 0.62948 0.75997 0.46565 0.0
H4082 H 0.63543 0.75044 0.44991 0.0
C4083 C 0.64056 0.71392 0.38957 0.0
C4084 C 0.62881 0.71804 0.42025 0.0
H4085 H 0.6082 0.72605 0.42615 0.0
C4086 C 0.63488 0.72155 0.43171 0.0
C4087 C 0.61883 0.71934 0.41838 0.0
C4088 C 0.61136 0.71494 0.40667 0.0
C4089 C 0.63145 0.7266 0.44122 0.0
C4090 C 0.6219 0.72853 0.43907 0.0
C4091 C 0.61563 0.72473 0.42774 0.0
C4092 C 0.61824 0.73445 0.44844 0.0
C4093 C 0.63798 0.72961 0.45353 0.0
C4094 C 0.6065 0.72884 0.45253 0.0
C4095 C 0.603 0.73442 0.46128 0.0
C4096 C 0.61115 0.74575 0.46606 0.0
C4097 C 0.62293 0.75133 0.46199 0.0
C4098 C 0.62639 0.74581 0.45312 0.0
H4099 H 0.64223 0.72421 0.455 0.0
H4100 H 0.64507 0.73907 0.45364 0.0
H4101 H 0.63196 0.72816 0.46141 0.0
H4102 H 0.60006 0.72007 0.44905 0.0
H4103 H 0.59393 0.72983 0.46442 0.0
H4104 H 0.27163 0.92622 0.3933 0.0
H4105 H 0.26365 0.911 0.40921 0.0
H4106 H 0.29843 0.92577 0.4257 0.0
H4107 H 0.30649 0.94106 0.40981 0.0
H4108 H 0.2694 0.894 0.41465 0.0
H4109 H 0.27825 0.92411 0.45527 0.0
H4110 H 0.27905 0.92885 0.43945 0.0
H4111 H 0.29104 0.92775 0.44611 0.0
C4112 C 0.2776 0.9262 0.40028 0.0
C4113 C 0.28969 0.93486 0.40032 0.0
C4114 C 0.27301 0.91753 0.40938 0.0
C4115 C 0.28041 0.91736 0.41873 0.0
C4116 C 0.29251 0.9259 0.41873 0.0
H4117 H 0.26204 0.85755 0.46708 0.0
H4118 H 0.27092 0.8729 0.4513 0.0
C4119 C 0.29711 0.93462 0.40965 0.0
C4120 C 0.27543 0.9081 0.42833 0.0
H4121 H 0.27129 0.90392 0.45959 0.0
C4122 C 0.26981 0.89616 0.42448 0.0
C4123 C 0.27586 0.91095 0.44113 0.0
C4124 C 0.28127 0.9236 0.44577 0.0
C4125 C 0.26464 0.88697 0.43309 0.0
C4126 C 0.26531 0.88982 0.44591 0.0
C4127 C 0.27088 0.90176 0.44976 0.0
C4128 C 0.26001 0.88055 0.45547 0.0
C4129 C 0.25827 0.8743 0.42834 0.0
C4130 C 0.25119 0.87997 0.46329 0.0
C4131 C 0.24617 0.87128 0.47234 0.0
C4132 C 0.24982 0.86292 0.47368 0.0
C4133 C 0.25885 0.86368 0.46603 0.0
C4134 C 0.2639 0.87242 0.457 0.0
H4135 H 0.25593 0.87368 0.41832 0.0
H4136 H 0.26412 0.87053 0.42951 0.0
H4137 H 0.25005 0.86879 0.43364 0.0
H4138 H 0.24816 0.88624 0.46235 0.0
H4139 H 0.23945 0.87109 0.47831 0.0
H4140 H 0.0776 0.34663 0.38719 0.0
H4141 H 0.09292 0.3547 0.40343 0.0
H4142 H 0.0795 0.3767 0.41719 0.0
H4143 H 0.06408 0.36858 0.40101 0.0
H4144 H 0.11052 0.37755 0.40795 0.0
H4145 H 0.08071 0.36029 0.44848 0.0
H4146 H 0.07565 0.35525 0.43276 0.0
H4147 H 0.07756 0.36914 0.43832 0.0
C4148 C 0.07793 0.35321 0.39365 0.0
C4149 C 0.06961 0.35694 0.39285 0.0
C4150 C 0.08666 0.35779 0.40295 0.0
C4151 C 0.08724 0.36617 0.41163 0.0
C4152 C 0.07904 0.37003 0.41077 0.0
H4153 H 0.14846 0.40996 0.45975 0.0
H4154 H 0.133 0.40283 0.44361 0.0
C4155 C 0.07025 0.3654 0.40152 0.0
C4156 C 0.09658 0.37099 0.42142 0.0
H4157 H 0.10105 0.37351 0.45287 0.0
C4158 C 0.10846 0.37666 0.41778 0.0
C4159 C 0.09386 0.36971 0.43423 0.0
C4160 C 0.08126 0.36317 0.43872 0.0
C4161 C 0.11771 0.38112 0.42659 0.0
C4162 C 0.11499 0.38008 0.4394 0.0
C4163 C 0.10311 0.37438 0.44304 0.0
C4164 C 0.12433 0.3845 0.44918 0.0
C4165 C 0.13027 0.3866 0.4221 0.0
C4166 C 0.12436 0.37663 0.4579 0.0
C4167 C 0.1331 0.38069 0.46716 0.0
C4168 C 0.14206 0.3927 0.46781 0.0
C4169 C 0.14185 0.40061 0.45925 0.0
C4170 C 0.13305 0.39655 0.45002 0.0
H4171 H 0.13063 0.38393 0.41233 0.0
H4172 H 0.1345 0.3964 0.42249 0.0
H4173 H 0.13553 0.38405 0.42806 0.0
H4174 H 0.11763 0.36732 0.4575 0.0
H4175 H 0.13287 0.37445 0.47382 0.0
H4176 H 0.0249 0.28808 0.28731 0.0
H4177 H 0.03289 0.28048 0.27147 0.0
H4178 H 0.06802 0.30979 0.27912 0.0
H4179 H 0.06021 0.31721 0.29521 0.0
H4180 H 0.04526 0.29181 0.25014 0.0
H4181 H 0.07251 0.28117 0.28091 0.0
H4182 H 0.0612 0.28389 0.28679 0.0
H4183 H 0.0755 0.29609 0.28285 0.0
C4184 C 0.03435 0.29281 0.28575 0.0
C4185 C 0.04192 0.30324 0.29254 0.0
C4186 C 0.03888 0.2885 0.27665 0.0
C4187 C 0.05106 0.29449 0.27425 0.0
C4188 C 0.05862 0.30491 0.28098 0.0
H4189 H 0.08859 0.29189 0.20956 0.0
H4190 H 0.07923 0.29718 0.22615 0.0
C4191 C 0.05412 0.30922 0.29007 0.0
C4192 C 0.05585 0.29012 0.2644 0.0
H4193 H 0.07598 0.28135 0.25912 0.0
C4194 C 0.05191 0.28944 0.25211 0.0
C4195 C 0.06444 0.28692 0.26702 0.0
C4196 C 0.06859 0.28693 0.28012 0.0
C4197 C 0.05659 0.28596 0.2423 0.0
C4198 C 0.06552 0.28323 0.24486 0.0
C4199 C 0.06921 0.28358 0.25719 0.0
C4200 C 0.07118 0.28005 0.23485 0.0
C4201 C 0.05191 0.28517 0.22927 0.0
C4202 C 0.06992 0.26875 0.23441 0.0
C4203 C 0.07528 0.26572 0.22498 0.0
C4204 C 0.08214 0.27402 0.21594 0.0
C4205 C 0.08343 0.28536 0.21646 0.0
C4206 C 0.07803 0.28836 0.22586 0.0
H4207 H 0.04325 0.28479 0.22926 0.0
H4208 H 0.05828 0.29313 0.22408 0.0
H4209 H 0.05087 0.27723 0.22424 0.0
H4210 H 0.06469 0.26223 0.24129 0.0
H4211 H 0.07404 0.25689 0.22473 0.0
H4212 H 0.71378 0.73239 0.29219 0.0
H4213 H 0.72112 0.7475 0.27612 0.0
H4214 H 0.68974 0.75006 0.2794 0.0
H4215 H 0.6821 0.7347 0.29511 0.0
H4216 H 0.70731 0.74638 0.25244 0.0
H4217 H 0.72008 0.78502 0.28424 0.0
H4218 H 0.71896 0.77141 0.28943 0.0
H4219 H 0.70581 0.77204 0.28658 0.0
C4220 C 0.70838 0.73607 0.28942 0.0
C4221 C 0.69736 0.73234 0.29501 0.0
C4222 C 0.71262 0.74475 0.2803 0.0
C4223 C 0.706 0.74993 0.2767 0.0
C4224 C 0.69503 0.74625 0.2822 0.0
H4225 H 0.70929 0.79171 0.21374 0.0
H4226 H 0.7036 0.77669 0.2298 0.0
C4227 C 0.69073 0.73752 0.29123 0.0
C4228 C 0.71042 0.75907 0.26705 0.0
H4229 H 0.72087 0.7885 0.26264 0.0
C4230 C 0.71034 0.7556 0.25464 0.0
C4231 C 0.71442 0.77106 0.27002 0.0
C4232 C 0.71493 0.7752 0.28329 0.0
C4233 C 0.71392 0.76384 0.24503 0.0
C4234 C 0.7176 0.7758 0.24797 0.0
C4235 C 0.71796 0.7793 0.26043 0.0
C4236 C 0.72104 0.7848 0.23823 0.0
C4237 C 0.71378 0.75973 0.23183 0.0
C4238 C 0.73268 0.7944 0.23782 0.0
C4239 C 0.73593 0.80299 0.2287 0.0
C4240 C 0.72756 0.80221 0.21996 0.0
C4241 C 0.71589 0.79257 0.22043 0.0
C4242 C 0.71266 0.78397 0.22952 0.0
H4243 H 0.71337 0.75104 0.23146 0.0
H4244 H 0.70588 0.75873 0.22688 0.0
H4245 H 0.72176 0.76633 0.2268 0.0
H4246 H 0.73925 0.79519 0.24449 0.0
H4247 H 0.745 0.81024 0.22847 0.0
H4248 H 0.26344 0.97838 0.30026 0.0
H4249 H 0.24769 0.97022 0.28451 0.0
H4250 H 0.24934 0.93815 0.28256 0.0
H4251 H 0.26445 0.94585 0.29885 0.0
H4252 H 0.24773 0.96368 0.26097 0.0
H4253 H 0.21456 0.92452 0.2866 0.0
H4254 H 0.22771 0.93631 0.29403 0.0
H4255 H 0.22832 0.92481 0.28526 0.0
C4256 C 0.2603 0.96949 0.29668 0.0
C4257 C 0.26522 0.96277 0.30093 0.0
C4258 C 0.25136 0.96488 0.28758 0.0
C4259 C 0.24716 0.95348 0.28251 0.0
C4260 C 0.2522 0.94684 0.28655 0.0
H4261 H 0.20337 0.91389 0.21952 0.0
H4262 H 0.21793 0.92248 0.23655 0.0
C4263 C 0.26102 0.95137 0.29575 0.0
C4264 C 0.23779 0.94865 0.27272 0.0
H4265 H 0.211 0.9246 0.26475 0.0
C4266 C 0.23965 0.95519 0.26186 0.0
C4267 C 0.2272 0.93759 0.27391 0.0
C4268 C 0.22426 0.93047 0.28564 0.0
C4269 C 0.23136 0.95082 0.25204 0.0
C4270 C 0.22101 0.93963 0.2531 0.0
C4271 C 0.21903 0.93315 0.26398 0.0
C4272 C 0.21216 0.93445 0.24292 0.0
C4273 C 0.23376 0.95804 0.24047 0.0
C4274 C 0.20413 0.93836 0.24096 0.0
C4275 C 0.19572 0.93339 0.23136 0.0
C4276 C 0.19517 0.92437 0.22361 0.0
C4277 C 0.20338 0.92061 0.22552 0.0
C4278 C 0.21173 0.92554 0.23518 0.0
H4279 H 0.2427 0.96611 0.24065 0.0
H4280 H 0.23296 0.95258 0.23212 0.0
H4281 H 0.22706 0.96079 0.23953 0.0
H4282 H 0.20438 0.94526 0.24686 0.0
H4283 H 0.18965 0.93661 0.22994 0.0
H4284 H 0.71203 0.96293 0.30702 0.0
H4285 H 0.72009 0.95574 0.29085 0.0
H4286 H 0.69015 0.94711 0.26709 0.0
H4287 H 0.68196 0.95413 0.28321 0.0
H4288 H 0.70948 0.9328 0.27891 0.0
H4289 H 0.71908 0.96861 0.24562 0.0
H4290 H 0.71622 0.96965 0.26186 0.0
H4291 H 0.70418 0.9609 0.25125 0.0
C4292 C 0.70712 0.95943 0.29839 0.0
C4293 C 0.6964 0.9592 0.29637 0.0
C4294 C 0.71176 0.95536 0.28915 0.0
C4295 C 0.7058 0.95106 0.27773 0.0
C4296 C 0.69501 0.95063 0.27576 0.0
H4297 H 0.72018 0.92643 0.20852 0.0
H4298 H 0.71116 0.93133 0.22576 0.0
C4299 C 0.69036 0.95468 0.28497 0.0
C4300 C 0.71084 0.94701 0.26784 0.0
H4301 H 0.72129 0.95273 0.23822 0.0
C4302 C 0.71212 0.93717 0.27002 0.0
C4303 C 0.71424 0.95274 0.25627 0.0
C4304 C 0.71348 0.96362 0.2536 0.0
C4305 C 0.7165 0.93273 0.26081 0.0
C4306 C 0.71988 0.93845 0.24922 0.0
C4307 C 0.71864 0.94832 0.24709 0.0
C4308 C 0.72483 0.93445 0.23917 0.0
C4309 C 0.7172 0.92181 0.26346 0.0
C4310 C 0.73548 0.93453 0.241 0.0
C4311 C 0.74059 0.93165 0.23119 0.0
C4312 C 0.73518 0.92871 0.21935 0.0
C4313 C 0.72446 0.92852 0.21758 0.0
C4314 C 0.71934 0.93136 0.2274 0.0
H4315 H 0.71135 0.91669 0.27123 0.0
H4316 H 0.71472 0.91592 0.2551 0.0
H4317 H 0.72642 0.92452 0.26614 0.0
H4318 H 0.74003 0.93717 0.24991 0.0
H4319 H 0.74895 0.93204 0.23274 0.0
H4320 H 0.04541 0.72933 0.28312 0.0
H4321 H 0.05266 0.7439 0.26659 0.0
H4322 H 0.04233 0.76545 0.28755 0.0
H4323 H 0.03496 0.75085 0.30414 0.0
H4324 H 0.03956 0.75143 0.25279 0.0
H4325 H 0.07682 0.78907 0.27839 0.0
H4326 H 0.06971 0.77404 0.28385 0.0
H4327 H 0.06273 0.78272 0.28591 0.0
C4328 C 0.04462 0.73713 0.2842 0.0
C4329 C 0.03957 0.73891 0.29495 0.0
C4330 C 0.04884 0.74549 0.27478 0.0
C4331 C 0.04817 0.75582 0.27591 0.0
C4332 C 0.04316 0.75765 0.28661 0.0
H4333 H 0.06601 0.81408 0.22583 0.0
H4334 H 0.05999 0.8008 0.24364 0.0
C4335 C 0.03894 0.7493 0.29607 0.0
C4336 C 0.0523 0.7644 0.26564 0.0
H4337 H 0.07243 0.79296 0.25822 0.0
C4338 C 0.04677 0.7605 0.25395 0.0
C4339 C 0.06167 0.77624 0.26723 0.0
C4340 C 0.06817 0.78078 0.27949 0.0
C4341 C 0.05027 0.76815 0.24382 0.0
C4342 C 0.05973 0.77995 0.24536 0.0
C4343 C 0.06521 0.78389 0.25707 0.0
C4344 C 0.06404 0.78831 0.23488 0.0
C4345 C 0.04366 0.76357 0.23162 0.0
C4346 C 0.06857 0.78583 0.2242 0.0
C4347 C 0.07198 0.79336 0.21403 0.0
C4348 C 0.07107 0.80361 0.21444 0.0
C4349 C 0.06687 0.80627 0.22531 0.0
C4350 C 0.06342 0.79871 0.23546 0.0
H4351 H 0.03482 0.75555 0.23288 0.0
H4352 H 0.04246 0.77045 0.22703 0.0
H4353 H 0.0488 0.76113 0.22531 0.0
H4354 H 0.06933 0.77797 0.22366 0.0
H4355 H 0.07515 0.79108 0.20577 0.0
H4356 H 0.26239 0.31767 0.29991 0.0
H4357 H 0.24773 0.31054 0.28301 0.0
H4358 H 0.25935 0.28668 0.2705 0.0
H4359 H 0.27412 0.29386 0.28729 0.0
H4360 H 0.25801 0.29928 0.25169 0.0
H4361 H 0.21651 0.2799 0.27857 0.0
H4362 H 0.22679 0.29505 0.28283 0.0
H4363 H 0.23059 0.28385 0.28559 0.0
C4364 C 0.26168 0.31075 0.29369 0.0
C4365 C 0.2694 0.30632 0.29493 0.0
C4366 C 0.25327 0.30667 0.28405 0.0
C4367 C 0.25232 0.29795 0.27559 0.0
C4368 C 0.2599 0.29339 0.27693 0.0
H4369 H 0.19713 0.26018 0.21957 0.0
H4370 H 0.20986 0.26604 0.23817 0.0
C4371 C 0.26836 0.29753 0.2865 0.0
C4372 C 0.24396 0.29414 0.26486 0.0
H4373 H 0.21485 0.28245 0.25687 0.0
C4374 C 0.24857 0.29554 0.25283 0.0
C4375 C 0.23162 0.28914 0.26636 0.0
C4376 C 0.22605 0.28677 0.27903 0.0
C4377 C 0.24122 0.29225 0.24226 0.0
C4378 C 0.22894 0.2877 0.24374 0.0
C4379 C 0.22429 0.2861 0.25576 0.0
C4380 C 0.22079 0.28436 0.23288 0.0
C4381 C 0.24666 0.29348 0.22962 0.0
C4382 C 0.22252 0.29278 0.22392 0.0
C4383 C 0.21535 0.28942 0.21326 0.0
C4384 C 0.20619 0.27762 0.21147 0.0
C4385 C 0.20415 0.26932 0.22071 0.0
C4386 C 0.21139 0.27266 0.23133 0.0
H4387 H 0.25532 0.29388 0.23026 0.0
H4388 H 0.24072 0.28598 0.22333 0.0
H4389 H 0.24821 0.30183 0.22538 0.0
H4390 H 0.22954 0.30192 0.22507 0.0
H4391 H 0.21708 0.29602 0.20632 0.0
H4392 H 0.2806 0.35494 0.38591 0.0
H4393 H 0.27306 0.36224 0.40252 0.0
H4394 H 0.30781 0.38084 0.41953 0.0
H4395 H 0.31528 0.3733 0.40314 0.0
H4396 H 0.29168 0.36835 0.43611 0.0
H4397 H 0.27629 0.39397 0.4094 0.0
H4398 H 0.26978 0.37893 0.40391 0.0
H4399 H 0.2855 0.38881 0.40268 0.0
C4400 C 0.28665 0.36075 0.39309 0.0
C4401 C 0.29851 0.36355 0.39327 0.0
C4402 C 0.28235 0.36497 0.40255 0.0
C4403 C 0.2899 0.37223 0.4122 0.0
C4404 C 0.30182 0.37526 0.41218 0.0
H4405 H 0.27381 0.40988 0.46898 0.0
H4406 H 0.28081 0.40423 0.45047 0.0
C4407 C 0.30608 0.37094 0.40284 0.0
C4408 C 0.28524 0.37597 0.42281 0.0
H4409 H 0.26994 0.38987 0.43048 0.0
C4410 C 0.28699 0.37312 0.43487 0.0
C4411 C 0.27923 0.38231 0.42122 0.0
C4412 C 0.27769 0.38629 0.40861 0.0
C4413 C 0.28282 0.3763 0.44535 0.0
C4414 C 0.27636 0.38219 0.44373 0.0
C4415 C 0.27474 0.38521 0.4317 0.0
C4416 C 0.27146 0.38549 0.45446 0.0
C4417 C 0.28563 0.37356 0.45807 0.0
C4418 C 0.26362 0.3768 0.46264 0.0
C4419 C 0.25977 0.38003 0.47329 0.0
C4420 C 0.26353 0.392 0.47585 0.0
C4421 C 0.27089 0.40062 0.4673 0.0
C4422 C 0.27485 0.39739 0.45672 0.0
H4423 H 0.29339 0.37229 0.45786 0.0
H4424 H 0.28747 0.38075 0.46489 0.0
H4425 H 0.27794 0.36521 0.46136 0.0
H4426 H 0.26062 0.36753 0.4609 0.0
H4427 H 0.25398 0.37319 0.47962 0.0
H4428 H 0.65888 0.93836 0.40742 0.0
H4429 H 0.65072 0.92355 0.42373 0.0
H4430 H 0.61715 0.90557 0.40435 0.0
H4431 H 0.62508 0.9205 0.38816 0.0
H4432 H 0.62948 0.91793 0.43825 0.0
H4433 H 0.62574 0.87927 0.41192 0.0
H4434 H 0.63552 0.8944 0.40732 0.0
H4435 H 0.61991 0.88745 0.40437 0.0
C4436 C 0.64974 0.93131 0.40664 0.0
C4437 C 0.64264 0.93065 0.39646 0.0
C4438 C 0.64513 0.92281 0.41593 0.0
C4439 C 0.6334 0.91342 0.41514 0.0
C4440 C 0.6263 0.91265 0.40499 0.0
H4441 H 0.58732 0.85495 0.46208 0.0
H4442 H 0.59682 0.86865 0.44491 0.0
C4443 C 0.63087 0.92119 0.39573 0.0
C4444 C 0.6284 0.90476 0.42527 0.0
H4445 H 0.61735 0.8756 0.43198 0.0
C4446 C 0.62688 0.90869 0.43693 0.0
C4447 C 0.62496 0.89272 0.42343 0.0
C4448 C 0.62667 0.88816 0.41112 0.0
C4449 C 0.62179 0.90082 0.44679 0.0
C4450 C 0.61842 0.88877 0.44502 0.0
C4451 C 0.61998 0.88485 0.43334 0.0
C4452 C 0.61305 0.88007 0.45512 0.0
C4453 C 0.61972 0.90544 0.45889 0.0
C4454 C 0.61915 0.88176 0.4664 0.0
C4455 C 0.61371 0.87402 0.47623 0.0
C4456 C 0.60214 0.86434 0.47486 0.0
C4457 C 0.59624 0.86236 0.46337 0.0
C4458 C 0.60165 0.87016 0.45358 0.0
H4459 H 0.61975 0.91387 0.45764 0.0
H4460 H 0.61116 0.89886 0.46302 0.0
H4461 H 0.62691 0.9072 0.46559 0.0
H4462 H 0.62806 0.88918 0.46769 0.0
H4463 H 0.61847 0.87572 0.48497 0.0
H4464 H 0.08126 0.72836 0.38602 0.0
H4465 H 0.09662 0.73473 0.40219 0.0
H4466 H 0.07256 0.70556 0.42492 0.0
H4467 H 0.05727 0.699 0.40873 0.0
H4468 H 0.09577 0.74102 0.42748 0.0
H4469 H 0.10239 0.70249 0.42318 0.0
H4470 H 0.09494 0.70607 0.41135 0.0
H4471 H 0.08722 0.69851 0.42512 0.0
C4472 C 0.07929 0.72324 0.39441 0.0
C4473 C 0.06807 0.71314 0.39608 0.0
C4474 C 0.08804 0.72693 0.40366 0.0
C4475 C 0.08576 0.72052 0.41466 0.0
C4476 C 0.07455 0.71052 0.41641 0.0
H4477 H 0.1189 0.73807 0.48677 0.0
H4478 H 0.10689 0.7352 0.46816 0.0
C4479 C 0.06579 0.70685 0.4072 0.0
C4480 C 0.09502 0.72436 0.42443 0.0
H4481 H 0.11081 0.71495 0.44111 0.0
C4482 C 0.09915 0.73539 0.4304 0.0
C4483 C 0.09954 0.71707 0.42807 0.0
C4484 C 0.0959 0.70542 0.42153 0.0
C4485 C 0.10738 0.73912 0.44027 0.0
C4486 C 0.11143 0.73154 0.44434 0.0
C4487 C 0.10763 0.72071 0.43805 0.0
C4488 C 0.11922 0.73439 0.45542 0.0
C4489 C 0.11165 0.75113 0.44624 0.0
C4490 C 0.13008 0.73476 0.45446 0.0
C4491 C 0.13692 0.73633 0.4651 0.0
C4492 C 0.13302 0.73759 0.47688 0.0
C4493 C 0.12221 0.73736 0.47779 0.0
C4494 C 0.11538 0.73577 0.46716 0.0
H4495 H 0.11059 0.75714 0.43985 0.0
H4496 H 0.10634 0.75008 0.45464 0.0
H4497 H 0.12109 0.75537 0.44911 0.0
H4498 H 0.13315 0.73358 0.44551 0.0
H4499 H 0.1451 0.73626 0.46416 0.0
H4500 H 0.30728 0.03242 0.7314 0.0
H4501 H 0.2998 0.04073 0.74691 0.0
H4502 H 0.29212 0.05848 0.71804 0.0
H4503 H 0.29945 0.05007 0.7024 0.0
H4504 H 0.30468 0.07314 0.73879 0.0
H4505 H 0.26507 0.03123 0.75308 0.0
H4506 H 0.27864 0.03098 0.75348 0.0
H4507 H 0.27285 0.03242 0.73886 0.0
C4508 C 0.30381 0.03792 0.72831 0.0
C4509 C 0.3039 0.04052 0.71564 0.0
C4510 C 0.29956 0.04268 0.73719 0.0
C4511 C 0.29528 0.05009 0.7336 0.0
C4512 C 0.29537 0.05274 0.72099 0.0
H4513 H 0.25618 0.07278 0.78043 0.0
H4514 H 0.26272 0.06462 0.76369 0.0
C4515 C 0.29961 0.04797 0.71208 0.0
C4516 C 0.29105 0.05537 0.74305 0.0
H4517 H 0.27036 0.04836 0.76559 0.0
C4518 C 0.29715 0.06774 0.74462 0.0
C4519 C 0.28114 0.0483 0.75053 0.0
C4520 C 0.27396 0.035 0.74887 0.0
C4521 C 0.29375 0.07323 0.75367 0.0
C4522 C 0.28408 0.06613 0.76143 0.0
C4523 C 0.27783 0.05377 0.75969 0.0
C4524 C 0.28028 0.07134 0.77142 0.0
C4525 C 0.30045 0.08658 0.75475 0.0
C4526 C 0.28795 0.07771 0.78136 0.0
C4527 C 0.28425 0.08242 0.79089 0.0
C4528 C 0.27281 0.08085 0.79063 0.0
C4529 C 0.2651 0.07431 0.78075 0.0
C4530 C 0.26881 0.06961 0.77122 0.0
H4531 H 0.30548 0.09075 0.74619 0.0
H4532 H 0.29435 0.08997 0.75661 0.0
H4533 H 0.30685 0.0894 0.76262 0.0
H4534 H 0.29673 0.07889 0.78185 0.0
H4535 H 0.29028 0.08719 0.79853 0.0
H4536 H 0.97858 0.26132 0.72437 0.0
H4537 H 0.97049 0.24653 0.74076 0.0
H4538 H 0.93605 0.24238 0.73491 0.0
H4539 H 0.94405 0.25735 0.71881 0.0
H4540 H 0.95799 0.24733 0.7631 0.0
H4541 H 0.93094 0.20805 0.7324 0.0
H4542 H 0.94309 0.22174 0.7267 0.0
H4543 H 0.92911 0.22059 0.72987 0.0
C4544 C 0.9693 0.25732 0.72661 0.0
C4545 C 0.96196 0.26049 0.72019 0.0
C4546 C 0.96469 0.24883 0.73593 0.0
C4547 C 0.95266 0.24329 0.73891 0.0
C4548 C 0.94532 0.24643 0.73258 0.0
H4549 H 0.91463 0.20368 0.80347 0.0
H4550 H 0.92383 0.21817 0.78689 0.0
C4551 C 0.94992 0.25495 0.72333 0.0
C4552 C 0.94778 0.23439 0.74884 0.0
H4553 H 0.92796 0.20524 0.75413 0.0
C4554 C 0.95147 0.23811 0.76116 0.0
C4555 C 0.93935 0.22238 0.74622 0.0
C4556 C 0.93542 0.21788 0.73308 0.0
C4557 C 0.94673 0.23015 0.77101 0.0
C4558 C 0.93803 0.21821 0.76842 0.0
C4559 C 0.93455 0.21443 0.75607 0.0
C4560 C 0.93244 0.20947 0.77843 0.0
C4561 C 0.95111 0.23454 0.78408 0.0
C4562 C 0.93408 0.19969 0.779 0.0
C4563 C 0.92882 0.19141 0.78841 0.0
C4564 C 0.92167 0.19265 0.79731 0.0
C4565 C 0.92001 0.20245 0.79667 0.0
C4566 C 0.92531 0.21076 0.78728 0.0
H4567 H 0.95962 0.2431 0.78418 0.0
H4568 H 0.94447 0.23589 0.78905 0.0
H4569 H 0.9523 0.22794 0.78928 0.0
H4570 H 0.93954 0.19855 0.77223 0.0
H4571 H 0.93036 0.18403 0.78876 0.0
H4572 H 0.72727 0.70542 0.73238 0.0
H4573 H 0.74291 0.7132 0.74833 0.0
H4574 H 0.75686 0.69243 0.73241 0.0
H4575 H 0.74126 0.68458 0.7165 0.0
H4576 H 0.74799 0.70102 0.76593 0.0
H4577 H 0.78595 0.72572 0.7345 0.0
H4578 H 0.77083 0.72029 0.72967 0.0
H4579 H 0.7766 0.71042 0.73006 0.0
C4580 C 0.73365 0.70248 0.7323 0.0
C4581 C 0.73307 0.69444 0.72311 0.0
C4582 C 0.7426 0.70697 0.74139 0.0
C4583 C 0.75116 0.70354 0.74142 0.0
C4584 C 0.75052 0.69541 0.73237 0.0
H4585 H 0.79727 0.70866 0.8021 0.0
H4586 H 0.78174 0.70214 0.78614 0.0
C4587 C 0.74159 0.69094 0.72328 0.0
C4588 C 0.76058 0.70822 0.75111 0.0
H4589 H 0.79057 0.72327 0.75528 0.0
C4590 C 0.7573 0.70594 0.76362 0.0
C4591 C 0.77272 0.71478 0.74808 0.0
C4592 C 0.77677 0.71806 0.73486 0.0
C4593 C 0.76585 0.7098 0.77318 0.0
C4594 C 0.77798 0.71592 0.77009 0.0
C4595 C 0.78126 0.71845 0.75761 0.0
C4596 C 0.78744 0.71982 0.77968 0.0
C4597 C 0.7618 0.70741 0.78649 0.0
C4598 C 0.79597 0.73188 0.78113 0.0
C4599 C 0.80494 0.73559 0.79011 0.0
C4600 C 0.80564 0.7273 0.79771 0.0
C4601 C 0.79706 0.71522 0.79624 0.0
C4602 C 0.78811 0.71151 0.78724 0.0
H4603 H 0.75262 0.70568 0.78746 0.0
H4604 H 0.76193 0.69945 0.78967 0.0
H4605 H 0.76774 0.715 0.79269 0.0
H4606 H 0.79561 0.73843 0.7754 0.0
H4607 H 0.81131 0.74497 0.79118 0.0
H4608 H 0.72392 0.65429 0.62761 0.0
H4609 H 0.73238 0.6478 0.61127 0.0
H4610 H 0.69769 0.61845 0.60208 0.0
H4611 H 0.68913 0.62476 0.61858 0.0
H4612 H 0.73112 0.62547 0.60869 0.0
H4613 H 0.71082 0.6352 0.56849 0.0
H4614 H 0.71162 0.64125 0.5839 0.0
H4615 H 0.70071 0.62612 0.58028 0.0
C4616 C 0.71808 0.64638 0.62222 0.0
C4617 C 0.70583 0.64003 0.62444 0.0
C4618 C 0.72293 0.64273 0.61283 0.0
C4619 C 0.71565 0.63273 0.6054 0.0
C4620 C 0.70344 0.62632 0.60758 0.0
H4621 H 0.73819 0.59433 0.55675 0.0
H4622 H 0.72925 0.60025 0.57322 0.0
C4623 C 0.69856 0.62994 0.61701 0.0
C4624 C 0.72092 0.62895 0.5955 0.0
H4625 H 0.72162 0.62561 0.56402 0.0
C4626 C 0.72905 0.62548 0.59892 0.0
C4627 C 0.71828 0.62911 0.58277 0.0
C4628 C 0.70996 0.63321 0.57857 0.0
C4629 C 0.73454 0.62206 0.58994 0.0
C4630 C 0.73173 0.62201 0.57723 0.0
C4631 C 0.72369 0.62559 0.57379 0.0
C4632 C 0.73719 0.61843 0.56733 0.0
C4633 C 0.74346 0.61873 0.5941 0.0
C4634 C 0.74442 0.62664 0.55844 0.0
C4635 C 0.74955 0.62329 0.54905 0.0
C4636 C 0.74752 0.61166 0.54838 0.0
C4637 C 0.7401 0.60341 0.55719 0.0
C4638 C 0.735 0.60678 0.5666 0.0
H4639 H 0.7466 0.6218 0.60379 0.0
H4640 H 0.73931 0.60894 0.59374 0.0
H4641 H 0.75122 0.62255 0.58787 0.0
H4642 H 0.74613 0.63566 0.5588 0.0
H4643 H 0.75505 0.62977 0.54226 0.0
H4644 H 0.37427 0.07374 0.62278 0.0
H4645 H 0.37851 0.08944 0.60797 0.0
H4646 H 0.3427 0.06944 0.5939 0.0
H4647 H 0.3382 0.05403 0.60898 0.0
H4648 H 0.37653 0.09006 0.58157 0.0
H4649 H 0.34592 0.10072 0.60636 0.0
H4650 H 0.35091 0.09135 0.61289 0.0
H4651 H 0.33919 0.08548 0.60144 0.0
C4652 C 0.36729 0.07268 0.61654 0.0
C4653 C 0.35584 0.06268 0.61721 0.0
C4654 C 0.36977 0.08161 0.60801 0.0
C4655 C 0.36086 0.08068 0.60002 0.0
C4656 C 0.34965 0.0704 0.60015 0.0
H4657 H 0.35123 0.12575 0.54998 0.0
H4658 H 0.35032 0.10901 0.56083 0.0
C4659 C 0.34713 0.06153 0.6087 0.0
C4660 C 0.36296 0.09074 0.59215 0.0
H4661 H 0.35331 0.11015 0.58713 0.0
C4662 C 0.37151 0.09451 0.58279 0.0
C4663 C 0.35647 0.09659 0.59388 0.0
C4664 C 0.34769 0.09342 0.60426 0.0
C4665 C 0.37345 0.10376 0.57484 0.0
C4666 C 0.36673 0.10937 0.5764 0.0
C4667 C 0.35835 0.10572 0.58589 0.0
C4668 C 0.36811 0.11906 0.56836 0.0
C4669 C 0.38246 0.1073 0.56467 0.0
C4670 C 0.37849 0.13021 0.56888 0.0
C4671 C 0.37904 0.1398 0.56267 0.0
C4672 C 0.36922 0.13836 0.55581 0.0
C4673 C 0.35898 0.12708 0.55503 0.0
C4674 C 0.35844 0.11753 0.56123 0.0
H4675 H 0.38522 0.10064 0.56316 0.0
H4676 H 0.37888 0.10851 0.55579 0.0
H4677 H 0.39043 0.11589 0.56725 0.0
H4678 H 0.38595 0.13163 0.57456 0.0
H4679 H 0.38695 0.14845 0.56362 0.0
H4680 H 0.92894 0.29996 0.62719 0.0
H4681 H 0.91339 0.29249 0.61121 0.0
H4682 H 0.9259 0.27021 0.59603 0.0
H4683 H 0.94121 0.2773 0.61224 0.0
H4684 H 0.91512 0.29329 0.58539 0.0
H4685 H 0.89079 0.24684 0.60157 0.0
H4686 H 0.90199 0.25887 0.61094 0.0
H4687 H 0.90617 0.25239 0.59857 0.0
C4688 C 0.92831 0.29338 0.62053 0.0
C4689 C 0.93626 0.28914 0.62106 0.0
C4690 C 0.91947 0.28919 0.61136 0.0
C4691 C 0.91838 0.28066 0.60257 0.0
C4692 C 0.92646 0.27663 0.60287 0.0
H4693 H 0.87103 0.24423 0.54029 0.0
H4694 H 0.887 0.25227 0.55588 0.0
C4695 C 0.93529 0.28079 0.61205 0.0
C4696 C 0.90878 0.27602 0.59308 0.0
H4697 H 0.88451 0.25063 0.58236 0.0
C4698 C 0.90839 0.28397 0.58474 0.0
C4699 C 0.90002 0.26386 0.5923 0.0
C4700 C 0.89966 0.25499 0.60138 0.0
C4701 C 0.89958 0.28005 0.57548 0.0
C4702 C 0.89086 0.2679 0.57467 0.0
C4703 C 0.89124 0.25994 0.58301 0.0
C4704 C 0.88126 0.26321 0.5652 0.0
C4705 C 0.89978 0.2889 0.56648 0.0
C4706 C 0.87272 0.26666 0.56536 0.0
C4707 C 0.86355 0.26202 0.55653 0.0
C4708 C 0.86269 0.25376 0.54748 0.0
C4709 C 0.87134 0.25041 0.5473 0.0
C4710 C 0.88048 0.25502 0.55615 0.0
H4711 H 0.90848 0.29727 0.56654 0.0
H4712 H 0.89776 0.28514 0.55687 0.0
H4713 H 0.89293 0.29109 0.56913 0.0
H4714 H 0.87311 0.27287 0.57237 0.0
H4715 H 0.8571 0.26487 0.55678 0.0
H4716 H 0.34618 0.29194 0.60907 0.0
H4717 H 0.35426 0.28502 0.59273 0.0
H4718 H 0.38171 0.28891 0.61789 0.0
H4719 H 0.37376 0.29596 0.63429 0.0
H4720 H 0.37719 0.29782 0.58309 0.0
H4721 H 0.36854 0.25526 0.60314 0.0
H4722 H 0.36128 0.26306 0.60862 0.0
H4723 H 0.37628 0.26802 0.61325 0.0
C4724 C 0.35396 0.29136 0.61114 0.0
C4725 C 0.35934 0.29454 0.62299 0.0
C4726 C 0.35851 0.28733 0.60181 0.0
C4727 C 0.36849 0.28631 0.60414 0.0
C4728 C 0.37385 0.28938 0.61597 0.0
H4729 H 0.41243 0.27057 0.55647 0.0
H4730 H 0.40323 0.27468 0.57421 0.0
C4731 C 0.3693 0.29343 0.62533 0.0
C4732 C 0.37364 0.28269 0.59396 0.0
H4733 H 0.38007 0.26148 0.58484 0.0
C4734 C 0.37777 0.28985 0.58344 0.0
C4735 C 0.37445 0.27233 0.5945 0.0
C4736 C 0.36982 0.26415 0.60543 0.0
C4737 C 0.3828 0.28699 0.57348 0.0
C4738 C 0.3835 0.27656 0.57394 0.0
C4739 C 0.37946 0.26944 0.5845 0.0
C4740 C 0.38844 0.27299 0.56351 0.0
C4741 C 0.38753 0.29528 0.56264 0.0
C4742 C 0.38298 0.27036 0.55173 0.0
C4743 C 0.38819 0.26801 0.54163 0.0
C4744 C 0.39889 0.26811 0.54316 0.0
C4745 C 0.40412 0.27033 0.55507 0.0
C4746 C 0.3989 0.27269 0.56518 0.0
H4747 H 0.38901 0.30421 0.56508 0.0
H4748 H 0.39599 0.29624 0.55935 0.0
H4749 H 0.38103 0.2916 0.55483 0.0
H4750 H 0.37481 0.27038 0.5503 0.0
H4751 H 0.38401 0.2664 0.53255 0.0
H4752 H 0.73147 0.07484 0.61828 0.0
H4753 H 0.73786 0.08979 0.60209 0.0
H4754 H 0.7014 0.07787 0.59303 0.0
H4755 H 0.69498 0.06281 0.60904 0.0
H4756 H 0.71396 0.08008 0.5726 0.0
H4757 H 0.73811 0.12081 0.60191 0.0
H4758 H 0.7433 0.11059 0.60383 0.0
H4759 H 0.72851 0.10641 0.60838 0.0
C4760 C 0.72483 0.07552 0.61292 0.0
C4761 C 0.71272 0.06766 0.61491 0.0
C4762 C 0.72849 0.08409 0.60371 0.0
C4763 C 0.72011 0.08507 0.59646 0.0
C4764 C 0.70802 0.07728 0.59852 0.0
H4765 H 0.73011 0.14122 0.54735 0.0
H4766 H 0.72619 0.12803 0.56492 0.0
C4767 C 0.70436 0.06866 0.60763 0.0
C4768 C 0.72385 0.09378 0.58632 0.0
H4769 H 0.74004 0.12332 0.58002 0.0
C4770 C 0.71965 0.08954 0.57423 0.0
C4771 C 0.73117 0.10613 0.58848 0.0
C4772 C 0.73545 0.11129 0.60137 0.0
C4773 C 0.72255 0.09727 0.56423 0.0
C4774 C 0.73016 0.1096 0.56632 0.0
C4775 C 0.73433 0.11386 0.57842 0.0
C4776 C 0.73348 0.11819 0.55611 0.0
C4777 C 0.71715 0.09218 0.55161 0.0
C4778 C 0.73919 0.11727 0.5455 0.0
C4779 C 0.74129 0.12468 0.53542 0.0
C4780 C 0.73789 0.13329 0.53585 0.0
C4781 C 0.73274 0.13461 0.54675 0.0
C4782 C 0.73053 0.12711 0.55678 0.0
H4783 H 0.70916 0.08322 0.55231 0.0
H4784 H 0.71465 0.09803 0.54674 0.0
H4785 H 0.7237 0.09133 0.54586 0.0
H4786 H 0.74181 0.11065 0.54492 0.0
H4787 H 0.74536 0.12354 0.52718 0.0
H4788 H 0.9308 0.65974 0.62174 0.0
H4789 H 0.91596 0.65204 0.605 0.0
H4790 H 0.91174 0.61736 0.60895 0.0
H4791 H 0.92642 0.62492 0.62582 0.0
H4792 H 0.91577 0.62579 0.58437 0.0
H4793 H 0.87966 0.62963 0.60668 0.0
H4794 H 0.894 0.64285 0.60737 0.0
H4795 H 0.89156 0.6299 0.61548 0.0
C4796 C 0.92656 0.65042 0.61921 0.0
C4797 C 0.92982 0.64295 0.62512 0.0
C4798 C 0.91808 0.64604 0.60964 0.0
C4799 C 0.91268 0.63411 0.60584 0.0
C4800 C 0.91581 0.6266 0.61178 0.0
H4801 H 0.85412 0.59286 0.55478 0.0
H4802 H 0.86704 0.60135 0.57314 0.0
C4803 C 0.92426 0.63096 0.62136 0.0
C4804 C 0.90426 0.62959 0.59519 0.0
H4805 H 0.87736 0.62463 0.58514 0.0
C4806 C 0.90737 0.62552 0.58454 0.0
C4807 C 0.89327 0.62917 0.5955 0.0
C4808 C 0.88933 0.63302 0.6069 0.0
C4809 C 0.89982 0.62114 0.57411 0.0
C4810 C 0.88895 0.62098 0.5743 0.0
C4811 C 0.88576 0.62489 0.585 0.0
C4812 C 0.88071 0.61649 0.56351 0.0
C4813 C 0.90346 0.61656 0.56304 0.0
C4814 C 0.88402 0.62236 0.55213 0.0
C4815 C 0.87667 0.61755 0.54166 0.0
C4816 C 0.86582 0.60687 0.54244 0.0
C4817 C 0.86236 0.60119 0.55396 0.0
C4818 C 0.86973 0.60601 0.56443 0.0
H4819 H 0.91072 0.61487 0.56542 0.0
H4820 H 0.89583 0.60823 0.55927 0.0
H4821 H 0.90662 0.62325 0.5556 0.0
H4822 H 0.89242 0.63052 0.55128 0.0
H4823 H 0.87958 0.62204 0.53288 0.0
H4824 H 0.97346 0.71495 0.72321 0.0
H4825 H 0.96667 0.72314 0.7397 0.0
H4826 H 0.93825 0.68802 0.74792 0.0
H4827 H 0.94479 0.67974 0.73133 0.0
H4828 H 0.93493 0.71158 0.74401 0.0
H4829 H 0.96629 0.71233 0.77966 0.0
H4830 H 0.97099 0.71609 0.76378 0.0
H4831 H 0.96024 0.70112 0.76746 0.0
C4832 C 0.96568 0.70898 0.72842 0.0
C4833 C 0.9597 0.69668 0.72598 0.0
C4834 C 0.96186 0.71367 0.73786 0.0
C4835 C 0.95199 0.70615 0.74497 0.0
C4836 C 0.94589 0.69393 0.74249 0.0
H4837 H 0.92769 0.71869 0.81512 0.0
H4838 H 0.93216 0.71003 0.79712 0.0
C4839 C 0.94971 0.68922 0.73309 0.0
C4840 C 0.94821 0.71101 0.75526 0.0
H4841 H 0.95371 0.71933 0.78585 0.0
C4842 C 0.93901 0.71332 0.75317 0.0
C4843 C 0.95353 0.71311 0.76716 0.0
C4844 C 0.96331 0.71054 0.76978 0.0
C4845 C 0.93498 0.71773 0.76276 0.0
C4846 C 0.94041 0.72001 0.77466 0.0
C4847 C 0.94957 0.7176 0.77672 0.0
C4848 C 0.93679 0.72489 0.78515 0.0
C4849 C 0.9248 0.71971 0.76012 0.0
C4850 C 0.93786 0.73609 0.78437 0.0
C4851 C 0.93522 0.74101 0.79462 0.0
C4852 C 0.93155 0.73483 0.80584 0.0
C4853 C 0.93039 0.72358 0.80655 0.0
C4854 C 0.93297 0.71865 0.7963 0.0
H4855 H 0.91963 0.71459 0.75177 0.0
H4856 H 0.91876 0.71715 0.76817 0.0
H4857 H 0.92832 0.72925 0.75837 0.0
H4858 H 0.94105 0.74119 0.77597 0.0
H4859 H 0.93635 0.74977 0.79389 0.0
H4860 H 0.28934 0.2601 0.71685 0.0
H4861 H 0.28176 0.24508 0.73303 0.0
H4862 H 0.3165 0.26133 0.74985 0.0
H4863 H 0.32425 0.27618 0.73359 0.0
H4864 H 0.29074 0.22906 0.74014 0.0
H4865 H 0.29354 0.25977 0.77801 0.0
H4866 H 0.29337 0.26297 0.76176 0.0
H4867 H 0.30661 0.26475 0.76882 0.0
C4868 C 0.29541 0.26041 0.72391 0.0
C4869 C 0.3074 0.26941 0.72395 0.0
C4870 C 0.29104 0.25186 0.73317 0.0
C4871 C 0.29855 0.2522 0.74268 0.0
C4872 C 0.31053 0.26104 0.74268 0.0
H4873 H 0.28938 0.21353 0.81032 0.0
H4874 H 0.29708 0.22694 0.79271 0.0
C4875 C 0.31492 0.26955 0.73341 0.0
C4876 C 0.29389 0.24335 0.75266 0.0
H4877 H 0.28859 0.24046 0.78381 0.0
C4878 C 0.29021 0.2315 0.74969 0.0
C4879 C 0.29327 0.24663 0.76508 0.0
C4880 C 0.29681 0.2592 0.76866 0.0
C4881 C 0.28615 0.22284 0.75892 0.0
C4882 C 0.28551 0.22611 0.77137 0.0
C4883 C 0.28913 0.23797 0.77428 0.0
C4884 C 0.28108 0.21742 0.78156 0.0
C4885 C 0.2829 0.21036 0.7553 0.0
C4886 C 0.26955 0.20758 0.78113 0.0
C4887 C 0.26518 0.19985 0.79113 0.0
C4888 C 0.27222 0.20189 0.80181 0.0
C4889 C 0.28379 0.21169 0.80218 0.0
C4890 C 0.28818 0.21937 0.79215 0.0
H4891 H 0.28706 0.2101 0.74641 0.0
H4892 H 0.28562 0.2063 0.76263 0.0
H4893 H 0.27317 0.20488 0.75402 0.0
H4894 H 0.26381 0.20605 0.7732 0.0
H4895 H 0.25619 0.19243 0.79067 0.0
H4896 H 0.74612 0.02877 0.71109 0.0
H4897 H 0.76068 0.03572 0.72817 0.0
H4898 H 0.74931 0.05975 0.74064 0.0
H4899 H 0.735 0.05317 0.72346 0.0
H4900 H 0.77915 0.06399 0.73565 0.0
H4901 H 0.74575 0.03427 0.76986 0.0
H4902 H 0.74444 0.03046 0.75349 0.0
H4903 H 0.74166 0.04184 0.75881 0.0
C4904 C 0.74684 0.03567 0.71734 0.0
C4905 C 0.73932 0.04035 0.71595 0.0
C4906 C 0.75512 0.03958 0.72711 0.0
C4907 C 0.75598 0.04819 0.73563 0.0
C4908 C 0.7487 0.05305 0.73415 0.0
H4909 H 0.78954 0.07387 0.80755 0.0
H4910 H 0.77753 0.06913 0.78856 0.0
C4911 C 0.74047 0.0492 0.72439 0.0
C4912 C 0.76417 0.05183 0.7464 0.0
H4913 H 0.76493 0.04751 0.7775 0.0
C4914 C 0.77611 0.06038 0.74481 0.0
C4915 C 0.76007 0.04714 0.75828 0.0
C4916 C 0.7473 0.03787 0.76032 0.0
C4917 C 0.78409 0.06453 0.75493 0.0
C4918 C 0.78001 0.05978 0.76686 0.0
C4919 C 0.76804 0.05116 0.76837 0.0
C4920 C 0.78793 0.06357 0.77795 0.0
C4921 C 0.79671 0.07417 0.75283 0.0
C4922 C 0.79781 0.06208 0.77827 0.0
C4923 C 0.80474 0.0649 0.78908 0.0
C4924 C 0.80184 0.06912 0.79979 0.0
C4925 C 0.79202 0.07071 0.7994 0.0
C4926 C 0.78515 0.06798 0.78858 0.0
H4927 H 0.79755 0.07912 0.74421 0.0
H4928 H 0.80017 0.08056 0.7608 0.0
H4929 H 0.80233 0.07012 0.75182 0.0
H4930 H 0.79996 0.05843 0.77029 0.0
H4931 H 0.81219 0.06347 0.78918 0.0
H4932 H 0.05772 0.32906 0.02303 0.0
H4933 H 0.06708 0.32039 0.03543 0.0
H4934 H 0.0496 0.32295 0.06819 0.0
H4935 H 0.04007 0.33145 0.05587 0.0
H4936 H 0.08167 0.3294 0.05843 0.0
H4937 H 0.03926 0.28695 0.06383 0.0
H4938 H 0.04137 0.29752 0.05204 0.0
H4939 H 0.03896 0.30017 0.06788 0.0
C4940 C 0.05592 0.32782 0.03289 0.0
C4941 C 0.04812 0.33089 0.03847 0.0
C4942 C 0.06131 0.32293 0.03995 0.0
C4943 C 0.05891 0.32093 0.05266 0.0
C4944 C 0.05146 0.32435 0.05835 0.0
H4945 H 0.098 0.30207 0.11302 0.0
H4946 H 0.08891 0.31385 0.09781 0.0
C4947 C 0.04612 0.32929 0.05132 0.0
C4948 C 0.0638 0.31484 0.05989 0.0
H4949 H 0.05578 0.28919 0.07512 0.0
C4950 C 0.07604 0.32061 0.06211 0.0
C4951 C 0.05643 0.3033 0.06444 0.0
C4952 C 0.04328 0.29654 0.06188 0.0
C4953 C 0.08109 0.31521 0.069 0.0
C4954 C 0.07366 0.30382 0.07389 0.0
C4955 C 0.06146 0.29796 0.07143 0.0
C4956 C 0.07823 0.2977 0.08151 0.0
C4957 C 0.09436 0.32161 0.07062 0.0
C4958 C 0.07357 0.28247 0.07758 0.0
C4959 C 0.07829 0.27424 0.08686 0.0
C4960 C 0.08991 0.28328 0.09869 0.0
C4961 C 0.09213 0.29755 0.10521 0.0
C4962 C 0.08696 0.30501 0.0953 0.0
H4963 H 0.09888 0.32853 0.06351 0.0
H4964 H 0.09681 0.32606 0.07989 0.0
H4965 H 0.09769 0.31534 0.06998 0.0
H4966 H 0.0679 0.27823 0.06956 0.0
H4967 H 0.07642 0.26551 0.08396 0.0
H4968 H 0.69269 0.71705 0.04893 0.0
H4969 H 0.69992 0.73554 0.06075 0.0
H4970 H 0.66414 0.72809 0.0652 0.0
H4971 H 0.65678 0.70965 0.05304 0.0
H4972 H 0.69473 0.7548 0.05469 0.0
H4973 H 0.67964 0.73492 0.10133 0.0
H4974 H 0.68177 0.727 0.08867 0.0
H4975 H 0.6692 0.72897 0.08857 0.0
C4976 C 0.68634 0.71937 0.05228 0.0
C4977 C 0.67415 0.71187 0.04996 0.0
C4978 C 0.69049 0.72991 0.0591 0.0
C4979 C 0.68255 0.7331 0.06388 0.0
C4980 C 0.67038 0.72567 0.06168 0.0
H4981 H 0.69794 0.7948 0.1202 0.0
H4982 H 0.68641 0.77337 0.10497 0.0
C4983 C 0.6662 0.71513 0.05478 0.0
C4984 C 0.68713 0.74436 0.07098 0.0
H4985 H 0.6899 0.7557 0.10033 0.0
C4986 C 0.69366 0.75503 0.06466 0.0
C4987 C 0.68556 0.74458 0.08394 0.0
C4988 C 0.67872 0.73328 0.09112 0.0
C4989 C 0.69878 0.76599 0.07101 0.0
C4990 C 0.69763 0.76622 0.08407 0.0
C4991 C 0.69081 0.75553 0.09033 0.0
C4992 C 0.70376 0.77731 0.09153 0.0
C4993 C 0.70508 0.77716 0.06354 0.0
C4994 C 0.71946 0.78716 0.08947 0.0
C4995 C 0.72747 0.80042 0.09888 0.0
C4996 C 0.71801 0.80412 0.10857 0.0
C4997 C 0.70286 0.79278 0.11354 0.0
C4998 C 0.69566 0.77977 0.10363 0.0
H4999 H 0.70154 0.77562 0.05387 0.0
H5000 H 0.70419 0.78442 0.0678 0.0
H5001 H 0.7146 0.78002 0.06298 0.0
H5002 H 0.7242 0.785 0.08272 0.0
H5003 H 0.73663 0.80684 0.09706 0.0
H5004 H 0.2836 0.94344 0.03296 0.0
H5005 H 0.26463 0.93257 0.04371 0.0
H5006 H 0.26582 0.9655 0.05192 0.0
H5007 H 0.2847 0.97638 0.0413 0.0
H5008 H 0.25885 0.93485 0.06852 0.0
H5009 H 0.23349 0.94534 0.03484 0.0
H5010 H 0.24787 0.94737 0.0314 0.0
H5011 H 0.24662 0.95819 0.04071 0.0
C5012 C 0.27983 0.94835 0.0371 0.0
C5013 C 0.28558 0.96075 0.03613 0.0
C5014 C 0.26899 0.94214 0.0432 0.0
C5015 C 0.26372 0.94822 0.04838 0.0
C5016 C 0.26958 0.96061 0.0477 0.0
H5017 H 0.20142 0.93275 0.08945 0.0
H5018 H 0.22059 0.9417 0.07908 0.0
C5019 C 0.28037 0.96681 0.04161 0.0
C5020 C 0.25215 0.94172 0.05464 0.0
H5021 H 0.22414 0.93723 0.05409 0.0
C5022 C 0.25121 0.93525 0.06532 0.0
C5023 C 0.24222 0.94226 0.05041 0.0
C5024 C 0.24253 0.94857 0.03864 0.0
C5025 C 0.24069 0.92966 0.07214 0.0
C5026 C 0.23086 0.93046 0.06805 0.0
C5027 C 0.23174 0.93672 0.05724 0.0
C5028 C 0.21958 0.92499 0.07491 0.0
C5029 C 0.24028 0.92326 0.08386 0.0
C5030 C 0.21266 0.91263 0.07592 0.0
C5031 C 0.20173 0.90751 0.08186 0.0
C5032 C 0.19757 0.91468 0.08694 0.0
C5033 C 0.20451 0.92705 0.08585 0.0
C5034 C 0.21542 0.93215 0.07989 0.0
H5035 H 0.24927 0.92566 0.08717 0.0
H5036 H 0.23576 0.92529 0.09138 0.0
H5037 H 0.2352 0.91356 0.08199 0.0
H5038 H 0.21558 0.90694 0.07187 0.0
H5039 H 0.19642 0.89794 0.0823 0.0
H5040 H 0.32319 0.04879 0.99484 0.0
H5041 H 0.3155 0.0598 0.98396 0.0
H5042 H 0.33198 0.05767 0.95015 0.0
H5043 H 0.33924 0.04617 0.9608 0.0
H5044 H 0.32624 0.08076 0.97174 0.0
H5045 H 0.29773 0.04369 0.93924 0.0
H5046 H 0.30483 0.04176 0.95266 0.0
H5047 H 0.3131 0.04806 0.93874 0.0
C5048 C 0.32512 0.05059 0.98506 0.0
C5049 C 0.33171 0.04646 0.97866 0.0
C5050 C 0.32079 0.05696 0.97888 0.0
C5051 C 0.32297 0.05935 0.96618 0.0
C5052 C 0.32997 0.0557 0.95988 0.0
H5053 H 0.30769 0.10856 0.9274 0.0
H5054 H 0.31763 0.09899 0.93688 0.0
C5055 C 0.33425 0.04926 0.96604 0.0
C5056 C 0.31769 0.06545 0.95954 0.0
H5057 H 0.2988 0.06202 0.93581 0.0
C5058 C 0.32025 0.07668 0.96387 0.0
C5059 C 0.30974 0.06002 0.9494 0.0
C5060 C 0.30608 0.04767 0.94479 0.0
C5061 C 0.31508 0.08265 0.95833 0.0
C5062 C 0.30735 0.07735 0.94798 0.0
C5063 C 0.3048 0.06612 0.94366 0.0
C5064 C 0.30143 0.08306 0.94181 0.0
C5065 C 0.31765 0.09439 0.96387 0.0
C5066 C 0.28903 0.07713 0.94105 0.0
C5067 C 0.28334 0.08246 0.93538 0.0
C5068 C 0.28993 0.0938 0.93028 0.0
C5069 C 0.30236 0.09973 0.93105 0.0
C5070 C 0.30805 0.09434 0.93661 0.0
H5071 H 0.32098 0.09559 0.97361 0.0
H5072 H 0.32457 0.10168 0.95833 0.0
H5073 H 0.30962 0.09521 0.96377 0.0
H5074 H 0.28374 0.06844 0.94502 0.0
H5075 H 0.27376 0.0778 0.93513 0.0
H5076 H 0.97905 0.28241 0.96954 0.0
H5077 H 0.96783 0.26394 0.95761 0.0
H5078 H 0.93609 0.26569 0.96194 0.0
H5079 H 0.94715 0.28406 0.9743 0.0
H5080 H 0.94415 0.24172 0.96659 0.0
H5081 H 0.94237 0.26278 0.92255 0.0
H5082 H 0.95403 0.27069 0.93395 0.0
H5083 H 0.93937 0.26772 0.93709 0.0
C5084 C 0.96964 0.27881 0.96816 0.0
C5085 C 0.964 0.28471 0.97297 0.0
C5086 C 0.96328 0.2683 0.96126 0.0
C5087 C 0.95118 0.26354 0.9589 0.0
C5088 C 0.94546 0.26932 0.96364 0.0
H5089 H 0.90375 0.20303 0.90169 0.0
H5090 H 0.91357 0.22362 0.91814 0.0
C5091 C 0.95181 0.27983 0.97063 0.0
C5092 C 0.94464 0.25249 0.95143 0.0
H5093 H 0.93422 0.24214 0.92213 0.0
C5094 C 0.9419 0.24175 0.95688 0.0
C5095 C 0.94163 0.25263 0.93885 0.0
C5096 C 0.94449 0.26404 0.93266 0.0
C5097 C 0.93629 0.23106 0.95 0.0
C5098 C 0.93374 0.23125 0.93724 0.0
C5099 C 0.9362 0.24199 0.9319 0.0
C5100 C 0.92889 0.22059 0.92911 0.0
C5101 C 0.93292 0.21972 0.95664 0.0
C5102 C 0.93589 0.21171 0.92909 0.0
C5103 C 0.93071 0.19904 0.91879 0.0
C5104 C 0.91656 0.1947 0.91054 0.0
C5105 C 0.91134 0.20532 0.90758 0.0
C5106 C 0.91715 0.21777 0.91826 0.0
H5107 H 0.93146 0.22051 0.9667 0.0
H5108 H 0.92476 0.21213 0.95262 0.0
H5109 H 0.94025 0.21783 0.95593 0.0
H5110 H 0.94343 0.21413 0.93509 0.0
H5111 H 0.93419 0.19313 0.9194 0.0
H5112 H 0.72507 0.68058 0.99782 0.0
H5113 H 0.74369 0.6886 0.98667 0.0
H5114 H 0.72475 0.66901 0.95364 0.0
H5115 H 0.70601 0.66145 0.96452 0.0
H5116 H 0.75453 0.67815 0.97547 0.0
H5117 H 0.74377 0.70235 0.94073 0.0
H5118 H 0.73496 0.69592 0.95437 0.0
H5119 H 0.73326 0.68675 0.94101 0.0
C5120 C 0.72483 0.67807 0.98814 0.0
C5121 C 0.714 0.67048 0.98203 0.0
C5122 C 0.7355 0.68258 0.98181 0.0
C5123 C 0.73559 0.67959 0.96926 0.0
C5124 C 0.72486 0.67166 0.96325 0.0
H5125 H 0.80057 0.69521 0.931 0.0
H5126 H 0.78107 0.68518 0.94064 0.0
C5127 C 0.71416 0.6672 0.96955 0.0
C5128 C 0.74694 0.6849 0.96249 0.0
H5129 H 0.76154 0.70212 0.93773 0.0
C5130 C 0.75607 0.68338 0.9672 0.0
C5131 C 0.74897 0.69187 0.95182 0.0
C5132 C 0.73977 0.69444 0.94674 0.0
C5133 C 0.76719 0.68865 0.96155 0.0
C5134 C 0.76913 0.69536 0.95069 0.0
C5135 C 0.75999 0.69687 0.94598 0.0
C5136 C 0.7807 0.70129 0.94435 0.0
C5137 C 0.77686 0.68728 0.96751 0.0
C5138 C 0.78679 0.71362 0.94285 0.0
C5139 C 0.7978 0.71934 0.93711 0.0
C5140 C 0.80291 0.71282 0.93265 0.0
C5141 C 0.79677 0.70045 0.93413 0.0
C5142 C 0.7857 0.69472 0.93978 0.0
H5143 H 0.77498 0.68476 0.97742 0.0
H5144 H 0.77754 0.68017 0.96254 0.0
H5145 H 0.78555 0.69561 0.96699 0.0
H5146 H 0.7831 0.71886 0.94633 0.0
H5147 H 0.80243 0.72889 0.93629 0.0
H5148 H 0.97411 0.69877 0.98394 0.0
H5149 H 0.96305 0.70666 0.97338 0.0
H5150 H 0.93213 0.6717 0.97175 0.0
H5151 H 0.94311 0.66371 0.98241 0.0
H5152 H 0.94924 0.69696 0.94839 0.0
H5153 H 0.92298 0.69566 0.98963 0.0
H5154 H 0.93707 0.69639 0.99119 0.0
H5155 H 0.92426 0.68286 0.98609 0.0
C5156 C 0.96492 0.69278 0.98144 0.0
C5157 C 0.95944 0.68063 0.98409 0.0
C5158 C 0.95866 0.69728 0.97533 0.0
C5159 C 0.9468 0.68975 0.97186 0.0
C5160 C 0.94129 0.67763 0.97441 0.0
H5161 H 0.89591 0.70847 0.94457 0.0
H5162 H 0.90527 0.69743 0.95162 0.0
C5163 C 0.94757 0.67309 0.98045 0.0
C5164 C 0.94019 0.69469 0.96569 0.0
H5165 H 0.91982 0.70303 0.97114 0.0
C5166 C 0.94275 0.69825 0.9533 0.0
C5167 C 0.93172 0.69625 0.97215 0.0
C5168 C 0.92881 0.69266 0.98553 0.0
C5169 C 0.93704 0.70341 0.94718 0.0
C5170 C 0.92881 0.70534 0.95376 0.0
C5171 C 0.92612 0.70156 0.9661 0.0
C5172 C 0.92315 0.7116 0.94824 0.0
C5173 C 0.93978 0.7066 0.93369 0.0
C5174 C 0.93008 0.7232 0.94389 0.0
C5175 C 0.92473 0.72947 0.93972 0.0
C5176 C 0.91237 0.72431 0.94002 0.0
C5177 C 0.90545 0.71264 0.94419 0.0
C5178 C 0.91079 0.70634 0.94825 0.0
H5179 H 0.94305 0.70119 0.92904 0.0
H5180 H 0.93187 0.70535 0.92852 0.0
H5181 H 0.94684 0.71605 0.93309 0.0
H5182 H 0.93964 0.72757 0.94409 0.0
H5183 H 0.93027 0.73848 0.93664 0.0
H5184 H 0.3231 0.27867 0.98686 0.0
H5185 H 0.31335 0.25888 0.97726 0.0
H5186 H 0.32106 0.27433 0.94086 0.0
H5187 H 0.33086 0.29422 0.95042 0.0
H5188 H 0.29375 0.24969 0.96162 0.0
H5189 H 0.33148 0.24961 0.93831 0.0
H5190 H 0.33352 0.26032 0.95027 0.0
H5191 H 0.32956 0.26191 0.93472 0.0
C5192 C 0.32277 0.27786 0.97681 0.0
C5193 C 0.32771 0.288 0.96939 0.0
C5194 C 0.31724 0.26656 0.97134 0.0
C5195 C 0.31656 0.26514 0.95836 0.0
C5196 C 0.32168 0.27523 0.9509 0.0
H5197 H 0.26485 0.19787 0.92265 0.0
H5198 H 0.27705 0.21906 0.92785 0.0
C5199 C 0.32727 0.28658 0.95638 0.0
C5200 C 0.30983 0.25308 0.95274 0.0
H5201 H 0.31243 0.23295 0.93451 0.0
C5202 C 0.29782 0.24604 0.95566 0.0
C5203 C 0.3152 0.24834 0.94503 0.0
C5204 C 0.32817 0.25537 0.94195 0.0
C5205 C 0.29103 0.23434 0.95118 0.0
C5206 C 0.29636 0.22962 0.94338 0.0
C5207 C 0.30836 0.23666 0.94038 0.0
C5208 C 0.28975 0.21712 0.93894 0.0
C5209 C 0.27831 0.22701 0.95517 0.0
C5210 C 0.2931 0.20911 0.94308 0.0
C5211 C 0.28622 0.19706 0.94005 0.0
C5212 C 0.27592 0.19282 0.93272 0.0
C5213 C 0.2728 0.20093 0.92821 0.0
C5214 C 0.27971 0.21299 0.93124 0.0
H5215 H 0.27636 0.23109 0.96326 0.0
H5216 H 0.2724 0.22623 0.94736 0.0
H5217 H 0.27617 0.21793 0.95768 0.0
H5218 H 0.30081 0.21213 0.94905 0.0
H5219 H 0.28874 0.19099 0.94374 0.0
H5220 H 0.71964 0.02552 0.97191 0.0
H5221 H 0.7388 0.03606 0.96164 0.0
H5222 H 0.74369 0.06938 0.97536 0.0
H5223 H 0.72459 0.05887 0.9859 0.0
H5224 H 0.74718 0.05483 0.94355 0.0
H5225 H 0.77342 0.06853 0.98766 0.0
H5226 H 0.75808 0.05691 0.98698 0.0
H5227 H 0.76194 0.07215 0.98641 0.0
C5228 C 0.72483 0.03509 0.97281 0.0
C5229 C 0.72067 0.04136 0.97983 0.0
C5230 C 0.73572 0.04109 0.96686 0.0
C5231 C 0.74269 0.05346 0.96786 0.0
C5232 C 0.73847 0.0598 0.97461 0.0
H5233 H 0.81549 0.10058 0.9456 0.0
H5234 H 0.7952 0.09274 0.95278 0.0
C5235 C 0.72754 0.0538 0.98054 0.0
C5236 C 0.7545 0.05965 0.96208 0.0
H5237 H 0.78402 0.0749 0.96903 0.0
C5238 C 0.75525 0.05928 0.94909 0.0
C5239 C 0.76498 0.06542 0.96936 0.0
C5240 C 0.76465 0.06575 0.98338 0.0
C5241 C 0.76626 0.06457 0.94316 0.0
C5242 C 0.77675 0.07014 0.95046 0.0
C5243 C 0.77596 0.07065 0.96345 0.0
C5244 C 0.78865 0.07516 0.94493 0.0
C5245 C 0.76653 0.06425 0.92914 0.0
C5246 C 0.79169 0.06791 0.93806 0.0
C5247 C 0.80325 0.0724 0.93386 0.0
C5248 C 0.812 0.0842 0.93657 0.0
C5249 C 0.80889 0.09149 0.94329 0.0
C5250 C 0.79733 0.08701 0.94742 0.0
H5251 H 0.75821 0.06302 0.92497 0.0
H5252 H 0.77409 0.07252 0.92551 0.0
H5253 H 0.76751 0.05667 0.92605 0.0
H5254 H 0.78523 0.05866 0.9363 0.0
H5255 H 0.80546 0.06656 0.92885 0.0
H5256 H 0.68057 0.95049 0.01844 0.0
H5257 H 0.6899 0.94063 0.02868 0.0
H5258 H 0.68336 0.95128 0.06448 0.0
H5259 H 0.67422 0.96126 0.05439 0.0
H5260 H 0.7099 0.95203 0.04429 0.0
H5261 H 0.67193 0.91606 0.06902 0.0
H5262 H 0.6701 0.9239 0.05631 0.0
H5263 H 0.67353 0.93037 0.07172 0.0
C5264 C 0.68105 0.95066 0.0285 0.0
C5265 C 0.67662 0.95665 0.03559 0.0
C5266 C 0.68632 0.94498 0.03432 0.0
C5267 C 0.68717 0.9451 0.04733 0.0
C5268 C 0.68254 0.95084 0.05444 0.0
H5269 H 0.72182 0.93038 0.1055 0.0
H5270 H 0.71052 0.93601 0.09193 0.0
C5271 C 0.6773 0.95653 0.04864 0.0
C5272 C 0.6937 0.94007 0.05353 0.0
H5273 H 0.69125 0.92093 0.07612 0.0
C5274 C 0.70581 0.9451 0.05111 0.0
C5275 C 0.68831 0.93104 0.06241 0.0
C5276 C 0.67523 0.92494 0.06495 0.0
C5277 C 0.71282 0.94173 0.0578 0.0
C5278 C 0.7075 0.93299 0.067 0.0
C5279 C 0.69531 0.92768 0.06911 0.0
C5280 C 0.71451 0.92967 0.07501 0.0
C5281 C 0.72593 0.94792 0.05538 0.0
C5282 C 0.7205 0.92424 0.06996 0.0
C5283 C 0.727 0.92106 0.0777 0.0
C5284 C 0.72751 0.92315 0.09061 0.0
C5285 C 0.72154 0.92864 0.09559 0.0
C5286 C 0.71507 0.93182 0.08787 0.0
H5287 H 0.72899 0.95608 0.04988 0.0
H5288 H 0.73103 0.95035 0.06427 0.0
H5289 H 0.72796 0.94185 0.05008 0.0
H5290 H 0.72004 0.92237 0.06007 0.0
H5291 H 0.73153 0.91687 0.07361 0.0
H5292 H 0.05923 0.72885 0.0296 0.0
H5293 H 0.06949 0.74876 0.03904 0.0
H5294 H 0.0436 0.73687 0.06816 0.0
H5295 H 0.03333 0.717 0.05883 0.0
H5296 H 0.05993 0.76288 0.04211 0.0
H5297 H 0.07424 0.75532 0.08789 0.0
H5298 H 0.06948 0.74462 0.07523 0.0
H5299 H 0.05875 0.74561 0.08477 0.0
C5300 C 0.0558 0.73046 0.03809 0.0
C5301 C 0.04548 0.72134 0.04348 0.0
C5302 C 0.06169 0.74182 0.0435 0.0
C5303 C 0.05741 0.74426 0.05441 0.0
C5304 C 0.04725 0.73512 0.05994 0.0
H5305 H 0.06849 0.8076 0.0927 0.0
H5306 H 0.06196 0.78719 0.0859 0.0
C5307 C 0.04138 0.72376 0.05457 0.0
C5308 C 0.0629 0.75658 0.05936 0.0
H5309 H 0.07484 0.77379 0.08555 0.0
C5310 C 0.06332 0.76529 0.05156 0.0
C5311 C 0.06725 0.75969 0.07172 0.0
C5312 C 0.06753 0.75084 0.08036 0.0
C5313 C 0.06769 0.77696 0.05586 0.0
C5314 C 0.07189 0.78002 0.06825 0.0
C5315 C 0.07158 0.77137 0.07605 0.0
C5316 C 0.07647 0.79218 0.07325 0.0
C5317 C 0.0675 0.78586 0.04723 0.0
C5318 C 0.08691 0.80166 0.06858 0.0
C5319 C 0.09067 0.81327 0.07247 0.0
C5320 C 0.08411 0.8156 0.08119 0.0
C5321 C 0.07381 0.80604 0.08611 0.0
C5322 C 0.07007 0.79441 0.08223 0.0
H5323 H 0.06185 0.78154 0.03887 0.0
H5324 H 0.06421 0.79115 0.05211 0.0
H5325 H 0.07663 0.79206 0.04408 0.0
H5326 H 0.092 0.80009 0.06169 0.0
H5327 H 0.09856 0.82048 0.06843 0.0
H5328 H 0.29004 0.3453 0.03371 0.0
H5329 H 0.27099 0.33716 0.04426 0.0
H5330 H 0.27055 0.30439 0.0499 0.0
H5331 H 0.28962 0.31248 0.03951 0.0
H5332 H 0.24973 0.31567 0.03616 0.0
H5333 H 0.26284 0.3131 0.08467 0.0
H5334 H 0.27334 0.32259 0.07325 0.0
H5335 H 0.26801 0.30696 0.07291 0.0
C5336 C 0.28596 0.33643 0.03737 0.0
C5337 C 0.2913 0.32951 0.03576 0.0
C5338 C 0.27508 0.33179 0.04335 0.0
C5339 C 0.26946 0.32023 0.04797 0.0
C5340 C 0.27485 0.31338 0.04656 0.0
H5341 H 0.20191 0.27151 0.08014 0.0
H5342 H 0.22247 0.28213 0.07306 0.0
C5343 C 0.28567 0.31797 0.04051 0.0
C5344 C 0.25757 0.31502 0.0535 0.0
H5345 H 0.24223 0.30334 0.08019 0.0
C5346 C 0.24808 0.31307 0.04581 0.0
C5347 C 0.25549 0.31156 0.06606 0.0
C5348 C 0.26545 0.31372 0.07477 0.0
C5349 C 0.23646 0.30745 0.05025 0.0
C5350 C 0.23435 0.30399 0.06283 0.0
C5351 C 0.24388 0.30604 0.07056 0.0
C5352 C 0.22225 0.29798 0.06802 0.0
C5353 C 0.22653 0.3049 0.04129 0.0
C5354 C 0.21546 0.3035 0.06787 0.0
C5355 C 0.20372 0.29742 0.07178 0.0
C5356 C 0.19863 0.28577 0.07611 0.0
C5357 C 0.20562 0.28046 0.07681 0.0
C5358 C 0.21734 0.28652 0.07279 0.0
H5359 H 0.22922 0.30519 0.03146 0.0
H5360 H 0.21865 0.29607 0.04297 0.0
H5361 H 0.22394 0.31171 0.0426 0.0
H5362 H 0.21916 0.31244 0.0645 0.0
H5363 H 0.19855 0.30175 0.0712 0.0
H5364 H 0.69202 0.64931 0.38467 0.0
H5365 H 0.70286 0.64172 0.39604 0.0
H5366 H 0.73543 0.66814 0.37953 0.0
H5367 H 0.72456 0.6756 0.36777 0.0
H5368 H 0.73232 0.64537 0.37883 0.0
H5369 H 0.72477 0.65724 0.42618 0.0
H5370 H 0.71136 0.64877 0.41727 0.0
H5371 H 0.72228 0.66335 0.41232 0.0
C5372 C 0.70148 0.65347 0.38338 0.0
C5373 C 0.70743 0.66305 0.37529 0.0
C5374 C 0.70768 0.64921 0.39 0.0
C5375 C 0.71997 0.65449 0.38877 0.0
C5376 C 0.72596 0.66401 0.38068 0.0
H5377 H 0.76261 0.63658 0.44579 0.0
H5378 H 0.75309 0.64848 0.43145 0.0
C5379 C 0.71975 0.6683 0.37403 0.0
C5380 C 0.72644 0.64977 0.39567 0.0
H5381 H 0.73168 0.64352 0.42488 0.0
C5382 C 0.73227 0.64504 0.38891 0.0
C5383 C 0.72655 0.64956 0.40881 0.0
C5384 C 0.72101 0.6551 0.41659 0.0
C5385 C 0.73786 0.63971 0.39493 0.0
C5386 C 0.73738 0.63889 0.40804 0.0
C5387 C 0.73195 0.64404 0.41482 0.0
C5388 C 0.74219 0.63259 0.41497 0.0
C5389 C 0.74441 0.63525 0.38717 0.0
C5390 C 0.7377 0.6175 0.4105 0.0
C5391 C 0.74276 0.60922 0.4192 0.0
C5392 C 0.75451 0.61813 0.43098 0.0
C5393 C 0.75658 0.63214 0.43806 0.0
C5394 C 0.75108 0.63966 0.42874 0.0
H5395 H 0.74724 0.63996 0.37819 0.0
H5396 H 0.75236 0.63642 0.39214 0.0
H5397 H 0.73847 0.6257 0.38498 0.0
H5398 H 0.73173 0.61327 0.4027 0.0
H5399 H 0.74092 0.60056 0.41604 0.0
H5400 H 0.33057 0.05196 0.37032 0.0
H5401 H 0.34068 0.07134 0.3809 0.0
H5402 H 0.34995 0.05636 0.41132 0.0
H5403 H 0.34023 0.03706 0.40063 0.0
H5404 H 0.33703 0.07849 0.4041 0.0
H5405 H 0.38189 0.0843 0.40105 0.0
H5406 H 0.36942 0.07304 0.39223 0.0
H5407 H 0.37124 0.07083 0.40836 0.0
C5408 C 0.33482 0.0528 0.37922 0.0
C5409 C 0.33466 0.04297 0.38458 0.0
C5410 C 0.34052 0.06386 0.38529 0.0
C5411 C 0.34622 0.06532 0.39679 0.0
C5412 C 0.34578 0.05547 0.40234 0.0
H5413 H 0.37002 0.12955 0.45224 0.0
H5414 H 0.35701 0.10708 0.43911 0.0
C5415 C 0.3401 0.04441 0.39628 0.0
C5416 C 0.3527 0.07717 0.40291 0.0
H5417 H 0.38001 0.09833 0.41348 0.0
C5418 C 0.34644 0.08288 0.40614 0.0
C5419 C 0.365 0.08294 0.40534 0.0
C5420 C 0.37233 0.07753 0.40147 0.0
C5421 C 0.35212 0.09415 0.41191 0.0
C5422 C 0.36436 0.09973 0.41475 0.0
C5423 C 0.37063 0.09408 0.41134 0.0
C5424 C 0.37098 0.11139 0.42121 0.0
C5425 C 0.34495 0.1 0.41448 0.0
C5426 C 0.38543 0.12198 0.41548 0.0
C5427 C 0.39459 0.13584 0.4235 0.0
C5428 C 0.38677 0.13925 0.43584 0.0
C5429 C 0.37365 0.12757 0.44416 0.0
C5430 C 0.36531 0.11394 0.43548 0.0
H5431 H 0.33705 0.0964 0.40826 0.0
H5432 H 0.34175 0.09825 0.42418 0.0
H5433 H 0.35027 0.1097 0.41318 0.0
H5434 H 0.38871 0.11992 0.40718 0.0
H5435 H 0.40278 0.14262 0.41953 0.0
H5436 H 0.95099 0.28225 0.35426 0.0
H5437 H 0.93162 0.27208 0.36397 0.0
H5438 H 0.94804 0.28493 0.40002 0.0
H5439 H 0.9674 0.2958 0.39032 0.0
H5440 H 0.92209 0.25498 0.38035 0.0
H5441 H 0.9239 0.29507 0.40051 0.0
H5442 H 0.93465 0.29588 0.38955 0.0
H5443 H 0.93588 0.29325 0.40573 0.0
C5444 C 0.95051 0.28308 0.36424 0.0
C5445 C 0.9608 0.29 0.37147 0.0
C5446 C 0.93941 0.27716 0.3698 0.0
C5447 C 0.93834 0.27794 0.3827 0.0
C5448 C 0.94861 0.28445 0.39001 0.0
H5449 H 0.87295 0.22975 0.42106 0.0
H5450 H 0.89315 0.24009 0.41328 0.0
C5451 C 0.95972 0.29051 0.38445 0.0
C5452 C 0.92645 0.27187 0.38844 0.0
H5453 H 0.90784 0.27652 0.40665 0.0
C5454 C 0.91896 0.25969 0.38608 0.0
C5455 C 0.9223 0.27807 0.39576 0.0
C5456 C 0.92955 0.29131 0.39794 0.0
C5457 C 0.90745 0.25353 0.39083 0.0
C5458 C 0.90346 0.25963 0.39853 0.0
C5459 C 0.91095 0.27182 0.40087 0.0
C5460 C 0.8914 0.25366 0.40387 0.0
C5461 C 0.8996 0.24064 0.38718 0.0
C5462 C 0.88384 0.25813 0.40166 0.0
C5463 C 0.8724 0.25245 0.40644 0.0
C5464 C 0.86827 0.24218 0.41353 0.0
C5465 C 0.87588 0.23774 0.41579 0.0
C5466 C 0.8874 0.24355 0.41119 0.0
H5467 H 0.90262 0.23838 0.37847 0.0
H5468 H 0.89988 0.23502 0.39465 0.0
H5469 H 0.89028 0.23838 0.38582 0.0
H5470 H 0.88673 0.26592 0.39605 0.0
H5471 H 0.86668 0.25596 0.40441 0.0
H5472 H 0.99715 0.37061 0.30918 0.0
H5473 H 0.99585 0.38659 0.29918 0.0
H5474 H 0.03361 0.40573 0.294 0.0
H5475 H 0.03507 0.38994 0.30425 0.0
H5476 H 0.00847 0.41116 0.30775 0.0
H5477 H 0.01925 0.40542 0.25912 0.0
H5478 H 0.01416 0.39376 0.2704 0.0
H5479 H 0.02917 0.40585 0.27098 0.0
C5480 C 0.0052 0.37823 0.30596 0.0
C5481 C 0.01623 0.37901 0.30756 0.0
C5482 C 0.00441 0.3873 0.30017 0.0
C5483 C 0.01461 0.39725 0.29575 0.0
C5484 C 0.02561 0.39801 0.29716 0.0
H5485 H 0.02951 0.46328 0.26246 0.0
H5486 H 0.03027 0.44619 0.2704 0.0
C5487 C 0.02642 0.38897 0.303 0.0
C5488 C 0.01382 0.40715 0.29034 0.0
H5489 H 0.01787 0.42245 0.26361 0.0
C5490 C 0.01046 0.41361 0.29808 0.0
C5491 C 0.01651 0.41032 0.27776 0.0
C5492 C 0.0199 0.40345 0.26902 0.0
C5493 C 0.0099 0.42334 0.29364 0.0
C5494 C 0.01249 0.42648 0.28102 0.0
C5495 C 0.01586 0.42 0.27326 0.0
C5496 C 0.01187 0.43655 0.27575 0.0
C5497 C 0.00685 0.43035 0.30259 0.0
C5498 C 0.00123 0.43666 0.2759 0.0
C5499 C 0.00081 0.44643 0.27148 0.0
C5500 C 0.01098 0.45618 0.26665 0.0
C5501 C 0.02155 0.45588 0.26616 0.0
C5502 C 0.02198 0.44614 0.27066 0.0
H5503 H 0.00834 0.42886 0.31241 0.0
H5504 H 0.01218 0.43999 0.30077 0.0
H5505 H 0.99736 0.42752 0.30145 0.0
H5506 H 0.99326 0.42923 0.27952 0.0
H5507 H 0.99254 0.4464 0.27193 0.0
H5508 H 0.6308 0.6158 0.32124 0.0
H5509 H 0.61945 0.59667 0.31046 0.0
H5510 H 0.60807 0.61261 0.28297 0.0
H5511 H 0.61955 0.63187 0.29368 0.0
H5512 H 0.59586 0.58351 0.30577 0.0
H5513 H 0.62067 0.59575 0.26151 0.0
H5514 H 0.62604 0.60498 0.27535 0.0
H5515 H 0.61478 0.60502 0.26582 0.0
C5516 C 0.62582 0.61522 0.31294 0.0
C5517 C 0.62604 0.62533 0.30832 0.0
C5518 C 0.61938 0.6043 0.30676 0.0
C5519 C 0.61304 0.60325 0.29582 0.0
C5520 C 0.61312 0.61328 0.29124 0.0
H5521 H 0.55884 0.53452 0.26564 0.0
H5522 H 0.56943 0.55471 0.27435 0.0
C5523 C 0.61964 0.62426 0.29738 0.0
C5524 C 0.60618 0.59154 0.28946 0.0
H5525 H 0.60352 0.57665 0.2622 0.0
C5526 C 0.59752 0.58201 0.29624 0.0
C5527 C 0.60847 0.58958 0.27707 0.0
C5528 C 0.61807 0.59934 0.26953 0.0
C5529 C 0.5911 0.57057 0.29099 0.0
C5530 C 0.59321 0.56866 0.27852 0.0
C5531 C 0.60186 0.57818 0.27172 0.0
C5532 C 0.5868 0.55675 0.27251 0.0
C5533 C 0.58239 0.56056 0.29899 0.0
C5534 C 0.59309 0.55136 0.26823 0.0
C5535 C 0.58707 0.53991 0.26308 0.0
C5536 C 0.57467 0.53369 0.26199 0.0
C5537 C 0.56841 0.53917 0.26618 0.0
C5538 C 0.57444 0.55064 0.27126 0.0
H5539 H 0.58407 0.56289 0.30905 0.0
H5540 H 0.57331 0.55863 0.29677 0.0
H5541 H 0.58276 0.55238 0.29721 0.0
H5542 H 0.60264 0.55593 0.26914 0.0
H5543 H 0.59209 0.53583 0.26011 0.0
H5544 H 0.37732 0.00484 0.31907 0.0
H5545 H 0.39387 0.0054 0.30805 0.0
H5546 H 0.37176 0.96858 0.29748 0.0
H5547 H 0.35516 0.96789 0.3086 0.0
H5548 H 0.40368 0.99098 0.31323 0.0
H5549 H 0.38712 0.9848 0.26447 0.0
H5550 H 0.38097 0.98928 0.27697 0.0
H5551 H 0.37713 0.97406 0.27528 0.0
C5552 C 0.37597 0.99685 0.31442 0.0
C5553 C 0.36493 0.9863 0.31474 0.0
C5554 C 0.38541 0.99721 0.30807 0.0
C5555 C 0.38399 0.98707 0.30185 0.0
C5556 C 0.37296 0.97656 0.30201 0.0
H5557 H 0.43313 0.97175 0.26338 0.0
H5558 H 0.4155 0.97088 0.27229 0.0
C5559 C 0.3635 0.97619 0.30838 0.0
C5560 C 0.39425 0.98737 0.29581 0.0
H5561 H 0.40487 0.98457 0.26781 0.0
C5562 C 0.40397 0.98962 0.30329 0.0
C5563 C 0.39453 0.9855 0.28287 0.0
C5564 C 0.38443 0.98337 0.27438 0.0
C5565 C 0.41397 0.98997 0.2982 0.0
C5566 C 0.41434 0.98826 0.28523 0.0
C5567 C 0.40456 0.9859 0.27774 0.0
C5568 C 0.42484 0.98898 0.27929 0.0
C5569 C 0.42396 0.99193 0.30679 0.0
C5570 C 0.43584 0.99951 0.28006 0.0
C5571 C 0.44588 1e-05 0.27503 0.0
C5572 C 0.44507 0.99003 0.26898 0.0
C5573 C 0.43397 0.97958 0.26793 0.0
C5574 C 0.42393 0.97908 0.27301 0.0
H5575 H 0.42099 0.98987 0.31657 0.0
H5576 H 0.42777 0.9864 0.30388 0.0
H5577 H 0.43106 0.00138 0.30651 0.0
H5578 H 0.43668 0.00731 0.28467 0.0
H5579 H 0.45432 0.00816 0.276 0.0
H5580 H 0.61151 0.96976 0.30212 0.0
H5581 H 0.59766 0.97427 0.29164 0.0
H5582 H 0.6115 0.00667 0.3133 0.0
H5583 H 0.62525 0.00217 0.32386 0.0
H5584 H 0.58747 0.99411 0.31287 0.0
H5585 H 0.60474 0.99866 0.26495 0.0
H5586 H 0.60069 0.98477 0.27202 0.0
H5587 H 0.61277 0.99828 0.27844 0.0
C5588 C 0.61165 0.97788 0.30456 0.0
C5589 C 0.61944 0.9856 0.31382 0.0
C5590 C 0.60377 0.98047 0.29854 0.0
C5591 C 0.60367 0.9909 0.30156 0.0
C5592 C 0.61143 0.99859 0.31082 0.0
H5593 H 0.57201 0.02597 0.26347 0.0
H5594 H 0.58529 0.01953 0.27171 0.0
C5595 C 0.61924 0.99598 0.31689 0.0
C5596 C 0.59525 0.99368 0.29542 0.0
H5597 H 0.58708 0.99929 0.2673 0.0
C5598 C 0.58738 0.99523 0.3029 0.0
C5599 C 0.59524 0.99527 0.28242 0.0
C5600 C 0.60388 0.99427 0.27398 0.0
C5601 C 0.57949 0.99833 0.29778 0.0
C5602 C 0.57929 0.99965 0.28476 0.0
C5603 C 0.58718 0.99814 0.27725 0.0
C5604 C 0.57121 0.00302 0.27887 0.0
C5605 C 0.57166 0.00047 0.30639 0.0
C5606 C 0.55891 0.99572 0.27989 0.0
C5607 C 0.55134 0.99939 0.27525 0.0
C5608 C 0.55594 0.01036 0.26935 0.0
C5609 C 0.56825 0.01745 0.26792 0.0
C5610 C 0.57582 0.01379 0.27262 0.0
H5611 H 0.57496 0.00199 0.31616 0.0
H5612 H 0.57104 0.00824 0.30344 0.0
H5613 H 0.56262 0.99257 0.30617 0.0
H5614 H 0.55517 0.98728 0.28449 0.0
H5615 H 0.5419 0.99376 0.2765 0.0
H5616 H 0.03052 0.6482 0.29916 0.0
H5617 H 0.02765 0.63146 0.28607 0.0
H5618 H 0.99425 0.60882 0.30364 0.0
H5619 H 0.99703 0.62556 0.31679 0.0
H5620 H 0.02022 0.60533 0.29673 0.0
H5621 H 0.99049 0.60945 0.26252 0.0
H5622 H 0.00159 0.62225 0.27115 0.0
H5623 H 0.98889 0.61102 0.27898 0.0
C5624 C 0.02256 0.63966 0.30023 0.0
C5625 C 0.01397 0.63819 0.30895 0.0
C5626 C 0.02097 0.63012 0.29281 0.0
C5627 C 0.01073 0.61899 0.2939 0.0
C5628 C 0.0022 0.61739 0.3027 0.0
H5629 H 0.98797 0.55831 0.23341 0.0
H5630 H 0.98703 0.57282 0.2535 0.0
C5631 C 0.00383 0.62692 0.31022 0.0
C5632 C 0.00896 0.60917 0.28557 0.0
H5633 H 0.99677 0.59597 0.2576 0.0
C5634 C 0.01501 0.60317 0.28822 0.0
C5635 C 0.002 0.6063 0.27464 0.0
C5636 C 0.99534 0.61255 0.27154 0.0
C5637 C 0.01458 0.59457 0.27995 0.0
C5638 C 0.00821 0.59222 0.26861 0.0
C5639 C 0.0017 0.59782 0.26627 0.0
C5640 C 0.00888 0.58473 0.25867 0.0
C5641 C 0.02082 0.58802 0.28358 0.0
C5642 C 0.02332 0.58787 0.25363 0.0
C5643 C 0.02478 0.5797 0.24087 0.0
C5644 C 0.01067 0.56663 0.23541 0.0
C5645 C 0.99597 0.56534 0.23774 0.0
C5646 C 0.99545 0.574 0.25063 0.0
H5647 H 0.02129 0.58752 0.29385 0.0
H5648 H 0.01628 0.57888 0.27963 0.0
H5649 H 0.03003 0.59287 0.28016 0.0
H5650 H 0.0312 0.59491 0.25809 0.0
H5651 H 0.0333 0.58087 0.23843 0.0
H5652 H 0.37224 0.36036 0.29727 0.0
H5653 H 0.39137 0.37089 0.28699 0.0
H5654 H 0.39989 0.40278 0.3076 0.0
H5655 H 0.38069 0.39236 0.31784 0.0
H5656 H 0.40215 0.39208 0.27259 0.0
H5657 H 0.42705 0.39658 0.31622 0.0
H5658 H 0.41131 0.38656 0.31466 0.0
H5659 H 0.41705 0.40215 0.31712 0.0
C5660 C 0.37808 0.36967 0.29948 0.0
C5661 C 0.37494 0.3755 0.30845 0.0
C5662 C 0.38904 0.37565 0.29362 0.0
C5663 C 0.3971 0.38755 0.29667 0.0
C5664 C 0.39387 0.39353 0.30529 0.0
H5665 H 0.47043 0.43516 0.27764 0.0
H5666 H 0.45007 0.4266 0.28487 0.0
C5667 C 0.3829 0.38755 0.31115 0.0
C5668 C 0.40903 0.39356 0.29114 0.0
H5669 H 0.43833 0.40595 0.29849 0.0
C5670 C 0.41008 0.39513 0.27823 0.0
C5671 C 0.41933 0.39747 0.29854 0.0
C5672 C 0.41869 0.39554 0.31239 0.0
C5673 C 0.4212 0.40067 0.27253 0.0
C5674 C 0.43149 0.40456 0.27994 0.0
C5675 C 0.43043 0.40301 0.29285 0.0
C5676 C 0.44348 0.4101 0.27454 0.0
C5677 C 0.42188 0.40249 0.25867 0.0
C5678 C 0.44651 0.40367 0.26631 0.0
C5679 C 0.45813 0.40856 0.26214 0.0
C5680 C 0.46691 0.41997 0.26613 0.0
C5681 C 0.46381 0.42643 0.27426 0.0
C5682 C 0.4522 0.42154 0.27842 0.0
H5683 H 0.41367 0.40185 0.25488 0.0
H5684 H 0.42954 0.41126 0.25629 0.0
H5685 H 0.42305 0.39554 0.25402 0.0
H5686 H 0.43998 0.39472 0.26344 0.0
H5687 H 0.46035 0.4033 0.25609 0.0
H5688 H 0.32579 0.27806 0.36585 0.0
H5689 H 0.33386 0.26668 0.37523 0.0
H5690 H 0.36173 0.29861 0.39265 0.0
H5691 H 0.35344 0.30994 0.38381 0.0
H5692 H 0.35555 0.2695 0.37128 0.0
H5693 H 0.3508 0.27613 0.42144 0.0
H5694 H 0.34333 0.27954 0.4095 0.0
H5695 H 0.35863 0.2898 0.41325 0.0
C5696 C 0.33349 0.28262 0.37189 0.0
C5697 C 0.33896 0.29493 0.37406 0.0
C5698 C 0.33813 0.27612 0.37719 0.0
C5699 C 0.3483 0.28176 0.3848 0.0
C5700 C 0.35373 0.29401 0.38705 0.0
H5701 H 0.39769 0.26317 0.41538 0.0
H5702 H 0.38663 0.27291 0.40946 0.0
C5703 C 0.34907 0.30051 0.38181 0.0
C5704 C 0.3537 0.275 0.38968 0.0
H5705 H 0.36339 0.26843 0.41626 0.0
C5706 C 0.35714 0.26916 0.38112 0.0
C5707 C 0.35583 0.27462 0.40253 0.0
C5708 C 0.35185 0.28026 0.41222 0.0
C5709 C 0.36292 0.26319 0.38502 0.0
C5710 C 0.36517 0.26292 0.39785 0.0
C5711 C 0.36166 0.26867 0.40643 0.0
C5712 C 0.37136 0.25685 0.40245 0.0
C5713 C 0.36688 0.2575 0.37535 0.0
C5714 C 0.36629 0.24456 0.40075 0.0
C5715 C 0.37257 0.23901 0.40412 0.0
C5716 C 0.38398 0.24561 0.40938 0.0
C5717 C 0.38887 0.25786 0.41146 0.0
C5718 C 0.38258 0.26342 0.40807 0.0
H5719 H 0.36691 0.2608 0.36588 0.0
H5720 H 0.3759 0.2592 0.37756 0.0
H5721 H 0.36073 0.24777 0.37524 0.0
H5722 H 0.35757 0.23932 0.39658 0.0
H5723 H 0.36863 0.22958 0.40234 0.0
H5724 H 0.69033 0.04289 0.37631 0.0
H5725 H 0.70161 0.06324 0.38451 0.0
H5726 H 0.73347 0.0613 0.38419 0.0
H5727 H 0.72228 0.04098 0.3758 0.0
H5728 H 0.71676 0.0722 0.40705 0.0
H5729 H 0.74074 0.09084 0.36294 0.0
H5730 H 0.72732 0.07657 0.36354 0.0
H5731 H 0.74107 0.07821 0.36884 0.0
C5732 C 0.69975 0.04681 0.37793 0.0
C5733 C 0.70544 0.04036 0.37531 0.0
C5734 C 0.70615 0.05839 0.3827 0.0
C5735 C 0.71837 0.06377 0.38483 0.0
C5736 C 0.72405 0.05731 0.38249 0.0
H5737 H 0.77159 0.13671 0.40287 0.0
H5738 H 0.76118 0.11532 0.39872 0.0
C5739 C 0.71764 0.04569 0.37778 0.0
C5740 C 0.7252 0.07627 0.38922 0.0
H5741 H 0.74577 0.10402 0.38001 0.0
C5742 C 0.72313 0.07918 0.40118 0.0
C5743 C 0.73349 0.0853 0.38151 0.0
C5744 C 0.73578 0.08266 0.36845 0.0
C5745 C 0.72924 0.09094 0.4057 0.0
C5746 C 0.73742 0.10002 0.39792 0.0
C5747 C 0.73953 0.09705 0.38598 0.0
C5748 C 0.74371 0.11273 0.40175 0.0
C5749 C 0.72702 0.09348 0.41883 0.0
C5750 C 0.73737 0.11837 0.40495 0.0
C5751 C 0.74331 0.13057 0.40745 0.0
C5752 C 0.7557 0.13738 0.40663 0.0
C5753 C 0.76204 0.13168 0.40363 0.0
C5754 C 0.75611 0.11947 0.40124 0.0
H5755 H 0.72352 0.08548 0.42467 0.0
H5756 H 0.73523 0.1007 0.42327 0.0
H5757 H 0.72033 0.09629 0.41865 0.0
H5758 H 0.72779 0.11342 0.40511 0.0
H5759 H 0.73821 0.13476 0.40964 0.0
H5760 H 0.9569 0.65058 0.37615 0.0
H5761 H 0.93701 0.64142 0.38489 0.0
H5762 H 0.93792 0.67474 0.38279 0.0
H5763 H 0.95778 0.68396 0.37391 0.0
H5764 H 0.92937 0.64963 0.40746 0.0
H5765 H 0.90725 0.64923 0.36302 0.0
H5766 H 0.92157 0.65038 0.3635 0.0
H5767 H 0.92022 0.66296 0.36763 0.0
C5768 C 0.95284 0.65594 0.37748 0.0
C5769 C 0.95887 0.66797 0.37426 0.0
C5770 C 0.94153 0.65072 0.38256 0.0
C5771 C 0.93601 0.6574 0.38439 0.0
C5772 C 0.94204 0.66944 0.38135 0.0
H5773 H 0.86416 0.63702 0.4044 0.0
H5774 H 0.88511 0.64808 0.39898 0.0
C5775 C 0.95339 0.6747 0.37635 0.0
C5776 C 0.92384 0.65168 0.38926 0.0
H5777 H 0.89532 0.64229 0.38075 0.0
C5778 C 0.9219 0.64803 0.40166 0.0
C5779 C 0.91418 0.64965 0.38165 0.0
C5780 C 0.91581 0.65317 0.36817 0.0
C5781 C 0.91049 0.64247 0.40671 0.0
C5782 C 0.90077 0.64027 0.39903 0.0
C5783 C 0.90277 0.644 0.38664 0.0
C5784 C 0.8884 0.63393 0.4035 0.0
C5785 C 0.909 0.63922 0.42025 0.0
C5786 C 0.8833 0.62233 0.40795 0.0
C5787 C 0.87136 0.61604 0.41117 0.0
C5788 C 0.86426 0.6212 0.40986 0.0
C5789 C 0.86943 0.63286 0.40558 0.0
C5790 C 0.88138 0.63917 0.40245 0.0
H5791 H 0.91737 0.64462 0.4256 0.0
H5792 H 0.90199 0.64043 0.42455 0.0
H5793 H 0.90644 0.62977 0.42105 0.0
H5794 H 0.88846 0.61799 0.40855 0.0
H5795 H 0.86756 0.60702 0.41434 0.0
H5796 H 0.37931 0.00111 0.6991 0.0
H5797 H 0.3933 0.99882 0.71213 0.0
H5798 H 0.40107 0.03036 0.73306 0.0
H5799 H 0.38687 0.03256 0.72017 0.0
H5800 H 0.41691 0.01345 0.71596 0.0
H5801 H 0.39293 0.00665 0.76042 0.0
H5802 H 0.38636 0.00635 0.74556 0.0
H5803 H 0.39682 0.02026 0.75283 0.0
C5804 C 0.38405 0.00759 0.70643 0.0
C5805 C 0.38199 0.01699 0.70866 0.0
C5806 C 0.39201 0.00626 0.71389 0.0
C5807 C 0.39808 0.01431 0.72369 0.0
C5808 C 0.39625 0.02388 0.72576 0.0
H5809 H 0.44909 0.0123 0.78436 0.0
H5810 H 0.43572 0.01984 0.7694 0.0
C5811 C 0.38819 0.02515 0.71837 0.0
C5812 C 0.40633 0.01261 0.73163 0.0
H5813 H 0.41111 0.00703 0.76136 0.0
C5814 C 0.41564 0.01205 0.72588 0.0
C5815 C 0.40473 0.01092 0.74461 0.0
C5816 C 0.39462 0.01096 0.75123 0.0
C5817 C 0.42324 0.0096 0.73272 0.0
C5818 C 0.42142 0.00758 0.74559 0.0
C5819 C 0.41244 0.00859 0.75145 0.0
C5820 C 0.42818 0.00363 0.75298 0.0
C5821 C 0.43327 0.00934 0.72616 0.0
C5822 C 0.42719 0.98976 0.74872 0.0
C5823 C 0.43471 0.98408 0.75777 0.0
C5824 C 0.44517 0.99463 0.76971 0.0
C5825 C 0.44372 0.00699 0.77655 0.0
C5826 C 0.43587 0.0119 0.76685 0.0
H5827 H 0.43506 0.01367 0.71697 0.0
H5828 H 0.44148 0.01389 0.7319 0.0
H5829 H 0.43096 2e-05 0.7246 0.0
H5830 H 0.42192 0.98473 0.74074 0.0
H5831 H 0.43501 0.97633 0.75472 0.0
H5832 H 0.97537 0.36593 0.69785 0.0
H5833 H 0.97908 0.38389 0.70914 0.0
H5834 H 0.00103 0.3791 0.73559 0.0
H5835 H 0.99776 0.36144 0.72414 0.0
H5836 H 0.97501 0.3875 0.73421 0.0
H5837 H 0.02277 0.41267 0.72293 0.0
H5838 H 0.01243 0.39902 0.71499 0.0
H5839 H 0.01815 0.39871 0.73012 0.0
C5840 C 0.98105 0.36874 0.70602 0.0
C5841 C 0.98635 0.3623 0.71003 0.0
C5842 C 0.98308 0.37895 0.71251 0.0
C5843 C 0.99048 0.38291 0.72306 0.0
C5844 C 0.99545 0.37629 0.72733 0.0
H5845 H 0.025 0.44796 0.77629 0.0
H5846 H 0.01779 0.42636 0.76219 0.0
C5847 C 0.99346 0.36612 0.72085 0.0
C5848 C 0.99322 0.39408 0.72951 0.0
H5849 H 0.01613 0.42137 0.73794 0.0
C5850 C 0.98398 0.39496 0.73497 0.0
C5851 C 0.00493 0.40378 0.73044 0.0
C5852 C 0.01513 0.40358 0.72421 0.0
C5853 C 0.9862 0.40518 0.7417 0.0
C5854 C 0.99795 0.41479 0.74278 0.0
C5855 C 0.00714 0.41395 0.73718 0.0
C5856 C 0.00109 0.42575 0.74981 0.0
C5857 C 0.97603 0.40535 0.748 0.0
C5858 C 0.99392 0.43405 0.74612 0.0
C5859 C 0.99826 0.44794 0.75396 0.0
C5860 C 0.00852 0.45137 0.76746 0.0
C5861 C 0.01835 0.44507 0.76901 0.0
C5862 C 0.01336 0.43132 0.76068 0.0
H5863 H 0.96838 0.39625 0.7492 0.0
H5864 H 0.97873 0.40978 0.75728 0.0
H5865 H 0.97301 0.41028 0.7422 0.0
H5866 H 0.98714 0.43083 0.73896 0.0
H5867 H 0.99352 0.4526 0.75248 0.0
H5868 H 0.62334 0.60808 0.70307 0.0
H5869 H 0.60456 0.59663 0.71401 0.0
H5870 H 0.60548 0.62903 0.72441 0.0
H5871 H 0.62424 0.64051 0.71367 0.0
H5872 H 0.59878 0.59823 0.73965 0.0
H5873 H 0.57322 0.6089 0.70634 0.0
H5874 H 0.5876 0.61099 0.70278 0.0
H5875 H 0.58635 0.62161 0.71246 0.0
C5876 C 0.6196 0.61276 0.70778 0.0
C5877 C 0.62522 0.6252 0.70736 0.0
C5878 C 0.60886 0.60621 0.71399 0.0
C5879 C 0.60355 0.61199 0.71981 0.0
C5880 C 0.60931 0.62439 0.71973 0.0
H5881 H 0.53939 0.59322 0.75904 0.0
H5882 H 0.55895 0.6031 0.74951 0.0
C5883 C 0.62001 0.63093 0.71355 0.0
C5884 C 0.59195 0.60511 0.72593 0.0
H5885 H 0.56361 0.5997 0.72506 0.0
C5886 C 0.59105 0.59846 0.73643 0.0
C5887 C 0.5819 0.60543 0.72167 0.0
C5888 C 0.58224 0.61202 0.71013 0.0
C5889 C 0.58042 0.59241 0.74303 0.0
C5890 C 0.57043 0.5929 0.73888 0.0
C5891 C 0.57131 0.5994 0.72826 0.0
C5892 C 0.55898 0.58687 0.74545 0.0
C5893 C 0.58007 0.58585 0.7546 0.0
C5894 C 0.55252 0.57448 0.74632 0.0
C5895 C 0.54136 0.56882 0.75181 0.0
C5896 C 0.53649 0.57548 0.75656 0.0
C5897 C 0.54301 0.58789 0.75568 0.0
C5898 C 0.55415 0.59353 0.7502 0.0
H5899 H 0.58909 0.58866 0.75817 0.0
H5900 H 0.57506 0.58727 0.76206 0.0
H5901 H 0.57553 0.57621 0.75241 0.0
H5902 H 0.55595 0.56916 0.74244 0.0
H5903 H 0.53641 0.55923 0.7521 0.0
H5904 H 0.64618 0.69242 0.64274 0.0
H5905 H 0.63865 0.70376 0.63228 0.0
H5906 H 0.67428 0.73309 0.62855 0.0
H5907 H 0.68191 0.72173 0.63898 0.0
H5908 H 0.64093 0.72486 0.63977 0.0
H5909 H 0.66115 0.72924 0.59339 0.0
H5910 H 0.66052 0.71895 0.60479 0.0
H5911 H 0.6715 0.73443 0.60617 0.0
C5912 C 0.65242 0.70129 0.63971 0.0
C5913 C 0.66464 0.7062 0.64172 0.0
C5914 C 0.64811 0.70774 0.63369 0.0
C5915 C 0.65591 0.71921 0.6295 0.0
C5916 C 0.66812 0.72415 0.63145 0.0
H5917 H 0.64158 0.77192 0.59814 0.0
H5918 H 0.65118 0.7617 0.60705 0.0
C5919 C 0.67246 0.71767 0.63744 0.0
C5920 C 0.65112 0.72611 0.62359 0.0
H5921 H 0.65111 0.73984 0.59679 0.0
C5922 C 0.64315 0.72812 0.63037 0.0
C5923 C 0.65405 0.73037 0.61133 0.0
C5924 C 0.66219 0.72807 0.60343 0.0
C5925 C 0.63801 0.73426 0.62522 0.0
C5926 C 0.64086 0.73843 0.61295 0.0
C5927 C 0.64897 0.73661 0.60621 0.0
C5928 C 0.63526 0.74446 0.6069 0.0
C5929 C 0.6296 0.73632 0.63294 0.0
C5930 C 0.62319 0.73808 0.60374 0.0
C5931 C 0.61773 0.74385 0.59856 0.0
C5932 C 0.62426 0.75609 0.59635 0.0
C5933 C 0.63639 0.76244 0.59948 0.0
C5934 C 0.64186 0.75664 0.6046 0.0
H5935 H 0.63012 0.73462 0.64295 0.0
H5936 H 0.63151 0.74556 0.63195 0.0
H5937 H 0.62041 0.73026 0.6296 0.0
H5938 H 0.61797 0.72866 0.60544 0.0
H5939 H 0.60834 0.73878 0.59644 0.0
H5940 H 0.31144 0.95824 0.63242 0.0
H5941 H 0.30048 0.93901 0.62169 0.0
H5942 H 0.26813 0.93315 0.63838 0.0
H5943 H 0.27909 0.95232 0.64939 0.0
H5944 H 0.27183 0.91342 0.63938 0.0
H5945 H 0.27756 0.93147 0.59187 0.0
H5946 H 0.29109 0.93712 0.60066 0.0
H5947 H 0.27999 0.94039 0.60574 0.0
C5948 C 0.30201 0.95282 0.6339 0.0
C5949 C 0.29612 0.9568 0.64175 0.0
C5950 C 0.29575 0.9419 0.62766 0.0
C5951 C 0.28349 0.93476 0.62912 0.0
C5952 C 0.27759 0.93859 0.63708 0.0
H5953 H 0.2373 0.87193 0.57393 0.0
H5954 H 0.24803 0.89398 0.58813 0.0
C5955 C 0.28384 0.94955 0.6433 0.0
C5956 C 0.27688 0.92324 0.6224 0.0
H5957 H 0.27013 0.91076 0.59329 0.0
C5958 C 0.27139 0.91281 0.6293 0.0
C5959 C 0.27616 0.92251 0.60928 0.0
C5960 C 0.28141 0.93346 0.60143 0.0
C5961 C 0.26547 0.90161 0.62339 0.0
C5962 C 0.26524 0.90088 0.61025 0.0
C5963 C 0.2704 0.91133 0.60337 0.0
C5964 C 0.25987 0.88947 0.60337 0.0
C5965 C 0.25931 0.89075 0.63132 0.0
C5966 C 0.26445 0.87893 0.60703 0.0
C5967 C 0.25865 0.86522 0.59833 0.0
C5968 C 0.24618 0.86198 0.58758 0.0
C5969 C 0.24382 0.87378 0.58113 0.0
C5970 C 0.2501 0.8872 0.5904 0.0
H5971 H 0.25718 0.89289 0.64063 0.0
H5972 H 0.25099 0.88381 0.62683 0.0
H5973 H 0.26523 0.8871 0.63274 0.0
H5974 H 0.27091 0.88094 0.61433 0.0
H5975 H 0.26059 0.85845 0.60107 0.0
H5976 H 0.05311 0.34883 0.6599 0.0
H5977 H 0.07262 0.35795 0.65033 0.0
H5978 H 0.05869 0.33106 0.62134 0.0
H5979 H 0.03906 0.32207 0.63065 0.0
H5980 H 0.08696 0.34831 0.64529 0.0
H5981 H 0.0744 0.36218 0.60206 0.0
H5982 H 0.06522 0.35759 0.61568 0.0
H5983 H 0.06535 0.34671 0.60541 0.0
C5984 C 0.05417 0.34491 0.65143 0.0
C5985 C 0.04451 0.33477 0.64598 0.0
C5986 C 0.06534 0.35009 0.64602 0.0
C5987 C 0.06705 0.34529 0.63503 0.0
C5988 C 0.0575 0.33503 0.62971 0.0
H5989 H 0.13537 0.3623 0.60478 0.0
H5990 H 0.11548 0.35233 0.61359 0.0
C5991 C 0.04632 0.32983 0.63512 0.0
C5992 C 0.07887 0.35101 0.6292 0.0
H5993 H 0.09364 0.36476 0.60285 0.0
C5994 C 0.08844 0.35191 0.63601 0.0
C5995 C 0.08077 0.35584 0.61716 0.0
C5996 C 0.07093 0.35565 0.60967 0.0
C5997 C 0.09987 0.35741 0.63106 0.0
C5998 C 0.10172 0.36195 0.61889 0.0
C5999 C 0.09217 0.36116 0.61213 0.0
C6000 C 0.11356 0.3678 0.61311 0.0
C6001 C 0.10991 0.35853 0.63901 0.0
C6002 C 0.11893 0.3797 0.6096 0.0
C6003 C 0.13021 0.38536 0.60441 0.0
C6004 C 0.13628 0.37919 0.6025 0.0
C6005 C 0.13083 0.36723 0.60596 0.0
C6006 C 0.11954 0.36157 0.61111 0.0
H6007 H 0.10762 0.35741 0.64903 0.0
H6008 H 0.1119 0.35154 0.63618 0.0
H6009 H 0.11804 0.36729 0.6378 0.0
H6010 H 0.11447 0.38467 0.61108 0.0
H6011 H 0.13427 0.39462 0.60203 0.0
H6012 H 0.30008 0.35055 0.65689 0.0
H6013 H 0.28916 0.35928 0.64796 0.0
H6014 H 0.27195 0.32994 0.62187 0.0
H6015 H 0.28289 0.32109 0.6308 0.0
H6016 H 0.28014 0.35205 0.61099 0.0
H6017 H 0.25412 0.34755 0.65316 0.0
H6018 H 0.26976 0.35514 0.65616 0.0
H6019 H 0.26218 0.33984 0.65116 0.0
C6020 C 0.29386 0.34586 0.64936 0.0
C6021 C 0.29223 0.33504 0.64467 0.0
C6022 C 0.28764 0.35087 0.64425 0.0
C6023 C 0.27959 0.34515 0.63442 0.0
C6024 C 0.27809 0.33447 0.62952 0.0
H6025 H 0.22981 0.36803 0.61473 0.0
H6026 H 0.23846 0.35578 0.61955 0.0
C6027 C 0.28435 0.32944 0.63461 0.0
C6028 C 0.27284 0.35043 0.62925 0.0
H6029 H 0.25432 0.36046 0.63758 0.0
C6030 C 0.27439 0.35379 0.61674 0.0
C6031 C 0.2652 0.35251 0.63673 0.0
C6032 C 0.26261 0.34847 0.65001 0.0
C6033 C 0.26883 0.35958 0.61164 0.0
C6034 C 0.26172 0.36225 0.61933 0.0
C6035 C 0.25985 0.35851 0.63171 0.0
C6036 C 0.25634 0.36919 0.61492 0.0
C6037 C 0.27061 0.36274 0.59807 0.0
C6038 C 0.26349 0.38076 0.61058 0.0
C6039 C 0.25854 0.38773 0.6077 0.0
C6040 C 0.24637 0.3833 0.60926 0.0
C6041 C 0.2392 0.37164 0.61337 0.0
C6042 C 0.24414 0.36465 0.61615 0.0
H6043 H 0.273 0.35694 0.59273 0.0
H6044 H 0.26252 0.362 0.59383 0.0
H6045 H 0.27796 0.37202 0.59718 0.0
H6046 H 0.27297 0.38457 0.60985 0.0
H6047 H 0.26427 0.39673 0.60466 0.0
H6048 H 0.65149 0.95158 0.64835 0.0
H6049 H 0.64189 0.93139 0.63983 0.0
H6050 H 0.67191 0.94101 0.61632 0.0
H6051 H 0.68163 0.96131 0.62485 0.0
H6052 H 0.64992 0.92739 0.60399 0.0
H6053 H 0.65144 0.90692 0.64824 0.0
H6054 H 0.64465 0.91582 0.64965 0.0
H6055 H 0.66006 0.92269 0.64581 0.0
C6056 C 0.65612 0.94939 0.64147 0.0
C6057 C 0.66739 0.95802 0.63739 0.0
C6058 C 0.65061 0.93784 0.63659 0.0
C6059 C 0.65628 0.93466 0.62761 0.0
C6060 C 0.66741 0.94329 0.62329 0.0
H6061 H 0.63231 0.86069 0.61044 0.0
H6062 H 0.64457 0.88191 0.61519 0.0
C6063 C 0.67293 0.95488 0.62815 0.0
C6064 C 0.65055 0.92228 0.6228 0.0
H6065 H 0.6392 0.89375 0.6321 0.0
C6066 C 0.64765 0.92002 0.6101 0.0
C6067 C 0.64776 0.91271 0.63076 0.0
C6068 C 0.65123 0.91463 0.64435 0.0
C6069 C 0.6417 0.90839 0.60521 0.0
C6070 C 0.63842 0.89879 0.61329 0.0
C6071 C 0.64163 0.9011 0.62592 0.0
C6072 C 0.63151 0.88624 0.60899 0.0
C6073 C 0.63905 0.90649 0.59144 0.0
C6074 C 0.62014 0.88163 0.60379 0.0
C6075 C 0.61316 0.86952 0.60098 0.0
C6076 C 0.6174 0.86179 0.60342 0.0
C6077 C 0.62887 0.86646 0.60838 0.0
C6078 C 0.63585 0.87856 0.61111 0.0
H6079 H 0.64507 0.91455 0.58614 0.0
H6080 H 0.63987 0.89896 0.5878 0.0
H6081 H 0.62985 0.90445 0.58971 0.0
H6082 H 0.61648 0.88732 0.60235 0.0
H6083 H 0.6043 0.86612 0.5973 0.0
H6084 H 0.03442 0.71508 0.63274 0.0
H6085 H 0.05425 0.7256 0.62376 0.0
H6086 H 0.06598 0.7087 0.64968 0.0
H6087 H 0.04628 0.69833 0.65878 0.0
H6088 H 0.0812 0.7322 0.64873 0.0
H6089 H 0.07012 0.7131 0.60086 0.0
H6090 H 0.06184 0.71989 0.60581 0.0
H6091 H 0.0599 0.70694 0.61356 0.0
C6092 C 0.04122 0.71355 0.63644 0.0
C6093 C 0.03882 0.70593 0.64649 0.0
C6094 C 0.05252 0.71951 0.63126 0.0
C6095 C 0.06155 0.71781 0.63593 0.0
C6096 C 0.05914 0.71015 0.64593 0.0
H6097 H 0.1302 0.73748 0.60578 0.0
H6098 H 0.10932 0.7272 0.61177 0.0
C6099 C 0.0479 0.70428 0.65116 0.0
C6100 C 0.07369 0.72435 0.63084 0.0
H6101 H 0.08977 0.72899 0.60442 0.0
C6102 C 0.08307 0.73149 0.63904 0.0
C6103 C 0.07612 0.72331 0.61822 0.0
C6104 C 0.06649 0.71531 0.60911 0.0
C6105 C 0.09481 0.73764 0.63499 0.0
C6106 C 0.09722 0.73686 0.6223 0.0
C6107 C 0.08787 0.72968 0.6141 0.0
C6108 C 0.10947 0.74319 0.61754 0.0
C6109 C 0.10455 0.74466 0.64441 0.0
C6110 C 0.11635 0.75559 0.61846 0.0
C6111 C 0.12826 0.76144 0.61512 0.0
C6112 C 0.13345 0.75502 0.61063 0.0
C6113 C 0.1264 0.74264 0.60918 0.0
C6114 C 0.11449 0.73678 0.61259 0.0
H6115 H 0.10154 0.74188 0.65407 0.0
H6116 H 0.11234 0.74364 0.64264 0.0
H6117 H 0.10741 0.75419 0.64372 0.0
H6118 H 0.11258 0.76072 0.62203 0.0
H6119 H 0.13348 0.77098 0.61633 0.0
H6120 H 0.00047 0.63166 0.71718 0.0
H6121 H 0.0034 0.61654 0.72688 0.0
H6122 H 0.97203 0.58912 0.70829 0.0
H6123 H 0.96928 0.60418 0.69815 0.0
H6124 H 0.98863 0.59824 0.74249 0.0
H6125 H 0.99699 0.58063 0.69885 0.0
H6126 H 0.99712 0.59449 0.69956 0.0
H6127 H 0.98331 0.58067 0.69884 0.0
C6128 C 0.99427 0.62242 0.71502 0.0
C6129 C 0.9847 0.61914 0.70679 0.0
C6130 C 0.99591 0.61379 0.72066 0.0
C6131 C 0.98804 0.60172 0.71816 0.0
C6132 C 0.97833 0.59839 0.71016 0.0
H6133 H 0.98499 0.53703 0.74157 0.0
H6134 H 0.98056 0.55174 0.73334 0.0
C6135 C 0.9767 0.60701 0.70449 0.0
C6136 C 0.98999 0.59264 0.72396 0.0
H6137 H 0.99517 0.5701 0.71724 0.0
C6138 C 0.99009 0.5921 0.73698 0.0
C6139 C 0.99191 0.58466 0.71673 0.0
C6140 C 0.99245 0.58517 0.70273 0.0
C6141 C 0.99189 0.58367 0.74299 0.0
C6142 C 0.99379 0.5757 0.73576 0.0
C6143 C 0.99366 0.57621 0.72274 0.0
C6144 C 0.9961 0.56683 0.74147 0.0
C6145 C 0.99156 0.58323 0.757 0.0
C6146 C 0.00632 0.57045 0.74873 0.0
C6147 C 0.00885 0.56207 0.75346 0.0
C6148 C 0.00117 0.54991 0.75103 0.0
C6149 C 0.99094 0.54632 0.74376 0.0
C6150 C 0.98843 0.5547 0.73903 0.0
H6151 H 0.98714 0.58786 0.76097 0.0
H6152 H 0.98686 0.57393 0.7602 0.0
H6153 H 0.00074 0.58766 0.76073 0.0
H6154 H 0.0125 0.57979 0.75047 0.0
H6155 H 0.01693 0.56509 0.75879 0.0
H6156 H 0.37046 0.36959 0.72343 0.0
H6157 H 0.37962 0.38885 0.73419 0.0
H6158 H 0.38999 0.4065 0.699 0.0
H6159 H 0.38112 0.38725 0.68815 0.0
H6160 H 0.40776 0.41675 0.71801 0.0
H6161 H 0.36444 0.40982 0.7338 0.0
H6162 H 0.36726 0.3982 0.73788 0.0
H6163 H 0.36569 0.40076 0.72179 0.0
C6164 C 0.37488 0.37756 0.71798 0.0
C6165 C 0.37501 0.37689 0.70492 0.0
C6166 C 0.37998 0.38855 0.72414 0.0
C6167 C 0.38527 0.39906 0.71736 0.0
C6168 C 0.38585 0.39847 0.70438 0.0
H6169 H 0.41723 0.47384 0.7386 0.0
H6170 H 0.40972 0.45511 0.72691 0.0
C6171 C 0.38073 0.38747 0.6982 0.0
C6172 C 0.38991 0.41067 0.72381 0.0
H6173 H 0.38159 0.42673 0.74198 0.0
C6174 C 0.40205 0.41898 0.7232 0.0
C6175 C 0.38241 0.41354 0.73051 0.0
C6176 C 0.36921 0.40517 0.73097 0.0
C6177 C 0.40695 0.43 0.72943 0.0
C6178 C 0.39945 0.43279 0.73626 0.0
C6179 C 0.3873 0.42452 0.73676 0.0
C6180 C 0.40406 0.44414 0.74322 0.0
C6181 C 0.42013 0.43843 0.72894 0.0
C6182 C 0.40311 0.44411 0.7562 0.0
C6183 C 0.40736 0.45475 0.76287 0.0
C6184 C 0.41261 0.46563 0.75666 0.0
C6185 C 0.41336 0.46561 0.74363 0.0
C6186 C 0.40912 0.45494 0.73696 0.0
H6187 H 0.42492 0.43397 0.72557 0.0
H6188 H 0.42196 0.4457 0.72248 0.0
H6189 H 0.42369 0.44246 0.73826 0.0
H6190 H 0.39915 0.43585 0.76118 0.0
H6191 H 0.4066 0.45451 0.7729 0.0
H6192 H 0.62753 0.01362 0.68317 0.0
H6193 H 0.61 0.0104 0.69447 0.0
H6194 H 0.62729 0.0121 0.72925 0.0
H6195 H 0.64485 0.0153 0.71803 0.0
H6196 H 0.596 0.99199 0.71029 0.0
H6197 H 0.61573 0.03557 0.73493 0.0
H6198 H 0.6228 0.0329 0.72193 0.0
H6199 H 0.62361 0.02781 0.73714 0.0
C6200 C 0.6276 0.01329 0.69322 0.0
C6201 C 0.63759 0.01476 0.69971 0.0
C6202 C 0.6176 0.0115 0.69966 0.0
C6203 C 0.61742 0.01117 0.71269 0.0
C6204 C 0.62735 0.01259 0.71921 0.0
H6205 H 0.55343 0.98232 0.7572 0.0
H6206 H 0.57206 0.98633 0.74769 0.0
C6207 C 0.63737 0.01442 0.71278 0.0
C6208 C 0.60666 0.00896 0.71941 0.0
H6209 H 0.59631 0.021 0.7407 0.0
C6210 C 0.59605 0.99832 0.71694 0.0
C6211 C 0.60677 0.0173 0.72799 0.0
C6212 C 0.6178 0.02909 0.7306 0.0
C6213 C 0.58552 0.99577 0.72286 0.0
C6214 C 0.58567 0.004 0.73164 0.0
C6215 C 0.59627 0.01466 0.73406 0.0
C6216 C 0.5748 0.0019 0.738 0.0
C6217 C 0.57427 0.98442 0.71946 0.0
C6218 C 0.57039 0.00952 0.73597 0.0
C6219 C 0.55984 0.00731 0.74146 0.0
C6220 C 0.5536 0.99752 0.7492 0.0
C6221 C 0.55814 0.99 0.75139 0.0
C6222 C 0.56871 0.99222 0.74589 0.0
H6223 H 0.5751 0.98048 0.71058 0.0
H6224 H 0.57219 0.97787 0.72689 0.0
H6225 H 0.56672 0.98598 0.71859 0.0
H6226 H 0.57497 0.01702 0.7299 0.0
H6227 H 0.55646 0.01315 0.7395 0.0
loop_
_geom_bond_atom_site_label_1
_geom_bond_atom_site_label_2
_geom_bond_distance
_geom_bond_site_symmetry_2
_ccdc_geom_bond_type
Li0 N17 1.990 1_554 S
Li0 O60 1.971 . S
Li0 O61 1.970 1_654 S
Li0 O62 1.961 . S
Li1 N25 1.990 . S
Li1 O60 1.937 1_455 S
Li1 O61 1.956 1_554 S
Li1 O63 1.961 . S
Li2 N47 1.990 . S
Li2 O60 1.985 . S
Li2 O62 1.959 . S
Li2 O63 1.970 1_655 S
Li3 N53 1.990 . S
Li3 O61 1.961 . S
Li3 O62 1.970 1_456 S
Li3 O63 1.956 1_556 S
C4 C6 1.263 1_655 S
C4 C7 1.356 . S
C4 O60 1.326 . S
N5 C8 1.314 . S
N5 C9 1.279 . S
C6 C4 1.263 1_455 S
C6 C8 1.350 1_455 S
C6 H64 1.023 . S
C7 C4 1.356 . S
C7 C9 1.358 . S
C7 H65 0.930 . S
C8 N5 1.314 . S
C8 C6 1.350 1_655 S
C8 H66 0.880 1_655 S
C9 N5 1.279 . S
C9 C7 1.358 . S
C9 H67 0.930 . S
C10 C13 1.348 . S
C10 C14 1.356 . S
C10 O61 1.325 . S
C11 N12 1.279 . S
C11 C14 1.358 . S
C11 H68 0.930 . S
N12 C11 1.279 . S
N12 C15 1.314 . S
C13 C10 1.348 . S
C13 C15 1.353 . S
C13 H69 0.984 . S
C14 C10 1.356 . S
C14 C11 1.358 . S
C14 H70 0.930 . S
C15 N12 1.314 . S
C15 C13 1.353 . S
C15 H71 0.930 . S
C16 N17 1.314 . S
C16 C21 1.353 . S
C16 H22 0.930 . S
N17 Li0 1.990 1_556 S
N17 C16 1.314 . S
N17 C19 1.279 1_556 S
C18 C19 1.358 1_556 S
C18 C20 1.356 . S
C18 H72 0.930 1_556 S
C19 N17 1.279 1_554 S
C19 C18 1.358 1_554 S
C19 H23 0.930 . S
C20 C18 1.356 . S
C20 C21 1.348 . S
C21 C16 1.353 . S
C21 C20 1.348 . S
C21 H73 0.929 . S
H22 C16 0.930 . S
H23 C19 0.930 . S
C24 N25 1.314 . S
C24 C26 1.353 . S
C24 H30 0.930 . S
N25 Li1 1.990 . S
N25 C24 1.314 . S
N25 C28 1.279 . S
C26 C24 1.353 . S
C26 C29 1.348 . S
C26 H74 0.929 . S
C27 C28 1.358 . S
C27 C29 1.356 . S
C27 H75 0.930 . S
C28 N25 1.279 . S
C28 C27 1.358 . S
C28 H31 0.930 . S
C29 C26 1.348 . S
C29 C27 1.356 . S
H30 C24 0.930 . S
H31 C28 0.930 . S
C32 C34 1.348 . S
C32 C35 1.354 . S
C32 O62 1.324 1_556 S
N33 C36 1.314 . S
N33 C37 1.279 . S
C34 C32 1.348 . S
C34 C36 1.353 . S
C34 H76 0.929 . S
C35 C32 1.354 . S
C35 C37 1.356 . S
C35 H77 0.934 1_556 S
C36 N33 1.314 . S
C36 C34 1.353 . S
C36 H78 0.930 . S
C37 N33 1.279 . S
C37 C35 1.356 . S
C37 H79 0.930 . S
C38 C39 1.348 . S
C38 C40 1.356 . S
C38 O63 1.325 . S
C39 C38 1.348 . S
C39 C41 1.353 . S
C39 H80 0.929 . S
C40 C38 1.356 . S
C40 C42 1.358 . S
C40 H81 0.930 . S
C41 C39 1.353 . S
C41 N43 1.314 . S
C41 H82 0.930 . S
C42 C40 1.358 . S
C42 N43 1.279 . S
C42 H83 0.930 . S
N43 C41 1.314 . S
N43 C42 1.279 . S
C44 C46 1.353 . S
C44 N47 1.314 . S
C44 H50 0.953 . S
C45 N47 1.279 . S
C45 C48 1.358 . S
C45 H51 0.930 . S
C46 C44 1.353 . S
C46 C49 1.348 . S
C46 H84 0.929 . S
N47 Li2 1.990 . S
N47 C44 1.314 . S
N47 C45 1.279 . S
C48 C45 1.358 . S
C48 C49 1.356 . S
C48 H85 0.930 . S
C49 C46 1.348 . S
C49 C48 1.356 . S
H50 C44 0.953 . S
H51 C45 0.930 . S
C52 N53 1.314 . S
C52 C54 1.353 . S
C52 H58 0.930 . S
N53 Li3 1.990 . S
N53 C52 1.314 . S
N53 C56 1.279 . S
C54 C52 1.353 . S
C54 C57 1.348 . S
C54 H86 0.929 . S
C55 C56 1.358 . S
C55 C57 1.356 . S
C55 H87 0.930 . S
C56 N53 1.279 . S
C56 C55 1.358 . S
C56 H59 0.930 . S
C57 C54 1.348 . S
C57 C55 1.356 . S
H58 C52 0.930 . S
H59 C56 0.930 . S
O60 Li0 1.971 . S
O60 Li1 1.937 1_655 S
O60 Li2 1.985 . S
O60 C4 1.326 . S
O61 Li0 1.970 1_456 S
O61 Li1 1.956 1_556 S
O61 Li3 1.961 . S
O61 C10 1.325 . S
O62 Li0 1.961 . S
O62 Li2 1.959 . S
O62 Li3 1.970 1_654 S
O62 C32 1.324 1_554 S
O63 Li1 1.961 . S
O63 Li2 1.970 1_455 S
O63 Li3 1.956 1_554 S
O63 C38 1.325 . S
H64 C6 1.023 . S
H65 C7 0.930 . S
H66 C8 0.880 1_455 S
H67 C9 0.930 . S
H68 C11 0.930 . S
H69 C13 0.984 . S
H70 C14 0.930 . S
H71 C15 0.930 . S
H72 C18 0.930 1_554 S
H73 C21 0.929 . S
H74 C26 0.929 . S
H75 C27 0.930 . S
H76 C34 0.929 . S
H77 C35 0.934 1_554 S
H78 C36 0.930 . S
H79 C37 0.930 . S
H80 C39 0.929 . S
H81 C40 0.930 . S
H82 C41 0.930 . S
H83 C42 0.930 . S
H84 C46 0.929 . S
H85 C48 0.930 . S
H86 C54 0.929 . S
H87 C55 0.930 . S
Li88 N105 1.990 . S
Li88 O148 1.956 . S
Li88 O149 1.970 . S
Li88 O150 1.961 . S
Li89 N113 1.990 . S
Li89 O148 1.970 . S
Li89 O149 1.956 . S
Li89 O151 1.961 . S
Li90 N135 1.990 . S
Li90 O148 1.961 . S
Li90 O150 1.956 . S
Li90 O151 1.970 . S
Li91 N141 1.990 1_554 S
Li91 O149 1.961 . S
Li91 O150 1.970 . S
Li91 O151 1.956 . S
C92 C94 1.348 . S
C92 C95 1.356 . S
C92 O148 1.325 . S
N93 C96 1.314 . S
N93 C97 1.279 . S
C94 C92 1.348 . S
C94 C96 1.353 . S
C94 H152 0.929 . S
C95 C92 1.356 . S
C95 C97 1.358 . S
C95 H153 0.930 . S
C96 N93 1.314 . S
C96 C94 1.353 . S
C96 H154 0.930 . S
C97 N93 1.279 . S
C97 C95 1.358 . S
C97 H155 0.930 . S
C98 C101 1.348 . S
C98 C102 1.356 . S
C98 O149 1.325 1_556 S
C99 N100 1.279 . S
C99 C102 1.358 . S
C99 H156 0.930 . S
N100 C99 1.279 . S
N100 C103 1.314 . S
C101 C98 1.348 . S
C101 C103 1.353 . S
C101 H157 0.929 . S
C102 C98 1.356 . S
C102 C99 1.358 . S
C102 H158 0.930 . S
C103 N100 1.314 . S
C103 C101 1.353 . S
C103 H159 0.930 . S
C104 N105 1.314 1_556 S
C104 C109 1.353 . S
C104 H110 0.930 . S
N105 Li88 1.990 . S
N105 C104 1.314 1_554 S
N105 C107 1.279 . S
C106 C107 1.392 . S
C106 C108 1.286 1_554 S
C106 H160 0.970 . S
C107 N105 1.279 . S
C107 C106 1.392 . S
C107 H111 0.930 . S
C108 C106 1.286 1_556 S
C108 C109 1.348 . S
C109 C104 1.353 . S
C109 C108 1.348 . S
C109 H161 0.929 . S
H110 C104 0.930 . S
H111 C107 0.930 . S
C112 N113 1.314 . S
C112 C114 1.353 . S
C112 H118 0.930 . S
N113 Li89 1.990 . S
N113 C112 1.314 . S
N113 C116 1.279 . S
C114 C112 1.353 . S
C114 C117 1.348 . S
C114 H162 0.929 . S
C115 C116 1.358 . S
C115 C117 1.356 . S
C115 H163 0.930 . S
C116 N113 1.279 . S
C116 C115 1.358 . S
C116 H119 0.930 . S
C117 C114 1.348 . S
C117 C115 1.356 . S
H118 C112 0.930 . S
H119 C116 0.930 . S
C120 C122 1.348 1_554 S
C120 C123 1.356 . S
C120 O150 1.325 . S
N121 C124 1.314 . S
N121 C125 1.279 . S
C122 C120 1.348 1_556 S
C122 C124 1.353 . S
C122 H164 0.929 . S
C123 C120 1.356 . S
C123 C125 1.358 1_554 S
C123 H165 0.930 . S
C124 N121 1.314 . S
C124 C122 1.353 . S
C124 H166 0.930 . S
C125 N121 1.279 . S
C125 C123 1.358 1_556 S
C125 H167 0.942 . S
C126 C127 1.348 . S
C126 C128 1.356 . S
C126 O151 1.325 . S
C127 C126 1.348 . S
C127 C129 1.353 . S
C127 H168 0.929 . S
C128 C126 1.356 . S
C128 C130 1.358 . S
C128 H169 0.930 . S
C129 C127 1.353 . S
C129 N131 1.314 . S
C129 H170 0.930 . S
C130 C128 1.358 . S
C130 N131 1.279 . S
C130 H171 0.930 . S
N131 C129 1.314 . S
N131 C130 1.279 . S
C132 C134 1.353 . S
C132 N135 1.314 . S
C132 H138 0.930 . S
C133 N135 1.279 . S
C133 C136 1.358 . S
C133 H139 0.930 . S
C134 C132 1.353 . S
C134 C137 1.348 . S
C134 H172 0.929 . S
N135 Li90 1.990 . S
N135 C132 1.314 . S
N135 C133 1.279 . S
C136 C133 1.358 . S
C136 C137 1.356 . S
C136 H173 0.930 . S
C137 C134 1.348 . S
C137 C136 1.356 . S
H138 C132 0.930 . S
H139 C133 0.930 . S
C140 N141 1.314 . S
C140 C142 1.353 . S
C140 H146 0.930 . S
N141 Li91 1.990 1_556 S
N141 C140 1.314 . S
N141 C144 1.279 . S
C142 C140 1.353 . S
C142 C145 1.348 . S
C142 H174 0.929 . S
C143 C144 1.358 . S
C143 C145 1.356 . S
C143 H175 0.930 . S
C144 N141 1.279 . S
C144 C143 1.358 . S
C144 H147 0.930 1_556 S
C145 C142 1.348 . S
C145 C143 1.356 . S
H146 C140 0.930 . S
H147 C144 0.930 1_554 S
O148 Li88 1.956 . S
O148 Li89 1.970 . S
O148 Li90 1.961 . S
O148 C92 1.325 . S
O149 Li88 1.970 . S
O149 Li89 1.956 . S
O149 Li91 1.961 . S
O149 C98 1.325 1_554 S
O150 Li88 1.961 . S
O150 Li90 1.956 . S
O150 Li91 1.970 . S
O150 C120 1.325 . S
O151 Li89 1.961 . S
O151 Li90 1.970 . S
O151 Li91 1.956 . S
O151 C126 1.325 . S
H152 C94 0.929 . S
H153 C95 0.930 . S
H154 C96 0.930 . S
H155 C97 0.930 . S
H156 C99 0.930 . S
H157 C101 0.929 . S
H158 C102 0.930 . S
H159 C103 0.930 . S
H160 C106 0.970 . S
H161 C109 0.929 . S
H162 C114 0.929 . S
H163 C115 0.930 . S
H164 C122 0.929 . S
H165 C123 0.930 . S
H166 C124 0.930 . S
H167 C125 0.942 . S
H168 C127 0.929 . S
H169 C128 0.930 . S
H170 C129 0.930 . S
H171 C130 0.930 . S
H172 C134 0.929 . S
H173 C136 0.930 . S
H174 C142 0.929 . S
H175 C143 0.930 . S
Li176 N193 1.990 . S
Li176 O236 1.956 1_556 S
Li176 O237 1.970 1_566 S
Li176 O238 1.961 . S
Li177 N201 1.990 . S
Li177 O236 1.970 1_545 S
Li177 O237 1.956 . S
Li177 O239 1.961 . S
Li178 N223 1.990 . S
Li178 O236 1.961 . S
Li178 O238 1.956 1_554 S
Li178 O239 1.970 1_565 S
Li179 N229 1.990 1_554 S
Li179 O237 1.961 . S
Li179 O238 1.970 1_544 S
Li179 O239 1.956 . S
C180 C182 1.348 . S
C180 C183 1.356 . S
C180 O236 1.325 . S
N181 C184 1.314 . S
N181 C185 1.279 . S
C182 C180 1.348 . S
C182 C184 1.353 . S
C182 H240 0.929 . S
C183 C180 1.356 . S
C183 C185 1.358 . S
C183 H241 0.930 . S
C184 N181 1.314 . S
C184 C182 1.353 . S
C184 H242 0.930 . S
C185 N181 1.279 . S
C185 C183 1.358 . S
C185 H243 0.930 . S
C186 C189 1.348 . S
C186 C190 1.356 1_556 S
C186 O237 1.325 1_556 S
C187 N188 1.279 . S
C187 C190 1.358 1_556 S
C187 H244 0.929 1_556 S
N188 C187 1.279 . S
N188 C191 1.314 . S
C189 C186 1.348 . S
C189 C191 1.353 . S
C189 H245 0.929 . S
C190 C186 1.356 1_554 S
C190 C187 1.358 1_554 S
C190 H246 0.930 . S
C191 N188 1.314 . S
C191 C189 1.353 . S
C191 H247 0.930 . S
C192 N193 1.314 . S
C192 C197 1.353 . S
C192 H198 0.930 . S
N193 Li176 1.990 . S
N193 C192 1.314 . S
N193 C195 1.279 . S
C194 C195 1.358 . S
C194 C196 1.356 . S
C194 H248 0.930 . S
C195 N193 1.279 . S
C195 C194 1.358 . S
C195 H199 0.930 . S
C196 C194 1.356 . S
C196 C197 1.348 . S
C197 C192 1.353 . S
C197 C196 1.348 . S
C197 H249 0.929 . S
H198 C192 0.930 . S
H199 C195 0.930 . S
C200 N201 1.314 . S
C200 C202 1.353 . S
C200 H206 0.930 . S
N201 Li177 1.990 . S
N201 C200 1.314 . S
N201 C204 1.279 . S
C202 C200 1.353 . S
C202 C205 1.348 . S
C202 H250 0.929 . S
C203 C204 1.358 . S
C203 C205 1.356 . S
C203 H251 0.930 . S
C204 N201 1.279 . S
C204 C203 1.358 . S
C204 H207 0.930 . S
C205 C202 1.348 . S
C205 C203 1.356 . S
H206 C200 0.930 . S
H207 C204 0.930 . S
C208 C210 1.348 . S
C208 C211 1.356 . S
C208 O238 1.325 . S
N209 C212 1.314 . S
N209 C213 1.279 . S
C210 C208 1.348 . S
C210 C212 1.353 . S
C210 H252 0.929 1_565 S
C211 C208 1.356 . S
C211 C213 1.358 . S
C211 H253 0.930 . S
C212 N209 1.314 . S
C212 C210 1.353 . S
C212 H254 0.930 . S
C213 N209 1.279 . S
C213 C211 1.358 . S
C213 H255 0.930 . S
C214 C215 1.348 . S
C214 C216 1.356 . S
C214 O239 1.325 . S
C215 C214 1.348 . S
C215 C217 1.353 . S
C215 H256 0.929 1_545 S
C216 C214 1.356 . S
C216 C218 1.358 . S
C216 H257 0.930 . S
C217 C215 1.353 . S
C217 N219 1.314 . S
C217 H258 0.930 . S
C218 C216 1.358 . S
C218 N219 1.279 . S
C218 H259 0.930 . S
N219 C217 1.314 . S
N219 C218 1.279 . S
C220 C222 1.353 . S
C220 N223 1.314 . S
C220 H226 0.930 . S
C221 N223 1.279 . S
C221 C224 1.358 . S
C221 H227 0.930 . S
C222 C220 1.353 . S
C222 C225 1.348 . S
C222 H260 0.929 . S
N223 Li178 1.990 . S
N223 C220 1.314 . S
N223 C221 1.279 . S
C224 C221 1.358 . S
C224 C225 1.356 . S
C224 H261 0.930 . S
C225 C222 1.348 . S
C225 C224 1.356 . S
H226 C220 0.930 . S
H227 C221 0.930 . S
C228 N229 1.314 . S
C228 C230 1.353 . S
C228 H234 0.930 . S
N229 Li179 1.990 1_556 S
N229 C228 1.314 . S
N229 C232 1.279 1_556 S
C230 C228 1.353 . S
C230 C233 1.348 . S
C230 H262 0.929 . S
C231 C232 1.358 1_556 S
C231 C233 1.356 . S
C231 H263 0.930 1_556 S
C232 N229 1.279 1_554 S
C232 C231 1.358 1_554 S
C232 H235 0.930 . S
C233 C230 1.348 . S
C233 C231 1.356 . S
H234 C228 0.930 . S
H235 C232 0.930 . S
O236 Li176 1.956 1_554 S
O236 Li177 1.970 1_565 S
O236 Li178 1.961 . S
O236 C180 1.325 . S
O237 Li176 1.970 1_544 S
O237 Li177 1.956 . S
O237 Li179 1.961 . S
O237 C186 1.325 1_554 S
O238 Li176 1.961 . S
O238 Li178 1.956 1_556 S
O238 Li179 1.970 1_566 S
O238 C208 1.325 . S
O239 Li177 1.961 . S
O239 Li178 1.970 1_545 S
O239 Li179 1.956 . S
O239 C214 1.325 . S
H240 C182 0.929 . S
H241 C183 0.930 . S
H242 C184 0.930 . S
H243 C185 0.930 . S
H244 C187 0.929 1_554 S
H245 C189 0.929 . S
H246 C190 0.930 . S
H247 C191 0.930 . S
H248 C194 0.930 . S
H249 C197 0.929 . S
H250 C202 0.929 . S
H251 C203 0.930 . S
H252 C210 0.929 1_545 S
H253 C211 0.930 . S
H254 C212 0.930 . S
H255 C213 0.930 . S
H256 C215 0.929 1_565 S
H257 C216 0.930 . S
H258 C217 0.930 . S
H259 C218 0.930 . S
H260 C222 0.929 . S
H261 C224 0.930 . S
H262 C230 0.929 . S
H263 C231 0.930 1_554 S
Li264 N281 1.990 . S
Li264 O324 1.956 . S
Li264 O325 1.970 1_455 S
Li264 O326 1.961 1_554 S
Li265 N289 1.990 . S
Li265 O324 1.970 1_655 S
Li265 O325 1.956 . S
Li265 O327 1.961 . S
Li266 N311 2.052 . S
Li266 O324 1.885 1_556 S
Li266 O326 1.960 . S
Li266 O327 1.944 1_456 S
Li267 N317 1.995 . S
Li267 O325 1.961 . S
Li267 O326 1.970 1_654 S
Li267 O327 1.956 . S
C268 C270 1.348 . S
C268 C271 1.356 . S
C268 O324 1.325 . S
N269 C272 1.314 . S
N269 C273 1.279 . S
C270 C268 1.348 . S
C270 C272 1.353 . S
C270 H328 0.929 . S
C271 C268 1.356 . S
C271 C273 1.358 . S
C271 H329 0.930 . S
C272 N269 1.314 . S
C272 C270 1.353 . S
C272 H330 0.930 . S
C273 N269 1.279 . S
C273 C271 1.358 . S
C273 H331 0.930 . S
C274 C277 1.348 . S
C274 C278 1.356 . S
C274 O325 1.325 . S
C275 N276 1.279 . S
C275 C278 1.358 . S
C275 H332 0.930 . S
N276 C275 1.279 . S
N276 C279 1.314 . S
C277 C274 1.348 . S
C277 C279 1.353 . S
C277 H333 0.929 1_655 S
C278 C274 1.356 . S
C278 C275 1.358 . S
C278 H334 0.930 . S
C279 N276 1.314 . S
C279 C277 1.353 . S
C279 H335 0.972 . S
C280 N281 1.314 . S
C280 C285 1.353 . S
C280 H286 0.930 . S
N281 Li264 1.990 . S
N281 C280 1.314 . S
N281 C283 1.279 . S
C282 C283 1.358 . S
C282 C284 1.356 . S
C282 H336 0.930 . S
C283 N281 1.279 . S
C283 C282 1.358 . S
C283 H287 0.930 . S
C284 C282 1.356 . S
C284 C285 1.348 . S
C285 C280 1.353 . S
C285 C284 1.348 . S
C285 H337 0.929 . S
H286 C280 0.930 . S
H287 C283 0.930 . S
C288 N289 1.314 . S
C288 C290 1.353 . S
C288 H294 0.930 . S
N289 Li265 1.990 . S
N289 C288 1.314 . S
N289 C292 1.279 . S
C290 C288 1.353 . S
C290 C293 1.348 . S
C290 H338 0.929 . S
C291 C292 1.358 . S
C291 C293 1.356 . S
C291 H339 0.930 . S
C292 N289 1.279 . S
C292 C291 1.358 . S
C292 H295 0.930 . S
C293 C290 1.348 . S
C293 C291 1.356 . S
H294 C288 0.930 . S
H295 C292 0.930 . S
C296 C298 1.348 . S
C296 C299 1.356 . S
C296 O326 1.325 . S
N297 C300 1.314 . S
N297 C301 1.279 . S
C298 C296 1.348 . S
C298 C300 1.353 . S
C298 H340 0.929 1_455 S
C299 C296 1.356 . S
C299 C301 1.358 . S
C299 H341 0.930 . S
C300 N297 1.314 . S
C300 C298 1.353 . S
C300 H342 0.930 . S
C301 N297 1.279 . S
C301 C299 1.358 . S
C301 H343 0.930 . S
C302 C303 1.348 1_554 S
C302 C304 1.356 . S
C302 O327 1.325 . S
C303 C302 1.348 1_556 S
C303 C305 1.353 . S
C303 H344 0.929 . S
C304 C302 1.356 . S
C304 C306 1.358 . S
C304 H345 0.930 . S
C305 C303 1.353 . S
C305 N307 1.314 . S
C305 H346 0.930 . S
C306 C304 1.358 . S
C306 N307 1.279 1_554 S
C306 H347 0.930 . S
N307 C305 1.314 . S
N307 C306 1.279 1_556 S
C308 C310 1.353 . S
C308 N311 1.314 . S
C308 H314 0.930 . S
C309 N311 1.279 . S
C309 C312 1.358 . S
C309 H315 0.930 . S
C310 C308 1.353 . S
C310 C313 1.348 . S
C310 H348 0.929 . S
N311 Li266 2.052 . S
N311 C308 1.314 . S
N311 C309 1.279 . S
C312 C309 1.358 . S
C312 C313 1.356 . S
C312 H349 0.930 . S
C313 C310 1.348 . S
C313 C312 1.356 . S
H314 C308 0.930 . S
H315 C309 0.930 . S
C316 N317 1.318 . S
C316 C318 1.327 1_554 S
C316 H322 0.930 . S
N317 Li267 1.995 . S
N317 C316 1.318 . S
N317 C320 1.270 1_554 S
C318 C316 1.327 1_556 S
C318 C321 1.409 . S
C318 H350 0.904 1_556 S
C319 C320 1.358 . S
C319 C321 1.356 . S
C319 H351 0.930 . S
C320 N317 1.270 1_556 S
C320 C319 1.358 . S
C320 H323 0.930 . S
C321 C318 1.409 . S
C321 C319 1.356 . S
H322 C316 0.930 . S
H323 C320 0.930 . S
O324 Li264 1.956 . S
O324 Li265 1.970 1_455 S
O324 Li266 1.885 1_554 S
O324 C268 1.325 . S
O325 Li264 1.970 1_655 S
O325 Li265 1.956 . S
O325 Li267 1.961 . S
O325 C274 1.325 . S
O326 Li264 1.961 1_556 S
O326 Li266 1.960 . S
O326 Li267 1.970 1_456 S
O326 C296 1.325 . S
O327 Li265 1.961 . S
O327 Li266 1.944 1_654 S
O327 Li267 1.956 . S
O327 C302 1.325 . S
H328 C270 0.929 . S
H329 C271 0.930 . S
H330 C272 0.930 . S
H331 C273 0.930 . S
H332 C275 0.930 . S
H333 C277 0.929 1_455 S
H334 C278 0.930 . S
H335 C279 0.972 . S
H336 C282 0.930 . S
H337 C285 0.929 . S
H338 C290 0.929 . S
H339 C291 0.930 . S
H340 C298 0.929 1_655 S
H341 C299 0.930 . S
H342 C300 0.930 . S
H343 C301 0.930 . S
H344 C303 0.929 . S
H345 C304 0.930 . S
H346 C305 0.930 . S
H347 C306 0.930 . S
H348 C310 0.929 . S
H349 C312 0.930 . S
H350 C318 0.904 1_554 S
H351 C319 0.930 . S
Li352 N369 1.990 . S
Li352 O412 1.956 . S
Li352 O413 1.970 . S
Li352 O414 1.961 1_554 S
Li353 N377 1.990 . S
Li353 O412 1.970 . S
Li353 O413 1.956 . S
Li353 O415 1.961 1_554 S
Li354 N399 1.990 . S
Li354 O412 1.961 1_556 S
Li354 O414 1.956 . S
Li354 O415 1.970 . S
Li355 N405 1.990 . S
Li355 O413 1.961 1_556 S
Li355 O414 1.970 . S
Li355 O415 1.956 . S
C356 C358 1.348 . S
C356 C359 1.356 . S
C356 O412 1.325 . S
N357 C360 1.314 . S
N357 C361 1.279 . S
C358 C356 1.348 . S
C358 C360 1.353 . S
C358 H416 0.929 . S
C359 C356 1.356 . S
C359 C361 1.358 . S
C359 H417 0.930 . S
C360 N357 1.314 . S
C360 C358 1.353 . S
C360 H418 0.930 . S
C361 N357 1.279 . S
C361 C359 1.358 . S
C361 H419 0.930 . S
C362 C365 1.348 . S
C362 C366 1.356 . S
C362 O413 1.325 . S
C363 N364 1.279 . S
C363 C366 1.358 . S
C363 H420 0.930 . S
N364 C363 1.279 . S
N364 C367 1.314 . S
C365 C362 1.348 . S
C365 C367 1.353 . S
C365 H421 0.929 . S
C366 C362 1.356 . S
C366 C363 1.358 . S
C366 H422 0.930 . S
C367 N364 1.314 . S
C367 C365 1.353 . S
C367 H423 0.930 . S
C368 N369 1.314 . S
C368 C373 1.353 . S
C368 H374 0.930 . S
N369 Li352 1.990 . S
N369 C368 1.314 . S
N369 C371 1.279 . S
C370 C371 1.358 . S
C370 C372 1.356 . S
C370 H424 0.930 . S
C371 N369 1.279 . S
C371 C370 1.358 . S
C371 H375 0.930 . S
C372 C370 1.356 . S
C372 C373 1.348 . S
C373 C368 1.353 . S
C373 C372 1.348 . S
C373 H425 0.929 . S
H374 C368 0.930 . S
H375 C371 0.930 . S
C376 N377 1.314 . S
C376 C378 1.353 . S
C376 H382 0.930 . S
N377 Li353 1.990 . S
N377 C376 1.314 . S
N377 C380 1.279 . S
C378 C376 1.353 . S
C378 C381 1.348 . S
C378 H426 0.929 . S
C379 C380 1.358 . S
C379 C381 1.356 . S
C379 H427 0.930 . S
C380 N377 1.279 . S
C380 C379 1.358 . S
C380 H383 0.930 . S
C381 C378 1.348 . S
C381 C379 1.356 . S
H382 C376 0.930 . S
H383 C380 0.930 . S
C384 C386 1.348 . S
C384 C387 1.356 . S
C384 O414 1.325 . S
N385 C388 1.314 . S
N385 C389 1.279 . S
C386 C384 1.348 . S
C386 C388 1.353 . S
C386 H428 0.929 . S
C387 C384 1.356 . S
C387 C389 1.358 . S
C387 H429 0.930 . S
C388 N385 1.314 . S
C388 C386 1.353 . S
C388 H430 0.930 . S
C389 N385 1.279 . S
C389 C387 1.358 . S
C389 H431 0.930 . S
C390 C391 1.348 . S
C390 C392 1.356 . S
C390 O415 1.325 . S
C391 C390 1.348 . S
C391 C393 1.353 . S
C391 H432 0.929 . S
C392 C390 1.356 . S
C392 C394 1.358 . S
C392 H433 0.930 1_556 S
C393 C391 1.353 . S
C393 N395 1.314 . S
C393 H434 0.930 . S
C394 C392 1.358 . S
C394 N395 1.279 . S
C394 H435 0.930 . S
N395 C393 1.314 . S
N395 C394 1.279 . S
C396 C398 1.353 . S
C396 N399 1.314 . S
C396 H402 0.930 . S
C397 N399 1.279 . S
C397 C400 1.358 . S
C397 H403 0.930 . S
C398 C396 1.353 . S
C398 C401 1.348 . S
C398 H436 0.929 . S
N399 Li354 1.990 . S
N399 C396 1.314 . S
N399 C397 1.279 . S
C400 C397 1.358 . S
C400 C401 1.356 . S
C400 H437 0.930 . S
C401 C398 1.348 . S
C401 C400 1.356 . S
H402 C396 0.930 . S
H403 C397 0.930 . S
C404 N405 1.314 . S
C404 C406 1.353 . S
C404 H410 0.930 . S
N405 Li355 1.990 . S
N405 C404 1.314 . S
N405 C408 1.279 . S
C406 C404 1.353 . S
C406 C409 1.348 . S
C406 H438 0.929 . S
C407 C408 1.358 . S
C407 C409 1.356 . S
C407 H439 0.930 . S
C408 N405 1.279 . S
C408 C407 1.358 . S
C408 H411 0.930 . S
C409 C406 1.348 . S
C409 C407 1.356 . S
H410 C404 0.930 . S
H411 C408 0.930 . S
O412 Li352 1.956 . S
O412 Li353 1.970 . S
O412 Li354 1.961 1_554 S
O412 C356 1.325 . S
O413 Li352 1.970 . S
O413 Li353 1.956 . S
O413 Li355 1.961 1_554 S
O413 C362 1.325 . S
O414 Li352 1.961 1_556 S
O414 Li354 1.956 . S
O414 Li355 1.970 . S
O414 C384 1.325 . S
O415 Li353 1.961 1_556 S
O415 Li354 1.970 . S
O415 Li355 1.956 . S
O415 C390 1.325 . S
H416 C358 0.929 . S
H417 C359 0.930 . S
H418 C360 0.930 . S
H419 C361 0.930 . S
H420 C363 0.930 . S
H421 C365 0.929 . S
H422 C366 0.930 . S
H423 C367 0.930 . S
H424 C370 0.930 . S
H425 C373 0.929 . S
H426 C378 0.929 . S
H427 C379 0.930 . S
H428 C386 0.929 . S
H429 C387 0.930 . S
H430 C388 0.930 . S
H431 C389 0.930 . S
H432 C391 0.929 . S
H433 C392 0.930 1_554 S
H434 C393 0.930 . S
H435 C394 0.930 . S
H436 C398 0.929 . S
H437 C400 0.930 . S
H438 C406 0.929 . S
H439 C407 0.930 . S
Li440 N457 1.990 . S
Li440 O500 1.956 . S
Li440 O501 1.970 1_565 S
Li440 O502 1.961 1_554 S
Li441 N465 1.990 . S
Li441 O500 1.970 1_545 S
Li441 O501 1.956 . S
Li441 O503 1.961 . S
Li442 N487 2.041 . S
Li442 O500 1.898 1_556 S
Li442 O502 1.959 . S
Li442 O503 1.949 1_566 S
Li443 N493 2.013 . S
Li443 O501 1.961 . S
Li443 O502 1.970 1_544 S
Li443 O503 1.956 . S
C444 C446 1.348 . S
C444 C447 1.356 . S
C444 O500 1.325 . S
N445 C448 1.314 . S
N445 C449 1.279 . S
C446 C444 1.348 . S
C446 C448 1.353 . S
C446 H504 0.929 . S
C447 C444 1.356 . S
C447 C449 1.358 . S
C447 H505 0.930 . S
C448 N445 1.314 . S
C448 C446 1.353 . S
C448 H506 0.930 . S
C449 N445 1.279 . S
C449 C447 1.358 . S
C449 H507 0.930 . S
C450 C453 1.348 . S
C450 C454 1.356 . S
C450 O501 1.325 . S
C451 N452 1.279 . S
C451 C454 1.358 . S
C451 H508 0.930 . S
N452 C451 1.279 . S
N452 C455 1.314 . S
C453 C450 1.348 . S
C453 C455 1.353 . S
C453 H509 0.929 1_545 S
C454 C450 1.356 . S
C454 C451 1.358 . S
C454 H510 0.930 . S
C455 N452 1.314 . S
C455 C453 1.353 . S
C455 H511 0.930 . S
C456 N457 1.314 . S
C456 C461 1.353 . S
C456 H462 0.930 . S
N457 Li440 1.990 . S
N457 C456 1.314 . S
N457 C459 1.279 . S
C458 C459 1.358 . S
C458 C460 1.356 . S
C458 H512 0.930 . S
C459 N457 1.279 . S
C459 C458 1.358 . S
C459 H463 0.930 . S
C460 C458 1.356 . S
C460 C461 1.348 . S
C461 C456 1.353 . S
C461 C460 1.348 . S
C461 H513 0.929 . S
H462 C456 0.930 . S
H463 C459 0.930 . S
C464 N465 1.314 . S
C464 C466 1.353 . S
C464 H470 0.930 . S
N465 Li441 1.990 . S
N465 C464 1.314 . S
N465 C468 1.279 . S
C466 C464 1.353 . S
C466 C469 1.348 . S
C466 H514 0.929 . S
C467 C468 1.358 . S
C467 C469 1.356 . S
C467 H515 0.930 . S
C468 N465 1.279 . S
C468 C467 1.358 . S
C468 H471 0.930 . S
C469 C466 1.348 . S
C469 C467 1.356 . S
H470 C464 0.930 . S
H471 C468 0.930 . S
C472 C474 1.348 . S
C472 C475 1.356 . S
C472 O502 1.325 . S
N473 C476 1.314 . S
N473 C477 1.279 . S
C474 C472 1.348 . S
C474 C476 1.353 . S
C474 H516 0.929 1_565 S
C475 C472 1.356 . S
C475 C477 1.358 . S
C475 H517 0.930 . S
C476 N473 1.314 . S
C476 C474 1.353 . S
C476 H518 0.930 . S
C477 N473 1.279 . S
C477 C475 1.358 . S
C477 H519 0.930 . S
C478 C479 1.348 1_554 S
C478 C480 1.356 . S
C478 O503 1.325 . S
C479 C478 1.348 1_556 S
C479 C481 1.353 . S
C479 H520 0.929 . S
C480 C478 1.356 . S
C480 C482 1.358 . S
C480 H521 0.930 . S
C481 C479 1.353 . S
C481 N483 1.314 . S
C481 H522 0.930 . S
C482 C480 1.358 . S
C482 N483 1.279 1_554 S
C482 H523 0.930 . S
N483 C481 1.314 . S
N483 C482 1.279 1_556 S
C484 C486 1.353 . S
C484 N487 1.314 . S
C484 H490 0.930 . S
C485 N487 1.279 . S
C485 C488 1.358 . S
C485 H491 0.930 . S
C486 C484 1.353 . S
C486 C489 1.348 . S
C486 H524 0.929 . S
N487 Li442 2.041 . S
N487 C484 1.314 . S
N487 C485 1.279 . S
C488 C485 1.358 . S
C488 C489 1.356 . S
C488 H525 0.930 . S
C489 C486 1.348 . S
C489 C488 1.356 . S
H490 C484 0.930 . S
H491 C485 0.930 . S
C492 N493 1.331 . S
C492 C494 1.343 1_554 S
C492 H498 0.930 . S
N493 Li443 2.013 . S
N493 C492 1.331 . S
N493 C496 1.238 1_554 S
C494 C492 1.343 1_556 S
C494 C497 1.368 . S
C494 H526 0.920 1_556 S
C495 C496 1.358 . S
C495 C497 1.356 . S
C495 H527 0.930 . S
C496 N493 1.238 1_556 S
C496 C495 1.358 . S
C496 H499 0.930 . S
C497 C494 1.368 . S
C497 C495 1.356 . S
H498 C492 0.930 . S
H499 C496 0.930 . S
O500 Li440 1.956 . S
O500 Li441 1.970 1_565 S
O500 Li442 1.898 1_554 S
O500 C444 1.325 . S
O501 Li440 1.970 1_545 S
O501 Li441 1.956 . S
O501 Li443 1.961 . S
O501 C450 1.325 . S
O502 Li440 1.961 1_556 S
O502 Li442 1.959 . S
O502 Li443 1.970 1_566 S
O502 C472 1.325 . S
O503 Li441 1.961 . S
O503 Li442 1.949 1_544 S
O503 Li443 1.956 . S
O503 C478 1.325 . S
H504 C446 0.929 . S
H505 C447 0.930 . S
H506 C448 0.930 . S
H507 C449 0.930 . S
H508 C451 0.930 . S
H509 C453 0.929 1_565 S
H510 C454 0.930 . S
H511 C455 0.930 . S
H512 C458 0.930 . S
H513 C461 0.929 . S
H514 C466 0.929 . S
H515 C467 0.930 . S
H516 C474 0.929 1_545 S
H517 C475 0.930 . S
H518 C476 0.930 . S
H519 C477 0.930 . S
H520 C479 0.929 . S
H521 C480 0.930 . S
H522 C481 0.930 . S
H523 C482 0.930 . S
H524 C486 0.929 . S
H525 C488 0.930 . S
H526 C494 0.920 1_554 S
H527 C495 0.930 . S
Li528 N545 1.990 . S
Li528 O588 1.956 . S
Li528 O589 1.970 . S
Li528 O590 1.961 . S
Li529 N553 1.990 . S
Li529 O588 1.970 . S
Li529 O589 1.956 . S
Li529 O591 1.961 . S
Li530 N575 1.990 . S
Li530 O588 1.961 . S
Li530 O590 1.956 . S
Li530 O591 1.970 . S
Li531 N581 1.990 . S
Li531 O589 1.961 . S
Li531 O590 1.970 . S
Li531 O591 1.956 . S
C532 C534 1.348 . S
C532 C535 1.356 . S
C532 O588 1.325 . S
N533 C536 1.314 . S
N533 C537 1.279 . S
C534 C532 1.348 . S
C534 C536 1.353 . S
C534 H592 0.929 . S
C535 C532 1.356 . S
C535 C537 1.358 . S
C535 H593 0.930 . S
C536 N533 1.314 . S
C536 C534 1.353 . S
C536 H594 0.930 . S
C537 N533 1.279 . S
C537 C535 1.358 . S
C537 H595 0.930 . S
C538 C541 1.348 . S
C538 C542 1.356 . S
C538 O589 1.325 . S
C539 N540 1.279 . S
C539 C542 1.358 . S
C539 H596 0.930 . S
N540 C539 1.279 . S
N540 C543 1.314 . S
C541 C538 1.348 . S
C541 C543 1.353 . S
C541 H597 0.929 . S
C542 C538 1.356 . S
C542 C539 1.358 . S
C542 H598 0.930 . S
C543 N540 1.314 . S
C543 C541 1.353 . S
C543 H599 0.930 . S
C544 N545 1.314 . S
C544 C549 1.353 . S
C544 H550 0.930 . S
N545 Li528 1.990 . S
N545 C544 1.314 . S
N545 C547 1.279 . S
C546 C547 1.358 . S
C546 C548 1.356 . S
C546 H600 0.930 . S
C547 N545 1.279 . S
C547 C546 1.358 . S
C547 H551 0.930 . S
C548 C546 1.356 . S
C548 C549 1.348 . S
C549 C544 1.353 . S
C549 C548 1.348 . S
C549 H601 0.929 . S
H550 C544 0.930 . S
H551 C547 0.930 . S
C552 N553 1.314 . S
C552 C554 1.353 . S
C552 H558 0.930 . S
N553 Li529 1.990 . S
N553 C552 1.314 . S
N553 C556 1.279 . S
C554 C552 1.353 . S
C554 C557 1.348 . S
C554 H602 0.929 . S
C555 C556 1.358 . S
C555 C557 1.356 . S
C555 H603 0.930 . S
C556 N553 1.279 . S
C556 C555 1.358 . S
C556 H559 0.930 . S
C557 C554 1.348 . S
C557 C555 1.356 . S
H558 C552 0.930 . S
H559 C556 0.930 . S
C560 C562 1.348 . S
C560 C563 1.356 . S
C560 O590 1.325 . S
N561 C564 1.314 . S
N561 C565 1.279 . S
C562 C560 1.348 . S
C562 C564 1.353 . S
C562 H604 0.929 . S
C563 C560 1.356 . S
C563 C565 1.358 . S
C563 H605 0.930 . S
C564 N561 1.314 . S
C564 C562 1.353 . S
C564 H606 0.930 . S
C565 N561 1.279 . S
C565 C563 1.358 . S
C565 H607 0.930 . S
C566 C567 1.348 . S
C566 C568 1.356 . S
C566 O591 1.325 . S
C567 C566 1.348 . S
C567 C569 1.353 . S
C567 H608 0.929 . S
C568 C566 1.356 . S
C568 C570 1.358 . S
C568 H609 0.930 . S
C569 C567 1.353 . S
C569 N571 1.314 . S
C569 H610 0.930 . S
C570 C568 1.358 . S
C570 N571 1.279 . S
C570 H611 0.930 . S
N571 C569 1.314 . S
N571 C570 1.279 . S
C572 C574 1.353 . S
C572 N575 1.314 . S
C572 H578 0.930 . S
C573 N575 1.279 . S
C573 C576 1.358 . S
C573 H579 0.930 . S
C574 C572 1.353 . S
C574 C577 1.348 . S
C574 H612 0.929 . S
N575 Li530 1.990 . S
N575 C572 1.314 . S
N575 C573 1.279 . S
C576 C573 1.358 . S
C576 C577 1.356 . S
C576 H613 0.930 . S
C577 C574 1.348 . S
C577 C576 1.356 . S
H578 C572 0.930 . S
H579 C573 0.930 . S
C580 N581 1.314 . S
C580 C582 1.353 . S
C580 H586 0.930 . S
N581 Li531 1.990 . S
N581 C580 1.314 . S
N581 C584 1.279 . S
C582 C580 1.353 . S
C582 C585 1.348 . S
C582 H614 0.929 . S
C583 C584 1.358 . S
C583 C585 1.356 . S
C583 H615 0.930 . S
C584 N581 1.279 . S
C584 C583 1.358 . S
C584 H587 0.930 . S
C585 C582 1.348 . S
C585 C583 1.356 . S
H586 C580 0.930 . S
H587 C584 0.930 . S
O588 Li528 1.956 . S
O588 Li529 1.970 . S
O588 Li530 1.961 . S
O588 C532 1.325 . S
O589 Li528 1.970 . S
O589 Li529 1.956 . S
O589 Li531 1.961 . S
O589 C538 1.325 . S
O590 Li528 1.961 . S
O590 Li530 1.956 . S
O590 Li531 1.970 . S
O590 C560 1.325 . S
O591 Li529 1.961 . S
O591 Li530 1.970 . S
O591 Li531 1.956 . S
O591 C566 1.325 . S
H592 C534 0.929 . S
H593 C535 0.930 . S
H594 C536 0.930 . S
H595 C537 0.930 . S
H596 C539 0.930 . S
H597 C541 0.929 . S
H598 C542 0.930 . S
H599 C543 0.930 . S
H600 C546 0.930 . S
H601 C549 0.929 . S
H602 C554 0.929 . S
H603 C555 0.930 . S
H604 C562 0.929 . S
H605 C563 0.930 . S
H606 C564 0.930 . S
H607 C565 0.930 . S
H608 C567 0.929 . S
H609 C568 0.930 . S
H610 C569 0.930 . S
H611 C570 0.930 . S
H612 C574 0.929 . S
H613 C576 0.930 . S
H614 C582 0.929 . S
H615 C583 0.930 . S
Li616 N633 1.990 . S
Li616 O676 1.956 . S
Li616 O677 1.970 . S
Li616 O678 1.961 . S
Li617 N641 1.990 . S
Li617 O676 1.970 . S
Li617 O677 1.956 . S
Li617 O679 1.961 . S
Li618 N663 1.990 1_565 S
Li618 O676 1.961 . S
Li618 O678 1.956 . S
Li618 O679 1.970 . S
Li619 N669 1.990 . S
Li619 O677 1.961 . S
Li619 O678 1.970 . S
Li619 O679 1.956 . S
C620 C622 1.348 . S
C620 C623 1.356 . S
C620 O676 1.325 . S
N621 C624 1.314 . S
N621 C625 1.279 . S
C622 C620 1.348 . S
C622 C624 1.353 . S
C622 H680 0.929 . S
C623 C620 1.356 . S
C623 C625 1.358 . S
C623 H681 0.930 . S
C624 N621 1.314 . S
C624 C622 1.353 . S
C624 H682 0.930 . S
C625 N621 1.279 . S
C625 C623 1.358 . S
C625 H683 0.930 . S
C626 C629 1.348 . S
C626 C630 1.356 . S
C626 O677 1.325 . S
C627 N628 1.279 . S
C627 C630 1.358 . S
C627 H684 0.930 . S
N628 C627 1.279 . S
N628 C631 1.314 . S
C629 C626 1.348 . S
C629 C631 1.353 . S
C629 H685 0.929 . S
C630 C626 1.356 . S
C630 C627 1.358 . S
C630 H686 0.930 . S
C631 N628 1.314 . S
C631 C629 1.353 . S
C631 H687 0.930 . S
C632 N633 1.314 . S
C632 C637 1.353 . S
C632 H638 0.930 . S
N633 Li616 1.990 . S
N633 C632 1.314 . S
N633 C635 1.279 . S
C634 C635 1.358 . S
C634 C636 1.356 . S
C634 H688 0.930 . S
C635 N633 1.279 . S
C635 C634 1.358 . S
C635 H639 0.930 . S
C636 C634 1.356 . S
C636 C637 1.348 . S
C637 C632 1.353 . S
C637 C636 1.348 . S
C637 H689 0.929 . S
H638 C632 0.930 . S
H639 C635 0.930 . S
C640 N641 1.314 . S
C640 C642 1.353 . S
C640 H646 0.930 . S
N641 Li617 1.990 . S
N641 C640 1.314 . S
N641 C644 1.279 . S
C642 C640 1.353 . S
C642 C645 1.348 . S
C642 H690 0.929 . S
C643 C644 1.358 . S
C643 C645 1.356 . S
C643 H691 0.930 . S
C644 N641 1.279 . S
C644 C643 1.358 . S
C644 H647 0.930 . S
C645 C642 1.348 . S
C645 C643 1.356 . S
H646 C640 0.930 . S
H647 C644 0.930 . S
C648 C650 1.349 . S
C648 C651 1.429 . S
C648 O678 1.267 1_545 S
N649 C652 1.314 . S
N649 C653 1.279 . S
C650 C648 1.349 . S
C650 C652 1.353 . S
C650 H692 0.929 . S
C651 C648 1.429 . S
C651 C653 1.358 . S
C651 H693 0.930 . S
C652 N649 1.314 . S
C652 C650 1.353 . S
C652 H694 0.930 . S
C653 N649 1.279 . S
C653 C651 1.358 . S
C653 H695 0.930 . S
C654 C655 1.332 1_565 S
C654 C656 1.356 . S
C654 O679 1.325 . S
C655 C654 1.332 1_545 S
C655 C657 1.349 . S
C655 H696 0.950 . S
C656 C654 1.356 . S
C656 C658 1.358 . S
C656 H697 0.930 . S
C657 C655 1.349 . S
C657 N659 1.314 1_545 S
C657 H698 0.930 . S
C658 C656 1.358 . S
C658 N659 1.279 . S
C658 H699 0.930 . S
N659 C657 1.314 1_565 S
N659 C658 1.279 . S
C660 C662 1.353 . S
C660 N663 1.314 . S
C660 H666 0.930 . S
C661 N663 1.279 . S
C661 C664 1.358 . S
C661 H667 0.930 . S
C662 C660 1.353 . S
C662 C665 1.348 . S
C662 H700 0.929 . S
N663 Li618 1.990 1_545 S
N663 C660 1.314 . S
N663 C661 1.279 . S
C664 C661 1.358 . S
C664 C665 1.356 . S
C664 H701 0.930 . S
C665 C662 1.348 . S
C665 C664 1.356 . S
H666 C660 0.930 . S
H667 C661 0.930 . S
C668 N669 1.314 . S
C668 C670 1.353 . S
C668 H674 0.930 . S
N669 Li619 1.990 . S
N669 C668 1.314 . S
N669 C672 1.279 . S
C670 C668 1.353 . S
C670 C673 1.348 . S
C670 H702 0.929 . S
C671 C672 1.358 . S
C671 C673 1.356 . S
C671 H703 0.930 . S
C672 N669 1.279 . S
C672 C671 1.358 . S
C672 H675 0.930 . S
C673 C670 1.348 . S
C673 C671 1.356 . S
H674 C668 0.930 . S
H675 C672 0.930 . S
O676 Li616 1.956 . S
O676 Li617 1.970 . S
O676 Li618 1.961 . S
O676 C620 1.325 . S
O677 Li616 1.970 . S
O677 Li617 1.956 . S
O677 Li619 1.961 . S
O677 C626 1.325 . S
O678 Li616 1.961 . S
O678 Li618 1.956 . S
O678 Li619 1.970 . S
O678 C648 1.267 1_565 S
O679 Li617 1.961 . S
O679 Li618 1.970 . S
O679 Li619 1.956 . S
O679 C654 1.325 . S
H680 C622 0.929 . S
H681 C623 0.930 . S
H682 C624 0.930 . S
H683 C625 0.930 . S
H684 C627 0.930 . S
H685 C629 0.929 . S
H686 C630 0.930 . S
H687 C631 0.930 . S
H688 C634 0.930 . S
H689 C637 0.929 . S
H690 C642 0.929 . S
H691 C643 0.930 . S
H692 C650 0.929 . S
H693 C651 0.930 . S
H694 C652 0.930 . S
H695 C653 0.930 . S
H696 C655 0.950 . S
H697 C656 0.930 . S
H698 C657 0.930 . S
H699 C658 0.930 . S
H700 C662 0.929 . S
H701 C664 0.930 . S
H702 C670 0.929 . S
H703 C671 0.930 . S
Li704 N721 1.990 . S
Li704 O764 1.956 . S
Li704 O765 1.970 . S
Li704 O766 1.961 . S
Li705 N729 1.990 . S
Li705 O764 1.970 . S
Li705 O765 1.956 . S
Li705 O767 1.961 . S
Li706 N751 1.990 1_455 S
Li706 O764 1.961 . S
Li706 O766 1.956 . S
Li706 O767 1.970 . S
Li707 N757 1.990 . S
Li707 O765 1.961 . S
Li707 O766 1.970 . S
Li707 O767 1.956 . S
C708 C710 1.348 . S
C708 C711 1.356 . S
C708 O764 1.325 . S
N709 C712 1.314 . S
N709 C713 1.279 . S
C710 C708 1.348 . S
C710 C712 1.353 . S
C710 H768 0.929 . S
C711 C708 1.356 . S
C711 C713 1.358 . S
C711 H769 0.930 . S
C712 N709 1.314 . S
C712 C710 1.353 . S
C712 H770 0.930 . S
C713 N709 1.279 . S
C713 C711 1.358 . S
C713 H771 0.930 . S
C714 C717 1.348 . S
C714 C718 1.356 . S
C714 O765 1.325 . S
C715 N716 1.279 . S
C715 C718 1.358 . S
C715 H772 0.930 . S
N716 C715 1.279 . S
N716 C719 1.314 . S
C717 C714 1.348 . S
C717 C719 1.353 . S
C717 H773 0.929 . S
C718 C714 1.356 . S
C718 C715 1.358 . S
C718 H774 0.930 . S
C719 N716 1.314 . S
C719 C717 1.353 . S
C719 H775 0.930 . S
C720 N721 1.314 . S
C720 C725 1.353 . S
C720 H726 0.930 . S
N721 Li704 1.990 . S
N721 C720 1.314 . S
N721 C723 1.279 . S
C722 C723 1.358 . S
C722 C724 1.356 . S
C722 H776 0.930 . S
C723 N721 1.279 . S
C723 C722 1.358 . S
C723 H727 0.930 . S
C724 C722 1.356 . S
C724 C725 1.348 . S
C725 C720 1.353 . S
C725 C724 1.348 . S
C725 H777 0.929 . S
H726 C720 0.930 . S
H727 C723 0.930 . S
C728 N729 1.314 . S
C728 C730 1.353 . S
C728 H734 0.930 . S
N729 Li705 1.990 . S
N729 C728 1.314 . S
N729 C732 1.279 . S
C730 C728 1.353 . S
C730 C733 1.348 . S
C730 H778 0.929 . S
C731 C732 1.358 . S
C731 C733 1.356 . S
C731 H779 0.930 . S
C732 N729 1.279 . S
C732 C731 1.358 . S
C732 H735 0.930 . S
C733 C730 1.348 . S
C733 C731 1.356 . S
H734 C728 0.930 . S
H735 C732 0.930 . S
C736 C738 1.348 1_455 S
C736 C739 1.356 1_455 S
C736 O766 1.325 . S
N737 C740 1.314 . S
N737 C741 1.279 . S
C738 C736 1.348 1_655 S
C738 C740 1.353 . S
C738 H780 0.937 1_655 S
C739 C736 1.356 1_655 S
C739 C741 1.358 . S
C739 H781 0.930 1_655 S
C740 N737 1.314 . S
C740 C738 1.353 . S
C740 H782 0.930 . S
C741 N737 1.279 . S
C741 C739 1.358 . S
C741 H783 0.930 . S
C742 C743 1.348 . S
C742 C744 1.356 . S
C742 O767 1.325 . S
C743 C742 1.348 . S
C743 C745 1.353 . S
C743 H784 0.929 1_455 S
C744 C742 1.356 . S
C744 C746 1.358 . S
C744 H785 0.930 . S
C745 C743 1.353 . S
C745 N747 1.314 . S
C745 H786 0.930 1_455 S
C746 C744 1.358 . S
C746 N747 1.279 . S
C746 H787 0.930 . S
N747 C745 1.314 . S
N747 C746 1.279 . S
C748 C750 1.353 . S
C748 N751 1.314 . S
C748 H754 0.948 . S
C749 N751 1.279 . S
C749 C752 1.358 . S
C749 H755 0.930 . S
C750 C748 1.353 . S
C750 C753 1.348 . S
C750 H788 0.929 . S
N751 Li706 1.990 1_655 S
N751 C748 1.314 . S
N751 C749 1.279 . S
C752 C749 1.358 . S
C752 C753 1.356 . S
C752 H789 0.930 . S
C753 C750 1.348 . S
C753 C752 1.356 . S
H754 C748 0.948 . S
H755 C749 0.930 . S
C756 N757 1.314 . S
C756 C758 1.353 . S
C756 H762 0.930 . S
N757 Li707 1.990 . S
N757 C756 1.314 . S
N757 C760 1.279 . S
C758 C756 1.353 . S
C758 C761 1.348 . S
C758 H790 0.929 . S
C759 C760 1.358 . S
C759 C761 1.356 . S
C759 H791 0.930 . S
C760 N757 1.279 . S
C760 C759 1.358 . S
C760 H763 0.930 . S
C761 C758 1.348 . S
C761 C759 1.356 . S
H762 C756 0.930 . S
H763 C760 0.930 . S
O764 Li704 1.956 . S
O764 Li705 1.970 . S
O764 Li706 1.961 . S
O764 C708 1.325 . S
O765 Li704 1.970 . S
O765 Li705 1.956 . S
O765 Li707 1.961 . S
O765 C714 1.325 . S
O766 Li704 1.961 . S
O766 Li706 1.956 . S
O766 Li707 1.970 . S
O766 C736 1.325 . S
O767 Li705 1.961 . S
O767 Li706 1.970 . S
O767 Li707 1.956 . S
O767 C742 1.325 . S
H768 C710 0.929 . S
H769 C711 0.930 . S
H770 C712 0.930 . S
H771 C713 0.930 . S
H772 C715 0.930 . S
H773 C717 0.929 . S
H774 C718 0.930 . S
H775 C719 0.930 . S
H776 C722 0.930 . S
H777 C725 0.929 . S
H778 C730 0.929 . S
H779 C731 0.930 . S
H780 C738 0.937 1_455 S
H781 C739 0.930 1_455 S
H782 C740 0.930 . S
H783 C741 0.930 . S
H784 C743 0.929 1_655 S
H785 C744 0.930 . S
H786 C745 0.930 1_655 S
H787 C746 0.930 . S
H788 C750 0.929 . S
H789 C752 0.930 . S
H790 C758 0.929 . S
H791 C759 0.930 . S
Li792 N809 1.990 1_565 S
Li792 O852 1.956 . S
Li792 O853 1.970 . S
Li792 O854 1.961 . S
Li793 N817 1.990 . S
Li793 O852 1.970 . S
Li793 O853 1.956 . S
Li793 O855 1.961 . S
Li794 N839 1.990 . S
Li794 O852 1.961 . S
Li794 O854 1.956 . S
Li794 O855 1.970 . S
Li795 N845 1.990 . S
Li795 O853 1.961 . S
Li795 O854 1.970 . S
Li795 O855 1.956 . S
C796 C798 1.348 . S
C796 C799 1.356 . S
C796 O852 1.325 . S
N797 C800 1.314 . S
N797 C801 1.279 . S
C798 C796 1.348 . S
C798 C800 1.353 . S
C798 H856 0.929 . S
C799 C796 1.356 . S
C799 C801 1.358 . S
C799 H857 0.930 . S
C800 N797 1.314 . S
C800 C798 1.353 . S
C800 H858 0.930 . S
C801 N797 1.279 . S
C801 C799 1.358 . S
C801 H859 0.930 . S
C802 C805 1.348 . S
C802 C806 1.356 . S
C802 O853 1.325 . S
C803 N804 1.279 . S
C803 C806 1.358 . S
C803 H860 0.930 . S
N804 C803 1.279 . S
N804 C807 1.314 . S
C805 C802 1.348 . S
C805 C807 1.353 . S
C805 H861 0.929 . S
C806 C802 1.356 . S
C806 C803 1.358 . S
C806 H862 0.930 . S
C807 N804 1.314 . S
C807 C805 1.353 . S
C807 H863 0.930 1_565 S
C808 N809 1.314 . S
C808 C813 1.353 . S
C808 H814 0.930 . S
N809 Li792 1.990 1_545 S
N809 C808 1.314 . S
N809 C811 1.279 . S
C810 C811 1.358 . S
C810 C812 1.356 . S
C810 H864 0.930 . S
C811 N809 1.279 . S
C811 C810 1.358 . S
C811 H815 0.930 . S
C812 C810 1.356 . S
C812 C813 1.348 . S
C813 C808 1.353 . S
C813 C812 1.348 . S
C813 H865 0.929 . S
H814 C808 0.930 . S
H815 C811 0.930 . S
C816 N817 1.314 . S
C816 C818 1.353 . S
C816 H822 0.930 . S
N817 Li793 1.990 . S
N817 C816 1.314 . S
N817 C820 1.279 . S
C818 C816 1.353 . S
C818 C821 1.348 . S
C818 H866 0.929 . S
C819 C820 1.358 . S
C819 C821 1.356 . S
C819 H867 0.930 . S
C820 N817 1.279 . S
C820 C819 1.358 . S
C820 H823 0.930 . S
C821 C818 1.348 . S
C821 C819 1.356 . S
H822 C816 0.930 . S
H823 C820 0.930 . S
C824 C826 1.326 . S
C824 C827 1.344 1_565 S
C824 O854 1.384 . S
N825 C828 1.314 . S
N825 C829 1.279 . S
C826 C824 1.326 . S
C826 C828 1.331 1_565 S
C826 H868 0.938 . S
C827 C824 1.344 1_545 S
C827 C829 1.358 . S
C827 H869 0.930 . S
C828 N825 1.314 . S
C828 C826 1.331 1_545 S
C828 H870 0.930 . S
C829 N825 1.279 . S
C829 C827 1.358 . S
C829 H871 0.930 . S
C830 C831 1.348 . S
C830 C832 1.356 . S
C830 O855 1.325 . S
C831 C830 1.348 . S
C831 C833 1.353 . S
C831 H872 0.929 . S
C832 C830 1.356 . S
C832 C834 1.358 . S
C832 H873 0.930 . S
C833 C831 1.353 . S
C833 N835 1.314 . S
C833 H874 0.930 . S
C834 C832 1.358 . S
C834 N835 1.279 . S
C834 H875 0.930 . S
N835 C833 1.314 . S
N835 C834 1.279 . S
C836 C838 1.353 . S
C836 N839 1.314 . S
C836 H842 0.930 . S
C837 N839 1.279 . S
C837 C840 1.358 . S
C837 H843 0.930 . S
C838 C836 1.353 . S
C838 C841 1.348 . S
C838 H876 0.929 . S
N839 Li794 1.990 . S
N839 C836 1.314 . S
N839 C837 1.279 . S
C840 C837 1.358 . S
C840 C841 1.356 . S
C840 H877 0.930 . S
C841 C838 1.348 . S
C841 C840 1.356 . S
H842 C836 0.930 . S
H843 C837 0.930 . S
C844 N845 1.314 . S
C844 C846 1.353 . S
C844 H850 0.930 . S
N845 Li795 1.990 . S
N845 C844 1.314 . S
N845 C848 1.279 . S
C846 C844 1.353 . S
C846 C849 1.348 . S
C846 H878 0.929 . S
C847 C848 1.358 . S
C847 C849 1.356 . S
C847 H879 0.930 . S
C848 N845 1.279 . S
C848 C847 1.358 . S
C848 H851 0.930 . S
C849 C846 1.348 . S
C849 C847 1.356 . S
H850 C844 0.930 . S
H851 C848 0.930 . S
O852 Li792 1.956 . S
O852 Li793 1.970 . S
O852 Li794 1.961 . S
O852 C796 1.325 . S
O853 Li792 1.970 . S
O853 Li793 1.956 . S
O853 Li795 1.961 . S
O853 C802 1.325 . S
O854 Li792 1.961 . S
O854 Li794 1.956 . S
O854 Li795 1.970 . S
O854 C824 1.384 . S
O855 Li793 1.961 . S
O855 Li794 1.970 . S
O855 Li795 1.956 . S
O855 C830 1.325 . S
H856 C798 0.929 . S
H857 C799 0.930 . S
H858 C800 0.930 . S
H859 C801 0.930 . S
H860 C803 0.930 . S
H861 C805 0.929 . S
H862 C806 0.930 . S
H863 C807 0.930 1_545 S
H864 C810 0.930 . S
H865 C813 0.929 . S
H866 C818 0.929 . S
H867 C819 0.930 . S
H868 C826 0.938 . S
H869 C827 0.930 . S
H870 C828 0.930 . S
H871 C829 0.930 . S
H872 C831 0.929 . S
H873 C832 0.930 . S
H874 C833 0.930 . S
H875 C834 0.930 . S
H876 C838 0.929 . S
H877 C840 0.930 . S
H878 C846 0.929 . S
H879 C847 0.930 . S
Li880 N897 1.990 . S
Li880 O940 1.956 . S
Li880 O941 1.970 . S
Li880 O942 1.961 . S
Li881 N905 1.990 1_455 S
Li881 O940 1.970 . S
Li881 O941 1.956 . S
Li881 O943 1.961 . S
Li882 N927 1.990 . S
Li882 O940 1.961 . S
Li882 O942 1.956 . S
Li882 O943 1.970 . S
Li883 N933 1.990 . S
Li883 O941 1.961 . S
Li883 O942 1.970 . S
Li883 O943 1.956 . S
C884 C886 1.348 . S
C884 C887 1.356 . S
C884 O940 1.325 . S
N885 C888 1.314 . S
N885 C889 1.279 . S
C886 C884 1.348 . S
C886 C888 1.353 . S
C886 H944 0.935 . S
C887 C884 1.356 . S
C887 C889 1.358 . S
C887 H945 0.930 . S
C888 N885 1.314 . S
C888 C886 1.353 . S
C888 H946 0.930 1_455 S
C889 N885 1.279 . S
C889 C887 1.358 . S
C889 H947 0.930 . S
C890 C893 1.348 . S
C890 C894 1.356 . S
C890 O941 1.325 . S
C891 N892 1.279 . S
C891 C894 1.358 . S
C891 H948 0.930 . S
N892 C891 1.279 . S
N892 C895 1.314 . S
C893 C890 1.348 . S
C893 C895 1.353 . S
C893 H949 0.929 . S
C894 C890 1.356 . S
C894 C891 1.358 . S
C894 H950 0.930 . S
C895 N892 1.314 . S
C895 C893 1.353 . S
C895 H951 0.930 . S
C896 N897 1.314 . S
C896 C901 1.353 . S
C896 H902 0.930 . S
N897 Li880 1.990 . S
N897 C896 1.314 . S
N897 C899 1.279 . S
C898 C899 1.358 . S
C898 C900 1.356 . S
C898 H952 0.930 . S
C899 N897 1.279 . S
C899 C898 1.358 . S
C899 H903 0.930 . S
C900 C898 1.356 . S
C900 C901 1.348 . S
C901 C896 1.353 . S
C901 C900 1.348 . S
C901 H953 0.929 . S
H902 C896 0.930 . S
H903 C899 0.930 . S
C904 N905 1.314 . S
C904 C906 1.353 . S
C904 H910 0.930 . S
N905 Li881 1.990 1_655 S
N905 C904 1.314 . S
N905 C908 1.279 . S
C906 C904 1.353 . S
C906 C909 1.348 . S
C906 H954 0.929 . S
C907 C908 1.358 . S
C907 C909 1.356 . S
C907 H955 0.930 . S
C908 N905 1.279 . S
C908 C907 1.358 . S
C908 H911 0.930 . S
C909 C906 1.348 . S
C909 C907 1.356 . S
H910 C904 0.930 . S
H911 C908 0.930 . S
C912 C914 1.348 . S
C912 C915 1.356 . S
C912 O942 1.325 . S
N913 C916 1.314 . S
N913 C917 1.279 . S
C914 C912 1.348 . S
C914 C916 1.353 . S
C914 H956 0.929 . S
C915 C912 1.356 . S
C915 C917 1.358 . S
C915 H957 0.930 . S
C916 N913 1.314 . S
C916 C914 1.353 . S
C916 H958 0.930 . S
C917 N913 1.279 . S
C917 C915 1.358 . S
C917 H959 0.930 . S
C918 C919 1.365 1_455 S
C918 C920 1.350 1_455 S
C918 O943 1.329 . S
C919 C918 1.365 1_655 S
C919 C921 1.385 . S
C919 H960 0.884 1_655 S
C920 C918 1.350 1_655 S
C920 C922 1.358 . S
C920 H961 0.930 . S
C921 C919 1.385 . S
C921 N923 1.314 . S
C921 H962 0.930 . S
C922 C920 1.358 . S
C922 N923 1.279 . S
C922 H963 0.930 . S
N923 C921 1.314 . S
N923 C922 1.279 . S
C924 C926 1.353 . S
C924 N927 1.314 . S
C924 H930 0.930 . S
C925 N927 1.279 . S
C925 C928 1.358 . S
C925 H931 0.930 . S
C926 C924 1.353 . S
C926 C929 1.348 . S
C926 H964 0.929 . S
N927 Li882 1.990 . S
N927 C924 1.314 . S
N927 C925 1.279 . S
C928 C925 1.358 . S
C928 C929 1.356 . S
C928 H965 0.930 . S
C929 C926 1.348 . S
C929 C928 1.356 . S
H930 C924 0.930 . S
H931 C925 0.930 . S
C932 N933 1.314 . S
C932 C934 1.353 . S
C932 H938 0.930 . S
N933 Li883 1.990 . S
N933 C932 1.314 . S
N933 C936 1.279 . S
C934 C932 1.353 . S
C934 C937 1.348 . S
C934 H966 0.929 . S
C935 C936 1.358 . S
C935 C937 1.356 . S
C935 H967 0.930 . S
C936 N933 1.279 . S
C936 C935 1.358 . S
C936 H939 0.930 . S
C937 C934 1.348 . S
C937 C935 1.356 . S
H938 C932 0.930 . S
H939 C936 0.930 . S
O940 Li880 1.956 . S
O940 Li881 1.970 . S
O940 Li882 1.961 . S
O940 C884 1.325 . S
O941 Li880 1.970 . S
O941 Li881 1.956 . S
O941 Li883 1.961 . S
O941 C890 1.325 . S
O942 Li880 1.961 . S
O942 Li882 1.956 . S
O942 Li883 1.970 . S
O942 C912 1.325 . S
O943 Li881 1.961 . S
O943 Li882 1.970 . S
O943 Li883 1.956 . S
O943 C918 1.329 . S
H944 C886 0.935 . S
H945 C887 0.930 . S
H946 C888 0.930 1_655 S
H947 C889 0.930 . S
H948 C891 0.930 . S
H949 C893 0.929 . S
H950 C894 0.930 . S
H951 C895 0.930 . S
H952 C898 0.930 . S
H953 C901 0.929 . S
H954 C906 0.929 . S
H955 C907 0.930 . S
H956 C914 0.929 . S
H957 C915 0.930 . S
H958 C916 0.930 . S
H959 C917 0.930 . S
H960 C919 0.884 1_455 S
H961 C920 0.930 . S
H962 C921 0.930 . S
H963 C922 0.930 . S
H964 C926 0.929 . S
H965 C928 0.930 . S
H966 C934 0.929 . S
H967 C935 0.930 . S
Li968 N985 1.990 . S
Li968 O1028 1.956 . S
Li968 O1029 1.970 . S
Li968 O1030 1.961 . S
Li969 N993 1.990 . S
Li969 O1028 1.970 . S
Li969 O1029 1.956 . S
Li969 O1031 1.961 . S
Li970 N1015 1.990 . S
Li970 O1028 1.961 . S
Li970 O1030 1.956 . S
Li970 O1031 1.970 . S
Li971 N1021 1.990 . S
Li971 O1029 1.961 . S
Li971 O1030 1.970 . S
Li971 O1031 1.956 . S
C972 C974 1.348 . S
C972 C975 1.356 . S
C972 O1028 1.325 . S
N973 C976 1.314 . S
N973 C977 1.279 . S
C974 C972 1.348 . S
C974 C976 1.353 . S
C974 H1032 0.929 . S
C975 C972 1.356 . S
C975 C977 1.358 . S
C975 H1033 0.930 . S
C976 N973 1.314 . S
C976 C974 1.353 . S
C976 H1034 0.930 . S
C977 N973 1.279 . S
C977 C975 1.358 . S
C977 H1035 0.930 . S
C978 C981 1.348 . S
C978 C982 1.356 . S
C978 O1029 1.325 . S
C979 N980 1.279 . S
C979 C982 1.358 . S
C979 H1036 0.930 . S
N980 C979 1.279 . S
N980 C983 1.314 . S
C981 C978 1.348 . S
C981 C983 1.353 . S
C981 H1037 0.929 . S
C982 C978 1.356 . S
C982 C979 1.358 . S
C982 H1038 0.930 . S
C983 N980 1.314 . S
C983 C981 1.353 . S
C983 H1039 0.930 . S
C984 N985 1.314 . S
C984 C989 1.353 . S
C984 H990 0.930 . S
N985 Li968 1.990 . S
N985 C984 1.314 . S
N985 C987 1.279 . S
C986 C987 1.358 . S
C986 C988 1.356 . S
C986 H1040 0.930 . S
C987 N985 1.279 . S
C987 C986 1.358 . S
C987 H991 0.930 . S
C988 C986 1.356 . S
C988 C989 1.348 . S
C989 C984 1.353 . S
C989 C988 1.348 . S
C989 H1041 0.929 . S
H990 C984 0.930 . S
H991 C987 0.930 . S
C992 N993 1.314 . S
C992 C994 1.353 . S
C992 H998 0.930 . S
N993 Li969 1.990 . S
N993 C992 1.314 . S
N993 C996 1.279 . S
C994 C992 1.353 . S
C994 C997 1.348 . S
C994 H1042 0.929 . S
C995 C996 1.358 . S
C995 C997 1.356 . S
C995 H1043 0.930 . S
C996 N993 1.279 . S
C996 C995 1.358 . S
C996 H999 0.930 . S
C997 C994 1.348 . S
C997 C995 1.356 . S
H998 C992 0.930 . S
H999 C996 0.930 . S
C1000 C1002 1.348 . S
C1000 C1003 1.356 . S
C1000 O1030 1.325 . S
N1001 C1004 1.314 . S
N1001 C1005 1.279 . S
C1002 C1000 1.348 . S
C1002 C1004 1.353 . S
C1002 H1044 0.929 . S
C1003 C1000 1.356 . S
C1003 C1005 1.358 . S
C1003 H1045 0.930 . S
C1004 N1001 1.314 . S
C1004 C1002 1.353 . S
C1004 H1046 0.930 . S
C1005 N1001 1.279 . S
C1005 C1003 1.358 . S
C1005 H1047 0.930 . S
C1006 C1007 1.348 . S
C1006 C1008 1.356 . S
C1006 O1031 1.325 . S
C1007 C1006 1.348 . S
C1007 C1009 1.353 . S
C1007 H1048 0.929 . S
C1008 C1006 1.356 . S
C1008 C1010 1.358 . S
C1008 H1049 0.930 . S
C1009 C1007 1.353 . S
C1009 N1011 1.314 . S
C1009 H1050 0.930 . S
C1010 C1008 1.358 . S
C1010 N1011 1.279 . S
C1010 H1051 0.930 . S
N1011 C1009 1.314 . S
N1011 C1010 1.279 . S
C1012 C1014 1.353 . S
C1012 N1015 1.314 . S
C1012 H1018 0.930 . S
C1013 N1015 1.279 . S
C1013 C1016 1.358 . S
C1013 H1019 0.930 . S
C1014 C1012 1.353 . S
C1014 C1017 1.348 . S
C1014 H1052 0.929 . S
N1015 Li970 1.990 . S
N1015 C1012 1.314 . S
N1015 C1013 1.279 . S
C1016 C1013 1.358 . S
C1016 C1017 1.356 . S
C1016 H1053 0.930 . S
C1017 C1014 1.348 . S
C1017 C1016 1.356 . S
H1018 C1012 0.930 . S
H1019 C1013 0.930 . S
C1020 N1021 1.314 . S
C1020 C1022 1.353 . S
C1020 H1026 0.930 . S
N1021 Li971 1.990 . S
N1021 C1020 1.314 . S
N1021 C1024 1.279 . S
C1022 C1020 1.353 . S
C1022 C1025 1.348 . S
C1022 H1054 0.929 . S
C1023 C1024 1.358 . S
C1023 C1025 1.356 . S
C1023 H1055 0.930 . S
C1024 N1021 1.279 . S
C1024 C1023 1.358 . S
C1024 H1027 0.930 . S
C1025 C1022 1.348 . S
C1025 C1023 1.356 . S
H1026 C1020 0.930 . S
H1027 C1024 0.930 . S
O1028 Li968 1.956 . S
O1028 Li969 1.970 . S
O1028 Li970 1.961 . S
O1028 C972 1.325 . S
O1029 Li968 1.970 . S
O1029 Li969 1.956 . S
O1029 Li971 1.961 . S
O1029 C978 1.325 . S
O1030 Li968 1.961 . S
O1030 Li970 1.956 . S
O1030 Li971 1.970 . S
O1030 C1000 1.325 . S
O1031 Li969 1.961 . S
O1031 Li970 1.970 . S
O1031 Li971 1.956 . S
O1031 C1006 1.325 . S
H1032 C974 0.929 . S
H1033 C975 0.930 . S
H1034 C976 0.930 . S
H1035 C977 0.930 . S
H1036 C979 0.930 . S
H1037 C981 0.929 . S
H1038 C982 0.930 . S
H1039 C983 0.930 . S
H1040 C986 0.930 . S
H1041 C989 0.929 . S
H1042 C994 0.929 . S
H1043 C995 0.930 . S
H1044 C1002 0.929 . S
H1045 C1003 0.930 . S
H1046 C1004 0.930 . S
H1047 C1005 0.930 . S
H1048 C1007 0.929 . S
H1049 C1008 0.930 . S
H1050 C1009 0.930 . S
H1051 C1010 0.930 . S
H1052 C1014 0.929 . S
H1053 C1016 0.930 . S
H1054 C1022 0.929 . S
H1055 C1023 0.930 . S
Li1056 N1073 1.990 1_545 S
Li1056 O1116 1.956 . S
Li1056 O1117 1.970 . S
Li1056 O1118 1.961 . S
Li1057 N1081 1.990 . S
Li1057 O1116 1.970 . S
Li1057 O1117 1.956 . S
Li1057 O1119 1.961 . S
Li1058 N1103 1.990 . S
Li1058 O1116 1.961 . S
Li1058 O1118 1.956 . S
Li1058 O1119 1.970 . S
Li1059 N1109 1.990 . S
Li1059 O1117 1.961 . S
Li1059 O1118 1.970 . S
Li1059 O1119 1.956 . S
C1060 C1062 1.348 1_545 S
C1060 C1063 1.356 1_545 S
C1060 O1116 1.325 . S
N1061 C1064 1.314 . S
N1061 C1065 1.279 . S
C1062 C1060 1.348 1_565 S
C1062 C1064 1.353 . S
C1062 H1120 0.929 . S
C1063 C1060 1.356 1_565 S
C1063 C1065 1.358 . S
C1063 H1121 0.964 . S
C1064 N1061 1.314 . S
C1064 C1062 1.353 . S
C1064 H1122 0.930 . S
C1065 N1061 1.279 . S
C1065 C1063 1.358 . S
C1065 H1123 0.930 . S
C1066 C1069 1.348 . S
C1066 C1070 1.356 . S
C1066 O1117 1.325 . S
C1067 N1068 1.279 . S
C1067 C1070 1.358 . S
C1067 H1124 0.930 . S
N1068 C1067 1.279 . S
N1068 C1071 1.305 1_545 S
C1069 C1066 1.348 . S
C1069 C1071 1.330 1_545 S
C1069 H1125 0.929 1_545 S
C1070 C1066 1.356 . S
C1070 C1067 1.358 . S
C1070 H1126 0.930 . S
C1071 N1068 1.305 1_565 S
C1071 C1069 1.330 1_565 S
C1071 H1127 0.968 . S
C1072 N1073 1.314 . S
C1072 C1077 1.353 . S
C1072 H1078 0.930 . S
N1073 Li1056 1.990 1_565 S
N1073 C1072 1.314 . S
N1073 C1075 1.279 . S
C1074 C1075 1.358 . S
C1074 C1076 1.356 . S
C1074 H1128 0.930 . S
C1075 N1073 1.279 . S
C1075 C1074 1.358 . S
C1075 H1079 0.930 . S
C1076 C1074 1.356 . S
C1076 C1077 1.348 . S
C1077 C1072 1.353 . S
C1077 C1076 1.348 . S
C1077 H1129 0.929 . S
H1078 C1072 0.930 . S
H1079 C1075 0.930 . S
C1080 N1081 1.314 . S
C1080 C1082 1.353 . S
C1080 H1086 0.930 . S
N1081 Li1057 1.990 . S
N1081 C1080 1.314 . S
N1081 C1084 1.279 . S
C1082 C1080 1.353 . S
C1082 C1085 1.348 . S
C1082 H1130 0.929 . S
C1083 C1084 1.358 . S
C1083 C1085 1.356 . S
C1083 H1131 0.930 . S
C1084 N1081 1.279 . S
C1084 C1083 1.358 . S
C1084 H1087 0.930 . S
C1085 C1082 1.348 . S
C1085 C1083 1.356 . S
H1086 C1080 0.930 . S
H1087 C1084 0.930 . S
C1088 C1090 1.348 . S
C1088 C1091 1.356 . S
C1088 O1118 1.325 . S
N1089 C1092 1.314 . S
N1089 C1093 1.279 . S
C1090 C1088 1.348 . S
C1090 C1092 1.353 . S
C1090 H1132 0.929 . S
C1091 C1088 1.356 . S
C1091 C1093 1.358 . S
C1091 H1133 0.930 . S
C1092 N1089 1.314 . S
C1092 C1090 1.353 . S
C1092 H1134 0.930 . S
C1093 N1089 1.279 . S
C1093 C1091 1.358 . S
C1093 H1135 0.930 . S
C1094 C1095 1.348 . S
C1094 C1096 1.356 . S
C1094 O1119 1.325 . S
C1095 C1094 1.348 . S
C1095 C1097 1.353 . S
C1095 H1136 0.929 . S
C1096 C1094 1.356 . S
C1096 C1098 1.358 . S
C1096 H1137 0.930 . S
C1097 C1095 1.353 . S
C1097 N1099 1.314 . S
C1097 H1138 0.930 . S
C1098 C1096 1.358 . S
C1098 N1099 1.279 . S
C1098 H1139 0.930 . S
N1099 C1097 1.314 . S
N1099 C1098 1.279 . S
C1100 C1102 1.353 . S
C1100 N1103 1.314 . S
C1100 H1106 0.930 . S
C1101 N1103 1.279 . S
C1101 C1104 1.358 . S
C1101 H1107 0.930 . S
C1102 C1100 1.353 . S
C1102 C1105 1.348 . S
C1102 H1140 0.929 . S
N1103 Li1058 1.990 . S
N1103 C1100 1.314 . S
N1103 C1101 1.279 . S
C1104 C1101 1.358 . S
C1104 C1105 1.356 . S
C1104 H1141 0.930 . S
C1105 C1102 1.348 . S
C1105 C1104 1.356 . S
H1106 C1100 0.930 . S
H1107 C1101 0.930 . S
C1108 N1109 1.314 . S
C1108 C1110 1.353 . S
C1108 H1114 0.930 . S
N1109 Li1059 1.990 . S
N1109 C1108 1.314 . S
N1109 C1112 1.279 . S
C1110 C1108 1.353 . S
C1110 C1113 1.348 . S
C1110 H1142 0.929 . S
C1111 C1112 1.358 . S
C1111 C1113 1.356 . S
C1111 H1143 0.930 . S
C1112 N1109 1.279 . S
C1112 C1111 1.358 . S
C1112 H1115 0.930 . S
C1113 C1110 1.348 . S
C1113 C1111 1.356 . S
H1114 C1108 0.930 . S
H1115 C1112 0.930 . S
O1116 Li1056 1.956 . S
O1116 Li1057 1.970 . S
O1116 Li1058 1.961 . S
O1116 C1060 1.325 . S
O1117 Li1056 1.970 . S
O1117 Li1057 1.956 . S
O1117 Li1059 1.961 . S
O1117 C1066 1.325 . S
O1118 Li1056 1.961 . S
O1118 Li1058 1.956 . S
O1118 Li1059 1.970 . S
O1118 C1088 1.325 . S
O1119 Li1057 1.961 . S
O1119 Li1058 1.970 . S
O1119 Li1059 1.956 . S
O1119 C1094 1.325 . S
H1120 C1062 0.929 . S
H1121 C1063 0.964 . S
H1122 C1064 0.930 . S
H1123 C1065 0.930 . S
H1124 C1067 0.930 . S
H1125 C1069 0.929 1_565 S
H1126 C1070 0.930 . S
H1127 C1071 0.968 . S
H1128 C1074 0.930 . S
H1129 C1077 0.929 . S
H1130 C1082 0.929 . S
H1131 C1083 0.930 . S
H1132 C1090 0.929 . S
H1133 C1091 0.930 . S
H1134 C1092 0.930 . S
H1135 C1093 0.930 . S
H1136 C1095 0.929 . S
H1137 C1096 0.930 . S
H1138 C1097 0.930 . S
H1139 C1098 0.930 . S
H1140 C1102 0.929 . S
H1141 C1104 0.930 . S
H1142 C1110 0.929 . S
H1143 C1111 0.930 . S
Li1144 N1161 1.990 1_655 S
Li1144 O1204 1.956 . S
Li1144 O1205 1.970 . S
Li1144 O1206 1.961 . S
Li1145 N1169 1.990 . S
Li1145 O1204 1.970 . S
Li1145 O1205 1.956 . S
Li1145 O1207 1.961 . S
Li1146 N1191 1.990 . S
Li1146 O1204 1.961 . S
Li1146 O1206 1.956 . S
Li1146 O1207 1.970 . S
Li1147 N1197 1.990 . S
Li1147 O1205 1.961 . S
Li1147 O1206 1.970 . S
Li1147 O1207 1.956 . S
C1148 C1150 1.348 . S
C1148 C1151 1.356 . S
C1148 O1204 1.325 1_455 S
N1149 C1152 1.314 . S
N1149 C1153 1.279 . S
C1150 C1148 1.348 . S
C1150 C1152 1.353 . S
C1150 H1208 0.929 . S
C1151 C1148 1.356 . S
C1151 C1153 1.358 . S
C1151 H1209 0.930 . S
C1152 N1149 1.314 . S
C1152 C1150 1.353 . S
C1152 H1210 0.930 . S
C1153 N1149 1.279 . S
C1153 C1151 1.358 . S
C1153 H1211 0.930 . S
C1154 C1157 1.348 1_655 S
C1154 C1158 1.356 . S
C1154 O1205 1.325 . S
C1155 N1156 1.279 . S
C1155 C1158 1.358 . S
C1155 H1212 0.930 . S
N1156 C1155 1.279 . S
N1156 C1159 1.314 1_655 S
C1157 C1154 1.348 1_455 S
C1157 C1159 1.353 . S
C1157 H1213 0.929 . S
C1158 C1154 1.356 . S
C1158 C1155 1.358 . S
C1158 H1214 0.930 . S
C1159 N1156 1.314 1_455 S
C1159 C1157 1.353 . S
C1159 H1215 0.930 . S
C1160 N1161 1.314 . S
C1160 C1165 1.353 . S
C1160 H1166 0.930 . S
N1161 Li1144 1.990 1_455 S
N1161 C1160 1.314 . S
N1161 C1163 1.279 . S
C1162 C1163 1.358 . S
C1162 C1164 1.356 . S
C1162 H1216 0.930 . S
C1163 N1161 1.279 . S
C1163 C1162 1.358 . S
C1163 H1167 0.930 . S
C1164 C1162 1.356 . S
C1164 C1165 1.348 . S
C1165 C1160 1.353 . S
C1165 C1164 1.348 . S
C1165 H1217 0.929 . S
H1166 C1160 0.930 . S
H1167 C1163 0.930 . S
C1168 N1169 1.314 . S
C1168 C1170 1.353 . S
C1168 H1174 0.930 . S
N1169 Li1145 1.990 . S
N1169 C1168 1.314 . S
N1169 C1172 1.279 . S
C1170 C1168 1.353 . S
C1170 C1173 1.348 . S
C1170 H1218 0.929 . S
C1171 C1172 1.358 . S
C1171 C1173 1.356 . S
C1171 H1219 0.930 . S
C1172 N1169 1.279 . S
C1172 C1171 1.358 . S
C1172 H1175 0.930 . S
C1173 C1170 1.348 . S
C1173 C1171 1.356 . S
H1174 C1168 0.930 . S
H1175 C1172 0.930 . S
C1176 C1178 1.348 . S
C1176 C1179 1.356 . S
C1176 O1206 1.325 . S
N1177 C1180 1.314 . S
N1177 C1181 1.279 . S
C1178 C1176 1.348 . S
C1178 C1180 1.353 . S
C1178 H1220 0.929 . S
C1179 C1176 1.356 . S
C1179 C1181 1.358 . S
C1179 H1221 0.930 . S
C1180 N1177 1.314 . S
C1180 C1178 1.353 . S
C1180 H1222 0.930 . S
C1181 N1177 1.279 . S
C1181 C1179 1.358 . S
C1181 H1223 0.930 . S
C1182 C1183 1.348 . S
C1182 C1184 1.356 . S
C1182 O1207 1.325 . S
C1183 C1182 1.348 . S
C1183 C1185 1.353 . S
C1183 H1224 0.929 . S
C1184 C1182 1.356 . S
C1184 C1186 1.358 . S
C1184 H1225 0.930 . S
C1185 C1183 1.353 . S
C1185 N1187 1.314 . S
C1185 H1226 0.930 . S
C1186 C1184 1.358 . S
C1186 N1187 1.279 . S
C1186 H1227 0.930 . S
N1187 C1185 1.314 . S
N1187 C1186 1.279 . S
C1188 C1190 1.353 . S
C1188 N1191 1.314 . S
C1188 H1194 0.930 . S
C1189 N1191 1.279 . S
C1189 C1192 1.358 . S
C1189 H1195 0.930 . S
C1190 C1188 1.353 . S
C1190 C1193 1.348 . S
C1190 H1228 0.929 . S
N1191 Li1146 1.990 . S
N1191 C1188 1.314 . S
N1191 C1189 1.279 . S
C1192 C1189 1.358 . S
C1192 C1193 1.356 . S
C1192 H1229 0.930 . S
C1193 C1190 1.348 . S
C1193 C1192 1.356 . S
H1194 C1188 0.930 . S
H1195 C1189 0.930 . S
C1196 N1197 1.314 . S
C1196 C1198 1.353 . S
C1196 H1202 0.930 . S
N1197 Li1147 1.990 . S
N1197 C1196 1.314 . S
N1197 C1200 1.279 . S
C1198 C1196 1.353 . S
C1198 C1201 1.348 . S
C1198 H1230 0.929 . S
C1199 C1200 1.358 . S
C1199 C1201 1.356 . S
C1199 H1231 0.930 . S
C1200 N1197 1.279 . S
C1200 C1199 1.358 . S
C1200 H1203 0.930 . S
C1201 C1198 1.348 . S
C1201 C1199 1.356 . S
H1202 C1196 0.930 . S
H1203 C1200 0.930 . S
O1204 Li1144 1.956 . S
O1204 Li1145 1.970 . S
O1204 Li1146 1.961 . S
O1204 C1148 1.325 1_655 S
O1205 Li1144 1.970 . S
O1205 Li1145 1.956 . S
O1205 Li1147 1.961 . S
O1205 C1154 1.325 . S
O1206 Li1144 1.961 . S
O1206 Li1146 1.956 . S
O1206 Li1147 1.970 . S
O1206 C1176 1.325 . S
O1207 Li1145 1.961 . S
O1207 Li1146 1.970 . S
O1207 Li1147 1.956 . S
O1207 C1182 1.325 . S
H1208 C1150 0.929 . S
H1209 C1151 0.930 . S
H1210 C1152 0.930 . S
H1211 C1153 0.930 . S
H1212 C1155 0.930 . S
H1213 C1157 0.929 . S
H1214 C1158 0.930 . S
H1215 C1159 0.930 . S
H1216 C1162 0.930 . S
H1217 C1165 0.929 . S
H1218 C1170 0.929 . S
H1219 C1171 0.930 . S
H1220 C1178 0.929 . S
H1221 C1179 0.930 . S
H1222 C1180 0.930 . S
H1223 C1181 0.930 . S
H1224 C1183 0.929 . S
H1225 C1184 0.930 . S
H1226 C1185 0.930 . S
H1227 C1186 0.930 . S
H1228 C1190 0.929 . S
H1229 C1192 0.930 . S
H1230 C1198 0.929 . S
H1231 C1199 0.930 . S
Li1232 N1249 1.990 . S
Li1232 O1292 1.956 . S
Li1232 O1293 1.970 . S
Li1232 O1294 1.961 . S
Li1233 N1257 1.990 . S
Li1233 O1292 1.970 . S
Li1233 O1293 1.956 . S
Li1233 O1295 1.961 . S
Li1234 N1279 1.990 . S
Li1234 O1292 1.961 . S
Li1234 O1294 1.956 . S
Li1234 O1295 1.970 . S
Li1235 N1285 1.990 . S
Li1235 O1293 1.961 . S
Li1235 O1294 1.970 . S
Li1235 O1295 1.956 . S
C1236 C1238 1.348 . S
C1236 C1239 1.356 . S
C1236 O1292 1.325 . S
N1237 C1240 1.314 . S
N1237 C1241 1.279 . S
C1238 C1236 1.348 . S
C1238 C1240 1.353 . S
C1238 H1296 0.929 . S
C1239 C1236 1.356 . S
C1239 C1241 1.358 . S
C1239 H1297 0.930 . S
C1240 N1237 1.314 . S
C1240 C1238 1.353 . S
C1240 H1298 0.930 . S
C1241 N1237 1.279 . S
C1241 C1239 1.358 . S
C1241 H1299 0.930 . S
C1242 C1245 1.348 . S
C1242 C1246 1.356 . S
C1242 O1293 1.325 . S
C1243 N1244 1.279 . S
C1243 C1246 1.358 . S
C1243 H1300 0.930 . S
N1244 C1243 1.279 . S
N1244 C1247 1.314 . S
C1245 C1242 1.348 . S
C1245 C1247 1.353 . S
C1245 H1301 0.929 . S
C1246 C1242 1.356 . S
C1246 C1243 1.358 . S
C1246 H1302 0.930 . S
C1247 N1244 1.314 . S
C1247 C1245 1.353 . S
C1247 H1303 0.930 . S
C1248 N1249 1.314 . S
C1248 C1253 1.353 . S
C1248 H1254 0.930 . S
N1249 Li1232 1.990 . S
N1249 C1248 1.314 . S
N1249 C1251 1.279 . S
C1250 C1251 1.358 . S
C1250 C1252 1.356 . S
C1250 H1304 0.930 . S
C1251 N1249 1.279 . S
C1251 C1250 1.358 . S
C1251 H1255 0.930 . S
C1252 C1250 1.356 . S
C1252 C1253 1.348 . S
C1253 C1248 1.353 . S
C1253 C1252 1.348 . S
C1253 H1305 0.929 . S
H1254 C1248 0.930 . S
H1255 C1251 0.930 . S
C1256 N1257 1.314 . S
C1256 C1258 1.353 . S
C1256 H1262 0.930 . S
N1257 Li1233 1.990 . S
N1257 C1256 1.314 . S
N1257 C1260 1.279 . S
C1258 C1256 1.353 . S
C1258 C1261 1.348 . S
C1258 H1306 0.929 . S
C1259 C1260 1.358 . S
C1259 C1261 1.356 . S
C1259 H1307 0.930 . S
C1260 N1257 1.279 . S
C1260 C1259 1.358 . S
C1260 H1263 0.930 . S
C1261 C1258 1.348 . S
C1261 C1259 1.356 . S
H1262 C1256 0.930 . S
H1263 C1260 0.930 . S
C1264 C1266 1.348 . S
C1264 C1267 1.356 . S
C1264 O1294 1.325 . S
N1265 C1268 1.314 . S
N1265 C1269 1.279 . S
C1266 C1264 1.348 . S
C1266 C1268 1.353 . S
C1266 H1308 0.929 . S
C1267 C1264 1.356 . S
C1267 C1269 1.358 . S
C1267 H1309 0.930 . S
C1268 N1265 1.314 . S
C1268 C1266 1.353 . S
C1268 H1310 0.930 . S
C1269 N1265 1.279 . S
C1269 C1267 1.358 . S
C1269 H1311 0.930 . S
C1270 C1271 1.348 . S
C1270 C1272 1.356 . S
C1270 O1295 1.325 . S
C1271 C1270 1.348 . S
C1271 C1273 1.353 . S
C1271 H1312 0.929 . S
C1272 C1270 1.356 . S
C1272 C1274 1.358 . S
C1272 H1313 0.930 . S
C1273 C1271 1.353 . S
C1273 N1275 1.314 . S
C1273 H1314 0.930 . S
C1274 C1272 1.358 . S
C1274 N1275 1.279 . S
C1274 H1315 0.930 . S
N1275 C1273 1.314 . S
N1275 C1274 1.279 . S
C1276 C1278 1.353 . S
C1276 N1279 1.314 . S
C1276 H1282 0.930 . S
C1277 N1279 1.279 . S
C1277 C1280 1.358 . S
C1277 H1283 0.930 . S
C1278 C1276 1.353 . S
C1278 C1281 1.348 . S
C1278 H1316 0.929 . S
N1279 Li1234 1.990 . S
N1279 C1276 1.314 . S
N1279 C1277 1.279 . S
C1280 C1277 1.358 . S
C1280 C1281 1.356 . S
C1280 H1317 0.930 . S
C1281 C1278 1.348 . S
C1281 C1280 1.356 . S
H1282 C1276 0.930 . S
H1283 C1277 0.930 . S
C1284 N1285 1.314 . S
C1284 C1286 1.353 . S
C1284 H1290 0.930 . S
N1285 Li1235 1.990 . S
N1285 C1284 1.314 . S
N1285 C1288 1.279 . S
C1286 C1284 1.353 . S
C1286 C1289 1.348 . S
C1286 H1318 0.929 . S
C1287 C1288 1.358 . S
C1287 C1289 1.356 . S
C1287 H1319 0.930 . S
C1288 N1285 1.279 . S
C1288 C1287 1.358 . S
C1288 H1291 0.930 . S
C1289 C1286 1.348 . S
C1289 C1287 1.356 . S
H1290 C1284 0.930 . S
H1291 C1288 0.930 . S
O1292 Li1232 1.956 . S
O1292 Li1233 1.970 . S
O1292 Li1234 1.961 . S
O1292 C1236 1.325 . S
O1293 Li1232 1.970 . S
O1293 Li1233 1.956 . S
O1293 Li1235 1.961 . S
O1293 C1242 1.325 . S
O1294 Li1232 1.961 . S
O1294 Li1234 1.956 . S
O1294 Li1235 1.970 . S
O1294 C1264 1.325 . S
O1295 Li1233 1.961 . S
O1295 Li1234 1.970 . S
O1295 Li1235 1.956 . S
O1295 C1270 1.325 . S
H1296 C1238 0.929 . S
H1297 C1239 0.930 . S
H1298 C1240 0.930 . S
H1299 C1241 0.930 . S
H1300 C1243 0.930 . S
H1301 C1245 0.929 . S
H1302 C1246 0.930 . S
H1303 C1247 0.930 . S
H1304 C1250 0.930 . S
H1305 C1253 0.929 . S
H1306 C1258 0.929 . S
H1307 C1259 0.930 . S
H1308 C1266 0.929 . S
H1309 C1267 0.930 . S
H1310 C1268 0.930 . S
H1311 C1269 0.930 . S
H1312 C1271 0.929 . S
H1313 C1272 0.930 . S
H1314 C1273 0.930 . S
H1315 C1274 0.930 . S
H1316 C1278 0.929 . S
H1317 C1280 0.930 . S
H1318 C1286 0.929 . S
H1319 C1287 0.930 . S
Li1320 N1337 1.990 . S
Li1320 O1380 1.956 . S
Li1320 O1381 1.970 . S
Li1320 O1382 1.961 . S
Li1321 N1345 1.990 . S
Li1321 O1380 1.970 . S
Li1321 O1381 1.956 . S
Li1321 O1383 1.961 . S
Li1322 N1367 1.990 . S
Li1322 O1380 1.961 . S
Li1322 O1382 1.956 . S
Li1322 O1383 1.970 . S
Li1323 N1373 1.990 . S
Li1323 O1381 1.961 . S
Li1323 O1382 1.970 . S
Li1323 O1383 1.956 . S
C1324 C1326 1.348 . S
C1324 C1327 1.356 . S
C1324 O1380 1.325 . S
N1325 C1328 1.314 . S
N1325 C1329 1.279 . S
C1326 C1324 1.348 . S
C1326 C1328 1.353 . S
C1326 H1384 0.929 . S
C1327 C1324 1.356 . S
C1327 C1329 1.358 . S
C1327 H1385 0.930 . S
C1328 N1325 1.314 . S
C1328 C1326 1.353 . S
C1328 H1386 0.930 . S
C1329 N1325 1.279 . S
C1329 C1327 1.358 . S
C1329 H1387 0.930 . S
C1330 C1333 1.348 . S
C1330 C1334 1.356 . S
C1330 O1381 1.325 . S
C1331 N1332 1.279 . S
C1331 C1334 1.358 . S
C1331 H1388 0.930 . S
N1332 C1331 1.279 . S
N1332 C1335 1.314 . S
C1333 C1330 1.348 . S
C1333 C1335 1.353 . S
C1333 H1389 0.929 . S
C1334 C1330 1.356 . S
C1334 C1331 1.358 . S
C1334 H1390 0.930 . S
C1335 N1332 1.314 . S
C1335 C1333 1.353 . S
C1335 H1391 0.930 . S
C1336 N1337 1.314 . S
C1336 C1341 1.353 . S
C1336 H1342 0.930 . S
N1337 Li1320 1.990 . S
N1337 C1336 1.314 . S
N1337 C1339 1.279 . S
C1338 C1339 1.358 . S
C1338 C1340 1.356 . S
C1338 H1392 0.930 . S
C1339 N1337 1.279 . S
C1339 C1338 1.358 . S
C1339 H1343 0.930 . S
C1340 C1338 1.356 . S
C1340 C1341 1.348 . S
C1341 C1336 1.353 . S
C1341 C1340 1.348 . S
C1341 H1393 0.929 . S
H1342 C1336 0.930 . S
H1343 C1339 0.930 . S
C1344 N1345 1.314 . S
C1344 C1346 1.353 . S
C1344 H1350 0.930 . S
N1345 Li1321 1.990 . S
N1345 C1344 1.314 . S
N1345 C1348 1.279 . S
C1346 C1344 1.353 . S
C1346 C1349 1.348 . S
C1346 H1394 0.929 . S
C1347 C1348 1.358 . S
C1347 C1349 1.356 . S
C1347 H1395 0.930 . S
C1348 N1345 1.279 . S
C1348 C1347 1.358 . S
C1348 H1351 0.930 . S
C1349 C1346 1.348 . S
C1349 C1347 1.356 . S
H1350 C1344 0.930 . S
H1351 C1348 0.930 . S
C1352 C1354 1.348 . S
C1352 C1355 1.356 . S
C1352 O1382 1.325 . S
N1353 C1356 1.314 . S
N1353 C1357 1.279 . S
C1354 C1352 1.348 . S
C1354 C1356 1.353 . S
C1354 H1396 0.929 . S
C1355 C1352 1.356 . S
C1355 C1357 1.358 . S
C1355 H1397 0.930 . S
C1356 N1353 1.314 . S
C1356 C1354 1.353 . S
C1356 H1398 0.930 . S
C1357 N1353 1.279 . S
C1357 C1355 1.358 . S
C1357 H1399 0.930 . S
C1358 C1359 1.348 . S
C1358 C1360 1.356 . S
C1358 O1383 1.325 . S
C1359 C1358 1.348 . S
C1359 C1361 1.353 . S
C1359 H1400 0.929 . S
C1360 C1358 1.356 . S
C1360 C1362 1.358 . S
C1360 H1401 0.930 . S
C1361 C1359 1.353 . S
C1361 N1363 1.314 . S
C1361 H1402 0.930 . S
C1362 C1360 1.358 . S
C1362 N1363 1.279 . S
C1362 H1403 0.930 . S
N1363 C1361 1.314 . S
N1363 C1362 1.279 . S
C1364 C1366 1.353 . S
C1364 N1367 1.314 . S
C1364 H1370 0.930 . S
C1365 N1367 1.279 . S
C1365 C1368 1.358 . S
C1365 H1371 0.930 . S
C1366 C1364 1.353 . S
C1366 C1369 1.348 . S
C1366 H1404 0.929 . S
N1367 Li1322 1.990 . S
N1367 C1364 1.314 . S
N1367 C1365 1.279 . S
C1368 C1365 1.358 . S
C1368 C1369 1.356 . S
C1368 H1405 0.930 . S
C1369 C1366 1.348 . S
C1369 C1368 1.356 . S
H1370 C1364 0.930 . S
H1371 C1365 0.930 . S
C1372 N1373 1.314 . S
C1372 C1374 1.353 . S
C1372 H1378 0.930 . S
N1373 Li1323 1.990 . S
N1373 C1372 1.314 . S
N1373 C1376 1.279 . S
C1374 C1372 1.353 . S
C1374 C1377 1.348 . S
C1374 H1406 0.929 . S
C1375 C1376 1.358 . S
C1375 C1377 1.356 . S
C1375 H1407 0.930 . S
C1376 N1373 1.279 . S
C1376 C1375 1.358 . S
C1376 H1379 0.930 . S
C1377 C1374 1.348 . S
C1377 C1375 1.356 . S
H1378 C1372 0.930 . S
H1379 C1376 0.930 . S
O1380 Li1320 1.956 . S
O1380 Li1321 1.970 . S
O1380 Li1322 1.961 . S
O1380 C1324 1.325 . S
O1381 Li1320 1.970 . S
O1381 Li1321 1.956 . S
O1381 Li1323 1.961 . S
O1381 C1330 1.325 . S
O1382 Li1320 1.961 . S
O1382 Li1322 1.956 . S
O1382 Li1323 1.970 . S
O1382 C1352 1.325 . S
O1383 Li1321 1.961 . S
O1383 Li1322 1.970 . S
O1383 Li1323 1.956 . S
O1383 C1358 1.325 . S
H1384 C1326 0.929 . S
H1385 C1327 0.930 . S
H1386 C1328 0.930 . S
H1387 C1329 0.930 . S
H1388 C1331 0.930 . S
H1389 C1333 0.929 . S
H1390 C1334 0.930 . S
H1391 C1335 0.930 . S
H1392 C1338 0.930 . S
H1393 C1341 0.929 . S
H1394 C1346 0.929 . S
H1395 C1347 0.930 . S
H1396 C1354 0.929 . S
H1397 C1355 0.930 . S
H1398 C1356 0.930 . S
H1399 C1357 0.930 . S
H1400 C1359 0.929 . S
H1401 C1360 0.930 . S
H1402 C1361 0.930 . S
H1403 C1362 0.930 . S
H1404 C1366 0.929 . S
H1405 C1368 0.930 . S
H1406 C1374 0.929 . S
H1407 C1375 0.930 . S
Li1408 N1425 1.990 . S
Li1408 O1468 1.956 . S
Li1408 O1469 1.970 . S
Li1408 O1470 1.961 . S
Li1409 N1433 1.990 . S
Li1409 O1468 1.970 . S
Li1409 O1469 1.956 . S
Li1409 O1471 1.961 . S
Li1410 N1455 1.990 . S
Li1410 O1468 1.961 . S
Li1410 O1470 1.956 . S
Li1410 O1471 1.970 . S
Li1411 N1461 1.990 1_545 S
Li1411 O1469 1.961 . S
Li1411 O1470 1.970 . S
Li1411 O1471 1.956 . S
C1412 C1414 1.348 . S
C1412 C1415 1.356 . S
C1412 O1468 1.325 . S
N1413 C1416 1.314 . S
N1413 C1417 1.279 . S
C1414 C1412 1.348 . S
C1414 C1416 1.353 . S
C1414 H1472 0.929 . S
C1415 C1412 1.356 . S
C1415 C1417 1.358 . S
C1415 H1473 0.930 . S
C1416 N1413 1.314 . S
C1416 C1414 1.353 . S
C1416 H1474 0.930 . S
C1417 N1413 1.279 . S
C1417 C1415 1.358 . S
C1417 H1475 0.930 . S
C1418 C1421 1.369 . S
C1418 C1422 1.364 . S
C1418 O1469 1.320 1_565 S
C1419 N1420 1.279 . S
C1419 C1422 1.358 . S
C1419 H1476 0.930 . S
N1420 C1419 1.279 . S
N1420 C1423 1.314 . S
C1421 C1418 1.369 . S
C1421 C1423 1.406 . S
C1421 H1477 0.857 1_565 S
C1422 C1418 1.364 . S
C1422 C1419 1.358 . S
C1422 H1478 0.930 . S
C1423 N1420 1.314 . S
C1423 C1421 1.406 . S
C1423 H1479 0.930 . S
C1424 N1425 1.314 . S
C1424 C1429 1.353 . S
C1424 H1430 0.930 . S
N1425 Li1408 1.990 . S
N1425 C1424 1.314 . S
N1425 C1427 1.279 . S
C1426 C1427 1.358 . S
C1426 C1428 1.356 . S
C1426 H1480 0.930 . S
C1427 N1425 1.279 . S
C1427 C1426 1.358 . S
C1427 H1431 0.930 . S
C1428 C1426 1.356 . S
C1428 C1429 1.348 . S
C1429 C1424 1.353 . S
C1429 C1428 1.348 . S
C1429 H1481 0.929 . S
H1430 C1424 0.930 . S
H1431 C1427 0.930 . S
C1432 N1433 1.314 . S
C1432 C1434 1.353 . S
C1432 H1438 0.930 . S
N1433 Li1409 1.990 . S
N1433 C1432 1.314 . S
N1433 C1436 1.279 . S
C1434 C1432 1.353 . S
C1434 C1437 1.348 . S
C1434 H1482 0.929 . S
C1435 C1436 1.358 . S
C1435 C1437 1.356 . S
C1435 H1483 0.930 . S
C1436 N1433 1.279 . S
C1436 C1435 1.358 . S
C1436 H1439 0.930 . S
C1437 C1434 1.348 . S
C1437 C1435 1.356 . S
H1438 C1432 0.930 . S
H1439 C1436 0.930 . S
C1440 C1442 1.348 . S
C1440 C1443 1.356 . S
C1440 O1470 1.325 . S
N1441 C1444 1.314 . S
N1441 C1445 1.279 . S
C1442 C1440 1.348 . S
C1442 C1444 1.353 . S
C1442 H1484 0.896 1_545 S
C1443 C1440 1.356 . S
C1443 C1445 1.358 . S
C1443 H1485 0.930 . S
C1444 N1441 1.314 . S
C1444 C1442 1.353 . S
C1444 H1486 0.930 1_545 S
C1445 N1441 1.279 . S
C1445 C1443 1.358 . S
C1445 H1487 0.930 . S
C1446 C1447 1.348 . S
C1446 C1448 1.356 . S
C1446 O1471 1.325 . S
C1447 C1446 1.348 . S
C1447 C1449 1.353 . S
C1447 H1488 0.929 . S
C1448 C1446 1.356 . S
C1448 C1450 1.358 . S
C1448 H1489 0.930 . S
C1449 C1447 1.353 . S
C1449 N1451 1.314 . S
C1449 H1490 0.930 . S
C1450 C1448 1.358 . S
C1450 N1451 1.279 . S
C1450 H1491 0.930 . S
N1451 C1449 1.314 . S
N1451 C1450 1.279 . S
C1452 C1454 1.353 . S
C1452 N1455 1.314 . S
C1452 H1458 0.930 . S
C1453 N1455 1.279 . S
C1453 C1456 1.358 . S
C1453 H1459 0.930 . S
C1454 C1452 1.353 . S
C1454 C1457 1.348 . S
C1454 H1492 0.929 . S
N1455 Li1410 1.990 . S
N1455 C1452 1.314 . S
N1455 C1453 1.279 . S
C1456 C1453 1.358 . S
C1456 C1457 1.356 . S
C1456 H1493 0.930 . S
C1457 C1454 1.348 . S
C1457 C1456 1.356 . S
H1458 C1452 0.930 . S
H1459 C1453 0.930 . S
C1460 N1461 1.314 . S
C1460 C1462 1.353 . S
C1460 H1466 0.930 . S
N1461 Li1411 1.990 1_565 S
N1461 C1460 1.314 . S
N1461 C1464 1.279 . S
C1462 C1460 1.353 . S
C1462 C1465 1.348 . S
C1462 H1494 0.929 . S
C1463 C1464 1.358 . S
C1463 C1465 1.356 . S
C1463 H1495 0.930 . S
C1464 N1461 1.279 . S
C1464 C1463 1.358 . S
C1464 H1467 0.930 . S
C1465 C1462 1.348 . S
C1465 C1463 1.356 . S
H1466 C1460 0.930 . S
H1467 C1464 0.930 . S
O1468 Li1408 1.956 . S
O1468 Li1409 1.970 . S
O1468 Li1410 1.961 . S
O1468 C1412 1.325 . S
O1469 Li1408 1.970 . S
O1469 Li1409 1.956 . S
O1469 Li1411 1.961 . S
O1469 C1418 1.320 1_545 S
O1470 Li1408 1.961 . S
O1470 Li1410 1.956 . S
O1470 Li1411 1.970 . S
O1470 C1440 1.325 . S
O1471 Li1409 1.961 . S
O1471 Li1410 1.970 . S
O1471 Li1411 1.956 . S
O1471 C1446 1.325 . S
H1472 C1414 0.929 . S
H1473 C1415 0.930 . S
H1474 C1416 0.930 . S
H1475 C1417 0.930 . S
H1476 C1419 0.930 . S
H1477 C1421 0.857 1_545 S
H1478 C1422 0.930 . S
H1479 C1423 0.930 . S
H1480 C1426 0.930 . S
H1481 C1429 0.929 . S
H1482 C1434 0.929 . S
H1483 C1435 0.930 . S
H1484 C1442 0.896 1_565 S
H1485 C1443 0.930 . S
H1486 C1444 0.930 1_565 S
H1487 C1445 0.930 . S
H1488 C1447 0.929 . S
H1489 C1448 0.930 . S
H1490 C1449 0.930 . S
H1491 C1450 0.930 . S
H1492 C1454 0.929 . S
H1493 C1456 0.930 . S
H1494 C1462 0.929 . S
H1495 C1463 0.930 . S
Li1496 N1513 1.990 . S
Li1496 O1556 1.956 . S
Li1496 O1557 1.970 . S
Li1496 O1558 1.961 . S
Li1497 N1521 1.990 . S
Li1497 O1556 1.970 . S
Li1497 O1557 1.956 . S
Li1497 O1559 1.961 . S
Li1498 N1543 1.990 1_655 S
Li1498 O1556 1.961 . S
Li1498 O1558 1.956 . S
Li1498 O1559 1.970 . S
Li1499 N1549 1.990 . S
Li1499 O1557 1.961 . S
Li1499 O1558 1.970 . S
Li1499 O1559 1.956 . S
C1500 C1502 1.388 . S
C1500 C1503 1.356 1_655 S
C1500 O1556 1.325 . S
N1501 C1504 1.314 . S
N1501 C1505 1.279 . S
C1502 C1500 1.388 . S
C1502 C1504 1.300 1_655 S
C1502 H1560 0.953 . S
C1503 C1500 1.356 1_455 S
C1503 C1505 1.358 . S
C1503 H1561 0.930 . S
C1504 N1501 1.314 . S
C1504 C1502 1.300 1_455 S
C1504 H1562 0.930 . S
C1505 N1501 1.279 . S
C1505 C1503 1.358 . S
C1505 H1563 0.930 . S
C1506 C1509 1.348 . S
C1506 C1510 1.356 . S
C1506 O1557 1.325 . S
C1507 N1508 1.279 . S
C1507 C1510 1.358 . S
C1507 H1564 0.930 . S
N1508 C1507 1.279 . S
N1508 C1511 1.314 . S
C1509 C1506 1.348 . S
C1509 C1511 1.353 . S
C1509 H1565 0.929 . S
C1510 C1506 1.356 . S
C1510 C1507 1.358 . S
C1510 H1566 0.930 . S
C1511 N1508 1.314 . S
C1511 C1509 1.353 . S
C1511 H1567 0.930 . S
C1512 N1513 1.314 . S
C1512 C1517 1.353 . S
C1512 H1518 0.930 . S
N1513 Li1496 1.990 . S
N1513 C1512 1.314 . S
N1513 C1515 1.279 . S
C1514 C1515 1.358 . S
C1514 C1516 1.356 . S
C1514 H1568 0.930 . S
C1515 N1513 1.279 . S
C1515 C1514 1.358 . S
C1515 H1519 0.930 . S
C1516 C1514 1.356 . S
C1516 C1517 1.348 . S
C1517 C1512 1.353 . S
C1517 C1516 1.348 . S
C1517 H1569 0.929 . S
H1518 C1512 0.930 . S
H1519 C1515 0.930 . S
C1520 N1521 1.314 . S
C1520 C1522 1.353 . S
C1520 H1526 0.930 . S
N1521 Li1497 1.990 . S
N1521 C1520 1.314 . S
N1521 C1524 1.279 . S
C1522 C1520 1.353 . S
C1522 C1525 1.348 . S
C1522 H1570 0.929 . S
C1523 C1524 1.358 . S
C1523 C1525 1.356 . S
C1523 H1571 0.930 . S
C1524 N1521 1.279 . S
C1524 C1523 1.358 . S
C1524 H1527 0.930 . S
C1525 C1522 1.348 . S
C1525 C1523 1.356 . S
H1526 C1520 0.930 . S
H1527 C1524 0.930 . S
C1528 C1530 1.348 . S
C1528 C1531 1.356 . S
C1528 O1558 1.325 . S
N1529 C1532 1.314 . S
N1529 C1533 1.279 . S
C1530 C1528 1.348 . S
C1530 C1532 1.353 . S
C1530 H1572 0.929 . S
C1531 C1528 1.356 . S
C1531 C1533 1.358 . S
C1531 H1573 0.930 . S
C1532 N1529 1.314 . S
C1532 C1530 1.353 . S
C1532 H1574 0.930 . S
C1533 N1529 1.279 . S
C1533 C1531 1.358 . S
C1533 H1575 0.930 . S
C1534 C1535 1.348 . S
C1534 C1536 1.356 . S
C1534 O1559 1.325 . S
C1535 C1534 1.348 . S
C1535 C1537 1.353 . S
C1535 H1576 0.929 . S
C1536 C1534 1.356 . S
C1536 C1538 1.358 . S
C1536 H1577 0.930 . S
C1537 C1535 1.353 . S
C1537 N1539 1.314 . S
C1537 H1578 0.930 1_655 S
C1538 C1536 1.358 . S
C1538 N1539 1.279 . S
C1538 H1579 0.930 . S
N1539 C1537 1.314 . S
N1539 C1538 1.279 . S
C1540 C1542 1.353 . S
C1540 N1543 1.314 . S
C1540 H1546 0.930 . S
C1541 N1543 1.279 . S
C1541 C1544 1.358 . S
C1541 H1547 0.930 . S
C1542 C1540 1.353 . S
C1542 C1545 1.348 . S
C1542 H1580 0.929 . S
N1543 Li1498 1.990 1_455 S
N1543 C1540 1.314 . S
N1543 C1541 1.279 . S
C1544 C1541 1.358 . S
C1544 C1545 1.356 . S
C1544 H1581 0.930 . S
C1545 C1542 1.348 . S
C1545 C1544 1.356 . S
H1546 C1540 0.930 . S
H1547 C1541 0.930 . S
C1548 N1549 1.314 . S
C1548 C1550 1.353 . S
C1548 H1554 0.930 . S
N1549 Li1499 1.990 . S
N1549 C1548 1.314 . S
N1549 C1552 1.279 . S
C1550 C1548 1.353 . S
C1550 C1553 1.348 . S
C1550 H1582 0.929 . S
C1551 C1552 1.358 . S
C1551 C1553 1.356 . S
C1551 H1583 0.930 . S
C1552 N1549 1.279 . S
C1552 C1551 1.358 . S
C1552 H1555 0.930 . S
C1553 C1550 1.348 . S
C1553 C1551 1.356 . S
H1554 C1548 0.930 . S
H1555 C1552 0.930 . S
O1556 Li1496 1.956 . S
O1556 Li1497 1.970 . S
O1556 Li1498 1.961 . S
O1556 C1500 1.325 . S
O1557 Li1496 1.970 . S
O1557 Li1497 1.956 . S
O1557 Li1499 1.961 . S
O1557 C1506 1.325 . S
O1558 Li1496 1.961 . S
O1558 Li1498 1.956 . S
O1558 Li1499 1.970 . S
O1558 C1528 1.325 . S
O1559 Li1497 1.961 . S
O1559 Li1498 1.970 . S
O1559 Li1499 1.956 . S
O1559 C1534 1.325 . S
H1560 C1502 0.953 . S
H1561 C1503 0.930 . S
H1562 C1504 0.930 . S
H1563 C1505 0.930 . S
H1564 C1507 0.930 . S
H1565 C1509 0.929 . S
H1566 C1510 0.930 . S
H1567 C1511 0.930 . S
H1568 C1514 0.930 . S
H1569 C1517 0.929 . S
H1570 C1522 0.929 . S
H1571 C1523 0.930 . S
H1572 C1530 0.929 . S
H1573 C1531 0.930 . S
H1574 C1532 0.930 . S
H1575 C1533 0.930 . S
H1576 C1535 0.929 . S
H1577 C1536 0.930 . S
H1578 C1537 0.930 1_455 S
H1579 C1538 0.930 . S
H1580 C1542 0.929 . S
H1581 C1544 0.930 . S
H1582 C1550 0.929 . S
H1583 C1551 0.930 . S
C1584 C1585 1.560 . S
C1584 H1645 0.959 . S
C1584 H1646 0.959 . S
C1584 H1647 0.960 . S
C1585 C1584 1.560 . S
C1585 O1640 1.426 . S
C1585 H1644 0.980 . S
C1586 C1587 1.407 . S
C1586 C1591 1.418 . S
C1586 O1640 1.334 . S
C1587 C1586 1.407 . S
C1587 C1588 1.360 . S
C1587 H1648 0.929 . S
C1588 C1587 1.360 . S
C1588 C1589 1.401 . S
C1588 C1592 1.527 . S
C1589 C1588 1.401 . S
C1589 C1590 1.405 . S
C1589 C1622 1.587 . S
C1590 C1589 1.405 . S
C1590 C1591 1.332 . S
C1590 C1593 1.496 . S
C1591 C1586 1.418 . S
C1591 C1590 1.332 . S
C1591 H1649 0.929 . S
C1592 C1588 1.527 . S
C1592 H1650 0.959 . S
C1592 H1651 0.961 . S
C1592 H1652 0.961 . S
C1593 C1590 1.496 . S
C1593 H1653 0.960 . S
C1593 H1654 0.960 . S
C1593 H1655 0.961 . S
C1594 C1595 1.517 . S
C1594 H1657 0.961 . S
C1594 H1658 0.960 . S
C1594 H1659 0.959 . S
C1595 C1594 1.517 . S
C1595 O1643 1.468 . S
C1595 H1656 0.980 . S
C1596 C1597 1.349 . S
C1596 C1601 1.367 . S
C1596 O1643 1.408 . S
C1597 C1596 1.349 . S
C1597 C1598 1.407 . S
C1597 H1660 0.930 . S
C1598 C1597 1.407 . S
C1598 C1599 1.449 . S
C1598 C1602 1.535 . S
C1599 C1598 1.449 . S
C1599 C1600 1.384 . S
C1599 C1624 1.553 . S
C1600 C1599 1.384 . S
C1600 C1601 1.364 . S
C1600 C1603 1.450 . S
C1601 C1596 1.367 . S
C1601 C1600 1.364 . S
C1601 H1661 0.931 . S
C1602 C1598 1.535 . S
C1602 H1662 0.959 . S
C1602 H1663 0.961 . S
C1602 H1664 0.959 . S
C1603 C1600 1.450 . S
C1603 H1665 0.960 . S
C1603 H1666 0.960 . S
C1603 H1667 0.960 . S
C1604 C1605 1.309 . S
C1604 C1609 1.304 . S
C1604 O1642 1.435 . S
C1605 C1604 1.309 . S
C1605 C1606 1.476 . S
C1605 H1669 0.930 . S
C1606 C1605 1.476 . S
C1606 C1607 1.400 . S
C1606 C1610 1.567 . S
C1607 C1606 1.400 . S
C1607 C1608 1.373 . S
C1607 C1629 1.432 . S
C1608 C1607 1.373 . S
C1608 C1609 1.339 . S
C1608 C1611 1.530 . S
C1609 C1604 1.304 . S
C1609 C1608 1.339 . S
C1609 H1670 0.930 . S
C1610 C1606 1.567 . S
C1610 H1671 0.961 . S
C1610 H1672 0.960 . S
C1610 H1673 0.958 . S
C1611 C1608 1.530 . S
C1611 H1674 0.961 . S
C1611 H1675 0.960 . S
C1611 H1676 0.960 . S
C1612 C1613 1.530 . S
C1612 H1678 0.961 . S
C1612 H1679 0.961 . S
C1612 H1680 0.959 . S
C1613 C1612 1.530 . S
C1613 O1641 1.412 . S
C1613 H1677 0.980 . S
C1614 C1615 1.288 . S
C1614 C1619 1.377 . S
C1614 O1641 1.393 . S
C1615 C1614 1.288 . S
C1615 C1616 1.369 . S
C1615 H1681 0.932 . S
C1616 C1615 1.369 . S
C1616 C1617 1.398 . S
C1616 C1620 1.527 . S
C1617 C1616 1.398 . S
C1617 C1618 1.380 . S
C1617 C1631 1.497 . S
C1618 C1617 1.380 . S
C1618 C1619 1.383 . S
C1618 C1621 1.603 . S
C1619 C1614 1.377 . S
C1619 C1618 1.383 . S
C1619 H1682 0.929 . S
C1620 C1616 1.527 . S
C1620 H1683 0.961 . S
C1620 H1684 0.959 . S
C1620 H1685 0.959 . S
C1621 C1618 1.603 . S
C1621 H1686 0.960 . S
C1621 H1687 0.962 . S
C1621 H1688 0.961 . S
C1622 C1589 1.587 . S
C1622 C1623 1.360 . S
C1622 C1635 1.412 . S
C1623 C1622 1.360 . S
C1623 C1624 1.365 . S
C1623 H1689 0.929 . S
C1624 C1599 1.553 . S
C1624 C1623 1.365 . S
C1624 C1625 1.404 . S
C1625 C1624 1.404 . S
C1625 C1626 1.395 . S
C1625 C1636 1.451 . S
C1626 C1625 1.395 . S
C1626 C1627 1.322 . S
C1626 H1690 0.930 . S
C1627 C1626 1.322 . S
C1627 C1628 1.459 . S
C1627 H1691 0.929 . S
C1628 C1627 1.459 . S
C1628 C1629 1.445 . S
C1628 C1637 1.395 . S
C1629 C1607 1.432 . S
C1629 C1628 1.445 . S
C1629 C1630 1.370 . S
C1630 C1629 1.370 . S
C1630 C1631 1.438 . S
C1630 H1692 0.930 . S
C1631 C1617 1.497 . S
C1631 C1630 1.438 . S
C1631 C1632 1.360 . S
C1632 C1631 1.360 . S
C1632 C1633 1.401 . S
C1632 C1637 1.446 . S
C1633 C1632 1.401 . S
C1633 C1634 1.347 . S
C1633 H1693 0.929 . S
C1634 C1633 1.347 . S
C1634 C1635 1.455 . S
C1634 H1694 0.930 . S
C1635 C1622 1.412 . S
C1635 C1634 1.455 . S
C1635 C1636 1.331 . S
C1636 C1625 1.451 . S
C1636 C1635 1.331 . S
C1636 C1637 1.497 . S
C1637 C1628 1.395 . S
C1637 C1632 1.446 . S
C1637 C1636 1.497 . S
C1638 C1639 1.582 . S
C1638 H1695 0.962 . S
C1638 H1696 0.959 . S
C1638 H1697 0.958 . S
C1639 C1638 1.582 . S
C1639 O1642 1.458 . S
C1639 H1668 0.980 . S
O1640 C1585 1.426 . S
O1640 C1586 1.334 . S
O1641 C1613 1.412 . S
O1641 C1614 1.393 . S
O1642 C1604 1.435 . S
O1642 C1639 1.458 . S
O1643 C1595 1.468 . S
O1643 C1596 1.408 . S
H1644 C1585 0.980 . S
H1645 C1584 0.959 . S
H1646 C1584 0.959 . S
H1647 C1584 0.960 . S
H1648 C1587 0.929 . S
H1649 C1591 0.929 . S
H1650 C1592 0.959 . S
H1651 C1592 0.961 . S
H1652 C1592 0.961 . S
H1653 C1593 0.960 . S
H1654 C1593 0.960 . S
H1655 C1593 0.961 . S
H1656 C1595 0.980 . S
H1657 C1594 0.961 . S
H1658 C1594 0.960 . S
H1659 C1594 0.959 . S
H1660 C1597 0.930 . S
H1661 C1601 0.931 . S
H1662 C1602 0.959 . S
H1663 C1602 0.961 . S
H1664 C1602 0.959 . S
H1665 C1603 0.960 . S
H1666 C1603 0.960 . S
H1667 C1603 0.960 . S
H1668 C1639 0.980 . S
H1669 C1605 0.930 . S
H1670 C1609 0.930 . S
H1671 C1610 0.961 . S
H1672 C1610 0.960 . S
H1673 C1610 0.958 . S
H1674 C1611 0.961 . S
H1675 C1611 0.960 . S
H1676 C1611 0.960 . S
H1677 C1613 0.980 . S
H1678 C1612 0.961 . S
H1679 C1612 0.961 . S
H1680 C1612 0.959 . S
H1681 C1615 0.932 . S
H1682 C1619 0.929 . S
H1683 C1620 0.961 . S
H1684 C1620 0.959 . S
H1685 C1620 0.959 . S
H1686 C1621 0.960 . S
H1687 C1621 0.962 . S
H1688 C1621 0.961 . S
H1689 C1623 0.929 . S
H1690 C1626 0.930 . S
H1691 C1627 0.929 . S
H1692 C1630 0.930 . S
H1693 C1633 0.929 . S
H1694 C1634 0.930 . S
H1695 C1638 0.962 . S
H1696 C1638 0.959 . S
H1697 C1638 0.958 . S
C1698 C1699 1.560 . S
C1698 H1759 0.959 . S
C1698 H1760 0.959 . S
C1698 H1761 0.960 . S
C1699 C1698 1.560 . S
C1699 O1754 1.426 . S
C1699 H1758 0.980 . S
C1700 C1701 1.407 . S
C1700 C1705 1.418 . S
C1700 O1754 1.334 . S
C1701 C1700 1.407 . S
C1701 C1702 1.360 . S
C1701 H1762 0.929 . S
C1702 C1701 1.360 . S
C1702 C1703 1.401 . S
C1702 C1706 1.527 . S
C1703 C1702 1.401 . S
C1703 C1704 1.405 . S
C1703 C1736 1.587 . S
C1704 C1703 1.405 . S
C1704 C1705 1.332 . S
C1704 C1707 1.496 . S
C1705 C1700 1.418 . S
C1705 C1704 1.332 . S
C1705 H1763 0.929 . S
C1706 C1702 1.527 . S
C1706 H1764 0.959 . S
C1706 H1765 0.961 . S
C1706 H1766 0.961 . S
C1707 C1704 1.496 . S
C1707 H1767 0.960 . S
C1707 H1768 0.960 . S
C1707 H1769 0.961 . S
C1708 C1709 1.517 . S
C1708 H1771 0.961 . S
C1708 H1772 0.960 . S
C1708 H1773 0.959 . S
C1709 C1708 1.517 . S
C1709 O1757 1.468 . S
C1709 H1770 0.980 . S
C1710 C1711 1.349 . S
C1710 C1715 1.367 . S
C1710 O1757 1.408 . S
C1711 C1710 1.349 . S
C1711 C1712 1.407 . S
C1711 H1774 0.930 . S
C1712 C1711 1.407 . S
C1712 C1713 1.449 . S
C1712 C1716 1.535 . S
C1713 C1712 1.449 . S
C1713 C1714 1.384 . S
C1713 C1738 1.553 . S
C1714 C1713 1.384 . S
C1714 C1715 1.364 . S
C1714 C1717 1.450 . S
C1715 C1710 1.367 . S
C1715 C1714 1.364 . S
C1715 H1775 0.931 . S
C1716 C1712 1.535 . S
C1716 H1776 0.959 . S
C1716 H1777 0.961 . S
C1716 H1778 0.959 . S
C1717 C1714 1.450 . S
C1717 H1779 0.960 . S
C1717 H1780 0.960 . S
C1717 H1781 0.960 . S
C1718 C1719 1.309 . S
C1718 C1723 1.304 . S
C1718 O1756 1.435 . S
C1719 C1718 1.309 . S
C1719 C1720 1.476 . S
C1719 H1783 0.930 . S
C1720 C1719 1.476 . S
C1720 C1721 1.400 . S
C1720 C1724 1.567 . S
C1721 C1720 1.400 . S
C1721 C1722 1.373 . S
C1721 C1743 1.432 . S
C1722 C1721 1.373 . S
C1722 C1723 1.339 . S
C1722 C1725 1.530 . S
C1723 C1718 1.304 . S
C1723 C1722 1.339 . S
C1723 H1784 0.930 . S
C1724 C1720 1.567 . S
C1724 H1785 0.961 . S
C1724 H1786 0.960 . S
C1724 H1787 0.958 . S
C1725 C1722 1.530 . S
C1725 H1788 0.961 . S
C1725 H1789 0.960 . S
C1725 H1790 0.960 . S
C1726 C1727 1.530 . S
C1726 H1792 0.961 . S
C1726 H1793 0.961 . S
C1726 H1794 0.959 . S
C1727 C1726 1.530 . S
C1727 O1755 1.412 . S
C1727 H1791 0.980 . S
C1728 C1729 1.288 . S
C1728 C1733 1.377 . S
C1728 O1755 1.393 . S
C1729 C1728 1.288 . S
C1729 C1730 1.369 . S
C1729 H1795 0.932 . S
C1730 C1729 1.369 . S
C1730 C1731 1.398 . S
C1730 C1734 1.527 . S
C1731 C1730 1.398 . S
C1731 C1732 1.380 . S
C1731 C1745 1.497 . S
C1732 C1731 1.380 . S
C1732 C1733 1.383 . S
C1732 C1735 1.603 . S
C1733 C1728 1.377 . S
C1733 C1732 1.383 . S
C1733 H1796 0.929 . S
C1734 C1730 1.527 . S
C1734 H1797 0.961 . S
C1734 H1798 0.959 . S
C1734 H1799 0.959 . S
C1735 C1732 1.603 . S
C1735 H1800 0.960 . S
C1735 H1801 0.962 . S
C1735 H1802 0.961 . S
C1736 C1703 1.587 . S
C1736 C1737 1.360 . S
C1736 C1749 1.412 . S
C1737 C1736 1.360 . S
C1737 C1738 1.365 . S
C1737 H1803 0.929 . S
C1738 C1713 1.553 . S
C1738 C1737 1.365 . S
C1738 C1739 1.404 . S
C1739 C1738 1.404 . S
C1739 C1740 1.395 . S
C1739 C1750 1.451 . S
C1740 C1739 1.395 . S
C1740 C1741 1.322 . S
C1740 H1804 0.930 . S
C1741 C1740 1.322 . S
C1741 C1742 1.459 . S
C1741 H1805 0.929 . S
C1742 C1741 1.459 . S
C1742 C1743 1.445 . S
C1742 C1751 1.395 . S
C1743 C1721 1.432 . S
C1743 C1742 1.445 . S
C1743 C1744 1.370 . S
C1744 C1743 1.370 . S
C1744 C1745 1.438 . S
C1744 H1806 0.930 . S
C1745 C1731 1.497 . S
C1745 C1744 1.438 . S
C1745 C1746 1.360 . S
C1746 C1745 1.360 . S
C1746 C1747 1.401 . S
C1746 C1751 1.446 . S
C1747 C1746 1.401 . S
C1747 C1748 1.347 . S
C1747 H1807 0.929 . S
C1748 C1747 1.347 . S
C1748 C1749 1.455 . S
C1748 H1808 0.930 . S
C1749 C1736 1.412 . S
C1749 C1748 1.455 . S
C1749 C1750 1.331 . S
C1750 C1739 1.451 . S
C1750 C1749 1.331 . S
C1750 C1751 1.497 . S
C1751 C1742 1.395 . S
C1751 C1746 1.446 . S
C1751 C1750 1.497 . S
C1752 C1753 1.582 . S
C1752 H1809 0.962 . S
C1752 H1810 0.959 . S
C1752 H1811 0.958 . S
C1753 C1752 1.582 . S
C1753 O1756 1.458 . S
C1753 H1782 0.980 . S
O1754 C1699 1.426 . S
O1754 C1700 1.334 . S
O1755 C1727 1.412 . S
O1755 C1728 1.393 . S
O1756 C1718 1.435 . S
O1756 C1753 1.458 . S
O1757 C1709 1.468 . S
O1757 C1710 1.408 . S
H1758 C1699 0.980 . S
H1759 C1698 0.959 . S
H1760 C1698 0.959 . S
H1761 C1698 0.960 . S
H1762 C1701 0.929 . S
H1763 C1705 0.929 . S
H1764 C1706 0.959 . S
H1765 C1706 0.961 . S
H1766 C1706 0.961 . S
H1767 C1707 0.960 . S
H1768 C1707 0.960 . S
H1769 C1707 0.961 . S
H1770 C1709 0.980 . S
H1771 C1708 0.961 . S
H1772 C1708 0.960 . S
H1773 C1708 0.959 . S
H1774 C1711 0.930 . S
H1775 C1715 0.931 . S
H1776 C1716 0.959 . S
H1777 C1716 0.961 . S
H1778 C1716 0.959 . S
H1779 C1717 0.960 . S
H1780 C1717 0.960 . S
H1781 C1717 0.960 . S
H1782 C1753 0.980 . S
H1783 C1719 0.930 . S
H1784 C1723 0.930 . S
H1785 C1724 0.961 . S
H1786 C1724 0.960 . S
H1787 C1724 0.958 . S
H1788 C1725 0.961 . S
H1789 C1725 0.960 . S
H1790 C1725 0.960 . S
H1791 C1727 0.980 . S
H1792 C1726 0.961 . S
H1793 C1726 0.961 . S
H1794 C1726 0.959 . S
H1795 C1729 0.932 . S
H1796 C1733 0.929 . S
H1797 C1734 0.961 . S
H1798 C1734 0.959 . S
H1799 C1734 0.959 . S
H1800 C1735 0.960 . S
H1801 C1735 0.962 . S
H1802 C1735 0.961 . S
H1803 C1737 0.929 . S
H1804 C1740 0.930 . S
H1805 C1741 0.929 . S
H1806 C1744 0.930 . S
H1807 C1747 0.929 . S
H1808 C1748 0.930 . S
H1809 C1752 0.962 . S
H1810 C1752 0.959 . S
H1811 C1752 0.958 . S
C1812 C1813 1.560 . S
C1812 H1873 0.959 . S
C1812 H1874 0.959 . S
C1812 H1875 0.960 . S
C1813 C1812 1.560 . S
C1813 O1868 1.426 . S
C1813 H1872 0.980 . S
C1814 C1815 1.407 . S
C1814 C1819 1.418 . S
C1814 O1868 1.334 . S
C1815 C1814 1.407 . S
C1815 C1816 1.360 . S
C1815 H1876 0.929 . S
C1816 C1815 1.360 . S
C1816 C1817 1.401 . S
C1816 C1820 1.527 . S
C1817 C1816 1.401 . S
C1817 C1818 1.405 . S
C1817 C1850 1.587 . S
C1818 C1817 1.405 . S
C1818 C1819 1.332 . S
C1818 C1821 1.496 . S
C1819 C1814 1.418 . S
C1819 C1818 1.332 . S
C1819 H1877 0.929 . S
C1820 C1816 1.527 . S
C1820 H1878 0.959 . S
C1820 H1879 0.961 . S
C1820 H1880 0.961 . S
C1821 C1818 1.496 . S
C1821 H1881 0.960 . S
C1821 H1882 0.960 . S
C1821 H1883 0.961 . S
C1822 C1823 1.517 . S
C1822 H1885 0.961 . S
C1822 H1886 0.960 . S
C1822 H1887 0.959 . S
C1823 C1822 1.517 . S
C1823 O1871 1.468 . S
C1823 H1884 0.980 . S
C1824 C1825 1.349 . S
C1824 C1829 1.367 . S
C1824 O1871 1.408 . S
C1825 C1824 1.349 . S
C1825 C1826 1.407 . S
C1825 H1888 0.930 . S
C1826 C1825 1.407 . S
C1826 C1827 1.449 . S
C1826 C1830 1.535 . S
C1827 C1826 1.449 . S
C1827 C1828 1.384 . S
C1827 C1852 1.553 . S
C1828 C1827 1.384 . S
C1828 C1829 1.364 . S
C1828 C1831 1.450 . S
C1829 C1824 1.367 . S
C1829 C1828 1.364 . S
C1829 H1889 0.931 . S
C1830 C1826 1.535 . S
C1830 H1890 0.959 . S
C1830 H1891 0.961 . S
C1830 H1892 0.959 . S
C1831 C1828 1.450 . S
C1831 H1893 0.960 . S
C1831 H1894 0.960 . S
C1831 H1895 0.960 . S
C1832 C1833 1.309 . S
C1832 C1837 1.304 . S
C1832 O1870 1.435 . S
C1833 C1832 1.309 . S
C1833 C1834 1.476 . S
C1833 H1897 0.930 . S
C1834 C1833 1.476 . S
C1834 C1835 1.400 . S
C1834 C1838 1.567 . S
C1835 C1834 1.400 . S
C1835 C1836 1.373 . S
C1835 C1857 1.432 . S
C1836 C1835 1.373 . S
C1836 C1837 1.339 . S
C1836 C1839 1.530 . S
C1837 C1832 1.304 . S
C1837 C1836 1.339 . S
C1837 H1898 0.930 . S
C1838 C1834 1.567 . S
C1838 H1899 0.961 . S
C1838 H1900 0.960 . S
C1838 H1901 0.958 . S
C1839 C1836 1.530 . S
C1839 H1902 0.961 . S
C1839 H1903 0.960 . S
C1839 H1904 0.960 . S
C1840 C1841 1.530 . S
C1840 H1906 0.961 . S
C1840 H1907 0.961 . S
C1840 H1908 0.959 . S
C1841 C1840 1.530 . S
C1841 O1869 1.412 . S
C1841 H1905 0.980 . S
C1842 C1843 1.288 . S
C1842 C1847 1.377 . S
C1842 O1869 1.393 . S
C1843 C1842 1.288 . S
C1843 C1844 1.369 . S
C1843 H1909 0.932 . S
C1844 C1843 1.369 . S
C1844 C1845 1.398 . S
C1844 C1848 1.527 . S
C1845 C1844 1.398 . S
C1845 C1846 1.380 . S
C1845 C1859 1.497 . S
C1846 C1845 1.380 . S
C1846 C1847 1.383 . S
C1846 C1849 1.603 . S
C1847 C1842 1.377 . S
C1847 C1846 1.383 . S
C1847 H1910 0.929 . S
C1848 C1844 1.527 . S
C1848 H1911 0.961 . S
C1848 H1912 0.959 . S
C1848 H1913 0.959 . S
C1849 C1846 1.603 . S
C1849 H1914 0.960 . S
C1849 H1915 0.962 . S
C1849 H1916 0.961 . S
C1850 C1817 1.587 . S
C1850 C1851 1.360 . S
C1850 C1863 1.412 . S
C1851 C1850 1.360 . S
C1851 C1852 1.365 . S
C1851 H1917 0.929 . S
C1852 C1827 1.553 . S
C1852 C1851 1.365 . S
C1852 C1853 1.404 . S
C1853 C1852 1.404 . S
C1853 C1854 1.395 . S
C1853 C1864 1.451 . S
C1854 C1853 1.395 . S
C1854 C1855 1.322 . S
C1854 H1918 0.930 . S
C1855 C1854 1.322 . S
C1855 C1856 1.459 . S
C1855 H1919 0.929 . S
C1856 C1855 1.459 . S
C1856 C1857 1.445 . S
C1856 C1865 1.395 . S
C1857 C1835 1.432 . S
C1857 C1856 1.445 . S
C1857 C1858 1.370 . S
C1858 C1857 1.370 . S
C1858 C1859 1.438 . S
C1858 H1920 0.930 . S
C1859 C1845 1.497 . S
C1859 C1858 1.438 . S
C1859 C1860 1.360 . S
C1860 C1859 1.360 . S
C1860 C1861 1.401 . S
C1860 C1865 1.446 . S
C1861 C1860 1.401 . S
C1861 C1862 1.347 . S
C1861 H1921 0.929 . S
C1862 C1861 1.347 . S
C1862 C1863 1.455 . S
C1862 H1922 0.930 . S
C1863 C1850 1.412 . S
C1863 C1862 1.455 . S
C1863 C1864 1.331 . S
C1864 C1853 1.451 . S
C1864 C1863 1.331 . S
C1864 C1865 1.497 . S
C1865 C1856 1.395 . S
C1865 C1860 1.446 . S
C1865 C1864 1.497 . S
C1866 C1867 1.582 . S
C1866 H1923 0.962 . S
C1866 H1924 0.959 . S
C1866 H1925 0.958 . S
C1867 C1866 1.582 . S
C1867 O1870 1.458 . S
C1867 H1896 0.980 . S
O1868 C1813 1.426 . S
O1868 C1814 1.334 . S
O1869 C1841 1.412 . S
O1869 C1842 1.393 . S
O1870 C1832 1.435 . S
O1870 C1867 1.458 . S
O1871 C1823 1.468 . S
O1871 C1824 1.408 . S
H1872 C1813 0.980 . S
H1873 C1812 0.959 . S
H1874 C1812 0.959 . S
H1875 C1812 0.960 . S
H1876 C1815 0.929 . S
H1877 C1819 0.929 . S
H1878 C1820 0.959 . S
H1879 C1820 0.961 . S
H1880 C1820 0.961 . S
H1881 C1821 0.960 . S
H1882 C1821 0.960 . S
H1883 C1821 0.961 . S
H1884 C1823 0.980 . S
H1885 C1822 0.961 . S
H1886 C1822 0.960 . S
H1887 C1822 0.959 . S
H1888 C1825 0.930 . S
H1889 C1829 0.931 . S
H1890 C1830 0.959 . S
H1891 C1830 0.961 . S
H1892 C1830 0.959 . S
H1893 C1831 0.960 . S
H1894 C1831 0.960 . S
H1895 C1831 0.960 . S
H1896 C1867 0.980 . S
H1897 C1833 0.930 . S
H1898 C1837 0.930 . S
H1899 C1838 0.961 . S
H1900 C1838 0.960 . S
H1901 C1838 0.958 . S
H1902 C1839 0.961 . S
H1903 C1839 0.960 . S
H1904 C1839 0.960 . S
H1905 C1841 0.980 . S
H1906 C1840 0.961 . S
H1907 C1840 0.961 . S
H1908 C1840 0.959 . S
H1909 C1843 0.932 . S
H1910 C1847 0.929 . S
H1911 C1848 0.961 . S
H1912 C1848 0.959 . S
H1913 C1848 0.959 . S
H1914 C1849 0.960 . S
H1915 C1849 0.962 . S
H1916 C1849 0.961 . S
H1917 C1851 0.929 . S
H1918 C1854 0.930 . S
H1919 C1855 0.929 . S
H1920 C1858 0.930 . S
H1921 C1861 0.929 . S
H1922 C1862 0.930 . S
H1923 C1866 0.962 . S
H1924 C1866 0.959 . S
H1925 C1866 0.958 . S
C1926 C1927 1.560 . S
C1926 H1987 0.959 . S
C1926 H1988 0.959 . S
C1926 H1989 0.960 . S
C1927 C1926 1.560 . S
C1927 O1982 1.426 . S
C1927 H1986 0.980 . S
C1928 C1929 1.407 . S
C1928 C1933 1.418 . S
C1928 O1982 1.334 . S
C1929 C1928 1.407 . S
C1929 C1930 1.360 . S
C1929 H1990 0.929 . S
C1930 C1929 1.360 . S
C1930 C1931 1.401 . S
C1930 C1934 1.527 . S
C1931 C1930 1.401 . S
C1931 C1932 1.405 . S
C1931 C1964 1.587 . S
C1932 C1931 1.405 . S
C1932 C1933 1.332 . S
C1932 C1935 1.496 . S
C1933 C1928 1.418 . S
C1933 C1932 1.332 . S
C1933 H1991 0.929 . S
C1934 C1930 1.527 . S
C1934 H1992 0.959 . S
C1934 H1993 0.961 . S
C1934 H1994 0.961 . S
C1935 C1932 1.496 . S
C1935 H1995 0.960 . S
C1935 H1996 0.960 . S
C1935 H1997 0.961 . S
C1936 C1937 1.517 . S
C1936 H1999 0.961 . S
C1936 H2000 0.960 . S
C1936 H2001 0.959 . S
C1937 C1936 1.517 . S
C1937 O1985 1.468 . S
C1937 H1998 0.980 . S
C1938 C1939 1.349 . S
C1938 C1943 1.367 . S
C1938 O1985 1.408 . S
C1939 C1938 1.349 . S
C1939 C1940 1.407 . S
C1939 H2002 0.930 . S
C1940 C1939 1.407 . S
C1940 C1941 1.449 . S
C1940 C1944 1.535 . S
C1941 C1940 1.449 . S
C1941 C1942 1.384 . S
C1941 C1966 1.553 . S
C1942 C1941 1.384 . S
C1942 C1943 1.364 . S
C1942 C1945 1.450 . S
C1943 C1938 1.367 . S
C1943 C1942 1.364 . S
C1943 H2003 0.931 . S
C1944 C1940 1.535 . S
C1944 H2004 0.959 . S
C1944 H2005 0.961 . S
C1944 H2006 0.959 . S
C1945 C1942 1.450 . S
C1945 H2007 0.960 . S
C1945 H2008 0.960 . S
C1945 H2009 0.960 . S
C1946 C1947 1.309 . S
C1946 C1951 1.304 . S
C1946 O1984 1.435 . S
C1947 C1946 1.309 . S
C1947 C1948 1.476 . S
C1947 H2011 0.930 . S
C1948 C1947 1.476 . S
C1948 C1949 1.400 . S
C1948 C1952 1.567 . S
C1949 C1948 1.400 . S
C1949 C1950 1.373 . S
C1949 C1971 1.432 . S
C1950 C1949 1.373 . S
C1950 C1951 1.339 . S
C1950 C1953 1.530 . S
C1951 C1946 1.304 . S
C1951 C1950 1.339 . S
C1951 H2012 0.930 . S
C1952 C1948 1.567 . S
C1952 H2013 0.961 . S
C1952 H2014 0.960 . S
C1952 H2015 0.958 . S
C1953 C1950 1.530 . S
C1953 H2016 0.961 . S
C1953 H2017 0.960 . S
C1953 H2018 0.960 . S
C1954 C1955 1.530 . S
C1954 H2020 0.961 . S
C1954 H2021 0.961 . S
C1954 H2022 0.959 . S
C1955 C1954 1.530 . S
C1955 O1983 1.412 . S
C1955 H2019 0.980 . S
C1956 C1957 1.288 . S
C1956 C1961 1.377 . S
C1956 O1983 1.393 . S
C1957 C1956 1.288 . S
C1957 C1958 1.369 . S
C1957 H2023 0.932 . S
C1958 C1957 1.369 . S
C1958 C1959 1.398 . S
C1958 C1962 1.527 . S
C1959 C1958 1.398 . S
C1959 C1960 1.380 . S
C1959 C1973 1.497 . S
C1960 C1959 1.380 . S
C1960 C1961 1.383 . S
C1960 C1963 1.603 . S
C1961 C1956 1.377 . S
C1961 C1960 1.383 . S
C1961 H2024 0.929 . S
C1962 C1958 1.527 . S
C1962 H2025 0.961 . S
C1962 H2026 0.959 . S
C1962 H2027 0.959 . S
C1963 C1960 1.603 . S
C1963 H2028 0.960 . S
C1963 H2029 0.962 . S
C1963 H2030 0.961 . S
C1964 C1931 1.587 . S
C1964 C1965 1.360 . S
C1964 C1977 1.412 . S
C1965 C1964 1.360 . S
C1965 C1966 1.365 . S
C1965 H2031 0.929 . S
C1966 C1941 1.553 . S
C1966 C1965 1.365 . S
C1966 C1967 1.404 . S
C1967 C1966 1.404 . S
C1967 C1968 1.395 . S
C1967 C1978 1.451 . S
C1968 C1967 1.395 . S
C1968 C1969 1.322 . S
C1968 H2032 0.930 . S
C1969 C1968 1.322 . S
C1969 C1970 1.459 . S
C1969 H2033 0.929 . S
C1970 C1969 1.459 . S
C1970 C1971 1.445 . S
C1970 C1979 1.395 . S
C1971 C1949 1.432 . S
C1971 C1970 1.445 . S
C1971 C1972 1.370 . S
C1972 C1971 1.370 . S
C1972 C1973 1.438 . S
C1972 H2034 0.930 . S
C1973 C1959 1.497 . S
C1973 C1972 1.438 . S
C1973 C1974 1.360 . S
C1974 C1973 1.360 . S
C1974 C1975 1.401 . S
C1974 C1979 1.446 . S
C1975 C1974 1.401 . S
C1975 C1976 1.347 . S
C1975 H2035 0.929 . S
C1976 C1975 1.347 . S
C1976 C1977 1.455 . S
C1976 H2036 0.930 . S
C1977 C1964 1.412 . S
C1977 C1976 1.455 . S
C1977 C1978 1.331 . S
C1978 C1967 1.451 . S
C1978 C1977 1.331 . S
C1978 C1979 1.497 . S
C1979 C1970 1.395 . S
C1979 C1974 1.446 . S
C1979 C1978 1.497 . S
C1980 C1981 1.582 . S
C1980 H2037 0.962 . S
C1980 H2038 0.959 . S
C1980 H2039 0.958 . S
C1981 C1980 1.582 . S
C1981 O1984 1.458 . S
C1981 H2010 0.980 . S
O1982 C1927 1.426 . S
O1982 C1928 1.334 . S
O1983 C1955 1.412 . S
O1983 C1956 1.393 . S
O1984 C1946 1.435 . S
O1984 C1981 1.458 . S
O1985 C1937 1.468 . S
O1985 C1938 1.408 . S
H1986 C1927 0.980 . S
H1987 C1926 0.959 . S
H1988 C1926 0.959 . S
H1989 C1926 0.960 . S
H1990 C1929 0.929 . S
H1991 C1933 0.929 . S
H1992 C1934 0.959 . S
H1993 C1934 0.961 . S
H1994 C1934 0.961 . S
H1995 C1935 0.960 . S
H1996 C1935 0.960 . S
H1997 C1935 0.961 . S
H1998 C1937 0.980 . S
H1999 C1936 0.961 . S
H2000 C1936 0.960 . S
H2001 C1936 0.959 . S
H2002 C1939 0.930 . S
H2003 C1943 0.931 . S
H2004 C1944 0.959 . S
H2005 C1944 0.961 . S
H2006 C1944 0.959 . S
H2007 C1945 0.960 . S
H2008 C1945 0.960 . S
H2009 C1945 0.960 . S
H2010 C1981 0.980 . S
H2011 C1947 0.930 . S
H2012 C1951 0.930 . S
H2013 C1952 0.961 . S
H2014 C1952 0.960 . S
H2015 C1952 0.958 . S
H2016 C1953 0.961 . S
H2017 C1953 0.960 . S
H2018 C1953 0.960 . S
H2019 C1955 0.980 . S
H2020 C1954 0.961 . S
H2021 C1954 0.961 . S
H2022 C1954 0.959 . S
H2023 C1957 0.932 . S
H2024 C1961 0.929 . S
H2025 C1962 0.961 . S
H2026 C1962 0.959 . S
H2027 C1962 0.959 . S
H2028 C1963 0.960 . S
H2029 C1963 0.962 . S
H2030 C1963 0.961 . S
H2031 C1965 0.929 . S
H2032 C1968 0.930 . S
H2033 C1969 0.929 . S
H2034 C1972 0.930 . S
H2035 C1975 0.929 . S
H2036 C1976 0.930 . S
H2037 C1980 0.962 . S
H2038 C1980 0.959 . S
H2039 C1980 0.958 . S
C2040 C2041 1.560 . S
C2040 H2101 0.959 . S
C2040 H2102 0.959 . S
C2040 H2103 0.960 . S
C2041 C2040 1.560 . S
C2041 O2096 1.426 . S
C2041 H2100 0.980 . S
C2042 C2043 1.407 . S
C2042 C2047 1.418 . S
C2042 O2096 1.334 . S
C2043 C2042 1.407 . S
C2043 C2044 1.360 . S
C2043 H2104 0.929 . S
C2044 C2043 1.360 . S
C2044 C2045 1.401 . S
C2044 C2048 1.527 . S
C2045 C2044 1.401 . S
C2045 C2046 1.405 . S
C2045 C2078 1.587 . S
C2046 C2045 1.405 . S
C2046 C2047 1.332 . S
C2046 C2049 1.496 . S
C2047 C2042 1.418 . S
C2047 C2046 1.332 . S
C2047 H2105 0.929 . S
C2048 C2044 1.527 . S
C2048 H2106 0.959 . S
C2048 H2107 0.961 . S
C2048 H2108 0.961 . S
C2049 C2046 1.496 . S
C2049 H2109 0.960 . S
C2049 H2110 0.960 . S
C2049 H2111 0.961 . S
C2050 C2051 1.517 . S
C2050 H2113 0.961 . S
C2050 H2114 0.960 . S
C2050 H2115 0.959 . S
C2051 C2050 1.517 . S
C2051 O2099 1.468 . S
C2051 H2112 0.980 . S
C2052 C2053 1.349 . S
C2052 C2057 1.367 . S
C2052 O2099 1.408 . S
C2053 C2052 1.349 . S
C2053 C2054 1.407 . S
C2053 H2116 0.930 . S
C2054 C2053 1.407 . S
C2054 C2055 1.449 . S
C2054 C2058 1.535 . S
C2055 C2054 1.449 . S
C2055 C2056 1.384 . S
C2055 C2080 1.553 . S
C2056 C2055 1.384 . S
C2056 C2057 1.364 . S
C2056 C2059 1.450 . S
C2057 C2052 1.367 . S
C2057 C2056 1.364 . S
C2057 H2117 0.931 . S
C2058 C2054 1.535 . S
C2058 H2118 0.959 . S
C2058 H2119 0.961 . S
C2058 H2120 0.959 . S
C2059 C2056 1.450 . S
C2059 H2121 0.960 . S
C2059 H2122 0.960 . S
C2059 H2123 0.960 . S
C2060 C2061 1.309 . S
C2060 C2065 1.304 . S
C2060 O2098 1.435 . S
C2061 C2060 1.309 . S
C2061 C2062 1.476 . S
C2061 H2125 0.930 . S
C2062 C2061 1.476 . S
C2062 C2063 1.400 . S
C2062 C2066 1.567 . S
C2063 C2062 1.400 . S
C2063 C2064 1.373 . S
C2063 C2085 1.432 . S
C2064 C2063 1.373 . S
C2064 C2065 1.339 . S
C2064 C2067 1.530 . S
C2065 C2060 1.304 . S
C2065 C2064 1.339 . S
C2065 H2126 0.930 . S
C2066 C2062 1.567 . S
C2066 H2127 0.961 . S
C2066 H2128 0.960 . S
C2066 H2129 0.958 . S
C2067 C2064 1.530 . S
C2067 H2130 0.961 . S
C2067 H2131 0.960 . S
C2067 H2132 0.960 . S
C2068 C2069 1.530 . S
C2068 H2134 0.961 . S
C2068 H2135 0.961 . S
C2068 H2136 0.959 . S
C2069 C2068 1.530 . S
C2069 O2097 1.412 . S
C2069 H2133 0.980 . S
C2070 C2071 1.288 . S
C2070 C2075 1.377 . S
C2070 O2097 1.393 . S
C2071 C2070 1.288 . S
C2071 C2072 1.369 . S
C2071 H2137 0.932 . S
C2072 C2071 1.369 . S
C2072 C2073 1.398 . S
C2072 C2076 1.527 . S
C2073 C2072 1.398 . S
C2073 C2074 1.380 . S
C2073 C2087 1.497 . S
C2074 C2073 1.380 . S
C2074 C2075 1.383 . S
C2074 C2077 1.603 . S
C2075 C2070 1.377 . S
C2075 C2074 1.383 . S
C2075 H2138 0.929 . S
C2076 C2072 1.527 . S
C2076 H2139 0.961 . S
C2076 H2140 0.959 . S
C2076 H2141 0.959 . S
C2077 C2074 1.603 . S
C2077 H2142 0.960 . S
C2077 H2143 0.962 . S
C2077 H2144 0.961 . S
C2078 C2045 1.587 . S
C2078 C2079 1.360 . S
C2078 C2091 1.412 . S
C2079 C2078 1.360 . S
C2079 C2080 1.365 . S
C2079 H2145 0.929 . S
C2080 C2055 1.553 . S
C2080 C2079 1.365 . S
C2080 C2081 1.404 . S
C2081 C2080 1.404 . S
C2081 C2082 1.395 . S
C2081 C2092 1.451 . S
C2082 C2081 1.395 . S
C2082 C2083 1.322 . S
C2082 H2146 0.930 . S
C2083 C2082 1.322 . S
C2083 C2084 1.459 . S
C2083 H2147 0.929 . S
C2084 C2083 1.459 . S
C2084 C2085 1.445 . S
C2084 C2093 1.395 . S
C2085 C2063 1.432 . S
C2085 C2084 1.445 . S
C2085 C2086 1.370 . S
C2086 C2085 1.370 . S
C2086 C2087 1.438 . S
C2086 H2148 0.930 . S
C2087 C2073 1.497 . S
C2087 C2086 1.438 . S
C2087 C2088 1.360 . S
C2088 C2087 1.360 . S
C2088 C2089 1.401 . S
C2088 C2093 1.446 . S
C2089 C2088 1.401 . S
C2089 C2090 1.347 . S
C2089 H2149 0.929 . S
C2090 C2089 1.347 . S
C2090 C2091 1.455 . S
C2090 H2150 0.930 . S
C2091 C2078 1.412 . S
C2091 C2090 1.455 . S
C2091 C2092 1.331 . S
C2092 C2081 1.451 . S
C2092 C2091 1.331 . S
C2092 C2093 1.497 . S
C2093 C2084 1.395 . S
C2093 C2088 1.446 . S
C2093 C2092 1.497 . S
C2094 C2095 1.582 . S
C2094 H2151 0.962 . S
C2094 H2152 0.959 . S
C2094 H2153 0.958 . S
C2095 C2094 1.582 . S
C2095 O2098 1.458 . S
C2095 H2124 0.980 . S
O2096 C2041 1.426 . S
O2096 C2042 1.334 . S
O2097 C2069 1.412 . S
O2097 C2070 1.393 . S
O2098 C2060 1.435 . S
O2098 C2095 1.458 . S
O2099 C2051 1.468 . S
O2099 C2052 1.408 . S
H2100 C2041 0.980 . S
H2101 C2040 0.959 . S
H2102 C2040 0.959 . S
H2103 C2040 0.960 . S
H2104 C2043 0.929 . S
H2105 C2047 0.929 . S
H2106 C2048 0.959 . S
H2107 C2048 0.961 . S
H2108 C2048 0.961 . S
H2109 C2049 0.960 . S
H2110 C2049 0.960 . S
H2111 C2049 0.961 . S
H2112 C2051 0.980 . S
H2113 C2050 0.961 . S
H2114 C2050 0.960 . S
H2115 C2050 0.959 . S
H2116 C2053 0.930 . S
H2117 C2057 0.931 . S
H2118 C2058 0.959 . S
H2119 C2058 0.961 . S
H2120 C2058 0.959 . S
H2121 C2059 0.960 . S
H2122 C2059 0.960 . S
H2123 C2059 0.960 . S
H2124 C2095 0.980 . S
H2125 C2061 0.930 . S
H2126 C2065 0.930 . S
H2127 C2066 0.961 . S
H2128 C2066 0.960 . S
H2129 C2066 0.958 . S
H2130 C2067 0.961 . S
H2131 C2067 0.960 . S
H2132 C2067 0.960 . S
H2133 C2069 0.980 . S
H2134 C2068 0.961 . S
H2135 C2068 0.961 . S
H2136 C2068 0.959 . S
H2137 C2071 0.932 . S
H2138 C2075 0.929 . S
H2139 C2076 0.961 . S
H2140 C2076 0.959 . S
H2141 C2076 0.959 . S
H2142 C2077 0.960 . S
H2143 C2077 0.962 . S
H2144 C2077 0.961 . S
H2145 C2079 0.929 . S
H2146 C2082 0.930 . S
H2147 C2083 0.929 . S
H2148 C2086 0.930 . S
H2149 C2089 0.929 . S
H2150 C2090 0.930 . S
H2151 C2094 0.962 . S
H2152 C2094 0.959 . S
H2153 C2094 0.958 . S
C2154 C2155 1.560 . S
C2154 H2215 0.959 . S
C2154 H2216 0.959 . S
C2154 H2217 0.960 . S
C2155 C2154 1.560 . S
C2155 O2210 1.426 . S
C2155 H2214 0.980 . S
C2156 C2157 1.407 . S
C2156 C2161 1.418 . S
C2156 O2210 1.334 . S
C2157 C2156 1.407 . S
C2157 C2158 1.360 . S
C2157 H2218 0.929 . S
C2158 C2157 1.360 . S
C2158 C2159 1.401 . S
C2158 C2162 1.527 . S
C2159 C2158 1.401 . S
C2159 C2160 1.405 . S
C2159 C2192 1.587 . S
C2160 C2159 1.405 . S
C2160 C2161 1.332 . S
C2160 C2163 1.496 . S
C2161 C2156 1.418 . S
C2161 C2160 1.332 . S
C2161 H2219 0.929 . S
C2162 C2158 1.527 . S
C2162 H2220 0.959 . S
C2162 H2221 0.961 . S
C2162 H2222 0.961 . S
C2163 C2160 1.496 . S
C2163 H2223 0.960 . S
C2163 H2224 0.960 . S
C2163 H2225 0.961 . S
C2164 C2165 1.517 . S
C2164 H2227 0.961 . S
C2164 H2228 0.960 . S
C2164 H2229 0.959 . S
C2165 C2164 1.517 . S
C2165 O2213 1.468 . S
C2165 H2226 0.980 . S
C2166 C2167 1.349 . S
C2166 C2171 1.367 . S
C2166 O2213 1.408 . S
C2167 C2166 1.349 . S
C2167 C2168 1.407 . S
C2167 H2230 0.930 . S
C2168 C2167 1.407 . S
C2168 C2169 1.449 . S
C2168 C2172 1.535 . S
C2169 C2168 1.449 . S
C2169 C2170 1.384 . S
C2169 C2194 1.553 . S
C2170 C2169 1.384 . S
C2170 C2171 1.364 . S
C2170 C2173 1.450 . S
C2171 C2166 1.367 . S
C2171 C2170 1.364 . S
C2171 H2231 0.931 . S
C2172 C2168 1.535 . S
C2172 H2232 0.959 . S
C2172 H2233 0.961 . S
C2172 H2234 0.959 . S
C2173 C2170 1.450 . S
C2173 H2235 0.960 . S
C2173 H2236 0.960 . S
C2173 H2237 0.960 . S
C2174 C2175 1.309 . S
C2174 C2179 1.304 . S
C2174 O2212 1.435 . S
C2175 C2174 1.309 . S
C2175 C2176 1.476 . S
C2175 H2239 0.930 . S
C2176 C2175 1.476 . S
C2176 C2177 1.400 . S
C2176 C2180 1.567 . S
C2177 C2176 1.400 . S
C2177 C2178 1.373 . S
C2177 C2199 1.432 . S
C2178 C2177 1.373 . S
C2178 C2179 1.339 . S
C2178 C2181 1.530 . S
C2179 C2174 1.304 . S
C2179 C2178 1.339 . S
C2179 H2240 0.930 . S
C2180 C2176 1.567 . S
C2180 H2241 0.961 . S
C2180 H2242 0.960 . S
C2180 H2243 0.958 . S
C2181 C2178 1.530 . S
C2181 H2244 0.961 . S
C2181 H2245 0.960 . S
C2181 H2246 0.960 . S
C2182 C2183 1.530 . S
C2182 H2248 0.961 . S
C2182 H2249 0.961 . S
C2182 H2250 0.959 . S
C2183 C2182 1.530 . S
C2183 O2211 1.412 . S
C2183 H2247 0.980 . S
C2184 C2185 1.288 . S
C2184 C2189 1.377 . S
C2184 O2211 1.393 . S
C2185 C2184 1.288 . S
C2185 C2186 1.369 . S
C2185 H2251 0.932 . S
C2186 C2185 1.369 . S
C2186 C2187 1.398 . S
C2186 C2190 1.527 . S
C2187 C2186 1.398 . S
C2187 C2188 1.380 . S
C2187 C2201 1.497 . S
C2188 C2187 1.380 . S
C2188 C2189 1.383 . S
C2188 C2191 1.603 . S
C2189 C2184 1.377 . S
C2189 C2188 1.383 . S
C2189 H2252 0.929 . S
C2190 C2186 1.527 . S
C2190 H2253 0.961 . S
C2190 H2254 0.959 . S
C2190 H2255 0.959 . S
C2191 C2188 1.603 . S
C2191 H2256 0.960 . S
C2191 H2257 0.962 . S
C2191 H2258 0.961 . S
C2192 C2159 1.587 . S
C2192 C2193 1.360 . S
C2192 C2205 1.412 . S
C2193 C2192 1.360 . S
C2193 C2194 1.365 . S
C2193 H2259 0.929 . S
C2194 C2169 1.553 . S
C2194 C2193 1.365 . S
C2194 C2195 1.404 . S
C2195 C2194 1.404 . S
C2195 C2196 1.395 . S
C2195 C2206 1.451 . S
C2196 C2195 1.395 . S
C2196 C2197 1.322 . S
C2196 H2260 0.930 . S
C2197 C2196 1.322 . S
C2197 C2198 1.459 . S
C2197 H2261 0.929 . S
C2198 C2197 1.459 . S
C2198 C2199 1.445 . S
C2198 C2207 1.395 . S
C2199 C2177 1.432 . S
C2199 C2198 1.445 . S
C2199 C2200 1.370 . S
C2200 C2199 1.370 . S
C2200 C2201 1.438 . S
C2200 H2262 0.930 . S
C2201 C2187 1.497 . S
C2201 C2200 1.438 . S
C2201 C2202 1.360 . S
C2202 C2201 1.360 . S
C2202 C2203 1.401 . S
C2202 C2207 1.446 . S
C2203 C2202 1.401 . S
C2203 C2204 1.347 . S
C2203 H2263 0.929 . S
C2204 C2203 1.347 . S
C2204 C2205 1.455 . S
C2204 H2264 0.930 . S
C2205 C2192 1.412 . S
C2205 C2204 1.455 . S
C2205 C2206 1.331 . S
C2206 C2195 1.451 . S
C2206 C2205 1.331 . S
C2206 C2207 1.497 . S
C2207 C2198 1.395 . S
C2207 C2202 1.446 . S
C2207 C2206 1.497 . S
C2208 C2209 1.582 . S
C2208 H2265 0.962 . S
C2208 H2266 0.959 . S
C2208 H2267 0.958 . S
C2209 C2208 1.582 . S
C2209 O2212 1.458 . S
C2209 H2238 0.980 . S
O2210 C2155 1.426 . S
O2210 C2156 1.334 . S
O2211 C2183 1.412 . S
O2211 C2184 1.393 . S
O2212 C2174 1.435 . S
O2212 C2209 1.458 . S
O2213 C2165 1.468 . S
O2213 C2166 1.408 . S
H2214 C2155 0.980 . S
H2215 C2154 0.959 . S
H2216 C2154 0.959 . S
H2217 C2154 0.960 . S
H2218 C2157 0.929 . S
H2219 C2161 0.929 . S
H2220 C2162 0.959 . S
H2221 C2162 0.961 . S
H2222 C2162 0.961 . S
H2223 C2163 0.960 . S
H2224 C2163 0.960 . S
H2225 C2163 0.961 . S
H2226 C2165 0.980 . S
H2227 C2164 0.961 . S
H2228 C2164 0.960 . S
H2229 C2164 0.959 . S
H2230 C2167 0.930 . S
H2231 C2171 0.931 . S
H2232 C2172 0.959 . S
H2233 C2172 0.961 . S
H2234 C2172 0.959 . S
H2235 C2173 0.960 . S
H2236 C2173 0.960 . S
H2237 C2173 0.960 . S
H2238 C2209 0.980 . S
H2239 C2175 0.930 . S
H2240 C2179 0.930 . S
H2241 C2180 0.961 . S
H2242 C2180 0.960 . S
H2243 C2180 0.958 . S
H2244 C2181 0.961 . S
H2245 C2181 0.960 . S
H2246 C2181 0.960 . S
H2247 C2183 0.980 . S
H2248 C2182 0.961 . S
H2249 C2182 0.961 . S
H2250 C2182 0.959 . S
H2251 C2185 0.932 . S
H2252 C2189 0.929 . S
H2253 C2190 0.961 . S
H2254 C2190 0.959 . S
H2255 C2190 0.959 . S
H2256 C2191 0.960 . S
H2257 C2191 0.962 . S
H2258 C2191 0.961 . S
H2259 C2193 0.929 . S
H2260 C2196 0.930 . S
H2261 C2197 0.929 . S
H2262 C2200 0.930 . S
H2263 C2203 0.929 . S
H2264 C2204 0.930 . S
H2265 C2208 0.962 . S
H2266 C2208 0.959 . S
H2267 C2208 0.958 . S
C2268 C2269 1.560 . S
C2268 H2329 0.959 . S
C2268 H2330 0.959 . S
C2268 H2331 0.960 . S
C2269 C2268 1.560 . S
C2269 O2324 1.426 . S
C2269 H2328 0.980 . S
C2270 C2271 1.407 . S
C2270 C2275 1.418 . S
C2270 O2324 1.334 . S
C2271 C2270 1.407 . S
C2271 C2272 1.360 . S
C2271 H2332 0.929 . S
C2272 C2271 1.360 . S
C2272 C2273 1.401 . S
C2272 C2276 1.527 . S
C2273 C2272 1.401 . S
C2273 C2274 1.405 . S
C2273 C2306 1.587 . S
C2274 C2273 1.405 . S
C2274 C2275 1.332 . S
C2274 C2277 1.496 . S
C2275 C2270 1.418 . S
C2275 C2274 1.332 . S
C2275 H2333 0.929 . S
C2276 C2272 1.527 . S
C2276 H2334 0.959 . S
C2276 H2335 0.961 . S
C2276 H2336 0.961 . S
C2277 C2274 1.496 . S
C2277 H2337 0.960 . S
C2277 H2338 0.960 . S
C2277 H2339 0.961 . S
C2278 C2279 1.517 . S
C2278 H2341 0.961 . S
C2278 H2342 0.960 . S
C2278 H2343 0.959 . S
C2279 C2278 1.517 . S
C2279 O2327 1.468 . S
C2279 H2340 0.980 . S
C2280 C2281 1.349 . S
C2280 C2285 1.367 . S
C2280 O2327 1.408 . S
C2281 C2280 1.349 . S
C2281 C2282 1.407 . S
C2281 H2344 0.930 . S
C2282 C2281 1.407 . S
C2282 C2283 1.449 . S
C2282 C2286 1.535 . S
C2283 C2282 1.449 . S
C2283 C2284 1.384 . S
C2283 C2308 1.553 . S
C2284 C2283 1.384 . S
C2284 C2285 1.364 . S
C2284 C2287 1.450 . S
C2285 C2280 1.367 . S
C2285 C2284 1.364 . S
C2285 H2345 0.931 . S
C2286 C2282 1.535 . S
C2286 H2346 0.959 . S
C2286 H2347 0.961 . S
C2286 H2348 0.959 . S
C2287 C2284 1.450 . S
C2287 H2349 0.960 . S
C2287 H2350 0.960 . S
C2287 H2351 0.960 . S
C2288 C2289 1.309 . S
C2288 C2293 1.304 . S
C2288 O2326 1.435 . S
C2289 C2288 1.309 . S
C2289 C2290 1.476 . S
C2289 H2353 0.930 . S
C2290 C2289 1.476 . S
C2290 C2291 1.400 . S
C2290 C2294 1.567 . S
C2291 C2290 1.400 . S
C2291 C2292 1.373 . S
C2291 C2313 1.432 . S
C2292 C2291 1.373 . S
C2292 C2293 1.339 . S
C2292 C2295 1.530 . S
C2293 C2288 1.304 . S
C2293 C2292 1.339 . S
C2293 H2354 0.930 . S
C2294 C2290 1.567 . S
C2294 H2355 0.961 . S
C2294 H2356 0.960 . S
C2294 H2357 0.958 . S
C2295 C2292 1.530 . S
C2295 H2358 0.961 . S
C2295 H2359 0.960 . S
C2295 H2360 0.960 . S
C2296 C2297 1.530 . S
C2296 H2362 0.961 . S
C2296 H2363 0.961 . S
C2296 H2364 0.959 . S
C2297 C2296 1.530 . S
C2297 O2325 1.412 . S
C2297 H2361 0.980 . S
C2298 C2299 1.288 . S
C2298 C2303 1.377 . S
C2298 O2325 1.393 . S
C2299 C2298 1.288 . S
C2299 C2300 1.369 . S
C2299 H2365 0.932 . S
C2300 C2299 1.369 . S
C2300 C2301 1.398 . S
C2300 C2304 1.527 . S
C2301 C2300 1.398 . S
C2301 C2302 1.380 . S
C2301 C2315 1.497 . S
C2302 C2301 1.380 . S
C2302 C2303 1.383 . S
C2302 C2305 1.603 . S
C2303 C2298 1.377 . S
C2303 C2302 1.383 . S
C2303 H2366 0.929 . S
C2304 C2300 1.527 . S
C2304 H2367 0.961 . S
C2304 H2368 0.959 . S
C2304 H2369 0.959 . S
C2305 C2302 1.603 . S
C2305 H2370 0.960 . S
C2305 H2371 0.962 . S
C2305 H2372 0.961 . S
C2306 C2273 1.587 . S
C2306 C2307 1.360 . S
C2306 C2319 1.412 . S
C2307 C2306 1.360 . S
C2307 C2308 1.365 . S
C2307 H2373 0.929 . S
C2308 C2283 1.553 . S
C2308 C2307 1.365 . S
C2308 C2309 1.404 . S
C2309 C2308 1.404 . S
C2309 C2310 1.395 . S
C2309 C2320 1.451 . S
C2310 C2309 1.395 . S
C2310 C2311 1.322 . S
C2310 H2374 0.930 . S
C2311 C2310 1.322 . S
C2311 C2312 1.459 . S
C2311 H2375 0.929 . S
C2312 C2311 1.459 . S
C2312 C2313 1.445 . S
C2312 C2321 1.395 . S
C2313 C2291 1.432 . S
C2313 C2312 1.445 . S
C2313 C2314 1.370 . S
C2314 C2313 1.370 . S
C2314 C2315 1.438 . S
C2314 H2376 0.930 . S
C2315 C2301 1.497 . S
C2315 C2314 1.438 . S
C2315 C2316 1.360 . S
C2316 C2315 1.360 . S
C2316 C2317 1.401 . S
C2316 C2321 1.446 . S
C2317 C2316 1.401 . S
C2317 C2318 1.347 . S
C2317 H2377 0.929 . S
C2318 C2317 1.347 . S
C2318 C2319 1.455 . S
C2318 H2378 0.930 . S
C2319 C2306 1.412 . S
C2319 C2318 1.455 . S
C2319 C2320 1.331 . S
C2320 C2309 1.451 . S
C2320 C2319 1.331 . S
C2320 C2321 1.497 . S
C2321 C2312 1.395 . S
C2321 C2316 1.446 . S
C2321 C2320 1.497 . S
C2322 C2323 1.582 . S
C2322 H2379 0.962 . S
C2322 H2380 0.959 . S
C2322 H2381 0.958 . S
C2323 C2322 1.582 . S
C2323 O2326 1.458 . S
C2323 H2352 0.980 . S
O2324 C2269 1.426 . S
O2324 C2270 1.334 . S
O2325 C2297 1.412 . S
O2325 C2298 1.393 . S
O2326 C2288 1.435 . S
O2326 C2323 1.458 . S
O2327 C2279 1.468 . S
O2327 C2280 1.408 . S
H2328 C2269 0.980 . S
H2329 C2268 0.959 . S
H2330 C2268 0.959 . S
H2331 C2268 0.960 . S
H2332 C2271 0.929 . S
H2333 C2275 0.929 . S
H2334 C2276 0.959 . S
H2335 C2276 0.961 . S
H2336 C2276 0.961 . S
H2337 C2277 0.960 . S
H2338 C2277 0.960 . S
H2339 C2277 0.961 . S
H2340 C2279 0.980 . S
H2341 C2278 0.961 . S
H2342 C2278 0.960 . S
H2343 C2278 0.959 . S
H2344 C2281 0.930 . S
H2345 C2285 0.931 . S
H2346 C2286 0.959 . S
H2347 C2286 0.961 . S
H2348 C2286 0.959 . S
H2349 C2287 0.960 . S
H2350 C2287 0.960 . S
H2351 C2287 0.960 . S
H2352 C2323 0.980 . S
H2353 C2289 0.930 . S
H2354 C2293 0.930 . S
H2355 C2294 0.961 . S
H2356 C2294 0.960 . S
H2357 C2294 0.958 . S
H2358 C2295 0.961 . S
H2359 C2295 0.960 . S
H2360 C2295 0.960 . S
H2361 C2297 0.980 . S
H2362 C2296 0.961 . S
H2363 C2296 0.961 . S
H2364 C2296 0.959 . S
H2365 C2299 0.932 . S
H2366 C2303 0.929 . S
H2367 C2304 0.961 . S
H2368 C2304 0.959 . S
H2369 C2304 0.959 . S
H2370 C2305 0.960 . S
H2371 C2305 0.962 . S
H2372 C2305 0.961 . S
H2373 C2307 0.929 . S
H2374 C2310 0.930 . S
H2375 C2311 0.929 . S
H2376 C2314 0.930 . S
H2377 C2317 0.929 . S
H2378 C2318 0.930 . S
H2379 C2322 0.962 . S
H2380 C2322 0.959 . S
H2381 C2322 0.958 . S
C2382 C2383 1.560 . S
C2382 H2443 0.959 . S
C2382 H2444 0.959 . S
C2382 H2445 0.960 . S
C2383 C2382 1.560 . S
C2383 O2438 1.426 . S
C2383 H2442 0.980 . S
C2384 C2385 1.407 . S
C2384 C2389 1.418 . S
C2384 O2438 1.334 . S
C2385 C2384 1.407 . S
C2385 C2386 1.360 . S
C2385 H2446 0.929 . S
C2386 C2385 1.360 . S
C2386 C2387 1.401 . S
C2386 C2390 1.527 . S
C2387 C2386 1.401 . S
C2387 C2388 1.405 . S
C2387 C2420 1.587 . S
C2388 C2387 1.405 . S
C2388 C2389 1.332 . S
C2388 C2391 1.496 . S
C2389 C2384 1.418 . S
C2389 C2388 1.332 . S
C2389 H2447 0.929 . S
C2390 C2386 1.527 . S
C2390 H2448 0.959 . S
C2390 H2449 0.961 . S
C2390 H2450 0.961 . S
C2391 C2388 1.496 . S
C2391 H2451 0.960 . S
C2391 H2452 0.960 . S
C2391 H2453 0.961 . S
C2392 C2393 1.517 . S
C2392 H2455 0.961 . S
C2392 H2456 0.960 . S
C2392 H2457 0.959 . S
C2393 C2392 1.517 . S
C2393 O2441 1.468 . S
C2393 H2454 0.980 . S
C2394 C2395 1.349 . S
C2394 C2399 1.367 . S
C2394 O2441 1.408 . S
C2395 C2394 1.349 . S
C2395 C2396 1.407 . S
C2395 H2458 0.930 . S
C2396 C2395 1.407 . S
C2396 C2397 1.449 . S
C2396 C2400 1.535 . S
C2397 C2396 1.449 . S
C2397 C2398 1.384 . S
C2397 C2422 1.553 . S
C2398 C2397 1.384 . S
C2398 C2399 1.364 . S
C2398 C2401 1.450 . S
C2399 C2394 1.367 . S
C2399 C2398 1.364 . S
C2399 H2459 0.931 . S
C2400 C2396 1.535 . S
C2400 H2460 0.959 . S
C2400 H2461 0.961 . S
C2400 H2462 0.959 . S
C2401 C2398 1.450 . S
C2401 H2463 0.960 . S
C2401 H2464 0.960 . S
C2401 H2465 0.960 . S
C2402 C2403 1.309 . S
C2402 C2407 1.304 . S
C2402 O2440 1.435 . S
C2403 C2402 1.309 . S
C2403 C2404 1.476 . S
C2403 H2467 0.930 . S
C2404 C2403 1.476 . S
C2404 C2405 1.400 . S
C2404 C2408 1.567 . S
C2405 C2404 1.400 . S
C2405 C2406 1.373 . S
C2405 C2427 1.432 . S
C2406 C2405 1.373 . S
C2406 C2407 1.339 . S
C2406 C2409 1.530 . S
C2407 C2402 1.304 . S
C2407 C2406 1.339 . S
C2407 H2468 0.930 . S
C2408 C2404 1.567 . S
C2408 H2469 0.961 . S
C2408 H2470 0.960 . S
C2408 H2471 0.958 . S
C2409 C2406 1.530 . S
C2409 H2472 0.961 . S
C2409 H2473 0.960 . S
C2409 H2474 0.960 . S
C2410 C2411 1.530 . S
C2410 H2476 0.961 . S
C2410 H2477 0.961 . S
C2410 H2478 0.959 . S
C2411 C2410 1.530 . S
C2411 O2439 1.412 . S
C2411 H2475 0.980 . S
C2412 C2413 1.288 . S
C2412 C2417 1.377 . S
C2412 O2439 1.393 . S
C2413 C2412 1.288 . S
C2413 C2414 1.369 . S
C2413 H2479 0.932 . S
C2414 C2413 1.369 . S
C2414 C2415 1.398 . S
C2414 C2418 1.527 . S
C2415 C2414 1.398 . S
C2415 C2416 1.380 . S
C2415 C2429 1.497 . S
C2416 C2415 1.380 . S
C2416 C2417 1.383 . S
C2416 C2419 1.603 . S
C2417 C2412 1.377 . S
C2417 C2416 1.383 . S
C2417 H2480 0.929 . S
C2418 C2414 1.527 . S
C2418 H2481 0.961 . S
C2418 H2482 0.959 . S
C2418 H2483 0.959 . S
C2419 C2416 1.603 . S
C2419 H2484 0.960 . S
C2419 H2485 0.962 . S
C2419 H2486 0.961 . S
C2420 C2387 1.587 . S
C2420 C2421 1.360 . S
C2420 C2433 1.412 . S
C2421 C2420 1.360 . S
C2421 C2422 1.365 . S
C2421 H2487 0.929 . S
C2422 C2397 1.553 . S
C2422 C2421 1.365 . S
C2422 C2423 1.404 . S
C2423 C2422 1.404 . S
C2423 C2424 1.395 . S
C2423 C2434 1.451 . S
C2424 C2423 1.395 . S
C2424 C2425 1.322 . S
C2424 H2488 0.930 . S
C2425 C2424 1.322 . S
C2425 C2426 1.459 . S
C2425 H2489 0.929 . S
C2426 C2425 1.459 . S
C2426 C2427 1.445 . S
C2426 C2435 1.395 . S
C2427 C2405 1.432 . S
C2427 C2426 1.445 . S
C2427 C2428 1.370 . S
C2428 C2427 1.370 . S
C2428 C2429 1.438 . S
C2428 H2490 0.930 . S
C2429 C2415 1.497 . S
C2429 C2428 1.438 . S
C2429 C2430 1.360 . S
C2430 C2429 1.360 . S
C2430 C2431 1.401 . S
C2430 C2435 1.446 . S
C2431 C2430 1.401 . S
C2431 C2432 1.347 . S
C2431 H2491 0.929 . S
C2432 C2431 1.347 . S
C2432 C2433 1.455 . S
C2432 H2492 0.930 . S
C2433 C2420 1.412 . S
C2433 C2432 1.455 . S
C2433 C2434 1.331 . S
C2434 C2423 1.451 . S
C2434 C2433 1.331 . S
C2434 C2435 1.497 . S
C2435 C2426 1.395 . S
C2435 C2430 1.446 . S
C2435 C2434 1.497 . S
C2436 C2437 1.582 . S
C2436 H2493 0.962 . S
C2436 H2494 0.959 . S
C2436 H2495 0.958 . S
C2437 C2436 1.582 . S
C2437 O2440 1.458 . S
C2437 H2466 0.980 . S
O2438 C2383 1.426 . S
O2438 C2384 1.334 . S
O2439 C2411 1.412 . S
O2439 C2412 1.393 . S
O2440 C2402 1.435 . S
O2440 C2437 1.458 . S
O2441 C2393 1.468 . S
O2441 C2394 1.408 . S
H2442 C2383 0.980 . S
H2443 C2382 0.959 . S
H2444 C2382 0.959 . S
H2445 C2382 0.960 . S
H2446 C2385 0.929 . S
H2447 C2389 0.929 . S
H2448 C2390 0.959 . S
H2449 C2390 0.961 . S
H2450 C2390 0.961 . S
H2451 C2391 0.960 . S
H2452 C2391 0.960 . S
H2453 C2391 0.961 . S
H2454 C2393 0.980 . S
H2455 C2392 0.961 . S
H2456 C2392 0.960 . S
H2457 C2392 0.959 . S
H2458 C2395 0.930 . S
H2459 C2399 0.931 . S
H2460 C2400 0.959 . S
H2461 C2400 0.961 . S
H2462 C2400 0.959 . S
H2463 C2401 0.960 . S
H2464 C2401 0.960 . S
H2465 C2401 0.960 . S
H2466 C2437 0.980 . S
H2467 C2403 0.930 . S
H2468 C2407 0.930 . S
H2469 C2408 0.961 . S
H2470 C2408 0.960 . S
H2471 C2408 0.958 . S
H2472 C2409 0.961 . S
H2473 C2409 0.960 . S
H2474 C2409 0.960 . S
H2475 C2411 0.980 . S
H2476 C2410 0.961 . S
H2477 C2410 0.961 . S
H2478 C2410 0.959 . S
H2479 C2413 0.932 . S
H2480 C2417 0.929 . S
H2481 C2418 0.961 . S
H2482 C2418 0.959 . S
H2483 C2418 0.959 . S
H2484 C2419 0.960 . S
H2485 C2419 0.962 . S
H2486 C2419 0.961 . S
H2487 C2421 0.929 . S
H2488 C2424 0.930 . S
H2489 C2425 0.929 . S
H2490 C2428 0.930 . S
H2491 C2431 0.929 . S
H2492 C2432 0.930 . S
H2493 C2436 0.962 . S
H2494 C2436 0.959 . S
H2495 C2436 0.958 . S
C2496 C2497 1.560 . S
C2496 H2557 0.959 . S
C2496 H2558 0.959 . S
C2496 H2559 0.960 . S
C2497 C2496 1.560 . S
C2497 O2552 1.426 . S
C2497 H2556 0.980 . S
C2498 C2499 1.407 . S
C2498 C2503 1.418 . S
C2498 O2552 1.334 . S
C2499 C2498 1.407 . S
C2499 C2500 1.360 . S
C2499 H2560 0.929 . S
C2500 C2499 1.360 . S
C2500 C2501 1.401 . S
C2500 C2504 1.527 . S
C2501 C2500 1.401 . S
C2501 C2502 1.405 . S
C2501 C2534 1.587 . S
C2502 C2501 1.405 . S
C2502 C2503 1.332 . S
C2502 C2505 1.496 . S
C2503 C2498 1.418 . S
C2503 C2502 1.332 . S
C2503 H2561 0.929 . S
C2504 C2500 1.527 . S
C2504 H2562 0.959 . S
C2504 H2563 0.961 . S
C2504 H2564 0.961 . S
C2505 C2502 1.496 . S
C2505 H2565 0.960 . S
C2505 H2566 0.960 . S
C2505 H2567 0.961 . S
C2506 C2507 1.517 . S
C2506 H2569 0.961 . S
C2506 H2570 0.960 . S
C2506 H2571 0.959 . S
C2507 C2506 1.517 . S
C2507 O2555 1.468 . S
C2507 H2568 0.980 . S
C2508 C2509 1.349 . S
C2508 C2513 1.367 . S
C2508 O2555 1.408 . S
C2509 C2508 1.349 . S
C2509 C2510 1.407 . S
C2509 H2572 0.930 . S
C2510 C2509 1.407 . S
C2510 C2511 1.449 . S
C2510 C2514 1.535 . S
C2511 C2510 1.449 . S
C2511 C2512 1.384 . S
C2511 C2536 1.553 . S
C2512 C2511 1.384 . S
C2512 C2513 1.364 . S
C2512 C2515 1.450 . S
C2513 C2508 1.367 . S
C2513 C2512 1.364 . S
C2513 H2573 0.931 . S
C2514 C2510 1.535 . S
C2514 H2574 0.959 . S
C2514 H2575 0.961 . S
C2514 H2576 0.959 . S
C2515 C2512 1.450 . S
C2515 H2577 0.960 . S
C2515 H2578 0.960 . S
C2515 H2579 0.960 . S
C2516 C2517 1.309 . S
C2516 C2521 1.304 . S
C2516 O2554 1.435 . S
C2517 C2516 1.309 . S
C2517 C2518 1.476 . S
C2517 H2581 0.930 . S
C2518 C2517 1.476 . S
C2518 C2519 1.400 . S
C2518 C2522 1.567 . S
C2519 C2518 1.400 . S
C2519 C2520 1.373 . S
C2519 C2541 1.432 . S
C2520 C2519 1.373 . S
C2520 C2521 1.339 . S
C2520 C2523 1.530 . S
C2521 C2516 1.304 . S
C2521 C2520 1.339 . S
C2521 H2582 0.930 . S
C2522 C2518 1.567 . S
C2522 H2583 0.961 . S
C2522 H2584 0.960 . S
C2522 H2585 0.958 . S
C2523 C2520 1.530 . S
C2523 H2586 0.961 . S
C2523 H2587 0.960 . S
C2523 H2588 0.960 . S
C2524 C2525 1.530 . S
C2524 H2590 0.961 . S
C2524 H2591 0.961 . S
C2524 H2592 0.959 . S
C2525 C2524 1.530 . S
C2525 O2553 1.412 . S
C2525 H2589 0.980 . S
C2526 C2527 1.288 . S
C2526 C2531 1.377 . S
C2526 O2553 1.393 . S
C2527 C2526 1.288 . S
C2527 C2528 1.369 . S
C2527 H2593 0.932 . S
C2528 C2527 1.369 . S
C2528 C2529 1.398 . S
C2528 C2532 1.527 . S
C2529 C2528 1.398 . S
C2529 C2530 1.380 . S
C2529 C2543 1.497 . S
C2530 C2529 1.380 . S
C2530 C2531 1.383 . S
C2530 C2533 1.603 . S
C2531 C2526 1.377 . S
C2531 C2530 1.383 . S
C2531 H2594 0.929 . S
C2532 C2528 1.527 . S
C2532 H2595 0.961 . S
C2532 H2596 0.959 . S
C2532 H2597 0.959 . S
C2533 C2530 1.603 . S
C2533 H2598 0.960 . S
C2533 H2599 0.962 . S
C2533 H2600 0.961 . S
C2534 C2501 1.587 . S
C2534 C2535 1.360 . S
C2534 C2547 1.412 . S
C2535 C2534 1.360 . S
C2535 C2536 1.365 . S
C2535 H2601 0.929 . S
C2536 C2511 1.553 . S
C2536 C2535 1.365 . S
C2536 C2537 1.404 . S
C2537 C2536 1.404 . S
C2537 C2538 1.395 . S
C2537 C2548 1.451 . S
C2538 C2537 1.395 . S
C2538 C2539 1.322 . S
C2538 H2602 0.930 . S
C2539 C2538 1.322 . S
C2539 C2540 1.459 . S
C2539 H2603 0.929 . S
C2540 C2539 1.459 . S
C2540 C2541 1.445 . S
C2540 C2549 1.395 . S
C2541 C2519 1.432 . S
C2541 C2540 1.445 . S
C2541 C2542 1.370 . S
C2542 C2541 1.370 . S
C2542 C2543 1.438 . S
C2542 H2604 0.930 . S
C2543 C2529 1.497 . S
C2543 C2542 1.438 . S
C2543 C2544 1.360 . S
C2544 C2543 1.360 . S
C2544 C2545 1.401 . S
C2544 C2549 1.446 . S
C2545 C2544 1.401 . S
C2545 C2546 1.347 . S
C2545 H2605 0.929 . S
C2546 C2545 1.347 . S
C2546 C2547 1.455 . S
C2546 H2606 0.930 . S
C2547 C2534 1.412 . S
C2547 C2546 1.455 . S
C2547 C2548 1.331 . S
C2548 C2537 1.451 . S
C2548 C2547 1.331 . S
C2548 C2549 1.497 . S
C2549 C2540 1.395 . S
C2549 C2544 1.446 . S
C2549 C2548 1.497 . S
C2550 C2551 1.582 . S
C2550 H2607 0.962 . S
C2550 H2608 0.959 . S
C2550 H2609 0.958 . S
C2551 C2550 1.582 . S
C2551 O2554 1.458 . S
C2551 H2580 0.980 . S
O2552 C2497 1.426 . S
O2552 C2498 1.334 . S
O2553 C2525 1.412 . S
O2553 C2526 1.393 . S
O2554 C2516 1.435 . S
O2554 C2551 1.458 . S
O2555 C2507 1.468 . S
O2555 C2508 1.408 . S
H2556 C2497 0.980 . S
H2557 C2496 0.959 . S
H2558 C2496 0.959 . S
H2559 C2496 0.960 . S
H2560 C2499 0.929 . S
H2561 C2503 0.929 . S
H2562 C2504 0.959 . S
H2563 C2504 0.961 . S
H2564 C2504 0.961 . S
H2565 C2505 0.960 . S
H2566 C2505 0.960 . S
H2567 C2505 0.961 . S
H2568 C2507 0.980 . S
H2569 C2506 0.961 . S
H2570 C2506 0.960 . S
H2571 C2506 0.959 . S
H2572 C2509 0.930 . S
H2573 C2513 0.931 . S
H2574 C2514 0.959 . S
H2575 C2514 0.961 . S
H2576 C2514 0.959 . S
H2577 C2515 0.960 . S
H2578 C2515 0.960 . S
H2579 C2515 0.960 . S
H2580 C2551 0.980 . S
H2581 C2517 0.930 . S
H2582 C2521 0.930 . S
H2583 C2522 0.961 . S
H2584 C2522 0.960 . S
H2585 C2522 0.958 . S
H2586 C2523 0.961 . S
H2587 C2523 0.960 . S
H2588 C2523 0.960 . S
H2589 C2525 0.980 . S
H2590 C2524 0.961 . S
H2591 C2524 0.961 . S
H2592 C2524 0.959 . S
H2593 C2527 0.932 . S
H2594 C2531 0.929 . S
H2595 C2532 0.961 . S
H2596 C2532 0.959 . S
H2597 C2532 0.959 . S
H2598 C2533 0.960 . S
H2599 C2533 0.962 . S
H2600 C2533 0.961 . S
H2601 C2535 0.929 . S
H2602 C2538 0.930 . S
H2603 C2539 0.929 . S
H2604 C2542 0.930 . S
H2605 C2545 0.929 . S
H2606 C2546 0.930 . S
H2607 C2550 0.962 . S
H2608 C2550 0.959 . S
H2609 C2550 0.958 . S
C2610 C2611 1.560 . S
C2610 H2671 0.959 . S
C2610 H2672 0.959 . S
C2610 H2673 0.960 . S
C2611 C2610 1.560 . S
C2611 O2666 1.426 . S
C2611 H2670 0.980 . S
C2612 C2613 1.407 1_455 S
C2612 C2617 1.418 . S
C2612 O2666 1.334 . S
C2613 C2612 1.407 1_655 S
C2613 C2614 1.360 . S
C2613 H2674 0.929 . S
C2614 C2613 1.360 . S
C2614 C2615 1.401 1_655 S
C2614 C2618 1.527 . S
C2615 C2614 1.401 1_455 S
C2615 C2616 1.405 . S
C2615 C2648 1.587 1_455 S
C2616 C2615 1.405 . S
C2616 C2617 1.332 . S
C2616 C2619 1.496 . S
C2617 C2612 1.418 . S
C2617 C2616 1.332 . S
C2617 H2675 0.929 . S
C2618 C2614 1.527 . S
C2618 H2676 0.959 . S
C2618 H2677 0.961 . S
C2618 H2678 0.961 . S
C2619 C2616 1.496 . S
C2619 H2679 0.960 . S
C2619 H2680 0.960 . S
C2619 H2681 0.961 . S
C2620 C2621 1.517 . S
C2620 H2683 0.963 . S
C2620 H2684 0.960 . S
C2620 H2685 0.959 . S
C2621 C2620 1.517 . S
C2621 O2669 1.468 . S
C2621 H2682 0.980 1_655 S
C2622 C2623 1.349 . S
C2622 C2627 1.367 . S
C2622 O2669 1.408 . S
C2623 C2622 1.349 . S
C2623 C2624 1.356 1_655 S
C2623 H2686 0.930 1_655 S
C2624 C2623 1.356 1_455 S
C2624 C2625 1.405 1_455 S
C2624 C2628 1.626 . S
C2625 C2624 1.405 1_655 S
C2625 C2626 1.384 . S
C2625 C2650 1.553 . S
C2626 C2625 1.384 . S
C2626 C2627 1.364 . S
C2626 C2629 1.450 . S
C2627 C2622 1.367 . S
C2627 C2626 1.364 . S
C2627 H2687 0.931 . S
C2628 C2624 1.626 . S
C2628 H2688 0.959 . S
C2628 H2689 0.961 . S
C2628 H2690 0.959 . S
C2629 C2626 1.450 . S
C2629 H2691 0.960 . S
C2629 H2692 0.960 . S
C2629 H2693 0.960 . S
C2630 C2631 1.309 . S
C2630 C2635 1.304 . S
C2630 O2668 1.435 . S
C2631 C2630 1.309 . S
C2631 C2632 1.477 1_655 S
C2631 H2695 0.930 1_655 S
C2632 C2631 1.477 1_455 S
C2632 C2633 1.401 1_455 S
C2632 C2636 1.565 . S
C2633 C2632 1.401 1_655 S
C2633 C2634 1.373 . S
C2633 C2655 1.432 . S
C2634 C2633 1.373 . S
C2634 C2635 1.339 . S
C2634 C2637 1.530 . S
C2635 C2630 1.304 . S
C2635 C2634 1.339 . S
C2635 H2696 0.930 . S
C2636 C2632 1.565 . S
C2636 H2697 0.961 . S
C2636 H2698 0.960 . S
C2636 H2699 0.958 . S
C2637 C2634 1.530 . S
C2637 H2700 0.961 . S
C2637 H2701 0.960 . S
C2637 H2702 0.960 . S
C2638 C2639 1.510 1_455 S
C2638 H2704 0.961 . S
C2638 H2705 0.961 . S
C2638 H2706 0.959 . S
C2639 C2638 1.510 1_655 S
C2639 O2667 1.408 1_655 S
C2639 H2703 0.986 . S
C2640 C2641 1.288 . S
C2640 C2645 1.377 1_455 S
C2640 O2667 1.393 . S
C2641 C2640 1.288 . S
C2641 C2642 1.369 . S
C2641 H2707 0.932 . S
C2642 C2641 1.369 . S
C2642 C2643 1.398 1_455 S
C2642 C2646 1.527 . S
C2643 C2642 1.398 1_655 S
C2643 C2644 1.380 . S
C2643 C2657 1.497 . S
C2644 C2643 1.380 . S
C2644 C2645 1.383 . S
C2644 C2647 1.603 . S
C2645 C2640 1.377 1_655 S
C2645 C2644 1.383 . S
C2645 H2708 0.929 . S
C2646 C2642 1.527 . S
C2646 H2709 0.961 . S
C2646 H2710 0.959 . S
C2646 H2711 0.959 . S
C2647 C2644 1.603 . S
C2647 H2712 0.960 . S
C2647 H2713 0.962 . S
C2647 H2714 0.961 . S
C2648 C2615 1.587 1_655 S
C2648 C2649 1.360 . S
C2648 C2661 1.412 . S
C2649 C2648 1.360 . S
C2649 C2650 1.365 . S
C2649 H2715 0.929 . S
C2650 C2625 1.553 . S
C2650 C2649 1.365 . S
C2650 C2651 1.404 . S
C2651 C2650 1.404 . S
C2651 C2652 1.395 . S
C2651 C2662 1.451 . S
C2652 C2651 1.395 . S
C2652 C2653 1.322 . S
C2652 H2716 0.930 . S
C2653 C2652 1.322 . S
C2653 C2654 1.459 . S
C2653 H2717 0.929 . S
C2654 C2653 1.459 . S
C2654 C2655 1.445 . S
C2654 C2663 1.395 . S
C2655 C2633 1.432 . S
C2655 C2654 1.445 . S
C2655 C2656 1.370 . S
C2656 C2655 1.370 . S
C2656 C2657 1.438 . S
C2656 H2718 0.930 . S
C2657 C2643 1.497 . S
C2657 C2656 1.438 . S
C2657 C2658 1.360 . S
C2658 C2657 1.360 . S
C2658 C2659 1.401 . S
C2658 C2663 1.446 . S
C2659 C2658 1.401 . S
C2659 C2660 1.347 . S
C2659 H2719 0.929 . S
C2660 C2659 1.347 . S
C2660 C2661 1.455 . S
C2660 H2720 0.992 . S
C2661 C2648 1.412 . S
C2661 C2660 1.455 . S
C2661 C2662 1.331 . S
C2662 C2651 1.451 . S
C2662 C2661 1.331 . S
C2662 C2663 1.497 . S
C2663 C2654 1.395 . S
C2663 C2658 1.446 . S
C2663 C2662 1.497 . S
C2664 C2665 1.582 . S
C2664 H2721 0.962 . S
C2664 H2722 0.959 . S
C2664 H2723 0.958 . S
C2665 C2664 1.582 . S
C2665 O2668 1.458 . S
C2665 H2694 0.980 . S
O2666 C2611 1.426 . S
O2666 C2612 1.334 . S
O2667 C2639 1.408 1_455 S
O2667 C2640 1.393 . S
O2668 C2630 1.435 . S
O2668 C2665 1.458 . S
O2669 C2621 1.468 . S
O2669 C2622 1.408 . S
H2670 C2611 0.980 . S
H2671 C2610 0.959 . S
H2672 C2610 0.959 . S
H2673 C2610 0.960 . S
H2674 C2613 0.929 . S
H2675 C2617 0.929 . S
H2676 C2618 0.959 . S
H2677 C2618 0.961 . S
H2678 C2618 0.961 . S
H2679 C2619 0.960 . S
H2680 C2619 0.960 . S
H2681 C2619 0.961 . S
H2682 C2621 0.980 1_455 S
H2683 C2620 0.963 . S
H2684 C2620 0.960 . S
H2685 C2620 0.959 . S
H2686 C2623 0.930 1_455 S
H2687 C2627 0.931 . S
H2688 C2628 0.959 . S
H2689 C2628 0.961 . S
H2690 C2628 0.959 . S
H2691 C2629 0.960 . S
H2692 C2629 0.960 . S
H2693 C2629 0.960 . S
H2694 C2665 0.980 . S
H2695 C2631 0.930 1_455 S
H2696 C2635 0.930 . S
H2697 C2636 0.961 . S
H2698 C2636 0.960 . S
H2699 C2636 0.958 . S
H2700 C2637 0.961 . S
H2701 C2637 0.960 . S
H2702 C2637 0.960 . S
H2703 C2639 0.986 . S
H2704 C2638 0.961 . S
H2705 C2638 0.961 . S
H2706 C2638 0.959 . S
H2707 C2641 0.932 . S
H2708 C2645 0.929 . S
H2709 C2646 0.961 . S
H2710 C2646 0.959 . S
H2711 C2646 0.959 . S
H2712 C2647 0.960 . S
H2713 C2647 0.962 . S
H2714 C2647 0.961 . S
H2715 C2649 0.929 . S
H2716 C2652 0.930 . S
H2717 C2653 0.929 . S
H2718 C2656 0.930 . S
H2719 C2659 0.929 . S
H2720 C2660 0.992 . S
H2721 C2664 0.962 . S
H2722 C2664 0.959 . S
H2723 C2664 0.958 . S
C2724 C2725 1.560 . S
C2724 H2785 0.959 . S
C2724 H2786 0.959 . S
C2724 H2787 0.960 . S
C2725 C2724 1.560 . S
C2725 O2780 1.426 . S
C2725 H2784 0.980 . S
C2726 C2727 1.407 . S
C2726 C2731 1.418 . S
C2726 O2780 1.334 . S
C2727 C2726 1.407 . S
C2727 C2728 1.360 . S
C2727 H2788 0.929 . S
C2728 C2727 1.360 . S
C2728 C2729 1.401 . S
C2728 C2732 1.527 . S
C2729 C2728 1.401 . S
C2729 C2730 1.405 . S
C2729 C2762 1.587 . S
C2730 C2729 1.405 . S
C2730 C2731 1.332 . S
C2730 C2733 1.496 . S
C2731 C2726 1.418 . S
C2731 C2730 1.332 . S
C2731 H2789 0.929 . S
C2732 C2728 1.527 . S
C2732 H2790 0.959 . S
C2732 H2791 0.961 . S
C2732 H2792 0.961 . S
C2733 C2730 1.496 . S
C2733 H2793 0.960 . S
C2733 H2794 0.960 . S
C2733 H2795 0.961 . S
C2734 C2735 1.517 . S
C2734 H2797 0.961 . S
C2734 H2798 0.960 . S
C2734 H2799 0.959 . S
C2735 C2734 1.517 . S
C2735 O2783 1.468 . S
C2735 H2796 0.980 . S
C2736 C2737 1.349 . S
C2736 C2741 1.367 . S
C2736 O2783 1.408 . S
C2737 C2736 1.349 . S
C2737 C2738 1.407 . S
C2737 H2800 0.930 . S
C2738 C2737 1.407 . S
C2738 C2739 1.449 . S
C2738 C2742 1.535 . S
C2739 C2738 1.449 . S
C2739 C2740 1.384 . S
C2739 C2764 1.553 . S
C2740 C2739 1.384 . S
C2740 C2741 1.364 . S
C2740 C2743 1.450 . S
C2741 C2736 1.367 . S
C2741 C2740 1.364 . S
C2741 H2801 0.931 . S
C2742 C2738 1.535 . S
C2742 H2802 0.959 . S
C2742 H2803 0.961 . S
C2742 H2804 0.959 . S
C2743 C2740 1.450 . S
C2743 H2805 0.960 . S
C2743 H2806 0.960 . S
C2743 H2807 0.960 . S
C2744 C2745 1.309 . S
C2744 C2749 1.304 . S
C2744 O2782 1.435 . S
C2745 C2744 1.309 . S
C2745 C2746 1.476 . S
C2745 H2809 0.930 . S
C2746 C2745 1.476 . S
C2746 C2747 1.400 . S
C2746 C2750 1.567 . S
C2747 C2746 1.400 . S
C2747 C2748 1.373 . S
C2747 C2769 1.432 . S
C2748 C2747 1.373 . S
C2748 C2749 1.339 . S
C2748 C2751 1.530 . S
C2749 C2744 1.304 . S
C2749 C2748 1.339 . S
C2749 H2810 0.930 . S
C2750 C2746 1.567 . S
C2750 H2811 0.961 . S
C2750 H2812 0.960 . S
C2750 H2813 0.958 . S
C2751 C2748 1.530 . S
C2751 H2814 0.961 . S
C2751 H2815 0.960 . S
C2751 H2816 0.960 . S
C2752 C2753 1.530 . S
C2752 H2818 0.961 . S
C2752 H2819 0.961 . S
C2752 H2820 0.959 . S
C2753 C2752 1.530 . S
C2753 O2781 1.412 . S
C2753 H2817 0.980 . S
C2754 C2755 1.288 . S
C2754 C2759 1.377 . S
C2754 O2781 1.393 . S
C2755 C2754 1.288 . S
C2755 C2756 1.369 . S
C2755 H2821 0.932 . S
C2756 C2755 1.369 . S
C2756 C2757 1.398 . S
C2756 C2760 1.527 . S
C2757 C2756 1.398 . S
C2757 C2758 1.380 . S
C2757 C2771 1.497 . S
C2758 C2757 1.380 . S
C2758 C2759 1.383 . S
C2758 C2761 1.603 . S
C2759 C2754 1.377 . S
C2759 C2758 1.383 . S
C2759 H2822 0.929 . S
C2760 C2756 1.527 . S
C2760 H2823 0.961 . S
C2760 H2824 0.959 . S
C2760 H2825 0.959 . S
C2761 C2758 1.603 . S
C2761 H2826 0.960 . S
C2761 H2827 0.962 . S
C2761 H2828 0.961 . S
C2762 C2729 1.587 . S
C2762 C2763 1.360 . S
C2762 C2775 1.412 . S
C2763 C2762 1.360 . S
C2763 C2764 1.365 . S
C2763 H2829 0.929 . S
C2764 C2739 1.553 . S
C2764 C2763 1.365 . S
C2764 C2765 1.404 . S
C2765 C2764 1.404 . S
C2765 C2766 1.395 . S
C2765 C2776 1.451 . S
C2766 C2765 1.395 . S
C2766 C2767 1.322 . S
C2766 H2830 0.930 . S
C2767 C2766 1.322 . S
C2767 C2768 1.459 . S
C2767 H2831 0.929 . S
C2768 C2767 1.459 . S
C2768 C2769 1.445 . S
C2768 C2777 1.395 . S
C2769 C2747 1.432 . S
C2769 C2768 1.445 . S
C2769 C2770 1.370 . S
C2770 C2769 1.370 . S
C2770 C2771 1.438 . S
C2770 H2832 0.930 . S
C2771 C2757 1.497 . S
C2771 C2770 1.438 . S
C2771 C2772 1.360 . S
C2772 C2771 1.360 . S
C2772 C2773 1.401 . S
C2772 C2777 1.446 . S
C2773 C2772 1.401 . S
C2773 C2774 1.347 . S
C2773 H2833 0.929 . S
C2774 C2773 1.347 . S
C2774 C2775 1.455 . S
C2774 H2834 0.930 . S
C2775 C2762 1.412 . S
C2775 C2774 1.455 . S
C2775 C2776 1.331 . S
C2776 C2765 1.451 . S
C2776 C2775 1.331 . S
C2776 C2777 1.497 . S
C2777 C2768 1.395 . S
C2777 C2772 1.446 . S
C2777 C2776 1.497 . S
C2778 C2779 1.582 . S
C2778 H2835 0.962 . S
C2778 H2836 0.959 . S
C2778 H2837 0.958 . S
C2779 C2778 1.582 . S
C2779 O2782 1.458 . S
C2779 H2808 0.980 . S
O2780 C2725 1.426 . S
O2780 C2726 1.334 . S
O2781 C2753 1.412 . S
O2781 C2754 1.393 . S
O2782 C2744 1.435 . S
O2782 C2779 1.458 . S
O2783 C2735 1.468 . S
O2783 C2736 1.408 . S
H2784 C2725 0.980 . S
H2785 C2724 0.959 . S
H2786 C2724 0.959 . S
H2787 C2724 0.960 . S
H2788 C2727 0.929 . S
H2789 C2731 0.929 . S
H2790 C2732 0.959 . S
H2791 C2732 0.961 . S
H2792 C2732 0.961 . S
H2793 C2733 0.960 . S
H2794 C2733 0.960 . S
H2795 C2733 0.961 . S
H2796 C2735 0.980 . S
H2797 C2734 0.961 . S
H2798 C2734 0.960 . S
H2799 C2734 0.959 . S
H2800 C2737 0.930 . S
H2801 C2741 0.931 . S
H2802 C2742 0.959 . S
H2803 C2742 0.961 . S
H2804 C2742 0.959 . S
H2805 C2743 0.960 . S
H2806 C2743 0.960 . S
H2807 C2743 0.960 . S
H2808 C2779 0.980 . S
H2809 C2745 0.930 . S
H2810 C2749 0.930 . S
H2811 C2750 0.961 . S
H2812 C2750 0.960 . S
H2813 C2750 0.958 . S
H2814 C2751 0.961 . S
H2815 C2751 0.960 . S
H2816 C2751 0.960 . S
H2817 C2753 0.980 . S
H2818 C2752 0.961 . S
H2819 C2752 0.961 . S
H2820 C2752 0.959 . S
H2821 C2755 0.932 . S
H2822 C2759 0.929 . S
H2823 C2760 0.961 . S
H2824 C2760 0.959 . S
H2825 C2760 0.959 . S
H2826 C2761 0.960 . S
H2827 C2761 0.962 . S
H2828 C2761 0.961 . S
H2829 C2763 0.929 . S
H2830 C2766 0.930 . S
H2831 C2767 0.929 . S
H2832 C2770 0.930 . S
H2833 C2773 0.929 . S
H2834 C2774 0.930 . S
H2835 C2778 0.962 . S
H2836 C2778 0.959 . S
H2837 C2778 0.958 . S
C2838 C2839 1.560 . S
C2838 H2899 0.959 . S
C2838 H2900 0.959 . S
C2838 H2901 0.960 . S
C2839 C2838 1.560 . S
C2839 O2894 1.426 . S
C2839 H2898 0.980 . S
C2840 C2841 1.407 1_565 S
C2840 C2845 1.418 . S
C2840 O2894 1.334 . S
C2841 C2840 1.407 1_545 S
C2841 C2842 1.360 . S
C2841 H2902 0.929 . S
C2842 C2841 1.360 . S
C2842 C2843 1.401 1_545 S
C2842 C2846 1.527 . S
C2843 C2842 1.401 1_565 S
C2843 C2844 1.405 . S
C2843 C2876 1.587 1_565 S
C2844 C2843 1.405 . S
C2844 C2845 1.332 . S
C2844 C2847 1.496 . S
C2845 C2840 1.418 . S
C2845 C2844 1.332 . S
C2845 H2903 0.929 . S
C2846 C2842 1.527 . S
C2846 H2904 0.959 . S
C2846 H2905 0.961 . S
C2846 H2906 0.961 . S
C2847 C2844 1.496 . S
C2847 H2907 0.960 . S
C2847 H2908 0.960 . S
C2847 H2909 0.961 . S
C2848 C2849 1.517 . S
C2848 H2911 0.961 1_545 S
C2848 H2912 0.960 . S
C2848 H2913 0.959 . S
C2849 C2848 1.517 . S
C2849 O2897 1.468 . S
C2849 H2910 0.980 1_545 S
C2850 C2851 1.376 . S
C2850 C2855 1.367 . S
C2850 O2897 1.408 . S
C2851 C2850 1.376 . S
C2851 C2852 1.423 1_545 S
C2851 H2914 0.887 1_545 S
C2852 C2851 1.423 1_565 S
C2852 C2853 1.449 1_565 S
C2852 C2856 1.535 . S
C2853 C2852 1.449 1_545 S
C2853 C2854 1.384 . S
C2853 C2878 1.553 . S
C2854 C2853 1.384 . S
C2854 C2855 1.364 . S
C2854 C2857 1.450 . S
C2855 C2850 1.367 . S
C2855 C2854 1.364 . S
C2855 H2915 0.931 . S
C2856 C2852 1.535 . S
C2856 H2916 0.959 . S
C2856 H2917 0.961 . S
C2856 H2918 0.959 . S
C2857 C2854 1.450 . S
C2857 H2919 0.960 . S
C2857 H2920 0.960 . S
C2857 H2921 0.960 . S
C2858 C2859 1.309 . S
C2858 C2863 1.304 . S
C2858 O2896 1.435 . S
C2859 C2858 1.309 . S
C2859 C2860 1.490 1_545 S
C2859 H2923 0.930 1_545 S
C2860 C2859 1.490 1_565 S
C2860 C2861 1.355 1_565 S
C2860 C2864 1.598 . S
C2861 C2860 1.355 1_545 S
C2861 C2862 1.373 . S
C2861 C2883 1.432 . S
C2862 C2861 1.373 . S
C2862 C2863 1.339 . S
C2862 C2865 1.530 . S
C2863 C2858 1.304 . S
C2863 C2862 1.339 . S
C2863 H2924 0.930 . S
C2864 C2860 1.598 . S
C2864 H2925 0.961 . S
C2864 H2926 0.960 . S
C2864 H2927 0.958 . S
C2865 C2862 1.530 . S
C2865 H2928 0.961 . S
C2865 H2929 0.960 . S
C2865 H2930 0.960 . S
C2866 C2867 1.530 1_565 S
C2866 H2932 0.961 . S
C2866 H2933 0.961 . S
C2866 H2934 0.959 . S
C2867 C2866 1.530 1_545 S
C2867 O2895 1.412 1_545 S
C2867 H2931 0.980 . S
C2868 C2869 1.288 . S
C2868 C2873 1.377 1_565 S
C2868 O2895 1.393 . S
C2869 C2868 1.288 . S
C2869 C2870 1.369 . S
C2869 H2935 0.932 . S
C2870 C2869 1.369 . S
C2870 C2871 1.398 1_565 S
C2870 C2874 1.527 . S
C2871 C2870 1.398 1_545 S
C2871 C2872 1.380 . S
C2871 C2885 1.497 . S
C2872 C2871 1.380 . S
C2872 C2873 1.383 . S
C2872 C2875 1.603 . S
C2873 C2868 1.377 1_545 S
C2873 C2872 1.383 . S
C2873 H2936 0.929 . S
C2874 C2870 1.527 . S
C2874 H2937 0.961 . S
C2874 H2938 0.959 . S
C2874 H2939 0.959 . S
C2875 C2872 1.603 . S
C2875 H2940 0.960 . S
C2875 H2941 0.962 . S
C2875 H2942 0.961 . S
C2876 C2843 1.587 1_545 S
C2876 C2877 1.360 . S
C2876 C2889 1.412 . S
C2877 C2876 1.360 . S
C2877 C2878 1.365 . S
C2877 H2943 0.929 . S
C2878 C2853 1.553 . S
C2878 C2877 1.365 . S
C2878 C2879 1.404 . S
C2879 C2878 1.404 . S
C2879 C2880 1.395 . S
C2879 C2890 1.451 . S
C2880 C2879 1.395 . S
C2880 C2881 1.322 . S
C2880 H2944 0.930 . S
C2881 C2880 1.322 . S
C2881 C2882 1.459 . S
C2881 H2945 0.929 . S
C2882 C2881 1.459 . S
C2882 C2883 1.445 . S
C2882 C2891 1.395 . S
C2883 C2861 1.432 . S
C2883 C2882 1.445 . S
C2883 C2884 1.370 . S
C2884 C2883 1.370 . S
C2884 C2885 1.438 . S
C2884 H2946 0.930 . S
C2885 C2871 1.497 . S
C2885 C2884 1.438 . S
C2885 C2886 1.360 . S
C2886 C2885 1.360 . S
C2886 C2887 1.401 . S
C2886 C2891 1.446 . S
C2887 C2886 1.401 . S
C2887 C2888 1.347 . S
C2887 H2947 0.929 . S
C2888 C2887 1.347 . S
C2888 C2889 1.455 . S
C2888 H2948 0.930 . S
C2889 C2876 1.412 . S
C2889 C2888 1.455 . S
C2889 C2890 1.331 . S
C2890 C2879 1.451 . S
C2890 C2889 1.331 . S
C2890 C2891 1.497 . S
C2891 C2882 1.395 . S
C2891 C2886 1.446 . S
C2891 C2890 1.497 . S
C2892 C2893 1.582 . S
C2892 H2949 0.962 . S
C2892 H2950 0.959 . S
C2892 H2951 0.958 . S
C2893 C2892 1.582 . S
C2893 O2896 1.458 . S
C2893 H2922 0.980 . S
O2894 C2839 1.426 . S
O2894 C2840 1.334 . S
O2895 C2867 1.412 1_565 S
O2895 C2868 1.393 . S
O2896 C2858 1.435 . S
O2896 C2893 1.458 . S
O2897 C2849 1.468 . S
O2897 C2850 1.408 . S
H2898 C2839 0.980 . S
H2899 C2838 0.959 . S
H2900 C2838 0.959 . S
H2901 C2838 0.960 . S
H2902 C2841 0.929 . S
H2903 C2845 0.929 . S
H2904 C2846 0.959 . S
H2905 C2846 0.961 . S
H2906 C2846 0.961 . S
H2907 C2847 0.960 . S
H2908 C2847 0.960 . S
H2909 C2847 0.961 . S
H2910 C2849 0.980 1_565 S
H2911 C2848 0.961 1_565 S
H2912 C2848 0.960 . S
H2913 C2848 0.959 . S
H2914 C2851 0.887 1_565 S
H2915 C2855 0.931 . S
H2916 C2856 0.959 . S
H2917 C2856 0.961 . S
H2918 C2856 0.959 . S
H2919 C2857 0.960 . S
H2920 C2857 0.960 . S
H2921 C2857 0.960 . S
H2922 C2893 0.980 . S
H2923 C2859 0.930 1_565 S
H2924 C2863 0.930 . S
H2925 C2864 0.961 . S
H2926 C2864 0.960 . S
H2927 C2864 0.958 . S
H2928 C2865 0.961 . S
H2929 C2865 0.960 . S
H2930 C2865 0.960 . S
H2931 C2867 0.980 . S
H2932 C2866 0.961 . S
H2933 C2866 0.961 . S
H2934 C2866 0.959 . S
H2935 C2869 0.932 . S
H2936 C2873 0.929 . S
H2937 C2874 0.961 . S
H2938 C2874 0.959 . S
H2939 C2874 0.959 . S
H2940 C2875 0.960 . S
H2941 C2875 0.962 . S
H2942 C2875 0.961 . S
H2943 C2877 0.929 . S
H2944 C2880 0.930 . S
H2945 C2881 0.929 . S
H2946 C2884 0.930 . S
H2947 C2887 0.929 . S
H2948 C2888 0.930 . S
H2949 C2892 0.962 . S
H2950 C2892 0.959 . S
H2951 C2892 0.958 . S
C2952 C2953 1.560 . S
C2952 H3013 0.959 . S
C2952 H3014 0.959 . S
C2952 H3015 0.960 . S
C2953 C2952 1.560 . S
C2953 O3008 1.426 . S
C2953 H3012 0.980 1_565 S
C2954 C2955 1.407 1_565 S
C2954 C2959 1.418 . S
C2954 O3008 1.334 . S
C2955 C2954 1.407 1_545 S
C2955 C2956 1.360 . S
C2955 H3016 0.929 . S
C2956 C2955 1.360 . S
C2956 C2957 1.401 . S
C2956 C2960 1.527 . S
C2957 C2956 1.401 . S
C2957 C2958 1.405 1_545 S
C2957 C2990 1.587 . S
C2958 C2957 1.405 1_565 S
C2958 C2959 1.332 . S
C2958 C2961 1.496 . S
C2959 C2954 1.418 . S
C2959 C2958 1.332 . S
C2959 H3017 0.929 . S
C2960 C2956 1.527 . S
C2960 H3018 0.959 . S
C2960 H3019 0.961 . S
C2960 H3020 0.961 . S
C2961 C2958 1.496 . S
C2961 H3021 0.960 . S
C2961 H3022 0.960 . S
C2961 H3023 0.961 . S
C2962 C2963 1.517 . S
C2962 H3025 0.961 . S
C2962 H3026 0.960 . S
C2962 H3027 0.959 . S
C2963 C2962 1.517 . S
C2963 O3011 1.468 . S
C2963 H3024 0.980 . S
C2964 C2965 1.349 . S
C2964 C2969 1.367 . S
C2964 O3011 1.408 . S
C2965 C2964 1.349 . S
C2965 C2966 1.407 . S
C2965 H3028 0.935 . S
C2966 C2965 1.407 . S
C2966 C2967 1.449 . S
C2966 C2970 1.535 1_545 S
C2967 C2966 1.449 . S
C2967 C2968 1.384 . S
C2967 C2992 1.553 . S
C2968 C2967 1.384 . S
C2968 C2969 1.364 . S
C2968 C2971 1.450 . S
C2969 C2964 1.367 . S
C2969 C2968 1.364 . S
C2969 H3029 0.931 . S
C2970 C2966 1.535 1_565 S
C2970 H3030 0.959 . S
C2970 H3031 0.961 . S
C2970 H3032 0.959 . S
C2971 C2968 1.450 . S
C2971 H3033 0.960 . S
C2971 H3034 0.960 . S
C2971 H3035 0.960 . S
C2972 C2973 1.309 1_545 S
C2972 C2977 1.304 . S
C2972 O3010 1.435 . S
C2973 C2972 1.309 1_565 S
C2973 C2974 1.476 . S
C2973 H3037 0.930 . S
C2974 C2973 1.476 . S
C2974 C2975 1.400 1_565 S
C2974 C2978 1.567 . S
C2975 C2974 1.400 1_545 S
C2975 C2976 1.373 . S
C2975 C2997 1.432 . S
C2976 C2975 1.373 . S
C2976 C2977 1.339 . S
C2976 C2979 1.530 . S
C2977 C2972 1.304 . S
C2977 C2976 1.339 . S
C2977 H3038 0.930 . S
C2978 C2974 1.567 . S
C2978 H3039 0.961 . S
C2978 H3040 0.960 . S
C2978 H3041 0.958 . S
C2979 C2976 1.530 . S
C2979 H3042 0.961 . S
C2979 H3043 0.960 . S
C2979 H3044 0.960 . S
C2980 C2981 1.530 . S
C2980 H3046 0.961 . S
C2980 H3047 0.961 . S
C2980 H3048 0.959 . S
C2981 C2980 1.530 . S
C2981 O3009 1.412 . S
C2981 H3045 1.009 . S
C2982 C2983 1.288 . S
C2982 C2987 1.377 1_565 S
C2982 O3009 1.393 . S
C2983 C2982 1.288 . S
C2983 C2984 1.369 . S
C2983 H3049 0.932 . S
C2984 C2983 1.369 . S
C2984 C2985 1.398 . S
C2984 C2988 1.527 . S
C2985 C2984 1.398 . S
C2985 C2986 1.380 1_565 S
C2985 C2999 1.497 1_565 S
C2986 C2985 1.380 1_545 S
C2986 C2987 1.383 . S
C2986 C2989 1.603 . S
C2987 C2982 1.377 1_545 S
C2987 C2986 1.383 . S
C2987 H3050 0.929 . S
C2988 C2984 1.527 . S
C2988 H3051 0.961 . S
C2988 H3052 0.959 . S
C2988 H3053 0.959 . S
C2989 C2986 1.603 . S
C2989 H3054 0.960 . S
C2989 H3055 0.962 . S
C2989 H3056 0.961 . S
C2990 C2957 1.587 . S
C2990 C2991 1.360 . S
C2990 C3003 1.412 . S
C2991 C2990 1.360 . S
C2991 C2992 1.365 . S
C2991 H3057 0.929 . S
C2992 C2967 1.553 . S
C2992 C2991 1.365 . S
C2992 C2993 1.404 . S
C2993 C2992 1.404 . S
C2993 C2994 1.395 . S
C2993 C3004 1.451 . S
C2994 C2993 1.395 . S
C2994 C2995 1.322 . S
C2994 H3058 0.930 . S
C2995 C2994 1.322 . S
C2995 C2996 1.459 . S
C2995 H3059 0.929 . S
C2996 C2995 1.459 . S
C2996 C2997 1.445 . S
C2996 C3005 1.395 . S
C2997 C2975 1.432 . S
C2997 C2996 1.445 . S
C2997 C2998 1.370 . S
C2998 C2997 1.370 . S
C2998 C2999 1.438 . S
C2998 H3060 0.930 . S
C2999 C2985 1.497 1_545 S
C2999 C2998 1.438 . S
C2999 C3000 1.360 . S
C3000 C2999 1.360 . S
C3000 C3001 1.401 . S
C3000 C3005 1.446 . S
C3001 C3000 1.401 . S
C3001 C3002 1.347 . S
C3001 H3061 0.959 . S
C3002 C3001 1.347 . S
C3002 C3003 1.455 . S
C3002 H3062 0.930 . S
C3003 C2990 1.412 . S
C3003 C3002 1.455 . S
C3003 C3004 1.331 . S
C3004 C2993 1.451 . S
C3004 C3003 1.331 . S
C3004 C3005 1.497 . S
C3005 C2996 1.395 . S
C3005 C3000 1.446 . S
C3005 C3004 1.497 . S
C3006 C3007 1.632 . S
C3006 H3063 0.962 . S
C3006 H3064 0.959 . S
C3006 H3065 0.958 . S
C3007 C3006 1.632 . S
C3007 O3010 1.478 . S
C3007 H3036 0.981 1_545 S
O3008 C2953 1.426 . S
O3008 C2954 1.334 . S
O3009 C2981 1.412 . S
O3009 C2982 1.393 . S
O3010 C2972 1.435 . S
O3010 C3007 1.478 . S
O3011 C2963 1.468 . S
O3011 C2964 1.408 . S
H3012 C2953 0.980 1_545 S
H3013 C2952 0.959 . S
H3014 C2952 0.959 . S
H3015 C2952 0.960 . S
H3016 C2955 0.929 . S
H3017 C2959 0.929 . S
H3018 C2960 0.959 . S
H3019 C2960 0.961 . S
H3020 C2960 0.961 . S
H3021 C2961 0.960 . S
H3022 C2961 0.960 . S
H3023 C2961 0.961 . S
H3024 C2963 0.980 . S
H3025 C2962 0.961 . S
H3026 C2962 0.960 . S
H3027 C2962 0.959 . S
H3028 C2965 0.935 . S
H3029 C2969 0.931 . S
H3030 C2970 0.959 . S
H3031 C2970 0.961 . S
H3032 C2970 0.959 . S
H3033 C2971 0.960 . S
H3034 C2971 0.960 . S
H3035 C2971 0.960 . S
H3036 C3007 0.981 1_565 S
H3037 C2973 0.930 . S
H3038 C2977 0.930 . S
H3039 C2978 0.961 . S
H3040 C2978 0.960 . S
H3041 C2978 0.958 . S
H3042 C2979 0.961 . S
H3043 C2979 0.960 . S
H3044 C2979 0.960 . S
H3045 C2981 1.009 . S
H3046 C2980 0.961 . S
H3047 C2980 0.961 . S
H3048 C2980 0.959 . S
H3049 C2983 0.932 . S
H3050 C2987 0.929 . S
H3051 C2988 0.961 . S
H3052 C2988 0.959 . S
H3053 C2988 0.959 . S
H3054 C2989 0.960 . S
H3055 C2989 0.962 . S
H3056 C2989 0.961 . S
H3057 C2991 0.929 . S
H3058 C2994 0.930 . S
H3059 C2995 0.929 . S
H3060 C2998 0.930 . S
H3061 C3001 0.959 . S
H3062 C3002 0.930 . S
H3063 C3006 0.962 . S
H3064 C3006 0.959 . S
H3065 C3006 0.958 . S
C3066 C3067 1.560 . S
C3066 H3127 0.959 . S
C3066 H3128 0.959 . S
C3066 H3129 0.960 . S
C3067 C3066 1.560 . S
C3067 O3122 1.426 . S
C3067 H3126 0.980 1_455 S
C3068 C3069 1.407 1_455 S
C3068 C3073 1.418 . S
C3068 O3122 1.334 . S
C3069 C3068 1.407 1_655 S
C3069 C3070 1.360 . S
C3069 H3130 0.929 . S
C3070 C3069 1.360 . S
C3070 C3071 1.401 . S
C3070 C3074 1.527 . S
C3071 C3070 1.401 . S
C3071 C3072 1.405 1_655 S
C3071 C3104 1.587 . S
C3072 C3071 1.405 1_455 S
C3072 C3073 1.332 . S
C3072 C3075 1.496 . S
C3073 C3068 1.418 . S
C3073 C3072 1.332 . S
C3073 H3131 0.929 . S
C3074 C3070 1.527 . S
C3074 H3132 0.959 . S
C3074 H3133 0.961 . S
C3074 H3134 0.961 . S
C3075 C3072 1.496 . S
C3075 H3135 0.960 . S
C3075 H3136 0.960 . S
C3075 H3137 0.961 . S
C3076 C3077 1.517 . S
C3076 H3139 0.961 . S
C3076 H3140 0.960 . S
C3076 H3141 0.959 . S
C3077 C3076 1.517 . S
C3077 O3125 1.468 . S
C3077 H3138 0.980 . S
C3078 C3079 1.349 . S
C3078 C3083 1.367 . S
C3078 O3125 1.408 . S
C3079 C3078 1.349 . S
C3079 C3080 1.407 . S
C3079 H3142 0.940 1_655 S
C3080 C3079 1.407 . S
C3080 C3081 1.449 . S
C3080 C3084 1.535 1_655 S
C3081 C3080 1.449 . S
C3081 C3082 1.384 . S
C3081 C3106 1.553 . S
C3082 C3081 1.384 . S
C3082 C3083 1.364 . S
C3082 C3085 1.450 . S
C3083 C3078 1.367 . S
C3083 C3082 1.364 . S
C3083 H3143 0.931 . S
C3084 C3080 1.535 1_455 S
C3084 H3144 0.959 . S
C3084 H3145 0.961 . S
C3084 H3146 0.959 . S
C3085 C3082 1.450 . S
C3085 H3147 0.960 . S
C3085 H3148 0.960 . S
C3085 H3149 0.960 . S
C3086 C3087 1.309 1_655 S
C3086 C3091 1.304 . S
C3086 O3124 1.435 . S
C3087 C3086 1.309 1_455 S
C3087 C3088 1.476 . S
C3087 H3151 0.930 . S
C3088 C3087 1.476 . S
C3088 C3089 1.400 1_455 S
C3088 C3092 1.567 . S
C3089 C3088 1.400 1_655 S
C3089 C3090 1.373 . S
C3089 C3111 1.432 . S
C3090 C3089 1.373 . S
C3090 C3091 1.339 . S
C3090 C3093 1.530 . S
C3091 C3086 1.304 . S
C3091 C3090 1.339 . S
C3091 H3152 0.930 . S
C3092 C3088 1.567 . S
C3092 H3153 0.961 . S
C3092 H3154 0.960 . S
C3092 H3155 0.958 . S
C3093 C3090 1.530 . S
C3093 H3156 0.961 . S
C3093 H3157 0.960 . S
C3093 H3158 0.960 . S
C3094 C3095 1.530 . S
C3094 H3160 0.961 . S
C3094 H3161 0.961 . S
C3094 H3162 0.959 . S
C3095 C3094 1.530 . S
C3095 O3123 1.412 . S
C3095 H3159 0.984 . S
C3096 C3097 1.288 . S
C3096 C3101 1.377 1_455 S
C3096 O3123 1.393 . S
C3097 C3096 1.288 . S
C3097 C3098 1.369 . S
C3097 H3163 0.932 . S
C3098 C3097 1.369 . S
C3098 C3099 1.398 . S
C3098 C3102 1.527 . S
C3099 C3098 1.398 . S
C3099 C3100 1.380 1_455 S
C3099 C3113 1.497 1_455 S
C3100 C3099 1.380 1_655 S
C3100 C3101 1.383 . S
C3100 C3103 1.603 . S
C3101 C3096 1.377 1_655 S
C3101 C3100 1.383 . S
C3101 H3164 0.929 . S
C3102 C3098 1.527 . S
C3102 H3165 0.961 . S
C3102 H3166 0.959 . S
C3102 H3167 0.959 . S
C3103 C3100 1.603 . S
C3103 H3168 0.960 . S
C3103 H3169 0.962 . S
C3103 H3170 0.961 . S
C3104 C3071 1.587 . S
C3104 C3105 1.360 . S
C3104 C3117 1.412 . S
C3105 C3104 1.360 . S
C3105 C3106 1.365 . S
C3105 H3171 0.929 . S
C3106 C3081 1.553 . S
C3106 C3105 1.365 . S
C3106 C3107 1.404 . S
C3107 C3106 1.404 . S
C3107 C3108 1.395 . S
C3107 C3118 1.451 . S
C3108 C3107 1.395 . S
C3108 C3109 1.322 . S
C3108 H3172 0.930 . S
C3109 C3108 1.322 . S
C3109 C3110 1.459 . S
C3109 H3173 0.929 . S
C3110 C3109 1.459 . S
C3110 C3111 1.445 . S
C3110 C3119 1.395 . S
C3111 C3089 1.432 . S
C3111 C3110 1.445 . S
C3111 C3112 1.370 . S
C3112 C3111 1.370 . S
C3112 C3113 1.438 . S
C3112 H3174 0.930 . S
C3113 C3099 1.497 1_655 S
C3113 C3112 1.438 . S
C3113 C3114 1.360 . S
C3114 C3113 1.360 . S
C3114 C3115 1.401 . S
C3114 C3119 1.446 . S
C3115 C3114 1.401 . S
C3115 C3116 1.347 . S
C3115 H3175 0.910 . S
C3116 C3115 1.347 . S
C3116 C3117 1.455 . S
C3116 H3176 0.930 . S
C3117 C3104 1.412 . S
C3117 C3116 1.455 . S
C3117 C3118 1.331 . S
C3118 C3107 1.451 . S
C3118 C3117 1.331 . S
C3118 C3119 1.497 . S
C3119 C3110 1.395 . S
C3119 C3114 1.446 . S
C3119 C3118 1.497 . S
C3120 C3121 1.582 1_655 S
C3120 H3177 0.958 1_655 S
C3120 H3178 0.959 . S
C3120 H3179 0.958 . S
C3121 C3120 1.582 1_455 S
C3121 O3124 1.384 1_455 S
C3121 H3150 1.011 . S
O3122 C3067 1.426 . S
O3122 C3068 1.334 . S
O3123 C3095 1.412 . S
O3123 C3096 1.393 . S
O3124 C3086 1.435 . S
O3124 C3121 1.384 1_655 S
O3125 C3077 1.468 . S
O3125 C3078 1.408 . S
H3126 C3067 0.980 1_655 S
H3127 C3066 0.959 . S
H3128 C3066 0.959 . S
H3129 C3066 0.960 . S
H3130 C3069 0.929 . S
H3131 C3073 0.929 . S
H3132 C3074 0.959 . S
H3133 C3074 0.961 . S
H3134 C3074 0.961 . S
H3135 C3075 0.960 . S
H3136 C3075 0.960 . S
H3137 C3075 0.961 . S
H3138 C3077 0.980 . S
H3139 C3076 0.961 . S
H3140 C3076 0.960 . S
H3141 C3076 0.959 . S
H3142 C3079 0.940 1_455 S
H3143 C3083 0.931 . S
H3144 C3084 0.959 . S
H3145 C3084 0.961 . S
H3146 C3084 0.959 . S
H3147 C3085 0.960 . S
H3148 C3085 0.960 . S
H3149 C3085 0.960 . S
H3150 C3121 1.011 . S
H3151 C3087 0.930 . S
H3152 C3091 0.930 . S
H3153 C3092 0.961 . S
H3154 C3092 0.960 . S
H3155 C3092 0.958 . S
H3156 C3093 0.961 . S
H3157 C3093 0.960 . S
H3158 C3093 0.960 . S
H3159 C3095 0.984 . S
H3160 C3094 0.961 . S
H3161 C3094 0.961 . S
H3162 C3094 0.959 . S
H3163 C3097 0.932 . S
H3164 C3101 0.929 . S
H3165 C3102 0.961 . S
H3166 C3102 0.959 . S
H3167 C3102 0.959 . S
H3168 C3103 0.960 . S
H3169 C3103 0.962 . S
H3170 C3103 0.961 . S
H3171 C3105 0.929 . S
H3172 C3108 0.930 . S
H3173 C3109 0.929 . S
H3174 C3112 0.930 . S
H3175 C3115 0.910 . S
H3176 C3116 0.930 . S
H3177 C3120 0.958 1_455 S
H3178 C3120 0.959 . S
H3179 C3120 0.958 . S
C3180 C3181 1.560 . S
C3180 H3241 0.959 . S
C3180 H3242 0.959 . S
C3180 H3243 0.960 . S
C3181 C3180 1.560 . S
C3181 O3236 1.426 . S
C3181 H3240 0.980 . S
C3182 C3183 1.407 . S
C3182 C3187 1.418 . S
C3182 O3236 1.334 . S
C3183 C3182 1.407 . S
C3183 C3184 1.360 . S
C3183 H3244 0.929 . S
C3184 C3183 1.360 . S
C3184 C3185 1.401 . S
C3184 C3188 1.527 . S
C3185 C3184 1.401 . S
C3185 C3186 1.405 . S
C3185 C3218 1.587 . S
C3186 C3185 1.405 . S
C3186 C3187 1.332 . S
C3186 C3189 1.496 . S
C3187 C3182 1.418 . S
C3187 C3186 1.332 . S
C3187 H3245 0.929 . S
C3188 C3184 1.527 . S
C3188 H3246 0.959 . S
C3188 H3247 0.961 . S
C3188 H3248 0.961 . S
C3189 C3186 1.496 . S
C3189 H3249 0.960 . S
C3189 H3250 0.960 . S
C3189 H3251 0.961 . S
C3190 C3191 1.517 . S
C3190 H3253 0.961 . S
C3190 H3254 0.960 . S
C3190 H3255 0.959 . S
C3191 C3190 1.517 . S
C3191 O3239 1.468 . S
C3191 H3252 0.980 . S
C3192 C3193 1.349 . S
C3192 C3197 1.367 . S
C3192 O3239 1.408 . S
C3193 C3192 1.349 . S
C3193 C3194 1.407 . S
C3193 H3256 0.930 . S
C3194 C3193 1.407 . S
C3194 C3195 1.449 . S
C3194 C3198 1.535 . S
C3195 C3194 1.449 . S
C3195 C3196 1.384 . S
C3195 C3220 1.553 . S
C3196 C3195 1.384 . S
C3196 C3197 1.364 . S
C3196 C3199 1.450 . S
C3197 C3192 1.367 . S
C3197 C3196 1.364 . S
C3197 H3257 0.931 . S
C3198 C3194 1.535 . S
C3198 H3258 0.959 . S
C3198 H3259 0.961 . S
C3198 H3260 0.959 . S
C3199 C3196 1.450 . S
C3199 H3261 0.960 . S
C3199 H3262 0.960 . S
C3199 H3263 0.960 . S
C3200 C3201 1.309 . S
C3200 C3205 1.304 . S
C3200 O3238 1.435 . S
C3201 C3200 1.309 . S
C3201 C3202 1.476 . S
C3201 H3265 0.930 . S
C3202 C3201 1.476 . S
C3202 C3203 1.400 . S
C3202 C3206 1.567 . S
C3203 C3202 1.400 . S
C3203 C3204 1.373 . S
C3203 C3225 1.432 . S
C3204 C3203 1.373 . S
C3204 C3205 1.339 . S
C3204 C3207 1.530 . S
C3205 C3200 1.304 . S
C3205 C3204 1.339 . S
C3205 H3266 0.930 . S
C3206 C3202 1.567 . S
C3206 H3267 0.961 . S
C3206 H3268 0.960 . S
C3206 H3269 0.958 . S
C3207 C3204 1.530 . S
C3207 H3270 0.961 . S
C3207 H3271 0.960 . S
C3207 H3272 0.960 . S
C3208 C3209 1.530 . S
C3208 H3274 0.961 . S
C3208 H3275 0.961 . S
C3208 H3276 0.959 . S
C3209 C3208 1.530 . S
C3209 O3237 1.412 . S
C3209 H3273 0.980 . S
C3210 C3211 1.288 . S
C3210 C3215 1.377 . S
C3210 O3237 1.393 . S
C3211 C3210 1.288 . S
C3211 C3212 1.369 . S
C3211 H3277 0.932 . S
C3212 C3211 1.369 . S
C3212 C3213 1.398 . S
C3212 C3216 1.527 . S
C3213 C3212 1.398 . S
C3213 C3214 1.380 . S
C3213 C3227 1.497 . S
C3214 C3213 1.380 . S
C3214 C3215 1.383 . S
C3214 C3217 1.603 . S
C3215 C3210 1.377 . S
C3215 C3214 1.383 . S
C3215 H3278 0.929 . S
C3216 C3212 1.527 . S
C3216 H3279 0.961 . S
C3216 H3280 0.959 . S
C3216 H3281 0.959 . S
C3217 C3214 1.603 . S
C3217 H3282 0.960 . S
C3217 H3283 0.962 . S
C3217 H3284 0.961 . S
C3218 C3185 1.587 . S
C3218 C3219 1.360 . S
C3218 C3231 1.412 . S
C3219 C3218 1.360 . S
C3219 C3220 1.365 . S
C3219 H3285 0.929 . S
C3220 C3195 1.553 . S
C3220 C3219 1.365 . S
C3220 C3221 1.404 . S
C3221 C3220 1.404 . S
C3221 C3222 1.395 . S
C3221 C3232 1.451 . S
C3222 C3221 1.395 . S
C3222 C3223 1.322 . S
C3222 H3286 0.930 . S
C3223 C3222 1.322 . S
C3223 C3224 1.459 . S
C3223 H3287 0.929 . S
C3224 C3223 1.459 . S
C3224 C3225 1.445 . S
C3224 C3233 1.395 . S
C3225 C3203 1.432 . S
C3225 C3224 1.445 . S
C3225 C3226 1.370 . S
C3226 C3225 1.370 . S
C3226 C3227 1.438 . S
C3226 H3288 0.930 . S
C3227 C3213 1.497 . S
C3227 C3226 1.438 . S
C3227 C3228 1.360 . S
C3228 C3227 1.360 . S
C3228 C3229 1.401 . S
C3228 C3233 1.446 . S
C3229 C3228 1.401 . S
C3229 C3230 1.347 . S
C3229 H3289 0.929 . S
C3230 C3229 1.347 . S
C3230 C3231 1.455 . S
C3230 H3290 0.930 . S
C3231 C3218 1.412 . S
C3231 C3230 1.455 . S
C3231 C3232 1.331 . S
C3232 C3221 1.451 . S
C3232 C3231 1.331 . S
C3232 C3233 1.497 . S
C3233 C3224 1.395 . S
C3233 C3228 1.446 . S
C3233 C3232 1.497 . S
C3234 C3235 1.582 . S
C3234 H3291 0.962 . S
C3234 H3292 0.959 . S
C3234 H3293 0.958 . S
C3235 C3234 1.582 . S
C3235 O3238 1.458 . S
C3235 H3264 0.980 . S
O3236 C3181 1.426 . S
O3236 C3182 1.334 . S
O3237 C3209 1.412 . S
O3237 C3210 1.393 . S
O3238 C3200 1.435 . S
O3238 C3235 1.458 . S
O3239 C3191 1.468 . S
O3239 C3192 1.408 . S
H3240 C3181 0.980 . S
H3241 C3180 0.959 . S
H3242 C3180 0.959 . S
H3243 C3180 0.960 . S
H3244 C3183 0.929 . S
H3245 C3187 0.929 . S
H3246 C3188 0.959 . S
H3247 C3188 0.961 . S
H3248 C3188 0.961 . S
H3249 C3189 0.960 . S
H3250 C3189 0.960 . S
H3251 C3189 0.961 . S
H3252 C3191 0.980 . S
H3253 C3190 0.961 . S
H3254 C3190 0.960 . S
H3255 C3190 0.959 . S
H3256 C3193 0.930 . S
H3257 C3197 0.931 . S
H3258 C3198 0.959 . S
H3259 C3198 0.961 . S
H3260 C3198 0.959 . S
H3261 C3199 0.960 . S
H3262 C3199 0.960 . S
H3263 C3199 0.960 . S
H3264 C3235 0.980 . S
H3265 C3201 0.930 . S
H3266 C3205 0.930 . S
H3267 C3206 0.961 . S
H3268 C3206 0.960 . S
H3269 C3206 0.958 . S
H3270 C3207 0.961 . S
H3271 C3207 0.960 . S
H3272 C3207 0.960 . S
H3273 C3209 0.980 . S
H3274 C3208 0.961 . S
H3275 C3208 0.961 . S
H3276 C3208 0.959 . S
H3277 C3211 0.932 . S
H3278 C3215 0.929 . S
H3279 C3216 0.961 . S
H3280 C3216 0.959 . S
H3281 C3216 0.959 . S
H3282 C3217 0.960 . S
H3283 C3217 0.962 . S
H3284 C3217 0.961 . S
H3285 C3219 0.929 . S
H3286 C3222 0.930 . S
H3287 C3223 0.929 . S
H3288 C3226 0.930 . S
H3289 C3229 0.929 . S
H3290 C3230 0.930 . S
H3291 C3234 0.962 . S
H3292 C3234 0.959 . S
H3293 C3234 0.958 . S
C3294 C3295 1.560 . S
C3294 H3355 0.959 . S
C3294 H3356 0.959 . S
C3294 H3357 0.960 . S
C3295 C3294 1.560 . S
C3295 O3350 1.426 . S
C3295 H3354 0.980 . S
C3296 C3297 1.407 . S
C3296 C3301 1.418 . S
C3296 O3350 1.334 . S
C3297 C3296 1.407 . S
C3297 C3298 1.360 . S
C3297 H3358 0.929 . S
C3298 C3297 1.360 . S
C3298 C3299 1.401 . S
C3298 C3302 1.527 . S
C3299 C3298 1.401 . S
C3299 C3300 1.405 . S
C3299 C3332 1.587 . S
C3300 C3299 1.405 . S
C3300 C3301 1.332 . S
C3300 C3303 1.496 . S
C3301 C3296 1.418 . S
C3301 C3300 1.332 . S
C3301 H3359 0.929 . S
C3302 C3298 1.527 . S
C3302 H3360 0.959 . S
C3302 H3361 0.961 . S
C3302 H3362 0.961 . S
C3303 C3300 1.496 . S
C3303 H3363 0.960 . S
C3303 H3364 0.960 . S
C3303 H3365 0.961 . S
C3304 C3305 1.517 . S
C3304 H3367 0.961 . S
C3304 H3368 0.960 . S
C3304 H3369 0.959 . S
C3305 C3304 1.517 . S
C3305 O3353 1.468 . S
C3305 H3366 0.980 . S
C3306 C3307 1.349 . S
C3306 C3311 1.367 . S
C3306 O3353 1.408 . S
C3307 C3306 1.349 . S
C3307 C3308 1.407 . S
C3307 H3370 0.930 . S
C3308 C3307 1.407 . S
C3308 C3309 1.449 . S
C3308 C3312 1.535 . S
C3309 C3308 1.449 . S
C3309 C3310 1.384 . S
C3309 C3334 1.553 . S
C3310 C3309 1.384 . S
C3310 C3311 1.364 . S
C3310 C3313 1.450 . S
C3311 C3306 1.367 . S
C3311 C3310 1.364 . S
C3311 H3371 0.931 . S
C3312 C3308 1.535 . S
C3312 H3372 0.959 . S
C3312 H3373 0.961 . S
C3312 H3374 0.959 . S
C3313 C3310 1.450 . S
C3313 H3375 0.960 . S
C3313 H3376 0.960 . S
C3313 H3377 0.960 . S
C3314 C3315 1.309 . S
C3314 C3319 1.304 . S
C3314 O3352 1.435 . S
C3315 C3314 1.309 . S
C3315 C3316 1.476 . S
C3315 H3379 0.930 . S
C3316 C3315 1.476 . S
C3316 C3317 1.400 . S
C3316 C3320 1.567 . S
C3317 C3316 1.400 . S
C3317 C3318 1.373 . S
C3317 C3339 1.432 . S
C3318 C3317 1.373 . S
C3318 C3319 1.339 . S
C3318 C3321 1.530 . S
C3319 C3314 1.304 . S
C3319 C3318 1.339 . S
C3319 H3380 0.930 . S
C3320 C3316 1.567 . S
C3320 H3381 0.961 . S
C3320 H3382 0.960 . S
C3320 H3383 0.958 . S
C3321 C3318 1.530 . S
C3321 H3384 0.961 . S
C3321 H3385 0.960 . S
C3321 H3386 0.960 . S
C3322 C3323 1.530 . S
C3322 H3388 0.961 . S
C3322 H3389 0.961 . S
C3322 H3390 0.959 . S
C3323 C3322 1.530 . S
C3323 O3351 1.412 . S
C3323 H3387 0.980 . S
C3324 C3325 1.288 . S
C3324 C3329 1.377 . S
C3324 O3351 1.393 . S
C3325 C3324 1.288 . S
C3325 C3326 1.369 . S
C3325 H3391 0.932 . S
C3326 C3325 1.369 . S
C3326 C3327 1.398 . S
C3326 C3330 1.527 . S
C3327 C3326 1.398 . S
C3327 C3328 1.380 . S
C3327 C3341 1.497 . S
C3328 C3327 1.380 . S
C3328 C3329 1.383 . S
C3328 C3331 1.603 . S
C3329 C3324 1.377 . S
C3329 C3328 1.383 . S
C3329 H3392 0.929 . S
C3330 C3326 1.527 . S
C3330 H3393 0.961 . S
C3330 H3394 0.959 . S
C3330 H3395 0.959 . S
C3331 C3328 1.603 . S
C3331 H3396 0.960 . S
C3331 H3397 0.962 . S
C3331 H3398 0.961 . S
C3332 C3299 1.587 . S
C3332 C3333 1.360 . S
C3332 C3345 1.412 . S
C3333 C3332 1.360 . S
C3333 C3334 1.365 . S
C3333 H3399 0.929 . S
C3334 C3309 1.553 . S
C3334 C3333 1.365 . S
C3334 C3335 1.404 . S
C3335 C3334 1.404 . S
C3335 C3336 1.395 . S
C3335 C3346 1.451 . S
C3336 C3335 1.395 . S
C3336 C3337 1.322 . S
C3336 H3400 0.930 . S
C3337 C3336 1.322 . S
C3337 C3338 1.459 . S
C3337 H3401 0.929 . S
C3338 C3337 1.459 . S
C3338 C3339 1.445 . S
C3338 C3347 1.395 . S
C3339 C3317 1.432 . S
C3339 C3338 1.445 . S
C3339 C3340 1.370 . S
C3340 C3339 1.370 . S
C3340 C3341 1.438 . S
C3340 H3402 0.930 . S
C3341 C3327 1.497 . S
C3341 C3340 1.438 . S
C3341 C3342 1.360 . S
C3342 C3341 1.360 . S
C3342 C3343 1.401 . S
C3342 C3347 1.446 . S
C3343 C3342 1.401 . S
C3343 C3344 1.347 . S
C3343 H3403 0.929 . S
C3344 C3343 1.347 . S
C3344 C3345 1.455 . S
C3344 H3404 0.930 . S
C3345 C3332 1.412 . S
C3345 C3344 1.455 . S
C3345 C3346 1.331 . S
C3346 C3335 1.451 . S
C3346 C3345 1.331 . S
C3346 C3347 1.497 . S
C3347 C3338 1.395 . S
C3347 C3342 1.446 . S
C3347 C3346 1.497 . S
C3348 C3349 1.582 . S
C3348 H3405 0.962 . S
C3348 H3406 0.959 . S
C3348 H3407 0.958 . S
C3349 C3348 1.582 . S
C3349 O3352 1.458 . S
C3349 H3378 0.980 . S
O3350 C3295 1.426 . S
O3350 C3296 1.334 . S
O3351 C3323 1.412 . S
O3351 C3324 1.393 . S
O3352 C3314 1.435 . S
O3352 C3349 1.458 . S
O3353 C3305 1.468 . S
O3353 C3306 1.408 . S
H3354 C3295 0.980 . S
H3355 C3294 0.959 . S
H3356 C3294 0.959 . S
H3357 C3294 0.960 . S
H3358 C3297 0.929 . S
H3359 C3301 0.929 . S
H3360 C3302 0.959 . S
H3361 C3302 0.961 . S
H3362 C3302 0.961 . S
H3363 C3303 0.960 . S
H3364 C3303 0.960 . S
H3365 C3303 0.961 . S
H3366 C3305 0.980 . S
H3367 C3304 0.961 . S
H3368 C3304 0.960 . S
H3369 C3304 0.959 . S
H3370 C3307 0.930 . S
H3371 C3311 0.931 . S
H3372 C3312 0.959 . S
H3373 C3312 0.961 . S
H3374 C3312 0.959 . S
H3375 C3313 0.960 . S
H3376 C3313 0.960 . S
H3377 C3313 0.960 . S
H3378 C3349 0.980 . S
H3379 C3315 0.930 . S
H3380 C3319 0.930 . S
H3381 C3320 0.961 . S
H3382 C3320 0.960 . S
H3383 C3320 0.958 . S
H3384 C3321 0.961 . S
H3385 C3321 0.960 . S
H3386 C3321 0.960 . S
H3387 C3323 0.980 . S
H3388 C3322 0.961 . S
H3389 C3322 0.961 . S
H3390 C3322 0.959 . S
H3391 C3325 0.932 . S
H3392 C3329 0.929 . S
H3393 C3330 0.961 . S
H3394 C3330 0.959 . S
H3395 C3330 0.959 . S
H3396 C3331 0.960 . S
H3397 C3331 0.962 . S
H3398 C3331 0.961 . S
H3399 C3333 0.929 . S
H3400 C3336 0.930 . S
H3401 C3337 0.929 . S
H3402 C3340 0.930 . S
H3403 C3343 0.929 . S
H3404 C3344 0.930 . S
H3405 C3348 0.962 . S
H3406 C3348 0.959 . S
H3407 C3348 0.958 . S
C3408 C3409 1.560 . S
C3408 H3469 0.959 . S
C3408 H3470 0.959 . S
C3408 H3471 0.960 . S
C3409 C3408 1.560 . S
C3409 O3464 1.426 . S
C3409 H3468 0.980 . S
C3410 C3411 1.407 . S
C3410 C3415 1.418 . S
C3410 O3464 1.334 . S
C3411 C3410 1.407 . S
C3411 C3412 1.360 . S
C3411 H3472 0.929 . S
C3412 C3411 1.360 . S
C3412 C3413 1.401 . S
C3412 C3416 1.527 . S
C3413 C3412 1.401 . S
C3413 C3414 1.405 . S
C3413 C3446 1.587 . S
C3414 C3413 1.405 . S
C3414 C3415 1.332 . S
C3414 C3417 1.496 . S
C3415 C3410 1.418 . S
C3415 C3414 1.332 . S
C3415 H3473 0.929 . S
C3416 C3412 1.527 . S
C3416 H3474 0.959 . S
C3416 H3475 0.961 . S
C3416 H3476 0.961 . S
C3417 C3414 1.496 . S
C3417 H3477 0.960 . S
C3417 H3478 0.960 . S
C3417 H3479 0.961 . S
C3418 C3419 1.517 . S
C3418 H3481 0.961 . S
C3418 H3482 0.960 . S
C3418 H3483 0.959 . S
C3419 C3418 1.517 . S
C3419 O3467 1.468 . S
C3419 H3480 0.980 . S
C3420 C3421 1.349 . S
C3420 C3425 1.367 . S
C3420 O3467 1.408 . S
C3421 C3420 1.349 . S
C3421 C3422 1.407 . S
C3421 H3484 0.930 . S
C3422 C3421 1.407 . S
C3422 C3423 1.449 . S
C3422 C3426 1.535 . S
C3423 C3422 1.449 . S
C3423 C3424 1.384 . S
C3423 C3448 1.553 . S
C3424 C3423 1.384 . S
C3424 C3425 1.364 . S
C3424 C3427 1.450 . S
C3425 C3420 1.367 . S
C3425 C3424 1.364 . S
C3425 H3485 0.931 . S
C3426 C3422 1.535 . S
C3426 H3486 0.959 . S
C3426 H3487 0.961 . S
C3426 H3488 0.959 . S
C3427 C3424 1.450 . S
C3427 H3489 0.960 . S
C3427 H3490 0.960 . S
C3427 H3491 0.960 . S
C3428 C3429 1.309 . S
C3428 C3433 1.304 . S
C3428 O3466 1.435 . S
C3429 C3428 1.309 . S
C3429 C3430 1.476 . S
C3429 H3493 0.930 . S
C3430 C3429 1.476 . S
C3430 C3431 1.400 . S
C3430 C3434 1.567 . S
C3431 C3430 1.400 . S
C3431 C3432 1.373 . S
C3431 C3453 1.432 . S
C3432 C3431 1.373 . S
C3432 C3433 1.339 . S
C3432 C3435 1.530 . S
C3433 C3428 1.304 . S
C3433 C3432 1.339 . S
C3433 H3494 0.930 . S
C3434 C3430 1.567 . S
C3434 H3495 0.961 . S
C3434 H3496 0.960 . S
C3434 H3497 0.958 . S
C3435 C3432 1.530 . S
C3435 H3498 0.961 . S
C3435 H3499 0.960 . S
C3435 H3500 0.960 . S
C3436 C3437 1.530 . S
C3436 H3502 0.961 . S
C3436 H3503 0.961 . S
C3436 H3504 0.959 . S
C3437 C3436 1.530 . S
C3437 O3465 1.412 . S
C3437 H3501 0.980 . S
C3438 C3439 1.288 . S
C3438 C3443 1.377 . S
C3438 O3465 1.393 . S
C3439 C3438 1.288 . S
C3439 C3440 1.369 . S
C3439 H3505 0.932 . S
C3440 C3439 1.369 . S
C3440 C3441 1.398 . S
C3440 C3444 1.527 . S
C3441 C3440 1.398 . S
C3441 C3442 1.380 . S
C3441 C3455 1.497 . S
C3442 C3441 1.380 . S
C3442 C3443 1.383 . S
C3442 C3445 1.603 . S
C3443 C3438 1.377 . S
C3443 C3442 1.383 . S
C3443 H3506 0.929 . S
C3444 C3440 1.527 . S
C3444 H3507 0.961 . S
C3444 H3508 0.959 . S
C3444 H3509 0.959 . S
C3445 C3442 1.603 . S
C3445 H3510 0.960 . S
C3445 H3511 0.962 . S
C3445 H3512 0.961 . S
C3446 C3413 1.587 . S
C3446 C3447 1.360 . S
C3446 C3459 1.412 . S
C3447 C3446 1.360 . S
C3447 C3448 1.365 . S
C3447 H3513 0.929 . S
C3448 C3423 1.553 . S
C3448 C3447 1.365 . S
C3448 C3449 1.404 . S
C3449 C3448 1.404 . S
C3449 C3450 1.395 . S
C3449 C3460 1.451 . S
C3450 C3449 1.395 . S
C3450 C3451 1.322 . S
C3450 H3514 0.930 . S
C3451 C3450 1.322 . S
C3451 C3452 1.459 . S
C3451 H3515 0.929 . S
C3452 C3451 1.459 . S
C3452 C3453 1.445 . S
C3452 C3461 1.395 . S
C3453 C3431 1.432 . S
C3453 C3452 1.445 . S
C3453 C3454 1.370 . S
C3454 C3453 1.370 . S
C3454 C3455 1.438 . S
C3454 H3516 0.930 . S
C3455 C3441 1.497 . S
C3455 C3454 1.438 . S
C3455 C3456 1.360 . S
C3456 C3455 1.360 . S
C3456 C3457 1.401 . S
C3456 C3461 1.446 . S
C3457 C3456 1.401 . S
C3457 C3458 1.347 . S
C3457 H3517 0.929 . S
C3458 C3457 1.347 . S
C3458 C3459 1.455 . S
C3458 H3518 0.930 . S
C3459 C3446 1.412 . S
C3459 C3458 1.455 . S
C3459 C3460 1.331 . S
C3460 C3449 1.451 . S
C3460 C3459 1.331 . S
C3460 C3461 1.497 . S
C3461 C3452 1.395 . S
C3461 C3456 1.446 . S
C3461 C3460 1.497 . S
C3462 C3463 1.582 . S
C3462 H3519 0.962 . S
C3462 H3520 0.959 . S
C3462 H3521 0.958 . S
C3463 C3462 1.582 . S
C3463 O3466 1.458 . S
C3463 H3492 0.980 . S
O3464 C3409 1.426 . S
O3464 C3410 1.334 . S
O3465 C3437 1.412 . S
O3465 C3438 1.393 . S
O3466 C3428 1.435 . S
O3466 C3463 1.458 . S
O3467 C3419 1.468 . S
O3467 C3420 1.408 . S
H3468 C3409 0.980 . S
H3469 C3408 0.959 . S
H3470 C3408 0.959 . S
H3471 C3408 0.960 . S
H3472 C3411 0.929 . S
H3473 C3415 0.929 . S
H3474 C3416 0.959 . S
H3475 C3416 0.961 . S
H3476 C3416 0.961 . S
H3477 C3417 0.960 . S
H3478 C3417 0.960 . S
H3479 C3417 0.961 . S
H3480 C3419 0.980 . S
H3481 C3418 0.961 . S
H3482 C3418 0.960 . S
H3483 C3418 0.959 . S
H3484 C3421 0.930 . S
H3485 C3425 0.931 . S
H3486 C3426 0.959 . S
H3487 C3426 0.961 . S
H3488 C3426 0.959 . S
H3489 C3427 0.960 . S
H3490 C3427 0.960 . S
H3491 C3427 0.960 . S
H3492 C3463 0.980 . S
H3493 C3429 0.930 . S
H3494 C3433 0.930 . S
H3495 C3434 0.961 . S
H3496 C3434 0.960 . S
H3497 C3434 0.958 . S
H3498 C3435 0.961 . S
H3499 C3435 0.960 . S
H3500 C3435 0.960 . S
H3501 C3437 0.980 . S
H3502 C3436 0.961 . S
H3503 C3436 0.961 . S
H3504 C3436 0.959 . S
H3505 C3439 0.932 . S
H3506 C3443 0.929 . S
H3507 C3444 0.961 . S
H3508 C3444 0.959 . S
H3509 C3444 0.959 . S
H3510 C3445 0.960 . S
H3511 C3445 0.962 . S
H3512 C3445 0.961 . S
H3513 C3447 0.929 . S
H3514 C3450 0.930 . S
H3515 C3451 0.929 . S
H3516 C3454 0.930 . S
H3517 C3457 0.929 . S
H3518 C3458 0.930 . S
H3519 C3462 0.962 . S
H3520 C3462 0.959 . S
H3521 C3462 0.958 . S
C3522 C3523 1.560 . S
C3522 H3583 0.959 . S
C3522 H3584 0.959 . S
C3522 H3585 0.960 . S
C3523 C3522 1.560 . S
C3523 O3578 1.426 . S
C3523 H3582 0.980 . S
C3524 C3525 1.407 . S
C3524 C3529 1.418 . S
C3524 O3578 1.334 . S
C3525 C3524 1.407 . S
C3525 C3526 1.360 . S
C3525 H3586 0.929 . S
C3526 C3525 1.360 . S
C3526 C3527 1.401 . S
C3526 C3530 1.527 . S
C3527 C3526 1.401 . S
C3527 C3528 1.405 . S
C3527 C3560 1.587 . S
C3528 C3527 1.405 . S
C3528 C3529 1.332 . S
C3528 C3531 1.496 . S
C3529 C3524 1.418 . S
C3529 C3528 1.332 . S
C3529 H3587 0.929 . S
C3530 C3526 1.527 . S
C3530 H3588 0.959 . S
C3530 H3589 0.961 . S
C3530 H3590 0.961 . S
C3531 C3528 1.496 . S
C3531 H3591 0.960 . S
C3531 H3592 0.960 . S
C3531 H3593 0.961 . S
C3532 C3533 1.517 . S
C3532 H3595 0.961 . S
C3532 H3596 0.960 . S
C3532 H3597 0.959 . S
C3533 C3532 1.517 . S
C3533 O3581 1.468 . S
C3533 H3594 0.980 . S
C3534 C3535 1.349 . S
C3534 C3539 1.367 . S
C3534 O3581 1.408 . S
C3535 C3534 1.349 . S
C3535 C3536 1.407 . S
C3535 H3598 0.930 . S
C3536 C3535 1.407 . S
C3536 C3537 1.449 . S
C3536 C3540 1.535 . S
C3537 C3536 1.449 . S
C3537 C3538 1.384 . S
C3537 C3562 1.553 . S
C3538 C3537 1.384 . S
C3538 C3539 1.364 . S
C3538 C3541 1.450 . S
C3539 C3534 1.367 . S
C3539 C3538 1.364 . S
C3539 H3599 0.931 . S
C3540 C3536 1.535 . S
C3540 H3600 0.959 . S
C3540 H3601 0.961 . S
C3540 H3602 0.959 . S
C3541 C3538 1.450 . S
C3541 H3603 0.960 . S
C3541 H3604 0.960 . S
C3541 H3605 0.960 . S
C3542 C3543 1.309 . S
C3542 C3547 1.304 . S
C3542 O3580 1.435 . S
C3543 C3542 1.309 . S
C3543 C3544 1.476 . S
C3543 H3607 0.930 . S
C3544 C3543 1.476 . S
C3544 C3545 1.400 . S
C3544 C3548 1.567 . S
C3545 C3544 1.400 . S
C3545 C3546 1.373 . S
C3545 C3567 1.432 . S
C3546 C3545 1.373 . S
C3546 C3547 1.339 . S
C3546 C3549 1.530 . S
C3547 C3542 1.304 . S
C3547 C3546 1.339 . S
C3547 H3608 0.930 . S
C3548 C3544 1.567 . S
C3548 H3609 0.961 . S
C3548 H3610 0.960 . S
C3548 H3611 0.958 . S
C3549 C3546 1.530 . S
C3549 H3612 0.961 . S
C3549 H3613 0.960 . S
C3549 H3614 0.960 . S
C3550 C3551 1.530 . S
C3550 H3616 0.961 . S
C3550 H3617 0.961 . S
C3550 H3618 0.959 . S
C3551 C3550 1.530 . S
C3551 O3579 1.412 . S
C3551 H3615 0.980 . S
C3552 C3553 1.288 . S
C3552 C3557 1.377 . S
C3552 O3579 1.393 . S
C3553 C3552 1.288 . S
C3553 C3554 1.369 . S
C3553 H3619 0.932 . S
C3554 C3553 1.369 . S
C3554 C3555 1.398 . S
C3554 C3558 1.527 . S
C3555 C3554 1.398 . S
C3555 C3556 1.380 . S
C3555 C3569 1.497 . S
C3556 C3555 1.380 . S
C3556 C3557 1.383 . S
C3556 C3559 1.603 . S
C3557 C3552 1.377 . S
C3557 C3556 1.383 . S
C3557 H3620 0.929 . S
C3558 C3554 1.527 . S
C3558 H3621 0.961 . S
C3558 H3622 0.959 . S
C3558 H3623 0.959 . S
C3559 C3556 1.603 . S
C3559 H3624 0.960 . S
C3559 H3625 0.962 . S
C3559 H3626 0.961 . S
C3560 C3527 1.587 . S
C3560 C3561 1.360 . S
C3560 C3573 1.412 . S
C3561 C3560 1.360 . S
C3561 C3562 1.365 . S
C3561 H3627 0.929 . S
C3562 C3537 1.553 . S
C3562 C3561 1.365 . S
C3562 C3563 1.404 . S
C3563 C3562 1.404 . S
C3563 C3564 1.395 . S
C3563 C3574 1.451 . S
C3564 C3563 1.395 . S
C3564 C3565 1.322 . S
C3564 H3628 0.930 . S
C3565 C3564 1.322 . S
C3565 C3566 1.459 . S
C3565 H3629 0.929 . S
C3566 C3565 1.459 . S
C3566 C3567 1.445 . S
C3566 C3575 1.395 . S
C3567 C3545 1.432 . S
C3567 C3566 1.445 . S
C3567 C3568 1.370 . S
C3568 C3567 1.370 . S
C3568 C3569 1.438 . S
C3568 H3630 0.930 . S
C3569 C3555 1.497 . S
C3569 C3568 1.438 . S
C3569 C3570 1.360 . S
C3570 C3569 1.360 . S
C3570 C3571 1.401 . S
C3570 C3575 1.446 . S
C3571 C3570 1.401 . S
C3571 C3572 1.347 . S
C3571 H3631 0.929 . S
C3572 C3571 1.347 . S
C3572 C3573 1.455 . S
C3572 H3632 0.930 . S
C3573 C3560 1.412 . S
C3573 C3572 1.455 . S
C3573 C3574 1.331 . S
C3574 C3563 1.451 . S
C3574 C3573 1.331 . S
C3574 C3575 1.497 . S
C3575 C3566 1.395 . S
C3575 C3570 1.446 . S
C3575 C3574 1.497 . S
C3576 C3577 1.582 . S
C3576 H3633 0.962 . S
C3576 H3634 0.959 . S
C3576 H3635 0.958 . S
C3577 C3576 1.582 . S
C3577 O3580 1.458 . S
C3577 H3606 0.980 . S
O3578 C3523 1.426 . S
O3578 C3524 1.334 . S
O3579 C3551 1.412 . S
O3579 C3552 1.393 . S
O3580 C3542 1.435 . S
O3580 C3577 1.458 . S
O3581 C3533 1.468 . S
O3581 C3534 1.408 . S
H3582 C3523 0.980 . S
H3583 C3522 0.959 . S
H3584 C3522 0.959 . S
H3585 C3522 0.960 . S
H3586 C3525 0.929 . S
H3587 C3529 0.929 . S
H3588 C3530 0.959 . S
H3589 C3530 0.961 . S
H3590 C3530 0.961 . S
H3591 C3531 0.960 . S
H3592 C3531 0.960 . S
H3593 C3531 0.961 . S
H3594 C3533 0.980 . S
H3595 C3532 0.961 . S
H3596 C3532 0.960 . S
H3597 C3532 0.959 . S
H3598 C3535 0.930 . S
H3599 C3539 0.931 . S
H3600 C3540 0.959 . S
H3601 C3540 0.961 . S
H3602 C3540 0.959 . S
H3603 C3541 0.960 . S
H3604 C3541 0.960 . S
H3605 C3541 0.960 . S
H3606 C3577 0.980 . S
H3607 C3543 0.930 . S
H3608 C3547 0.930 . S
H3609 C3548 0.961 . S
H3610 C3548 0.960 . S
H3611 C3548 0.958 . S
H3612 C3549 0.961 . S
H3613 C3549 0.960 . S
H3614 C3549 0.960 . S
H3615 C3551 0.980 . S
H3616 C3550 0.961 . S
H3617 C3550 0.961 . S
H3618 C3550 0.959 . S
H3619 C3553 0.932 . S
H3620 C3557 0.929 . S
H3621 C3558 0.961 . S
H3622 C3558 0.959 . S
H3623 C3558 0.959 . S
H3624 C3559 0.960 . S
H3625 C3559 0.962 . S
H3626 C3559 0.961 . S
H3627 C3561 0.929 . S
H3628 C3564 0.930 . S
H3629 C3565 0.929 . S
H3630 C3568 0.930 . S
H3631 C3571 0.929 . S
H3632 C3572 0.930 . S
H3633 C3576 0.962 . S
H3634 C3576 0.959 . S
H3635 C3576 0.958 . S
H3636 C3644 0.929 . S
H3637 C3646 0.930 . S
H3638 C3648 0.930 . S
H3639 C3651 0.929 . S
H3640 C3654 0.930 . S
H3641 C3656 0.960 . S
H3642 C3656 0.960 . S
H3643 C3656 0.960 . S
C3644 H3636 0.929 . S
C3644 C3645 1.377 . S
C3644 C3646 1.384 . S
C3645 C3644 1.377 . S
C3645 C3651 1.390 . S
C3646 H3637 0.930 . S
C3646 C3644 1.384 . S
C3646 C3647 1.372 . S
C3647 C3646 1.372 . S
C3647 C3648 1.400 . S
C3647 C3652 1.490 . S
C3648 H3638 0.930 . S
C3648 C3647 1.400 . S
C3648 C3651 1.386 . S
H3649 C3665 0.932 . S
H3650 C3666 0.912 1_455 S
C3651 H3639 0.929 . S
C3651 C3645 1.390 . S
C3651 C3648 1.386 . S
C3652 C3647 1.490 . S
C3652 C3654 1.395 . S
C3652 C3655 1.403 . S
H3653 C3659 0.930 . S
C3654 H3640 0.930 . S
C3654 C3652 1.395 . S
C3654 C3657 1.403 . S
C3655 C3652 1.403 . S
C3655 C3656 1.524 . S
C3655 C3659 1.400 . S
C3656 H3641 0.960 . S
C3656 H3642 0.960 . S
C3656 H3643 0.960 . S
C3656 C3655 1.524 . S
C3657 C3654 1.403 . S
C3657 C3658 1.392 . S
C3657 C3661 1.495 1_655 S
C3658 C3657 1.392 . S
C3658 C3659 1.385 . S
C3658 C3660 1.478 . S
C3659 H3653 0.930 . S
C3659 C3655 1.400 . S
C3659 C3658 1.385 . S
C3660 C3658 1.478 . S
C3660 C3662 1.381 . S
C3660 C3666 1.386 . S
C3661 C3657 1.495 1_455 S
C3661 H3667 0.959 . S
C3661 H3668 0.961 . S
C3661 H3669 0.960 1_455 S
C3662 C3660 1.381 . S
C3662 C3663 1.394 . S
C3662 H3670 0.930 . S
C3663 C3662 1.394 . S
C3663 C3664 1.383 . S
C3663 H3671 0.929 . S
C3664 C3663 1.383 . S
C3664 C3665 1.364 1_655 S
C3665 H3649 0.932 . S
C3665 C3664 1.364 1_455 S
C3665 C3666 1.412 1_455 S
C3666 H3650 0.912 1_655 S
C3666 C3660 1.386 . S
C3666 C3665 1.412 1_655 S
H3667 C3661 0.959 . S
H3668 C3661 0.961 . S
H3669 C3661 0.960 1_655 S
H3670 C3662 0.930 . S
H3671 C3663 0.929 . S
H3672 C3680 0.929 . S
H3673 C3682 0.930 . S
H3674 C3684 0.930 . S
H3675 C3687 0.929 . S
H3676 C3690 0.930 . S
H3677 C3692 0.960 . S
H3678 C3692 0.960 . S
H3679 C3692 0.960 . S
C3680 H3672 0.929 . S
C3680 C3681 1.377 . S
C3680 C3682 1.384 . S
C3681 C3680 1.377 . S
C3681 C3687 1.390 . S
C3682 H3673 0.930 . S
C3682 C3680 1.384 . S
C3682 C3683 1.372 . S
C3683 C3682 1.372 . S
C3683 C3684 1.400 . S
C3683 C3688 1.490 . S
C3684 H3674 0.930 . S
C3684 C3683 1.400 . S
C3684 C3687 1.386 . S
H3685 C3701 0.930 . S
H3686 C3702 0.931 . S
C3687 H3675 0.929 . S
C3687 C3681 1.390 . S
C3687 C3684 1.386 . S
C3688 C3683 1.490 . S
C3688 C3690 1.395 . S
C3688 C3691 1.403 . S
H3689 C3695 0.930 . S
C3690 H3676 0.930 . S
C3690 C3688 1.395 . S
C3690 C3693 1.403 . S
C3691 C3688 1.403 . S
C3691 C3692 1.524 . S
C3691 C3695 1.400 . S
C3692 H3677 0.960 . S
C3692 H3678 0.960 . S
C3692 H3679 0.960 . S
C3692 C3691 1.524 . S
C3693 C3690 1.403 . S
C3693 C3694 1.392 . S
C3693 C3697 1.495 . S
C3694 C3693 1.392 . S
C3694 C3695 1.385 . S
C3694 C3696 1.478 . S
C3695 H3689 0.930 . S
C3695 C3691 1.400 . S
C3695 C3694 1.385 . S
C3696 C3694 1.478 . S
C3696 C3698 1.381 . S
C3696 C3702 1.383 . S
C3697 C3693 1.495 . S
C3697 H3703 0.959 . S
C3697 H3704 0.961 . S
C3697 H3705 0.960 . S
C3698 C3696 1.381 . S
C3698 C3699 1.394 . S
C3698 H3706 0.930 . S
C3699 C3698 1.394 . S
C3699 C3700 1.383 . S
C3699 H3707 0.929 . S
C3700 C3699 1.383 . S
C3700 C3701 1.377 . S
C3701 H3685 0.930 . S
C3701 C3700 1.377 . S
C3701 C3702 1.379 . S
C3702 H3686 0.931 . S
C3702 C3696 1.383 . S
C3702 C3701 1.379 . S
H3703 C3697 0.959 . S
H3704 C3697 0.961 . S
H3705 C3697 0.960 . S
H3706 C3698 0.930 . S
H3707 C3699 0.929 . S
H3708 C3716 0.929 . S
H3709 C3718 0.930 . S
H3710 C3720 0.930 . S
H3711 C3723 0.929 . S
H3712 C3726 0.930 . S
H3713 C3728 0.960 . S
H3714 C3728 0.960 . S
H3715 C3728 0.960 . S
C3716 H3708 0.929 . S
C3716 C3717 1.377 . S
C3716 C3718 1.384 . S
C3717 C3716 1.377 . S
C3717 C3723 1.390 . S
C3718 H3709 0.930 . S
C3718 C3716 1.384 . S
C3718 C3719 1.372 . S
C3719 C3718 1.372 . S
C3719 C3720 1.400 . S
C3719 C3724 1.490 . S
C3720 H3710 0.930 . S
C3720 C3719 1.400 . S
C3720 C3723 1.386 . S
H3721 C3737 0.983 . S
H3722 C3738 0.931 . S
C3723 H3711 0.929 . S
C3723 C3717 1.390 . S
C3723 C3720 1.386 . S
C3724 C3719 1.490 . S
C3724 C3726 1.395 . S
C3724 C3727 1.403 . S
H3725 C3731 0.930 . S
C3726 H3712 0.930 . S
C3726 C3724 1.395 . S
C3726 C3729 1.403 . S
C3727 C3724 1.403 . S
C3727 C3728 1.524 . S
C3727 C3731 1.400 . S
C3728 H3713 0.960 . S
C3728 H3714 0.960 . S
C3728 H3715 0.960 . S
C3728 C3727 1.524 . S
C3729 C3726 1.403 . S
C3729 C3730 1.392 . S
C3729 C3733 1.495 1_545 S
C3730 C3729 1.392 . S
C3730 C3731 1.385 . S
C3730 C3732 1.478 . S
C3731 H3725 0.930 . S
C3731 C3727 1.400 . S
C3731 C3730 1.385 . S
C3732 C3730 1.478 . S
C3732 C3734 1.381 . S
C3732 C3738 1.383 . S
C3733 C3729 1.495 1_565 S
C3733 H3739 0.959 . S
C3733 H3740 0.961 . S
C3733 H3741 0.960 . S
C3734 C3732 1.381 . S
C3734 C3735 1.394 . S
C3734 H3742 0.930 . S
C3735 C3734 1.394 . S
C3735 C3736 1.383 . S
C3735 H3743 0.929 . S
C3736 C3735 1.383 . S
C3736 C3737 1.377 . S
C3737 H3721 0.983 . S
C3737 C3736 1.377 . S
C3737 C3738 1.379 . S
C3738 H3722 0.931 . S
C3738 C3732 1.383 . S
C3738 C3737 1.379 . S
H3739 C3733 0.959 . S
H3740 C3733 0.961 . S
H3741 C3733 0.960 . S
H3742 C3734 0.930 . S
H3743 C3735 0.929 . S
H3744 C3752 0.929 . S
H3745 C3754 0.930 . S
H3746 C3756 0.930 . S
H3747 C3759 0.929 . S
H3748 C3762 0.923 . S
H3749 C3764 0.960 . S
H3750 C3764 0.960 . S
H3751 C3764 0.960 . S
C3752 H3744 0.929 . S
C3752 C3753 1.377 . S
C3752 C3754 1.384 . S
C3753 C3752 1.377 . S
C3753 C3759 1.390 . S
C3754 H3745 0.930 . S
C3754 C3752 1.384 . S
C3754 C3755 1.372 . S
C3755 C3754 1.372 . S
C3755 C3756 1.400 . S
C3755 C3760 1.490 . S
C3756 H3746 0.930 . S
C3756 C3755 1.400 . S
C3756 C3759 1.386 . S
H3757 C3773 0.929 . S
H3758 C3774 0.931 . S
C3759 H3747 0.929 . S
C3759 C3753 1.390 . S
C3759 C3756 1.386 . S
C3760 C3755 1.490 . S
C3760 C3762 1.395 . S
C3760 C3763 1.403 . S
H3761 C3767 0.930 . S
C3762 H3748 0.923 . S
C3762 C3760 1.395 . S
C3762 C3765 1.403 . S
C3763 C3760 1.403 . S
C3763 C3764 1.524 . S
C3763 C3767 1.400 . S
C3764 H3749 0.960 . S
C3764 H3750 0.960 . S
C3764 H3751 0.960 . S
C3764 C3763 1.524 . S
C3765 C3762 1.403 . S
C3765 C3766 1.392 . S
C3765 C3769 1.495 1_565 S
C3766 C3765 1.392 . S
C3766 C3767 1.385 . S
C3766 C3768 1.478 . S
C3767 H3761 0.930 . S
C3767 C3763 1.400 . S
C3767 C3766 1.385 . S
C3768 C3766 1.478 . S
C3768 C3770 1.381 . S
C3768 C3774 1.383 . S
C3769 C3765 1.495 1_545 S
C3769 H3775 0.959 . S
C3769 H3776 0.961 . S
C3769 H3777 0.960 . S
C3770 C3768 1.381 . S
C3770 C3771 1.394 . S
C3770 H3778 0.930 . S
C3771 C3770 1.394 . S
C3771 C3772 1.383 . S
C3771 H3779 0.929 . S
C3772 C3771 1.383 . S
C3772 C3773 1.377 . S
C3773 H3757 0.929 . S
C3773 C3772 1.377 . S
C3773 C3774 1.379 . S
C3774 H3758 0.931 . S
C3774 C3768 1.383 . S
C3774 C3773 1.379 . S
H3775 C3769 0.959 . S
H3776 C3769 0.961 . S
H3777 C3769 0.960 . S
H3778 C3770 0.930 . S
H3779 C3771 0.929 . S
H3780 C3788 0.929 . S
H3781 C3790 0.930 . S
H3782 C3792 0.930 . S
H3783 C3795 0.929 . S
H3784 C3798 0.930 . S
H3785 C3800 0.937 1_655 S
H3786 C3800 0.960 1_655 S
H3787 C3800 0.960 . S
C3788 H3780 0.929 . S
C3788 C3789 1.377 . S
C3788 C3790 1.384 . S
C3789 C3788 1.377 . S
C3789 C3795 1.390 . S
C3790 H3781 0.930 . S
C3790 C3788 1.384 . S
C3790 C3791 1.372 . S
C3791 C3790 1.372 . S
C3791 C3792 1.400 . S
C3791 C3796 1.490 . S
C3792 H3782 0.930 . S
C3792 C3791 1.400 . S
C3792 C3795 1.386 . S
H3793 C3809 0.930 . S
H3794 C3810 0.931 . S
C3795 H3783 0.929 . S
C3795 C3789 1.390 . S
C3795 C3792 1.386 . S
C3796 C3791 1.490 . S
C3796 C3798 1.395 . S
C3796 C3799 1.403 . S
H3797 C3803 0.930 . S
C3798 H3784 0.930 . S
C3798 C3796 1.395 . S
C3798 C3801 1.403 . S
C3799 C3796 1.403 . S
C3799 C3800 1.524 . S
C3799 C3803 1.400 . S
C3800 H3785 0.937 1_455 S
C3800 H3786 0.960 1_455 S
C3800 H3787 0.960 . S
C3800 C3799 1.524 . S
C3801 C3798 1.403 . S
C3801 C3802 1.392 . S
C3801 C3805 1.495 . S
C3802 C3801 1.392 . S
C3802 C3803 1.385 . S
C3802 C3804 1.478 . S
C3803 H3797 0.930 . S
C3803 C3799 1.400 . S
C3803 C3802 1.385 . S
C3804 C3802 1.478 . S
C3804 C3806 1.381 . S
C3804 C3810 1.383 . S
C3805 C3801 1.495 . S
C3805 H3811 0.959 . S
C3805 H3812 0.961 . S
C3805 H3813 0.960 . S
C3806 C3804 1.381 . S
C3806 C3807 1.394 . S
C3806 H3814 0.930 . S
C3807 C3806 1.394 . S
C3807 C3808 1.383 . S
C3807 H3815 0.929 1_455 S
C3808 C3807 1.383 . S
C3808 C3809 1.377 . S
C3809 H3793 0.930 . S
C3809 C3808 1.377 . S
C3809 C3810 1.379 . S
C3810 H3794 0.931 . S
C3810 C3804 1.383 . S
C3810 C3809 1.379 . S
H3811 C3805 0.959 . S
H3812 C3805 0.961 . S
H3813 C3805 0.960 . S
H3814 C3806 0.930 . S
H3815 C3807 0.929 1_655 S
H3816 C3824 0.929 . S
H3817 C3826 0.930 . S
H3818 C3828 0.930 . S
H3819 C3831 0.929 . S
H3820 C3834 0.930 . S
H3821 C3836 0.960 . S
H3822 C3836 0.960 . S
H3823 C3836 0.960 . S
C3824 H3816 0.929 . S
C3824 C3825 1.377 . S
C3824 C3826 1.384 . S
C3825 C3824 1.377 . S
C3825 C3831 1.390 . S
C3826 H3817 0.930 . S
C3826 C3824 1.384 . S
C3826 C3827 1.372 . S
C3827 C3826 1.372 . S
C3827 C3828 1.400 . S
C3827 C3832 1.490 . S
C3828 H3818 0.930 . S
C3828 C3827 1.400 . S
C3828 C3831 1.386 . S
H3829 C3845 0.930 . S
H3830 C3846 0.931 . S
C3831 H3819 0.929 . S
C3831 C3825 1.390 . S
C3831 C3828 1.386 . S
C3832 C3827 1.490 . S
C3832 C3834 1.395 . S
C3832 C3835 1.403 . S
H3833 C3839 0.930 . S
C3834 H3820 0.930 . S
C3834 C3832 1.395 . S
C3834 C3837 1.403 . S
C3835 C3832 1.403 . S
C3835 C3836 1.524 . S
C3835 C3839 1.400 . S
C3836 H3821 0.960 . S
C3836 H3822 0.960 . S
C3836 H3823 0.960 . S
C3836 C3835 1.524 . S
C3837 C3834 1.403 . S
C3837 C3838 1.392 . S
C3837 C3841 1.495 . S
C3838 C3837 1.392 . S
C3838 C3839 1.385 . S
C3838 C3840 1.478 . S
C3839 H3833 0.930 . S
C3839 C3835 1.400 . S
C3839 C3838 1.385 . S
C3840 C3838 1.478 . S
C3840 C3842 1.381 . S
C3840 C3846 1.383 . S
C3841 C3837 1.495 . S
C3841 H3847 0.959 . S
C3841 H3848 0.961 . S
C3841 H3849 0.960 . S
C3842 C3840 1.381 . S
C3842 C3843 1.394 . S
C3842 H3850 0.930 . S
C3843 C3842 1.394 . S
C3843 C3844 1.383 . S
C3843 H3851 0.929 . S
C3844 C3843 1.383 . S
C3844 C3845 1.377 . S
C3845 H3829 0.930 . S
C3845 C3844 1.377 . S
C3845 C3846 1.379 . S
C3846 H3830 0.931 . S
C3846 C3840 1.383 . S
C3846 C3845 1.379 . S
H3847 C3841 0.959 . S
H3848 C3841 0.961 . S
H3849 C3841 0.960 . S
H3850 C3842 0.930 . S
H3851 C3843 0.929 . S
H3852 C3860 0.929 . S
H3853 C3862 0.930 . S
H3854 C3864 0.930 . S
H3855 C3867 0.929 . S
H3856 C3870 0.930 . S
H3857 C3872 0.960 . S
H3858 C3872 0.960 . S
H3859 C3872 0.960 . S
C3860 H3852 0.929 . S
C3860 C3861 1.377 . S
C3860 C3862 1.384 . S
C3861 C3860 1.377 . S
C3861 C3867 1.390 . S
C3862 H3853 0.930 . S
C3862 C3860 1.384 . S
C3862 C3863 1.372 . S
C3863 C3862 1.372 . S
C3863 C3864 1.400 . S
C3863 C3868 1.490 . S
C3864 H3854 0.930 . S
C3864 C3863 1.400 . S
C3864 C3867 1.386 . S
H3865 C3881 0.930 . S
H3866 C3882 0.931 . S
C3867 H3855 0.929 . S
C3867 C3861 1.390 . S
C3867 C3864 1.386 . S
C3868 C3863 1.490 . S
C3868 C3870 1.395 . S
C3868 C3871 1.403 . S
H3869 C3875 0.930 . S
C3870 H3856 0.930 . S
C3870 C3868 1.395 . S
C3870 C3873 1.403 . S
C3871 C3868 1.403 . S
C3871 C3872 1.524 . S
C3871 C3875 1.400 . S
C3872 H3857 0.960 . S
C3872 H3858 0.960 . S
C3872 H3859 0.960 . S
C3872 C3871 1.524 . S
C3873 C3870 1.403 . S
C3873 C3874 1.392 . S
C3873 C3877 1.495 . S
C3874 C3873 1.392 . S
C3874 C3875 1.385 . S
C3874 C3876 1.478 . S
C3875 H3869 0.930 . S
C3875 C3871 1.400 . S
C3875 C3874 1.385 . S
C3876 C3874 1.478 . S
C3876 C3878 1.381 . S
C3876 C3882 1.383 1_455 S
C3877 C3873 1.495 . S
C3877 H3883 0.959 . S
C3877 H3884 0.896 1_455 S
C3877 H3885 0.960 . S
C3878 C3876 1.381 . S
C3878 C3879 1.394 . S
C3878 H3886 0.930 . S
C3879 C3878 1.394 . S
C3879 C3880 1.383 . S
C3879 H3887 0.929 . S
C3880 C3879 1.383 . S
C3880 C3881 1.377 1_455 S
C3881 H3865 0.930 . S
C3881 C3880 1.377 1_655 S
C3881 C3882 1.379 . S
C3882 H3866 0.931 . S
C3882 C3876 1.383 1_655 S
C3882 C3881 1.379 . S
H3883 C3877 0.959 . S
H3884 C3877 0.896 1_655 S
H3885 C3877 0.960 . S
H3886 C3878 0.930 . S
H3887 C3879 0.929 . S
H3888 C3896 0.929 . S
H3889 C3898 0.930 . S
H3890 C3900 0.930 . S
H3891 C3903 0.929 . S
H3892 C3906 0.930 . S
H3893 C3908 0.960 . S
H3894 C3908 0.960 . S
H3895 C3908 0.960 . S
C3896 H3888 0.929 . S
C3896 C3897 1.377 . S
C3896 C3898 1.384 . S
C3897 C3896 1.377 . S
C3897 C3903 1.390 . S
C3898 H3889 0.930 . S
C3898 C3896 1.384 . S
C3898 C3899 1.372 . S
C3899 C3898 1.372 . S
C3899 C3900 1.400 . S
C3899 C3904 1.490 . S
C3900 H3890 0.930 . S
C3900 C3899 1.400 . S
C3900 C3903 1.386 . S
H3901 C3917 0.930 . S
H3902 C3918 0.931 . S
C3903 H3891 0.929 . S
C3903 C3897 1.390 . S
C3903 C3900 1.386 . S
C3904 C3899 1.490 . S
C3904 C3906 1.395 . S
C3904 C3907 1.403 . S
H3905 C3911 0.930 . S
C3906 H3892 0.930 . S
C3906 C3904 1.395 . S
C3906 C3909 1.403 . S
C3907 C3904 1.403 . S
C3907 C3908 1.524 . S
C3907 C3911 1.400 . S
C3908 H3893 0.960 . S
C3908 H3894 0.960 . S
C3908 H3895 0.960 . S
C3908 C3907 1.524 . S
C3909 C3906 1.403 . S
C3909 C3910 1.392 . S
C3909 C3913 1.495 . S
C3910 C3909 1.392 . S
C3910 C3911 1.385 . S
C3910 C3912 1.478 . S
C3911 H3905 0.930 . S
C3911 C3907 1.400 . S
C3911 C3910 1.385 . S
C3912 C3910 1.478 . S
C3912 C3914 1.381 . S
C3912 C3918 1.383 . S
C3913 C3909 1.495 . S
C3913 H3919 0.959 . S
C3913 H3920 0.961 . S
C3913 H3921 0.960 . S
C3914 C3912 1.381 . S
C3914 C3915 1.394 . S
C3914 H3922 0.930 . S
C3915 C3914 1.394 . S
C3915 C3916 1.383 . S
C3915 H3923 0.929 . S
C3916 C3915 1.383 . S
C3916 C3917 1.377 . S
C3917 H3901 0.930 . S
C3917 C3916 1.377 . S
C3917 C3918 1.379 . S
C3918 H3902 0.931 . S
C3918 C3912 1.383 . S
C3918 C3917 1.379 . S
H3919 C3913 0.959 . S
H3920 C3913 0.961 . S
H3921 C3913 0.960 . S
H3922 C3914 0.930 . S
H3923 C3915 0.929 . S
H3924 C3932 0.929 . S
H3925 C3934 0.930 . S
H3926 C3936 0.817 1_545 S
H3927 C3939 0.929 . S
H3928 C3942 0.930 . S
H3929 C3944 1.019 . S
H3930 C3944 0.873 1_565 S
H3931 C3944 0.996 . S
C3932 H3924 0.929 . S
C3932 C3933 1.377 . S
C3932 C3934 1.384 . S
C3933 C3932 1.377 . S
C3933 C3939 1.390 . S
C3934 H3925 0.930 . S
C3934 C3932 1.384 . S
C3934 C3935 1.372 . S
C3935 C3934 1.372 . S
C3935 C3936 1.400 . S
C3935 C3940 1.490 . S
C3936 H3926 0.817 1_565 S
C3936 C3935 1.400 . S
C3936 C3939 1.386 . S
H3937 C3953 0.930 . S
H3938 C3954 0.931 . S
C3939 H3927 0.929 . S
C3939 C3933 1.390 . S
C3939 C3936 1.386 . S
C3940 C3935 1.490 . S
C3940 C3942 1.395 . S
C3940 C3943 1.403 . S
H3941 C3947 0.873 1_545 S
C3942 H3928 0.930 . S
C3942 C3940 1.395 . S
C3942 C3945 1.403 . S
C3943 C3940 1.403 . S
C3943 C3944 1.526 1_565 S
C3943 C3947 1.400 . S
C3944 H3929 1.019 . S
C3944 H3930 0.873 1_545 S
C3944 H3931 0.996 . S
C3944 C3943 1.526 1_545 S
C3945 C3942 1.403 . S
C3945 C3946 1.392 . S
C3945 C3949 1.495 . S
C3946 C3945 1.392 . S
C3946 C3947 1.385 . S
C3946 C3948 1.478 . S
C3947 H3941 0.873 1_565 S
C3947 C3943 1.400 . S
C3947 C3946 1.385 . S
C3948 C3946 1.478 . S
C3948 C3950 1.381 . S
C3948 C3954 1.383 1_565 S
C3949 C3945 1.495 . S
C3949 H3955 0.959 . S
C3949 H3956 0.961 . S
C3949 H3957 0.960 . S
C3950 C3948 1.381 . S
C3950 C3951 1.394 . S
C3950 H3958 0.930 . S
C3951 C3950 1.394 . S
C3951 C3952 1.383 . S
C3951 H3959 0.929 . S
C3952 C3951 1.383 . S
C3952 C3953 1.377 1_565 S
C3953 H3937 0.930 . S
C3953 C3952 1.377 1_545 S
C3953 C3954 1.379 . S
C3954 H3938 0.931 . S
C3954 C3948 1.383 1_545 S
C3954 C3953 1.379 . S
H3955 C3949 0.959 . S
H3956 C3949 0.961 . S
H3957 C3949 0.960 . S
H3958 C3950 0.930 . S
H3959 C3951 0.929 . S
H3960 C3968 0.929 . S
H3961 C3970 0.930 1_565 S
H3962 C3972 0.930 . S
H3963 C3975 0.929 . S
H3964 C3978 0.930 . S
H3965 C3980 0.960 . S
H3966 C3980 0.960 . S
H3967 C3980 0.960 . S
C3968 H3960 0.929 . S
C3968 C3969 1.377 . S
C3968 C3970 1.384 . S
C3969 C3968 1.377 . S
C3969 C3975 1.390 . S
C3970 H3961 0.930 1_545 S
C3970 C3968 1.384 . S
C3970 C3971 1.372 . S
C3971 C3970 1.372 . S
C3971 C3972 1.400 . S
C3971 C3976 1.490 . S
C3972 H3962 0.930 . S
C3972 C3971 1.400 . S
C3972 C3975 1.386 . S
H3973 C3989 0.930 . S
H3974 C3990 0.931 . S
C3975 H3963 0.929 . S
C3975 C3969 1.390 . S
C3975 C3972 1.386 . S
C3976 C3971 1.490 . S
C3976 C3978 1.395 . S
C3976 C3979 1.403 . S
H3977 C3983 0.930 . S
C3978 H3964 0.930 . S
C3978 C3976 1.395 . S
C3978 C3981 1.403 . S
C3979 C3976 1.403 . S
C3979 C3980 1.524 . S
C3979 C3983 1.400 . S
C3980 H3965 0.960 . S
C3980 H3966 0.960 . S
C3980 H3967 0.960 . S
C3980 C3979 1.524 . S
C3981 C3978 1.403 . S
C3981 C3982 1.392 . S
C3981 C3985 1.517 . S
C3982 C3981 1.392 . S
C3982 C3983 1.385 . S
C3982 C3984 1.478 . S
C3983 H3977 0.930 . S
C3983 C3979 1.400 . S
C3983 C3982 1.385 . S
C3984 C3982 1.478 . S
C3984 C3986 1.381 1_545 S
C3984 C3990 1.383 . S
C3985 C3981 1.517 . S
C3985 H3991 0.897 1_545 S
C3985 H3992 0.992 . S
C3985 H3993 0.936 1_545 S
C3986 C3984 1.381 1_565 S
C3986 C3987 1.394 . S
C3986 H3994 0.930 . S
C3987 C3986 1.394 . S
C3987 C3988 1.383 1_565 S
C3987 H3995 0.929 . S
C3988 C3987 1.383 1_545 S
C3988 C3989 1.377 . S
C3989 H3973 0.930 . S
C3989 C3988 1.377 . S
C3989 C3990 1.379 . S
C3990 H3974 0.931 . S
C3990 C3984 1.383 . S
C3990 C3989 1.379 . S
H3991 C3985 0.897 1_565 S
H3992 C3985 0.992 . S
H3993 C3985 0.936 1_565 S
H3994 C3986 0.930 . S
H3995 C3987 0.929 . S
H3996 C4004 0.929 . S
H3997 C4006 0.930 . S
H3998 C4008 0.930 . S
H3999 C4011 0.929 . S
H4000 C4014 0.918 1_455 S
H4001 C4016 0.960 . S
H4002 C4016 0.960 . S
H4003 C4016 0.960 . S
C4004 H3996 0.929 . S
C4004 C4005 1.377 . S
C4004 C4006 1.384 . S
C4005 C4004 1.377 . S
C4005 C4011 1.390 . S
C4006 H3997 0.930 . S
C4006 C4004 1.384 . S
C4006 C4007 1.372 . S
C4007 C4006 1.372 . S
C4007 C4008 1.400 . S
C4007 C4012 1.490 . S
C4008 H3998 0.930 . S
C4008 C4007 1.400 . S
C4008 C4011 1.386 . S
H4009 C4025 0.930 . S
H4010 C4026 0.931 . S
C4011 H3999 0.929 . S
C4011 C4005 1.390 . S
C4011 C4008 1.386 . S
C4012 C4007 1.490 . S
C4012 C4014 1.428 . S
C4012 C4015 1.403 . S
H4013 C4019 0.930 . S
C4014 H4000 0.918 1_655 S
C4014 C4012 1.428 . S
C4014 C4017 1.382 1_655 S
C4015 C4012 1.403 . S
C4015 C4016 1.524 . S
C4015 C4019 1.400 . S
C4016 H4001 0.960 . S
C4016 H4002 0.960 . S
C4016 H4003 0.960 . S
C4016 C4015 1.524 . S
C4017 C4014 1.382 1_455 S
C4017 C4018 1.392 1_455 S
C4017 C4021 1.495 . S
C4018 C4017 1.392 1_655 S
C4018 C4019 1.385 . S
C4018 C4020 1.478 . S
C4019 H4013 0.930 . S
C4019 C4015 1.400 . S
C4019 C4018 1.385 . S
C4020 C4018 1.478 . S
C4020 C4022 1.381 1_655 S
C4020 C4026 1.383 . S
C4021 C4017 1.495 . S
C4021 H4027 0.959 . S
C4021 H4028 0.961 . S
C4021 H4029 0.960 . S
C4022 C4020 1.381 1_455 S
C4022 C4023 1.394 . S
C4022 H4030 0.930 . S
C4023 C4022 1.394 . S
C4023 C4024 1.383 1_455 S
C4023 H4031 0.929 . S
C4024 C4023 1.383 1_655 S
C4024 C4025 1.377 . S
C4025 H4009 0.930 . S
C4025 C4024 1.377 . S
C4025 C4026 1.379 . S
C4026 H4010 0.931 . S
C4026 C4020 1.383 . S
C4026 C4025 1.379 . S
H4027 C4021 0.959 . S
H4028 C4021 0.961 . S
H4029 C4021 0.960 . S
H4030 C4022 0.930 . S
H4031 C4023 0.929 . S
H4032 C4040 0.929 . S
H4033 C4042 0.930 . S
H4034 C4044 0.930 . S
H4035 C4047 0.929 . S
H4036 C4050 0.930 . S
H4037 C4052 0.960 . S
H4038 C4052 0.960 . S
H4039 C4052 0.960 . S
C4040 H4032 0.929 . S
C4040 C4041 1.377 . S
C4040 C4042 1.384 . S
C4041 C4040 1.377 . S
C4041 C4047 1.390 . S
C4042 H4033 0.930 . S
C4042 C4040 1.384 . S
C4042 C4043 1.372 . S
C4043 C4042 1.372 . S
C4043 C4044 1.400 . S
C4043 C4048 1.490 . S
C4044 H4034 0.930 . S
C4044 C4043 1.400 . S
C4044 C4047 1.386 . S
H4045 C4061 0.930 . S
H4046 C4062 0.931 . S
C4047 H4035 0.929 . S
C4047 C4041 1.390 . S
C4047 C4044 1.386 . S
C4048 C4043 1.490 . S
C4048 C4050 1.395 . S
C4048 C4051 1.403 . S
H4049 C4055 0.930 . S
C4050 H4036 0.930 . S
C4050 C4048 1.395 . S
C4050 C4053 1.403 . S
C4051 C4048 1.403 . S
C4051 C4052 1.524 . S
C4051 C4055 1.400 . S
C4052 H4037 0.960 . S
C4052 H4038 0.960 . S
C4052 H4039 0.960 . S
C4052 C4051 1.524 . S
C4053 C4050 1.403 . S
C4053 C4054 1.392 . S
C4053 C4057 1.495 . S
C4054 C4053 1.392 . S
C4054 C4055 1.385 . S
C4054 C4056 1.478 . S
C4055 H4049 0.930 . S
C4055 C4051 1.400 . S
C4055 C4054 1.385 . S
C4056 C4054 1.478 . S
C4056 C4058 1.381 . S
C4056 C4062 1.383 . S
C4057 C4053 1.495 . S
C4057 H4063 0.959 . S
C4057 H4064 0.961 . S
C4057 H4065 0.960 . S
C4058 C4056 1.381 . S
C4058 C4059 1.394 . S
C4058 H4066 0.930 . S
C4059 C4058 1.394 . S
C4059 C4060 1.383 . S
C4059 H4067 0.929 . S
C4060 C4059 1.383 . S
C4060 C4061 1.377 . S
C4061 H4045 0.930 . S
C4061 C4060 1.377 . S
C4061 C4062 1.379 . S
C4062 H4046 0.931 . S
C4062 C4056 1.383 . S
C4062 C4061 1.379 . S
H4063 C4057 0.959 . S
H4064 C4057 0.961 . S
H4065 C4057 0.960 . S
H4066 C4058 0.930 . S
H4067 C4059 0.929 . S
H4068 C4076 0.929 . S
H4069 C4078 0.930 . S
H4070 C4080 0.930 . S
H4071 C4083 0.929 . S
H4072 C4086 0.930 . S
H4073 C4088 0.960 . S
H4074 C4088 0.960 . S
H4075 C4088 0.960 . S
C4076 H4068 0.929 . S
C4076 C4077 1.377 . S
C4076 C4078 1.384 . S
C4077 C4076 1.377 . S
C4077 C4083 1.390 . S
C4078 H4069 0.930 . S
C4078 C4076 1.384 . S
C4078 C4079 1.372 . S
C4079 C4078 1.372 . S
C4079 C4080 1.400 . S
C4079 C4084 1.490 . S
C4080 H4070 0.930 . S
C4080 C4079 1.400 . S
C4080 C4083 1.386 . S
H4081 C4097 0.930 . S
H4082 C4098 0.931 . S
C4083 H4071 0.929 . S
C4083 C4077 1.390 . S
C4083 C4080 1.386 . S
C4084 C4079 1.490 . S
C4084 C4086 1.395 . S
C4084 C4087 1.403 . S
H4085 C4091 0.930 . S
C4086 H4072 0.930 . S
C4086 C4084 1.395 . S
C4086 C4089 1.403 . S
C4087 C4084 1.403 . S
C4087 C4088 1.524 . S
C4087 C4091 1.400 . S
C4088 H4073 0.960 . S
C4088 H4074 0.960 . S
C4088 H4075 0.960 . S
C4088 C4087 1.524 . S
C4089 C4086 1.403 . S
C4089 C4090 1.392 . S
C4089 C4093 1.495 . S
C4090 C4089 1.392 . S
C4090 C4091 1.385 . S
C4090 C4092 1.478 . S
C4091 H4085 0.930 . S
C4091 C4087 1.400 . S
C4091 C4090 1.385 . S
C4092 C4090 1.478 . S
C4092 C4094 1.381 . S
C4092 C4098 1.383 . S
C4093 C4089 1.495 . S
C4093 H4099 0.959 . S
C4093 H4100 0.961 . S
C4093 H4101 0.960 . S
C4094 C4092 1.381 . S
C4094 C4095 1.394 . S
C4094 H4102 0.930 . S
C4095 C4094 1.394 . S
C4095 C4096 1.383 . S
C4095 H4103 0.929 . S
C4096 C4095 1.383 . S
C4096 C4097 1.377 . S
C4097 H4081 0.930 . S
C4097 C4096 1.377 . S
C4097 C4098 1.379 . S
C4098 H4082 0.931 . S
C4098 C4092 1.383 . S
C4098 C4097 1.379 . S
H4099 C4093 0.959 . S
H4100 C4093 0.961 . S
H4101 C4093 0.960 . S
H4102 C4094 0.930 . S
H4103 C4095 0.929 . S
H4104 C4112 0.929 . S
H4105 C4114 0.930 . S
H4106 C4116 0.930 . S
H4107 C4119 0.929 . S
H4108 C4122 0.930 . S
H4109 C4124 0.960 . S
H4110 C4124 0.960 . S
H4111 C4124 0.960 . S
C4112 H4104 0.929 . S
C4112 C4113 1.377 . S
C4112 C4114 1.384 . S
C4113 C4112 1.377 . S
C4113 C4119 1.390 . S
C4114 H4105 0.930 . S
C4114 C4112 1.384 . S
C4114 C4115 1.372 . S
C4115 C4114 1.372 . S
C4115 C4116 1.400 . S
C4115 C4120 1.490 . S
C4116 H4106 0.930 . S
C4116 C4115 1.400 . S
C4116 C4119 1.386 . S
H4117 C4133 0.930 . S
H4118 C4134 0.931 . S
C4119 H4107 0.929 . S
C4119 C4113 1.390 . S
C4119 C4116 1.386 . S
C4120 C4115 1.490 . S
C4120 C4122 1.395 . S
C4120 C4123 1.403 . S
H4121 C4127 0.930 . S
C4122 H4108 0.930 . S
C4122 C4120 1.395 . S
C4122 C4125 1.403 . S
C4123 C4120 1.403 . S
C4123 C4124 1.524 . S
C4123 C4127 1.400 . S
C4124 H4109 0.960 . S
C4124 H4110 0.960 . S
C4124 H4111 0.960 . S
C4124 C4123 1.524 . S
C4125 C4122 1.403 . S
C4125 C4126 1.392 . S
C4125 C4129 1.495 . S
C4126 C4125 1.392 . S
C4126 C4127 1.385 . S
C4126 C4128 1.478 . S
C4127 H4121 0.930 . S
C4127 C4123 1.400 . S
C4127 C4126 1.385 . S
C4128 C4126 1.478 . S
C4128 C4130 1.381 . S
C4128 C4134 1.383 . S
C4129 C4125 1.495 . S
C4129 H4135 0.959 . S
C4129 H4136 0.961 . S
C4129 H4137 0.960 . S
C4130 C4128 1.381 . S
C4130 C4131 1.394 . S
C4130 H4138 0.930 . S
C4131 C4130 1.394 . S
C4131 C4132 1.383 . S
C4131 H4139 0.929 . S
C4132 C4131 1.383 . S
C4132 C4133 1.377 . S
C4133 H4117 0.930 . S
C4133 C4132 1.377 . S
C4133 C4134 1.379 . S
C4134 H4118 0.931 . S
C4134 C4128 1.383 . S
C4134 C4133 1.379 . S
H4135 C4129 0.959 . S
H4136 C4129 0.961 . S
H4137 C4129 0.960 . S
H4138 C4130 0.930 . S
H4139 C4131 0.929 . S
H4140 C4148 0.929 . S
H4141 C4150 0.930 . S
H4142 C4152 0.930 . S
H4143 C4155 0.929 . S
H4144 C4158 0.930 . S
H4145 C4160 0.960 . S
H4146 C4160 0.960 . S
H4147 C4160 0.960 . S
C4148 H4140 0.929 . S
C4148 C4149 1.377 . S
C4148 C4150 1.384 . S
C4149 C4148 1.377 . S
C4149 C4155 1.390 . S
C4150 H4141 0.930 . S
C4150 C4148 1.384 . S
C4150 C4151 1.372 . S
C4151 C4150 1.372 . S
C4151 C4152 1.400 . S
C4151 C4156 1.490 . S
C4152 H4142 0.930 . S
C4152 C4151 1.400 . S
C4152 C4155 1.386 . S
H4153 C4169 0.930 . S
H4154 C4170 0.931 . S
C4155 H4143 0.929 . S
C4155 C4149 1.390 . S
C4155 C4152 1.386 . S
C4156 C4151 1.490 . S
C4156 C4158 1.395 . S
C4156 C4159 1.403 . S
H4157 C4163 0.930 . S
C4158 H4144 0.930 . S
C4158 C4156 1.395 . S
C4158 C4161 1.403 . S
C4159 C4156 1.403 . S
C4159 C4160 1.524 . S
C4159 C4163 1.400 . S
C4160 H4145 0.960 . S
C4160 H4146 0.960 . S
C4160 H4147 0.960 . S
C4160 C4159 1.524 . S
C4161 C4158 1.403 . S
C4161 C4162 1.392 . S
C4161 C4165 1.495 . S
C4162 C4161 1.392 . S
C4162 C4163 1.385 . S
C4162 C4164 1.478 . S
C4163 H4157 0.930 . S
C4163 C4159 1.400 . S
C4163 C4162 1.385 . S
C4164 C4162 1.478 . S
C4164 C4166 1.381 . S
C4164 C4170 1.383 . S
C4165 C4161 1.495 . S
C4165 H4171 0.959 . S
C4165 H4172 0.961 . S
C4165 H4173 0.960 . S
C4166 C4164 1.381 . S
C4166 C4167 1.394 . S
C4166 H4174 0.930 . S
C4167 C4166 1.394 . S
C4167 C4168 1.383 . S
C4167 H4175 0.929 . S
C4168 C4167 1.383 . S
C4168 C4169 1.377 . S
C4169 H4153 0.930 . S
C4169 C4168 1.377 . S
C4169 C4170 1.379 . S
C4170 H4154 0.931 . S
C4170 C4164 1.383 . S
C4170 C4169 1.379 . S
H4171 C4165 0.959 . S
H4172 C4165 0.961 . S
H4173 C4165 0.960 . S
H4174 C4166 0.930 . S
H4175 C4167 0.929 . S
H4176 C4184 0.929 . S
H4177 C4186 0.930 . S
H4178 C4188 0.930 . S
H4179 C4191 0.929 . S
H4180 C4194 0.930 . S
H4181 C4196 0.960 . S
H4182 C4196 0.960 . S
H4183 C4196 0.960 . S
C4184 H4176 0.929 . S
C4184 C4185 1.377 . S
C4184 C4186 1.384 . S
C4185 C4184 1.377 . S
C4185 C4191 1.390 . S
C4186 H4177 0.930 . S
C4186 C4184 1.384 . S
C4186 C4187 1.372 . S
C4187 C4186 1.372 . S
C4187 C4188 1.400 . S
C4187 C4192 1.490 . S
C4188 H4178 0.930 . S
C4188 C4187 1.400 . S
C4188 C4191 1.386 . S
H4189 C4205 0.930 . S
H4190 C4206 0.931 . S
C4191 H4179 0.929 . S
C4191 C4185 1.390 . S
C4191 C4188 1.386 . S
C4192 C4187 1.490 . S
C4192 C4194 1.395 . S
C4192 C4195 1.403 . S
H4193 C4199 0.930 . S
C4194 H4180 0.930 . S
C4194 C4192 1.395 . S
C4194 C4197 1.403 . S
C4195 C4192 1.403 . S
C4195 C4196 1.524 . S
C4195 C4199 1.400 . S
C4196 H4181 0.960 . S
C4196 H4182 0.960 . S
C4196 H4183 0.960 . S
C4196 C4195 1.524 . S
C4197 C4194 1.403 . S
C4197 C4198 1.392 . S
C4197 C4201 1.495 . S
C4198 C4197 1.392 . S
C4198 C4199 1.385 . S
C4198 C4200 1.478 . S
C4199 H4193 0.930 . S
C4199 C4195 1.400 . S
C4199 C4198 1.385 . S
C4200 C4198 1.478 . S
C4200 C4202 1.381 . S
C4200 C4206 1.383 . S
C4201 C4197 1.495 . S
C4201 H4207 0.959 . S
C4201 H4208 0.961 . S
C4201 H4209 0.960 . S
C4202 C4200 1.381 . S
C4202 C4203 1.394 . S
C4202 H4210 0.930 . S
C4203 C4202 1.394 . S
C4203 C4204 1.383 . S
C4203 H4211 0.929 . S
C4204 C4203 1.383 . S
C4204 C4205 1.377 . S
C4205 H4189 0.930 . S
C4205 C4204 1.377 . S
C4205 C4206 1.379 . S
C4206 H4190 0.931 . S
C4206 C4200 1.383 . S
C4206 C4205 1.379 . S
H4207 C4201 0.959 . S
H4208 C4201 0.961 . S
H4209 C4201 0.960 . S
H4210 C4202 0.930 . S
H4211 C4203 0.929 . S
H4212 C4220 0.929 . S
H4213 C4222 0.930 . S
H4214 C4224 0.930 . S
H4215 C4227 0.929 . S
H4216 C4230 0.930 . S
H4217 C4232 0.960 . S
H4218 C4232 0.960 . S
H4219 C4232 0.960 . S
C4220 H4212 0.929 . S
C4220 C4221 1.377 . S
C4220 C4222 1.384 . S
C4221 C4220 1.377 . S
C4221 C4227 1.390 . S
C4222 H4213 0.930 . S
C4222 C4220 1.384 . S
C4222 C4223 1.372 . S
C4223 C4222 1.372 . S
C4223 C4224 1.400 . S
C4223 C4228 1.490 . S
C4224 H4214 0.930 . S
C4224 C4223 1.400 . S
C4224 C4227 1.386 . S
H4225 C4241 0.930 . S
H4226 C4242 0.931 . S
C4227 H4215 0.929 . S
C4227 C4221 1.390 . S
C4227 C4224 1.386 . S
C4228 C4223 1.490 . S
C4228 C4230 1.395 . S
C4228 C4231 1.403 . S
H4229 C4235 0.930 . S
C4230 H4216 0.930 . S
C4230 C4228 1.395 . S
C4230 C4233 1.403 . S
C4231 C4228 1.403 . S
C4231 C4232 1.524 . S
C4231 C4235 1.400 . S
C4232 H4217 0.960 . S
C4232 H4218 0.960 . S
C4232 H4219 0.960 . S
C4232 C4231 1.524 . S
C4233 C4230 1.403 . S
C4233 C4234 1.392 . S
C4233 C4237 1.495 . S
C4234 C4233 1.392 . S
C4234 C4235 1.385 . S
C4234 C4236 1.478 . S
C4235 H4229 0.930 . S
C4235 C4231 1.400 . S
C4235 C4234 1.385 . S
C4236 C4234 1.478 . S
C4236 C4238 1.381 . S
C4236 C4242 1.383 . S
C4237 C4233 1.495 . S
C4237 H4243 0.959 . S
C4237 H4244 0.961 . S
C4237 H4245 0.960 . S
C4238 C4236 1.381 . S
C4238 C4239 1.394 . S
C4238 H4246 0.930 . S
C4239 C4238 1.394 . S
C4239 C4240 1.383 . S
C4239 H4247 0.929 . S
C4240 C4239 1.383 . S
C4240 C4241 1.377 . S
C4241 H4225 0.930 . S
C4241 C4240 1.377 . S
C4241 C4242 1.379 . S
C4242 H4226 0.931 . S
C4242 C4236 1.383 . S
C4242 C4241 1.379 . S
H4243 C4237 0.959 . S
H4244 C4237 0.961 . S
H4245 C4237 0.960 . S
H4246 C4238 0.930 . S
H4247 C4239 0.929 . S
H4248 C4256 0.929 . S
H4249 C4258 0.930 . S
H4250 C4260 0.930 . S
H4251 C4263 0.929 . S
H4252 C4266 0.930 . S
H4253 C4268 0.960 . S
H4254 C4268 0.960 . S
H4255 C4268 0.960 . S
C4256 H4248 0.929 . S
C4256 C4257 1.377 . S
C4256 C4258 1.384 . S
C4257 C4256 1.377 . S
C4257 C4263 1.390 . S
C4258 H4249 0.930 . S
C4258 C4256 1.384 . S
C4258 C4259 1.372 . S
C4259 C4258 1.372 . S
C4259 C4260 1.400 . S
C4259 C4264 1.490 . S
C4260 H4250 0.930 . S
C4260 C4259 1.400 . S
C4260 C4263 1.386 . S
H4261 C4277 0.930 . S
H4262 C4278 0.931 . S
C4263 H4251 0.929 . S
C4263 C4257 1.390 . S
C4263 C4260 1.386 . S
C4264 C4259 1.490 . S
C4264 C4266 1.395 . S
C4264 C4267 1.403 . S
H4265 C4271 0.930 . S
C4266 H4252 0.930 . S
C4266 C4264 1.395 . S
C4266 C4269 1.403 . S
C4267 C4264 1.403 . S
C4267 C4268 1.524 . S
C4267 C4271 1.400 . S
C4268 H4253 0.960 . S
C4268 H4254 0.960 . S
C4268 H4255 0.960 . S
C4268 C4267 1.524 . S
C4269 C4266 1.403 . S
C4269 C4270 1.392 . S
C4269 C4273 1.495 . S
C4270 C4269 1.392 . S
C4270 C4271 1.385 . S
C4270 C4272 1.478 . S
C4271 H4265 0.930 . S
C4271 C4267 1.400 . S
C4271 C4270 1.385 . S
C4272 C4270 1.478 . S
C4272 C4274 1.381 . S
C4272 C4278 1.383 . S
C4273 C4269 1.495 . S
C4273 H4279 0.959 . S
C4273 H4280 0.961 . S
C4273 H4281 0.960 . S
C4274 C4272 1.381 . S
C4274 C4275 1.394 . S
C4274 H4282 0.930 . S
C4275 C4274 1.394 . S
C4275 C4276 1.383 . S
C4275 H4283 0.929 . S
C4276 C4275 1.383 . S
C4276 C4277 1.377 . S
C4277 H4261 0.930 . S
C4277 C4276 1.377 . S
C4277 C4278 1.379 . S
C4278 H4262 0.931 . S
C4278 C4272 1.383 . S
C4278 C4277 1.379 . S
H4279 C4273 0.959 . S
H4280 C4273 0.961 . S
H4281 C4273 0.960 . S
H4282 C4274 0.930 . S
H4283 C4275 0.929 . S
H4284 C4292 0.929 . S
H4285 C4294 0.930 . S
H4286 C4296 0.930 . S
H4287 C4299 0.929 . S
H4288 C4302 0.930 . S
H4289 C4304 0.960 . S
H4290 C4304 0.960 . S
H4291 C4304 0.960 . S
C4292 H4284 0.929 . S
C4292 C4293 1.377 . S
C4292 C4294 1.384 . S
C4293 C4292 1.377 . S
C4293 C4299 1.390 . S
C4294 H4285 0.930 . S
C4294 C4292 1.384 . S
C4294 C4295 1.372 . S
C4295 C4294 1.372 . S
C4295 C4296 1.400 . S
C4295 C4300 1.490 . S
C4296 H4286 0.930 . S
C4296 C4295 1.400 . S
C4296 C4299 1.386 . S
H4297 C4313 0.930 . S
H4298 C4314 0.931 . S
C4299 H4287 0.929 . S
C4299 C4293 1.390 . S
C4299 C4296 1.386 . S
C4300 C4295 1.490 . S
C4300 C4302 1.395 . S
C4300 C4303 1.403 . S
H4301 C4307 0.930 . S
C4302 H4288 0.930 . S
C4302 C4300 1.395 . S
C4302 C4305 1.403 . S
C4303 C4300 1.403 . S
C4303 C4304 1.524 . S
C4303 C4307 1.400 . S
C4304 H4289 0.960 . S
C4304 H4290 0.960 . S
C4304 H4291 0.960 . S
C4304 C4303 1.524 . S
C4305 C4302 1.403 . S
C4305 C4306 1.392 . S
C4305 C4309 1.495 . S
C4306 C4305 1.392 . S
C4306 C4307 1.385 . S
C4306 C4308 1.478 . S
C4307 H4301 0.930 . S
C4307 C4303 1.400 . S
C4307 C4306 1.385 . S
C4308 C4306 1.478 . S
C4308 C4310 1.381 . S
C4308 C4314 1.383 . S
C4309 C4305 1.495 . S
C4309 H4315 0.959 . S
C4309 H4316 0.961 . S
C4309 H4317 0.960 . S
C4310 C4308 1.381 . S
C4310 C4311 1.394 . S
C4310 H4318 0.930 . S
C4311 C4310 1.394 . S
C4311 C4312 1.383 . S
C4311 H4319 0.929 . S
C4312 C4311 1.383 . S
C4312 C4313 1.377 . S
C4313 H4297 0.930 . S
C4313 C4312 1.377 . S
C4313 C4314 1.379 . S
C4314 H4298 0.931 . S
C4314 C4308 1.383 . S
C4314 C4313 1.379 . S
H4315 C4309 0.959 . S
H4316 C4309 0.961 . S
H4317 C4309 0.960 . S
H4318 C4310 0.930 . S
H4319 C4311 0.929 . S
H4320 C4328 0.929 . S
H4321 C4330 0.930 . S
H4322 C4332 0.930 . S
H4323 C4335 0.929 . S
H4324 C4338 0.930 . S
H4325 C4340 0.960 . S
H4326 C4340 0.960 . S
H4327 C4340 0.960 . S
C4328 H4320 0.929 . S
C4328 C4329 1.377 . S
C4328 C4330 1.384 . S
C4329 C4328 1.377 . S
C4329 C4335 1.390 . S
C4330 H4321 0.930 . S
C4330 C4328 1.384 . S
C4330 C4331 1.372 . S
C4331 C4330 1.372 . S
C4331 C4332 1.400 . S
C4331 C4336 1.490 . S
C4332 H4322 0.930 . S
C4332 C4331 1.400 . S
C4332 C4335 1.386 . S
H4333 C4349 0.930 . S
H4334 C4350 0.931 . S
C4335 H4323 0.929 . S
C4335 C4329 1.390 . S
C4335 C4332 1.386 . S
C4336 C4331 1.490 . S
C4336 C4338 1.395 . S
C4336 C4339 1.403 . S
H4337 C4343 0.930 . S
C4338 H4324 0.930 . S
C4338 C4336 1.395 . S
C4338 C4341 1.403 . S
C4339 C4336 1.403 . S
C4339 C4340 1.524 . S
C4339 C4343 1.400 . S
C4340 H4325 0.960 . S
C4340 H4326 0.960 . S
C4340 H4327 0.960 . S
C4340 C4339 1.524 . S
C4341 C4338 1.403 . S
C4341 C4342 1.392 . S
C4341 C4345 1.495 . S
C4342 C4341 1.392 . S
C4342 C4343 1.385 . S
C4342 C4344 1.478 . S
C4343 H4337 0.930 . S
C4343 C4339 1.400 . S
C4343 C4342 1.385 . S
C4344 C4342 1.478 . S
C4344 C4346 1.381 . S
C4344 C4350 1.383 . S
C4345 C4341 1.495 . S
C4345 H4351 0.959 . S
C4345 H4352 0.961 . S
C4345 H4353 0.960 . S
C4346 C4344 1.381 . S
C4346 C4347 1.394 . S
C4346 H4354 0.930 . S
C4347 C4346 1.394 . S
C4347 C4348 1.383 . S
C4347 H4355 0.929 . S
C4348 C4347 1.383 . S
C4348 C4349 1.377 . S
C4349 H4333 0.930 . S
C4349 C4348 1.377 . S
C4349 C4350 1.379 . S
C4350 H4334 0.931 . S
C4350 C4344 1.383 . S
C4350 C4349 1.379 . S
H4351 C4345 0.959 . S
H4352 C4345 0.961 . S
H4353 C4345 0.960 . S
H4354 C4346 0.930 . S
H4355 C4347 0.929 . S
H4356 C4364 0.929 . S
H4357 C4366 0.930 . S
H4358 C4368 0.930 . S
H4359 C4371 0.929 . S
H4360 C4374 0.930 . S
H4361 C4376 0.960 . S
H4362 C4376 0.960 . S
H4363 C4376 0.960 . S
C4364 H4356 0.929 . S
C4364 C4365 1.377 . S
C4364 C4366 1.384 . S
C4365 C4364 1.377 . S
C4365 C4371 1.390 . S
C4366 H4357 0.930 . S
C4366 C4364 1.384 . S
C4366 C4367 1.372 . S
C4367 C4366 1.372 . S
C4367 C4368 1.400 . S
C4367 C4372 1.490 . S
C4368 H4358 0.930 . S
C4368 C4367 1.400 . S
C4368 C4371 1.386 . S
H4369 C4385 0.930 . S
H4370 C4386 0.931 . S
C4371 H4359 0.929 . S
C4371 C4365 1.390 . S
C4371 C4368 1.386 . S
C4372 C4367 1.490 . S
C4372 C4374 1.395 . S
C4372 C4375 1.403 . S
H4373 C4379 0.930 . S
C4374 H4360 0.930 . S
C4374 C4372 1.395 . S
C4374 C4377 1.403 . S
C4375 C4372 1.403 . S
C4375 C4376 1.524 . S
C4375 C4379 1.400 . S
C4376 H4361 0.960 . S
C4376 H4362 0.960 . S
C4376 H4363 0.960 . S
C4376 C4375 1.524 . S
C4377 C4374 1.403 . S
C4377 C4378 1.392 . S
C4377 C4381 1.495 . S
C4378 C4377 1.392 . S
C4378 C4379 1.385 . S
C4378 C4380 1.478 . S
C4379 H4373 0.930 . S
C4379 C4375 1.400 . S
C4379 C4378 1.385 . S
C4380 C4378 1.478 . S
C4380 C4382 1.381 . S
C4380 C4386 1.383 . S
C4381 C4377 1.495 . S
C4381 H4387 0.959 . S
C4381 H4388 0.961 . S
C4381 H4389 0.960 . S
C4382 C4380 1.381 . S
C4382 C4383 1.394 . S
C4382 H4390 0.930 . S
C4383 C4382 1.394 . S
C4383 C4384 1.383 . S
C4383 H4391 0.929 . S
C4384 C4383 1.383 . S
C4384 C4385 1.377 . S
C4385 H4369 0.930 . S
C4385 C4384 1.377 . S
C4385 C4386 1.379 . S
C4386 H4370 0.931 . S
C4386 C4380 1.383 . S
C4386 C4385 1.379 . S
H4387 C4381 0.959 . S
H4388 C4381 0.961 . S
H4389 C4381 0.960 . S
H4390 C4382 0.930 . S
H4391 C4383 0.929 . S
H4392 C4400 0.929 . S
H4393 C4402 0.930 . S
H4394 C4404 0.930 . S
H4395 C4407 0.929 . S
H4396 C4410 0.930 . S
H4397 C4412 0.960 . S
H4398 C4412 0.960 . S
H4399 C4412 0.960 . S
C4400 H4392 0.929 . S
C4400 C4401 1.377 . S
C4400 C4402 1.384 . S
C4401 C4400 1.377 . S
C4401 C4407 1.390 . S
C4402 H4393 0.930 . S
C4402 C4400 1.384 . S
C4402 C4403 1.372 . S
C4403 C4402 1.372 . S
C4403 C4404 1.400 . S
C4403 C4408 1.490 . S
C4404 H4394 0.930 . S
C4404 C4403 1.400 . S
C4404 C4407 1.386 . S
H4405 C4421 0.930 . S
H4406 C4422 0.931 . S
C4407 H4395 0.929 . S
C4407 C4401 1.390 . S
C4407 C4404 1.386 . S
C4408 C4403 1.490 . S
C4408 C4410 1.395 . S
C4408 C4411 1.403 . S
H4409 C4415 0.930 . S
C4410 H4396 0.930 . S
C4410 C4408 1.395 . S
C4410 C4413 1.403 . S
C4411 C4408 1.403 . S
C4411 C4412 1.524 . S
C4411 C4415 1.400 . S
C4412 H4397 0.960 . S
C4412 H4398 0.960 . S
C4412 H4399 0.960 . S
C4412 C4411 1.524 . S
C4413 C4410 1.403 . S
C4413 C4414 1.392 . S
C4413 C4417 1.495 . S
C4414 C4413 1.392 . S
C4414 C4415 1.385 . S
C4414 C4416 1.478 . S
C4415 H4409 0.930 . S
C4415 C4411 1.400 . S
C4415 C4414 1.385 . S
C4416 C4414 1.478 . S
C4416 C4418 1.381 . S
C4416 C4422 1.383 . S
C4417 C4413 1.495 . S
C4417 H4423 0.959 . S
C4417 H4424 0.961 . S
C4417 H4425 0.960 . S
C4418 C4416 1.381 . S
C4418 C4419 1.394 . S
C4418 H4426 0.930 . S
C4419 C4418 1.394 . S
C4419 C4420 1.383 . S
C4419 H4427 0.929 . S
C4420 C4419 1.383 . S
C4420 C4421 1.377 . S
C4421 H4405 0.930 . S
C4421 C4420 1.377 . S
C4421 C4422 1.379 . S
C4422 H4406 0.931 . S
C4422 C4416 1.383 . S
C4422 C4421 1.379 . S
H4423 C4417 0.959 . S
H4424 C4417 0.961 . S
H4425 C4417 0.960 . S
H4426 C4418 0.930 . S
H4427 C4419 0.929 . S
H4428 C4436 0.929 . S
H4429 C4438 0.930 . S
H4430 C4440 0.930 . S
H4431 C4443 0.929 . S
H4432 C4446 0.930 . S
H4433 C4448 0.960 . S
H4434 C4448 0.960 . S
H4435 C4448 0.960 . S
C4436 H4428 0.929 . S
C4436 C4437 1.377 . S
C4436 C4438 1.384 . S
C4437 C4436 1.377 . S
C4437 C4443 1.390 . S
C4438 H4429 0.930 . S
C4438 C4436 1.384 . S
C4438 C4439 1.372 . S
C4439 C4438 1.372 . S
C4439 C4440 1.400 . S
C4439 C4444 1.490 . S
C4440 H4430 0.930 . S
C4440 C4439 1.400 . S
C4440 C4443 1.386 . S
H4441 C4457 0.930 . S
H4442 C4458 0.931 . S
C4443 H4431 0.929 . S
C4443 C4437 1.390 . S
C4443 C4440 1.386 . S
C4444 C4439 1.490 . S
C4444 C4446 1.395 . S
C4444 C4447 1.403 . S
H4445 C4451 0.930 . S
C4446 H4432 0.930 . S
C4446 C4444 1.395 . S
C4446 C4449 1.403 . S
C4447 C4444 1.403 . S
C4447 C4448 1.524 . S
C4447 C4451 1.400 . S
C4448 H4433 0.960 . S
C4448 H4434 0.960 . S
C4448 H4435 0.960 . S
C4448 C4447 1.524 . S
C4449 C4446 1.403 . S
C4449 C4450 1.392 . S
C4449 C4453 1.495 . S
C4450 C4449 1.392 . S
C4450 C4451 1.385 . S
C4450 C4452 1.478 . S
C4451 H4445 0.930 . S
C4451 C4447 1.400 . S
C4451 C4450 1.385 . S
C4452 C4450 1.478 . S
C4452 C4454 1.381 . S
C4452 C4458 1.383 . S
C4453 C4449 1.495 . S
C4453 H4459 0.959 . S
C4453 H4460 0.961 . S
C4453 H4461 0.960 . S
C4454 C4452 1.381 . S
C4454 C4455 1.394 . S
C4454 H4462 0.930 . S
C4455 C4454 1.394 . S
C4455 C4456 1.383 . S
C4455 H4463 0.929 . S
C4456 C4455 1.383 . S
C4456 C4457 1.377 . S
C4457 H4441 0.930 . S
C4457 C4456 1.377 . S
C4457 C4458 1.379 . S
C4458 H4442 0.931 . S
C4458 C4452 1.383 . S
C4458 C4457 1.379 . S
H4459 C4453 0.959 . S
H4460 C4453 0.961 . S
H4461 C4453 0.960 . S
H4462 C4454 0.930 . S
H4463 C4455 0.929 . S
H4464 C4472 0.929 . S
H4465 C4474 0.930 . S
H4466 C4476 0.930 . S
H4467 C4479 0.929 . S
H4468 C4482 0.930 . S
H4469 C4484 0.960 . S
H4470 C4484 0.960 . S
H4471 C4484 0.960 . S
C4472 H4464 0.929 . S
C4472 C4473 1.377 . S
C4472 C4474 1.384 . S
C4473 C4472 1.377 . S
C4473 C4479 1.390 . S
C4474 H4465 0.930 . S
C4474 C4472 1.384 . S
C4474 C4475 1.372 . S
C4475 C4474 1.372 . S
C4475 C4476 1.400 . S
C4475 C4480 1.490 . S
C4476 H4466 0.930 . S
C4476 C4475 1.400 . S
C4476 C4479 1.386 . S
H4477 C4493 0.930 . S
H4478 C4494 0.931 . S
C4479 H4467 0.929 . S
C4479 C4473 1.390 . S
C4479 C4476 1.386 . S
C4480 C4475 1.490 . S
C4480 C4482 1.395 . S
C4480 C4483 1.403 . S
H4481 C4487 0.930 . S
C4482 H4468 0.930 . S
C4482 C4480 1.395 . S
C4482 C4485 1.403 . S
C4483 C4480 1.403 . S
C4483 C4484 1.524 . S
C4483 C4487 1.400 . S
C4484 H4469 0.960 . S
C4484 H4470 0.960 . S
C4484 H4471 0.960 . S
C4484 C4483 1.524 . S
C4485 C4482 1.403 . S
C4485 C4486 1.392 . S
C4485 C4489 1.495 . S
C4486 C4485 1.392 . S
C4486 C4487 1.385 . S
C4486 C4488 1.478 . S
C4487 H4481 0.930 . S
C4487 C4483 1.400 . S
C4487 C4486 1.385 . S
C4488 C4486 1.478 . S
C4488 C4490 1.381 . S
C4488 C4494 1.383 . S
C4489 C4485 1.495 . S
C4489 H4495 0.959 . S
C4489 H4496 0.961 . S
C4489 H4497 0.960 . S
C4490 C4488 1.381 . S
C4490 C4491 1.394 . S
C4490 H4498 0.930 . S
C4491 C4490 1.394 . S
C4491 C4492 1.383 . S
C4491 H4499 0.929 . S
C4492 C4491 1.383 . S
C4492 C4493 1.377 . S
C4493 H4477 0.930 . S
C4493 C4492 1.377 . S
C4493 C4494 1.379 . S
C4494 H4478 0.931 . S
C4494 C4488 1.383 . S
C4494 C4493 1.379 . S
H4495 C4489 0.959 . S
H4496 C4489 0.961 . S
H4497 C4489 0.960 . S
H4498 C4490 0.930 . S
H4499 C4491 0.929 . S
H4500 C4508 0.929 . S
H4501 C4510 0.930 . S
H4502 C4512 0.930 . S
H4503 C4515 0.929 . S
H4504 C4518 0.930 . S
H4505 C4520 0.960 . S
H4506 C4520 0.960 . S
H4507 C4520 0.960 . S
C4508 H4500 0.929 . S
C4508 C4509 1.377 . S
C4508 C4510 1.384 . S
C4509 C4508 1.377 . S
C4509 C4515 1.390 . S
C4510 H4501 0.930 . S
C4510 C4508 1.384 . S
C4510 C4511 1.372 . S
C4511 C4510 1.372 . S
C4511 C4512 1.400 . S
C4511 C4516 1.490 . S
C4512 H4502 0.930 . S
C4512 C4511 1.400 . S
C4512 C4515 1.386 . S
H4513 C4529 0.930 . S
H4514 C4530 0.931 . S
C4515 H4503 0.929 . S
C4515 C4509 1.390 . S
C4515 C4512 1.386 . S
C4516 C4511 1.490 . S
C4516 C4518 1.395 . S
C4516 C4519 1.403 . S
H4517 C4523 0.930 . S
C4518 H4504 0.930 . S
C4518 C4516 1.395 . S
C4518 C4521 1.403 . S
C4519 C4516 1.403 . S
C4519 C4520 1.524 . S
C4519 C4523 1.400 . S
C4520 H4505 0.960 . S
C4520 H4506 0.960 . S
C4520 H4507 0.960 . S
C4520 C4519 1.524 . S
C4521 C4518 1.403 . S
C4521 C4522 1.392 . S
C4521 C4525 1.495 . S
C4522 C4521 1.392 . S
C4522 C4523 1.385 . S
C4522 C4524 1.478 . S
C4523 H4517 0.930 . S
C4523 C4519 1.400 . S
C4523 C4522 1.385 . S
C4524 C4522 1.478 . S
C4524 C4526 1.381 . S
C4524 C4530 1.383 . S
C4525 C4521 1.495 . S
C4525 H4531 0.959 . S
C4525 H4532 0.961 . S
C4525 H4533 0.960 . S
C4526 C4524 1.381 . S
C4526 C4527 1.394 . S
C4526 H4534 0.930 . S
C4527 C4526 1.394 . S
C4527 C4528 1.383 . S
C4527 H4535 0.929 . S
C4528 C4527 1.383 . S
C4528 C4529 1.377 . S
C4529 H4513 0.930 . S
C4529 C4528 1.377 . S
C4529 C4530 1.379 . S
C4530 H4514 0.931 . S
C4530 C4524 1.383 . S
C4530 C4529 1.379 . S
H4531 C4525 0.959 . S
H4532 C4525 0.961 . S
H4533 C4525 0.960 . S
H4534 C4526 0.930 . S
H4535 C4527 0.929 . S
H4536 C4544 0.929 . S
H4537 C4546 0.930 . S
H4538 C4548 0.930 . S
H4539 C4551 0.929 . S
H4540 C4554 0.930 . S
H4541 C4556 0.960 . S
H4542 C4556 0.960 . S
H4543 C4556 0.960 . S
C4544 H4536 0.929 . S
C4544 C4545 1.377 . S
C4544 C4546 1.384 . S
C4545 C4544 1.377 . S
C4545 C4551 1.390 . S
C4546 H4537 0.930 . S
C4546 C4544 1.384 . S
C4546 C4547 1.372 . S
C4547 C4546 1.372 . S
C4547 C4548 1.400 . S
C4547 C4552 1.490 . S
C4548 H4538 0.930 . S
C4548 C4547 1.400 . S
C4548 C4551 1.386 . S
H4549 C4565 0.930 . S
H4550 C4566 0.931 . S
C4551 H4539 0.929 . S
C4551 C4545 1.390 . S
C4551 C4548 1.386 . S
C4552 C4547 1.490 . S
C4552 C4554 1.395 . S
C4552 C4555 1.403 . S
H4553 C4559 0.930 . S
C4554 H4540 0.930 . S
C4554 C4552 1.395 . S
C4554 C4557 1.403 . S
C4555 C4552 1.403 . S
C4555 C4556 1.524 . S
C4555 C4559 1.400 . S
C4556 H4541 0.960 . S
C4556 H4542 0.960 . S
C4556 H4543 0.960 . S
C4556 C4555 1.524 . S
C4557 C4554 1.403 . S
C4557 C4558 1.392 . S
C4557 C4561 1.495 . S
C4558 C4557 1.392 . S
C4558 C4559 1.385 . S
C4558 C4560 1.478 . S
C4559 H4553 0.930 . S
C4559 C4555 1.400 . S
C4559 C4558 1.385 . S
C4560 C4558 1.478 . S
C4560 C4562 1.381 . S
C4560 C4566 1.383 . S
C4561 C4557 1.495 . S
C4561 H4567 0.959 . S
C4561 H4568 0.961 . S
C4561 H4569 0.960 . S
C4562 C4560 1.381 . S
C4562 C4563 1.394 . S
C4562 H4570 0.930 . S
C4563 C4562 1.394 . S
C4563 C4564 1.383 . S
C4563 H4571 0.929 . S
C4564 C4563 1.383 . S
C4564 C4565 1.377 . S
C4565 H4549 0.930 . S
C4565 C4564 1.377 . S
C4565 C4566 1.379 . S
C4566 H4550 0.931 . S
C4566 C4560 1.383 . S
C4566 C4565 1.379 . S
H4567 C4561 0.959 . S
H4568 C4561 0.961 . S
H4569 C4561 0.960 . S
H4570 C4562 0.930 . S
H4571 C4563 0.929 . S
H4572 C4580 0.929 . S
H4573 C4582 0.930 . S
H4574 C4584 0.930 . S
H4575 C4587 0.929 . S
H4576 C4590 0.930 . S
H4577 C4592 0.960 . S
H4578 C4592 0.960 . S
H4579 C4592 0.960 . S
C4580 H4572 0.929 . S
C4580 C4581 1.377 . S
C4580 C4582 1.384 . S
C4581 C4580 1.377 . S
C4581 C4587 1.390 . S
C4582 H4573 0.930 . S
C4582 C4580 1.384 . S
C4582 C4583 1.372 . S
C4583 C4582 1.372 . S
C4583 C4584 1.400 . S
C4583 C4588 1.490 . S
C4584 H4574 0.930 . S
C4584 C4583 1.400 . S
C4584 C4587 1.386 . S
H4585 C4601 0.930 . S
H4586 C4602 0.931 . S
C4587 H4575 0.929 . S
C4587 C4581 1.390 . S
C4587 C4584 1.386 . S
C4588 C4583 1.490 . S
C4588 C4590 1.395 . S
C4588 C4591 1.403 . S
H4589 C4595 0.930 . S
C4590 H4576 0.930 . S
C4590 C4588 1.395 . S
C4590 C4593 1.403 . S
C4591 C4588 1.403 . S
C4591 C4592 1.524 . S
C4591 C4595 1.400 . S
C4592 H4577 0.960 . S
C4592 H4578 0.960 . S
C4592 H4579 0.960 . S
C4592 C4591 1.524 . S
C4593 C4590 1.403 . S
C4593 C4594 1.392 . S
C4593 C4597 1.495 . S
C4594 C4593 1.392 . S
C4594 C4595 1.385 . S
C4594 C4596 1.478 . S
C4595 H4589 0.930 . S
C4595 C4591 1.400 . S
C4595 C4594 1.385 . S
C4596 C4594 1.478 . S
C4596 C4598 1.381 . S
C4596 C4602 1.383 . S
C4597 C4593 1.495 . S
C4597 H4603 0.959 . S
C4597 H4604 0.961 . S
C4597 H4605 0.960 . S
C4598 C4596 1.381 . S
C4598 C4599 1.394 . S
C4598 H4606 0.930 . S
C4599 C4598 1.394 . S
C4599 C4600 1.383 . S
C4599 H4607 0.929 . S
C4600 C4599 1.383 . S
C4600 C4601 1.377 . S
C4601 H4585 0.930 . S
C4601 C4600 1.377 . S
C4601 C4602 1.379 . S
C4602 H4586 0.931 . S
C4602 C4596 1.383 . S
C4602 C4601 1.379 . S
H4603 C4597 0.959 . S
H4604 C4597 0.961 . S
H4605 C4597 0.960 . S
H4606 C4598 0.930 . S
H4607 C4599 0.929 . S
H4608 C4616 0.929 . S
H4609 C4618 0.930 . S
H4610 C4620 0.930 . S
H4611 C4623 0.929 . S
H4612 C4626 0.930 . S
H4613 C4628 0.960 . S
H4614 C4628 0.960 . S
H4615 C4628 0.960 . S
C4616 H4608 0.929 . S
C4616 C4617 1.377 . S
C4616 C4618 1.384 . S
C4617 C4616 1.377 . S
C4617 C4623 1.390 . S
C4618 H4609 0.930 . S
C4618 C4616 1.384 . S
C4618 C4619 1.372 . S
C4619 C4618 1.372 . S
C4619 C4620 1.400 . S
C4619 C4624 1.490 . S
C4620 H4610 0.930 . S
C4620 C4619 1.400 . S
C4620 C4623 1.386 . S
H4621 C4637 0.930 . S
H4622 C4638 0.931 . S
C4623 H4611 0.929 . S
C4623 C4617 1.390 . S
C4623 C4620 1.386 . S
C4624 C4619 1.490 . S
C4624 C4626 1.395 . S
C4624 C4627 1.403 . S
H4625 C4631 0.930 . S
C4626 H4612 0.930 . S
C4626 C4624 1.395 . S
C4626 C4629 1.403 . S
C4627 C4624 1.403 . S
C4627 C4628 1.524 . S
C4627 C4631 1.400 . S
C4628 H4613 0.960 . S
C4628 H4614 0.960 . S
C4628 H4615 0.960 . S
C4628 C4627 1.524 . S
C4629 C4626 1.403 . S
C4629 C4630 1.392 . S
C4629 C4633 1.495 . S
C4630 C4629 1.392 . S
C4630 C4631 1.385 . S
C4630 C4632 1.478 . S
C4631 H4625 0.930 . S
C4631 C4627 1.400 . S
C4631 C4630 1.385 . S
C4632 C4630 1.478 . S
C4632 C4634 1.381 . S
C4632 C4638 1.383 . S
C4633 C4629 1.495 . S
C4633 H4639 0.959 . S
C4633 H4640 0.961 . S
C4633 H4641 0.960 . S
C4634 C4632 1.381 . S
C4634 C4635 1.394 . S
C4634 H4642 0.930 . S
C4635 C4634 1.394 . S
C4635 C4636 1.383 . S
C4635 H4643 0.929 . S
C4636 C4635 1.383 . S
C4636 C4637 1.377 . S
C4637 H4621 0.930 . S
C4637 C4636 1.377 . S
C4637 C4638 1.379 . S
C4638 H4622 0.931 . S
C4638 C4632 1.383 . S
C4638 C4637 1.379 . S
H4639 C4633 0.959 . S
H4640 C4633 0.961 . S
H4641 C4633 0.960 . S
H4642 C4634 0.930 . S
H4643 C4635 0.929 . S
H4644 C4652 0.929 . S
H4645 C4654 0.930 . S
H4646 C4656 0.930 . S
H4647 C4659 0.929 . S
H4648 C4662 0.930 . S
H4649 C4664 0.960 . S
H4650 C4664 0.960 . S
H4651 C4664 0.960 . S
C4652 H4644 0.929 . S
C4652 C4653 1.377 . S
C4652 C4654 1.384 . S
C4653 C4652 1.377 . S
C4653 C4659 1.390 . S
C4654 H4645 0.930 . S
C4654 C4652 1.384 . S
C4654 C4655 1.372 . S
C4655 C4654 1.372 . S
C4655 C4656 1.400 . S
C4655 C4660 1.490 . S
C4656 H4646 0.930 . S
C4656 C4655 1.400 . S
C4656 C4659 1.386 . S
H4657 C4673 0.930 . S
H4658 C4674 0.931 . S
C4659 H4647 0.929 . S
C4659 C4653 1.390 . S
C4659 C4656 1.386 . S
C4660 C4655 1.490 . S
C4660 C4662 1.395 . S
C4660 C4663 1.403 . S
H4661 C4667 0.930 . S
C4662 H4648 0.930 . S
C4662 C4660 1.395 . S
C4662 C4665 1.403 . S
C4663 C4660 1.403 . S
C4663 C4664 1.524 . S
C4663 C4667 1.400 . S
C4664 H4649 0.960 . S
C4664 H4650 0.960 . S
C4664 H4651 0.960 . S
C4664 C4663 1.524 . S
C4665 C4662 1.403 . S
C4665 C4666 1.392 . S
C4665 C4669 1.495 . S
C4666 C4665 1.392 . S
C4666 C4667 1.385 . S
C4666 C4668 1.478 . S
C4667 H4661 0.930 . S
C4667 C4663 1.400 . S
C4667 C4666 1.385 . S
C4668 C4666 1.478 . S
C4668 C4670 1.381 . S
C4668 C4674 1.383 . S
C4669 C4665 1.495 . S
C4669 H4675 0.959 . S
C4669 H4676 0.961 . S
C4669 H4677 0.960 . S
C4670 C4668 1.381 . S
C4670 C4671 1.394 . S
C4670 H4678 0.930 . S
C4671 C4670 1.394 . S
C4671 C4672 1.383 . S
C4671 H4679 0.929 . S
C4672 C4671 1.383 . S
C4672 C4673 1.377 . S
C4673 H4657 0.930 . S
C4673 C4672 1.377 . S
C4673 C4674 1.379 . S
C4674 H4658 0.931 . S
C4674 C4668 1.383 . S
C4674 C4673 1.379 . S
H4675 C4669 0.959 . S
H4676 C4669 0.961 . S
H4677 C4669 0.960 . S
H4678 C4670 0.930 . S
H4679 C4671 0.929 . S
H4680 C4688 0.929 . S
H4681 C4690 0.930 . S
H4682 C4692 0.930 . S
H4683 C4695 0.929 . S
H4684 C4698 0.930 . S
H4685 C4700 0.960 . S
H4686 C4700 0.960 . S
H4687 C4700 0.960 . S
C4688 H4680 0.929 . S
C4688 C4689 1.377 . S
C4688 C4690 1.384 . S
C4689 C4688 1.377 . S
C4689 C4695 1.390 . S
C4690 H4681 0.930 . S
C4690 C4688 1.384 . S
C4690 C4691 1.372 . S
C4691 C4690 1.372 . S
C4691 C4692 1.400 . S
C4691 C4696 1.490 . S
C4692 H4682 0.930 . S
C4692 C4691 1.400 . S
C4692 C4695 1.386 . S
H4693 C4709 0.930 . S
H4694 C4710 0.931 . S
C4695 H4683 0.929 . S
C4695 C4689 1.390 . S
C4695 C4692 1.386 . S
C4696 C4691 1.490 . S
C4696 C4698 1.395 . S
C4696 C4699 1.403 . S
H4697 C4703 0.930 . S
C4698 H4684 0.930 . S
C4698 C4696 1.395 . S
C4698 C4701 1.403 . S
C4699 C4696 1.403 . S
C4699 C4700 1.524 . S
C4699 C4703 1.400 . S
C4700 H4685 0.960 . S
C4700 H4686 0.960 . S
C4700 H4687 0.960 . S
C4700 C4699 1.524 . S
C4701 C4698 1.403 . S
C4701 C4702 1.392 . S
C4701 C4705 1.495 . S
C4702 C4701 1.392 . S
C4702 C4703 1.385 . S
C4702 C4704 1.478 . S
C4703 H4697 0.930 . S
C4703 C4699 1.400 . S
C4703 C4702 1.385 . S
C4704 C4702 1.478 . S
C4704 C4706 1.381 . S
C4704 C4710 1.383 . S
C4705 C4701 1.495 . S
C4705 H4711 0.959 . S
C4705 H4712 0.961 . S
C4705 H4713 0.960 . S
C4706 C4704 1.381 . S
C4706 C4707 1.394 . S
C4706 H4714 0.930 . S
C4707 C4706 1.394 . S
C4707 C4708 1.383 . S
C4707 H4715 0.929 . S
C4708 C4707 1.383 . S
C4708 C4709 1.377 . S
C4709 H4693 0.930 . S
C4709 C4708 1.377 . S
C4709 C4710 1.379 . S
C4710 H4694 0.931 . S
C4710 C4704 1.383 . S
C4710 C4709 1.379 . S
H4711 C4705 0.959 . S
H4712 C4705 0.961 . S
H4713 C4705 0.960 . S
H4714 C4706 0.930 . S
H4715 C4707 0.929 . S
H4716 C4724 0.929 . S
H4717 C4726 0.930 . S
H4718 C4728 0.930 . S
H4719 C4731 0.929 . S
H4720 C4734 0.930 . S
H4721 C4736 0.960 . S
H4722 C4736 0.960 . S
H4723 C4736 0.960 . S
C4724 H4716 0.929 . S
C4724 C4725 1.377 . S
C4724 C4726 1.384 . S
C4725 C4724 1.377 . S
C4725 C4731 1.390 . S
C4726 H4717 0.930 . S
C4726 C4724 1.384 . S
C4726 C4727 1.372 . S
C4727 C4726 1.372 . S
C4727 C4728 1.400 . S
C4727 C4732 1.490 . S
C4728 H4718 0.930 . S
C4728 C4727 1.400 . S
C4728 C4731 1.386 . S
H4729 C4745 0.930 . S
H4730 C4746 0.931 . S
C4731 H4719 0.929 . S
C4731 C4725 1.390 . S
C4731 C4728 1.386 . S
C4732 C4727 1.490 . S
C4732 C4734 1.395 . S
C4732 C4735 1.403 . S
H4733 C4739 0.930 . S
C4734 H4720 0.930 . S
C4734 C4732 1.395 . S
C4734 C4737 1.403 . S
C4735 C4732 1.403 . S
C4735 C4736 1.524 . S
C4735 C4739 1.400 . S
C4736 H4721 0.960 . S
C4736 H4722 0.960 . S
C4736 H4723 0.960 . S
C4736 C4735 1.524 . S
C4737 C4734 1.403 . S
C4737 C4738 1.392 . S
C4737 C4741 1.495 . S
C4738 C4737 1.392 . S
C4738 C4739 1.385 . S
C4738 C4740 1.478 . S
C4739 H4733 0.930 . S
C4739 C4735 1.400 . S
C4739 C4738 1.385 . S
C4740 C4738 1.478 . S
C4740 C4742 1.381 . S
C4740 C4746 1.383 . S
C4741 C4737 1.495 . S
C4741 H4747 0.959 . S
C4741 H4748 0.961 . S
C4741 H4749 0.960 . S
C4742 C4740 1.381 . S
C4742 C4743 1.394 . S
C4742 H4750 0.930 . S
C4743 C4742 1.394 . S
C4743 C4744 1.383 . S
C4743 H4751 0.929 . S
C4744 C4743 1.383 . S
C4744 C4745 1.377 . S
C4745 H4729 0.930 . S
C4745 C4744 1.377 . S
C4745 C4746 1.379 . S
C4746 H4730 0.931 . S
C4746 C4740 1.383 . S
C4746 C4745 1.379 . S
H4747 C4741 0.959 . S
H4748 C4741 0.961 . S
H4749 C4741 0.960 . S
H4750 C4742 0.930 . S
H4751 C4743 0.929 . S
H4752 C4760 0.929 . S
H4753 C4762 0.930 . S
H4754 C4764 0.930 . S
H4755 C4767 0.929 . S
H4756 C4770 0.930 . S
H4757 C4772 0.960 . S
H4758 C4772 0.960 . S
H4759 C4772 0.960 . S
C4760 H4752 0.929 . S
C4760 C4761 1.377 . S
C4760 C4762 1.384 . S
C4761 C4760 1.377 . S
C4761 C4767 1.390 . S
C4762 H4753 0.930 . S
C4762 C4760 1.384 . S
C4762 C4763 1.372 . S
C4763 C4762 1.372 . S
C4763 C4764 1.400 . S
C4763 C4768 1.490 . S
C4764 H4754 0.930 . S
C4764 C4763 1.400 . S
C4764 C4767 1.386 . S
H4765 C4781 0.930 . S
H4766 C4782 0.931 . S
C4767 H4755 0.929 . S
C4767 C4761 1.390 . S
C4767 C4764 1.386 . S
C4768 C4763 1.490 . S
C4768 C4770 1.395 . S
C4768 C4771 1.403 . S
H4769 C4775 0.930 . S
C4770 H4756 0.930 . S
C4770 C4768 1.395 . S
C4770 C4773 1.403 . S
C4771 C4768 1.403 . S
C4771 C4772 1.524 . S
C4771 C4775 1.400 . S
C4772 H4757 0.960 . S
C4772 H4758 0.960 . S
C4772 H4759 0.960 . S
C4772 C4771 1.524 . S
C4773 C4770 1.403 . S
C4773 C4774 1.392 . S
C4773 C4777 1.495 . S
C4774 C4773 1.392 . S
C4774 C4775 1.385 . S
C4774 C4776 1.478 . S
C4775 H4769 0.930 . S
C4775 C4771 1.400 . S
C4775 C4774 1.385 . S
C4776 C4774 1.478 . S
C4776 C4778 1.381 . S
C4776 C4782 1.383 . S
C4777 C4773 1.495 . S
C4777 H4783 0.959 . S
C4777 H4784 0.961 . S
C4777 H4785 0.960 . S
C4778 C4776 1.381 . S
C4778 C4779 1.394 . S
C4778 H4786 0.930 . S
C4779 C4778 1.394 . S
C4779 C4780 1.383 . S
C4779 H4787 0.929 . S
C4780 C4779 1.383 . S
C4780 C4781 1.377 . S
C4781 H4765 0.930 . S
C4781 C4780 1.377 . S
C4781 C4782 1.379 . S
C4782 H4766 0.931 . S
C4782 C4776 1.383 . S
C4782 C4781 1.379 . S
H4783 C4777 0.959 . S
H4784 C4777 0.961 . S
H4785 C4777 0.960 . S
H4786 C4778 0.930 . S
H4787 C4779 0.929 . S
H4788 C4796 0.929 . S
H4789 C4798 0.930 . S
H4790 C4800 0.930 . S
H4791 C4803 0.929 . S
H4792 C4806 0.930 . S
H4793 C4808 0.960 . S
H4794 C4808 0.960 . S
H4795 C4808 0.960 . S
C4796 H4788 0.929 . S
C4796 C4797 1.377 . S
C4796 C4798 1.384 . S
C4797 C4796 1.377 . S
C4797 C4803 1.390 . S
C4798 H4789 0.930 . S
C4798 C4796 1.384 . S
C4798 C4799 1.372 . S
C4799 C4798 1.372 . S
C4799 C4800 1.400 . S
C4799 C4804 1.490 . S
C4800 H4790 0.930 . S
C4800 C4799 1.400 . S
C4800 C4803 1.386 . S
H4801 C4817 0.930 . S
H4802 C4818 0.931 . S
C4803 H4791 0.929 . S
C4803 C4797 1.390 . S
C4803 C4800 1.386 . S
C4804 C4799 1.490 . S
C4804 C4806 1.395 . S
C4804 C4807 1.403 . S
H4805 C4811 0.930 . S
C4806 H4792 0.930 . S
C4806 C4804 1.395 . S
C4806 C4809 1.403 . S
C4807 C4804 1.403 . S
C4807 C4808 1.524 . S
C4807 C4811 1.400 . S
C4808 H4793 0.960 . S
C4808 H4794 0.960 . S
C4808 H4795 0.960 . S
C4808 C4807 1.524 . S
C4809 C4806 1.403 . S
C4809 C4810 1.392 . S
C4809 C4813 1.495 . S
C4810 C4809 1.392 . S
C4810 C4811 1.385 . S
C4810 C4812 1.478 . S
C4811 H4805 0.930 . S
C4811 C4807 1.400 . S
C4811 C4810 1.385 . S
C4812 C4810 1.478 . S
C4812 C4814 1.381 . S
C4812 C4818 1.383 . S
C4813 C4809 1.495 . S
C4813 H4819 0.959 . S
C4813 H4820 0.961 . S
C4813 H4821 0.960 . S
C4814 C4812 1.381 . S
C4814 C4815 1.394 . S
C4814 H4822 0.930 . S
C4815 C4814 1.394 . S
C4815 C4816 1.383 . S
C4815 H4823 0.929 . S
C4816 C4815 1.383 . S
C4816 C4817 1.377 . S
C4817 H4801 0.930 . S
C4817 C4816 1.377 . S
C4817 C4818 1.379 . S
C4818 H4802 0.931 . S
C4818 C4812 1.383 . S
C4818 C4817 1.379 . S
H4819 C4813 0.959 . S
H4820 C4813 0.961 . S
H4821 C4813 0.960 . S
H4822 C4814 0.930 . S
H4823 C4815 0.929 . S
H4824 C4832 0.929 . S
H4825 C4834 0.930 . S
H4826 C4836 0.930 . S
H4827 C4839 0.929 . S
H4828 C4842 0.930 . S
H4829 C4844 0.960 . S
H4830 C4844 0.960 . S
H4831 C4844 0.960 . S
C4832 H4824 0.929 . S
C4832 C4833 1.377 . S
C4832 C4834 1.384 . S
C4833 C4832 1.377 . S
C4833 C4839 1.390 . S
C4834 H4825 0.930 . S
C4834 C4832 1.384 . S
C4834 C4835 1.372 . S
C4835 C4834 1.372 . S
C4835 C4836 1.400 . S
C4835 C4840 1.490 . S
C4836 H4826 0.930 . S
C4836 C4835 1.400 . S
C4836 C4839 1.386 . S
H4837 C4853 0.930 . S
H4838 C4854 0.931 . S
C4839 H4827 0.929 . S
C4839 C4833 1.390 . S
C4839 C4836 1.386 . S
C4840 C4835 1.490 . S
C4840 C4842 1.395 . S
C4840 C4843 1.403 . S
H4841 C4847 0.930 . S
C4842 H4828 0.930 . S
C4842 C4840 1.395 . S
C4842 C4845 1.403 . S
C4843 C4840 1.403 . S
C4843 C4844 1.524 . S
C4843 C4847 1.400 . S
C4844 H4829 0.960 . S
C4844 H4830 0.960 . S
C4844 H4831 0.960 . S
C4844 C4843 1.524 . S
C4845 C4842 1.403 . S
C4845 C4846 1.392 . S
C4845 C4849 1.495 . S
C4846 C4845 1.392 . S
C4846 C4847 1.385 . S
C4846 C4848 1.478 . S
C4847 H4841 0.930 . S
C4847 C4843 1.400 . S
C4847 C4846 1.385 . S
C4848 C4846 1.478 . S
C4848 C4850 1.381 . S
C4848 C4854 1.383 . S
C4849 C4845 1.495 . S
C4849 H4855 0.959 . S
C4849 H4856 0.961 . S
C4849 H4857 0.960 . S
C4850 C4848 1.381 . S
C4850 C4851 1.394 . S
C4850 H4858 0.930 . S
C4851 C4850 1.394 . S
C4851 C4852 1.383 . S
C4851 H4859 0.929 . S
C4852 C4851 1.383 . S
C4852 C4853 1.377 . S
C4853 H4837 0.930 . S
C4853 C4852 1.377 . S
C4853 C4854 1.379 . S
C4854 H4838 0.931 . S
C4854 C4848 1.383 . S
C4854 C4853 1.379 . S
H4855 C4849 0.959 . S
H4856 C4849 0.961 . S
H4857 C4849 0.960 . S
H4858 C4850 0.930 . S
H4859 C4851 0.929 . S
H4860 C4868 0.929 . S
H4861 C4870 0.930 . S
H4862 C4872 0.930 . S
H4863 C4875 0.929 . S
H4864 C4878 0.930 . S
H4865 C4880 0.960 . S
H4866 C4880 0.960 . S
H4867 C4880 0.960 . S
C4868 H4860 0.929 . S
C4868 C4869 1.377 . S
C4868 C4870 1.384 . S
C4869 C4868 1.377 . S
C4869 C4875 1.390 . S
C4870 H4861 0.930 . S
C4870 C4868 1.384 . S
C4870 C4871 1.372 . S
C4871 C4870 1.372 . S
C4871 C4872 1.400 . S
C4871 C4876 1.490 . S
C4872 H4862 0.930 . S
C4872 C4871 1.400 . S
C4872 C4875 1.386 . S
H4873 C4889 0.930 . S
H4874 C4890 0.931 . S
C4875 H4863 0.929 . S
C4875 C4869 1.390 . S
C4875 C4872 1.386 . S
C4876 C4871 1.490 . S
C4876 C4878 1.395 . S
C4876 C4879 1.403 . S
H4877 C4883 0.930 . S
C4878 H4864 0.930 . S
C4878 C4876 1.395 . S
C4878 C4881 1.403 . S
C4879 C4876 1.403 . S
C4879 C4880 1.524 . S
C4879 C4883 1.400 . S
C4880 H4865 0.960 . S
C4880 H4866 0.960 . S
C4880 H4867 0.960 . S
C4880 C4879 1.524 . S
C4881 C4878 1.403 . S
C4881 C4882 1.392 . S
C4881 C4885 1.495 . S
C4882 C4881 1.392 . S
C4882 C4883 1.385 . S
C4882 C4884 1.478 . S
C4883 H4877 0.930 . S
C4883 C4879 1.400 . S
C4883 C4882 1.385 . S
C4884 C4882 1.478 . S
C4884 C4886 1.381 . S
C4884 C4890 1.383 . S
C4885 C4881 1.495 . S
C4885 H4891 0.959 . S
C4885 H4892 0.961 . S
C4885 H4893 0.960 . S
C4886 C4884 1.381 . S
C4886 C4887 1.394 . S
C4886 H4894 0.930 . S
C4887 C4886 1.394 . S
C4887 C4888 1.383 . S
C4887 H4895 0.929 . S
C4888 C4887 1.383 . S
C4888 C4889 1.377 . S
C4889 H4873 0.930 . S
C4889 C4888 1.377 . S
C4889 C4890 1.379 . S
C4890 H4874 0.931 . S
C4890 C4884 1.383 . S
C4890 C4889 1.379 . S
H4891 C4885 0.959 . S
H4892 C4885 0.961 . S
H4893 C4885 0.960 . S
H4894 C4886 0.930 . S
H4895 C4887 0.929 . S
H4896 C4904 0.929 . S
H4897 C4906 0.930 . S
H4898 C4908 0.930 . S
H4899 C4911 0.929 . S
H4900 C4914 0.930 . S
H4901 C4916 0.960 . S
H4902 C4916 0.960 . S
H4903 C4916 0.960 . S
C4904 H4896 0.929 . S
C4904 C4905 1.377 . S
C4904 C4906 1.384 . S
C4905 C4904 1.377 . S
C4905 C4911 1.390 . S
C4906 H4897 0.930 . S
C4906 C4904 1.384 . S
C4906 C4907 1.372 . S
C4907 C4906 1.372 . S
C4907 C4908 1.400 . S
C4907 C4912 1.490 . S
C4908 H4898 0.930 . S
C4908 C4907 1.400 . S
C4908 C4911 1.386 . S
H4909 C4925 0.930 . S
H4910 C4926 0.931 . S
C4911 H4899 0.929 . S
C4911 C4905 1.390 . S
C4911 C4908 1.386 . S
C4912 C4907 1.490 . S
C4912 C4914 1.395 . S
C4912 C4915 1.403 . S
H4913 C4919 0.930 . S
C4914 H4900 0.930 . S
C4914 C4912 1.395 . S
C4914 C4917 1.403 . S
C4915 C4912 1.403 . S
C4915 C4916 1.524 . S
C4915 C4919 1.400 . S
C4916 H4901 0.960 . S
C4916 H4902 0.960 . S
C4916 H4903 0.960 . S
C4916 C4915 1.524 . S
C4917 C4914 1.403 . S
C4917 C4918 1.392 . S
C4917 C4921 1.495 . S
C4918 C4917 1.392 . S
C4918 C4919 1.385 . S
C4918 C4920 1.478 . S
C4919 H4913 0.930 . S
C4919 C4915 1.400 . S
C4919 C4918 1.385 . S
C4920 C4918 1.478 . S
C4920 C4922 1.381 . S
C4920 C4926 1.383 . S
C4921 C4917 1.495 . S
C4921 H4927 0.959 . S
C4921 H4928 0.961 . S
C4921 H4929 0.960 . S
C4922 C4920 1.381 . S
C4922 C4923 1.394 . S
C4922 H4930 0.930 . S
C4923 C4922 1.394 . S
C4923 C4924 1.383 . S
C4923 H4931 0.929 . S
C4924 C4923 1.383 . S
C4924 C4925 1.377 . S
C4925 H4909 0.930 . S
C4925 C4924 1.377 . S
C4925 C4926 1.379 . S
C4926 H4910 0.931 . S
C4926 C4920 1.383 . S
C4926 C4925 1.379 . S
H4927 C4921 0.959 . S
H4928 C4921 0.961 . S
H4929 C4921 0.960 . S
H4930 C4922 0.930 . S
H4931 C4923 0.929 . S
H4932 C4940 0.929 . S
H4933 C4942 0.930 . S
H4934 C4944 0.930 . S
H4935 C4947 0.929 . S
H4936 C4950 0.930 . S
H4937 C4952 0.960 . S
H4938 C4952 0.960 . S
H4939 C4952 0.960 . S
C4940 H4932 0.929 . S
C4940 C4941 1.377 . S
C4940 C4942 1.384 . S
C4941 C4940 1.377 . S
C4941 C4947 1.390 . S
C4942 H4933 0.930 . S
C4942 C4940 1.384 . S
C4942 C4943 1.372 . S
C4943 C4942 1.372 . S
C4943 C4944 1.400 . S
C4943 C4948 1.490 . S
C4944 H4934 0.930 . S
C4944 C4943 1.400 . S
C4944 C4947 1.386 . S
H4945 C4961 0.930 . S
H4946 C4962 0.931 . S
C4947 H4935 0.929 . S
C4947 C4941 1.390 . S
C4947 C4944 1.386 . S
C4948 C4943 1.490 . S
C4948 C4950 1.395 . S
C4948 C4951 1.403 . S
H4949 C4955 0.930 . S
C4950 H4936 0.930 . S
C4950 C4948 1.395 . S
C4950 C4953 1.403 . S
C4951 C4948 1.403 . S
C4951 C4952 1.524 . S
C4951 C4955 1.400 . S
C4952 H4937 0.960 . S
C4952 H4938 0.960 . S
C4952 H4939 0.960 . S
C4952 C4951 1.524 . S
C4953 C4950 1.403 . S
C4953 C4954 1.392 . S
C4953 C4957 1.495 . S
C4954 C4953 1.392 . S
C4954 C4955 1.385 . S
C4954 C4956 1.478 . S
C4955 H4949 0.930 . S
C4955 C4951 1.400 . S
C4955 C4954 1.385 . S
C4956 C4954 1.478 . S
C4956 C4958 1.381 . S
C4956 C4962 1.383 . S
C4957 C4953 1.495 . S
C4957 H4963 0.959 . S
C4957 H4964 0.961 . S
C4957 H4965 0.960 . S
C4958 C4956 1.381 . S
C4958 C4959 1.394 . S
C4958 H4966 0.930 . S
C4959 C4958 1.394 . S
C4959 C4960 1.383 . S
C4959 H4967 0.929 . S
C4960 C4959 1.383 . S
C4960 C4961 1.377 . S
C4961 H4945 0.930 . S
C4961 C4960 1.377 . S
C4961 C4962 1.379 . S
C4962 H4946 0.931 . S
C4962 C4956 1.383 . S
C4962 C4961 1.379 . S
H4963 C4957 0.959 . S
H4964 C4957 0.961 . S
H4965 C4957 0.960 . S
H4966 C4958 0.930 . S
H4967 C4959 0.929 . S
H4968 C4976 0.929 . S
H4969 C4978 0.930 . S
H4970 C4980 0.930 . S
H4971 C4983 0.929 . S
H4972 C4986 0.930 . S
H4973 C4988 0.960 . S
H4974 C4988 0.960 . S
H4975 C4988 0.960 . S
C4976 H4968 0.929 . S
C4976 C4977 1.377 . S
C4976 C4978 1.384 . S
C4977 C4976 1.377 . S
C4977 C4983 1.390 . S
C4978 H4969 0.930 . S
C4978 C4976 1.384 . S
C4978 C4979 1.372 . S
C4979 C4978 1.372 . S
C4979 C4980 1.400 . S
C4979 C4984 1.490 . S
C4980 H4970 0.930 . S
C4980 C4979 1.400 . S
C4980 C4983 1.386 . S
H4981 C4997 0.930 . S
H4982 C4998 0.931 . S
C4983 H4971 0.929 . S
C4983 C4977 1.390 . S
C4983 C4980 1.386 . S
C4984 C4979 1.490 . S
C4984 C4986 1.395 . S
C4984 C4987 1.403 . S
H4985 C4991 0.930 . S
C4986 H4972 0.930 . S
C4986 C4984 1.395 . S
C4986 C4989 1.403 . S
C4987 C4984 1.403 . S
C4987 C4988 1.524 . S
C4987 C4991 1.400 . S
C4988 H4973 0.960 . S
C4988 H4974 0.960 . S
C4988 H4975 0.960 . S
C4988 C4987 1.524 . S
C4989 C4986 1.403 . S
C4989 C4990 1.392 . S
C4989 C4993 1.495 . S
C4990 C4989 1.392 . S
C4990 C4991 1.385 . S
C4990 C4992 1.478 . S
C4991 H4985 0.930 . S
C4991 C4987 1.400 . S
C4991 C4990 1.385 . S
C4992 C4990 1.478 . S
C4992 C4994 1.381 . S
C4992 C4998 1.383 . S
C4993 C4989 1.495 . S
C4993 H4999 0.959 . S
C4993 H5000 0.961 . S
C4993 H5001 0.960 . S
C4994 C4992 1.381 . S
C4994 C4995 1.394 . S
C4994 H5002 0.930 . S
C4995 C4994 1.394 . S
C4995 C4996 1.383 . S
C4995 H5003 0.929 . S
C4996 C4995 1.383 . S
C4996 C4997 1.377 . S
C4997 H4981 0.930 . S
C4997 C4996 1.377 . S
C4997 C4998 1.379 . S
C4998 H4982 0.931 . S
C4998 C4992 1.383 . S
C4998 C4997 1.379 . S
H4999 C4993 0.959 . S
H5000 C4993 0.961 . S
H5001 C4993 0.960 . S
H5002 C4994 0.930 . S
H5003 C4995 0.929 . S
H5004 C5012 0.929 . S
H5005 C5014 0.930 . S
H5006 C5016 0.930 . S
H5007 C5019 0.929 . S
H5008 C5022 0.930 . S
H5009 C5024 0.960 . S
H5010 C5024 0.960 . S
H5011 C5024 0.960 . S
C5012 H5004 0.929 . S
C5012 C5013 1.377 . S
C5012 C5014 1.384 . S
C5013 C5012 1.377 . S
C5013 C5019 1.390 . S
C5014 H5005 0.930 . S
C5014 C5012 1.384 . S
C5014 C5015 1.372 . S
C5015 C5014 1.372 . S
C5015 C5016 1.400 . S
C5015 C5020 1.490 . S
C5016 H5006 0.930 . S
C5016 C5015 1.400 . S
C5016 C5019 1.386 . S
H5017 C5033 0.930 . S
H5018 C5034 0.931 . S
C5019 H5007 0.929 . S
C5019 C5013 1.390 . S
C5019 C5016 1.386 . S
C5020 C5015 1.490 . S
C5020 C5022 1.395 . S
C5020 C5023 1.403 . S
H5021 C5027 0.930 . S
C5022 H5008 0.930 . S
C5022 C5020 1.395 . S
C5022 C5025 1.403 . S
C5023 C5020 1.403 . S
C5023 C5024 1.524 . S
C5023 C5027 1.400 . S
C5024 H5009 0.960 . S
C5024 H5010 0.960 . S
C5024 H5011 0.960 . S
C5024 C5023 1.524 . S
C5025 C5022 1.403 . S
C5025 C5026 1.392 . S
C5025 C5029 1.495 . S
C5026 C5025 1.392 . S
C5026 C5027 1.385 . S
C5026 C5028 1.478 . S
C5027 H5021 0.930 . S
C5027 C5023 1.400 . S
C5027 C5026 1.385 . S
C5028 C5026 1.478 . S
C5028 C5030 1.381 . S
C5028 C5034 1.383 . S
C5029 C5025 1.495 . S
C5029 H5035 0.959 . S
C5029 H5036 0.961 . S
C5029 H5037 0.960 . S
C5030 C5028 1.381 . S
C5030 C5031 1.394 . S
C5030 H5038 0.930 . S
C5031 C5030 1.394 . S
C5031 C5032 1.383 . S
C5031 H5039 0.929 . S
C5032 C5031 1.383 . S
C5032 C5033 1.377 . S
C5033 H5017 0.930 . S
C5033 C5032 1.377 . S
C5033 C5034 1.379 . S
C5034 H5018 0.931 . S
C5034 C5028 1.383 . S
C5034 C5033 1.379 . S
H5035 C5029 0.959 . S
H5036 C5029 0.961 . S
H5037 C5029 0.960 . S
H5038 C5030 0.930 . S
H5039 C5031 0.929 . S
H5040 C5048 0.929 . S
H5041 C5050 0.930 . S
H5042 C5052 0.930 . S
H5043 C5055 0.929 . S
H5044 C5058 0.930 . S
H5045 C5060 0.960 . S
H5046 C5060 0.960 . S
H5047 C5060 0.960 . S
C5048 H5040 0.929 . S
C5048 C5049 1.377 . S
C5048 C5050 1.384 . S
C5049 C5048 1.377 . S
C5049 C5055 1.390 . S
C5050 H5041 0.930 . S
C5050 C5048 1.384 . S
C5050 C5051 1.372 . S
C5051 C5050 1.372 . S
C5051 C5052 1.400 . S
C5051 C5056 1.490 . S
C5052 H5042 0.930 . S
C5052 C5051 1.400 . S
C5052 C5055 1.386 . S
H5053 C5069 0.930 . S
H5054 C5070 0.931 . S
C5055 H5043 0.929 . S
C5055 C5049 1.390 . S
C5055 C5052 1.386 . S
C5056 C5051 1.490 . S
C5056 C5058 1.395 . S
C5056 C5059 1.403 . S
H5057 C5063 0.930 . S
C5058 H5044 0.930 . S
C5058 C5056 1.395 . S
C5058 C5061 1.403 . S
C5059 C5056 1.403 . S
C5059 C5060 1.524 . S
C5059 C5063 1.400 . S
C5060 H5045 0.960 . S
C5060 H5046 0.960 . S
C5060 H5047 0.960 . S
C5060 C5059 1.524 . S
C5061 C5058 1.403 . S
C5061 C5062 1.392 . S
C5061 C5065 1.495 . S
C5062 C5061 1.392 . S
C5062 C5063 1.385 . S
C5062 C5064 1.478 . S
C5063 H5057 0.930 . S
C5063 C5059 1.400 . S
C5063 C5062 1.385 . S
C5064 C5062 1.478 . S
C5064 C5066 1.381 . S
C5064 C5070 1.383 . S
C5065 C5061 1.495 . S
C5065 H5071 0.959 . S
C5065 H5072 0.961 . S
C5065 H5073 0.960 . S
C5066 C5064 1.381 . S
C5066 C5067 1.394 . S
C5066 H5074 0.930 . S
C5067 C5066 1.394 . S
C5067 C5068 1.383 . S
C5067 H5075 0.929 . S
C5068 C5067 1.383 . S
C5068 C5069 1.377 . S
C5069 H5053 0.930 . S
C5069 C5068 1.377 . S
C5069 C5070 1.379 . S
C5070 H5054 0.931 . S
C5070 C5064 1.383 . S
C5070 C5069 1.379 . S
H5071 C5065 0.959 . S
H5072 C5065 0.961 . S
H5073 C5065 0.960 . S
H5074 C5066 0.930 . S
H5075 C5067 0.929 . S
H5076 C5084 0.929 . S
H5077 C5086 0.930 . S
H5078 C5088 0.930 . S
H5079 C5091 0.929 . S
H5080 C5094 0.930 . S
H5081 C5096 0.960 . S
H5082 C5096 0.960 . S
H5083 C5096 0.960 . S
C5084 H5076 0.929 . S
C5084 C5085 1.377 . S
C5084 C5086 1.384 . S
C5085 C5084 1.377 . S
C5085 C5091 1.390 . S
C5086 H5077 0.930 . S
C5086 C5084 1.384 . S
C5086 C5087 1.372 . S
C5087 C5086 1.372 . S
C5087 C5088 1.400 . S
C5087 C5092 1.490 . S
C5088 H5078 0.930 . S
C5088 C5087 1.400 . S
C5088 C5091 1.386 . S
H5089 C5105 0.930 . S
H5090 C5106 0.931 . S
C5091 H5079 0.929 . S
C5091 C5085 1.390 . S
C5091 C5088 1.386 . S
C5092 C5087 1.490 . S
C5092 C5094 1.395 . S
C5092 C5095 1.403 . S
H5093 C5099 0.930 . S
C5094 H5080 0.930 . S
C5094 C5092 1.395 . S
C5094 C5097 1.403 . S
C5095 C5092 1.403 . S
C5095 C5096 1.524 . S
C5095 C5099 1.400 . S
C5096 H5081 0.960 . S
C5096 H5082 0.960 . S
C5096 H5083 0.960 . S
C5096 C5095 1.524 . S
C5097 C5094 1.403 . S
C5097 C5098 1.392 . S
C5097 C5101 1.495 . S
C5098 C5097 1.392 . S
C5098 C5099 1.385 . S
C5098 C5100 1.478 . S
C5099 H5093 0.930 . S
C5099 C5095 1.400 . S
C5099 C5098 1.385 . S
C5100 C5098 1.478 . S
C5100 C5102 1.381 . S
C5100 C5106 1.383 . S
C5101 C5097 1.495 . S
C5101 H5107 0.959 . S
C5101 H5108 0.961 . S
C5101 H5109 0.960 . S
C5102 C5100 1.381 . S
C5102 C5103 1.394 . S
C5102 H5110 0.930 . S
C5103 C5102 1.394 . S
C5103 C5104 1.383 . S
C5103 H5111 0.929 . S
C5104 C5103 1.383 . S
C5104 C5105 1.377 . S
C5105 H5089 0.930 . S
C5105 C5104 1.377 . S
C5105 C5106 1.379 . S
C5106 H5090 0.931 . S
C5106 C5100 1.383 . S
C5106 C5105 1.379 . S
H5107 C5101 0.959 . S
H5108 C5101 0.961 . S
H5109 C5101 0.960 . S
H5110 C5102 0.930 . S
H5111 C5103 0.929 . S
H5112 C5120 0.929 . S
H5113 C5122 0.930 . S
H5114 C5124 0.930 . S
H5115 C5127 0.929 . S
H5116 C5130 0.930 . S
H5117 C5132 0.960 . S
H5118 C5132 0.960 . S
H5119 C5132 0.960 . S
C5120 H5112 0.929 . S
C5120 C5121 1.377 . S
C5120 C5122 1.384 . S
C5121 C5120 1.377 . S
C5121 C5127 1.390 . S
C5122 H5113 0.930 . S
C5122 C5120 1.384 . S
C5122 C5123 1.372 . S
C5123 C5122 1.372 . S
C5123 C5124 1.400 . S
C5123 C5128 1.490 . S
C5124 H5114 0.930 . S
C5124 C5123 1.400 . S
C5124 C5127 1.386 . S
H5125 C5141 0.930 . S
H5126 C5142 0.931 . S
C5127 H5115 0.929 . S
C5127 C5121 1.390 . S
C5127 C5124 1.386 . S
C5128 C5123 1.490 . S
C5128 C5130 1.395 . S
C5128 C5131 1.403 . S
H5129 C5135 0.930 . S
C5130 H5116 0.930 . S
C5130 C5128 1.395 . S
C5130 C5133 1.403 . S
C5131 C5128 1.403 . S
C5131 C5132 1.524 . S
C5131 C5135 1.400 . S
C5132 H5117 0.960 . S
C5132 H5118 0.960 . S
C5132 H5119 0.960 . S
C5132 C5131 1.524 . S
C5133 C5130 1.403 . S
C5133 C5134 1.392 . S
C5133 C5137 1.495 . S
C5134 C5133 1.392 . S
C5134 C5135 1.385 . S
C5134 C5136 1.478 . S
C5135 H5129 0.930 . S
C5135 C5131 1.400 . S
C5135 C5134 1.385 . S
C5136 C5134 1.478 . S
C5136 C5138 1.381 . S
C5136 C5142 1.383 . S
C5137 C5133 1.495 . S
C5137 H5143 0.959 . S
C5137 H5144 0.961 . S
C5137 H5145 0.960 . S
C5138 C5136 1.381 . S
C5138 C5139 1.394 . S
C5138 H5146 0.930 . S
C5139 C5138 1.394 . S
C5139 C5140 1.383 . S
C5139 H5147 0.929 . S
C5140 C5139 1.383 . S
C5140 C5141 1.377 . S
C5141 H5125 0.930 . S
C5141 C5140 1.377 . S
C5141 C5142 1.379 . S
C5142 H5126 0.931 . S
C5142 C5136 1.383 . S
C5142 C5141 1.379 . S
H5143 C5137 0.959 . S
H5144 C5137 0.961 . S
H5145 C5137 0.960 . S
H5146 C5138 0.930 . S
H5147 C5139 0.929 . S
H5148 C5156 0.929 . S
H5149 C5158 0.930 . S
H5150 C5160 0.930 . S
H5151 C5163 0.929 . S
H5152 C5166 0.930 . S
H5153 C5168 0.960 . S
H5154 C5168 0.960 . S
H5155 C5168 0.960 . S
C5156 H5148 0.929 . S
C5156 C5157 1.377 . S
C5156 C5158 1.384 . S
C5157 C5156 1.377 . S
C5157 C5163 1.390 . S
C5158 H5149 0.930 . S
C5158 C5156 1.384 . S
C5158 C5159 1.372 . S
C5159 C5158 1.372 . S
C5159 C5160 1.400 . S
C5159 C5164 1.490 . S
C5160 H5150 0.930 . S
C5160 C5159 1.400 . S
C5160 C5163 1.386 . S
H5161 C5177 0.930 . S
H5162 C5178 0.931 . S
C5163 H5151 0.929 . S
C5163 C5157 1.390 . S
C5163 C5160 1.386 . S
C5164 C5159 1.490 . S
C5164 C5166 1.395 . S
C5164 C5167 1.403 . S
H5165 C5171 0.930 . S
C5166 H5152 0.930 . S
C5166 C5164 1.395 . S
C5166 C5169 1.403 . S
C5167 C5164 1.403 . S
C5167 C5168 1.524 . S
C5167 C5171 1.400 . S
C5168 H5153 0.960 . S
C5168 H5154 0.960 . S
C5168 H5155 0.960 . S
C5168 C5167 1.524 . S
C5169 C5166 1.403 . S
C5169 C5170 1.392 . S
C5169 C5173 1.495 . S
C5170 C5169 1.392 . S
C5170 C5171 1.385 . S
C5170 C5172 1.478 . S
C5171 H5165 0.930 . S
C5171 C5167 1.400 . S
C5171 C5170 1.385 . S
C5172 C5170 1.478 . S
C5172 C5174 1.381 . S
C5172 C5178 1.383 . S
C5173 C5169 1.495 . S
C5173 H5179 0.959 . S
C5173 H5180 0.961 . S
C5173 H5181 0.960 . S
C5174 C5172 1.381 . S
C5174 C5175 1.394 . S
C5174 H5182 0.930 . S
C5175 C5174 1.394 . S
C5175 C5176 1.383 . S
C5175 H5183 0.929 . S
C5176 C5175 1.383 . S
C5176 C5177 1.377 . S
C5177 H5161 0.930 . S
C5177 C5176 1.377 . S
C5177 C5178 1.379 . S
C5178 H5162 0.931 . S
C5178 C5172 1.383 . S
C5178 C5177 1.379 . S
H5179 C5173 0.959 . S
H5180 C5173 0.961 . S
H5181 C5173 0.960 . S
H5182 C5174 0.930 . S
H5183 C5175 0.929 . S
H5184 C5192 0.929 . S
H5185 C5194 0.930 . S
H5186 C5196 0.930 . S
H5187 C5199 0.929 . S
H5188 C5202 0.930 . S
H5189 C5204 0.960 . S
H5190 C5204 0.960 . S
H5191 C5204 0.960 . S
C5192 H5184 0.929 . S
C5192 C5193 1.377 . S
C5192 C5194 1.384 . S
C5193 C5192 1.377 . S
C5193 C5199 1.390 . S
C5194 H5185 0.930 . S
C5194 C5192 1.384 . S
C5194 C5195 1.372 . S
C5195 C5194 1.372 . S
C5195 C5196 1.400 . S
C5195 C5200 1.490 . S
C5196 H5186 0.930 . S
C5196 C5195 1.400 . S
C5196 C5199 1.386 . S
H5197 C5213 0.930 . S
H5198 C5214 0.931 . S
C5199 H5187 0.929 . S
C5199 C5193 1.390 . S
C5199 C5196 1.386 . S
C5200 C5195 1.490 . S
C5200 C5202 1.395 . S
C5200 C5203 1.403 . S
H5201 C5207 0.930 . S
C5202 H5188 0.930 . S
C5202 C5200 1.395 . S
C5202 C5205 1.403 . S
C5203 C5200 1.403 . S
C5203 C5204 1.524 . S
C5203 C5207 1.400 . S
C5204 H5189 0.960 . S
C5204 H5190 0.960 . S
C5204 H5191 0.960 . S
C5204 C5203 1.524 . S
C5205 C5202 1.403 . S
C5205 C5206 1.392 . S
C5205 C5209 1.495 . S
C5206 C5205 1.392 . S
C5206 C5207 1.385 . S
C5206 C5208 1.478 . S
C5207 H5201 0.930 . S
C5207 C5203 1.400 . S
C5207 C5206 1.385 . S
C5208 C5206 1.478 . S
C5208 C5210 1.381 . S
C5208 C5214 1.383 . S
C5209 C5205 1.495 . S
C5209 H5215 0.959 . S
C5209 H5216 0.961 . S
C5209 H5217 0.960 . S
C5210 C5208 1.381 . S
C5210 C5211 1.394 . S
C5210 H5218 0.930 . S
C5211 C5210 1.394 . S
C5211 C5212 1.383 . S
C5211 H5219 0.929 . S
C5212 C5211 1.383 . S
C5212 C5213 1.377 . S
C5213 H5197 0.930 . S
C5213 C5212 1.377 . S
C5213 C5214 1.379 . S
C5214 H5198 0.931 . S
C5214 C5208 1.383 . S
C5214 C5213 1.379 . S
H5215 C5209 0.959 . S
H5216 C5209 0.961 . S
H5217 C5209 0.960 . S
H5218 C5210 0.930 . S
H5219 C5211 0.929 . S
H5220 C5228 0.929 . S
H5221 C5230 0.930 . S
H5222 C5232 0.930 . S
H5223 C5235 0.929 . S
H5224 C5238 0.930 . S
H5225 C5240 0.960 . S
H5226 C5240 0.960 . S
H5227 C5240 0.960 . S
C5228 H5220 0.929 . S
C5228 C5229 1.377 . S
C5228 C5230 1.384 . S
C5229 C5228 1.377 . S
C5229 C5235 1.390 . S
C5230 H5221 0.930 . S
C5230 C5228 1.384 . S
C5230 C5231 1.372 . S
C5231 C5230 1.372 . S
C5231 C5232 1.400 . S
C5231 C5236 1.490 . S
C5232 H5222 0.930 . S
C5232 C5231 1.400 . S
C5232 C5235 1.386 . S
H5233 C5249 0.930 . S
H5234 C5250 0.931 . S
C5235 H5223 0.929 . S
C5235 C5229 1.390 . S
C5235 C5232 1.386 . S
C5236 C5231 1.490 . S
C5236 C5238 1.395 . S
C5236 C5239 1.403 . S
H5237 C5243 0.930 . S
C5238 H5224 0.930 . S
C5238 C5236 1.395 . S
C5238 C5241 1.403 . S
C5239 C5236 1.403 . S
C5239 C5240 1.524 . S
C5239 C5243 1.400 . S
C5240 H5225 0.960 . S
C5240 H5226 0.960 . S
C5240 H5227 0.960 . S
C5240 C5239 1.524 . S
C5241 C5238 1.403 . S
C5241 C5242 1.392 . S
C5241 C5245 1.495 . S
C5242 C5241 1.392 . S
C5242 C5243 1.385 . S
C5242 C5244 1.478 . S
C5243 H5237 0.930 . S
C5243 C5239 1.400 . S
C5243 C5242 1.385 . S
C5244 C5242 1.478 . S
C5244 C5246 1.381 . S
C5244 C5250 1.383 . S
C5245 C5241 1.495 . S
C5245 H5251 0.959 . S
C5245 H5252 0.961 . S
C5245 H5253 0.960 . S
C5246 C5244 1.381 . S
C5246 C5247 1.394 . S
C5246 H5254 0.930 . S
C5247 C5246 1.394 . S
C5247 C5248 1.383 . S
C5247 H5255 0.929 . S
C5248 C5247 1.383 . S
C5248 C5249 1.377 . S
C5249 H5233 0.930 . S
C5249 C5248 1.377 . S
C5249 C5250 1.379 . S
C5250 H5234 0.931 . S
C5250 C5244 1.383 . S
C5250 C5249 1.379 . S
H5251 C5245 0.959 . S
H5252 C5245 0.961 . S
H5253 C5245 0.960 . S
H5254 C5246 0.930 . S
H5255 C5247 0.929 . S
H5256 C5264 0.929 . S
H5257 C5266 0.930 . S
H5258 C5268 0.930 . S
H5259 C5271 0.929 . S
H5260 C5274 0.930 . S
H5261 C5276 0.960 . S
H5262 C5276 0.960 . S
H5263 C5276 0.960 . S
C5264 H5256 0.929 . S
C5264 C5265 1.377 . S
C5264 C5266 1.384 . S
C5265 C5264 1.377 . S
C5265 C5271 1.390 . S
C5266 H5257 0.930 . S
C5266 C5264 1.384 . S
C5266 C5267 1.372 . S
C5267 C5266 1.372 . S
C5267 C5268 1.400 . S
C5267 C5272 1.490 . S
C5268 H5258 0.930 . S
C5268 C5267 1.400 . S
C5268 C5271 1.386 . S
H5269 C5285 0.930 . S
H5270 C5286 0.931 . S
C5271 H5259 0.929 . S
C5271 C5265 1.390 . S
C5271 C5268 1.386 . S
C5272 C5267 1.490 . S
C5272 C5274 1.395 . S
C5272 C5275 1.403 . S
H5273 C5279 0.930 . S
C5274 H5260 0.930 . S
C5274 C5272 1.395 . S
C5274 C5277 1.403 . S
C5275 C5272 1.403 . S
C5275 C5276 1.524 . S
C5275 C5279 1.400 . S
C5276 H5261 0.960 . S
C5276 H5262 0.960 . S
C5276 H5263 0.960 . S
C5276 C5275 1.524 . S
C5277 C5274 1.403 . S
C5277 C5278 1.392 . S
C5277 C5281 1.495 . S
C5278 C5277 1.392 . S
C5278 C5279 1.385 . S
C5278 C5280 1.478 . S
C5279 H5273 0.930 . S
C5279 C5275 1.400 . S
C5279 C5278 1.385 . S
C5280 C5278 1.478 . S
C5280 C5282 1.381 . S
C5280 C5286 1.383 . S
C5281 C5277 1.495 . S
C5281 H5287 0.959 . S
C5281 H5288 0.961 . S
C5281 H5289 0.960 . S
C5282 C5280 1.381 . S
C5282 C5283 1.394 . S
C5282 H5290 0.930 . S
C5283 C5282 1.394 . S
C5283 C5284 1.383 . S
C5283 H5291 0.929 . S
C5284 C5283 1.383 . S
C5284 C5285 1.377 . S
C5285 H5269 0.930 . S
C5285 C5284 1.377 . S
C5285 C5286 1.379 . S
C5286 H5270 0.931 . S
C5286 C5280 1.383 . S
C5286 C5285 1.379 . S
H5287 C5281 0.959 . S
H5288 C5281 0.961 . S
H5289 C5281 0.960 . S
H5290 C5282 0.930 . S
H5291 C5283 0.929 . S
H5292 C5300 0.929 . S
H5293 C5302 0.930 . S
H5294 C5304 0.930 . S
H5295 C5307 0.929 . S
H5296 C5310 0.930 . S
H5297 C5312 0.960 . S
H5298 C5312 0.960 . S
H5299 C5312 0.960 . S
C5300 H5292 0.929 . S
C5300 C5301 1.377 . S
C5300 C5302 1.384 . S
C5301 C5300 1.377 . S
C5301 C5307 1.390 . S
C5302 H5293 0.930 . S
C5302 C5300 1.384 . S
C5302 C5303 1.372 . S
C5303 C5302 1.372 . S
C5303 C5304 1.400 . S
C5303 C5308 1.490 . S
C5304 H5294 0.930 . S
C5304 C5303 1.400 . S
C5304 C5307 1.386 . S
H5305 C5321 0.930 . S
H5306 C5322 0.931 . S
C5307 H5295 0.929 . S
C5307 C5301 1.390 . S
C5307 C5304 1.386 . S
C5308 C5303 1.490 . S
C5308 C5310 1.395 . S
C5308 C5311 1.403 . S
H5309 C5315 0.930 . S
C5310 H5296 0.930 . S
C5310 C5308 1.395 . S
C5310 C5313 1.403 . S
C5311 C5308 1.403 . S
C5311 C5312 1.524 . S
C5311 C5315 1.400 . S
C5312 H5297 0.960 . S
C5312 H5298 0.960 . S
C5312 H5299 0.960 . S
C5312 C5311 1.524 . S
C5313 C5310 1.403 . S
C5313 C5314 1.392 . S
C5313 C5317 1.495 . S
C5314 C5313 1.392 . S
C5314 C5315 1.385 . S
C5314 C5316 1.478 . S
C5315 H5309 0.930 . S
C5315 C5311 1.400 . S
C5315 C5314 1.385 . S
C5316 C5314 1.478 . S
C5316 C5318 1.381 . S
C5316 C5322 1.383 . S
C5317 C5313 1.495 . S
C5317 H5323 0.959 . S
C5317 H5324 0.961 . S
C5317 H5325 0.960 . S
C5318 C5316 1.381 . S
C5318 C5319 1.394 . S
C5318 H5326 0.930 . S
C5319 C5318 1.394 . S
C5319 C5320 1.383 . S
C5319 H5327 0.929 . S
C5320 C5319 1.383 . S
C5320 C5321 1.377 . S
C5321 H5305 0.930 . S
C5321 C5320 1.377 . S
C5321 C5322 1.379 . S
C5322 H5306 0.931 . S
C5322 C5316 1.383 . S
C5322 C5321 1.379 . S
H5323 C5317 0.959 . S
H5324 C5317 0.961 . S
H5325 C5317 0.960 . S
H5326 C5318 0.930 . S
H5327 C5319 0.929 . S
H5328 C5336 0.929 . S
H5329 C5338 0.930 . S
H5330 C5340 0.930 . S
H5331 C5343 0.929 . S
H5332 C5346 0.930 . S
H5333 C5348 0.960 . S
H5334 C5348 0.960 . S
H5335 C5348 0.960 . S
C5336 H5328 0.929 . S
C5336 C5337 1.377 . S
C5336 C5338 1.384 . S
C5337 C5336 1.377 . S
C5337 C5343 1.390 . S
C5338 H5329 0.930 . S
C5338 C5336 1.384 . S
C5338 C5339 1.372 . S
C5339 C5338 1.372 . S
C5339 C5340 1.400 . S
C5339 C5344 1.490 . S
C5340 H5330 0.930 . S
C5340 C5339 1.400 . S
C5340 C5343 1.386 . S
H5341 C5357 0.930 . S
H5342 C5358 0.931 . S
C5343 H5331 0.929 . S
C5343 C5337 1.390 . S
C5343 C5340 1.386 . S
C5344 C5339 1.490 . S
C5344 C5346 1.395 . S
C5344 C5347 1.403 . S
H5345 C5351 0.930 . S
C5346 H5332 0.930 . S
C5346 C5344 1.395 . S
C5346 C5349 1.403 . S
C5347 C5344 1.403 . S
C5347 C5348 1.524 . S
C5347 C5351 1.400 . S
C5348 H5333 0.960 . S
C5348 H5334 0.960 . S
C5348 H5335 0.960 . S
C5348 C5347 1.524 . S
C5349 C5346 1.403 . S
C5349 C5350 1.392 . S
C5349 C5353 1.495 . S
C5350 C5349 1.392 . S
C5350 C5351 1.385 . S
C5350 C5352 1.478 . S
C5351 H5345 0.930 . S
C5351 C5347 1.400 . S
C5351 C5350 1.385 . S
C5352 C5350 1.478 . S
C5352 C5354 1.381 . S
C5352 C5358 1.383 . S
C5353 C5349 1.495 . S
C5353 H5359 0.959 . S
C5353 H5360 0.961 . S
C5353 H5361 0.960 . S
C5354 C5352 1.381 . S
C5354 C5355 1.394 . S
C5354 H5362 0.930 . S
C5355 C5354 1.394 . S
C5355 C5356 1.383 . S
C5355 H5363 0.929 . S
C5356 C5355 1.383 . S
C5356 C5357 1.377 . S
C5357 H5341 0.930 . S
C5357 C5356 1.377 . S
C5357 C5358 1.379 . S
C5358 H5342 0.931 . S
C5358 C5352 1.383 . S
C5358 C5357 1.379 . S
H5359 C5353 0.959 . S
H5360 C5353 0.961 . S
H5361 C5353 0.960 . S
H5362 C5354 0.930 . S
H5363 C5355 0.929 . S
H5364 C5372 0.929 . S
H5365 C5374 0.930 . S
H5366 C5376 0.930 . S
H5367 C5379 0.929 . S
H5368 C5382 0.930 . S
H5369 C5384 0.960 . S
H5370 C5384 0.960 . S
H5371 C5384 0.960 . S
C5372 H5364 0.929 . S
C5372 C5373 1.377 . S
C5372 C5374 1.384 . S
C5373 C5372 1.377 . S
C5373 C5379 1.390 . S
C5374 H5365 0.930 . S
C5374 C5372 1.384 . S
C5374 C5375 1.372 . S
C5375 C5374 1.372 . S
C5375 C5376 1.400 . S
C5375 C5380 1.490 . S
C5376 H5366 0.930 . S
C5376 C5375 1.400 . S
C5376 C5379 1.386 . S
H5377 C5393 0.930 . S
H5378 C5394 0.931 . S
C5379 H5367 0.929 . S
C5379 C5373 1.390 . S
C5379 C5376 1.386 . S
C5380 C5375 1.490 . S
C5380 C5382 1.395 . S
C5380 C5383 1.403 . S
H5381 C5387 0.930 . S
C5382 H5368 0.930 . S
C5382 C5380 1.395 . S
C5382 C5385 1.403 . S
C5383 C5380 1.403 . S
C5383 C5384 1.524 . S
C5383 C5387 1.400 . S
C5384 H5369 0.960 . S
C5384 H5370 0.960 . S
C5384 H5371 0.960 . S
C5384 C5383 1.524 . S
C5385 C5382 1.403 . S
C5385 C5386 1.392 . S
C5385 C5389 1.495 . S
C5386 C5385 1.392 . S
C5386 C5387 1.385 . S
C5386 C5388 1.478 . S
C5387 H5381 0.930 . S
C5387 C5383 1.400 . S
C5387 C5386 1.385 . S
C5388 C5386 1.478 . S
C5388 C5390 1.381 . S
C5388 C5394 1.383 . S
C5389 C5385 1.495 . S
C5389 H5395 0.959 . S
C5389 H5396 0.961 . S
C5389 H5397 0.960 . S
C5390 C5388 1.381 . S
C5390 C5391 1.394 . S
C5390 H5398 0.930 . S
C5391 C5390 1.394 . S
C5391 C5392 1.383 . S
C5391 H5399 0.929 . S
C5392 C5391 1.383 . S
C5392 C5393 1.377 . S
C5393 H5377 0.930 . S
C5393 C5392 1.377 . S
C5393 C5394 1.379 . S
C5394 H5378 0.931 . S
C5394 C5388 1.383 . S
C5394 C5393 1.379 . S
H5395 C5389 0.959 . S
H5396 C5389 0.961 . S
H5397 C5389 0.960 . S
H5398 C5390 0.930 . S
H5399 C5391 0.929 . S
H5400 C5408 0.929 . S
H5401 C5410 0.930 . S
H5402 C5412 0.930 . S
H5403 C5415 0.929 . S
H5404 C5418 0.930 . S
H5405 C5420 0.960 . S
H5406 C5420 0.960 . S
H5407 C5420 0.960 . S
C5408 H5400 0.929 . S
C5408 C5409 1.377 . S
C5408 C5410 1.384 . S
C5409 C5408 1.377 . S
C5409 C5415 1.390 . S
C5410 H5401 0.930 . S
C5410 C5408 1.384 . S
C5410 C5411 1.372 . S
C5411 C5410 1.372 . S
C5411 C5412 1.400 . S
C5411 C5416 1.490 . S
C5412 H5402 0.930 . S
C5412 C5411 1.400 . S
C5412 C5415 1.386 . S
H5413 C5429 0.930 . S
H5414 C5430 0.931 . S
C5415 H5403 0.929 . S
C5415 C5409 1.390 . S
C5415 C5412 1.386 . S
C5416 C5411 1.490 . S
C5416 C5418 1.395 . S
C5416 C5419 1.403 . S
H5417 C5423 0.930 . S
C5418 H5404 0.930 . S
C5418 C5416 1.395 . S
C5418 C5421 1.403 . S
C5419 C5416 1.403 . S
C5419 C5420 1.524 . S
C5419 C5423 1.400 . S
C5420 H5405 0.960 . S
C5420 H5406 0.960 . S
C5420 H5407 0.960 . S
C5420 C5419 1.524 . S
C5421 C5418 1.403 . S
C5421 C5422 1.392 . S
C5421 C5425 1.495 . S
C5422 C5421 1.392 . S
C5422 C5423 1.385 . S
C5422 C5424 1.478 . S
C5423 H5417 0.930 . S
C5423 C5419 1.400 . S
C5423 C5422 1.385 . S
C5424 C5422 1.478 . S
C5424 C5426 1.381 . S
C5424 C5430 1.383 . S
C5425 C5421 1.495 . S
C5425 H5431 0.959 . S
C5425 H5432 0.961 . S
C5425 H5433 0.960 . S
C5426 C5424 1.381 . S
C5426 C5427 1.394 . S
C5426 H5434 0.930 . S
C5427 C5426 1.394 . S
C5427 C5428 1.383 . S
C5427 H5435 0.929 . S
C5428 C5427 1.383 . S
C5428 C5429 1.377 . S
C5429 H5413 0.930 . S
C5429 C5428 1.377 . S
C5429 C5430 1.379 . S
C5430 H5414 0.931 . S
C5430 C5424 1.383 . S
C5430 C5429 1.379 . S
H5431 C5425 0.959 . S
H5432 C5425 0.961 . S
H5433 C5425 0.960 . S
H5434 C5426 0.930 . S
H5435 C5427 0.929 . S
H5436 C5444 0.929 . S
H5437 C5446 0.930 . S
H5438 C5448 0.930 . S
H5439 C5451 0.929 . S
H5440 C5454 0.930 . S
H5441 C5456 0.960 . S
H5442 C5456 0.960 . S
H5443 C5456 0.960 . S
C5444 H5436 0.929 . S
C5444 C5445 1.377 . S
C5444 C5446 1.384 . S
C5445 C5444 1.377 . S
C5445 C5451 1.390 . S
C5446 H5437 0.930 . S
C5446 C5444 1.384 . S
C5446 C5447 1.372 . S
C5447 C5446 1.372 . S
C5447 C5448 1.400 . S
C5447 C5452 1.490 . S
C5448 H5438 0.930 . S
C5448 C5447 1.400 . S
C5448 C5451 1.386 . S
H5449 C5465 0.930 . S
H5450 C5466 0.931 . S
C5451 H5439 0.929 . S
C5451 C5445 1.390 . S
C5451 C5448 1.386 . S
C5452 C5447 1.490 . S
C5452 C5454 1.395 . S
C5452 C5455 1.403 . S
H5453 C5459 0.930 . S
C5454 H5440 0.930 . S
C5454 C5452 1.395 . S
C5454 C5457 1.403 . S
C5455 C5452 1.403 . S
C5455 C5456 1.524 . S
C5455 C5459 1.400 . S
C5456 H5441 0.960 . S
C5456 H5442 0.960 . S
C5456 H5443 0.960 . S
C5456 C5455 1.524 . S
C5457 C5454 1.403 . S
C5457 C5458 1.392 . S
C5457 C5461 1.495 . S
C5458 C5457 1.392 . S
C5458 C5459 1.385 . S
C5458 C5460 1.478 . S
C5459 H5453 0.930 . S
C5459 C5455 1.400 . S
C5459 C5458 1.385 . S
C5460 C5458 1.478 . S
C5460 C5462 1.381 . S
C5460 C5466 1.383 . S
C5461 C5457 1.495 . S
C5461 H5467 0.959 . S
C5461 H5468 0.961 . S
C5461 H5469 0.960 . S
C5462 C5460 1.381 . S
C5462 C5463 1.394 . S
C5462 H5470 0.930 . S
C5463 C5462 1.394 . S
C5463 C5464 1.383 . S
C5463 H5471 0.929 . S
C5464 C5463 1.383 . S
C5464 C5465 1.377 . S
C5465 H5449 0.930 . S
C5465 C5464 1.377 . S
C5465 C5466 1.379 . S
C5466 H5450 0.931 . S
C5466 C5460 1.383 . S
C5466 C5465 1.379 . S
H5467 C5461 0.959 . S
H5468 C5461 0.961 . S
H5469 C5461 0.960 . S
H5470 C5462 0.930 . S
H5471 C5463 0.929 . S
H5472 C5480 0.929 . S
H5473 C5482 0.930 1_655 S
H5474 C5484 0.930 . S
H5475 C5487 0.929 . S
H5476 C5490 0.909 1_655 S
H5477 C5492 0.960 . S
H5478 C5492 0.960 . S
H5479 C5492 0.960 . S
C5480 H5472 0.929 . S
C5480 C5481 1.377 . S
C5480 C5482 1.384 . S
C5481 C5480 1.377 . S
C5481 C5487 1.390 . S
C5482 H5473 0.930 1_455 S
C5482 C5480 1.384 . S
C5482 C5483 1.372 . S
C5483 C5482 1.372 . S
C5483 C5484 1.400 . S
C5483 C5488 1.490 . S
C5484 H5474 0.930 . S
C5484 C5483 1.400 . S
C5484 C5487 1.386 . S
H5485 C5501 0.930 . S
H5486 C5502 0.931 . S
C5487 H5475 0.929 . S
C5487 C5481 1.390 . S
C5487 C5484 1.386 . S
C5488 C5483 1.490 . S
C5488 C5490 1.395 . S
C5488 C5491 1.403 . S
H5489 C5495 0.930 . S
C5490 H5476 0.909 1_455 S
C5490 C5488 1.395 . S
C5490 C5493 1.403 . S
C5491 C5488 1.403 . S
C5491 C5492 1.524 . S
C5491 C5495 1.400 . S
C5492 H5477 0.960 . S
C5492 H5478 0.960 . S
C5492 H5479 0.960 . S
C5492 C5491 1.524 . S
C5493 C5490 1.403 . S
C5493 C5494 1.392 . S
C5493 C5497 1.495 1_455 S
C5494 C5493 1.392 . S
C5494 C5495 1.385 . S
C5494 C5496 1.478 . S
C5495 H5489 0.930 . S
C5495 C5491 1.400 . S
C5495 C5494 1.385 . S
C5496 C5494 1.478 . S
C5496 C5498 1.381 1_455 S
C5496 C5502 1.383 . S
C5497 C5493 1.495 1_655 S
C5497 H5503 0.959 . S
C5497 H5504 0.961 . S
C5497 H5505 0.960 . S
C5498 C5496 1.381 1_655 S
C5498 C5499 1.394 . S
C5498 H5506 0.930 . S
C5499 C5498 1.394 . S
C5499 C5500 1.383 1_655 S
C5499 H5507 0.929 . S
C5500 C5499 1.383 1_455 S
C5500 C5501 1.377 . S
C5501 H5485 0.930 . S
C5501 C5500 1.377 . S
C5501 C5502 1.379 . S
C5502 H5486 0.931 . S
C5502 C5496 1.383 . S
C5502 C5501 1.379 . S
H5503 C5497 0.959 . S
H5504 C5497 0.961 . S
H5505 C5497 0.960 . S
H5506 C5498 0.930 . S
H5507 C5499 0.929 . S
H5508 C5516 0.929 . S
H5509 C5518 0.930 . S
H5510 C5520 0.930 . S
H5511 C5523 0.929 . S
H5512 C5526 0.930 . S
H5513 C5528 0.960 . S
H5514 C5528 0.960 . S
H5515 C5528 0.960 . S
C5516 H5508 0.929 . S
C5516 C5517 1.377 . S
C5516 C5518 1.384 . S
C5517 C5516 1.377 . S
C5517 C5523 1.390 . S
C5518 H5509 0.930 . S
C5518 C5516 1.384 . S
C5518 C5519 1.372 . S
C5519 C5518 1.372 . S
C5519 C5520 1.400 . S
C5519 C5524 1.490 . S
C5520 H5510 0.930 . S
C5520 C5519 1.400 . S
C5520 C5523 1.386 . S
H5521 C5537 0.930 . S
H5522 C5538 0.931 . S
C5523 H5511 0.929 . S
C5523 C5517 1.390 . S
C5523 C5520 1.386 . S
C5524 C5519 1.490 . S
C5524 C5526 1.395 . S
C5524 C5527 1.403 . S
H5525 C5531 0.930 . S
C5526 H5512 0.930 . S
C5526 C5524 1.395 . S
C5526 C5529 1.403 . S
C5527 C5524 1.403 . S
C5527 C5528 1.524 . S
C5527 C5531 1.400 . S
C5528 H5513 0.960 . S
C5528 H5514 0.960 . S
C5528 H5515 0.960 . S
C5528 C5527 1.524 . S
C5529 C5526 1.403 . S
C5529 C5530 1.392 . S
C5529 C5533 1.495 . S
C5530 C5529 1.392 . S
C5530 C5531 1.385 . S
C5530 C5532 1.478 . S
C5531 H5525 0.930 . S
C5531 C5527 1.400 . S
C5531 C5530 1.385 . S
C5532 C5530 1.478 . S
C5532 C5534 1.381 . S
C5532 C5538 1.383 . S
C5533 C5529 1.495 . S
C5533 H5539 0.959 . S
C5533 H5540 0.961 . S
C5533 H5541 0.960 . S
C5534 C5532 1.381 . S
C5534 C5535 1.394 . S
C5534 H5542 0.930 . S
C5535 C5534 1.394 . S
C5535 C5536 1.383 . S
C5535 H5543 0.929 . S
C5536 C5535 1.383 . S
C5536 C5537 1.377 . S
C5537 H5521 0.930 . S
C5537 C5536 1.377 . S
C5537 C5538 1.379 . S
C5538 H5522 0.931 . S
C5538 C5532 1.383 . S
C5538 C5537 1.379 . S
H5539 C5533 0.959 . S
H5540 C5533 0.961 . S
H5541 C5533 0.960 . S
H5542 C5534 0.930 . S
H5543 C5535 0.929 . S
H5544 C5552 0.929 1_545 S
H5545 C5554 0.930 1_545 S
H5546 C5556 0.930 . S
H5547 C5559 0.929 . S
H5548 C5562 0.937 . S
H5549 C5564 0.960 . S
H5550 C5564 0.960 . S
H5551 C5564 0.960 . S
C5552 H5544 0.929 1_565 S
C5552 C5553 1.377 . S
C5552 C5554 1.384 . S
C5553 C5552 1.377 . S
C5553 C5559 1.390 . S
C5554 H5545 0.930 1_565 S
C5554 C5552 1.384 . S
C5554 C5555 1.372 . S
C5555 C5554 1.372 . S
C5555 C5556 1.400 . S
C5555 C5560 1.490 . S
C5556 H5546 0.930 . S
C5556 C5555 1.400 . S
C5556 C5559 1.386 . S
H5557 C5573 0.930 . S
H5558 C5574 0.931 . S
C5559 H5547 0.929 . S
C5559 C5553 1.390 . S
C5559 C5556 1.386 . S
C5560 C5555 1.490 . S
C5560 C5562 1.395 . S
C5560 C5563 1.403 . S
H5561 C5567 0.930 . S
C5562 H5548 0.937 . S
C5562 C5560 1.395 . S
C5562 C5565 1.403 . S
C5563 C5560 1.403 . S
C5563 C5564 1.524 . S
C5563 C5567 1.400 . S
C5564 H5549 0.960 . S
C5564 H5550 0.960 . S
C5564 H5551 0.960 . S
C5564 C5563 1.524 . S
C5565 C5562 1.403 . S
C5565 C5566 1.392 . S
C5565 C5569 1.495 1_565 S
C5566 C5565 1.392 . S
C5566 C5567 1.385 . S
C5566 C5568 1.478 . S
C5567 H5561 0.930 . S
C5567 C5563 1.400 . S
C5567 C5566 1.385 . S
C5568 C5566 1.478 . S
C5568 C5570 1.381 1_565 S
C5568 C5574 1.383 . S
C5569 C5565 1.495 1_545 S
C5569 H5575 0.959 . S
C5569 H5576 0.878 1_545 S
C5569 H5577 0.960 . S
C5570 C5568 1.381 1_545 S
C5570 C5571 1.394 . S
C5570 H5578 0.930 . S
C5571 C5570 1.394 . S
C5571 C5572 1.383 1_545 S
C5571 H5579 0.929 . S
C5572 C5571 1.383 1_565 S
C5572 C5573 1.377 . S
C5573 H5557 0.930 . S
C5573 C5572 1.377 . S
C5573 C5574 1.379 . S
C5574 H5558 0.931 . S
C5574 C5568 1.383 . S
C5574 C5573 1.379 . S
H5575 C5569 0.959 . S
H5576 C5569 0.878 1_565 S
H5577 C5569 0.960 . S
H5578 C5570 0.930 . S
H5579 C5571 0.929 . S
H5580 C5588 0.929 . S
H5581 C5590 0.930 . S
H5582 C5592 0.930 . S
H5583 C5595 0.929 . S
H5584 C5598 0.930 . S
H5585 C5600 0.960 . S
H5586 C5600 0.960 . S
H5587 C5600 0.960 . S
C5588 H5580 0.929 . S
C5588 C5589 1.377 . S
C5588 C5590 1.384 . S
C5589 C5588 1.377 . S
C5589 C5595 1.390 . S
C5590 H5581 0.930 . S
C5590 C5588 1.384 . S
C5590 C5591 1.372 . S
C5591 C5590 1.372 . S
C5591 C5592 1.400 . S
C5591 C5596 1.490 . S
C5592 H5582 0.930 . S
C5592 C5591 1.400 . S
C5592 C5595 1.386 . S
H5593 C5609 0.930 . S
H5594 C5610 0.931 . S
C5595 H5583 0.929 . S
C5595 C5589 1.390 . S
C5595 C5592 1.386 . S
C5596 C5591 1.490 . S
C5596 C5598 1.395 . S
C5596 C5599 1.403 . S
H5597 C5603 0.930 . S
C5598 H5584 0.930 . S
C5598 C5596 1.395 . S
C5598 C5601 1.403 . S
C5599 C5596 1.403 . S
C5599 C5600 1.524 . S
C5599 C5603 1.400 . S
C5600 H5585 0.960 . S
C5600 H5586 0.960 . S
C5600 H5587 0.960 . S
C5600 C5599 1.524 . S
C5601 C5598 1.403 . S
C5601 C5602 1.392 . S
C5601 C5605 1.495 1_565 S
C5602 C5601 1.392 . S
C5602 C5603 1.385 . S
C5602 C5604 1.478 . S
C5603 H5597 0.930 . S
C5603 C5599 1.400 . S
C5603 C5602 1.385 . S
C5604 C5602 1.478 . S
C5604 C5606 1.381 . S
C5604 C5610 1.383 1_565 S
C5605 C5601 1.495 1_545 S
C5605 H5611 0.959 . S
C5605 H5612 0.961 . S
C5605 H5613 0.960 1_545 S
C5606 C5604 1.381 . S
C5606 C5607 1.394 . S
C5606 H5614 0.930 . S
C5607 C5606 1.394 . S
C5607 C5608 1.383 . S
C5607 H5615 0.929 . S
C5608 C5607 1.383 . S
C5608 C5609 1.377 1_565 S
C5609 H5593 0.930 . S
C5609 C5608 1.377 1_545 S
C5609 C5610 1.379 . S
C5610 H5594 0.931 . S
C5610 C5604 1.383 1_545 S
C5610 C5609 1.379 . S
H5611 C5605 0.959 . S
H5612 C5605 0.961 . S
H5613 C5605 0.960 1_565 S
H5614 C5606 0.930 . S
H5615 C5607 0.929 . S
H5616 C5624 0.929 . S
H5617 C5626 0.930 . S
H5618 C5628 0.930 1_655 S
H5619 C5631 0.929 1_655 S
H5620 C5634 0.930 . S
H5621 C5636 0.960 . S
H5622 C5636 0.960 1_455 S
H5623 C5636 0.960 . S
C5624 H5616 0.929 . S
C5624 C5625 1.377 . S
C5624 C5626 1.384 . S
C5625 C5624 1.377 . S
C5625 C5631 1.390 . S
C5626 H5617 0.930 . S
C5626 C5624 1.384 . S
C5626 C5627 1.372 . S
C5627 C5626 1.372 . S
C5627 C5628 1.400 . S
C5627 C5632 1.490 . S
C5628 H5618 0.930 1_455 S
C5628 C5627 1.400 . S
C5628 C5631 1.386 . S
H5629 C5645 0.930 . S
H5630 C5646 0.931 . S
C5631 H5619 0.929 1_455 S
C5631 C5625 1.390 . S
C5631 C5628 1.386 . S
C5632 C5627 1.490 . S
C5632 C5634 1.395 . S
C5632 C5635 1.403 . S
H5633 C5639 0.930 1_655 S
C5634 H5620 0.930 . S
C5634 C5632 1.395 . S
C5634 C5637 1.403 . S
C5635 C5632 1.403 . S
C5635 C5636 1.524 1_455 S
C5635 C5639 1.400 . S
C5636 H5621 0.960 . S
C5636 H5622 0.960 1_655 S
C5636 H5623 0.960 . S
C5636 C5635 1.524 1_655 S
C5637 C5634 1.403 . S
C5637 C5638 1.392 . S
C5637 C5641 1.495 . S
C5638 C5637 1.392 . S
C5638 C5639 1.385 . S
C5638 C5640 1.478 . S
C5639 H5633 0.930 1_455 S
C5639 C5635 1.400 . S
C5639 C5638 1.385 . S
C5640 C5638 1.478 . S
C5640 C5642 1.381 . S
C5640 C5646 1.383 1_455 S
C5641 C5637 1.495 . S
C5641 H5647 0.959 . S
C5641 H5648 0.961 . S
C5641 H5649 0.960 . S
C5642 C5640 1.381 . S
C5642 C5643 1.394 . S
C5642 H5650 0.930 . S
C5643 C5642 1.394 . S
C5643 C5644 1.383 . S
C5643 H5651 0.929 . S
C5644 C5643 1.383 . S
C5644 C5645 1.377 1_455 S
C5645 H5629 0.930 . S
C5645 C5644 1.377 1_655 S
C5645 C5646 1.379 . S
C5646 H5630 0.931 . S
C5646 C5640 1.383 1_655 S
C5646 C5645 1.379 . S
H5647 C5641 0.959 . S
H5648 C5641 0.961 . S
H5649 C5641 0.960 . S
H5650 C5642 0.930 . S
H5651 C5643 0.929 . S
H5652 C5660 0.929 . S
H5653 C5662 0.930 . S
H5654 C5664 0.930 . S
H5655 C5667 0.929 . S
H5656 C5670 0.930 . S
H5657 C5672 0.960 . S
H5658 C5672 0.960 . S
H5659 C5672 0.960 . S
C5660 H5652 0.929 . S
C5660 C5661 1.377 . S
C5660 C5662 1.384 . S
C5661 C5660 1.377 . S
C5661 C5667 1.390 . S
C5662 H5653 0.930 . S
C5662 C5660 1.384 . S
C5662 C5663 1.372 . S
C5663 C5662 1.372 . S
C5663 C5664 1.400 . S
C5663 C5668 1.490 . S
C5664 H5654 0.930 . S
C5664 C5663 1.400 . S
C5664 C5667 1.386 . S
H5665 C5681 0.930 . S
H5666 C5682 0.931 . S
C5667 H5655 0.929 . S
C5667 C5661 1.390 . S
C5667 C5664 1.386 . S
C5668 C5663 1.490 . S
C5668 C5670 1.395 . S
C5668 C5671 1.403 . S
H5669 C5675 0.930 . S
C5670 H5656 0.930 . S
C5670 C5668 1.395 . S
C5670 C5673 1.403 . S
C5671 C5668 1.403 . S
C5671 C5672 1.524 . S
C5671 C5675 1.400 . S
C5672 H5657 0.960 . S
C5672 H5658 0.960 . S
C5672 H5659 0.960 . S
C5672 C5671 1.524 . S
C5673 C5670 1.403 . S
C5673 C5674 1.392 . S
C5673 C5677 1.495 . S
C5674 C5673 1.392 . S
C5674 C5675 1.385 . S
C5674 C5676 1.478 . S
C5675 H5669 0.930 . S
C5675 C5671 1.400 . S
C5675 C5674 1.385 . S
C5676 C5674 1.478 . S
C5676 C5678 1.381 . S
C5676 C5682 1.383 . S
C5677 C5673 1.495 . S
C5677 H5683 0.959 . S
C5677 H5684 0.961 . S
C5677 H5685 0.960 . S
C5678 C5676 1.381 . S
C5678 C5679 1.394 . S
C5678 H5686 0.930 . S
C5679 C5678 1.394 . S
C5679 C5680 1.383 . S
C5679 H5687 0.929 . S
C5680 C5679 1.383 . S
C5680 C5681 1.377 . S
C5681 H5665 0.930 . S
C5681 C5680 1.377 . S
C5681 C5682 1.379 . S
C5682 H5666 0.931 . S
C5682 C5676 1.383 . S
C5682 C5681 1.379 . S
H5683 C5677 0.959 . S
H5684 C5677 0.961 . S
H5685 C5677 0.960 . S
H5686 C5678 0.930 . S
H5687 C5679 0.929 . S
H5688 C5696 0.929 . S
H5689 C5698 0.930 . S
H5690 C5700 0.930 . S
H5691 C5703 0.929 . S
H5692 C5706 0.930 . S
H5693 C5708 0.960 . S
H5694 C5708 0.960 . S
H5695 C5708 0.960 . S
C5696 H5688 0.929 . S
C5696 C5697 1.377 . S
C5696 C5698 1.384 . S
C5697 C5696 1.377 . S
C5697 C5703 1.390 . S
C5698 H5689 0.930 . S
C5698 C5696 1.384 . S
C5698 C5699 1.372 . S
C5699 C5698 1.372 . S
C5699 C5700 1.400 . S
C5699 C5704 1.490 . S
C5700 H5690 0.930 . S
C5700 C5699 1.400 . S
C5700 C5703 1.386 . S
H5701 C5717 0.930 . S
H5702 C5718 0.931 . S
C5703 H5691 0.929 . S
C5703 C5697 1.390 . S
C5703 C5700 1.386 . S
C5704 C5699 1.490 . S
C5704 C5706 1.395 . S
C5704 C5707 1.403 . S
H5705 C5711 0.930 . S
C5706 H5692 0.930 . S
C5706 C5704 1.395 . S
C5706 C5709 1.403 . S
C5707 C5704 1.403 . S
C5707 C5708 1.524 . S
C5707 C5711 1.400 . S
C5708 H5693 0.960 . S
C5708 H5694 0.960 . S
C5708 H5695 0.960 . S
C5708 C5707 1.524 . S
C5709 C5706 1.403 . S
C5709 C5710 1.392 . S
C5709 C5713 1.495 . S
C5710 C5709 1.392 . S
C5710 C5711 1.385 . S
C5710 C5712 1.478 . S
C5711 H5705 0.930 . S
C5711 C5707 1.400 . S
C5711 C5710 1.385 . S
C5712 C5710 1.478 . S
C5712 C5714 1.381 . S
C5712 C5718 1.383 . S
C5713 C5709 1.495 . S
C5713 H5719 0.959 . S
C5713 H5720 0.961 . S
C5713 H5721 0.960 . S
C5714 C5712 1.381 . S
C5714 C5715 1.394 . S
C5714 H5722 0.930 . S
C5715 C5714 1.394 . S
C5715 C5716 1.383 . S
C5715 H5723 0.929 . S
C5716 C5715 1.383 . S
C5716 C5717 1.377 . S
C5717 H5701 0.930 . S
C5717 C5716 1.377 . S
C5717 C5718 1.379 . S
C5718 H5702 0.931 . S
C5718 C5712 1.383 . S
C5718 C5717 1.379 . S
H5719 C5713 0.959 . S
H5720 C5713 0.961 . S
H5721 C5713 0.960 . S
H5722 C5714 0.930 . S
H5723 C5715 0.929 . S
H5724 C5732 0.929 . S
H5725 C5734 0.930 . S
H5726 C5736 0.930 . S
H5727 C5739 0.929 . S
H5728 C5742 0.930 . S
H5729 C5744 0.960 . S
H5730 C5744 0.960 . S
H5731 C5744 0.960 . S
C5732 H5724 0.929 . S
C5732 C5733 1.377 . S
C5732 C5734 1.384 . S
C5733 C5732 1.377 . S
C5733 C5739 1.390 . S
C5734 H5725 0.930 . S
C5734 C5732 1.384 . S
C5734 C5735 1.372 . S
C5735 C5734 1.372 . S
C5735 C5736 1.400 . S
C5735 C5740 1.490 . S
C5736 H5726 0.930 . S
C5736 C5735 1.400 . S
C5736 C5739 1.386 . S
H5737 C5753 0.930 . S
H5738 C5754 0.931 . S
C5739 H5727 0.929 . S
C5739 C5733 1.390 . S
C5739 C5736 1.386 . S
C5740 C5735 1.490 . S
C5740 C5742 1.395 . S
C5740 C5743 1.403 . S
H5741 C5747 0.930 . S
C5742 H5728 0.930 . S
C5742 C5740 1.395 . S
C5742 C5745 1.403 . S
C5743 C5740 1.403 . S
C5743 C5744 1.524 . S
C5743 C5747 1.400 . S
C5744 H5729 0.960 . S
C5744 H5730 0.960 . S
C5744 H5731 0.960 . S
C5744 C5743 1.524 . S
C5745 C5742 1.403 . S
C5745 C5746 1.392 . S
C5745 C5749 1.495 . S
C5746 C5745 1.392 . S
C5746 C5747 1.385 . S
C5746 C5748 1.478 . S
C5747 H5741 0.930 . S
C5747 C5743 1.400 . S
C5747 C5746 1.385 . S
C5748 C5746 1.478 . S
C5748 C5750 1.381 . S
C5748 C5754 1.383 . S
C5749 C5745 1.495 . S
C5749 H5755 0.959 . S
C5749 H5756 0.961 . S
C5749 H5757 0.960 . S
C5750 C5748 1.381 . S
C5750 C5751 1.394 . S
C5750 H5758 0.930 . S
C5751 C5750 1.394 . S
C5751 C5752 1.383 . S
C5751 H5759 0.929 . S
C5752 C5751 1.383 . S
C5752 C5753 1.377 . S
C5753 H5737 0.930 . S
C5753 C5752 1.377 . S
C5753 C5754 1.379 . S
C5754 H5738 0.931 . S
C5754 C5748 1.383 . S
C5754 C5753 1.379 . S
H5755 C5749 0.959 . S
H5756 C5749 0.961 . S
H5757 C5749 0.960 . S
H5758 C5750 0.930 . S
H5759 C5751 0.929 . S
H5760 C5768 0.929 . S
H5761 C5770 0.930 . S
H5762 C5772 0.930 . S
H5763 C5775 0.929 . S
H5764 C5778 0.930 . S
H5765 C5780 0.960 . S
H5766 C5780 0.960 . S
H5767 C5780 0.960 . S
C5768 H5760 0.929 . S
C5768 C5769 1.377 . S
C5768 C5770 1.384 . S
C5769 C5768 1.377 . S
C5769 C5775 1.390 . S
C5770 H5761 0.930 . S
C5770 C5768 1.384 . S
C5770 C5771 1.372 . S
C5771 C5770 1.372 . S
C5771 C5772 1.400 . S
C5771 C5776 1.490 . S
C5772 H5762 0.930 . S
C5772 C5771 1.400 . S
C5772 C5775 1.386 . S
H5773 C5789 0.930 . S
H5774 C5790 0.931 . S
C5775 H5763 0.929 . S
C5775 C5769 1.390 . S
C5775 C5772 1.386 . S
C5776 C5771 1.490 . S
C5776 C5778 1.395 . S
C5776 C5779 1.403 . S
H5777 C5783 0.930 . S
C5778 H5764 0.930 . S
C5778 C5776 1.395 . S
C5778 C5781 1.403 . S
C5779 C5776 1.403 . S
C5779 C5780 1.524 . S
C5779 C5783 1.400 . S
C5780 H5765 0.960 . S
C5780 H5766 0.960 . S
C5780 H5767 0.960 . S
C5780 C5779 1.524 . S
C5781 C5778 1.403 . S
C5781 C5782 1.392 . S
C5781 C5785 1.495 . S
C5782 C5781 1.392 . S
C5782 C5783 1.385 . S
C5782 C5784 1.478 . S
C5783 H5777 0.930 . S
C5783 C5779 1.400 . S
C5783 C5782 1.385 . S
C5784 C5782 1.478 . S
C5784 C5786 1.381 . S
C5784 C5790 1.383 . S
C5785 C5781 1.495 . S
C5785 H5791 0.959 . S
C5785 H5792 0.961 . S
C5785 H5793 0.960 . S
C5786 C5784 1.381 . S
C5786 C5787 1.394 . S
C5786 H5794 0.930 . S
C5787 C5786 1.394 . S
C5787 C5788 1.383 . S
C5787 H5795 0.929 . S
C5788 C5787 1.383 . S
C5788 C5789 1.377 . S
C5789 H5773 0.930 . S
C5789 C5788 1.377 . S
C5789 C5790 1.379 . S
C5790 H5774 0.931 . S
C5790 C5784 1.383 . S
C5790 C5789 1.379 . S
H5791 C5785 0.959 . S
H5792 C5785 0.961 . S
H5793 C5785 0.960 . S
H5794 C5786 0.930 . S
H5795 C5787 0.929 . S
H5796 C5804 0.929 . S
H5797 C5806 0.837 1_565 S
H5798 C5808 0.930 . S
H5799 C5811 0.929 . S
H5800 C5814 0.930 . S
H5801 C5816 0.960 . S
H5802 C5816 0.960 . S
H5803 C5816 0.960 . S
C5804 H5796 0.929 . S
C5804 C5805 1.377 . S
C5804 C5806 1.384 . S
C5805 C5804 1.377 . S
C5805 C5811 1.390 . S
C5806 H5797 0.837 1_545 S
C5806 C5804 1.384 . S
C5806 C5807 1.372 . S
C5807 C5806 1.372 . S
C5807 C5808 1.400 . S
C5807 C5812 1.490 . S
C5808 H5798 0.930 . S
C5808 C5807 1.400 . S
C5808 C5811 1.386 . S
H5809 C5825 0.930 . S
H5810 C5826 0.931 . S
C5811 H5799 0.929 . S
C5811 C5805 1.390 . S
C5811 C5808 1.386 . S
C5812 C5807 1.490 . S
C5812 C5814 1.395 . S
C5812 C5815 1.403 . S
H5813 C5819 0.930 . S
C5814 H5800 0.930 . S
C5814 C5812 1.395 . S
C5814 C5817 1.403 . S
C5815 C5812 1.403 . S
C5815 C5816 1.524 . S
C5815 C5819 1.400 . S
C5816 H5801 0.960 . S
C5816 H5802 0.960 . S
C5816 H5803 0.960 . S
C5816 C5815 1.524 . S
C5817 C5814 1.403 . S
C5817 C5818 1.392 . S
C5817 C5821 1.495 . S
C5818 C5817 1.392 . S
C5818 C5819 1.385 . S
C5818 C5820 1.478 . S
C5819 H5813 0.930 . S
C5819 C5815 1.400 . S
C5819 C5818 1.385 . S
C5820 C5818 1.478 . S
C5820 C5822 1.381 1_545 S
C5820 C5826 1.383 . S
C5821 C5817 1.495 . S
C5821 H5827 0.959 . S
C5821 H5828 0.961 . S
C5821 H5829 0.960 . S
C5822 C5820 1.381 1_565 S
C5822 C5823 1.394 . S
C5822 H5830 0.930 . S
C5823 C5822 1.394 . S
C5823 C5824 1.383 1_565 S
C5823 H5831 0.929 . S
C5824 C5823 1.383 1_545 S
C5824 C5825 1.377 . S
C5825 H5809 0.930 . S
C5825 C5824 1.377 . S
C5825 C5826 1.379 . S
C5826 H5810 0.931 . S
C5826 C5820 1.383 . S
C5826 C5825 1.379 . S
H5827 C5821 0.959 . S
H5828 C5821 0.961 . S
H5829 C5821 0.960 . S
H5830 C5822 0.930 . S
H5831 C5823 0.929 . S
H5832 C5840 0.929 . S
H5833 C5842 0.930 . S
H5834 C5844 0.930 . S
H5835 C5847 0.929 . S
H5836 C5850 0.930 . S
H5837 C5852 0.960 . S
H5838 C5852 0.960 . S
H5839 C5852 0.960 . S
C5840 H5832 0.929 . S
C5840 C5841 1.377 . S
C5840 C5842 1.384 . S
C5841 C5840 1.377 . S
C5841 C5847 1.390 . S
C5842 H5833 0.930 . S
C5842 C5840 1.384 . S
C5842 C5843 1.372 . S
C5843 C5842 1.372 . S
C5843 C5844 1.400 . S
C5843 C5848 1.490 . S
C5844 H5834 0.930 . S
C5844 C5843 1.400 . S
C5844 C5847 1.386 . S
H5845 C5861 0.930 . S
H5846 C5862 0.931 . S
C5847 H5835 0.929 . S
C5847 C5841 1.390 . S
C5847 C5844 1.386 . S
C5848 C5843 1.490 . S
C5848 C5850 1.395 . S
C5848 C5851 1.358 1_655 S
H5849 C5855 0.948 . S
C5850 H5836 0.930 . S
C5850 C5848 1.395 . S
C5850 C5853 1.403 . S
C5851 C5848 1.358 1_455 S
C5851 C5852 1.601 . S
C5851 C5855 1.379 . S
C5852 H5837 0.960 . S
C5852 H5838 0.960 . S
C5852 H5839 0.960 . S
C5852 C5851 1.601 . S
C5853 C5850 1.403 . S
C5853 C5854 1.392 . S
C5853 C5857 1.495 . S
C5854 C5853 1.392 . S
C5854 C5855 1.355 1_655 S
C5854 C5856 1.478 . S
C5855 H5849 0.948 . S
C5855 C5851 1.379 . S
C5855 C5854 1.355 1_455 S
C5856 C5854 1.478 . S
C5856 C5858 1.381 . S
C5856 C5862 1.383 . S
C5857 C5853 1.495 . S
C5857 H5863 0.959 . S
C5857 H5864 0.961 . S
C5857 H5865 0.960 . S
C5858 C5856 1.381 . S
C5858 C5859 1.394 . S
C5858 H5866 0.930 . S
C5859 C5858 1.394 . S
C5859 C5860 1.383 . S
C5859 H5867 0.929 . S
C5860 C5859 1.383 . S
C5860 C5861 1.377 . S
C5861 H5845 0.930 . S
C5861 C5860 1.377 . S
C5861 C5862 1.379 . S
C5862 H5846 0.931 . S
C5862 C5856 1.383 . S
C5862 C5861 1.379 . S
H5863 C5857 0.959 . S
H5864 C5857 0.961 . S
H5865 C5857 0.960 . S
H5866 C5858 0.930 . S
H5867 C5859 0.929 . S
H5868 C5876 0.929 . S
H5869 C5878 0.930 . S
H5870 C5880 0.930 . S
H5871 C5883 0.929 . S
H5872 C5886 0.930 . S
H5873 C5888 0.960 . S
H5874 C5888 0.960 . S
H5875 C5888 0.960 . S
C5876 H5868 0.929 . S
C5876 C5877 1.377 . S
C5876 C5878 1.384 . S
C5877 C5876 1.377 . S
C5877 C5883 1.390 . S
C5878 H5869 0.930 . S
C5878 C5876 1.384 . S
C5878 C5879 1.372 . S
C5879 C5878 1.372 . S
C5879 C5880 1.400 . S
C5879 C5884 1.490 . S
C5880 H5870 0.930 . S
C5880 C5879 1.400 . S
C5880 C5883 1.386 . S
H5881 C5897 0.930 . S
H5882 C5898 0.931 . S
C5883 H5871 0.929 . S
C5883 C5877 1.390 . S
C5883 C5880 1.386 . S
C5884 C5879 1.490 . S
C5884 C5886 1.395 . S
C5884 C5887 1.403 . S
H5885 C5891 0.930 . S
C5886 H5872 0.930 . S
C5886 C5884 1.395 . S
C5886 C5889 1.403 . S
C5887 C5884 1.403 . S
C5887 C5888 1.524 . S
C5887 C5891 1.400 . S
C5888 H5873 0.960 . S
C5888 H5874 0.960 . S
C5888 H5875 0.960 . S
C5888 C5887 1.524 . S
C5889 C5886 1.403 . S
C5889 C5890 1.392 . S
C5889 C5893 1.495 . S
C5890 C5889 1.392 . S
C5890 C5891 1.385 . S
C5890 C5892 1.478 . S
C5891 H5885 0.930 . S
C5891 C5887 1.400 . S
C5891 C5890 1.385 . S
C5892 C5890 1.478 . S
C5892 C5894 1.381 . S
C5892 C5898 1.383 . S
C5893 C5889 1.495 . S
C5893 H5899 0.959 . S
C5893 H5900 0.961 . S
C5893 H5901 0.960 . S
C5894 C5892 1.381 . S
C5894 C5895 1.394 . S
C5894 H5902 0.930 . S
C5895 C5894 1.394 . S
C5895 C5896 1.383 . S
C5895 H5903 0.929 . S
C5896 C5895 1.383 . S
C5896 C5897 1.377 . S
C5897 H5881 0.930 . S
C5897 C5896 1.377 . S
C5897 C5898 1.379 . S
C5898 H5882 0.931 . S
C5898 C5892 1.383 . S
C5898 C5897 1.379 . S
H5899 C5893 0.959 . S
H5900 C5893 0.961 . S
H5901 C5893 0.960 . S
H5902 C5894 0.930 . S
H5903 C5895 0.929 . S
H5904 C5912 0.929 . S
H5905 C5914 0.930 . S
H5906 C5916 0.930 . S
H5907 C5919 0.929 . S
H5908 C5922 0.930 . S
H5909 C5924 0.960 . S
H5910 C5924 0.960 . S
H5911 C5924 0.960 . S
C5912 H5904 0.929 . S
C5912 C5913 1.377 . S
C5912 C5914 1.384 . S
C5913 C5912 1.377 . S
C5913 C5919 1.390 . S
C5914 H5905 0.930 . S
C5914 C5912 1.384 . S
C5914 C5915 1.372 . S
C5915 C5914 1.372 . S
C5915 C5916 1.400 . S
C5915 C5920 1.490 . S
C5916 H5906 0.930 . S
C5916 C5915 1.400 . S
C5916 C5919 1.386 . S
H5917 C5933 0.930 . S
H5918 C5934 0.931 . S
C5919 H5907 0.929 . S
C5919 C5913 1.390 . S
C5919 C5916 1.386 . S
C5920 C5915 1.490 . S
C5920 C5922 1.395 . S
C5920 C5923 1.403 . S
H5921 C5927 0.930 . S
C5922 H5908 0.930 . S
C5922 C5920 1.395 . S
C5922 C5925 1.403 . S
C5923 C5920 1.403 . S
C5923 C5924 1.524 . S
C5923 C5927 1.400 . S
C5924 H5909 0.960 . S
C5924 H5910 0.960 . S
C5924 H5911 0.960 . S
C5924 C5923 1.524 . S
C5925 C5922 1.403 . S
C5925 C5926 1.392 . S
C5925 C5929 1.495 . S
C5926 C5925 1.392 . S
C5926 C5927 1.385 . S
C5926 C5928 1.478 . S
C5927 H5921 0.930 . S
C5927 C5923 1.400 . S
C5927 C5926 1.385 . S
C5928 C5926 1.478 . S
C5928 C5930 1.381 . S
C5928 C5934 1.383 . S
C5929 C5925 1.495 . S
C5929 H5935 0.959 . S
C5929 H5936 0.961 . S
C5929 H5937 0.960 . S
C5930 C5928 1.381 . S
C5930 C5931 1.394 . S
C5930 H5938 0.930 . S
C5931 C5930 1.394 . S
C5931 C5932 1.383 . S
C5931 H5939 0.929 . S
C5932 C5931 1.383 . S
C5932 C5933 1.377 . S
C5933 H5917 0.930 . S
C5933 C5932 1.377 . S
C5933 C5934 1.379 . S
C5934 H5918 0.931 . S
C5934 C5928 1.383 . S
C5934 C5933 1.379 . S
H5935 C5929 0.959 . S
H5936 C5929 0.961 . S
H5937 C5929 0.960 . S
H5938 C5930 0.930 . S
H5939 C5931 0.929 . S
H5940 C5948 0.929 . S
H5941 C5950 0.930 . S
H5942 C5952 0.930 . S
H5943 C5955 0.929 . S
H5944 C5958 0.930 . S
H5945 C5960 0.960 . S
H5946 C5960 0.960 . S
H5947 C5960 0.960 . S
C5948 H5940 0.929 . S
C5948 C5949 1.377 . S
C5948 C5950 1.384 . S
C5949 C5948 1.377 . S
C5949 C5955 1.390 . S
C5950 H5941 0.930 . S
C5950 C5948 1.384 . S
C5950 C5951 1.372 . S
C5951 C5950 1.372 . S
C5951 C5952 1.400 . S
C5951 C5956 1.490 . S
C5952 H5942 0.930 . S
C5952 C5951 1.400 . S
C5952 C5955 1.386 . S
H5953 C5969 0.930 . S
H5954 C5970 0.931 . S
C5955 H5943 0.929 . S
C5955 C5949 1.390 . S
C5955 C5952 1.386 . S
C5956 C5951 1.490 . S
C5956 C5958 1.395 . S
C5956 C5959 1.403 . S
H5957 C5963 0.930 . S
C5958 H5944 0.930 . S
C5958 C5956 1.395 . S
C5958 C5961 1.403 . S
C5959 C5956 1.403 . S
C5959 C5960 1.524 . S
C5959 C5963 1.400 . S
C5960 H5945 0.960 . S
C5960 H5946 0.960 . S
C5960 H5947 0.960 . S
C5960 C5959 1.524 . S
C5961 C5958 1.403 . S
C5961 C5962 1.392 . S
C5961 C5965 1.495 . S
C5962 C5961 1.392 . S
C5962 C5963 1.385 . S
C5962 C5964 1.478 . S
C5963 H5957 0.930 . S
C5963 C5959 1.400 . S
C5963 C5962 1.385 . S
C5964 C5962 1.478 . S
C5964 C5966 1.381 . S
C5964 C5970 1.383 . S
C5965 C5961 1.495 . S
C5965 H5971 0.959 . S
C5965 H5972 0.961 . S
C5965 H5973 0.960 . S
C5966 C5964 1.381 . S
C5966 C5967 1.394 . S
C5966 H5974 0.930 . S
C5967 C5966 1.394 . S
C5967 C5968 1.383 . S
C5967 H5975 0.929 . S
C5968 C5967 1.383 . S
C5968 C5969 1.377 . S
C5969 H5953 0.930 . S
C5969 C5968 1.377 . S
C5969 C5970 1.379 . S
C5970 H5954 0.931 . S
C5970 C5964 1.383 . S
C5970 C5969 1.379 . S
H5971 C5965 0.959 . S
H5972 C5965 0.961 . S
H5973 C5965 0.960 . S
H5974 C5966 0.930 . S
H5975 C5967 0.929 . S
H5976 C5984 0.929 . S
H5977 C5986 0.930 . S
H5978 C5988 0.930 . S
H5979 C5991 0.929 . S
H5980 C5994 0.930 . S
H5981 C5996 0.960 . S
H5982 C5996 0.960 . S
H5983 C5996 0.960 . S
C5984 H5976 0.929 . S
C5984 C5985 1.377 . S
C5984 C5986 1.384 . S
C5985 C5984 1.377 . S
C5985 C5991 1.390 . S
C5986 H5977 0.930 . S
C5986 C5984 1.384 . S
C5986 C5987 1.372 . S
C5987 C5986 1.372 . S
C5987 C5988 1.400 . S
C5987 C5992 1.490 . S
C5988 H5978 0.930 . S
C5988 C5987 1.400 . S
C5988 C5991 1.386 . S
H5989 C6005 0.930 . S
H5990 C6006 0.931 . S
C5991 H5979 0.929 . S
C5991 C5985 1.390 . S
C5991 C5988 1.386 . S
C5992 C5987 1.490 . S
C5992 C5994 1.395 . S
C5992 C5995 1.403 . S
H5993 C5999 0.930 . S
C5994 H5980 0.930 . S
C5994 C5992 1.395 . S
C5994 C5997 1.403 . S
C5995 C5992 1.403 . S
C5995 C5996 1.524 . S
C5995 C5999 1.400 . S
C5996 H5981 0.960 . S
C5996 H5982 0.960 . S
C5996 H5983 0.960 . S
C5996 C5995 1.524 . S
C5997 C5994 1.403 . S
C5997 C5998 1.392 . S
C5997 C6001 1.495 . S
C5998 C5997 1.392 . S
C5998 C5999 1.385 . S
C5998 C6000 1.478 . S
C5999 H5993 0.930 . S
C5999 C5995 1.400 . S
C5999 C5998 1.385 . S
C6000 C5998 1.478 . S
C6000 C6002 1.381 . S
C6000 C6006 1.383 . S
C6001 C5997 1.495 . S
C6001 H6007 0.959 . S
C6001 H6008 0.961 . S
C6001 H6009 0.960 . S
C6002 C6000 1.381 . S
C6002 C6003 1.394 . S
C6002 H6010 0.930 . S
C6003 C6002 1.394 . S
C6003 C6004 1.383 . S
C6003 H6011 0.929 . S
C6004 C6003 1.383 . S
C6004 C6005 1.377 . S
C6005 H5989 0.930 . S
C6005 C6004 1.377 . S
C6005 C6006 1.379 . S
C6006 H5990 0.931 . S
C6006 C6000 1.383 . S
C6006 C6005 1.379 . S
H6007 C6001 0.959 . S
H6008 C6001 0.961 . S
H6009 C6001 0.960 . S
H6010 C6002 0.930 . S
H6011 C6003 0.929 . S
H6012 C6020 0.929 . S
H6013 C6022 0.930 . S
H6014 C6024 0.930 . S
H6015 C6027 0.929 . S
H6016 C6030 0.930 . S
H6017 C6032 0.960 . S
H6018 C6032 0.960 . S
H6019 C6032 0.960 . S
C6020 H6012 0.929 . S
C6020 C6021 1.377 . S
C6020 C6022 1.384 . S
C6021 C6020 1.377 . S
C6021 C6027 1.390 . S
C6022 H6013 0.930 . S
C6022 C6020 1.384 . S
C6022 C6023 1.372 . S
C6023 C6022 1.372 . S
C6023 C6024 1.400 . S
C6023 C6028 1.490 . S
C6024 H6014 0.930 . S
C6024 C6023 1.400 . S
C6024 C6027 1.386 . S
H6025 C6041 0.930 . S
H6026 C6042 0.931 . S
C6027 H6015 0.929 . S
C6027 C6021 1.390 . S
C6027 C6024 1.386 . S
C6028 C6023 1.490 . S
C6028 C6030 1.395 . S
C6028 C6031 1.403 . S
H6029 C6035 0.930 . S
C6030 H6016 0.930 . S
C6030 C6028 1.395 . S
C6030 C6033 1.403 . S
C6031 C6028 1.403 . S
C6031 C6032 1.524 . S
C6031 C6035 1.400 . S
C6032 H6017 0.960 . S
C6032 H6018 0.960 . S
C6032 H6019 0.960 . S
C6032 C6031 1.524 . S
C6033 C6030 1.403 . S
C6033 C6034 1.392 . S
C6033 C6037 1.495 . S
C6034 C6033 1.392 . S
C6034 C6035 1.385 . S
C6034 C6036 1.478 . S
C6035 H6029 0.930 . S
C6035 C6031 1.400 . S
C6035 C6034 1.385 . S
C6036 C6034 1.478 . S
C6036 C6038 1.381 . S
C6036 C6042 1.383 . S
C6037 C6033 1.495 . S
C6037 H6043 0.959 . S
C6037 H6044 0.961 . S
C6037 H6045 0.960 . S
C6038 C6036 1.381 . S
C6038 C6039 1.394 . S
C6038 H6046 0.930 . S
C6039 C6038 1.394 . S
C6039 C6040 1.383 . S
C6039 H6047 0.929 . S
C6040 C6039 1.383 . S
C6040 C6041 1.377 . S
C6041 H6025 0.930 . S
C6041 C6040 1.377 . S
C6041 C6042 1.379 . S
C6042 H6026 0.931 . S
C6042 C6036 1.383 . S
C6042 C6041 1.379 . S
H6043 C6037 0.959 . S
H6044 C6037 0.961 . S
H6045 C6037 0.960 . S
H6046 C6038 0.930 . S
H6047 C6039 0.929 . S
H6048 C6056 0.929 . S
H6049 C6058 0.930 . S
H6050 C6060 0.930 . S
H6051 C6063 0.929 . S
H6052 C6066 0.930 . S
H6053 C6068 0.960 . S
H6054 C6068 0.960 . S
H6055 C6068 0.960 . S
C6056 H6048 0.929 . S
C6056 C6057 1.377 . S
C6056 C6058 1.384 . S
C6057 C6056 1.377 . S
C6057 C6063 1.390 . S
C6058 H6049 0.930 . S
C6058 C6056 1.384 . S
C6058 C6059 1.372 . S
C6059 C6058 1.372 . S
C6059 C6060 1.400 . S
C6059 C6064 1.490 . S
C6060 H6050 0.930 . S
C6060 C6059 1.400 . S
C6060 C6063 1.386 . S
H6061 C6077 0.930 . S
H6062 C6078 0.931 . S
C6063 H6051 0.929 . S
C6063 C6057 1.390 . S
C6063 C6060 1.386 . S
C6064 C6059 1.490 . S
C6064 C6066 1.395 . S
C6064 C6067 1.403 . S
H6065 C6071 0.930 . S
C6066 H6052 0.930 . S
C6066 C6064 1.395 . S
C6066 C6069 1.403 . S
C6067 C6064 1.403 . S
C6067 C6068 1.524 . S
C6067 C6071 1.400 . S
C6068 H6053 0.960 . S
C6068 H6054 0.960 . S
C6068 H6055 0.960 . S
C6068 C6067 1.524 . S
C6069 C6066 1.403 . S
C6069 C6070 1.392 . S
C6069 C6073 1.495 . S
C6070 C6069 1.392 . S
C6070 C6071 1.385 . S
C6070 C6072 1.478 . S
C6071 H6065 0.930 . S
C6071 C6067 1.400 . S
C6071 C6070 1.385 . S
C6072 C6070 1.478 . S
C6072 C6074 1.381 . S
C6072 C6078 1.383 . S
C6073 C6069 1.495 . S
C6073 H6079 0.959 . S
C6073 H6080 0.961 . S
C6073 H6081 0.960 . S
C6074 C6072 1.381 . S
C6074 C6075 1.394 . S
C6074 H6082 0.930 . S
C6075 C6074 1.394 . S
C6075 C6076 1.383 . S
C6075 H6083 0.929 . S
C6076 C6075 1.383 . S
C6076 C6077 1.377 . S
C6077 H6061 0.930 . S
C6077 C6076 1.377 . S
C6077 C6078 1.379 . S
C6078 H6062 0.931 . S
C6078 C6072 1.383 . S
C6078 C6077 1.379 . S
H6079 C6073 0.959 . S
H6080 C6073 0.961 . S
H6081 C6073 0.960 . S
H6082 C6074 0.930 . S
H6083 C6075 0.929 . S
H6084 C6092 0.929 . S
H6085 C6094 0.930 . S
H6086 C6096 0.930 . S
H6087 C6099 0.929 . S
H6088 C6102 0.930 . S
H6089 C6104 0.960 . S
H6090 C6104 0.960 . S
H6091 C6104 0.960 . S
C6092 H6084 0.929 . S
C6092 C6093 1.377 . S
C6092 C6094 1.384 . S
C6093 C6092 1.377 . S
C6093 C6099 1.390 . S
C6094 H6085 0.930 . S
C6094 C6092 1.384 . S
C6094 C6095 1.372 . S
C6095 C6094 1.372 . S
C6095 C6096 1.400 . S
C6095 C6100 1.490 . S
C6096 H6086 0.930 . S
C6096 C6095 1.400 . S
C6096 C6099 1.386 . S
H6097 C6113 0.930 . S
H6098 C6114 0.931 . S
C6099 H6087 0.929 . S
C6099 C6093 1.390 . S
C6099 C6096 1.386 . S
C6100 C6095 1.490 . S
C6100 C6102 1.395 . S
C6100 C6103 1.403 . S
H6101 C6107 0.930 . S
C6102 H6088 0.930 . S
C6102 C6100 1.395 . S
C6102 C6105 1.403 . S
C6103 C6100 1.403 . S
C6103 C6104 1.524 . S
C6103 C6107 1.400 . S
C6104 H6089 0.960 . S
C6104 H6090 0.960 . S
C6104 H6091 0.960 . S
C6104 C6103 1.524 . S
C6105 C6102 1.403 . S
C6105 C6106 1.392 . S
C6105 C6109 1.495 . S
C6106 C6105 1.392 . S
C6106 C6107 1.385 . S
C6106 C6108 1.478 . S
C6107 H6101 0.930 . S
C6107 C6103 1.400 . S
C6107 C6106 1.385 . S
C6108 C6106 1.478 . S
C6108 C6110 1.381 . S
C6108 C6114 1.383 . S
C6109 C6105 1.495 . S
C6109 H6115 0.959 . S
C6109 H6116 0.961 . S
C6109 H6117 0.960 . S
C6110 C6108 1.381 . S
C6110 C6111 1.394 . S
C6110 H6118 0.930 . S
C6111 C6110 1.394 . S
C6111 C6112 1.383 . S
C6111 H6119 0.929 . S
C6112 C6111 1.383 . S
C6112 C6113 1.377 . S
C6113 H6097 0.930 . S
C6113 C6112 1.377 . S
C6113 C6114 1.379 . S
C6114 H6098 0.931 . S
C6114 C6108 1.383 . S
C6114 C6113 1.379 . S
H6115 C6109 0.959 . S
H6116 C6109 0.961 . S
H6117 C6109 0.960 . S
H6118 C6110 0.930 . S
H6119 C6111 0.929 . S
H6120 C6128 0.926 . S
H6121 C6130 0.930 1_455 S
H6122 C6132 0.930 . S
H6123 C6135 0.929 . S
H6124 C6138 0.930 . S
H6125 C6140 0.960 . S
H6126 C6140 0.960 . S
H6127 C6140 0.960 . S
C6128 H6120 0.926 . S
C6128 C6129 1.377 . S
C6128 C6130 1.384 . S
C6129 C6128 1.377 . S
C6129 C6135 1.390 . S
C6130 H6121 0.930 1_655 S
C6130 C6128 1.384 . S
C6130 C6131 1.372 . S
C6131 C6130 1.372 . S
C6131 C6132 1.400 . S
C6131 C6136 1.490 . S
C6132 H6122 0.930 . S
C6132 C6131 1.400 . S
C6132 C6135 1.386 . S
H6133 C6149 0.930 . S
H6134 C6150 0.931 . S
C6135 H6123 0.929 . S
C6135 C6129 1.390 . S
C6135 C6132 1.386 . S
C6136 C6131 1.490 . S
C6136 C6138 1.395 . S
C6136 C6139 1.403 . S
H6137 C6143 0.930 . S
C6138 H6124 0.930 . S
C6138 C6136 1.395 . S
C6138 C6141 1.403 . S
C6139 C6136 1.403 . S
C6139 C6140 1.524 . S
C6139 C6143 1.400 . S
C6140 H6125 0.960 . S
C6140 H6126 0.960 . S
C6140 H6127 0.960 . S
C6140 C6139 1.524 . S
C6141 C6138 1.403 . S
C6141 C6142 1.392 . S
C6141 C6145 1.495 . S
C6142 C6141 1.392 . S
C6142 C6143 1.385 . S
C6142 C6144 1.478 . S
C6143 H6137 0.930 . S
C6143 C6139 1.400 . S
C6143 C6142 1.385 . S
C6144 C6142 1.478 . S
C6144 C6146 1.381 1_655 S
C6144 C6150 1.383 . S
C6145 C6141 1.495 . S
C6145 H6151 0.959 . S
C6145 H6152 0.961 . S
C6145 H6153 0.960 1_655 S
C6146 C6144 1.381 1_455 S
C6146 C6147 1.394 . S
C6146 H6154 0.930 . S
C6147 C6146 1.394 . S
C6147 C6148 1.383 1_455 S
C6147 H6155 0.929 . S
C6148 C6147 1.383 1_655 S
C6148 C6149 1.377 . S
C6149 H6133 0.930 . S
C6149 C6148 1.377 . S
C6149 C6150 1.379 . S
C6150 H6134 0.931 . S
C6150 C6144 1.383 . S
C6150 C6149 1.379 . S
H6151 C6145 0.959 . S
H6152 C6145 0.961 . S
H6153 C6145 0.960 1_455 S
H6154 C6146 0.930 . S
H6155 C6147 0.929 . S
H6156 C6164 0.929 . S
H6157 C6166 0.930 . S
H6158 C6168 0.930 . S
H6159 C6171 0.929 . S
H6160 C6174 0.930 . S
H6161 C6176 0.960 . S
H6162 C6176 0.960 . S
H6163 C6176 0.960 . S
C6164 H6156 0.929 . S
C6164 C6165 1.377 . S
C6164 C6166 1.384 . S
C6165 C6164 1.377 . S
C6165 C6171 1.390 . S
C6166 H6157 0.930 . S
C6166 C6164 1.384 . S
C6166 C6167 1.372 . S
C6167 C6166 1.372 . S
C6167 C6168 1.400 . S
C6167 C6172 1.490 . S
C6168 H6158 0.930 . S
C6168 C6167 1.400 . S
C6168 C6171 1.386 . S
H6169 C6185 0.930 . S
H6170 C6186 0.931 . S
C6171 H6159 0.929 . S
C6171 C6165 1.390 . S
C6171 C6168 1.386 . S
C6172 C6167 1.490 . S
C6172 C6174 1.395 . S
C6172 C6175 1.403 . S
H6173 C6179 0.930 . S
C6174 H6160 0.930 . S
C6174 C6172 1.395 . S
C6174 C6177 1.403 . S
C6175 C6172 1.403 . S
C6175 C6176 1.524 . S
C6175 C6179 1.400 . S
C6176 H6161 0.960 . S
C6176 H6162 0.960 . S
C6176 H6163 0.960 . S
C6176 C6175 1.524 . S
C6177 C6174 1.403 . S
C6177 C6178 1.392 . S
C6177 C6181 1.495 . S
C6178 C6177 1.392 . S
C6178 C6179 1.385 . S
C6178 C6180 1.478 . S
C6179 H6173 0.930 . S
C6179 C6175 1.400 . S
C6179 C6178 1.385 . S
C6180 C6178 1.478 . S
C6180 C6182 1.381 . S
C6180 C6186 1.383 . S
C6181 C6177 1.495 . S
C6181 H6187 0.959 . S
C6181 H6188 0.961 . S
C6181 H6189 0.960 . S
C6182 C6180 1.381 . S
C6182 C6183 1.394 . S
C6182 H6190 0.930 . S
C6183 C6182 1.394 . S
C6183 C6184 1.383 . S
C6183 H6191 0.929 . S
C6184 C6183 1.383 . S
C6184 C6185 1.377 . S
C6185 H6169 0.930 . S
C6185 C6184 1.377 . S
C6185 C6186 1.379 . S
C6186 H6170 0.931 . S
C6186 C6180 1.383 . S
C6186 C6185 1.379 . S
H6187 C6181 0.959 . S
H6188 C6181 0.961 . S
H6189 C6181 0.960 . S
H6190 C6182 0.930 . S
H6191 C6183 0.929 . S
H6192 C6200 0.929 . S
H6193 C6202 0.930 . S
H6194 C6204 0.930 . S
H6195 C6207 0.929 . S
H6196 C6210 0.930 . S
H6197 C6212 0.960 . S
H6198 C6212 0.960 . S
H6199 C6212 0.960 . S
C6200 H6192 0.929 . S
C6200 C6201 1.377 . S
C6200 C6202 1.384 . S
C6201 C6200 1.377 . S
C6201 C6207 1.390 . S
C6202 H6193 0.930 . S
C6202 C6200 1.384 . S
C6202 C6203 1.372 . S
C6203 C6202 1.372 . S
C6203 C6204 1.400 . S
C6203 C6208 1.490 . S
C6204 H6194 0.930 . S
C6204 C6203 1.400 . S
C6204 C6207 1.386 . S
H6205 C6221 0.944 . S
H6206 C6222 0.900 1_565 S
C6207 H6195 0.929 . S
C6207 C6201 1.390 . S
C6207 C6204 1.386 . S
C6208 C6203 1.490 . S
C6208 C6210 1.395 1_545 S
C6208 C6211 1.403 . S
H6209 C6215 0.930 . S
C6210 H6196 0.930 . S
C6210 C6208 1.395 1_565 S
C6210 C6213 1.403 . S
C6211 C6208 1.403 . S
C6211 C6212 1.524 . S
C6211 C6215 1.400 . S
C6212 H6197 0.960 . S
C6212 H6198 0.960 . S
C6212 H6199 0.960 . S
C6212 C6211 1.524 . S
C6213 C6210 1.403 . S
C6213 C6214 1.392 1_565 S
C6213 C6217 1.495 . S
C6214 C6213 1.392 1_545 S
C6214 C6215 1.385 . S
C6214 C6216 1.478 . S
C6215 H6209 0.930 . S
C6215 C6211 1.400 . S
C6215 C6214 1.385 . S
C6216 C6214 1.478 . S
C6216 C6218 1.381 . S
C6216 C6222 1.391 . S
C6217 C6213 1.495 . S
C6217 H6223 0.959 . S
C6217 H6224 0.961 . S
C6217 H6225 0.960 . S
C6218 C6216 1.381 . S
C6218 C6219 1.394 . S
C6218 H6226 0.930 . S
C6219 C6218 1.394 . S
C6219 C6220 1.391 . S
C6219 H6227 0.929 . S
C6220 C6219 1.391 . S
C6220 C6221 1.332 1_545 S
C6221 H6205 0.944 . S
C6221 C6220 1.332 1_565 S
C6221 C6222 1.411 1_565 S
C6222 H6206 0.900 1_545 S
C6222 C6216 1.391 . S
C6222 C6221 1.411 1_545 S
H6223 C6217 0.959 . S
H6224 C6217 0.961 . S
H6225 C6217 0.960 . S
H6226 C6218 0.930 . S
H6227 C6219 0.929 . S
C3645 C49 1.325 . S
C3664 C2639 1.062 . S
C3681 C137 1.652 . S
C3700 C2779 1.019 . S
C3736 C2867 1.141 . S
C3717 C205 1.405 . S
C3753 C196 1.448 . S
C3772 C3007 1.045 1_565 S
C3789 C57 1.428 . S
C3808 C3121 1.249 . S
C3825 C145 1.653 . S
C3844 C3209 1.289 . S
C3861 C313 1.352 . S
C3880 C3095 1.131 . S
C3916 C3235 1.332 . S
C3897 C401 1.577 . S
C3952 C2981 1.167 . S
C3933 C489 1.429 . S
C3969 C469 1.467 . S
C3988 C2893 1.018 . S
C4024 C2665 1.098 . S
C4005 C293 1.457 . S
C4041 C381 1.579 . S
C4060 C2753 1.385 . S
C4077 C577 1.731 . S
C4096 C3323 1.251 . S
C4113 C645 1.742 . S
C4132 C3463 1.201 . S
C4168 C3551 1.295 . S
C4149 C733 1.649 . S
C4185 C724 1.669 . S
C4204 C1639 1.073 . S
C4221 C585 1.782 . S
C4240 C1753 1.126 . S
C4257 C636 1.753 . S
C4276 C1841 1.314 . S
C4293 C841 1.441 . S
C4312 C1727 1.312 . S
C4329 C937 1.678 . S
C4348 C1867 1.374 . S
C4384 C1613 1.460 . S
C4365 C1025 1.663 . S
C4420 C3577 1.488 . S
C4401 C988 1.794 . S
C4456 C3349 1.291 . S
C4437 C821 1.603 . S
C4492 C3437 1.501 . S
C4473 C900 1.665 . S
C4509 C1105 1.530 . S
C4528 C1955 1.123 . S
C4545 C1193 1.763 . S
C4564 C2095 1.098 . S
C4581 C1281 1.743 . S
C4600 C2183 1.264 . S
C4617 C1289 1.864 . S
C4636 C2323 1.318 . S
C4672 C2437 1.121 . S
C4653 C1113 1.690 . S
C4708 C2525 1.300 . S
C4689 C1201 1.746 . S
C4744 C2411 1.416 . S
C4725 C1369 1.652 . S
C4780 C2551 1.368 . S
C4761 C1457 1.653 . S
C4797 C1553 1.553 . S
C4816 C2297 1.343 . S
C4852 C2209 1.362 . S
C4833 C1516 1.587 . S
C4869 C1349 1.711 . S
C4888 C1981 1.424 . S
C4924 C2069 1.516 . S
C4905 C1437 1.672 . S
C4960 C1595 0.956 . S
C4941 C29 1.841 . S
C4977 C117 1.543 . S
C4996 C1709 0.779 . S
C5032 C1813 1.256 . S
C5013 C225 1.777 . S
C5068 C1927 1.091 . S
C5049 C233 1.610 . S
C5104 C2051 0.986 . S
C5085 C20 1.808 . S
C5140 C2155 1.059 . S
C5121 C108 1.581 . S
C5157 C321 1.959 . S
C5176 C2165 1.555 . S
C5193 C409 1.667 . S
C5212 C1937 1.252 . S
C5229 C497 1.903 . S
C5248 C2041 1.737 . S
C5265 C460 1.739 . S
C5284 C1699 1.538 . S
C5320 C1823 1.470 . S
C5301 C284 1.931 . S
C5337 C372 1.700 . S
C5356 C1585 1.455 . S
C5392 C2279 0.822 . S
C5373 C557 1.640 . S
C5409 C665 1.734 . S
C5428 C2393 0.948 . S
C5445 C753 1.704 . S
C5464 C2497 1.216 . S
C5500 C2611 0.774 . S
C5481 C761 0.854 . S
C5517 C548 1.540 . S
C5536 C2735 0.757 . S
C5553 C673 1.015 . S
C5572 C2839 0.827 . S
C5589 C849 1.139 . S
C5608 C2849 0.684 1_565 S
C5625 C929 1.011 . S
C5644 C2621 0.731 1_455 S
C5680 C2725 1.478 . S
C5661 C1017 1.639 . S
C5697 C997 1.561 . S
C5716 C2383 1.340 . S
C5733 C812 1.829 . S
C5752 C2507 1.453 . S
C5788 C2269 1.676 . S
C5769 C909 1.865 . S
C5824 C2963 0.665 . S
C5805 C1085 1.119 . S
C5841 C1173 0.980 . S
C5860 C3077 0.685 . S
C5877 C1261 1.524 . S
C5896 C3181 1.114 . S
C5932 C3295 0.983 . S
C5913 C1252 1.427 . S
C5968 C3419 0.939 . S
C5949 C1076 1.731 . S
C5985 C1164 1.754 . S
C6004 C3523 1.219 . S
C6021 C1377 1.769 . S
C6040 C3533 1.378 . S
C6057 C1465 1.840 . S
C6076 C3305 1.450 . S
C6112 C3409 1.569 . S
C6093 C1545 1.814 . S
C6148 C3067 0.879 1_655 S
C6129 C1525 0.867 . S
C6184 C3191 1.281 . S
C6165 C1340 1.659 . S
C6201 C1428 1.045 . S
C6220 C2953 0.826 1_545 S
