# Generated by pormake.
# Topology pyr, (3,6)-cn, num edge types: 1
# Building blocks:
#     Node 0, Type 0, BuildingBlock: BETDIP_clean_linker_0, # of connection points: 3
#     Node 1, Type 0, BuildingBlock: BETDIP_clean_linker_0, # of connection points: 3
#     Node 2, Type 0, BuildingBlock: BETDIP_clean_linker_0, # of connection points: 3
#     Node 3, Type 0, BuildingBlock: BETDIP_clean_linker_0, # of connection points: 3
#     Node 4, Type 0, BuildingBlock: BETDIP_clean_linker_0, # of connection points: 3
#     Node 5, Type 0, BuildingBlock: BETDIP_clean_linker_0, # of connection points: 3
#     Node 6, Type 0, BuildingBlock: BETDIP_clean_linker_0, # of connection points: 3
#     Node 7, Type 0, BuildingBlock: BETDIP_clean_linker_0, # of connection points: 3
#     Node 8, Type 1, BuildingBlock: BETDAH_clean_sbu_0, # of connection points: 6
#     Node 9, Type 1, BuildingBlock: BETDAH_clean_sbu_0, # of connection points: 6
#     Node 10, Type 1, BuildingBlock: BETDAH_clean_sbu_0, # of connection points: 6
#     Node 11, Type 1, BuildingBlock: BETDAH_clean_sbu_0, # of connection points: 6
#     Edge 12, Type (0, 1), BuildingBlock: OJICUG_clean_linker_0, # of connection points: 2
#     Edge 13, Type (0, 1), BuildingBlock: OJICUG_clean_linker_0, # of connection points: 2
#     Edge 14, Type (0, 1), BuildingBlock: OJICUG_clean_linker_0, # of connection points: 2
#     Edge 15, Type (0, 1), BuildingBlock: OJICUG_clean_linker_0, # of connection points: 2
#     Edge 16, Type (0, 1), BuildingBlock: OJICUG_clean_linker_0, # of connection points: 2
#     Edge 17, Type (0, 1), BuildingBlock: OJICUG_clean_linker_0, # of connection points: 2
#     Edge 18, Type (0, 1), BuildingBlock: OJICUG_clean_linker_0, # of connection points: 2
#     Edge 19, Type (0, 1), BuildingBlock: OJICUG_clean_linker_0, # of connection points: 2
#     Edge 20, Type (0, 1), BuildingBlock: OJICUG_clean_linker_0, # of connection points: 2
#     Edge 21, Type (0, 1), BuildingBlock: OJICUG_clean_linker_0, # of connection points: 2
#     Edge 22, Type (0, 1), BuildingBlock: OJICUG_clean_linker_0, # of connection points: 2
#     Edge 23, Type (0, 1), BuildingBlock: OJICUG_clean_linker_0, # of connection points: 2
#     Edge 24, Type (0, 1), BuildingBlock: OJICUG_clean_linker_0, # of connection points: 2
#     Edge 25, Type (0, 1), BuildingBlock: OJICUG_clean_linker_0, # of connection points: 2
#     Edge 26, Type (0, 1), BuildingBlock: OJICUG_clean_linker_0, # of connection points: 2
#     Edge 27, Type (0, 1), BuildingBlock: OJICUG_clean_linker_0, # of connection points: 2
#     Edge 28, Type (0, 1), BuildingBlock: OJICUG_clean_linker_0, # of connection points: 2
#     Edge 29, Type (0, 1), BuildingBlock: OJICUG_clean_linker_0, # of connection points: 2
#     Edge 30, Type (0, 1), BuildingBlock: OJICUG_clean_linker_0, # of connection points: 2
#     Edge 31, Type (0, 1), BuildingBlock: OJICUG_clean_linker_0, # of connection points: 2
#     Edge 32, Type (0, 1), BuildingBlock: OJICUG_clean_linker_0, # of connection points: 2
#     Edge 33, Type (0, 1), BuildingBlock: OJICUG_clean_linker_0, # of connection points: 2
#     Edge 34, Type (0, 1), BuildingBlock: OJICUG_clean_linker_0, # of connection points: 2
#     Edge 35, Type (0, 1), BuildingBlock: OJICUG_clean_linker_0, # of connection points: 2
# Relax obj value: 0.191
# Max RMSD: 0.180
# Mean RMSD: 0.139
data_MOF--net-pyr--node1-BETDAH_clean_sbu_0--node2-BETDIP_clean_linker_0--edge1-OJICUG_clean_linker_0
_symmetry_space_group_name_H-M    P1
_symmetry_Int_Tables_number       1
_symmetry_cell_setting            triclinic
loop_
_symmetry_equiv_pos_as_xyz
'x, y, z'
_cell_length_a     27.505916
_cell_length_b     29.701975
_cell_length_c     28.386685
_cell_angle_alpha  93.658464
_cell_angle_beta   85.796416
_cell_angle_gamma 108.31824
loop_
_atom_site_label
_atom_site_type_symbol
_atom_site_fract_x
_atom_site_fract_y
_atom_site_fract_z
_atom_type_partial_charge
H0 H 0.33875 0.35569 0.21468 0.0
H1 H 0.45712 0.31289 0.13434 0.0
H2 H 0.34471 0.2141 0.22259 0.0
H3 H 0.42923 0.45888 0.16454 0.0
C4 C 0.40137 0.42408 0.159 0.0
C5 C 0.35708 0.32913 0.20375 0.0
C6 C 0.33613 0.28337 0.22061 0.0
C7 C 0.40003 0.33958 0.1715 0.0
C8 C 0.42392 0.30465 0.15907 0.0
C9 C 0.40454 0.25911 0.1775 0.0
C10 C 0.36041 0.24898 0.20812 0.0
N11 N 0.42091 0.3849 0.1515 0.0
H12 H 0.14745 0.87539 0.71821 0.0
H13 H 0.23618 0.84424 0.59644 0.0
H14 H 0.2807 0.83243 0.73491 0.0
H15 H 0.17815 0.86124 0.5536 0.0
C16 C 0.16664 0.88672 0.57727 0.0
C17 C 0.17874 0.86314 0.70345 0.0
C18 C 0.21233 0.85336 0.73342 0.0
C19 C 0.18729 0.86073 0.65417 0.0
C20 C 0.2283 0.84571 0.6343 0.0
C21 C 0.26139 0.83498 0.66374 0.0
C22 C 0.25323 0.83881 0.71285 0.0
N23 N 0.15801 0.87959 0.62653 0.0
H24 H 0.73125 0.44382 0.8555 0.0
H25 H 0.60621 0.31161 0.85194 0.0
H26 H 0.71946 0.33663 0.95564 0.0
H27 H 0.67559 0.47168 0.81091 0.0
C28 C 0.65229 0.44216 0.7897 0.0
C29 C 0.71098 0.40964 0.86978 0.0
C30 C 0.73233 0.39381 0.90812 0.0
C31 C 0.66492 0.38053 0.84852 0.0
C32 C 0.64063 0.33437 0.86759 0.0
C33 C 0.65915 0.3177 0.90711 0.0
C34 C 0.70472 0.34855 0.92614 0.0
N35 N 0.64311 0.39472 0.80764 0.0
H36 H 0.80784 0.63861 0.36545 0.0
H37 H 0.93792 0.76465 0.34671 0.0
H38 H 0.82884 0.75728 0.4653 0.0
H39 H 0.95712 0.72468 0.27881 0.0
C40 C 0.93166 0.6885 0.27566 0.0
C41 C 0.82945 0.6743 0.37709 0.0
C42 C 0.81251 0.6948 0.41873 0.0
C43 C 0.87456 0.69836 0.3505 0.0
C44 C 0.90314 0.7453 0.3662 0.0
C45 C 0.88712 0.7668 0.40843 0.0
C46 C 0.84192 0.74083 0.43381 0.0
N47 N 0.88906 0.67287 0.30951 0.0
H48 H 0.60147 0.78836 0.9481 0.0
H49 H 0.7213 0.7523 0.86322 0.0
H50 H 0.71476 0.89444 0.86756 0.0
H51 H 0.63279 0.64517 0.90058 0.0
C52 C 0.65858 0.67947 0.91172 0.0
C53 C 0.63523 0.79871 0.92415 0.0
C54 C 0.65492 0.84587 0.90974 0.0
C55 C 0.65932 0.76473 0.90832 0.0
C56 C 0.70292 0.778 0.87699 0.0
C57 C 0.72378 0.82501 0.86351 0.0
C58 C 0.69936 0.85848 0.87947 0.0
N59 N 0.6374 0.71719 0.9228 0.0
H60 H 0.91117 0.23586 0.37115 0.0
H61 H 0.82195 0.26379 0.49381 0.0
H62 H 0.77728 0.2786 0.35625 0.0
H63 H 0.87495 0.23904 0.5355 0.0
C64 C 0.88871 0.21624 0.51017 0.0
C65 C 0.87955 0.24746 0.38617 0.0
C66 C 0.84576 0.25749 0.35659 0.0
C67 C 0.87062 0.24821 0.4354 0.0
C68 C 0.82978 0.26311 0.45593 0.0
C69 C 0.79696 0.27498 0.42702 0.0
C70 C 0.8049 0.27182 0.3778 0.0
N71 N 0.89934 0.22774 0.46197 0.0
H72 H 0.31771 0.65111 0.22642 0.0
H73 H 0.44722 0.77853 0.24204 0.0
H74 H 0.338 0.76755 0.13631 0.0
H75 H 0.4477 0.74121 0.32224 0.0
C76 C 0.43312 0.70298 0.31622 0.0
C77 C 0.33931 0.68643 0.21553 0.0
C78 C 0.32079 0.70625 0.17863 0.0
C79 C 0.38451 0.71135 0.23992 0.0
C80 C 0.41247 0.75878 0.225 0.0
C81 C 0.39647 0.7797 0.18633 0.0
C82 C 0.35066 0.75236 0.16486 0.0
N83 N 0.40018 0.68576 0.27636 0.0
H84 H 0.11413 0.3278 0.73202 0.0
H85 H 0.23947 0.45922 0.72426 0.0
H86 H 0.23079 0.34727 0.61874 0.0
H87 H 0.21322 0.47586 0.79548 0.0
C88 C 0.17367 0.45564 0.80416 0.0
C89 C 0.14938 0.34951 0.71477 0.0
C90 C 0.16912 0.33171 0.67247 0.0
C91 C 0.17405 0.39557 0.73455 0.0
C92 C 0.22013 0.42364 0.7111 0.0
C93 C 0.24088 0.40671 0.66903 0.0
C94 C 0.21474 0.36091 0.6504 0.0
N95 N 0.15072 0.41271 0.77658 0.0
Ho96 Ho 0.03368 0.07176 0.48948 0.0
Ho97 Ho 0.02534 1.02847 0.58657 0.0
C98 C 0.07771 0.14128 0.5828 0.0
C99 C 0.03064 0.1217 0.41906 0.0
C100 C 0.06932 0.15917 0.39362 0.0
C101 C 0.0612 0.16816 0.34754 0.0
C102 C 0.10142 0.19705 0.31966 0.0
C103 C 0.15028 0.21716 0.33758 0.0
C104 C 0.15717 0.21074 0.38497 0.0
C105 C 0.11697 0.18172 0.41277 0.0
C106 C 0.11273 0.04091 0.50851 0.0
C107 C 0.98221 0.95887 0.49308 0.0
C108 C 0.02892 0.97911 0.65723 0.0
C109 C 0.98958 0.94376 0.68446 0.0
C110 C 0.99739 0.93746 0.73143 0.0
C111 C 0.95668 0.91108 0.76059 0.0
C112 C 0.90768 0.89077 0.74305 0.0
C113 C 0.90093 0.89464 0.69504 0.0
C114 C 0.94158 0.92118 0.66598 0.0
C115 C 0.94621 0.05952 0.56844 0.0
O116 O 0.0602 0.13739 0.53972 0.0
O117 O 0.07616 0.10288 0.60515 0.0
O118 O 0.03775 0.08016 0.41422 0.0
O119 O 1.01866 0.13244 0.46279 0.0
O120 O 0.09793 0.04134 0.46633 0.0
O121 O 0.08857 0.06154 0.53662 0.0
O122 O 1.00024 0.96308 0.53596 0.0
O123 O 0.98305 0.99714 0.4708 0.0
O124 O 0.02474 1.02177 0.66183 0.0
O125 O 0.03817 0.96675 0.6133 0.0
O126 O 0.96062 0.05776 0.6105 0.0
O127 O 0.97034 1.03925 0.53977 0.0
H128 H 0.02459 0.1509 0.33233 0.0
H129 H 0.09503 0.20182 0.28335 0.0
H130 H 0.1945 0.22536 0.39955 0.0
H131 H 0.12389 0.17479 0.4483 0.0
H132 H 0.03421 0.9549 0.74618 0.0
H133 H 0.96296 0.9082 0.79736 0.0
H134 H 0.8635 0.8798 0.68071 0.0
H135 H 0.93483 0.92618 0.62982 0.0
Ho136 Ho 0.56641 0.05702 0.07497 0.0
Ho137 Ho 0.49072 0.04275 1.02342 0.0
C138 C 0.49317 0.11142 0.11305 0.0
C139 C 0.6546 0.06964 0.10975 0.0
C140 C 0.69818 0.10331 0.13276 0.0
C141 C 0.71866 0.15099 0.12083 0.0
C142 C 0.75848 0.18194 0.14632 0.0
C143 C 0.77782 0.1656 0.18424 0.0
C144 C 0.75797 0.11721 0.19441 0.0
C145 C 0.71892 0.08654 0.1688 0.0
C146 C 0.49158 0.9751 0.10706 0.0
C147 C 0.56453 0.98941 0.98429 0.0
C148 C 0.40249 1.03069 0.98876 0.0
C149 C 0.36002 0.999 0.96257 0.0
C150 C 0.33525 0.95161 0.97387 0.0
C151 C 0.29581 0.92303 0.94637 0.0
C152 C 0.28095 0.94146 0.90718 0.0
C153 C 0.3052 0.98947 0.89738 0.0
C154 C 0.34392 1.01782 0.9249 0.0
C155 C 0.56629 0.12395 0.99088 0.0
O156 O 0.54258 0.11819 0.10763 0.0
O157 O 0.46314 0.07489 0.09004 0.0
O158 O 0.61114 0.05761 0.13457 0.0
O159 O 0.64909 0.07451 0.06536 0.0
O160 O 0.51555 1.01181 0.1327 0.0
O161 O 0.50489 0.98535 0.06391 0.0
O162 O 0.51506 0.98254 0.98916 0.0
O163 O 0.59433 1.02531 1.00831 0.0
O164 O 0.4463 0.04655 0.96505 0.0
O165 O 0.40759 1.02142 0.03204 0.0
O166 O 0.54206 0.08711 0.96549 0.0
O167 O 0.55261 0.11422 0.03408 0.0
H168 H 0.70321 0.16445 0.09274 0.0
H169 H 0.77304 0.21879 0.13715 0.0
H170 H 0.77035 0.1031 0.22394 0.0
H171 H 0.70361 0.04975 0.17832 0.0
H172 H 0.34684 0.93654 1.00323 0.0
H173 H 0.2778 0.88636 0.9552 0.0
H174 H 0.29625 1.00497 0.86696 0.0
H175 H 0.36238 0.05444 0.91588 0.0
Ho176 Ho 0.52516 0.51475 0.51792 0.0
Ho177 Ho 0.53193 0.59499 0.57877 0.0
C178 C 0.56834 0.51533 0.62646 0.0
C179 C 0.54333 0.44637 0.46561 0.0
C180 C 0.57044 0.4115 0.46894 0.0
C181 C 0.59306 0.40778 0.51064 0.0
C182 C 0.6243 0.37874 0.51119 0.0
C183 C 0.63326 0.35299 0.47 0.0
C184 C 0.60861 0.35536 0.42891 0.0
C185 C 0.57752 0.38443 0.42844 0.0
C186 C 0.43368 0.50736 0.56566 0.0
C187 C 0.49089 0.59629 0.47009 0.0
C188 C 0.51343 0.66315 0.63113 0.0
C189 C 0.48753 0.69876 0.62692 0.0
C190 C 0.466 0.70262 0.58467 0.0
C191 C 0.43551 0.73214 0.58308 0.0
C192 C 0.42608 0.75817 0.62384 0.0
C193 C 0.4498 0.75584 0.66552 0.0
C194 C 0.48025 0.7263 0.66699 0.0
C195 C 0.62273 0.60215 0.53006 0.0
O196 O 0.56245 0.49515 0.58278 0.0
O197 O 0.55646 0.55522 0.6347 0.0
O198 O 0.50177 0.44103 0.49282 0.0
O199 O 0.57248 0.4905 0.46472 0.0
O200 O 0.43943 0.49746 0.52084 0.0
O201 O 0.4775 0.52208 0.58297 0.0
O202 O 0.49668 0.61573 0.51395 0.0
O203 O 0.50163 0.55576 0.46145 0.0
O204 O 0.55583 0.66824 0.60526 0.0
O205 O 0.48349 0.61926 0.63079 0.0
O206 O 0.6179 0.61267 0.57486 0.0
O207 O 0.57868 0.5875 0.51346 0.0
H208 H 0.58794 0.42828 0.54231 0.0
H209 H 0.64239 0.37731 0.54346 0.0
H210 H 0.61534 0.33662 0.39634 0.0
H211 H 0.56055 0.38713 0.39588 0.0
H212 H 0.4712 0.6817 0.55341 0.0
H213 H 0.41813 0.73353 0.55039 0.0
H214 H 0.44267 0.77486 0.69777 0.0
H215 H 0.4964 0.72351 0.69998 0.0
Ho216 Ho 0.02645 0.51108 0.06152 0.0
Ho217 Ho 0.03022 0.59742 1.01714 0.0
C218 C 0.12751 0.60579 0.07868 0.0
C219 C 0.05191 0.43942 0.08653 0.0
C220 C 0.10007 0.43308 0.10098 0.0
C221 C 0.12511 0.40685 0.07097 0.0
C222 C 0.1725 0.40318 0.0818 0.0
C223 C 0.19595 0.42525 0.12332 0.0
C224 C 0.16996 0.45034 0.1541 0.0
C225 C 0.12276 0.4544 0.14298 0.0
C226 C 0.98149 0.5675 0.11768 0.0
C227 C 0.92865 0.50125 1.00106 0.0
C228 C 1.00656 0.6697 0.99071 0.0
C229 C 0.96071 0.67532 0.97092 0.0
C230 C 0.92573 0.63693 0.94781 0.0
C231 C 0.87868 0.64016 0.93546 0.0
C232 C 0.86579 0.68236 0.9449 0.0
C233 C 0.90241 0.72162 0.96594 0.0
C234 C 0.94907 0.71792 0.97922 0.0
C235 C 0.08066 0.54496 0.96294 0.0
O236 O 0.10816 0.55868 0.07805 0.0
O237 O 0.10175 0.63049 0.05948 0.0
O238 O 0.02884 0.46322 0.11549 0.0
O239 O 0.05265 0.45057 0.04271 0.0
O240 O 0.96333 0.52137 0.11387 0.0
O241 O 1.02261 0.58059 0.09201 0.0
O242 O 0.94902 0.54822 0.99927 0.0
O243 O 0.95334 0.47718 1.0224 0.0
O244 O 0.0333 0.64766 0.96381 0.0
O245 O 0.99955 0.65561 0.03401 0.0
O246 O 0.09684 0.59092 0.9691 0.0
O247 O 0.03764 0.52898 0.9858 0.0
H248 H 0.10855 0.39002 0.03835 0.0
H249 H 0.19135 0.38417 0.05678 0.0
H250 H 0.18612 0.46708 0.18685 0.0
H251 H 0.1045 0.4748 0.167 0.0
H252 H 0.93411 0.60389 0.94046 0.0
H253 H 0.85184 0.60876 0.91999 0.0
H254 H 0.89498 0.75519 0.97276 0.0
H255 H 0.97562 0.74809 0.99693 0.0
C256 C 0.27983 0.29559 0.29068 0.0
C257 C 0.28695 0.26995 0.24889 0.0
H258 H 0.23028 0.29894 0.35197 0.0
C259 C 0.24724 0.22977 0.23455 0.0
H260 H 0.31003 0.32678 0.30225 0.0
C261 C 0.20187 0.21425 0.2624 0.0
C262 C 0.19537 0.23841 0.30538 0.0
H263 H 0.25175 0.20979 0.20213 0.0
H264 H 0.1728 0.18199 0.25128 0.0
C265 C 0.23444 0.27966 0.31901 0.0
C266 C 0.23134 0.84265 0.81654 0.0
C267 C 0.21131 0.86614 0.78504 0.0
H268 H 0.27053 0.84853 0.87984 0.0
C269 C 0.2006 0.90789 0.80145 0.0
H270 H 0.23776 0.80917 0.80609 0.0
C271 C 0.21702 0.9293 0.84512 0.0
C272 C 0.24607 0.91037 0.87236 0.0
H273 H 0.18438 0.92685 0.77894 0.0
H274 H 0.21135 0.96316 0.85521 0.0
C275 C 0.24945 0.86494 0.85946 0.0
C276 C 0.60877 0.42824 0.70637 0.0
C277 C 0.62743 0.45692 0.74735 0.0
H278 H 0.57726 0.42275 0.63711 0.0
C279 C 0.62593 0.50428 0.74673 0.0
H280 H 0.60924 0.39186 0.70379 0.0
C281 C 0.60685 0.52194 0.70868 0.0
C282 C 0.58885 0.49404 0.66735 0.0
H283 H 0.63986 0.52851 0.77645 0.0
H284 H 0.60699 0.55851 0.71162 0.0
C285 C 0.59049 0.44642 0.66735 0.0
C286 C 0.98379 0.67496 0.20178 0.0
C287 C 0.94246 0.65668 0.23487 0.0
H288 H 0.02805 0.6621 0.13963 0.0
C289 C 0.91302 0.60855 0.22826 0.0
H290 H 1.00742 0.7117 0.20539 0.0
C291 C 0.925 0.57978 0.19018 0.0
C292 C 0.96672 0.59817 0.15736 0.0
H293 H 0.88089 0.59289 0.25271 0.0
H294 H 0.90175 0.54293 0.18669 0.0
C295 C 0.99564 0.64638 0.16381 0.0
C296 C 0.48189 0.23078 0.15949 0.0
C297 C 0.42829 0.22112 0.16346 0.0
H298 H 0.54476 0.20337 0.14146 0.0
C299 C 0.39688 0.17438 0.15402 0.0
H300 H 0.50716 0.26628 0.167 0.0
C301 C 0.41827 0.13846 0.14019 0.0
C302 C 0.47172 0.1482 0.13511 0.0
H303 H 0.3555 0.16564 0.15601 0.0
H304 H 0.39269 0.10323 0.13207 0.0
C305 C 0.50341 0.19461 0.14555 0.0
C306 C 0.15695 0.9675 0.58832 0.0
C307 C 0.15807 0.92843 0.55816 0.0
H308 H 0.14327 1.03467 0.59547 0.0
C309 C 0.15054 0.9294 0.50994 0.0
H310 H 0.16377 0.96823 0.6255 0.0
C311 C 0.13858 0.96755 0.49275 0.0
C312 C 0.13461 1.00531 0.52362 0.0
H313 H 0.15192 0.89988 0.48599 0.0
H314 H 0.13021 0.96646 0.45592 0.0
C315 C 0.14571 1.00575 0.57108 0.0
C316 C 0.80084 0.47303 0.93532 0.0
C317 C 0.78372 0.42277 0.93006 0.0
H318 H 0.8574 0.53654 0.96176 0.0
C319 C 0.816 0.39963 0.94817 0.0
H320 H 0.77808 0.4931 0.92263 0.0
C321 C 0.86157 0.42474 0.97106 0.0
C322 C 0.87833 0.47475 0.97696 0.0
H323 H 0.80648 0.36141 0.94438 0.0
H324 H 0.88411 0.40452 0.98387 0.0
C325 C 0.84685 0.4983 0.95823 0.0
C326 C 0.76235 0.67083 0.49674 0.0
C327 C 0.7643 0.66833 0.44691 0.0
H328 H 0.71717 0.65167 0.56154 0.0
C329 C 0.71943 0.64135 0.42463 0.0
H330 H 0.79606 0.6904 0.51543 0.0
C331 C 0.67382 0.61891 0.45133 0.0
C332 C 0.67183 0.62249 0.50111 0.0
H333 H 0.71906 0.63867 0.38643 0.0
H334 H 0.63983 0.59948 0.43296 0.0
C335 C 0.71701 0.64822 0.52333 0.0
C336 C 0.31317 0.38297 0.12815 0.0
C337 C 0.34799 0.42231 0.15048 0.0
H338 H 0.23749 0.35213 0.10377 0.0
C339 C 0.3325 0.46228 0.16377 0.0
H340 H 0.32413 0.35196 0.11642 0.0
C341 C 0.28335 0.46304 0.15531 0.0
C342 C 0.24799 0.42359 0.13352 0.0
H343 H 0.35876 0.49337 0.18046 0.0
H344 H 0.27359 0.49512 0.16502 0.0
C345 C 0.26357 0.38341 0.12026 0.0
C346 C 0.63294 0.26114 0.9782 0.0
C347 C 0.63285 0.26819 0.92895 0.0
H348 H 0.61305 0.21295 0.03598 0.0
C349 C 0.60964 0.22656 0.90124 0.0
H350 H 0.64927 0.29127 1.00192 0.0
C351 C 0.58898 0.18092 0.92123 0.0
C352 C 0.58952 0.17396 0.97028 0.0
H353 H 0.60844 0.22888 0.86347 0.0
H354 H 0.57236 0.15064 0.89773 0.0
C355 C 0.61174 0.21555 0.99825 0.0
C356 C 0.92728 0.82308 0.4762 0.0
C357 C 0.91638 0.81592 0.42795 0.0
H358 H 0.9562 0.87226 0.53402 0.0
C359 C 0.9288 0.85657 0.40079 0.0
H360 H 0.91836 0.79292 0.49847 0.0
C361 C 0.94985 0.90273 0.42162 0.0
C362 C 0.95995 0.90977 0.47015 0.0
H363 H 0.92056 0.85282 0.36376 0.0
H364 H 0.95804 0.93299 0.39961 0.0
C365 C 0.94896 0.86891 0.49676 0.0
C366 C 0.29936 0.78044 0.61475 0.0
C367 C 0.30615 0.82134 0.64425 0.0
H368 H 0.33243 0.72795 0.58532 0.0
C369 C 0.3549 0.8455 0.66054 0.0
H370 H 0.26197 0.76128 0.60197 0.0
C371 C 0.39528 0.82681 0.65083 0.0
C372 C 0.38744 0.78349 0.62491 0.0
H373 H 0.36101 0.87754 0.68287 0.0
H374 H 0.4319 0.84501 0.6656 0.0
C375 C 0.33974 0.76153 0.60521 0.0
C376 C 0.81143 0.88081 0.84665 0.0
C377 C 0.77199 0.83975 0.8337 0.0
H378 H 0.88532 0.92883 0.82818 0.0
C379 C 0.77877 0.81352 0.79217 0.0
H380 H 0.80737 0.9013 0.87883 0.0
C381 C 0.82362 0.82914 0.76321 0.0
C382 C 0.86257 0.87089 0.77567 0.0
H383 H 0.74883 0.78173 0.78145 0.0
H384 H 0.8276 0.80898 0.73079 0.0
C385 C 0.8563 0.89616 0.818 0.0
C386 C 0.86059 0.20488 0.28771 0.0
C387 C 0.84655 0.24485 0.3048 0.0
H388 H 0.85316 0.15027 0.23366 0.0
C389 C 0.82365 0.26633 0.27376 0.0
H390 H 0.87924 0.18743 0.3095 0.0
C391 C 0.80572 0.24305 0.23116 0.0
C392 C 0.81243 0.19888 0.21791 0.0
H393 H 0.81501 0.29879 0.28427 0.0
H394 H 0.78231 0.2575 0.2114 0.0
C395 C 0.84465 0.18281 0.2442 0.0
C396 C 0.44097 0.62366 0.34979 0.0
C397 C 0.44474 0.6726 0.35495 0.0
H398 H 0.45243 0.56208 0.37941 0.0
C399 C 0.46326 0.69481 0.39884 0.0
H400 H 0.42764 0.60425 0.3172 0.0
C401 C 0.47677 0.6703 0.43517 0.0
C402 C 0.47393 0.62172 0.43015 0.0
H403 H 0.46753 0.73213 0.40541 0.0
H404 H 0.49068 0.69027 0.46732 0.0
C405 C 0.45564 0.59916 0.38607 0.0
C406 C 0.17385 0.52057 0.86539 0.0
C407 C 0.14736 0.47562 0.84544 0.0
H408 H 0.1742 0.5767 0.91685 0.0
C409 C 0.09806 0.4522 0.86573 0.0
H410 H 0.21183 0.53986 0.85116 0.0
C411 C 0.07628 0.47356 0.90457 0.0
C412 C 0.103 0.51907 0.92375 0.0
H413 H 0.07636 0.41752 0.8517 0.0
H414 H 0.03826 0.45482 0.91904 0.0
C415 C 0.15216 0.54185 0.9034 0.0
C416 C 0.57706 0.87281 0.93047 0.0
C417 C 0.6307 0.88271 0.927 0.0
H418 H 0.51374 0.89914 0.95039 0.0
C419 C 0.66175 0.92873 0.93973 0.0
H420 H 0.55207 0.83788 0.92045 0.0
C421 C 0.63998 0.96374 0.95603 0.0
C422 C 0.58647 0.95376 0.96041 0.0
H423 H 0.70314 0.93756 0.9382 0.0
H424 H 0.6653 0.99842 0.96643 0.0
C425 C 0.55513 0.90806 0.94694 0.0
C426 C 0.9048 0.1695 0.57397 0.0
C427 C 0.8985 0.17374 0.52607 0.0
H428 H 0.92498 0.12947 0.62522 0.0
C429 C 0.90195 0.13721 0.49329 0.0
H430 H 0.9016 0.19696 0.59991 0.0
C431 C 0.91408 0.09823 0.50782 0.0
C432 C 0.92401 0.09564 0.55511 0.0
H433 H 0.89608 0.139 0.45622 0.0
H434 H 0.91799 0.07121 0.48164 0.0
C435 C 0.91779 0.13081 0.58841 0.0
C436 C 0.25197 0.62948 0.14754 0.0
C437 C 0.27058 0.67966 0.1537 0.0
H438 H 0.19446 0.56747 0.11982 0.0
C439 C 0.2406 0.70454 0.13457 0.0
H440 H 0.27291 0.60807 0.16082 0.0
C441 C 0.19556 0.681 0.11021 0.0
C442 C 0.17731 0.63107 0.10377 0.0
H443 H 0.25132 0.74279 0.13889 0.0
H444 H 0.17457 0.70232 0.09676 0.0
C445 C 0.20657 0.60587 0.12331 0.0
C446 C 0.33347 0.46226 0.66792 0.0
C447 C 0.28959 0.43643 0.64356 0.0
H448 H 0.41326 0.50469 0.66296 0.0
C449 C 0.29329 0.43731 0.59382 0.0
H450 H 0.33241 0.46243 0.70614 0.0
C451 C 0.33937 0.46162 0.56923 0.0
C452 C 0.38377 0.48586 0.59331 0.0
H453 H 0.26042 0.41873 0.57361 0.0
H454 H 0.34042 0.46049 0.53097 0.0
C455 C 0.37997 0.48645 0.64314 0.0
C456 C 0.73616 0.65476 0.89053 0.0
C457 C 0.71258 0.68307 0.91905 0.0
H458 H 0.80335 0.63435 0.87398 0.0
C459 C 0.7401 0.71292 0.95485 0.0
H460 H 0.71578 0.63175 0.86239 0.0
C461 C 0.78992 0.71327 0.96286 0.0
C462 C 0.8138 0.68449 0.93457 0.0
H463 H 0.72254 0.73483 0.97764 0.0
H464 H 0.80889 0.7351 0.99225 0.0
C465 C 0.78635 0.65602 0.8976 0.0
C466 C 0.4282 0.83742 0.11699 0.0
C467 C 0.42536 0.82958 0.16633 0.0
H468 H 0.44993 0.88651 0.06008 0.0
C469 C 0.44615 0.87089 0.19529 0.0
H470 H 0.41376 0.80755 0.09242 0.0
C471 C 0.46696 0.91705 0.1762 0.0
C472 C 0.46874 0.92474 0.127 0.0
H473 H 0.44498 0.86788 0.23319 0.0
H474 H 0.48156 0.94715 0.20049 0.0
C475 C 0.44926 0.8834 0.09794 0.0
C476 C 0.12703 0.24188 0.67717 0.0
C477 C 0.14294 0.28291 0.65039 0.0
H478 H 0.09531 0.16567 0.67729 0.0
C479 C 0.13637 0.27662 0.60126 0.0
H480 H 0.1317 0.24494 0.7149 0.0
C481 C 0.11497 0.23118 0.57967 0.0
C482 C 0.1002 0.19 0.60618 0.0
H483 H 0.1478 0.30712 0.57927 0.0
H484 H 0.11072 0.22832 0.54186 0.0
C485 C 0.1065 0.19621 0.65539 0.0
C486 C 0.75998 0.32977 0.47692 0.0
C487 C 0.75258 0.28897 0.44714 0.0
H488 H 0.72766 0.38247 0.50734 0.0
C489 C 0.70356 0.26531 0.4312 0.0
H490 H 0.7976 0.34859 0.48942 0.0
C491 C 0.66349 0.28429 0.44165 0.0
C492 C 0.67188 0.32748 0.46794 0.0
H493 H 0.69696 0.23338 0.40862 0.0
H494 H 0.62661 0.26637 0.42723 0.0
C495 C 0.7199 0.34901 0.48717 0.0
loop_
_geom_bond_atom_site_label_1
_geom_bond_atom_site_label_2
_geom_bond_distance
_geom_bond_site_symmetry_2
_ccdc_geom_bond_type
H0 C5 0.930 . S
H1 C8 0.930 . S
H2 C10 0.930 . S
H3 C4 1.016 . S
C4 H3 1.016 . S
C4 N11 1.286 . S
C5 H0 0.930 . S
C5 C6 1.397 . S
C5 C7 1.361 . S
C6 C5 1.397 . S
C6 C10 1.390 . S
C7 C5 1.361 . S
C7 C8 1.393 . S
C7 N11 1.413 . S
C8 H1 0.930 . S
C8 C7 1.393 . S
C8 C9 1.399 . S
C9 C8 1.399 . S
C9 C10 1.381 . S
C10 H2 0.930 . S
C10 C6 1.390 . S
C10 C9 1.381 . S
N11 C4 1.286 . S
N11 C7 1.413 . S
H12 C17 0.930 . S
H13 C20 0.930 . S
H14 C22 0.930 . S
H15 C16 1.016 . S
C16 H15 1.016 . S
C16 N23 1.286 . S
C17 H12 0.930 . S
C17 C18 1.397 . S
C17 C19 1.361 . S
C18 C17 1.397 . S
C18 C22 1.390 . S
C19 C17 1.361 . S
C19 C20 1.393 . S
C19 N23 1.413 . S
C20 H13 0.930 . S
C20 C19 1.393 . S
C20 C21 1.399 . S
C21 C20 1.399 . S
C21 C22 1.381 . S
C22 H14 0.930 . S
C22 C18 1.390 . S
C22 C21 1.381 . S
N23 C16 1.286 . S
N23 C19 1.413 . S
H24 C29 0.930 . S
H25 C32 0.930 . S
H26 C34 0.930 . S
H27 C28 1.016 . S
C28 H27 1.016 . S
C28 N35 1.286 . S
C29 H24 0.930 . S
C29 C30 1.397 . S
C29 C31 1.361 . S
C30 C29 1.397 . S
C30 C34 1.390 . S
C31 C29 1.361 . S
C31 C32 1.393 . S
C31 N35 1.413 . S
C32 H25 0.930 . S
C32 C31 1.393 . S
C32 C33 1.399 . S
C33 C32 1.399 . S
C33 C34 1.381 . S
C34 H26 0.930 . S
C34 C30 1.390 . S
C34 C33 1.381 . S
N35 C28 1.286 . S
N35 C31 1.413 . S
H36 C41 0.930 . S
H37 C44 0.930 . S
H38 C46 0.930 . S
H39 C40 1.016 . S
C40 H39 1.016 . S
C40 N47 1.286 . S
C41 H36 0.930 . S
C41 C42 1.397 . S
C41 C43 1.361 . S
C42 C41 1.397 . S
C42 C46 1.390 . S
C43 C41 1.361 . S
C43 C44 1.393 . S
C43 N47 1.413 . S
C44 H37 0.930 . S
C44 C43 1.393 . S
C44 C45 1.399 . S
C45 C44 1.399 . S
C45 C46 1.381 . S
C46 H38 0.930 . S
C46 C42 1.390 . S
C46 C45 1.381 . S
N47 C40 1.286 . S
N47 C43 1.413 . S
H48 C53 0.930 . S
H49 C56 0.930 . S
H50 C58 0.930 . S
H51 C52 1.016 . S
C52 H51 1.016 . S
C52 N59 1.286 . S
C53 H48 0.930 . S
C53 C54 1.397 . S
C53 C55 1.361 . S
C54 C53 1.397 . S
C54 C58 1.390 . S
C55 C53 1.361 . S
C55 C56 1.393 . S
C55 N59 1.413 . S
C56 H49 0.930 . S
C56 C55 1.393 . S
C56 C57 1.399 . S
C57 C56 1.399 . S
C57 C58 1.381 . S
C58 H50 0.930 . S
C58 C54 1.390 . S
C58 C57 1.381 . S
N59 C52 1.286 . S
N59 C55 1.413 . S
H60 C65 0.930 . S
H61 C68 0.930 . S
H62 C70 0.930 . S
H63 C64 1.016 . S
C64 H63 1.016 . S
C64 N71 1.286 . S
C65 H60 0.930 . S
C65 C66 1.397 . S
C65 C67 1.361 . S
C66 C65 1.397 . S
C66 C70 1.390 . S
C67 C65 1.361 . S
C67 C68 1.393 . S
C67 N71 1.413 . S
C68 H61 0.930 . S
C68 C67 1.393 . S
C68 C69 1.399 . S
C69 C68 1.399 . S
C69 C70 1.381 . S
C70 H62 0.930 . S
C70 C66 1.390 . S
C70 C69 1.381 . S
N71 C64 1.286 . S
N71 C67 1.413 . S
H72 C77 0.930 . S
H73 C80 0.930 . S
H74 C82 0.930 . S
H75 C76 1.016 . S
C76 H75 1.016 . S
C76 N83 1.286 . S
C77 H72 0.930 . S
C77 C78 1.397 . S
C77 C79 1.361 . S
C78 C77 1.397 . S
C78 C82 1.390 . S
C79 C77 1.361 . S
C79 C80 1.393 . S
C79 N83 1.413 . S
C80 H73 0.930 . S
C80 C79 1.393 . S
C80 C81 1.399 . S
C81 C80 1.399 . S
C81 C82 1.381 . S
C82 H74 0.930 . S
C82 C78 1.390 . S
C82 C81 1.381 . S
N83 C76 1.286 . S
N83 C79 1.413 . S
H84 C89 0.930 . S
H85 C92 0.930 . S
H86 C94 0.930 . S
H87 C88 1.016 . S
C88 H87 1.016 . S
C88 N95 1.286 . S
C89 H84 0.930 . S
C89 C90 1.397 . S
C89 C91 1.361 . S
C90 C89 1.397 . S
C90 C94 1.390 . S
C91 C89 1.361 . S
C91 C92 1.393 . S
C91 N95 1.413 . S
C92 H85 0.930 . S
C92 C91 1.393 . S
C92 C93 1.399 . S
C93 C92 1.399 . S
C93 C94 1.381 . S
C94 H86 0.930 . S
C94 C90 1.390 . S
C94 C93 1.381 . S
N95 C88 1.286 . S
N95 C91 1.413 . S
Ho96 C99 2.811 . S
Ho96 O116 2.322 . S
Ho96 O118 2.378 . S
Ho96 O119 2.524 . S
Ho96 O120 2.381 1_545 S
Ho96 O121 2.669 1_545 S
Ho96 O123 2.346 1_445 S
Ho96 O127 2.305 1_455 S
Ho97 C108 2.811 1_545 S
Ho97 O117 2.346 1_655 S
Ho97 O121 2.305 1_645 S
Ho97 O122 2.322 1_545 S
Ho97 O124 2.378 1_545 S
Ho97 O125 2.524 1_545 S
Ho97 O126 2.381 . S
Ho97 O127 2.669 . S
C98 O116 1.259 . S
C98 O117 1.268 . S
C99 Ho96 2.811 . S
C99 C100 1.488 . S
C99 O118 1.215 . S
C99 O119 1.289 . S
C100 C99 1.488 . S
C100 C101 1.348 . S
C100 C105 1.413 . S
C101 C100 1.348 . S
C101 C102 1.442 . S
C101 H128 0.930 . S
C102 C101 1.442 . S
C102 C103 1.381 . S
C102 H129 0.931 . S
C103 C102 1.381 . S
C103 C104 1.321 . S
C104 C103 1.321 . S
C104 C105 1.403 . S
C104 H130 0.934 . S
C105 C100 1.413 . S
C105 C104 1.403 . S
C105 H131 0.930 . S
C106 O120 1.275 . S
C106 O121 1.256 . S
C107 O122 1.259 . S
C107 O123 1.268 . S
C108 Ho97 2.811 1_565 S
C108 C109 1.488 . S
C108 O124 1.215 . S
C108 O125 1.289 . S
C109 C108 1.488 . S
C109 C110 1.348 . S
C109 C114 1.413 . S
C110 C109 1.348 . S
C110 C111 1.442 . S
C110 H132 0.930 . S
C111 C110 1.442 . S
C111 C112 1.381 . S
C111 H133 0.931 . S
C112 C111 1.381 . S
C112 C113 1.321 . S
C113 C112 1.321 . S
C113 C114 1.403 . S
C113 H134 0.934 . S
C114 C109 1.413 . S
C114 C113 1.403 . S
C114 H135 0.930 . S
C115 O126 1.275 . S
C115 O127 1.256 . S
O116 Ho96 2.322 . S
O116 C98 1.259 . S
O117 Ho97 2.346 1_455 S
O117 C98 1.268 . S
O118 Ho96 2.378 . S
O118 C99 1.215 . S
O119 Ho96 2.524 . S
O119 C99 1.289 . S
O120 Ho96 2.381 1_565 S
O120 C106 1.275 . S
O121 Ho96 2.669 1_565 S
O121 Ho97 2.305 1_465 S
O121 C106 1.256 . S
O122 Ho97 2.322 1_565 S
O122 C107 1.259 . S
O123 Ho96 2.346 1_665 S
O123 C107 1.268 . S
O124 Ho97 2.378 1_565 S
O124 C108 1.215 . S
O125 Ho97 2.524 1_565 S
O125 C108 1.289 . S
O126 Ho97 2.381 . S
O126 C115 1.275 . S
O127 Ho96 2.305 1_655 S
O127 Ho97 2.669 . S
O127 C115 1.256 . S
H128 C101 0.930 . S
H129 C102 0.931 . S
H130 C104 0.934 . S
H131 C105 0.930 . S
H132 C110 0.930 . S
H133 C111 0.931 . S
H134 C113 0.934 . S
H135 C114 0.930 . S
Ho136 C139 2.811 . S
Ho136 O156 2.322 . S
Ho136 O158 2.378 . S
Ho136 O159 2.524 . S
Ho136 O160 2.381 1_545 S
Ho136 O161 2.669 1_545 S
Ho136 O163 2.346 1_544 S
Ho136 O167 2.288 1_554 S
Ho137 C148 2.811 1_545 S
Ho137 O157 2.346 1_556 S
Ho137 O161 2.305 1_546 S
Ho137 O162 2.322 1_545 S
Ho137 O164 2.378 1_545 S
Ho137 O165 2.524 1_545 S
Ho137 O166 2.381 . S
Ho137 O167 2.675 . S
C138 O156 1.259 . S
C138 O157 1.268 . S
C139 Ho136 2.811 . S
C139 C140 1.488 . S
C139 O158 1.215 . S
C139 O159 1.289 . S
C140 C139 1.488 . S
C140 C141 1.348 . S
C140 C145 1.413 . S
C141 C140 1.348 . S
C141 C142 1.442 . S
C141 H168 0.930 . S
C142 C141 1.442 . S
C142 C143 1.381 . S
C142 H169 0.931 . S
C143 C142 1.381 . S
C143 C144 1.321 . S
C144 C143 1.321 . S
C144 C145 1.403 . S
C144 H170 0.934 . S
C145 C140 1.413 . S
C145 C144 1.403 . S
C145 H171 0.930 . S
C146 O160 1.275 . S
C146 O161 1.256 . S
C147 O162 1.259 . S
C147 O163 1.268 . S
C148 Ho137 2.811 1_565 S
C148 C149 1.488 . S
C148 O164 1.215 . S
C148 O165 1.289 . S
C149 C148 1.488 . S
C149 C150 1.348 . S
C149 C154 1.413 . S
C150 C149 1.348 . S
C150 C151 1.442 . S
C150 H172 0.930 . S
C151 C150 1.442 . S
C151 C152 1.381 . S
C151 H173 0.931 . S
C152 C151 1.381 . S
C152 C153 1.321 . S
C153 C152 1.321 . S
C153 C154 1.403 . S
C153 H174 0.934 . S
C154 C149 1.413 . S
C154 C153 1.403 . S
C154 H175 0.930 . S
C155 O166 1.275 . S
C155 O167 1.274 . S
O156 Ho136 2.322 . S
O156 C138 1.259 . S
O157 Ho137 2.346 1_554 S
O157 C138 1.268 . S
O158 Ho136 2.378 . S
O158 C139 1.215 . S
O159 Ho136 2.524 . S
O159 C139 1.289 . S
O160 Ho136 2.381 1_565 S
O160 C146 1.275 . S
O161 Ho136 2.669 1_565 S
O161 Ho137 2.305 1_564 S
O161 C146 1.256 . S
O162 Ho137 2.322 1_565 S
O162 C147 1.259 . S
O163 Ho136 2.346 1_566 S
O163 C147 1.268 . S
O164 Ho137 2.378 1_565 S
O164 C148 1.215 . S
O165 Ho137 2.524 1_565 S
O165 C148 1.289 . S
O166 Ho137 2.381 . S
O166 C155 1.275 . S
O167 Ho136 2.288 1_556 S
O167 Ho137 2.675 . S
O167 C155 1.274 . S
H168 C141 0.930 . S
H169 C142 0.931 . S
H170 C144 0.934 . S
H171 C145 0.930 . S
H172 C150 0.930 . S
H173 C151 0.931 . S
H174 C153 0.934 . S
H175 C154 0.930 . S
Ho176 C179 2.811 . S
Ho176 O196 2.322 . S
Ho176 O198 2.378 . S
Ho176 O199 2.524 . S
Ho176 O200 2.381 . S
Ho176 O201 2.669 . S
Ho176 O203 2.346 . S
Ho176 O207 2.305 . S
Ho177 C188 2.811 . S
Ho177 O197 2.346 . S
Ho177 O201 2.305 . S
Ho177 O202 2.322 . S
Ho177 O204 2.378 . S
Ho177 O205 2.524 . S
Ho177 O206 2.381 . S
Ho177 O207 2.669 . S
C178 O196 1.259 . S
C178 O197 1.268 . S
C179 Ho176 2.811 . S
C179 C180 1.488 . S
C179 O198 1.215 . S
C179 O199 1.289 . S
C180 C179 1.488 . S
C180 C181 1.348 . S
C180 C185 1.413 . S
C181 C180 1.348 . S
C181 C182 1.442 . S
C181 H208 0.930 . S
C182 C181 1.442 . S
C182 C183 1.381 . S
C182 H209 0.931 . S
C183 C182 1.381 . S
C183 C184 1.321 . S
C184 C183 1.321 . S
C184 C185 1.403 . S
C184 H210 0.934 . S
C185 C180 1.413 . S
C185 C184 1.403 . S
C185 H211 0.930 . S
C186 O200 1.275 . S
C186 O201 1.256 . S
C187 O202 1.259 . S
C187 O203 1.268 . S
C188 Ho177 2.811 . S
C188 C189 1.488 . S
C188 O204 1.215 . S
C188 O205 1.289 . S
C189 C188 1.488 . S
C189 C190 1.348 . S
C189 C194 1.413 . S
C190 C189 1.348 . S
C190 C191 1.442 . S
C190 H212 0.930 . S
C191 C190 1.442 . S
C191 C192 1.381 . S
C191 H213 0.931 . S
C192 C191 1.381 . S
C192 C193 1.321 . S
C193 C192 1.321 . S
C193 C194 1.403 . S
C193 H214 0.934 . S
C194 C189 1.413 . S
C194 C193 1.403 . S
C194 H215 0.930 . S
C195 O206 1.275 . S
C195 O207 1.256 . S
O196 Ho176 2.322 . S
O196 C178 1.259 . S
O197 Ho177 2.346 . S
O197 C178 1.268 . S
O198 Ho176 2.378 . S
O198 C179 1.215 . S
O199 Ho176 2.524 . S
O199 C179 1.289 . S
O200 Ho176 2.381 . S
O200 C186 1.275 . S
O201 Ho176 2.669 . S
O201 Ho177 2.305 . S
O201 C186 1.256 . S
O202 Ho177 2.322 . S
O202 C187 1.259 . S
O203 Ho176 2.346 . S
O203 C187 1.268 . S
O204 Ho177 2.378 . S
O204 C188 1.215 . S
O205 Ho177 2.524 . S
O205 C188 1.289 . S
O206 Ho177 2.381 . S
O206 C195 1.275 . S
O207 Ho176 2.305 . S
O207 Ho177 2.669 . S
O207 C195 1.256 . S
H208 C181 0.930 . S
H209 C182 0.931 . S
H210 C184 0.934 . S
H211 C185 0.930 . S
H212 C190 0.930 . S
H213 C191 0.931 . S
H214 C193 0.934 . S
H215 C194 0.930 . S
Ho216 C219 2.811 . S
Ho216 O236 2.322 . S
Ho216 O238 2.378 . S
Ho216 O239 2.524 . S
Ho216 O240 2.381 1_455 S
Ho216 O241 2.669 1_455 S
Ho216 O243 2.346 1_454 S
Ho216 O247 2.305 1_554 S
Ho217 C228 2.811 1_455 S
Ho217 O237 2.346 1_556 S
Ho217 O241 2.305 1_456 S
Ho217 O242 2.322 1_455 S
Ho217 O244 2.378 1_455 S
Ho217 O245 2.524 1_455 S
Ho217 O246 2.381 . S
Ho217 O247 2.669 . S
C218 O236 1.259 . S
C218 O237 1.268 . S
C219 Ho216 2.811 . S
C219 C220 1.488 . S
C219 O238 1.215 . S
C219 O239 1.289 . S
C220 C219 1.488 . S
C220 C221 1.348 . S
C220 C225 1.413 . S
C221 C220 1.348 . S
C221 C222 1.442 . S
C221 H248 0.930 . S
C222 C221 1.442 . S
C222 C223 1.381 . S
C222 H249 0.931 . S
C223 C222 1.381 . S
C223 C224 1.321 . S
C224 C223 1.321 . S
C224 C225 1.403 . S
C224 H250 0.934 . S
C225 C220 1.413 . S
C225 C224 1.403 . S
C225 H251 0.930 . S
C226 O240 1.275 . S
C226 O241 1.256 . S
C227 O242 1.259 . S
C227 O243 1.268 . S
C228 Ho217 2.811 1_655 S
C228 C229 1.488 . S
C228 O244 1.215 . S
C228 O245 1.289 . S
C229 C228 1.488 . S
C229 C230 1.348 . S
C229 C234 1.413 . S
C230 C229 1.348 . S
C230 C231 1.442 . S
C230 H252 0.930 . S
C231 C230 1.442 . S
C231 C232 1.381 . S
C231 H253 0.931 . S
C232 C231 1.381 . S
C232 C233 1.321 . S
C233 C232 1.321 . S
C233 C234 1.403 . S
C233 H254 0.934 . S
C234 C229 1.413 . S
C234 C233 1.403 . S
C234 H255 0.930 . S
C235 O246 1.275 . S
C235 O247 1.256 . S
O236 Ho216 2.322 . S
O236 C218 1.259 . S
O237 Ho217 2.346 1_554 S
O237 C218 1.268 . S
O238 Ho216 2.378 . S
O238 C219 1.215 . S
O239 Ho216 2.524 . S
O239 C219 1.289 . S
O240 Ho216 2.381 1_655 S
O240 C226 1.275 . S
O241 Ho216 2.669 1_655 S
O241 Ho217 2.305 1_654 S
O241 C226 1.256 . S
O242 Ho217 2.322 1_655 S
O242 C227 1.259 . S
O243 Ho216 2.346 1_656 S
O243 C227 1.268 . S
O244 Ho217 2.378 1_655 S
O244 C228 1.215 . S
O245 Ho217 2.524 1_655 S
O245 C228 1.289 . S
O246 Ho217 2.381 . S
O246 C235 1.275 . S
O247 Ho216 2.305 1_556 S
O247 Ho217 2.669 . S
O247 C235 1.256 . S
H248 C221 0.930 . S
H249 C222 0.931 . S
H250 C224 0.934 . S
H251 C225 0.930 . S
H252 C230 0.930 . S
H253 C231 0.931 . S
H254 C233 0.934 . S
H255 C234 0.930 . S
C256 C257 1.387 . S
C256 H260 0.950 . S
C256 C265 1.390 . S
C257 C256 1.387 . S
C257 C259 1.387 . S
H258 C265 0.950 . S
C259 C257 1.387 . S
C259 C261 1.390 . S
C259 H263 0.950 . S
H260 C256 0.950 . S
C261 C259 1.390 . S
C261 C262 1.387 . S
C261 H264 0.950 . S
C262 C261 1.387 . S
C262 C265 1.387 . S
H263 C259 0.950 . S
H264 C261 0.950 . S
C265 C256 1.390 . S
C265 H258 0.950 . S
C265 C262 1.387 . S
C266 C267 1.387 . S
C266 H270 0.950 . S
C266 C275 1.390 . S
C267 C266 1.387 . S
C267 C269 1.387 . S
H268 C275 0.950 . S
C269 C267 1.387 . S
C269 C271 1.390 . S
C269 H273 0.950 . S
H270 C266 0.950 . S
C271 C269 1.390 . S
C271 C272 1.387 . S
C271 H274 0.950 . S
C272 C271 1.387 . S
C272 C275 1.387 . S
H273 C269 0.950 . S
H274 C271 0.950 . S
C275 C266 1.390 . S
C275 H268 0.950 . S
C275 C272 1.387 . S
C276 C277 1.387 . S
C276 H280 0.950 . S
C276 C285 1.390 . S
C277 C276 1.387 . S
C277 C279 1.387 . S
H278 C285 0.950 . S
C279 C277 1.387 . S
C279 C281 1.390 . S
C279 H283 0.950 . S
H280 C276 0.950 . S
C281 C279 1.390 . S
C281 C282 1.387 . S
C281 H284 0.950 . S
C282 C281 1.387 . S
C282 C285 1.387 . S
H283 C279 0.950 . S
H284 C281 0.950 . S
C285 C276 1.390 . S
C285 H278 0.950 . S
C285 C282 1.387 . S
C286 C287 1.387 . S
C286 H290 0.950 . S
C286 C295 1.390 . S
C287 C286 1.387 . S
C287 C289 1.387 . S
H288 C295 0.950 . S
C289 C287 1.387 . S
C289 C291 1.390 . S
C289 H293 0.950 . S
H290 C286 0.950 . S
C291 C289 1.390 . S
C291 C292 1.387 . S
C291 H294 0.950 . S
C292 C291 1.387 . S
C292 C295 1.387 . S
H293 C289 0.950 . S
H294 C291 0.950 . S
C295 C286 1.390 . S
C295 H288 0.950 . S
C295 C292 1.387 . S
C296 C297 1.387 . S
C296 H300 0.950 . S
C296 C305 1.390 . S
C297 C296 1.387 . S
C297 C299 1.387 . S
H298 C305 0.950 . S
C299 C297 1.387 . S
C299 C301 1.390 . S
C299 H303 0.950 . S
H300 C296 0.950 . S
C301 C299 1.390 . S
C301 C302 1.387 . S
C301 H304 0.950 . S
C302 C301 1.387 . S
C302 C305 1.387 . S
H303 C299 0.950 . S
H304 C301 0.950 . S
C305 C296 1.390 . S
C305 H298 0.950 . S
C305 C302 1.387 . S
C306 C307 1.387 . S
C306 H310 0.950 . S
C306 C315 1.390 . S
C307 C306 1.387 . S
C307 C309 1.387 . S
H308 C315 0.950 . S
C309 C307 1.387 . S
C309 C311 1.390 . S
C309 H313 0.950 . S
H310 C306 0.950 . S
C311 C309 1.390 . S
C311 C312 1.387 . S
C311 H314 0.950 . S
C312 C311 1.387 . S
C312 C315 1.387 . S
H313 C309 0.950 . S
H314 C311 0.950 . S
C315 C306 1.390 . S
C315 H308 0.950 . S
C315 C312 1.387 . S
C316 C317 1.387 . S
C316 H320 0.950 . S
C316 C325 1.390 . S
C317 C316 1.387 . S
C317 C319 1.387 . S
H318 C325 0.950 . S
C319 C317 1.387 . S
C319 C321 1.390 . S
C319 H323 0.950 . S
H320 C316 0.950 . S
C321 C319 1.390 . S
C321 C322 1.387 . S
C321 H324 0.950 . S
C322 C321 1.387 . S
C322 C325 1.387 . S
H323 C319 0.950 . S
H324 C321 0.950 . S
C325 C316 1.390 . S
C325 H318 0.950 . S
C325 C322 1.387 . S
C326 C327 1.387 . S
C326 H330 0.950 . S
C326 C335 1.390 . S
C327 C326 1.387 . S
C327 C329 1.387 . S
H328 C335 0.950 . S
C329 C327 1.387 . S
C329 C331 1.390 . S
C329 H333 0.950 . S
H330 C326 0.950 . S
C331 C329 1.390 . S
C331 C332 1.387 . S
C331 H334 0.950 . S
C332 C331 1.387 . S
C332 C335 1.387 . S
H333 C329 0.950 . S
H334 C331 0.950 . S
C335 C326 1.390 . S
C335 H328 0.950 . S
C335 C332 1.387 . S
C336 C337 1.387 . S
C336 H340 0.950 . S
C336 C345 1.390 . S
C337 C336 1.387 . S
C337 C339 1.387 . S
H338 C345 0.950 . S
C339 C337 1.387 . S
C339 C341 1.390 . S
C339 H343 0.950 . S
H340 C336 0.950 . S
C341 C339 1.390 . S
C341 C342 1.387 . S
C341 H344 0.950 . S
C342 C341 1.387 . S
C342 C345 1.387 . S
H343 C339 0.950 . S
H344 C341 0.950 . S
C345 C336 1.390 . S
C345 H338 0.950 . S
C345 C342 1.387 . S
C346 C347 1.387 . S
C346 H350 0.950 . S
C346 C355 1.390 . S
C347 C346 1.387 . S
C347 C349 1.387 . S
H348 C355 0.950 . S
C349 C347 1.387 . S
C349 C351 1.390 . S
C349 H353 0.950 . S
H350 C346 0.950 . S
C351 C349 1.390 . S
C351 C352 1.387 . S
C351 H354 0.950 . S
C352 C351 1.387 . S
C352 C355 1.387 . S
H353 C349 0.950 . S
H354 C351 0.950 . S
C355 C346 1.390 . S
C355 H348 0.950 . S
C355 C352 1.387 . S
C356 C357 1.387 . S
C356 H360 0.950 . S
C356 C365 1.390 . S
C357 C356 1.387 . S
C357 C359 1.387 . S
H358 C365 0.950 . S
C359 C357 1.387 . S
C359 C361 1.390 . S
C359 H363 0.950 . S
H360 C356 0.950 . S
C361 C359 1.390 . S
C361 C362 1.387 . S
C361 H364 0.950 . S
C362 C361 1.387 . S
C362 C365 1.387 . S
H363 C359 0.950 . S
H364 C361 0.950 . S
C365 C356 1.390 . S
C365 H358 0.950 . S
C365 C362 1.387 . S
C366 C367 1.387 . S
C366 H370 0.950 . S
C366 C375 1.390 . S
C367 C366 1.387 . S
C367 C369 1.387 . S
H368 C375 0.950 . S
C369 C367 1.387 . S
C369 C371 1.390 . S
C369 H373 0.950 . S
H370 C366 0.950 . S
C371 C369 1.390 . S
C371 C372 1.387 . S
C371 H374 0.950 . S
C372 C371 1.387 . S
C372 C375 1.387 . S
H373 C369 0.950 . S
H374 C371 0.950 . S
C375 C366 1.390 . S
C375 H368 0.950 . S
C375 C372 1.387 . S
C376 C377 1.387 . S
C376 H380 0.950 . S
C376 C385 1.390 . S
C377 C376 1.387 . S
C377 C379 1.387 . S
H378 C385 0.950 . S
C379 C377 1.387 . S
C379 C381 1.390 . S
C379 H383 0.950 . S
H380 C376 0.950 . S
C381 C379 1.390 . S
C381 C382 1.387 . S
C381 H384 0.950 . S
C382 C381 1.387 . S
C382 C385 1.387 . S
H383 C379 0.950 . S
H384 C381 0.950 . S
C385 C376 1.390 . S
C385 H378 0.950 . S
C385 C382 1.387 . S
C386 C387 1.387 . S
C386 H390 0.950 . S
C386 C395 1.390 . S
C387 C386 1.387 . S
C387 C389 1.387 . S
H388 C395 0.950 . S
C389 C387 1.387 . S
C389 C391 1.390 . S
C389 H393 0.950 . S
H390 C386 0.950 . S
C391 C389 1.390 . S
C391 C392 1.387 . S
C391 H394 0.950 . S
C392 C391 1.387 . S
C392 C395 1.387 . S
H393 C389 0.950 . S
H394 C391 0.950 . S
C395 C386 1.390 . S
C395 H388 0.950 . S
C395 C392 1.387 . S
C396 C397 1.387 . S
C396 H400 0.950 . S
C396 C405 1.390 . S
C397 C396 1.387 . S
C397 C399 1.387 . S
H398 C405 0.950 . S
C399 C397 1.387 . S
C399 C401 1.390 . S
C399 H403 0.950 . S
H400 C396 0.950 . S
C401 C399 1.390 . S
C401 C402 1.387 . S
C401 H404 0.950 . S
C402 C401 1.387 . S
C402 C405 1.387 . S
H403 C399 0.950 . S
H404 C401 0.950 . S
C405 C396 1.390 . S
C405 H398 0.950 . S
C405 C402 1.387 . S
C406 C407 1.387 . S
C406 H410 0.950 . S
C406 C415 1.390 . S
C407 C406 1.387 . S
C407 C409 1.387 . S
H408 C415 0.950 . S
C409 C407 1.387 . S
C409 C411 1.390 . S
C409 H413 0.950 . S
H410 C406 0.950 . S
C411 C409 1.390 . S
C411 C412 1.387 . S
C411 H414 0.950 . S
C412 C411 1.387 . S
C412 C415 1.387 . S
H413 C409 0.950 . S
H414 C411 0.950 . S
C415 C406 1.390 . S
C415 H408 0.950 . S
C415 C412 1.387 . S
C416 C417 1.387 . S
C416 H420 0.950 . S
C416 C425 1.390 . S
C417 C416 1.387 . S
C417 C419 1.387 . S
H418 C425 0.950 . S
C419 C417 1.387 . S
C419 C421 1.390 . S
C419 H423 0.950 . S
H420 C416 0.950 . S
C421 C419 1.390 . S
C421 C422 1.387 . S
C421 H424 0.950 . S
C422 C421 1.387 . S
C422 C425 1.387 . S
H423 C419 0.950 . S
H424 C421 0.950 . S
C425 C416 1.390 . S
C425 H418 0.950 . S
C425 C422 1.387 . S
C426 C427 1.387 . S
C426 H430 0.950 . S
C426 C435 1.390 . S
C427 C426 1.387 . S
C427 C429 1.387 . S
H428 C435 0.950 . S
C429 C427 1.387 . S
C429 C431 1.390 . S
C429 H433 0.950 . S
H430 C426 0.950 . S
C431 C429 1.390 . S
C431 C432 1.387 . S
C431 H434 0.950 . S
C432 C431 1.387 . S
C432 C435 1.387 . S
H433 C429 0.950 . S
H434 C431 0.950 . S
C435 C426 1.390 . S
C435 H428 0.950 . S
C435 C432 1.387 . S
C436 C437 1.387 . S
C436 H440 0.950 . S
C436 C445 1.390 . S
C437 C436 1.387 . S
C437 C439 1.387 . S
H438 C445 0.950 . S
C439 C437 1.387 . S
C439 C441 1.390 . S
C439 H443 0.950 . S
H440 C436 0.950 . S
C441 C439 1.390 . S
C441 C442 1.387 . S
C441 H444 0.950 . S
C442 C441 1.387 . S
C442 C445 1.387 . S
H443 C439 0.950 . S
H444 C441 0.950 . S
C445 C436 1.390 . S
C445 H438 0.950 . S
C445 C442 1.387 . S
C446 C447 1.387 . S
C446 H450 0.950 . S
C446 C455 1.390 . S
C447 C446 1.387 . S
C447 C449 1.387 . S
H448 C455 0.950 . S
C449 C447 1.387 . S
C449 C451 1.390 . S
C449 H453 0.950 . S
H450 C446 0.950 . S
C451 C449 1.390 . S
C451 C452 1.387 . S
C451 H454 0.950 . S
C452 C451 1.387 . S
C452 C455 1.387 . S
H453 C449 0.950 . S
H454 C451 0.950 . S
C455 C446 1.390 . S
C455 H448 0.950 . S
C455 C452 1.387 . S
C456 C457 1.387 . S
C456 H460 0.950 . S
C456 C465 1.390 . S
C457 C456 1.387 . S
C457 C459 1.387 . S
H458 C465 0.950 . S
C459 C457 1.387 . S
C459 C461 1.390 . S
C459 H463 0.950 . S
H460 C456 0.950 . S
C461 C459 1.390 . S
C461 C462 1.387 . S
C461 H464 0.950 . S
C462 C461 1.387 . S
C462 C465 1.387 . S
H463 C459 0.950 . S
H464 C461 0.950 . S
C465 C456 1.390 . S
C465 H458 0.950 . S
C465 C462 1.387 . S
C466 C467 1.387 . S
C466 H470 0.950 . S
C466 C475 1.390 . S
C467 C466 1.387 . S
C467 C469 1.387 . S
H468 C475 0.950 . S
C469 C467 1.387 . S
C469 C471 1.390 . S
C469 H473 0.950 . S
H470 C466 0.950 . S
C471 C469 1.390 . S
C471 C472 1.387 . S
C471 H474 0.950 . S
C472 C471 1.387 . S
C472 C475 1.387 . S
H473 C469 0.950 . S
H474 C471 0.950 . S
C475 C466 1.390 . S
C475 H468 0.950 . S
C475 C472 1.387 . S
C476 C477 1.387 . S
C476 H480 0.950 . S
C476 C485 1.390 . S
C477 C476 1.387 . S
C477 C479 1.387 . S
H478 C485 0.950 . S
C479 C477 1.387 . S
C479 C481 1.390 . S
C479 H483 0.950 . S
H480 C476 0.950 . S
C481 C479 1.390 . S
C481 C482 1.387 . S
C481 H484 0.950 . S
C482 C481 1.387 . S
C482 C485 1.387 . S
H483 C479 0.950 . S
H484 C481 0.950 . S
C485 C476 1.390 . S
C485 H478 0.950 . S
C485 C482 1.387 . S
C486 C487 1.387 . S
C486 H490 0.950 . S
C486 C495 1.390 . S
C487 C486 1.387 . S
C487 C489 1.387 . S
H488 C495 0.950 . S
C489 C487 1.387 . S
C489 C491 1.390 . S
C489 H493 0.950 . S
H490 C486 0.950 . S
C491 C489 1.390 . S
C491 C492 1.387 . S
C491 H494 0.950 . S
C492 C491 1.387 . S
C492 C495 1.387 . S
H493 C489 0.950 . S
H494 C491 0.950 . S
C495 C486 1.390 . S
C495 H488 0.950 . S
C495 C492 1.387 . S
C257 C6 1.059 . S
C262 C103 1.089 . S
C267 C18 1.274 . S
C272 C152 1.257 . S
C282 C178 2.587 . S
C277 C28 2.654 . S
C287 C40 1.972 . S
C292 C226 1.933 . S
C302 C138 2.241 . S
C297 C9 2.065 . S
C312 C106 0.917 . S
C307 C16 0.925 . S
C322 C227 1.944 . S
C317 C30 1.979 . S
C332 C195 1.474 . S
C327 C42 1.497 . S
C337 C4 1.506 . S
C342 C223 1.556 . S
C352 C155 2.526 . S
C347 C33 2.601 . S
C357 C45 2.118 . S
C362 C107 2.110 . S
C367 C21 1.208 . S
C372 C192 1.258 . S
C382 C112 1.098 . S
C377 C57 1.088 . S
C387 C66 1.319 . S
C392 C143 1.289 . S
C397 C76 2.703 . S
C402 C187 2.627 . S
C407 C88 1.910 . S
C412 C235 1.886 . S
C417 C54 2.065 . S
C422 C147 2.238 . S
C432 C115 1.032 . S
C427 C64 1.055 . S
C442 C218 1.866 . S
C437 C78 1.921 . S
C452 C186 1.519 . S
C447 C93 1.541 . S
C457 C52 1.460 . S
C462 C232 1.587 . S
C472 C146 2.515 . S
C467 C81 2.592 . S
C482 C98 2.097 . S
C477 C90 2.100 . S
C487 C69 1.193 . S
C492 C183 1.262 . S
