# Generated by pormake.
# Topology zzz, (3,6)-cn, num edge types: 1
# Building blocks:
#     Node 0, Type 0, BuildingBlock: BETDIP_clean_linker_0, # of connection points: 3
#     Node 1, Type 0, BuildingBlock: BETDIP_clean_linker_0, # of connection points: 3
#     Node 2, Type 0, BuildingBlock: BETDIP_clean_linker_0, # of connection points: 3
#     Node 3, Type 0, BuildingBlock: BETDIP_clean_linker_0, # of connection points: 3
#     Node 4, Type 0, BuildingBlock: BETDIP_clean_linker_0, # of connection points: 3
#     Node 5, Type 0, BuildingBlock: BETDIP_clean_linker_0, # of connection points: 3
#     Node 6, Type 0, BuildingBlock: BETDIP_clean_linker_0, # of connection points: 3
#     Node 7, Type 0, BuildingBlock: BETDIP_clean_linker_0, # of connection points: 3
#     Node 8, Type 1, BuildingBlock: KUMBOL_clean_sbu_0, # of connection points: 6
#     Node 9, Type 1, BuildingBlock: KUMBOL_clean_sbu_0, # of connection points: 6
#     Node 10, Type 1, BuildingBlock: KUMBOL_clean_sbu_0, # of connection points: 6
#     Node 11, Type 1, BuildingBlock: KUMBOL_clean_sbu_0, # of connection points: 6
#     Edge 12, Type (0, 1), BuildingBlock: KIFKEQ_clean_linker_1, # of connection points: 2
#     Edge 13, Type (0, 1), BuildingBlock: KIFKEQ_clean_linker_1, # of connection points: 2
#     Edge 14, Type (0, 1), BuildingBlock: KIFKEQ_clean_linker_1, # of connection points: 2
#     Edge 15, Type (0, 1), BuildingBlock: KIFKEQ_clean_linker_1, # of connection points: 2
#     Edge 16, Type (0, 1), BuildingBlock: KIFKEQ_clean_linker_1, # of connection points: 2
#     Edge 17, Type (0, 1), BuildingBlock: KIFKEQ_clean_linker_1, # of connection points: 2
#     Edge 18, Type (0, 1), BuildingBlock: KIFKEQ_clean_linker_1, # of connection points: 2
#     Edge 19, Type (0, 1), BuildingBlock: KIFKEQ_clean_linker_1, # of connection points: 2
#     Edge 20, Type (0, 1), BuildingBlock: KIFKEQ_clean_linker_1, # of connection points: 2
#     Edge 21, Type (0, 1), BuildingBlock: KIFKEQ_clean_linker_1, # of connection points: 2
#     Edge 22, Type (0, 1), BuildingBlock: KIFKEQ_clean_linker_1, # of connection points: 2
#     Edge 23, Type (0, 1), BuildingBlock: KIFKEQ_clean_linker_1, # of connection points: 2
#     Edge 24, Type (0, 1), BuildingBlock: KIFKEQ_clean_linker_1, # of connection points: 2
#     Edge 25, Type (0, 1), BuildingBlock: KIFKEQ_clean_linker_1, # of connection points: 2
#     Edge 26, Type (0, 1), BuildingBlock: KIFKEQ_clean_linker_1, # of connection points: 2
#     Edge 27, Type (0, 1), BuildingBlock: KIFKEQ_clean_linker_1, # of connection points: 2
#     Edge 28, Type (0, 1), BuildingBlock: KIFKEQ_clean_linker_1, # of connection points: 2
#     Edge 29, Type (0, 1), BuildingBlock: KIFKEQ_clean_linker_1, # of connection points: 2
#     Edge 30, Type (0, 1), BuildingBlock: KIFKEQ_clean_linker_1, # of connection points: 2
#     Edge 31, Type (0, 1), BuildingBlock: KIFKEQ_clean_linker_1, # of connection points: 2
#     Edge 32, Type (0, 1), BuildingBlock: KIFKEQ_clean_linker_1, # of connection points: 2
#     Edge 33, Type (0, 1), BuildingBlock: KIFKEQ_clean_linker_1, # of connection points: 2
#     Edge 34, Type (0, 1), BuildingBlock: KIFKEQ_clean_linker_1, # of connection points: 2
#     Edge 35, Type (0, 1), BuildingBlock: KIFKEQ_clean_linker_1, # of connection points: 2
# Relax obj value: 0.174
# Max RMSD: 0.162
# Mean RMSD: 0.115
data_MOF--net-zzz--node1-KUMBOL_clean_sbu_0--node2-BETDIP_clean_linker_0--edge1-KIFKEQ_clean_linker_1
_symmetry_space_group_name_H-M    P1
_symmetry_Int_Tables_number       1
_symmetry_cell_setting            triclinic
loop_
_symmetry_equiv_pos_as_xyz
'x, y, z'
_cell_length_a     51.140781
_cell_length_b     51.107192
_cell_length_c     14.676144
_cell_angle_alpha  91.588183
_cell_angle_beta   90.033732
_cell_angle_gamma 89.930924
loop_
_atom_site_label
_atom_site_type_symbol
_atom_site_fract_x
_atom_site_fract_y
_atom_site_fract_z
_atom_type_partial_charge
H0 H 0.76462 0.52934 0.34317 0.0
H1 H 0.75181 0.58165 0.12126 0.0
H2 H 0.82691 0.57833 0.25029 0.0
H3 H 0.71047 0.5847 0.2097 0.0
C4 C 0.70768 0.56391 0.1951 0.0
C5 C 0.77156 0.54453 0.29928 0.0
C6 C 0.79782 0.55341 0.30674 0.0
C7 C 0.75441 0.55538 0.23382 0.0
C8 C 0.76418 0.57426 0.17473 0.0
C9 C 0.79016 0.58265 0.18025 0.0
C10 C 0.80651 0.57255 0.24755 0.0
N11 N 0.72798 0.54643 0.2226 0.0
H12 H 0.01864 0.78383 0.30915 0.0
H13 H 0.96137 0.76938 0.0976 0.0
H14 H 0.96383 0.84386 0.23953 0.0
H15 H 0.96352 0.72753 0.16549 0.0
C16 C 0.98442 0.72583 0.15318 0.0
C17 C 1.00191 0.79013 0.27013 0.0
C18 C 0.99149 0.81569 0.2854 0.0
C19 C 0.99039 0.77271 0.20423 0.0
C20 C 0.96939 0.78182 0.15159 0.0
C21 C 0.95987 0.80746 0.16278 0.0
C22 C 0.97047 0.82376 0.23184 0.0
N23 N 1.00078 0.74691 0.18581 0.0
H24 H 0.76669 1.01547 0.32855 0.0
H25 H 0.78204 0.95707 0.11784 0.0
H26 H 0.70671 0.96097 0.2476 0.0
H27 H 0.82573 0.9612 0.21588 0.0
C28 C 0.82565 0.98085 0.18936 0.0
C29 C 0.76051 0.9985 0.28832 0.0
C30 C 0.73498 0.98829 0.29955 0.0
C31 C 0.77805 0.98654 0.22473 0.0
C32 C 0.76925 0.9653 0.17003 0.0
C33 C 0.74338 0.9563 0.17585 0.0
C34 C 0.72692 0.96722 0.24348 0.0
N35 N 0.8035 0.99722 0.20895 0.0
H36 H 0.53996 0.78153 0.35017 0.0
H37 H 0.58661 0.78694 0.10668 0.0
H38 H 0.58483 0.71529 0.25244 0.0
H39 H 0.59287 0.83301 0.21472 0.0
C40 C 0.57261 0.83445 0.19289 0.0
C41 C 0.55388 0.77296 0.30241 0.0
C42 C 0.56218 0.74674 0.31206 0.0
C43 C 0.56366 0.78802 0.23022 0.0
C44 C 0.58058 0.7762 0.16577 0.0
C45 C 0.5882 0.75002 0.1734 0.0
C46 C 0.57959 0.73581 0.24801 0.0
N47 N 0.5549 0.81422 0.21736 0.0
H48 H 0.28146 0.51986 1.00258 0.0
H49 H 0.29298 0.46817 0.22706 0.0
H50 H 0.22109 0.46605 0.07639 0.0
H51 H 0.30796 0.5099 0.28575 0.0
C52 C 0.32305 0.51079 0.23371 0.0
C53 C 0.27465 0.50415 0.04451 0.0
C54 C 0.2497 0.49276 0.02775 0.0
C55 C 0.2904 0.49549 0.11777 0.0
C56 C 0.28102 0.47522 0.17194 0.0
C57 C 0.256 0.46469 0.15879 0.0
C58 C 0.24088 0.47327 0.0855 0.0
N59 N 0.31502 0.50758 0.14035 0.0
H60 H 0.02681 0.27114 0.04619 0.0
H61 H 0.08729 0.28664 0.24563 0.0
H62 H 0.08585 0.21337 0.09544 0.0
H63 H 0.04785 0.30095 0.32179 0.0
C64 C 0.04384 0.31541 0.27058 0.0
C65 C 0.0446 0.26539 0.08033 0.0
C66 C 0.05617 0.24064 0.05886 0.0
C67 C 0.05573 0.2822 0.14888 0.0
C68 C 0.07853 0.27398 0.19373 0.0
C69 C 0.08927 0.24905 0.17674 0.0
C70 C 0.0784 0.23304 0.10728 0.0
N71 N 0.04359 0.30656 0.17675 0.0
H72 H 0.28236 0.03917 1.01073 0.0
H73 H 0.26938 0.09736 0.22403 0.0
H74 H 0.34268 0.09455 0.08086 0.0
H75 H 0.25773 0.05116 0.28416 0.0
C76 C 0.24159 0.05183 0.2359 0.0
C77 C 0.28883 0.0563 0.04949 0.0
C78 C 0.31409 0.0668 0.03401 0.0
C79 C 0.27254 0.06738 0.11878 0.0
C80 C 0.2817 0.08901 0.17068 0.0
C81 C 0.30709 0.09877 0.15907 0.0
C82 C 0.32266 0.08802 0.08858 0.0
N83 N 0.24796 0.05587 0.14225 0.0
H84 H 0.50812 0.27501 0.99158 0.0
H85 H 0.46424 0.27458 0.24277 0.0
H86 H 0.4624 0.34212 0.07615 0.0
H87 H 0.50878 0.25626 0.27578 0.0
C88 C 0.50423 0.23992 0.2294 0.0
C89 C 0.4944 0.28428 0.0385 0.0
C90 C 0.48537 0.31 0.02281 0.0
C91 C 0.48661 0.27117 0.11798 0.0
C92 C 0.46978 0.28404 0.18048 0.0
C93 C 0.46087 0.30946 0.16554 0.0
C94 C 0.46824 0.32196 0.08574 0.0
N95 N 0.49665 0.24582 0.1384 0.0
Gd96 Gd 1.00197 0.03611 0.57538 0.0
Gd97 Gd 0.04619 0.02121 0.76232 0.0
C98 C 0.07706 0.08305 0.96773 0.0
C99 C 0.12356 0.083 0.9341 0.0
C100 C 0.09421 0.05354 0.85066 0.0
C101 C 0.07319 0.06338 0.89955 0.0
C102 C 0.11973 0.06285 0.86852 0.0
C103 C 0.10225 0.09312 0.98353 0.0
C104 C 0.0556 0.09169 0.01925 0.0
C105 C 0.03123 0.08022 1.00408 0.0
N106 N 0.04913 0.05309 0.88269 0.0
C107 C 0.02838 0.06066 0.93624 0.0
H108 H 1.00923 0.05247 0.9263 0.0
C109 C 0.1104 0.02179 0.74501 0.0
N110 N 0.08987 0.03406 0.78816 0.0
C111 C 0.13603 0.03037 0.76012 0.0
C112 C 0.1407 0.0512 0.82142 0.0
H113 H 0.10686 1.00583 0.69674 0.0
H114 H 0.10553 0.10835 0.0351 0.0
H115 H 0.03858 1.00185 0.418 0.0
H116 H 0.05772 0.10683 0.07188 0.0
H117 H 1.01454 0.08649 0.04444 0.0
H118 H 0.14298 0.09055 0.94832 0.0
H119 H 0.94166 0.05518 0.6312 0.0
H120 H 0.98871 0.94985 0.268 0.0
H121 H 0.03266 0.96784 0.30032 0.0
H122 H 0.90321 0.97193 0.3781 0.0
H123 H 0.15212 0.02097 0.7242 0.0
H124 H 0.16058 0.0578 0.83317 0.0
H125 H 0.94049 0.95141 0.29781 0.0
H126 H 0.89592 0.04307 0.59695 0.0
N127 N 0.99834 1.00357 0.45684 0.0
C128 C 0.99114 0.96497 0.32054 0.0
C129 C 1.01593 0.97514 0.33836 0.0
C130 C 0.96968 0.97497 0.36901 0.0
C131 C 0.97395 0.99456 0.43723 0.0
C132 C 0.01913 0.99475 0.40582 0.0
N133 N 0.95794 0.02537 0.54436 0.0
C134 C 0.95307 1.00587 0.48247 0.0
C135 C 0.91179 0.03235 0.56443 0.0
C136 C 0.9065 1.01156 0.50365 0.0
C137 C 0.93773 0.03919 0.58345 0.0
C138 C 0.92723 0.99824 0.46081 0.0
H139 H 0.88639 1.00632 0.48879 0.0
O140 O 0.9819 0.07032 0.52586 0.0
O141 O 0.02585 0.05271 0.69041 0.0
O142 O 1.00381 0.02122 0.81149 0.0
O143 O 0.97716 1.01651 0.68301 0.0
O144 O 0.9887 0.06744 0.67795 0.0
O145 O 0.01896 0.05876 0.4669 0.0
O146 O 0.06851 0.98799 0.80806 0.0
O147 O 0.02172 1.00433 0.64894 0.0
O148 O 0.04473 0.03452 0.52737 0.0
O149 O 0.06919 0.04356 0.65784 0.0
O150 O 0.05921 0.99008 0.65905 0.0
O151 O 0.03166 0.99784 0.87294 0.0
C152 C 1.01022 0.06975 0.72291 0.0
C153 C 0.92289 0.97816 0.39533 0.0
C154 C 0.94411 0.9665 0.34961 0.0
C155 C 1.00229 0.07779 0.48052 0.0
C156 C 1.01329 0.10357 0.50858 0.0
C157 C 0.99824 0.12138 0.56137 0.0
C158 C 0.03961 0.10958 0.49061 0.0
C159 C 0.05081 0.13305 0.52453 0.0
C160 C 1.00938 0.14427 0.5973 0.0
C161 C 0.03543 0.15012 0.57922 0.0
C162 C 0.98084 1.0161 0.77262 0.0
C163 C 0.03735 0.98726 0.61643 0.0
C164 C 0.04907 0.97959 0.85643 0.0
C165 C 0.03905 0.95334 0.82942 0.0
C166 C 0.05521 0.93561 0.78061 0.0
C167 C 1.01266 0.94678 0.8435 0.0
C168 C 1.00249 0.92282 0.80987 0.0
C169 C 0.0451 0.91221 0.74482 0.0
C170 C 0.01898 0.9058 0.75915 0.0
C171 C 0.06691 0.04177 0.56799 0.0
H172 H 0.97797 0.11734 0.57699 0.0
H173 H 0.0514 0.09599 0.45021 0.0
H174 H 0.99771 0.15768 0.63873 0.0
H175 H 0.04311 0.16861 0.6051 0.0
H176 H 0.07556 0.94011 0.76796 0.0
H177 H 1.0 0.96033 0.88059 0.0
H178 H 0.05762 0.89886 0.70643 0.0
H179 H 1.01209 0.88696 0.73362 0.0
Gd180 Gd 0.51649 1.00371 0.57089 0.0
Gd181 Gd 0.53147 0.0502 0.75799 0.0
C182 C 0.47012 0.08275 0.9591 0.0
C183 C 0.4699 0.12898 0.92491 0.0
C184 C 0.49917 0.09893 0.84351 0.0
C185 C 0.48961 0.07832 0.89222 0.0
C186 C 0.48981 0.1246 0.86041 0.0
C187 C 0.46004 0.10808 0.97406 0.0
C188 C 0.46163 0.06169 1.01004 0.0
C189 C 0.47303 0.03716 0.99553 0.0
N190 N 0.49988 0.0541 0.87614 0.0
C191 C 0.4924 0.03375 0.92901 0.0
H192 H 0.50053 1.01448 0.91952 0.0
C193 C 0.53032 0.11422 0.73882 0.0
N194 N 0.51839 0.09405 0.78196 0.0
C195 C 0.52169 0.13997 0.75302 0.0
C196 C 0.50113 0.14517 0.81338 0.0
H197 H 0.54607 0.11026 0.6913 0.0
H198 H 0.44497 0.11178 0.02467 0.0
H199 H 0.55008 0.03936 0.41598 0.0
H200 H 0.44663 0.06425 0.06166 0.0
H201 H 0.46684 0.02077 0.03539 0.0
H202 H 0.46233 0.14852 0.93841 0.0
H203 H 0.49857 0.94381 0.62768 0.0
H204 H 0.60144 0.98846 0.26731 0.0
H205 H 0.58349 0.03265 0.29948 0.0
H206 H 0.5805 0.90367 0.37667 0.0
H207 H 0.53082 0.15576 0.71713 0.0
H208 H 0.49447 0.16514 0.82441 0.0
H209 H 0.60026 0.94042 0.29676 0.0
H210 H 0.51089 0.8978 0.59423 0.0
N211 N 0.54864 0.99934 0.45422 0.0
C212 C 0.58659 0.99124 0.31934 0.0
C213 C 0.57644 1.01616 0.33707 0.0
C214 C 0.57695 0.9701 0.36734 0.0
C215 C 0.55771 0.97482 0.43493 0.0
C216 C 0.55717 0.01981 0.40381 0.0
N217 N 0.52771 0.95952 0.5415 0.0
C218 C 0.54685 0.95424 0.48004 0.0
C219 C 0.52126 0.91347 0.56182 0.0
C220 C 0.5417 0.90779 0.50149 0.0
C221 C 0.51431 0.93955 0.58041 0.0
C222 C 0.55455 0.92824 0.45875 0.0
H223 H 0.54701 0.88757 0.48691 0.0
O224 O 0.4821 0.9829 0.52199 0.0
O225 O 0.50023 0.02887 0.68363 0.0
O226 O 0.53184 1.00839 0.80807 0.0
O227 O 0.53662 0.98035 0.68082 0.0
O228 O 0.48535 0.99164 0.67153 0.0
O229 O 0.49359 1.01883 0.45903 0.0
O230 O 0.56483 0.07305 0.80418 0.0
O231 O 0.54802 0.02458 0.64662 0.0
O232 O 0.51733 0.04599 0.52219 0.0
O233 O 0.50857 0.0718 0.65152 0.0
O234 O 0.56227 0.06219 0.65637 0.0
O235 O 0.55519 0.03707 0.87091 0.0
C236 C 0.48317 1.01372 0.71523 0.0
C237 C 0.57423 0.92347 0.39368 0.0
C238 C 0.58546 0.94439 0.34817 0.0
C239 C 0.47455 1.0025 0.47372 0.0
C240 C 0.44893 1.01405 0.49933 0.0
C241 C 0.43054 0.9991 0.54648 0.0
C242 C 0.44371 0.0407 0.48557 0.0
C243 C 0.42042 0.05233 0.51801 0.0
C244 C 0.40779 1.01064 0.58095 0.0
C245 C 0.4027 0.03701 0.56698 0.0
C246 C 0.53718 0.98507 0.77032 0.0
C247 C 0.56496 0.03984 0.61479 0.0
C248 C 0.57336 0.05425 0.85447 0.0
C249 C 0.59957 0.04392 0.82995 0.0
C250 C 0.61739 0.05979 0.78391 0.0
C251 C 0.60599 1.01751 0.84349 0.0
C252 C 0.62991 1.00704 0.8119 0.0
C253 C 0.64077 0.0494 0.75027 0.0
C254 C 0.64704 0.02326 0.76399 0.0
C255 C 0.50997 0.0685 0.56185 0.0
H256 H 0.43403 0.97859 0.55885 0.0
H257 H 0.45777 0.05244 0.44968 0.0
H258 H 0.39391 0.99902 0.61805 0.0
H259 H 0.38432 0.04503 0.59148 0.0
H260 H 0.61298 0.08014 0.77175 0.0
H261 H 0.59236 1.00505 0.87837 0.0
H262 H 0.6542 0.06171 0.714 0.0
H263 H 0.66584 1.01615 0.7401 0.0
Gd264 Gd 0.49596 0.53369 0.7427 0.0
Gd265 Gd 0.55249 0.52247 0.59363 0.0
C266 C 0.63698 0.53126 0.69277 0.0
C267 C 0.65134 0.56985 0.61383 0.0
C268 C 0.60731 0.55295 0.59075 0.0
C269 C 0.61218 0.53327 0.65117 0.0
C270 C 0.62703 0.57109 0.56962 0.0
C271 C 0.65629 0.54999 0.67542 0.0
C272 C 0.64186 0.51014 0.74891 0.0
C273 C 0.62258 0.49123 0.75987 0.0
N274 N 0.59309 0.51544 0.66625 0.0
C275 C 0.59835 0.494 0.7169 0.0
H276 H 0.58389 0.47913 0.72678 0.0
C277 C 0.57918 0.5705 0.48004 0.0
N278 N 0.58369 0.55355 0.54905 0.0
C279 C 0.59809 0.58888 0.45679 0.0
C280 C 0.622 0.58944 0.50274 0.0
H281 H 0.56058 0.57031 0.44499 0.0
H282 H 0.67533 0.5489 0.70753 0.0
H283 H 0.46434 0.57639 0.60744 0.0
H284 H 0.66059 0.50796 0.78243 0.0
H285 H 0.6263 0.47453 0.80179 0.0
H286 H 0.66664 0.58376 0.59922 0.0
H287 H 0.48884 0.48568 0.89098 0.0
H288 H 0.38614 0.54988 0.56776 0.0
H289 H 0.42115 0.5819 0.53945 0.0
H290 H 0.38069 0.47464 0.75379 0.0
H291 H 0.59416 0.60268 0.40382 0.0
H292 H 0.63664 0.60369 0.48458 0.0
H293 H 0.37137 0.50961 0.64659 0.0
H294 H 0.45523 0.454 0.93707 0.0
N295 N 0.45494 0.54087 0.67292 0.0
C296 C 0.40527 0.54723 0.59797 0.0
C297 C 0.42495 0.56535 0.58199 0.0
C298 C 0.41033 0.5262 0.65428 0.0
C299 C 0.4356 0.52364 0.69191 0.0
C300 C 0.44964 0.56206 0.62103 0.0
N301 N 0.46485 0.50292 0.79032 0.0
C302 C 0.44077 0.50399 0.75214 0.0
C303 C 0.45091 0.46787 0.88471 0.0
C304 C 0.42644 0.46786 0.84263 0.0
C305 C 0.46987 0.48586 0.85856 0.0
C306 C 0.42094 0.48633 0.77657 0.0
H307 H 0.41174 0.45396 0.86317 0.0
O308 O 0.4862 0.53987 0.88496 0.0
O309 O 0.53946 0.53454 0.73228 0.0
O310 O 0.54164 0.48521 0.66994 0.0
O311 O 0.49746 0.49062 0.70291 0.0
O312 O 0.52465 0.51898 0.84863 0.0
O313 O 0.48801 0.573 0.79578 0.0
O314 O 0.5628 0.51687 0.45164 0.0
O315 O 0.50911 0.52152 0.60452 0.0
O316 O 0.50637 0.57064 0.66419 0.0
O317 O 0.55061 0.56559 0.63247 0.0
O318 O 0.52353 0.5364 0.48666 0.0
O319 O 0.56133 0.48345 0.53961 0.0
C320 C 0.54588 0.5251 0.80759 0.0
C321 C 0.3961 0.48815 0.73646 0.0
C322 C 0.3908 0.50807 0.6755 0.0
C323 C 0.48664 0.56521 0.87968 0.0
C324 C 0.50335 0.57845 0.94774 0.0
C325 C 0.49617 0.5777 0.03972 0.0
C326 C 0.52712 0.59015 0.92315 0.0
C327 C 0.54332 0.60185 0.99018 0.0
C328 C 0.51235 0.5887 0.1067 0.0
C329 C 0.53562 0.60084 0.08239 0.0
C330 C 0.51853 0.47568 0.69429 0.0
C331 C 0.50242 0.53033 0.52861 0.0
C332 C 0.56264 0.49151 0.45599 0.0
C333 C 0.54585 0.47844 0.38793 0.0
C334 C 0.55345 0.47826 0.29627 0.0
C335 C 0.52136 0.46825 0.41215 0.0
C336 C 0.50479 0.4571 0.34522 0.0
C337 C 0.53694 0.4678 0.22924 0.0
C338 C 0.5129 0.45715 0.25327 0.0
C339 C 0.5294 0.58032 0.6399 0.0
H340 H 0.47813 0.56836 0.05973 0.0
H341 H 0.53293 0.59017 0.85217 0.0
H342 H 0.50666 0.58816 0.17767 0.0
H343 H 0.54704 0.61023 0.13607 0.0
H344 H 0.57204 0.48653 0.27652 0.0
H345 H 0.51527 0.46901 0.48286 0.0
H346 H 0.54293 0.46761 0.15848 0.0
H347 H 0.50117 0.4481 0.19969 0.0
Gd348 Gd 1.0163 0.50688 0.75525 0.0
Gd349 Gd 0.03448 0.5522 0.57754 0.0
C350 C 0.03189 0.64049 0.64733 0.0
C351 C 0.9968 0.65525 0.5497 0.0
C352 C 1.01057 0.60965 0.54431 0.0
C353 C 0.02875 0.61476 0.61138 0.0
C354 C 0.99496 0.62998 0.51026 0.0
C355 C 1.01524 0.6605 0.61834 0.0
C356 C 0.05226 0.64556 0.70871 0.0
C357 C 0.06957 0.62552 0.72936 0.0
N358 N 0.04464 0.59494 0.63665 0.0
C359 C 0.0657 0.60037 0.69165 0.0
H360 H 0.07937 0.58551 0.70981 0.0
C361 C 0.99538 0.58028 0.42958 0.0
N362 N 1.00971 0.58518 0.50705 0.0
C363 C 0.97938 0.59965 0.3936 0.0
C364 C 0.97878 0.62452 0.43521 0.0
H365 H 0.99586 0.56108 0.39685 0.0
H366 H 1.01711 0.68027 0.64618 0.0
H367 H 0.97104 0.474 0.62231 0.0
H368 H 0.05529 0.665 0.73811 0.0
H369 H 0.08585 0.62934 0.77494 0.0
H370 H 0.98473 0.67105 0.52543 0.0
H371 H 0.06069 0.50072 0.92055 0.0
H372 H 0.99021 0.39299 0.61777 0.0
H373 H 0.96233 0.42945 0.56844 0.0
H374 H 0.06118 0.38744 0.8288 0.0
H375 H 0.96758 0.59538 0.33378 0.0
H376 H 0.96652 0.63959 0.40696 0.0
H377 H 0.02724 0.37757 0.71413 0.0
H378 H 0.08749 0.46616 0.98908 0.0
N379 N 1.00436 0.46407 0.70292 0.0
C380 C 0.99421 0.41274 0.64269 0.0
C381 C 0.97842 0.43325 0.61488 0.0
C382 C 1.01461 0.41789 0.70386 0.0
C383 C 0.01914 0.44402 0.73367 0.0
C384 C 0.98355 0.4588 0.64647 0.0
N385 N 0.04165 0.47467 0.82631 0.0
C386 C 0.03837 0.44951 0.79735 0.0
C387 C 0.07382 0.46119 0.93502 0.0
C388 C 0.07152 0.43535 0.90285 0.0
C389 C 0.05851 0.48067 0.89638 0.0
C390 C 0.05344 0.42916 0.83398 0.0
H391 H 0.08343 0.42028 0.93274 0.0
O392 O 1.00947 0.50761 0.90098 0.0
O393 O 0.01892 0.5491 0.71829 0.0
O394 O 0.06972 0.54292 0.66912 0.0
O395 O 0.05998 0.50274 0.73105 0.0
O396 O 0.03498 0.53913 0.84143 0.0
O397 O 0.97661 0.50772 0.80824 0.0
O398 O 0.04506 0.55494 0.43479 0.0
O399 O 0.03072 0.51042 0.61418 0.0
O400 O 0.97969 0.51594 0.67178 0.0
O401 O 0.99005 0.55032 0.57643 0.0
O402 O 1.0175 0.51975 0.48695 0.0
O403 O 0.07503 0.54827 0.53439 0.0
C404 C 0.0293 0.55844 0.79058 0.0
C405 C 0.04962 0.40329 0.80221 0.0
C406 C 0.03028 0.39767 0.73705 0.0
C407 C 0.98474 0.51272 0.8913 0.0
C408 C 0.97545 0.53737 0.936 0.0
C409 C 0.99018 0.54962 1.00602 0.0
C410 C 0.95267 0.5497 0.90517 0.0
C411 C 0.94416 0.57365 0.94467 0.0
C412 C 0.9824 0.57376 0.0435 0.0
C413 C 0.95953 0.58567 1.01358 0.0
C414 C 0.0769 0.52135 0.71137 0.0
C415 C 0.02137 0.50069 0.54092 0.0
C416 C 0.06856 0.54633 0.4487 0.0
C417 C 0.07578 0.52163 0.39975 0.0
C418 C 0.06065 0.51205 0.32605 0.0
C419 C 0.09667 0.50639 0.43097 0.0
C420 C 0.10311 0.48229 0.38773 0.0
C421 C 0.06617 0.48771 0.28526 0.0
C422 C 0.08728 0.47296 0.31531 0.0
C423 C 0.97312 0.53376 0.6116 0.0
H424 H 1.00795 0.54078 0.03105 0.0
H425 H 0.94144 0.54052 0.85066 0.0
H426 H 0.99394 0.5831 0.09699 0.0
H427 H 0.95343 0.60377 0.04724 0.0
H428 H 0.04422 0.52312 0.3008 0.0
H429 H 0.10803 0.51345 0.48889 0.0
H430 H 0.05429 0.48044 0.22897 0.0
H431 H 0.09175 0.45479 0.27897 0.0
H432 H 0.19278 0.05864 0.15229 0.0
H433 H 0.22925 0.04165 0.40892 0.0
H434 H 0.14959 0.05835 0.22694 0.0
H435 H 0.18681 0.04082 0.48241 0.0
H436 H 0.11259 0.06608 0.61943 0.0
H437 H 0.1531 0.06944 0.53386 0.0
H438 H 0.1164 0.0315 0.30056 0.0
H439 H 0.0756 0.02844 0.3864 0.0
C440 C 0.19159 0.05462 0.22422 0.0
C441 C 0.21454 0.05022 0.27464 0.0
C442 C 0.16683 0.05442 0.26722 0.0
C443 C 0.16449 0.04995 0.3616 0.0
C444 C 0.18757 0.04503 0.41055 0.0
C445 C 0.21204 0.04523 0.36797 0.0
C446 C 0.11307 0.05834 0.55001 0.0
C447 C 0.09081 0.04631 0.51122 0.0
C448 C 0.13645 0.06025 0.50058 0.0
C449 C 0.13848 0.05022 0.4103 0.0
C450 C 0.1158 0.03943 0.36971 0.0
C451 C 0.09231 0.03755 0.41938 0.0
H452 H 0.51575 0.2282 0.40181 0.0
H453 H 0.49206 0.19141 0.14694 0.0
H454 H 0.51452 0.18621 0.47509 0.0
H455 H 0.49059 0.14874 0.22123 0.0
H456 H 0.5219 0.07502 0.3802 0.0
H457 H 0.51884 0.11513 0.29363 0.0
H458 H 0.48285 0.15456 0.52532 0.0
H459 H 0.48595 0.11468 0.61149 0.0
C460 C 0.51024 0.21103 0.36127 0.0
C461 C 0.50398 0.21323 0.26856 0.0
C462 C 0.5093 0.1869 0.40365 0.0
C463 C 0.50209 0.16397 0.3548 0.0
C464 C 0.49625 0.16596 0.26112 0.0
C465 C 0.49705 0.1904 0.21847 0.0
C466 C 0.51316 0.09216 0.41259 0.0
C467 C 0.50498 0.09171 0.50425 0.0
C468 C 0.51128 0.1152 0.36255 0.0
C469 C 0.50114 0.13839 0.40283 0.0
C470 C 0.49149 0.13738 0.4926 0.0
C471 C 0.4933 0.11442 0.5423 0.0
H472 H 0.33921 0.50313 0.40489 0.0
H473 H 0.36945 0.52101 0.13963 0.0
H474 H 0.38294 0.50556 0.46884 0.0
H475 H 0.41389 0.52393 0.20466 0.0
H476 H 0.48179 0.55857 0.39112 0.0
H477 H 0.44012 0.55199 0.31115 0.0
H478 H 0.42514 0.48403 0.47146 0.0
H479 H 0.46667 0.49086 0.55136 0.0
C480 C 0.35532 0.50755 0.35994 0.0
C481 C 0.35073 0.5119 0.26705 0.0
C482 C 0.38055 0.50882 0.39679 0.0
C483 C 0.4022 0.51498 0.34248 0.0
C484 C 0.39772 0.51931 0.24896 0.0
C485 C 0.37227 0.51754 0.21141 0.0
C486 C 0.46952 0.54224 0.4092 0.0
C487 C 0.47707 0.52586 0.48012 0.0
C488 C 0.44572 0.53831 0.36274 0.0
C489 C 0.42889 0.51767 0.38524 0.0
C490 C 0.43718 0.50051 0.45335 0.0
C491 C 0.46097 0.50447 0.49972 0.0
H492 H 0.03382 0.36108 0.17482 0.0
H493 H 0.04599 0.33264 0.44542 0.0
H494 H 0.02926 0.40589 0.23909 0.0
H495 H 0.04121 0.37682 0.50938 0.0
H496 H 0.05676 0.46269 0.59111 0.0
H497 H 0.0628 0.4189 0.52179 0.0
H498 H 1.00033 0.43383 0.3321 0.0
H499 H 0.99444 0.47745 0.40165 0.0
C500 C 0.03542 0.36432 0.24782 0.0
C501 C 0.04024 0.34316 0.30481 0.0
C502 C 0.03275 0.39003 0.28498 0.0
C503 C 0.03501 0.39524 0.37992 0.0
C504 C 0.0398 0.37392 0.43615 0.0
C505 C 0.04232 0.34843 0.39928 0.0
C506 C 0.04405 0.45642 0.53567 0.0
C507 C 0.02454 0.4733 0.50395 0.0
C508 C 0.04757 0.43131 0.49533 0.0
C509 C 0.03195 0.42249 0.42111 0.0
C510 C 1.01288 0.43976 0.38836 0.0
C511 C 1.00931 0.46474 0.42894 0.0
H512 H 0.82882 1.01863 0.05744 0.0
H513 H 0.87435 0.9602 0.19269 0.0
H514 H 0.86611 0.02721 0.95643 0.0
H515 H 0.91157 0.96905 0.09386 0.0
H516 H 0.98078 1.01186 0.95924 0.0
H517 H 0.9438 1.00508 0.06062 0.0
H518 H 0.89171 1.00171 0.82952 0.0
H519 H 0.92887 1.00753 0.72739 0.0
C520 C 0.8469 1.00796 0.06668 0.0
C521 C 0.84866 0.98885 0.13361 0.0
C522 C 0.8682 1.01267 1.00826 0.0
C523 C 0.89193 0.99879 1.01667 0.0
C524 C 0.89377 0.98025 0.08551 0.0
C525 C 0.87239 0.97517 0.14227 0.0
C526 C 0.96151 1.00969 0.92939 0.0
C527 C 0.95801 1.01085 0.83421 0.0
C528 C 0.94023 1.00575 0.98797 0.0
C529 C 0.91461 1.0032 0.95369 0.0
C530 C 0.91105 1.00413 0.85867 0.0
C531 C 0.93245 1.00754 0.79984 0.0
H532 H 0.53278 0.83823 0.06661 0.0
H533 H 0.59609 0.88188 0.1913 0.0
H534 H 0.52445 0.87463 0.96416 0.0
H535 H 0.58738 0.91841 0.09115 0.0
H536 H 0.543 0.98755 0.95666 0.0
H537 H 0.55031 0.9518 0.06042 0.0
H538 H 0.55136 0.8967 0.83266 0.0
H539 H 0.54522 0.93258 0.72809 0.0
C540 C 0.54458 0.85577 0.07328 0.0
C541 C 0.56499 0.85727 0.13739 0.0
C542 C 0.53999 0.87651 1.01409 0.0
C543 C 0.55531 0.89942 0.01923 0.0
C544 C 0.57515 0.90115 0.08551 0.0
C545 C 0.58013 0.88022 0.14292 0.0
C546 C 0.54481 0.96788 0.92807 0.0
C547 C 0.54287 0.9631 0.83315 0.0
C548 C 0.54904 0.94735 0.98795 0.0
C549 C 0.551 0.92131 0.9551 0.0
C550 C 0.54939 0.91647 0.86042 0.0
C551 C 0.54578 0.93711 0.80028 0.0
H552 H 0.67152 0.59648 0.12815 0.0
H553 H 0.69132 0.51449 0.13143 0.0
H554 H 0.63391 0.58671 0.03204 0.0
H555 H 0.65329 0.50448 0.0337 0.0
H556 H 0.56635 0.4955 0.94121 0.0
H557 H 0.60572 0.50356 0.03261 0.0
H558 H 0.62065 0.57351 0.88247 0.0
H559 H 0.58101 0.56552 0.79267 0.0
C560 C 0.66778 0.57625 0.1083 0.0
C561 C 0.68446 0.55629 0.13799 0.0
C562 C 0.6462 0.57064 0.0523 0.0
C563 C 0.64031 0.54478 0.02421 0.0
C564 C 0.65695 0.52464 0.0544 0.0
C565 C 0.67883 0.53034 0.11033 0.0
C566 C 0.57823 0.51247 0.92736 0.0
C567 C 0.57089 0.52951 0.85816 0.0
C568 C 0.60094 0.51703 0.97945 0.0
C569 C 0.61671 0.53913 0.96522 0.0
C570 C 0.60908 0.55635 0.89633 0.0
C571 C 0.58646 0.55165 0.84382 0.0
H572 H 0.03492 0.71017 0.10029 0.0
H573 H 0.95372 0.68837 0.07788 0.0
H574 H 0.04692 0.6714 1.0057 0.0
H575 H 0.9655 0.65009 0.98494 0.0
H576 H 0.9902 0.59419 0.75493 0.0
H577 H 0.9811 0.63565 0.83711 0.0
H578 H 0.04831 0.62339 1.00897 0.0
H579 H 0.05739 0.58224 0.92607 0.0
C580 C 0.01966 0.69716 0.07543 0.0
C581 C 0.99333 0.70245 0.09702 0.0
C582 C 0.02649 0.67485 0.02123 0.0
C583 C 1.00716 0.65744 0.98649 0.0
C584 C 0.98095 0.66302 1.00841 0.0
C585 C 0.9742 0.685 0.06271 0.0
C586 C 1.00329 0.60064 0.80905 0.0
C587 C 0.02481 0.58509 0.8327 0.0
C588 C 0.99797 0.62433 0.85706 0.0
C589 C 1.01397 0.63315 0.93029 0.0
C590 C 0.03573 0.61767 0.95254 0.0
C591 C 0.04088 0.59394 0.90515 0.0
H592 H 0.08978 0.25674 0.36196 0.0
H593 H 0.12975 0.21389 0.14548 0.0
H594 H 0.10208 0.2241 0.46761 0.0
H595 H 0.14165 0.18028 0.25276 0.0
H596 H 0.08873 0.16052 0.62072 0.0
H597 H 0.12106 0.18895 0.55189 0.0
H598 H 0.10458 0.15294 0.28823 0.0
H599 H 0.07243 0.12534 0.35562 0.0
C600 C 0.10243 0.24109 0.33734 0.0
C601 C 0.10736 0.23714 0.24372 0.0
C602 C 0.10965 0.22211 0.39887 0.0
C603 C 0.12151 0.19869 0.36747 0.0
C604 C 0.13151 0.19761 0.27818 0.0
C605 C 0.12448 0.21679 0.21652 0.0
C606 C 0.09268 0.15817 0.54844 0.0
C607 C 0.07694 0.14174 0.49284 0.0
C608 C 0.11143 0.17426 0.50921 0.0
C609 C 0.11452 0.17417 0.41396 0.0
C610 C 0.10253 0.15402 0.36167 0.0
C611 C 0.08375 0.13808 0.40064 0.0
H612 H 0.34426 0.13768 0.14227 0.0
H613 H 0.29892 0.0973 0.34319 0.0
H614 H 0.37771 0.14706 0.25704 0.0
H615 H 0.33142 0.10714 0.4562 0.0
H616 H 0.39341 0.09026 0.61713 0.0
H617 H 0.36644 0.12415 0.55018 0.0
H618 H 0.40372 0.10895 0.28984 0.0
H619 H 0.42987 0.0753 0.35521 0.0
C620 C 0.34083 0.13178 0.21155 0.0
C621 C 0.31968 0.11532 0.23192 0.0
C622 C 0.35992 0.13737 0.27755 0.0
C623 C 0.35798 0.12658 0.36443 0.0
C624 C 0.33404 0.11531 0.38953 0.0
C625 C 0.31514 0.10952 0.32368 0.0
C626 C 0.39635 0.09478 0.54619 0.0
C627 C 0.41267 0.07902 0.49027 0.0
C628 C 0.38111 0.11442 0.50812 0.0
C629 C 0.38194 0.11838 0.41368 0.0
C630 C 0.40207 0.10624 0.36253 0.0
C631 C 0.41717 0.08659 0.4003 0.0
H632 H 0.4164 0.33964 0.16238 0.0
H633 H 0.47931 0.31587 0.33726 0.0
H634 H 0.40871 0.378 0.26097 0.0
H635 H 0.4734 0.35448 0.43128 0.0
H636 H 0.49592 0.42828 0.49879 0.0
H637 H 0.46584 0.39197 0.50679 0.0
H638 H 0.43033 0.41545 0.2539 0.0
H639 H 0.4582 0.45318 0.25253 0.0
C640 C 0.42803 0.34226 0.22366 0.0
C641 C 0.44909 0.32544 0.24048 0.0
C642 C 0.42394 0.36446 0.2798 0.0
C643 C 0.44175 0.37083 0.35047 0.0
C644 C 0.45958 0.35125 0.3764 0.0
C645 C 0.46315 0.32876 0.3219 0.0
C646 C 0.48088 0.42642 0.44708 0.0
C647 C 0.48085 0.44241 0.37057 0.0
C648 C 0.46375 0.40518 0.45088 0.0
C649 C 0.4474 0.3989 0.37603 0.0
C650 C 0.44351 0.41832 0.31085 0.0
C651 C 0.45996 0.44003 0.30884 0.0
H652 H 0.26217 0.4691 0.34481 0.0
H653 H 0.22099 0.42404 0.13678 0.0
H654 H 0.22856 0.45884 0.454 0.0
H655 H 0.18617 0.41595 0.24372 0.0
H656 H 0.11426 0.42917 0.38202 0.0
H657 H 0.15788 0.40985 0.37041 0.0
H658 H 0.19171 0.48567 0.43443 0.0
H659 H 0.14922 0.50473 0.44256 0.0
C660 C 0.24656 0.45611 0.32275 0.0
C661 C 0.24335 0.44885 0.2302 0.0
C662 C 0.22708 0.45037 0.3857 0.0
C663 C 0.20375 0.43832 0.35598 0.0
C664 C 0.20338 0.42615 0.26877 0.0
C665 C 0.22325 0.43119 0.20652 0.0
C666 C 0.13108 0.44156 0.39517 0.0
C667 C 0.1281 0.46878 0.4094 0.0
C668 C 0.15608 0.43039 0.38953 0.0
C669 C 0.17845 0.44624 0.39873 0.0
C670 C 0.17516 0.4726 0.42671 0.0
C671 C 0.15039 0.48375 0.43119 0.0
H672 H 0.96266 0.79902 0.97854 0.0
H673 H 0.91971 0.84332 0.18406 0.0
H674 H 0.95203 0.83098 0.86794 0.0
H675 H 0.90925 0.87608 0.07186 0.0
H676 H 0.97832 0.93148 0.97412 0.0
H677 H 0.9459 0.90376 0.03905 0.0
H678 H 0.93397 0.86496 0.77691 0.0
H679 H 0.96661 0.89351 0.71043 0.0
C680 C 0.9497 0.81485 0.99936 0.0
C681 C 0.94326 0.81934 0.09153 0.0
C682 C 0.94344 0.8334 0.93507 0.0
C683 C 0.93101 0.85693 0.96226 0.0
C684 C 0.91979 0.85864 0.04973 0.0
C685 C 0.92594 0.83994 0.11419 0.0
C686 C 0.96797 0.91805 0.92863 0.0
C687 C 0.97617 0.91371 0.8381 0.0
C688 C 0.94902 0.90203 0.96616 0.0
C689 C 0.93824 0.88113 0.91417 0.0
C690 C 0.94269 0.88024 0.81955 0.0
C691 C 0.96161 0.89641 0.78173 0.0
H692 H 0.70583 0.91754 0.18367 0.0
H693 H 0.75312 0.9599 0.99367 0.0
H694 H 0.67285 0.91048 0.06549 0.0
H695 H 0.72092 0.95253 0.87703 0.0
H696 H 0.65887 0.97073 0.71239 0.0
H697 H 0.68631 0.93697 0.77792 0.0
H698 H 0.6476 0.94948 0.03721 0.0
H699 H 0.62097 0.98307 0.97327 0.0
C700 C 0.7098 0.92428 0.11575 0.0
C701 C 0.73137 0.94061 0.09969 0.0
C702 C 0.69094 0.92011 0.04785 0.0
C703 C 0.69355 0.93218 0.96336 0.0
C704 C 0.71782 0.94337 0.94181 0.0
C705 C 0.73654 0.9477 1.00961 0.0
C706 C 0.65577 0.96569 0.78278 0.0
C707 C 0.63874 0.9806 0.83887 0.0
C708 C 0.6713 0.94613 0.82 0.0
C709 C 0.67 0.94128 0.91376 0.0
C710 C 0.64953 0.9528 0.96497 0.0
C711 C 0.63416 0.9724 0.92806 0.0
H712 H 0.56838 0.74529 1.00361 0.0
H713 H 0.63311 0.72058 0.16839 0.0
H714 H 0.57283 0.70674 0.90782 0.0
H715 H 0.63944 0.68246 0.06745 0.0
H716 H 0.58984 0.60735 0.08167 0.0
H717 H 0.61704 0.64552 0.07947 0.0
H718 H 0.57941 0.66922 0.83044 0.0
H719 H 0.55018 0.63215 0.83897 0.0
C720 C 0.58469 0.73228 1.01584 0.0
C721 C 0.5997 0.73525 0.09526 0.0
C722 C 0.58739 0.70983 0.96043 0.0
C723 C 0.60535 0.69005 0.98341 0.0
C724 C 0.62413 0.69619 0.05118 0.0
C725 C 0.62087 0.71829 0.10843 0.0
C726 C 0.58748 0.62062 0.02595 0.0
C727 C 0.56643 0.61783 0.96511 0.0
C728 C 0.60355 0.64259 0.02342 0.0
C729 C 0.59909 0.66205 0.9588 0.0
C730 C 0.58212 0.65584 0.88556 0.0
C731 C 0.56548 0.6342 0.88967 0.0
H732 H 0.82422 0.62375 0.19761 0.0
H733 H 0.78343 0.57603 0.99628 0.0
H734 H 0.85786 0.63288 0.08698 0.0
H735 H 0.81644 0.58627 0.88379 0.0
H736 H 0.89984 0.54609 0.90133 0.0
H737 H 0.85575 0.56159 0.90975 0.0
H738 H 0.8833 0.64097 0.95068 0.0
H739 H 0.9283 0.62531 0.93821 0.0
C740 C 0.82174 0.61636 0.12823 0.0
C741 C 0.80204 0.59808 0.10687 0.0
C742 C 0.84092 0.62184 0.06406 0.0
C743 C 0.84051 0.60912 0.97779 0.0
C744 C 0.81774 0.59555 0.95091 0.0
C745 C 0.79871 0.58977 1.0155 0.0
C746 C 0.89684 0.56703 0.90751 0.0
C747 C 0.91785 0.5843 0.9228 0.0
C748 C 0.8712 0.57606 0.91203 0.0
C749 C 0.86588 0.60253 0.93356 0.0
C750 C 0.88678 0.62037 0.93617 0.0
C751 C 0.91257 0.61132 0.93033 0.0
H752 H 0.07515 0.22331 0.89396 0.0
H753 H 1.01333 0.20991 0.0857 0.0
H754 H 0.06391 0.18276 0.81069 0.0
H755 H 1.00262 0.16875 1.00599 0.0
H756 H 0.97696 0.10252 0.81332 0.0
H757 H 0.98549 0.14534 0.88347 0.0
H758 H 0.06731 0.13735 0.81415 0.0
H759 H 0.05814 0.09491 0.73937 0.0
C760 C 0.05858 0.21203 0.91668 0.0
C761 C 0.04459 0.22038 0.99486 0.0
C762 C 0.05247 0.18833 0.87015 0.0
C763 C 0.03245 0.17182 0.90131 0.0
C764 C 1.01789 0.18076 0.97802 0.0
C765 C 0.02385 0.20463 0.02382 0.0
C766 C 0.99683 0.10983 0.81368 0.0
C767 C 1.01695 0.09486 0.77269 0.0
C768 C 1.00183 0.13451 0.85456 0.0
C769 C 0.02721 0.14527 0.85601 0.0
C770 C 0.0474 0.13022 0.81425 0.0
C771 C 0.04229 0.10552 0.77254 0.0
H772 H 0.34336 0.02324 0.06179 0.0
H773 H 0.3318 0.08472 0.87141 0.0
H774 H 0.38397 1.01073 0.98531 0.0
H775 H 0.37174 0.07154 0.79065 0.0
H776 H 0.45914 0.06232 0.72738 0.0
H777 H 0.417 0.07329 0.79731 0.0
H778 H 0.40669 0.99217 0.86541 0.0
H779 H 0.44938 0.98192 0.80085 0.0
C780 C 0.34892 0.0333 1.00075 0.0
C781 C 0.3339 0.05447 0.97123 0.0
C782 C 0.37245 0.02627 0.95674 0.0
C783 C 0.38171 0.04012 0.88119 0.0
C784 C 0.36589 0.06061 0.84934 0.0
C785 C 0.34255 0.06784 0.89433 0.0
C786 C 0.4481 0.04702 0.75937 0.0
C787 C 0.4581 0.0214 0.7612 0.0
C788 C 0.42356 0.05316 0.79817 0.0
C789 C 0.40797 0.03371 0.83824 0.0
C790 C 0.418 1.00799 0.8379 0.0
C791 C 0.44258 1.002 0.80023 0.0
H792 H 0.4619 0.32164 0.86165 0.0
H793 H 0.53013 0.33855 0.0244 0.0
H794 H 0.47202 0.35849 0.76494 0.0
H795 H 0.53984 0.37615 0.93147 0.0
H796 H 0.55753 0.44082 0.73925 0.0
H797 H 0.5526 0.39707 0.79949 0.0
H798 H 0.46871 0.40358 0.77169 0.0
H799 H 0.47391 0.4464 0.7069 0.0
C800 C 0.47959 0.33277 0.87476 0.0
C801 C 0.49559 0.32675 0.94916 0.0
C802 C 0.48517 0.35433 0.82052 0.0
C803 C 0.50661 0.37094 0.84044 0.0
C804 C 0.52336 0.36392 0.9123 0.0
C805 C 0.51792 0.34217 0.96573 0.0
C806 C 0.53808 0.43274 0.74449 0.0
C807 C 0.51612 0.44758 0.71984 0.0
C808 C 0.53517 0.4076 0.78017 0.0
C809 C 0.51018 0.39649 0.79239 0.0
C810 C 0.48835 0.41096 0.76322 0.0
C811 C 0.49131 0.43591 0.72696 0.0
H812 H 0.22326 0.53953 0.01796 0.0
H813 H 0.23122 0.46412 0.88276 0.0
H814 H 0.18298 0.54744 0.93192 0.0
H815 H 0.19142 0.47195 0.79571 0.0
H816 H 0.10197 0.47676 0.76535 0.0
H817 H 0.14569 0.47229 0.82866 0.0
H818 H 0.15982 0.55445 0.78922 0.0
H819 H 0.11572 0.55898 0.7274 0.0
C820 C 0.21705 0.52514 0.96691 0.0
C821 C 0.2308 0.50138 0.95623 0.0
C822 C 0.19374 0.52952 0.91795 0.0
C823 C 0.18341 0.51016 0.85743 0.0
C824 C 0.19821 0.48715 0.84279 0.0
C825 C 0.22141 0.48282 0.89153 0.0
C826 C 0.11427 0.49397 0.77034 0.0
C827 C 0.10479 0.51837 0.7425 0.0
C828 C 0.13966 0.49134 0.80588 0.0
C829 C 0.15664 0.51301 0.81478 0.0
C830 C 0.14739 0.53732 0.78489 0.0
C831 C 0.12198 0.53991 0.74876 0.0
H832 H 0.03452 0.84615 0.26011 0.0
H833 H 0.97185 0.83334 0.44903 0.0
H834 H 0.04515 0.88733 0.33966 0.0
H835 H 0.98298 0.87399 0.53217 0.0
H836 H 0.9892 0.9624 0.59949 0.0
H837 H 0.97997 0.91962 0.52686 0.0
H838 H 0.06205 0.91045 0.4634 0.0
H839 H 0.0707 0.95347 0.53144 0.0
C840 C 0.02379 0.85157 0.32141 0.0
C841 C 1.00288 0.83595 0.34973 0.0
C842 C 0.02971 0.87544 0.36712 0.0
C843 C 1.01491 0.88456 0.443 0.0
C844 C 0.99464 0.86823 0.47342 0.0
C845 C 0.98859 0.84449 0.42701 0.0
C846 C 1.00511 0.95139 0.56838 0.0
C847 C 0.03059 0.96176 0.56921 0.0
C848 C 0.99996 0.92654 0.52779 0.0
C849 C 0.0202 0.91112 0.48803 0.0
C850 C 0.04569 0.92158 0.49072 0.0
C851 C 0.05074 0.94637 0.53046 0.0
H852 H 0.70482 0.03115 0.26958 0.0
H853 H 0.71736 0.97039 0.46204 0.0
H854 H 0.66403 0.04327 0.34593 0.0
H855 H 0.67714 0.98308 0.54217 0.0
H856 H 0.5891 0.99126 0.60183 0.0
H857 H 0.63153 0.98062 0.53286 0.0
H858 H 0.64184 0.06198 0.46826 0.0
H859 H 0.59906 0.07199 0.53244 0.0
C860 C 0.69939 0.02116 0.3309 0.0
C861 C 0.71476 1.00034 0.36126 0.0
C862 C 0.67579 0.02795 0.37479 0.0
C863 C 0.66678 1.01416 0.45081 0.0
C864 C 0.68287 0.99397 0.48321 0.0
C865 C 0.70633 0.98701 0.43853 0.0
C866 C 0.60028 1.0067 0.57124 0.0
C867 C 0.5903 0.03235 0.57038 0.0
C868 C 0.62492 1.00074 0.53282 0.0
C869 C 0.64052 0.02036 0.49383 0.0
C870 C 0.63051 0.04608 0.49508 0.0
C871 C 0.60589 0.05192 0.53256 0.0
H872 H 0.51986 0.71484 0.29727 0.0
H873 H 0.58274 0.73642 0.47912 0.0
H874 H 0.51011 0.67696 0.38911 0.0
H875 H 0.57266 0.69903 0.57377 0.0
H876 H 0.57345 0.61064 0.63266 0.0
H877 H 0.57843 0.65344 0.56657 0.0
H878 H 0.49497 0.65725 0.52282 0.0
H879 H 0.49028 0.61375 0.5854 0.0
C880 C 0.53084 0.71208 0.35942 0.0
C881 C 0.55165 0.72898 0.38216 0.0
C882 C 0.52537 0.69022 0.41222 0.0
C883 C 0.54067 0.68449 0.48924 0.0
C884 C 0.56065 0.70233 0.51442 0.0
C885 C 0.56617 0.72413 0.4612 0.0
C886 C 0.55611 0.62058 0.60907 0.0
C887 C 0.53152 0.6083 0.61279 0.0
C888 C 0.55892 0.64545 0.57193 0.0
C889 C 0.53715 0.65909 0.53797 0.0
C890 C 0.51234 0.64733 0.54624 0.0
C891 C 0.50956 0.62236 0.58321 0.0
H892 H 0.83536 0.51786 0.26188 0.0
H893 H 0.808 0.56648 0.48635 0.0
H894 H 0.8766 0.51073 0.34179 0.0
H895 H 0.84939 0.55925 0.56752 0.0
H896 H 0.92644 0.52588 0.70282 0.0
H897 H 0.88176 0.52671 0.64014 0.0
H898 H 0.91334 0.5414 0.37393 0.0
H899 H 0.95737 0.54057 0.43629 0.0
C900 C 0.83772 0.5261 0.33021 0.0
C901 C 0.81804 0.5422 0.36853 0.0
C902 C 0.8616 0.5224 0.37555 0.0
C903 C 0.86664 0.53467 0.46093 0.0
C904 C 0.84625 0.54934 0.50225 0.0
C905 C 0.82236 0.55328 0.45618 0.0
C906 C 0.92378 0.52944 0.6311 0.0
C907 C 0.94566 0.53388 0.57525 0.0
C908 C 0.89813 0.52994 0.59509 0.0
C909 C 0.89375 0.53406 0.5016 0.0
C910 C 0.91575 0.53799 0.44596 0.0
C911 C 0.94115 0.53798 0.48218 0.0
loop_
_geom_bond_atom_site_label_1
_geom_bond_atom_site_label_2
_geom_bond_distance
_geom_bond_site_symmetry_2
_ccdc_geom_bond_type
H0 C5 0.930 . S
H1 C8 0.930 . S
H2 C10 0.930 . S
H3 C4 1.016 . S
C4 H3 1.016 . S
C4 N11 1.286 . S
C5 H0 0.930 . S
C5 C6 1.397 . S
C5 C7 1.361 . S
C6 C5 1.397 . S
C6 C10 1.390 . S
C7 C5 1.361 . S
C7 C8 1.393 . S
C7 N11 1.413 . S
C8 H1 0.930 . S
C8 C7 1.393 . S
C8 C9 1.399 . S
C9 C8 1.399 . S
C9 C10 1.381 . S
C10 H2 0.930 . S
C10 C6 1.390 . S
C10 C9 1.381 . S
N11 C4 1.286 . S
N11 C7 1.413 . S
H12 C17 0.930 . S
H13 C20 0.930 . S
H14 C22 0.930 . S
H15 C16 1.016 . S
C16 H15 1.016 . S
C16 N23 1.286 . S
C17 H12 0.930 . S
C17 C18 1.397 . S
C17 C19 1.361 . S
C18 C17 1.397 . S
C18 C22 1.390 . S
C19 C17 1.361 . S
C19 C20 1.393 . S
C19 N23 1.413 . S
C20 H13 0.930 . S
C20 C19 1.393 . S
C20 C21 1.399 . S
C21 C20 1.399 . S
C21 C22 1.381 . S
C22 H14 0.930 . S
C22 C18 1.390 . S
C22 C21 1.381 . S
N23 C16 1.286 . S
N23 C19 1.413 . S
H24 C29 0.930 . S
H25 C32 0.930 . S
H26 C34 0.930 . S
H27 C28 1.016 . S
C28 H27 1.016 . S
C28 N35 1.286 . S
C29 H24 0.930 . S
C29 C30 1.397 . S
C29 C31 1.361 . S
C30 C29 1.397 . S
C30 C34 1.390 . S
C31 C29 1.361 . S
C31 C32 1.393 . S
C31 N35 1.413 . S
C32 H25 0.930 . S
C32 C31 1.393 . S
C32 C33 1.399 . S
C33 C32 1.399 . S
C33 C34 1.381 . S
C34 H26 0.930 . S
C34 C30 1.390 . S
C34 C33 1.381 . S
N35 C28 1.286 . S
N35 C31 1.413 . S
H36 C41 0.930 . S
H37 C44 0.930 . S
H38 C46 0.930 . S
H39 C40 1.016 . S
C40 H39 1.016 . S
C40 N47 1.286 . S
C41 H36 0.930 . S
C41 C42 1.397 . S
C41 C43 1.361 . S
C42 C41 1.397 . S
C42 C46 1.390 . S
C43 C41 1.361 . S
C43 C44 1.393 . S
C43 N47 1.413 . S
C44 H37 0.930 . S
C44 C43 1.393 . S
C44 C45 1.399 . S
C45 C44 1.399 . S
C45 C46 1.381 . S
C46 H38 0.930 . S
C46 C42 1.390 . S
C46 C45 1.381 . S
N47 C40 1.286 . S
N47 C43 1.413 . S
H48 C53 0.930 . S
H49 C56 0.930 . S
H50 C58 0.930 . S
H51 C52 1.016 . S
C52 H51 1.016 . S
C52 N59 1.286 . S
C53 H48 0.930 . S
C53 C54 1.397 . S
C53 C55 1.361 1_556 S
C54 C53 1.397 . S
C54 C58 1.390 . S
C55 C53 1.361 1_554 S
C55 C56 1.393 . S
C55 N59 1.413 . S
C56 H49 0.930 . S
C56 C55 1.393 . S
C56 C57 1.399 . S
C57 C56 1.399 . S
C57 C58 1.381 1_554 S
C58 H50 0.930 . S
C58 C54 1.390 . S
C58 C57 1.381 1_556 S
N59 C52 1.286 . S
N59 C55 1.413 . S
H60 C65 0.930 . S
H61 C68 0.930 . S
H62 C70 0.930 . S
H63 C64 1.016 . S
C64 H63 1.016 . S
C64 N71 1.286 . S
C65 H60 0.930 . S
C65 C66 1.397 . S
C65 C67 1.361 1_556 S
C66 C65 1.397 . S
C66 C70 1.390 . S
C67 C65 1.361 1_554 S
C67 C68 1.393 . S
C67 N71 1.413 . S
C68 H61 0.930 . S
C68 C67 1.393 . S
C68 C69 1.399 . S
C69 C68 1.399 . S
C69 C70 1.381 1_554 S
C70 H62 0.930 . S
C70 C66 1.390 . S
C70 C69 1.381 1_556 S
N71 C64 1.286 . S
N71 C67 1.413 . S
H72 C77 0.930 . S
H73 C80 0.930 . S
H74 C82 0.930 . S
H75 C76 1.016 . S
C76 H75 1.016 . S
C76 N83 1.286 . S
C77 H72 0.930 . S
C77 C78 1.397 . S
C77 C79 1.373 . S
C78 C77 1.397 . S
C78 C82 1.390 . S
C79 C77 1.373 . S
C79 C80 1.383 1_556 S
C79 N83 1.412 1_556 S
C80 H73 0.930 . S
C80 C79 1.383 1_554 S
C80 C81 1.399 . S
C81 C80 1.399 . S
C81 C82 1.381 1_554 S
C82 H74 0.930 . S
C82 C78 1.390 . S
C82 C81 1.381 1_556 S
N83 C76 1.286 . S
N83 C79 1.412 1_554 S
H84 C89 0.930 . S
H85 C92 0.930 . S
H86 C94 0.930 . S
H87 C88 1.016 . S
C88 H87 1.016 . S
C88 N95 1.286 . S
C89 H84 0.930 . S
C89 C90 1.397 . S
C89 C91 1.361 1_556 S
C90 C89 1.397 . S
C90 C94 1.390 . S
C91 C89 1.361 1_554 S
C91 C92 1.393 . S
C91 N95 1.413 . S
C92 H85 0.930 . S
C92 C91 1.393 . S
C92 C93 1.399 . S
C93 C92 1.399 . S
C93 C94 1.381 1_554 S
C94 H86 0.930 . S
C94 C90 1.390 . S
C94 C93 1.381 1_556 S
N95 C88 1.286 . S
N95 C91 1.413 . S
Gd96 N127 2.649 1_545 S
Gd96 N133 2.601 . S
Gd96 O140 2.545 . S
Gd96 O141 2.606 1_655 S
Gd96 O143 2.429 . S
Gd96 O144 2.545 1_655 S
Gd96 O145 2.412 . S
Gd96 O147 2.362 1_545 S
Gd96 O148 2.324 1_655 S
Gd96 C155 2.828 . S
Gd97 N106 2.661 1_565 S
Gd97 N110 2.601 1_565 S
Gd97 O141 2.362 1_565 S
Gd97 O142 2.324 1_455 S
Gd97 O146 2.545 . S
Gd97 O147 2.606 1_455 S
Gd97 O149 2.429 . S
Gd97 O150 2.545 . S
Gd97 O151 2.412 . S
Gd97 C164 2.828 . S
C98 C101 1.417 1_554 S
C98 C103 1.431 . S
C98 C104 1.412 . S
C99 C102 1.437 1_554 S
C99 C103 1.317 . S
C99 H118 0.929 . S
C100 C101 1.426 . S
C100 C102 1.413 . S
C100 N110 1.359 . S
C101 C98 1.417 1_556 S
C101 C100 1.426 . S
C101 N106 1.350 . S
C102 C99 1.437 1_556 S
C102 C100 1.413 . S
C102 C112 1.391 . S
C103 C98 1.431 . S
C103 C99 1.317 . S
C103 H114 0.930 . S
C104 C98 1.412 . S
C104 C105 1.355 1_554 S
C104 H116 0.930 . S
C105 C104 1.355 1_556 S
C105 C107 1.402 . S
C105 H117 0.930 1_456 S
N106 Gd97 2.661 1_545 S
N106 C101 1.350 . S
N106 C107 1.307 . S
C107 C105 1.402 . S
C107 N106 1.307 . S
C107 H108 0.930 1_455 S
H108 C107 0.930 1_655 S
C109 N110 1.334 1_565 S
C109 C111 1.394 . S
C109 H113 0.930 . S
N110 Gd97 2.601 1_545 S
N110 C100 1.359 . S
N110 C109 1.334 1_545 S
C111 C109 1.394 . S
C111 C112 1.359 1_565 S
C111 H123 0.930 . S
C112 C102 1.391 . S
C112 C111 1.359 1_545 S
C112 H124 0.929 . S
H113 C109 0.930 . S
H114 C103 0.930 . S
H115 C132 0.930 . S
H116 C104 0.930 . S
H117 C105 0.930 1_654 S
H118 C99 0.929 . S
H119 C137 0.930 . S
H120 C128 0.930 . S
H121 C129 0.930 . S
H122 C153 0.929 . S
H123 C111 0.930 . S
H124 C112 0.929 . S
H125 C154 0.930 . S
H126 C135 0.930 . S
N127 Gd96 2.649 1_565 S
N127 C131 1.355 . S
N127 C132 1.316 1_655 S
C128 H120 0.930 . S
C128 C129 1.355 1_655 S
C128 C130 1.412 . S
C129 H121 0.930 . S
C129 C128 1.355 1_455 S
C129 C132 1.402 . S
C130 C128 1.412 . S
C130 C131 1.417 . S
C130 C154 1.431 . S
C131 N127 1.355 . S
C131 C130 1.417 . S
C131 C134 1.426 1_565 S
C132 H115 0.930 . S
C132 N127 1.316 1_455 S
C132 C129 1.402 . S
N133 Gd96 2.601 . S
N133 C134 1.359 . S
N133 C137 1.334 . S
C134 C131 1.426 1_545 S
C134 N133 1.359 . S
C134 C138 1.410 1_545 S
C135 H126 0.930 . S
C135 C136 1.359 . S
C135 C137 1.394 . S
C136 C135 1.359 . S
C136 C138 1.384 1_545 S
C136 H139 0.929 . S
C137 H119 0.930 . S
C137 N133 1.334 . S
C137 C135 1.394 . S
C138 C134 1.410 1_565 S
C138 C136 1.384 1_565 S
C138 C153 1.447 . S
H139 C136 0.929 . S
O140 Gd96 2.545 . S
O140 C155 1.258 . S
O141 Gd96 2.606 1_455 S
O141 Gd97 2.362 1_545 S
O141 C152 1.284 . S
O142 Gd97 2.324 1_655 S
O142 C162 1.254 1_565 S
O143 Gd96 2.429 . S
O143 C162 1.268 . S
O144 Gd96 2.545 1_455 S
O144 C152 1.250 . S
O145 Gd96 2.412 . S
O145 C155 1.252 . S
O146 Gd97 2.545 . S
O146 C164 1.258 . S
O147 Gd96 2.362 1_565 S
O147 Gd97 2.606 1_655 S
O147 C163 1.284 . S
O148 Gd96 2.324 1_455 S
O148 C171 1.254 . S
O149 Gd97 2.429 . S
O149 C171 1.268 1_565 S
O150 Gd97 2.545 . S
O150 C163 1.250 1_455 S
O151 Gd97 2.412 . S
O151 C164 1.252 . S
C152 O141 1.284 . S
C152 O144 1.250 . S
C153 H122 0.929 . S
C153 C138 1.447 . S
C153 C154 1.317 . S
C154 H125 0.930 . S
C154 C130 1.431 . S
C154 C153 1.317 . S
C155 Gd96 2.828 . S
C155 O140 1.258 . S
C155 O145 1.252 . S
C155 C156 1.497 . S
C156 C155 1.497 . S
C156 C157 1.395 . S
C156 C158 1.380 . S
C157 C156 1.395 . S
C157 C160 1.398 . S
C157 H172 0.930 . S
C158 C156 1.380 . S
C158 C159 1.391 . S
C158 H173 0.930 1_655 S
C159 C158 1.391 . S
C159 C161 1.387 . S
C160 C157 1.398 . S
C160 C161 1.380 . S
C160 H174 0.930 . S
C161 C159 1.387 . S
C161 C160 1.380 . S
C161 H175 0.930 . S
C162 O142 1.254 1_545 S
C162 O143 1.268 . S
C163 O147 1.284 . S
C163 O150 1.250 1_655 S
C164 Gd97 2.828 . S
C164 O146 1.258 . S
C164 O151 1.252 . S
C164 C165 1.497 . S
C165 C164 1.497 . S
C165 C166 1.395 . S
C165 C167 1.380 . S
C166 C165 1.395 . S
C166 C169 1.398 . S
C166 H176 0.930 . S
C167 C165 1.380 . S
C167 C168 1.391 . S
C167 H177 0.941 . S
C168 C167 1.391 . S
C168 C170 1.387 . S
C169 C166 1.398 . S
C169 C170 1.380 . S
C169 H178 0.930 . S
C170 C168 1.387 . S
C170 C169 1.380 . S
C170 H179 0.930 1_556 S
C171 O148 1.254 . S
C171 O149 1.268 1_545 S
H172 C157 0.930 . S
H173 C158 0.930 1_455 S
H174 C160 0.930 . S
H175 C161 0.930 . S
H176 C166 0.930 . S
H177 C167 0.941 . S
H178 C169 0.930 . S
H179 C170 0.930 1_554 S
Gd180 N211 2.661 . S
Gd180 N217 2.601 . S
Gd180 O224 2.545 . S
Gd180 O225 2.606 1_565 S
Gd180 O227 2.429 . S
Gd180 O228 2.545 1_565 S
Gd180 O229 2.412 . S
Gd180 O231 2.362 . S
Gd180 O232 2.324 1_565 S
Gd180 C239 2.828 . S
Gd181 N190 2.661 . S
Gd181 N194 2.601 . S
Gd181 O225 2.362 . S
Gd181 O226 2.324 1_545 S
Gd181 O230 2.545 . S
Gd181 O231 2.606 1_545 S
Gd181 O233 2.429 . S
Gd181 O234 2.545 . S
Gd181 O235 2.412 . S
Gd181 C248 2.828 . S
C182 C185 1.417 1_554 S
C182 C187 1.431 . S
C182 C188 1.412 . S
C183 C186 1.437 1_554 S
C183 C187 1.317 . S
C183 H202 0.929 . S
C184 C185 1.426 . S
C184 C186 1.413 . S
C184 N194 1.359 . S
C185 C182 1.417 1_556 S
C185 C184 1.426 . S
C185 N190 1.350 . S
C186 C183 1.437 1_556 S
C186 C184 1.413 . S
C186 C196 1.391 . S
C187 C182 1.431 . S
C187 C183 1.317 . S
C187 H198 0.930 . S
C188 C182 1.412 . S
C188 C189 1.355 1_554 S
C188 H200 0.930 . S
C189 C188 1.355 1_556 S
C189 C191 1.402 . S
C189 H201 0.930 1_546 S
N190 Gd181 2.661 . S
N190 C185 1.350 . S
N190 C191 1.307 . S
C191 C189 1.402 . S
C191 N190 1.307 . S
C191 H192 0.930 1_545 S
H192 C191 0.930 1_565 S
C193 N194 1.334 . S
C193 C195 1.394 . S
C193 H197 0.930 . S
N194 Gd181 2.601 . S
N194 C184 1.359 . S
N194 C193 1.334 . S
C195 C193 1.394 . S
C195 C196 1.359 . S
C195 H207 0.930 . S
C196 C186 1.391 . S
C196 C195 1.359 . S
C196 H208 0.929 . S
H197 C193 0.930 . S
H198 C187 0.930 . S
H199 C216 0.930 . S
H200 C188 0.930 . S
H201 C189 0.930 1_564 S
H202 C183 0.929 . S
H203 C221 0.930 . S
H204 C212 0.930 . S
H205 C213 0.930 . S
H206 C237 0.929 . S
H207 C195 0.930 . S
H208 C196 0.929 . S
H209 C238 0.930 . S
H210 C219 0.930 . S
N211 Gd180 2.661 . S
N211 C215 1.350 . S
N211 C216 1.307 1_565 S
C212 H204 0.930 . S
C212 C213 1.355 1_565 S
C212 C214 1.412 . S
C213 H205 0.930 . S
C213 C212 1.355 1_545 S
C213 C216 1.402 . S
C214 C212 1.412 . S
C214 C215 1.417 . S
C214 C238 1.431 . S
C215 N211 1.350 . S
C215 C214 1.417 . S
C215 C218 1.426 . S
C216 H199 0.930 . S
C216 N211 1.307 1_545 S
C216 C213 1.402 . S
N217 Gd180 2.601 . S
N217 C218 1.359 . S
N217 C221 1.334 . S
C218 C215 1.426 . S
C218 N217 1.359 . S
C218 C222 1.413 . S
C219 H210 0.930 . S
C219 C220 1.359 . S
C219 C221 1.394 . S
C220 C219 1.359 . S
C220 C222 1.391 . S
C220 H223 0.929 . S
C221 H203 0.930 . S
C221 N217 1.334 . S
C221 C219 1.394 . S
C222 C218 1.413 . S
C222 C220 1.391 . S
C222 C237 1.437 . S
H223 C220 0.929 . S
O224 Gd180 2.545 . S
O224 C239 1.258 . S
O225 Gd180 2.606 1_545 S
O225 Gd181 2.362 . S
O225 C236 1.284 . S
O226 Gd181 2.324 1_565 S
O226 C246 1.254 . S
O227 Gd180 2.429 . S
O227 C246 1.268 . S
O228 Gd180 2.545 1_545 S
O228 C236 1.250 . S
O229 Gd180 2.412 . S
O229 C239 1.252 . S
O230 Gd181 2.545 . S
O230 C248 1.258 . S
O231 Gd180 2.362 . S
O231 Gd181 2.606 1_565 S
O231 C247 1.287 . S
O232 Gd180 2.324 1_545 S
O232 C255 1.254 . S
O233 Gd181 2.429 . S
O233 C255 1.268 . S
O234 Gd181 2.545 . S
O234 C247 1.223 1_545 S
O235 Gd181 2.412 . S
O235 C248 1.252 . S
C236 O225 1.284 . S
C236 O228 1.250 . S
C237 H206 0.929 . S
C237 C222 1.437 . S
C237 C238 1.317 . S
C238 H209 0.930 . S
C238 C214 1.431 . S
C238 C237 1.317 . S
C239 Gd180 2.828 . S
C239 O224 1.258 . S
C239 O229 1.252 . S
C239 C240 1.497 . S
C240 C239 1.497 . S
C240 C241 1.395 . S
C240 C242 1.380 . S
C241 C240 1.395 . S
C241 C244 1.398 . S
C241 H256 0.930 . S
C242 C240 1.380 . S
C242 C243 1.391 . S
C242 H257 0.930 1_565 S
C243 C242 1.391 . S
C243 C245 1.387 . S
C244 C241 1.398 . S
C244 C245 1.380 . S
C244 H258 0.930 . S
C245 C243 1.387 . S
C245 C244 1.380 . S
C245 H259 0.930 . S
C246 O226 1.254 . S
C246 O227 1.268 . S
C247 O231 1.287 . S
C247 O234 1.223 1_565 S
C248 Gd181 2.828 . S
C248 O230 1.258 . S
C248 O235 1.252 . S
C248 C249 1.497 . S
C249 C248 1.497 . S
C249 C250 1.395 . S
C249 C251 1.380 . S
C250 C249 1.395 . S
C250 C253 1.398 . S
C250 H260 0.930 . S
C251 C249 1.380 . S
C251 C252 1.391 . S
C251 H261 0.930 . S
C252 C251 1.391 . S
C252 C254 1.387 . S
C253 C250 1.398 . S
C253 C254 1.380 . S
C253 H262 0.930 . S
C254 C252 1.387 . S
C254 C253 1.380 . S
C254 H263 0.931 1_556 S
C255 O232 1.254 . S
C255 O233 1.268 . S
H256 C241 0.930 . S
H257 C242 0.930 1_545 S
H258 C244 0.930 . S
H259 C245 0.930 . S
H260 C250 0.930 . S
H261 C251 0.930 . S
H262 C253 0.930 . S
H263 C254 0.931 1_554 S
Gd264 N295 2.661 . S
Gd264 N301 2.601 . S
Gd264 O308 2.545 . S
Gd264 O309 2.606 . S
Gd264 O311 2.429 . S
Gd264 O312 2.545 . S
Gd264 O313 2.412 . S
Gd264 O315 2.362 . S
Gd264 O316 2.324 . S
Gd264 C323 2.828 . S
Gd265 N274 2.661 . S
Gd265 N278 2.601 . S
Gd265 O309 2.362 . S
Gd265 O310 2.324 . S
Gd265 O314 2.545 . S
Gd265 O315 2.606 . S
Gd265 O317 2.429 . S
Gd265 O318 2.545 . S
Gd265 O319 2.412 . S
Gd265 C332 2.828 . S
C266 C269 1.417 . S
C266 C271 1.431 . S
C266 C272 1.412 . S
C267 C270 1.437 . S
C267 C271 1.317 . S
C267 H286 0.929 . S
C268 C269 1.426 . S
C268 C270 1.413 . S
C268 N278 1.359 . S
C269 C266 1.417 . S
C269 C268 1.426 . S
C269 N274 1.350 . S
C270 C267 1.437 . S
C270 C268 1.413 . S
C270 C280 1.391 . S
C271 C266 1.431 . S
C271 C267 1.317 . S
C271 H282 0.930 . S
C272 C266 1.412 . S
C272 C273 1.355 . S
C272 H284 0.930 . S
C273 C272 1.355 . S
C273 C275 1.402 . S
C273 H285 0.930 . S
N274 Gd265 2.661 . S
N274 C269 1.350 . S
N274 C275 1.307 . S
C275 C273 1.402 . S
C275 N274 1.307 . S
C275 H276 0.930 . S
H276 C275 0.930 . S
C277 N278 1.334 . S
C277 C279 1.394 . S
C277 H281 0.930 . S
N278 Gd265 2.601 . S
N278 C268 1.359 . S
N278 C277 1.334 . S
C279 C277 1.394 . S
C279 C280 1.359 . S
C279 H291 0.930 . S
C280 C270 1.391 . S
C280 C279 1.359 . S
C280 H292 0.929 . S
H281 C277 0.930 . S
H282 C271 0.930 . S
H283 C300 0.930 . S
H284 C272 0.930 . S
H285 C273 0.930 . S
H286 C267 0.929 . S
H287 C305 0.930 . S
H288 C296 0.930 . S
H289 C297 0.930 . S
H290 C321 0.929 . S
H291 C279 0.930 . S
H292 C280 0.929 . S
H293 C322 0.930 . S
H294 C303 0.930 . S
N295 Gd264 2.661 . S
N295 C299 1.350 . S
N295 C300 1.307 . S
C296 H288 0.930 . S
C296 C297 1.355 . S
C296 C298 1.412 . S
C297 H289 0.930 . S
C297 C296 1.355 . S
C297 C300 1.402 . S
C298 C296 1.412 . S
C298 C299 1.417 . S
C298 C322 1.431 . S
C299 N295 1.350 . S
C299 C298 1.417 . S
C299 C302 1.426 . S
C300 H283 0.930 . S
C300 N295 1.307 . S
C300 C297 1.402 . S
N301 Gd264 2.601 . S
N301 C302 1.359 . S
N301 C305 1.334 . S
C302 C299 1.426 . S
C302 N301 1.359 . S
C302 C306 1.413 . S
C303 H294 0.930 . S
C303 C304 1.359 . S
C303 C305 1.394 . S
C304 C303 1.359 . S
C304 C306 1.391 . S
C304 H307 0.929 . S
C305 H287 0.930 . S
C305 N301 1.334 . S
C305 C303 1.394 . S
C306 C302 1.413 . S
C306 C304 1.391 . S
C306 C321 1.437 . S
H307 C304 0.929 . S
O308 Gd264 2.545 . S
O308 C323 1.258 . S
O309 Gd264 2.606 . S
O309 Gd265 2.362 . S
O309 C320 1.284 . S
O310 Gd265 2.324 . S
O310 C330 1.254 . S
O311 Gd264 2.429 . S
O311 C330 1.268 . S
O312 Gd264 2.545 . S
O312 C320 1.250 . S
O313 Gd264 2.412 . S
O313 C323 1.252 . S
O314 Gd265 2.545 . S
O314 C332 1.258 . S
O315 Gd264 2.362 . S
O315 Gd265 2.606 . S
O315 C331 1.284 . S
O316 Gd264 2.324 . S
O316 C339 1.254 . S
O317 Gd265 2.429 . S
O317 C339 1.268 . S
O318 Gd265 2.545 . S
O318 C331 1.250 . S
O319 Gd265 2.412 . S
O319 C332 1.252 . S
C320 O309 1.284 . S
C320 O312 1.250 . S
C321 H290 0.929 . S
C321 C306 1.437 . S
C321 C322 1.317 . S
C322 H293 0.930 . S
C322 C298 1.431 . S
C322 C321 1.317 . S
C323 Gd264 2.828 . S
C323 O308 1.258 . S
C323 O313 1.252 . S
C323 C324 1.497 . S
C324 C323 1.497 . S
C324 C325 1.395 1_556 S
C324 C326 1.380 . S
C325 C324 1.395 1_554 S
C325 C328 1.398 . S
C325 H340 0.930 . S
C326 C324 1.380 . S
C326 C327 1.391 1_556 S
C326 H341 0.930 . S
C327 C326 1.391 1_554 S
C327 C329 1.387 . S
C328 C325 1.398 . S
C328 C329 1.380 . S
C328 H342 0.930 . S
C329 C327 1.387 . S
C329 C328 1.380 . S
C329 H343 0.930 . S
C330 O310 1.254 . S
C330 O311 1.268 . S
C331 O315 1.284 . S
C331 O318 1.250 . S
C332 Gd265 2.828 . S
C332 O314 1.258 . S
C332 O319 1.252 . S
C332 C333 1.497 . S
C333 C332 1.497 . S
C333 C334 1.395 . S
C333 C335 1.380 . S
C334 C333 1.395 . S
C334 C337 1.398 . S
C334 H344 0.930 . S
C335 C333 1.380 . S
C335 C336 1.391 . S
C335 H345 0.930 . S
C336 C335 1.391 . S
C336 C338 1.387 . S
C337 C334 1.398 . S
C337 C338 1.380 . S
C337 H346 0.930 . S
C338 C336 1.387 . S
C338 C337 1.380 . S
C338 H347 0.930 . S
C339 O316 1.254 . S
C339 O317 1.268 . S
H340 C325 0.930 . S
H341 C326 0.930 . S
H342 C328 0.930 . S
H343 C329 0.930 . S
H344 C334 0.930 . S
H345 C335 0.930 . S
H346 C337 0.930 . S
H347 C338 0.930 . S
Gd348 N379 2.661 . S
Gd348 N385 2.601 . S
Gd348 O392 2.545 . S
Gd348 O393 2.606 1_655 S
Gd348 O395 2.429 1_655 S
Gd348 O396 2.545 . S
Gd348 O397 2.412 . S
Gd348 O399 2.362 1_655 S
Gd348 O400 2.324 . S
Gd348 C407 2.828 . S
Gd349 N358 2.661 . S
Gd349 N362 2.601 . S
Gd349 O393 2.362 . S
Gd349 O394 2.324 . S
Gd349 O398 2.545 . S
Gd349 O399 2.606 . S
Gd349 O401 2.429 1_455 S
Gd349 O402 2.545 . S
Gd349 O403 2.412 . S
Gd349 C416 2.828 . S
C350 C353 1.417 . S
C350 C355 1.431 . S
C350 C356 1.412 . S
C351 C354 1.437 . S
C351 C355 1.317 . S
C351 H370 0.929 . S
C352 C353 1.426 . S
C352 C354 1.413 . S
C352 N362 1.359 . S
C353 C350 1.417 . S
C353 C352 1.426 . S
C353 N358 1.350 . S
C354 C351 1.437 . S
C354 C352 1.413 . S
C354 C364 1.391 . S
C355 C350 1.431 . S
C355 C351 1.317 . S
C355 H366 0.930 . S
C356 C350 1.412 . S
C356 C357 1.355 . S
C356 H368 0.930 . S
C357 C356 1.355 . S
C357 C359 1.402 . S
C357 H369 0.930 . S
N358 Gd349 2.661 . S
N358 C353 1.350 . S
N358 C359 1.307 . S
C359 C357 1.402 . S
C359 N358 1.307 . S
C359 H360 0.930 . S
H360 C359 0.930 . S
C361 N362 1.346 . S
C361 C363 1.392 1_455 S
C361 H365 0.920 1_455 S
N362 Gd349 2.601 . S
N362 C352 1.359 . S
N362 C361 1.346 . S
C363 C361 1.392 1_655 S
C363 C364 1.359 1_655 S
C363 H375 0.930 . S
C364 C354 1.391 . S
C364 C363 1.359 1_455 S
C364 H376 0.929 . S
H365 C361 0.920 1_655 S
H366 C355 0.930 . S
H367 C384 0.930 . S
H368 C356 0.930 . S
H369 C357 0.930 . S
H370 C351 0.929 . S
H371 C389 0.930 . S
H372 C380 0.930 . S
H373 C381 0.930 . S
H374 C405 0.929 . S
H375 C363 0.930 . S
H376 C364 0.929 . S
H377 C406 0.930 . S
H378 C387 0.930 . S
N379 Gd348 2.661 . S
N379 C383 1.350 . S
N379 C384 1.307 . S
C380 H372 0.930 . S
C380 C381 1.355 . S
C380 C382 1.412 . S
C381 H373 0.930 . S
C381 C380 1.355 . S
C381 C384 1.402 . S
C382 C380 1.412 . S
C382 C383 1.417 . S
C382 C406 1.431 . S
C383 N379 1.350 . S
C383 C382 1.417 . S
C383 C386 1.426 . S
C384 H367 0.930 . S
C384 N379 1.307 . S
C384 C381 1.402 . S
N385 Gd348 2.601 . S
N385 C386 1.359 . S
N385 C389 1.334 1_655 S
C386 C383 1.426 . S
C386 N385 1.359 . S
C386 C390 1.413 . S
C387 H378 0.930 . S
C387 C388 1.359 . S
C387 C389 1.394 . S
C388 C387 1.359 . S
C388 C390 1.391 1_455 S
C388 H391 0.929 . S
C389 H371 0.930 . S
C389 N385 1.334 1_455 S
C389 C387 1.394 . S
C390 C386 1.413 . S
C390 C388 1.391 1_655 S
C390 C405 1.437 . S
H391 C388 0.929 . S
O392 Gd348 2.545 . S
O392 C407 1.258 . S
O393 Gd348 2.606 1_455 S
O393 Gd349 2.362 . S
O393 C404 1.284 1_455 S
O394 Gd349 2.324 . S
O394 C414 1.254 . S
O395 Gd348 2.429 1_455 S
O395 C414 1.268 . S
O396 Gd348 2.545 . S
O396 C404 1.250 . S
O397 Gd348 2.412 . S
O397 C407 1.252 . S
O398 Gd349 2.545 . S
O398 C416 1.258 . S
O399 Gd348 2.362 1_455 S
O399 Gd349 2.606 . S
O399 C415 1.284 . S
O400 Gd348 2.324 . S
O400 C423 1.254 . S
O401 Gd349 2.429 1_655 S
O401 C423 1.268 . S
O402 Gd349 2.545 . S
O402 C415 1.250 . S
O403 Gd349 2.412 . S
O403 C416 1.252 . S
C404 O393 1.284 1_655 S
C404 O396 1.250 . S
C405 H374 0.929 . S
C405 C390 1.437 . S
C405 C406 1.317 . S
C406 H377 0.930 . S
C406 C382 1.431 . S
C406 C405 1.317 . S
C407 Gd348 2.828 . S
C407 O392 1.258 . S
C407 O397 1.252 . S
C407 C408 1.497 . S
C408 C407 1.497 . S
C408 C409 1.395 1_556 S
C408 C410 1.380 . S
C409 C408 1.395 1_554 S
C409 C412 1.398 . S
C409 H424 0.930 . S
C410 C408 1.380 . S
C410 C411 1.391 1_556 S
C410 H425 0.930 . S
C411 C410 1.391 1_554 S
C411 C413 1.387 . S
C412 C409 1.398 . S
C412 C413 1.380 . S
C412 H426 0.930 . S
C413 C411 1.387 . S
C413 C412 1.380 . S
C413 H427 0.930 . S
C414 O394 1.254 . S
C414 O395 1.268 . S
C415 O399 1.284 . S
C415 O402 1.250 . S
C416 Gd349 2.828 . S
C416 O398 1.258 . S
C416 O403 1.252 . S
C416 C417 1.497 . S
C417 C416 1.497 . S
C417 C418 1.395 . S
C417 C419 1.380 . S
C418 C417 1.395 . S
C418 C421 1.398 . S
C418 H428 0.930 . S
C419 C417 1.380 . S
C419 C420 1.391 . S
C419 H429 0.930 . S
C420 C419 1.391 . S
C420 C422 1.387 . S
C421 C418 1.398 . S
C421 C422 1.380 . S
C421 H430 0.930 . S
C422 C420 1.387 . S
C422 C421 1.380 . S
C422 H431 0.930 . S
C423 O400 1.254 . S
C423 O401 1.268 . S
H424 C409 0.930 . S
H425 C410 0.930 . S
H426 C412 0.930 . S
H427 C413 0.930 . S
H428 C418 0.930 . S
H429 C419 0.930 . S
H430 C421 0.930 . S
H431 C422 0.930 . S
H432 C440 0.950 . S
H433 C445 0.950 . S
H434 C442 0.950 . S
H435 C444 0.950 . S
H436 C446 0.950 1_565 S
H437 C448 0.950 . S
H438 C450 0.950 . S
H439 C451 0.950 . S
C440 H432 0.950 . S
C440 C441 1.386 . S
C440 C442 1.391 . S
C441 C440 1.386 . S
C441 C445 1.393 . S
C442 H434 0.950 . S
C442 C440 1.391 . S
C442 C443 1.400 . S
C443 C442 1.400 . S
C443 C444 1.398 . S
C443 C449 1.491 . S
C444 H435 0.950 . S
C444 C443 1.398 . S
C444 C445 1.391 . S
C445 H433 0.950 . S
C445 C441 1.393 . S
C445 C444 1.391 . S
C446 H436 0.950 1_545 S
C446 C447 1.386 . S
C446 C448 1.391 . S
C447 C446 1.386 . S
C447 C451 1.393 . S
C448 H437 0.950 . S
C448 C446 1.391 . S
C448 C449 1.400 . S
C449 C443 1.491 . S
C449 C448 1.400 . S
C449 C450 1.398 . S
C450 H438 0.950 . S
C450 C449 1.398 . S
C450 C451 1.391 . S
C451 H439 0.950 . S
C451 C447 1.393 . S
C451 C450 1.391 . S
H452 C460 0.950 . S
H453 C465 0.950 . S
H454 C462 0.950 . S
H455 C464 0.950 . S
H456 C466 0.950 . S
H457 C468 0.950 . S
H458 C470 0.950 . S
H459 C471 0.950 . S
C460 H452 0.950 . S
C460 C461 1.386 . S
C460 C462 1.391 . S
C461 C460 1.386 . S
C461 C465 1.393 . S
C462 H454 0.950 . S
C462 C460 1.391 . S
C462 C463 1.400 . S
C463 C462 1.400 . S
C463 C464 1.398 . S
C463 C469 1.491 . S
C464 H455 0.950 . S
C464 C463 1.398 . S
C464 C465 1.391 . S
C465 H453 0.950 . S
C465 C461 1.393 . S
C465 C464 1.391 . S
C466 H456 0.950 . S
C466 C467 1.386 . S
C466 C468 1.391 . S
C467 C466 1.386 . S
C467 C471 1.393 . S
C468 H457 0.950 . S
C468 C466 1.391 . S
C468 C469 1.400 . S
C469 C463 1.491 . S
C469 C468 1.400 . S
C469 C470 1.398 . S
C470 H458 0.950 . S
C470 C469 1.398 . S
C470 C471 1.391 . S
C471 H459 0.950 . S
C471 C467 1.393 . S
C471 C470 1.391 . S
H472 C480 0.950 . S
H473 C485 0.950 . S
H474 C482 0.950 . S
H475 C484 0.950 . S
H476 C486 0.950 . S
H477 C488 0.950 . S
H478 C490 0.950 . S
H479 C491 0.950 . S
C480 H472 0.950 . S
C480 C481 1.386 . S
C480 C482 1.391 . S
C481 C480 1.386 . S
C481 C485 1.393 . S
C482 H474 0.950 . S
C482 C480 1.391 . S
C482 C483 1.400 . S
C483 C482 1.400 . S
C483 C484 1.398 . S
C483 C489 1.491 . S
C484 H475 0.950 . S
C484 C483 1.398 . S
C484 C485 1.391 . S
C485 H473 0.950 . S
C485 C481 1.393 . S
C485 C484 1.391 . S
C486 H476 0.950 . S
C486 C487 1.386 . S
C486 C488 1.391 . S
C487 C486 1.386 . S
C487 C491 1.393 . S
C488 H477 0.950 . S
C488 C486 1.391 . S
C488 C489 1.400 . S
C489 C483 1.491 . S
C489 C488 1.400 . S
C489 C490 1.398 . S
C490 H478 0.950 . S
C490 C489 1.398 . S
C490 C491 1.391 . S
C491 H479 0.950 . S
C491 C487 1.393 . S
C491 C490 1.391 . S
H492 C500 0.950 . S
H493 C505 0.950 . S
H494 C502 0.950 . S
H495 C504 0.950 . S
H496 C506 0.950 . S
H497 C508 0.950 . S
H498 C510 0.950 1_655 S
H499 C511 0.950 1_655 S
C500 H492 0.950 . S
C500 C501 1.386 . S
C500 C502 1.391 . S
C501 C500 1.386 . S
C501 C505 1.393 . S
C502 H494 0.950 . S
C502 C500 1.391 . S
C502 C503 1.400 . S
C503 C502 1.400 . S
C503 C504 1.398 . S
C503 C509 1.491 . S
C504 H495 0.950 . S
C504 C503 1.398 . S
C504 C505 1.391 . S
C505 H493 0.950 . S
C505 C501 1.393 . S
C505 C504 1.391 . S
C506 H496 0.950 . S
C506 C507 1.386 . S
C506 C508 1.391 . S
C507 C506 1.386 . S
C507 C511 1.393 . S
C508 H497 0.950 . S
C508 C506 1.391 . S
C508 C509 1.400 . S
C509 C503 1.491 . S
C509 C508 1.400 . S
C509 C510 1.398 . S
C510 H498 0.950 1_455 S
C510 C509 1.398 . S
C510 C511 1.391 . S
C511 H499 0.950 1_455 S
C511 C507 1.393 . S
C511 C510 1.391 . S
H512 C520 0.950 1_545 S
H513 C525 0.950 . S
H514 C522 0.950 1_545 S
H515 C524 0.950 . S
H516 C526 0.950 . S
H517 C528 0.950 . S
H518 C530 0.950 . S
H519 C531 0.950 . S
C520 H512 0.950 1_565 S
C520 C521 1.386 . S
C520 C522 1.391 . S
C521 C520 1.386 . S
C521 C525 1.393 . S
C522 H514 0.950 1_565 S
C522 C520 1.391 . S
C522 C523 1.400 . S
C523 C522 1.400 . S
C523 C524 1.398 . S
C523 C529 1.491 1_554 S
C524 H515 0.950 . S
C524 C523 1.398 . S
C524 C525 1.391 . S
C525 H513 0.950 . S
C525 C521 1.393 . S
C525 C524 1.391 . S
C526 H516 0.950 . S
C526 C527 1.386 . S
C526 C528 1.391 . S
C527 C526 1.386 . S
C527 C531 1.393 1_565 S
C528 H517 0.950 . S
C528 C526 1.391 . S
C528 C529 1.400 . S
C529 C523 1.491 1_556 S
C529 C528 1.400 . S
C529 C530 1.398 1_565 S
C530 H518 0.950 . S
C530 C529 1.398 1_545 S
C530 C531 1.391 . S
C531 H519 0.950 . S
C531 C527 1.393 1_545 S
C531 C530 1.391 . S
H532 C540 0.950 . S
H533 C545 0.950 . S
H534 C542 0.950 1_556 S
H535 C544 0.950 . S
H536 C546 0.950 . S
H537 C548 0.950 1_554 S
H538 C550 0.950 . S
H539 C551 0.950 . S
C540 H532 0.950 . S
C540 C541 1.386 . S
C540 C542 1.391 . S
C541 C540 1.386 . S
C541 C545 1.393 . S
C542 H534 0.950 1_554 S
C542 C540 1.391 . S
C542 C543 1.400 . S
C543 C542 1.400 . S
C543 C544 1.398 . S
C543 C549 1.491 1_554 S
C544 H535 0.950 . S
C544 C543 1.398 . S
C544 C545 1.391 . S
C545 H533 0.950 . S
C545 C541 1.393 . S
C545 C544 1.391 . S
C546 H536 0.950 . S
C546 C547 1.386 . S
C546 C548 1.391 . S
C547 C546 1.386 . S
C547 C551 1.393 . S
C548 H537 0.950 1_556 S
C548 C546 1.391 . S
C548 C549 1.400 . S
C549 C543 1.491 1_556 S
C549 C548 1.400 . S
C549 C550 1.398 . S
C550 H538 0.950 . S
C550 C549 1.398 . S
C550 C551 1.391 . S
C551 H539 0.950 . S
C551 C547 1.393 . S
C551 C550 1.391 . S
H552 C560 0.950 . S
H553 C565 0.950 . S
H554 C562 0.950 1_556 S
H555 C564 0.950 . S
H556 C566 0.950 . S
H557 C568 0.950 1_554 S
H558 C570 0.950 . S
H559 C571 0.950 . S
C560 H552 0.950 . S
C560 C561 1.386 . S
C560 C562 1.391 . S
C561 C560 1.386 . S
C561 C565 1.393 . S
C562 H554 0.950 1_554 S
C562 C560 1.391 . S
C562 C563 1.400 . S
C563 C562 1.400 . S
C563 C564 1.398 . S
C563 C569 1.491 1_554 S
C564 H555 0.950 . S
C564 C563 1.398 . S
C564 C565 1.391 . S
C565 H553 0.950 . S
C565 C561 1.393 . S
C565 C564 1.391 . S
C566 H556 0.950 . S
C566 C567 1.386 . S
C566 C568 1.391 . S
C567 C566 1.386 . S
C567 C571 1.393 . S
C568 H557 0.950 1_556 S
C568 C566 1.391 . S
C568 C569 1.400 . S
C569 C563 1.491 1_556 S
C569 C568 1.400 . S
C569 C570 1.398 . S
C570 H558 0.950 . S
C570 C569 1.398 . S
C570 C571 1.391 . S
C571 H559 0.950 . S
C571 C567 1.393 . S
C571 C570 1.391 . S
H572 C580 0.950 . S
H573 C585 0.950 . S
H574 C582 0.950 1_455 S
H575 C584 0.950 . S
H576 C586 0.950 . S
H577 C588 0.950 . S
H578 C590 0.950 1_455 S
H579 C591 0.950 . S
C580 H572 0.950 . S
C580 C581 1.386 . S
C580 C582 1.391 . S
C581 C580 1.386 . S
C581 C585 1.393 . S
C582 H574 0.950 1_655 S
C582 C580 1.391 . S
C582 C583 1.400 . S
C583 C582 1.400 . S
C583 C584 1.398 . S
C583 C589 1.491 1_554 S
C584 H575 0.950 . S
C584 C583 1.398 . S
C584 C585 1.391 . S
C585 H573 0.950 . S
C585 C581 1.393 . S
C585 C584 1.391 . S
C586 H576 0.950 . S
C586 C587 1.386 . S
C586 C588 1.391 . S
C587 C586 1.386 . S
C587 C591 1.393 1_655 S
C588 H577 0.950 . S
C588 C586 1.391 . S
C588 C589 1.400 . S
C589 C583 1.491 1_556 S
C589 C588 1.400 . S
C589 C590 1.398 . S
C590 H578 0.950 1_655 S
C590 C589 1.398 . S
C590 C591 1.391 1_655 S
C591 H579 0.950 . S
C591 C587 1.393 1_455 S
C591 C590 1.391 1_455 S
H592 C600 0.950 . S
H593 C605 0.950 . S
H594 C602 0.950 . S
H595 C604 0.950 . S
H596 C606 0.950 . S
H597 C608 0.950 . S
H598 C610 0.950 1_655 S
H599 C611 0.950 . S
C600 H592 0.950 . S
C600 C601 1.386 . S
C600 C602 1.391 . S
C601 C600 1.386 . S
C601 C605 1.393 . S
C602 H594 0.950 . S
C602 C600 1.391 . S
C602 C603 1.400 . S
C603 C602 1.400 . S
C603 C604 1.398 . S
C603 C609 1.491 . S
C604 H595 0.950 . S
C604 C603 1.398 . S
C604 C605 1.391 . S
C605 H593 0.950 . S
C605 C601 1.393 . S
C605 C604 1.391 . S
C606 H596 0.950 . S
C606 C607 1.386 . S
C606 C608 1.391 . S
C607 C606 1.386 . S
C607 C611 1.393 1_455 S
C608 H597 0.950 . S
C608 C606 1.391 . S
C608 C609 1.400 . S
C609 C603 1.491 . S
C609 C608 1.400 . S
C609 C610 1.398 . S
C610 H598 0.950 1_455 S
C610 C609 1.398 . S
C610 C611 1.391 1_455 S
C611 H599 0.950 . S
C611 C607 1.393 1_655 S
C611 C610 1.391 1_655 S
H612 C620 0.950 . S
H613 C625 0.950 . S
H614 C622 0.950 . S
H615 C624 0.950 . S
H616 C626 0.950 1_565 S
H617 C628 0.950 . S
H618 C630 0.950 . S
H619 C631 0.950 . S
C620 H612 0.950 . S
C620 C621 1.386 . S
C620 C622 1.391 . S
C621 C620 1.386 . S
C621 C625 1.393 . S
C622 H614 0.950 . S
C622 C620 1.391 . S
C622 C623 1.400 . S
C623 C622 1.400 . S
C623 C624 1.398 . S
C623 C629 1.491 . S
C624 H615 0.950 . S
C624 C623 1.398 . S
C624 C625 1.391 . S
C625 H613 0.950 . S
C625 C621 1.393 . S
C625 C624 1.391 . S
C626 H616 0.950 1_545 S
C626 C627 1.386 . S
C626 C628 1.391 . S
C627 C626 1.386 . S
C627 C631 1.393 . S
C628 H617 0.950 . S
C628 C626 1.391 . S
C628 C629 1.400 . S
C629 C623 1.491 . S
C629 C628 1.400 . S
C629 C630 1.398 . S
C630 H618 0.950 . S
C630 C629 1.398 . S
C630 C631 1.391 . S
C631 H619 0.950 . S
C631 C627 1.393 . S
C631 C630 1.391 . S
H632 C640 0.950 1_556 S
H633 C645 0.950 . S
H634 C642 0.950 . S
H635 C644 0.950 . S
H636 C646 0.950 . S
H637 C648 0.950 . S
H638 C650 0.950 . S
H639 C651 0.950 . S
C640 H632 0.950 1_554 S
C640 C641 1.386 . S
C640 C642 1.391 . S
C641 C640 1.386 . S
C641 C645 1.393 . S
C642 H634 0.950 . S
C642 C640 1.391 . S
C642 C643 1.400 . S
C643 C642 1.400 . S
C643 C644 1.398 . S
C643 C649 1.491 . S
C644 H635 0.950 . S
C644 C643 1.398 . S
C644 C645 1.391 . S
C645 H633 0.950 . S
C645 C641 1.393 . S
C645 C644 1.391 . S
C646 H636 0.950 . S
C646 C647 1.386 . S
C646 C648 1.391 . S
C647 C646 1.386 . S
C647 C651 1.393 . S
C648 H637 0.950 . S
C648 C646 1.391 . S
C648 C649 1.400 . S
C649 C643 1.491 . S
C649 C648 1.400 . S
C649 C650 1.398 . S
C650 H638 0.950 . S
C650 C649 1.398 . S
C650 C651 1.391 . S
C651 H639 0.950 . S
C651 C647 1.393 . S
C651 C650 1.391 . S
H652 C660 0.950 . S
H653 C665 0.950 . S
H654 C662 0.950 . S
H655 C664 0.950 . S
H656 C666 0.950 . S
H657 C668 0.950 . S
H658 C670 0.950 . S
H659 C671 0.950 . S
C660 H652 0.950 . S
C660 C661 1.386 . S
C660 C662 1.391 . S
C661 C660 1.386 . S
C661 C665 1.393 . S
C662 H654 0.950 . S
C662 C660 1.391 . S
C662 C663 1.400 . S
C663 C662 1.400 . S
C663 C664 1.398 . S
C663 C669 1.491 . S
C664 H655 0.950 . S
C664 C663 1.398 . S
C664 C665 1.391 . S
C665 H653 0.950 . S
C665 C661 1.393 . S
C665 C664 1.391 . S
C666 H656 0.950 . S
C666 C667 1.386 . S
C666 C668 1.391 . S
C667 C666 1.386 . S
C667 C671 1.393 . S
C668 H657 0.950 . S
C668 C666 1.391 . S
C668 C669 1.400 . S
C669 C663 1.491 . S
C669 C668 1.400 . S
C669 C670 1.398 . S
C670 H658 0.950 . S
C670 C669 1.398 . S
C670 C671 1.391 . S
C671 H659 0.950 . S
C671 C667 1.393 . S
C671 C670 1.391 . S
H672 C680 0.950 . S
H673 C685 0.950 . S
H674 C682 0.950 1_455 S
H675 C684 0.950 . S
H676 C686 0.950 . S
H677 C688 0.950 . S
H678 C690 0.950 . S
H679 C691 0.950 1_556 S
C680 H672 0.950 . S
C680 C681 1.386 . S
C680 C682 1.391 . S
C681 C680 1.386 . S
C681 C685 1.393 . S
C682 H674 0.950 1_655 S
C682 C680 1.391 . S
C682 C683 1.400 . S
C683 C682 1.400 . S
C683 C684 1.398 . S
C683 C689 1.491 . S
C684 H675 0.950 . S
C684 C683 1.398 . S
C684 C685 1.391 . S
C685 H673 0.950 . S
C685 C681 1.393 . S
C685 C684 1.391 . S
C686 H676 0.950 . S
C686 C687 1.386 1_654 S
C686 C688 1.391 . S
C687 C686 1.386 1_456 S
C687 C691 1.393 1_556 S
C688 H677 0.950 . S
C688 C686 1.391 . S
C688 C689 1.400 . S
C689 C683 1.491 . S
C689 C688 1.400 . S
C689 C690 1.398 1_655 S
C690 H678 0.950 . S
C690 C689 1.398 1_455 S
C690 C691 1.391 . S
C691 H679 0.950 1_554 S
C691 C687 1.393 1_554 S
C691 C690 1.391 . S
H692 C700 0.950 . S
H693 C705 0.950 . S
H694 C702 0.950 . S
H695 C704 0.950 . S
H696 C706 0.950 . S
H697 C708 0.950 . S
H698 C710 0.950 . S
H699 C711 0.950 . S
C700 H692 0.950 . S
C700 C701 1.386 . S
C700 C702 1.391 . S
C701 C700 1.386 . S
C701 C705 1.393 . S
C702 H694 0.950 . S
C702 C700 1.391 . S
C702 C703 1.400 . S
C703 C702 1.400 . S
C703 C704 1.398 . S
C703 C709 1.491 . S
C704 H695 0.950 . S
C704 C703 1.398 . S
C704 C705 1.391 . S
C705 H693 0.950 . S
C705 C701 1.393 . S
C705 C704 1.391 . S
C706 H696 0.950 . S
C706 C707 1.386 . S
C706 C708 1.391 1_545 S
C707 C706 1.386 . S
C707 C711 1.393 1_556 S
C708 H697 0.950 . S
C708 C706 1.391 1_565 S
C708 C709 1.400 1_556 S
C709 C703 1.491 . S
C709 C708 1.400 1_554 S
C709 C710 1.398 . S
C710 H698 0.950 . S
C710 C709 1.398 . S
C710 C711 1.391 1_565 S
C711 H699 0.950 . S
C711 C707 1.393 1_554 S
C711 C710 1.391 1_545 S
H712 C720 0.950 . S
H713 C725 0.950 . S
H714 C722 0.950 . S
H715 C724 0.950 . S
H716 C726 0.950 . S
H717 C728 0.950 . S
H718 C730 0.950 1_556 S
H719 C731 0.950 . S
C720 H712 0.950 . S
C720 C721 1.386 . S
C720 C722 1.391 . S
C721 C720 1.386 . S
C721 C725 1.393 . S
C722 H714 0.950 . S
C722 C720 1.391 . S
C722 C723 1.400 . S
C723 C722 1.400 . S
C723 C724 1.398 . S
C723 C729 1.491 . S
C724 H715 0.950 . S
C724 C723 1.398 . S
C724 C725 1.391 . S
C725 H713 0.950 . S
C725 C721 1.393 . S
C725 C724 1.391 . S
C726 H716 0.950 . S
C726 C727 1.386 . S
C726 C728 1.391 . S
C727 C726 1.386 . S
C727 C731 1.393 1_554 S
C728 H717 0.950 . S
C728 C726 1.391 . S
C728 C729 1.400 . S
C729 C723 1.491 . S
C729 C728 1.400 . S
C729 C730 1.398 . S
C730 H718 0.950 1_554 S
C730 C729 1.398 . S
C730 C731 1.391 1_554 S
C731 H719 0.950 . S
C731 C727 1.393 1_556 S
C731 C730 1.391 1_556 S
H732 C740 0.950 . S
H733 C745 0.950 . S
H734 C742 0.950 . S
H735 C744 0.950 . S
H736 C746 0.950 . S
H737 C748 0.950 . S
H738 C750 0.950 . S
H739 C751 0.950 . S
C740 H732 0.950 . S
C740 C741 1.386 . S
C740 C742 1.391 . S
C741 C740 1.386 . S
C741 C745 1.393 . S
C742 H734 0.950 . S
C742 C740 1.391 . S
C742 C743 1.400 . S
C743 C742 1.400 . S
C743 C744 1.398 . S
C743 C749 1.491 . S
C744 H735 0.950 . S
C744 C743 1.398 . S
C744 C745 1.391 . S
C745 H733 0.950 . S
C745 C741 1.393 . S
C745 C744 1.391 . S
C746 H736 0.950 . S
C746 C747 1.386 1_556 S
C746 C748 1.391 1_556 S
C747 C746 1.386 1_554 S
C747 C751 1.393 . S
C748 H737 0.950 . S
C748 C746 1.391 1_554 S
C748 C749 1.400 . S
C749 C743 1.491 . S
C749 C748 1.400 . S
C749 C750 1.398 . S
C750 H738 0.950 . S
C750 C749 1.398 . S
C750 C751 1.391 . S
C751 H739 0.950 . S
C751 C747 1.393 . S
C751 C750 1.391 . S
H752 C760 0.950 . S
H753 C765 0.950 . S
H754 C762 0.950 . S
H755 C764 0.950 . S
H756 C766 0.950 1_655 S
H757 C768 0.950 . S
H758 C770 0.950 . S
H759 C771 0.950 . S
C760 H752 0.950 . S
C760 C761 1.386 . S
C760 C762 1.391 . S
C761 C760 1.386 . S
C761 C765 1.393 . S
C762 H754 0.950 . S
C762 C760 1.391 . S
C762 C763 1.400 . S
C763 C762 1.400 . S
C763 C764 1.398 . S
C763 C769 1.491 . S
C764 H755 0.950 . S
C764 C763 1.398 . S
C764 C765 1.391 . S
C765 H753 0.950 . S
C765 C761 1.393 . S
C765 C764 1.391 . S
C766 H756 0.950 1_455 S
C766 C767 1.386 . S
C766 C768 1.391 . S
C767 C766 1.386 . S
C767 C771 1.393 . S
C768 H757 0.950 . S
C768 C766 1.391 . S
C768 C769 1.400 . S
C769 C763 1.491 . S
C769 C768 1.400 . S
C769 C770 1.398 . S
C770 H758 0.950 . S
C770 C769 1.398 . S
C770 C771 1.391 . S
C771 H759 0.950 . S
C771 C767 1.393 . S
C771 C770 1.391 . S
H772 C780 0.950 . S
H773 C785 0.950 . S
H774 C782 0.950 . S
H775 C784 0.950 . S
H776 C786 0.950 . S
H777 C788 0.950 . S
H778 C790 0.950 . S
H779 C791 0.950 . S
C780 H772 0.950 . S
C780 C781 1.386 . S
C780 C782 1.391 . S
C781 C780 1.386 . S
C781 C785 1.393 . S
C782 H774 0.950 . S
C782 C780 1.391 . S
C782 C783 1.400 . S
C783 C782 1.400 . S
C783 C784 1.398 . S
C783 C789 1.491 . S
C784 H775 0.950 . S
C784 C783 1.398 . S
C784 C785 1.391 . S
C785 H773 0.950 . S
C785 C781 1.393 . S
C785 C784 1.391 . S
C786 H776 0.950 . S
C786 C787 1.386 . S
C786 C788 1.391 . S
C787 C786 1.386 . S
C787 C791 1.393 . S
C788 H777 0.950 . S
C788 C786 1.391 . S
C788 C789 1.400 . S
C789 C783 1.491 . S
C789 C788 1.400 . S
C789 C790 1.398 . S
C790 H778 0.950 . S
C790 C789 1.398 . S
C790 C791 1.391 . S
C791 H779 0.950 . S
C791 C787 1.393 . S
C791 C790 1.391 . S
H792 C800 0.950 . S
H793 C805 0.950 . S
H794 C802 0.950 . S
H795 C804 0.950 . S
H796 C806 0.950 . S
H797 C808 0.950 . S
H798 C810 0.950 . S
H799 C811 0.950 . S
C800 H792 0.950 . S
C800 C801 1.386 . S
C800 C802 1.391 . S
C801 C800 1.386 . S
C801 C805 1.393 . S
C802 H794 0.950 . S
C802 C800 1.391 . S
C802 C803 1.400 . S
C803 C802 1.400 . S
C803 C804 1.398 . S
C803 C809 1.491 . S
C804 H795 0.950 . S
C804 C803 1.398 . S
C804 C805 1.391 . S
C805 H793 0.950 . S
C805 C801 1.393 . S
C805 C804 1.391 . S
C806 H796 0.950 . S
C806 C807 1.386 . S
C806 C808 1.391 . S
C807 C806 1.386 . S
C807 C811 1.393 . S
C808 H797 0.950 . S
C808 C806 1.391 . S
C808 C809 1.400 . S
C809 C803 1.491 . S
C809 C808 1.400 . S
C809 C810 1.398 . S
C810 H798 0.950 . S
C810 C809 1.398 . S
C810 C811 1.391 . S
C811 H799 0.950 . S
C811 C807 1.393 . S
C811 C810 1.391 . S
H812 C820 0.950 . S
H813 C825 0.950 . S
H814 C822 0.950 . S
H815 C824 0.950 . S
H816 C826 0.950 . S
H817 C828 0.950 . S
H818 C830 0.950 . S
H819 C831 0.950 . S
C820 H812 0.950 . S
C820 C821 1.386 . S
C820 C822 1.391 . S
C821 C820 1.386 . S
C821 C825 1.393 . S
C822 H814 0.950 . S
C822 C820 1.391 . S
C822 C823 1.400 . S
C823 C822 1.400 . S
C823 C824 1.398 . S
C823 C829 1.491 . S
C824 H815 0.950 . S
C824 C823 1.398 . S
C824 C825 1.391 . S
C825 H813 0.950 . S
C825 C821 1.393 . S
C825 C824 1.391 . S
C826 H816 0.950 . S
C826 C827 1.386 . S
C826 C828 1.391 . S
C827 C826 1.386 . S
C827 C831 1.393 . S
C828 H817 0.950 . S
C828 C826 1.391 . S
C828 C829 1.400 . S
C829 C823 1.491 . S
C829 C828 1.400 . S
C829 C830 1.398 . S
C830 H818 0.950 . S
C830 C829 1.398 . S
C830 C831 1.391 . S
C831 H819 0.950 . S
C831 C827 1.393 . S
C831 C830 1.391 . S
H832 C840 0.950 . S
H833 C845 0.950 . S
H834 C842 0.950 . S
H835 C844 0.950 . S
H836 C846 0.950 . S
H837 C848 0.950 . S
H838 C850 0.950 1_455 S
H839 C851 0.950 1_455 S
C840 H832 0.950 . S
C840 C841 1.386 . S
C840 C842 1.391 . S
C841 C840 1.386 . S
C841 C845 1.393 . S
C842 H834 0.950 . S
C842 C840 1.391 . S
C842 C843 1.400 . S
C843 C842 1.400 . S
C843 C844 1.398 . S
C843 C849 1.491 . S
C844 H835 0.950 . S
C844 C843 1.398 . S
C844 C845 1.391 . S
C845 H833 0.950 . S
C845 C841 1.393 . S
C845 C844 1.391 . S
C846 H836 0.950 . S
C846 C847 1.386 . S
C846 C848 1.391 . S
C847 C846 1.386 . S
C847 C851 1.393 . S
C848 H837 0.950 . S
C848 C846 1.391 . S
C848 C849 1.400 . S
C849 C843 1.491 . S
C849 C848 1.400 . S
C849 C850 1.398 . S
C850 H838 0.950 1_655 S
C850 C849 1.398 . S
C850 C851 1.391 . S
C851 H839 0.950 1_655 S
C851 C847 1.393 . S
C851 C850 1.391 . S
H852 C860 0.950 . S
H853 C865 0.950 . S
H854 C862 0.950 . S
H855 C864 0.950 . S
H856 C866 0.950 . S
H857 C868 0.950 . S
H858 C870 0.950 1_545 S
H859 C871 0.950 1_545 S
C860 H852 0.950 . S
C860 C861 1.386 . S
C860 C862 1.391 . S
C861 C860 1.386 . S
C861 C865 1.393 . S
C862 H854 0.950 . S
C862 C860 1.391 . S
C862 C863 1.400 . S
C863 C862 1.400 . S
C863 C864 1.398 . S
C863 C869 1.491 . S
C864 H855 0.950 . S
C864 C863 1.398 . S
C864 C865 1.391 . S
C865 H853 0.950 . S
C865 C861 1.393 . S
C865 C864 1.391 . S
C866 H856 0.950 . S
C866 C867 1.386 . S
C866 C868 1.391 . S
C867 C866 1.386 . S
C867 C871 1.393 . S
C868 H857 0.950 . S
C868 C866 1.391 . S
C868 C869 1.400 . S
C869 C863 1.491 . S
C869 C868 1.400 . S
C869 C870 1.398 . S
C870 H858 0.950 1_565 S
C870 C869 1.398 . S
C870 C871 1.391 . S
C871 H859 0.950 1_565 S
C871 C867 1.393 . S
C871 C870 1.391 . S
H872 C880 0.950 . S
H873 C885 0.950 . S
H874 C882 0.950 . S
H875 C884 0.950 . S
H876 C886 0.950 . S
H877 C888 0.950 . S
H878 C890 0.950 . S
H879 C891 0.950 . S
C880 H872 0.950 . S
C880 C881 1.386 . S
C880 C882 1.391 . S
C881 C880 1.386 . S
C881 C885 1.393 . S
C882 H874 0.950 . S
C882 C880 1.391 . S
C882 C883 1.400 . S
C883 C882 1.400 . S
C883 C884 1.398 . S
C883 C889 1.491 . S
C884 H875 0.950 . S
C884 C883 1.398 . S
C884 C885 1.391 . S
C885 H873 0.950 . S
C885 C881 1.393 . S
C885 C884 1.391 . S
C886 H876 0.950 . S
C886 C887 1.386 . S
C886 C888 1.391 . S
C887 C886 1.386 . S
C887 C891 1.393 . S
C888 H877 0.950 . S
C888 C886 1.391 . S
C888 C889 1.400 . S
C889 C883 1.491 . S
C889 C888 1.400 . S
C889 C890 1.398 . S
C890 H878 0.950 . S
C890 C889 1.398 . S
C890 C891 1.391 . S
C891 H879 0.950 . S
C891 C887 1.393 . S
C891 C890 1.391 . S
H892 C900 0.950 . S
H893 C905 0.950 . S
H894 C902 0.950 . S
H895 C904 0.950 . S
H896 C906 0.950 . S
H897 C908 0.950 . S
H898 C910 0.950 . S
H899 C911 0.950 . S
C900 H892 0.950 . S
C900 C901 1.386 . S
C900 C902 1.391 . S
C901 C900 1.386 . S
C901 C905 1.393 . S
C902 H894 0.950 . S
C902 C900 1.391 . S
C902 C903 1.400 . S
C903 C902 1.400 . S
C903 C904 1.398 . S
C903 C909 1.491 . S
C904 H895 0.950 . S
C904 C903 1.398 . S
C904 C905 1.391 . S
C905 H893 0.950 . S
C905 C901 1.393 . S
C905 C904 1.391 . S
C906 H896 0.950 . S
C906 C907 1.386 . S
C906 C908 1.391 . S
C907 C906 1.386 . S
C907 C911 1.393 . S
C908 H897 0.950 . S
C908 C906 1.391 . S
C908 C909 1.400 . S
C909 C903 1.491 . S
C909 C908 1.400 . S
C909 C910 1.398 . S
C910 H898 0.950 . S
C910 C909 1.398 . S
C910 C911 1.391 . S
C911 H899 0.950 . S
C911 C907 1.393 . S
C911 C910 1.391 . S
C441 C76 1.860 . S
C447 C171 1.944 . S
C467 C255 1.954 . S
C461 C88 1.871 . S
C487 C331 1.940 . S
C481 C52 1.963 . S
C507 C415 1.901 . S
C501 C64 1.924 . S
C527 C162 1.947 1_565 S
C521 C28 1.871 . S
C541 C40 1.878 . S
C547 C246 1.967 . S
C561 C4 1.961 . S
C567 C320 1.924 . S
C581 C16 1.963 . S
C587 C404 1.929 . S
C607 C159 0.614 1_455 S
C601 C69 0.629 . S
C627 C243 0.575 1_545 S
C621 C81 0.629 . S
C647 C336 0.560 . S
C641 C93 0.605 . S
C661 C57 0.589 . S
C667 C420 0.629 . S
C681 C21 0.668 . S
C687 C168 0.616 . S
C707 C252 0.637 . S
C701 C33 0.587 . S
C727 C327 0.556 . S
C721 C45 0.621 . S
C741 C9 0.579 . S
C747 C411 0.637 . S
C761 C66 2.004 . S
C767 C152 2.064 . S
C781 C78 1.995 . S
C787 C236 2.055 . S
C807 C330 2.076 . S
C801 C90 1.887 . S
C827 C414 2.090 . S
C821 C54 1.928 . S
C841 C18 1.995 . S
C847 C163 2.058 . S
C867 C247 2.045 . S
C861 C30 1.970 . S
C887 C339 2.068 . S
C881 C42 1.874 . S
C901 C6 1.905 . S
C907 C423 2.092 . S
