# Generated by pormake.
# Topology pth, (4,4)-cn, num edge types: 1
# Building blocks:
#     Node 0, Type 0, BuildingBlock: CEKHIL_clean_sbu_0, # of connection points: 4
#     Node 1, Type 0, BuildingBlock: CEKHIL_clean_sbu_0, # of connection points: 4
#     Node 2, Type 0, BuildingBlock: CEKHIL_clean_sbu_0, # of connection points: 4
#     Node 3, Type 1, BuildingBlock: AZAVOO_clean_linker_0, # of connection points: 4
#     Node 4, Type 1, BuildingBlock: AZAVOO_clean_linker_0, # of connection points: 4
#     Node 5, Type 1, BuildingBlock: AZAVOO_clean_linker_0, # of connection points: 4
#     Edge 6, Type (0, 1), BuildingBlock: TEMPAE_clean_linker_10, # of connection points: 2
#     Edge 7, Type (0, 1), BuildingBlock: TEMPAE_clean_linker_10, # of connection points: 2
#     Edge 8, Type (0, 1), BuildingBlock: TEMPAE_clean_linker_10, # of connection points: 2
#     Edge 9, Type (0, 1), BuildingBlock: TEMPAE_clean_linker_10, # of connection points: 2
#     Edge 10, Type (0, 1), BuildingBlock: TEMPAE_clean_linker_10, # of connection points: 2
#     Edge 11, Type (0, 1), BuildingBlock: TEMPAE_clean_linker_10, # of connection points: 2
#     Edge 12, Type (0, 1), BuildingBlock: TEMPAE_clean_linker_10, # of connection points: 2
#     Edge 13, Type (0, 1), BuildingBlock: TEMPAE_clean_linker_10, # of connection points: 2
#     Edge 14, Type (0, 1), BuildingBlock: TEMPAE_clean_linker_10, # of connection points: 2
#     Edge 15, Type (0, 1), BuildingBlock: TEMPAE_clean_linker_10, # of connection points: 2
#     Edge 16, Type (0, 1), BuildingBlock: TEMPAE_clean_linker_10, # of connection points: 2
#     Edge 17, Type (0, 1), BuildingBlock: TEMPAE_clean_linker_10, # of connection points: 2
# Relax obj value: 0.106
# Max RMSD: 0.224
# Mean RMSD: 0.144
data_MOF--net-pth--node1-CEKHIL_clean_sbu_0--node2-AZAVOO_clean_linker_0--edge1-TEMPAE_clean_linker_10
_symmetry_space_group_name_H-M    P1
_symmetry_Int_Tables_number       1
_symmetry_cell_setting            triclinic
loop_
_symmetry_equiv_pos_as_xyz
'x, y, z'
_cell_length_a     26.110786
_cell_length_b     26.512822
_cell_length_c     72.404537
_cell_angle_alpha  93.308024
_cell_angle_beta   88.845276
_cell_angle_gamma 120.30454
loop_
_atom_site_label
_atom_site_type_symbol
_atom_site_fract_x
_atom_site_fract_y
_atom_site_fract_z
_atom_type_partial_charge
Co0 Co 0.09318 0.0748 0.097 0.0
O1 O 0.04749 0.00215 0.1087 0.0
O2 O 0.12973 0.02732 0.09284 0.0
C3 C 0.09468 0.13182 0.12152 0.0
O4 O 0.1525 0.14613 0.08343 0.0
Co5 Co 0.03933 0.15298 0.09034 0.0
O6 O 0.12111 0.2109 0.083 0.0
C7 C 0.00366 0.04673 0.06629 0.0
C8 C 0.08708 0.98943 0.10282 0.0
C9 C 0.16006 0.19623 0.07958 0.0
O10 O 0.04384 0.04007 0.07383 0.0
O11 O 0.99107 0.08584 0.07197 0.0
O12 O 0.13232 0.11347 0.12038 0.0
O13 O 0.05447 0.11147 0.10863 0.0
Co14 Co 0.06065 0.09852 0.41239 0.0
O15 O 0.02702 0.12349 0.39422 0.0
O16 O 0.10367 0.18321 0.41234 0.0
C17 C 0.06408 0.02851 0.39431 0.0
O18 O 0.10844 0.08791 0.43205 0.0
Co19 Co 0.98783 0.97171 0.42558 0.0
O20 O 0.06352 0.9926 0.43808 0.0
C21 C 0.95991 0.06091 0.44012 0.0
C22 C 0.06763 0.17664 0.39903 0.0
C23 C 0.10675 0.04504 0.4401 0.0
O24 O 0.00532 0.10052 0.43185 0.0
O25 O 0.94221 0.00624 0.438 0.0
O26 O 0.10555 0.08286 0.39344 0.0
O27 O 0.01908 0.01916 0.40441 0.0
Co28 Co 0.07112 0.08728 0.75009 0.0
O29 O 0.13031 0.11689 0.73119 0.0
O30 O 0.11627 0.04774 0.74984 0.0
C31 C 0.99661 0.07779 0.73238 0.0
O32 O 0.01358 0.04327 0.77054 0.0
Co33 Co 0.00838 0.15339 0.76486 0.0
O34 O 0.95226 0.0785 0.77598 0.0
C35 C 0.13216 0.1959 0.77609 0.0
C36 C 0.14574 0.08027 0.73631 0.0
C37 C 0.96721 0.0403 0.77813 0.0
O38 O 0.12883 0.1495 0.76829 0.0
O39 O 0.09018 0.20744 0.77535 0.0
O40 O 0.01054 0.03706 0.73173 0.0
O41 O 0.03024 0.12414 0.74269 0.0
H42 H 0.99801 0.37905 0.14503 0.0
H43 H 0.14602 0.95446 0.26204 0.0
H44 H 0.98984 0.42984 0.24204 0.0
H45 H 0.99406 0.34864 0.2258 0.0
H46 H 0.1839 0.43994 0.23441 0.0
H47 H 0.1793 0.5214 0.25042 0.0
H48 H 0.98355 0.50488 0.21223 0.0
H49 H 0.97249 0.44893 0.18297 0.0
H50 H 0.15912 0.50437 0.18486 0.0
H51 H 0.16948 0.56003 0.21407 0.0
H52 H 0.99737 0.6413 0.22592 0.0
H53 H 0.99737 0.6957 0.19962 0.0
H54 H 0.16445 0.71444 0.1817 0.0
H55 H 0.16582 0.66251 0.2085 0.0
H56 H 0.00309 0.66492 0.26872 0.0
H57 H 0.00608 0.75836 0.27391 0.0
H58 H 0.17894 0.84659 0.24862 0.0
H59 H 0.17577 0.75291 0.24377 0.0
H60 H 0.01089 0.58752 0.29695 0.0
H61 H 0.01319 0.65074 0.32347 0.0
H62 H 0.19027 0.78242 0.30897 0.0
H63 H 0.18875 0.71847 0.28289 0.0
H64 H -0.00135 0.47822 0.28547 0.0
H65 H 0.00358 0.42702 0.31192 0.0
H66 H 0.19468 0.53446 0.3126 0.0
H67 H 0.18921 0.58588 0.28619 0.0
O68 O 0.00371 0.40309 0.15624 0.0
O69 O 0.1005 0.43531 0.15739 0.0
O70 O 0.05348 0.86902 0.27216 0.0
O71 O 0.14351 0.91687 0.26001 0.0
C72 C 0.085 0.53763 0.24977 0.0
C73 C 0.08243 0.5651 0.2339 0.0
C74 C 0.08393 0.61903 0.23582 0.0
C75 C 0.08843 0.64567 0.25366 0.0
C76 C 0.09253 0.61876 0.26949 0.0
C77 C 0.09031 0.56449 0.26754 0.0
C78 C 0.08434 0.48154 0.2472 0.0
C79 C 0.03187 0.43093 0.24123 0.0
C80 C 0.03442 0.3847 0.2319 0.0
C81 C 0.08951 0.38871 0.22853 0.0
C82 C 0.14103 0.4363 0.2366 0.0
C83 C 0.13841 0.48247 0.24594 0.0
C84 C 0.07724 0.53632 0.21524 0.0
C85 C 0.02208 0.50541 0.20616 0.0
C86 C 0.01586 0.47326 0.18951 0.0
C87 C 0.06484 0.47177 0.18165 0.0
C88 C 0.12044 0.5043 0.19057 0.0
C89 C 0.12653 0.53625 0.20723 0.0
C90 C 0.08165 0.64804 0.21916 0.0
C91 C 0.03395 0.6571 0.21633 0.0
C92 C 0.03388 0.68789 0.20133 0.0
C93 C 0.08083 0.70884 0.18872 0.0
C94 C 0.12756 0.6981 0.19119 0.0
C95 C 0.12829 0.66846 0.20643 0.0
C96 C 0.08922 0.70218 0.25589 0.0
C97 C 0.04153 0.70449 0.2643 0.0
C98 C 0.04332 0.75789 0.26723 0.0
C99 C 0.09281 0.80998 0.26169 0.0
C100 C 0.14022 0.80734 0.25306 0.0
C101 C 0.13843 0.75389 0.2502 0.0
C102 C 0.09959 0.64861 0.28799 0.0
C103 C 0.05119 0.62879 0.30001 0.0
C104 C 0.05241 0.66489 0.31506 0.0
C105 C 0.10178 0.72119 0.31804 0.0
C106 C 0.15189 0.73901 0.30687 0.0
C107 C 0.15106 0.7026 0.29206 0.0
C108 C 0.09355 0.53564 0.28401 0.0
C109 C 0.04146 0.49103 0.29148 0.0
C110 C 0.04437 0.46216 0.30661 0.0
C111 C 0.09953 0.47699 0.31433 0.0
C112 C 0.15166 0.52212 0.30687 0.0
C113 C 0.14863 0.5515 0.29187 0.0
C114 C 0.05769 0.43582 0.16436 0.0
C115 C 0.09517 0.86691 0.26496 0.0
H116 H 0.67326 0.08816 0.47214 0.0
H117 H 0.26353 0.12512 0.63884 0.0
H118 H 0.64196 0.01565 0.57365 0.0
H119 H 0.72129 0.02517 0.55313 0.0
H120 H 0.7966 0.21255 0.55555 0.0
H121 H 0.7179 0.20285 0.57664 0.0
H122 H 0.57237 0.01934 0.54548 0.0
H123 H 0.60768 0.03046 0.51359 0.0
H124 H 0.65906 0.2134 0.51857 0.0
H125 H 0.62425 0.20174 0.55057 0.0
H126 H 0.45558 0.01206 0.55156 0.0
H127 H 0.39184 0.01219 0.52725 0.0
H128 H 0.44312 0.19059 0.54423 0.0
H129 H 0.507 0.19001 0.56855 0.0
H130 H 0.40443 0.99742 0.59839 0.0
H131 H 0.31471 0.98922 0.61253 0.0
H132 H 0.40239 0.17785 0.61946 0.0
H133 H 0.49188 0.18525 0.60543 0.0
H134 H 0.48692 0.99149 0.62515 0.0
H135 H 0.43013 0.97755 0.65366 0.0
H136 H 0.50799 0.16492 0.66185 0.0
H137 H 0.56483 0.17823 0.63354 0.0
H138 H 0.61844 0.00319 0.60579 0.0
H139 H 0.68148 0.99435 0.62857 0.0
H140 H 0.72827 0.1644 0.65323 0.0
H141 H 0.66782 0.17464 0.62976 0.0
O142 O 0.65834 0.08447 0.48463 0.0
O143 O 0.67922 0.17695 0.48729 0.0
O144 O 0.25503 0.03032 0.62909 0.0
O145 O 0.29762 0.12713 0.63262 0.0
C146 C 0.61738 0.10167 0.58331 0.0
C147 C 0.57937 0.10395 0.57014 0.0
C148 C 0.52612 0.10114 0.57581 0.0
C149 C 0.51085 0.09624 0.59464 0.0
C150 C 0.54838 0.09307 0.60778 0.0
C151 C 0.60142 0.09518 0.60213 0.0
C152 C 0.67466 0.10861 0.57688 0.0
C153 C 0.6776 0.059 0.57075 0.0
C154 C 0.72259 0.06449 0.55883 0.0
C155 C 0.76456 0.11956 0.55265 0.0
C156 C 0.76453 0.16965 0.56008 0.0
C157 C 0.7201 0.16421 0.57226 0.0
C158 C 0.596 0.10978 0.5503 0.0
C159 C 0.591 0.06168 0.53961 0.0
C160 C 0.61128 0.0682 0.52142 0.0
C161 C 0.6364 0.12288 0.51355 0.0
C162 C 0.64 0.1707 0.52421 0.0
C163 C 0.61994 0.16415 0.54245 0.0
C164 C 0.48544 0.10087 0.56182 0.0
C165 C 0.45281 0.05105 0.55004 0.0
C166 C 0.4169 0.05139 0.53611 0.0
C167 C 0.41285 0.10155 0.53379 0.0
C168 C 0.44513 0.15124 0.54579 0.0
C169 C 0.48141 0.15096 0.55967 0.0
C170 C 0.45427 0.0919 0.60077 0.0
C171 C 0.4037 0.03688 0.60268 0.0
C172 C 0.35272 0.03235 0.61087 0.0
C173 C 0.35147 0.08291 0.61721 0.0
C174 C 0.40185 0.13806 0.61476 0.0
C175 C 0.45285 0.14247 0.60663 0.0
C176 C 0.52981 0.08582 0.62735 0.0
C177 C 0.49354 0.02949 0.63357 0.0
C178 C 0.46075 0.02164 0.64972 0.0
C179 C 0.46405 0.07011 0.65984 0.0
C180 C 0.50486 0.12674 0.65446 0.0
C181 C 0.53745 0.1345 0.6383 0.0
C182 C 0.63954 0.09005 0.61589 0.0
C183 C 0.64329 0.03908 0.61583 0.0
C184 C 0.67866 0.03379 0.62891 0.0
C185 C 0.7093 0.07871 0.64253 0.0
C186 C 0.70469 0.12923 0.64283 0.0
C187 C 0.67041 0.1351 0.62948 0.0
C188 C 0.65922 0.12994 0.49437 0.0
C189 C 0.29834 0.07829 0.62662 0.0
H190 H 0.66575 0.73103 0.04007 0.0
H191 H 0.2998 0.21382 0.8923 0.0
H192 H 0.6416 0.73404 0.93857 0.0
H193 H 0.71973 0.81647 0.95707 0.0
H194 H 0.82703 0.73496 0.95284 0.0
H195 H 0.74958 0.65352 0.93375 0.0
H196 H 0.55871 0.64685 0.9663 0.0
H197 H 0.58985 0.68568 -0.00183 0.0
H198 H 0.71601 0.62532 0.99586 0.0
H199 H 0.68441 0.58679 0.96401 0.0
H200 H 0.44254 0.51719 0.9485 0.0
H201 H 0.3818 0.4586 0.97376 0.0
H202 H 0.51885 0.42074 0.98741 0.0
H203 H 0.57917 0.47915 0.96199 0.0
H204 H 0.43256 0.50398 0.90593 0.0
H205 H 0.34651 0.41109 0.8952 0.0
H206 H 0.43418 0.31932 0.91195 0.0
H207 H 0.52038 0.41274 0.92239 0.0
H208 H 0.52048 0.59597 0.88183 0.0
H209 H 0.46295 0.54084 0.85405 0.0
H210 H 0.5237 0.41777 0.85869 0.0
H211 H 0.58137 0.47328 0.88634 0.0
H212 H 0.62852 0.71694 0.90362 0.0
H213 H 0.68848 0.78621 0.88044 0.0
H214 H 0.75056 0.66999 0.86046 0.0
H215 H 0.69144 0.6013 0.88409 0.0
O216 O 0.65319 0.71431 0.02761 0.0
O217 O 0.71211 0.67623 0.02651 0.0
O218 O 0.28906 0.30021 0.88889 0.0
O219 O 0.33272 0.251 0.89682 0.0
C220 C 0.63742 0.63152 0.92916 0.0
C221 C 0.60316 0.59428 0.94322 0.0
C222 C 0.55261 0.53973 0.93858 0.0
C223 C 0.5368 0.52196 0.91983 0.0
C224 C 0.57195 0.55869 0.90571 0.0
C225 C 0.62167 0.61413 0.91036 0.0
C226 C 0.69034 0.68826 0.93469 0.0
C227 C 0.6833 0.73559 0.94076 0.0
C228 C 0.72766 0.78232 0.9514 0.0
C229 C 0.77889 0.78152 0.95634 0.0
C230 C 0.78784 0.73636 0.94907 0.0
C231 C 0.74398 0.69022 0.9381 0.0
C232 C 0.61926 0.614 0.96293 0.0
C233 C 0.59267 0.64165 0.97279 0.0
C234 C 0.61074 0.66398 0.99094 0.0
C235 C 0.65553 0.65872 -0.00046 0.0
C236 C 0.68136 0.63005 0.98966 0.0
C237 C 0.66338 0.60794 0.97149 0.0
C238 C 0.51515 0.50234 0.95344 0.0
C239 C 0.45915 0.4958 0.95686 0.0
C240 C 0.42459 0.46234 0.97125 0.0
C241 C 0.44568 0.43518 0.98256 0.0
C242 C 0.50179 0.44169 0.97905 0.0
C243 C 0.53613 0.47479 0.96453 0.0
C244 C 0.4827 0.46502 0.91487 0.0
C245 C 0.43294 0.46372 0.90734 0.0
C246 C 0.38389 0.41062 0.90122 0.0
C247 C 0.38355 0.35776 0.90265 0.0
C248 C 0.43304 0.3592 0.9106 0.0
C249 C 0.48219 0.41242 0.91667 0.0
C250 C 0.55454 0.53821 0.88615 0.0
C251 C 0.52351 0.55868 0.87634 0.0
C252 C 0.49054 0.52704 0.86054 0.0
C253 C 0.4882 0.47457 0.85447 0.0
C254 C 0.52427 0.4577 0.86324 0.0
C255 C 0.55753 0.48955 0.87892 0.0
C256 C 0.6563 0.65451 0.89572 0.0
C257 C 0.65551 0.70667 0.89437 0.0
C258 C 0.68963 0.74608 0.88113 0.0
C259 C 0.72444 0.73358 0.86877 0.0
C260 C 0.72397 0.68055 0.86979 0.0
C261 C 0.69038 0.64143 0.88326 0.0
C262 C 0.67543 0.68347 0.01869 0.0
C263 C 0.33214 0.3014 0.89572 0.0
C264 C 0.13231 0.18118 0.15262 0.0
C265 C 0.09561 0.17022 0.13725 0.0
C266 C 0.1322 0.2155 0.16807 0.0
C267 C 0.09501 0.23997 0.16803 0.0
C268 C 0.05835 0.22966 0.15245 0.0
C269 C 0.05883 0.19453 0.13726 0.0
C270 C 0.17165 0.22533 0.18447 0.0
C271 C 0.01881 0.25589 0.15183 0.0
C272 C 0.05436 0.28883 0.21356 0.0
C273 C 0.09415 0.34926 0.21416 0.0
C274 C 0.05479 0.25243 0.19876 0.0
C275 C 0.09536 0.27737 0.18415 0.0
C276 C 0.13599 0.33827 0.1848 0.0
C277 C 0.13511 0.3734 0.19986 0.0
C278 C 0.01121 0.18751 0.19858 0.0
C279 C 0.17947 0.36657 0.1694 0.0
H280 H 0.16063 0.16223 0.15271 0.0
H281 H 0.0305 0.18623 0.12538 0.0
H282 H 0.20337 0.27278 0.18701 0.0
H283 H 0.14447 0.20978 0.19709 0.0
H284 H 0.19721 0.20236 0.18242 0.0
H285 H 0.9933 0.24396 0.13864 0.0
H286 H 0.98709 0.24086 0.16345 0.0
H287 H 0.04591 0.30428 0.15354 0.0
H288 H 0.02259 0.2702 0.22459 0.0
H289 H 0.16514 0.42029 0.20009 0.0
H290 H 0.03518 0.16287 0.19719 0.0
H291 H 0.98094 0.17403 0.18645 0.0
H292 H 0.98413 0.17478 0.21132 0.0
H293 H 0.20876 0.34758 0.16779 0.0
H294 H 0.20759 0.41471 0.17194 0.0
H295 H 0.15522 0.35763 0.1561 0.0
C296 C 0.87185 0.04138 0.45928 0.0
C297 C 0.93086 0.07945 0.45448 0.0
C298 C 0.84659 0.05445 0.47475 0.0
C299 C 0.88171 0.1061 0.48593 0.0
C300 C 0.94053 0.14591 0.48071 0.0
C301 C 0.96424 0.13238 0.4649 0.0
C302 C 0.78309 0.01174 0.47958 0.0
C303 C 0.97951 0.20107 0.49239 0.0
C304 C 0.79958 0.15069 0.52084 0.0
C305 C 0.80174 0.12321 0.53655 0.0
C306 C 0.82714 0.14725 0.50438 0.0
C307 C 0.85795 0.11601 0.50372 0.0
C308 C 0.86265 0.09061 0.51983 0.0
C309 C 0.83394 0.09404 0.53603 0.0
C310 C 0.82057 0.17434 0.48747 0.0
C311 C 0.89607 0.05785 0.51975 0.0
H312 H 0.84583 0.00062 0.45118 0.0
H313 H 0.01008 0.16172 0.46134 0.0
H314 H 0.782 0.99124 0.49263 0.0
H315 H 0.75787 0.03491 0.48192 0.0
H316 H 0.76024 0.97653 0.46857 0.0
H317 H 0.02224 0.22993 0.48556 0.0
H318 H 0.95639 0.22598 0.49544 0.0
H319 H 0.9892 0.18936 0.50583 0.0
H320 H 0.7738 0.17244 0.52116 0.0
H321 H 0.83556 0.07287 0.5482 0.0
H322 H 0.7911 0.13918 0.47722 0.0
H323 H 0.8641 0.20067 0.48077 0.0
H324 H 0.8014 0.2028 0.49082 0.0
H325 H 0.87284 0.01752 0.51059 0.0
H326 H 0.9 0.04525 0.5338 0.0
H327 H 0.94126 0.08499 0.51416 0.0
C328 C 0.95484 0.96052 0.79797 0.0
C329 C 0.93107 0.99198 0.7904 0.0
C330 C 0.92205 0.91661 0.81033 0.0
C331 C 0.86377 0.9032 0.81501 0.0
C332 C 0.83894 0.93368 0.80703 0.0
C333 C 0.87303 0.97798 0.79495 0.0
C334 C 0.95032 0.8856 0.81874 0.0
C335 C 0.77661 0.92005 0.81147 0.0
C336 C 0.75963 0.75849 0.83632 0.0
C337 C 0.76154 0.77634 0.85502 0.0
C338 C 0.79289 0.79924 0.82311 0.0
C339 C 0.82952 0.85899 0.82883 0.0
C340 C 0.83252 0.87693 0.84777 0.0
C341 C 0.79818 0.83544 0.86061 0.0
C342 C 0.78794 0.7786 0.80301 0.0
C343 C 0.8717 0.94005 0.85447 0.0
H344 H -0.00028 0.97119 0.79459 0.0
H345 H 0.8541 0.00167 0.78903 0.0
H346 H 0.95372 0.89416 0.83398 0.0
H347 H 0.92226 0.83762 0.816 0.0
H348 H 0.99539 0.89992 0.81325 0.0
H349 H 0.76271 0.94547 0.80334 0.0
H350 H 0.74486 0.87272 0.80863 0.0
H351 H 0.77355 0.93011 0.8264 0.0
H352 H 0.73096 0.71285 0.83196 0.0
H353 H 0.80021 0.84915 0.87511 0.0
H354 H 0.8324 0.79053 0.79753 0.0
H355 H 0.77045 0.80072 0.79475 0.0
H356 H 0.75828 0.73052 0.80087 0.0
H357 H 0.9182 0.95577 0.85023 0.0
H358 H 0.87073 0.9464 0.86975 0.0
H359 H 0.85721 0.96781 0.84803 0.0
C360 C 0.14067 0.94122 0.11383 0.0
C361 C 0.08704 0.93799 0.10949 0.0
C362 C 0.14136 0.89907 0.12455 0.0
C363 C 0.08704 0.85215 0.1306 0.0
C364 C 0.0327 0.84577 0.12462 0.0
C365 C 0.03337 0.88931 0.11435 0.0
C366 C 0.20025 0.90791 0.13083 0.0
C367 C 0.97381 0.79549 0.13031 0.0
C368 C 0.08652 0.72879 0.15516 0.0
C369 C 0.08279 0.74501 0.17368 0.0
C370 C 0.08783 0.76308 0.14086 0.0
C371 C 0.08689 0.81531 0.14534 0.0
C372 C 0.08431 0.83225 0.1641 0.0
C373 C 0.0816 0.79649 0.17803 0.0
C374 C 0.08915 0.74301 0.12101 0.0
C375 C 0.08431 0.88816 0.1695 0.0
H376 H 0.18221 0.97912 0.11017 0.0
H377 H 0.99185 0.88664 0.11085 0.0
H378 H 0.20752 0.92298 0.14567 0.0
H379 H 0.20063 0.86623 0.1295 0.0
H380 H 0.23778 0.94103 0.12283 0.0
H381 H 0.9364 0.79137 0.12202 0.0
H382 H 0.97389 0.75365 0.12877 0.0
H383 H 0.96595 0.80252 0.1451 0.0
H384 H 0.08728 0.68874 0.15189 0.0
H385 H 0.07938 0.80913 0.19241 0.0
H386 H 0.12823 0.77734 0.11391 0.0
H387 H 0.04908 0.73572 0.11354 0.0
H388 H 0.09077 0.70187 0.11989 0.0
H389 H 0.12338 0.92593 0.16354 0.0
H390 H 0.08528 0.89642 0.18475 0.0
H391 H 0.04406 0.88601 0.16384 0.0
C392 C 0.20958 0.1104 0.45299 0.0
C393 C 0.15573 0.05704 0.45287 0.0
C394 C 0.25549 0.12232 0.46541 0.0
C395 C 0.24696 0.08017 0.47812 0.0
C396 C 0.19282 0.02625 0.47802 0.0
C397 C 0.14807 0.01523 0.46535 0.0
C398 C 0.31298 0.17998 0.465 0.0
C399 C 0.18186 0.98035 0.49146 0.0
C400 C 0.37468 0.07791 0.50119 0.0
C401 C 0.37429 0.10134 0.51902 0.0
C402 C 0.3352 0.07319 0.48744 0.0
C403 C 0.29416 0.09205 0.49169 0.0
C404 C 0.29505 0.11776 0.50947 0.0
C405 C 0.33527 0.12223 0.52292 0.0
C406 C 0.33597 0.04607 0.46859 0.0
C407 C 0.25174 0.1381 0.51454 0.0
H408 H 0.21598 0.14283 0.44334 0.0
H409 H 0.10654 0.97402 0.46546 0.0
H410 H 0.32088 0.20467 0.47854 0.0
H411 H 0.35062 0.17218 0.46268 0.0
H412 H 0.31307 0.20753 0.45399 0.0
H413 H 0.1372 0.94078 0.48961 0.0
H414 H 0.21571 0.96696 0.48967 0.0
H415 H 0.18606 -0.00125 0.50588 0.0
H416 H 0.40552 0.06263 0.49805 0.0
H417 H 0.33462 0.14004 0.53673 0.0
H418 H 0.33805 0.0745 0.4576 0.0
H419 H 0.29435 0.00343 0.46637 0.0
H420 H 0.37409 0.03862 0.467 0.0
H421 H 0.25277 0.16774 0.50415 0.0
H422 H 0.26134 0.16131 0.52841 0.0
H423 H 0.20604 0.09984 0.5145 0.0
C424 C 0.24019 0.23791 0.78299 0.0
C425 C 0.18708 0.23786 0.78644 0.0
C426 C 0.29249 0.27734 0.79275 0.0
C427 C 0.29136 0.31694 0.8065 0.0
C428 C 0.23799 0.31728 0.80998 0.0
C429 C 0.18662 0.27808 0.7998 0.0
C430 C 0.34878 0.27622 0.78851 0.0
C431 C 0.23482 0.35827 0.82474 0.0
C432 C 0.40365 0.37549 0.84583 0.0
C433 C 0.44181 0.43331 0.8411 0.0
C434 C 0.35533 0.33678 0.83446 0.0
C435 C 0.34517 0.35628 0.81787 0.0
C436 C 0.38466 0.41411 0.81272 0.0
C437 C 0.43231 0.45223 0.82452 0.0
C438 C 0.31377 0.27583 0.84063 0.0
C439 C 0.3757 0.43608 0.79499 0.0
H440 H 0.24104 0.20735 0.77255 0.0
H441 H 0.14572 0.27816 0.8026 0.0
H442 H 0.38487 0.32051 0.7852 0.0
H443 H 0.36333 0.26362 0.80086 0.0
H444 H 0.34301 0.24498 0.77673 0.0
H445 H 0.19014 0.35369 0.82553 0.0
H446 H 0.24607 0.34945 0.83843 0.0
H447 H 0.26781 0.40427 0.82199 0.0
H448 H 0.41022 0.36115 0.85885 0.0
H449 H 0.46185 0.49697 0.82089 0.0
H450 H 0.30643 0.24271 0.82934 0.0
H451 H 0.27002 0.27123 0.84401 0.0
H452 H 0.33087 0.26591 0.85301 0.0
H453 H 0.3714 0.40579 0.7831 0.0
H454 H 0.41282 0.48059 0.79231 0.0
H455 H 0.33389 0.43737 0.79568 0.0
C456 C 0.94948 0.12538 0.71669 0.0
C457 C 0.94894 0.0741 0.72077 0.0
C458 C 0.90781 0.12373 0.7044 0.0
C459 C 0.86362 0.06926 0.69637 0.0
C460 C 0.86138 0.01703 0.70103 0.0
C461 C 0.90466 0.02014 0.71301 0.0
C462 C 0.91243 0.1805 0.69951 0.0
C463 C 0.81393 0.95804 0.69312 0.0
C464 C 0.7325 0.07016 0.675 0.0
C465 C 0.74697 0.07336 0.65623 0.0
C466 C 0.76889 0.0664 0.68821 0.0
C467 C 0.82166 0.06761 0.68246 0.0
C468 C 0.83608 0.07048 0.66343 0.0
C469 C 0.79804 0.07258 0.6505 0.0
C470 C 0.75133 0.06191 0.7083 0.0
C471 C 0.89257 0.07317 0.6568 0.0
H472 H 0.98387 0.16723 0.7226 0.0
H473 H 0.90396 0.9804 0.71627 0.0
H474 H 0.92034 0.18618 0.68446 0.0
H475 H 0.87018 0.17956 0.70257 0.0
H476 H 0.94891 0.21907 0.70718 0.0
H477 H 0.81544 0.92141 0.69929 0.0
H478 H 0.76939 0.95274 0.69549 0.0
H479 H 0.81945 0.95491 0.67794 0.0
H480 H 0.69259 0.07039 0.6793 0.0
H481 H 0.80897 0.07527 0.63592 0.0
H482 H 0.78404 0.10182 0.71641 0.0
H483 H 0.75154 0.02413 0.71407 0.0
H484 H 0.70664 0.05672 0.71027 0.0
H485 H 0.93146 0.11279 0.66314 0.0
H486 H 0.89673 0.07441 0.64151 0.0
H487 H 0.89431 0.0347 0.66121 0.0
C488 C 0.91381 0.994 0.04581 0.0
C489 C 0.97221 0.00881 0.0498 0.0
C490 C 0.88361 0.95765 0.03021 0.0
C491 C 0.91322 0.93714 0.01808 0.0
C492 C 0.9726 0.95298 0.02186 0.0
C493 C 0.00113 0.988 0.03782 0.0
C494 C 0.81976 0.94038 0.02688 0.0
C495 C 0.00587 0.93271 0.00908 0.0
C496 C 0.82007 0.79903 0.98808 0.0
C497 C 0.81738 0.82185 0.9714 0.0
C498 C 0.85136 0.83611 0.00336 0.0
C499 C 0.88139 0.89746 0.00178 0.0
C500 C 0.88006 0.92068 0.98477 0.0
C501 C 0.84718 0.88243 0.9698 0.0
C502 C 0.85035 0.80957 0.02137 0.0
C503 C 0.91281 0.98581 0.98245 0.0
H504 H 0.89132 0.00985 0.05511 0.0
H505 H 0.04657 -3e-05 0.04075 0.0
H506 H 0.81492 0.95429 0.01318 0.0
H507 H 0.79126 0.89205 0.02667 0.0
H508 H 0.80316 0.96 0.03765 0.0
H509 H 0.05282 0.95142 0.01348 0.0
H510 H 0.98391 0.8843 0.00864 0.0
H511 H 0.00501 0.94534 0.99479 0.0
H512 H 0.79588 0.75203 0.98933 0.0
H513 H 0.84456 0.89972 0.95686 0.0
H514 H 0.82389 0.8193 0.03162 0.0
H515 H 0.89581 0.82888 0.02718 0.0
H516 H 0.83061 0.76137 0.0197 0.0
H517 H 0.89409 0.00686 0.99184 0.0
H518 H 0.91008 0.99658 0.96804 0.0
H519 H 0.96022 0.00511 0.98634 0.0
C520 C 0.01884 0.92711 0.3801 0.0
C521 C 0.06961 0.98052 0.38512 0.0
C522 C 0.02353 0.88247 0.37026 0.0
C523 C 0.08041 0.8911 0.36584 0.0
C524 C 0.13184 0.94401 0.37169 0.0
C525 C 0.12579 0.9885 0.38104 0.0
C526 C 0.96767 0.82719 0.36388 0.0
C527 C 0.19324 0.95423 0.36765 0.0
C528 C 0.09232 0.75832 0.34972 0.0
C529 C 0.09746 0.76447 0.3306 0.0
C530 C 0.08747 0.79972 0.36149 0.0
C531 C 0.08613 0.847 0.35379 0.0
C532 C 0.09051 0.85261 0.33441 0.0
C533 C 0.09672 0.81151 0.32307 0.0
C534 C 0.08427 0.7932 0.38212 0.0
C535 C 0.088 0.90163 0.32562 0.0
H536 H 0.97539 0.92104 0.38328 0.0
H537 H 0.16509 0.02958 0.38516 0.0
H538 H 0.96535 0.82369 0.34854 0.0
H539 H 0.96824 0.78822 0.36841 0.0
H540 H 0.92698 0.82608 0.36926 0.0
H541 H 0.2284 0.9951 0.37478 0.0
H542 H 0.1972 0.91689 0.37201 0.0
H543 H 0.20121 0.95721 0.35254 0.0
H544 H 0.09281 0.72163 0.3554 0.0
H545 H 0.09996 0.81546 0.3082 0.0
H546 H 0.0421 0.78857 0.38749 0.0
H547 H 0.12096 0.83311 0.38916 0.0
H548 H 0.08715 0.75468 0.38591 0.0
H549 H 0.04572 0.90006 0.3292 0.0
H550 H 0.09145 0.89926 0.31031 0.0
H551 H 0.12462 0.94455 0.33106 0.0
C552 C 0.21156 0.03687 0.73269 0.0
C553 C 0.1943 0.07581 0.72696 0.0
C554 C 0.25681 0.03174 0.72351 0.0
C555 C 0.28514 0.06628 0.70826 0.0
C556 C 0.26823 0.10605 0.70257 0.0
C557 C 0.22314 0.11039 0.71201 0.0
C558 C 0.27374 0.98889 0.72993 0.0
C559 C 0.29729 0.14355 0.68633 0.0
C560 C 0.43541 0.09819 0.69033 0.0
C561 C 0.41925 0.06199 0.67407 0.0
C562 C 0.39208 0.09761 0.70226 0.0
C563 C 0.3313 0.06007 0.69775 0.0
C564 C 0.31484 0.02113 0.6819 0.0
C565 C 0.35902 0.02263 0.67024 0.0
C566 C 0.41135 0.13966 0.71906 0.0
C567 C 0.25054 0.98065 0.67653 0.0
H568 H 0.1895 0.01011 0.74426 0.0
H569 H 0.21011 0.14065 0.70751 0.0
H570 H 0.26478 0.95505 0.71871 0.0
H571 H 0.32196 0.01173 0.73309 0.0
H572 H 0.24896 0.96682 0.74241 0.0
H573 H 0.27906 0.17236 0.68369 0.0
H574 H 0.34576 0.17132 0.68886 0.0
H575 H 0.29097 0.11535 0.67365 0.0
H576 H 0.48195 0.12841 0.69338 0.0
H577 H 0.34615 0.99531 0.65752 0.0
H578 H 0.38695 0.11679 0.73147 0.0
H579 H 0.40067 0.17446 0.7169 0.0
H580 H 0.45974 0.16068 0.72185 0.0
H581 H 0.22471 0.95658 0.68859 0.0
H582 H 0.24516 0.94844 0.66512 0.0
H583 H 0.23117 0.00675 0.67195 0.0
C584 C 0.22571 0.29303 0.06604 0.0
C585 C 0.21274 0.23579 0.06876 0.0
C586 C 0.26909 0.32773 0.05342 0.0
C587 C 0.29998 0.30451 0.04319 0.0
C588 C 0.28972 0.24818 0.04668 0.0
C589 C 0.24639 0.21456 0.05949 0.0
C590 C 0.27939 0.38797 0.05028 0.0
C591 C 0.32179 0.22191 0.03604 0.0
C592 C 0.34854 0.36047 0.99524 0.0
C593 C 0.40915 0.4004 0.99801 0.0
C594 C 0.31286 0.32842 0.00979 0.0
C595 C 0.33835 0.33672 0.02758 0.0
C596 C 0.39969 0.37649 0.03044 0.0
C597 C 0.43445 0.40778 0.01558 0.0
C598 C 0.24769 0.28602 0.00613 0.0
C599 C 0.42829 0.38673 0.04925 0.0
H600 H 0.20045 0.31011 0.07328 0.0
H601 H 0.23682 0.17045 0.06149 0.0
H602 H 0.32754 0.42059 0.05066 0.0
H603 H 0.26234 0.38802 0.03637 0.0
H604 H 0.25685 0.40211 0.06076 0.0
H605 H 0.31376 0.18062 0.04181 0.0
H606 H 0.30647 0.21241 0.0214 0.0
H607 H 0.37024 0.25327 0.03609 0.0
H608 H 0.32903 0.35409 0.98161 0.0
H609 H 0.48122 0.43904 0.01781 0.0
H610 H 0.22064 0.29948 0.0148 0.0
H611 H 0.23611 0.24162 0.01 0.0
H612 H 0.23517 0.28353 0.99139 0.0
H613 H 0.40815 0.40476 0.05928 0.0
H614 H 0.47693 0.41756 0.04901 0.0
H615 H 0.42011 0.34472 0.0544 0.0
C616 C 0.03847 0.21518 0.37317 0.0
C617 C 0.07381 0.22636 0.38892 0.0
C618 C 0.04565 0.26064 0.36248 0.0
C619 C 0.08883 0.31904 0.36776 0.0
C620 C 0.12362 0.33097 0.38394 0.0
C621 C 0.11595 0.28435 0.3943 0.0
C622 C 0.00788 0.24591 0.34526 0.0
C623 C 0.1695 0.3928 0.39011 0.0
C624 C 0.14019 0.41971 0.32791 0.0
C625 C 0.10242 0.44292 0.3294 0.0
C626 C 0.13842 0.38155 0.34089 0.0
C627 C 0.09834 0.36681 0.35581 0.0
C628 C 0.06253 0.3928 0.35796 0.0
C629 C 0.06465 0.43021 0.34463 0.0
C630 C 0.17681 0.35424 0.33796 0.0
C631 C 0.01991 0.37891 0.37384 0.0
H632 H 0.00582 0.17051 0.36888 0.0
H633 H 0.14327 0.29327 0.40649 0.0
H634 H 0.98278 0.26946 0.34602 0.0
H635 H 0.03666 0.26045 0.33292 0.0
H636 H 0.9758 0.19828 0.34321 0.0
H637 H 0.19032 0.39506 0.4036 0.0
H638 H 0.2048 0.41158 0.37959 0.0
H639 H 0.14897 0.42066 0.39136 0.0
H640 H 0.1691 0.4291 0.31607 0.0
H641 H 0.03592 0.44872 0.34592 0.0
H642 H 0.14834 0.30678 0.33429 0.0
H643 H 0.20115 0.35859 0.35088 0.0
H644 H 0.20945 0.37436 0.32674 0.0
H645 H 0.98283 0.33311 0.3719 0.0
H646 H 0.00105 0.40829 0.37488 0.0
H647 H 0.04239 0.38265 0.38711 0.0
loop_
_geom_bond_atom_site_label_1
_geom_bond_atom_site_label_2
_geom_bond_distance
_geom_bond_site_symmetry_2
_ccdc_geom_bond_type
Co0 O1 2.216 . S
Co0 O2 2.091 . S
Co0 O4 2.004 . S
Co0 O10 2.021 . S
Co0 O12 2.137 . S
Co0 O13 2.244 . S
O1 Co0 2.216 . S
O1 C8 1.247 . S
O2 Co0 2.091 . S
O2 C8 1.261 . S
C3 O12 1.247 . S
C3 O13 1.272 . S
O4 Co0 2.004 . S
O4 C9 1.259 . S
Co5 O6 2.061 . S
Co5 O11 2.052 1_455 S
Co5 O13 2.135 . S
O6 Co5 2.061 . S
O6 C9 1.235 . S
C7 O10 1.238 . S
C7 O11 1.241 1_455 S
C8 O1 1.247 . S
C8 O2 1.261 . S
C9 O4 1.259 . S
C9 O6 1.235 . S
O10 Co0 2.021 . S
O10 C7 1.238 . S
O11 Co5 2.052 1_655 S
O11 C7 1.241 1_655 S
O12 Co0 2.137 . S
O12 C3 1.247 . S
O13 Co0 2.244 . S
O13 C3 1.272 . S
O13 Co5 2.135 . S
Co14 O15 2.216 . S
Co14 O16 2.091 . S
Co14 O18 2.004 . S
Co14 O24 2.021 . S
Co14 O26 2.137 . S
Co14 O27 2.244 1_545 S
O15 Co14 2.216 . S
O15 C22 1.247 . S
O16 Co14 2.091 . S
O16 C22 1.261 . S
C17 O26 1.247 1_565 S
C17 O27 1.272 . S
O18 Co14 2.004 . S
O18 C23 1.259 . S
Co19 O20 2.061 1_565 S
Co19 O25 2.052 1_465 S
Co19 O27 2.135 . S
O20 Co19 2.061 1_545 S
O20 C23 1.235 . S
C21 O24 1.238 1_655 S
C21 O25 1.241 . S
C22 O15 1.247 . S
C22 O16 1.261 . S
C23 O18 1.259 . S
C23 O20 1.235 . S
O24 Co14 2.021 . S
O24 C21 1.238 1_455 S
O25 Co19 2.052 1_645 S
O25 C21 1.241 . S
O26 Co14 2.137 . S
O26 C17 1.247 1_545 S
O27 Co14 2.244 1_565 S
O27 C17 1.272 . S
O27 Co19 2.135 . S
Co28 O29 2.216 . S
Co28 O30 2.091 . S
Co28 O32 2.004 . S
Co28 O38 2.021 . S
Co28 O40 2.137 . S
Co28 O41 2.244 . S
O29 Co28 2.216 . S
O29 C36 1.247 . S
O30 Co28 2.091 . S
O30 C36 1.261 . S
C31 O40 1.247 . S
C31 O41 1.272 . S
O32 Co28 2.004 . S
O32 C37 1.259 . S
Co33 O34 2.061 . S
Co33 O39 2.052 . S
Co33 O41 2.135 . S
O34 Co33 2.061 . S
O34 C37 1.235 . S
C35 O38 1.238 . S
C35 O39 1.241 . S
C36 O29 1.247 . S
C36 O30 1.261 . S
C37 O32 1.259 . S
C37 O34 1.235 . S
O38 Co28 2.021 . S
O38 C35 1.238 . S
O39 Co33 2.052 . S
O39 C35 1.241 . S
O40 Co28 2.137 . S
O40 C31 1.247 . S
O41 Co28 2.244 . S
O41 C31 1.272 . S
O41 Co33 2.135 . S
H42 O68 0.856 . S
H43 O71 0.854 . S
H44 C79 0.930 . S
H45 C80 0.930 . S
H46 C82 0.930 . S
H47 C83 0.930 . S
H48 C85 0.931 1_655 S
H49 C86 0.930 1_655 S
H50 C88 0.930 . S
H51 C89 0.929 . S
H52 C91 0.930 1_655 S
H53 C92 0.931 1_655 S
H54 C94 0.930 . S
H55 C95 0.929 . S
H56 C97 0.931 1_655 S
H57 C98 0.930 1_655 S
H58 C100 0.930 . S
H59 C101 0.932 . S
H60 C103 0.930 . S
H61 C104 0.929 . S
H62 C106 0.931 . S
H63 C107 0.930 . S
H64 C109 0.929 1_655 S
H65 C110 0.931 1_655 S
H66 C112 0.930 . S
H67 C113 0.929 . S
O68 H42 0.856 . S
O68 C114 1.300 . S
O69 C114 1.209 . S
O70 C115 1.199 . S
O71 H43 0.854 . S
O71 C115 1.297 . S
C72 C73 1.404 . S
C72 C77 1.397 . S
C72 C78 1.492 . S
C73 C72 1.404 . S
C73 C74 1.396 . S
C73 C84 1.492 . S
C74 C73 1.396 . S
C74 C75 1.397 . S
C74 C90 1.509 . S
C75 C74 1.397 . S
C75 C76 1.412 . S
C75 C96 1.485 . S
C76 C75 1.412 . S
C76 C77 1.388 . S
C76 C102 1.490 . S
C77 C72 1.397 . S
C77 C76 1.388 . S
C77 C108 1.519 . S
C78 C72 1.492 . S
C78 C79 1.363 1_455 S
C78 C83 1.390 . S
C79 H44 0.930 . S
C79 C78 1.363 1_655 S
C79 C80 1.372 . S
C80 H45 0.930 . S
C80 C79 1.372 . S
C80 C81 1.383 1_655 S
C81 C80 1.383 1_455 S
C81 C82 1.395 . S
C82 H46 0.930 . S
C82 C81 1.395 . S
C82 C83 1.362 . S
C83 H47 0.930 . S
C83 C78 1.390 . S
C83 C82 1.362 . S
C84 C73 1.492 . S
C84 C85 1.377 . S
C84 C89 1.397 . S
C85 H48 0.931 1_455 S
C85 C84 1.377 . S
C85 C86 1.376 . S
C86 H49 0.930 1_455 S
C86 C85 1.376 . S
C86 C87 1.376 . S
C87 C86 1.376 . S
C87 C88 1.378 . S
C87 C114 1.486 . S
C88 H50 0.930 . S
C88 C87 1.378 . S
C88 C89 1.376 . S
C89 H51 0.929 . S
C89 C84 1.397 . S
C89 C88 1.376 . S
C90 C74 1.509 . S
C90 C91 1.391 . S
C90 C95 1.386 . S
C91 H52 0.930 1_455 S
C91 C90 1.391 . S
C91 C92 1.375 . S
C92 H53 0.931 1_455 S
C92 C91 1.375 . S
C92 C93 1.375 . S
C93 C92 1.375 . S
C93 C94 1.361 . S
C94 H54 0.930 . S
C94 C93 1.361 . S
C94 C95 1.399 . S
C95 H55 0.929 . S
C95 C90 1.386 . S
C95 C94 1.399 . S
C96 C75 1.485 . S
C96 C97 1.394 . S
C96 C101 1.360 . S
C97 H56 0.931 1_455 S
C97 C96 1.394 . S
C97 C98 1.372 . S
C98 H57 0.930 1_455 S
C98 C97 1.372 . S
C98 C99 1.397 . S
C99 C98 1.397 . S
C99 C100 1.390 . S
C99 C115 1.476 . S
C100 H58 0.930 . S
C100 C99 1.390 . S
C100 C101 1.366 . S
C101 H59 0.932 . S
C101 C96 1.360 . S
C101 C100 1.366 . S
C102 C76 1.490 . S
C102 C103 1.380 1_455 S
C102 C107 1.386 . S
C103 H60 0.930 . S
C103 C102 1.380 1_655 S
C103 C104 1.381 . S
C104 H61 0.929 . S
C104 C103 1.381 . S
C104 C105 1.371 1_655 S
C105 C104 1.371 1_455 S
C105 C106 1.380 . S
C106 H62 0.931 . S
C106 C105 1.380 . S
C106 C107 1.387 . S
C107 H63 0.930 . S
C107 C102 1.386 . S
C107 C106 1.387 . S
C108 C77 1.519 . S
C108 C109 1.377 . S
C108 C113 1.361 . S
C109 H64 0.929 1_455 S
C109 C108 1.377 . S
C109 C110 1.386 . S
C110 H65 0.931 1_455 S
C110 C109 1.386 . S
C110 C111 1.363 . S
C111 C110 1.363 . S
C111 C112 1.385 . S
C112 H66 0.930 . S
C112 C111 1.385 . S
C112 C113 1.396 . S
C113 H67 0.929 . S
C113 C108 1.361 . S
C113 C112 1.396 . S
C114 O68 1.300 . S
C114 O69 1.209 . S
C114 C87 1.486 . S
C115 O70 1.199 . S
C115 O71 1.297 . S
C115 C99 1.476 . S
H116 O142 0.856 . S
H117 O145 0.854 . S
H118 C153 0.930 . S
H119 C154 0.930 1_565 S
H120 C156 0.930 . S
H121 C157 0.930 . S
H122 C159 0.931 . S
H123 C160 0.930 . S
H124 C162 0.930 . S
H125 C163 0.929 . S
H126 C165 0.930 . S
H127 C166 0.931 . S
H128 C168 0.930 . S
H129 C169 0.929 . S
H130 C171 0.931 . S
H131 C172 0.930 . S
H132 C174 0.930 . S
H133 C175 0.932 . S
H134 C177 0.930 . S
H135 C178 0.909 1_565 S
H136 C180 0.931 . S
H137 C181 0.930 . S
H138 C183 0.929 . S
H139 C184 0.931 . S
H140 C186 0.930 . S
H141 C187 0.929 . S
O142 H116 0.856 . S
O142 C188 1.300 . S
O143 C188 1.209 . S
O144 C189 1.199 . S
O145 H117 0.854 . S
O145 C189 1.297 . S
C146 C147 1.404 . S
C146 C151 1.397 . S
C146 C152 1.492 . S
C147 C146 1.404 . S
C147 C148 1.396 . S
C147 C158 1.492 . S
C148 C147 1.396 . S
C148 C149 1.397 . S
C148 C164 1.509 . S
C149 C148 1.397 . S
C149 C150 1.412 . S
C149 C170 1.485 . S
C150 C149 1.412 . S
C150 C151 1.388 . S
C150 C176 1.490 . S
C151 C146 1.397 . S
C151 C150 1.388 . S
C151 C182 1.519 . S
C152 C146 1.492 . S
C152 C153 1.363 . S
C152 C157 1.390 . S
C153 H118 0.930 . S
C153 C152 1.363 . S
C153 C154 1.372 . S
C154 H119 0.930 1_545 S
C154 C153 1.372 . S
C154 C155 1.383 . S
C155 C154 1.383 . S
C155 C156 1.395 . S
C156 H120 0.930 . S
C156 C155 1.395 . S
C156 C157 1.362 . S
C157 H121 0.930 . S
C157 C152 1.390 . S
C157 C156 1.362 . S
C158 C147 1.492 . S
C158 C159 1.377 . S
C158 C163 1.397 . S
C159 H122 0.931 . S
C159 C158 1.377 . S
C159 C160 1.376 . S
C160 H123 0.930 . S
C160 C159 1.376 . S
C160 C161 1.376 . S
C161 C160 1.376 . S
C161 C162 1.378 . S
C161 C188 1.486 . S
C162 H124 0.930 . S
C162 C161 1.378 . S
C162 C163 1.376 . S
C163 H125 0.929 . S
C163 C158 1.397 . S
C163 C162 1.376 . S
C164 C148 1.509 . S
C164 C165 1.391 . S
C164 C169 1.386 . S
C165 H126 0.930 . S
C165 C164 1.391 . S
C165 C166 1.375 . S
C166 H127 0.931 . S
C166 C165 1.375 . S
C166 C167 1.375 . S
C167 C166 1.375 . S
C167 C168 1.361 . S
C168 H128 0.930 . S
C168 C167 1.361 . S
C168 C169 1.399 . S
C169 H129 0.929 . S
C169 C164 1.386 . S
C169 C168 1.399 . S
C170 C149 1.485 . S
C170 C171 1.394 . S
C170 C175 1.360 . S
C171 H130 0.931 . S
C171 C170 1.394 . S
C171 C172 1.372 . S
C172 H131 0.930 . S
C172 C171 1.372 . S
C172 C173 1.397 . S
C173 C172 1.397 . S
C173 C174 1.390 . S
C173 C189 1.476 . S
C174 H132 0.930 . S
C174 C173 1.390 . S
C174 C175 1.366 . S
C175 H133 0.932 . S
C175 C170 1.360 . S
C175 C174 1.366 . S
C176 C150 1.490 . S
C176 C177 1.380 . S
C176 C181 1.386 . S
C177 H134 0.930 . S
C177 C176 1.380 . S
C177 C178 1.381 . S
C178 H135 0.909 1_545 S
C178 C177 1.381 . S
C178 C179 1.371 . S
C179 C178 1.371 . S
C179 C180 1.380 . S
C180 H136 0.931 . S
C180 C179 1.380 . S
C180 C181 1.387 . S
C181 H137 0.930 . S
C181 C176 1.386 . S
C181 C180 1.387 . S
C182 C151 1.519 . S
C182 C183 1.377 . S
C182 C187 1.361 . S
C183 H138 0.929 . S
C183 C182 1.377 . S
C183 C184 1.386 . S
C184 H139 0.931 . S
C184 C183 1.386 . S
C184 C185 1.363 . S
C185 C184 1.363 . S
C185 C186 1.385 . S
C186 H140 0.930 . S
C186 C185 1.385 . S
C186 C187 1.396 . S
C187 H141 0.929 . S
C187 C182 1.361 . S
C187 C186 1.396 . S
C188 O142 1.300 . S
C188 O143 1.209 . S
C188 C161 1.486 . S
C189 O144 1.199 . S
C189 O145 1.297 . S
C189 C173 1.476 . S
H190 O216 0.856 . S
H191 O219 0.854 . S
H192 C227 0.930 . S
H193 C228 0.930 . S
H194 C230 0.930 . S
H195 C231 0.930 . S
H196 C233 0.931 . S
H197 C234 0.930 . S
H198 C236 0.930 . S
H199 C237 0.929 . S
H200 C239 0.930 . S
H201 C240 0.931 . S
H202 C242 0.930 . S
H203 C243 0.929 . S
H204 C245 0.931 . S
H205 C246 0.930 . S
H206 C248 0.930 . S
H207 C249 0.932 . S
H208 C251 0.930 . S
H209 C252 0.929 . S
H210 C254 0.931 . S
H211 C255 0.930 . S
H212 C257 0.929 . S
H213 C258 0.931 . S
H214 C260 0.930 . S
H215 C261 0.929 . S
O216 H190 0.856 . S
O216 C262 1.300 . S
O217 C262 1.209 . S
O218 C263 1.199 . S
O219 H191 0.854 . S
O219 C263 1.297 . S
C220 C221 1.404 . S
C220 C225 1.397 . S
C220 C226 1.492 . S
C221 C220 1.404 . S
C221 C222 1.396 . S
C221 C232 1.492 . S
C222 C221 1.396 . S
C222 C223 1.397 . S
C222 C238 1.509 . S
C223 C222 1.397 . S
C223 C224 1.412 . S
C223 C244 1.485 . S
C224 C223 1.412 . S
C224 C225 1.388 . S
C224 C250 1.490 . S
C225 C220 1.397 . S
C225 C224 1.388 . S
C225 C256 1.519 . S
C226 C220 1.492 . S
C226 C227 1.363 . S
C226 C231 1.390 . S
C227 H192 0.930 . S
C227 C226 1.363 . S
C227 C228 1.372 . S
C228 H193 0.930 . S
C228 C227 1.372 . S
C228 C229 1.383 . S
C229 C228 1.383 . S
C229 C230 1.395 . S
C230 H194 0.930 . S
C230 C229 1.395 . S
C230 C231 1.362 . S
C231 H195 0.930 . S
C231 C226 1.390 . S
C231 C230 1.362 . S
C232 C221 1.492 . S
C232 C233 1.377 . S
C232 C237 1.397 . S
C233 H196 0.931 . S
C233 C232 1.377 . S
C233 C234 1.376 1_556 S
C234 H197 0.930 . S
C234 C233 1.376 1_554 S
C234 C235 1.376 . S
C235 C234 1.376 . S
C235 C236 1.378 . S
C235 C262 1.486 . S
C236 H198 0.930 . S
C236 C235 1.378 . S
C236 C237 1.376 1_554 S
C237 H199 0.929 . S
C237 C232 1.397 . S
C237 C236 1.376 1_556 S
C238 C222 1.509 . S
C238 C239 1.391 . S
C238 C243 1.386 . S
C239 H200 0.930 . S
C239 C238 1.391 . S
C239 C240 1.375 . S
C240 H201 0.931 . S
C240 C239 1.375 . S
C240 C241 1.375 . S
C241 C240 1.375 . S
C241 C242 1.361 . S
C242 H202 0.930 . S
C242 C241 1.361 . S
C242 C243 1.399 . S
C243 H203 0.929 . S
C243 C238 1.386 . S
C243 C242 1.399 . S
C244 C223 1.485 . S
C244 C245 1.394 . S
C244 C249 1.360 . S
C245 H204 0.931 . S
C245 C244 1.394 . S
C245 C246 1.372 . S
C246 H205 0.930 . S
C246 C245 1.372 . S
C246 C247 1.397 . S
C247 C246 1.397 . S
C247 C248 1.390 . S
C247 C263 1.476 . S
C248 H206 0.930 . S
C248 C247 1.390 . S
C248 C249 1.366 . S
C249 H207 0.932 . S
C249 C244 1.360 . S
C249 C248 1.366 . S
C250 C224 1.490 . S
C250 C251 1.380 . S
C250 C255 1.386 . S
C251 H208 0.930 . S
C251 C250 1.380 . S
C251 C252 1.381 . S
C252 H209 0.929 . S
C252 C251 1.381 . S
C252 C253 1.371 . S
C253 C252 1.371 . S
C253 C254 1.380 . S
C254 H210 0.931 . S
C254 C253 1.380 . S
C254 C255 1.387 . S
C255 H211 0.930 . S
C255 C250 1.386 . S
C255 C254 1.387 . S
C256 C225 1.519 . S
C256 C257 1.377 . S
C256 C261 1.361 . S
C257 H212 0.929 . S
C257 C256 1.377 . S
C257 C258 1.386 . S
C258 H213 0.931 . S
C258 C257 1.386 . S
C258 C259 1.363 . S
C259 C258 1.363 . S
C259 C260 1.385 . S
C260 H214 0.930 . S
C260 C259 1.385 . S
C260 C261 1.396 . S
C261 H215 0.929 . S
C261 C256 1.361 . S
C261 C260 1.396 . S
C262 O216 1.300 . S
C262 O217 1.209 . S
C262 C235 1.486 . S
C263 O218 1.199 . S
C263 O219 1.297 . S
C263 C247 1.476 . S
C264 C265 1.391 . S
C264 C266 1.394 . S
C264 H280 0.931 . S
C265 C264 1.391 . S
C265 C269 1.376 . S
C266 C264 1.394 . S
C266 C267 1.369 . S
C266 C270 1.531 . S
C267 C266 1.369 . S
C267 C268 1.410 . S
C267 C275 1.503 . S
C268 C267 1.410 . S
C268 C269 1.392 . S
C268 C271 1.511 . S
C269 C265 1.376 . S
C269 C268 1.392 . S
C269 H281 0.929 . S
C270 C266 1.531 . S
C270 H282 0.960 . S
C270 H283 0.962 . S
C270 H284 0.960 . S
C271 C268 1.511 . S
C271 H285 0.961 . S
C271 H286 0.961 . S
C271 H287 0.961 . S
C272 C273 1.370 1_655 S
C272 C274 1.363 1_655 S
C272 H288 0.931 . S
C273 C272 1.370 1_455 S
C273 C277 1.408 . S
C274 C272 1.363 1_455 S
C274 C275 1.370 . S
C274 C278 1.524 1_455 S
C275 C267 1.503 . S
C275 C274 1.370 . S
C275 C276 1.403 . S
C276 C275 1.403 . S
C276 C277 1.404 . S
C276 C279 1.539 . S
C277 C273 1.408 . S
C277 C276 1.404 . S
C277 H289 0.930 . S
C278 C274 1.524 1_655 S
C278 H290 0.956 . S
C278 H291 0.961 . S
C278 H292 0.961 . S
C279 C276 1.539 . S
C279 H293 0.958 . S
C279 H294 0.961 . S
C279 H295 0.960 . S
H280 C264 0.931 . S
H281 C269 0.929 . S
H282 C270 0.960 . S
H283 C270 0.962 . S
H284 C270 0.960 . S
H285 C271 0.961 . S
H286 C271 0.961 . S
H287 C271 0.961 . S
H288 C272 0.931 . S
H289 C277 0.930 . S
H290 C278 0.956 . S
H291 C278 0.961 . S
H292 C278 0.961 . S
H293 C279 0.958 . S
H294 C279 0.961 . S
H295 C279 0.960 . S
C296 C297 1.391 . S
C296 C298 1.394 . S
C296 H312 0.931 . S
C297 C296 1.391 . S
C297 C301 1.376 . S
C298 C296 1.394 . S
C298 C299 1.369 . S
C298 C302 1.531 1_545 S
C299 C298 1.369 . S
C299 C300 1.410 . S
C299 C307 1.503 . S
C300 C299 1.410 . S
C300 C301 1.392 . S
C300 C303 1.511 . S
C301 C297 1.376 . S
C301 C300 1.392 . S
C301 H313 0.929 1_655 S
C302 C298 1.531 1_565 S
C302 H314 0.959 . S
C302 H315 0.963 1_565 S
C302 H316 0.960 . S
C303 C300 1.511 . S
C303 H317 0.961 1_655 S
C303 H318 0.961 . S
C303 H319 0.969 . S
C304 C305 1.370 . S
C304 C306 1.363 . S
C304 H320 0.931 . S
C305 C304 1.370 . S
C305 C309 1.408 . S
C306 C304 1.363 . S
C306 C307 1.370 . S
C306 C310 1.524 . S
C307 C299 1.503 . S
C307 C306 1.370 . S
C307 C308 1.403 . S
C308 C307 1.403 . S
C308 C309 1.404 . S
C308 C311 1.539 1_545 S
C309 C305 1.408 . S
C309 C308 1.404 . S
C309 H321 0.930 1_545 S
C310 C306 1.524 . S
C310 H322 0.956 . S
C310 H323 0.961 . S
C310 H324 0.961 . S
C311 C308 1.539 1_565 S
C311 H325 0.958 . S
C311 H326 0.961 . S
C311 H327 0.960 . S
H312 C296 0.931 . S
H313 C301 0.929 1_455 S
H314 C302 0.959 . S
H315 C302 0.963 1_545 S
H316 C302 0.960 . S
H317 C303 0.961 1_455 S
H318 C303 0.961 . S
H319 C303 0.969 . S
H320 C304 0.931 . S
H321 C309 0.930 1_565 S
H322 C310 0.956 . S
H323 C310 0.961 . S
H324 C310 0.961 . S
H325 C311 0.958 . S
H326 C311 0.961 . S
H327 C311 0.960 . S
C328 C329 1.387 1_455 S
C328 C330 1.390 1_455 S
C328 H344 0.939 . S
C329 C328 1.387 1_655 S
C329 C333 1.376 . S
C330 C328 1.390 1_655 S
C330 C331 1.369 . S
C330 C334 1.531 . S
C331 C330 1.369 . S
C331 C332 1.410 . S
C331 C339 1.503 . S
C332 C331 1.410 . S
C332 C333 1.392 . S
C332 C335 1.511 . S
C333 C329 1.376 . S
C333 C332 1.392 . S
C333 H345 0.929 . S
C334 C330 1.531 . S
C334 H346 0.960 . S
C334 H347 0.962 . S
C334 H348 0.960 1_655 S
C335 C332 1.511 . S
C335 H349 0.961 . S
C335 H350 0.961 . S
C335 H351 0.961 . S
C336 C337 1.370 . S
C336 C338 1.363 . S
C336 H352 0.931 . S
C337 C336 1.370 . S
C337 C341 1.408 . S
C338 C336 1.363 . S
C338 C339 1.370 . S
C338 C342 1.524 . S
C339 C331 1.503 . S
C339 C338 1.370 . S
C339 C340 1.403 . S
C340 C339 1.403 . S
C340 C341 1.404 . S
C340 C343 1.539 . S
C341 C337 1.408 . S
C341 C340 1.404 . S
C341 H353 0.930 . S
C342 C338 1.524 . S
C342 H354 0.956 . S
C342 H355 0.961 . S
C342 H356 0.961 . S
C343 C340 1.539 . S
C343 H357 0.958 . S
C343 H358 0.961 . S
C343 H359 0.960 . S
H344 C328 0.939 . S
H345 C333 0.929 . S
H346 C334 0.960 . S
H347 C334 0.962 . S
H348 C334 0.960 1_455 S
H349 C335 0.961 . S
H350 C335 0.961 . S
H351 C335 0.961 . S
H352 C336 0.931 . S
H353 C341 0.930 . S
H354 C342 0.956 . S
H355 C342 0.961 . S
H356 C342 0.961 . S
H357 C343 0.958 . S
H358 C343 0.961 . S
H359 C343 0.960 . S
C360 C361 1.391 . S
C360 C362 1.394 . S
C360 H376 0.931 1_565 S
C361 C360 1.391 . S
C361 C365 1.376 . S
C362 C360 1.394 . S
C362 C363 1.369 . S
C362 C366 1.531 . S
C363 C362 1.369 . S
C363 C364 1.410 . S
C363 C371 1.503 . S
C364 C363 1.410 . S
C364 C365 1.392 . S
C364 C367 1.511 1_455 S
C365 C361 1.376 . S
C365 C364 1.392 . S
C365 H377 0.929 . S
C366 C362 1.531 . S
C366 H378 0.960 . S
C366 H379 0.962 . S
C366 H380 0.960 . S
C367 C364 1.511 1_655 S
C367 H381 0.961 . S
C367 H382 0.961 . S
C367 H383 0.961 . S
C368 C369 1.370 . S
C368 C370 1.363 . S
C368 H384 0.931 . S
C369 C368 1.370 . S
C369 C373 1.408 . S
C370 C368 1.363 . S
C370 C371 1.370 . S
C370 C374 1.524 . S
C371 C363 1.503 . S
C371 C370 1.370 . S
C371 C372 1.403 . S
C372 C371 1.403 . S
C372 C373 1.404 . S
C372 C375 1.539 . S
C373 C369 1.408 . S
C373 C372 1.404 . S
C373 H385 0.930 . S
C374 C370 1.524 . S
C374 H386 0.956 . S
C374 H387 0.961 . S
C374 H388 0.961 . S
C375 C372 1.539 . S
C375 H389 0.958 . S
C375 H390 0.961 . S
C375 H391 0.960 . S
H376 C360 0.931 1_545 S
H377 C365 0.929 . S
H378 C366 0.960 . S
H379 C366 0.962 . S
H380 C366 0.960 . S
H381 C367 0.961 . S
H382 C367 0.961 . S
H383 C367 0.961 . S
H384 C368 0.931 . S
H385 C373 0.930 . S
H386 C374 0.956 . S
H387 C374 0.961 . S
H388 C374 0.961 . S
H389 C375 0.958 . S
H390 C375 0.961 . S
H391 C375 0.960 . S
C392 C393 1.391 . S
C392 C394 1.394 . S
C392 H408 0.931 . S
C393 C392 1.391 . S
C393 C397 1.376 . S
C394 C392 1.394 . S
C394 C395 1.369 . S
C394 C398 1.531 . S
C395 C394 1.369 . S
C395 C396 1.410 . S
C395 C403 1.503 . S
C396 C395 1.410 . S
C396 C397 1.392 . S
C396 C399 1.511 . S
C397 C393 1.376 . S
C397 C396 1.392 . S
C397 H409 0.929 . S
C398 C394 1.531 . S
C398 H410 0.960 . S
C398 H411 0.962 . S
C398 H412 0.960 . S
C399 C396 1.511 . S
C399 H413 0.961 . S
C399 H414 0.961 . S
C399 H415 0.961 . S
C400 C401 1.370 . S
C400 C402 1.363 . S
C400 H416 0.931 . S
C401 C400 1.370 . S
C401 C405 1.408 . S
C402 C400 1.363 . S
C402 C403 1.370 . S
C402 C406 1.539 . S
C403 C395 1.503 . S
C403 C402 1.370 . S
C403 C404 1.403 . S
C404 C403 1.403 . S
C404 C405 1.404 . S
C404 C407 1.539 . S
C405 C401 1.408 . S
C405 C404 1.404 . S
C405 H417 0.930 . S
C406 C402 1.539 . S
C406 H418 0.956 . S
C406 H419 0.968 1_545 S
C406 H420 0.939 1_545 S
C407 C404 1.539 . S
C407 H421 0.958 . S
C407 H422 0.961 . S
C407 H423 0.960 . S
H408 C392 0.931 . S
H409 C397 0.929 . S
H410 C398 0.960 . S
H411 C398 0.962 . S
H412 C398 0.960 . S
H413 C399 0.961 . S
H414 C399 0.961 . S
H415 C399 0.961 . S
H416 C400 0.931 . S
H417 C405 0.930 . S
H418 C406 0.956 . S
H419 C406 0.968 1_565 S
H420 C406 0.939 1_565 S
H421 C407 0.958 . S
H422 C407 0.961 . S
H423 C407 0.960 . S
C424 C425 1.391 . S
C424 C426 1.394 . S
C424 H440 0.931 . S
C425 C424 1.391 . S
C425 C429 1.376 . S
C426 C424 1.394 . S
C426 C427 1.369 . S
C426 C430 1.531 . S
C427 C426 1.369 . S
C427 C428 1.410 . S
C427 C435 1.503 . S
C428 C427 1.410 . S
C428 C429 1.392 . S
C428 C431 1.511 . S
C429 C425 1.376 . S
C429 C428 1.392 . S
C429 H441 0.929 . S
C430 C426 1.531 . S
C430 H442 0.960 . S
C430 H443 0.962 . S
C430 H444 0.960 . S
C431 C428 1.511 . S
C431 H445 0.961 . S
C431 H446 0.961 . S
C431 H447 0.961 . S
C432 C433 1.370 . S
C432 C434 1.363 . S
C432 H448 0.931 . S
C433 C432 1.370 . S
C433 C437 1.408 . S
C434 C432 1.363 . S
C434 C435 1.370 . S
C434 C438 1.524 . S
C435 C427 1.503 . S
C435 C434 1.370 . S
C435 C436 1.403 . S
C436 C435 1.403 . S
C436 C437 1.404 . S
C436 C439 1.539 . S
C437 C433 1.408 . S
C437 C436 1.404 . S
C437 H449 0.930 . S
C438 C434 1.524 . S
C438 H450 0.956 . S
C438 H451 0.961 . S
C438 H452 0.961 . S
C439 C436 1.539 . S
C439 H453 0.958 . S
C439 H454 0.961 . S
C439 H455 0.960 . S
H440 C424 0.931 . S
H441 C429 0.929 . S
H442 C430 0.960 . S
H443 C430 0.962 . S
H444 C430 0.960 . S
H445 C431 0.961 . S
H446 C431 0.961 . S
H447 C431 0.961 . S
H448 C432 0.931 . S
H449 C437 0.930 . S
H450 C438 0.956 . S
H451 C438 0.961 . S
H452 C438 0.961 . S
H453 C439 0.958 . S
H454 C439 0.961 . S
H455 C439 0.960 . S
C456 C457 1.391 . S
C456 C458 1.394 . S
C456 H472 0.931 1_655 S
C457 C456 1.391 . S
C457 C461 1.376 . S
C458 C456 1.394 . S
C458 C459 1.369 . S
C458 C462 1.531 . S
C459 C458 1.369 . S
C459 C460 1.410 . S
C459 C467 1.503 . S
C460 C459 1.410 . S
C460 C461 1.392 . S
C460 C463 1.511 . S
C461 C457 1.376 . S
C461 C460 1.392 . S
C461 H473 0.929 . S
C462 C458 1.531 . S
C462 H474 0.960 . S
C462 H475 0.962 . S
C462 H476 0.960 1_655 S
C463 C460 1.511 . S
C463 H477 0.961 1_545 S
C463 H478 0.961 . S
C463 H479 0.961 . S
C464 C465 1.370 . S
C464 C466 1.363 . S
C464 H480 0.931 . S
C465 C464 1.370 . S
C465 C469 1.408 . S
C466 C464 1.363 . S
C466 C467 1.370 . S
C466 C470 1.524 . S
C467 C459 1.503 . S
C467 C466 1.370 . S
C467 C468 1.403 . S
C468 C467 1.403 . S
C468 C469 1.404 . S
C468 C471 1.539 . S
C469 C465 1.408 . S
C469 C468 1.404 . S
C469 H481 0.930 . S
C470 C466 1.524 . S
C470 H482 0.956 . S
C470 H483 0.961 . S
C470 H484 0.961 . S
C471 C468 1.539 . S
C471 H485 0.958 . S
C471 H486 0.961 . S
C471 H487 0.960 . S
H472 C456 0.931 1_455 S
H473 C461 0.929 . S
H474 C462 0.960 . S
H475 C462 0.962 . S
H476 C462 0.960 1_455 S
H477 C463 0.961 1_565 S
H478 C463 0.961 . S
H479 C463 0.961 . S
H480 C464 0.931 . S
H481 C469 0.930 . S
H482 C470 0.956 . S
H483 C470 0.961 . S
H484 C470 0.961 . S
H485 C471 0.958 . S
H486 C471 0.961 . S
H487 C471 0.960 . S
C488 C489 1.391 . S
C488 C490 1.394 . S
C488 H504 0.931 1_565 S
C489 C488 1.391 . S
C489 C493 1.376 . S
C490 C488 1.394 . S
C490 C491 1.369 . S
C490 C494 1.531 . S
C491 C490 1.369 . S
C491 C492 1.410 . S
C491 C499 1.503 . S
C492 C491 1.410 . S
C492 C493 1.392 . S
C492 C495 1.511 . S
C493 C489 1.376 . S
C493 C492 1.392 . S
C493 H505 0.929 1_655 S
C494 C490 1.531 . S
C494 H506 0.960 . S
C494 H507 0.962 . S
C494 H508 0.960 1_565 S
C495 C492 1.511 . S
C495 H509 0.961 . S
C495 H510 0.961 . S
C495 H511 0.948 1_654 S
C496 C497 1.370 . S
C496 C498 1.363 1_556 S
C496 H512 0.931 . S
C497 C496 1.370 . S
C497 C501 1.408 . S
C498 C496 1.363 1_554 S
C498 C499 1.370 . S
C498 C502 1.524 . S
C499 C491 1.503 . S
C499 C498 1.370 . S
C499 C500 1.403 1_554 S
C500 C499 1.403 1_556 S
C500 C501 1.404 . S
C500 C503 1.539 . S
C501 C497 1.408 . S
C501 C500 1.404 . S
C501 H513 0.930 . S
C502 C498 1.524 . S
C502 H514 0.956 . S
C502 H515 0.961 . S
C502 H516 0.961 . S
C503 C500 1.539 . S
C503 H517 0.958 1_565 S
C503 H518 0.963 1_565 S
C503 H519 0.960 1_565 S
H504 C488 0.931 1_545 S
H505 C493 0.929 1_455 S
H506 C494 0.960 . S
H507 C494 0.962 . S
H508 C494 0.960 1_545 S
H509 C495 0.961 . S
H510 C495 0.961 . S
H511 C495 0.948 1_456 S
H512 C496 0.931 . S
H513 C501 0.930 . S
H514 C502 0.956 . S
H515 C502 0.961 . S
H516 C502 0.961 . S
H517 C503 0.958 1_545 S
H518 C503 0.963 1_545 S
H519 C503 0.960 1_545 S
C520 C521 1.391 . S
C520 C522 1.394 . S
C520 H536 0.931 1_455 S
C521 C520 1.391 . S
C521 C525 1.376 . S
C522 C520 1.394 . S
C522 C523 1.369 . S
C522 C526 1.531 1_455 S
C523 C522 1.369 . S
C523 C524 1.410 . S
C523 C531 1.503 . S
C524 C523 1.410 . S
C524 C525 1.392 . S
C524 C527 1.511 . S
C525 C521 1.376 . S
C525 C524 1.392 . S
C525 H537 0.929 . S
C526 C522 1.531 1_655 S
C526 H538 0.960 . S
C526 H539 0.962 . S
C526 H540 0.960 . S
C527 C524 1.511 . S
C527 H541 0.961 . S
C527 H542 0.961 . S
C527 H543 0.961 . S
C528 C529 1.370 . S
C528 C530 1.363 . S
C528 H544 0.931 . S
C529 C528 1.370 . S
C529 C533 1.408 . S
C530 C528 1.363 . S
C530 C531 1.370 . S
C530 C534 1.524 . S
C531 C523 1.503 . S
C531 C530 1.370 . S
C531 C532 1.403 . S
C532 C531 1.403 . S
C532 C533 1.404 . S
C532 C535 1.539 . S
C533 C529 1.408 . S
C533 C532 1.404 . S
C533 H545 0.930 . S
C534 C530 1.524 . S
C534 H546 0.956 1_455 S
C534 H547 0.961 . S
C534 H548 0.961 . S
C535 C532 1.539 . S
C535 H549 0.958 . S
C535 H550 0.961 . S
C535 H551 0.960 . S
H536 C520 0.931 1_655 S
H537 C525 0.929 . S
H538 C526 0.960 . S
H539 C526 0.962 . S
H540 C526 0.960 . S
H541 C527 0.961 . S
H542 C527 0.961 . S
H543 C527 0.961 . S
H544 C528 0.931 . S
H545 C533 0.930 . S
H546 C534 0.956 1_655 S
H547 C534 0.961 . S
H548 C534 0.961 . S
H549 C535 0.958 . S
H550 C535 0.961 . S
H551 C535 0.960 . S
C552 C553 1.391 . S
C552 C554 1.394 . S
C552 H568 0.931 . S
C553 C552 1.391 . S
C553 C557 1.376 . S
C554 C552 1.394 . S
C554 C555 1.369 . S
C554 C558 1.531 . S
C555 C554 1.369 . S
C555 C556 1.410 . S
C555 C563 1.503 . S
C556 C555 1.410 . S
C556 C557 1.392 . S
C556 C559 1.511 . S
C557 C553 1.376 . S
C557 C556 1.392 . S
C557 H569 0.929 . S
C558 C554 1.531 . S
C558 H570 0.960 . S
C558 H571 0.962 . S
C558 H572 0.960 . S
C559 C556 1.511 . S
C559 H573 0.961 . S
C559 H574 0.961 . S
C559 H575 0.961 . S
C560 C561 1.370 . S
C560 C562 1.363 . S
C560 H576 0.931 . S
C561 C560 1.370 . S
C561 C565 1.408 . S
C562 C560 1.363 . S
C562 C563 1.370 . S
C562 C566 1.524 . S
C563 C555 1.503 . S
C563 C562 1.370 . S
C563 C564 1.403 . S
C564 C563 1.403 . S
C564 C565 1.404 . S
C564 C567 1.539 1_545 S
C565 C561 1.408 . S
C565 C564 1.404 . S
C565 H577 0.930 1_545 S
C566 C562 1.524 . S
C566 H578 0.956 . S
C566 H579 0.961 . S
C566 H580 0.961 . S
C567 C564 1.539 1_565 S
C567 H581 0.958 . S
C567 H582 0.961 . S
C567 H583 0.960 . S
H568 C552 0.931 . S
H569 C557 0.929 . S
H570 C558 0.960 . S
H571 C558 0.962 . S
H572 C558 0.960 . S
H573 C559 0.961 . S
H574 C559 0.961 . S
H575 C559 0.961 . S
H576 C560 0.931 . S
H577 C565 0.930 1_565 S
H578 C566 0.956 . S
H579 C566 0.961 . S
H580 C566 0.961 . S
H581 C567 0.958 . S
H582 C567 0.961 . S
H583 C567 0.960 . S
C584 C585 1.391 . S
C584 C586 1.394 . S
C584 H600 0.931 . S
C585 C584 1.391 . S
C585 C589 1.376 . S
C586 C584 1.394 . S
C586 C587 1.369 . S
C586 C590 1.531 . S
C587 C586 1.369 . S
C587 C588 1.410 . S
C587 C595 1.503 . S
C588 C587 1.410 . S
C588 C589 1.392 . S
C588 C591 1.511 . S
C589 C585 1.376 . S
C589 C588 1.392 . S
C589 H601 0.929 . S
C590 C586 1.531 . S
C590 H602 0.960 . S
C590 H603 0.962 . S
C590 H604 0.960 . S
C591 C588 1.511 . S
C591 H605 0.961 . S
C591 H606 0.961 . S
C591 H607 0.961 . S
C592 C593 1.379 . S
C592 C594 1.363 . S
C592 H608 0.931 1_554 S
C593 C592 1.379 . S
C593 C597 1.429 . S
C594 C592 1.363 . S
C594 C595 1.370 . S
C594 C598 1.524 . S
C595 C587 1.503 . S
C595 C594 1.370 . S
C595 C596 1.403 . S
C596 C595 1.403 . S
C596 C597 1.404 . S
C596 C599 1.539 . S
C597 C593 1.429 . S
C597 C596 1.404 . S
C597 H609 0.930 . S
C598 C594 1.524 . S
C598 H610 0.956 . S
C598 H611 0.961 . S
C598 H612 0.961 . S
C599 C596 1.539 . S
C599 H613 0.958 . S
C599 H614 0.961 . S
C599 H615 0.960 . S
H600 C584 0.931 . S
H601 C589 0.929 . S
H602 C590 0.960 . S
H603 C590 0.962 . S
H604 C590 0.960 . S
H605 C591 0.961 . S
H606 C591 0.961 . S
H607 C591 0.961 . S
H608 C592 0.931 1_556 S
H609 C597 0.930 . S
H610 C598 0.956 . S
H611 C598 0.961 . S
H612 C598 0.961 . S
H613 C599 0.958 . S
H614 C599 0.961 . S
H615 C599 0.960 . S
C616 C617 1.391 . S
C616 C618 1.394 . S
C616 H632 0.931 1_455 S
C617 C616 1.391 . S
C617 C621 1.376 . S
C618 C616 1.394 . S
C618 C619 1.369 . S
C618 C622 1.531 1_455 S
C619 C618 1.369 . S
C619 C620 1.410 . S
C619 C627 1.503 . S
C620 C619 1.410 . S
C620 C621 1.392 . S
C620 C623 1.511 . S
C621 C617 1.376 . S
C621 C620 1.392 . S
C621 H633 0.929 . S
C622 C618 1.531 1_655 S
C622 H634 0.960 . S
C622 H635 0.962 . S
C622 H636 0.960 . S
C623 C620 1.511 . S
C623 H637 0.961 . S
C623 H638 0.961 . S
C623 H639 0.961 . S
C624 C625 1.370 . S
C624 C626 1.363 . S
C624 H640 0.931 . S
C625 C624 1.370 . S
C625 C629 1.408 . S
C626 C624 1.363 . S
C626 C627 1.370 . S
C626 C630 1.524 . S
C627 C619 1.503 . S
C627 C626 1.370 . S
C627 C628 1.403 . S
C628 C627 1.403 . S
C628 C629 1.404 . S
C628 C631 1.539 . S
C629 C625 1.408 . S
C629 C628 1.404 . S
C629 H641 0.930 . S
C630 C626 1.524 . S
C630 H642 0.956 . S
C630 H643 0.961 . S
C630 H644 0.961 . S
C631 C628 1.539 . S
C631 H645 0.958 1_455 S
C631 H646 0.961 . S
C631 H647 0.960 . S
H632 C616 0.931 1_655 S
H633 C621 0.929 . S
H634 C622 0.960 . S
H635 C622 0.962 . S
H636 C622 0.960 . S
H637 C623 0.961 . S
H638 C623 0.961 . S
H639 C623 0.961 . S
H640 C624 0.931 . S
H641 C629 0.930 . S
H642 C630 0.956 . S
H643 C630 0.961 . S
H644 C630 0.961 . S
H645 C631 0.958 1_655 S
H646 C631 0.961 . S
H647 C631 0.960 . S
C273 C81 1.444 . S
C265 C3 1.539 . S
C297 C21 1.432 . S
C305 C155 1.438 . S
C329 C37 2.084 1_665 S
C337 C259 2.124 . S
C361 C8 0.835 1_565 S
C369 C93 0.842 . S
C401 C167 0.827 . S
C393 C23 0.839 . S
C425 C35 1.567 . S
C433 C253 1.490 . S
C465 C185 2.125 . S
C457 C31 2.116 1_655 S
C489 C7 1.470 1_665 S
C497 C229 1.480 . S
C529 C105 1.472 . S
C521 C17 1.613 . S
C561 C179 1.391 . S
C553 C36 1.491 . S
C593 C241 0.817 1_554 S
C585 C9 0.872 . S
C617 C22 2.156 . S
C625 C111 2.156 . S
