# Generated by pormake.
# Topology eea, (3,6)-cn, num edge types: 1
# Building blocks:
#     Node 0, Type 0, BuildingBlock: BETDAH_clean_linker_0, # of connection points: 3
#     Node 1, Type 0, BuildingBlock: BETDAH_clean_linker_0, # of connection points: 3
#     Node 2, Type 0, BuildingBlock: BETDAH_clean_linker_0, # of connection points: 3
#     Node 3, Type 0, BuildingBlock: BETDAH_clean_linker_0, # of connection points: 3
#     Node 4, Type 0, BuildingBlock: BETDAH_clean_linker_0, # of connection points: 3
#     Node 5, Type 0, BuildingBlock: BETDAH_clean_linker_0, # of connection points: 3
#     Node 6, Type 0, BuildingBlock: BETDAH_clean_linker_0, # of connection points: 3
#     Node 7, Type 0, BuildingBlock: BETDAH_clean_linker_0, # of connection points: 3
#     Node 8, Type 0, BuildingBlock: BETDAH_clean_linker_0, # of connection points: 3
#     Node 9, Type 0, BuildingBlock: BETDAH_clean_linker_0, # of connection points: 3
#     Node 10, Type 0, BuildingBlock: BETDAH_clean_linker_0, # of connection points: 3
#     Node 11, Type 0, BuildingBlock: BETDAH_clean_linker_0, # of connection points: 3
#     Node 12, Type 0, BuildingBlock: BETDAH_clean_linker_0, # of connection points: 3
#     Node 13, Type 0, BuildingBlock: BETDAH_clean_linker_0, # of connection points: 3
#     Node 14, Type 0, BuildingBlock: BETDAH_clean_linker_0, # of connection points: 3
#     Node 15, Type 0, BuildingBlock: BETDAH_clean_linker_0, # of connection points: 3
#     Node 16, Type 0, BuildingBlock: BETDAH_clean_linker_0, # of connection points: 3
#     Node 17, Type 0, BuildingBlock: BETDAH_clean_linker_0, # of connection points: 3
#     Node 18, Type 1, BuildingBlock: CUKXOW_clean_sbu_0, # of connection points: 6
#     Node 19, Type 1, BuildingBlock: CUKXOW_clean_sbu_0, # of connection points: 6
#     Node 20, Type 1, BuildingBlock: CUKXOW_clean_sbu_0, # of connection points: 6
#     Node 21, Type 1, BuildingBlock: CUKXOW_clean_sbu_0, # of connection points: 6
#     Node 22, Type 1, BuildingBlock: CUKXOW_clean_sbu_0, # of connection points: 6
#     Node 23, Type 1, BuildingBlock: CUKXOW_clean_sbu_0, # of connection points: 6
#     Node 24, Type 1, BuildingBlock: CUKXOW_clean_sbu_0, # of connection points: 6
#     Node 25, Type 1, BuildingBlock: CUKXOW_clean_sbu_0, # of connection points: 6
#     Node 26, Type 1, BuildingBlock: CUKXOW_clean_sbu_0, # of connection points: 6
#     Edge 27, Type (0, 1), BuildingBlock: CIFDUS_clean_linker_0, # of connection points: 2
#     Edge 28, Type (0, 1), BuildingBlock: CIFDUS_clean_linker_0, # of connection points: 2
#     Edge 29, Type (0, 1), BuildingBlock: CIFDUS_clean_linker_0, # of connection points: 2
#     Edge 30, Type (0, 1), BuildingBlock: CIFDUS_clean_linker_0, # of connection points: 2
#     Edge 31, Type (0, 1), BuildingBlock: CIFDUS_clean_linker_0, # of connection points: 2
#     Edge 32, Type (0, 1), BuildingBlock: CIFDUS_clean_linker_0, # of connection points: 2
#     Edge 33, Type (0, 1), BuildingBlock: CIFDUS_clean_linker_0, # of connection points: 2
#     Edge 34, Type (0, 1), BuildingBlock: CIFDUS_clean_linker_0, # of connection points: 2
#     Edge 35, Type (0, 1), BuildingBlock: CIFDUS_clean_linker_0, # of connection points: 2
#     Edge 36, Type (0, 1), BuildingBlock: CIFDUS_clean_linker_0, # of connection points: 2
#     Edge 37, Type (0, 1), BuildingBlock: CIFDUS_clean_linker_0, # of connection points: 2
#     Edge 38, Type (0, 1), BuildingBlock: CIFDUS_clean_linker_0, # of connection points: 2
#     Edge 39, Type (0, 1), BuildingBlock: CIFDUS_clean_linker_0, # of connection points: 2
#     Edge 40, Type (0, 1), BuildingBlock: CIFDUS_clean_linker_0, # of connection points: 2
#     Edge 41, Type (0, 1), BuildingBlock: CIFDUS_clean_linker_0, # of connection points: 2
#     Edge 42, Type (0, 1), BuildingBlock: CIFDUS_clean_linker_0, # of connection points: 2
#     Edge 43, Type (0, 1), BuildingBlock: CIFDUS_clean_linker_0, # of connection points: 2
#     Edge 44, Type (0, 1), BuildingBlock: CIFDUS_clean_linker_0, # of connection points: 2
#     Edge 45, Type (0, 1), BuildingBlock: CIFDUS_clean_linker_0, # of connection points: 2
#     Edge 46, Type (0, 1), BuildingBlock: CIFDUS_clean_linker_0, # of connection points: 2
#     Edge 47, Type (0, 1), BuildingBlock: CIFDUS_clean_linker_0, # of connection points: 2
#     Edge 48, Type (0, 1), BuildingBlock: CIFDUS_clean_linker_0, # of connection points: 2
#     Edge 49, Type (0, 1), BuildingBlock: CIFDUS_clean_linker_0, # of connection points: 2
#     Edge 50, Type (0, 1), BuildingBlock: CIFDUS_clean_linker_0, # of connection points: 2
#     Edge 51, Type (0, 1), BuildingBlock: CIFDUS_clean_linker_0, # of connection points: 2
#     Edge 52, Type (0, 1), BuildingBlock: CIFDUS_clean_linker_0, # of connection points: 2
#     Edge 53, Type (0, 1), BuildingBlock: CIFDUS_clean_linker_0, # of connection points: 2
#     Edge 54, Type (0, 1), BuildingBlock: CIFDUS_clean_linker_0, # of connection points: 2
#     Edge 55, Type (0, 1), BuildingBlock: CIFDUS_clean_linker_0, # of connection points: 2
#     Edge 56, Type (0, 1), BuildingBlock: CIFDUS_clean_linker_0, # of connection points: 2
#     Edge 57, Type (0, 1), BuildingBlock: CIFDUS_clean_linker_0, # of connection points: 2
#     Edge 58, Type (0, 1), BuildingBlock: CIFDUS_clean_linker_0, # of connection points: 2
#     Edge 59, Type (0, 1), BuildingBlock: CIFDUS_clean_linker_0, # of connection points: 2
#     Edge 60, Type (0, 1), BuildingBlock: CIFDUS_clean_linker_0, # of connection points: 2
#     Edge 61, Type (0, 1), BuildingBlock: CIFDUS_clean_linker_0, # of connection points: 2
#     Edge 62, Type (0, 1), BuildingBlock: CIFDUS_clean_linker_0, # of connection points: 2
#     Edge 63, Type (0, 1), BuildingBlock: CIFDUS_clean_linker_0, # of connection points: 2
#     Edge 64, Type (0, 1), BuildingBlock: CIFDUS_clean_linker_0, # of connection points: 2
#     Edge 65, Type (0, 1), BuildingBlock: CIFDUS_clean_linker_0, # of connection points: 2
#     Edge 66, Type (0, 1), BuildingBlock: CIFDUS_clean_linker_0, # of connection points: 2
#     Edge 67, Type (0, 1), BuildingBlock: CIFDUS_clean_linker_0, # of connection points: 2
#     Edge 68, Type (0, 1), BuildingBlock: CIFDUS_clean_linker_0, # of connection points: 2
#     Edge 69, Type (0, 1), BuildingBlock: CIFDUS_clean_linker_0, # of connection points: 2
#     Edge 70, Type (0, 1), BuildingBlock: CIFDUS_clean_linker_0, # of connection points: 2
#     Edge 71, Type (0, 1), BuildingBlock: CIFDUS_clean_linker_0, # of connection points: 2
#     Edge 72, Type (0, 1), BuildingBlock: CIFDUS_clean_linker_0, # of connection points: 2
#     Edge 73, Type (0, 1), BuildingBlock: CIFDUS_clean_linker_0, # of connection points: 2
#     Edge 74, Type (0, 1), BuildingBlock: CIFDUS_clean_linker_0, # of connection points: 2
#     Edge 75, Type (0, 1), BuildingBlock: CIFDUS_clean_linker_0, # of connection points: 2
#     Edge 76, Type (0, 1), BuildingBlock: CIFDUS_clean_linker_0, # of connection points: 2
#     Edge 77, Type (0, 1), BuildingBlock: CIFDUS_clean_linker_0, # of connection points: 2
#     Edge 78, Type (0, 1), BuildingBlock: CIFDUS_clean_linker_0, # of connection points: 2
#     Edge 79, Type (0, 1), BuildingBlock: CIFDUS_clean_linker_0, # of connection points: 2
#     Edge 80, Type (0, 1), BuildingBlock: CIFDUS_clean_linker_0, # of connection points: 2
# Relax obj value: 0.033
# Max RMSD: 0.158
# Mean RMSD: 0.089
data_MOF--net-eea--node1-CUKXOW_clean_sbu_0--node2-BETDAH_clean_linker_0--edge1-CIFDUS_clean_linker_0
_symmetry_space_group_name_H-M    P1
_symmetry_Int_Tables_number       1
_symmetry_cell_setting            triclinic
loop_
_symmetry_equiv_pos_as_xyz
'x, y, z'
_cell_length_a     52.942417
_cell_length_b     49.506236
_cell_length_c     43.259986
_cell_angle_alpha  93.34858
_cell_angle_beta   93.388609
_cell_angle_gamma 120.05407
loop_
_atom_site_label
_atom_site_type_symbol
_atom_site_fract_x
_atom_site_fract_y
_atom_site_fract_z
_atom_type_partial_charge
H0 H 0.25337 0.07439 0.45632 0.0
H1 H 0.26185 0.16527 0.44787 0.0
H2 H 0.22498 0.09407 0.37043 0.0
C3 C 0.25 0.09053 0.44333 0.0
C4 C 0.23688 0.08031 0.41261 0.0
C5 C 0.25886 0.12102 0.45703 0.0
C6 C 0.25517 0.14169 0.4384 0.0
C7 C 0.24345 0.132 0.40695 0.0
C8 C 0.23408 0.10135 0.39458 0.0
N9 N 0.24226 0.15256 0.38613 0.0
C10 C 0.24112 0.17957 0.3938 0.0
H11 H 0.93322 0.19305 0.46603 0.0
H12 H 0.84599 0.11724 0.43546 0.0
H13 H 0.90852 0.15785 0.36896 0.0
C14 C 0.91715 0.17703 0.44734 0.0
C15 C 0.92484 0.17819 0.41665 0.0
C16 C 0.88866 0.15553 0.45419 0.0
C17 C 0.86791 0.13401 0.43025 0.0
C18 C 0.8754 0.13455 0.39957 0.0
C19 C 0.90347 0.15705 0.39291 0.0
N20 N 0.8551 0.11349 0.37461 0.0
C21 C 0.8321 0.08352 0.37775 0.0
H22 H 0.83423 0.73609 0.47605 0.0
H23 H 0.92679 0.7682 0.49009 0.0
H24 H 0.89452 0.80717 0.42312 0.0
C25 C 0.8565 0.751 0.47056 0.0
C26 C 0.86144 0.77201 0.44813 0.0
C27 C 0.87981 0.75012 0.48708 0.0
C28 C 0.90829 0.7679 0.47761 0.0
C29 C 0.91331 0.78763 0.45363 0.0
C30 C 0.89001 0.79012 0.43972 0.0
N31 N 0.94215 0.8093 0.44689 0.0
C32 C 0.96253 0.80144 0.43737 0.0
H33 H 0.07704 0.26188 0.55116 0.0
H34 H 0.16759 0.28799 0.57104 0.0
H35 H 0.10916 0.25301 0.64181 0.0
C36 C 0.09464 0.26416 0.56726 0.0
C37 C 0.08909 0.25513 0.59757 0.0
C38 C 0.12302 0.27659 0.55768 0.0
C39 C 0.14571 0.2787 0.5782 0.0
C40 C 0.14039 0.2696 0.60829 0.0
C41 C 0.11248 0.25871 0.61803 0.0
N42 N 0.16328 0.27329 0.62996 0.0
C43 C 0.17995 0.25929 0.6246 0.0
H44 H 0.78036 0.82632 0.5584 0.0
H45 H 0.75821 0.89656 0.58495 0.0
H46 H 0.79305 0.86229 0.65458 0.0
C47 C 0.77971 0.84228 0.57617 0.0
C48 C 0.78837 0.84211 0.60746 0.0
C49 C 0.76837 0.86151 0.56796 0.0
C50 C 0.76702 0.88179 0.59115 0.0
C51 C 0.77625 0.88222 0.62242 0.0
C52 C 0.78634 0.86205 0.63035 0.0
N53 N 0.77452 0.90155 0.64674 0.0
C54 C 0.77683 0.93041 0.64325 0.0
H55 H 0.17646 0.92514 0.54554 0.0
H56 H 0.11528 0.83012 0.56229 0.0
H57 H 0.15079 0.90376 0.63762 0.0
C58 C 0.16329 0.90841 0.56124 0.0
C59 C 0.16545 0.9185 0.59281 0.0
C60 C 0.14567 0.87652 0.55017 0.0
C61 C 0.12886 0.85478 0.57059 0.0
C62 C 0.13039 0.86481 0.60205 0.0
C63 C 0.14922 0.89638 0.61314 0.0
N64 N 0.11487 0.84316 0.62343 0.0
C65 C 0.0845 0.82422 0.62012 0.0
H66 H 0.89557 0.39306 0.79339 0.0
H67 H 0.92032 0.48943 0.7841 0.0
H68 H 0.89015 0.42219 0.70328 0.0
C69 C 0.89761 0.41136 0.77936 0.0
C70 C 0.8905 0.40389 0.74716 0.0
C71 C 0.90867 0.44214 0.79327 0.0
C72 C 0.91196 0.46559 0.77403 0.0
C73 C 0.90532 0.4583 0.74148 0.0
C74 C 0.89513 0.42765 0.7283 0.0
N75 N 0.90992 0.48134 0.72097 0.0
C76 C 0.9071 0.50743 0.72778 0.0
H77 H 0.60731 0.50385 0.81981 0.0
H78 H 0.52301 0.42252 0.7867 0.0
H79 H 0.59363 0.45448 0.72959 0.0
C80 C 0.59296 0.48505 0.80206 0.0
C81 C 0.60417 0.48159 0.77427 0.0
C82 C 0.56355 0.46365 0.80719 0.0
C83 C 0.54578 0.43873 0.78391 0.0
C84 C 0.5569 0.43541 0.7562 0.0
C85 C 0.58564 0.45704 0.75145 0.0
N86 N 0.53973 0.41119 0.73197 0.0
C87 C 0.51535 0.38249 0.73581 0.0
H88 H 0.50961 0.08597 0.80847 0.0
H89 H 0.5618 0.04336 0.79225 0.0
H90 H 0.53345 0.07692 0.71629 0.0
C91 C 0.52086 0.07893 0.79262 0.0
C92 C 0.51939 0.08344 0.76083 0.0
C93 C 0.5358 0.06422 0.80405 0.0
C94 C 0.55052 0.05509 0.78378 0.0
C95 C 0.55047 0.06076 0.75245 0.0
C96 C 0.53467 0.07447 0.74096 0.0
N97 N 0.56364 0.04954 0.73176 0.0
C98 C 0.59263 0.06797 0.72569 0.0
H99 H 0.75744 0.60279 0.88766 0.0
H100 H 0.84359 0.62947 0.93022 0.0
H101 H 0.77198 0.59979 0.98606 0.0
C102 C 0.77206 0.60636 0.90806 0.0
C103 C 0.76076 0.59943 0.93706 0.0
C104 C 0.80205 0.61749 0.90521 0.0
C105 C 0.82042 0.6205 0.93172 0.0
C106 C 0.80934 0.61375 0.96073 0.0
C107 C 0.7799 0.60395 0.96329 0.0
N108 N 0.82744 0.61771 0.9881 0.0
C109 C 0.8514 0.61337 0.98834 0.0
H110 H 0.43639 0.15501 0.88265 0.0
H111 H 0.44239 0.24377 0.90959 0.0
H112 H 0.475 0.2031 0.97373 0.0
C113 C 0.44252 0.17481 0.8996 0.0
C114 C 0.45567 0.17588 0.92926 0.0
C115 C 0.43717 0.19908 0.89204 0.0
C116 C 0.44658 0.22509 0.91444 0.0
C117 C 0.46053 0.22659 0.94368 0.0
C118 C 0.46432 0.20174 0.95103 0.0
N119 N 0.47091 0.2525 0.9666 0.0
C120 C 0.47467 0.2816 0.9612 0.0
H121 H 0.86163 0.27312 0.89721 0.0
H122 H 0.79804 0.17525 0.89914 0.0
H123 H 0.82736 0.23784 0.9832 0.0
C124 C 0.84676 0.25398 0.90976 0.0
C125 C 0.84636 0.25923 0.942 0.0
C126 C 0.82959 0.22365 0.89412 0.0
C127 C 0.81109 0.19881 0.91081 0.0
C128 C 0.80952 0.20411 0.94264 0.0
C129 C 0.82754 0.23417 0.95828 0.0
N130 N 0.79249 0.17842 0.95954 0.0
C131 C 0.76458 0.17071 0.96687 0.0
H132 H 0.60298 0.75297 0.13045 0.0
H133 H 0.58762 0.82969 0.11938 0.0
H134 H 0.56519 0.75961 0.0426 0.0
C135 C 0.59533 0.76514 0.11599 0.0
C136 C 0.58384 0.75295 0.08508 0.0
C137 C 0.59703 0.79295 0.1284 0.0
C138 C 0.58649 0.80836 0.10979 0.0
C139 C 0.57517 0.79631 0.07858 0.0
C140 C 0.57427 0.76896 0.0665 0.0
N141 N 0.56448 0.81066 0.05825 0.0
C142 C 0.56085 0.83602 0.06618 0.0
H143 H 0.26906 0.85421 0.12991 0.0
H144 H 0.18405 0.77656 0.09297 0.0
H145 H 0.25682 0.80702 0.03876 0.0
C146 C 0.25494 0.83606 0.11151 0.0
C147 C 0.2669 0.8324 0.08438 0.0
C148 C 0.22479 0.81622 0.11479 0.0
C149 C 0.20702 0.79245 0.09064 0.0
C150 C 0.2187 0.78935 0.06328 0.0
C151 C 0.24826 0.80954 0.06022 0.0
N152 N 0.2014 0.76655 0.038 0.0
C153 C 0.17574 0.73863 0.04071 0.0
H154 H 0.16776 0.41272 0.1434 0.0
H155 H 0.24079 0.40271 0.12059 0.0
H156 H 0.19259 0.42102 0.04977 0.0
C157 C 0.18189 0.4127 0.12628 0.0
C158 C 0.17738 0.41822 0.09548 0.0
C159 C 0.20436 0.40668 0.13529 0.0
C160 C 0.22354 0.40754 0.11373 0.0
C161 C 0.21944 0.41334 0.08291 0.0
C162 C 0.19608 0.41786 0.07391 0.0
N163 N 0.23718 0.413 0.05976 0.0
C164 C 0.26695 0.42344 0.06498 0.0
H165 H 0.42197 0.94116 0.22741 0.0
H166 H 0.51411 0.97428 0.24835 0.0
H167 H 0.45536 0.93438 0.31818 0.0
C168 C 0.44009 0.94485 0.2436 0.0
C169 C 0.43488 0.93541 0.27382 0.0
C170 C 0.46868 0.95923 0.23427 0.0
C171 C 0.49202 0.96345 0.25522 0.0
C172 C 0.48702 0.95415 0.28529 0.0
C173 C 0.45871 0.94068 0.29457 0.0
N174 N 0.51052 0.95997 0.30722 0.0
C175 C 0.52807 0.94687 0.30277 0.0
H176 H 0.0989 0.48684 0.22434 0.0
H177 H 0.07805 0.55899 0.24684 0.0
H178 H 0.11777 0.531 0.31802 0.0
C179 C 0.09897 0.50402 0.24113 0.0
C180 C 0.11006 0.50684 0.27223 0.0
C181 C 0.0868 0.52225 0.23185 0.0
C182 C 0.08705 0.54459 0.25381 0.0
C183 C 0.09855 0.54795 0.28488 0.0
C184 C 0.10923 0.5285 0.29398 0.0
N185 N 0.09882 0.56975 0.30795 0.0
C186 C 0.10236 0.59887 0.30263 0.0
H187 H 0.52915 0.61689 0.23743 0.0
H188 H 0.469 0.51763 0.23695 0.0
H189 H 0.47965 0.5811 0.31526 0.0
C190 C 0.51277 0.59709 0.24811 0.0
C191 C 0.50603 0.60248 0.27786 0.0
C192 C 0.49964 0.5666 0.23276 0.0
C193 C 0.47851 0.54153 0.24745 0.0
C194 C 0.47045 0.54674 0.27658 0.0
C195 C 0.48434 0.57731 0.29187 0.0
N196 N 0.45243 0.52044 0.29237 0.0
C197 C 0.42475 0.51292 0.30039 0.0
Tb198 Tb 0.54476 0.04259 0.02107 0.0
C199 C 0.53008 0.97291 0.03122 0.0
Tb200 Tb 0.4801 0.98997 0.0238 0.0
O201 O 0.54724 0.06136 0.06956 0.0
O202 O 0.51867 0.01466 0.05434 0.0
O203 O 0.54873 1.0005 0.0217 0.0
C204 C 0.42752 0.95665 0.04473 0.0
O205 O 0.50331 0.96569 0.03798 0.0
C206 C 0.49912 0.99664 0.96828 0.0
C207 C 0.49487 0.05947 0.01099 0.0
O208 O 0.43832 0.94603 0.02431 0.0
O209 O 0.44616 0.98609 0.05305 0.0
O210 O 0.477 0.97075 0.97542 0.0
O211 O 0.50608 0.01728 0.99046 0.0
O212 O 0.47582 0.032 0.02063 0.0
O213 O 0.52222 0.06718 0.00633 0.0
C214 C 0.59754 0.07487 1.00015 0.0
O215 O 0.58983 0.08304 0.02544 0.0
O216 O 0.57558 0.04872 0.98692 0.0
C217 C 0.52547 0.03512 0.07662 0.0
Tb218 Tb 0.98434 0.51225 0.01398 0.0
C219 C 0.05296 0.5585 0.01967 0.0
Tb220 Tb 0.0245 0.48402 0.01264 0.0
O221 O 0.97171 0.4958 0.05993 0.0
O222 O 0.0121 0.50623 0.0465 0.0
O223 O 0.02653 0.55542 0.01514 0.0
C224 C 0.06446 0.46772 0.02655 0.0
O225 O 0.05705 0.53413 0.02091 0.0
C226 C 1.00005 0.48453 0.9584 0.0
C227 C 0.95642 0.43884 1.00529 0.0
O228 O 0.06456 0.4837 1.00371 0.0
O229 O 0.04156 0.46051 0.04134 0.0
O230 O 1.00701 0.46357 0.96444 0.0
O231 O 0.00904 0.50502 0.98126 0.0
O232 O 0.98187 0.44254 0.01701 0.0
O233 O 0.9534 0.46302 0.99894 0.0
C234 C 0.95277 0.53867 0.99856 0.0
O235 O 0.9539 0.51696 0.98144 0.0
O236 O 0.96943 0.54555 0.0245 0.0
C237 C 0.99552 0.49514 0.06757 0.0
Tb238 Tb 0.48395 0.50454 0.01109 0.0
C239 C 0.49844 0.45179 0.99719 0.0
Tb240 Tb 0.54912 0.52397 0.00935 0.0
O241 O 0.47654 0.48946 0.96084 0.0
O242 O 0.51685 0.52601 0.9805 0.0
O243 O 0.47957 0.4587 0.00894 0.0
C244 C 0.6006 0.53533 0.9911 0.0
O245 O 0.52539 0.47372 0.99208 0.0
C246 C 0.5319 0.51991 0.0653 0.0
C247 C 0.53416 0.57535 0.03056 0.0
O248 O 0.58794 0.519 0.0137 0.0
O249 O 0.58434 0.54548 0.97883 0.0
O250 O 0.559 0.53724 0.05951 0.0
O251 O 0.51674 0.50332 0.04059 0.0
O252 O 0.55372 0.57029 0.01743 0.0
O253 O 0.50696 0.55264 0.03325 0.0
C254 C 0.43067 0.49246 0.02408 0.0
O255 O 0.446 0.51107 1.00402 0.0
O256 O 0.44532 0.48068 0.03669 0.0
C257 C 0.50332 0.50896 0.9557 0.0
Tb258 Tb 0.20461 0.36962 0.35012 0.0
C259 C 0.18589 0.29786 0.35706 0.0
Tb260 Tb 0.13908 0.31902 0.34636 0.0
O261 O 0.20491 0.38561 0.39876 0.0
O262 O 0.17543 0.33991 0.38045 0.0
O263 O 0.20701 0.32618 0.35118 0.0
C264 C 0.0835 0.28114 0.35769 0.0
O265 O 0.15873 0.2916 0.36035 0.0
C266 C 0.16265 0.32963 0.29309 0.0
C267 C 0.1568 0.39013 0.34168 0.0
O268 O 0.09639 0.27616 0.3353 0.0
O269 O 0.10182 0.30779 0.37357 0.0
O270 O 0.13995 0.30325 0.29796 0.0
O271 O 0.16828 0.34897 0.31616 0.0
O272 O 0.1365 0.36198 0.34854 0.0
O273 O 0.18401 0.39699 0.33717 0.0
C274 C 0.25877 0.40323 0.33266 0.0
O275 O 0.24936 0.4107 0.35697 0.0
O276 O 0.23782 0.37679 0.31863 0.0
C277 C 0.18183 0.35939 0.40369 0.0
Tb278 Tb 0.6581 0.844 0.35009 0.0
C279 C 0.72538 0.89841 0.35544 0.0
Tb280 Tb 0.70548 0.82657 0.3488 0.0
O281 O 0.65069 0.83094 0.39763 0.0
O282 O 0.69182 0.84781 0.38239 0.0
O283 O 0.69745 0.89054 0.34922 0.0
C284 C 0.74319 0.80722 0.36466 0.0
O285 O 0.73319 0.87714 0.35992 0.0
C286 C 0.68776 0.83592 0.29443 0.0
C287 C 0.63806 0.77226 0.34163 0.0
O288 O 0.74027 0.8166 0.33799 0.0
O289 O 0.72454 0.80825 0.38212 0.0
O290 O 0.71383 0.84038 0.30175 0.0
O291 O 0.67223 0.82347 0.31611 0.0
O292 O 0.66587 0.78025 0.34921 0.0
O293 O 0.63047 0.79362 0.33658 0.0
C294 C 0.62046 0.86443 0.33937 0.0
O295 O 0.62156 0.84969 0.36271 0.0
O296 O 0.6407 0.8678 0.32178 0.0
C297 C 0.67694 0.83595 0.40457 0.0
Tb298 Tb 0.15247 0.8367 0.33502 0.0
C299 C 0.16856 0.78362 0.32417 0.0
Tb300 Tb 0.21884 0.85388 0.33913 0.0
O301 O 0.14535 0.82209 0.28434 0.0
O302 O 0.18691 0.85232 0.30645 0.0
O303 O 0.14962 0.79091 0.33556 0.0
C304 C 0.27404 0.88015 0.32359 0.0
O305 O 0.19541 0.80528 0.31874 0.0
C306 C 0.1925 0.83763 0.39054 0.0
C307 C 0.20426 0.90824 0.35393 0.0
O308 O 0.26159 0.85615 0.33961 0.0
O309 O 0.25552 0.88926 0.31677 0.0
O310 O 0.21609 0.83659 0.38564 0.0
O311 O 0.18801 0.85089 0.36893 0.0
O312 O 0.22451 0.89978 0.35304 0.0
O313 O 0.17547 0.888 0.34747 0.0
C314 C 0.10068 0.82549 0.35249 0.0
O315 O 0.1136 0.84174 0.32979 0.0
O316 O 0.11682 0.81524 0.36502 0.0
C317 C 0.17331 0.83617 0.2812 0.0
Tb318 Tb 0.87008 0.69488 0.68662 0.0
C319 C 0.85108 0.62691 0.70257 0.0
Tb320 Tb 0.80427 0.64943 0.69415 0.0
O321 O 0.88101 0.69359 0.73639 0.0
O322 O 0.84068 0.68768 0.72028 0.0
O323 O 0.87083 0.65153 0.68957 0.0
C324 C 0.75426 0.61335 0.71894 0.0
O325 O 0.82556 0.62358 0.70939 0.0
C326 C 0.81697 0.65733 0.63619 0.0
C327 C 0.82341 0.71751 0.67819 0.0
O328 O 0.76512 0.60365 0.69773 0.0
O329 O 0.77131 0.64333 0.72576 0.0
O330 O 0.79087 0.64741 0.64495 0.0
O331 O 0.83312 0.65782 0.65918 0.0
O332 O 0.80388 0.69285 0.69126 0.0
O333 O 0.84914 0.72128 0.6714 0.0
C334 C 0.92243 0.73474 0.66851 0.0
O335 O 0.91099 0.74009 0.69216 0.0
O336 O 0.90429 0.70681 0.65487 0.0
C337 C 0.85529 0.6871 0.74381 0.0
Tb338 Tb 0.31203 0.16129 0.6774 0.0
C339 C 0.3782 0.21224 0.68937 0.0
Tb340 Tb 0.357 0.1391 0.68397 0.0
O341 O 0.32502 0.18127 0.72656 0.0
O342 O 0.32662 0.1417 0.71129 0.0
O343 O 0.35207 0.20576 0.67676 0.0
C344 C 0.3961 0.12484 0.70802 0.0
O345 O 0.38399 0.19008 0.69704 0.0
C346 C 0.33731 0.13814 0.62653 0.0
C347 C 0.29043 0.08833 0.66911 0.0
O348 O 0.3981 0.13819 0.68253 0.0
O349 O 0.37222 0.1196 0.71964 0.0
O350 O 0.3468 0.11977 0.63513 0.0
O351 O 0.34186 0.15773 0.64926 0.0
O352 O 0.31637 0.09423 0.68189 0.0
O353 O 0.28502 0.11092 0.66221 0.0
C354 C 0.27048 0.17514 0.66166 0.0
O355 O 0.27119 0.16041 0.68526 0.0
O356 O 0.29311 0.18184 0.64661 0.0
C357 C 0.33252 0.16115 0.73436 0.0
Tb358 Tb 0.81213 0.16291 0.67254 0.0
C359 C 0.83331 0.11292 0.66528 0.0
Tb360 Tb 0.87737 0.18581 0.6687 0.0
O361 O 0.80649 0.17116 0.62387 0.0
O362 O 0.83836 0.16075 0.63858 0.0
O363 O 0.81253 0.11866 0.67379 0.0
C364 C 0.93029 0.20929 0.64784 0.0
O365 O 0.85896 0.13549 0.65791 0.0
C366 C 0.86046 0.17974 0.7253 0.0
C367 C 0.85624 0.23579 0.67545 0.0
O368 O 0.92164 0.1923 0.67099 0.0
O369 O 0.90929 0.2134 0.63674 0.0
O370 O 0.883 0.178 0.71761 0.0
O371 O 0.85129 0.18834 0.7027 0.0
O372 O 0.87682 0.22985 0.66673 0.0
O373 O 0.83049 0.21334 0.68283 0.0
C374 C 0.75909 0.1391 0.69304 0.0
O375 O 0.76641 0.15205 0.6673 0.0
O376 O 0.78161 0.13944 0.70713 0.0
C377 C 0.82907 0.16948 0.61618 0.0
H378 H 0.30304 0.89626 0.09597 0.0
H379 H 0.3022 0.81168 0.0636 0.0
H380 H 0.35177 0.84254 0.04877 0.0
H381 H 0.39415 0.89351 0.04146 0.0
H382 H 0.39679 0.97849 0.07553 0.0
H383 H 0.34799 0.94774 0.09329 0.0
C384 C 0.31396 0.88465 0.08622 0.0
C385 C 0.2987 0.85172 0.08039 0.0
C386 C 0.34269 0.90263 0.07766 0.0
C387 C 0.3132 0.83702 0.06774 0.0
C388 C 0.34158 0.85463 0.05924 0.0
C389 C 0.38404 0.90525 0.05285 0.0
C390 C 0.39874 0.93813 0.05677 0.0
C391 C 0.35626 0.88744 0.06336 0.0
C392 C 0.38571 0.95313 0.07206 0.0
C393 C 0.35783 0.93555 0.08222 0.0
H394 H 0.17741 0.45759 0.05372 0.0
H395 H 0.12215 0.39151 0.11513 0.0
H396 H 0.08278 0.40155 0.09989 0.0
H397 H 0.06368 0.42882 0.06871 0.0
H398 H 0.11773 0.49172 1.00461 0.0
H399 H 0.1576 0.48253 0.02072 0.0
C400 C 0.15665 0.44493 0.06348 0.0
C401 C 0.15303 0.42392 0.08574 0.0
C402 C 0.13373 0.45012 0.05397 0.0
C403 C 0.12599 0.40834 0.09848 0.0
C404 C 0.10327 0.41383 0.08955 0.0
C405 C 0.08417 0.44037 0.05822 0.0
C406 C 0.08784 0.46091 0.03555 0.0
C407 C 0.10689 0.43467 0.06733 0.0
C408 C 0.1144 0.47571 0.02205 0.0
C409 C 0.13722 0.47054 0.03131 0.0
H410 H 0.55462 0.6973 0.1087 0.0
H411 H 0.60438 0.74088 0.03275 0.0
H412 H 0.59525 0.68986 0.00988 0.0
H413 H 0.57078 0.63216 0.01032 0.0
H414 H 0.51778 0.58887 0.08448 0.0
H415 H 0.53059 0.64022 0.10935 0.0
C416 C 0.56376 0.69558 0.08737 0.0
C417 C 0.58029 0.72265 0.07248 0.0
C418 C 0.55765 0.66615 0.07396 0.0
C419 C 0.59161 0.72022 0.04456 0.0
C420 C 0.58636 0.6911 0.03151 0.0
C421 C 0.56227 0.63414 0.032 0.0
C422 C 0.54328 0.60688 0.04548 0.0
C423 C 0.56907 0.6638 0.04578 0.0
C424 C 0.53217 0.60957 0.07349 0.0
C425 C 0.53954 0.63892 0.08778 0.0
H426 H 0.84871 0.3147 0.93615 0.0
H427 H 0.89117 0.27287 0.98562 0.0
H428 H 0.92853 0.32454 0.01106 0.0
H429 H 0.95058 0.38215 0.01698 0.0
H430 H 0.90593 0.42318 0.96947 0.0
H431 H 0.86804 0.37158 0.94597 0.0
C432 C 0.86605 0.31702 0.95271 0.0
C433 C 0.86741 0.29024 0.95896 0.0
C434 C 0.88711 0.3467 0.96762 0.0
C435 C 0.88977 0.29329 0.98057 0.0
C436 C 0.91114 0.3228 0.99504 0.0
C437 C 0.93238 0.37978 1.00182 0.0
C438 C 0.93146 0.40674 0.99488 0.0
C439 C 0.91024 0.34977 0.98848 0.0
C440 C 0.90744 0.40302 0.97533 0.0
C441 C 0.8857 0.37344 0.96166 0.0
H442 H 0.7252 0.55426 0.9723 0.0
H443 H 0.72534 0.61905 0.90967 0.0
H444 H 0.67495 0.6034 0.9192 0.0
H445 H 0.63197 0.57388 0.94835 0.0
H446 H 0.63359 0.51149 0.01298 0.0
H447 H 0.68229 0.52398 1.00002 0.0
C448 C 0.71432 0.56513 0.96082 0.0
C449 C 0.72925 0.58808 0.94056 0.0
C450 C 0.68569 0.55663 0.967 0.0
C451 C 0.7144 0.60121 0.92525 0.0
C452 C 0.68564 0.59246 0.93089 0.0
C453 C 0.64299 0.56295 0.95943 0.0
C454 C 0.62936 0.54197 0.98174 0.0
C455 C 0.67124 0.57058 0.95215 0.0
C456 C 0.64375 0.52786 0.99588 0.0
C457 C 0.67158 0.53497 0.98847 0.0
H458 H 0.43906 0.14262 0.97926 0.0
H459 H 0.4868 0.15431 0.89903 0.0
H460 H 0.50367 0.11964 0.91773 0.0
H461 H 0.50708 0.08861 0.95849 0.0
H462 H 0.45698 0.0741 0.03717 0.0
H463 H 0.43891 0.10759 0.01775 0.0
C464 C 0.45286 0.13719 0.96573 0.0
C465 C 0.4618 0.151 0.93787 0.0
C466 C 0.46238 0.11724 0.97664 0.0
C467 C 0.47949 0.14372 0.92038 0.0
C468 C 0.48934 0.12418 0.93124 0.0
C469 C 0.49232 0.09294 0.97145 0.0
C470 C 0.48384 0.07958 0.99958 0.0
C471 C 0.48139 0.11134 0.95963 0.0
C472 C 0.46403 0.08451 0.01568 0.0
C473 C 0.45368 0.10355 1.00453 0.0
H474 H 0.71521 0.123 0.9369 0.0
H475 H 0.74854 0.1924 0.01622 0.0
H476 H 0.69912 0.16969 0.03331 0.0
H477 H 0.64669 0.12809 0.02687 0.0
H478 H 0.61401 0.05844 0.94752 0.0
H479 H 0.66264 0.08313 0.92915 0.0
C480 C 0.71145 0.13328 0.9577 0.0
C481 C 0.73514 0.15927 0.97531 0.0
C482 C 0.68311 0.11988 0.96744 0.0
C483 C 0.73037 0.17242 1.00233 0.0
C484 C 0.7022 0.15937 0.01211 0.0
C485 C 0.65025 0.11851 1.00548 0.0
C486 C 0.62684 0.09139 0.98867 0.0
C487 C 0.67843 0.13281 0.99508 0.0
C488 C 0.6317 0.07922 0.96095 0.0
C489 C 0.65952 0.09332 0.95041 0.0
H490 H 0.85917 0.5739 0.95044 0.0
H491 H 0.89473 0.6366 0.03491 0.0
H492 H 0.93079 0.62009 0.04506 0.0
H493 H 0.94984 0.58511 0.03156 0.0
H494 H 0.91394 0.52193 0.94723 0.0
H495 H 0.88045 0.54128 0.93517 0.0
C496 C 0.87519 0.58419 0.97076 0.0
C497 C 0.87468 0.6064 0.99191 0.0
C498 C 0.89553 0.57428 0.97654 0.0
C499 C 0.89511 0.61956 0.01832 0.0
C500 C 0.91555 0.61002 0.02417 0.0
C501 C 0.93482 0.57579 0.01046 0.0
C502 C 0.93413 0.55201 0.99043 0.0
C503 C 0.91561 0.58698 1.00373 0.0
C504 C 0.91473 0.54019 0.96306 0.0
C505 C 0.89558 0.55121 0.95616 0.0
H506 H 0.44369 0.30494 0.98538 0.0
H507 H 0.51962 0.32887 0.93667 0.0
H508 H 0.53354 0.38443 0.94232 0.0
H509 H 0.52556 0.4264 0.96441 0.0
H510 H 0.44952 0.40149 0.01393 0.0
H511 H 0.43416 0.34625 1.00461 0.0
C512 C 0.46298 0.32237 0.97559 0.0
C513 C 0.48059 0.31326 0.96052 0.0
C514 C 0.47099 0.35409 0.9794 0.0
C515 C 0.50572 0.3357 0.94814 0.0
C516 C 0.51373 0.36737 0.95155 0.0
C517 C 0.50563 0.40889 0.97313 0.0
C518 C 0.48895 0.41822 0.99015 0.0
C519 C 0.49682 0.37693 0.96772 0.0
C520 C 0.46292 0.39512 1.00087 0.0
C521 C 0.45405 0.36342 0.99558 0.0
H522 H 0.17546 0.68466 0.03631 0.0
H523 H 0.11953 0.72426 0.04275 0.0
H524 H 0.07599 0.67142 0.03691 0.0
H525 H 0.05413 0.61416 0.02825 0.0
H526 H 0.1106 0.57485 0.02173 0.0
H527 H 0.15367 0.62736 0.02928 0.0
C528 C 0.15367 0.68153 0.03673 0.0
C529 C 0.15034 0.70785 0.04004 0.0
C530 C 0.12895 0.65124 0.0331 0.0
C531 C 0.1223 0.70401 0.04037 0.0
C532 C 0.09752 0.6739 0.03691 0.0
C533 C 0.07583 0.61703 0.02841 0.0
C534 C 0.07903 0.59051 0.02421 0.0
C535 C 0.10059 0.64735 0.03291 0.0
C536 C 0.1074 0.59476 0.02482 0.0
C537 C 0.1321 0.62481 0.02916 0.0
H538 H 0.30199 0.46736 0.03044 0.0
H539 H 0.30066 0.40547 0.09704 0.0
H540 H 0.35233 0.42259 0.09128 0.0
H541 H 0.39697 0.45328 0.06496 0.0
H542 H 0.3975 0.51435 0.99753 0.0
H543 H 0.34711 0.49965 0.00592 0.0
C544 C 0.31325 0.45799 0.04392 0.0
C545 C 0.29796 0.43541 0.0642 0.0
C546 C 0.34265 0.46766 0.04012 0.0
C547 C 0.31233 0.42305 0.08144 0.0
C548 C 0.34173 0.43275 0.07804 0.0
C549 C 0.38605 0.46346 0.05226 0.0
C550 C 0.4008 0.48472 0.03052 0.0
C551 C 0.35699 0.45472 0.05709 0.0
C552 C 0.38653 0.49786 0.01429 0.0
C553 C 0.35773 0.48945 0.01907 0.0
H554 H 0.58876 0.88906 0.03927 0.0
H555 H 0.51734 0.83768 0.09412 0.0
H556 H 0.50135 0.8761 0.08855 0.0
H557 H 0.5062 0.92259 0.06527 0.0
H558 H 0.57782 0.97357 0.01001 0.0
H559 H 0.5952 0.93709 0.01844 0.0
C560 C 0.57007 0.88677 0.05049 0.0
C561 C 0.55436 0.86107 0.06736 0.0
C562 C 0.56083 0.90859 0.0467 0.0
C563 C 0.52989 0.85771 0.08139 0.0
C564 C 0.52066 0.87948 0.07797 0.0
C565 C 0.5256 0.92571 0.05505 0.0
C566 C 0.54052 0.95068 0.0368 0.0
C567 C 0.53564 0.9047 0.06016 0.0
C568 C 0.56584 0.95457 0.02409 0.0
C569 C 0.57585 0.93371 0.02891 0.0
H570 H 0.95727 0.16981 0.37433 0.0
H571 H 0.9606 0.23917 0.44243 0.0
H572 H 0.01002 0.27679 0.43085 0.0
H573 H 0.05241 0.29038 0.40084 0.0
H574 H 0.04745 0.22186 0.33069 0.0
H575 H 0.99837 0.18388 0.3431 0.0
C576 C 0.96852 0.19327 0.38638 0.0
C577 C 0.955 0.20141 0.40932 0.0
C578 C 0.99671 0.2151 0.3791 0.0
C579 C 0.97046 0.23186 0.42506 0.0
C580 C 0.99872 0.25357 0.41827 0.0
C581 C 0.04048 0.26716 0.38825 0.0
C582 C 0.05347 0.2589 0.36489 0.0
C583 C 0.01208 0.24547 0.39531 0.0
C584 C 0.03785 0.22878 0.34871 0.0
C585 C 0.00981 0.20703 0.35583 0.0
H586 H 0.84773 0.78088 0.38865 0.0
H587 H 0.82105 0.77573 0.48156 0.0
H588 H 0.78165 0.78467 0.46371 0.0
H589 H 0.75517 0.79518 0.42219 0.0
H590 H 0.78208 0.80214 0.3295 0.0
H591 H 0.82087 0.79143 0.34671 0.0
C592 C 0.83333 0.78178 0.40496 0.0
C593 C 0.83726 0.77721 0.43635 0.0
C594 C 0.81068 0.78728 0.39459 0.0
C595 C 0.81825 0.77841 0.45713 0.0
C596 C 0.79576 0.78376 0.44701 0.0
C597 C 0.7694 0.79412 0.40572 0.0
C598 C 0.76573 0.7993 0.37462 0.0
C599 C 0.79177 0.78826 0.41584 0.0
C600 C 0.78446 0.79814 0.35357 0.0
C601 C 0.80667 0.79207 0.36342 0.0
H602 H 0.26703 0.04926 0.4129 0.0
H603 H 0.18324 0.03838 0.3821 0.0
H604 H 0.16542 0.98415 0.36102 0.0
H605 H 0.17359 0.93944 0.35204 0.0
H606 H 0.25842 0.95182 0.3818 0.0
H607 H 0.27571 0.00554 0.40247 0.0
C608 C 0.24484 0.03493 0.40165 0.0
C609 C 0.22642 0.04768 0.39919 0.0
C610 C 0.23489 1.00397 0.38934 0.0
C611 C 0.19786 0.02907 0.38414 0.0
C612 C 0.18765 0.99805 0.37218 0.0
C613 C 0.19587 0.95391 0.36298 0.0
C614 C 0.21456 0.94138 0.3653 0.0
C615 C 0.20595 0.98518 0.37472 0.0
C616 C 0.24345 0.96065 0.37947 0.0
C617 C 0.25344 0.99149 0.39145 0.0
H618 H 0.5613 0.62626 0.30339 0.0
H619 H 0.49323 0.64902 0.28926 0.0
H620 H 0.52789 0.70381 0.3097 0.0
H621 H 0.57874 0.74589 0.32733 0.0
H622 H 0.64654 0.72216 0.34098 0.0
H623 H 0.61083 0.66715 0.32526 0.0
C624 C 0.55402 0.64318 0.30547 0.0
C625 C 0.52487 0.63384 0.29515 0.0
C626 C 0.5741 0.67449 0.31681 0.0
C627 C 0.51554 0.65579 0.29747 0.0
C628 C 0.53541 0.68708 0.3089 0.0
C629 C 0.58568 0.72868 0.32716 0.0
C630 C 0.61548 0.73841 0.33506 0.0
C631 C 0.56494 0.69685 0.31799 0.0
C632 C 0.6239 0.71558 0.33491 0.0
C633 C 0.60347 0.68401 0.32587 0.0
H634 H 0.39414 0.95328 0.265 0.0
H635 H 0.40831 0.88413 0.30626 0.0
H636 H 0.36015 0.86108 0.32581 0.0
H637 H 0.31388 0.86084 0.3317 0.0
H638 H 0.29999 0.93007 0.29022 0.0
H639 H 0.34788 0.95266 0.27026 0.0
C640 C 0.38654 0.93296 0.27796 0.0
C641 C 0.40486 0.92052 0.28417 0.0
C642 C 0.35885 0.9199 0.2893 0.0
C643 C 0.3948 0.8944 0.30141 0.0
C644 C 0.36721 0.88114 0.31256 0.0
C645 C 0.32145 0.88092 0.31838 0.0
C646 C 0.3035 0.89384 0.31256 0.0
C647 C 0.34909 0.8938 0.30684 0.0
C648 C 0.31346 0.91975 0.29512 0.0
C649 C 0.34084 0.93267 0.28362 0.0
H650 H 0.09691 0.47147 0.32109 0.0
H651 H 0.15113 0.49825 0.24523 0.0
H652 H 0.17213 0.46643 0.26143 0.0
H653 H 0.1742 0.42989 0.29655 0.0
H654 H 0.11719 0.40004 0.36993 0.0
H655 H 0.09844 0.43438 0.3557 0.0
C656 C 0.11345 0.47044 0.30826 0.0
C657 C 0.12253 0.48724 0.28206 0.0
C658 C 0.12502 0.45166 0.3174 0.0
C659 C 0.14367 0.48537 0.26535 0.0
C660 C 0.15577 0.4673 0.2747 0.0
C661 C 0.15799 0.4313 0.30967 0.0
C662 C 0.14735 0.41281 0.33453 0.0
C663 C 0.14657 0.45027 0.30064 0.0
C664 C 0.1258 0.41421 0.35084 0.0
C665 C 0.11503 0.43376 0.34265 0.0
H666 H 0.37824 0.46141 0.27152 0.0
H667 H 0.40511 0.53272 0.34816 0.0
H668 H 0.35546 0.50537 0.36498 0.0
H669 H 0.30481 0.45948 0.35895 0.0
H670 H 0.27887 0.38815 0.28222 0.0
H671 H 0.32754 0.41698 0.26434 0.0
C672 C 0.37299 0.47109 0.29165 0.0
C673 C 0.39493 0.49901 0.30852 0.0
C674 C 0.34464 0.45501 0.30129 0.0
C675 C 0.38828 0.51133 0.33475 0.0
C676 C 0.35999 0.4956 0.34441 0.0
C677 C 0.30987 0.45037 0.3383 0.0
C678 C 0.28833 0.4216 0.32206 0.0
C679 C 0.33806 0.46716 0.32809 0.0
C680 C 0.2951 0.41012 0.29524 0.0
C681 C 0.32293 0.42662 0.28495 0.0
H682 H 0.52815 0.90912 0.34377 0.0
H683 H 0.56776 0.95263 0.26283 0.0
H684 H 0.59972 0.92985 0.26608 0.0
H685 H 0.61747 0.8989 0.29361 0.0
H686 H 0.57757 0.85645 0.37514 0.0
H687 H 0.54461 0.87728 0.37007 0.0
C688 C 0.54369 0.91336 0.32677 0.0
C689 C 0.54582 0.93231 0.30313 0.0
C690 C 0.56196 0.90046 0.32903 0.0
C691 C 0.56591 0.93794 0.28119 0.0
C692 C 0.58415 0.925 0.28311 0.0
C693 C 0.60144 0.89415 0.31011 0.0
C694 C 0.6 0.87627 0.33478 0.0
C695 C 0.58256 0.90643 0.30715 0.0
C696 C 0.57915 0.87022 0.35601 0.0
C697 C 0.56028 0.88212 0.35315 0.0
H698 H 0.15381 0.64932 0.29483 0.0
H699 H 0.06497 0.6198 0.31258 0.0
H700 H 0.07721 0.67474 0.32029 0.0
H701 H 0.11415 0.73134 0.32478 0.0
H702 H 0.20321 0.76021 0.30713 0.0
H703 H 0.18999 0.70566 0.29663 0.0
C704 C 0.1371 0.65505 0.29986 0.0
C705 C 0.10853 0.63085 0.30286 0.0
C706 C 0.14445 0.68662 0.30464 0.0
C707 C 0.08704 0.63826 0.30983 0.0
C708 C 0.0941 0.66962 0.31444 0.0
C709 C 0.13066 0.72573 0.31857 0.0
C710 C 0.15972 0.75007 0.31702 0.0
C711 C 0.12289 0.69406 0.3124 0.0
C712 C 0.1807 0.74217 0.30866 0.0
C713 C 0.17318 0.71087 0.3026 0.0
H714 H 0.83885 0.03355 0.37368 0.0
H715 H 0.77398 0.0614 0.37831 0.0
H716 H 0.73462 0.00614 0.37147 0.0
H717 H 0.71885 0.94986 0.36272 0.0
H718 H 0.78447 0.92266 0.35831 0.0
H719 H 0.82323 0.97751 0.36635 0.0
C720 C 0.81605 0.02735 0.37353 0.0
C721 C 0.80907 0.05113 0.37669 0.0
C722 C 0.79371 0.99567 0.36933 0.0
C723 C 0.77965 0.04321 0.37616 0.0
C724 C 0.75722 0.01169 0.37209 0.0
C725 C 0.74161 0.95593 0.36343 0.0
C726 C 0.74863 0.93205 0.35978 0.0
C727 C 0.76398 0.98769 0.36834 0.0
C728 C 0.77832 0.94043 0.36106 0.0
C729 C 0.80059 0.97186 0.36568 0.0
H730 H 0.98458 0.82309 0.38445 0.0
H731 H 0.9947 0.77756 0.46208 0.0
H732 H 0.03824 0.77997 0.44204 0.0
H733 H 0.07467 0.79728 0.40328 0.0
H734 H 0.06456 0.84394 0.32641 0.0
H735 H 0.01985 0.83886 0.34511 0.0
C736 C 0.99618 0.81336 0.39669 0.0
C737 C 0.9865 0.79992 0.42445 0.0
C738 C 0.02128 0.81524 0.38521 0.0
C739 C 1.00173 0.78772 0.44047 0.0
C740 C 0.02665 0.78925 0.42907 0.0
C741 C 0.06251 0.8061 0.39053 0.0
C742 C 0.0729 0.82095 0.36344 0.0
C743 C 0.03683 0.80327 0.40161 0.0
C744 C 0.05704 0.83243 0.34728 0.0
C745 C 0.03147 0.82954 0.35798 0.0
H746 H 0.1896 0.1754 0.38149 0.0
H747 H 0.28185 0.24174 0.40208 0.0
H748 H 0.27336 0.28508 0.39186 0.0
H749 H 0.23934 0.30354 0.37474 0.0
H750 H 0.14709 0.2356 0.35368 0.0
H751 H 0.1559 0.19359 0.36604 0.0
C752 C 0.20771 0.19947 0.38431 0.0
C753 C 0.23615 0.20568 0.39298 0.0
C754 C 0.20268 0.22392 0.37776 0.0
C755 C 0.25966 0.23669 0.39595 0.0
C756 C 0.25482 0.26135 0.3898 0.0
C757 C 0.22126 0.27952 0.37269 0.0
C758 C 0.19261 0.27282 0.36317 0.0
C759 C 0.22642 0.25519 0.38018 0.0
C760 C 0.16936 0.24155 0.36099 0.0
C761 C 0.17432 0.21741 0.36812 0.0
H762 H 0.63552 0.54596 0.78156 0.0
H763 H 0.64208 0.46504 0.75245 0.0
H764 H 0.68901 0.49856 0.7328 0.0
H765 H 0.72651 0.55041 0.72017 0.0
H766 H 0.72201 0.63205 0.75113 0.0
H767 H 0.67618 0.59894 0.77371 0.0
C768 C 0.64756 0.53581 0.77152 0.0
C769 C 0.63505 0.503 0.76802 0.0
C770 C 0.67472 0.55532 0.76011 0.0
C771 C 0.65096 0.49018 0.75491 0.0
C772 C 0.6778 0.50932 0.7436 0.0
C773 C 0.71548 0.5609 0.73192 0.0
C774 C 0.72724 0.59347 0.73355 0.0
C775 C 0.68951 0.54181 0.74531 0.0
C776 C 0.71313 0.60692 0.74936 0.0
C777 C 0.68697 0.58801 0.76231 0.0
H778 H 0.46627 0.07119 0.77829 0.0
H779 H 0.52931 0.12237 0.71436 0.0
H780 H 0.49676 0.13941 0.69199 0.0
H781 H 0.44981 0.1393 0.69022 0.0
H782 H 0.38872 0.09039 0.75651 0.0
H783 H 0.42142 0.07361 0.77874 0.0
C784 C 0.47333 0.0866 0.75991 0.0
C785 C 0.50037 0.0954 0.74815 0.0
C786 C 0.45476 0.09675 0.74749 0.0
C787 C 0.5085 0.11477 0.72368 0.0
C788 C 0.48995 0.12471 0.71095 0.0
C789 C 0.44377 0.12503 0.70956 0.0
C790 C 0.41681 0.11589 0.72156 0.0
C791 C 0.46291 0.11569 0.72254 0.0
C792 C 0.4093 0.09762 0.74678 0.0
C793 C 0.42798 0.088 0.75951 0.0
H794 H 0.91108 0.38247 0.70129 0.0
H795 H 0.84323 0.352 0.7634 0.0
H796 H 0.82506 0.29723 0.74461 0.0
H797 H 0.83034 0.25812 0.71314 0.0
H798 H 0.90003 0.28782 0.65327 0.0
H799 H 0.91547 0.34277 0.6683 0.0
C800 C 0.89208 0.36376 0.7103 0.0
C801 C 0.87844 0.3711 0.73362 0.0
C802 C 0.88218 0.33227 0.69989 0.0
C803 C 0.85409 0.34677 0.74551 0.0
C804 C 0.84371 0.31552 0.73478 0.0
C805 C 0.84864 0.27655 0.70296 0.0
C806 C 0.86395 0.26887 0.68202 0.0
C807 C 0.85784 0.30799 0.71233 0.0
C808 C 0.88789 0.29312 0.66947 0.0
C809 C 0.89675 0.32454 0.67809 0.0
H810 H 0.20736 0.94154 0.64191 0.0
H811 H 0.16871 0.9702 0.5699 0.0
H812 H 0.20257 0.02541 0.58863 0.0
H813 H 0.24408 0.06546 0.62461 0.0
H814 H 0.28515 0.03661 0.69402 0.0
H815 H 0.24915 0.98161 0.6776 0.0
C816 C 0.20621 0.95992 0.63056 0.0
C817 C 0.18551 0.9519 0.6047 0.0
C818 C 0.22612 0.99155 0.64106 0.0
C819 C 0.18454 0.97588 0.58981 0.0
C820 C 0.20382 0.0074 0.60056 0.0
C821 C 0.245 0.04715 0.63633 0.0
C822 C 0.26727 0.05516 0.66054 0.0
C823 C 0.22482 0.01551 0.62607 0.0
C824 C 0.26831 0.03111 0.67525 0.0
C825 C 0.24774 0.99963 0.66586 0.0
H826 H 0.04844 0.27291 0.58426 0.0
H827 H 0.06216 0.20797 0.63503 0.0
H828 H 0.01506 0.18906 0.65576 0.0
H829 H 0.97 0.19112 0.66017 0.0
H830 H 0.95436 0.25317 0.60693 0.0
H831 H 1.00188 0.27268 0.58619 0.0
C832 C 0.041 0.2543 0.59949 0.0
C833 C 0.05922 0.24229 0.60832 0.0
C834 C 0.0135 0.24303 0.61101 0.0
C835 C 0.0491 0.21832 0.62836 0.0
C836 C 0.022 0.20728 0.64013 0.0
C837 C 0.97707 0.20897 0.64408 0.0
C838 C 0.95893 0.22095 0.63531 0.0
C839 C 1.00414 0.21964 0.63185 0.0
C840 C 0.96808 0.24372 0.61412 0.0
C841 C 0.99523 0.25486 0.60225 0.0
H842 H 0.77054 0.80448 0.65401 0.0
H843 H 0.82838 0.83058 0.58131 0.0
H844 H 0.84553 0.79539 0.59768 0.0
H845 H 0.84412 0.75737 0.63307 0.0
H846 H 0.78414 0.72975 0.70392 0.0
H847 H 0.76836 0.76599 0.68839 0.0
C848 C 0.78709 0.80266 0.64192 0.0
C849 C 0.79838 0.82029 0.61669 0.0
C850 C 0.79665 0.78234 0.65133 0.0
C851 C 0.81931 0.81717 0.60076 0.0
C852 C 0.82923 0.79721 0.61023 0.0
C853 C 0.82773 0.75945 0.64521 0.0
C854 C 0.81538 0.74094 0.66968 0.0
C855 C 0.81812 0.77976 0.63558 0.0
C856 C 0.79395 0.74366 0.68498 0.0
C857 C 0.78487 0.76436 0.67609 0.0
H858 H 0.0539 0.83774 0.65823 0.0
H859 H 0.04584 0.76899 0.58661 0.0
H860 H 0.99369 0.7354 0.59382 0.0
H861 H 0.95123 0.72448 0.6231 0.0
H862 H 0.96052 0.79335 0.69568 0.0
H863 H 0.01118 0.82813 0.68548 0.0
C864 C 0.04051 0.81554 0.64401 0.0
C865 C 0.05329 0.80565 0.62193 0.0
C866 C 0.01087 0.79638 0.64863 0.0
C867 C 0.03615 0.77691 0.60366 0.0
C868 C 1.00645 0.75775 0.60788 0.0
C869 C 0.96434 0.74722 0.63645 0.0
C870 C 0.95226 0.7563 0.66023 0.0
C871 C 0.99367 0.76703 0.63066 0.0
C872 C 0.96939 0.7858 0.67735 0.0
C873 C 0.99837 0.8057 0.67156 0.0
H874 H 0.17442 0.21485 0.65997 0.0
H875 H 0.22408 0.27024 0.58917 0.0
H876 H 0.25583 0.24727 0.59273 0.0
H877 H 0.27111 0.21362 0.61865 0.0
H878 H 0.22172 0.15965 0.69063 0.0
H879 H 0.18806 0.17954 0.68389 0.0
C880 C 0.19202 0.22152 0.64511 0.0
C881 C 0.19708 0.24397 0.62432 0.0
C882 C 0.21025 0.20855 0.64766 0.0
C883 C 0.21991 0.25282 0.60525 0.0
C884 C 0.23804 0.23976 0.60737 0.0
C885 C 0.25278 0.20601 0.63258 0.0
C886 C 0.24893 0.18528 0.65518 0.0
C887 C 0.23368 0.21793 0.62885 0.0
C888 C 0.22517 0.17564 0.67315 0.0
C889 C 0.20594 0.18704 0.66935 0.0
H890 H 0.8286 0.98296 0.6447 0.0
H891 H 0.73604 0.94779 0.64546 0.0
H892 H 0.74518 1.00165 0.65289 0.0
H893 H 0.77996 0.05878 0.66066 0.0
H894 H 0.8727 0.09337 0.65963 0.0
H895 H 0.86313 0.03985 0.65102 0.0
C896 C 0.81049 0.98726 0.64612 0.0
C897 C 0.78175 0.96186 0.64431 0.0
C898 C 0.81601 0.01814 0.65068 0.0
C899 C 0.75833 0.96729 0.64651 0.0
C900 C 0.76359 0.998 0.65094 0.0
C901 C 0.79807 0.0546 0.65869 0.0
C902 C 0.82702 0.08012 0.66093 0.0
C903 C 0.7924 0.02363 0.6534 0.0
C904 C 0.85019 0.07423 0.65798 0.0
C905 C 0.84477 0.0436 0.65302 0.0
H906 H 0.46538 0.35849 0.69898 0.0
H907 H 0.51174 0.33595 0.76829 0.0
H908 H 0.47299 0.28043 0.76017 0.0
H909 H 0.42699 0.23809 0.73123 0.0
H910 H 0.38105 0.26151 0.66181 0.0
H911 H 0.41852 0.31679 0.67192 0.0
C912 C 0.46662 0.34138 0.71259 0.0
C913 C 0.49092 0.35091 0.73433 0.0
C914 C 0.44458 0.30967 0.70742 0.0
C915 C 0.49285 0.32885 0.75166 0.0
C916 C 0.47087 0.29719 0.74684 0.0
C917 C 0.4253 0.2553 0.71822 0.0
C918 C 0.40142 0.24563 0.69557 0.0
C919 C 0.44685 0.28724 0.72437 0.0
C920 C 0.39923 0.26828 0.67932 0.0
C921 C 0.42064 0.29994 0.68509 0.0
H922 H 0.64014 0.0707 0.7549 0.0
H923 H 0.61099 0.10269 0.67755 0.0
H924 H 0.66051 0.12843 0.66068 0.0
H925 H 0.71167 0.14003 0.66693 0.0
H926 H 0.74088 0.10804 0.74441 0.0
H927 H 0.69194 0.08414 0.76233 0.0
C928 C 0.64487 0.0836 0.73454 0.0
C929 C 0.62231 0.08505 0.71741 0.0
C930 C 0.6733 0.09812 0.72496 0.0
C931 C 0.62828 0.10153 0.69102 0.0
C932 C 0.6565 0.11611 0.68136 0.0
C933 C 0.70729 0.12789 0.68778 0.0
C934 C 0.72973 0.12561 0.70424 0.0
C935 C 0.67911 0.11427 0.69796 0.0
C936 C 0.72388 0.10999 0.7313 0.0
C937 C 0.69592 0.09633 0.74156 0.0
H938 H 0.85637 0.50619 0.73258 0.0
H939 H 0.94771 0.56729 0.72187 0.0
H940 H 0.93874 0.61052 0.71361 0.0
H941 H 0.90411 0.62973 0.7061 0.0
H942 H 0.81254 0.56808 0.71688 0.0
H943 H 0.82232 0.5264 0.72842 0.0
C944 C 0.87432 0.52921 0.72906 0.0
C945 C 0.90265 0.53392 0.72811 0.0
C946 C 0.86885 0.55369 0.7239 0.0
C947 C 0.92579 0.56348 0.72305 0.0
C948 C 0.9206 0.58805 0.71809 0.0
C949 C 0.8863 0.60719 0.71098 0.0
C950 C 0.85758 0.60204 0.71027 0.0
C951 C 0.89209 0.58325 0.71784 0.0
C952 C 0.83485 0.57277 0.71713 0.0
C953 C 0.8404 0.54884 0.72376 0.0
H954 H 0.50915 0.01672 0.21896 0.0
H955 H 0.44064 0.92515 0.17877 0.0
H956 H 0.45149 0.94112 0.12641 0.0
H957 H 0.48234 0.97998 0.09238 0.0
H958 H 0.54932 0.07256 0.1318 0.0
H959 H 0.5374 0.05734 0.18432 0.0
C960 C 0.49661 1.00035 0.19868 0.0
C961 C 0.4743 0.96971 0.20264 0.0
C962 C 0.50278 0.00984 0.16866 0.0
C963 C 0.45787 0.94883 0.17626 0.0
C964 C 0.46414 0.95792 0.14637 0.0
C965 C 0.49396 0.99706 0.1124 0.0
C966 C 0.51662 0.0274 0.10822 0.0
C967 C 0.48675 0.98822 0.14232 0.0
C968 C 0.53174 0.04911 0.13443 0.0
C969 C 0.52498 0.04036 0.16443 0.0
H970 H 0.03201 0.51045 0.21229 0.0
H971 H 0.11161 0.52234 0.1785 0.0
H972 H 0.08979 0.51328 0.12473 0.0
H973 H 0.04869 0.50361 0.0874 0.0
H974 H 0.96824 0.48976 0.1206 0.0
H975 H 0.98961 0.49772 0.17451 0.0
C976 C 0.04456 0.51122 0.19309 0.0
C977 C 0.07348 0.51738 0.1993 0.0
C978 C 0.03165 0.50544 0.1622 0.0
C979 C 0.08935 0.51773 0.17427 0.0
C980 C 0.07688 0.51253 0.14355 0.0
C981 C 0.03565 0.50182 0.1064 0.0
C982 C 1.00688 0.49603 0.09999 0.0
C983 C 0.04809 0.50644 0.13725 0.0
C984 C 0.99038 0.49407 0.12491 0.0
C985 C 1.00266 0.49881 0.15573 0.0
H986 H 0.46738 0.52246 0.18302 0.0
H987 H 0.55532 0.59751 0.21494 0.0
H988 H 0.5722 0.59016 0.166 0.0
H989 H 0.56265 0.56262 0.11425 0.0
H990 H 0.47683 0.48392 0.08363 0.0
H991 H 0.45856 0.49221 0.13199 0.0
C992 C 0.4903 0.53702 0.17949 0.0
C993 C 0.50976 0.561 0.20273 0.0
C994 C 0.5003 0.53203 0.15143 0.0
C995 C 0.53941 0.57961 0.19735 0.0
C996 C 0.54929 0.57521 0.16939 0.0
C997 C 0.53995 0.54717 0.11818 0.0
C998 C 0.52084 0.52318 0.09506 0.0
C999 C 0.52997 0.55158 0.14629 0.0
C1000 C 0.49162 0.5032 0.10062 0.0
C1001 C 0.48131 0.50778 0.12842 0.0
H1002 H 0.95613 0.49527 0.82403 0.0
H1003 H 0.88325 0.40525 0.83999 0.0
H1004 H 0.90526 0.41048 0.89254 0.0
H1005 H 0.94793 0.43783 0.93186 0.0
H1006 H 0.01732 0.53072 0.91975 0.0
H1007 H 0.9939 0.52738 0.86778 0.0
C1008 C 0.94456 0.47716 0.83917 0.0
C1009 C 0.91858 0.4493 0.82737 0.0
C1010 C 0.95695 0.48065 0.86993 0.0
C1011 C 0.90392 0.42634 0.84778 0.0
C1012 C 0.9164 0.42933 0.87799 0.0
C1013 C 0.95752 0.45751 0.91802 0.0
C1014 C 0.98432 0.48427 0.92913 0.0
C1015 C 0.94341 0.45584 0.88888 0.0
C1016 C 0.99666 0.50984 0.91134 0.0
C1017 C 0.98331 0.50789 0.8817 0.0
H1018 H 0.5758 0.51803 0.84196 0.0
H1019 H 0.52308 0.41711 0.83895 0.0
H1020 H 0.4989 0.4223 0.88306 0.0
H1021 H 0.49165 0.4553 0.92217 0.0
H1022 H 0.54778 0.5557 0.92928 0.0
H1023 H 0.57193 0.55089 0.88432 0.0
C1024 C 0.55939 0.49708 0.85114 0.0
C1025 C 0.55098 0.4672 0.83632 0.0
C1026 C 0.54596 0.50014 0.87727 0.0
C1027 C 0.52947 0.44049 0.84888 0.0
C1028 C 0.51568 0.44337 0.87439 0.0
C1029 C 0.50905 0.47609 0.91368 0.0
C1030 C 0.51762 0.50585 0.9285 0.0
C1031 C 0.52341 0.47305 0.88849 0.0
C1032 C 0.54069 0.53258 0.91793 0.0
C1033 C 0.5545 0.52981 0.8923 0.0
H1034 H 0.51422 0.00688 0.82488 0.0
H1035 H 0.55345 0.10508 0.85621 0.0
H1036 H 0.54786 0.09282 0.9103 0.0
H1037 H 0.52955 0.05406 0.94809 0.0
H1038 H 0.4861 0.95539 0.91688 0.0
H1039 H 0.49599 0.96779 0.86325 0.0
C1040 C 0.52187 0.02552 0.84368 0.0
C1041 C 0.53441 0.05683 0.83679 0.0
C1042 C 0.51777 0.01816 0.87458 0.0
C1043 C 0.5438 0.08085 0.86113 0.0
C1044 C 0.5406 0.07383 0.89197 0.0
C1045 C 0.52236 0.03524 0.92962 0.0
C1046 C 0.50703 1.00383 0.93637 0.0
C1047 C 0.52726 0.04256 0.8989 0.0
C1048 C 0.49789 0.97973 0.91218 0.0
C1049 C 0.5035 0.98683 0.88156 0.0
H1050 H 0.1648 0.33409 0.54447 0.0
H1051 H 0.09474 0.24484 0.50126 0.0
H1052 H 0.10594 0.26313 0.44966 0.0
H1053 H 0.13724 0.30366 0.417 0.0
H1054 H 0.20588 0.39386 0.4601 0.0
H1055 H 0.1937 0.37614 0.51169 0.0
C1056 C 0.15205 0.31871 0.52369 0.0
C1057 C 0.12921 0.28807 0.52652 0.0
C1058 C 0.15836 0.32957 0.49421 0.0
C1059 C 0.11245 0.26849 0.49956 0.0
C1060 C 0.11889 0.27892 0.47012 0.0
C1061 C 0.14922 0.31961 0.43767 0.0
C1062 C 0.17244 0.35003 0.43475 0.0
C1063 C 0.14195 0.30932 0.46718 0.0
C1064 C 0.18789 0.37036 0.46175 0.0
C1065 C 0.18101 0.36019 0.49123 0.0
H1066 H 0.71275 0.84506 0.54826 0.0
H1067 H 0.79625 0.87047 0.51523 0.0
H1068 H 0.77536 0.86466 0.46141 0.0
H1069 H 0.73338 0.85336 0.42406 0.0
H1070 H 0.64897 0.82388 0.45708 0.0
H1071 H 0.67013 0.83048 0.51065 0.0
C1072 C 0.72633 0.84951 0.52922 0.0
C1073 C 0.75602 0.85864 0.53553 0.0
C1074 C 0.71399 0.84534 0.49843 0.0
C1075 C 0.77337 0.86368 0.51077 0.0
C1076 C 0.76144 0.86033 0.48009 0.0
C1077 C 0.71954 0.8479 0.44293 0.0
C1078 C 0.68962 0.83802 0.4366 0.0
C1079 C 0.73176 0.85121 0.47365 0.0
C1080 C 0.67204 0.83146 0.46135 0.0
C1081 C 0.68414 0.8353 0.49199 0.0
H1082 H 0.16748 0.8399 0.53126 0.0
H1083 H 0.12767 0.89131 0.49707 0.0
H1084 H 0.13578 0.8805 0.4437 0.0
H1085 H 0.1587 0.86125 0.40793 0.0
H1086 H 0.20198 0.81312 0.44209 0.0
H1087 H 0.18806 0.8177 0.49441 0.0
C1088 C 0.16011 0.84812 0.51194 0.0
C1089 C 0.14683 0.86614 0.5178 0.0
C1090 C 0.16582 0.84273 0.48152 0.0
C1091 C 0.1378 0.87727 0.49288 0.0
C1092 C 0.14256 0.87121 0.46248 0.0
C1093 C 0.16461 0.8512 0.42667 0.0
C1094 C 0.1813 0.83679 0.4212 0.0
C1095 C 0.1572 0.85465 0.45666 0.0
C1096 C 0.18915 0.8243 0.44579 0.0
C1097 C 0.18125 0.827 0.47568 0.0
H1098 H 0.65386 0.81822 0.14968 0.0
H1099 H 0.56962 0.7946 0.17929 0.0
H1100 H 0.59057 0.8076 0.234 0.0
H1101 H 0.63226 0.8213 0.27334 0.0
H1102 H 0.7167 0.84626 0.24278 0.0
H1103 H 0.69646 0.83739 0.18859 0.0
C1104 C 0.64031 0.81653 0.16819 0.0
C1105 C 0.61036 0.80556 0.16075 0.0
C1106 C 0.65252 0.824 0.19936 0.0
C1107 C 0.59282 0.80326 0.18468 0.0
C1108 C 0.60476 0.81048 0.21587 0.0
C1109 C 0.64626 0.82521 0.25479 0.0
C1110 C 0.67586 0.83408 0.26205 0.0
C1111 C 0.63447 0.82022 0.22353 0.0
C1112 C 0.69382 0.83923 0.23782 0.0
C1113 C 0.68225 0.83412 0.20679 0.0
H1114 H 0.24841 0.82972 0.17567 0.0
H1115 H 0.17109 0.81125 0.11777 0.0
H1116 H 0.14799 0.81456 0.16381 0.0
H1117 H 0.14951 0.82271 0.22093 0.0
H1118 H 0.22711 0.84233 0.27831 0.0
H1119 H 0.25044 0.83923 0.23245 0.0
C1120 C 0.22667 0.82682 0.17303 0.0
C1121 C 0.21154 0.81998 0.14314 0.0
C1122 C 0.21352 0.82911 0.19967 0.0
C1123 C 0.18315 0.81592 0.14042 0.0
C1124 C 0.16991 0.81798 0.16678 0.0
C1125 C 0.17152 0.82629 0.22329 0.0
C1126 C 0.18683 0.83339 0.25304 0.0
C1127 C 0.1848 0.8244 0.19657 0.0
C1128 C 0.21527 0.83791 0.25575 0.0
C1129 C 0.2285 0.83576 0.22944 0.0
H1130 H 0.18012 0.34782 0.1515 0.0
H1131 H 0.22996 0.4447 0.18921 0.0
H1132 H 0.2239 0.42905 0.2423 0.0
H1133 H 0.19981 0.388 0.27739 0.0
H1134 H 0.14757 0.29114 0.23938 0.0
H1135 H 0.15927 0.30637 0.18698 0.0
C1136 C 0.19025 0.36533 0.17147 0.0
C1137 C 0.20578 0.39726 0.16678 0.0
C1138 C 0.18586 0.35613 0.20173 0.0
C1139 C 0.2183 0.41998 0.19254 0.0
C1140 C 0.21462 0.41102 0.22278 0.0
C1141 C 0.19135 0.37019 0.25769 0.0
C1142 C 0.17267 0.3385 0.26216 0.0
C1143 C 0.19776 0.37921 0.22761 0.0
C1144 C 0.16186 0.31569 0.23645 0.0
C1145 C 0.16852 0.32439 0.20651 0.0
H1146 H 0.78793 0.64796 0.8632 0.0
H1147 H 0.84453 0.60971 0.87936 0.0
H1148 H 0.86708 0.62918 0.83176 0.0
H1149 H 0.87084 0.65735 0.78527 0.0
H1150 H 0.81221 0.69272 0.76817 0.0
H1151 H 0.79002 0.67367 0.81608 0.0
C1152 C 0.80484 0.64335 0.85614 0.0
C1153 C 0.8145 0.62744 0.87507 0.0
C1154 C 0.81746 0.65423 0.82854 0.0
C1155 C 0.8369 0.62231 0.86562 0.0
C1156 C 0.84977 0.63333 0.83829 0.0
C1157 C 0.85338 0.66104 0.79229 0.0
C1158 C 0.84322 0.67652 0.77347 0.0
C1159 C 0.84039 0.64955 0.81967 0.0
C1160 C 0.82028 0.68078 0.78237 0.0
C1161 C 0.80762 0.66991 0.80973 0.0
H1162 H 0.39319 0.14652 0.85693 0.0
H1163 H 0.44507 0.24726 0.85733 0.0
H1164 H 0.4163 0.24464 0.81005 0.0
H1165 H 0.37576 0.21383 0.76848 0.0
H1166 H 0.3279 0.113 0.76489 0.0
H1167 H 0.35605 0.11554 0.81308 0.0
C1168 C 0.39872 0.16795 0.84653 0.0
C1169 C 0.42116 0.1971 0.8614 0.0
C1170 C 0.3826 0.16628 0.81869 0.0
C1171 C 0.42745 0.22449 0.84729 0.0
C1172 C 0.4111 0.22305 0.81998 0.0
C1173 C 0.37144 0.19251 0.77848 0.0
C1174 C 0.3495 0.16329 0.76364 0.0
C1175 C 0.38838 0.19413 0.80566 0.0
C1176 C 0.34454 0.13574 0.7762 0.0
C1177 C 0.36065 0.1372 0.80368 0.0
H1178 H 0.84588 0.1839 0.86918 0.0
H1179 H 0.82002 0.25037 0.84484 0.0
H1180 H 0.82532 0.24104 0.78991 0.0
H1181 H 0.83862 0.21491 0.7491 0.0
H1182 H 0.86884 0.15209 0.77419 0.0
H1183 H 0.86036 0.15874 0.8285 0.0
C1184 C 0.84123 0.19612 0.85173 0.0
C1185 C 0.83235 0.21758 0.86084 0.0
C1186 C 0.84511 0.19124 0.82041 0.0
C1187 C 0.82685 0.23373 0.83824 0.0
C1188 C 0.82984 0.22836 0.8069 0.0
C1189 C 0.8431 0.20249 0.76644 0.0
C1190 C 0.85412 0.18282 0.75772 0.0
C1191 C 0.8391 0.20728 0.79774 0.0
C1192 C 0.8603 0.16728 0.78044 0.0
C1193 C 0.85548 0.17111 0.81145 0.0
H1194 H 0.24949 0.08422 0.50516 0.0
H1195 H 0.30009 0.18064 0.48475 0.0
H1196 H 0.32576 0.19517 0.53699 0.0
H1197 H 0.3377 0.17957 0.58709 0.0
H1198 H 0.29465 0.08139 0.60067 0.0
H1199 H 0.26298 0.06834 0.55235 0.0
C1200 C 0.26659 0.10839 0.51143 0.0
C1201 C 0.27292 0.13097 0.49011 0.0
C1202 C 0.28293 0.11627 0.5406 0.0
C1203 C 0.2942 0.16245 0.50021 0.0
C1204 C 0.3093 0.17083 0.53015 0.0
C1205 C 0.32118 0.15542 0.57942 0.0
C1206 C 0.31799 0.13147 0.59764 0.0
C1207 C 0.30437 0.14782 0.55031 0.0
C1208 C 0.29708 0.1002 0.58728 0.0
C1209 C 0.27908 0.09273 0.55956 0.0
H1210 H 0.84379 0.16213 0.47253 0.0
H1211 H 0.91608 0.15184 0.50767 0.0
H1212 H 0.90417 0.15553 0.56104 0.0
H1213 H 0.87299 0.1614 0.59753 0.0
H1214 H 0.80232 0.17467 0.56285 0.0
H1215 H 0.81367 0.17003 0.50942 0.0
C1216 C 0.8567 0.16042 0.49192 0.0
C1217 C 0.88057 0.15641 0.4863 0.0
C1218 C 0.85009 0.16324 0.52253 0.0
C1219 C 0.89756 0.15483 0.51155 0.0
C1220 C 0.89077 0.15697 0.54199 0.0
C1221 C 0.86026 0.16359 0.5783 0.0
C1222 C 0.8369 0.16845 0.58408 0.0
C1223 C 0.86713 0.16125 0.54776 0.0
C1224 C 0.82046 0.17101 0.55895 0.0
C1225 C 0.82688 0.16826 0.52841 0.0
H1226 H 0.84058 0.74353 0.5281 0.0
H1227 H 0.90674 0.7191 0.51215 0.0
H1228 H 0.89498 0.69007 0.55833 0.0
H1229 H 0.86327 0.66891 0.60192 0.0
H1230 H 0.79308 0.68855 0.61064 0.0
H1231 H 0.80836 0.7211 0.56796 0.0
C1232 C 0.85205 0.7312 0.53385 0.0
C1233 C 0.87404 0.73298 0.51575 0.0
C1234 C 0.8442 0.71335 0.55923 0.0
C1235 C 0.88962 0.71819 0.52531 0.0
C1236 C 0.88273 0.70134 0.55166 0.0
C1237 C 0.85145 0.68037 0.59434 0.0
C1238 C 0.82714 0.67641 0.60958 0.0
C1239 C 0.8597 0.69834 0.5686 0.0
C1240 C 0.81176 0.69105 0.59932 0.0
C1241 C 0.82051 0.70979 0.57491 0.0
loop_
_geom_bond_atom_site_label_1
_geom_bond_atom_site_label_2
_geom_bond_distance
_geom_bond_site_symmetry_2
_ccdc_geom_bond_type
H0 C3 0.929 . S
H1 C6 0.929 . S
H2 C8 0.930 . S
C3 H0 0.929 . S
C3 C4 1.398 . S
C3 C5 1.396 . S
C4 C3 1.398 . S
C4 C8 1.407 . S
C5 C3 1.396 . S
C5 C6 1.394 . S
C6 H1 0.929 . S
C6 C5 1.394 . S
C6 C7 1.382 . S
C7 C6 1.382 . S
C7 C8 1.392 . S
C7 N9 1.420 . S
C8 H2 0.930 . S
C8 C4 1.407 . S
C8 C7 1.392 . S
N9 C7 1.420 . S
N9 C10 1.244 . S
C10 N9 1.244 . S
H11 C14 0.929 . S
H12 C17 0.929 . S
H13 C19 0.930 . S
C14 H11 0.929 . S
C14 C15 1.398 . S
C14 C16 1.396 . S
C15 C14 1.398 . S
C15 C19 1.407 . S
C16 C14 1.396 . S
C16 C17 1.394 . S
C17 H12 0.929 . S
C17 C16 1.394 . S
C17 C18 1.382 . S
C18 C17 1.382 . S
C18 C19 1.392 . S
C18 N20 1.420 . S
C19 H13 0.930 . S
C19 C15 1.407 . S
C19 C18 1.392 . S
N20 C18 1.420 . S
N20 C21 1.244 . S
C21 N20 1.244 . S
H22 C25 0.929 . S
H23 C28 0.929 . S
H24 C30 0.930 . S
C25 H22 0.929 . S
C25 C26 1.398 . S
C25 C27 1.396 . S
C26 C25 1.398 . S
C26 C30 1.407 . S
C27 C25 1.396 . S
C27 C28 1.394 . S
C28 H23 0.929 . S
C28 C27 1.394 . S
C28 C29 1.382 . S
C29 C28 1.382 . S
C29 C30 1.392 . S
C29 N31 1.420 . S
C30 H24 0.930 . S
C30 C26 1.407 . S
C30 C29 1.392 . S
N31 C29 1.420 . S
N31 C32 1.244 . S
C32 N31 1.244 . S
H33 C36 0.929 . S
H34 C39 0.929 . S
H35 C41 0.930 . S
C36 H33 0.929 . S
C36 C37 1.398 . S
C36 C38 1.396 . S
C37 C36 1.398 . S
C37 C41 1.407 . S
C38 C36 1.396 . S
C38 C39 1.394 . S
C39 H34 0.929 . S
C39 C38 1.394 . S
C39 C40 1.382 . S
C40 C39 1.382 . S
C40 C41 1.392 . S
C40 N42 1.420 . S
C41 H35 0.930 . S
C41 C37 1.407 . S
C41 C40 1.392 . S
N42 C40 1.420 . S
N42 C43 1.244 . S
C43 N42 1.244 . S
H44 C47 0.929 . S
H45 C50 0.929 . S
H46 C52 0.930 . S
C47 H44 0.929 . S
C47 C48 1.398 . S
C47 C49 1.396 . S
C48 C47 1.398 . S
C48 C52 1.407 . S
C49 C47 1.396 . S
C49 C50 1.394 . S
C50 H45 0.929 . S
C50 C49 1.394 . S
C50 C51 1.382 . S
C51 C50 1.382 . S
C51 C52 1.392 . S
C51 N53 1.420 . S
C52 H46 0.930 . S
C52 C48 1.407 . S
C52 C51 1.392 . S
N53 C51 1.420 . S
N53 C54 1.244 . S
C54 N53 1.244 . S
H55 C58 0.929 . S
H56 C61 0.929 . S
H57 C63 0.930 . S
C58 H55 0.929 . S
C58 C59 1.398 . S
C58 C60 1.396 . S
C59 C58 1.398 . S
C59 C63 1.407 . S
C60 C58 1.396 . S
C60 C61 1.394 . S
C61 H56 0.929 . S
C61 C60 1.394 . S
C61 C62 1.382 . S
C62 C61 1.382 . S
C62 C63 1.392 . S
C62 N64 1.420 . S
C63 H57 0.930 . S
C63 C59 1.407 . S
C63 C62 1.392 . S
N64 C62 1.420 . S
N64 C65 1.244 . S
C65 N64 1.244 . S
H66 C69 0.929 . S
H67 C72 0.929 . S
H68 C74 0.930 . S
C69 H66 0.929 . S
C69 C70 1.398 . S
C69 C71 1.396 . S
C70 C69 1.398 . S
C70 C74 1.407 . S
C71 C69 1.396 . S
C71 C72 1.394 . S
C72 H67 0.929 . S
C72 C71 1.394 . S
C72 C73 1.382 . S
C73 C72 1.382 . S
C73 C74 1.392 . S
C73 N75 1.420 . S
C74 H68 0.930 . S
C74 C70 1.407 . S
C74 C73 1.392 . S
N75 C73 1.420 . S
N75 C76 1.244 . S
C76 N75 1.244 . S
H77 C80 0.929 . S
H78 C83 0.929 . S
H79 C85 0.930 . S
C80 H77 0.929 . S
C80 C81 1.398 . S
C80 C82 1.396 . S
C81 C80 1.398 . S
C81 C85 1.407 . S
C82 C80 1.396 . S
C82 C83 1.394 . S
C83 H78 0.929 . S
C83 C82 1.394 . S
C83 C84 1.382 . S
C84 C83 1.382 . S
C84 C85 1.392 . S
C84 N86 1.420 . S
C85 H79 0.930 . S
C85 C81 1.407 . S
C85 C84 1.392 . S
N86 C84 1.420 . S
N86 C87 1.244 . S
C87 N86 1.244 . S
H88 C91 0.929 . S
H89 C94 0.929 . S
H90 C96 0.930 . S
C91 H88 0.929 . S
C91 C92 1.398 . S
C91 C93 1.396 . S
C92 C91 1.398 . S
C92 C96 1.407 . S
C93 C91 1.396 . S
C93 C94 1.394 . S
C94 H89 0.929 . S
C94 C93 1.394 . S
C94 C95 1.382 . S
C95 C94 1.382 . S
C95 C96 1.392 . S
C95 N97 1.420 . S
C96 H90 0.930 . S
C96 C92 1.407 . S
C96 C95 1.392 . S
N97 C95 1.420 . S
N97 C98 1.244 . S
C98 N97 1.244 . S
H99 C102 0.929 . S
H100 C105 0.929 . S
H101 C107 0.930 . S
C102 H99 0.929 . S
C102 C103 1.398 . S
C102 C104 1.396 . S
C103 C102 1.398 . S
C103 C107 1.407 . S
C104 C102 1.396 . S
C104 C105 1.394 . S
C105 H100 0.929 . S
C105 C104 1.394 . S
C105 C106 1.382 . S
C106 C105 1.382 . S
C106 C107 1.392 . S
C106 N108 1.420 . S
C107 H101 0.930 . S
C107 C103 1.407 . S
C107 C106 1.392 . S
N108 C106 1.420 . S
N108 C109 1.244 . S
C109 N108 1.244 . S
H110 C113 0.929 . S
H111 C116 0.929 . S
H112 C118 0.930 . S
C113 H110 0.929 . S
C113 C114 1.398 . S
C113 C115 1.396 . S
C114 C113 1.398 . S
C114 C118 1.407 . S
C115 C113 1.396 . S
C115 C116 1.394 . S
C116 H111 0.929 . S
C116 C115 1.394 . S
C116 C117 1.382 . S
C117 C116 1.382 . S
C117 C118 1.392 . S
C117 N119 1.420 . S
C118 H112 0.930 . S
C118 C114 1.407 . S
C118 C117 1.392 . S
N119 C117 1.420 . S
N119 C120 1.244 . S
C120 N119 1.244 . S
H121 C124 0.929 . S
H122 C127 0.929 . S
H123 C129 0.930 . S
C124 H121 0.929 . S
C124 C125 1.398 . S
C124 C126 1.396 . S
C125 C124 1.398 . S
C125 C129 1.407 . S
C126 C124 1.396 . S
C126 C127 1.394 . S
C127 H122 0.929 . S
C127 C126 1.394 . S
C127 C128 1.382 . S
C128 C127 1.382 . S
C128 C129 1.392 . S
C128 N130 1.420 . S
C129 H123 0.930 . S
C129 C125 1.407 . S
C129 C128 1.392 . S
N130 C128 1.420 . S
N130 C131 1.244 . S
C131 N130 1.244 . S
H132 C135 0.929 . S
H133 C138 0.929 . S
H134 C140 0.930 . S
C135 H132 0.929 . S
C135 C136 1.398 . S
C135 C137 1.396 . S
C136 C135 1.398 . S
C136 C140 1.407 . S
C137 C135 1.396 . S
C137 C138 1.394 . S
C138 H133 0.929 . S
C138 C137 1.394 . S
C138 C139 1.382 . S
C139 C138 1.382 . S
C139 C140 1.392 . S
C139 N141 1.420 . S
C140 H134 0.930 . S
C140 C136 1.407 . S
C140 C139 1.392 . S
N141 C139 1.420 . S
N141 C142 1.244 . S
C142 N141 1.244 . S
H143 C146 0.929 . S
H144 C149 0.929 . S
H145 C151 0.930 . S
C146 H143 0.929 . S
C146 C147 1.398 . S
C146 C148 1.396 . S
C147 C146 1.398 . S
C147 C151 1.407 . S
C148 C146 1.396 . S
C148 C149 1.394 . S
C149 H144 0.929 . S
C149 C148 1.394 . S
C149 C150 1.382 . S
C150 C149 1.382 . S
C150 C151 1.392 . S
C150 N152 1.420 . S
C151 H145 0.930 . S
C151 C147 1.407 . S
C151 C150 1.392 . S
N152 C150 1.420 . S
N152 C153 1.244 . S
C153 N152 1.244 . S
H154 C157 0.929 . S
H155 C160 0.929 . S
H156 C162 0.930 . S
C157 H154 0.929 . S
C157 C158 1.398 . S
C157 C159 1.396 . S
C158 C157 1.398 . S
C158 C162 1.407 . S
C159 C157 1.396 . S
C159 C160 1.394 . S
C160 H155 0.929 . S
C160 C159 1.394 . S
C160 C161 1.382 . S
C161 C160 1.382 . S
C161 C162 1.392 . S
C161 N163 1.420 . S
C162 H156 0.930 . S
C162 C158 1.407 . S
C162 C161 1.392 . S
N163 C161 1.420 . S
N163 C164 1.244 . S
C164 N163 1.244 . S
H165 C168 0.929 . S
H166 C171 0.929 . S
H167 C173 0.930 . S
C168 H165 0.929 . S
C168 C169 1.398 . S
C168 C170 1.396 . S
C169 C168 1.398 . S
C169 C173 1.407 . S
C170 C168 1.396 . S
C170 C171 1.394 . S
C171 H166 0.929 . S
C171 C170 1.394 . S
C171 C172 1.382 . S
C172 C171 1.382 . S
C172 C173 1.392 . S
C172 N174 1.420 . S
C173 H167 0.930 . S
C173 C169 1.407 . S
C173 C172 1.392 . S
N174 C172 1.420 . S
N174 C175 1.244 . S
C175 N174 1.244 . S
H176 C179 0.929 . S
H177 C182 0.929 . S
H178 C184 0.930 . S
C179 H176 0.929 . S
C179 C180 1.398 . S
C179 C181 1.396 . S
C180 C179 1.398 . S
C180 C184 1.407 . S
C181 C179 1.396 . S
C181 C182 1.394 . S
C182 H177 0.929 . S
C182 C181 1.394 . S
C182 C183 1.382 . S
C183 C182 1.382 . S
C183 C184 1.392 . S
C183 N185 1.420 . S
C184 H178 0.930 . S
C184 C180 1.407 . S
C184 C183 1.392 . S
N185 C183 1.420 . S
N185 C186 1.244 . S
C186 N185 1.244 . S
H187 C190 0.929 . S
H188 C193 0.929 . S
H189 C195 0.930 . S
C190 H187 0.929 . S
C190 C191 1.398 . S
C190 C192 1.396 . S
C191 C190 1.398 . S
C191 C195 1.407 . S
C192 C190 1.396 . S
C192 C193 1.394 . S
C193 H188 0.929 . S
C193 C192 1.394 . S
C193 C194 1.382 . S
C194 C193 1.382 . S
C194 C195 1.392 . S
C194 N196 1.420 . S
C195 H189 0.930 . S
C195 C191 1.407 . S
C195 C194 1.392 . S
N196 C194 1.420 . S
N196 C197 1.244 . S
C197 N196 1.244 . S
Tb198 O201 2.453 . S
Tb198 O202 2.596 1_545 S
Tb198 O203 2.374 1_545 S
Tb198 O211 2.343 1_554 S
Tb198 O213 2.353 . S
Tb198 O215 2.427 . S
Tb198 O216 2.513 1_554 S
C199 O203 1.251 . S
C199 O205 1.263 1_554 S
Tb200 O202 2.343 1_556 S
Tb200 O205 2.353 . S
Tb200 O208 2.427 1_556 S
Tb200 O209 2.513 1_556 S
Tb200 O210 2.453 . S
Tb200 O211 2.596 1_565 S
Tb200 O212 2.374 1_565 S
O201 Tb198 2.453 . S
O201 C217 1.245 1_545 S
O202 Tb198 2.596 1_565 S
O202 Tb200 2.343 1_554 S
O202 C217 1.259 . S
O203 Tb198 2.374 1_565 S
O203 C199 1.251 . S
C204 O208 1.275 . S
C204 O209 1.246 . S
O205 C199 1.263 1_556 S
O205 Tb200 2.353 . S
C206 O210 1.245 1_545 S
C206 O211 1.259 . S
C207 O212 1.250 1_554 S
C207 O213 1.263 . S
O208 Tb200 2.427 1_554 S
O208 C204 1.275 . S
O209 Tb200 2.513 1_554 S
O209 C204 1.246 . S
O210 Tb200 2.453 . S
O210 C206 1.245 1_565 S
O211 Tb198 2.343 1_556 S
O211 Tb200 2.596 1_545 S
O211 C206 1.259 . S
O212 Tb200 2.374 1_545 S
O212 C207 1.250 1_556 S
O213 Tb198 2.353 . S
O213 C207 1.263 . S
C214 O215 1.275 1_556 S
C214 O216 1.246 . S
O215 Tb198 2.427 . S
O215 C214 1.275 1_554 S
O216 Tb198 2.513 1_556 S
O216 C214 1.246 . S
C217 O201 1.245 1_565 S
C217 O202 1.259 . S
Tb218 O221 2.453 . S
Tb218 O222 2.596 1_655 S
Tb218 O223 2.374 1_655 S
Tb218 O231 2.343 1_554 S
Tb218 O233 2.353 . S
Tb218 O235 2.427 1_554 S
Tb218 O236 2.513 1_554 S
C219 O223 1.251 . S
C219 O225 1.261 1_554 S
Tb220 O222 2.343 1_556 S
Tb220 O225 2.354 . S
Tb220 O228 2.427 1_556 S
Tb220 O229 2.513 1_556 S
Tb220 O230 2.453 . S
Tb220 O231 2.596 1_455 S
Tb220 O232 2.374 1_455 S
O221 Tb218 2.453 . S
O221 C237 1.245 1_655 S
O222 Tb218 2.596 1_455 S
O222 Tb220 2.343 1_554 S
O222 C237 1.259 . S
O223 Tb218 2.374 1_455 S
O223 C219 1.251 . S
C224 O228 1.275 . S
C224 O229 1.246 . S
O225 C219 1.261 1_556 S
O225 Tb220 2.354 . S
C226 O230 1.245 1_655 S
C226 O231 1.259 . S
C227 O232 1.250 . S
C227 O233 1.263 1_556 S
O228 Tb220 2.427 1_554 S
O228 C224 1.275 . S
O229 Tb220 2.513 1_554 S
O229 C224 1.246 . S
O230 Tb220 2.453 . S
O230 C226 1.245 1_455 S
O231 Tb218 2.343 1_556 S
O231 Tb220 2.596 1_655 S
O231 C226 1.259 . S
O232 Tb220 2.374 1_655 S
O232 C227 1.250 . S
O233 Tb218 2.353 . S
O233 C227 1.263 1_554 S
C234 O235 1.275 . S
C234 O236 1.246 . S
O235 Tb218 2.427 1_556 S
O235 C234 1.275 . S
O236 Tb218 2.513 1_556 S
O236 C234 1.246 . S
C237 O221 1.245 1_455 S
C237 O222 1.259 . S
Tb238 O241 2.453 . S
Tb238 O242 2.596 . S
Tb238 O243 2.374 . S
Tb238 O251 2.343 1_556 S
Tb238 O253 2.353 1_556 S
Tb238 O255 2.427 1_556 S
Tb238 O256 2.513 1_556 S
C239 O243 1.251 1_554 S
C239 O245 1.263 . S
Tb240 O242 2.343 1_554 S
Tb240 O245 2.353 . S
Tb240 O248 2.426 . S
Tb240 O249 2.513 1_554 S
Tb240 O250 2.453 . S
Tb240 O251 2.596 . S
Tb240 O252 2.374 . S
O241 Tb238 2.453 . S
O241 C257 1.245 . S
O242 Tb238 2.596 . S
O242 Tb240 2.343 1_556 S
O242 C257 1.259 . S
O243 Tb238 2.374 . S
O243 C239 1.251 1_556 S
C244 O248 1.276 1_556 S
C244 O249 1.246 . S
O245 C239 1.263 . S
O245 Tb240 2.353 . S
C246 O250 1.245 . S
C246 O251 1.259 . S
C247 O252 1.250 . S
C247 O253 1.274 . S
O248 Tb240 2.426 . S
O248 C244 1.276 1_554 S
O249 Tb240 2.513 1_556 S
O249 C244 1.246 . S
O250 Tb240 2.453 . S
O250 C246 1.245 . S
O251 Tb238 2.343 1_554 S
O251 Tb240 2.596 . S
O251 C246 1.259 . S
O252 Tb240 2.374 . S
O252 C247 1.250 . S
O253 Tb238 2.353 1_554 S
O253 C247 1.274 . S
C254 O255 1.275 . S
C254 O256 1.246 . S
O255 Tb238 2.427 1_554 S
O255 C254 1.275 . S
O256 Tb238 2.513 1_554 S
O256 C254 1.246 . S
C257 O241 1.245 . S
C257 O242 1.259 . S
Tb258 O261 2.453 . S
Tb258 O262 2.596 . S
Tb258 O263 2.374 . S
Tb258 O271 2.343 . S
Tb258 O273 2.353 . S
Tb258 O275 2.427 . S
Tb258 O276 2.513 . S
C259 O263 1.251 . S
C259 O265 1.263 . S
Tb260 O262 2.343 . S
Tb260 O265 2.353 . S
Tb260 O268 2.427 . S
Tb260 O269 2.513 . S
Tb260 O270 2.453 . S
Tb260 O271 2.596 . S
Tb260 O272 2.374 . S
O261 Tb258 2.453 . S
O261 C277 1.245 . S
O262 Tb258 2.596 . S
O262 Tb260 2.343 . S
O262 C277 1.259 . S
O263 Tb258 2.374 . S
O263 C259 1.251 . S
C264 O268 1.275 . S
C264 O269 1.246 . S
O265 C259 1.263 . S
O265 Tb260 2.353 . S
C266 O270 1.245 . S
C266 O271 1.259 . S
C267 O272 1.250 . S
C267 O273 1.263 . S
O268 Tb260 2.427 . S
O268 C264 1.275 . S
O269 Tb260 2.513 . S
O269 C264 1.246 . S
O270 Tb260 2.453 . S
O270 C266 1.245 . S
O271 Tb258 2.343 . S
O271 Tb260 2.596 . S
O271 C266 1.259 . S
O272 Tb260 2.374 . S
O272 C267 1.250 . S
O273 Tb258 2.353 . S
O273 C267 1.263 . S
C274 O275 1.275 . S
C274 O276 1.246 . S
O275 Tb258 2.427 . S
O275 C274 1.275 . S
O276 Tb258 2.513 . S
O276 C274 1.246 . S
C277 O261 1.245 . S
C277 O262 1.259 . S
Tb278 O281 2.453 . S
Tb278 O282 2.596 . S
Tb278 O283 2.374 . S
Tb278 O291 2.343 . S
Tb278 O293 2.353 . S
Tb278 O295 2.427 . S
Tb278 O296 2.513 . S
C279 O283 1.251 . S
C279 O285 1.263 . S
Tb280 O282 2.343 . S
Tb280 O285 2.353 . S
Tb280 O288 2.427 . S
Tb280 O289 2.513 . S
Tb280 O290 2.453 . S
Tb280 O291 2.596 . S
Tb280 O292 2.374 . S
O281 Tb278 2.453 . S
O281 C297 1.245 . S
O282 Tb278 2.596 . S
O282 Tb280 2.343 . S
O282 C297 1.259 . S
O283 Tb278 2.374 . S
O283 C279 1.251 . S
C284 O288 1.275 . S
C284 O289 1.246 . S
O285 C279 1.263 . S
O285 Tb280 2.353 . S
C286 O290 1.245 . S
C286 O291 1.259 . S
C287 O292 1.250 . S
C287 O293 1.263 . S
O288 Tb280 2.427 . S
O288 C284 1.275 . S
O289 Tb280 2.513 . S
O289 C284 1.246 . S
O290 Tb280 2.453 . S
O290 C286 1.245 . S
O291 Tb278 2.343 . S
O291 Tb280 2.596 . S
O291 C286 1.259 . S
O292 Tb280 2.374 . S
O292 C287 1.250 . S
O293 Tb278 2.353 . S
O293 C287 1.263 . S
C294 O295 1.275 . S
C294 O296 1.246 . S
O295 Tb278 2.427 . S
O295 C294 1.275 . S
O296 Tb278 2.513 . S
O296 C294 1.246 . S
C297 O281 1.245 . S
C297 O282 1.259 . S
Tb298 O301 2.453 . S
Tb298 O302 2.596 . S
Tb298 O303 2.374 . S
Tb298 O311 2.343 . S
Tb298 O313 2.353 . S
Tb298 O315 2.427 . S
Tb298 O316 2.513 . S
C299 O303 1.251 . S
C299 O305 1.263 . S
Tb300 O302 2.343 . S
Tb300 O305 2.353 . S
Tb300 O308 2.427 . S
Tb300 O309 2.513 . S
Tb300 O310 2.453 . S
Tb300 O311 2.596 . S
Tb300 O312 2.374 . S
O301 Tb298 2.453 . S
O301 C317 1.245 . S
O302 Tb298 2.596 . S
O302 Tb300 2.343 . S
O302 C317 1.259 . S
O303 Tb298 2.374 . S
O303 C299 1.251 . S
C304 O308 1.275 . S
C304 O309 1.246 . S
O305 C299 1.263 . S
O305 Tb300 2.353 . S
C306 O310 1.245 . S
C306 O311 1.259 . S
C307 O312 1.250 . S
C307 O313 1.263 . S
O308 Tb300 2.427 . S
O308 C304 1.275 . S
O309 Tb300 2.513 . S
O309 C304 1.246 . S
O310 Tb300 2.453 . S
O310 C306 1.245 . S
O311 Tb298 2.343 . S
O311 Tb300 2.596 . S
O311 C306 1.259 . S
O312 Tb300 2.374 . S
O312 C307 1.250 . S
O313 Tb298 2.353 . S
O313 C307 1.263 . S
C314 O315 1.275 . S
C314 O316 1.246 . S
O315 Tb298 2.427 . S
O315 C314 1.275 . S
O316 Tb298 2.513 . S
O316 C314 1.246 . S
C317 O301 1.245 . S
C317 O302 1.259 . S
Tb318 O321 2.453 . S
Tb318 O322 2.596 . S
Tb318 O323 2.374 . S
Tb318 O331 2.343 . S
Tb318 O333 2.353 . S
Tb318 O335 2.427 . S
Tb318 O336 2.513 . S
C319 O323 1.251 . S
C319 O325 1.263 . S
Tb320 O322 2.343 . S
Tb320 O325 2.353 . S
Tb320 O328 2.427 . S
Tb320 O329 2.513 . S
Tb320 O330 2.453 . S
Tb320 O331 2.596 . S
Tb320 O332 2.374 . S
O321 Tb318 2.453 . S
O321 C337 1.245 . S
O322 Tb318 2.596 . S
O322 Tb320 2.343 . S
O322 C337 1.259 . S
O323 Tb318 2.374 . S
O323 C319 1.251 . S
C324 O328 1.275 . S
C324 O329 1.246 . S
O325 C319 1.263 . S
O325 Tb320 2.353 . S
C326 O330 1.245 . S
C326 O331 1.259 . S
C327 O332 1.250 . S
C327 O333 1.263 . S
O328 Tb320 2.427 . S
O328 C324 1.275 . S
O329 Tb320 2.513 . S
O329 C324 1.246 . S
O330 Tb320 2.453 . S
O330 C326 1.245 . S
O331 Tb318 2.343 . S
O331 Tb320 2.596 . S
O331 C326 1.259 . S
O332 Tb320 2.374 . S
O332 C327 1.250 . S
O333 Tb318 2.353 . S
O333 C327 1.263 . S
C334 O335 1.275 . S
C334 O336 1.246 . S
O335 Tb318 2.427 . S
O335 C334 1.275 . S
O336 Tb318 2.513 . S
O336 C334 1.246 . S
C337 O321 1.245 . S
C337 O322 1.259 . S
Tb338 O341 2.453 . S
Tb338 O342 2.596 . S
Tb338 O343 2.374 . S
Tb338 O351 2.343 . S
Tb338 O353 2.353 . S
Tb338 O355 2.427 . S
Tb338 O356 2.513 . S
C339 O343 1.251 . S
C339 O345 1.263 . S
Tb340 O342 2.343 . S
Tb340 O345 2.353 . S
Tb340 O348 2.427 . S
Tb340 O349 2.513 . S
Tb340 O350 2.453 . S
Tb340 O351 2.596 . S
Tb340 O352 2.374 . S
O341 Tb338 2.453 . S
O341 C357 1.245 . S
O342 Tb338 2.596 . S
O342 Tb340 2.343 . S
O342 C357 1.259 . S
O343 Tb338 2.374 . S
O343 C339 1.251 . S
C344 O348 1.275 . S
C344 O349 1.246 . S
O345 C339 1.263 . S
O345 Tb340 2.353 . S
C346 O350 1.245 . S
C346 O351 1.259 . S
C347 O352 1.250 . S
C347 O353 1.263 . S
O348 Tb340 2.427 . S
O348 C344 1.275 . S
O349 Tb340 2.513 . S
O349 C344 1.246 . S
O350 Tb340 2.453 . S
O350 C346 1.245 . S
O351 Tb338 2.343 . S
O351 Tb340 2.596 . S
O351 C346 1.259 . S
O352 Tb340 2.374 . S
O352 C347 1.250 . S
O353 Tb338 2.353 . S
O353 C347 1.263 . S
C354 O355 1.275 . S
C354 O356 1.246 . S
O355 Tb338 2.427 . S
O355 C354 1.275 . S
O356 Tb338 2.513 . S
O356 C354 1.246 . S
C357 O341 1.245 . S
C357 O342 1.259 . S
Tb358 O361 2.453 . S
Tb358 O362 2.596 . S
Tb358 O363 2.374 . S
Tb358 O371 2.343 . S
Tb358 O373 2.353 . S
Tb358 O375 2.427 . S
Tb358 O376 2.513 . S
C359 O363 1.251 . S
C359 O365 1.263 . S
Tb360 O362 2.343 . S
Tb360 O365 2.353 . S
Tb360 O368 2.427 . S
Tb360 O369 2.513 . S
Tb360 O370 2.453 . S
Tb360 O371 2.596 . S
Tb360 O372 2.374 . S
O361 Tb358 2.453 . S
O361 C377 1.245 . S
O362 Tb358 2.596 . S
O362 Tb360 2.343 . S
O362 C377 1.259 . S
O363 Tb358 2.374 . S
O363 C359 1.251 . S
C364 O368 1.275 . S
C364 O369 1.246 . S
O365 C359 1.263 . S
O365 Tb360 2.353 . S
C366 O370 1.245 . S
C366 O371 1.259 . S
C367 O372 1.250 . S
C367 O373 1.263 . S
O368 Tb360 2.427 . S
O368 C364 1.275 . S
O369 Tb360 2.513 . S
O369 C364 1.246 . S
O370 Tb360 2.453 . S
O370 C366 1.245 . S
O371 Tb358 2.343 . S
O371 Tb360 2.596 . S
O371 C366 1.259 . S
O372 Tb360 2.374 . S
O372 C367 1.250 . S
O373 Tb358 2.353 . S
O373 C367 1.263 . S
C374 O375 1.275 . S
C374 O376 1.246 . S
O375 Tb358 2.427 . S
O375 C374 1.275 . S
O376 Tb358 2.513 . S
O376 C374 1.246 . S
C377 O361 1.245 . S
C377 O362 1.259 . S
H378 C384 0.930 . S
H379 C387 0.930 . S
H380 C388 0.930 . S
H381 C389 0.930 . S
H382 C392 0.930 . S
H383 C393 0.930 . S
C384 H378 0.930 . S
C384 C385 1.355 . S
C384 C386 1.415 . S
C385 C384 1.355 . S
C385 C387 1.419 . S
C386 C384 1.415 . S
C386 C391 1.425 . S
C386 C393 1.409 . S
C387 H379 0.930 . S
C387 C385 1.419 . S
C387 C388 1.362 . S
C388 H380 0.930 . S
C388 C387 1.362 . S
C388 C391 1.409 . S
C389 H381 0.930 . S
C389 C390 1.355 . S
C389 C391 1.415 . S
C390 C389 1.355 . S
C390 C392 1.419 . S
C391 C386 1.425 . S
C391 C388 1.409 . S
C391 C389 1.415 . S
C392 H382 0.930 . S
C392 C390 1.419 . S
C392 C393 1.362 . S
C393 H383 0.930 . S
C393 C386 1.409 . S
C393 C392 1.362 . S
H394 C400 0.930 . S
H395 C403 0.930 . S
H396 C404 0.930 . S
H397 C405 0.930 . S
H398 C408 0.930 . S
H399 C409 0.930 . S
C400 H394 0.930 . S
C400 C401 1.355 . S
C400 C402 1.415 . S
C401 C400 1.355 . S
C401 C403 1.419 . S
C402 C400 1.415 . S
C402 C407 1.425 . S
C402 C409 1.409 . S
C403 H395 0.930 . S
C403 C401 1.419 . S
C403 C404 1.362 . S
C404 H396 0.930 . S
C404 C403 1.362 . S
C404 C407 1.409 . S
C405 H397 0.930 . S
C405 C406 1.355 . S
C405 C407 1.415 . S
C406 C405 1.355 . S
C406 C408 1.419 . S
C407 C402 1.425 . S
C407 C404 1.409 . S
C407 C405 1.415 . S
C408 H398 0.930 . S
C408 C406 1.419 . S
C408 C409 1.362 . S
C409 H399 0.930 . S
C409 C402 1.409 . S
C409 C408 1.362 . S
H410 C416 0.930 . S
H411 C419 0.932 . S
H412 C420 0.930 1_556 S
H413 C421 0.930 1_556 S
H414 C424 0.930 . S
H415 C425 0.930 . S
C416 H410 0.930 . S
C416 C417 1.355 . S
C416 C418 1.415 . S
C417 C416 1.355 . S
C417 C419 1.419 . S
C418 C416 1.415 . S
C418 C423 1.425 . S
C418 C425 1.409 . S
C419 H411 0.932 . S
C419 C417 1.419 . S
C419 C420 1.362 . S
C420 H412 0.930 1_554 S
C420 C419 1.362 . S
C420 C423 1.409 . S
C421 H413 0.930 1_554 S
C421 C422 1.355 . S
C421 C423 1.415 . S
C422 C421 1.355 . S
C422 C424 1.419 . S
C423 C418 1.425 . S
C423 C420 1.409 . S
C423 C421 1.415 . S
C424 H414 0.930 . S
C424 C422 1.419 . S
C424 C425 1.362 . S
C425 H415 0.930 . S
C425 C418 1.409 . S
C425 C424 1.362 . S
H426 C432 0.930 . S
H427 C435 0.930 . S
H428 C436 0.930 1_554 S
H429 C437 0.930 1_554 S
H430 C440 0.930 . S
H431 C441 0.930 . S
C432 H426 0.930 . S
C432 C433 1.355 . S
C432 C434 1.415 . S
C433 C432 1.355 . S
C433 C435 1.419 . S
C434 C432 1.415 . S
C434 C439 1.425 . S
C434 C441 1.409 . S
C435 H427 0.930 . S
C435 C433 1.419 . S
C435 C436 1.362 . S
C436 H428 0.930 1_556 S
C436 C435 1.362 . S
C436 C439 1.409 . S
C437 H429 0.930 1_556 S
C437 C438 1.355 . S
C437 C439 1.415 . S
C438 C437 1.355 . S
C438 C440 1.419 . S
C439 C434 1.425 . S
C439 C436 1.409 . S
C439 C437 1.415 . S
C440 H430 0.930 . S
C440 C438 1.419 . S
C440 C441 1.362 . S
C441 H431 0.930 . S
C441 C434 1.409 . S
C441 C440 1.362 . S
H442 C448 0.930 . S
H443 C451 0.930 . S
H444 C452 0.930 . S
H445 C453 0.930 . S
H446 C456 0.930 1_554 S
H447 C457 0.930 . S
C448 H442 0.930 . S
C448 C449 1.355 . S
C448 C450 1.415 . S
C449 C448 1.355 . S
C449 C451 1.419 . S
C450 C448 1.415 . S
C450 C455 1.425 . S
C450 C457 1.409 . S
C451 H443 0.930 . S
C451 C449 1.419 . S
C451 C452 1.362 . S
C452 H444 0.930 . S
C452 C451 1.362 . S
C452 C455 1.409 . S
C453 H445 0.930 . S
C453 C454 1.355 . S
C453 C455 1.415 . S
C454 C453 1.355 . S
C454 C456 1.419 . S
C455 C450 1.425 . S
C455 C452 1.409 . S
C455 C453 1.415 . S
C456 H446 0.930 1_556 S
C456 C454 1.419 . S
C456 C457 1.362 . S
C457 H447 0.930 . S
C457 C450 1.409 . S
C457 C456 1.362 . S
H458 C464 0.930 . S
H459 C467 0.923 1_554 S
H460 C468 0.930 . S
H461 C469 0.930 . S
H462 C472 0.930 . S
H463 C473 0.930 . S
C464 H458 0.930 . S
C464 C465 1.355 . S
C464 C466 1.415 . S
C465 C464 1.355 . S
C465 C467 1.419 . S
C466 C464 1.415 . S
C466 C471 1.425 . S
C466 C473 1.409 . S
C467 H459 0.923 1_556 S
C467 C465 1.419 . S
C467 C468 1.362 1_556 S
C468 H460 0.930 . S
C468 C467 1.362 1_554 S
C468 C471 1.409 1_554 S
C469 H461 0.930 . S
C469 C470 1.355 1_554 S
C469 C471 1.415 1_554 S
C470 C469 1.355 1_556 S
C470 C472 1.419 . S
C471 C466 1.425 . S
C471 C468 1.409 1_556 S
C471 C469 1.415 1_556 S
C472 H462 0.930 . S
C472 C470 1.419 . S
C472 C473 1.362 . S
C473 H463 0.930 . S
C473 C466 1.409 . S
C473 C472 1.362 . S
H474 C480 0.930 . S
H475 C483 0.930 . S
H476 C484 0.930 1_554 S
H477 C485 0.930 1_554 S
H478 C488 0.930 . S
H479 C489 0.930 . S
C480 H474 0.930 . S
C480 C481 1.355 . S
C480 C482 1.415 . S
C481 C480 1.355 . S
C481 C483 1.419 . S
C482 C480 1.415 . S
C482 C487 1.425 . S
C482 C489 1.409 . S
C483 H475 0.930 . S
C483 C481 1.419 . S
C483 C484 1.362 . S
C484 H476 0.930 1_556 S
C484 C483 1.362 . S
C484 C487 1.409 . S
C485 H477 0.930 1_556 S
C485 C486 1.355 . S
C485 C487 1.415 . S
C486 C485 1.355 . S
C486 C488 1.419 . S
C487 C482 1.425 . S
C487 C484 1.409 . S
C487 C485 1.415 . S
C488 H478 0.930 . S
C488 C486 1.419 . S
C488 C489 1.362 . S
C489 H479 0.930 . S
C489 C482 1.409 . S
C489 C488 1.362 . S
H490 C496 0.930 . S
H491 C499 0.930 . S
H492 C500 0.930 . S
H493 C501 0.930 . S
H494 C504 0.930 . S
H495 C505 0.930 . S
C496 H490 0.930 . S
C496 C497 1.355 . S
C496 C498 1.415 . S
C497 C496 1.355 . S
C497 C499 1.419 . S
C498 C496 1.415 . S
C498 C503 1.425 . S
C498 C505 1.409 . S
C499 H491 0.930 . S
C499 C497 1.419 . S
C499 C500 1.362 . S
C500 H492 0.930 . S
C500 C499 1.362 . S
C500 C503 1.409 . S
C501 H493 0.930 . S
C501 C502 1.355 . S
C501 C503 1.415 . S
C502 C501 1.355 . S
C502 C504 1.419 . S
C503 C498 1.425 . S
C503 C500 1.409 . S
C503 C501 1.415 . S
C504 H494 0.930 . S
C504 C502 1.419 . S
C504 C505 1.362 . S
C505 H495 0.930 . S
C505 C498 1.409 . S
C505 C504 1.362 . S
H506 C512 0.930 . S
H507 C515 0.930 . S
H508 C516 0.930 . S
H509 C517 0.930 . S
H510 C520 0.930 . S
H511 C521 0.930 . S
C512 H506 0.930 . S
C512 C513 1.355 . S
C512 C514 1.415 . S
C513 C512 1.355 . S
C513 C515 1.419 1_556 S
C514 C512 1.415 . S
C514 C519 1.425 1_556 S
C514 C521 1.409 . S
C515 H507 0.930 . S
C515 C513 1.419 1_554 S
C515 C516 1.362 . S
C516 H508 0.930 . S
C516 C515 1.362 . S
C516 C519 1.409 . S
C517 H509 0.930 . S
C517 C518 1.355 1_554 S
C517 C519 1.415 . S
C518 C517 1.355 1_556 S
C518 C520 1.419 . S
C519 C514 1.425 1_554 S
C519 C516 1.409 . S
C519 C517 1.415 . S
C520 H510 0.930 . S
C520 C518 1.419 . S
C520 C521 1.362 . S
C521 H511 0.930 . S
C521 C514 1.409 . S
C521 C520 1.362 . S
H522 C528 0.930 . S
H523 C531 0.930 . S
H524 C532 0.930 . S
H525 C533 0.930 . S
H526 C536 0.930 . S
H527 C537 0.930 . S
C528 H522 0.930 . S
C528 C529 1.355 . S
C528 C530 1.415 . S
C529 C528 1.355 . S
C529 C531 1.419 . S
C530 C528 1.415 . S
C530 C535 1.425 . S
C530 C537 1.409 . S
C531 H523 0.930 . S
C531 C529 1.419 . S
C531 C532 1.362 . S
C532 H524 0.930 . S
C532 C531 1.362 . S
C532 C535 1.409 . S
C533 H525 0.930 . S
C533 C534 1.355 . S
C533 C535 1.415 . S
C534 C533 1.355 . S
C534 C536 1.419 . S
C535 C530 1.425 . S
C535 C532 1.409 . S
C535 C533 1.415 . S
C536 H526 0.930 . S
C536 C534 1.419 . S
C536 C537 1.362 . S
C537 H527 0.930 . S
C537 C530 1.409 . S
C537 C536 1.362 . S
H538 C544 0.930 . S
H539 C547 0.930 . S
H540 C548 0.930 . S
H541 C549 0.930 . S
H542 C552 0.930 . S
H543 C553 0.930 . S
C544 H538 0.930 . S
C544 C545 1.355 . S
C544 C546 1.415 . S
C545 C544 1.355 . S
C545 C547 1.419 . S
C546 C544 1.415 . S
C546 C551 1.425 . S
C546 C553 1.409 . S
C547 H539 0.930 . S
C547 C545 1.419 . S
C547 C548 1.362 . S
C548 H540 0.930 . S
C548 C547 1.362 . S
C548 C551 1.409 . S
C549 H541 0.930 . S
C549 C550 1.355 . S
C549 C551 1.415 . S
C550 C549 1.355 . S
C550 C552 1.419 . S
C551 C546 1.425 . S
C551 C548 1.409 . S
C551 C549 1.415 . S
C552 H542 0.930 . S
C552 C550 1.419 . S
C552 C553 1.362 . S
C553 H543 0.930 . S
C553 C546 1.409 . S
C553 C552 1.362 . S
H554 C560 0.930 . S
H555 C563 0.930 . S
H556 C564 0.930 . S
H557 C565 0.930 . S
H558 C568 0.930 . S
H559 C569 0.930 . S
C560 H554 0.930 . S
C560 C561 1.355 . S
C560 C562 1.415 . S
C561 C560 1.355 . S
C561 C563 1.419 . S
C562 C560 1.415 . S
C562 C567 1.425 . S
C562 C569 1.409 . S
C563 H555 0.930 . S
C563 C561 1.419 . S
C563 C564 1.362 . S
C564 H556 0.930 . S
C564 C563 1.362 . S
C564 C567 1.409 . S
C565 H557 0.930 . S
C565 C566 1.355 . S
C565 C567 1.415 . S
C566 C565 1.355 . S
C566 C568 1.419 . S
C567 C562 1.425 . S
C567 C564 1.409 . S
C567 C565 1.415 . S
C568 H558 0.930 . S
C568 C566 1.419 . S
C568 C569 1.362 . S
C569 H559 0.930 . S
C569 C562 1.409 . S
C569 C568 1.362 . S
H570 C576 0.930 . S
H571 C579 0.930 . S
H572 C580 0.930 . S
H573 C581 0.930 . S
H574 C584 0.930 . S
H575 C585 0.930 . S
C576 H570 0.930 . S
C576 C577 1.355 . S
C576 C578 1.415 . S
C577 C576 1.355 . S
C577 C579 1.419 . S
C578 C576 1.415 . S
C578 C583 1.425 . S
C578 C585 1.409 . S
C579 H571 0.930 . S
C579 C577 1.419 . S
C579 C580 1.362 . S
C580 H572 0.930 . S
C580 C579 1.362 . S
C580 C583 1.409 . S
C581 H573 0.930 . S
C581 C582 1.355 . S
C581 C583 1.415 1_455 S
C582 C581 1.355 . S
C582 C584 1.419 . S
C583 C578 1.425 . S
C583 C580 1.409 . S
C583 C581 1.415 1_655 S
C584 H574 0.930 . S
C584 C582 1.419 . S
C584 C585 1.362 1_455 S
C585 H575 0.930 . S
C585 C578 1.409 . S
C585 C584 1.362 1_655 S
H586 C592 0.930 . S
H587 C595 0.930 . S
H588 C596 0.930 . S
H589 C597 0.930 . S
H590 C600 0.930 . S
H591 C601 0.930 . S
C592 H586 0.930 . S
C592 C593 1.355 . S
C592 C594 1.415 . S
C593 C592 1.355 . S
C593 C595 1.419 . S
C594 C592 1.415 . S
C594 C599 1.425 . S
C594 C601 1.409 . S
C595 H587 0.930 . S
C595 C593 1.419 . S
C595 C596 1.362 . S
C596 H588 0.930 . S
C596 C595 1.362 . S
C596 C599 1.409 . S
C597 H589 0.930 . S
C597 C598 1.355 . S
C597 C599 1.415 . S
C598 C597 1.355 . S
C598 C600 1.419 . S
C599 C594 1.425 . S
C599 C596 1.409 . S
C599 C597 1.415 . S
C600 H590 0.930 . S
C600 C598 1.419 . S
C600 C601 1.362 . S
C601 H591 0.930 . S
C601 C594 1.409 . S
C601 C600 1.362 . S
H602 C608 0.930 . S
H603 C611 0.930 . S
H604 C612 0.930 1_565 S
H605 C613 0.930 . S
H606 C616 0.930 . S
H607 C617 0.930 . S
C608 H602 0.930 . S
C608 C609 1.355 . S
C608 C610 1.415 . S
C609 C608 1.355 . S
C609 C611 1.419 . S
C610 C608 1.415 . S
C610 C615 1.425 1_545 S
C610 C617 1.409 . S
C611 H603 0.930 . S
C611 C609 1.419 . S
C611 C612 1.362 . S
C612 H604 0.930 1_545 S
C612 C611 1.362 . S
C612 C615 1.409 1_545 S
C613 H605 0.930 . S
C613 C614 1.355 . S
C613 C615 1.415 . S
C614 C613 1.355 . S
C614 C616 1.419 . S
C615 C610 1.425 1_565 S
C615 C612 1.409 1_565 S
C615 C613 1.415 . S
C616 H606 0.930 . S
C616 C614 1.419 . S
C616 C617 1.362 1_565 S
C617 H607 0.930 . S
C617 C610 1.409 . S
C617 C616 1.362 1_545 S
H618 C624 0.930 . S
H619 C627 0.930 . S
H620 C628 0.930 . S
H621 C629 0.930 . S
H622 C632 0.930 . S
H623 C633 0.930 . S
C624 H618 0.930 . S
C624 C625 1.355 . S
C624 C626 1.415 . S
C625 C624 1.355 . S
C625 C627 1.419 . S
C626 C624 1.415 . S
C626 C631 1.425 . S
C626 C633 1.409 . S
C627 H619 0.930 . S
C627 C625 1.419 . S
C627 C628 1.362 . S
C628 H620 0.930 . S
C628 C627 1.362 . S
C628 C631 1.409 . S
C629 H621 0.930 . S
C629 C630 1.355 . S
C629 C631 1.415 . S
C630 C629 1.355 . S
C630 C632 1.419 . S
C631 C626 1.425 . S
C631 C628 1.409 . S
C631 C629 1.415 . S
C632 H622 0.930 . S
C632 C630 1.419 . S
C632 C633 1.362 . S
C633 H623 0.930 . S
C633 C626 1.409 . S
C633 C632 1.362 . S
H634 C640 0.930 . S
H635 C643 0.930 . S
H636 C644 0.930 . S
H637 C645 0.930 . S
H638 C648 0.930 . S
H639 C649 0.930 . S
C640 H634 0.930 . S
C640 C641 1.355 . S
C640 C642 1.415 . S
C641 C640 1.355 . S
C641 C643 1.419 . S
C642 C640 1.415 . S
C642 C647 1.425 . S
C642 C649 1.409 . S
C643 H635 0.930 . S
C643 C641 1.419 . S
C643 C644 1.362 . S
C644 H636 0.930 . S
C644 C643 1.362 . S
C644 C647 1.409 . S
C645 H637 0.930 . S
C645 C646 1.355 . S
C645 C647 1.415 . S
C646 C645 1.355 . S
C646 C648 1.419 . S
C647 C642 1.425 . S
C647 C644 1.409 . S
C647 C645 1.415 . S
C648 H638 0.930 . S
C648 C646 1.419 . S
C648 C649 1.362 . S
C649 H639 0.930 . S
C649 C642 1.409 . S
C649 C648 1.362 . S
H650 C656 0.930 . S
H651 C659 0.930 . S
H652 C660 0.930 . S
H653 C661 0.930 . S
H654 C664 0.930 . S
H655 C665 0.930 . S
C656 H650 0.930 . S
C656 C657 1.355 . S
C656 C658 1.415 . S
C657 C656 1.355 . S
C657 C659 1.419 . S
C658 C656 1.415 . S
C658 C663 1.425 . S
C658 C665 1.409 . S
C659 H651 0.930 . S
C659 C657 1.419 . S
C659 C660 1.362 . S
C660 H652 0.930 . S
C660 C659 1.362 . S
C660 C663 1.409 . S
C661 H653 0.930 . S
C661 C662 1.355 . S
C661 C663 1.415 . S
C662 C661 1.355 . S
C662 C664 1.419 . S
C663 C658 1.425 . S
C663 C660 1.409 . S
C663 C661 1.415 . S
C664 H654 0.930 . S
C664 C662 1.419 . S
C664 C665 1.362 . S
C665 H655 0.930 . S
C665 C658 1.409 . S
C665 C664 1.362 . S
H666 C672 0.930 . S
H667 C675 0.930 . S
H668 C676 0.930 . S
H669 C677 0.930 . S
H670 C680 0.930 . S
H671 C681 0.930 . S
C672 H666 0.930 . S
C672 C673 1.355 . S
C672 C674 1.415 . S
C673 C672 1.355 . S
C673 C675 1.419 . S
C674 C672 1.415 . S
C674 C679 1.425 . S
C674 C681 1.409 . S
C675 H667 0.930 . S
C675 C673 1.419 . S
C675 C676 1.362 . S
C676 H668 0.930 . S
C676 C675 1.362 . S
C676 C679 1.409 . S
C677 H669 0.930 . S
C677 C678 1.355 . S
C677 C679 1.415 . S
C678 C677 1.355 . S
C678 C680 1.419 . S
C679 C674 1.425 . S
C679 C676 1.409 . S
C679 C677 1.415 . S
C680 H670 0.930 . S
C680 C678 1.419 . S
C680 C681 1.362 . S
C681 H671 0.930 . S
C681 C674 1.409 . S
C681 C680 1.362 . S
H682 C688 0.930 . S
H683 C691 0.930 . S
H684 C692 0.930 . S
H685 C693 0.930 . S
H686 C696 0.930 . S
H687 C697 0.930 . S
C688 H682 0.930 . S
C688 C689 1.355 . S
C688 C690 1.415 . S
C689 C688 1.355 . S
C689 C691 1.419 . S
C690 C688 1.415 . S
C690 C695 1.425 . S
C690 C697 1.409 . S
C691 H683 0.930 . S
C691 C689 1.419 . S
C691 C692 1.362 . S
C692 H684 0.930 . S
C692 C691 1.362 . S
C692 C695 1.409 . S
C693 H685 0.930 . S
C693 C694 1.355 . S
C693 C695 1.415 . S
C694 C693 1.355 . S
C694 C696 1.419 . S
C695 C690 1.425 . S
C695 C692 1.409 . S
C695 C693 1.415 . S
C696 H686 0.930 . S
C696 C694 1.419 . S
C696 C697 1.362 . S
C697 H687 0.930 . S
C697 C690 1.409 . S
C697 C696 1.362 . S
H698 C704 0.930 . S
H699 C707 0.930 . S
H700 C708 0.930 . S
H701 C709 0.930 . S
H702 C712 0.930 . S
H703 C713 0.930 . S
C704 H698 0.930 . S
C704 C705 1.355 . S
C704 C706 1.415 . S
C705 C704 1.355 . S
C705 C707 1.419 . S
C706 C704 1.415 . S
C706 C711 1.425 . S
C706 C713 1.409 . S
C707 H699 0.930 . S
C707 C705 1.419 . S
C707 C708 1.362 . S
C708 H700 0.930 . S
C708 C707 1.362 . S
C708 C711 1.409 . S
C709 H701 0.930 . S
C709 C710 1.355 . S
C709 C711 1.415 . S
C710 C709 1.355 . S
C710 C712 1.419 . S
C711 C706 1.425 . S
C711 C708 1.409 . S
C711 C709 1.415 . S
C712 H702 0.930 . S
C712 C710 1.419 . S
C712 C713 1.362 . S
C713 H703 0.930 . S
C713 C706 1.409 . S
C713 C712 1.362 . S
H714 C720 0.930 1_545 S
H715 C723 0.930 . S
H716 C724 0.930 . S
H717 C725 0.930 . S
H718 C728 0.930 . S
H719 C729 0.930 . S
C720 H714 0.930 1_565 S
C720 C721 1.355 1_565 S
C720 C722 1.415 . S
C721 C720 1.355 1_545 S
C721 C723 1.419 . S
C722 C720 1.415 . S
C722 C727 1.425 . S
C722 C729 1.409 . S
C723 H715 0.930 . S
C723 C721 1.419 . S
C723 C724 1.362 1_545 S
C724 H716 0.930 . S
C724 C723 1.362 1_565 S
C724 C727 1.409 . S
C725 H717 0.930 . S
C725 C726 1.355 . S
C725 C727 1.415 . S
C726 C725 1.355 . S
C726 C728 1.419 . S
C727 C722 1.425 . S
C727 C724 1.409 . S
C727 C725 1.415 . S
C728 H718 0.930 . S
C728 C726 1.419 . S
C728 C729 1.362 . S
C729 H719 0.930 . S
C729 C722 1.409 . S
C729 C728 1.362 . S
H730 C736 0.916 1_655 S
H731 C739 0.930 . S
H732 C740 0.930 . S
H733 C741 0.930 . S
H734 C744 0.930 . S
H735 C745 0.930 . S
C736 H730 0.916 1_455 S
C736 C737 1.349 1_455 S
C736 C738 1.434 . S
C737 C736 1.349 1_655 S
C737 C739 1.419 . S
C738 C736 1.434 . S
C738 C743 1.425 . S
C738 C745 1.409 . S
C739 H731 0.930 . S
C739 C737 1.419 . S
C739 C740 1.362 1_655 S
C740 H732 0.930 . S
C740 C739 1.362 1_455 S
C740 C743 1.409 . S
C741 H733 0.930 . S
C741 C742 1.355 . S
C741 C743 1.415 . S
C742 C741 1.355 . S
C742 C744 1.419 . S
C743 C738 1.425 . S
C743 C740 1.409 . S
C743 C741 1.415 . S
C744 H734 0.930 . S
C744 C742 1.419 . S
C744 C745 1.362 . S
C745 H735 0.930 . S
C745 C738 1.409 . S
C745 C744 1.362 . S
H746 C752 0.930 . S
H747 C755 0.930 . S
H748 C756 0.930 . S
H749 C757 0.930 . S
H750 C760 0.930 . S
H751 C761 0.930 . S
C752 H746 0.930 . S
C752 C753 1.355 . S
C752 C754 1.415 . S
C753 C752 1.355 . S
C753 C755 1.419 . S
C754 C752 1.415 . S
C754 C759 1.425 . S
C754 C761 1.409 . S
C755 H747 0.930 . S
C755 C753 1.419 . S
C755 C756 1.362 . S
C756 H748 0.930 . S
C756 C755 1.362 . S
C756 C759 1.409 . S
C757 H749 0.930 . S
C757 C758 1.355 . S
C757 C759 1.415 . S
C758 C757 1.355 . S
C758 C760 1.419 . S
C759 C754 1.425 . S
C759 C756 1.409 . S
C759 C757 1.415 . S
C760 H750 0.930 . S
C760 C758 1.419 . S
C760 C761 1.362 . S
C761 H751 0.930 . S
C761 C754 1.409 . S
C761 C760 1.362 . S
H762 C768 0.930 . S
H763 C771 0.930 . S
H764 C772 0.930 . S
H765 C773 0.930 . S
H766 C776 0.930 . S
H767 C777 0.930 . S
C768 H762 0.930 . S
C768 C769 1.355 . S
C768 C770 1.415 . S
C769 C768 1.355 . S
C769 C771 1.419 . S
C770 C768 1.415 . S
C770 C775 1.425 . S
C770 C777 1.409 . S
C771 H763 0.930 . S
C771 C769 1.419 . S
C771 C772 1.362 . S
C772 H764 0.930 . S
C772 C771 1.362 . S
C772 C775 1.409 . S
C773 H765 0.930 . S
C773 C774 1.355 . S
C773 C775 1.415 . S
C774 C773 1.355 . S
C774 C776 1.419 . S
C775 C770 1.425 . S
C775 C772 1.409 . S
C775 C773 1.415 . S
C776 H766 0.930 . S
C776 C774 1.419 . S
C776 C777 1.362 . S
C777 H767 0.930 . S
C777 C770 1.409 . S
C777 C776 1.362 . S
H778 C784 0.930 . S
H779 C787 0.930 . S
H780 C788 0.930 . S
H781 C789 0.930 . S
H782 C792 0.930 . S
H783 C793 0.930 . S
C784 H778 0.930 . S
C784 C785 1.355 . S
C784 C786 1.415 . S
C785 C784 1.355 . S
C785 C787 1.419 . S
C786 C784 1.415 . S
C786 C791 1.425 . S
C786 C793 1.409 . S
C787 H779 0.930 . S
C787 C785 1.419 . S
C787 C788 1.362 . S
C788 H780 0.930 . S
C788 C787 1.362 . S
C788 C791 1.409 . S
C789 H781 0.930 . S
C789 C790 1.355 . S
C789 C791 1.415 . S
C790 C789 1.355 . S
C790 C792 1.419 . S
C791 C786 1.425 . S
C791 C788 1.409 . S
C791 C789 1.415 . S
C792 H782 0.930 . S
C792 C790 1.419 . S
C792 C793 1.362 . S
C793 H783 0.930 . S
C793 C786 1.409 . S
C793 C792 1.362 . S
H794 C800 0.930 . S
H795 C803 0.930 . S
H796 C804 0.930 . S
H797 C805 0.930 . S
H798 C808 0.930 . S
H799 C809 0.930 . S
C800 H794 0.930 . S
C800 C801 1.355 . S
C800 C802 1.415 . S
C801 C800 1.355 . S
C801 C803 1.419 . S
C802 C800 1.415 . S
C802 C807 1.425 . S
C802 C809 1.409 . S
C803 H795 0.930 . S
C803 C801 1.419 . S
C803 C804 1.362 . S
C804 H796 0.930 . S
C804 C803 1.362 . S
C804 C807 1.409 . S
C805 H797 0.930 . S
C805 C806 1.355 . S
C805 C807 1.415 . S
C806 C805 1.355 . S
C806 C808 1.419 . S
C807 C802 1.425 . S
C807 C804 1.409 . S
C807 C805 1.415 . S
C808 H798 0.930 . S
C808 C806 1.419 . S
C808 C809 1.362 . S
C809 H799 0.930 . S
C809 C802 1.409 . S
C809 C808 1.362 . S
H810 C816 0.930 . S
H811 C819 0.930 . S
H812 C820 0.930 1_545 S
H813 C821 0.930 . S
H814 C824 0.930 . S
H815 C825 0.930 1_565 S
C816 H810 0.930 . S
C816 C817 1.355 . S
C816 C818 1.415 . S
C817 C816 1.355 . S
C817 C819 1.419 . S
C818 C816 1.415 . S
C818 C823 1.425 1_565 S
C818 C825 1.409 1_565 S
C819 H811 0.930 . S
C819 C817 1.419 . S
C819 C820 1.362 . S
C820 H812 0.930 1_565 S
C820 C819 1.362 . S
C820 C823 1.409 1_565 S
C821 H813 0.930 . S
C821 C822 1.355 . S
C821 C823 1.415 . S
C822 C821 1.355 . S
C822 C824 1.419 . S
C823 C818 1.425 1_545 S
C823 C820 1.409 1_545 S
C823 C821 1.415 . S
C824 H814 0.930 . S
C824 C822 1.419 . S
C824 C825 1.362 . S
C825 H815 0.930 1_545 S
C825 C818 1.409 1_545 S
C825 C824 1.362 . S
H826 C832 0.930 . S
H827 C835 0.930 . S
H828 C836 0.930 . S
H829 C837 0.930 . S
H830 C840 0.930 . S
H831 C841 0.930 . S
C832 H826 0.930 . S
C832 C833 1.355 . S
C832 C834 1.415 . S
C833 C832 1.355 . S
C833 C835 1.419 . S
C834 C832 1.415 . S
C834 C839 1.425 . S
C834 C841 1.409 1_455 S
C835 H827 0.930 . S
C835 C833 1.419 . S
C835 C836 1.362 . S
C836 H828 0.930 . S
C836 C835 1.362 . S
C836 C839 1.409 . S
C837 H829 0.930 . S
C837 C838 1.355 . S
C837 C839 1.415 1_655 S
C838 C837 1.355 . S
C838 C840 1.419 . S
C839 C834 1.425 . S
C839 C836 1.409 . S
C839 C837 1.415 1_455 S
C840 H830 0.930 . S
C840 C838 1.419 . S
C840 C841 1.362 . S
C841 H831 0.930 . S
C841 C834 1.409 1_655 S
C841 C840 1.362 . S
H842 C848 0.930 . S
H843 C851 0.930 . S
H844 C852 0.930 . S
H845 C853 0.930 . S
H846 C856 0.930 . S
H847 C857 0.930 . S
C848 H842 0.930 . S
C848 C849 1.355 . S
C848 C850 1.415 . S
C849 C848 1.355 . S
C849 C851 1.419 . S
C850 C848 1.415 . S
C850 C855 1.425 . S
C850 C857 1.409 . S
C851 H843 0.930 . S
C851 C849 1.419 . S
C851 C852 1.362 . S
C852 H844 0.930 . S
C852 C851 1.362 . S
C852 C855 1.409 . S
C853 H845 0.930 . S
C853 C854 1.355 . S
C853 C855 1.415 . S
C854 C853 1.355 . S
C854 C856 1.419 . S
C855 C850 1.425 . S
C855 C852 1.409 . S
C855 C853 1.415 . S
C856 H846 0.930 . S
C856 C854 1.419 . S
C856 C857 1.362 . S
C857 H847 0.930 . S
C857 C850 1.409 . S
C857 C856 1.362 . S
H858 C864 0.930 . S
H859 C867 0.930 . S
H860 C868 0.941 1_655 S
H861 C869 0.930 . S
H862 C872 0.930 . S
H863 C873 0.930 . S
C864 H858 0.930 . S
C864 C865 1.355 . S
C864 C866 1.415 1_455 S
C865 C864 1.355 . S
C865 C867 1.419 . S
C866 C864 1.415 1_655 S
C866 C871 1.425 . S
C866 C873 1.409 . S
C867 H859 0.930 . S
C867 C865 1.419 . S
C867 C868 1.390 . S
C868 H860 0.941 1_455 S
C868 C867 1.390 . S
C868 C871 1.372 1_455 S
C869 H861 0.930 . S
C869 C870 1.355 . S
C869 C871 1.415 . S
C870 C869 1.355 . S
C870 C872 1.419 . S
C871 C866 1.425 . S
C871 C868 1.372 1_655 S
C871 C869 1.415 . S
C872 H862 0.930 . S
C872 C870 1.419 . S
C872 C873 1.362 . S
C873 H863 0.930 . S
C873 C866 1.409 . S
C873 C872 1.362 . S
H874 C880 0.930 . S
H875 C883 0.930 . S
H876 C884 0.930 . S
H877 C885 0.930 . S
H878 C888 0.930 . S
H879 C889 0.930 . S
C880 H874 0.930 . S
C880 C881 1.355 . S
C880 C882 1.415 . S
C881 C880 1.355 . S
C881 C883 1.419 . S
C882 C880 1.415 . S
C882 C887 1.425 . S
C882 C889 1.409 . S
C883 H875 0.930 . S
C883 C881 1.419 . S
C883 C884 1.362 . S
C884 H876 0.930 . S
C884 C883 1.362 . S
C884 C887 1.409 . S
C885 H877 0.930 . S
C885 C886 1.355 . S
C885 C887 1.415 . S
C886 C885 1.355 . S
C886 C888 1.419 . S
C887 C882 1.425 . S
C887 C884 1.409 . S
C887 C885 1.415 . S
C888 H878 0.930 . S
C888 C886 1.419 . S
C888 C889 1.362 . S
C889 H879 0.930 . S
C889 C882 1.409 . S
C889 C888 1.362 . S
H890 C896 0.930 1_565 S
H891 C899 0.930 . S
H892 C900 0.930 . S
H893 C901 0.930 . S
H894 C904 0.930 . S
H895 C905 0.930 . S
C896 H890 0.930 1_545 S
C896 C897 1.355 1_545 S
C896 C898 1.415 . S
C897 C896 1.355 1_565 S
C897 C899 1.419 . S
C898 C896 1.415 . S
C898 C903 1.425 . S
C898 C905 1.409 . S
C899 H891 0.930 . S
C899 C897 1.419 . S
C899 C900 1.362 1_565 S
C900 H892 0.930 . S
C900 C899 1.362 1_545 S
C900 C903 1.409 . S
C901 H893 0.930 . S
C901 C902 1.355 . S
C901 C903 1.415 . S
C902 C901 1.355 . S
C902 C904 1.419 . S
C903 C898 1.425 . S
C903 C900 1.409 . S
C903 C901 1.415 . S
C904 H894 0.930 . S
C904 C902 1.419 . S
C904 C905 1.362 . S
C905 H895 0.930 . S
C905 C898 1.409 . S
C905 C904 1.362 . S
H906 C912 0.930 . S
H907 C915 0.930 . S
H908 C916 0.930 . S
H909 C917 0.930 . S
H910 C920 0.930 . S
H911 C921 0.930 . S
C912 H906 0.930 . S
C912 C913 1.355 . S
C912 C914 1.415 . S
C913 C912 1.355 . S
C913 C915 1.419 . S
C914 C912 1.415 . S
C914 C919 1.425 . S
C914 C921 1.409 . S
C915 H907 0.930 . S
C915 C913 1.419 . S
C915 C916 1.362 . S
C916 H908 0.930 . S
C916 C915 1.362 . S
C916 C919 1.409 . S
C917 H909 0.930 . S
C917 C918 1.355 . S
C917 C919 1.415 . S
C918 C917 1.355 . S
C918 C920 1.419 . S
C919 C914 1.425 . S
C919 C916 1.409 . S
C919 C917 1.415 . S
C920 H910 0.930 . S
C920 C918 1.419 . S
C920 C921 1.362 . S
C921 H911 0.930 . S
C921 C914 1.409 . S
C921 C920 1.362 . S
H922 C928 0.930 . S
H923 C931 0.930 . S
H924 C932 0.930 . S
H925 C933 0.930 . S
H926 C936 0.930 . S
H927 C937 0.930 . S
C928 H922 0.930 . S
C928 C929 1.355 . S
C928 C930 1.415 . S
C929 C928 1.355 . S
C929 C931 1.419 . S
C930 C928 1.415 . S
C930 C935 1.425 . S
C930 C937 1.409 . S
C931 H923 0.930 . S
C931 C929 1.419 . S
C931 C932 1.362 . S
C932 H924 0.930 . S
C932 C931 1.362 . S
C932 C935 1.409 . S
C933 H925 0.930 . S
C933 C934 1.355 . S
C933 C935 1.415 . S
C934 C933 1.355 . S
C934 C936 1.419 . S
C935 C930 1.425 . S
C935 C932 1.409 . S
C935 C933 1.415 . S
C936 H926 0.930 . S
C936 C934 1.419 . S
C936 C937 1.362 . S
C937 H927 0.930 . S
C937 C930 1.409 . S
C937 C936 1.362 . S
H938 C944 0.930 . S
H939 C947 0.930 . S
H940 C948 0.930 . S
H941 C949 0.930 . S
H942 C952 0.930 . S
H943 C953 0.930 . S
C944 H938 0.930 . S
C944 C945 1.355 . S
C944 C946 1.415 . S
C945 C944 1.355 . S
C945 C947 1.419 . S
C946 C944 1.415 . S
C946 C951 1.425 . S
C946 C953 1.409 . S
C947 H939 0.930 . S
C947 C945 1.419 . S
C947 C948 1.362 . S
C948 H940 0.930 . S
C948 C947 1.362 . S
C948 C951 1.409 . S
C949 H941 0.930 . S
C949 C950 1.355 . S
C949 C951 1.415 . S
C950 C949 1.355 . S
C950 C952 1.419 . S
C951 C946 1.425 . S
C951 C948 1.409 . S
C951 C949 1.415 . S
C952 H942 0.930 . S
C952 C950 1.419 . S
C952 C953 1.362 . S
C953 H943 0.930 . S
C953 C946 1.409 . S
C953 C952 1.362 . S
H954 C960 0.930 . S
H955 C963 0.930 . S
H956 C964 0.930 . S
H957 C965 0.930 . S
H958 C968 0.928 1_545 S
H959 C969 0.930 1_545 S
C960 H954 0.930 . S
C960 C961 1.355 . S
C960 C962 1.415 . S
C961 C960 1.355 . S
C961 C963 1.419 . S
C962 C960 1.415 . S
C962 C967 1.425 . S
C962 C969 1.409 . S
C963 H955 0.930 . S
C963 C961 1.419 . S
C963 C964 1.362 . S
C964 H956 0.930 . S
C964 C963 1.362 . S
C964 C967 1.409 . S
C965 H957 0.930 . S
C965 C966 1.355 . S
C965 C967 1.415 . S
C966 C965 1.355 . S
C966 C968 1.420 . S
C967 C962 1.425 . S
C967 C964 1.409 . S
C967 C965 1.415 . S
C968 H958 0.928 1_565 S
C968 C966 1.420 . S
C968 C969 1.363 . S
C969 H959 0.930 1_565 S
C969 C962 1.409 . S
C969 C968 1.363 . S
H970 C976 0.930 . S
H971 C979 0.930 . S
H972 C980 0.930 . S
H973 C981 0.930 . S
H974 C984 0.930 1_655 S
H975 C985 0.930 . S
C976 H970 0.930 . S
C976 C977 1.355 . S
C976 C978 1.415 . S
C977 C976 1.355 . S
C977 C979 1.419 . S
C978 C976 1.415 . S
C978 C983 1.425 . S
C978 C985 1.409 . S
C979 H971 0.930 . S
C979 C977 1.419 . S
C979 C980 1.362 . S
C980 H972 0.930 . S
C980 C979 1.362 . S
C980 C983 1.409 . S
C981 H973 0.930 . S
C981 C982 1.355 . S
C981 C983 1.415 . S
C982 C981 1.355 . S
C982 C984 1.419 . S
C983 C978 1.425 . S
C983 C980 1.409 . S
C983 C981 1.415 . S
C984 H974 0.930 1_455 S
C984 C982 1.419 . S
C984 C985 1.362 . S
C985 H975 0.930 . S
C985 C978 1.409 . S
C985 C984 1.362 . S
H986 C992 0.930 . S
H987 C995 0.930 . S
H988 C996 0.930 . S
H989 C997 0.930 . S
H990 C1000 0.930 . S
H991 C1001 0.930 . S
C992 H986 0.930 . S
C992 C993 1.355 . S
C992 C994 1.415 . S
C993 C992 1.355 . S
C993 C995 1.419 . S
C994 C992 1.415 . S
C994 C999 1.425 . S
C994 C1001 1.409 . S
C995 H987 0.930 . S
C995 C993 1.419 . S
C995 C996 1.362 . S
C996 H988 0.930 . S
C996 C995 1.362 . S
C996 C999 1.409 . S
C997 H989 0.930 . S
C997 C998 1.355 . S
C997 C999 1.415 . S
C998 C997 1.355 . S
C998 C1000 1.419 . S
C999 C994 1.425 . S
C999 C996 1.409 . S
C999 C997 1.415 . S
C1000 H990 0.930 . S
C1000 C998 1.419 . S
C1000 C1001 1.362 . S
C1001 H991 0.930 . S
C1001 C994 1.409 . S
C1001 C1000 1.362 . S
H1002 C1008 0.930 . S
H1003 C1011 0.930 . S
H1004 C1012 0.930 . S
H1005 C1013 0.930 . S
H1006 C1016 0.930 . S
H1007 C1017 0.930 . S
C1008 H1002 0.930 . S
C1008 C1009 1.355 . S
C1008 C1010 1.415 . S
C1009 C1008 1.355 . S
C1009 C1011 1.419 . S
C1010 C1008 1.415 . S
C1010 C1015 1.425 . S
C1010 C1017 1.409 . S
C1011 H1003 0.930 . S
C1011 C1009 1.419 . S
C1011 C1012 1.362 . S
C1012 H1004 0.930 . S
C1012 C1011 1.362 . S
C1012 C1015 1.409 . S
C1013 H1005 0.930 . S
C1013 C1014 1.355 . S
C1013 C1015 1.415 . S
C1014 C1013 1.355 . S
C1014 C1016 1.419 . S
C1015 C1010 1.425 . S
C1015 C1012 1.409 . S
C1015 C1013 1.415 . S
C1016 H1006 0.930 . S
C1016 C1014 1.419 . S
C1016 C1017 1.362 . S
C1017 H1007 0.930 . S
C1017 C1010 1.409 . S
C1017 C1016 1.362 . S
H1018 C1024 0.930 . S
H1019 C1027 0.930 . S
H1020 C1028 0.930 . S
H1021 C1029 0.930 . S
H1022 C1032 0.930 . S
H1023 C1033 0.930 . S
C1024 H1018 0.930 . S
C1024 C1025 1.355 . S
C1024 C1026 1.415 . S
C1025 C1024 1.355 . S
C1025 C1027 1.419 . S
C1026 C1024 1.415 . S
C1026 C1031 1.425 . S
C1026 C1033 1.409 . S
C1027 H1019 0.930 . S
C1027 C1025 1.419 . S
C1027 C1028 1.362 . S
C1028 H1020 0.930 . S
C1028 C1027 1.362 . S
C1028 C1031 1.409 . S
C1029 H1021 0.930 . S
C1029 C1030 1.355 . S
C1029 C1031 1.415 . S
C1030 C1029 1.355 . S
C1030 C1032 1.419 . S
C1031 C1026 1.425 . S
C1031 C1028 1.409 . S
C1031 C1029 1.415 . S
C1032 H1022 0.930 . S
C1032 C1030 1.419 . S
C1032 C1033 1.362 . S
C1033 H1023 0.930 . S
C1033 C1026 1.409 . S
C1033 C1032 1.362 . S
H1034 C1040 0.930 . S
H1035 C1043 0.930 . S
H1036 C1044 0.930 . S
H1037 C1045 0.930 . S
H1038 C1048 0.914 1_565 S
H1039 C1049 0.930 1_565 S
C1040 H1034 0.930 . S
C1040 C1041 1.355 . S
C1040 C1042 1.415 . S
C1041 C1040 1.355 . S
C1041 C1043 1.419 . S
C1042 C1040 1.415 . S
C1042 C1047 1.425 . S
C1042 C1049 1.409 . S
C1043 H1035 0.930 . S
C1043 C1041 1.419 . S
C1043 C1044 1.362 . S
C1044 H1036 0.930 . S
C1044 C1043 1.362 . S
C1044 C1047 1.409 . S
C1045 H1037 0.930 . S
C1045 C1046 1.355 . S
C1045 C1047 1.415 . S
C1046 C1045 1.355 . S
C1046 C1048 1.434 . S
C1047 C1042 1.425 . S
C1047 C1044 1.409 . S
C1047 C1045 1.415 . S
C1048 H1038 0.914 1_545 S
C1048 C1046 1.434 . S
C1048 C1049 1.364 . S
C1049 H1039 0.930 1_545 S
C1049 C1042 1.409 . S
C1049 C1048 1.364 . S
H1050 C1056 0.930 . S
H1051 C1059 0.930 . S
H1052 C1060 0.930 . S
H1053 C1061 0.930 . S
H1054 C1064 0.930 . S
H1055 C1065 0.930 . S
C1056 H1050 0.930 . S
C1056 C1057 1.355 . S
C1056 C1058 1.415 . S
C1057 C1056 1.355 . S
C1057 C1059 1.419 . S
C1058 C1056 1.415 . S
C1058 C1063 1.425 . S
C1058 C1065 1.409 . S
C1059 H1051 0.930 . S
C1059 C1057 1.419 . S
C1059 C1060 1.362 . S
C1060 H1052 0.930 . S
C1060 C1059 1.362 . S
C1060 C1063 1.409 . S
C1061 H1053 0.930 . S
C1061 C1062 1.355 . S
C1061 C1063 1.415 . S
C1062 C1061 1.355 . S
C1062 C1064 1.419 . S
C1063 C1058 1.425 . S
C1063 C1060 1.409 . S
C1063 C1061 1.415 . S
C1064 H1054 0.930 . S
C1064 C1062 1.419 . S
C1064 C1065 1.362 . S
C1065 H1055 0.930 . S
C1065 C1058 1.409 . S
C1065 C1064 1.362 . S
H1066 C1072 0.930 . S
H1067 C1075 0.930 . S
H1068 C1076 0.930 . S
H1069 C1077 0.930 . S
H1070 C1080 0.930 . S
H1071 C1081 0.930 . S
C1072 H1066 0.930 . S
C1072 C1073 1.355 . S
C1072 C1074 1.415 . S
C1073 C1072 1.355 . S
C1073 C1075 1.419 . S
C1074 C1072 1.415 . S
C1074 C1079 1.425 . S
C1074 C1081 1.409 . S
C1075 H1067 0.930 . S
C1075 C1073 1.419 . S
C1075 C1076 1.362 . S
C1076 H1068 0.930 . S
C1076 C1075 1.362 . S
C1076 C1079 1.409 . S
C1077 H1069 0.930 . S
C1077 C1078 1.355 . S
C1077 C1079 1.415 . S
C1078 C1077 1.355 . S
C1078 C1080 1.419 . S
C1079 C1074 1.425 . S
C1079 C1076 1.409 . S
C1079 C1077 1.415 . S
C1080 H1070 0.930 . S
C1080 C1078 1.419 . S
C1080 C1081 1.362 . S
C1081 H1071 0.930 . S
C1081 C1074 1.409 . S
C1081 C1080 1.362 . S
H1082 C1088 0.930 . S
H1083 C1091 0.930 . S
H1084 C1092 0.930 . S
H1085 C1093 0.930 . S
H1086 C1096 0.930 . S
H1087 C1097 0.930 . S
C1088 H1082 0.930 . S
C1088 C1089 1.355 . S
C1088 C1090 1.415 . S
C1089 C1088 1.355 . S
C1089 C1091 1.419 . S
C1090 C1088 1.415 . S
C1090 C1095 1.425 . S
C1090 C1097 1.409 . S
C1091 H1083 0.930 . S
C1091 C1089 1.419 . S
C1091 C1092 1.362 . S
C1092 H1084 0.930 . S
C1092 C1091 1.362 . S
C1092 C1095 1.409 . S
C1093 H1085 0.930 . S
C1093 C1094 1.355 . S
C1093 C1095 1.415 . S
C1094 C1093 1.355 . S
C1094 C1096 1.419 . S
C1095 C1090 1.425 . S
C1095 C1092 1.409 . S
C1095 C1093 1.415 . S
C1096 H1086 0.930 . S
C1096 C1094 1.419 . S
C1096 C1097 1.362 . S
C1097 H1087 0.930 . S
C1097 C1090 1.409 . S
C1097 C1096 1.362 . S
H1098 C1104 0.930 . S
H1099 C1107 0.930 . S
H1100 C1108 0.930 . S
H1101 C1109 0.930 . S
H1102 C1112 0.930 . S
H1103 C1113 0.930 . S
C1104 H1098 0.930 . S
C1104 C1105 1.355 . S
C1104 C1106 1.415 . S
C1105 C1104 1.355 . S
C1105 C1107 1.419 . S
C1106 C1104 1.415 . S
C1106 C1111 1.425 . S
C1106 C1113 1.409 . S
C1107 H1099 0.930 . S
C1107 C1105 1.419 . S
C1107 C1108 1.362 . S
C1108 H1100 0.930 . S
C1108 C1107 1.362 . S
C1108 C1111 1.409 . S
C1109 H1101 0.930 . S
C1109 C1110 1.355 . S
C1109 C1111 1.415 . S
C1110 C1109 1.355 . S
C1110 C1112 1.419 . S
C1111 C1106 1.425 . S
C1111 C1108 1.409 . S
C1111 C1109 1.415 . S
C1112 H1102 0.930 . S
C1112 C1110 1.419 . S
C1112 C1113 1.362 . S
C1113 H1103 0.930 . S
C1113 C1106 1.409 . S
C1113 C1112 1.362 . S
H1114 C1120 0.930 . S
H1115 C1123 0.930 . S
H1116 C1124 0.930 . S
H1117 C1125 0.930 . S
H1118 C1128 0.930 . S
H1119 C1129 0.930 . S
C1120 H1114 0.930 . S
C1120 C1121 1.355 . S
C1120 C1122 1.415 . S
C1121 C1120 1.355 . S
C1121 C1123 1.419 . S
C1122 C1120 1.415 . S
C1122 C1127 1.425 . S
C1122 C1129 1.409 . S
C1123 H1115 0.930 . S
C1123 C1121 1.419 . S
C1123 C1124 1.362 . S
C1124 H1116 0.930 . S
C1124 C1123 1.362 . S
C1124 C1127 1.409 . S
C1125 H1117 0.930 . S
C1125 C1126 1.355 . S
C1125 C1127 1.415 . S
C1126 C1125 1.355 . S
C1126 C1128 1.419 . S
C1127 C1122 1.425 . S
C1127 C1124 1.409 . S
C1127 C1125 1.415 . S
C1128 H1118 0.930 . S
C1128 C1126 1.419 . S
C1128 C1129 1.362 . S
C1129 H1119 0.930 . S
C1129 C1122 1.409 . S
C1129 C1128 1.362 . S
H1130 C1136 0.930 . S
H1131 C1139 0.930 . S
H1132 C1140 0.930 . S
H1133 C1141 0.930 . S
H1134 C1144 0.930 . S
H1135 C1145 0.930 . S
C1136 H1130 0.930 . S
C1136 C1137 1.355 . S
C1136 C1138 1.415 . S
C1137 C1136 1.355 . S
C1137 C1139 1.419 . S
C1138 C1136 1.415 . S
C1138 C1143 1.425 . S
C1138 C1145 1.409 . S
C1139 H1131 0.930 . S
C1139 C1137 1.419 . S
C1139 C1140 1.362 . S
C1140 H1132 0.930 . S
C1140 C1139 1.362 . S
C1140 C1143 1.409 . S
C1141 H1133 0.930 . S
C1141 C1142 1.355 . S
C1141 C1143 1.415 . S
C1142 C1141 1.355 . S
C1142 C1144 1.419 . S
C1143 C1138 1.425 . S
C1143 C1140 1.409 . S
C1143 C1141 1.415 . S
C1144 H1134 0.930 . S
C1144 C1142 1.419 . S
C1144 C1145 1.362 . S
C1145 H1135 0.930 . S
C1145 C1138 1.409 . S
C1145 C1144 1.362 . S
H1146 C1152 0.930 . S
H1147 C1155 0.930 . S
H1148 C1156 0.930 . S
H1149 C1157 0.930 . S
H1150 C1160 0.930 . S
H1151 C1161 0.930 . S
C1152 H1146 0.930 . S
C1152 C1153 1.355 . S
C1152 C1154 1.415 . S
C1153 C1152 1.355 . S
C1153 C1155 1.419 . S
C1154 C1152 1.415 . S
C1154 C1159 1.425 . S
C1154 C1161 1.409 . S
C1155 H1147 0.930 . S
C1155 C1153 1.419 . S
C1155 C1156 1.362 . S
C1156 H1148 0.930 . S
C1156 C1155 1.362 . S
C1156 C1159 1.409 . S
C1157 H1149 0.930 . S
C1157 C1158 1.355 . S
C1157 C1159 1.415 . S
C1158 C1157 1.355 . S
C1158 C1160 1.419 . S
C1159 C1154 1.425 . S
C1159 C1156 1.409 . S
C1159 C1157 1.415 . S
C1160 H1150 0.930 . S
C1160 C1158 1.419 . S
C1160 C1161 1.362 . S
C1161 H1151 0.930 . S
C1161 C1154 1.409 . S
C1161 C1160 1.362 . S
H1162 C1168 0.930 . S
H1163 C1171 0.930 . S
H1164 C1172 0.930 . S
H1165 C1173 0.930 . S
H1166 C1176 0.930 . S
H1167 C1177 0.930 . S
C1168 H1162 0.930 . S
C1168 C1169 1.355 . S
C1168 C1170 1.415 . S
C1169 C1168 1.355 . S
C1169 C1171 1.419 . S
C1170 C1168 1.415 . S
C1170 C1175 1.425 . S
C1170 C1177 1.409 . S
C1171 H1163 0.930 . S
C1171 C1169 1.419 . S
C1171 C1172 1.362 . S
C1172 H1164 0.930 . S
C1172 C1171 1.362 . S
C1172 C1175 1.409 . S
C1173 H1165 0.930 . S
C1173 C1174 1.355 . S
C1173 C1175 1.415 . S
C1174 C1173 1.355 . S
C1174 C1176 1.419 . S
C1175 C1170 1.425 . S
C1175 C1172 1.409 . S
C1175 C1173 1.415 . S
C1176 H1166 0.930 . S
C1176 C1174 1.419 . S
C1176 C1177 1.362 . S
C1177 H1167 0.930 . S
C1177 C1170 1.409 . S
C1177 C1176 1.362 . S
H1178 C1184 0.930 . S
H1179 C1187 0.930 . S
H1180 C1188 0.930 . S
H1181 C1189 0.930 . S
H1182 C1192 0.930 . S
H1183 C1193 0.930 . S
C1184 H1178 0.930 . S
C1184 C1185 1.355 . S
C1184 C1186 1.415 . S
C1185 C1184 1.355 . S
C1185 C1187 1.419 . S
C1186 C1184 1.415 . S
C1186 C1191 1.425 . S
C1186 C1193 1.409 . S
C1187 H1179 0.930 . S
C1187 C1185 1.419 . S
C1187 C1188 1.362 . S
C1188 H1180 0.930 . S
C1188 C1187 1.362 . S
C1188 C1191 1.409 . S
C1189 H1181 0.930 . S
C1189 C1190 1.355 . S
C1189 C1191 1.415 . S
C1190 C1189 1.355 . S
C1190 C1192 1.419 . S
C1191 C1186 1.425 . S
C1191 C1188 1.409 . S
C1191 C1189 1.415 . S
C1192 H1182 0.930 . S
C1192 C1190 1.419 . S
C1192 C1193 1.362 . S
C1193 H1183 0.930 . S
C1193 C1186 1.409 . S
C1193 C1192 1.362 . S
H1194 C1200 0.930 . S
H1195 C1203 0.930 . S
H1196 C1204 0.930 . S
H1197 C1205 0.930 . S
H1198 C1208 0.930 . S
H1199 C1209 0.930 . S
C1200 H1194 0.930 . S
C1200 C1201 1.355 . S
C1200 C1202 1.415 . S
C1201 C1200 1.355 . S
C1201 C1203 1.419 . S
C1202 C1200 1.415 . S
C1202 C1207 1.425 . S
C1202 C1209 1.409 . S
C1203 H1195 0.930 . S
C1203 C1201 1.419 . S
C1203 C1204 1.362 . S
C1204 H1196 0.930 . S
C1204 C1203 1.362 . S
C1204 C1207 1.409 . S
C1205 H1197 0.930 . S
C1205 C1206 1.355 . S
C1205 C1207 1.415 . S
C1206 C1205 1.355 . S
C1206 C1208 1.419 . S
C1207 C1202 1.425 . S
C1207 C1204 1.409 . S
C1207 C1205 1.415 . S
C1208 H1198 0.930 . S
C1208 C1206 1.419 . S
C1208 C1209 1.362 . S
C1209 H1199 0.930 . S
C1209 C1202 1.409 . S
C1209 C1208 1.362 . S
H1210 C1216 0.930 . S
H1211 C1219 0.930 . S
H1212 C1220 0.930 . S
H1213 C1221 0.930 . S
H1214 C1224 0.930 . S
H1215 C1225 0.930 . S
C1216 H1210 0.930 . S
C1216 C1217 1.355 . S
C1216 C1218 1.415 . S
C1217 C1216 1.355 . S
C1217 C1219 1.419 . S
C1218 C1216 1.415 . S
C1218 C1223 1.425 . S
C1218 C1225 1.409 . S
C1219 H1211 0.930 . S
C1219 C1217 1.419 . S
C1219 C1220 1.362 . S
C1220 H1212 0.930 . S
C1220 C1219 1.362 . S
C1220 C1223 1.409 . S
C1221 H1213 0.930 . S
C1221 C1222 1.355 . S
C1221 C1223 1.415 . S
C1222 C1221 1.355 . S
C1222 C1224 1.419 . S
C1223 C1218 1.425 . S
C1223 C1220 1.409 . S
C1223 C1221 1.415 . S
C1224 H1214 0.930 . S
C1224 C1222 1.419 . S
C1224 C1225 1.362 . S
C1225 H1215 0.930 . S
C1225 C1218 1.409 . S
C1225 C1224 1.362 . S
H1226 C1232 0.930 . S
H1227 C1235 0.930 . S
H1228 C1236 0.930 . S
H1229 C1237 0.930 . S
H1230 C1240 0.930 . S
H1231 C1241 0.930 . S
C1232 H1226 0.930 . S
C1232 C1233 1.355 . S
C1232 C1234 1.415 . S
C1233 C1232 1.355 . S
C1233 C1235 1.419 . S
C1234 C1232 1.415 . S
C1234 C1239 1.425 . S
C1234 C1241 1.409 . S
C1235 H1227 0.930 . S
C1235 C1233 1.419 . S
C1235 C1236 1.362 . S
C1236 H1228 0.930 . S
C1236 C1235 1.362 . S
C1236 C1239 1.409 . S
C1237 H1229 0.930 . S
C1237 C1238 1.355 . S
C1237 C1239 1.415 . S
C1238 C1237 1.355 . S
C1238 C1240 1.419 . S
C1239 C1234 1.425 . S
C1239 C1236 1.409 . S
C1239 C1237 1.415 . S
C1240 H1230 0.930 . S
C1240 C1238 1.419 . S
C1240 C1241 1.362 . S
C1241 H1231 0.930 . S
C1241 C1234 1.409 . S
C1241 C1240 1.362 . S
C385 C147 1.546 . S
C390 C204 1.522 . S
C401 C158 1.487 . S
C406 C224 1.453 . S
C417 C136 1.520 . S
C422 C247 1.523 . S
C433 C125 1.431 . S
C438 C227 1.438 . S
C454 C244 1.418 . S
C449 C103 1.448 . S
C465 C114 1.489 . S
C470 C207 1.483 1_556 S
C486 C214 1.527 . S
C481 C131 1.558 . S
C502 C234 1.452 . S
C497 C109 1.464 . S
C513 C120 1.546 . S
C518 C239 1.544 1_556 S
C529 C153 1.458 . S
C534 C219 1.479 . S
C545 C164 1.454 . S
C550 C254 1.432 . S
C566 C199 1.521 . S
C561 C142 1.527 . S
C582 C264 1.506 . S
C577 C15 1.539 . S
C593 C26 1.489 . S
C598 C284 1.450 . S
C609 C4 1.513 . S
C614 C307 1.511 . S
C625 C191 1.443 . S
C630 C287 1.440 . S
C641 C169 1.455 . S
C646 C304 1.455 . S
C657 C180 1.481 . S
C662 C267 1.473 . S
C673 C197 1.546 . S
C678 C274 1.512 . S
C689 C175 1.432 . S
C694 C294 1.407 . S
C710 C299 1.570 . S
C705 C186 1.558 . S
C721 C21 1.479 . S
C726 C279 1.478 . S
C742 C314 1.455 . S
C737 C32 1.469 . S
C753 C10 1.560 . S
C758 C259 1.550 . S
C774 C324 1.532 . S
C769 C81 1.550 . S
C785 C92 1.508 . S
C790 C344 1.501 . S
C806 C367 1.495 . S
C801 C70 1.487 . S
C822 C347 1.423 . S
C817 C59 1.424 . S
C838 C364 1.455 . S
C833 C37 1.455 . S
C849 C48 1.490 . S
C854 C327 1.485 . S
C865 C65 1.577 . S
C870 C334 1.563 . S
C881 C43 1.445 . S
C886 C354 1.428 . S
C902 C359 1.554 . S
C897 C54 1.522 . S
C913 C87 1.475 . S
C918 C339 1.471 . S
C929 C98 1.453 . S
C934 C374 1.420 . S
C945 C76 1.549 . S
C950 C319 1.562 . S
C961 C170 1.365 . S
C966 C217 1.284 . S
C982 C237 1.570 . S
C977 C181 1.675 . S
C993 C192 1.512 . S
C998 C246 1.511 . S
C1009 C71 1.631 . S
C1014 C226 1.603 . S
C1025 C82 1.577 . S
C1030 C257 1.511 . S
C1046 C206 1.307 . S
C1041 C93 1.332 . S
C1057 C38 1.366 . S
C1062 C277 1.283 . S
C1073 C49 1.678 . S
C1078 C297 1.586 . S
C1089 C60 1.490 . S
C1094 C306 1.459 . S
C1105 C137 1.657 . S
C1110 C286 1.577 . S
C1126 C317 1.539 . S
C1121 C148 1.584 . S
C1137 C159 1.327 . S
C1142 C266 1.321 . S
C1153 C104 1.382 . S
C1158 C337 1.320 . S
C1169 C115 1.679 . S
C1174 C357 1.574 . S
C1190 C366 1.476 . S
C1185 C126 1.489 . S
C1201 C5 1.662 . S
C1206 C346 1.587 . S
C1217 C16 1.560 . S
C1222 C377 1.466 . S
C1233 C27 1.366 . S
C1238 C326 1.305 . S
