# Generated by pormake.
# Topology pth, (4,4)-cn, num edge types: 1
# Building blocks:
#     Node 0, Type 0, BuildingBlock: TATPOV_clean_sbu_0, # of connection points: 4
#     Node 1, Type 0, BuildingBlock: TATPOV_clean_sbu_0, # of connection points: 4
#     Node 2, Type 0, BuildingBlock: TATPOV_clean_sbu_0, # of connection points: 4
#     Node 3, Type 1, BuildingBlock: NAHDIM_clean_linker_0, # of connection points: 4
#     Node 4, Type 1, BuildingBlock: NAHDIM_clean_linker_0, # of connection points: 4
#     Node 5, Type 1, BuildingBlock: NAHDIM_clean_linker_0, # of connection points: 4
#     Edge 6, Type (0, 1), BuildingBlock: UVAHIK_clean_linker_0, # of connection points: 2
#     Edge 7, Type (0, 1), BuildingBlock: UVAHIK_clean_linker_0, # of connection points: 2
#     Edge 8, Type (0, 1), BuildingBlock: UVAHIK_clean_linker_0, # of connection points: 2
#     Edge 9, Type (0, 1), BuildingBlock: UVAHIK_clean_linker_0, # of connection points: 2
#     Edge 10, Type (0, 1), BuildingBlock: UVAHIK_clean_linker_0, # of connection points: 2
#     Edge 11, Type (0, 1), BuildingBlock: UVAHIK_clean_linker_0, # of connection points: 2
#     Edge 12, Type (0, 1), BuildingBlock: UVAHIK_clean_linker_0, # of connection points: 2
#     Edge 13, Type (0, 1), BuildingBlock: UVAHIK_clean_linker_0, # of connection points: 2
#     Edge 14, Type (0, 1), BuildingBlock: UVAHIK_clean_linker_0, # of connection points: 2
#     Edge 15, Type (0, 1), BuildingBlock: UVAHIK_clean_linker_0, # of connection points: 2
#     Edge 16, Type (0, 1), BuildingBlock: UVAHIK_clean_linker_0, # of connection points: 2
#     Edge 17, Type (0, 1), BuildingBlock: UVAHIK_clean_linker_0, # of connection points: 2
# Relax obj value: 0.053
# Max RMSD: 0.173
# Mean RMSD: 0.111
data_MOF--net-pth--node1-TATPOV_clean_sbu_0--node2-NAHDIM_clean_linker_0--edge1-UVAHIK_clean_linker_0
_symmetry_space_group_name_H-M    P1
_symmetry_Int_Tables_number       1
_symmetry_cell_setting            triclinic
loop_
_symmetry_equiv_pos_as_xyz
'x, y, z'
_cell_length_a     38.612935
_cell_length_b     38.207869
_cell_length_c     95.439516
_cell_angle_alpha  92.043786
_cell_angle_beta   92.557947
_cell_angle_gamma 121.06004
loop_
_atom_site_label
_atom_site_type_symbol
_atom_site_fract_x
_atom_site_fract_y
_atom_site_fract_z
_atom_type_partial_charge
Zn0 Zn 0.13289 0.04 0.04191 0.0
Zn1 Zn 0.09873 0.07456 0.05617 0.0
O2 O 0.1112 0.04443 0.07116 0.0
O3 O 0.13591 0.01274 0.05933 0.0
O4 O 0.08132 0.10789 0.06739 0.0
O5 O 0.17971 0.09421 0.03698 0.0
O6 O 0.14631 0.12031 0.04637 0.0
C7 C 0.12466 0.02021 0.07074 0.0
C8 C 0.04952 0.0131 0.03191 0.0
O9 O 0.0501 0.03445 0.04259 0.0
O10 O 0.08097 0.01241 0.02912 0.0
C11 C 0.06007 0.09603 0.07794 0.0
O12 O 0.0457 0.05842 0.08162 0.0
C13 C 0.17594 0.1247 0.03964 0.0
Zn14 Zn 0.14235 0.13383 0.38571 0.0
Zn15 Zn 0.07143 0.10663 0.3977 0.0
O16 O 0.11125 0.11266 0.41396 0.0
O17 O 0.16983 0.13677 0.40465 0.0
O18 O 0.0209 0.09369 0.40716 0.0
O19 O 0.1417 0.1826 0.37859 0.0
O20 O 0.08282 0.15787 0.38769 0.0
C21 C 0.14884 0.12472 0.4152 0.0
C22 C 0.07586 0.05215 0.37502 0.0
O23 O 0.05527 0.0573 0.38405 0.0
O24 O 0.11243 0.07987 0.37378 0.0
C25 C 0.0079 0.07125 0.41747 0.0
O26 O 0.02702 0.0533 0.4221 0.0
C27 C 0.11065 0.18465 0.38071 0.0
Zn28 Zn 0.0744 0.97494 0.74664 0.0
Zn29 Zn 0.02522 0.99458 0.73342 0.0
O30 O 0.05247 0.98312 0.71713 0.0
O31 O 0.09278 0.96659 0.72818 0.0
O32 O 0.98713 0.00832 0.72329 0.0
O33 O 0.0276 0.92719 0.75453 0.0
O34 O 0.98657 0.94429 0.74439 0.0
C35 C 0.07856 0.97219 0.71684 0.0
C36 C 0.09368 0.0564 0.75479 0.0
O37 O 0.06441 0.04737 0.74577 0.0
O38 O 0.10358 0.03026 0.7573 0.0
C39 C 0.9999 0.03568 0.71444 0.0
O40 O 0.03853 0.05542 0.71207 0.0
C41 C 0.99226 0.92076 0.75206 0.0
C42 C 0.9033 0.69263 0.26815 0.0
C43 C 0.93427 0.69699 0.27975 0.0
C44 C 0.97909 0.67748 0.26862 0.0
C45 C 0.01898 0.69285 0.26521 0.0
C46 C 0.03119 0.6671 0.2594 0.0
C47 C 0.00239 0.62489 0.25666 0.0
C48 C 0.96189 0.60894 0.26014 0.0
C49 C 0.95063 0.63538 0.26616 0.0
C50 C 0.07482 0.6851 0.25607 0.0
C51 C 0.93044 0.56406 0.2573 0.0
C52 C 0.02947 0.38779 0.30499 0.0
C53 C 0.01684 0.40847 0.29484 0.0
C54 C 0.04513 0.46937 0.28147 0.0
C55 C 0.00923 0.45589 0.27296 0.0
C56 C 0.0065 0.48125 0.26329 0.0
C57 C 0.04033 0.5209 0.26205 0.0
C58 C 0.07679 0.5343 0.27036 0.0
C59 C 0.07872 0.50822 0.27995 0.0
C60 C 0.96717 0.46592 0.25454 0.0
C61 C 0.11342 0.57633 0.2692 0.0
C62 C 0.09631 0.46876 0.1765 0.0
C63 C 0.05544 0.45149 0.17921 0.0
C64 C 0.04115 0.47606 0.18455 0.0
C65 C 0.06847 0.51866 0.18736 0.0
C66 C 0.10937 0.5363 0.18413 0.0
C67 C 0.12263 0.51108 0.17855 0.0
C68 C 0.99698 0.45643 0.18735 0.0
C69 C 0.13924 0.58161 0.18688 0.0
C70 C 0.92636 0.70027 0.16517 0.0
C71 C 0.96924 0.70751 0.16612 0.0
C72 C 0.98474 0.65339 0.16683 0.0
C73 C 0.96275 0.6107 0.16644 0.0
C74 C 0.9775 0.5895 0.17389 0.0
C75 C 0.01592 0.61173 0.18147 0.0
C76 C 0.0398 0.65482 0.18087 0.0
C77 C 0.02364 0.67531 0.17373 0.0
C78 C 0.95127 0.54355 0.17414 0.0
C79 C 0.08171 0.67939 0.18822 0.0
C80 C 0.0146 0.59777 0.24985 0.0
C81 C 0.02365 0.57415 0.25836 0.0
C82 C 0.0364 0.54886 0.25263 0.0
C83 C 0.04196 0.54824 0.2381 0.0
C84 C 0.05667 0.52472 0.23212 0.0
C85 C 0.06144 0.52391 0.21775 0.0
C86 C 0.05095 0.546 0.20878 0.0
C87 C 0.05454 0.54446 0.1941 0.0
C88 C 0.04385 0.56686 0.18551 0.0
C89 C 0.02902 0.59045 0.19116 0.0
C90 C 0.02503 0.59217 0.2058 0.0
C91 C 0.00951 0.61498 0.21181 0.0
C92 C 0.00632 0.61708 0.22622 0.0
C93 C 0.01771 0.59577 0.23518 0.0
C94 C 0.03216 0.5715 0.22932 0.0
C95 C 0.03624 0.57004 0.21463 0.0
C96 C 0.14207 0.41696 0.18549 0.0
C97 C 0.10357 0.40923 0.17727 0.0
O98 O 0.96968 0.70468 0.274 0.0
O99 O 0.96749 0.67254 0.16056 0.0
O100 O 0.11101 0.4454 0.17175 0.0
O101 O 0.04833 0.446 0.29128 0.0
H102 H 0.92128 0.66838 0.28541 0.0
H103 H 0.89545 0.66651 0.26055 0.0
H104 H 0.91574 0.72089 0.26235 0.0
H105 H 0.87504 0.68684 0.27278 0.0
H106 H 0.04067 0.72536 0.26717 0.0
H107 H 0.91958 0.62302 0.2687 0.0
H108 H 0.08713 0.66696 0.26057 0.0
H109 H 0.09429 0.71752 0.26023 0.0
H110 H 0.07653 0.68371 0.24451 0.0
H111 H 0.89963 0.55693 0.25967 0.0
H112 H 0.93877 0.5457 0.26385 0.0
H113 H 0.92963 0.55441 0.24612 0.0
H114 H 0.98947 0.40947 0.29748 0.0
H115 H 0.01355 0.38653 0.31472 0.0
H116 H 0.06047 0.41176 0.30978 0.0
H117 H 0.01845 0.33505 0.29336 0.0
H118 H 0.98304 0.42573 0.27387 0.0
H119 H 0.10636 0.51831 0.28648 0.0
H120 H 0.97259 0.4665 0.2432 0.0
H121 H 0.95533 0.48646 0.25666 0.0
H122 H 0.94364 0.43424 0.25672 0.0
H123 H 0.14022 0.58135 0.27581 0.0
H124 H 0.10629 0.59994 0.27252 0.0
H125 H 0.12122 0.58068 0.25809 0.0
H126 H 0.07952 0.39877 0.18483 0.0
H127 H 0.0347 0.41887 0.17707 0.0
H128 H 0.15398 0.52412 0.17618 0.0
H129 H 0.99412 0.45729 0.19886 0.0
H130 H 0.97881 0.42403 0.18305 0.0
H131 H 0.98405 0.47378 0.18265 0.0
H132 H 0.17036 0.59031 0.18432 0.0
H133 H 0.14005 0.59091 0.19811 0.0
H134 H 0.1293 0.59897 0.18047 0.0
H135 H 0.97995 0.71333 0.17748 0.0
H136 H 0.92628 0.72712 0.17 0.0
H137 H 0.90609 0.67307 0.17093 0.0
H138 H 0.91412 0.69474 0.15403 0.0
H139 H 0.93304 0.59415 0.16083 0.0
H140 H 0.04119 0.70837 0.17361 0.0
H141 H 0.94653 0.53476 0.18517 0.0
H142 H 0.9668 0.52899 0.16932 0.0
H143 H 0.92121 0.53115 0.16834 0.0
H144 H 0.09936 0.71048 0.1843 0.0
H145 H 0.09865 0.66342 0.18677 0.0
H146 H 0.0792 0.68282 0.19967 0.0
H147 H 0.02006 0.57493 0.26956 0.0
H148 H 0.06488 0.50687 0.2385 0.0
H149 H 0.07317 0.50548 0.21376 0.0
H150 H 0.04648 0.56537 0.17427 0.0
H151 H 0.99973 0.63168 0.20548 0.0
H152 H 0.99441 0.63535 0.23023 0.0
H153 H 0.16752 0.42775 0.17853 0.0
H154 H 0.13681 0.38847 0.19011 0.0
H155 H 0.15085 0.44077 0.19418 0.0
C156 C 0.38624 0.98037 0.64766 0.0
C157 C 0.37888 0.00519 0.63697 0.0
C158 C 0.41188 0.00507 0.61597 0.0
C159 C 0.43599 0.04695 0.61394 0.0
C160 C 0.47041 0.06176 0.60624 0.0
C161 C 0.48082 0.03402 0.6005 0.0
C162 C 0.45621 0.99167 0.60241 0.0
C163 C 0.4216 0.97767 0.60997 0.0
C164 C 0.49547 0.10694 0.60411 0.0
C165 C 0.46651 0.96126 0.59649 0.0
C166 C 0.7305 0.17048 0.65241 0.0
C167 C 0.7231 0.13197 0.64409 0.0
C168 C 0.69723 0.12497 0.62007 0.0
C169 C 0.67174 0.08277 0.61701 0.0
C170 C 0.63773 0.06737 0.6074 0.0
C171 C 0.62875 0.09489 0.60095 0.0
C172 C 0.65516 0.13766 0.60381 0.0
C173 C 0.68961 0.15218 0.61317 0.0
C174 C 0.61079 0.02165 0.60445 0.0
C175 C 0.64616 0.16796 0.59743 0.0
C176 C 0.68558 0.11114 0.51076 0.0
C177 C 0.66407 0.07117 0.51514 0.0
C178 C 0.62809 0.05729 0.52188 0.0
C179 C 0.61367 0.08416 0.52437 0.0
C180 C 0.63446 0.12392 0.51941 0.0
C181 C 0.67 0.13672 0.51248 0.0
C182 C 0.60584 0.01417 0.52655 0.0
C183 C 0.61971 0.1532 0.52175 0.0
C184 C 0.2815 0.94203 0.52327 0.0
C185 C 0.31702 0.98142 0.51839 0.0
C186 C 0.38356 0.99128 0.51502 0.0
C187 C 0.40179 0.96784 0.51487 0.0
C188 C 0.44248 0.98495 0.5198 0.0
C189 C 0.46551 0.02677 0.52465 0.0
C190 C 0.44821 0.05153 0.52353 0.0
C191 C 0.40724 0.03343 0.51882 0.0
C192 C 0.46015 0.95782 0.52061 0.0
C193 C 0.47236 0.09659 0.52807 0.0
C194 C 0.51692 0.04916 0.59222 0.0
C195 C 0.55473 0.06484 0.59947 0.0
C196 C 0.5899 0.0788 0.59232 0.0
C197 C 0.58736 0.07706 0.57744 0.0
C198 C 0.62187 0.09013 0.56984 0.0
C199 C 0.61896 0.08862 0.5552 0.0
C200 C 0.58133 0.07344 0.54758 0.0
C201 C 0.57791 0.07129 0.53269 0.0
C202 C 0.54004 0.05631 0.52547 0.0
C203 C 0.50517 0.04299 0.53273 0.0
C204 C 0.50794 0.04449 0.5476 0.0
C205 C 0.47332 0.03074 0.55522 0.0
C206 C 0.47625 0.03254 0.5698 0.0
C207 C 0.51382 0.0477 0.57738 0.0
C208 C 0.54914 0.06162 0.56996 0.0
C209 C 0.54616 0.05992 0.55504 0.0
C210 C 0.7858 0.16407 0.51743 0.0
C211 C 0.75354 0.1227 0.51021 0.0
O212 O 0.37878 0.99031 0.6235 0.0
O213 O 0.34298 0.9722 0.51184 0.0
O214 O 0.72129 0.12565 0.50477 0.0
O215 O 0.72847 0.13976 0.63003 0.0
H216 H 0.40383 0.03773 0.6389 0.0
H217 H 0.41605 0.98334 0.64631 0.0
H218 H 0.36222 0.94743 0.64616 0.0
H219 H 0.38656 0.99191 0.65855 0.0
H220 H 0.42756 0.06795 0.6182 0.0
H221 H 0.40243 0.94533 0.61149 0.0
H222 H 0.52658 0.11974 0.60907 0.0
H223 H 0.48226 0.12422 0.60869 0.0
H224 H 0.4981 0.11171 0.5927 0.0
H225 H 0.4463 0.92997 0.59993 0.0
H226 H 0.4984 0.97125 0.59979 0.0
H227 H 0.4637 0.95994 0.58483 0.0
H228 H 0.69121 0.10732 0.64543 0.0
H229 H 0.72618 0.16481 0.66372 0.0
H230 H 0.7086 0.17903 0.64839 0.0
H231 H 0.76173 0.19654 0.65135 0.0
H232 H 0.6783 0.062 0.62232 0.0
H233 H 0.70973 0.18478 0.61563 0.0
H234 H 0.60286 0.01388 0.59298 0.0
H235 H 0.58214 0.01076 0.60965 0.0
H236 H 0.62535 0.00496 0.60841 0.0
H237 H 0.66797 0.19995 0.60159 0.0
H238 H 0.61503 0.16027 0.59955 0.0
H239 H 0.6475 0.16622 0.58585 0.0
H240 H 0.74369 0.09988 0.51835 0.0
H241 H 0.67539 0.05084 0.51328 0.0
H242 H 0.68656 0.16729 0.50881 0.0
H243 H 0.60812 0.01513 0.53821 0.0
H244 H 0.61835 0.99571 0.52244 0.0
H245 H 0.57317 0.99861 0.52299 0.0
H246 H 0.64001 0.18349 0.51761 0.0
H247 H 0.61756 0.15772 0.53317 0.0
H248 H 0.58886 0.13995 0.51651 0.0
H249 H 0.33257 0.00194 0.52808 0.0
H250 H 0.26011 0.94866 0.52847 0.0
H251 H 0.29298 0.92859 0.53098 0.0
H252 H 0.26492 0.91908 0.51427 0.0
H253 H 0.38338 0.9355 0.51162 0.0
H254 H 0.39352 0.05199 0.51838 0.0
H255 H 0.4685 0.95628 0.53176 0.0
H256 H 0.48826 0.97106 0.51494 0.0
H257 H 0.43864 0.92621 0.51603 0.0
H258 H 0.45716 0.11283 0.52426 0.0
H259 H 0.50308 0.11111 0.52411 0.0
H260 H 0.4761 0.10048 0.53972 0.0
H261 H 0.5568 0.06605 0.61088 0.0
H262 H 0.65153 0.1018 0.57514 0.0
H263 H 0.64664 0.09942 0.54994 0.0
H264 H 0.53764 0.05477 0.51406 0.0
H265 H 0.44343 0.01839 0.55002 0.0
H266 H 0.44856 0.02176 0.57505 0.0
H267 H 0.81192 0.16239 0.52192 0.0
H268 H 0.77275 0.17251 0.52614 0.0
H269 H 0.79675 0.18842 0.50987 0.0
C270 C 0.71832 0.5347 0.81103 0.0
C271 C 0.70372 0.56206 0.81708 0.0
C272 C 0.67677 0.55786 0.83972 0.0
C273 C 0.66369 0.58584 0.83967 0.0
C274 C 0.63238 0.58068 0.84791 0.0
C275 C 0.61297 0.54598 0.85598 0.0
C276 C 0.6264 0.51773 0.85602 0.0
C277 C 0.65897 0.52475 0.84815 0.0
C278 C 0.61974 0.61204 0.84782 0.0
C279 C 0.60577 0.47953 0.864 0.0
C280 C 0.36838 0.49797 0.79847 0.0
C281 C 0.37776 0.47153 0.80767 0.0
C282 C 0.40609 0.48796 0.83183 0.0
C283 C 0.41795 0.4592 0.83336 0.0
C284 C 0.44865 0.46631 0.84356 0.0
C285 C 0.46871 0.5036 0.85207 0.0
C286 C 0.45636 0.53247 0.85056 0.0
C287 C 0.42434 0.52361 0.84071 0.0
C288 C 0.46009 0.43428 0.84503 0.0
C289 C 0.47779 0.57337 0.85893 0.0
C290 C 0.39646 0.48911 0.94154 0.0
C291 C 0.40594 0.4598 0.93705 0.0
C292 C 0.44206 0.47162 0.93063 0.0
C293 C 0.46874 0.51344 0.92839 0.0
C294 C 0.45957 0.54305 0.93315 0.0
C295 C 0.42375 0.53046 0.93985 0.0
C296 C 0.45164 0.43942 0.92617 0.0
C297 C 0.48732 0.5879 0.93099 0.0
C298 C 0.79307 0.63805 0.95312 0.0
C299 C 0.76452 0.65435 0.95117 0.0
C300 C 0.69129 0.61063 0.94858 0.0
C301 C 0.66371 0.56857 0.94843 0.0
C302 C 0.62706 0.55014 0.94005 0.0
C303 C 0.61732 0.57484 0.93205 0.0
C304 C 0.64424 0.61786 0.93283 0.0
C305 C 0.68129 0.63523 0.94093 0.0
C306 C 0.59916 0.50425 0.93954 0.0
C307 C 0.6341 0.64552 0.92506 0.0
C308 C 0.57684 0.53763 0.8635 0.0
C309 C 0.54064 0.52421 0.85538 0.0
C310 C 0.5048 0.51403 0.86159 0.0
C311 C 0.50459 0.51599 0.87641 0.0
C312 C 0.46867 0.50368 0.88306 0.0
C313 C 0.46903 0.50693 0.89765 0.0
C314 C 0.5053 0.52241 0.90615 0.0
C315 C 0.50606 0.52622 0.92098 0.0
C316 C 0.54287 0.54306 0.92907 0.0
C317 C 0.57917 0.55572 0.9228 0.0
C318 C 0.57884 0.55083 0.90801 0.0
C319 C 0.61455 0.56191 0.90136 0.0
C320 C 0.61405 0.55784 0.88679 0.0
C321 C 0.57775 0.54213 0.87831 0.0
C322 C 0.54137 0.5308 0.88479 0.0
C323 C 0.54182 0.53459 0.89966 0.0
C324 C 0.29021 0.44897 0.94616 0.0
C325 C 0.32539 0.44149 0.94559 0.0
O326 O 0.7064 0.56215 0.83161 0.0
O327 O 0.72746 0.6267 0.9561 0.0
O328 O 0.36153 0.4788 0.94758 0.0
O329 O 0.37767 0.48238 0.82168 0.0
H330 H 0.67146 0.54851 0.81305 0.0
H331 H 0.69977 0.50332 0.81464 0.0
H332 H 0.75059 0.54701 0.81459 0.0
H333 H 0.71516 0.5326 0.79935 0.0
H334 H 0.67816 0.61177 0.83323 0.0
H335 H 0.66961 0.50346 0.84809 0.0
H336 H 0.59077 0.59936 0.84129 0.0
H337 H 0.64273 0.64083 0.8434 0.0
H338 H 0.61469 0.61934 0.85863 0.0
H339 H 0.61514 0.45746 0.86093 0.0
H340 H 0.57231 0.46403 0.8622 0.0
H341 H 0.61373 0.48791 0.87543 0.0
H342 H 0.40864 0.47832 0.80537 0.0
H343 H 0.36888 0.49025 0.78717 0.0
H344 H 0.39162 0.53083 0.80093 0.0
H345 H 0.33812 0.49326 0.80038 0.0
H346 H 0.40316 0.43122 0.82661 0.0
H347 H 0.4147 0.54547 0.83942 0.0
H348 H 0.46521 0.43061 0.85629 0.0
H349 H 0.48875 0.44414 0.83995 0.0
H350 H 0.43639 0.40409 0.83994 0.0
H351 H 0.46976 0.59507 0.85457 0.0
H352 H 0.51119 0.58754 0.85914 0.0
H353 H 0.46906 0.56892 0.86993 0.0
H354 H 0.32282 0.42733 0.93488 0.0
H355 H 0.38544 0.42778 0.93866 0.0
H356 H 0.41633 0.55284 0.94349 0.0
H357 H 0.44998 0.43603 0.91452 0.0
H358 H 0.43025 0.40911 0.93009 0.0
H359 H 0.48299 0.44895 0.93011 0.0
H360 H 0.4742 0.60657 0.93427 0.0
H361 H 0.49372 0.59209 0.91975 0.0
H362 H 0.51667 0.59962 0.93719 0.0
H363 H 0.76092 0.65691 0.93965 0.0
H364 H 0.82289 0.65935 0.94904 0.0
H365 H 0.77985 0.60778 0.94722 0.0
H366 H 0.79778 0.6343 0.96441 0.0
H367 H 0.67169 0.55001 0.95452 0.0
H368 H 0.70237 0.66801 0.94139 0.0
H369 H 0.5907 0.49139 0.92846 0.0
H370 H 0.57084 0.49677 0.94447 0.0
H371 H 0.61316 0.48908 0.94515 0.0
H372 H 0.65454 0.67826 0.92871 0.0
H373 H 0.60228 0.63688 0.92641 0.0
H374 H 0.63711 0.64211 0.91366 0.0
H375 H 0.54045 0.52195 0.844 0.0
H376 H 0.43987 0.49144 0.87705 0.0
H377 H 0.44048 0.49734 0.90217 0.0
H378 H 0.54329 0.54663 0.94042 0.0
H379 H 0.64337 0.57396 0.90734 0.0
H380 H 0.64254 0.5673 0.88224 0.0
H381 H 0.26075 0.4196 0.94428 0.0
H382 H 0.2922 0.46953 0.93788 0.0
H383 H 0.29115 0.46359 0.95656 0.0
C384 C 0.03306 0.11368 0.09878 0.0
C385 C 0.0555 0.12582 0.08684 0.0
C386 C 0.03193 0.14264 0.10784 0.0
C387 C 0.05545 0.25051 0.11082 0.0
H388 H 0.06766 0.24013 0.15074 0.0
C389 C 0.10953 0.38464 0.15289 0.0
C390 C 0.09074 0.37594 0.16565 0.0
C391 C 0.10022 0.35306 0.14277 0.0
C392 C 0.06365 0.2432 0.13963 0.0
H393 H 0.09332 0.17784 0.07484 0.0
H394 H 0.09197 0.2282 0.09071 0.0
H395 H 0.05975 0.18659 0.13395 0.0
H396 H 0.04792 0.32742 0.17785 0.0
H397 H 0.03146 0.27224 0.16015 0.0
H398 H 0.06057 0.30783 0.11658 0.0
C399 C 0.0747 0.19629 0.09301 0.0
C400 C 0.05902 0.21243 0.12999 0.0
C401 C 0.07567 0.16736 0.08393 0.0
C402 C 0.06242 0.33504 0.16804 0.0
C403 C 0.05326 0.30347 0.15795 0.0
C404 C 0.06032 0.28142 0.12048 0.0
C405 C 0.05333 0.18443 0.1052 0.0
C406 C 0.05526 0.21585 0.11545 0.0
C407 C 0.07236 0.31206 0.14527 0.0
C408 C 0.06484 0.27828 0.13499 0.0
H409 H 0.01697 0.0819 0.10129 0.0
H410 H 0.01459 0.1323 0.117 0.0
H411 H 0.05197 0.25387 0.09972 0.0
H412 H 0.13213 0.41577 0.15089 0.0
H413 H 0.11593 0.36063 0.1332 0.0
C414 C 0.96238 0.04825 0.43739 0.0
C415 C 0.97405 0.06887 0.42498 0.0
C416 C 0.93307 0.04942 0.44517 0.0
C417 C 0.88985 0.1141 0.45157 0.0
H418 H 0.81063 0.022 0.47097 0.0
C419 C 0.77704 0.12749 0.48554 0.0
C420 C 0.7714 0.11029 0.49863 0.0
C421 C 0.79706 0.11883 0.47539 0.0
C422 C 0.83275 0.04807 0.46568 0.0
H423 H 0.96266 0.10529 0.41065 0.0
H424 H 0.91141 0.10698 0.42413 0.0
H425 H 0.85399 0.01282 0.45525 0.0
H426 H 0.78269 0.07099 0.5114 0.0
H427 H 0.81799 0.05613 0.49377 0.0
H428 H 0.86943 0.14962 0.46218 0.0
C429 C 0.9254 0.0905 0.42799 0.0
C430 C 0.85756 0.0428 0.45668 0.0
C431 C 0.95465 0.08934 0.42023 0.0
C432 C 0.78598 0.08407 0.50131 0.0
C433 C 0.80606 0.07546 0.49118 0.0
C434 C 0.86514 0.11938 0.46058 0.0
C435 C 0.91482 0.07123 0.44069 0.0
C436 C 0.88665 0.07586 0.44961 0.0
C437 C 0.81229 0.09312 0.47815 0.0
C438 C 0.83655 0.08656 0.46785 0.0
H439 H 0.9767 0.03218 0.44134 0.0
H440 H 0.92586 0.03452 0.45496 0.0
H441 H 0.9124 0.14039 0.44648 0.0
H442 H 0.76663 0.14828 0.48327 0.0
H443 H 0.80101 0.13264 0.46542 0.0
C444 C 0.92234 0.885 0.76091 0.0
C445 C 0.95822 0.88573 0.7583 0.0
C446 C 0.89214 0.853 0.76799 0.0
C447 C 0.87929 0.77172 0.79132 0.0
H448 H 0.76458 0.72425 0.78151 0.0
C449 C 0.72051 0.61236 0.79842 0.0
C450 C 0.72869 0.60485 0.81211 0.0
C451 C 0.74581 0.65004 0.79293 0.0
C452 C 0.79652 0.737 0.78434 0.0
H453 H 0.98958 0.85244 0.76026 0.0
H454 H 0.93685 0.79643 0.772 0.0
H455 H 0.81395 0.78205 0.76912 0.0
H456 H 0.7695 0.63155 0.83093 0.0
H457 H 0.81244 0.69792 0.82165 0.0
H458 H 0.86245 0.72555 0.80587 0.0
C459 C 0.93241 0.82113 0.7692 0.0
C460 C 0.82483 0.77053 0.77735 0.0
C461 C 0.96259 0.85315 0.76234 0.0
C462 C 0.76211 0.63637 0.82037 0.0
C463 C 0.78703 0.67435 0.81497 0.0
C464 C 0.85114 0.73804 0.79816 0.0
C465 C 0.89721 0.82104 0.77244 0.0
C466 C 0.86661 0.78774 0.78056 0.0
C467 C 0.77984 0.68137 0.80104 0.0
C468 C 0.80936 0.71975 0.79463 0.0
H469 H 0.91821 0.90976 0.75792 0.0
H470 H 0.86543 0.85392 0.77033 0.0
H471 H 0.91118 0.78479 0.79435 0.0
H472 H 0.69524 0.5884 0.79178 0.0
H473 H 0.73956 0.65384 0.7821 0.0
C474 C 0.12599 0.9622 0.08149 0.0
C475 C 0.12278 0.99709 0.08311 0.0
C476 C 0.11823 0.93659 0.09249 0.0
C477 C 0.06247 0.9088 0.12475 0.0
H478 H 0.1075 0.83889 0.12784 0.0
C479 C 0.01157 0.78404 0.1647 0.0
C480 C 0.99712 0.74471 0.15835 0.0
C481 C 0.03358 0.8188 0.15722 0.0
C482 C 0.09485 0.85839 0.12712 0.0
H483 H 0.11163 0.03402 0.09787 0.0
H484 H 0.09974 0.99025 0.11729 0.0
H485 H 0.13634 0.89499 0.11225 0.0
H486 H 0.99473 0.71111 0.13913 0.0
H487 H 0.03433 0.77197 0.12625 0.0
H488 H 0.02119 0.8721 0.13973 0.0
C489 C 0.10684 0.98181 0.10735 0.0
C490 C 0.11114 0.89038 0.11814 0.0
C491 C 0.114 0.00714 0.09625 0.0
C492 C 0.00598 0.74093 0.14443 0.0
C493 C 0.02866 0.77575 0.13705 0.0
C494 C 0.04673 0.87729 0.13391 0.0
C495 C 0.10767 0.94551 0.10549 0.0
C496 C 0.09442 0.91532 0.11652 0.0
C497 C 0.04203 0.81491 0.1433 0.0
C498 C 0.06211 0.85119 0.13491 0.0
H499 H 0.1325 0.95341 0.07149 0.0
H500 H 0.11859 0.90872 0.09049 0.0
H501 H 0.04823 0.92674 0.12368 0.0
H502 H 0.00476 0.78775 0.17535 0.0
H503 H 0.04355 0.84869 0.16225 0.0
C504 C 0.14233 0.09715 0.439 0.0
C505 C 0.16706 0.12022 0.42848 0.0
C506 C 0.15868 0.08709 0.45043 0.0
C507 C 0.19533 0.0428 0.46492 0.0
H508 H 0.30063 0.11571 0.4845 0.0
C509 C 0.28445 0.98283 0.49496 0.0
C510 C 0.30191 0.00136 0.50843 0.0
C511 C 0.26801 0.99979 0.48612 0.0
C512 C 0.27105 0.09509 0.47919 0.0
H513 H 0.22883 0.15328 0.42224 0.0
H514 H 0.25726 0.13585 0.44219 0.0
H515 H 0.27118 0.14321 0.46825 0.0
H516 H 0.31636 0.05237 0.52314 0.0
H517 H 0.28802 0.08239 0.50759 0.0
H518 H 0.19538 0.99461 0.47566 0.0
C519 C 0.22526 0.12546 0.4416 0.0
C520 C 0.25432 0.11077 0.46985 0.0
C521 C 0.2089 0.13526 0.43012 0.0
C522 C 0.30326 0.0376 0.51278 0.0
C523 C 0.28713 0.05478 0.50389 0.0
C524 C 0.21219 0.02711 0.47414 0.0
C525 C 0.20011 0.10022 0.45163 0.0
C526 C 0.21645 0.08469 0.46252 0.0
C527 C 0.26892 0.03577 0.49053 0.0
C528 C 0.25042 0.05298 0.48125 0.0
H529 H 0.11001 0.0852 0.43809 0.0
H530 H 0.13869 0.06803 0.45812 0.0
H531 H 0.16631 0.02186 0.45931 0.0
H532 H 0.28303 0.95488 0.49136 0.0
H533 H 0.25465 0.98478 0.47581 0.0
C534 C 0.14476 0.10509 0.77361 0.0
C535 C 0.11767 0.09786 0.762 0.0
C536 C 0.17017 0.1446 0.77978 0.0
C537 C 0.18815 0.24996 0.78191 0.0
H538 H 0.29893 0.27949 0.79179 0.0
C539 C 0.35629 0.4038 0.7948 0.0
C540 C 0.34702 0.42664 0.80409 0.0
C541 C 0.3273 0.36319 0.79056 0.0
C542 C 0.26819 0.27185 0.78903 0.0
H543 H 0.09508 0.12634 0.74803 0.0
H544 H 0.14017 0.19572 0.75865 0.0
H545 H 0.24951 0.21019 0.78254 0.0
H546 H 0.29995 0.42521 0.81603 0.0
H547 H 0.24927 0.35374 0.80882 0.0
H548 H 0.20742 0.31225 0.78797 0.0
C549 C 0.14133 0.17064 0.76311 0.0
C550 C 0.23966 0.23191 0.78389 0.0
C551 C 0.11558 0.13091 0.75698 0.0
C552 C 0.30804 0.40806 0.80902 0.0
C553 C 0.27897 0.36733 0.80478 0.0
C554 C 0.21679 0.29005 0.78704 0.0
C555 C 0.16946 0.17802 0.77442 0.0
C556 C 0.1993 0.22045 0.78022 0.0
C557 C 0.28822 0.34447 0.79544 0.0
C558 C 0.25722 0.30151 0.79057 0.0
H559 H 0.14679 0.08024 0.77786 0.0
H560 H 0.19075 0.149 0.78868 0.0
H561 H 0.15726 0.24208 0.77931 0.0
H562 H 0.38586 0.41763 0.79065 0.0
H563 H 0.33524 0.34676 0.78316 0.0
C564 C 0.98569 0.07535 0.69708 0.0
C565 C 0.97156 0.04491 0.7068 0.0
C566 C 0.95895 0.08402 0.68985 0.0
C567 C 0.85838 0.07305 0.69168 0.0
H568 H 0.86822 0.09428 0.65218 0.0
C569 C 0.7378 0.08731 0.65907 0.0
C570 C 0.75161 0.11895 0.64986 0.0
C571 C 0.76454 0.07732 0.66547 0.0
C572 C 0.86532 0.0888 0.66324 0.0
H573 H 0.9181 0.9995 0.71644 0.0
H574 H 0.87149 0.01434 0.70375 0.0
H575 H 0.91512 0.0789 0.66449 0.0
H576 H 0.80433 0.16525 0.6402 0.0
H577 H 0.85129 0.14789 0.6514 0.0
H578 H 0.80871 0.08301 0.69047 0.0
C579 C 0.90334 0.03193 0.70186 0.0
C580 C 0.89221 0.08001 0.6703 0.0
C581 C 0.93006 0.02327 0.70909 0.0
C582 C 0.79277 0.14027 0.64709 0.0
C583 C 0.81958 0.13027 0.65349 0.0
C584 C 0.83152 0.08179 0.68463 0.0
C585 C 0.91745 0.06246 0.69217 0.0
C586 C 0.88901 0.07195 0.68461 0.0
C587 C 0.80584 0.09897 0.66288 0.0
C588 C 0.83457 0.08967 0.67031 0.0
H589 H 0.01748 0.09266 0.69508 0.0
H590 H 0.97093 0.10806 0.68259 0.0
H591 H 0.8555 0.06775 0.70275 0.0
H592 H 0.70633 0.07064 0.66151 0.0
H593 H 0.75284 0.0527 0.6725 0.0
C594 C 0.01324 0.98504 0.0084 0.0
C595 C 0.0119 0.98664 0.02304 0.0
C596 C 0.98023 0.95457 -9e-05 0.0
C597 C 0.87318 0.86596 7e-05 0.0
H598 H 0.90836 0.82303 0.97008 0.0
C599 C 0.7813 0.70039 0.97346 0.0
C600 C 0.78291 0.69616 0.95884 0.0
C601 C 0.80357 0.739 0.98072 0.0
C602 C 0.89788 0.83495 0.97826 0.0
H603 H 0.97467 0.95922 0.04036 0.0
H604 H 0.91746 0.90444 0.02564 0.0
H605 H 0.95754 0.88519 0.98372 0.0
H606 H 0.80828 0.72895 0.94035 0.0
H607 H 0.84719 0.79629 0.953 0.0
H608 H 0.81354 0.81365 0.99489 0.0
C609 C 0.94339 0.92737 0.02058 0.0
C610 C 0.92611 0.87089 0.98608 0.0
C611 C 0.97616 0.95869 0.02905 0.0
C612 C 0.80619 0.73138 0.95159 0.0
C613 C 0.82859 0.76984 0.95883 0.0
C614 C 0.84489 0.82947 0.99232 0.0
C615 C 0.94562 0.92404 0.00592 0.0
C616 C 0.91431 0.88699 0.99713 0.0
C617 C 0.82831 0.77393 0.97351 0.0
C618 C 0.85707 0.81363 0.98136 0.0
H619 H 0.04046 0.00657 0.00354 0.0
H620 H 0.98261 0.95403 0.98866 0.0
H621 H 0.86281 0.87754 0.00839 0.0
H622 H 0.76411 0.67367 0.97934 0.0
H623 H 0.80316 0.74121 0.99205 0.0
C624 C 0.07681 0.01243 0.3539 0.0
C625 C 0.05753 0.01394 0.36584 0.0
C626 C 0.06064 0.97646 0.3453 0.0
C627 C 0.9672 0.87581 0.33616 0.0
H628 H 0.04363 0.85199 0.31982 0.0
C629 C 0.92505 0.72558 0.30278 0.0
C630 C 0.94435 0.73235 0.29015 0.0
C631 C 0.93581 0.75832 0.3126 0.0
C632 C 0.02196 0.85833 0.32429 0.0
H633 H 0.00579 0.97891 0.37805 0.0
H634 H 0.97792 0.9154 0.36317 0.0
H635 H 0.06851 0.91147 0.33628 0.0
H636 H 0.98772 0.77901 0.27744 0.0
H637 H 0.00716 0.83581 0.29472 0.0
H638 H 0.92064 0.82179 0.32418 0.0
C639 C 0.00527 0.94237 0.36034 0.0
C640 C 0.03616 0.89251 0.33367 0.0
C641 C 0.02131 0.97868 0.3689 0.0
C642 C 0.97314 0.77268 0.28725 0.0
C643 C 0.98423 0.80516 0.29711 0.0
C644 C 0.95292 0.84115 0.32687 0.0
C645 C 0.02501 0.94077 0.3485 0.0
C646 C 0.00909 0.90228 0.33947 0.0
C647 C 0.96616 0.79823 0.30995 0.0
C648 C 0.98032 0.8327 0.32064 0.0
H649 H 0.10446 0.03918 0.35112 0.0
H650 H 0.07608 0.97677 0.33607 0.0
H651 H 0.94552 0.88252 0.34037 0.0
H652 H 0.90219 0.6949 0.30514 0.0
H653 H 0.92134 0.75231 0.32242 0.0
C654 C 0.09297 0.98798 0.69165 0.0
C655 C 0.0942 0.96763 0.70347 0.0
C656 C 0.11317 0.98793 0.6798 0.0
C657 C 0.16496 0.93854 0.66353 0.0
H658 H 0.24084 0.04763 0.65263 0.0
C659 C 0.33816 0.0318 0.64806 0.0
C660 C 0.33894 0.00237 0.63908 0.0
C661 C 0.30137 0.02698 0.65164 0.0
C662 C 0.21972 0.0169 0.65549 0.0
H663 H 0.11496 0.92896 0.7118 0.0
H664 H 0.14989 0.92891 0.69136 0.0
H665 H 0.18586 0.03684 0.66694 0.0
H666 H 0.3017 0.94497 0.62662 0.0
H667 H 0.23722 0.93695 0.63258 0.0
H668 H 0.20054 0.91907 0.65311 0.0
C669 C 0.13344 0.94484 0.69109 0.0
C670 C 0.18784 0.01062 0.66354 0.0
C671 C 0.11373 0.94523 0.7029 0.0
C672 C 0.30203 0.96845 0.63342 0.0
C673 C 0.26513 0.96372 0.63693 0.0
C674 C 0.19694 0.94485 0.65557 0.0
C675 C 0.13435 0.96703 0.67954 0.0
C676 C 0.16125 0.97169 0.66819 0.0
C677 C 0.26435 0.99246 0.64635 0.0
C678 C 0.22577 0.98445 0.652 0.0
H679 H 0.07809 0.00547 0.6918 0.0
H680 H 0.11316 0.00512 0.67102 0.0
H681 H 0.14449 0.90803 0.66673 0.0
H682 H 0.36614 0.05784 0.65276 0.0
H683 H 0.30209 0.04929 0.65916 0.0
C684 C 0.23815 0.17056 0.0273 0.0
C685 C 0.20334 0.16417 0.03363 0.0
C686 C 0.26077 0.20528 0.01985 0.0
C687 C 0.27329 0.30622 0.01186 0.0
H688 H 0.30428 0.28359 0.97613 0.0
C689 C 0.33742 0.42736 0.97065 0.0
C690 C 0.32227 0.41277 0.95666 0.0
C691 C 0.33079 0.4 0.98102 0.0
C692 C 0.29573 0.29045 0.98605 0.0
H693 H 0.1662 0.1903 0.03772 0.0
H694 H 0.20476 0.25003 0.02445 0.0
H695 H 0.27812 0.23145 0.99305 0.0
H696 H 0.28793 0.35834 0.9426 0.0
H697 H 0.27554 0.31055 0.96064 0.0
H698 H 0.28844 0.36426 0.00445 0.0
C699 C 0.21522 0.22876 0.02541 0.0
C700 C 0.28127 0.2607 0.99588 0.0
C701 C 0.19288 0.19429 0.03298 0.0
C702 C 0.30057 0.37038 0.95325 0.0
C703 C 0.29369 0.34305 0.9636 0.0
C704 C 0.28741 0.33585 0.00197 0.0
C705 C 0.24885 0.2342 0.01844 0.0
C706 C 0.26902 0.26784 0.0088 0.0
C707 C 0.30834 0.35745 0.97766 0.0
C708 C 0.29794 0.32797 0.9888 0.0
H709 H 0.24729 0.14815 0.02773 0.0
H710 H 0.28702 0.2089 0.0149 0.0
H711 H 0.26481 0.31309 0.02179 0.0
H712 H 0.35375 0.45988 0.97362 0.0
H713 H 0.34285 0.4122 0.99169 0.0
C714 C 0.13189 0.24056 0.36416 0.0
C715 C 0.10432 0.21496 0.37361 0.0
C716 C 0.12256 0.26399 0.35563 0.0
C717 C 0.03295 0.2605 0.33955 0.0
H718 H 0.1109 0.36703 0.32723 0.0
C719 C 0.96825 0.33448 0.29473 0.0
C720 C 0.01003 0.3758 0.28559 0.0
C721 C 0.98457 0.31616 0.30917 0.0
C722 C 0.08888 0.33712 0.33048 0.0
H723 H 0.04676 0.19643 0.3823 0.0
H724 H 0.0308 0.23774 0.36756 0.0
H725 H 0.13129 0.33804 0.346 0.0
H726 H 0.08444 0.40463 0.27917 0.0
H727 H 0.10594 0.37032 0.30214 0.0
H728 H 0.99093 0.25884 0.32388 0.0
C729 C 0.05922 0.23896 0.36652 0.0
C730 C 0.10052 0.32061 0.34127 0.0
C731 C 0.0685 0.21548 0.37503 0.0
C732 C 0.06171 0.3833 0.2857 0.0
C733 C 0.0751 0.36341 0.30046 0.0
C734 C 0.02138 0.27698 0.32879 0.0
C735 C 0.08551 0.2624 0.3564 0.0
C736 C 0.07274 0.28192 0.34584 0.0
C737 C 0.03735 0.33159 0.31224 0.0
C738 C 0.0493 0.31526 0.32406 0.0
H739 H 0.15982 0.241 0.36282 0.0
H740 H 0.14339 0.28155 0.3479 0.0
H741 H 0.01103 0.23023 0.34258 0.0
H742 H 0.93761 0.32846 0.29359 0.0
H743 H 0.96245 0.29623 0.31614 0.0
loop_
_geom_bond_atom_site_label_1
_geom_bond_atom_site_label_2
_geom_bond_distance
_geom_bond_site_symmetry_2
_ccdc_geom_bond_type
Zn0 O3 2.031 1_545 S
Zn0 O5 2.049 . S
Zn0 O10 2.067 . S
Zn1 O2 1.962 . S
Zn1 O4 1.986 . S
Zn1 O6 1.996 . S
Zn1 O9 1.943 . S
O2 Zn1 1.962 . S
O2 C7 1.254 . S
O3 Zn0 2.031 1_565 S
O3 C7 1.269 1_565 S
O4 Zn1 1.986 . S
O4 C11 1.262 . S
O5 Zn0 2.049 . S
O5 C13 1.260 . S
O6 Zn1 1.996 . S
O6 C13 1.257 . S
C7 O2 1.254 . S
C7 O3 1.269 1_545 S
C8 O9 1.249 . S
C8 O10 1.270 . S
O9 Zn1 1.943 . S
O9 C8 1.249 . S
O10 Zn0 2.067 . S
O10 C8 1.270 . S
C11 O4 1.262 . S
C11 O12 1.232 . S
O12 C11 1.232 . S
C13 O5 1.260 . S
C13 O6 1.257 . S
Zn14 O17 2.031 . S
Zn14 O19 2.049 . S
Zn14 O24 2.067 . S
Zn15 O16 1.962 . S
Zn15 O18 1.986 1_455 S
Zn15 O20 1.996 . S
Zn15 O23 1.943 . S
O16 Zn15 1.962 . S
O16 C21 1.254 . S
O17 Zn14 2.031 . S
O17 C21 1.269 . S
O18 Zn15 1.986 1_655 S
O18 C25 1.262 . S
O19 Zn14 2.049 . S
O19 C27 1.260 . S
O20 Zn15 1.996 . S
O20 C27 1.257 . S
C21 O16 1.254 . S
C21 O17 1.269 . S
C22 O23 1.249 . S
C22 O24 1.270 . S
O23 Zn15 1.943 . S
O23 C22 1.249 . S
O24 Zn14 2.067 . S
O24 C22 1.270 . S
C25 O18 1.262 . S
C25 O26 1.232 . S
O26 C25 1.232 . S
C27 O19 1.260 . S
C27 O20 1.257 . S
Zn28 O31 2.031 1_565 S
Zn28 O33 2.049 . S
Zn28 O38 2.067 1_565 S
Zn29 O30 1.967 . S
Zn29 O32 1.986 1_455 S
Zn29 O34 1.996 1_445 S
Zn29 O37 1.943 . S
O30 Zn29 1.967 . S
O30 C35 1.251 . S
O31 Zn28 2.031 1_545 S
O31 C35 1.269 . S
O32 Zn29 1.986 1_655 S
O32 C39 1.262 . S
O33 Zn28 2.049 . S
O33 C41 1.260 1_455 S
O34 Zn29 1.996 1_665 S
O34 C41 1.257 . S
C35 O30 1.251 . S
C35 O31 1.269 . S
C36 O37 1.249 . S
C36 O38 1.270 . S
O37 Zn29 1.943 . S
O37 C36 1.249 . S
O38 Zn28 2.067 1_545 S
O38 C36 1.270 . S
C39 O32 1.262 . S
C39 O40 1.232 1_655 S
O40 C39 1.232 1_455 S
C41 O33 1.260 1_655 S
C41 O34 1.257 . S
C42 C43 1.560 1_655 S
C42 H103 0.959 . S
C42 H104 0.959 . S
C42 H105 0.960 . S
C43 C42 1.560 1_455 S
C43 O98 1.426 1_455 S
C43 H102 0.980 . S
C44 C45 1.407 . S
C44 C49 1.418 1_455 S
C44 O98 1.334 1_455 S
C45 C44 1.407 . S
C45 C46 1.360 . S
C45 H106 0.929 . S
C46 C45 1.360 . S
C46 C47 1.401 . S
C46 C50 1.527 . S
C47 C46 1.401 . S
C47 C48 1.428 . S
C47 C80 1.587 . S
C48 C47 1.428 . S
C48 C49 1.314 1_455 S
C48 C51 1.491 1_455 S
C49 C44 1.418 1_655 S
C49 C48 1.314 1_655 S
C49 H107 0.929 . S
C50 C46 1.527 . S
C50 H108 0.959 . S
C50 H109 0.961 . S
C50 H110 0.961 . S
C51 C48 1.491 1_655 S
C51 H111 0.960 . S
C51 H112 0.960 . S
C51 H113 0.961 . S
C52 C53 1.517 . S
C52 H115 0.961 . S
C52 H116 0.960 . S
C52 H117 0.959 . S
C53 C52 1.517 . S
C53 O101 1.468 . S
C53 H114 0.980 . S
C54 C55 1.349 . S
C54 C59 1.367 . S
C54 O101 1.408 . S
C55 C54 1.349 . S
C55 C56 1.407 . S
C55 H118 0.930 . S
C56 C55 1.407 . S
C56 C57 1.449 . S
C56 C60 1.558 . S
C57 C56 1.449 . S
C57 C58 1.384 . S
C57 C82 1.553 . S
C58 C57 1.384 . S
C58 C59 1.364 . S
C58 C61 1.450 . S
C59 C54 1.367 . S
C59 C58 1.364 . S
C59 H119 0.931 . S
C60 C56 1.558 . S
C60 H120 0.950 . S
C60 H121 0.949 1_455 S
C60 H122 0.958 1_455 S
C61 C58 1.450 . S
C61 H123 0.960 . S
C61 H124 0.960 . S
C61 H125 0.960 . S
C62 C63 1.309 . S
C62 C67 1.304 . S
C62 O100 1.435 . S
C63 C62 1.309 . S
C63 C64 1.476 . S
C63 H127 0.930 . S
C64 C63 1.476 . S
C64 C65 1.400 . S
C64 C68 1.539 1_455 S
C65 C64 1.400 . S
C65 C66 1.373 . S
C65 C87 1.432 . S
C66 C65 1.373 . S
C66 C67 1.339 . S
C66 C69 1.530 . S
C67 C62 1.304 . S
C67 C66 1.339 . S
C67 H128 0.930 . S
C68 C64 1.539 1_655 S
C68 H129 0.969 1_655 S
C68 H130 0.962 . S
C68 H131 0.976 . S
C69 C66 1.530 . S
C69 H132 0.961 . S
C69 H133 0.960 . S
C69 H134 0.960 . S
C70 C71 1.530 . S
C70 H136 0.961 . S
C70 H137 0.954 1_455 S
C70 H138 0.959 . S
C71 C70 1.530 . S
C71 O99 1.412 . S
C71 H135 0.980 . S
C72 C73 1.284 1_455 S
C72 C77 1.377 . S
C72 O99 1.393 . S
C73 C72 1.284 1_655 S
C73 C74 1.362 1_655 S
C73 H139 0.943 . S
C74 C73 1.362 1_455 S
C74 C75 1.398 . S
C74 C78 1.527 1_455 S
C75 C74 1.398 . S
C75 C76 1.380 . S
C75 C89 1.497 . S
C76 C75 1.380 . S
C76 C77 1.383 . S
C76 C79 1.603 . S
C77 C72 1.377 . S
C77 C76 1.383 . S
C77 H140 0.929 . S
C78 C74 1.527 1_655 S
C78 H141 0.961 . S
C78 H142 0.959 . S
C78 H143 0.959 . S
C79 C76 1.603 . S
C79 H144 0.960 . S
C79 H145 0.962 . S
C79 H146 0.961 . S
C80 C47 1.587 . S
C80 C81 1.360 . S
C80 C93 1.412 . S
C81 C80 1.360 . S
C81 C82 1.365 . S
C81 H147 0.929 . S
C82 C57 1.553 . S
C82 C81 1.365 . S
C82 C83 1.404 . S
C83 C82 1.404 . S
C83 C84 1.395 . S
C83 C94 1.451 . S
C84 C83 1.395 . S
C84 C85 1.322 . S
C84 H148 0.930 . S
C85 C84 1.322 . S
C85 C86 1.459 . S
C85 H149 0.929 . S
C86 C85 1.459 . S
C86 C87 1.445 . S
C86 C95 1.395 . S
C87 C65 1.432 . S
C87 C86 1.445 . S
C87 C88 1.370 . S
C88 C87 1.370 . S
C88 C89 1.438 . S
C88 H150 0.930 . S
C89 C75 1.497 . S
C89 C88 1.438 . S
C89 C90 1.360 . S
C90 C89 1.360 . S
C90 C91 1.401 . S
C90 C95 1.446 . S
C91 C90 1.401 . S
C91 C92 1.347 . S
C91 H151 0.929 . S
C92 C91 1.347 . S
C92 C93 1.455 . S
C92 H152 0.930 . S
C93 C80 1.412 . S
C93 C92 1.455 . S
C93 C94 1.331 . S
C94 C83 1.451 . S
C94 C93 1.331 . S
C94 C95 1.497 . S
C95 C86 1.395 . S
C95 C90 1.446 . S
C95 C94 1.497 . S
C96 C97 1.582 . S
C96 H153 0.962 . S
C96 H154 0.959 . S
C96 H155 0.958 . S
C97 C96 1.582 . S
C97 O100 1.458 . S
C97 H126 0.980 . S
O98 C43 1.426 1_655 S
O98 C44 1.334 1_655 S
O99 C71 1.412 . S
O99 C72 1.393 . S
O100 C62 1.435 . S
O100 C97 1.458 . S
O101 C53 1.468 . S
O101 C54 1.408 . S
H102 C43 0.980 . S
H103 C42 0.959 . S
H104 C42 0.959 . S
H105 C42 0.960 . S
H106 C45 0.929 . S
H107 C49 0.929 . S
H108 C50 0.959 . S
H109 C50 0.961 . S
H110 C50 0.961 . S
H111 C51 0.960 . S
H112 C51 0.960 . S
H113 C51 0.961 . S
H114 C53 0.980 . S
H115 C52 0.961 . S
H116 C52 0.960 . S
H117 C52 0.959 . S
H118 C55 0.930 . S
H119 C59 0.931 . S
H120 C60 0.950 . S
H121 C60 0.949 1_655 S
H122 C60 0.958 1_655 S
H123 C61 0.960 . S
H124 C61 0.960 . S
H125 C61 0.960 . S
H126 C97 0.980 . S
H127 C63 0.930 . S
H128 C67 0.930 . S
H129 C68 0.969 1_455 S
H130 C68 0.962 . S
H131 C68 0.976 . S
H132 C69 0.961 . S
H133 C69 0.960 . S
H134 C69 0.960 . S
H135 C71 0.980 . S
H136 C70 0.961 . S
H137 C70 0.954 1_655 S
H138 C70 0.959 . S
H139 C73 0.943 . S
H140 C77 0.929 . S
H141 C78 0.961 . S
H142 C78 0.959 . S
H143 C78 0.959 . S
H144 C79 0.960 . S
H145 C79 0.962 . S
H146 C79 0.961 . S
H147 C81 0.929 . S
H148 C84 0.930 . S
H149 C85 0.929 . S
H150 C88 0.930 . S
H151 C91 0.929 . S
H152 C92 0.930 . S
H153 C96 0.962 . S
H154 C96 0.959 . S
H155 C96 0.958 . S
C156 C157 1.560 1_565 S
C156 H217 0.959 . S
C156 H218 0.959 . S
C156 H219 0.960 . S
C157 C156 1.560 1_545 S
C157 O212 1.407 1_545 S
C157 H216 0.980 . S
C158 C159 1.407 . S
C158 C163 1.418 1_545 S
C158 O212 1.334 1_545 S
C159 C158 1.407 . S
C159 C160 1.360 . S
C159 H220 0.929 . S
C160 C159 1.360 . S
C160 C161 1.401 . S
C160 C164 1.527 . S
C161 C160 1.401 . S
C161 C162 1.405 . S
C161 C194 1.587 . S
C162 C161 1.405 . S
C162 C163 1.332 1_545 S
C162 C165 1.496 1_545 S
C163 C158 1.418 1_565 S
C163 C162 1.332 1_565 S
C163 H221 0.929 . S
C164 C160 1.527 . S
C164 H222 0.959 . S
C164 H223 0.961 . S
C164 H224 0.961 . S
C165 C162 1.496 1_565 S
C165 H225 0.960 . S
C165 H226 0.960 . S
C165 H227 0.961 . S
C166 C167 1.517 . S
C166 H229 0.961 . S
C166 H230 0.960 . S
C166 H231 0.959 . S
C167 C166 1.517 . S
C167 O215 1.468 . S
C167 H228 0.980 . S
C168 C169 1.349 . S
C168 C173 1.367 . S
C168 O215 1.408 . S
C169 C168 1.349 . S
C169 C170 1.407 . S
C169 H232 0.930 . S
C170 C169 1.407 . S
C170 C171 1.449 . S
C170 C174 1.535 . S
C171 C170 1.449 . S
C171 C172 1.384 . S
C171 C196 1.553 . S
C172 C171 1.384 . S
C172 C173 1.364 . S
C172 C175 1.450 . S
C173 C168 1.367 . S
C173 C172 1.364 . S
C173 H233 0.931 . S
C174 C170 1.535 . S
C174 H234 0.959 . S
C174 H235 0.961 1_545 S
C174 H236 0.959 1_545 S
C175 C172 1.450 . S
C175 H237 0.960 . S
C175 H238 0.960 . S
C175 H239 0.960 . S
C176 C177 1.309 . S
C176 C181 1.304 . S
C176 O214 1.435 . S
C177 C176 1.309 . S
C177 C178 1.476 . S
C177 H241 0.930 . S
C178 C177 1.476 . S
C178 C179 1.400 . S
C178 C182 1.567 . S
C179 C178 1.400 . S
C179 C180 1.373 . S
C179 C201 1.432 . S
C180 C179 1.373 . S
C180 C181 1.339 . S
C180 C183 1.530 . S
C181 C176 1.304 . S
C181 C180 1.339 . S
C181 H242 0.930 . S
C182 C178 1.567 . S
C182 H243 0.961 . S
C182 H244 0.960 1_545 S
C182 H245 0.958 1_545 S
C183 C180 1.530 . S
C183 H246 0.961 . S
C183 H247 0.960 . S
C183 H248 0.960 . S
C184 C185 1.530 . S
C184 H250 0.961 . S
C184 H251 0.961 . S
C184 H252 0.959 . S
C185 C184 1.530 . S
C185 O213 1.412 . S
C185 H249 0.980 . S
C186 C187 1.288 . S
C186 C191 1.377 . S
C186 O213 1.393 . S
C187 C186 1.288 . S
C187 C188 1.369 . S
C187 H253 0.932 1_545 S
C188 C187 1.369 . S
C188 C189 1.398 . S
C188 C192 1.527 1_545 S
C189 C188 1.398 . S
C189 C190 1.380 . S
C189 C203 1.497 . S
C190 C189 1.380 . S
C190 C191 1.383 . S
C190 C193 1.603 . S
C191 C186 1.377 . S
C191 C190 1.383 . S
C191 H254 0.929 . S
C192 C188 1.527 1_565 S
C192 H255 0.961 . S
C192 H256 0.959 . S
C192 H257 0.959 . S
C193 C190 1.603 . S
C193 H258 0.960 . S
C193 H259 0.962 . S
C193 H260 0.961 . S
C194 C161 1.587 . S
C194 C195 1.360 . S
C194 C207 1.412 . S
C195 C194 1.360 . S
C195 C196 1.365 . S
C195 H261 0.929 . S
C196 C171 1.553 . S
C196 C195 1.365 . S
C196 C197 1.404 . S
C197 C196 1.404 . S
C197 C198 1.395 . S
C197 C208 1.451 . S
C198 C197 1.395 . S
C198 C199 1.322 . S
C198 H262 0.930 . S
C199 C198 1.322 . S
C199 C200 1.459 . S
C199 H263 0.929 . S
C200 C199 1.459 . S
C200 C201 1.445 . S
C200 C209 1.395 . S
C201 C179 1.432 . S
C201 C200 1.445 . S
C201 C202 1.370 . S
C202 C201 1.370 . S
C202 C203 1.438 . S
C202 H264 0.930 . S
C203 C189 1.497 . S
C203 C202 1.438 . S
C203 C204 1.360 . S
C204 C203 1.360 . S
C204 C205 1.401 . S
C204 C209 1.446 . S
C205 C204 1.401 . S
C205 C206 1.347 . S
C205 H265 0.929 . S
C206 C205 1.347 . S
C206 C207 1.455 . S
C206 H266 0.930 . S
C207 C194 1.412 . S
C207 C206 1.455 . S
C207 C208 1.331 . S
C208 C197 1.451 . S
C208 C207 1.331 . S
C208 C209 1.497 . S
C209 C200 1.395 . S
C209 C204 1.446 . S
C209 C208 1.497 . S
C210 C211 1.582 . S
C210 H267 0.962 . S
C210 H268 0.959 . S
C210 H269 0.958 . S
C211 C210 1.582 . S
C211 O214 1.458 . S
C211 H240 0.980 . S
O212 C157 1.407 1_565 S
O212 C158 1.334 1_565 S
O213 C185 1.412 . S
O213 C186 1.393 . S
O214 C176 1.435 . S
O214 C211 1.458 . S
O215 C167 1.468 . S
O215 C168 1.408 . S
H216 C157 0.980 . S
H217 C156 0.959 . S
H218 C156 0.959 . S
H219 C156 0.960 . S
H220 C159 0.929 . S
H221 C163 0.929 . S
H222 C164 0.959 . S
H223 C164 0.961 . S
H224 C164 0.961 . S
H225 C165 0.960 . S
H226 C165 0.960 . S
H227 C165 0.961 . S
H228 C167 0.980 . S
H229 C166 0.961 . S
H230 C166 0.960 . S
H231 C166 0.959 . S
H232 C169 0.930 . S
H233 C173 0.931 . S
H234 C174 0.959 . S
H235 C174 0.961 1_565 S
H236 C174 0.959 1_565 S
H237 C175 0.960 . S
H238 C175 0.960 . S
H239 C175 0.960 . S
H240 C211 0.980 . S
H241 C177 0.930 . S
H242 C181 0.930 . S
H243 C182 0.961 . S
H244 C182 0.960 1_565 S
H245 C182 0.958 1_565 S
H246 C183 0.961 . S
H247 C183 0.960 . S
H248 C183 0.960 . S
H249 C185 0.980 . S
H250 C184 0.961 . S
H251 C184 0.961 . S
H252 C184 0.959 . S
H253 C187 0.932 1_565 S
H254 C191 0.929 . S
H255 C192 0.961 . S
H256 C192 0.959 . S
H257 C192 0.959 . S
H258 C193 0.960 . S
H259 C193 0.962 . S
H260 C193 0.961 . S
H261 C195 0.929 . S
H262 C198 0.930 . S
H263 C199 0.929 . S
H264 C202 0.930 . S
H265 C205 0.929 . S
H266 C206 0.930 . S
H267 C210 0.962 . S
H268 C210 0.959 . S
H269 C210 0.958 . S
C270 C271 1.560 . S
C270 H331 0.959 . S
C270 H332 0.959 . S
C270 H333 0.960 . S
C271 C270 1.560 . S
C271 O326 1.426 . S
C271 H330 0.980 . S
C272 C273 1.407 . S
C272 C277 1.418 . S
C272 O326 1.334 . S
C273 C272 1.407 . S
C273 C274 1.360 . S
C273 H334 0.929 . S
C274 C273 1.360 . S
C274 C275 1.401 . S
C274 C278 1.527 . S
C275 C274 1.401 . S
C275 C276 1.405 . S
C275 C308 1.587 . S
C276 C275 1.405 . S
C276 C277 1.332 . S
C276 C279 1.496 . S
C277 C272 1.418 . S
C277 C276 1.332 . S
C277 H335 0.929 . S
C278 C274 1.527 . S
C278 H336 0.959 . S
C278 H337 0.961 . S
C278 H338 0.961 . S
C279 C276 1.496 . S
C279 H339 0.960 . S
C279 H340 0.960 . S
C279 H341 0.961 . S
C280 C281 1.517 . S
C280 H343 0.961 . S
C280 H344 0.960 . S
C280 H345 0.959 . S
C281 C280 1.517 . S
C281 O329 1.468 . S
C281 H342 0.980 . S
C282 C283 1.349 . S
C282 C287 1.367 . S
C282 O329 1.408 . S
C283 C282 1.349 . S
C283 C284 1.407 . S
C283 H346 0.930 . S
C284 C283 1.407 . S
C284 C285 1.449 . S
C284 C288 1.535 . S
C285 C284 1.449 . S
C285 C286 1.384 . S
C285 C310 1.553 . S
C286 C285 1.384 . S
C286 C287 1.364 . S
C286 C289 1.450 . S
C287 C282 1.367 . S
C287 C286 1.364 . S
C287 H347 0.931 . S
C288 C284 1.535 . S
C288 H348 0.959 . S
C288 H349 0.961 . S
C288 H350 0.959 . S
C289 C286 1.450 . S
C289 H351 0.960 . S
C289 H352 0.960 . S
C289 H353 0.960 . S
C290 C291 1.309 . S
C290 C295 1.304 . S
C290 O328 1.435 . S
C291 C290 1.309 . S
C291 C292 1.476 . S
C291 H355 0.930 . S
C292 C291 1.476 . S
C292 C293 1.400 . S
C292 C296 1.567 . S
C293 C292 1.400 . S
C293 C294 1.373 . S
C293 C315 1.432 . S
C294 C293 1.373 . S
C294 C295 1.339 . S
C294 C297 1.530 . S
C295 C290 1.304 . S
C295 C294 1.339 . S
C295 H356 0.930 . S
C296 C292 1.567 . S
C296 H357 0.961 . S
C296 H358 0.960 . S
C296 H359 0.958 . S
C297 C294 1.530 . S
C297 H360 0.961 . S
C297 H361 0.960 . S
C297 H362 0.960 . S
C298 C299 1.530 . S
C298 H364 0.961 . S
C298 H365 0.961 . S
C298 H366 0.959 . S
C299 C298 1.530 . S
C299 O327 1.412 . S
C299 H363 0.980 . S
C300 C301 1.288 . S
C300 C305 1.377 . S
C300 O327 1.393 . S
C301 C300 1.288 . S
C301 C302 1.369 . S
C301 H367 0.932 . S
C302 C301 1.369 . S
C302 C303 1.398 . S
C302 C306 1.527 . S
C303 C302 1.398 . S
C303 C304 1.380 . S
C303 C317 1.497 . S
C304 C303 1.380 . S
C304 C305 1.383 . S
C304 C307 1.603 . S
C305 C300 1.377 . S
C305 C304 1.383 . S
C305 H368 0.929 . S
C306 C302 1.527 . S
C306 H369 0.961 . S
C306 H370 0.959 . S
C306 H371 0.959 . S
C307 C304 1.603 . S
C307 H372 0.960 . S
C307 H373 0.962 . S
C307 H374 0.961 . S
C308 C275 1.587 . S
C308 C309 1.360 . S
C308 C321 1.412 . S
C309 C308 1.360 . S
C309 C310 1.365 . S
C309 H375 0.929 . S
C310 C285 1.553 . S
C310 C309 1.365 . S
C310 C311 1.404 . S
C311 C310 1.404 . S
C311 C312 1.395 . S
C311 C322 1.451 . S
C312 C311 1.395 . S
C312 C313 1.322 . S
C312 H376 0.930 . S
C313 C312 1.322 . S
C313 C314 1.459 . S
C313 H377 0.929 . S
C314 C313 1.459 . S
C314 C315 1.445 . S
C314 C323 1.395 . S
C315 C293 1.432 . S
C315 C314 1.445 . S
C315 C316 1.370 . S
C316 C315 1.370 . S
C316 C317 1.438 . S
C316 H378 0.930 . S
C317 C303 1.497 . S
C317 C316 1.438 . S
C317 C318 1.360 . S
C318 C317 1.360 . S
C318 C319 1.401 . S
C318 C323 1.446 . S
C319 C318 1.401 . S
C319 C320 1.347 . S
C319 H379 0.929 . S
C320 C319 1.347 . S
C320 C321 1.455 . S
C320 H380 0.930 . S
C321 C308 1.412 . S
C321 C320 1.455 . S
C321 C322 1.331 . S
C322 C311 1.451 . S
C322 C321 1.331 . S
C322 C323 1.497 . S
C323 C314 1.395 . S
C323 C318 1.446 . S
C323 C322 1.497 . S
C324 C325 1.582 . S
C324 H381 0.962 . S
C324 H382 0.959 . S
C324 H383 0.958 . S
C325 C324 1.582 . S
C325 O328 1.458 . S
C325 H354 0.980 . S
O326 C271 1.426 . S
O326 C272 1.334 . S
O327 C299 1.412 . S
O327 C300 1.393 . S
O328 C290 1.435 . S
O328 C325 1.458 . S
O329 C281 1.468 . S
O329 C282 1.408 . S
H330 C271 0.980 . S
H331 C270 0.959 . S
H332 C270 0.959 . S
H333 C270 0.960 . S
H334 C273 0.929 . S
H335 C277 0.929 . S
H336 C278 0.959 . S
H337 C278 0.961 . S
H338 C278 0.961 . S
H339 C279 0.960 . S
H340 C279 0.960 . S
H341 C279 0.961 . S
H342 C281 0.980 . S
H343 C280 0.961 . S
H344 C280 0.960 . S
H345 C280 0.959 . S
H346 C283 0.930 . S
H347 C287 0.931 . S
H348 C288 0.959 . S
H349 C288 0.961 . S
H350 C288 0.959 . S
H351 C289 0.960 . S
H352 C289 0.960 . S
H353 C289 0.960 . S
H354 C325 0.980 . S
H355 C291 0.930 . S
H356 C295 0.930 . S
H357 C296 0.961 . S
H358 C296 0.960 . S
H359 C296 0.958 . S
H360 C297 0.961 . S
H361 C297 0.960 . S
H362 C297 0.960 . S
H363 C299 0.980 . S
H364 C298 0.961 . S
H365 C298 0.961 . S
H366 C298 0.959 . S
H367 C301 0.932 . S
H368 C305 0.929 . S
H369 C306 0.961 . S
H370 C306 0.959 . S
H371 C306 0.959 . S
H372 C307 0.960 . S
H373 C307 0.962 . S
H374 C307 0.961 . S
H375 C309 0.929 . S
H376 C312 0.930 . S
H377 C313 0.929 . S
H378 C316 0.930 . S
H379 C319 0.929 . S
H380 C320 0.930 . S
H381 C324 0.962 . S
H382 C324 0.959 . S
H383 C324 0.958 . S
C384 C385 1.349 . S
C384 C386 1.327 . S
C384 H409 0.950 . S
C385 C384 1.349 . S
C385 C401 1.349 . S
C386 C384 1.327 . S
C386 C405 1.429 . S
C386 H410 0.950 . S
C387 C404 1.574 . S
C387 C406 1.368 . S
C387 H411 0.949 . S
H388 C392 0.949 . S
C389 C390 1.349 . S
C389 C391 1.327 . S
C389 H412 0.950 . S
C390 C389 1.349 . S
C390 C402 1.349 . S
C391 C389 1.327 . S
C391 C407 1.429 . S
C391 H413 0.950 . S
C392 H388 0.949 . S
C392 C400 1.574 . S
C392 C408 1.368 . S
H393 C401 0.950 . S
H394 C399 0.950 . S
H395 C400 0.949 . S
H396 C402 0.950 . S
H397 C403 0.950 . S
H398 C404 0.949 . S
C399 H394 0.950 . S
C399 C401 1.327 . S
C399 C405 1.429 . S
C400 C392 1.574 . S
C400 H395 0.949 . S
C400 C406 1.368 . S
C401 C385 1.349 . S
C401 H393 0.950 . S
C401 C399 1.327 . S
C402 C390 1.349 . S
C402 H396 0.950 . S
C402 C403 1.327 . S
C403 H397 0.950 . S
C403 C402 1.327 . S
C403 C407 1.429 . S
C404 C387 1.574 . S
C404 H398 0.949 . S
C404 C408 1.368 . S
C405 C386 1.429 . S
C405 C399 1.429 . S
C405 C406 1.523 . S
C406 C387 1.368 . S
C406 C400 1.368 . S
C406 C405 1.523 . S
C407 C391 1.429 . S
C407 C403 1.429 . S
C407 C408 1.523 . S
C408 C392 1.368 . S
C408 C404 1.368 . S
C408 C407 1.523 . S
H409 C384 0.950 . S
H410 C386 0.950 . S
H411 C387 0.949 . S
H412 C389 0.950 . S
H413 C391 0.950 . S
C414 C415 1.349 . S
C414 C416 1.327 . S
C414 H439 0.950 . S
C415 C414 1.349 . S
C415 C431 1.349 . S
C416 C414 1.327 . S
C416 C435 1.429 . S
C416 H440 0.950 . S
C417 C434 1.574 . S
C417 C436 1.368 . S
C417 H441 0.949 . S
H418 C422 0.949 . S
C419 C420 1.349 . S
C419 C421 1.327 . S
C419 H442 0.950 . S
C420 C419 1.349 . S
C420 C432 1.349 . S
C421 C419 1.327 . S
C421 C437 1.429 . S
C421 H443 0.950 . S
C422 H418 0.949 . S
C422 C430 1.574 . S
C422 C438 1.368 . S
H423 C431 0.950 . S
H424 C429 0.950 . S
H425 C430 0.949 . S
H426 C432 0.950 . S
H427 C433 0.950 . S
H428 C434 0.949 . S
C429 H424 0.950 . S
C429 C431 1.327 . S
C429 C435 1.429 . S
C430 C422 1.574 . S
C430 H425 0.949 . S
C430 C436 1.368 . S
C431 C415 1.349 . S
C431 H423 0.950 . S
C431 C429 1.327 . S
C432 C420 1.349 . S
C432 H426 0.950 . S
C432 C433 1.327 . S
C433 H427 0.950 . S
C433 C432 1.327 . S
C433 C437 1.429 . S
C434 C417 1.574 . S
C434 H428 0.949 . S
C434 C438 1.368 . S
C435 C416 1.429 . S
C435 C429 1.429 . S
C435 C436 1.523 . S
C436 C417 1.368 . S
C436 C430 1.368 . S
C436 C435 1.523 . S
C437 C421 1.429 . S
C437 C433 1.429 . S
C437 C438 1.523 . S
C438 C422 1.368 . S
C438 C434 1.368 . S
C438 C437 1.523 . S
H439 C414 0.950 . S
H440 C416 0.950 . S
H441 C417 0.949 . S
H442 C419 0.950 . S
H443 C421 0.950 . S
C444 C445 1.349 . S
C444 C446 1.327 . S
C444 H469 0.950 . S
C445 C444 1.349 . S
C445 C461 1.349 . S
C446 C444 1.327 . S
C446 C465 1.429 . S
C446 H470 0.950 . S
C447 C464 1.574 . S
C447 C466 1.368 . S
C447 H471 0.949 . S
H448 C452 0.949 . S
C449 C450 1.349 . S
C449 C451 1.327 . S
C449 H472 0.950 . S
C450 C449 1.349 . S
C450 C462 1.349 . S
C451 C449 1.327 . S
C451 C467 1.429 . S
C451 H473 0.950 . S
C452 H448 0.949 . S
C452 C460 1.574 . S
C452 C468 1.368 . S
H453 C461 0.950 . S
H454 C459 0.950 . S
H455 C460 0.949 . S
H456 C462 0.950 . S
H457 C463 0.950 . S
H458 C464 0.949 . S
C459 H454 0.950 . S
C459 C461 1.327 . S
C459 C465 1.429 . S
C460 C452 1.574 . S
C460 H455 0.949 . S
C460 C466 1.368 . S
C461 C445 1.349 . S
C461 H453 0.950 . S
C461 C459 1.327 . S
C462 C450 1.349 . S
C462 H456 0.950 . S
C462 C463 1.327 . S
C463 H457 0.950 . S
C463 C462 1.327 . S
C463 C467 1.429 . S
C464 C447 1.574 . S
C464 H458 0.949 . S
C464 C468 1.368 . S
C465 C446 1.429 . S
C465 C459 1.429 . S
C465 C466 1.523 . S
C466 C447 1.368 . S
C466 C460 1.368 . S
C466 C465 1.523 . S
C467 C451 1.429 . S
C467 C463 1.429 . S
C467 C468 1.523 . S
C468 C452 1.368 . S
C468 C464 1.368 . S
C468 C467 1.523 . S
H469 C444 0.950 . S
H470 C446 0.950 . S
H471 C447 0.949 . S
H472 C449 0.950 . S
H473 C451 0.950 . S
C474 C475 1.349 . S
C474 C476 1.327 . S
C474 H499 0.950 . S
C475 C474 1.349 . S
C475 C491 1.349 1_565 S
C476 C474 1.327 . S
C476 C495 1.429 . S
C476 H500 0.950 . S
C477 C494 1.574 . S
C477 C496 1.368 . S
C477 H501 0.949 . S
H478 C482 0.949 . S
C479 C480 1.349 . S
C479 C481 1.327 . S
C479 H502 0.950 . S
C480 C479 1.349 . S
C480 C492 1.349 . S
C481 C479 1.327 . S
C481 C497 1.429 . S
C481 H503 0.950 . S
C482 H478 0.949 . S
C482 C490 1.574 . S
C482 C498 1.368 . S
H483 C491 0.950 . S
H484 C489 0.950 . S
H485 C490 0.949 . S
H486 C492 0.950 . S
H487 C493 0.950 . S
H488 C494 0.949 . S
C489 H484 0.950 . S
C489 C491 1.327 1_565 S
C489 C495 1.429 . S
C490 C482 1.574 . S
C490 H485 0.949 . S
C490 C496 1.368 . S
C491 C475 1.349 1_545 S
C491 H483 0.950 . S
C491 C489 1.327 1_545 S
C492 C480 1.349 . S
C492 H486 0.950 . S
C492 C493 1.327 . S
C493 H487 0.950 . S
C493 C492 1.327 . S
C493 C497 1.429 . S
C494 C477 1.574 . S
C494 H488 0.949 . S
C494 C498 1.368 . S
C495 C476 1.429 . S
C495 C489 1.429 . S
C495 C496 1.523 . S
C496 C477 1.368 . S
C496 C490 1.368 . S
C496 C495 1.523 . S
C497 C481 1.429 . S
C497 C493 1.429 . S
C497 C498 1.523 . S
C498 C482 1.368 . S
C498 C494 1.368 . S
C498 C497 1.523 . S
H499 C474 0.950 . S
H500 C476 0.950 . S
H501 C477 0.949 . S
H502 C479 0.950 . S
H503 C481 0.950 . S
C504 C505 1.349 . S
C504 C506 1.327 . S
C504 H529 0.950 . S
C505 C504 1.349 . S
C505 C521 1.349 . S
C506 C504 1.327 . S
C506 C525 1.429 . S
C506 H530 0.950 . S
C507 C524 1.574 . S
C507 C526 1.368 . S
C507 H531 0.949 . S
H508 C512 0.949 . S
C509 C510 1.349 . S
C509 C511 1.327 . S
C509 H532 0.950 . S
C510 C509 1.349 . S
C510 C522 1.349 . S
C511 C509 1.327 . S
C511 C527 1.429 . S
C511 H533 0.950 . S
C512 H508 0.949 . S
C512 C520 1.574 . S
C512 C528 1.368 . S
H513 C521 0.950 . S
H514 C519 0.950 . S
H515 C520 0.949 . S
H516 C522 0.950 . S
H517 C523 0.950 . S
H518 C524 0.949 . S
C519 H514 0.950 . S
C519 C521 1.327 . S
C519 C525 1.429 . S
C520 C512 1.574 . S
C520 H515 0.949 . S
C520 C526 1.368 . S
C521 C505 1.349 . S
C521 H513 0.950 . S
C521 C519 1.327 . S
C522 C510 1.349 . S
C522 H516 0.950 . S
C522 C523 1.327 . S
C523 H517 0.950 . S
C523 C522 1.327 . S
C523 C527 1.429 . S
C524 C507 1.574 . S
C524 H518 0.949 . S
C524 C528 1.368 . S
C525 C506 1.429 . S
C525 C519 1.429 . S
C525 C526 1.523 . S
C526 C507 1.368 . S
C526 C520 1.368 . S
C526 C525 1.523 . S
C527 C511 1.429 . S
C527 C523 1.429 . S
C527 C528 1.523 . S
C528 C512 1.368 . S
C528 C524 1.368 . S
C528 C527 1.523 . S
H529 C504 0.950 . S
H530 C506 0.950 . S
H531 C507 0.949 . S
H532 C509 0.950 . S
H533 C511 0.950 . S
C534 C535 1.349 . S
C534 C536 1.327 . S
C534 H559 0.950 . S
C535 C534 1.349 . S
C535 C551 1.349 . S
C536 C534 1.327 . S
C536 C555 1.429 . S
C536 H560 0.950 . S
C537 C554 1.574 . S
C537 C556 1.368 . S
C537 H561 0.949 . S
H538 C542 0.949 . S
C539 C540 1.349 . S
C539 C541 1.327 . S
C539 H562 0.950 . S
C540 C539 1.349 . S
C540 C552 1.349 . S
C541 C539 1.327 . S
C541 C557 1.429 . S
C541 H563 0.950 . S
C542 H538 0.949 . S
C542 C550 1.574 . S
C542 C558 1.368 . S
H543 C551 0.950 . S
H544 C549 0.950 . S
H545 C550 0.949 . S
H546 C552 0.950 . S
H547 C553 0.950 . S
H548 C554 0.949 . S
C549 H544 0.950 . S
C549 C551 1.327 . S
C549 C555 1.429 . S
C550 C542 1.574 . S
C550 H545 0.949 . S
C550 C556 1.368 . S
C551 C535 1.349 . S
C551 H543 0.950 . S
C551 C549 1.327 . S
C552 C540 1.349 . S
C552 H546 0.950 . S
C552 C553 1.327 . S
C553 H547 0.950 . S
C553 C552 1.327 . S
C553 C557 1.429 . S
C554 C537 1.574 . S
C554 H548 0.949 . S
C554 C558 1.368 . S
C555 C536 1.429 . S
C555 C549 1.429 . S
C555 C556 1.523 . S
C556 C537 1.368 . S
C556 C550 1.368 . S
C556 C555 1.523 . S
C557 C541 1.429 . S
C557 C553 1.429 . S
C557 C558 1.523 . S
C558 C542 1.368 . S
C558 C554 1.368 . S
C558 C557 1.523 . S
H559 C534 0.950 . S
H560 C536 0.950 . S
H561 C537 0.949 . S
H562 C539 0.950 . S
H563 C541 0.950 . S
C564 C565 1.349 . S
C564 C566 1.327 . S
C564 H589 0.950 . S
C565 C564 1.349 . S
C565 C581 1.349 . S
C566 C564 1.327 . S
C566 C585 1.429 . S
C566 H590 0.950 . S
C567 C584 1.574 . S
C567 C586 1.368 . S
C567 H591 0.949 . S
H568 C572 0.949 . S
C569 C570 1.349 . S
C569 C571 1.327 . S
C569 H592 0.950 . S
C570 C569 1.349 . S
C570 C582 1.349 . S
C571 C569 1.327 . S
C571 C587 1.429 . S
C571 H593 0.950 . S
C572 H568 0.949 . S
C572 C580 1.574 . S
C572 C588 1.368 . S
H573 C581 0.950 . S
H574 C579 0.950 . S
H575 C580 0.949 . S
H576 C582 0.950 . S
H577 C583 0.950 . S
H578 C584 0.949 . S
C579 H574 0.950 . S
C579 C581 1.327 . S
C579 C585 1.429 . S
C580 C572 1.574 . S
C580 H575 0.949 . S
C580 C586 1.368 . S
C581 C565 1.349 . S
C581 H573 0.950 . S
C581 C579 1.327 . S
C582 C570 1.349 . S
C582 H576 0.950 . S
C582 C583 1.327 . S
C583 H577 0.950 . S
C583 C582 1.327 . S
C583 C587 1.429 . S
C584 C567 1.574 . S
C584 H578 0.949 . S
C584 C588 1.368 . S
C585 C566 1.429 . S
C585 C579 1.429 . S
C585 C586 1.523 . S
C586 C567 1.368 . S
C586 C580 1.368 . S
C586 C585 1.523 . S
C587 C571 1.429 . S
C587 C583 1.429 . S
C587 C588 1.523 . S
C588 C572 1.368 . S
C588 C584 1.368 . S
C588 C587 1.523 . S
H589 C564 0.950 . S
H590 C566 0.950 . S
H591 C567 0.949 . S
H592 C569 0.950 . S
H593 C571 0.950 . S
C594 C595 1.349 . S
C594 C596 1.327 . S
C594 H619 0.953 1_655 S
C595 C594 1.349 . S
C595 C611 1.349 . S
C596 C594 1.327 . S
C596 C615 1.429 . S
C596 H620 0.950 . S
C597 C614 1.574 . S
C597 C616 1.368 . S
C597 H621 0.949 . S
H598 C602 0.949 . S
C599 C600 1.349 . S
C599 C601 1.327 . S
C599 H622 0.950 . S
C600 C599 1.349 . S
C600 C612 1.349 . S
C601 C599 1.327 . S
C601 C617 1.429 . S
C601 H623 0.950 . S
C602 H598 0.949 . S
C602 C610 1.574 . S
C602 C618 1.368 . S
H603 C611 0.950 . S
H604 C609 0.950 . S
H605 C610 0.949 . S
H606 C612 0.950 . S
H607 C613 0.950 . S
H608 C614 0.949 . S
C609 H604 0.950 . S
C609 C611 1.327 . S
C609 C615 1.429 . S
C610 C602 1.574 . S
C610 H605 0.949 . S
C610 C616 1.368 1_556 S
C611 C595 1.349 . S
C611 H603 0.950 . S
C611 C609 1.327 . S
C612 C600 1.349 . S
C612 H606 0.950 . S
C612 C613 1.327 . S
C613 H607 0.950 . S
C613 C612 1.327 . S
C613 C617 1.429 . S
C614 C597 1.574 . S
C614 H608 0.949 . S
C614 C618 1.368 1_554 S
C615 C596 1.429 . S
C615 C609 1.429 . S
C615 C616 1.523 . S
C616 C597 1.368 . S
C616 C610 1.368 1_554 S
C616 C615 1.523 . S
C617 C601 1.429 . S
C617 C613 1.429 . S
C617 C618 1.523 . S
C618 C602 1.368 . S
C618 C614 1.368 1_556 S
C618 C617 1.523 . S
H619 C594 0.953 1_455 S
H620 C596 0.950 . S
H621 C597 0.949 . S
H622 C599 0.950 . S
H623 C601 0.950 . S
C624 C625 1.349 1_545 S
C624 C626 1.327 1_545 S
C624 H649 0.950 . S
C625 C624 1.349 1_565 S
C625 C641 1.349 1_455 S
C626 C624 1.327 1_565 S
C626 C645 1.429 . S
C626 H650 0.950 . S
C627 C644 1.574 . S
C627 C646 1.368 1_655 S
C627 H651 0.949 . S
H628 C632 0.949 . S
C629 C630 1.349 1_655 S
C629 C631 1.327 . S
C629 H652 0.950 . S
C630 C629 1.349 1_455 S
C630 C642 1.349 . S
C631 C629 1.327 . S
C631 C647 1.429 1_655 S
C631 H653 0.950 . S
C632 H628 0.949 . S
C632 C640 1.574 . S
C632 C648 1.368 . S
H633 C641 0.950 . S
H634 C639 0.950 . S
H635 C640 0.949 . S
H636 C642 0.950 . S
H637 C643 0.950 . S
H638 C644 0.949 . S
C639 H634 0.950 . S
C639 C641 1.327 . S
C639 C645 1.429 1_655 S
C640 C632 1.574 . S
C640 H635 0.949 . S
C640 C646 1.368 . S
C641 C625 1.349 1_655 S
C641 H633 0.950 . S
C641 C639 1.327 . S
C642 C630 1.349 . S
C642 H636 0.950 . S
C642 C643 1.327 . S
C643 H637 0.950 . S
C643 C642 1.327 . S
C643 C647 1.429 . S
C644 C627 1.574 . S
C644 H638 0.949 . S
C644 C648 1.368 1_655 S
C645 C626 1.429 . S
C645 C639 1.429 1_455 S
C645 C646 1.523 . S
C646 C627 1.368 1_455 S
C646 C640 1.368 . S
C646 C645 1.523 . S
C647 C631 1.429 1_455 S
C647 C643 1.429 . S
C647 C648 1.523 . S
C648 C632 1.368 . S
C648 C644 1.368 1_455 S
C648 C647 1.523 . S
H649 C624 0.950 . S
H650 C626 0.950 . S
H651 C627 0.949 . S
H652 C629 0.950 . S
H653 C631 0.950 . S
C654 C655 1.349 . S
C654 C656 1.327 . S
C654 H679 0.950 . S
C655 C654 1.349 . S
C655 C671 1.349 . S
C656 C654 1.327 . S
C656 C675 1.429 . S
C656 H680 0.950 . S
C657 C674 1.574 . S
C657 C676 1.368 . S
C657 H681 0.949 . S
H658 C662 0.949 . S
C659 C660 1.349 . S
C659 C661 1.327 . S
C659 H682 0.950 . S
C660 C659 1.349 . S
C660 C672 1.349 . S
C661 C659 1.327 . S
C661 C677 1.429 . S
C661 H683 0.950 . S
C662 H658 0.949 . S
C662 C670 1.574 . S
C662 C678 1.368 . S
H663 C671 0.942 1_565 S
H664 C669 0.950 . S
H665 C670 0.949 . S
H666 C672 0.950 . S
H667 C673 0.950 . S
H668 C674 0.949 . S
C669 H664 0.950 . S
C669 C671 1.327 . S
C669 C675 1.429 . S
C670 C662 1.574 . S
C670 H665 0.949 . S
C670 C676 1.368 . S
C671 C655 1.349 . S
C671 H663 0.942 1_545 S
C671 C669 1.327 . S
C672 C660 1.349 . S
C672 H666 0.950 . S
C672 C673 1.327 . S
C673 H667 0.950 . S
C673 C672 1.327 . S
C673 C677 1.429 . S
C674 C657 1.574 . S
C674 H668 0.949 . S
C674 C678 1.368 . S
C675 C656 1.429 . S
C675 C669 1.429 . S
C675 C676 1.523 . S
C676 C657 1.368 . S
C676 C670 1.368 . S
C676 C675 1.523 . S
C677 C661 1.429 . S
C677 C673 1.429 . S
C677 C678 1.523 . S
C678 C662 1.368 . S
C678 C674 1.368 . S
C678 C677 1.523 . S
H679 C654 0.950 . S
H680 C656 0.950 . S
H681 C657 0.949 . S
H682 C659 0.950 . S
H683 C661 0.950 . S
C684 C685 1.349 . S
C684 C686 1.327 . S
C684 H709 0.950 . S
C685 C684 1.349 . S
C685 C701 1.349 . S
C686 C684 1.327 . S
C686 C705 1.429 . S
C686 H710 0.950 . S
C687 C704 1.574 . S
C687 C706 1.368 1_556 S
C687 H711 0.951 1_556 S
H688 C692 0.949 . S
C689 C690 1.349 . S
C689 C691 1.327 . S
C689 H712 0.950 . S
C690 C689 1.349 . S
C690 C702 1.349 . S
C691 C689 1.327 . S
C691 C707 1.429 . S
C691 H713 0.950 . S
C692 H688 0.949 . S
C692 C700 1.574 1_556 S
C692 C708 1.368 . S
H693 C701 0.950 . S
H694 C699 0.950 . S
H695 C700 0.949 . S
H696 C702 0.950 . S
H697 C703 0.950 . S
H698 C704 0.949 . S
C699 H694 0.950 . S
C699 C701 1.327 . S
C699 C705 1.429 . S
C700 C692 1.574 1_554 S
C700 H695 0.949 . S
C700 C706 1.368 . S
C701 C685 1.349 . S
C701 H693 0.950 . S
C701 C699 1.327 . S
C702 C690 1.349 . S
C702 H696 0.950 . S
C702 C703 1.327 . S
C703 H697 0.950 . S
C703 C702 1.327 . S
C703 C707 1.429 . S
C704 C687 1.574 . S
C704 H698 0.949 . S
C704 C708 1.368 . S
C705 C686 1.429 . S
C705 C699 1.429 . S
C705 C706 1.523 . S
C706 C687 1.368 1_554 S
C706 C700 1.368 . S
C706 C705 1.523 . S
C707 C691 1.429 . S
C707 C703 1.429 . S
C707 C708 1.523 . S
C708 C692 1.368 . S
C708 C704 1.368 . S
C708 C707 1.523 . S
H709 C684 0.950 . S
H710 C686 0.950 . S
H711 C687 0.951 1_554 S
H712 C689 0.950 . S
H713 C691 0.950 . S
C714 C715 1.349 . S
C714 C716 1.327 . S
C714 H739 0.950 . S
C715 C714 1.349 . S
C715 C731 1.349 . S
C716 C714 1.327 . S
C716 C735 1.429 . S
C716 H740 0.950 . S
C717 C734 1.574 . S
C717 C736 1.368 . S
C717 H741 0.949 1_455 S
H718 C722 0.949 . S
C719 C720 1.349 . S
C719 C721 1.327 . S
C719 H742 0.950 1_455 S
C720 C719 1.349 . S
C720 C732 1.349 . S
C721 C719 1.327 . S
C721 C737 1.429 . S
C721 H743 0.950 1_455 S
C722 H718 0.949 . S
C722 C730 1.574 . S
C722 C738 1.368 . S
H723 C731 0.950 1_655 S
H724 C729 0.950 1_655 S
H725 C730 0.949 . S
H726 C732 0.950 . S
H727 C733 0.950 . S
H728 C734 0.949 1_655 S
C729 H724 0.950 1_455 S
C729 C731 1.327 . S
C729 C735 1.429 . S
C730 C722 1.574 . S
C730 H725 0.949 . S
C730 C736 1.368 . S
C731 C715 1.349 . S
C731 H723 0.950 1_455 S
C731 C729 1.327 . S
C732 C720 1.349 . S
C732 H726 0.950 . S
C732 C733 1.327 . S
C733 H727 0.950 . S
C733 C732 1.327 . S
C733 C737 1.429 . S
C734 C717 1.574 . S
C734 H728 0.949 1_455 S
C734 C738 1.368 . S
C735 C716 1.429 . S
C735 C729 1.429 . S
C735 C736 1.523 . S
C736 C717 1.368 . S
C736 C730 1.368 . S
C736 C735 1.523 . S
C737 C721 1.429 . S
C737 C733 1.429 . S
C737 C738 1.523 . S
C738 C722 1.368 . S
C738 C734 1.368 . S
C738 C737 1.523 . S
H739 C714 0.950 . S
H740 C716 0.950 . S
H741 C717 0.949 1_655 S
H742 C719 0.950 1_655 S
H743 C721 0.950 1_655 S
C390 C97 1.004 . S
C385 C11 1.341 . S
C415 C25 1.423 . S
C420 C211 1.065 . S
C445 C41 1.167 . S
C450 C271 0.994 . S
C475 C7 1.227 1_565 S
C480 C71 1.008 . S
C510 C185 1.060 . S
C505 C21 1.306 . S
C535 C36 1.354 . S
C540 C281 0.830 . S
C570 C167 0.830 . S
C565 C39 1.320 . S
C595 C8 1.283 1_665 S
C600 C299 1.107 . S
C630 C43 1.036 . S
C625 C22 1.260 1_565 S
C660 C157 0.967 . S
C655 C35 1.210 . S
C690 C325 1.054 . S
C685 C13 1.402 . S
C715 C27 1.362 . S
C720 C53 0.870 . S
