# Generated by pormake.
# Topology ftw, (4,12)-cn, num edge types: 1
# Building blocks:
#     Node 0, Type 0, BuildingBlock: NAHDIM_clean_linker_0, # of connection points: 4
#     Node 1, Type 0, BuildingBlock: NAHDIM_clean_linker_0, # of connection points: 4
#     Node 2, Type 0, BuildingBlock: NAHDIM_clean_linker_0, # of connection points: 4
#     Node 3, Type 1, BuildingBlock: QEWDON_clean_sbu_0, # of connection points: 12
#     Edge 4, Type (0, 1), BuildingBlock: CIFDUS_clean_linker_0, # of connection points: 2
#     Edge 5, Type (0, 1), BuildingBlock: CIFDUS_clean_linker_0, # of connection points: 2
#     Edge 6, Type (0, 1), BuildingBlock: CIFDUS_clean_linker_0, # of connection points: 2
#     Edge 7, Type (0, 1), BuildingBlock: CIFDUS_clean_linker_0, # of connection points: 2
#     Edge 8, Type (0, 1), BuildingBlock: CIFDUS_clean_linker_0, # of connection points: 2
#     Edge 9, Type (0, 1), BuildingBlock: CIFDUS_clean_linker_0, # of connection points: 2
#     Edge 10, Type (0, 1), BuildingBlock: CIFDUS_clean_linker_0, # of connection points: 2
#     Edge 11, Type (0, 1), BuildingBlock: CIFDUS_clean_linker_0, # of connection points: 2
#     Edge 12, Type (0, 1), BuildingBlock: CIFDUS_clean_linker_0, # of connection points: 2
#     Edge 13, Type (0, 1), BuildingBlock: CIFDUS_clean_linker_0, # of connection points: 2
#     Edge 14, Type (0, 1), BuildingBlock: CIFDUS_clean_linker_0, # of connection points: 2
#     Edge 15, Type (0, 1), BuildingBlock: CIFDUS_clean_linker_0, # of connection points: 2
# Relax obj value: 0.036
# Max RMSD: 0.108
# Mean RMSD: 0.083
data_MOF--net-ftw--node1-QEWDON_clean_sbu_0--node2-NAHDIM_clean_linker_0--edge1-CIFDUS_clean_linker_0
_symmetry_space_group_name_H-M    P1
_symmetry_Int_Tables_number       1
_symmetry_cell_setting            triclinic
loop_
_symmetry_equiv_pos_as_xyz
'x, y, z'
_cell_length_a     29.615282
_cell_length_b     29.246188
_cell_length_c     30.405785
_cell_angle_alpha  90.44015
_cell_angle_beta   89.465714
_cell_angle_gamma 89.715834
loop_
_atom_site_label
_atom_site_type_symbol
_atom_site_fract_x
_atom_site_fract_y
_atom_site_fract_z
_atom_type_partial_charge
C0 C 0.02693 0.79858 0.35721 0.0
C1 C 0.01924 0.76631 0.31793 0.0
C2 C 0.98718 0.69611 0.34927 0.0
C3 C 0.94763 0.67086 0.35466 0.0
C4 C 0.94786 0.62876 0.37649 0.0
C5 C 0.98898 0.61115 0.39276 0.0
C6 C 0.02923 0.63638 0.38747 0.0
C7 C 0.02783 0.67891 0.3665 0.0
C8 C 0.9042 0.60294 0.38191 0.0
C9 C 0.07384 0.61828 0.40379 0.0
C10 C 0.07369 0.36684 0.22433 0.0
C11 C 0.04762 0.33107 0.25104 0.0
C12 C 0.00678 0.3791 0.30586 0.0
C13 C 0.04461 0.39283 0.33013 0.0
C14 C 0.04025 0.42555 0.36399 0.0
C15 C 0.99715 0.44409 0.37431 0.0
C16 C 0.95877 0.42844 0.35149 0.0
C17 C 0.96419 0.39627 0.31743 0.0
C18 C 0.08192 0.44151 0.38773 0.0
C19 C 0.91221 0.44684 0.36209 0.0
C20 C 0.98386 0.33087 0.65264 0.0
C21 C 0.02512 0.34841 0.63697 0.0
C22 C 0.02712 0.3917 0.61733 0.0
C23 C 0.98699 0.41753 0.61229 0.0
C24 C 0.94545 0.3999 0.62779 0.0
C25 C 0.94455 0.35692 0.64798 0.0
C26 C 0.07214 0.40984 0.60187 0.0
C27 C 0.90198 0.4264 0.62284 0.0
C28 C 0.9802 0.76977 0.6572 0.0
C29 C 0.98277 0.74581 0.70179 0.0
C30 C 0.00445 0.66796 0.67772 0.0
C31 C 0.0419 0.64003 0.66906 0.0
C32 C 0.03784 0.59933 0.64474 0.0
C33 C 0.99488 0.58578 0.62958 0.0
C34 C 0.95635 0.61256 0.64033 0.0
C35 C 0.96154 0.65368 0.66385 0.0
C36 C 0.07968 0.57156 0.63408 0.0
C37 C 0.90985 0.59839 0.62579 0.0
C38 C 0.99001 0.56587 0.41444 0.0
C39 C 0.99214 0.52701 0.38758 0.0
C40 C 0.99291 0.48316 0.40549 0.0
C41 C 0.99069 0.47763 0.45162 0.0
C42 C 0.98934 0.43405 0.47073 0.0
C43 C 0.98785 0.4291 0.51626 0.0
C44 C 0.98848 0.46755 0.54439 0.0
C45 C 0.98836 0.46294 0.59072 0.0
C46 C 0.98982 0.50196 0.6176 0.0
C47 C 0.99098 0.54575 0.59951 0.0
C48 C 0.9901 0.55105 0.55333 0.0
C49 C 0.99029 0.59465 0.53406 0.0
C50 C 0.98927 0.5996 0.48866 0.0
C51 C 0.98961 0.56117 0.46067 0.0
C52 C 0.98977 0.51686 0.47931 0.0
C53 C 0.98931 0.5118 0.52572 0.0
C54 C 0.02191 0.22872 0.63736 0.0
C55 C 0.01381 0.25717 0.67921 0.0
O56 O 0.98436 0.73647 0.32732 0.0
O57 O 0.01155 0.70831 0.69905 0.0
O58 O 0.98008 0.28934 0.67229 0.0
O59 O 0.00951 0.35037 0.2706 0.0
H60 H 0.05137 0.74729 0.3122 0.0
H61 H 0.04037 0.779 0.38539 0.0
H62 H 0.99478 0.81498 0.36808 0.0
H63 H 0.05193 0.82532 0.34853 0.0
H64 H 0.91639 0.68435 0.3416 0.0
H65 H 0.05881 0.69805 0.36381 0.0
H66 H 0.90582 0.57098 0.36204 0.0
H67 H 0.87451 0.62325 0.37127 0.0
H68 H 0.89928 0.59314 0.41684 0.0
H69 H 0.10273 0.63986 0.39337 0.0
H70 H 0.07961 0.58289 0.39138 0.0
H71 H 0.07314 0.61697 0.44025 0.0
H72 H 0.06997 0.31676 0.27679 0.0
H73 H 0.10314 0.35061 0.20741 0.0
H74 H 0.08658 0.39435 0.24606 0.0
H75 H 0.05161 0.38273 0.1993 0.0
H76 H 0.07769 0.37909 0.32227 0.0
H77 H 0.93513 0.38505 0.29888 0.0
H78 H 0.08591 0.47897 0.38356 0.0
H79 H 0.11307 0.42411 0.37552 0.0
H80 H 0.07818 0.43493 0.42347 0.0
H81 H 0.8853 0.42647 0.34606 0.0
H82 H 0.90961 0.48266 0.35056 0.0
H83 H 0.90623 0.44706 0.39821 0.0
H84 H 0.04567 0.27462 0.6884 0.0
H85 H 0.05596 0.32879 0.63978 0.0
H86 H 0.91289 0.34321 0.66007 0.0
H87 H 0.07236 0.41238 0.56547 0.0
H88 H 0.10074 0.38759 0.61181 0.0
H89 H 0.07755 0.44475 0.61539 0.0
H90 H 0.8721 0.40676 0.63419 0.0
H91 H 0.89723 0.43576 0.58784 0.0
H92 H 0.90375 0.45867 0.6422 0.0
H93 H 0.94846 0.73454 0.71196 0.0
H94 H 0.95781 0.80031 0.65962 0.0
H95 H 0.9661 0.74636 0.63198 0.0
H96 H 0.01435 0.78065 0.64615 0.0
H97 H 0.07476 0.65106 0.68028 0.0
H98 H 0.93199 0.67442 0.67084 0.0
H99 H 0.08359 0.56782 0.59787 0.0
H100 H 0.07621 0.53673 0.64793 0.0
H101 H 0.11075 0.58738 0.64745 0.0
H102 H 0.88282 0.61901 0.64213 0.0
H103 H 0.90418 0.56169 0.63302 0.0
H104 H 0.90706 0.60281 0.5897 0.0
H105 H 0.9935 0.53097 0.35213 0.0
H106 H 0.98932 0.40331 0.45065 0.0
H107 H 0.98671 0.39472 0.52913 0.0
H108 H 0.99039 0.49818 0.65306 0.0
H109 H 0.99094 0.62558 0.55381 0.0
H110 H 0.98889 0.63401 0.47579 0.0
H111 H 0.99043 0.21108 0.62737 0.0
H112 H 0.04873 0.20274 0.64289 0.0
H113 H 0.03304 0.25106 0.61002 0.0
C114 C 0.75538 0.1398 0.6972 0.0
C115 C 0.73105 0.09751 0.71488 0.0
C116 C 0.68758 0.0594 0.65661 0.0
C117 C 0.68217 0.01714 0.63568 0.0
C118 C 0.64364 0.00762 0.61072 0.0
C119 C 0.6103 0.04195 0.6054 0.0
C120 C 0.61622 0.08539 0.62537 0.0
C121 C 0.65465 0.0936 0.651 0.0
C122 C 0.63827 0.96057 0.59075 0.0
C123 C 0.58175 0.12305 0.61996 0.0
C124 C 0.2902 0.92547 0.68944 0.0
C125 C 0.32176 0.95183 0.72002 0.0
C126 C 0.37393 0.99298 0.67038 0.0
C127 C 0.38459 0.03599 0.65367 0.0
C128 C 0.42129 0.04198 0.6248 0.0
C129 C 0.44826 0.00386 0.61246 0.0
C130 C 0.43743 0.96002 0.6287 0.0
C131 C 0.40022 0.9549 0.65729 0.0
C132 C 0.43159 0.0892 0.60787 0.0
C133 C 0.46552 0.91868 0.61613 0.0
C134 C 0.36549 0.95012 0.33243 0.0
C135 C 0.36925 0.99627 0.34486 0.0
C136 C 0.40847 0.01253 0.36529 0.0
C137 C 0.44444 0.98187 0.3738 0.0
C138 C 0.44132 0.9357 0.3598 0.0
C139 C 0.40202 0.9206 0.33875 0.0
C140 C 0.41129 0.06234 0.37818 0.0
C141 C 0.47916 0.90214 0.36781 0.0
C142 C 0.78022 0.11086 0.32683 0.0
C143 C 0.76034 0.06851 0.30454 0.0
C144 C 0.67893 0.06301 0.3169 0.0
C145 C 0.64321 0.0937 0.32368 0.0
C146 C 0.60506 0.0814 0.34861 0.0
C147 C 0.60223 0.03685 0.36628 0.0
C148 C 0.63737 0.0049 0.35773 0.0
C149 C 0.67542 0.01834 0.33315 0.0
C150 C 0.56807 0.11621 0.35665 0.0
C151 C 0.63478 0.95667 0.37479 0.0
C152 C 0.56836 0.03168 0.58066 0.0
C153 C 0.52929 0.022 0.60495 0.0
C154 C 0.48893 0.01049 0.58421 0.0
C155 C 0.48764 0.00703 0.53779 0.0
C156 C 0.44825 0.99349 0.51588 0.0
C157 C 0.44744 0.98986 0.4702 0.0
C158 C 0.48565 0.00076 0.44455 0.0
C159 C 0.48497 0.99777 0.39803 0.0
C160 C 0.52344 0.00953 0.37363 0.0
C161 C 0.56291 0.02405 0.39433 0.0
C162 C 0.56439 0.02663 0.44083 0.0
C163 C 0.60358 0.04078 0.46281 0.0
C164 C 0.60498 0.04251 0.50855 0.0
C165 C 0.5671 0.0306 0.53413 0.0
C166 C 0.5268 0.01748 0.51266 0.0
C167 C 0.52561 0.01495 0.46597 0.0
C168 C 0.26086 0.90132 0.34611 0.0
C169 C 0.2836 0.94407 0.32751 0.0
O170 O 0.7251 0.06568 0.68141 0.0
O171 O 0.71569 0.07721 0.29376 0.0
O172 O 0.32727 0.93316 0.31416 0.0
O173 O 0.33827 0.99023 0.69886 0.0
H174 H 0.69773 0.10872 0.72851 0.0
H175 H 0.73424 0.15707 0.67232 0.0
H176 H 0.78808 0.13032 0.68136 0.0
H177 H 0.76174 0.16449 0.72439 0.0
H178 H 0.70789 0.99108 0.6399 0.0
H179 H 0.65881 0.12686 0.66618 0.0
H180 H 0.60466 0.94643 0.59953 0.0
H181 H 0.66481 0.93638 0.60181 0.0
H182 H 0.64016 0.96287 0.55437 0.0
H183 H 0.59434 0.15661 0.63187 0.0
H184 H 0.55078 0.11446 0.63893 0.0
H185 H 0.57222 0.12622 0.58487 0.0
H186 H 0.35026 0.92923 0.72967 0.0
H187 H 0.27695 0.89461 0.7062 0.0
H188 H 0.30868 0.91416 0.65932 0.0
H189 H 0.26135 0.94743 0.67953 0.0
H190 H 0.36406 0.06512 0.66366 0.0
H191 H 0.39222 0.92116 0.66923 0.0
H192 H 0.4652 0.10014 0.61977 0.0
H193 H 0.406 0.1149 0.61873 0.0
H194 H 0.43307 0.08862 0.57136 0.0
H195 H 0.45265 0.88681 0.63132 0.0
H196 H 0.50098 0.92393 0.62655 0.0
H197 H 0.46584 0.91429 0.57983 0.0
H198 H 0.28378 0.96906 0.35536 0.0
H199 H 0.34171 0.01967 0.33838 0.0
H200 H 0.39907 0.88522 0.32835 0.0
H201 H 0.41139 0.06553 0.41458 0.0
H202 H 0.38253 0.08264 0.36538 0.0
H203 H 0.44334 0.07717 0.36565 0.0
H204 H 0.4706 0.86693 0.35687 0.0
H205 H 0.48728 0.90152 0.40339 0.0
H206 H 0.50998 0.91324 0.34986 0.0
H207 H 0.76273 0.04029 0.32875 0.0
H208 H 0.81618 0.10474 0.3352 0.0
H209 H 0.76126 0.11851 0.35774 0.0
H210 H 0.77791 0.14112 0.30508 0.0
H211 H 0.64588 0.12782 0.31029 0.0
H212 H 0.70206 0.99376 0.32621 0.0
H213 H 0.56236 0.12084 0.39256 0.0
H214 H 0.53605 0.10363 0.34233 0.0
H215 H 0.57612 0.14993 0.34202 0.0
H216 H 0.66311 0.93492 0.36248 0.0
H217 H 0.60237 0.94083 0.36492 0.0
H218 H 0.63558 0.9573 0.41129 0.0
H219 H 0.53023 0.02367 0.6406 0.0
H220 H 0.41773 0.98506 0.53388 0.0
H221 H 0.41631 0.97872 0.45523 0.0
H222 H 0.52262 0.0074 0.338 0.0
H223 H 0.63378 0.05043 0.4449 0.0
H224 H 0.63612 0.05346 0.52365 0.0
H225 H 0.2629 0.87225 0.32247 0.0
H226 H 0.22486 0.90854 0.35429 0.0
H227 H 0.27819 0.89083 0.37671 0.0
C228 C 0.85125 0.53776 0.98054 0.0
C229 C 0.81027 0.56977 0.98309 0.0
C230 C 0.74101 0.56204 0.02802 0.0
C231 C 0.72408 0.54516 0.06769 0.0
C232 C 0.6775 0.54421 0.07655 0.0
C233 C 0.64692 0.55998 0.04446 0.0
C234 C 0.66379 0.57762 0.00432 0.0
C235 C 0.71066 0.57905 0.99673 0.0
C236 C 0.66104 0.52665 0.12039 0.0
C237 C 0.63235 0.59536 0.96952 0.0
C238 C 0.47713 0.8374 0.16389 0.0
C239 C 0.44532 0.80302 0.14246 0.0
C240 C 0.48017 0.73941 0.10074 0.0
C241 C 0.4817 0.7215 0.05809 0.0
C242 C 0.49674 0.67673 0.04986 0.0
C243 C 0.5114 0.64952 0.08528 0.0
C244 C 0.51019 0.66747 0.12863 0.0
C245 C 0.4946 0.71238 0.13598 0.0
C246 C 0.49766 0.65876 0.00319 0.0
C247 C 0.52623 0.63946 0.16695 0.0
C248 C 0.28683 0.43638 0.11499 0.0
C249 C 0.2979 0.43855 0.06995 0.0
C250 C 0.34314 0.44106 0.05583 0.0
C251 C 0.37811 0.44052 0.08724 0.0
C252 C 0.36712 0.43729 0.1325 0.0
C253 C 0.3216 0.43551 0.14572 0.0
C254 C 0.35359 0.44404 0.00727 0.0
C255 C 0.40347 0.4355 0.1669 0.0
C256 C 0.64075 0.28277 0.92873 0.0
C257 C 0.63346 0.25777 0.97246 0.0
C258 C 0.55928 0.27918 0.99631 0.0
C259 C 0.52981 0.30307 0.96916 0.0
C260 C 0.50563 0.34114 0.98528 0.0
C261 C 0.5107 0.35474 0.02977 0.0
C262 C 0.53782 0.32826 0.05812 0.0
C263 C 0.56223 0.2909 0.04088 0.0
C264 C 0.47659 0.36823 0.95428 0.0
C265 C 0.54295 0.34091 0.106 0.0
C266 C 0.59748 0.55981 0.05371 0.0
C267 C 0.57705 0.60107 0.06627 0.0
C268 C 0.53094 0.60358 0.07623 0.0
C269 C 0.50439 0.56352 0.07524 0.0
C270 C 0.45822 0.56452 0.08652 0.0
C271 C 0.43251 0.52474 0.08578 0.0
C272 C 0.45188 0.48254 0.07325 0.0
C273 C 0.4262 0.44178 0.07272 0.0
C274 C 0.44632 0.40073 0.05873 0.0
C275 C 0.49157 0.39907 0.04532 0.0
C276 C 0.51802 0.43924 0.04652 0.0
C277 C 0.56382 0.4387 0.03362 0.0
C278 C 0.58988 0.47808 0.03591 0.0
C279 C 0.57108 0.51971 0.05065 0.0
C280 C 0.52457 0.52143 0.06229 0.0
C281 C 0.49814 0.48103 0.06072 0.0
C282 C 0.16819 0.46306 0.13603 0.0
C283 C 0.20415 0.44028 0.10659 0.0
O284 O 0.7866 0.56149 0.02174 0.0
O285 O 0.58811 0.24804 0.97837 0.0
O286 O 0.2435 0.43483 0.13038 0.0
O287 O 0.46633 0.78341 0.10597 0.0
H288 H 0.78945 0.56085 0.95401 0.0
H289 H 0.83978 0.50165 0.97975 0.0
H290 H 0.87337 0.54242 0.00953 0.0
H291 H 0.87118 0.54428 0.95009 0.0
H292 H 0.74769 0.53266 0.09189 0.0
H293 H 0.72308 0.59381 0.96648 0.0
H294 H 0.637 0.55145 0.13571 0.0
H295 H 0.6892 0.5205 0.14353 0.0
H296 H 0.64276 0.49402 0.11541 0.0
H297 H 0.65008 0.60124 0.93772 0.0
H298 H 0.6173 0.62826 0.9809 0.0
H299 H 0.60431 0.57096 0.96401 0.0
H300 H 0.43645 0.77649 0.16708 0.0
H301 H 0.48635 0.86476 0.14033 0.0
H302 H 0.50847 0.81972 0.17438 0.0
H303 H 0.46082 0.85319 0.1934 0.0
H304 H 0.4709 0.74286 0.03114 0.0
H305 H 0.495 0.72655 0.16896 0.0
H306 H 0.47877 0.62612 1.00119 0.0
H307 H 0.53307 0.65151 0.99297 0.0
H308 H 0.48276 0.68335 0.97966 0.0
H309 H 0.52174 0.65773 0.19888 0.0
H310 H 0.56254 0.6309 0.16235 0.0
H311 H 0.5074 0.60675 0.16823 0.0
H312 H 0.20968 0.46448 0.07902 0.0
H313 H 0.27165 0.43807 0.0455 0.0
H314 H 0.31289 0.4334 0.18034 0.0
H315 H 0.37719 0.47268 1.00086 0.0
H316 H 0.32272 0.44911 0.98738 0.0
H317 H 0.3705 0.41198 0.99614 0.0
H318 H 0.38946 0.42979 0.20043 0.0
H319 H 0.42241 0.46815 0.16703 0.0
H320 H 0.42789 0.40765 0.15888 0.0
H321 H 0.645 0.28192 0.9986 0.0
H322 H 0.67739 0.28668 0.9216 0.0
H323 H 0.6254 0.31746 0.93082 0.0
H324 H 0.62454 0.26419 0.90114 0.0
H325 H 0.52788 0.29347 0.93473 0.0
H326 H 0.58501 0.27181 0.06163 0.0
H327 H 0.48896 0.40396 0.95249 0.0
H328 H 0.44136 0.36948 0.96699 0.0
H329 H 0.4765 0.35332 0.92056 0.0
H330 H 0.55926 0.31312 0.12496 0.0
H331 H 0.50947 0.34885 0.12104 0.0
H332 H 0.56404 0.37204 0.10877 0.0
H333 H 0.59726 0.6319 0.0678 0.0
H334 H 0.44157 0.59604 0.09645 0.0
H335 H 0.39721 0.52748 0.09506 0.0
H336 H 0.42648 0.36964 0.05821 0.0
H337 H 0.58023 0.40774 0.02186 0.0
H338 H 0.62498 0.47551 0.02585 0.0
H339 H 0.13587 0.46644 0.11803 0.0
H340 H 0.17953 0.49782 0.14575 0.0
H341 H 0.16224 0.44313 0.16647 0.0
Zn342 Zn 0.12045 0.11228 0.98174 0.0
Zn343 Zn 0.08386 0.08916 0.07881 0.0
O344 O 0.09855 0.06074 0.02053 0.0
H345 H 0.08613 0.03237 0.00969 0.0
C346 C 0.90502 0.10464 0.87048 0.0
O347 O 0.86221 0.10243 0.88189 0.0
Zn348 Zn 0.96203 0.90277 0.05165 0.0
Zn349 Zn 0.91186 0.91521 0.95998 0.0
O350 O 0.95263 0.94731 0.00296 0.0
H351 H 0.97309 0.97181 0.99574 0.0
Zn352 Zn 0.91465 0.06022 0.95582 0.0
O353 O 0.95909 0.0656 0.00634 0.0
Zn354 Zn 0.92172 0.05958 0.06112 0.0
H355 H 0.99153 0.06274 0.00386 0.0
Zn356 Zn 0.16019 0.92981 0.95492 0.0
O357 O 0.106 0.93705 0.99638 0.0
H358 H 0.07535 0.94476 0.9886 0.0
Zn359 Zn 0.12932 0.93271 0.0571 0.0
C360 C 0.1071 0.90258 0.88024 0.0
O361 O 0.07866 0.93004 0.90091 0.0
O362 O 0.13015 0.17396 0.01425 0.0
O363 O 0.10304 0.15612 0.0805 0.0
O364 O 0.89847 0.84771 0.97383 0.0
O365 O 0.93738 0.83931 0.03568 0.0
O366 O 0.84987 0.07674 0.97566 0.0
O367 O 0.85715 0.07993 0.04837 0.0
C368 C 0.13143 0.01518 0.12102 0.0
O369 O 0.22036 0.91499 0.98663 0.0
O370 O 0.19572 0.91613 0.05598 0.0
O371 O 0.87674 0.95184 0.91279 0.0
C372 C 0.12084 0.1848 0.05407 0.0
O373 O 0.15551 0.09567 0.92398 0.0
C374 C 0.91716 0.96665 0.11002 0.0
O375 O 0.9346 0.08824 0.89608 0.0
C376 C 0.9123 0.82292 0.00538 0.0
O377 O 0.14649 0.89719 0.89569 0.0
C378 C 0.98992 0.10653 0.11108 0.0
O379 O 0.11865 0.05642 0.12597 0.0
O380 O 0.11978 0.99437 0.086 0.0
C381 C 0.83342 0.08476 0.01383 0.0
O382 O 0.92925 0.92504 0.10633 0.0
O383 O 0.92667 0.99331 0.07844 0.0
C384 C 0.05261 0.87867 0.08846 0.0
O385 O 0.94752 0.10144 0.10736 0.0
O386 O 0.01639 0.08239 0.08724 0.0
C387 C 0.22737 0.91049 0.02773 0.0
O388 O 0.09496 0.88477 0.09049 0.0
O389 O 0.0293 0.90224 0.062 0.0
C390 C 0.89621 0.96171 0.87669 0.0
O391 O 0.93807 0.94808 0.86994 0.0
C392 C 0.17539 0.0571 0.92076 0.0
O393 O 0.1739 0.02912 0.95434 0.0
H394 H 0.08236 0.24418 0.24289 0.0
H395 H 0.97974 0.3332 0.19069 0.0
H396 H 0.95316 0.2717 0.14296 0.0
H397 H 0.95786 0.19228 0.11724 0.0
H398 H 0.05978 0.10255 0.16875 0.0
H399 H 0.08792 0.16439 0.21584 0.0
C400 C 0.05414 0.24994 0.22112 0.0
C401 C 0.03252 0.29287 0.22084 0.0
C402 C 0.03895 0.21435 0.19378 0.0
C403 C 0.99649 0.30023 0.19187 0.0
C404 C 0.98131 0.26514 0.1646 0.0
C405 C 0.98626 0.18642 0.13882 0.0
C406 C 0.00726 0.14336 0.13933 0.0
C407 C 0.00202 0.22202 0.16555 0.0
C408 C 0.04399 0.13588 0.16719 0.0
C409 C 0.05969 0.17107 0.19435 0.0
H410 H 0.81595 0.99491 0.29178 0.0
H411 H 0.76586 0.11463 0.22595 0.0
H412 H 0.8121 0.09576 0.161 0.0
H413 H 0.86597 0.04413 0.12267 0.0
H414 H 0.91254 0.92266 0.18802 0.0
H415 H 0.86901 0.94348 0.2535 0.0
C416 C 0.81499 0.01674 0.26312 0.0
C417 C 0.78735 0.05594 0.26357 0.0
C418 C 0.8413 0.00549 0.22591 0.0
C419 C 0.78671 0.0841 0.22626 0.0
C420 C 0.8132 0.07339 0.18921 0.0
C421 C 0.86681 0.02248 0.15125 0.0
C422 C 0.89266 0.98202 0.15029 0.0
C423 C 0.84062 0.0341 0.18862 0.0
C424 C 0.89306 0.95408 0.18776 0.0
C425 C 0.86801 0.96585 0.22526 0.0
H426 H 0.0368 0.73544 0.2357 0.0
H427 H 0.97694 0.85128 0.30348 0.0
H428 H 0.97423 0.89336 0.2349 0.0
H429 H 1.00064 0.90175 0.15813 0.0
H430 H 0.06307 0.78714 0.09142 0.0
H431 H 0.05172 0.73958 0.15641 0.0
C432 C 0.02265 0.76973 0.23531 0.0
C433 C 0.00957 0.7909 0.27516 0.0
C434 C 0.02123 0.79385 0.19567 0.0
C435 C 0.98941 0.83462 0.27388 0.0
C436 C 0.98744 0.85875 0.23443 0.0
C437 C 0.00972 0.86576 0.15732 0.0
C438 C 0.03193 0.84748 0.12015 0.0
C439 C 0.00491 0.83937 0.19547 0.0
C440 C 0.04524 0.80141 0.11966 0.0
C441 C 0.03926 0.7745 0.15694 0.0
H442 H 0.25159 0.90095 0.25263 0.0
H443 H 0.25817 0.03309 0.31639 0.0
H444 H 0.21325 0.06653 0.25783 0.0
H445 H 0.16979 0.05787 0.19047 0.0
H446 H 0.15749 0.9249 0.12985 0.0
H447 H 0.20629 0.89199 0.18553 0.0
C448 C 0.24283 0.93695 0.254 0.0
C449 C 0.25736 0.96424 0.28955 0.0
C450 C 0.21585 0.95577 0.22081 0.0
C451 C 0.24687 0.01117 0.28985 0.0
C452 C 0.22111 0.03031 0.25641 0.0
C453 C 0.17767 0.02162 0.18925 0.0
C454 C 0.16039 0.99406 0.15515 0.0
C455 C 0.20493 0.00282 0.22208 0.0
C456 C 0.17099 0.94721 0.15466 0.0
C457 C 0.19876 0.92829 0.18685 0.0
H458 H 0.07061 0.76628 0.72279 0.0
H459 H 0.93285 0.8017 0.75605 0.0
H460 H 0.95915 0.8557 0.81192 0.0
H461 H 0.02101 0.88993 0.85349 0.0
H462 H 0.15887 0.85235 0.82247 0.0
H463 H 0.1328 0.80192 0.76352 0.0
C464 C 0.04637 0.7855 0.74258 0.0
C465 C 0.99978 0.77902 0.73625 0.0
C466 C 0.06174 0.81604 0.77494 0.0
C467 C 0.96882 0.80531 0.76112 0.0
C468 C 0.98383 0.83625 0.7929 0.0
C469 C 0.04542 0.87103 0.83361 0.0
C470 C 0.0918 0.87478 0.84244 0.0
C471 C 0.03018 0.84147 0.80044 0.0
C472 C 0.12295 0.84988 0.81648 0.0
C473 C 0.10808 0.82102 0.78281 0.0
H474 H 0.26933 0.02856 0.73489 0.0
H475 H 0.3155 0.90529 0.7975 0.0
H476 H 0.2738 0.92619 0.86458 0.0
H477 H 0.22526 0.98004 0.90572 0.0
H478 H 0.18026 0.10419 0.84351 0.0
H479 H 0.22078 0.08256 0.77616 0.0
C480 C 0.27069 0.00657 0.7634 0.0
C481 C 0.29647 0.96599 0.76162 0.0
C482 C 0.24687 0.01895 0.80192 0.0
C483 C 0.29671 0.93716 0.79841 0.0
C484 C 0.27278 0.94902 0.83669 0.0
C485 C 0.2243 0.00243 0.87747 0.0
C486 C 0.19984 0.04378 0.87981 0.0
C487 C 0.24796 0.98996 0.8389 0.0
C488 C 0.19893 0.07226 0.84276 0.0
C489 C 0.22209 0.05991 0.80417 0.0
H490 H 0.93025 0.22127 0.69809 0.0
H491 H 0.06786 0.22202 0.74326 0.0
H492 H 0.04712 0.1726 0.80459 0.0
H493 H 0.98938 0.13206 0.84715 0.0
H494 H 0.85113 0.13291 0.80343 0.0
H495 H 0.87261 0.17848 0.73964 0.0
C496 C 0.95556 0.2108 0.72156 0.0
C497 C 1.0003 0.22627 0.71684 0.0
C498 C 0.94332 0.1826 0.7569 0.0
C499 C 0.03304 0.21138 0.74677 0.0
C500 C 0.02123 0.18303 0.78172 0.0
C501 C 0.96398 0.14191 0.82352 0.0
C502 C 0.9187 0.12927 0.83019 0.0
C503 C 0.9764 0.16886 0.78739 0.0
C504 C 0.88621 0.14238 0.79923 0.0
C505 C 0.89845 0.16853 0.76276 0.0
H506 H 0.81544 0.05884 0.70989 0.0
H507 H 0.7064 0.08621 0.80152 0.0
H508 H 0.7477 0.04709 0.85955 0.0
H509 H 0.81378 0.00305 0.88357 0.0
H510 H 0.92433 0.97875 0.79268 0.0
H511 H 0.88363 0.01912 0.73522 0.0
C512 C 0.80094 0.05659 0.74267 0.0
C513 C 0.75788 0.07537 0.75132 0.0
C514 C 0.825 0.03437 0.77594 0.0
C515 C 0.73942 0.07198 0.79395 0.0
C516 C 0.76298 0.04955 0.82712 0.0
C517 C 0.82895 0.00647 0.85117 0.0
C518 C 0.87186 0.98743 0.84236 0.0
C519 C 0.80558 0.03018 0.81835 0.0
C520 C 0.89128 0.99286 0.80037 0.0
C521 C 0.86802 0.01592 0.76743 0.0
H522 H 0.18008 0.36459 0.15408 0.0
H523 H 0.19266 0.41297 0.02093 0.0
H524 H 0.16762 0.33884 0.99289 0.0
H525 H 0.14267 0.2601 0.00622 0.0
H526 H 0.12734 0.21284 0.13961 0.0
H527 H 0.15153 0.28704 0.16755 0.0
C528 C 0.1769 0.35901 0.11896 0.0
C529 C 0.18808 0.39429 0.08962 0.0
C530 C 0.16159 0.31664 0.10312 0.0
C531 C 0.18429 0.38638 0.04416 0.0
C532 C 0.16988 0.34405 0.02813 0.0
C533 C 0.14448 0.26606 0.0414 0.0
C534 C 0.13311 0.23085 0.07073 0.0
C535 C 0.1585 0.3089 0.05729 0.0
C536 C 0.13538 0.23937 0.11625 0.0
C537 C 0.14956 0.28176 0.1323 0.0
H538 H 0.42642 0.84349 0.06318 0.0
H539 H 0.36813 0.81681 0.19096 0.0
H540 H 0.29656 0.85077 0.16778 0.0
H541 H 0.24949 0.88272 0.10975 0.0
H542 H 0.30669 0.90593 0.98071 0.0
H543 H 0.37987 0.8779 0.00578 0.0
C544 C 0.398 0.84482 0.0859 0.0
C545 C 0.4021 0.82638 0.12837 0.0
C546 C 0.3568 0.86338 0.07203 0.0
C547 C 0.36539 0.82984 0.15783 0.0
C548 C 0.32456 0.84921 0.14459 0.0
C549 C 0.27799 0.88208 0.08712 0.0
C550 C 0.27249 0.89626 0.04332 0.0
C551 C 0.31967 0.86524 0.10151 0.0
C552 C 0.30986 0.89498 0.0145 0.0
C553 C 0.35173 0.87898 0.02881 0.0
H554 H 0.67757 0.22641 0.04407 0.0
H555 H 0.65008 0.18994 0.90922 0.0
H556 H 0.70591 0.12847 0.91228 0.0
H557 H 0.77 0.09276 0.94996 0.0
H558 H 0.79656 0.12867 0.0853 0.0
H559 H 0.7328 0.18165 0.08564 0.0
C560 C 0.68353 0.20471 0.01548 0.0
C561 C 0.66162 0.21449 0.97578 0.0
C562 C 0.71551 0.16927 0.01753 0.0
C563 C 0.66803 0.18472 0.93961 0.0
C564 C 0.69982 0.14932 0.94139 0.0
C565 C 0.76132 0.11148 0.97984 0.0
C566 C 0.78868 0.10743 0.01726 0.0
C567 C 0.72504 0.14254 0.97963 0.0
C568 C 0.77638 0.1313 0.05591 0.0
C569 C 0.74007 0.16194 0.05605 0.0
H570 H 0.85872 0.61778 0.04423 0.0
H571 H 0.79511 0.63235 0.91811 0.0
H572 H 0.82113 0.71144 0.91374 0.0
H573 H 0.86262 0.77594 0.94529 0.0
H574 H 0.92826 0.76092 0.07067 0.0
H575 H 0.90132 0.68231 0.07547 0.0
C576 C 0.85062 0.63836 0.01583 0.0
C577 C 0.82504 0.6193 0.98153 0.0
C578 C 0.8663 0.68355 0.01326 0.0
C579 C 0.81467 0.6463 0.94494 0.0
C580 C 0.82964 0.69144 0.94239 0.0
C581 C 0.87118 0.75555 0.97369 0.0
C582 C 0.89745 0.77454 0.00758 0.0
C583 C 0.85565 0.71034 0.97625 0.0
C584 C 0.90819 0.74734 0.04403 0.0
C585 C 0.89268 0.70236 0.04689 0.0
loop_
_geom_bond_atom_site_label_1
_geom_bond_atom_site_label_2
_geom_bond_distance
_geom_bond_site_symmetry_2
_ccdc_geom_bond_type
C0 C1 1.560 . S
C0 H61 0.959 . S
C0 H62 0.959 . S
C0 H63 0.960 . S
C1 C0 1.560 . S
C1 O56 1.426 . S
C1 H60 0.980 . S
C2 C3 1.403 1_455 S
C2 C7 1.418 . S
C2 O56 1.334 . S
C3 C2 1.403 1_655 S
C3 C4 1.361 . S
C3 H64 0.932 . S
C4 C3 1.361 . S
C4 C5 1.401 1_655 S
C4 C8 1.527 . S
C5 C4 1.401 1_455 S
C5 C6 1.405 . S
C5 C38 1.587 1_455 S
C6 C5 1.405 . S
C6 C7 1.332 . S
C6 C9 1.496 . S
C7 C2 1.418 . S
C7 C6 1.332 . S
C7 H65 0.929 . S
C8 C4 1.527 . S
C8 H66 0.959 . S
C8 H67 0.961 . S
C8 H68 0.961 . S
C9 C6 1.496 . S
C9 H69 0.960 . S
C9 H70 0.960 . S
C9 H71 0.961 . S
C10 C11 1.517 . S
C10 H73 0.961 1_655 S
C10 H74 0.960 . S
C10 H75 0.959 . S
C11 C10 1.517 . S
C11 O59 1.468 . S
C11 H72 0.980 1_655 S
C12 C13 1.349 1_655 S
C12 C17 1.367 . S
C12 O59 1.408 . S
C13 C12 1.349 1_455 S
C13 C14 1.407 . S
C13 H76 0.930 . S
C14 C13 1.407 . S
C14 C15 1.449 1_455 S
C14 C18 1.535 . S
C15 C14 1.449 1_655 S
C15 C16 1.384 . S
C15 C40 1.553 . S
C16 C15 1.384 . S
C16 C17 1.364 . S
C16 C19 1.450 . S
C17 C12 1.367 . S
C17 C16 1.364 . S
C17 H77 0.931 . S
C18 C14 1.535 . S
C18 H78 0.959 . S
C18 H79 0.961 . S
C18 H80 0.959 . S
C19 C16 1.450 . S
C19 H81 0.960 . S
C19 H82 0.960 . S
C19 H83 0.960 . S
C20 C21 1.309 1_655 S
C20 C25 1.304 . S
C20 O58 1.435 . S
C21 C20 1.309 1_455 S
C21 C22 1.476 . S
C21 H85 0.930 . S
C22 C21 1.476 . S
C22 C23 1.400 1_455 S
C22 C26 1.567 . S
C23 C22 1.400 1_655 S
C23 C24 1.373 . S
C23 C45 1.432 . S
C24 C23 1.373 . S
C24 C25 1.339 . S
C24 C27 1.530 . S
C25 C20 1.304 . S
C25 C24 1.339 . S
C25 H86 0.930 . S
C26 C22 1.567 . S
C26 H87 0.961 . S
C26 H88 0.960 . S
C26 H89 0.958 . S
C27 C24 1.530 . S
C27 H90 0.961 . S
C27 H91 0.960 . S
C27 H92 0.960 . S
C28 C29 1.530 . S
C28 H94 0.961 . S
C28 H95 0.961 . S
C28 H96 0.959 . S
C29 C28 1.530 . S
C29 O57 1.412 . S
C29 H93 0.980 . S
C30 C31 1.288 . S
C30 C35 1.378 . S
C30 O57 1.393 . S
C31 C30 1.288 . S
C31 C32 1.369 . S
C31 H97 0.932 . S
C32 C31 1.369 . S
C32 C33 1.398 . S
C32 C36 1.527 . S
C33 C32 1.398 . S
C33 C34 1.380 1_455 S
C33 C47 1.497 . S
C34 C33 1.380 1_655 S
C34 C35 1.382 1_655 S
C34 C37 1.603 . S
C35 C30 1.378 . S
C35 C34 1.382 1_455 S
C35 H98 0.928 1_455 S
C36 C32 1.527 . S
C36 H99 0.961 . S
C36 H100 0.959 . S
C36 H101 0.959 . S
C37 C34 1.603 . S
C37 H102 0.960 . S
C37 H103 0.962 . S
C37 H104 0.961 . S
C38 C5 1.587 1_655 S
C38 C39 1.360 . S
C38 C51 1.412 . S
C39 C38 1.360 . S
C39 C40 1.365 . S
C39 H105 0.929 . S
C40 C15 1.553 . S
C40 C39 1.365 . S
C40 C41 1.404 . S
C41 C40 1.404 . S
C41 C42 1.395 . S
C41 C52 1.451 . S
C42 C41 1.395 . S
C42 C43 1.322 . S
C42 H106 0.930 . S
C43 C42 1.322 . S
C43 C44 1.459 . S
C43 H107 0.929 . S
C44 C43 1.459 . S
C44 C45 1.445 . S
C44 C53 1.395 . S
C45 C23 1.432 . S
C45 C44 1.445 . S
C45 C46 1.370 1_655 S
C46 C45 1.370 1_455 S
C46 C47 1.438 . S
C46 H108 0.930 . S
C47 C33 1.497 . S
C47 C46 1.438 . S
C47 C48 1.360 . S
C48 C47 1.360 . S
C48 C49 1.401 . S
C48 C53 1.446 1_455 S
C49 C48 1.401 . S
C49 C50 1.347 . S
C49 H109 0.929 . S
C50 C49 1.347 . S
C50 C51 1.453 1_455 S
C50 H110 0.930 . S
C51 C38 1.412 . S
C51 C50 1.453 1_655 S
C51 C52 1.333 . S
C52 C41 1.451 . S
C52 C51 1.333 . S
C52 C53 1.497 . S
C53 C44 1.395 . S
C53 C48 1.446 1_655 S
C53 C52 1.497 . S
C54 C55 1.582 1_655 S
C54 H111 0.962 1_655 S
C54 H112 0.959 . S
C54 H113 0.958 . S
C55 C54 1.582 1_455 S
C55 O58 1.458 1_455 S
C55 H84 0.980 . S
O56 C1 1.426 . S
O56 C2 1.334 . S
O57 C29 1.412 . S
O57 C30 1.393 . S
O58 C20 1.435 . S
O58 C55 1.458 1_655 S
O59 C11 1.468 . S
O59 C12 1.408 . S
H60 C1 0.980 . S
H61 C0 0.959 . S
H62 C0 0.959 . S
H63 C0 0.960 . S
H64 C3 0.932 . S
H65 C7 0.929 . S
H66 C8 0.959 . S
H67 C8 0.961 . S
H68 C8 0.961 . S
H69 C9 0.960 . S
H70 C9 0.960 . S
H71 C9 0.961 . S
H72 C11 0.980 1_455 S
H73 C10 0.961 1_455 S
H74 C10 0.960 . S
H75 C10 0.959 . S
H76 C13 0.930 . S
H77 C17 0.931 . S
H78 C18 0.959 . S
H79 C18 0.961 . S
H80 C18 0.959 . S
H81 C19 0.960 . S
H82 C19 0.960 . S
H83 C19 0.960 . S
H84 C55 0.980 . S
H85 C21 0.930 . S
H86 C25 0.930 . S
H87 C26 0.961 . S
H88 C26 0.960 . S
H89 C26 0.958 . S
H90 C27 0.961 . S
H91 C27 0.960 . S
H92 C27 0.960 . S
H93 C29 0.980 . S
H94 C28 0.961 . S
H95 C28 0.961 . S
H96 C28 0.959 . S
H97 C31 0.932 . S
H98 C35 0.928 1_655 S
H99 C36 0.961 . S
H100 C36 0.959 . S
H101 C36 0.959 . S
H102 C37 0.960 . S
H103 C37 0.962 . S
H104 C37 0.961 . S
H105 C39 0.929 . S
H106 C42 0.930 . S
H107 C43 0.929 . S
H108 C46 0.930 . S
H109 C49 0.929 . S
H110 C50 0.930 . S
H111 C54 0.962 1_455 S
H112 C54 0.959 . S
H113 C54 0.958 . S
C114 C115 1.560 . S
C114 H175 0.959 . S
C114 H176 0.959 . S
C114 H177 0.960 . S
C115 C114 1.560 . S
C115 O170 1.426 . S
C115 H174 0.980 . S
C116 C117 1.407 1_545 S
C116 C121 1.418 . S
C116 O170 1.334 . S
C117 C116 1.407 1_565 S
C117 C118 1.360 . S
C117 H178 0.929 . S
C118 C117 1.360 . S
C118 C119 1.401 1_565 S
C118 C122 1.527 . S
C119 C118 1.401 1_545 S
C119 C120 1.405 . S
C119 C152 1.587 1_545 S
C120 C119 1.405 . S
C120 C121 1.332 . S
C120 C123 1.496 . S
C121 C116 1.418 . S
C121 C120 1.332 . S
C121 H179 0.929 . S
C122 C118 1.527 . S
C122 H180 0.959 . S
C122 H181 0.961 . S
C122 H182 0.961 . S
C123 C120 1.496 . S
C123 H183 0.960 . S
C123 H184 0.960 . S
C123 H185 0.961 . S
C124 C125 1.517 . S
C124 H187 0.953 1_565 S
C124 H188 0.960 . S
C124 H189 0.959 . S
C125 C124 1.517 . S
C125 O173 1.468 . S
C125 H186 0.980 1_565 S
C126 C127 1.337 1_565 S
C126 C131 1.367 . S
C126 O173 1.408 . S
C127 C126 1.337 1_545 S
C127 C128 1.410 . S
C127 H190 0.940 . S
C128 C127 1.410 . S
C128 C129 1.449 1_545 S
C128 C132 1.535 . S
C129 C128 1.449 1_565 S
C129 C130 1.384 . S
C129 C154 1.553 . S
C130 C129 1.384 . S
C130 C131 1.364 . S
C130 C133 1.450 . S
C131 C126 1.367 . S
C131 C130 1.364 . S
C131 H191 0.931 . S
C132 C128 1.535 . S
C132 H192 0.959 . S
C132 H193 0.961 . S
C132 H194 0.959 . S
C133 C130 1.450 . S
C133 H195 0.960 . S
C133 H196 0.960 . S
C133 H197 0.960 . S
C134 C135 1.309 1_565 S
C134 C139 1.304 . S
C134 O172 1.435 . S
C135 C134 1.309 1_545 S
C135 C136 1.476 . S
C135 H199 0.930 . S
C136 C135 1.476 . S
C136 C137 1.400 1_545 S
C136 C140 1.567 . S
C137 C136 1.400 1_565 S
C137 C138 1.373 . S
C137 C159 1.432 . S
C138 C137 1.373 . S
C138 C139 1.339 . S
C138 C141 1.530 . S
C139 C134 1.304 . S
C139 C138 1.339 . S
C139 H200 0.930 . S
C140 C136 1.567 . S
C140 H201 0.961 . S
C140 H202 0.960 . S
C140 H203 0.958 . S
C141 C138 1.530 . S
C141 H204 0.961 . S
C141 H205 0.960 . S
C141 H206 0.960 . S
C142 C143 1.530 . S
C142 H208 0.961 . S
C142 H209 0.961 . S
C142 H210 0.959 . S
C143 C142 1.530 . S
C143 O171 1.412 . S
C143 H207 0.980 . S
C144 C145 1.288 . S
C144 C149 1.377 1_545 S
C144 O171 1.393 . S
C145 C144 1.288 . S
C145 C146 1.369 . S
C145 H211 0.932 . S
C146 C145 1.369 . S
C146 C147 1.398 . S
C146 C150 1.527 . S
C147 C146 1.398 . S
C147 C148 1.380 1_545 S
C147 C161 1.497 . S
C148 C147 1.380 1_565 S
C148 C149 1.383 . S
C148 C151 1.603 . S
C149 C144 1.377 1_565 S
C149 C148 1.383 . S
C149 H212 0.929 . S
C150 C146 1.527 . S
C150 H213 0.961 . S
C150 H214 0.959 . S
C150 H215 0.959 . S
C151 C148 1.603 . S
C151 H216 0.960 . S
C151 H217 0.962 . S
C151 H218 0.961 . S
C152 C119 1.587 1_565 S
C152 C153 1.360 . S
C152 C165 1.412 . S
C153 C152 1.360 . S
C153 C154 1.365 . S
C153 H219 0.929 . S
C154 C129 1.553 . S
C154 C153 1.365 . S
C154 C155 1.404 . S
C155 C154 1.404 . S
C155 C156 1.395 . S
C155 C166 1.451 . S
C156 C155 1.395 . S
C156 C157 1.322 . S
C156 H220 0.930 . S
C157 C156 1.322 . S
C157 C158 1.459 . S
C157 H221 0.929 . S
C158 C157 1.459 . S
C158 C159 1.445 . S
C158 C167 1.395 . S
C159 C137 1.432 . S
C159 C158 1.445 . S
C159 C160 1.370 . S
C160 C159 1.370 . S
C160 C161 1.438 1_565 S
C160 H222 0.932 . S
C161 C147 1.497 . S
C161 C160 1.438 1_545 S
C161 C162 1.357 1_545 S
C162 C161 1.357 1_565 S
C162 C163 1.398 1_565 S
C162 C167 1.451 . S
C163 C162 1.398 1_545 S
C163 C164 1.347 . S
C163 H223 0.929 . S
C164 C163 1.347 . S
C164 C165 1.455 1_545 S
C164 H224 0.930 . S
C165 C152 1.412 . S
C165 C164 1.455 1_565 S
C165 C166 1.331 . S
C166 C155 1.451 . S
C166 C165 1.331 . S
C166 C167 1.497 . S
C167 C158 1.395 . S
C167 C162 1.451 . S
C167 C166 1.497 . S
C168 C169 1.582 1_565 S
C168 H225 0.962 . S
C168 H226 0.959 . S
C168 H227 0.958 . S
C169 C168 1.582 1_545 S
C169 O172 1.458 1_545 S
C169 H198 0.980 . S
O170 C115 1.426 . S
O170 C116 1.334 . S
O171 C143 1.412 . S
O171 C144 1.393 . S
O172 C134 1.435 . S
O172 C169 1.458 1_565 S
O173 C125 1.468 . S
O173 C126 1.408 . S
H174 C115 0.980 . S
H175 C114 0.959 . S
H176 C114 0.959 . S
H177 C114 0.960 . S
H178 C117 0.929 . S
H179 C121 0.929 . S
H180 C122 0.959 . S
H181 C122 0.961 . S
H182 C122 0.961 . S
H183 C123 0.960 . S
H184 C123 0.960 . S
H185 C123 0.961 . S
H186 C125 0.980 1_545 S
H187 C124 0.953 1_545 S
H188 C124 0.960 . S
H189 C124 0.959 . S
H190 C127 0.940 . S
H191 C131 0.931 . S
H192 C132 0.959 . S
H193 C132 0.961 . S
H194 C132 0.959 . S
H195 C133 0.960 . S
H196 C133 0.960 . S
H197 C133 0.960 . S
H198 C169 0.980 . S
H199 C135 0.930 . S
H200 C139 0.930 . S
H201 C140 0.961 . S
H202 C140 0.960 . S
H203 C140 0.958 . S
H204 C141 0.961 . S
H205 C141 0.960 . S
H206 C141 0.960 . S
H207 C143 0.980 . S
H208 C142 0.961 . S
H209 C142 0.961 . S
H210 C142 0.959 . S
H211 C145 0.932 . S
H212 C149 0.929 . S
H213 C150 0.961 . S
H214 C150 0.959 . S
H215 C150 0.959 . S
H216 C151 0.960 . S
H217 C151 0.962 . S
H218 C151 0.961 . S
H219 C153 0.929 . S
H220 C156 0.930 . S
H221 C157 0.929 . S
H222 C160 0.932 . S
H223 C163 0.929 . S
H224 C164 0.930 . S
H225 C168 0.962 . S
H226 C168 0.959 . S
H227 C168 0.958 . S
C228 C229 1.560 . S
C228 H289 0.959 . S
C228 H290 0.959 . S
C228 H291 0.960 . S
C229 C228 1.560 . S
C229 O284 1.426 . S
C229 H288 0.980 1_556 S
C230 C231 1.407 1_556 S
C230 C235 1.418 . S
C230 O284 1.334 . S
C231 C230 1.407 1_554 S
C231 C232 1.360 . S
C231 H292 0.929 . S
C232 C231 1.360 . S
C232 C233 1.401 . S
C232 C236 1.527 . S
C233 C232 1.401 . S
C233 C234 1.405 1_554 S
C233 C266 1.587 . S
C234 C233 1.405 1_556 S
C234 C235 1.332 . S
C234 C237 1.496 . S
C235 C230 1.418 . S
C235 C234 1.332 . S
C235 H293 0.929 . S
C236 C232 1.527 . S
C236 H294 0.959 . S
C236 H295 0.961 . S
C236 H296 0.961 . S
C237 C234 1.496 . S
C237 H297 0.960 . S
C237 H298 0.960 . S
C237 H299 0.961 . S
C238 C239 1.517 . S
C238 H301 0.961 . S
C238 H302 0.960 . S
C238 H303 0.959 . S
C239 C238 1.517 . S
C239 O287 1.468 . S
C239 H300 0.980 . S
C240 C241 1.349 . S
C240 C245 1.367 . S
C240 O287 1.408 . S
C241 C240 1.349 . S
C241 C242 1.407 . S
C241 H304 0.930 . S
C242 C241 1.407 . S
C242 C243 1.449 . S
C242 C246 1.535 1_554 S
C243 C242 1.449 . S
C243 C244 1.384 . S
C243 C268 1.553 . S
C244 C243 1.384 . S
C244 C245 1.364 . S
C244 C247 1.450 . S
C245 C240 1.367 . S
C245 C244 1.364 . S
C245 H305 0.931 . S
C246 C242 1.535 1_556 S
C246 H306 0.959 . S
C246 H307 0.961 . S
C246 H308 0.959 . S
C247 C244 1.450 . S
C247 H309 0.960 . S
C247 H310 0.960 . S
C247 H311 0.960 . S
C248 C249 1.309 . S
C248 C253 1.304 . S
C248 O286 1.435 . S
C249 C248 1.309 . S
C249 C250 1.476 . S
C249 H313 0.930 1_554 S
C250 C249 1.476 . S
C250 C251 1.400 . S
C250 C254 1.567 1_554 S
C251 C250 1.400 . S
C251 C252 1.373 . S
C251 C273 1.432 . S
C252 C251 1.373 . S
C252 C253 1.339 . S
C252 C255 1.530 . S
C253 C248 1.304 . S
C253 C252 1.339 . S
C253 H314 0.930 . S
C254 C250 1.567 1_556 S
C254 H315 0.961 . S
C254 H316 0.960 . S
C254 H317 0.958 . S
C255 C252 1.530 . S
C255 H318 0.961 . S
C255 H319 0.960 . S
C255 H320 0.960 . S
C256 C257 1.530 1_556 S
C256 H322 0.961 . S
C256 H323 0.961 . S
C256 H324 0.959 . S
C257 C256 1.530 1_554 S
C257 O285 1.412 1_554 S
C257 H321 0.980 . S
C258 C259 1.288 . S
C258 C263 1.377 1_556 S
C258 O285 1.393 . S
C259 C258 1.288 . S
C259 C260 1.369 . S
C259 H325 0.932 . S
C260 C259 1.369 . S
C260 C261 1.398 1_556 S
C260 C264 1.527 . S
C261 C260 1.398 1_554 S
C261 C262 1.380 . S
C261 C275 1.497 . S
C262 C261 1.380 . S
C262 C263 1.383 . S
C262 C265 1.603 . S
C263 C258 1.377 1_554 S
C263 C262 1.383 . S
C263 H326 0.929 . S
C264 C260 1.527 . S
C264 H327 0.961 . S
C264 H328 0.959 . S
C264 H329 0.959 . S
C265 C262 1.603 . S
C265 H330 0.960 . S
C265 H331 0.962 . S
C265 H332 0.961 . S
C266 C233 1.587 . S
C266 C267 1.360 . S
C266 C279 1.412 . S
C267 C266 1.360 . S
C267 C268 1.365 . S
C267 H333 0.929 . S
C268 C243 1.553 . S
C268 C267 1.365 . S
C268 C269 1.404 . S
C269 C268 1.404 . S
C269 C270 1.395 . S
C269 C280 1.451 . S
C270 C269 1.395 . S
C270 C271 1.322 . S
C270 H334 0.930 . S
C271 C270 1.322 . S
C271 C272 1.459 . S
C271 H335 0.929 . S
C272 C271 1.459 . S
C272 C273 1.445 . S
C272 C281 1.395 . S
C273 C251 1.432 . S
C273 C272 1.445 . S
C273 C274 1.370 . S
C274 C273 1.370 . S
C274 C275 1.438 . S
C274 H336 0.930 . S
C275 C261 1.497 . S
C275 C274 1.438 . S
C275 C276 1.360 . S
C276 C275 1.360 . S
C276 C277 1.401 . S
C276 C281 1.446 . S
C277 C276 1.401 . S
C277 C278 1.347 . S
C277 H337 0.929 . S
C278 C277 1.347 . S
C278 C279 1.455 . S
C278 H338 0.930 . S
C279 C266 1.412 . S
C279 C278 1.455 . S
C279 C280 1.331 . S
C280 C269 1.451 . S
C280 C279 1.331 . S
C280 C281 1.497 . S
C281 C272 1.395 . S
C281 C276 1.446 . S
C281 C280 1.497 . S
C282 C283 1.582 . S
C282 H339 0.962 . S
C282 H340 0.959 . S
C282 H341 0.958 . S
C283 C282 1.582 . S
C283 O286 1.458 . S
C283 H312 0.980 . S
O284 C229 1.426 . S
O284 C230 1.334 . S
O285 C257 1.412 1_556 S
O285 C258 1.393 . S
O286 C248 1.435 . S
O286 C283 1.458 . S
O287 C239 1.468 . S
O287 C240 1.408 . S
H288 C229 0.980 1_554 S
H289 C228 0.959 . S
H290 C228 0.959 . S
H291 C228 0.960 . S
H292 C231 0.929 . S
H293 C235 0.929 . S
H294 C236 0.959 . S
H295 C236 0.961 . S
H296 C236 0.961 . S
H297 C237 0.960 . S
H298 C237 0.960 . S
H299 C237 0.961 . S
H300 C239 0.980 . S
H301 C238 0.961 . S
H302 C238 0.960 . S
H303 C238 0.959 . S
H304 C241 0.930 . S
H305 C245 0.931 . S
H306 C246 0.959 . S
H307 C246 0.961 . S
H308 C246 0.959 . S
H309 C247 0.960 . S
H310 C247 0.960 . S
H311 C247 0.960 . S
H312 C283 0.980 . S
H313 C249 0.930 1_556 S
H314 C253 0.930 . S
H315 C254 0.961 . S
H316 C254 0.960 . S
H317 C254 0.958 . S
H318 C255 0.961 . S
H319 C255 0.960 . S
H320 C255 0.960 . S
H321 C257 0.980 . S
H322 C256 0.961 . S
H323 C256 0.961 . S
H324 C256 0.959 . S
H325 C259 0.932 . S
H326 C263 0.929 . S
H327 C264 0.961 . S
H328 C264 0.959 . S
H329 C264 0.959 . S
H330 C265 0.960 . S
H331 C265 0.962 . S
H332 C265 0.961 . S
H333 C267 0.929 . S
H334 C270 0.930 . S
H335 C271 0.929 . S
H336 C274 0.930 . S
H337 C277 0.929 . S
H338 C278 0.930 . S
H339 C282 0.962 . S
H340 C282 0.959 . S
H341 C282 0.958 . S
Zn342 O344 1.933 1_556 S
Zn342 O362 1.985 . S
Zn342 O373 1.955 . S
Zn343 O344 1.911 . S
Zn343 O363 1.970 . S
Zn343 O379 1.945 . S
Zn343 O386 1.981 . S
O344 Zn342 1.933 1_554 S
O344 Zn343 1.911 . S
O344 H345 0.841 . S
H345 O344 0.841 . S
C346 O347 1.246 . S
C346 O375 1.276 1_455 S
O347 C346 1.246 . S
Zn348 O350 1.911 . S
Zn348 O365 1.970 . S
Zn348 O382 1.945 . S
Zn348 O389 1.981 . S
Zn349 O350 1.933 1_556 S
Zn349 O364 1.985 . S
Zn349 O371 1.955 . S
O350 Zn348 1.911 . S
O350 Zn349 1.933 1_554 S
O350 H351 0.841 1_565 S
H351 O350 0.841 1_545 S
Zn352 O353 1.933 1_556 S
Zn352 O366 1.985 . S
Zn352 O375 1.955 . S
O353 Zn352 1.933 1_554 S
O353 Zn354 1.911 . S
O353 H355 0.841 1_655 S
Zn354 O353 1.911 . S
Zn354 O367 1.970 . S
Zn354 O383 1.981 . S
Zn354 O385 1.945 . S
H355 O353 0.841 1_455 S
Zn356 O357 1.933 1_556 S
Zn356 O369 1.985 . S
Zn356 O377 1.955 . S
O357 Zn356 1.933 1_554 S
O357 H358 0.841 . S
O357 Zn359 1.911 . S
H358 O357 0.841 . S
Zn359 O357 1.911 . S
Zn359 O370 1.970 . S
Zn359 O380 1.981 . S
Zn359 O388 1.945 . S
C360 O361 1.246 1_455 S
C360 O377 1.276 . S
O361 C360 1.246 1_655 S
O362 Zn342 1.985 . S
O362 C372 1.245 1_556 S
O363 Zn343 1.970 . S
O363 C372 1.263 . S
O364 Zn349 1.985 . S
O364 C376 1.245 1_556 S
O365 Zn348 1.970 . S
O365 C376 1.263 . S
O366 Zn352 1.985 . S
O366 C381 1.245 1_556 S
O367 Zn354 1.970 . S
O367 C381 1.263 . S
C368 O379 1.262 . S
C368 O380 1.245 1_545 S
O369 Zn356 1.985 . S
O369 C387 1.245 1_556 S
O370 Zn359 1.970 . S
O370 C387 1.263 . S
O371 Zn349 1.955 . S
O371 C390 1.276 1_565 S
C372 O362 1.245 1_554 S
C372 O363 1.263 . S
O373 Zn342 1.955 . S
O373 C392 1.276 . S
C374 O382 1.262 1_545 S
C374 O383 1.245 . S
O375 C346 1.276 1_655 S
O375 Zn352 1.955 . S
C376 O364 1.245 1_554 S
C376 O365 1.263 . S
O377 Zn356 1.955 . S
O377 C360 1.276 . S
C378 O385 1.262 1_455 S
C378 O386 1.245 . S
O379 Zn343 1.945 . S
O379 C368 1.262 . S
O380 Zn359 1.981 . S
O380 C368 1.245 1_565 S
C381 O366 1.245 1_554 S
C381 O367 1.263 . S
O382 Zn348 1.945 . S
O382 C374 1.262 1_565 S
O383 Zn354 1.981 . S
O383 C374 1.245 . S
C384 O388 1.262 . S
C384 O389 1.245 1_455 S
O385 Zn354 1.945 . S
O385 C378 1.262 1_655 S
O386 Zn343 1.981 . S
O386 C378 1.245 . S
C387 O369 1.245 1_554 S
C387 O370 1.263 . S
O388 Zn359 1.945 . S
O388 C384 1.262 . S
O389 Zn348 1.981 . S
O389 C384 1.245 1_655 S
C390 O371 1.276 1_545 S
C390 O391 1.246 . S
O391 C390 1.246 . S
C392 O373 1.276 . S
C392 O393 1.246 1_545 S
O393 C392 1.246 1_565 S
H394 C400 0.930 . S
H395 C403 0.930 . S
H396 C404 0.930 . S
H397 C405 0.930 1_655 S
H398 C408 0.930 . S
H399 C409 0.930 . S
C400 H394 0.930 . S
C400 C401 1.355 . S
C400 C402 1.415 . S
C401 C400 1.355 . S
C401 C403 1.419 1_455 S
C402 C400 1.415 . S
C402 C407 1.425 . S
C402 C409 1.409 . S
C403 H395 0.930 . S
C403 C401 1.419 1_655 S
C403 C404 1.362 . S
C404 H396 0.930 . S
C404 C403 1.362 . S
C404 C407 1.409 1_655 S
C405 H397 0.930 1_455 S
C405 C406 1.355 . S
C405 C407 1.415 . S
C406 C405 1.355 . S
C406 C408 1.419 . S
C407 C402 1.425 . S
C407 C404 1.409 1_455 S
C407 C405 1.415 . S
C408 H398 0.930 . S
C408 C406 1.419 . S
C408 C409 1.362 . S
C409 H399 0.930 . S
C409 C402 1.409 . S
C409 C408 1.362 . S
H410 C416 0.930 . S
H411 C419 0.930 . S
H412 C420 0.930 . S
H413 C421 0.930 . S
H414 C424 0.930 . S
H415 C425 0.930 . S
C416 H410 0.930 . S
C416 C417 1.355 . S
C416 C418 1.415 . S
C417 C416 1.355 . S
C417 C419 1.419 . S
C418 C416 1.415 . S
C418 C423 1.425 . S
C418 C425 1.409 . S
C419 H411 0.930 . S
C419 C417 1.419 . S
C419 C420 1.362 . S
C420 H412 0.930 . S
C420 C419 1.362 . S
C420 C423 1.409 . S
C421 H413 0.930 . S
C421 C422 1.355 . S
C421 C423 1.415 . S
C422 C421 1.355 . S
C422 C424 1.419 . S
C423 C418 1.425 . S
C423 C420 1.409 . S
C423 C421 1.415 . S
C424 H414 0.930 . S
C424 C422 1.419 . S
C424 C425 1.362 . S
C425 H415 0.930 . S
C425 C418 1.409 . S
C425 C424 1.362 . S
H426 C432 0.930 . S
H427 C435 0.930 . S
H428 C436 0.930 . S
H429 C437 0.930 . S
H430 C440 0.930 . S
H431 C441 0.930 . S
C432 H426 0.930 . S
C432 C433 1.355 . S
C432 C434 1.415 . S
C433 C432 1.355 . S
C433 C435 1.419 1_455 S
C434 C432 1.415 . S
C434 C439 1.408 1_455 S
C434 C441 1.409 . S
C435 H427 0.930 . S
C435 C433 1.419 1_655 S
C435 C436 1.362 . S
C436 H428 0.930 . S
C436 C435 1.362 . S
C436 C439 1.421 . S
C437 H429 0.930 . S
C437 C438 1.355 1_655 S
C437 C439 1.420 . S
C438 C437 1.355 1_455 S
C438 C440 1.419 . S
C439 C434 1.408 1_655 S
C439 C436 1.421 . S
C439 C437 1.420 . S
C440 H430 0.930 . S
C440 C438 1.419 . S
C440 C441 1.362 . S
C441 H431 0.930 . S
C441 C434 1.409 . S
C441 C440 1.362 . S
H442 C448 0.930 . S
H443 C451 0.930 . S
H444 C452 0.930 . S
H445 C453 0.930 . S
H446 C456 0.930 . S
H447 C457 0.930 . S
C448 H442 0.930 . S
C448 C449 1.355 . S
C448 C450 1.415 . S
C449 C448 1.355 . S
C449 C451 1.419 1_545 S
C450 C448 1.415 . S
C450 C455 1.425 . S
C450 C457 1.409 . S
C451 H443 0.930 . S
C451 C449 1.419 1_565 S
C451 C452 1.362 . S
C452 H444 0.930 . S
C452 C451 1.362 . S
C452 C455 1.409 1_565 S
C453 H445 0.930 . S
C453 C454 1.355 1_565 S
C453 C455 1.415 1_565 S
C454 C453 1.355 1_545 S
C454 C456 1.419 . S
C455 C450 1.425 . S
C455 C452 1.409 1_545 S
C455 C453 1.415 1_545 S
C456 H446 0.930 . S
C456 C454 1.419 . S
C456 C457 1.362 . S
C457 H447 0.930 . S
C457 C450 1.409 . S
C457 C456 1.362 . S
H458 C464 0.930 . S
H459 C467 0.930 . S
H460 C468 0.930 . S
H461 C469 0.930 . S
H462 C472 0.930 . S
H463 C473 0.930 . S
C464 H458 0.930 . S
C464 C465 1.355 . S
C464 C466 1.415 . S
C465 C464 1.355 . S
C465 C467 1.419 1_455 S
C466 C464 1.415 . S
C466 C471 1.425 1_455 S
C466 C473 1.409 . S
C467 H459 0.930 . S
C467 C465 1.419 1_655 S
C467 C468 1.362 . S
C468 H460 0.930 . S
C468 C467 1.362 . S
C468 C471 1.409 . S
C469 H461 0.930 . S
C469 C470 1.355 1_655 S
C469 C471 1.415 . S
C470 C469 1.355 1_455 S
C470 C472 1.419 . S
C471 C466 1.425 1_655 S
C471 C468 1.409 . S
C471 C469 1.415 . S
C472 H462 0.930 . S
C472 C470 1.419 . S
C472 C473 1.362 . S
C473 H463 0.930 . S
C473 C466 1.409 . S
C473 C472 1.362 . S
H474 C480 0.930 . S
H475 C483 0.930 . S
H476 C484 0.930 . S
H477 C485 0.930 . S
H478 C488 0.930 . S
H479 C489 0.930 . S
C480 H474 0.930 . S
C480 C481 1.355 1_565 S
C480 C482 1.415 . S
C481 C480 1.355 1_545 S
C481 C483 1.419 . S
C482 C480 1.415 . S
C482 C487 1.425 1_565 S
C482 C489 1.409 . S
C483 H475 0.930 . S
C483 C481 1.419 . S
C483 C484 1.362 . S
C484 H476 0.930 . S
C484 C483 1.362 . S
C484 C487 1.409 . S
C485 H477 0.930 . S
C485 C486 1.355 1_545 S
C485 C487 1.415 . S
C486 C485 1.355 1_565 S
C486 C488 1.419 . S
C487 C482 1.425 1_545 S
C487 C484 1.409 . S
C487 C485 1.415 . S
C488 H478 0.930 . S
C488 C486 1.419 . S
C488 C489 1.362 . S
C489 H479 0.930 . S
C489 C482 1.409 . S
C489 C488 1.362 . S
H490 C496 0.930 . S
H491 C499 0.930 1_655 S
H492 C500 0.930 . S
H493 C501 0.930 1_655 S
H494 C504 0.930 . S
H495 C505 0.930 . S
C496 H490 0.930 . S
C496 C497 1.355 . S
C496 C498 1.415 . S
C497 C496 1.355 . S
C497 C499 1.419 . S
C498 C496 1.415 . S
C498 C503 1.425 . S
C498 C505 1.409 . S
C499 H491 0.930 1_455 S
C499 C497 1.419 . S
C499 C500 1.362 1_455 S
C500 H492 0.930 . S
C500 C499 1.362 1_655 S
C500 C503 1.409 1_655 S
C501 H493 0.930 1_455 S
C501 C502 1.355 . S
C501 C503 1.415 . S
C502 C501 1.355 . S
C502 C504 1.419 . S
C503 C498 1.425 . S
C503 C500 1.409 1_455 S
C503 C501 1.415 . S
C504 H494 0.930 . S
C504 C502 1.419 . S
C504 C505 1.362 . S
C505 H495 0.930 . S
C505 C498 1.409 . S
C505 C504 1.362 . S
H506 C512 0.930 . S
H507 C515 0.930 . S
H508 C516 0.930 . S
H509 C517 0.930 . S
H510 C520 0.930 . S
H511 C521 0.930 . S
C512 H506 0.930 . S
C512 C513 1.355 . S
C512 C514 1.415 . S
C513 C512 1.355 . S
C513 C515 1.419 . S
C514 C512 1.415 . S
C514 C519 1.425 . S
C514 C521 1.409 . S
C515 H507 0.930 . S
C515 C513 1.419 . S
C515 C516 1.362 . S
C516 H508 0.930 . S
C516 C515 1.362 . S
C516 C519 1.409 . S
C517 H509 0.930 . S
C517 C518 1.355 . S
C517 C519 1.415 . S
C518 C517 1.355 . S
C518 C520 1.419 . S
C519 C514 1.425 . S
C519 C516 1.409 . S
C519 C517 1.415 . S
C520 H510 0.930 . S
C520 C518 1.419 . S
C520 C521 1.362 . S
C521 H511 0.930 . S
C521 C514 1.409 . S
C521 C520 1.362 . S
H522 C528 0.930 . S
H523 C531 0.930 . S
H524 C532 0.930 . S
H525 C533 0.930 . S
H526 C536 0.930 . S
H527 C537 0.930 . S
C528 H522 0.930 . S
C528 C529 1.355 . S
C528 C530 1.415 . S
C529 C528 1.355 . S
C529 C531 1.419 1_554 S
C530 C528 1.415 . S
C530 C535 1.425 1_554 S
C530 C537 1.409 . S
C531 H523 0.930 . S
C531 C529 1.419 1_556 S
C531 C532 1.362 . S
C532 H524 0.930 . S
C532 C531 1.362 . S
C532 C535 1.409 . S
C533 H525 0.930 . S
C533 C534 1.355 1_556 S
C533 C535 1.415 . S
C534 C533 1.355 1_554 S
C534 C536 1.419 . S
C535 C530 1.425 1_556 S
C535 C532 1.409 . S
C535 C533 1.415 . S
C536 H526 0.930 . S
C536 C534 1.419 . S
C536 C537 1.362 . S
C537 H527 0.930 . S
C537 C530 1.409 . S
C537 C536 1.362 . S
H538 C544 0.930 . S
H539 C547 0.930 . S
H540 C548 0.930 . S
H541 C549 0.930 . S
H542 C552 0.930 . S
H543 C553 0.930 . S
C544 H538 0.930 . S
C544 C545 1.355 . S
C544 C546 1.415 . S
C545 C544 1.355 . S
C545 C547 1.419 . S
C546 C544 1.415 . S
C546 C551 1.425 . S
C546 C553 1.409 . S
C547 H539 0.930 . S
C547 C545 1.419 . S
C547 C548 1.362 . S
C548 H540 0.930 . S
C548 C547 1.362 . S
C548 C551 1.409 . S
C549 H541 0.930 . S
C549 C550 1.355 . S
C549 C551 1.415 . S
C550 C549 1.355 . S
C550 C552 1.419 . S
C551 C546 1.425 . S
C551 C548 1.409 . S
C551 C549 1.415 . S
C552 H542 0.930 . S
C552 C550 1.419 . S
C552 C553 1.362 . S
C553 H543 0.930 . S
C553 C546 1.409 . S
C553 C552 1.362 . S
H554 C560 0.930 . S
H555 C563 0.930 . S
H556 C564 0.930 . S
H557 C565 0.930 . S
H558 C568 0.930 . S
H559 C569 0.930 . S
C560 H554 0.930 . S
C560 C561 1.355 . S
C560 C562 1.415 . S
C561 C560 1.355 . S
C561 C563 1.419 1_554 S
C562 C560 1.415 . S
C562 C567 1.425 1_554 S
C562 C569 1.409 . S
C563 H555 0.930 . S
C563 C561 1.419 1_556 S
C563 C564 1.362 . S
C564 H556 0.930 . S
C564 C563 1.362 . S
C564 C567 1.409 . S
C565 H557 0.930 . S
C565 C566 1.355 1_556 S
C565 C567 1.415 . S
C566 C565 1.355 1_554 S
C566 C568 1.419 . S
C567 C562 1.425 1_556 S
C567 C564 1.409 . S
C567 C565 1.415 . S
C568 H558 0.930 . S
C568 C566 1.419 . S
C568 C569 1.362 . S
C569 H559 0.930 . S
C569 C562 1.409 . S
C569 C568 1.362 . S
H570 C576 0.930 1_556 S
H571 C579 0.930 . S
H572 C580 0.930 . S
H573 C581 0.930 . S
H574 C584 0.930 . S
H575 C585 0.930 . S
C576 H570 0.930 1_554 S
C576 C577 1.355 . S
C576 C578 1.415 . S
C577 C576 1.355 . S
C577 C579 1.419 . S
C578 C576 1.415 . S
C578 C583 1.425 . S
C578 C585 1.409 . S
C579 H571 0.930 . S
C579 C577 1.419 . S
C579 C580 1.362 . S
C580 H572 0.930 . S
C580 C579 1.362 . S
C580 C583 1.409 . S
C581 H573 0.930 . S
C581 C582 1.355 . S
C581 C583 1.415 . S
C582 C581 1.355 . S
C582 C584 1.419 . S
C583 C578 1.425 . S
C583 C580 1.409 . S
C583 C581 1.415 . S
C584 H574 0.930 . S
C584 C582 1.419 . S
C584 C585 1.362 . S
C585 H575 0.930 . S
C585 C578 1.409 . S
C585 C584 1.362 . S
C406 C378 1.666 . S
C401 C11 0.975 1_455 S
C422 C374 1.591 . S
C417 C143 1.391 . S
C438 C384 1.358 . S
C433 C1 1.214 . S
C454 C368 1.694 . S
C449 C169 1.313 . S
C465 C29 1.432 . S
C470 C360 1.554 . S
C486 C392 1.857 1_565 S
C481 C125 1.107 1_545 S
C497 C55 1.387 . S
C502 C346 1.733 . S
C513 C115 1.205 . S
C518 C390 1.610 . S
C529 C283 0.989 . S
C534 C372 1.143 . S
C545 C239 0.635 . S
C550 C387 1.115 . S
C566 C381 1.036 . S
C561 C257 0.795 . S
C582 C376 0.861 . S
C577 C229 0.897 1_554 S
