# Generated by pormake.
# Topology pth, (4,4)-cn, num edge types: 1
# Building blocks:
#     Node 0, Type 0, BuildingBlock: CEKHIL_clean_sbu_0, # of connection points: 4
#     Node 1, Type 0, BuildingBlock: CEKHIL_clean_sbu_0, # of connection points: 4
#     Node 2, Type 0, BuildingBlock: CEKHIL_clean_sbu_0, # of connection points: 4
#     Node 3, Type 1, BuildingBlock: MIFKUJ_clean_linker_1, # of connection points: 4
#     Node 4, Type 1, BuildingBlock: MIFKUJ_clean_linker_1, # of connection points: 4
#     Node 5, Type 1, BuildingBlock: MIFKUJ_clean_linker_1, # of connection points: 4
#     Edge 6, Type (0, 1), BuildingBlock: EZIPEK_clean_linker_0, # of connection points: 2
#     Edge 7, Type (0, 1), BuildingBlock: EZIPEK_clean_linker_0, # of connection points: 2
#     Edge 8, Type (0, 1), BuildingBlock: EZIPEK_clean_linker_0, # of connection points: 2
#     Edge 9, Type (0, 1), BuildingBlock: EZIPEK_clean_linker_0, # of connection points: 2
#     Edge 10, Type (0, 1), BuildingBlock: EZIPEK_clean_linker_0, # of connection points: 2
#     Edge 11, Type (0, 1), BuildingBlock: EZIPEK_clean_linker_0, # of connection points: 2
#     Edge 12, Type (0, 1), BuildingBlock: EZIPEK_clean_linker_0, # of connection points: 2
#     Edge 13, Type (0, 1), BuildingBlock: EZIPEK_clean_linker_0, # of connection points: 2
#     Edge 14, Type (0, 1), BuildingBlock: EZIPEK_clean_linker_0, # of connection points: 2
#     Edge 15, Type (0, 1), BuildingBlock: EZIPEK_clean_linker_0, # of connection points: 2
#     Edge 16, Type (0, 1), BuildingBlock: EZIPEK_clean_linker_0, # of connection points: 2
#     Edge 17, Type (0, 1), BuildingBlock: EZIPEK_clean_linker_0, # of connection points: 2
# Relax obj value: 0.014
# Max RMSD: 0.064
# Mean RMSD: 0.055
data_MOF--net-pth--node1-CEKHIL_clean_sbu_0--node2-MIFKUJ_clean_linker_1--edge1-EZIPEK_clean_linker_0
_symmetry_space_group_name_H-M    P1
_symmetry_Int_Tables_number       1
_symmetry_cell_setting            triclinic
loop_
_symmetry_equiv_pos_as_xyz
'x, y, z'
_cell_length_a     22.627895
_cell_length_b     22.6581
_cell_length_c     49.981684
_cell_angle_alpha  91.138776
_cell_angle_beta   89.984783
_cell_angle_gamma 120.34292
loop_
_atom_site_label
_atom_site_type_symbol
_atom_site_fract_x
_atom_site_fract_y
_atom_site_fract_z
_atom_type_partial_charge
Co0 Co 0.03357 0.04158 0.05806 0.0
O1 O 0.98826 0.97424 0.08527 0.0
O2 O 0.07935 0.98968 0.06285 0.0
C3 C 0.0361 0.12902 0.08221 0.0
O4 O 0.09723 0.107 0.02984 0.0
Co5 Co 0.96415 0.11025 0.03058 0.0
O6 O 0.04958 0.16131 0.00999 0.0
C7 C 0.92238 0.96934 0.01502 0.0
C8 C 0.03433 0.9572 0.0812 0.0
C9 C 0.09867 0.14997 0.01302 0.0
O10 O 0.97152 0.97368 0.02949 0.0
O11 O 0.90722 0.01649 0.01427 0.0
O12 O 0.08254 0.11217 0.08547 0.0
O13 O 0.9869 0.09025 0.06562 0.0
Co14 Co 0.01719 0.04663 0.3707 0.0
O15 O 0.9773 0.07391 0.34308 0.0
O16 O 0.06567 0.14568 0.36857 0.0
C17 C 0.02132 0.96535 0.34512 0.0
O18 O 0.07397 0.03692 0.40043 0.0
Co19 Co 0.93827 0.89978 0.39215 0.0
O20 O 0.02838 0.92479 0.408 0.0
C21 C 0.89934 1.0001 0.40992 0.0
C22 C 0.02405 0.1364 0.34884 0.0
C23 C 0.07594 0.98683 0.41133 0.0
O24 O 0.95125 0.04782 0.39779 0.0
O25 O 0.88232 0.937 0.40853 0.0
O26 O 0.06946 0.02888 0.3439 0.0
O27 O 0.9701 0.95338 0.36016 0.0
Co28 Co 0.01259 0.03721 0.70444 0.0
O29 O 0.07939 0.08845 0.67759 0.0
O30 O 0.07055 0.99829 0.69748 0.0
C31 C 0.9222 0.02888 0.68079 0.0
O32 O 0.94946 0.96998 0.73233 0.0
Co33 Co 0.9375 0.09865 0.73346 0.0
O34 O 0.88786 0.01081 0.75224 0.0
C35 C 0.07992 0.14747 0.74837 0.0
C36 C 0.10092 0.04557 0.67978 0.0
C37 C 0.90357 0.96471 0.74891 0.0
O38 O 0.07825 0.10011 0.73323 0.0
O39 O 0.0305 0.1594 0.74978 0.0
O40 O 0.94281 0.98533 0.67729 0.0
O41 O 0.95855 0.07849 0.69776 0.0
H42 H 0.13336 0.50441 0.16675 0.0
H43 H 0.13172 0.41288 0.13904 0.0
H44 H 0.94057 0.26586 0.17432 0.0
H45 H 0.94179 0.35729 0.202 0.0
H46 H 0.04464 0.54819 0.1655 0.0
H47 H 0.12787 0.46001 0.23338 0.0
H48 H 0.13103 0.37621 0.26294 0.0
H49 H 0.93329 0.32509 0.29394 0.0
H50 H 0.93022 0.40921 0.26457 0.0
H51 H 0.9256 0.58612 0.26237 0.0
H52 H 0.92423 0.67586 0.29025 0.0
H53 H 0.11448 0.82676 0.2556 0.0
H54 H 0.11674 0.73703 0.22796 0.0
H55 H 0.01625 0.54555 0.26389 0.0
H56 H 0.93681 0.63937 0.19637 0.0
H57 H 0.9379 0.72634 0.16738 0.0
H58 H 0.13246 0.76923 0.13565 0.0
H59 H 0.13186 0.68266 0.16467 0.0
C60 C 0.03795 0.43773 0.1866 0.0
C61 C 0.0914 0.45242 0.16874 0.0
C62 C 0.09059 0.40034 0.15299 0.0
C63 C 0.03608 0.33279 0.15471 0.0
C64 C 0.98321 0.31767 0.17286 0.0
C65 C 0.98413 0.36976 0.1887 0.0
C66 C 0.03614 0.49407 0.2016 0.0
C67 C 0.03949 0.54821 0.18708 0.0
C68 C 0.02768 0.49319 0.22967 0.0
C69 C 0.02849 0.44042 0.24659 0.0
C70 C 0.08494 0.43043 0.24637 0.0
C71 C 0.087 0.38308 0.26333 0.0
C72 C 0.03246 0.3447 0.28064 0.0
C73 C 0.97592 0.35441 0.28078 0.0
C74 C 0.97415 0.40219 0.26402 0.0
C75 C 0.021 0.65486 0.24291 0.0
C76 C 0.96684 0.63855 0.26061 0.0
C77 C 0.96593 0.68956 0.27647 0.0
C78 C 0.01925 0.75762 0.27492 0.0
C79 C 0.07287 0.7744 0.25695 0.0
C80 C 0.07386 0.72333 0.24111 0.0
C81 C 0.02434 0.59952 0.2278 0.0
C82 C 0.02134 0.54557 0.2423 0.0
C83 C 0.03349 0.60088 0.19973 0.0
C84 C 0.03458 0.65484 0.18289 0.0
C85 C 0.98006 0.66788 0.18339 0.0
C86 C 0.98041 0.71709 0.16678 0.0
C87 C 0.0352 0.75389 0.14942 0.0
C88 C 0.08976 0.74118 0.14893 0.0
C89 C 0.08932 0.69185 0.16545 0.0
H90 H 0.64982 0.13955 0.49432 0.0
H91 H 0.73325 0.13411 0.46444 0.0
H92 H 0.69987 0.95119 0.50278 0.0
H93 H 0.61521 0.95533 0.53228 0.0
H94 H 0.51785 0.05184 0.4975 0.0
H95 H 0.70948 0.13301 0.56104 0.0
H96 H 0.79554 0.12992 0.59017 0.0
H97 H 0.63752 0.94536 0.62556 0.0
H98 H 0.55177 0.94739 0.59626 0.0
H99 H 0.38417 0.94964 0.59824 0.0
H100 H 0.29857 0.95101 0.62803 0.0
H101 H 0.33507 0.13925 0.59344 0.0
H102 H 0.42043 0.13776 0.56342 0.0
H103 H 0.51645 0.04061 0.59636 0.0
H104 H 0.32541 0.95618 0.53978 0.0
H105 H 0.23175 0.94171 0.51325 0.0
H106 H 0.37038 0.10713 0.46313 0.0
H107 H 0.46449 0.1261 0.49203 0.0
C108 C 0.62656 0.04826 0.51579 0.0
C109 C 0.66067 0.09845 0.49646 0.0
C110 C 0.70832 0.09555 0.47947 0.0
C111 C 0.72265 0.04239 0.48152 0.0
C112 C 0.68965 0.9928 0.50106 0.0
C113 C 0.6417 0.99548 0.51797 0.0
C114 C 0.57212 0.04888 0.53234 0.0
C115 C 0.51817 0.05093 0.51918 0.0
C116 C 0.5706 0.04376 0.56056 0.0
C117 C 0.62422 0.04018 0.57634 0.0
C118 C 0.69349 0.09134 0.57475 0.0
C119 C 0.74237 0.08997 0.59149 0.0
C120 C 0.7224 0.03777 0.6101 0.0
C121 C 0.65354 0.98626 0.61144 0.0
C122 C 0.60487 0.98742 0.5947 0.0
C123 C 0.40829 0.04339 0.57848 0.0
C124 C 0.37369 0.99119 0.59702 0.0
C125 C 0.32519 0.99202 0.61407 0.0
C126 C 0.31118 0.04554 0.61307 0.0
C127 C 0.34567 0.09778 0.59456 0.0
C128 C 0.39379 0.09663 0.57733 0.0
C129 C 0.46247 0.04395 0.56159 0.0
C130 C 0.51636 0.04232 0.57467 0.0
C131 C 0.46253 0.04732 0.53329 0.0
C132 C 0.40328 0.04092 0.5176 0.0
C133 C 0.33616 0.98939 0.52297 0.0
C134 C 0.28173 0.97832 0.50631 0.0
C135 C 0.29297 0.01394 0.4821 0.0
C136 C 0.3594 0.07135 0.47898 0.0
C137 C 0.4138 0.08363 0.49601 0.0
H138 H 0.42247 0.333 0.86515 0.0
H139 H 0.32615 0.24861 0.83707 0.0
H140 H 0.30948 0.41131 0.80138 0.0
H141 H 0.40468 0.49552 0.82957 0.0
H142 H 0.53357 0.52802 0.83128 0.0
H143 H 0.48843 0.38436 0.92921 0.0
H144 H 0.3975 0.3012 0.95799 0.0
H145 H 0.25535 0.3534 0.92386 0.0
H146 H 0.34616 0.43662 0.895 0.0
H147 H 0.57251 0.65345 0.93448 0.0
H148 H 0.65989 0.74532 0.96302 0.0
H149 H 0.8172 0.7237 0.92322 0.0
H150 H 0.72948 0.6309 0.89461 0.0
H151 H 0.53651 0.52286 0.93032 0.0
H152 H 0.63544 0.71737 0.87163 0.0
H153 H 0.71819 0.8084 0.8429 0.0
H154 H 0.74693 0.66064 0.79798 0.0
H155 H 0.6655 0.56967 0.82701 0.0
C156 C 0.42055 0.42066 0.84963 0.0
C157 C 0.39771 0.35051 0.85148 0.0
C158 C 0.34316 0.30246 0.8354 0.0
C159 C 0.311 0.32399 0.8172 0.0
C160 C 0.33383 0.39389 0.81529 0.0
C161 C 0.38813 0.44179 0.83134 0.0
C162 C 0.47925 0.47273 0.86608 0.0
C163 C 0.53451 0.52672 0.85297 0.0
C164 C 0.48066 0.47075 0.89434 0.0
C165 C 0.42397 0.41636 0.90984 0.0
C166 C 0.43751 0.37736 0.92768 0.0
C167 C 0.38581 0.32995 0.94403 0.0
C168 C 0.32001 0.32141 0.94297 0.0
C169 C 0.3059 0.35932 0.92483 0.0
C170 C 0.35754 0.40648 0.90835 0.0
C171 C 0.64441 0.63548 0.91228 0.0
C172 C 0.62573 0.66818 0.93188 0.0
C173 C 0.67544 0.72055 0.94815 0.0
C174 C 0.74476 0.74109 0.94519 0.0
C175 C 0.76383 0.70841 0.92573 0.0
C176 C 0.71393 0.65589 0.90937 0.0
C177 C 0.59028 0.57907 0.89555 0.0
C178 C 0.53618 0.52381 0.90862 0.0
C179 C 0.59005 0.58 0.86722 0.0
C180 C 0.64468 0.63663 0.85169 0.0
C181 C 0.66072 0.70467 0.85607 0.0
C182 C 0.70759 0.75652 0.83962 0.0
C183 C 0.73852 0.74099 0.81842 0.0
C184 C 0.72368 0.67346 0.81432 0.0
C185 C 0.67718 0.62172 0.83084 0.0
C186 C 0.03612 0.1731 0.12891 0.0
C187 C 0.03213 0.17934 0.10077 0.0
C188 C 0.01884 0.27933 0.10878 0.0
C189 C 0.03278 0.27861 0.13639 0.0
N190 N 0.06414 0.23032 0.17245 0.0
N191 N 0.02956 0.24508 0.06387 0.0
C192 C 0.04407 0.227 0.1464 0.0
C193 C 0.02571 0.23405 0.09068 0.0
N194 N 0.02881 0.11423 0.13909 0.0
N195 N 0.99737 0.32218 0.09989 0.0
H196 H 0.03577 0.21386 0.05012 0.0
H197 H 0.03323 0.2886 0.05556 0.0
H198 H 0.99133 0.3559 0.11255 0.0
H199 H 0.97936 0.31974 0.08049 0.0
H200 H 0.02473 0.10439 0.15948 0.0
H201 H 0.01899 0.07189 0.12718 0.0
H202 H 0.08044 0.19837 0.18005 0.0
H203 H 0.07015 0.26879 0.18592 0.0
C204 C 0.88203 0.04905 0.45276 0.0
C205 C 0.8573 0.01847 0.42706 0.0
C206 C 0.74461 0.00404 0.43699 0.0
C207 C 0.76992 0.03668 0.46235 0.0
N208 N 0.86478 0.10078 0.49283 0.0
N209 N 0.77068 0.97906 0.39251 0.0
C210 C 0.83942 0.06254 0.46974 0.0
C211 C 0.79018 0.99964 0.41852 0.0
N212 N 0.94507 0.06239 0.46138 0.0
N213 N 0.67646 0.97518 0.43094 0.0
H214 H 0.80299 0.97547 0.3785 0.0
H215 H 0.72508 0.97129 0.38418 0.0
H216 H 0.64173 0.97857 0.44368 0.0
H217 H 0.65321 0.94381 0.41417 0.0
H218 H 0.96294 0.07708 0.48096 0.0
H219 H 0.97823 0.05446 0.44935 0.0
H220 H 0.91655 0.12727 0.49803 0.0
H221 H 0.83462 0.11042 0.50595 0.0
C222 C 0.79594 0.85506 0.75756 0.0
C223 C 0.86518 0.90181 0.76459 0.0
C224 C 0.85416 0.83662 0.80482 0.0
C225 C 0.78298 0.79476 0.79936 0.0
N226 N 0.68408 0.76585 0.7718 0.0
N227 N 0.96081 0.9405 0.79504 0.0
C228 C 0.75335 0.80415 0.77596 0.0
C229 C 0.89475 0.89313 0.78813 0.0
N230 N 0.77149 0.85875 0.733 0.0
N231 N 0.88286 0.82171 0.82578 0.0
H232 H 0.99271 0.98073 0.78273 0.0
H233 H 0.98313 0.94224 0.81346 0.0
H234 H 0.85424 0.78174 0.83873 0.0
H235 H 0.93537 0.84559 0.82933 0.0
H236 H 0.72361 0.8223 0.72542 0.0
H237 H 0.80161 0.89537 0.71906 0.0
H238 H 0.65814 0.77546 0.75689 0.0
H239 H 0.65137 0.7268 0.78441 0.0
C240 C 1.00229 0.8357 0.08945 0.0
C241 C 0.03719 0.90542 0.09792 0.0
C242 C 0.06738 0.87529 0.14069 0.0
C243 C 0.03564 0.80605 0.13167 0.0
N244 N 0.97989 0.72046 0.09666 0.0
N245 N 0.11087 0.99401 0.12958 0.0
C246 C 0.00502 0.78626 0.10578 0.0
C247 C 0.07202 0.9259 0.123 0.0
N248 N 0.9652 0.81668 0.06607 0.0
N249 N 0.09153 0.89223 0.16645 0.0
H250 H 0.11469 0.0324 0.11727 0.0
H251 H 0.14345 0.01304 0.14618 0.0
H252 H 0.09062 0.85688 0.17975 0.0
H253 H 0.10818 0.94007 0.17535 0.0
H254 H 0.93183 0.7661 0.06018 0.0
H255 H 0.96472 0.85193 0.05309 0.0
H256 H 0.96362 0.70418 0.07703 0.0
H257 H 0.97925 0.6825 0.10834 0.0
C258 C 0.11736 0.96509 0.45412 0.0
C259 C 0.13376 0.99937 0.42944 0.0
C260 C 0.25217 0.02389 0.43507 0.0
C261 C 0.23652 0.99638 0.46123 0.0
N262 N 0.14387 0.89318 0.47934 0.0
N263 N 0.22012 0.06679 0.39702 0.0
C264 C 0.16613 0.95374 0.46697 0.0
C265 C 0.20223 0.03064 0.42008 0.0
N266 N 0.05463 0.94208 0.4653 0.0
N267 N 0.31014 0.03286 0.42294 0.0
H268 H 0.1854 0.07151 0.38492 0.0
H269 H 0.27075 0.09691 0.39106 0.0
H270 H 0.34155 0.01711 0.43177 0.0
H271 H 0.3217 0.04619 0.403 0.0
H272 H 0.04279 0.92012 0.48414 0.0
H273 H 0.01786 0.95152 0.45708 0.0
H274 H 0.09206 0.85832 0.48231 0.0
H275 H 0.17576 0.87267 0.48156 0.0
C276 C 0.13138 0.18796 0.79423 0.0
C277 C 0.14048 0.18829 0.76609 0.0
C278 C 0.2639 0.26699 0.77242 0.0
C279 C 0.25299 0.27369 0.80001 0.0
N280 N 0.17552 0.24664 0.83696 0.0
N281 N 0.21409 0.2336 0.72785 0.0
C282 C 0.18652 0.23558 0.81091 0.0
C283 C 0.20655 0.22881 0.75501 0.0
N284 N 0.07071 0.14041 0.80513 0.0
N285 N 0.32923 0.29631 0.76299 0.0
H286 H 0.17339 0.20718 0.71439 0.0
H287 H 0.25957 0.26804 0.71862 0.0
H288 H 0.37234 0.32488 0.77519 0.0
H289 H 0.34095 0.28739 0.74373 0.0
H290 H 0.0635 0.13284 0.82563 0.0
H291 H 0.02943 0.10385 0.79365 0.0
H292 H 0.1269 0.22639 0.84513 0.0
H293 H 0.21468 0.28036 0.84997 0.0
C294 C 0.82041 0.0448 0.67307 0.0
C295 C 0.86959 0.0293 0.66258 0.0
C296 C 0.81604 0.01173 0.61796 0.0
C297 C 0.77367 0.03598 0.62802 0.0
N298 N 0.74242 0.08616 0.66426 0.0
N299 N 0.9212 0.01097 0.62293 0.0
C300 C 0.7781 0.05593 0.65531 0.0
C301 C 0.86916 0.01591 0.63446 0.0
N302 N 0.8107 0.04446 0.69999 0.0
N303 N 0.80481 0.9833 0.59274 0.0
H304 H 0.96228 0.01491 0.63355 0.0
H305 H 0.92729 0.00983 0.60229 0.0
H306 H 0.76722 0.9804 0.57979 0.0
H307 H 0.82861 0.95709 0.58556 0.0
H308 H 0.77134 0.04913 0.70867 0.0
H309 H 0.83641 0.03069 0.71337 0.0
H310 H 0.74945 0.10842 0.6833 0.0
H311 H 0.71027 0.09439 0.65188 0.0
C312 C 0.88516 0.91828 0.96893 0.0
C313 C 0.88335 0.90878 0.99699 0.0
C314 C 0.80245 0.78614 0.98994 0.0
C315 C 0.79695 0.79772 0.96247 0.0
N316 N 0.82751 0.87595 0.92606 0.0
N317 N 0.83538 0.83525 0.03479 0.0
C318 C 0.83721 0.86403 0.95195 0.0
C319 C 0.84122 0.84294 0.00768 0.0
N320 N 0.93391 0.97877 0.95846 0.0
N321 N 0.77123 0.72069 0.99893 0.0
H322 H 0.86265 0.8756 0.04843 0.0
H323 H 0.79977 0.7901 0.0438 0.0
H324 H 0.74241 0.67803 0.98643 0.0
H325 H 0.77889 0.70833 0.01808 0.0
H326 H 0.94256 0.98629 0.93802 0.0
H327 H 0.97019 0.01956 0.97026 0.0
H328 H 0.84942 0.92473 0.91821 0.0
H329 H 0.79333 0.83757 0.91285 0.0
C330 C 0.06765 0.88902 0.33179 0.0
C331 C 0.02062 0.91191 0.32725 0.0
C332 C 0.97715 0.8382 0.28685 0.0
C333 C 0.01993 0.81109 0.29282 0.0
N334 N 0.09831 0.80232 0.32288 0.0
N335 N 0.92684 0.9055 0.30173 0.0
C336 C 0.06321 0.83428 0.31581 0.0
C337 C 0.97399 0.88538 0.30521 0.0
N338 N 0.11731 0.92028 0.35111 0.0
N339 N 0.94164 0.82078 0.2631 0.0
H340 H 0.92591 0.94362 0.31343 0.0
H341 H 0.88609 0.88193 0.28817 0.0
H342 H 0.94254 0.78616 0.24926 0.0
H343 H 0.91552 0.84428 0.25605 0.0
H344 H 0.15789 0.91141 0.35342 0.0
H345 H 0.12107 0.95924 0.36364 0.0
H346 H 0.1245 0.81145 0.341 0.0
H347 H 0.09679 0.76235 0.31159 0.0
C348 C 0.15107 0.04672 0.63439 0.0
C349 C 0.15747 0.05033 0.66283 0.0
C350 C 0.26979 0.05858 0.65853 0.0
C351 C 0.25803 0.04549 0.63056 0.0
N352 N 0.18046 0.01183 0.59285 0.0
N353 N 0.22311 0.05849 0.70227 0.0
C354 C 0.19655 0.03497 0.61881 0.0
C355 C 0.21673 0.05532 0.67501 0.0
N356 N 0.10349 0.05699 0.62192 0.0
N357 N 0.33265 0.07709 0.66914 0.0
H358 H 0.1895 0.06388 0.71497 0.0
H359 H 0.26033 0.0532 0.71238 0.0
H360 H 0.3727 0.08045 0.65767 0.0
H361 H 0.34712 0.09443 0.68882 0.0
H362 H 0.10129 0.06084 0.60124 0.0
H363 H 0.07246 0.07107 0.63203 0.0
H364 H 0.13266 0.99592 0.58422 0.0
H365 H 0.21205 1.00172 0.58075 0.0
C366 C 0.17006 0.16239 0.97285 0.0
C367 C 0.16095 0.19066 0.99699 0.0
C368 C 0.26216 0.30168 0.98742 0.0
C369 C 0.26669 0.2754 0.96195 0.0
N370 N 0.22404 0.18297 0.9293 0.0
N371 N 0.19607 0.28623 0.02766 0.0
C372 C 0.22061 0.20614 0.95441 0.0
C373 C 0.20672 0.26001 1.00447 0.0
N374 N 0.13068 0.09358 0.96776 0.0
N375 N 0.31153 0.36625 0.99539 0.0
H376 H 0.15922 0.25602 0.04155 0.0
H377 H 0.22157 0.3381 0.03277 0.0
H378 H 0.35158 0.39909 0.98312 0.0
H379 H 0.31576 0.38612 0.01469 0.0
H380 H 0.13853 0.06827 0.95178 0.0
H381 H 0.09312 0.06044 0.98084 0.0
H382 H 0.1875 0.13555 0.92133 0.0
H383 H 0.26166 0.21303 0.91562 0.0
C384 C 0.03558 0.18696 0.30368 0.0
C385 C 0.03193 0.19312 0.33191 0.0
C386 C 0.03974 0.30427 0.32654 0.0
C387 C 0.03387 0.29328 0.29834 0.0
N388 N 0.01435 0.21822 0.26023 0.0
N389 N 0.02047 0.25314 0.37017 0.0
C390 C 0.02859 0.23298 0.28693 0.0
C391 C 0.03172 0.2508 0.3434 0.0
N392 N 0.04848 0.13876 0.29284 0.0
N393 N 0.05463 0.36637 0.33718 0.0
H394 H 0.01327 0.21462 0.38313 0.0
H395 H 0.01227 0.29028 0.37911 0.0
H396 H 0.06137 0.40686 0.32545 0.0
H397 H 0.06647 0.37975 0.35734 0.0
H398 H 0.05841 0.13648 0.27261 0.0
H399 H 0.05683 0.1058 0.3044 0.0
H400 H 1.00253 0.17138 0.25144 0.0
H401 H 0.00797 0.25009 0.24724 0.0
loop_
_geom_bond_atom_site_label_1
_geom_bond_atom_site_label_2
_geom_bond_distance
_geom_bond_site_symmetry_2
_ccdc_geom_bond_type
Co0 O1 2.216 1_445 S
Co0 O2 2.091 1_545 S
Co0 O4 2.004 . S
Co0 O10 2.021 1_445 S
Co0 O12 2.137 . S
Co0 O13 2.244 1_455 S
O1 Co0 2.216 1_665 S
O1 C8 1.247 1_655 S
O2 Co0 2.091 1_565 S
O2 C8 1.261 . S
C3 O12 1.247 . S
C3 O13 1.272 1_455 S
O4 Co0 2.004 . S
O4 C9 1.259 . S
Co5 O6 2.061 1_655 S
Co5 O11 2.052 . S
Co5 O13 2.135 . S
O6 Co5 2.061 1_455 S
O6 C9 1.235 . S
C7 O10 1.238 . S
C7 O11 1.241 1_565 S
C8 O1 1.247 1_455 S
C8 O2 1.261 . S
C9 O4 1.259 . S
C9 O6 1.235 . S
O10 Co0 2.021 1_665 S
O10 C7 1.238 . S
O11 Co5 2.052 . S
O11 C7 1.241 1_545 S
O12 Co0 2.137 . S
O12 C3 1.247 . S
O13 Co0 2.244 1_655 S
O13 C3 1.272 1_655 S
O13 Co5 2.135 . S
Co14 O15 2.216 1_455 S
Co14 O16 2.091 . S
Co14 O18 2.004 . S
Co14 O24 2.021 1_455 S
Co14 O26 2.137 . S
Co14 O27 2.244 1_445 S
O15 Co14 2.216 1_655 S
O15 C22 1.247 1_655 S
O16 Co14 2.091 . S
O16 C22 1.261 . S
C17 O26 1.247 1_565 S
C17 O27 1.272 1_455 S
O18 Co14 2.004 . S
O18 C23 1.259 . S
Co19 O20 2.061 1_655 S
Co19 O25 2.052 . S
Co19 O27 2.135 . S
O20 Co19 2.061 1_455 S
O20 C23 1.235 1_565 S
C21 O24 1.238 . S
C21 O25 1.241 1_545 S
C22 O15 1.247 1_455 S
C22 O16 1.261 . S
C23 O18 1.259 . S
C23 O20 1.235 1_545 S
O24 Co14 2.021 1_655 S
O24 C21 1.238 . S
O25 Co19 2.052 . S
O25 C21 1.241 1_565 S
O26 Co14 2.137 . S
O26 C17 1.247 1_545 S
O27 Co14 2.244 1_665 S
O27 C17 1.272 1_655 S
O27 Co19 2.135 . S
Co28 O29 2.216 . S
Co28 O30 2.091 1_545 S
Co28 O32 2.004 1_445 S
Co28 O38 2.021 . S
Co28 O40 2.137 1_445 S
Co28 O41 2.244 1_455 S
O29 Co28 2.216 . S
O29 C36 1.247 . S
O30 Co28 2.091 1_565 S
O30 C36 1.261 1_565 S
C31 O40 1.247 1_545 S
C31 O41 1.272 . S
O32 Co28 2.004 1_665 S
O32 C37 1.259 . S
Co33 O34 2.061 1_545 S
Co33 O39 2.052 1_655 S
Co33 O41 2.135 . S
O34 Co33 2.061 1_565 S
O34 C37 1.235 . S
C35 O38 1.238 . S
C35 O39 1.241 . S
C36 O29 1.247 . S
C36 O30 1.261 1_545 S
C37 O32 1.259 . S
C37 O34 1.235 . S
O38 Co28 2.021 . S
O38 C35 1.238 . S
O39 Co33 2.052 1_455 S
O39 C35 1.241 . S
O40 Co28 2.137 1_665 S
O40 C31 1.247 1_565 S
O41 Co28 2.244 1_655 S
O41 C31 1.272 . S
O41 Co33 2.135 . S
H42 C61 0.949 . S
H43 C62 0.950 . S
H44 C64 0.950 . S
H45 C65 0.950 . S
H46 C67 0.950 . S
H47 C70 0.950 . S
H48 C71 0.950 . S
H49 C73 0.951 . S
H50 C74 0.949 . S
H51 C76 0.949 . S
H52 C77 0.950 . S
H53 C79 0.950 . S
H54 C80 0.950 . S
H55 C82 0.950 1_655 S
H56 C85 0.950 . S
H57 C86 0.950 . S
H58 C88 0.951 . S
H59 C89 0.949 . S
C60 C61 1.376 . S
C60 C65 1.386 1_455 S
C60 C66 1.483 . S
C61 H42 0.949 . S
C61 C60 1.376 . S
C61 C62 1.397 . S
C62 H43 0.950 . S
C62 C61 1.397 . S
C62 C63 1.391 . S
C63 C62 1.391 . S
C63 C64 1.405 1_455 S
C64 H44 0.950 . S
C64 C63 1.405 1_655 S
C64 C65 1.367 . S
C65 H45 0.950 . S
C65 C60 1.386 1_655 S
C65 C64 1.367 . S
C66 C60 1.483 . S
C66 C67 1.382 . S
C66 C68 1.403 . S
C67 H46 0.950 . S
C67 C66 1.382 . S
C67 C83 1.411 . S
C68 C66 1.403 . S
C68 C69 1.489 . S
C68 C82 1.411 . S
C69 C68 1.489 . S
C69 C70 1.383 . S
C69 C74 1.382 1_455 S
C70 H47 0.950 . S
C70 C69 1.383 . S
C70 C71 1.395 . S
C71 H48 0.950 . S
C71 C70 1.395 . S
C71 C72 1.288 . S
C72 C71 1.288 . S
C72 C73 1.392 1_455 S
C73 H49 0.951 . S
C73 C72 1.392 1_655 S
C73 C74 1.392 . S
C74 H50 0.949 . S
C74 C69 1.382 1_655 S
C74 C73 1.392 . S
C75 C76 1.376 1_455 S
C75 C80 1.386 . S
C75 C81 1.483 . S
C76 H51 0.949 . S
C76 C75 1.376 1_655 S
C76 C77 1.397 . S
C77 H52 0.950 . S
C77 C76 1.397 . S
C77 C78 1.391 1_655 S
C78 C77 1.391 1_455 S
C78 C79 1.405 . S
C79 H53 0.950 . S
C79 C78 1.405 . S
C79 C80 1.367 . S
C80 H54 0.950 . S
C80 C75 1.386 . S
C80 C79 1.367 . S
C81 C75 1.483 . S
C81 C82 1.382 . S
C81 C83 1.403 . S
C82 H55 0.950 1_455 S
C82 C68 1.411 . S
C82 C81 1.382 . S
C83 C67 1.411 . S
C83 C81 1.403 . S
C83 C84 1.489 . S
C84 C83 1.489 . S
C84 C85 1.383 1_455 S
C84 C89 1.382 . S
C85 H56 0.950 . S
C85 C84 1.383 1_655 S
C85 C86 1.395 . S
C86 H57 0.950 . S
C86 C85 1.395 . S
C86 C87 1.288 1_655 S
C87 C86 1.288 1_455 S
C87 C88 1.392 . S
C88 H58 0.951 . S
C88 C87 1.392 . S
C88 C89 1.392 . S
C89 H59 0.949 . S
C89 C84 1.382 . S
C89 C88 1.392 . S
H90 C109 0.949 . S
H91 C110 0.950 . S
H92 C112 0.950 . S
H93 C113 0.950 . S
H94 C115 0.950 . S
H95 C118 0.950 . S
H96 C119 0.950 . S
H97 C121 0.951 . S
H98 C122 0.949 . S
H99 C124 0.949 . S
H100 C125 0.950 . S
H101 C127 0.950 . S
H102 C128 0.950 . S
H103 C130 0.950 . S
H104 C133 0.950 . S
H105 C134 0.950 . S
H106 C136 0.951 . S
H107 C137 0.949 . S
C108 C109 1.376 . S
C108 C113 1.386 1_545 S
C108 C114 1.483 . S
C109 H90 0.949 . S
C109 C108 1.376 . S
C109 C110 1.397 . S
C110 H91 0.950 . S
C110 C109 1.397 . S
C110 C111 1.391 . S
C111 C110 1.391 . S
C111 C112 1.405 1_545 S
C112 H92 0.950 . S
C112 C111 1.405 1_565 S
C112 C113 1.367 . S
C113 H93 0.950 . S
C113 C108 1.386 1_565 S
C113 C112 1.367 . S
C114 C108 1.483 . S
C114 C115 1.382 . S
C114 C116 1.403 . S
C115 H94 0.950 . S
C115 C114 1.382 . S
C115 C131 1.411 . S
C116 C114 1.403 . S
C116 C117 1.489 . S
C116 C130 1.411 . S
C117 C116 1.489 . S
C117 C118 1.383 . S
C117 C122 1.382 1_545 S
C118 H95 0.950 . S
C118 C117 1.383 . S
C118 C119 1.395 . S
C119 H96 0.950 . S
C119 C118 1.395 . S
C119 C120 1.288 . S
C120 C119 1.288 . S
C120 C121 1.392 1_545 S
C121 H97 0.951 . S
C121 C120 1.392 1_565 S
C121 C122 1.392 . S
C122 H98 0.949 . S
C122 C117 1.382 1_565 S
C122 C121 1.392 . S
C123 C124 1.376 1_545 S
C123 C128 1.386 . S
C123 C129 1.483 . S
C124 H99 0.949 . S
C124 C123 1.376 1_565 S
C124 C125 1.397 . S
C125 H100 0.950 . S
C125 C124 1.397 . S
C125 C126 1.391 1_565 S
C126 C125 1.391 1_545 S
C126 C127 1.405 . S
C127 H101 0.950 . S
C127 C126 1.405 . S
C127 C128 1.367 . S
C128 H102 0.950 . S
C128 C123 1.386 . S
C128 C127 1.367 . S
C129 C123 1.483 . S
C129 C130 1.382 . S
C129 C131 1.403 . S
C130 H103 0.950 . S
C130 C116 1.411 . S
C130 C129 1.382 . S
C131 C115 1.411 . S
C131 C129 1.403 . S
C131 C132 1.489 . S
C132 C131 1.489 . S
C132 C133 1.383 1_545 S
C132 C137 1.382 . S
C133 H104 0.950 . S
C133 C132 1.383 1_565 S
C133 C134 1.395 . S
C134 H105 0.950 . S
C134 C133 1.395 . S
C134 C135 1.288 1_565 S
C135 C134 1.288 1_545 S
C135 C136 1.392 . S
C136 H106 0.951 . S
C136 C135 1.392 . S
C136 C137 1.392 . S
C137 H107 0.949 . S
C137 C132 1.382 . S
C137 C136 1.392 . S
H138 C157 0.949 . S
H139 C158 0.950 . S
H140 C160 0.950 . S
H141 C161 0.950 . S
H142 C163 0.950 . S
H143 C166 0.950 . S
H144 C167 0.950 . S
H145 C169 0.951 . S
H146 C170 0.949 . S
H147 C172 0.949 . S
H148 C173 0.950 . S
H149 C175 0.950 . S
H150 C176 0.950 . S
H151 C178 0.950 . S
H152 C181 0.950 . S
H153 C182 0.950 . S
H154 C184 0.951 . S
H155 C185 0.949 . S
C156 C157 1.376 . S
C156 C161 1.386 . S
C156 C162 1.483 . S
C157 H138 0.949 . S
C157 C156 1.376 . S
C157 C158 1.397 . S
C158 H139 0.950 . S
C158 C157 1.397 . S
C158 C159 1.391 . S
C159 C158 1.391 . S
C159 C160 1.405 . S
C160 H140 0.950 . S
C160 C159 1.405 . S
C160 C161 1.367 . S
C161 H141 0.950 . S
C161 C156 1.386 . S
C161 C160 1.367 . S
C162 C156 1.483 . S
C162 C163 1.382 . S
C162 C164 1.403 . S
C163 H142 0.950 . S
C163 C162 1.382 . S
C163 C179 1.411 . S
C164 C162 1.403 . S
C164 C165 1.489 . S
C164 C178 1.411 . S
C165 C164 1.489 . S
C165 C166 1.383 . S
C165 C170 1.382 . S
C166 H143 0.950 . S
C166 C165 1.383 . S
C166 C167 1.395 . S
C167 H144 0.950 . S
C167 C166 1.395 . S
C167 C168 1.288 . S
C168 C167 1.288 . S
C168 C169 1.392 . S
C169 H145 0.951 . S
C169 C168 1.392 . S
C169 C170 1.392 . S
C170 H146 0.949 . S
C170 C165 1.382 . S
C170 C169 1.392 . S
C171 C172 1.376 . S
C171 C176 1.386 . S
C171 C177 1.483 . S
C172 H147 0.949 . S
C172 C171 1.376 . S
C172 C173 1.397 . S
C173 H148 0.950 . S
C173 C172 1.397 . S
C173 C174 1.391 . S
C174 C173 1.391 . S
C174 C175 1.405 . S
C175 H149 0.950 . S
C175 C174 1.405 . S
C175 C176 1.367 . S
C176 H150 0.950 . S
C176 C171 1.386 . S
C176 C175 1.367 . S
C177 C171 1.483 . S
C177 C178 1.382 . S
C177 C179 1.403 . S
C178 H151 0.950 . S
C178 C164 1.411 . S
C178 C177 1.382 . S
C179 C163 1.411 . S
C179 C177 1.403 . S
C179 C180 1.489 . S
C180 C179 1.489 . S
C180 C181 1.383 . S
C180 C185 1.382 . S
C181 H152 0.950 . S
C181 C180 1.383 . S
C181 C182 1.395 . S
C182 H153 0.950 . S
C182 C181 1.395 . S
C182 C183 1.288 . S
C183 C182 1.288 . S
C183 C184 1.392 . S
C184 H154 0.951 . S
C184 C183 1.392 . S
C184 C185 1.392 . S
C185 H155 0.949 . S
C185 C180 1.382 . S
C185 C184 1.392 . S
C186 C187 1.363 . S
C186 C192 1.379 . S
C186 N194 1.356 . S
C187 C186 1.363 . S
C187 C193 1.363 1_455 S
C188 C189 1.363 1_655 S
C188 C193 1.379 . S
C188 N195 1.356 . S
C189 C188 1.363 1_455 S
C189 C192 1.363 . S
N190 C192 1.356 . S
N190 H202 0.984 . S
N190 H203 0.985 . S
N191 C193 1.356 . S
N191 H196 0.984 . S
N191 H197 0.985 . S
C192 C186 1.379 . S
C192 C189 1.363 . S
C192 N190 1.356 . S
C193 C187 1.363 1_655 S
C193 C188 1.379 . S
C193 N191 1.356 . S
N194 C186 1.356 . S
N194 H200 0.984 . S
N194 H201 0.984 . S
N195 C188 1.356 . S
N195 H198 0.984 . S
N195 H199 0.985 . S
H196 N191 0.984 . S
H197 N191 0.985 . S
H198 N195 0.984 . S
H199 N195 0.985 . S
H200 N194 0.984 . S
H201 N194 0.984 . S
H202 N190 0.984 . S
H203 N190 0.985 . S
C204 C205 1.363 . S
C204 C210 1.379 . S
C204 N212 1.356 . S
C205 C204 1.363 . S
C205 C211 1.363 1_545 S
C206 C207 1.363 1_565 S
C206 C211 1.379 . S
C206 N213 1.356 . S
C207 C206 1.363 1_545 S
C207 C210 1.363 . S
N208 C210 1.356 . S
N208 H220 0.984 . S
N208 H221 0.985 . S
N209 C211 1.356 . S
N209 H214 0.984 . S
N209 H215 0.985 . S
C210 C204 1.379 . S
C210 C207 1.363 . S
C210 N208 1.356 . S
C211 C205 1.363 1_565 S
C211 C206 1.379 . S
C211 N209 1.356 . S
N212 C204 1.356 . S
N212 H218 0.984 . S
N212 H219 0.984 . S
N213 C206 1.356 . S
N213 H216 0.984 . S
N213 H217 0.985 . S
H214 N209 0.984 . S
H215 N209 0.985 . S
H216 N213 0.984 . S
H217 N213 0.985 . S
H218 N212 0.984 . S
H219 N212 0.984 . S
H220 N208 0.984 . S
H221 N208 0.985 . S
C222 C223 1.363 . S
C222 C228 1.379 . S
C222 N230 1.356 . S
C223 C222 1.363 . S
C223 C229 1.363 . S
C224 C225 1.363 . S
C224 C229 1.379 . S
C224 N231 1.356 . S
C225 C224 1.363 . S
C225 C228 1.363 . S
N226 C228 1.356 . S
N226 H238 0.984 . S
N226 H239 0.985 . S
N227 C229 1.356 . S
N227 H232 0.984 . S
N227 H233 0.985 . S
C228 C222 1.379 . S
C228 C225 1.363 . S
C228 N226 1.356 . S
C229 C223 1.363 . S
C229 C224 1.379 . S
C229 N227 1.356 . S
N230 C222 1.356 . S
N230 H236 0.984 . S
N230 H237 0.984 . S
N231 C224 1.356 . S
N231 H234 0.984 . S
N231 H235 0.985 . S
H232 N227 0.984 . S
H233 N227 0.985 . S
H234 N231 0.984 . S
H235 N231 0.985 . S
H236 N230 0.984 . S
H237 N230 0.984 . S
H238 N226 0.984 . S
H239 N226 0.985 . S
C240 C241 1.363 1_655 S
C240 C246 1.379 . S
C240 N248 1.356 . S
C241 C240 1.363 1_455 S
C241 C247 1.363 . S
C242 C243 1.363 . S
C242 C247 1.379 . S
C242 N249 1.356 . S
C243 C242 1.363 . S
C243 C246 1.363 1_455 S
N244 C246 1.356 . S
N244 H256 0.984 . S
N244 H257 0.985 . S
N245 C247 1.356 . S
N245 H250 0.984 . S
N245 H251 0.985 . S
C246 C240 1.379 . S
C246 C243 1.363 1_655 S
C246 N244 1.356 . S
C247 C241 1.363 . S
C247 C242 1.379 . S
C247 N245 1.356 . S
N248 C240 1.356 . S
N248 H254 0.984 . S
N248 H255 0.984 . S
N249 C242 1.356 . S
N249 H252 0.984 . S
N249 H253 0.985 . S
H250 N245 0.984 . S
H251 N245 0.985 . S
H252 N249 0.984 . S
H253 N249 0.985 . S
H254 N248 0.984 . S
H255 N248 0.984 . S
H256 N244 0.984 . S
H257 N244 0.985 . S
C258 C259 1.363 1_565 S
C258 C264 1.379 . S
C258 N266 1.356 . S
C259 C258 1.363 1_545 S
C259 C265 1.363 . S
C260 C261 1.363 . S
C260 C265 1.379 . S
C260 N267 1.356 . S
C261 C260 1.363 . S
C261 C264 1.363 1_545 S
N262 C264 1.356 . S
N262 H274 0.984 . S
N262 H275 0.985 . S
N263 C265 1.356 . S
N263 H268 0.984 . S
N263 H269 0.985 . S
C264 C258 1.379 . S
C264 C261 1.363 1_565 S
C264 N262 1.356 . S
C265 C259 1.363 . S
C265 C260 1.379 . S
C265 N263 1.356 . S
N266 C258 1.356 . S
N266 H272 0.984 . S
N266 H273 0.984 . S
N267 C260 1.356 . S
N267 H270 0.984 . S
N267 H271 0.985 . S
H268 N263 0.984 . S
H269 N263 0.985 . S
H270 N267 0.984 . S
H271 N267 0.985 . S
H272 N266 0.984 . S
H273 N266 0.984 . S
H274 N262 0.984 . S
H275 N262 0.985 . S
C276 C277 1.363 . S
C276 C282 1.379 . S
C276 N284 1.356 . S
C277 C276 1.363 . S
C277 C283 1.363 . S
C278 C279 1.363 . S
C278 C283 1.379 . S
C278 N285 1.356 . S
C279 C278 1.363 . S
C279 C282 1.363 . S
N280 C282 1.356 . S
N280 H292 0.984 . S
N280 H293 0.985 . S
N281 C283 1.356 . S
N281 H286 0.984 . S
N281 H287 0.985 . S
C282 C276 1.379 . S
C282 C279 1.363 . S
C282 N280 1.356 . S
C283 C277 1.363 . S
C283 C278 1.379 . S
C283 N281 1.356 . S
N284 C276 1.356 . S
N284 H290 0.984 . S
N284 H291 0.984 . S
N285 C278 1.356 . S
N285 H288 0.984 . S
N285 H289 0.985 . S
H286 N281 0.984 . S
H287 N281 0.985 . S
H288 N285 0.984 . S
H289 N285 0.985 . S
H290 N284 0.984 . S
H291 N284 0.984 . S
H292 N280 0.984 . S
H293 N280 0.985 . S
C294 C295 1.363 . S
C294 C300 1.379 . S
C294 N302 1.356 . S
C295 C294 1.363 . S
C295 C301 1.363 1_545 S
C296 C297 1.363 1_565 S
C296 C301 1.379 . S
C296 N303 1.356 . S
C297 C296 1.363 1_545 S
C297 C300 1.363 . S
N298 C300 1.356 . S
N298 H310 0.984 . S
N298 H311 0.985 . S
N299 C301 1.356 . S
N299 H304 0.984 . S
N299 H305 0.985 . S
C300 C294 1.379 . S
C300 C297 1.363 . S
C300 N298 1.356 . S
C301 C295 1.363 1_565 S
C301 C296 1.379 . S
C301 N299 1.356 . S
N302 C294 1.356 . S
N302 H308 0.984 . S
N302 H309 0.984 . S
N303 C296 1.356 . S
N303 H306 0.984 . S
N303 H307 0.985 . S
H304 N299 0.984 . S
H305 N299 0.985 . S
H306 N303 0.984 . S
H307 N303 0.985 . S
H308 N302 0.984 . S
H309 N302 0.984 . S
H310 N298 0.984 . S
H311 N298 0.985 . S
C312 C313 1.363 . S
C312 C318 1.379 . S
C312 N320 1.356 . S
C313 C312 1.363 . S
C313 C319 1.357 1_556 S
C314 C315 1.363 . S
C314 C319 1.368 1_556 S
C314 N321 1.356 . S
C315 C314 1.363 . S
C315 C318 1.363 . S
N316 C318 1.356 . S
N316 H328 0.984 . S
N316 H329 0.985 . S
N317 C319 1.374 . S
N317 H322 0.984 . S
N317 H323 0.985 . S
C318 C312 1.379 . S
C318 C315 1.363 . S
C318 N316 1.356 . S
C319 C313 1.357 1_554 S
C319 C314 1.368 1_554 S
C319 N317 1.374 . S
N320 C312 1.356 . S
N320 H326 0.984 . S
N320 H327 0.984 . S
N321 C314 1.356 . S
N321 H324 0.984 . S
N321 H325 0.985 1_556 S
H322 N317 0.984 . S
H323 N317 0.985 . S
H324 N321 0.984 . S
H325 N321 0.985 1_554 S
H326 N320 0.984 . S
H327 N320 0.984 . S
H328 N316 0.984 . S
H329 N316 0.985 . S
C330 C331 1.363 . S
C330 C336 1.379 . S
C330 N338 1.356 1_455 S
C331 C330 1.363 . S
C331 C337 1.363 . S
C332 C333 1.363 . S
C332 C337 1.379 . S
C332 N339 1.356 . S
C333 C332 1.363 . S
C333 C336 1.363 . S
N334 C336 1.356 1_655 S
N334 H346 0.984 . S
N334 H347 0.985 . S
N335 C337 1.356 . S
N335 H340 0.984 . S
N335 H341 0.985 . S
C336 C330 1.379 . S
C336 C333 1.363 . S
C336 N334 1.356 1_455 S
C337 C331 1.363 . S
C337 C332 1.379 . S
C337 N335 1.356 . S
N338 C330 1.356 1_655 S
N338 H344 0.984 . S
N338 H345 0.984 . S
N339 C332 1.356 . S
N339 H342 0.984 . S
N339 H343 0.985 . S
H340 N335 0.984 . S
H341 N335 0.985 . S
H342 N339 0.984 . S
H343 N339 0.985 . S
H344 N338 0.984 . S
H345 N338 0.984 . S
H346 N334 0.984 . S
H347 N334 0.985 . S
C348 C349 1.363 . S
C348 C354 1.379 . S
C348 N356 1.356 . S
C349 C348 1.363 . S
C349 C355 1.363 1_545 S
C350 C351 1.363 1_565 S
C350 C355 1.379 . S
C350 N357 1.356 . S
C351 C350 1.363 1_545 S
C351 C354 1.363 . S
N352 C354 1.356 . S
N352 H364 0.984 . S
N352 H365 0.985 . S
N353 C355 1.356 . S
N353 H358 0.984 . S
N353 H359 0.985 . S
C354 C348 1.379 . S
C354 C351 1.363 . S
C354 N352 1.356 . S
C355 C349 1.363 1_565 S
C355 C350 1.379 . S
C355 N353 1.356 . S
N356 C348 1.356 . S
N356 H362 0.984 . S
N356 H363 0.984 . S
N357 C350 1.356 . S
N357 H360 0.984 . S
N357 H361 0.985 . S
H358 N353 0.984 . S
H359 N353 0.985 . S
H360 N357 0.984 . S
H361 N357 0.985 . S
H362 N356 0.984 . S
H363 N356 0.984 . S
H364 N352 0.984 . S
H365 N352 0.985 . S
C366 C367 1.363 . S
C366 C372 1.379 . S
C366 N374 1.356 . S
C367 C366 1.363 . S
C367 C373 1.363 . S
C368 C369 1.363 . S
C368 C373 1.379 . S
C368 N375 1.356 . S
C369 C368 1.363 . S
C369 C372 1.363 . S
N370 C372 1.356 . S
N370 H382 0.984 . S
N370 H383 0.985 . S
N371 C373 1.356 1_554 S
N371 H376 0.984 . S
N371 H377 0.985 . S
C372 C366 1.379 . S
C372 C369 1.363 . S
C372 N370 1.356 . S
C373 C367 1.363 . S
C373 C368 1.379 . S
C373 N371 1.356 1_556 S
N374 C366 1.356 . S
N374 H380 0.984 . S
N374 H381 0.984 . S
N375 C368 1.356 . S
N375 H378 0.984 . S
N375 H379 0.985 . S
H376 N371 0.984 . S
H377 N371 0.985 . S
H378 N375 0.984 . S
H379 N375 0.985 . S
H380 N374 0.984 . S
H381 N374 0.984 . S
H382 N370 0.984 . S
H383 N370 0.985 . S
C384 C385 1.363 . S
C384 C390 1.379 . S
C384 N392 1.356 . S
C385 C384 1.363 . S
C385 C391 1.363 . S
C386 C387 1.359 1_655 S
C386 C391 1.372 1_655 S
C386 N393 1.367 . S
C387 C386 1.359 1_455 S
C387 C390 1.363 . S
N388 C390 1.356 . S
N388 H400 0.984 . S
N388 H401 0.985 . S
N389 C391 1.356 1_655 S
N389 H394 0.984 . S
N389 H395 0.985 . S
C390 C384 1.379 . S
C390 C387 1.363 . S
C390 N388 1.356 . S
C391 C385 1.363 . S
C391 C386 1.372 1_455 S
C391 N389 1.356 1_455 S
N392 C384 1.356 . S
N392 H398 0.984 . S
N392 H399 0.984 . S
N393 C386 1.367 . S
N393 H396 0.984 . S
N393 H397 0.985 . S
H394 N389 0.984 . S
H395 N389 0.985 . S
H396 N393 0.984 . S
H397 N393 0.985 . S
H398 N392 0.984 . S
H399 N392 0.984 . S
H400 N388 0.984 . S
H401 N388 0.985 . S
C189 C63 1.510 . S
C187 C3 1.508 . S
C205 C21 1.521 . S
C207 C111 1.542 . S
C223 C37 1.500 . S
C225 C183 1.512 . S
C241 C8 1.517 . S
C243 C87 1.506 . S
C261 C135 1.519 . S
C259 C23 1.504 . S
C277 C35 1.500 . S
C279 C159 1.524 . S
C297 C120 1.501 . S
C295 C31 1.501 . S
C313 C7 1.501 1_556 S
C315 C174 1.527 . S
C333 C78 1.512 . S
C331 C17 1.508 . S
C351 C126 1.494 . S
C349 C36 1.495 . S
C369 C168 1.528 . S
C367 C9 1.501 1_556 S
C385 C22 1.517 . S
C387 C72 1.514 . S
