# Generated by pormake.
# Topology pyr, (3,6)-cn, num edge types: 1
# Building blocks:
#     Node 0, Type 0, BuildingBlock: KAKCAD_clean_linker_0, # of connection points: 3
#     Node 1, Type 0, BuildingBlock: KAKCAD_clean_linker_0, # of connection points: 3
#     Node 2, Type 0, BuildingBlock: KAKCAD_clean_linker_0, # of connection points: 3
#     Node 3, Type 0, BuildingBlock: KAKCAD_clean_linker_0, # of connection points: 3
#     Node 4, Type 0, BuildingBlock: KAKCAD_clean_linker_0, # of connection points: 3
#     Node 5, Type 0, BuildingBlock: KAKCAD_clean_linker_0, # of connection points: 3
#     Node 6, Type 0, BuildingBlock: KAKCAD_clean_linker_0, # of connection points: 3
#     Node 7, Type 0, BuildingBlock: KAKCAD_clean_linker_0, # of connection points: 3
#     Node 8, Type 1, BuildingBlock: PAMTOO_clean_sbu_0, # of connection points: 6
#     Node 9, Type 1, BuildingBlock: PAMTOO_clean_sbu_0, # of connection points: 6
#     Node 10, Type 1, BuildingBlock: PAMTOO_clean_sbu_0, # of connection points: 6
#     Node 11, Type 1, BuildingBlock: PAMTOO_clean_sbu_0, # of connection points: 6
#     Edge 12, Type (0, 1), BuildingBlock: OJICUG_clean_linker_0, # of connection points: 2
#     Edge 13, Type (0, 1), BuildingBlock: OJICUG_clean_linker_0, # of connection points: 2
#     Edge 14, Type (0, 1), BuildingBlock: OJICUG_clean_linker_0, # of connection points: 2
#     Edge 15, Type (0, 1), BuildingBlock: OJICUG_clean_linker_0, # of connection points: 2
#     Edge 16, Type (0, 1), BuildingBlock: OJICUG_clean_linker_0, # of connection points: 2
#     Edge 17, Type (0, 1), BuildingBlock: OJICUG_clean_linker_0, # of connection points: 2
#     Edge 18, Type (0, 1), BuildingBlock: OJICUG_clean_linker_0, # of connection points: 2
#     Edge 19, Type (0, 1), BuildingBlock: OJICUG_clean_linker_0, # of connection points: 2
#     Edge 20, Type (0, 1), BuildingBlock: OJICUG_clean_linker_0, # of connection points: 2
#     Edge 21, Type (0, 1), BuildingBlock: OJICUG_clean_linker_0, # of connection points: 2
#     Edge 22, Type (0, 1), BuildingBlock: OJICUG_clean_linker_0, # of connection points: 2
#     Edge 23, Type (0, 1), BuildingBlock: OJICUG_clean_linker_0, # of connection points: 2
#     Edge 24, Type (0, 1), BuildingBlock: OJICUG_clean_linker_0, # of connection points: 2
#     Edge 25, Type (0, 1), BuildingBlock: OJICUG_clean_linker_0, # of connection points: 2
#     Edge 26, Type (0, 1), BuildingBlock: OJICUG_clean_linker_0, # of connection points: 2
#     Edge 27, Type (0, 1), BuildingBlock: OJICUG_clean_linker_0, # of connection points: 2
#     Edge 28, Type (0, 1), BuildingBlock: OJICUG_clean_linker_0, # of connection points: 2
#     Edge 29, Type (0, 1), BuildingBlock: OJICUG_clean_linker_0, # of connection points: 2
#     Edge 30, Type (0, 1), BuildingBlock: OJICUG_clean_linker_0, # of connection points: 2
#     Edge 31, Type (0, 1), BuildingBlock: OJICUG_clean_linker_0, # of connection points: 2
#     Edge 32, Type (0, 1), BuildingBlock: OJICUG_clean_linker_0, # of connection points: 2
#     Edge 33, Type (0, 1), BuildingBlock: OJICUG_clean_linker_0, # of connection points: 2
#     Edge 34, Type (0, 1), BuildingBlock: OJICUG_clean_linker_0, # of connection points: 2
#     Edge 35, Type (0, 1), BuildingBlock: OJICUG_clean_linker_0, # of connection points: 2
# Relax obj value: 0.126
# Max RMSD: 0.174
# Mean RMSD: 0.072
data_MOF--net-pyr--node1-PAMTOO_clean_sbu_0--node2-KAKCAD_clean_linker_0--edge1-OJICUG_clean_linker_0
_symmetry_space_group_name_H-M    P1
_symmetry_Int_Tables_number       1
_symmetry_cell_setting            triclinic
loop_
_symmetry_equiv_pos_as_xyz
'x, y, z'
_cell_length_a     35.629618
_cell_length_b     37.425132
_cell_length_c     36.365274
_cell_angle_alpha  90.164135
_cell_angle_beta   89.824608
_cell_angle_gamma 104.13019
loop_
_atom_site_label
_atom_site_type_symbol
_atom_site_fract_x
_atom_site_fract_y
_atom_site_fract_z
_atom_type_partial_charge
C0 C 0.29342 0.26734 0.37383 0.0
C1 C 0.31825 0.25279 0.39586 0.0
C2 C 0.30597 0.28338 0.34013 0.0
C3 C 0.3441 0.28616 0.32775 0.0
C4 C 0.3699 0.27418 0.3513 0.0
C5 C 0.35693 0.2572 0.38485 0.0
C6 C 0.35453 0.29671 0.28876 0.0
C7 C 0.33516 0.3196 0.27001 0.0
C8 C 0.33461 0.32047 0.23152 0.0
C9 C 0.35818 0.30239 0.21149 0.0
C10 C 0.38006 0.28126 0.22977 0.0
C11 C 0.37785 0.27844 0.26835 0.0
C12 C 0.40012 0.25722 0.20878 0.0
C13 C 0.38163 0.2364 0.17885 0.0
C14 C 0.43605 0.2522 0.22057 0.0
C15 C 0.45237 0.22588 0.20371 0.0
C16 C 0.43296 0.20395 0.17487 0.0
C17 C 0.30325 0.33319 0.2131 0.0
C18 C 0.26499 0.31916 0.22514 0.0
C19 C 0.31041 0.35789 0.18345 0.0
C20 C 0.27968 0.36905 0.16678 0.0
C21 C 0.24142 0.35495 0.17908 0.0
C22 C 0.23449 0.32984 0.20833 0.0
C23 C 0.39789 0.21013 0.16208 0.0
H24 H 0.26323 0.26367 0.38122 0.0
H25 H 0.28456 0.29105 0.32286 0.0
H26 H 0.39963 0.27642 0.34317 0.0
H27 H 0.37665 0.24622 0.40149 0.0
H28 H 0.31739 0.33436 0.28511 0.0
H29 H 0.39156 0.25927 0.28196 0.0
H30 H 0.35743 0.30276 0.18171 0.0
H31 H 0.35371 0.23916 0.16935 0.0
H32 H 0.45105 0.26799 0.24346 0.0
H33 H 0.47939 0.22171 0.21421 0.0
H34 H 0.25856 0.29956 0.24755 0.0
H35 H 0.33966 0.36883 0.17356 0.0
H36 H 0.38255 0.19407 0.13951 0.0
H37 H 0.20542 0.31886 0.21868 0.0
H38 H 0.28571 0.3884 0.14417 0.0
C39 C 0.15574 0.81502 0.89423 0.0
C40 C 0.19386 0.8175 0.90587 0.0
C41 C 0.142 0.79641 0.86161 0.0
C42 C 0.16652 0.78082 0.83956 0.0
C43 C 0.20379 0.78144 0.8529 0.0
C44 C 0.21704 0.79914 0.88571 0.0
C45 C 0.15634 0.7691 0.80076 0.0
C46 C 0.1354 0.78836 0.77888 0.0
C47 C 0.13458 0.78459 0.74035 0.0
C48 C 0.15607 0.76201 0.72357 0.0
C49 C 0.17726 0.7428 0.74508 0.0
C50 C 0.17431 0.74406 0.7835 0.0
C51 C 0.20847 0.72789 0.72852 0.0
C52 C 0.20321 0.70735 0.69569 0.0
C53 C 0.24518 0.73642 0.74514 0.0
C54 C 0.27564 0.7242 0.72996 0.0
C55 C 0.27047 0.70316 0.69757 0.0
C56 C 0.11619 0.80878 0.71798 0.0
C57 C 0.08036 0.81517 0.72853 0.0
C58 C 0.13599 0.82828 0.68791 0.0
C59 C 0.12111 0.85463 0.6698 0.0
C60 C 0.08617 0.86222 0.68139 0.0
C61 C 0.06547 0.84158 0.7104 0.0
C62 C 0.23402 0.69502 0.68033 0.0
H63 H 0.13722 0.82884 0.90947 0.0
H64 H 0.11286 0.79585 0.85285 0.0
H65 H 0.22431 0.77086 0.83684 0.0
H66 H 0.24679 0.80112 0.89358 0.0
H67 H 0.12252 0.80886 0.79132 0.0
H68 H 0.18954 0.72802 0.7999 0.0
H69 H 0.15822 0.76117 0.69387 0.0
H70 H 0.17535 0.70065 0.68211 0.0
H71 H 0.25075 0.75338 0.76966 0.0
H72 H 0.30359 0.73189 0.74334 0.0
H73 H 0.06433 0.80037 0.75146 0.0
H74 H 0.16386 0.82442 0.67931 0.0
H75 H 0.22924 0.67885 0.65528 0.0
H76 H 0.03853 0.84685 0.72005 0.0
H77 H 0.13743 0.86964 0.64714 0.0
C78 C 0.76292 0.46446 0.93418 0.0
C79 C 0.79202 0.44607 0.94243 0.0
C80 C 0.7303 0.44704 0.91347 0.0
C81 C 0.72579 0.41071 0.90078 0.0
C82 C 0.75529 0.39274 0.90813 0.0
C83 C 0.78795 0.41019 0.92842 0.0
C84 C 0.68961 0.39052 0.88191 0.0
C85 C 0.67358 0.40639 0.85265 0.0
C86 C 0.63952 0.38683 0.83469 0.0
C87 C 0.62114 0.35103 0.84739 0.0
C88 C 0.63695 0.33479 0.87665 0.0
C89 C 0.67112 0.35478 0.89341 0.0
C90 C 0.61851 0.29704 0.89061 0.0
C91 C 0.57996 0.28774 0.90302 0.0
C92 C 0.64094 0.27125 0.89518 0.0
C93 C 0.62578 0.2376 0.91285 0.0
C94 C 0.58782 0.22882 0.92712 0.0
C95 C 0.62399 0.40367 0.80231 0.0
C96 C 0.6254 0.44162 0.80152 0.0
C97 C 0.60879 0.38233 0.77134 0.0
C98 C 0.59586 0.39849 0.7405 0.0
C99 C 0.59756 0.43652 0.73963 0.0
C100 C 0.61244 0.45775 0.77076 0.0
C101 C 0.56484 0.25414 0.92122 0.0
H102 H 0.76471 0.49195 0.9446 0.0
H103 H 0.70795 0.46153 0.90848 0.0
H104 H 0.75301 0.36496 0.89825 0.0
H105 H 0.81008 0.39539 0.93309 0.0
H106 H 0.68851 0.43355 0.84312 0.0
H107 H 0.68297 0.34265 0.91633 0.0
H108 H 0.59472 0.33569 0.83448 0.0
H109 H 0.56208 0.3072 0.90024 0.0
H110 H 0.67066 0.27747 0.88562 0.0
H111 H 0.64418 0.21864 0.91569 0.0
H112 H 0.63645 0.45904 0.82484 0.0
H113 H 0.60753 0.35314 0.77058 0.0
H114 H 0.53563 0.24877 0.93192 0.0
H115 H 0.61468 0.48712 0.77124 0.0
H116 H 0.58421 0.38102 0.7174 0.0
C117 C 0.89568 0.61006 0.27468 0.0
C118 C 0.91518 0.63123 0.24525 0.0
C119 C 0.88445 0.62686 0.30604 0.0
C120 C 0.89147 0.66554 0.30899 0.0
C121 C 0.91126 0.68676 0.27974 0.0
C122 C 0.92315 0.66995 0.24864 0.0
C123 C 0.87718 0.68339 0.34178 0.0
C124 C 0.84263 0.66526 0.36002 0.0
C125 C 0.82859 0.68126 0.3906 0.0
C126 C 0.84862 0.71653 0.40216 0.0
C127 C 0.88268 0.73558 0.38453 0.0
C128 C 0.89727 0.71864 0.35482 0.0
C129 C 0.90203 0.77332 0.39785 0.0
C130 C 0.88066 0.80017 0.40094 0.0
C131 C 0.94012 0.78163 0.41126 0.0
C132 C 0.95578 0.81544 0.42897 0.0
C133 C 0.93384 0.84193 0.43335 0.0
C134 C 0.79294 0.6615 0.41073 0.0
C135 C 0.75966 0.64271 0.39166 0.0
C136 C 0.79168 0.66217 0.44942 0.0
C137 C 0.75795 0.64498 0.46852 0.0
C138 C 0.72443 0.62662 0.4495 0.0
C139 C 0.72584 0.62557 0.41078 0.0
C140 C 0.8964 0.83403 0.41811 0.0
H141 H 0.88838 0.58028 0.2735 0.0
H142 H 0.87019 0.6092 0.32802 0.0
H143 H 0.91708 0.71652 0.28036 0.0
H144 H 0.93881 0.68763 0.22732 0.0
H145 H 0.82639 0.63854 0.35053 0.0
H146 H 0.92402 0.73317 0.34184 0.0
H147 H 0.83753 0.72946 0.42511 0.0
H148 H 0.85129 0.79462 0.39065 0.0
H149 H 0.95711 0.7613 0.40962 0.0
H150 H 0.98454 0.82009 0.4405 0.0
H151 H 0.75941 0.64202 0.36188 0.0
H152 H 0.81697 0.67585 0.46505 0.0
H153 H 0.87882 0.85384 0.41979 0.0
H154 H 0.7005 0.61219 0.39509 0.0
H155 H 0.75831 0.64582 0.49829 0.0
C156 C 0.69695 0.77855 0.72368 0.0
C157 C 0.69886 0.81477 0.71222 0.0
C158 C 0.67916 0.7656 0.75708 0.0
C159 C 0.66378 0.78895 0.78002 0.0
C160 C 0.66318 0.82416 0.76687 0.0
C161 C 0.68018 0.83673 0.73333 0.0
C162 C 0.65404 0.77952 0.81933 0.0
C163 C 0.67681 0.76108 0.8399 0.0
C164 C 0.67439 0.75951 0.8785 0.0
C165 C 0.6489 0.77706 0.89674 0.0
C166 C 0.62576 0.79546 0.87652 0.0
C167 C 0.62712 0.79484 0.83796 0.0
C168 C 0.60558 0.82089 0.89495 0.0
C169 C 0.58103 0.8099 0.92532 0.0
C170 C 0.61258 0.85752 0.88266 0.0
C171 C 0.59616 0.88286 0.90072 0.0
C172 C 0.57203 0.87211 0.93125 0.0
C173 C 0.70265 0.74384 0.89902 0.0
C174 C 0.71089 0.71081 0.8871 0.0
C175 C 0.72498 0.7639 0.9275 0.0
C176 C 0.75632 0.75228 0.94216 0.0
C177 C 0.76595 0.72043 0.92856 0.0
C178 C 0.74215 0.69925 0.90168 0.0
C179 C 0.56401 0.83532 0.94316 0.0
H180 H 0.7109 0.76095 0.70773 0.0
H181 H 0.67934 0.738 0.7658 0.0
H182 H 0.65246 0.84348 0.78363 0.0
H183 H 0.68166 0.86498 0.7256 0.0
H184 H 0.69899 0.75059 0.82625 0.0
H185 H 0.60895 0.80882 0.8226 0.0
H186 H 0.64856 0.77807 0.92652 0.0
H187 H 0.57528 0.78185 0.93534 0.0
H188 H 0.63185 0.86696 0.85968 0.0
H189 H 0.60291 0.91116 0.89126 0.0
H190 H 0.6939 0.69455 0.8655 0.0
H191 H 0.71966 0.78968 0.93698 0.0
H192 H 0.54577 0.82666 0.96699 0.0
H193 H 0.74827 0.67414 0.89122 0.0
H194 H 0.77419 0.76928 0.96274 0.0
C195 C 0.85736 0.23151 0.24783 0.0
C196 C 0.82761 0.24303 0.22978 0.0
C197 C 0.87343 0.24881 0.28002 0.0
C198 C 0.86151 0.27938 0.29433 0.0
C199 C 0.83669 0.29464 0.27248 0.0
C200 C 0.81927 0.27624 0.24101 0.0
C201 C 0.86928 0.2905 0.33388 0.0
C202 C 0.89861 0.27968 0.35355 0.0
C203 C 0.89768 0.2775 0.39215 0.0
C204 C 0.8706 0.29216 0.41156 0.0
C205 C 0.84397 0.30732 0.39249 0.0
C206 C 0.84294 0.30559 0.35393 0.0
C207 C 0.81409 0.32159 0.41211 0.0
C208 C 0.78938 0.29974 0.43794 0.0
C209 C 0.80755 0.35576 0.40208 0.0
C210 C 0.77618 0.36738 0.41659 0.0
C211 C 0.75037 0.34487 0.44117 0.0
C212 C 0.92095 0.25498 0.41119 0.0
C213 C 0.9255 0.22214 0.39474 0.0
C214 C 0.93622 0.26413 0.44655 0.0
C215 C 0.9545 0.24044 0.46533 0.0
C216 C 0.95804 0.20723 0.44906 0.0
C217 C 0.94396 0.19876 0.41331 0.0
C218 C 0.75762 0.31118 0.45217 0.0
H219 H 0.86606 0.20709 0.23886 0.0
H220 H 0.89266 0.23574 0.29481 0.0
H221 H 0.82841 0.31941 0.28079 0.0
H222 H 0.79716 0.28663 0.22736 0.0
H223 H 0.92097 0.27039 0.33895 0.0
H224 H 0.81946 0.31369 0.34018 0.0
H225 H 0.86919 0.29064 0.4413 0.0
H226 H 0.7936 0.27311 0.44584 0.0
H227 H 0.82617 0.37306 0.38215 0.0
H228 H 0.7712 0.39331 0.40732 0.0
H229 H 0.91326 0.21348 0.36801 0.0
H230 H 0.93356 0.28928 0.45993 0.0
H231 H 0.73837 0.2934 0.47128 0.0
H232 H 0.94547 0.17307 0.40029 0.0
H233 H 0.96535 0.24782 0.49281 0.0
C234 C 0.22286 0.62469 0.20113 0.0
C235 C 0.22189 0.62593 0.16237 0.0
C236 C 0.25738 0.63882 0.22044 0.0
C237 C 0.29188 0.65467 0.20154 0.0
C238 C 0.29105 0.65515 0.16279 0.0
C239 C 0.2566 0.6411 0.14352 0.0
C240 C 0.32817 0.67268 0.22178 0.0
C241 C 0.34039 0.65676 0.25329 0.0
C242 C 0.37522 0.67391 0.2717 0.0
C243 C 0.39716 0.70826 0.25811 0.0
C244 C 0.38503 0.72463 0.22682 0.0
C245 C 0.35063 0.70658 0.20922 0.0
C246 C 0.40743 0.76057 0.21145 0.0
C247 C 0.41787 0.79248 0.23338 0.0
C248 C 0.41423 0.76396 0.17336 0.0
C249 C 0.42882 0.79846 0.15725 0.0
C250 C 0.43701 0.83078 0.17868 0.0
C251 C 0.38867 0.65573 0.30463 0.0
C252 C 0.38019 0.617 0.30799 0.0
C253 C 0.41016 0.67677 0.33315 0.0
C254 C 0.42269 0.65983 0.36367 0.0
C255 C 0.41374 0.6211 0.36729 0.0
C256 C 0.39219 0.60006 0.33879 0.0
C257 C 0.43251 0.82726 0.21715 0.0
H258 H 0.19667 0.61358 0.21668 0.0
H259 H 0.25676 0.63836 0.25021 0.0
H260 H 0.31718 0.66653 0.14723 0.0
H261 H 0.25728 0.64187 0.11376 0.0
H262 H 0.32265 0.63089 0.2633 0.0
H263 H 0.34076 0.71964 0.1858 0.0
H264 H 0.42425 0.72188 0.27098 0.0
H265 H 0.41276 0.79081 0.26277 0.0
H266 H 0.40701 0.73987 0.15574 0.0
H267 H 0.43288 0.79985 0.12771 0.0
H268 H 0.36449 0.59941 0.28661 0.0
H269 H 0.41712 0.70656 0.3323 0.0
H270 H 0.43851 0.85151 0.23455 0.0
H271 H 0.38405 0.57029 0.34025 0.0
H272 H 0.43982 0.67741 0.38426 0.0
C273 C 0.13639 0.23949 0.711 0.0
C274 C 0.09721 0.22775 0.70102 0.0
C275 C 0.15091 0.27403 0.72714 0.0
C276 C 0.12679 0.29806 0.73376 0.0
C277 C 0.08708 0.28559 0.72587 0.0
C278 C 0.07243 0.25077 0.70966 0.0
C279 C 0.14427 0.33696 0.74531 0.0
C280 C 0.1781 0.35651 0.72753 0.0
C281 C 0.19651 0.39275 0.73754 0.0
C282 C 0.18057 0.40988 0.76611 0.0
C283 C 0.1466 0.39097 0.78469 0.0
C284 C 0.1283 0.35459 0.77359 0.0
C285 C 0.13102 0.40895 0.81627 0.0
C286 C 0.15599 0.42813 0.84361 0.0
C287 C 0.09122 0.40718 0.81945 0.0
C288 C 0.07691 0.4245 0.84885 0.0
C289 C 0.10189 0.44356 0.87627 0.0
C290 C 0.23254 0.41186 0.71771 0.0
C291 C 0.26221 0.39364 0.71195 0.0
C292 C 0.2364 0.44683 0.70195 0.0
C293 C 0.26851 0.46249 0.6797 0.0
C294 C 0.2977 0.44369 0.67296 0.0
C295 C 0.29435 0.40936 0.69012 0.0
C296 C 0.14161 0.44493 0.87329 0.0
H297 H 0.15615 0.2222 0.70564 0.0
H298 H 0.18148 0.28239 0.73357 0.0
H299 H 0.06774 0.30344 0.73051 0.0
H300 H 0.04209 0.24263 0.70232 0.0
H301 H 0.18995 0.34357 0.70506 0.0
H302 H 0.10253 0.33955 0.78782 0.0
H303 H 0.19479 0.43783 0.77403 0.0
H304 H 0.18675 0.4298 0.84229 0.0
H305 H 0.07116 0.39282 0.79888 0.0
H306 H 0.04612 0.42259 0.85036 0.0
H307 H 0.26034 0.36687 0.72412 0.0
H308 H 0.21386 0.4614 0.70564 0.0
H309 H 0.16176 0.45951 0.89369 0.0
H310 H 0.31659 0.39441 0.68667 0.0
H311 H 0.26977 0.48883 0.66688 0.0
Dy312 Dy 0.06158 0.04154 0.54903 0.0
Dy313 Dy 0.97552 1.02562 0.58756 0.0
C314 C 0.04488 0.09347 0.61426 0.0
O315 O 0.06305 1.01017 0.60077 0.0
O316 O 0.99992 0.97833 0.6033 0.0
O317 O 0.12324 0.05132 0.557 0.0
O318 O 0.09933 0.04524 0.50192 0.0
O319 O 0.96755 0.99241 0.53541 0.0
O320 O 0.02951 0.98648 0.52719 0.0
O321 O 0.98273 0.07888 0.55831 0.0
O322 O 0.02888 0.07416 0.51561 0.0
O323 O 0.91461 1.02298 0.5826 0.0
O324 O 0.93835 1.01126 0.63489 0.0
C325 C 0.03632 0.98148 0.61151 0.0
O326 O 0.0632 0.09159 0.58313 0.0
O327 O 0.01463 0.06725 0.62428 0.0
C328 C 0.16142 0.08496 0.51022 0.0
C329 C 0.22131 0.14449 0.48663 0.0
C330 C 0.18237 0.14649 0.48492 0.0
C331 C 0.1527 0.11704 0.49678 0.0
C332 C 0.20012 0.08315 0.51296 0.0
C333 C 0.22986 0.11267 0.50134 0.0
C334 C 0.13069 0.0533 0.52189 0.0
C335 C 0.99222 0.97555 0.52052 0.0
C336 C 1.00196 0.08978 0.52793 0.0
C337 C 0.87502 0.97848 0.62031 0.0
C338 C 0.81377 0.91607 0.6322 0.0
C339 C 0.84942 0.91213 0.61822 0.0
C340 C 0.87983 0.94318 0.6122 0.0
C341 C 0.83927 0.98262 0.63306 0.0
C342 C 0.80889 0.95172 0.63896 0.0
C343 C 0.9071 1.01117 0.61617 0.0
H344 H 0.17462 0.17027 0.47321 0.0
H345 H 0.12294 0.11907 0.49485 0.0
H346 H 0.20732 0.0587 0.52377 0.0
H347 H 0.2595 0.11041 0.50348 0.0
H348 H 0.85398 0.88507 0.6126 0.0
H349 H 0.90729 0.93964 0.60195 0.0
H350 H 0.83514 1.00974 0.63931 0.0
H351 H 0.78211 0.95574 0.65041 0.0
Dy352 Dy 0.46193 1.02809 1.04333 0.0
Dy353 Dy 0.54865 0.04369 0.08093 0.0
C354 C 0.48078 0.9723 0.10271 0.0
O355 O 0.46207 0.05625 0.09747 0.0
O356 O 0.524 0.09058 0.09765 0.0
O357 O 0.40095 1.01965 1.05465 0.0
O358 O 0.4218 1.02512 0.99837 0.0
O359 O 0.55719 0.08134 1.03219 0.0
O360 O 0.49416 0.08263 1.02011 0.0
O361 O 0.54607 0.99622 1.04351 0.0
O362 O 0.49211 0.99474 1.00787 0.0
O363 O 0.60991 0.04717 0.07703 0.0
O364 O 0.58382 0.05475 0.12969 0.0
C365 C 0.48777 0.08608 0.1072 0.0
O366 O 0.46251 0.97568 0.07209 0.0
O367 O 0.50954 0.99902 0.11464 0.0
C368 C 0.35944 0.98703 1.00961 0.0
C369 C 0.29686 0.92858 0.98914 0.0
C370 C 0.33507 0.92433 0.98803 0.0
C371 C 0.36609 0.95327 0.99833 0.0
C372 C 0.32148 0.99118 1.01165 0.0
C373 C 0.2904 0.96221 1.00155 0.0
C374 C 0.39157 1.01796 1.01999 0.0
C375 C 0.53167 0.09584 1.01555 0.0
C376 C 0.52375 0.98393 1.01528 0.0
C377 C 0.64915 0.08638 0.11994 0.0
C378 C 0.71324 0.1417 0.14307 0.0
C379 C 0.67672 0.14942 0.13949 0.0
C380 C 0.6448 0.12188 0.12797 0.0
C381 C 0.68591 0.07932 0.12138 0.0
C382 C 0.71772 0.10675 0.13277 0.0
C383 C 0.61582 0.05578 0.11164 0.0
H384 H 0.34121 0.89905 0.97805 0.0
H385 H 0.39527 0.94949 0.99698 0.0
H386 H 0.31589 1.01698 1.02081 0.0
H387 H 0.26136 0.96625 1.00316 0.0
H388 H 0.6724 0.17603 0.14748 0.0
H389 H 0.6166 0.12791 0.1266 0.0
H390 H 0.6898 0.05218 0.11485 0.0
H391 H 0.74564 0.10021 0.13482 0.0
Dy392 Dy 0.50517 0.49119 0.53195 0.0
Dy393 Dy 0.50985 0.56872 0.57625 0.0
C394 C 0.54187 0.50391 0.61203 0.0
O395 O 0.45394 0.47951 0.5701 0.0
O396 O 0.44769 0.53837 0.57974 0.0
O397 O 0.50292 0.4329 0.53471 0.0
O398 O 0.505 0.45981 0.48197 0.0
O399 O 0.48998 0.57827 0.51955 0.0
O400 O 0.46789 0.51909 0.49784 0.0
O401 O 0.5704 0.57381 0.55585 0.0
O402 O 0.55647 0.53163 0.50887 0.0
O403 O 0.51808 0.62791 0.57715 0.0
O404 O 0.50652 0.59682 0.62763 0.0
C405 C 0.43432 0.50256 0.58269 0.0
O406 O 0.54706 0.49293 0.57847 0.0
O407 O 0.52202 0.5287 0.61763 0.0
C408 C 0.54286 0.41627 0.48931 0.0
C409 C 0.61033 0.39102 0.47594 0.0
C410 C 0.57836 0.36857 0.49436 0.0
C411 C 0.54497 0.38109 0.50095 0.0
C412 C 0.5745 0.43849 0.47041 0.0
C413 C 0.60771 0.42595 0.46366 0.0
C414 C 0.50911 0.43067 0.49954 0.0
C415 C 0.47102 0.55484 0.49506 0.0
C416 C 0.58007 0.55962 0.52514 0.0
C417 C 0.47506 0.64398 0.61971 0.0
C418 C 0.40778 0.66521 0.64149 0.0
C419 C 0.40765 0.64392 0.6096 0.0
C420 C 0.44098 0.63323 0.5989 0.0
C421 C 0.47576 0.66633 0.65073 0.0
C422 C 0.44238 0.67693 0.66153 0.0
C423 C 0.50803 0.6282 0.61162 0.0
H424 H 0.57946 0.34168 0.50451 0.0
H425 H 0.5211 0.36361 0.51589 0.0
H426 H 0.57391 0.46585 0.46126 0.0
H427 H 0.63136 0.44373 0.44875 0.0
H428 H 0.38137 0.6342 0.59384 0.0
H429 H 0.43976 0.61547 0.57512 0.0
H430 H 0.50171 0.67457 0.66725 0.0
H431 H 0.44342 0.69374 0.68598 0.0
Dy432 Dy 1.00629 0.57802 1.03318 0.0
Dy433 Dy 1.00124 0.5009 0.07792 0.0
C434 C 0.967 0.56453 0.11454 0.0
O435 O 0.06682 0.58336 1.05469 0.0
O436 O 0.05129 0.5417 0.10179 0.0
O437 O 0.01609 0.63737 1.03169 0.0
O438 O 1.00108 0.60552 0.98196 0.0
O439 O 0.04491 0.50341 1.0327 0.0
O440 O 0.0202 0.53794 0.99233 0.0
O441 O 0.95044 0.48863 1.03993 0.0
O442 O 0.94408 0.5472 1.0291 0.0
O443 O 0.99585 0.4422 0.07563 0.0
O444 O 1.00433 0.47065 0.12789 0.0
C445 C 0.07573 0.56906 0.08562 0.0
O446 O 0.98558 0.58779 0.08973 0.0
O447 O 0.96387 0.52879 0.11191 0.0
C448 C 0.97229 0.65468 0.99102 0.0
C449 C 0.90679 0.68092 0.97322 0.0
C450 C 0.90632 0.65823 1.00406 0.0
C451 C 0.93871 0.6451 1.01277 0.0
C452 C 0.97335 0.67811 0.96088 0.0
C453 C 0.94089 0.69116 0.95204 0.0
C454 C 1.00455 0.63742 0.99772 0.0
C455 C 0.04044 0.51369 0.99887 0.0
C456 C 0.93073 0.51128 1.02706 0.0
C457 C 0.0393 0.42635 0.11698 0.0
C458 C 0.10639 0.40173 0.13177 0.0
C459 C 0.10821 0.43222 0.10878 0.0
C460 C 0.07502 0.44448 0.10159 0.0
C461 C 0.03707 0.39573 0.13961 0.0
C462 C 0.07038 0.38349 0.14699 0.0
C463 C 1.00507 0.44054 0.11014 0.0
H464 H 0.88041 0.64943 1.02064 0.0
H465 H 0.93715 0.62659 1.0359 0.0
H466 H 0.99892 0.68556 0.94364 0.0
H467 H 0.94229 0.70892 0.92835 0.0
H468 H 0.13528 0.44663 0.09626 0.0
H469 H 0.07731 0.46837 0.08421 0.0
H470 H 0.00976 0.38164 0.15192 0.0
H471 H 0.06807 0.36028 0.1653 0.0
C472 C 0.27473 0.23789 0.45066 0.0
C473 C 0.30136 0.22807 0.42646 0.0
H474 H 0.22908 0.21923 0.48961 0.0
C475 C 0.30574 0.19181 0.42682 0.0
H476 H 0.27105 0.26578 0.45106 0.0
C477 C 0.28132 0.16502 0.44834 0.0
C478 C 0.25223 0.17409 0.47009 0.0
H479 H 0.32572 0.1834 0.40812 0.0
H480 H 0.28338 0.13674 0.44569 0.0
C481 C 0.25049 0.21117 0.4724 0.0
C482 C 0.23805 0.83445 0.95986 0.0
C483 C 0.21232 0.84396 0.93466 0.0
H484 H 0.28451 0.85377 0.99768 0.0
C485 C 0.21043 0.88091 0.93211 0.0
H486 H 0.23981 0.80608 0.96255 0.0
C487 C 0.23637 0.90826 0.95172 0.0
C488 C 0.26453 0.89914 0.97444 0.0
H489 H 0.19122 0.8891 0.91258 0.0
H490 H 0.23616 0.93675 0.94687 0.0
C491 C 0.26385 0.86178 0.97966 0.0
C492 C 0.58985 0.44266 0.67056 0.0
C493 C 0.58378 0.454 0.70666 0.0
H494 H 0.58194 0.44943 0.61266 0.0
C495 C 0.56439 0.48236 0.711 0.0
H496 H 0.60506 0.4213 0.66588 0.0
C497 C 0.55138 0.4987 0.68041 0.0
C498 C 0.5573 0.48728 0.64437 0.0
H499 H 0.55855 0.49162 0.73818 0.0
H500 H 0.53629 0.52015 0.68517 0.0
C501 C 0.57684 0.45906 0.63989 0.0
C502 C 0.93588 0.57838 0.21305 0.0
C503 C 0.92696 0.61313 0.21133 0.0
H504 H 0.95466 0.53559 0.18417 0.0
C505 C 0.9296 0.63048 0.17668 0.0
H506 H 0.93504 0.56407 0.23896 0.0
C507 C 0.94183 0.61437 0.14538 0.0
C508 C 0.95103 0.57994 0.14735 0.0
H509 H 0.9221 0.65661 0.17345 0.0
H510 H 0.94407 0.62898 0.11948 0.0
C511 C 0.94734 0.56191 0.1815 0.0
C512 C 0.48742 0.1782 0.15099 0.0
C513 C 0.44793 0.17344 0.15925 0.0
H514 H 0.53117 0.15425 0.12805 0.0
C515 C 0.42235 0.13911 0.1523 0.0
H516 H 0.50781 0.20438 0.156 0.0
C517 C 0.43562 0.11052 0.13644 0.0
C518 C 0.47486 0.11551 0.12711 0.0
H519 H 0.3919 0.1343 0.1591 0.0
H520 H 0.41487 0.08466 0.13097 0.0
C521 C 0.50077 0.14951 0.13498 0.0
C522 C 0.09932 0.92645 0.6568 0.0
C523 C 0.07265 0.89292 0.66451 0.0
H524 H 0.10878 0.98061 0.63454 0.0
C525 C 0.03336 0.88928 0.65621 0.0
H526 H 0.12964 0.93045 0.6636 0.0
C527 C 0.02123 0.91831 0.63972 0.0
C528 C 0.04816 0.95154 0.63133 0.0
H529 H 0.01214 0.86374 0.66173 0.0
H530 H 0.99091 0.91444 0.63297 0.0
C531 C 0.08725 0.95536 0.64041 0.0
C532 C 0.84355 0.50172 0.96391 0.0
C533 C 0.82622 0.46365 0.96584 0.0
H534 H 0.88973 0.54669 0.9818 0.0
C535 C 0.84237 0.44214 0.99002 0.0
H536 H 0.8323 0.51925 0.9455 0.0
C537 C 0.87557 0.45779 1.01046 0.0
C538 C 0.89346 0.49558 1.00779 0.0
H539 H 0.82943 0.41297 0.9932 0.0
H540 H 0.88742 0.44008 1.02817 0.0
C541 C 0.87664 0.5175 0.98472 0.0
C542 C 0.6643 0.57526 0.45773 0.0
C543 C 0.68813 0.60889 0.46989 0.0
H544 H 0.61215 0.53339 0.46556 0.0
C545 C 0.67669 0.62557 0.50142 0.0
H546 H 0.67239 0.56118 0.43405 0.0
C547 C 0.6421 0.60935 0.51987 0.0
C548 C 0.61798 0.57608 0.5072 0.0
H549 H 0.69402 0.65166 0.51142 0.0
H550 H 0.63395 0.62328 0.54363 0.0
C551 C 0.62975 0.55914 0.47606 0.0
C552 C 0.21012 0.40444 0.15822 0.0
C553 C 0.20847 0.36686 0.16272 0.0
H554 H 0.17894 0.44499 0.1458 0.0
C555 C 0.17384 0.34075 0.15464 0.0
H556 H 0.23633 0.42513 0.16466 0.0
C557 C 0.14103 0.35202 0.14368 0.0
C558 C 0.14207 0.38967 0.1407 0.0
H559 H 0.17196 0.31156 0.15744 0.0
H560 H 0.11474 0.33121 0.13789 0.0
C561 C 0.1772 0.41575 0.14745 0.0
C562 C 0.5984 0.18049 0.97191 0.0
C563 C 0.57313 0.19421 0.94919 0.0
H564 H 0.60551 0.13922 1.0101 0.0
C565 C 0.53388 0.17479 0.94838 0.0
H566 H 0.6286 0.19486 0.97421 0.0
C567 C 0.52043 0.14289 0.96966 0.0
C568 C 0.54585 0.12926 0.99219 0.0
H569 H 0.51347 0.18398 0.93103 0.0
H570 H 0.49005 0.12883 0.96831 0.0
C571 C 0.58505 0.14849 0.99285 0.0
C572 C 0.98871 0.89489 0.45491 0.0
C573 C 0.94903 0.87688 0.45488 0.0
H574 H 0.03339 0.93986 0.47529 0.0
C575 C 0.92383 0.8923 0.47628 0.0
H576 H 0.0091 0.8844 0.43854 0.0
C577 C 0.93773 0.92453 0.49686 0.0
C578 C 0.97737 0.94224 0.49714 0.0
H579 H 0.89326 0.87907 0.47791 0.0
H580 H 0.91737 0.93511 0.51323 0.0
C581 C 1.00268 0.92697 0.47586 0.0
C582 C 0.32839 0.67749 0.70589 0.0
C583 C 0.30366 0.69054 0.68218 0.0
H584 H 0.3804 0.65923 0.71158 0.0
C585 C 0.31248 0.69369 0.64444 0.0
H586 H 0.32198 0.67403 0.73499 0.0
C587 C 0.34611 0.68514 0.63099 0.0
C588 C 0.37151 0.67342 0.65507 0.0
H589 H 0.29412 0.70394 0.62556 0.0
H590 H 0.3528 0.68865 0.60195 0.0
C591 C 0.36194 0.66915 0.69253 0.0
C592 C 0.71542 0.85778 0.65878 0.0
C593 C 0.72579 0.83245 0.68276 0.0
H594 H 0.73535 0.90384 0.62298 0.0
C595 C 0.76454 0.83012 0.68378 0.0
H596 H 0.68565 0.8598 0.65711 0.0
C597 C 0.79302 0.85549 0.66453 0.0
C598 C 0.78318 0.88354 0.64386 0.0
H599 H 0.77347 0.81107 0.70222 0.0
H600 H 0.82302 0.8551 0.66858 0.0
C601 C 0.74387 0.88309 0.63945 0.0
C602 C 0.79262 0.17936 0.21103 0.0
C603 C 0.80161 0.21748 0.20399 0.0
H604 H 0.758 0.12609 0.1975 0.0
C605 C 0.78255 0.23045 0.17489 0.0
H606 H 0.80541 0.16817 0.23388 0.0
C607 C 0.7544 0.2059 0.1542 0.0
C608 C 0.74522 0.16798 0.16198 0.0
H609 H 0.78885 0.25954 0.16849 0.0
H610 H 0.73953 0.21656 0.13244 0.0
C611 C 0.76507 0.15503 0.19022 0.0
C612 C 0.43178 0.62081 0.43498 0.0
C613 C 0.42681 0.60297 0.40046 0.0
H614 H 0.44931 0.6199 0.49125 0.0
C615 C 0.43486 0.56784 0.39814 0.0
H616 H 0.42502 0.64724 0.43874 0.0
C617 C 0.44785 0.55156 0.42896 0.0
C618 C 0.45389 0.57011 0.46292 0.0
H619 H 0.43213 0.55309 0.37228 0.0
H620 H 0.4544 0.52493 0.42582 0.0
C621 C 0.44542 0.60486 0.46547 0.0
C622 C 0.0595 0.4831 0.90173 0.0
C623 C 0.08664 0.462 0.90773 0.0
H624 H 0.02427 0.51629 0.92531 0.0
C625 C 0.09905 0.45869 0.94404 0.0
H626 H 0.04954 0.48658 0.87416 0.0
C627 C 0.0843 0.47553 0.97352 0.0
C628 C 0.05718 0.49668 0.96749 0.0
H629 H 0.11968 0.44246 0.94978 0.0
H630 H 0.09417 0.47192 1.0011 0.0
C631 C 0.04521 0.5004 0.93111 0.0
C632 C 0.58618 0.93001 0.96756 0.0
C633 C 0.55864 0.90042 0.95236 0.0
H634 H 0.59652 0.97953 0.99931 0.0
C635 C 0.51908 0.89883 0.95678 0.0
H636 H 0.61684 0.93175 0.96443 0.0
C637 C 0.50732 0.92675 0.97613 0.0
C638 C 0.53506 0.95599 0.99194 0.0
H639 H 0.49742 0.87624 0.94505 0.0
H640 H 0.47671 0.92496 0.97959 0.0
C641 C 0.57453 0.9573 0.98743 0.0
C642 C 0.99707 0.1596 0.45356 0.0
C643 C 0.97291 0.1797 0.4702 0.0
H644 H 0.0255 0.11549 0.45873 0.0
C645 C 0.96018 0.1711 0.50639 0.0
H646 H 0.00756 0.1658 0.42575 0.0
C647 C 0.97018 0.14229 0.52507 0.0
C648 C 0.99336 0.12141 0.50815 0.0
H649 H 0.94117 0.18571 0.51983 0.0
H650 H 0.95916 0.1361 0.55272 0.0
C651 C 0.00737 0.13084 0.47243 0.0
C652 C 0.1755 0.62937 0.11037 0.0
C653 C 0.18495 0.61128 0.14177 0.0
H654 H 0.13382 0.63054 0.06796 0.0
C655 C 0.15864 0.57894 0.15351 0.0
H656 H 0.19489 0.65453 0.10064 0.0
C657 C 0.12377 0.56535 0.1349 0.0
C658 C 0.11391 0.58363 0.10389 0.0
H659 H 0.16511 0.56379 0.17701 0.0
H660 H 0.10447 0.54032 0.14508 0.0
C661 C 0.1404 0.61571 0.09165 0.0
C662 C 0.34818 0.49743 0.64658 0.0
C663 C 0.33132 0.45927 0.64798 0.0
H664 H 0.39339 0.54099 0.62484 0.0
C665 C 0.3474 0.43588 0.62571 0.0
H666 H 0.33703 0.5164 0.66345 0.0
C667 C 0.3801 0.44997 0.60385 0.0
C668 C 0.39749 0.48795 0.60321 0.0
H669 H 0.3348 0.40647 0.62515 0.0
H670 H 0.39198 0.43094 0.58773 0.0
C671 C 0.38071 0.51157 0.62442 0.0
C672 C 0.81323 0.71271 0.97759 0.0
C673 C 0.80202 0.71052 0.94045 0.0
H674 H 0.85522 0.70528 1.01711 0.0
C675 C 0.82598 0.69935 0.91426 0.0
H676 H 0.79535 0.72114 0.99843 0.0
C677 C 0.86012 0.69029 0.9249 0.0
C678 C 0.87119 0.69209 0.96204 0.0
H679 H 0.81853 0.69792 0.88535 0.0
H680 H 0.87753 0.68125 0.90404 0.0
C681 C 0.84736 0.70341 0.9883 0.0
C682 C 0.42936 0.87382 0.12771 0.0
C683 C 0.448 0.86774 0.16035 0.0
H684 H 0.42469 0.91094 0.08442 0.0
C685 C 0.47688 0.89704 0.17475 0.0
H686 H 0.40642 0.8523 0.11613 0.0
C687 C 0.48741 0.93114 0.15643 0.0
C688 C 0.46907 0.93687 0.12344 0.0
H689 H 0.49194 0.89338 0.19975 0.0
H690 H 0.51016 0.95287 0.16797 0.0
C691 C 0.4397 0.90775 0.10959 0.0
C692 C 0.10611 0.18435 0.6507 0.0
C693 C 0.08334 0.19281 0.67958 0.0
H694 H 0.11208 0.1469 0.60787 0.0
C695 C 0.04767 0.16789 0.68724 0.0
H696 H 0.13344 0.20308 0.64356 0.0
C697 C 0.03533 0.13524 0.66666 0.0
C698 C 0.05816 0.12702 0.63763 0.0
H699 H 0.02947 0.17346 0.70936 0.0
H700 H 0.0077 0.11671 0.67319 0.0
C701 C 0.09369 0.15208 0.63002 0.0
C702 C 0.71668 0.39229 0.46388 0.0
C703 C 0.71488 0.35578 0.45334 0.0
H704 H 0.68542 0.43176 0.48019 0.0
C705 C 0.67861 0.33038 0.45212 0.0
H706 H 0.74426 0.41236 0.46555 0.0
C707 C 0.64473 0.34157 0.46004 0.0
C708 C 0.6464 0.37839 0.46957 0.0
H709 H 0.67626 0.30215 0.44365 0.0
H710 H 0.61718 0.32162 0.45749 0.0
C711 C 0.68289 0.40342 0.47206 0.0
loop_
_geom_bond_atom_site_label_1
_geom_bond_atom_site_label_2
_geom_bond_distance
_geom_bond_site_symmetry_2
_ccdc_geom_bond_type
C0 C1 1.386 . S
C0 C2 1.397 . S
C0 H24 0.931 . S
C1 C0 1.386 . S
C1 C5 1.397 . S
C2 C0 1.397 . S
C2 C3 1.384 . S
C2 H25 0.930 . S
C3 C2 1.384 . S
C3 C4 1.377 . S
C3 C6 1.481 . S
C4 C3 1.377 . S
C4 C5 1.389 . S
C4 H26 0.929 . S
C5 C1 1.397 . S
C5 C4 1.389 . S
C5 H27 0.931 . S
C6 C3 1.481 . S
C6 C7 1.387 . S
C6 C11 1.390 . S
C7 C6 1.387 . S
C7 C8 1.401 . S
C7 H28 0.930 . S
C8 C7 1.401 . S
C8 C9 1.376 . S
C8 C17 1.511 . S
C9 C8 1.376 . S
C9 C10 1.392 . S
C9 H30 0.931 . S
C10 C9 1.392 . S
C10 C11 1.361 . S
C10 C12 1.500 . S
C11 C6 1.390 . S
C11 C10 1.361 . S
C11 H29 0.931 . S
C12 C10 1.500 . S
C12 C13 1.371 . S
C12 C14 1.365 . S
C13 C12 1.371 . S
C13 C23 1.386 . S
C13 H31 0.931 . S
C14 C12 1.365 . S
C14 C15 1.409 . S
C14 H32 0.929 . S
C15 C14 1.409 . S
C15 C16 1.380 . S
C15 H33 0.930 . S
C16 C15 1.380 . S
C16 C23 1.357 . S
C17 C8 1.511 . S
C17 C18 1.341 . S
C17 C19 1.371 . S
C18 C17 1.341 . S
C18 C22 1.394 . S
C18 H34 0.930 . S
C19 C17 1.371 . S
C19 C20 1.392 . S
C19 H35 0.931 . S
C20 C19 1.392 . S
C20 C21 1.331 . S
C20 H38 0.932 . S
C21 C20 1.331 . S
C21 C22 1.336 . S
C22 C18 1.394 . S
C22 C21 1.336 . S
C22 H37 0.929 . S
C23 C13 1.386 . S
C23 C16 1.357 . S
C23 H36 0.928 . S
H24 C0 0.931 . S
H25 C2 0.930 . S
H26 C4 0.929 . S
H27 C5 0.931 . S
H28 C7 0.930 . S
H29 C11 0.931 . S
H30 C9 0.931 . S
H31 C13 0.931 . S
H32 C14 0.929 . S
H33 C15 0.930 . S
H34 C18 0.930 . S
H35 C19 0.931 . S
H36 C23 0.928 . S
H37 C22 0.929 . S
H38 C20 0.932 . S
C39 C40 1.386 . S
C39 C41 1.397 . S
C39 H63 0.931 . S
C40 C39 1.386 . S
C40 C44 1.397 . S
C41 C39 1.397 . S
C41 C42 1.384 . S
C41 H64 0.930 . S
C42 C41 1.384 . S
C42 C43 1.377 . S
C42 C45 1.481 . S
C43 C42 1.377 . S
C43 C44 1.389 . S
C43 H65 0.929 . S
C44 C40 1.397 . S
C44 C43 1.389 . S
C44 H66 0.931 . S
C45 C42 1.481 . S
C45 C46 1.387 . S
C45 C50 1.390 . S
C46 C45 1.387 . S
C46 C47 1.401 . S
C46 H67 0.930 . S
C47 C46 1.401 . S
C47 C48 1.376 . S
C47 C56 1.511 . S
C48 C47 1.376 . S
C48 C49 1.392 . S
C48 H69 0.931 . S
C49 C48 1.392 . S
C49 C50 1.361 . S
C49 C51 1.500 . S
C50 C45 1.390 . S
C50 C49 1.361 . S
C50 H68 0.931 . S
C51 C49 1.500 . S
C51 C52 1.371 . S
C51 C53 1.365 . S
C52 C51 1.371 . S
C52 C62 1.386 . S
C52 H70 0.931 . S
C53 C51 1.365 . S
C53 C54 1.409 . S
C53 H71 0.929 . S
C54 C53 1.409 . S
C54 C55 1.380 . S
C54 H72 0.930 . S
C55 C54 1.380 . S
C55 C62 1.357 . S
C56 C47 1.511 . S
C56 C57 1.341 . S
C56 C58 1.371 . S
C57 C56 1.341 . S
C57 C61 1.394 . S
C57 H73 0.930 . S
C58 C56 1.371 . S
C58 C59 1.392 . S
C58 H74 0.931 . S
C59 C58 1.392 . S
C59 C60 1.331 . S
C59 H77 0.932 . S
C60 C59 1.331 . S
C60 C61 1.336 . S
C61 C57 1.394 . S
C61 C60 1.336 . S
C61 H76 0.929 . S
C62 C52 1.386 . S
C62 C55 1.357 . S
C62 H75 0.928 . S
H63 C39 0.931 . S
H64 C41 0.930 . S
H65 C43 0.929 . S
H66 C44 0.931 . S
H67 C46 0.930 . S
H68 C50 0.931 . S
H69 C48 0.931 . S
H70 C52 0.931 . S
H71 C53 0.929 . S
H72 C54 0.930 . S
H73 C57 0.930 . S
H74 C58 0.931 . S
H75 C62 0.928 . S
H76 C61 0.929 . S
H77 C59 0.932 . S
C78 C79 1.386 . S
C78 C80 1.397 . S
C78 H102 0.931 . S
C79 C78 1.386 . S
C79 C83 1.397 . S
C80 C78 1.397 . S
C80 C81 1.384 . S
C80 H103 0.930 . S
C81 C80 1.384 . S
C81 C82 1.377 . S
C81 C84 1.481 . S
C82 C81 1.377 . S
C82 C83 1.389 . S
C82 H104 0.929 . S
C83 C79 1.397 . S
C83 C82 1.389 . S
C83 H105 0.931 . S
C84 C81 1.481 . S
C84 C85 1.387 . S
C84 C89 1.390 . S
C85 C84 1.387 . S
C85 C86 1.401 . S
C85 H106 0.930 . S
C86 C85 1.401 . S
C86 C87 1.376 . S
C86 C95 1.511 . S
C87 C86 1.376 . S
C87 C88 1.392 . S
C87 H108 0.931 . S
C88 C87 1.392 . S
C88 C89 1.361 . S
C88 C90 1.500 . S
C89 C84 1.390 . S
C89 C88 1.361 . S
C89 H107 0.931 . S
C90 C88 1.500 . S
C90 C91 1.371 . S
C90 C92 1.365 . S
C91 C90 1.371 . S
C91 C101 1.386 . S
C91 H109 0.931 . S
C92 C90 1.365 . S
C92 C93 1.409 . S
C92 H110 0.929 . S
C93 C92 1.409 . S
C93 C94 1.380 . S
C93 H111 0.930 . S
C94 C93 1.380 . S
C94 C101 1.357 . S
C95 C86 1.511 . S
C95 C96 1.341 . S
C95 C97 1.371 . S
C96 C95 1.341 . S
C96 C100 1.394 . S
C96 H112 0.930 . S
C97 C95 1.371 . S
C97 C98 1.392 . S
C97 H113 0.931 . S
C98 C97 1.392 . S
C98 C99 1.331 . S
C98 H116 0.932 . S
C99 C98 1.331 . S
C99 C100 1.336 . S
C100 C96 1.394 . S
C100 C99 1.336 . S
C100 H115 0.929 . S
C101 C91 1.386 . S
C101 C94 1.357 . S
C101 H114 0.928 . S
H102 C78 0.931 . S
H103 C80 0.930 . S
H104 C82 0.929 . S
H105 C83 0.931 . S
H106 C85 0.930 . S
H107 C89 0.931 . S
H108 C87 0.931 . S
H109 C91 0.931 . S
H110 C92 0.929 . S
H111 C93 0.930 . S
H112 C96 0.930 . S
H113 C97 0.931 . S
H114 C101 0.928 . S
H115 C100 0.929 . S
H116 C98 0.932 . S
C117 C118 1.386 . S
C117 C119 1.397 . S
C117 H141 0.931 . S
C118 C117 1.386 . S
C118 C122 1.397 . S
C119 C117 1.397 . S
C119 C120 1.384 . S
C119 H142 0.930 . S
C120 C119 1.384 . S
C120 C121 1.377 . S
C120 C123 1.481 . S
C121 C120 1.377 . S
C121 C122 1.389 . S
C121 H143 0.929 . S
C122 C118 1.397 . S
C122 C121 1.389 . S
C122 H144 0.931 . S
C123 C120 1.481 . S
C123 C124 1.387 . S
C123 C128 1.390 . S
C124 C123 1.387 . S
C124 C125 1.401 . S
C124 H145 0.930 . S
C125 C124 1.401 . S
C125 C126 1.376 . S
C125 C134 1.511 . S
C126 C125 1.376 . S
C126 C127 1.392 . S
C126 H147 0.931 . S
C127 C126 1.392 . S
C127 C128 1.361 . S
C127 C129 1.500 . S
C128 C123 1.390 . S
C128 C127 1.361 . S
C128 H146 0.931 . S
C129 C127 1.500 . S
C129 C130 1.371 . S
C129 C131 1.365 . S
C130 C129 1.371 . S
C130 C140 1.386 . S
C130 H148 0.931 . S
C131 C129 1.365 . S
C131 C132 1.409 . S
C131 H149 0.929 . S
C132 C131 1.409 . S
C132 C133 1.380 . S
C132 H150 0.930 . S
C133 C132 1.380 . S
C133 C140 1.357 . S
C134 C125 1.511 . S
C134 C135 1.341 . S
C134 C136 1.371 . S
C135 C134 1.341 . S
C135 C139 1.394 . S
C135 H151 0.930 . S
C136 C134 1.371 . S
C136 C137 1.392 . S
C136 H152 0.931 . S
C137 C136 1.392 . S
C137 C138 1.331 . S
C137 H155 0.932 . S
C138 C137 1.331 . S
C138 C139 1.336 . S
C139 C135 1.394 . S
C139 C138 1.336 . S
C139 H154 0.929 . S
C140 C130 1.386 . S
C140 C133 1.357 . S
C140 H153 0.928 . S
H141 C117 0.931 . S
H142 C119 0.930 . S
H143 C121 0.929 . S
H144 C122 0.931 . S
H145 C124 0.930 . S
H146 C128 0.931 . S
H147 C126 0.931 . S
H148 C130 0.931 . S
H149 C131 0.929 . S
H150 C132 0.930 . S
H151 C135 0.930 . S
H152 C136 0.931 . S
H153 C140 0.928 . S
H154 C139 0.929 . S
H155 C137 0.932 . S
C156 C157 1.386 . S
C156 C158 1.397 . S
C156 H180 0.931 . S
C157 C156 1.386 . S
C157 C161 1.397 . S
C158 C156 1.397 . S
C158 C159 1.384 . S
C158 H181 0.930 . S
C159 C158 1.384 . S
C159 C160 1.377 . S
C159 C162 1.481 . S
C160 C159 1.377 . S
C160 C161 1.389 . S
C160 H182 0.929 . S
C161 C157 1.397 . S
C161 C160 1.389 . S
C161 H183 0.931 . S
C162 C159 1.481 . S
C162 C163 1.387 . S
C162 C167 1.390 . S
C163 C162 1.387 . S
C163 C164 1.401 . S
C163 H184 0.930 . S
C164 C163 1.401 . S
C164 C165 1.376 . S
C164 C173 1.511 . S
C165 C164 1.376 . S
C165 C166 1.392 . S
C165 H186 0.931 . S
C166 C165 1.392 . S
C166 C167 1.361 . S
C166 C168 1.500 . S
C167 C162 1.390 . S
C167 C166 1.361 . S
C167 H185 0.931 . S
C168 C166 1.500 . S
C168 C169 1.371 . S
C168 C170 1.365 . S
C169 C168 1.371 . S
C169 C179 1.386 . S
C169 H187 0.931 . S
C170 C168 1.365 . S
C170 C171 1.409 . S
C170 H188 0.929 . S
C171 C170 1.409 . S
C171 C172 1.380 . S
C171 H189 0.930 . S
C172 C171 1.380 . S
C172 C179 1.357 . S
C173 C164 1.511 . S
C173 C174 1.341 . S
C173 C175 1.371 . S
C174 C173 1.341 . S
C174 C178 1.394 . S
C174 H190 0.930 . S
C175 C173 1.371 . S
C175 C176 1.392 . S
C175 H191 0.931 . S
C176 C175 1.392 . S
C176 C177 1.331 . S
C176 H194 0.932 . S
C177 C176 1.331 . S
C177 C178 1.336 . S
C178 C174 1.394 . S
C178 C177 1.336 . S
C178 H193 0.929 . S
C179 C169 1.386 . S
C179 C172 1.357 . S
C179 H192 0.928 . S
H180 C156 0.931 . S
H181 C158 0.930 . S
H182 C160 0.929 . S
H183 C161 0.931 . S
H184 C163 0.930 . S
H185 C167 0.931 . S
H186 C165 0.931 . S
H187 C169 0.931 . S
H188 C170 0.929 . S
H189 C171 0.930 . S
H190 C174 0.930 . S
H191 C175 0.931 . S
H192 C179 0.928 . S
H193 C178 0.929 . S
H194 C176 0.932 . S
C195 C196 1.386 . S
C195 C197 1.397 . S
C195 H219 0.931 . S
C196 C195 1.386 . S
C196 C200 1.397 . S
C197 C195 1.397 . S
C197 C198 1.384 . S
C197 H220 0.930 . S
C198 C197 1.384 . S
C198 C199 1.377 . S
C198 C201 1.481 . S
C199 C198 1.377 . S
C199 C200 1.389 . S
C199 H221 0.929 . S
C200 C196 1.397 . S
C200 C199 1.389 . S
C200 H222 0.931 . S
C201 C198 1.481 . S
C201 C202 1.387 . S
C201 C206 1.390 . S
C202 C201 1.387 . S
C202 C203 1.401 . S
C202 H223 0.930 . S
C203 C202 1.401 . S
C203 C204 1.376 . S
C203 C212 1.511 . S
C204 C203 1.376 . S
C204 C205 1.392 . S
C204 H225 0.931 . S
C205 C204 1.392 . S
C205 C206 1.361 . S
C205 C207 1.500 . S
C206 C201 1.390 . S
C206 C205 1.361 . S
C206 H224 0.931 . S
C207 C205 1.500 . S
C207 C208 1.371 . S
C207 C209 1.365 . S
C208 C207 1.371 . S
C208 C218 1.386 . S
C208 H226 0.931 . S
C209 C207 1.365 . S
C209 C210 1.409 . S
C209 H227 0.929 . S
C210 C209 1.409 . S
C210 C211 1.380 . S
C210 H228 0.930 . S
C211 C210 1.380 . S
C211 C218 1.357 . S
C212 C203 1.511 . S
C212 C213 1.341 . S
C212 C214 1.371 . S
C213 C212 1.341 . S
C213 C217 1.394 . S
C213 H229 0.930 . S
C214 C212 1.371 . S
C214 C215 1.392 . S
C214 H230 0.931 . S
C215 C214 1.392 . S
C215 C216 1.331 . S
C215 H233 0.932 . S
C216 C215 1.331 . S
C216 C217 1.336 . S
C217 C213 1.394 . S
C217 C216 1.336 . S
C217 H232 0.929 . S
C218 C208 1.386 . S
C218 C211 1.357 . S
C218 H231 0.928 . S
H219 C195 0.931 . S
H220 C197 0.930 . S
H221 C199 0.929 . S
H222 C200 0.931 . S
H223 C202 0.930 . S
H224 C206 0.931 . S
H225 C204 0.931 . S
H226 C208 0.931 . S
H227 C209 0.929 . S
H228 C210 0.930 . S
H229 C213 0.930 . S
H230 C214 0.931 . S
H231 C218 0.928 . S
H232 C217 0.929 . S
H233 C215 0.932 . S
C234 C235 1.386 . S
C234 C236 1.397 . S
C234 H258 0.931 . S
C235 C234 1.386 . S
C235 C239 1.397 . S
C236 C234 1.397 . S
C236 C237 1.384 . S
C236 H259 0.930 . S
C237 C236 1.384 . S
C237 C238 1.377 . S
C237 C240 1.481 . S
C238 C237 1.377 . S
C238 C239 1.389 . S
C238 H260 0.929 . S
C239 C235 1.397 . S
C239 C238 1.389 . S
C239 H261 0.931 . S
C240 C237 1.481 . S
C240 C241 1.387 . S
C240 C245 1.390 . S
C241 C240 1.387 . S
C241 C242 1.401 . S
C241 H262 0.930 . S
C242 C241 1.401 . S
C242 C243 1.376 . S
C242 C251 1.511 . S
C243 C242 1.376 . S
C243 C244 1.392 . S
C243 H264 0.931 . S
C244 C243 1.392 . S
C244 C245 1.361 . S
C244 C246 1.500 . S
C245 C240 1.390 . S
C245 C244 1.361 . S
C245 H263 0.931 . S
C246 C244 1.500 . S
C246 C247 1.371 . S
C246 C248 1.365 . S
C247 C246 1.371 . S
C247 C257 1.386 . S
C247 H265 0.931 . S
C248 C246 1.365 . S
C248 C249 1.409 . S
C248 H266 0.929 . S
C249 C248 1.409 . S
C249 C250 1.380 . S
C249 H267 0.930 . S
C250 C249 1.380 . S
C250 C257 1.357 . S
C251 C242 1.511 . S
C251 C252 1.341 . S
C251 C253 1.371 . S
C252 C251 1.341 . S
C252 C256 1.394 . S
C252 H268 0.930 . S
C253 C251 1.371 . S
C253 C254 1.392 . S
C253 H269 0.931 . S
C254 C253 1.392 . S
C254 C255 1.331 . S
C254 H272 0.932 . S
C255 C254 1.331 . S
C255 C256 1.336 . S
C256 C252 1.394 . S
C256 C255 1.336 . S
C256 H271 0.929 . S
C257 C247 1.386 . S
C257 C250 1.357 . S
C257 H270 0.928 . S
H258 C234 0.931 . S
H259 C236 0.930 . S
H260 C238 0.929 . S
H261 C239 0.931 . S
H262 C241 0.930 . S
H263 C245 0.931 . S
H264 C243 0.931 . S
H265 C247 0.931 . S
H266 C248 0.929 . S
H267 C249 0.930 . S
H268 C252 0.930 . S
H269 C253 0.931 . S
H270 C257 0.928 . S
H271 C256 0.929 . S
H272 C254 0.932 . S
C273 C274 1.386 . S
C273 C275 1.397 . S
C273 H297 0.931 . S
C274 C273 1.386 . S
C274 C278 1.397 . S
C275 C273 1.397 . S
C275 C276 1.384 . S
C275 H298 0.930 . S
C276 C275 1.384 . S
C276 C277 1.377 . S
C276 C279 1.481 . S
C277 C276 1.377 . S
C277 C278 1.389 . S
C277 H299 0.929 . S
C278 C274 1.397 . S
C278 C277 1.389 . S
C278 H300 0.931 . S
C279 C276 1.481 . S
C279 C280 1.387 . S
C279 C284 1.390 . S
C280 C279 1.387 . S
C280 C281 1.401 . S
C280 H301 0.930 . S
C281 C280 1.401 . S
C281 C282 1.376 . S
C281 C290 1.511 . S
C282 C281 1.376 . S
C282 C283 1.392 . S
C282 H303 0.931 . S
C283 C282 1.392 . S
C283 C284 1.361 . S
C283 C285 1.500 . S
C284 C279 1.390 . S
C284 C283 1.361 . S
C284 H302 0.931 . S
C285 C283 1.500 . S
C285 C286 1.371 . S
C285 C287 1.365 . S
C286 C285 1.371 . S
C286 C296 1.386 . S
C286 H304 0.931 . S
C287 C285 1.365 . S
C287 C288 1.409 . S
C287 H305 0.929 . S
C288 C287 1.409 . S
C288 C289 1.380 . S
C288 H306 0.930 . S
C289 C288 1.380 . S
C289 C296 1.357 . S
C290 C281 1.511 . S
C290 C291 1.341 . S
C290 C292 1.371 . S
C291 C290 1.341 . S
C291 C295 1.394 . S
C291 H307 0.930 . S
C292 C290 1.371 . S
C292 C293 1.392 . S
C292 H308 0.931 . S
C293 C292 1.392 . S
C293 C294 1.331 . S
C293 H311 0.932 . S
C294 C293 1.331 . S
C294 C295 1.336 . S
C295 C291 1.394 . S
C295 C294 1.336 . S
C295 H310 0.929 . S
C296 C286 1.386 . S
C296 C289 1.357 . S
C296 H309 0.928 . S
H297 C273 0.931 . S
H298 C275 0.930 . S
H299 C277 0.929 . S
H300 C278 0.931 . S
H301 C280 0.930 . S
H302 C284 0.931 . S
H303 C282 0.931 . S
H304 C286 0.931 . S
H305 C287 0.929 . S
H306 C288 0.930 . S
H307 C291 0.930 . S
H308 C292 0.931 . S
H309 C296 0.928 . S
H310 C295 0.929 . S
H311 C293 0.932 . S
Dy312 O315 2.307 1_545 S
Dy312 O317 2.395 . S
Dy312 O318 2.379 . S
Dy312 O320 2.339 1_545 S
Dy312 O322 2.298 . S
Dy312 O326 2.275 . S
Dy312 C334 2.738 . S
Dy313 O316 2.289 1_645 S
Dy313 O319 2.267 1_545 S
Dy313 O321 2.317 . S
Dy313 O323 2.383 1_545 S
Dy313 O324 2.377 1_545 S
Dy313 O327 2.349 . S
Dy313 C343 2.730 1_545 S
C314 O326 1.254 . S
C314 O327 1.257 1_455 S
O315 Dy312 2.307 1_565 S
O315 C325 1.266 . S
O316 Dy313 2.289 1_465 S
O316 C325 1.236 . S
O317 Dy312 2.395 . S
O317 C334 1.255 . S
O318 Dy312 2.379 . S
O318 C334 1.249 . S
O319 Dy313 2.267 1_565 S
O319 C335 1.254 . S
O320 Dy312 2.339 1_565 S
O320 C335 1.257 1_455 S
O321 Dy313 2.317 . S
O321 C336 1.266 . S
O322 Dy312 2.298 . S
O322 C336 1.236 1_455 S
O323 Dy313 2.383 1_565 S
O323 C343 1.255 . S
O324 Dy313 2.377 1_565 S
O324 C343 1.249 . S
C325 O315 1.266 . S
C325 O316 1.236 . S
O326 Dy312 2.275 . S
O326 C314 1.254 . S
O327 Dy313 2.349 . S
O327 C314 1.257 1_655 S
C328 C331 1.344 . S
C328 C332 1.328 . S
C328 C334 1.516 . S
C329 C330 1.304 . S
C329 C333 1.323 . S
C330 C329 1.304 . S
C330 C331 1.371 . S
C330 H344 0.930 . S
C331 C328 1.344 . S
C331 C330 1.371 . S
C331 H345 0.931 . S
C332 C328 1.328 . S
C332 C333 1.433 . S
C332 H346 0.931 . S
C333 C329 1.323 . S
C333 C332 1.433 . S
C333 H347 0.933 . S
C334 Dy312 2.738 . S
C334 O317 1.255 . S
C334 O318 1.249 . S
C334 C328 1.516 . S
C335 O319 1.254 . S
C335 O320 1.257 1_655 S
C336 O321 1.266 . S
C336 O322 1.236 1_655 S
C337 C340 1.344 . S
C337 C341 1.328 . S
C337 C343 1.516 . S
C338 C339 1.304 . S
C338 C342 1.323 . S
C339 C338 1.304 . S
C339 C340 1.371 . S
C339 H348 0.930 . S
C340 C337 1.344 . S
C340 C339 1.371 . S
C340 H349 0.931 . S
C341 C337 1.328 . S
C341 C342 1.433 . S
C341 H350 0.931 . S
C342 C338 1.323 . S
C342 C341 1.433 . S
C342 H351 0.933 . S
C343 Dy313 2.730 1_565 S
C343 O323 1.255 . S
C343 O324 1.249 . S
C343 C337 1.516 . S
H344 C330 0.930 . S
H345 C331 0.931 . S
H346 C332 0.931 . S
H347 C333 0.933 . S
H348 C339 0.930 . S
H349 C340 0.931 . S
H350 C341 0.931 . S
H351 C342 0.933 . S
Dy352 O355 2.308 1_556 S
Dy352 O357 2.393 1_545 S
Dy352 O358 2.379 1_545 S
Dy352 O360 2.340 . S
Dy352 O362 2.297 1_545 S
Dy352 O366 2.274 1_546 S
Dy352 C374 2.737 1_545 S
Dy353 O356 2.298 . S
Dy353 O359 2.275 1_554 S
Dy353 O361 2.307 1_544 S
Dy353 O363 2.395 . S
Dy353 O364 2.379 . S
Dy353 O367 2.339 1_545 S
Dy353 C383 2.738 . S
C354 O366 1.254 . S
C354 O367 1.257 . S
O355 Dy352 2.308 1_554 S
O355 C365 1.266 . S
O356 Dy353 2.298 . S
O356 C365 1.236 . S
O357 Dy352 2.393 1_565 S
O357 C374 1.255 . S
O358 Dy352 2.379 1_565 S
O358 C374 1.249 . S
O359 Dy353 2.275 1_556 S
O359 C375 1.254 . S
O360 Dy352 2.340 . S
O360 C375 1.257 . S
O361 Dy353 2.307 1_566 S
O361 C376 1.266 . S
O362 Dy352 2.297 1_565 S
O362 C376 1.236 . S
O363 Dy353 2.395 . S
O363 C383 1.255 . S
O364 Dy353 2.379 . S
O364 C383 1.249 . S
C365 O355 1.266 . S
C365 O356 1.236 . S
O366 Dy352 2.274 1_564 S
O366 C354 1.254 . S
O367 Dy353 2.339 1_565 S
O367 C354 1.257 . S
C368 C371 1.344 . S
C368 C372 1.328 . S
C368 C374 1.516 . S
C369 C370 1.304 . S
C369 C373 1.323 . S
C370 C369 1.304 . S
C370 C371 1.371 . S
C370 H384 0.930 . S
C371 C368 1.344 . S
C371 C370 1.371 . S
C371 H385 0.931 . S
C372 C368 1.328 . S
C372 C373 1.433 . S
C372 H386 0.931 . S
C373 C369 1.323 . S
C373 C372 1.433 . S
C373 H387 0.933 . S
C374 Dy352 2.737 1_565 S
C374 O357 1.255 . S
C374 O358 1.249 . S
C374 C368 1.516 . S
C375 O359 1.254 . S
C375 O360 1.257 . S
C376 O361 1.266 . S
C376 O362 1.236 . S
C377 C380 1.344 . S
C377 C381 1.328 . S
C377 C383 1.516 . S
C378 C379 1.304 . S
C378 C382 1.323 . S
C379 C378 1.304 . S
C379 C380 1.371 . S
C379 H388 0.930 . S
C380 C377 1.344 . S
C380 C379 1.371 . S
C380 H389 0.931 . S
C381 C377 1.328 . S
C381 C382 1.433 . S
C381 H390 0.931 . S
C382 C378 1.323 . S
C382 C381 1.433 . S
C382 H391 0.933 . S
C383 Dy353 2.738 . S
C383 O363 1.255 . S
C383 O364 1.249 . S
C383 C377 1.516 . S
H384 C370 0.930 . S
H385 C371 0.931 . S
H386 C372 0.931 . S
H387 C373 0.933 . S
H388 C379 0.930 . S
H389 C380 0.931 . S
H390 C381 0.931 . S
H391 C382 0.933 . S
Dy392 O395 2.307 . S
Dy392 O397 2.395 . S
Dy392 O398 2.379 . S
Dy392 O400 2.339 . S
Dy392 O402 2.298 . S
Dy392 O406 2.275 . S
Dy392 C414 2.738 . S
Dy393 O396 2.298 . S
Dy393 O399 2.275 . S
Dy393 O401 2.307 . S
Dy393 O403 2.395 . S
Dy393 O404 2.379 . S
Dy393 O407 2.339 . S
Dy393 C423 2.738 . S
C394 O406 1.254 . S
C394 O407 1.257 . S
O395 Dy392 2.307 . S
O395 C405 1.266 . S
O396 Dy393 2.298 . S
O396 C405 1.236 . S
O397 Dy392 2.395 . S
O397 C414 1.255 . S
O398 Dy392 2.379 . S
O398 C414 1.249 . S
O399 Dy393 2.275 . S
O399 C415 1.254 . S
O400 Dy392 2.339 . S
O400 C415 1.257 . S
O401 Dy393 2.307 . S
O401 C416 1.266 . S
O402 Dy392 2.298 . S
O402 C416 1.236 . S
O403 Dy393 2.395 . S
O403 C423 1.255 . S
O404 Dy393 2.379 . S
O404 C423 1.249 . S
C405 O395 1.266 . S
C405 O396 1.236 . S
O406 Dy392 2.275 . S
O406 C394 1.254 . S
O407 Dy393 2.339 . S
O407 C394 1.257 . S
C408 C411 1.344 . S
C408 C412 1.328 . S
C408 C414 1.516 . S
C409 C410 1.304 . S
C409 C413 1.323 . S
C410 C409 1.304 . S
C410 C411 1.371 . S
C410 H424 0.930 . S
C411 C408 1.344 . S
C411 C410 1.371 . S
C411 H425 0.931 . S
C412 C408 1.328 . S
C412 C413 1.433 . S
C412 H426 0.931 . S
C413 C409 1.323 . S
C413 C412 1.433 . S
C413 H427 0.933 . S
C414 Dy392 2.738 . S
C414 O397 1.255 . S
C414 O398 1.249 . S
C414 C408 1.516 . S
C415 O399 1.254 . S
C415 O400 1.257 . S
C416 O401 1.266 . S
C416 O402 1.236 . S
C417 C420 1.344 . S
C417 C421 1.328 . S
C417 C423 1.516 . S
C418 C419 1.304 . S
C418 C422 1.323 . S
C419 C418 1.304 . S
C419 C420 1.371 . S
C419 H428 0.930 . S
C420 C417 1.344 . S
C420 C419 1.371 . S
C420 H429 0.931 . S
C421 C417 1.328 . S
C421 C422 1.433 . S
C421 H430 0.931 . S
C422 C418 1.323 . S
C422 C421 1.433 . S
C422 H431 0.933 . S
C423 Dy393 2.738 . S
C423 O403 1.255 . S
C423 O404 1.249 . S
C423 C417 1.516 . S
H424 C410 0.930 . S
H425 C411 0.931 . S
H426 C412 0.931 . S
H427 C413 0.933 . S
H428 C419 0.930 . S
H429 C420 0.931 . S
H430 C421 0.931 . S
H431 C422 0.933 . S
Dy432 O435 2.307 1_656 S
Dy432 O437 2.395 . S
Dy432 O438 2.379 . S
Dy432 O440 2.339 1_655 S
Dy432 O442 2.298 . S
Dy432 O446 2.275 1_556 S
Dy432 C454 2.738 . S
Dy433 O436 2.298 . S
Dy433 O439 2.275 1_554 S
Dy433 O441 2.307 1_455 S
Dy433 O443 2.395 . S
Dy433 O444 2.379 . S
Dy433 O447 2.339 1_455 S
Dy433 C463 2.738 . S
C434 O446 1.254 . S
C434 O447 1.257 . S
O435 Dy432 2.307 1_454 S
O435 C445 1.266 . S
O436 Dy433 2.298 . S
O436 C445 1.236 . S
O437 Dy432 2.395 . S
O437 C454 1.255 . S
O438 Dy432 2.379 . S
O438 C454 1.249 . S
O439 Dy433 2.275 1_556 S
O439 C455 1.254 . S
O440 Dy432 2.339 1_455 S
O440 C455 1.257 . S
O441 Dy433 2.307 1_655 S
O441 C456 1.266 1_554 S
O442 Dy432 2.298 . S
O442 C456 1.236 . S
O443 Dy433 2.395 . S
O443 C463 1.255 . S
O444 Dy433 2.379 . S
O444 C463 1.249 . S
C445 O435 1.266 . S
C445 O436 1.236 . S
O446 Dy432 2.275 1_554 S
O446 C434 1.254 . S
O447 Dy433 2.339 1_655 S
O447 C434 1.257 . S
C448 C451 1.344 . S
C448 C452 1.328 . S
C448 C454 1.516 . S
C449 C450 1.304 . S
C449 C453 1.323 . S
C450 C449 1.304 . S
C450 C451 1.371 . S
C450 H464 0.930 . S
C451 C448 1.344 . S
C451 C450 1.371 . S
C451 H465 0.931 . S
C452 C448 1.328 . S
C452 C453 1.433 . S
C452 H466 0.931 . S
C453 C449 1.323 . S
C453 C452 1.433 . S
C453 H467 0.933 . S
C454 Dy432 2.738 . S
C454 O437 1.255 . S
C454 O438 1.249 . S
C454 C448 1.516 . S
C455 O439 1.254 . S
C455 O440 1.257 . S
C456 O441 1.266 1_556 S
C456 O442 1.236 . S
C457 C460 1.344 . S
C457 C461 1.328 . S
C457 C463 1.516 . S
C458 C459 1.304 . S
C458 C462 1.323 . S
C459 C458 1.304 . S
C459 C460 1.371 . S
C459 H468 0.930 . S
C460 C457 1.344 . S
C460 C459 1.371 . S
C460 H469 0.931 . S
C461 C457 1.328 . S
C461 C462 1.433 . S
C461 H470 0.931 . S
C462 C458 1.323 . S
C462 C461 1.433 . S
C462 H471 0.933 . S
C463 Dy433 2.738 . S
C463 O443 1.255 . S
C463 O444 1.249 . S
C463 C457 1.516 . S
H464 C450 0.930 . S
H465 C451 0.931 . S
H466 C452 0.931 . S
H467 C453 0.933 . S
H468 C459 0.930 . S
H469 C460 0.931 . S
H470 C461 0.931 . S
H471 C462 0.933 . S
C472 C473 1.387 . S
C472 H476 0.950 . S
C472 C481 1.390 . S
C473 C472 1.387 . S
C473 C475 1.387 . S
H474 C481 0.950 . S
C475 C473 1.387 . S
C475 C477 1.390 . S
C475 H479 0.950 . S
H476 C472 0.950 . S
C477 C475 1.390 . S
C477 C478 1.387 . S
C477 H480 0.950 . S
C478 C477 1.387 . S
C478 C481 1.387 . S
H479 C475 0.950 . S
H480 C477 0.950 . S
C481 C472 1.390 . S
C481 H474 0.950 . S
C481 C478 1.387 . S
C482 C483 1.387 . S
C482 H486 0.950 . S
C482 C491 1.390 . S
C483 C482 1.387 . S
C483 C485 1.387 . S
H484 C491 0.950 . S
C485 C483 1.387 . S
C485 C487 1.390 . S
C485 H489 0.950 . S
H486 C482 0.950 . S
C487 C485 1.390 . S
C487 C488 1.387 . S
C487 H490 0.950 . S
C488 C487 1.387 . S
C488 C491 1.387 . S
H489 C485 0.950 . S
H490 C487 0.950 . S
C491 C482 1.390 . S
C491 H484 0.950 . S
C491 C488 1.387 . S
C492 C493 1.387 . S
C492 H496 0.950 . S
C492 C501 1.390 . S
C493 C492 1.387 . S
C493 C495 1.387 . S
H494 C501 0.950 . S
C495 C493 1.387 . S
C495 C497 1.390 . S
C495 H499 0.950 . S
H496 C492 0.950 . S
C497 C495 1.390 . S
C497 C498 1.387 . S
C497 H500 0.950 . S
C498 C497 1.387 . S
C498 C501 1.387 . S
H499 C495 0.950 . S
H500 C497 0.950 . S
C501 C492 1.390 . S
C501 H494 0.950 . S
C501 C498 1.387 . S
C502 C503 1.387 . S
C502 H506 0.950 . S
C502 C511 1.390 . S
C503 C502 1.387 . S
C503 C505 1.387 . S
H504 C511 0.950 . S
C505 C503 1.387 . S
C505 C507 1.390 . S
C505 H509 0.950 . S
H506 C502 0.950 . S
C507 C505 1.390 . S
C507 C508 1.387 . S
C507 H510 0.950 1_655 S
C508 C507 1.387 . S
C508 C511 1.387 . S
H509 C505 0.950 . S
H510 C507 0.950 1_455 S
C511 C502 1.390 . S
C511 H504 0.950 . S
C511 C508 1.387 . S
C512 C513 1.387 . S
C512 H516 0.950 . S
C512 C521 1.390 . S
C513 C512 1.387 . S
C513 C515 1.387 . S
H514 C521 0.950 . S
C515 C513 1.387 . S
C515 C517 1.390 . S
C515 H519 0.950 . S
H516 C512 0.950 . S
C517 C515 1.390 . S
C517 C518 1.387 . S
C517 H520 0.950 . S
C518 C517 1.387 . S
C518 C521 1.387 . S
H519 C515 0.950 . S
H520 C517 0.950 . S
C521 C512 1.390 . S
C521 H514 0.950 . S
C521 C518 1.387 . S
C522 C523 1.387 . S
C522 H526 0.950 . S
C522 C531 1.390 . S
C523 C522 1.387 . S
C523 C525 1.392 . S
H524 C531 0.950 . S
C525 C523 1.392 . S
C525 C527 1.390 . S
C525 H529 0.946 1_455 S
H526 C522 0.950 . S
C527 C525 1.390 . S
C527 C528 1.387 . S
C527 H530 0.950 1_455 S
C528 C527 1.387 . S
C528 C531 1.387 . S
H529 C525 0.946 1_655 S
H530 C527 0.950 1_655 S
C531 C522 1.390 . S
C531 H524 0.950 . S
C531 C528 1.387 . S
C532 C533 1.387 . S
C532 H536 0.950 . S
C532 C541 1.390 . S
C533 C532 1.387 . S
C533 C535 1.387 . S
H534 C541 0.950 . S
C535 C533 1.387 . S
C535 C537 1.390 . S
C535 H539 0.950 . S
H536 C532 0.950 . S
C537 C535 1.390 . S
C537 C538 1.387 . S
C537 H540 0.950 . S
C538 C537 1.387 . S
C538 C541 1.387 . S
H539 C535 0.950 . S
H540 C537 0.950 . S
C541 C532 1.390 . S
C541 H534 0.950 . S
C541 C538 1.387 . S
C542 C543 1.387 . S
C542 H546 0.950 . S
C542 C551 1.390 . S
C543 C542 1.387 . S
C543 C545 1.387 . S
H544 C551 0.950 . S
C545 C543 1.387 . S
C545 C547 1.390 . S
C545 H549 0.950 . S
H546 C542 0.950 . S
C547 C545 1.390 . S
C547 C548 1.387 . S
C547 H550 0.950 . S
C548 C547 1.387 . S
C548 C551 1.387 . S
H549 C545 0.950 . S
H550 C547 0.950 . S
C551 C542 1.390 . S
C551 H544 0.950 . S
C551 C548 1.387 . S
C552 C553 1.387 . S
C552 H556 0.950 . S
C552 C561 1.390 . S
C553 C552 1.387 . S
C553 C555 1.387 . S
H554 C561 0.950 . S
C555 C553 1.387 . S
C555 C557 1.390 . S
C555 H559 0.950 . S
H556 C552 0.950 . S
C557 C555 1.390 . S
C557 C558 1.387 . S
C557 H560 0.950 . S
C558 C557 1.387 . S
C558 C561 1.387 . S
H559 C555 0.950 . S
H560 C557 0.950 . S
C561 C552 1.390 . S
C561 H554 0.950 . S
C561 C558 1.387 . S
C562 C563 1.387 . S
C562 H566 0.950 . S
C562 C571 1.390 . S
C563 C562 1.387 . S
C563 C565 1.387 . S
H564 C571 0.950 . S
C565 C563 1.387 . S
C565 C567 1.390 . S
C565 H569 0.950 . S
H566 C562 0.950 . S
C567 C565 1.390 . S
C567 C568 1.387 . S
C567 H570 0.950 . S
C568 C567 1.387 . S
C568 C571 1.387 . S
H569 C565 0.950 . S
H570 C567 0.950 . S
C571 C562 1.390 . S
C571 H564 0.950 . S
C571 C568 1.387 . S
C572 C573 1.387 . S
C572 H576 0.950 . S
C572 C581 1.390 . S
C573 C572 1.387 . S
C573 C575 1.387 . S
H574 C581 0.950 . S
C575 C573 1.387 . S
C575 C577 1.390 . S
C575 H579 0.950 . S
H576 C572 0.950 . S
C577 C575 1.390 . S
C577 C578 1.387 . S
C577 H580 0.950 . S
C578 C577 1.387 . S
C578 C581 1.387 . S
H579 C575 0.950 . S
H580 C577 0.950 . S
C581 C572 1.390 . S
C581 H574 0.950 . S
C581 C578 1.387 . S
C582 C583 1.387 . S
C582 H586 0.950 . S
C582 C591 1.390 . S
C583 C582 1.387 . S
C583 C585 1.387 . S
H584 C591 0.950 . S
C585 C583 1.387 . S
C585 C587 1.390 . S
C585 H589 0.950 . S
H586 C582 0.950 . S
C587 C585 1.390 . S
C587 C588 1.387 . S
C587 H590 0.950 . S
C588 C587 1.387 . S
C588 C591 1.387 . S
H589 C585 0.950 . S
H590 C587 0.950 . S
C591 C582 1.390 . S
C591 H584 0.950 . S
C591 C588 1.387 . S
C592 C593 1.387 . S
C592 H596 0.950 . S
C592 C601 1.390 . S
C593 C592 1.387 . S
C593 C595 1.387 . S
H594 C601 0.950 . S
C595 C593 1.387 . S
C595 C597 1.390 . S
C595 H599 0.950 . S
H596 C592 0.950 . S
C597 C595 1.390 . S
C597 C598 1.387 . S
C597 H600 0.950 . S
C598 C597 1.387 . S
C598 C601 1.387 . S
H599 C595 0.950 . S
H600 C597 0.950 . S
C601 C592 1.390 . S
C601 H594 0.950 . S
C601 C598 1.387 . S
C602 C603 1.387 . S
C602 H606 0.950 . S
C602 C611 1.390 . S
C603 C602 1.387 . S
C603 C605 1.387 . S
H604 C611 0.950 . S
C605 C603 1.387 . S
C605 C607 1.390 . S
C605 H609 0.950 . S
H606 C602 0.950 . S
C607 C605 1.390 . S
C607 C608 1.387 . S
C607 H610 0.950 . S
C608 C607 1.387 . S
C608 C611 1.387 . S
H609 C605 0.950 . S
H610 C607 0.950 . S
C611 C602 1.390 . S
C611 H604 0.950 . S
C611 C608 1.387 . S
C612 C613 1.387 . S
C612 H616 0.950 . S
C612 C621 1.390 . S
C613 C612 1.387 . S
C613 C615 1.387 . S
H614 C621 0.950 . S
C615 C613 1.387 . S
C615 C617 1.390 . S
C615 H619 0.950 . S
H616 C612 0.950 . S
C617 C615 1.390 . S
C617 C618 1.387 . S
C617 H620 0.950 . S
C618 C617 1.387 . S
C618 C621 1.387 . S
H619 C615 0.950 . S
H620 C617 0.950 . S
C621 C612 1.390 . S
C621 H614 0.950 . S
C621 C618 1.387 . S
C622 C623 1.387 . S
C622 H626 0.950 . S
C622 C631 1.390 . S
C623 C622 1.387 . S
C623 C625 1.387 . S
H624 C631 0.950 . S
C625 C623 1.387 . S
C625 C627 1.390 . S
C625 H629 0.950 . S
H626 C622 0.950 . S
C627 C625 1.390 . S
C627 C628 1.387 . S
C627 H630 0.950 . S
C628 C627 1.387 . S
C628 C631 1.387 . S
H629 C625 0.950 . S
H630 C627 0.950 . S
C631 C622 1.390 . S
C631 H624 0.950 . S
C631 C628 1.387 . S
C632 C633 1.387 . S
C632 H636 0.950 . S
C632 C641 1.390 . S
C633 C632 1.387 . S
C633 C635 1.387 . S
H634 C641 0.950 . S
C635 C633 1.387 . S
C635 C637 1.390 . S
C635 H639 0.950 . S
H636 C632 0.950 . S
C637 C635 1.390 . S
C637 C638 1.387 . S
C637 H640 0.950 . S
C638 C637 1.387 . S
C638 C641 1.387 . S
H639 C635 0.950 . S
H640 C637 0.950 . S
C641 C632 1.390 . S
C641 H634 0.950 . S
C641 C638 1.387 . S
C642 C643 1.387 . S
C642 H646 0.950 . S
C642 C651 1.390 . S
C643 C642 1.387 . S
C643 C645 1.387 . S
H644 C651 0.950 . S
C645 C643 1.387 . S
C645 C647 1.390 . S
C645 H649 0.950 . S
H646 C642 0.950 . S
C647 C645 1.390 . S
C647 C648 1.387 . S
C647 H650 0.950 . S
C648 C647 1.387 . S
C648 C651 1.387 . S
H649 C645 0.950 . S
H650 C647 0.950 . S
C651 C642 1.390 . S
C651 H644 0.950 . S
C651 C648 1.387 . S
C652 C653 1.387 . S
C652 H656 0.950 . S
C652 C661 1.390 . S
C653 C652 1.387 . S
C653 C655 1.387 . S
H654 C661 0.950 . S
C655 C653 1.387 . S
C655 C657 1.390 . S
C655 H659 0.950 . S
H656 C652 0.950 . S
C657 C655 1.390 . S
C657 C658 1.387 . S
C657 H660 0.950 . S
C658 C657 1.387 . S
C658 C661 1.387 . S
H659 C655 0.950 . S
H660 C657 0.950 . S
C661 C652 1.390 . S
C661 H654 0.950 . S
C661 C658 1.387 . S
C662 C663 1.387 . S
C662 H666 0.950 . S
C662 C671 1.390 . S
C663 C662 1.387 . S
C663 C665 1.387 . S
H664 C671 0.950 . S
C665 C663 1.387 . S
C665 C667 1.390 . S
C665 H669 0.950 . S
H666 C662 0.950 . S
C667 C665 1.390 . S
C667 C668 1.387 . S
C667 H670 0.950 . S
C668 C667 1.387 . S
C668 C671 1.387 . S
H669 C665 0.950 . S
H670 C667 0.950 . S
C671 C662 1.390 . S
C671 H664 0.950 . S
C671 C668 1.387 . S
C672 C673 1.387 . S
C672 H676 0.950 . S
C672 C681 1.390 . S
C673 C672 1.387 . S
C673 C675 1.387 . S
H674 C681 0.950 . S
C675 C673 1.387 . S
C675 C677 1.390 . S
C675 H679 0.950 . S
H676 C672 0.950 . S
C677 C675 1.390 . S
C677 C678 1.387 . S
C677 H680 0.950 . S
C678 C677 1.387 . S
C678 C681 1.387 . S
H679 C675 0.950 . S
H680 C677 0.950 . S
C681 C672 1.390 . S
C681 H674 0.950 . S
C681 C678 1.387 . S
C682 C683 1.387 . S
C682 H686 0.950 . S
C682 C691 1.390 . S
C683 C682 1.387 . S
C683 C685 1.387 . S
H684 C691 0.950 . S
C685 C683 1.387 . S
C685 C687 1.390 . S
C685 H689 0.950 . S
H686 C682 0.950 . S
C687 C685 1.390 . S
C687 C688 1.387 . S
C687 H690 0.950 . S
C688 C687 1.387 . S
C688 C691 1.387 . S
H689 C685 0.950 . S
H690 C687 0.950 . S
C691 C682 1.390 . S
C691 H684 0.950 . S
C691 C688 1.387 . S
C692 C693 1.387 . S
C692 H696 0.950 . S
C692 C701 1.390 . S
C693 C692 1.387 . S
C693 C695 1.387 . S
H694 C701 0.950 . S
C695 C693 1.387 . S
C695 C697 1.390 . S
C695 H699 0.950 . S
H696 C692 0.950 . S
C697 C695 1.390 . S
C697 C698 1.387 . S
C697 H700 0.950 . S
C698 C697 1.387 . S
C698 C701 1.387 . S
H699 C695 0.950 . S
H700 C697 0.950 . S
C701 C692 1.390 . S
C701 H694 0.950 . S
C701 C698 1.387 . S
C702 C703 1.387 . S
C702 H706 0.950 . S
C702 C711 1.390 . S
C703 C702 1.387 . S
C703 C705 1.387 . S
H704 C711 0.950 . S
C705 C703 1.387 . S
C705 C707 1.390 . S
C705 H709 0.950 . S
H706 C702 0.950 . S
C707 C705 1.390 . S
C707 C708 1.387 . S
C707 H710 0.950 . S
C708 C707 1.387 . S
C708 C711 1.387 . S
H709 C705 0.950 . S
H710 C707 0.950 . S
C711 C702 1.390 . S
C711 H704 0.950 . S
C711 C708 1.387 . S
C473 C1 1.307 . S
C478 C329 1.394 . S
C483 C40 1.324 . S
C488 C369 1.391 . S
C498 C394 2.435 . S
C493 C99 2.503 . S
C503 C118 2.492 . S
C508 C434 2.431 . S
C518 C365 1.988 . S
C513 C16 1.834 . S
C528 C325 1.999 . S
C523 C60 1.856 . S
C538 C456 1.786 . S
C533 C79 1.822 . S
C548 C416 1.761 . S
C543 C138 1.789 . S
C553 C21 1.578 . S
C558 C458 1.652 . S
C568 C375 2.208 . S
C563 C94 2.259 . S
C573 C133 2.237 . S
C578 C335 2.187 . S
C583 C55 1.580 . S
C588 C418 1.650 . S
C598 C338 1.398 . S
C593 C157 1.323 . S
C603 C196 1.315 . S
C608 C378 1.393 . S
C613 C255 2.499 . S
C618 C415 2.436 . S
C623 C289 2.489 . S
C628 C455 2.425 . S
C633 C172 1.822 . S
C638 C376 1.986 . S
C648 C336 1.998 . S
C643 C216 1.821 . S
C658 C445 1.786 . S
C653 C235 1.822 . S
C668 C405 1.754 . S
C663 C294 1.793 . S
C673 C177 1.599 . S
C678 C449 1.648 . S
C688 C354 2.208 . S
C683 C250 2.261 . S
C698 C314 2.192 . S
C693 C274 2.238 . S
C703 C211 1.592 . S
C708 C409 1.654 . S
