# Generated by pormake.
# Topology apo, (3,6)-cn, num edge types: 1
# Building blocks:
#     Node 0, Type 0, BuildingBlock: MIDCAF_clean_linker_0, # of connection points: 3
#     Node 1, Type 0, BuildingBlock: MIDCAF_clean_linker_0, # of connection points: 3
#     Node 2, Type 0, BuildingBlock: MIDCAF_clean_linker_0, # of connection points: 3
#     Node 3, Type 0, BuildingBlock: MIDCAF_clean_linker_0, # of connection points: 3
#     Node 4, Type 0, BuildingBlock: MIDCAF_clean_linker_0, # of connection points: 3
#     Node 5, Type 0, BuildingBlock: MIDCAF_clean_linker_0, # of connection points: 3
#     Node 6, Type 0, BuildingBlock: MIDCAF_clean_linker_0, # of connection points: 3
#     Node 7, Type 0, BuildingBlock: MIDCAF_clean_linker_0, # of connection points: 3
#     Node 8, Type 1, BuildingBlock: KUMJIN_clean_sbu_1, # of connection points: 6
#     Node 9, Type 1, BuildingBlock: KUMJIN_clean_sbu_1, # of connection points: 6
#     Node 10, Type 1, BuildingBlock: KUMJIN_clean_sbu_1, # of connection points: 6
#     Node 11, Type 1, BuildingBlock: KUMJIN_clean_sbu_1, # of connection points: 6
#     Edge 12, Type (0, 1), BuildingBlock: XUDNAN_clean_linker_2, # of connection points: 2
#     Edge 13, Type (0, 1), BuildingBlock: XUDNAN_clean_linker_2, # of connection points: 2
#     Edge 14, Type (0, 1), BuildingBlock: XUDNAN_clean_linker_2, # of connection points: 2
#     Edge 15, Type (0, 1), BuildingBlock: XUDNAN_clean_linker_2, # of connection points: 2
#     Edge 16, Type (0, 1), BuildingBlock: XUDNAN_clean_linker_2, # of connection points: 2
#     Edge 17, Type (0, 1), BuildingBlock: XUDNAN_clean_linker_2, # of connection points: 2
#     Edge 18, Type (0, 1), BuildingBlock: XUDNAN_clean_linker_2, # of connection points: 2
#     Edge 19, Type (0, 1), BuildingBlock: XUDNAN_clean_linker_2, # of connection points: 2
#     Edge 20, Type (0, 1), BuildingBlock: XUDNAN_clean_linker_2, # of connection points: 2
#     Edge 21, Type (0, 1), BuildingBlock: XUDNAN_clean_linker_2, # of connection points: 2
#     Edge 22, Type (0, 1), BuildingBlock: XUDNAN_clean_linker_2, # of connection points: 2
#     Edge 23, Type (0, 1), BuildingBlock: XUDNAN_clean_linker_2, # of connection points: 2
#     Edge 24, Type (0, 1), BuildingBlock: XUDNAN_clean_linker_2, # of connection points: 2
#     Edge 25, Type (0, 1), BuildingBlock: XUDNAN_clean_linker_2, # of connection points: 2
#     Edge 26, Type (0, 1), BuildingBlock: XUDNAN_clean_linker_2, # of connection points: 2
#     Edge 27, Type (0, 1), BuildingBlock: XUDNAN_clean_linker_2, # of connection points: 2
#     Edge 28, Type (0, 1), BuildingBlock: XUDNAN_clean_linker_2, # of connection points: 2
#     Edge 29, Type (0, 1), BuildingBlock: XUDNAN_clean_linker_2, # of connection points: 2
#     Edge 30, Type (0, 1), BuildingBlock: XUDNAN_clean_linker_2, # of connection points: 2
#     Edge 31, Type (0, 1), BuildingBlock: XUDNAN_clean_linker_2, # of connection points: 2
#     Edge 32, Type (0, 1), BuildingBlock: XUDNAN_clean_linker_2, # of connection points: 2
#     Edge 33, Type (0, 1), BuildingBlock: XUDNAN_clean_linker_2, # of connection points: 2
#     Edge 34, Type (0, 1), BuildingBlock: XUDNAN_clean_linker_2, # of connection points: 2
#     Edge 35, Type (0, 1), BuildingBlock: XUDNAN_clean_linker_2, # of connection points: 2
# Relax obj value: 0.009
# Max RMSD: 0.094
# Mean RMSD: 0.075
data_MOF--net-apo--node1-KUMJIN_clean_sbu_1--node2-MIDCAF_clean_linker_0--edge1-XUDNAN_clean_linker_2
_symmetry_space_group_name_H-M    P1
_symmetry_Int_Tables_number       1
_symmetry_cell_setting            triclinic
loop_
_symmetry_equiv_pos_as_xyz
'x, y, z'
_cell_length_a     28.987355
_cell_length_b     52.09476
_cell_length_c     63.935274
_cell_angle_alpha  90.061282
_cell_angle_beta   89.986506
_cell_angle_gamma 90.581893
loop_
_atom_site_label
_atom_site_type_symbol
_atom_site_fract_x
_atom_site_fract_y
_atom_site_fract_z
_atom_type_partial_charge
C0 C 0.32298 0.39712 0.48698 0.0
C1 C 0.32628 0.37328 0.49725 0.0
C2 C 0.32538 0.35076 0.48506 0.0
C3 C 0.32014 0.352 0.46337 0.0
H4 H 0.24663 0.3138 0.41747 0.0
H5 H 0.20313 0.27923 0.40093 0.0
H6 H 0.22096 0.3156 0.34079 0.0
H7 H 0.26498 0.35036 0.35727 0.0
H8 H 0.31981 0.40499 0.35559 0.0
H9 H 0.33813 0.44407 0.33606 0.0
H10 H 0.35269 0.48589 0.39404 0.0
H11 H 0.3344 0.44701 0.41362 0.0
H12 H 0.31551 0.41699 0.45786 0.0
H13 H 0.32271 0.4149 0.49576 0.0
H14 H 0.32891 0.33207 0.49223 0.0
H15 H 0.3192 0.33423 0.45454 0.0
N16 N 0.29047 0.35639 0.42015 0.0
N17 N 0.29443 0.37854 0.3883 0.0
N18 N 0.32045 0.39832 0.41922 0.0
C19 C 0.28266 0.35705 0.39922 0.0
C20 C 0.31345 0.39924 0.39818 0.0
C21 C 0.30936 0.37685 0.43026 0.0
C22 C 0.25913 0.33507 0.38876 0.0
C23 C 0.24173 0.31446 0.40069 0.0
C24 C 0.21654 0.29464 0.39124 0.0
C25 C 0.20832 0.29481 0.3696 0.0
C26 C 0.22698 0.31489 0.3575 0.0
C27 C 0.25199 0.33487 0.36698 0.0
C28 C 0.32546 0.42281 0.38622 0.0
C29 C 0.32692 0.4225 0.3642 0.0
C30 C 0.33769 0.44484 0.35299 0.0
C31 C 0.34664 0.46805 0.36351 0.0
C32 C 0.34542 0.46835 0.38548 0.0
C33 C 0.33519 0.44599 0.3967 0.0
C34 C 0.31653 0.37579 0.45319 0.0
C35 C 0.31858 0.39836 0.46521 0.0
C36 C 0.18291 0.09976 0.98355 0.0
C37 C 0.1776 0.12328 0.99407 0.0
C38 C 0.1863 0.14619 0.98302 0.0
C39 C 0.19952 0.14556 0.96196 0.0
H40 H 0.25929 0.18967 0.91405 0.0
H41 H 0.29222 0.22678 0.89601 0.0
H42 H 0.30938 0.18116 0.84016 0.0
H43 H 0.27717 0.14399 0.85814 0.0
H44 H 0.20904 0.09344 0.85455 0.0
H45 H 0.19077 0.05461 0.83465 0.0
H46 H 0.18562 0.01089 0.89192 0.0
H47 H 0.20357 0.04966 0.91194 0.0
H48 H 0.19911 0.08064 0.95495 0.0
H49 H 0.17768 0.0817 0.99161 0.0
H50 H 0.18208 0.16467 0.9905 0.0
H51 H 0.20541 0.16355 0.95387 0.0
N52 N 0.23428 0.14205 0.91907 0.0
N53 N 0.23619 0.11924 0.88742 0.0
N54 N 0.20805 0.09932 0.91772 0.0
C55 C 0.2448 0.14117 0.89833 0.0
C56 C 0.21783 0.09826 0.89698 0.0
C57 C 0.21597 0.12113 0.92887 0.0
C58 C 0.26534 0.16379 0.88757 0.0
C59 C 0.2702 0.18748 0.89795 0.0
C60 C 0.28888 0.20881 0.88758 0.0
C61 C 0.30333 0.20691 0.86664 0.0
C62 C 0.29904 0.18318 0.85636 0.0
C63 C 0.2802 0.1619 0.86667 0.0
C64 C 0.20777 0.07465 0.88485 0.0
C65 C 0.2042 0.07555 0.86292 0.0
C66 C 0.19348 0.05338 0.85152 0.0
C67 C 0.18686 0.02981 0.86177 0.0
C68 C 0.19094 0.02881 0.88364 0.0
C69 C 0.20096 0.05103 0.89508 0.0
C70 C 0.20389 0.12202 0.9514 0.0
C71 C 0.19558 0.09915 0.96249 0.0
C72 C 0.83925 0.10519 0.52843 0.0
C73 C 0.8263 0.12684 0.51687 0.0
C74 C 0.80058 0.14608 0.52681 0.0
C75 C 0.78871 0.14383 0.54799 0.0
H76 H 0.72907 0.18228 0.5984 0.0
H77 H 0.69651 0.21776 0.61806 0.0
H78 H 0.7104 0.17454 0.6753 0.0
H79 H 0.74194 0.13875 0.65565 0.0
H80 H 0.77886 0.08215 0.6544 0.0
H81 H 0.80129 0.04269 0.67207 0.0
H82 H 0.8579 0.014 0.61418 0.0
H83 H 0.83487 0.05294 0.59644 0.0
H84 H 0.83804 0.08584 0.55776 0.0
H85 H 0.85837 0.08982 0.52114 0.0
H86 H 0.79025 0.16305 0.5183 0.0
H87 H 0.76921 0.15907 0.55524 0.0
N88 N 0.76952 0.13882 0.59279 0.0
N89 N 0.77127 0.1142 0.62355 0.0
N90 N 0.80127 0.09765 0.59241 0.0
C91 C 0.75989 0.13629 0.61356 0.0
C92 C 0.7919 0.09476 0.61306 0.0
C93 C 0.79027 0.11952 0.58211 0.0
C94 C 0.73846 0.15763 0.6254 0.0
C95 C 0.72506 0.18023 0.61516 0.0
C96 C 0.70659 0.20067 0.62647 0.0
C97 C 0.7012 0.1991 0.6483 0.0
C98 C 0.71369 0.17632 0.65849 0.0
C99 C 0.73206 0.15583 0.64718 0.0
C100 C 0.80494 0.07079 0.62396 0.0
C101 C 0.79593 0.06739 0.64541 0.0
C102 C 0.80897 0.04483 0.65558 0.0
C103 C 0.8312 0.02516 0.64451 0.0
C104 C 0.8401 0.02856 0.62309 0.0
C105 C 0.82712 0.05105 0.61294 0.0
C106 C 0.802 0.12218 0.55959 0.0
C107 C 0.82724 0.10286 0.54946 0.0
C108 C 0.70395 0.39156 0.02336 0.0
C109 C 0.69143 0.36689 0.01611 0.0
C110 C 0.68971 0.34661 0.03069 0.0
C111 C 0.70022 0.35088 0.05178 0.0
H112 H 0.75994 0.31481 0.10668 0.0
H113 H 0.79279 0.28312 0.13064 0.0
H114 H 0.81723 0.34302 0.1762 0.0
H115 H 0.78385 0.37421 0.15282 0.0
H116 H 0.66965 0.41217 0.14812 0.0
H117 H 0.6422 0.4511 0.16463 0.0
H118 H 0.69834 0.49573 0.11326 0.0
H119 H 0.72179 0.45625 0.09604 0.0
H120 H 0.72234 0.41517 0.04959 0.0
H121 H 0.70704 0.40762 0.01271 0.0
H122 H 0.67937 0.32745 0.02598 0.0
H123 H 0.69815 0.33491 0.06259 0.0
N124 N 0.73915 0.36196 0.09366 0.0
N125 N 0.73257 0.3889 0.12288 0.0
N126 N 0.70773 0.40323 0.09009 0.0
C127 C 0.74615 0.3663 0.11441 0.0
C128 C 0.71342 0.40737 0.11091 0.0
C129 C 0.72011 0.38044 0.08141 0.0
C130 C 0.76846 0.34698 0.12796 0.0
C131 C 0.7725 0.32115 0.1218 0.0
C132 C 0.79148 0.30304 0.13547 0.0
C133 C 0.80686 0.31049 0.15547 0.0
C134 C 0.80453 0.33649 0.16115 0.0
C135 C 0.78543 0.35443 0.14766 0.0
C136 C 0.69757 0.43128 0.12079 0.0
C137 C 0.6758 0.43038 0.14038 0.0
C138 C 0.66052 0.45286 0.14995 0.0
C139 C 0.66798 0.47696 0.14049 0.0
C140 C 0.69067 0.4777 0.12094 0.0
C141 C 0.70456 0.45508 0.11106 0.0
C142 C 0.71155 0.37562 0.05894 0.0
C143 C 0.71325 0.39592 0.04453 0.0
C144 C 0.68956 0.59901 0.52122 0.0
C145 C 0.69524 0.62227 0.51039 0.0
C146 C 0.7148 0.64342 0.52097 0.0
C147 C 0.72753 0.64148 0.54202 0.0
H148 H 0.76466 0.68516 0.59543 0.0
H149 H 0.79536 0.72125 0.61578 0.0
H150 H 0.83678 0.66916 0.66456 0.0
H151 H 0.80559 0.63304 0.64444 0.0
H152 H 0.7065 0.59039 0.64955 0.0
H153 H 0.66838 0.55519 0.66803 0.0
H154 H 0.6636 0.51127 0.61065 0.0
H155 H 0.69996 0.54675 0.59209 0.0
H156 H 0.69639 0.57892 0.55011 0.0
H157 H 0.67412 0.58243 0.51362 0.0
H158 H 0.72011 0.66154 0.51298 0.0
H159 H 0.74187 0.65825 0.54976 0.0
N160 N 0.75236 0.6362 0.58604 0.0
N161 N 0.74597 0.61344 0.61763 0.0
N162 N 0.71723 0.59548 0.58661 0.0
C163 C 0.76034 0.63463 0.60698 0.0
C164 C 0.72438 0.59379 0.60754 0.0
C165 C 0.73106 0.61655 0.57571 0.0
C166 C 0.78238 0.65626 0.61839 0.0
C167 C 0.78076 0.68135 0.61038 0.0
C168 C 0.79815 0.70201 0.62204 0.0
C169 C 0.8183 0.69793 0.64172 0.0
C170 C 0.82165 0.67278 0.64937 0.0
C171 C 0.80351 0.65216 0.6379 0.0
C172 C 0.70584 0.57149 0.61929 0.0
C173 C 0.69766 0.57312 0.64093 0.0
C174 C 0.67591 0.55289 0.65155 0.0
C175 C 0.6623 0.53049 0.6408 0.0
C176 C 0.6724 0.52849 0.61934 0.0
C177 C 0.69359 0.54879 0.6087 0.0
C178 C 0.72071 0.61837 0.55301 0.0
C179 C 0.70207 0.59708 0.54224 0.0
C180 C 0.83253 0.89565 0.02259 0.0
C181 C 0.8307 0.87134 0.01309 0.0
C182 C 0.81672 0.85004 0.02507 0.0
C183 C 0.80427 0.85305 0.04609 0.0
H184 H 0.75467 0.81347 0.10515 0.0
H185 H 0.71273 0.783 0.12771 0.0
H186 H 0.64502 0.84649 0.15809 0.0
H187 H 0.68808 0.8765 0.13647 0.0
H188 H 0.80461 0.91165 0.15065 0.0
H189 H 0.82679 0.9503 0.16997 0.0
H190 H 0.83673 0.99245 0.11206 0.0
H191 H 0.8153 0.95359 0.09254 0.0
H192 H 0.8225 0.91766 0.05041 0.0
H193 H 0.84349 0.91237 0.01377 0.0
H194 H 0.81467 0.83111 0.01809 0.0
H195 H 0.79337 0.83628 0.05487 0.0
N196 N 0.76768 0.86249 0.08805 0.0
N197 N 0.76786 0.88798 0.11834 0.0
N198 N 0.80561 0.90265 0.08823 0.0
C199 C 0.7546 0.8662 0.10825 0.0
C200 C 0.79356 0.9062 0.10854 0.0
C201 C 0.79302 0.88081 0.07788 0.0
C202 C 0.7253 0.84731 0.11941 0.0
C203 C 0.7304 0.82074 0.11655 0.0
C204 C 0.70628 0.80334 0.12939 0.0
C205 C 0.67633 0.81233 0.14506 0.0
C206 C 0.66896 0.83889 0.1467 0.0
C207 C 0.6935 0.85613 0.13424 0.0
C208 C 0.80808 0.92959 0.12006 0.0
C209 C 0.81162 0.92912 0.14199 0.0
C210 C 0.82456 0.95117 0.15307 0.0
C211 C 0.83336 0.97429 0.14248 0.0
C212 C 0.82988 0.97484 0.12056 0.0
C213 C 0.81784 0.95262 0.10942 0.0
C214 C 0.8062 0.87739 0.05563 0.0
C215 C 0.82072 0.89861 0.04364 0.0
C216 C 0.17158 0.88737 0.49086 0.0
C217 C 0.16779 0.86219 0.49851 0.0
C218 C 0.17674 0.84156 0.48503 0.0
C219 C 0.18899 0.84599 0.46418 0.0
H220 H 0.28394 0.81984 0.41494 0.0
H221 H 0.33199 0.79177 0.39325 0.0
H222 H 0.28694 0.83191 0.33798 0.0
H223 H 0.24006 0.85975 0.3592 0.0
H224 H 0.14039 0.89536 0.36733 0.0
H225 H 0.11694 0.92958 0.34403 0.0
H226 H 0.17055 0.98591 0.38761 0.0
H227 H 0.19235 0.95112 0.41157 0.0
H228 H 0.18453 0.9114 0.4642 0.0
H229 H 0.16476 0.90355 0.50102 0.0
H230 H 0.17413 0.82199 0.49065 0.0
H231 H 0.19521 0.82964 0.45412 0.0
N232 N 0.22512 0.85781 0.42251 0.0
N233 N 0.21306 0.88152 0.39201 0.0
N234 N 0.18355 0.89651 0.42383 0.0
C235 C 0.23156 0.86087 0.40159 0.0
C236 C 0.18929 0.89936 0.40285 0.0
C237 C 0.20107 0.87554 0.43373 0.0
C238 C 0.25849 0.84233 0.38892 0.0
C239 C 0.2842 0.82254 0.39815 0.0
C240 C 0.31162 0.80644 0.38575 0.0
C241 C 0.3139 0.80994 0.36394 0.0
C242 C 0.28694 0.82911 0.35477 0.0
C243 C 0.25976 0.84505 0.36703 0.0
C244 C 0.16845 0.92066 0.39112 0.0
C245 C 0.14637 0.91508 0.37212 0.0
C246 C 0.13337 0.93472 0.35868 0.0
C247 C 0.14309 0.96051 0.36363 0.0
C248 C 0.16267 0.96625 0.38329 0.0
C249 C 0.1751 0.9464 0.39701 0.0
C250 C 0.19146 0.87114 0.45624 0.0
C251 C 0.18275 0.89181 0.46983 0.0
C252 C 0.31563 0.60275 0.99096 0.0
C253 C 0.31803 0.62661 1.00122 0.0
C254 C 0.31357 0.64915 0.98943 0.0
C255 C 0.30639 0.64793 0.96784 0.0
H256 H 0.21507 0.68009 0.92067 0.0
H257 H 0.17485 0.71425 0.90242 0.0
H258 H 0.23261 0.68858 0.84376 0.0
H259 H 0.27121 0.65394 0.86184 0.0
H260 H 0.32701 0.60523 0.86021 0.0
H261 H 0.34874 0.57062 0.83711 0.0
H262 H 0.35108 0.51818 0.88935 0.0
H263 H 0.32962 0.5534 0.91297 0.0
H264 H 0.30796 0.58291 0.96169 0.0
H265 H 0.31905 0.58509 0.99973 0.0
H266 H 0.31495 0.66777 0.99699 0.0
H267 H 0.30292 0.66572 0.95925 0.0
N268 N 0.27576 0.64301 0.92472 0.0
N269 N 0.28674 0.62309 0.89236 0.0
N270 N 0.31309 0.60311 0.9229 0.0
C271 C 0.27018 0.64298 0.90363 0.0
C272 C 0.30816 0.60313 0.90172 0.0
C273 C 0.29724 0.6232 0.93448 0.0
C274 C 0.24645 0.66426 0.89277 0.0
C275 C 0.21921 0.68176 0.90389 0.0
C276 C 0.19627 0.70143 0.89339 0.0
C277 C 0.20047 0.70429 0.87155 0.0
C278 C 0.22782 0.68677 0.86049 0.0
C279 C 0.25031 0.66696 0.87093 0.0
C280 C 0.32574 0.58202 0.88844 0.0
C281 C 0.33216 0.58639 0.86694 0.0
C282 C 0.34455 0.5665 0.85361 0.0
C283 C 0.35063 0.54155 0.86132 0.0
C284 C 0.34648 0.53724 0.88297 0.0
C285 C 0.33415 0.55736 0.89646 0.0
C286 C 0.30443 0.62413 0.95745 0.0
C287 C 0.30946 0.60153 0.96922 0.0
Eu288 Eu 0.05213 0.14182 0.23561 0.0
C289 C 0.85829 0.10638 0.26131 0.0
N290 N 0.87385 0.13101 0.26294 0.0
C291 C 0.80535 0.14629 0.24636 0.0
C292 C 0.81591 0.1007 0.25146 0.0
C293 C 0.8479 0.15096 0.25601 0.0
C294 C 0.78943 0.12104 0.24393 0.0
C295 C 0.87044 0.06106 0.26758 0.0
C296 C 0.88569 0.08681 0.26901 0.0
C297 C 0.82875 0.05525 0.25733 0.0
C298 C 0.80156 0.07501 0.2493 0.0
Eu299 Eu 0.94745 0.13723 0.278 0.0
N300 N 0.92636 0.093 0.27852 0.0
C301 C 0.89687 0.042 0.27705 0.0
C302 C 0.94911 0.07486 0.28977 0.0
C303 C 0.93573 0.04903 0.28868 0.0
H304 H 0.86033 0.17042 0.25782 0.0
H305 H 0.95483 0.03466 0.29718 0.0
H306 H 0.13012 0.09867 0.25075 0.0
H307 H 0.07157 0.24539 0.22307 0.0
H308 H 0.97651 0.08024 0.30022 0.0
H309 H 0.88637 0.022 0.27632 0.0
H310 H 0.0305 0.2041 0.2234 0.0
H311 H 0.78499 0.16213 0.2407 0.0
H312 H 0.81683 0.03554 0.25587 0.0
H313 H 0.76928 0.07025 0.24161 0.0
H314 H 0.21148 0.09768 0.26206 0.0
H315 H 0.75663 0.11748 0.23629 0.0
H316 H 0.15355 0.2478 0.23357 0.0
N317 N 0.12926 0.13906 0.24688 0.0
C318 C 0.15405 0.16135 0.24696 0.0
C319 C 0.19567 0.11574 0.25801 0.0
C320 C 0.20104 0.16161 0.25269 0.0
C321 C 0.14939 0.11637 0.25193 0.0
C322 C 0.2216 0.13847 0.25846 0.0
N323 N 0.08686 0.18318 0.23583 0.0
C324 C 0.06537 0.20479 0.22899 0.0
C325 C 0.1578 0.2072 0.24038 0.0
C326 C 0.13247 0.18393 0.24098 0.0
C327 C 0.13532 0.22956 0.23417 0.0
C328 C 0.08898 0.22831 0.22837 0.0
H329 H 0.25759 0.13789 0.26299 0.0
H330 H 0.26226 0.18534 0.25657 0.0
H331 H 0.22456 0.22518 0.24565 0.0
O332 O 0.04842 0.14982 0.20196 0.0
O333 O 0.06831 0.15815 0.26804 0.0
O334 O 0.99677 0.17095 0.27898 0.0
O335 O 0.0936 0.12028 0.21337 0.0
O336 O 0.98695 0.16484 0.22867 0.0
O337 O 0.95471 0.17499 0.26084 0.0
O338 O 0.94534 0.13285 0.31202 0.0
O339 O 0.93416 0.12735 0.24395 0.0
O340 O 0.0018 0.10823 0.23539 0.0
O341 O 0.89693 0.15783 0.29679 0.0
O342 O 0.01555 0.11781 0.28602 0.0
O343 O 0.0435 0.10494 0.25397 0.0
C344 C 0.0416 0.17032 0.28133 0.0
C345 C 0.11628 0.14154 0.1824 0.0
C346 C 0.14531 0.14358 0.14645 0.0
C347 C 0.18744 0.15343 0.1542 0.0
C348 C 0.15843 0.15153 0.18962 0.0
C349 C 0.19363 0.15759 0.17558 0.0
C350 C 0.1096 0.13798 0.16083 0.0
C351 C 0.95939 0.17873 0.24054 0.0
C352 C 0.08006 0.13323 0.19715 0.0
C353 C 0.22613 0.18478 0.25223 0.0
C354 C 0.20466 0.20746 0.24599 0.0
C355 C 0.95733 0.11082 0.23286 0.0
C356 C 0.87263 0.13745 0.32804 0.0
C357 C 0.84459 0.12936 0.36348 0.0
C358 C 0.80346 0.11922 0.35504 0.0
C359 C 0.83156 0.12703 0.31989 0.0
C360 C 0.87898 0.13853 0.34978 0.0
C361 C 0.79713 0.11804 0.33338 0.0
C362 C 0.04181 0.10291 0.27447 0.0
C363 C 0.90938 0.14733 0.3143 0.0
H364 H 0.21625 0.15735 0.14389 0.0
H365 H 0.16461 0.15416 0.20609 0.0
H366 H 0.22626 0.16502 0.18133 0.0
H367 H 0.07667 0.13058 0.15538 0.0
H368 H 0.77654 0.11174 0.36516 0.0
H369 H 0.82605 0.12588 0.30317 0.0
H370 H 0.91065 0.14674 0.356 0.0
H371 H 0.76551 0.11002 0.32704 0.0
Eu372 Eu 0.44612 0.36047 0.73266 0.0
C373 C 0.65666 0.37196 0.75538 0.0
N374 N 0.62744 0.352 0.75943 0.0
C375 C 0.68464 0.32218 0.74786 0.0
C376 C 0.70065 0.36774 0.74663 0.0
C377 C 0.6419 0.3273 0.75701 0.0
C378 C 0.71384 0.34252 0.74229 0.0
C379 C 0.67531 0.41724 0.75937 0.0
C380 C 0.64409 0.39647 0.76151 0.0
C381 C 0.71832 0.41328 0.74986 0.0
C382 C 0.73084 0.38862 0.74338 0.0
Eu383 Eu 0.55524 0.36271 0.77423 0.0
N384 N 0.60223 0.39978 0.77062 0.0
C385 C 0.66282 0.44126 0.76734 0.0
C386 C 0.59071 0.42286 0.77933 0.0
C387 C 0.62053 0.44401 0.77754 0.0
H388 H 0.62059 0.3114 0.76217 0.0
H389 H 0.61099 0.46236 0.78411 0.0
H390 H 0.35585 0.38559 0.75707 0.0
H391 H 0.46147 0.26398 0.69889 0.0
H392 H 0.55832 0.42487 0.7875 0.0
H393 H 0.68589 0.45767 0.766 0.0
H394 H 0.47738 0.31039 0.70142 0.0
H395 H 0.69529 0.30256 0.74539 0.0
H396 H 0.74255 0.42906 0.74785 0.0
H397 H 0.7646 0.38575 0.73654 0.0
H398 H 0.28521 0.37071 0.7756 0.0
H399 H 0.74725 0.33849 0.7355 0.0
H400 H 0.40034 0.24409 0.7207 0.0
N401 N 0.37603 0.34797 0.74855 0.0
C402 C 0.36511 0.32261 0.74823 0.0
C403 C 0.3075 0.35697 0.76805 0.0
C404 C 0.32576 0.31318 0.75875 0.0
C405 C 0.34719 0.36536 0.75752 0.0
C406 C 0.29712 0.33071 0.76895 0.0
N407 N 0.42886 0.31649 0.72594 0.0
C408 C 0.45175 0.30189 0.71161 0.0
C409 C 0.38161 0.27994 0.73545 0.0
C410 C 0.3928 0.3063 0.7368 0.0
C411 C 0.40776 0.26443 0.72218 0.0
C412 C 0.44233 0.27559 0.70986 0.0
H413 H 0.26653 0.32424 0.77723 0.0
H414 H 0.28627 0.27901 0.7667 0.0
H415 H 0.33515 0.24986 0.74623 0.0
O416 O 0.41096 0.3593 0.702 0.0
O417 O 0.43664 0.35271 0.76717 0.0
O418 O 0.50196 0.33048 0.77431 0.0
O419 O 0.42039 0.39562 0.71867 0.0
O420 O 0.51395 0.34167 0.72391 0.0
O421 O 0.54293 0.32619 0.75491 0.0
O422 O 0.54241 0.36761 0.80781 0.0
O423 O 0.54929 0.39462 0.74961 0.0
O424 O 0.51792 0.37149 0.72306 0.0
O425 O 0.60322 0.34798 0.79761 0.0
O426 O 0.49529 0.38861 0.7827 0.0
O427 O 0.45106 0.39647 0.75271 0.0
C428 C 0.45818 0.33494 0.77765 0.0
C429 C 0.3818 0.39818 0.6851 0.0
C430 C 0.35871 0.4021 0.64849 0.0
C431 C 0.34505 0.42747 0.65237 0.0
C432 C 0.36773 0.42357 0.6886 0.0
C433 C 0.34928 0.43802 0.67234 0.0
C434 C 0.3766 0.38737 0.66503 0.0
C435 C 0.53913 0.32517 0.73441 0.0
C436 C 0.40515 0.38405 0.702 0.0
C437 C 0.31594 0.28672 0.75843 0.0
C438 C 0.34385 0.27012 0.74681 0.0
C439 C 0.53781 0.39243 0.72982 0.0
C440 C 0.60872 0.37126 0.82918 0.0
C441 C 0.63305 0.37776 0.86538 0.0
C442 C 0.66025 0.39881 0.859 0.0
C443 C 0.63765 0.39167 0.82309 0.0
C444 C 0.60699 0.3641 0.85037 0.0
C445 C 0.66271 0.40557 0.83794 0.0
C446 C 0.46482 0.40199 0.77196 0.0
C447 C 0.58095 0.35715 0.81353 0.0
H448 H 0.33077 0.43909 0.63996 0.0
H449 H 0.37146 0.43239 0.70386 0.0
H450 H 0.33862 0.45757 0.67517 0.0
H451 H 0.38803 0.36796 0.66208 0.0
H452 H 0.68088 0.40948 0.87022 0.0
H453 H 0.64152 0.39668 0.80687 0.0
H454 H 0.58562 0.34794 0.85516 0.0
H455 H 0.68469 0.42139 0.83306 0.0
Eu456 Eu 0.06302 0.85306 0.73584 0.0
C457 C 0.84891 0.86068 0.7618 0.0
N458 N 0.88129 0.87973 0.76141 0.0
C459 C 0.82618 0.90905 0.74746 0.0
C460 C 0.80365 0.8651 0.7547 0.0
C461 C 0.87054 0.90377 0.75475 0.0
C462 C 0.79261 0.88961 0.74737 0.0
C463 C 0.82842 0.81642 0.76971 0.0
C464 C 0.86112 0.83662 0.76929 0.0
C465 C 0.78332 0.82075 0.76261 0.0
C466 C 0.77097 0.84502 0.75514 0.0
Eu467 Eu 0.95484 0.86906 0.77409 0.0
N468 N 0.90543 0.83278 0.77551 0.0
C469 C 0.84214 0.79241 0.77714 0.0
C470 C 0.91867 0.80965 0.78331 0.0
C471 C 0.88738 0.78906 0.78407 0.0
H472 H 0.89603 0.919 0.75544 0.0
H473 H 0.89813 0.77064 0.79006 0.0
H474 H 0.13846 0.81946 0.76382 0.0
H475 H 0.0773 0.95138 0.70501 0.0
H476 H 0.95322 0.80696 0.78901 0.0
H477 H 0.81803 0.77639 0.77771 0.0
H478 H 0.04475 0.90795 0.70747 0.0
H479 H 0.81782 0.92813 0.74208 0.0
H480 H 0.75773 0.80545 0.76281 0.0
H481 H 0.73603 0.84805 0.74973 0.0
H482 H 0.21402 0.82616 0.78114 0.0
H483 H 0.75821 0.89377 0.74177 0.0
H484 H 0.14895 0.96253 0.72405 0.0
N485 N 0.13547 0.85755 0.75217 0.0
C486 C 0.15695 0.88078 0.75024 0.0
C487 C 0.19828 0.84168 0.77255 0.0
C488 C 0.19978 0.88551 0.76002 0.0
C489 C 0.15555 0.83795 0.76282 0.0
C490 C 0.22041 0.86558 0.77123 0.0
N491 N 0.09285 0.89527 0.73035 0.0
C492 C 0.07385 0.91283 0.71715 0.0
C493 C 0.15579 0.9247 0.73762 0.0
C494 C 0.13472 0.90025 0.73935 0.0
C495 C 0.1339 0.94352 0.72574 0.0
C496 C 0.09325 0.93738 0.71512 0.0
H497 H 0.25331 0.86848 0.77896 0.0
H498 H 0.25301 0.91403 0.76616 0.0
H499 H 0.21473 0.94825 0.74644 0.0
O500 O 0.0768 0.85306 0.70201 0.0
O501 O 0.07467 0.87148 0.7677 0.0
O502 O 0.01285 0.89782 0.76991 0.0
O503 O 0.11042 0.82513 0.72223 0.0
O504 O 1.00001 0.87263 0.72212 0.0
O505 O 0.97579 0.8978 0.74944 0.0
O506 O 0.95513 0.86563 0.80827 0.0
O507 O 0.93919 0.84429 0.74568 0.0
O508 O 0.0057 0.82301 0.73574 0.0
O509 O 0.92124 0.89767 0.79355 0.0
O510 O 0.01137 0.84347 0.78657 0.0
O511 O 0.04725 0.8215 0.7594 0.0
C512 C 0.05526 0.89223 0.77494 0.0
C513 C 0.13052 0.82354 0.6852 0.0
C514 C 0.14693 0.82297 0.64768 0.0
C515 C 0.18361 0.80619 0.65132 0.0
C516 C 0.16699 0.80642 0.68841 0.0
C517 C 0.19327 0.79782 0.67156 0.0
C518 C 0.12019 0.83152 0.66465 0.0
C519 C 0.97533 0.89167 0.72954 0.0
C520 C 0.10593 0.8343 0.70344 0.0
C521 C 0.22023 0.90999 0.75864 0.0
C522 C 0.19831 0.92952 0.74749 0.0
C523 C 0.96068 0.82613 0.73531 0.0
C524 C 0.88814 0.8817 0.82486 0.0
C525 C 0.8568 0.87569 0.86002 0.0
C526 C 0.81196 0.87676 0.85174 0.0
C527 C 0.84294 0.88263 0.81694 0.0
C528 C 0.89488 0.87795 0.84644 0.0
C529 C 0.80518 0.88006 0.83032 0.0
C530 C 0.03781 0.82493 0.77941 0.0
C531 C 0.92833 0.88533 0.81094 0.0
H532 H 0.20447 0.79934 0.63844 0.0
H533 H 0.17587 0.80006 0.70401 0.0
H534 H 0.22151 0.78478 0.67421 0.0
H535 H 0.0922 0.84474 0.66188 0.0
H536 H 0.78211 0.87483 0.86184 0.0
H537 H 0.83662 0.88563 0.80047 0.0
H538 H 0.92962 0.8774 0.85269 0.0
H539 H 0.77052 0.88082 0.82408 0.0
Eu540 Eu 0.44059 0.64343 0.23524 0.0
C541 C 0.65072 0.65398 0.25232 0.0
N542 N 0.62364 0.63318 0.25645 0.0
C543 C 0.68003 0.60561 0.24102 0.0
C544 C 0.69272 0.65151 0.2414 0.0
C545 C 0.63913 0.60907 0.25224 0.0
C546 C 0.70646 0.62699 0.23515 0.0
C547 C 0.66811 0.69889 0.25893 0.0
C548 C 0.63865 0.67734 0.2609 0.0
C549 C 0.7084 0.69699 0.24684 0.0
C550 C 0.72065 0.67334 0.23805 0.0
Eu551 Eu 0.55245 0.64133 0.27336 0.0
N552 N 0.59965 0.67848 0.27255 0.0
C553 C 0.65718 0.72129 0.26994 0.0
C554 C 0.5905 0.69954 0.28454 0.0
C555 C 0.61877 0.72141 0.28318 0.0
H556 H 0.61988 0.59246 0.25755 0.0
H557 H 0.61073 0.73838 0.2922 0.0
H558 H 0.36014 0.67004 0.26524 0.0
H559 H 0.45088 0.54505 0.20476 0.0
H560 H 0.56048 0.69963 0.29458 0.0
H561 H 0.67899 0.73825 0.26889 0.0
H562 H 0.46898 0.59125 0.2057 0.0
H563 H 0.69145 0.58647 0.23716 0.0
H564 H 0.73118 0.71343 0.24486 0.0
H565 H 0.75275 0.6719 0.22946 0.0
H566 H 0.29201 0.65649 0.28605 0.0
H567 H 0.73846 0.62425 0.22672 0.0
H568 H 0.38936 0.52723 0.22748 0.0
N569 N 0.37425 0.63232 0.25457 0.0
C570 C 0.36063 0.60729 0.25392 0.0
C571 C 0.31112 0.64247 0.27716 0.0
C572 C 0.32247 0.59866 0.26572 0.0
C573 C 0.34959 0.65008 0.26542 0.0
C574 C 0.29774 0.61661 0.27747 0.0
N575 N 0.42258 0.5992 0.23061 0.0
C576 C 0.44405 0.5836 0.21657 0.0
C577 C 0.37328 0.56399 0.24135 0.0
C578 C 0.38602 0.59019 0.24193 0.0
C579 C 0.39799 0.54749 0.22833 0.0
C580 C 0.43293 0.55744 0.21558 0.0
H581 H 0.26822 0.61072 0.28676 0.0
H582 H 0.28164 0.56541 0.27476 0.0
H583 H 0.32598 0.53508 0.25338 0.0
O584 O 0.40217 0.63818 0.20608 0.0
O585 O 0.43989 0.62957 0.26898 0.0
O586 O 0.50564 0.6067 0.27098 0.0
O587 O 0.39991 0.67458 0.22213 0.0
O588 O 0.50699 0.62876 0.2214 0.0
O589 O 0.54269 0.60923 0.24926 0.0
O590 O 0.53786 0.64071 0.30687 0.0
O591 O 0.54062 0.67654 0.25331 0.0
O592 O 0.50641 0.66225 0.22293 0.0
O593 O 0.6041 0.62808 0.29569 0.0
O594 O 0.49159 0.66549 0.28479 0.0
O595 O 0.4477 0.67856 0.25596 0.0
C596 C 0.46203 0.6093 0.27549 0.0
C597 C 0.39749 0.67522 0.18483 0.0
C598 C 0.38933 0.67573 0.14656 0.0
C599 C 0.40955 0.70046 0.14639 0.0
C600 C 0.41837 0.69966 0.18403 0.0
C601 C 0.42425 0.71212 0.16492 0.0
C602 C 0.38355 0.66328 0.16604 0.0
C603 C 0.53736 0.61268 0.22899 0.0
C604 C 0.38963 0.66204 0.20507 0.0
C605 C 0.31055 0.57247 0.26561 0.0
C606 C 0.33592 0.55518 0.25349 0.0
C607 C 0.53299 0.67855 0.23314 0.0
C608 C 0.57818 0.61157 0.32811 0.0
C609 C 0.59079 0.60048 0.36477 0.0
C610 C 0.57948 0.57478 0.36003 0.0
C611 C 0.56665 0.58597 0.32365 0.0
C612 C 0.59029 0.6187 0.34854 0.0
C613 C 0.56763 0.56764 0.3396 0.0
C614 C 0.46182 0.68091 0.27552 0.0
C615 C 0.57782 0.63145 0.31191 0.0
H616 H 0.4135 0.71115 0.13199 0.0
H617 H 0.42996 0.70926 0.19815 0.0
H618 H 0.43988 0.73107 0.16448 0.0
H619 H 0.36861 0.64417 0.16672 0.0
H620 H 0.57913 0.56027 0.37214 0.0
H621 H 0.5571 0.58021 0.30794 0.0
H622 H 0.59979 0.63851 0.3517 0.0
H623 H 0.55916 0.54783 0.33614 0.0
H624 H 0.10962 0.00987 0.36895 0.0
H625 H 0.16028 0.95708 0.32178 0.0
H626 H 0.14337 0.98856 0.29434 0.0
H627 H 0.01734 0.03502 0.33925 0.0
H628 H 0.02424 0.0676 0.34832 0.0
H629 H 0.04186 0.04136 0.36468 0.0
H630 H 0.12411 0.06118 0.36729 0.0
H631 H 0.10657 0.08749 0.35093 0.0
H632 H 0.15561 0.06844 0.34367 0.0
H633 H 0.11436 0.02337 0.2717 0.0
H634 H 0.07973 0.0612 0.25522 0.0
H635 H 0.0545 0.094 0.31662 0.0
C636 C 0.11779 0.0051 0.35289 0.0
C637 C 0.13551 0.98073 0.34755 0.0
C638 C 0.14551 0.97527 0.32628 0.0
C639 C 0.13644 0.99314 0.31055 0.0
C640 C 0.11804 0.01666 0.31625 0.0
C641 C 0.10932 0.02291 0.33688 0.0
C642 C 0.08866 0.0495 0.33852 0.0
C643 C 0.04015 0.04828 0.34827 0.0
C644 C 0.12066 0.06773 0.35083 0.0
C645 C 0.08654 0.0569 0.31559 0.0
C646 C 0.10349 0.03757 0.30306 0.0
C647 C 0.10193 0.03894 0.28133 0.0
C648 C 0.0823 0.0606 0.27211 0.0
C649 C 0.06506 0.08087 0.28456 0.0
C650 C 0.06794 0.07904 0.30663 0.0
H651 H 0.41379 0.50222 0.8643 0.0
H652 H 0.30642 0.53289 0.82443 0.0
H653 H 0.32373 0.50038 0.7977 0.0
H654 H 0.49401 0.48842 0.82405 0.0
H655 H 0.51378 0.45872 0.83517 0.0
H656 H 0.4919 0.48357 0.85196 0.0
H657 H 0.4319 0.45166 0.86747 0.0
H658 H 0.45396 0.42665 0.85086 0.0
H659 H 0.39352 0.4344 0.85015 0.0
H660 H 0.35489 0.46677 0.77448 0.0
H661 H 0.39528 0.43179 0.75664 0.0
H662 H 0.48181 0.42138 0.81149 0.0
C663 C 0.39352 0.50179 0.85008 0.0
C664 C 0.3591 0.52029 0.84635 0.0
C665 C 0.3335 0.51922 0.82747 0.0
C666 C 0.3429 0.50075 0.81222 0.0
C667 C 0.37775 0.48325 0.81611 0.0
C668 C 0.40242 0.48334 0.83461 0.0
C669 C 0.4386 0.46248 0.8345 0.0
C670 C 0.48746 0.474 0.83654 0.0
C671 C 0.4289 0.44262 0.85177 0.0
C672 C 0.43075 0.45105 0.81294 0.0
C673 C 0.39543 0.46336 0.80267 0.0
C674 C 0.38236 0.45678 0.78241 0.0
C675 C 0.40572 0.43688 0.77238 0.0
C676 C 0.44175 0.42364 0.78263 0.0
C677 C 0.45438 0.43098 0.8032 0.0
H678 H 0.6743 0.51229 0.68101 0.0
H679 H 0.59073 0.50155 0.6252 0.0
H680 H 0.54888 0.46609 0.64239 0.0
H681 H 0.68407 0.44647 0.69433 0.0
H682 H 0.67975 0.45171 0.72209 0.0
H683 H 0.70277 0.4766 0.70556 0.0
H684 H 0.64168 0.50806 0.71999 0.0
H685 H 0.61847 0.48305 0.73648 0.0
H686 H 0.58134 0.49952 0.71843 0.0
H687 H 0.51885 0.43058 0.6646 0.0
H688 H 0.50055 0.39783 0.69106 0.0
H689 H 0.59916 0.43308 0.73357 0.0
C690 C 0.64677 0.50276 0.67249 0.0
C691 C 0.63626 0.50962 0.65162 0.0
C692 C 0.60029 0.49634 0.64099 0.0
C693 C 0.57594 0.47631 0.65069 0.0
C694 C 0.58747 0.46993 0.67114 0.0
C695 C 0.62171 0.48284 0.68202 0.0
C696 C 0.62766 0.47176 0.70376 0.0
C697 C 0.67646 0.46099 0.70658 0.0
C698 C 0.61661 0.4918 0.72066 0.0
C699 C 0.59164 0.45048 0.7033 0.0
C700 C 0.56903 0.44977 0.68428 0.0
C701 C 0.53592 0.43111 0.67965 0.0
C702 C 0.52579 0.41258 0.69483 0.0
C703 C 0.54824 0.41296 0.71453 0.0
C704 C 0.58121 0.43237 0.71882 0.0
H705 H 0.90082 0.98039 0.17209 0.0
H706 H 0.79259 0.02112 0.13964 0.0
H707 H 0.81093 0.06029 0.16011 0.0
H708 H 0.88588 0.01081 0.2229 0.0
H709 H 0.94683 0.01205 0.22836 0.0
H710 H 0.9235 0.9869 0.21199 0.0
H711 H 0.98061 0.99982 0.18244 0.0
H712 H 0.00395 0.02497 0.19875 0.0
H713 H 0.98175 0.0325 0.17318 0.0
H714 H 0.83944 0.09446 0.18501 0.0
H715 H 0.88184 0.12269 0.20971 0.0
H716 H 0.97511 0.06057 0.22398 0.0
C717 C 0.8809 0.99756 0.16942 0.0
C718 C 0.84519 0.99784 0.15439 0.0
C719 C 0.8202 0.02066 0.15104 0.0
C720 C 0.83017 0.04289 0.16267 0.0
C721 C 0.86555 0.04199 0.17741 0.0
C722 C 0.89088 0.02001 0.18065 0.0
C723 C 0.92851 0.02448 0.19674 0.0
C724 C 0.92069 0.00755 0.21614 0.0
C725 C 0.97654 0.02019 0.1872 0.0
C726 C 0.92085 0.0525 0.20178 0.0
C727 C 0.88371 0.06209 0.19082 0.0
C728 C 0.8689 0.08725 0.19348 0.0
C729 C 0.8931 0.10311 0.20751 0.0
C730 C 0.93208 0.09384 0.21835 0.0
C731 C 0.94598 0.06822 0.21549 0.0
H732 H 0.87141 0.02061 0.68324 0.0
H733 H 0.82478 0.97583 0.62983 0.0
H734 H 0.85433 0.93652 0.64639 0.0
H735 H 0.97505 0.98781 0.69185 0.0
H736 H 0.97209 0.98913 0.71999 0.0
H737 H 0.9449 0.0136 0.70458 0.0
H738 H 0.86696 0.00408 0.72303 0.0
H739 H 0.89383 0.97949 0.7385 0.0
H740 H 0.84379 0.97183 0.72289 0.0
H741 H 0.89302 0.90259 0.66766 0.0
H742 H 0.93617 0.8761 0.69293 0.0
H743 H 0.9562 0.94282 0.73266 0.0
C744 C 0.86658 0.00248 0.6752 0.0
C745 C 0.8459 0.00131 0.6552 0.0
C746 C 0.84105 0.97724 0.64504 0.0
C747 C 0.85744 0.95478 0.65437 0.0
C748 C 0.8783 0.95668 0.67393 0.0
C749 C 0.88262 0.97986 0.68431 0.0
C750 C 0.90773 0.97673 0.70491 0.0
C751 C 0.9526 0.99277 0.70534 0.0
C752 C 0.87619 0.98343 0.72343 0.0
C753 C 0.91763 0.94829 0.70426 0.0
C754 C 0.90019 0.93704 0.6863 0.0
C755 C 0.90647 0.91112 0.68187 0.0
C756 C 0.93119 0.89629 0.69621 0.0
C757 C 0.94906 0.90745 0.71473 0.0
C758 C 0.94218 0.93376 0.71876 0.0
H759 H 0.65728 0.48717 0.18295 0.0
H760 H 0.63931 0.52162 0.12151 0.0
H761 H 0.61205 0.56105 0.13815 0.0
H762 H 0.55164 0.51143 0.20336 0.0
H763 H 0.57382 0.51612 0.22944 0.0
H764 H 0.59752 0.49151 0.21295 0.0
H765 H 0.67916 0.51131 0.21811 0.0
H766 H 0.65554 0.53623 0.23436 0.0
H767 H 0.68927 0.54457 0.21164 0.0
H768 H 0.5853 0.59647 0.16093 0.0
H769 H 0.55234 0.62407 0.18819 0.0
H770 H 0.57708 0.56496 0.23459 0.0
C771 C 0.64746 0.50281 0.17283 0.0
C772 C 0.65152 0.50105 0.15074 0.0
C773 C 0.63839 0.52242 0.13841 0.0
C774 C 0.62241 0.54499 0.14772 0.0
C775 C 0.61883 0.54591 0.16941 0.0
C776 C 0.63023 0.52529 0.18182 0.0
C777 C 0.61932 0.5306 0.20465 0.0
C778 C 0.58344 0.51127 0.21309 0.0
C779 C 0.66346 0.53068 0.21797 0.0
C780 C 0.59945 0.55732 0.20302 0.0
C781 C 0.60051 0.56592 0.18258 0.0
C782 C 0.58415 0.58993 0.17698 0.0
C783 C 0.56539 0.60543 0.19261 0.0
C784 C 0.56227 0.59674 0.21358 0.0
C785 C 0.57987 0.57238 0.21884 0.0
H786 H 0.40588 0.47475 0.33027 0.0
H787 H 0.31017 0.51549 0.37021 0.0
H788 H 0.32829 0.55583 0.35154 0.0
H789 H 0.49053 0.52297 0.3287 0.0
H790 H 0.50682 0.51902 0.30166 0.0
H791 H 0.48412 0.49214 0.31623 0.0
H792 H 0.41889 0.48483 0.28945 0.0
H793 H 0.44161 0.5109 0.27391 0.0
H794 H 0.38226 0.51116 0.28228 0.0
H795 H 0.35679 0.59168 0.32875 0.0
H796 H 0.3966 0.62116 0.3043 0.0
H797 H 0.47627 0.55773 0.28 0.0
C798 C 0.38828 0.4921 0.33487 0.0
C799 C 0.35659 0.49201 0.3517 0.0
C800 C 0.33485 0.51519 0.3575 0.0
C801 C 0.34469 0.53814 0.3469 0.0
C802 C 0.37643 0.53764 0.33055 0.0
C803 C 0.39793 0.51525 0.32453 0.0
C804 C 0.43222 0.52026 0.30704 0.0
C805 C 0.48136 0.51318 0.3138 0.0
C806 C 0.41788 0.50593 0.28699 0.0
C807 C 0.42722 0.549 0.30446 0.0
C808 C 0.39427 0.55855 0.31794 0.0
C809 C 0.38276 0.58444 0.31818 0.0
C810 C 0.4055 0.60101 0.30426 0.0
C811 C 0.4396 0.59166 0.29044 0.0
C812 C 0.45074 0.56536 0.29064 0.0
H813 H 0.12023 0.024 0.83179 0.0
H814 H 0.22693 0.98275 0.86488 0.0
H815 H 0.20645 0.94323 0.84534 0.0
H816 H 0.03724 0.9734 0.832 0.0
H817 H 0.015 0.98031 0.80631 0.0
H818 H 0.03989 0.00569 0.82191 0.0
H819 H 0.0972 0.01658 0.79194 0.0
H820 H 0.07226 0.99126 0.77625 0.0
H821 H 0.13334 0.99168 0.78149 0.0
H822 H 0.17408 0.90831 0.8224 0.0
H823 H 0.1291 0.87971 0.79909 0.0
H824 H 0.04181 0.94346 0.78182 0.0
C825 C 0.13962 0.00671 0.8347 0.0
C826 C 0.1753 0.00635 0.84972 0.0
C827 C 0.19936 0.9833 0.85346 0.0
C828 C 0.18815 0.96085 0.84238 0.0
C829 C 0.15262 0.96181 0.82774 0.0
C830 C 0.12854 0.98409 0.82394 0.0
C831 C 0.09046 0.97966 0.80809 0.0
C832 C 0.04284 0.98508 0.81766 0.0
C833 C 0.09884 0.99576 0.78827 0.0
C834 C 0.09654 0.95135 0.80375 0.0
C835 C 0.13298 0.94149 0.81502 0.0
C836 C 0.14545 0.91581 0.81352 0.0
C837 C 0.11979 0.89974 0.80022 0.0
C838 C 0.08197 0.90941 0.78876 0.0
C839 C 0.07031 0.93554 0.79057 0.0
H840 H 0.20672 0.15644 0.02517 0.0
H841 H 0.11556 0.09119 0.01381 0.0
H842 H 0.09505 0.09028 0.0512 0.0
H843 H 0.24855 0.13695 0.07419 0.0
H844 H 0.24935 0.16864 0.08553 0.0
H845 H 0.25591 0.16476 0.05772 0.0
H846 H 0.18651 0.19475 0.05134 0.0
H847 H 0.1799 0.19885 0.07916 0.0
H848 H 0.13189 0.18761 0.06362 0.0
H849 H 0.08901 0.09442 0.09028 0.0
H850 H 0.09514 0.10448 0.12777 0.0
H851 H 0.18375 0.16986 0.11305 0.0
C852 C 0.18176 0.14223 0.03039 0.0
C853 C 0.16315 0.12374 0.01644 0.0
C854 C 0.13117 0.10524 0.02417 0.0
C855 C 0.11893 0.10469 0.04538 0.0
C856 C 0.13839 0.12298 0.05869 0.0
C857 C 0.16871 0.14159 0.05146 0.0
C858 C 0.18523 0.15881 0.06909 0.0
C859 C 0.23787 0.15718 0.07178 0.0
C860 C 0.16995 0.18665 0.06559 0.0
C861 C 0.16005 0.14669 0.0874 0.0
C862 C 0.13331 0.12603 0.08108 0.0
C863 C 0.10911 0.11089 0.09538 0.0
C864 C 0.11255 0.11694 0.11671 0.0
C865 C 0.13963 0.13817 0.12363 0.0
C866 C 0.16307 0.15335 0.10855 0.0
H867 H 0.37064 0.407 0.52412 0.0
H868 H 0.28896 0.33658 0.52346 0.0
H869 H 0.29413 0.33437 0.56184 0.0
H870 H 0.44459 0.39134 0.56786 0.0
H871 H 0.44404 0.42348 0.57832 0.0
H872 H 0.43763 0.41835 0.55059 0.0
H873 H 0.3609 0.44347 0.55098 0.0
H874 H 0.3672 0.44879 0.57866 0.0
H875 H 0.31551 0.43371 0.56863 0.0
H876 H 0.30615 0.34046 0.60067 0.0
H877 H 0.3192 0.35636 0.63676 0.0
H878 H 0.3883 0.42398 0.61198 0.0
C879 C 0.35362 0.39112 0.53195 0.0
C880 C 0.3298 0.37183 0.52053 0.0
C881 C 0.30848 0.3513 0.53163 0.0
C882 C 0.31096 0.34992 0.55351 0.0
C883 C 0.33457 0.36929 0.5642 0.0
C884 C 0.3552 0.38961 0.55379 0.0
C885 C 0.37606 0.40877 0.56899 0.0
C886 C 0.4287 0.41058 0.56627 0.0
C887 C 0.35356 0.43525 0.56667 0.0
C888 C 0.36327 0.39627 0.58958 0.0
C889 C 0.34001 0.37329 0.58651 0.0
C890 C 0.3244 0.35841 0.60326 0.0
C891 C 0.33209 0.3675 0.62367 0.0
C892 C 0.35453 0.39139 0.62708 0.0
C893 C 0.37075 0.40572 0.60978 0.0
H894 H 0.65201 0.40054 0.98796 0.0
H895 H 0.70619 0.32321 0.99253 0.0
H896 H 0.68809 0.31607 0.95538 0.0
H897 H 0.56168 0.388 0.95 0.0
H898 H 0.57197 0.41759 0.9361 0.0
H899 H 0.58384 0.41575 0.96372 0.0
H900 H 0.66807 0.4309 0.95718 0.0
H901 H 0.65633 0.43302 0.92961 0.0
H902 H 0.70332 0.41364 0.93879 0.0
H903 H 0.667 0.3178 0.91711 0.0
H904 H 0.65257 0.33003 0.88027 0.0
H905 H 0.61896 0.40715 0.90023 0.0
C906 C 0.66042 0.38208 0.98129 0.0
C907 C 0.68021 0.3624 0.99354 0.0
C908 C 0.68989 0.33848 0.98388 0.0
C909 C 0.67995 0.33423 0.96266 0.0
C910 C 0.66075 0.35411 0.95114 0.0
C911 C 0.65163 0.37767 0.96007 0.0
C912 C 0.63469 0.3966 0.9439 0.0
C913 C 0.5851 0.40497 0.94872 0.0
C914 C 0.66757 0.41991 0.94227 0.0
C915 C 0.63645 0.38014 0.92441 0.0
C916 C 0.65063 0.35552 0.92896 0.0
C917 C 0.65569 0.33699 0.91338 0.0
C918 C 0.64719 0.34403 0.89255 0.0
C919 C 0.63457 0.36946 0.88751 0.0
C920 C 0.62845 0.38755 0.90371 0.0
H921 H 0.77239 0.14181 0.48374 0.0
H922 H 0.91013 0.11628 0.49944 0.0
H923 H 0.9309 0.11628 0.46201 0.0
H924 H 0.75826 0.10413 0.43869 0.0
H925 H 0.72779 0.12797 0.42384 0.0
H926 H 0.72469 0.12814 0.45195 0.0
H927 H 0.75408 0.17528 0.45267 0.0
H928 H 0.75698 0.17532 0.42451 0.0
H929 H 0.80739 0.18357 0.43969 0.0
H930 H 0.93533 0.11641 0.42293 0.0
H931 H 0.92314 0.11679 0.38473 0.0
H932 H 0.78283 0.14274 0.39424 0.0
C933 C 0.80719 0.13674 0.47931 0.0
C934 C 0.83963 0.129 0.4945 0.0
C935 C 0.88459 0.12202 0.48805 0.0
C936 C 0.8968 0.12211 0.46685 0.0
C937 C 0.86376 0.12933 0.45225 0.0
C938 C 0.81995 0.13666 0.45818 0.0
C939 C 0.79034 0.14245 0.43926 0.0
C940 C 0.74777 0.1246 0.43839 0.0
C941 C 0.77638 0.17084 0.43902 0.0
C942 C 0.82397 0.13657 0.42179 0.0
C943 C 0.86628 0.12933 0.42964 0.0
C944 C 0.90252 0.12233 0.41658 0.0
C945 C 0.89531 0.1227 0.3949 0.0
C946 C 0.85211 0.12988 0.38647 0.0
C947 C 0.81614 0.137 0.40019 0.0
H948 H 0.80081 0.90044 0.98031 0.0
H949 H 0.88709 0.83548 0.99527 0.0
H950 H 0.90687 0.83076 0.95776 0.0
H951 H 0.75466 0.87472 0.9332 0.0
H952 H 0.75362 0.90513 0.9198 0.0
H953 H 0.74861 0.9041 0.94784 0.0
H954 H 0.81864 0.93517 0.95122 0.0
H955 H 0.82396 0.93624 0.92316 0.0
H956 H 0.87254 0.92702 0.93894 0.0
H957 H 0.91691 0.83334 0.91833 0.0
H958 H 0.91126 0.8408 0.88012 0.0
H959 H 0.8164 0.90312 0.89134 0.0
C960 C 0.82428 0.8854 0.97571 0.0
C961 C 0.8427 0.86841 0.99066 0.0
C962 C 0.87252 0.84863 0.98401 0.0
C963 C 0.88414 0.84592 0.96279 0.0
C964 C 0.86539 0.86305 0.94844 0.0
C965 C 0.83581 0.88228 0.95463 0.0
C966 C 0.81853 0.89742 0.93608 0.0
C967 C 0.76573 0.89519 0.93412 0.0
C968 C 0.83438 0.92563 0.93744 0.0
C969 C 0.84257 0.88355 0.91843 0.0
C970 C 0.87 0.86402 0.92585 0.0
C971 C 0.89552 0.84858 0.91236 0.0
C972 C 0.89229 0.853 0.89073 0.0
C973 C 0.86327 0.87243 0.88286 0.0
C974 C 0.83857 0.888 0.89696 0.0
H975 H 0.70479 0.58752 0.47826 0.0
H976 H 0.6478 0.66213 0.49299 0.0
H977 H 0.61629 0.66501 0.45721 0.0
H978 H 0.73572 0.60183 0.42434 0.0
H979 H 0.7203 0.57019 0.41509 0.0
H980 H 0.74015 0.57458 0.44156 0.0
H981 H 0.66564 0.55251 0.45536 0.0
H982 H 0.64542 0.54819 0.42894 0.0
H983 H 0.61024 0.56484 0.44773 0.0
H984 H 0.58727 0.6587 0.42057 0.0
H985 H 0.56575 0.64465 0.38504 0.0
H986 H 0.64278 0.5744 0.39383 0.0
C987 C 0.68575 0.60449 0.47395 0.0
C988 C 0.67885 0.62464 0.48844 0.0
C989 C 0.65411 0.64662 0.4821 0.0
C990 C 0.63581 0.64836 0.46185 0.0
C991 C 0.64271 0.628 0.44808 0.0
C992 C 0.66736 0.60657 0.45379 0.0
C993 C 0.66934 0.58725 0.43608 0.0
C994 C 0.71935 0.58324 0.42884 0.0
C995 C 0.64628 0.56169 0.44241 0.0
C996 C 0.64141 0.60102 0.4196 0.0
C997 C 0.62641 0.6245 0.42685 0.0
C998 C 0.59926 0.64049 0.41463 0.0
C999 C 0.58742 0.63237 0.39441 0.0
C1000 C 0.60285 0.6085 0.38648 0.0
C1001 C 0.6301 0.59266 0.3994 0.0
H1002 H 0.38296 0.65467 0.02255 0.0
H1003 H 0.26733 0.60248 0.03161 0.0
H1004 H 0.27439 0.60787 0.07002 0.0
H1005 H 0.44925 0.63286 0.06797 0.0
H1006 H 0.47098 0.66463 0.07372 0.0
H1007 H 0.45753 0.65577 0.04715 0.0
H1008 H 0.40284 0.69467 0.0443 0.0
H1009 H 0.41587 0.70354 0.07088 0.0
H1010 H 0.35684 0.69817 0.06304 0.0
H1011 H 0.28993 0.62247 0.10727 0.0
H1012 H 0.31599 0.64206 0.14031 0.0
H1013 H 0.4266 0.68138 0.10689 0.0
C1014 C 0.35941 0.64424 0.03267 0.0
C1015 C 0.32451 0.62821 0.02421 0.0
C1016 C 0.29445 0.61471 0.03786 0.0
C1017 C 0.29813 0.61774 0.05965 0.0
C1018 C 0.33257 0.63398 0.0675 0.0
C1019 C 0.36315 0.64667 0.05442 0.0
C1020 C 0.39704 0.66301 0.06676 0.0
C1021 C 0.44664 0.65349 0.06372 0.0
C1022 C 0.39287 0.69153 0.06089 0.0
C1023 C 0.38012 0.65804 0.08881 0.0
C1024 C 0.34282 0.64135 0.08893 0.0
C1025 C 0.31974 0.63515 0.10739 0.0
C1026 C 0.33517 0.64629 0.12619 0.0
C1027 C 0.37383 0.66328 0.12655 0.0
C1028 C 0.39665 0.66884 0.10745 0.0
H1029 H 0.21331 0.8756 0.53448 0.0
H1030 H 0.09054 0.83683 0.51148 0.0
H1031 H 0.06734 0.8266 0.54785 0.0
H1032 H 0.23848 0.83008 0.57333 0.0
H1033 H 0.25987 0.85302 0.59219 0.0
H1034 H 0.26357 0.86006 0.5647 0.0
H1035 H 0.21895 0.9023 0.57066 0.0
H1036 H 0.21494 0.89531 0.59822 0.0
H1037 H 0.16337 0.90121 0.5833 0.0
H1038 H 0.05915 0.81918 0.58667 0.0
H1039 H 0.07083 0.81112 0.62452 0.0
H1040 H 0.20158 0.85197 0.62196 0.0
C1041 C 0.18117 0.86538 0.53723 0.0
C1042 C 0.15327 0.85724 0.52034 0.0
C1043 C 0.11205 0.84332 0.52433 0.0
C1044 C 0.09856 0.83756 0.5449 0.0
C1045 C 0.12696 0.84566 0.56128 0.0
C1046 C 0.16765 0.85906 0.55766 0.0
C1047 C 0.19402 0.86346 0.57784 0.0
C1048 C 0.2418 0.85089 0.57695 0.0
C1049 C 0.19805 0.89228 0.58279 0.0
C1050 C 0.16245 0.84991 0.59327 0.0
C1051 C 0.12337 0.84032 0.5835 0.0
C1052 C 0.0895 0.82671 0.5945 0.0
C1053 C 0.09625 0.82229 0.61595 0.0
C1054 C 0.13689 0.83106 0.626 0.0
C1055 C 0.17006 0.84527 0.61457 0.0
H1056 H 0.22294 0.26817 0.33301 0.0
H1057 H 0.12592 0.27646 0.38423 0.0
H1058 H 0.07475 0.24397 0.36799 0.0
H1059 H 0.13805 0.26189 0.29322 0.0
H1060 H 0.16906 0.23868 0.27805 0.0
H1061 H 0.20024 0.26142 0.29397 0.0
H1062 H 0.24152 0.22464 0.31323 0.0
H1063 H 0.21137 0.20142 0.29726 0.0
H1064 H 0.20782 0.19946 0.32535 0.0
H1065 H 0.03196 0.21281 0.34525 0.0
H1066 H 0.00137 0.18376 0.31799 0.0
H1067 H 0.12749 0.19394 0.28232 0.0
C1068 C 0.19102 0.26304 0.34083 0.0
C1069 C 0.17851 0.27472 0.35995 0.0
C1070 C 0.13649 0.26748 0.36973 0.0
C1071 C 0.10713 0.24912 0.3606 0.0
C1072 C 0.12042 0.23802 0.34175 0.0
C1073 C 0.16147 0.24453 0.33203 0.0
C1074 C 0.16682 0.23024 0.31153 0.0
C1075 C 0.16866 0.24919 0.29311 0.0
C1076 C 0.20942 0.21291 0.31187 0.0
C1077 C 0.12251 0.21455 0.31133 0.0
C1078 C 0.09608 0.21955 0.32882 0.0
C1079 C 0.05257 0.20853 0.3316 0.0
C1080 C 0.03547 0.1921 0.316 0.0
C1081 C 0.06202 0.18656 0.29797 0.0
C1082 C 0.10643 0.19765 0.29585 0.0
H1083 H 0.37786 0.20952 0.84001 0.0
H1084 H 0.26999 0.25583 0.86759 0.0
H1085 H 0.29929 0.29373 0.84841 0.0
H1086 H 0.46734 0.25776 0.841 0.0
H1087 H 0.4916 0.24858 0.81617 0.0
H1088 H 0.4624 0.22499 0.8321 0.0
H1089 H 0.40758 0.21401 0.80122 0.0
H1090 H 0.43666 0.23755 0.7852 0.0
H1091 H 0.3752 0.2393 0.78904 0.0
H1092 H 0.3383 0.32611 0.82551 0.0
H1093 H 0.38643 0.35146 0.80111 0.0
H1094 H 0.46982 0.2845 0.78859 0.0
C1095 C 0.36031 0.22762 0.84195 0.0
C1096 C 0.32171 0.22975 0.85537 0.0
C1097 C 0.3 0.25383 0.85765 0.0
C1098 C 0.31619 0.27542 0.84672 0.0
C1099 C 0.35422 0.27263 0.83362 0.0
C1100 C 0.37612 0.24939 0.83121 0.0
C1101 C 0.41632 0.25166 0.81611 0.0
C1102 C 0.46212 0.24538 0.827 0.0
C1103 C 0.40845 0.23462 0.79675 0.0
C1104 C 0.41376 0.27985 0.81055 0.0
C1105 C 0.37741 0.29151 0.8207 0.0
C1106 C 0.36705 0.31725 0.8176 0.0
C1107 C 0.39449 0.33145 0.8037 0.0
C1108 C 0.4319 0.31992 0.79316 0.0
C1109 C 0.44187 0.29385 0.79676 0.0
H1110 H 0.64071 0.199 0.68171 0.0
H1111 H 0.72283 0.24981 0.64241 0.0
H1112 H 0.69338 0.28713 0.66174 0.0
H1113 H 0.54261 0.23899 0.68572 0.0
H1114 H 0.53065 0.23133 0.71268 0.0
H1115 H 0.55928 0.20836 0.69625 0.0
H1116 H 0.62692 0.20634 0.72273 0.0
H1117 H 0.5984 0.2294 0.73918 0.0
H1118 H 0.65643 0.23556 0.73023 0.0
H1119 H 0.65193 0.31893 0.6834 0.0
H1120 H 0.60111 0.3436 0.70682 0.0
H1121 H 0.54881 0.2728 0.73383 0.0
C1122 C 0.653 0.21794 0.67736 0.0
C1123 C 0.68392 0.22144 0.66041 0.0
C1124 C 0.69857 0.24662 0.65505 0.0
C1125 C 0.68237 0.26795 0.66606 0.0
C1126 C 0.65182 0.26383 0.68255 0.0
C1127 C 0.63733 0.23951 0.68828 0.0
C1128 C 0.6032 0.2406 0.70626 0.0
C1129 C 0.55616 0.22914 0.69983 0.0
C1130 C 0.6224 0.22718 0.72576 0.0
C1131 C 0.60038 0.26937 0.70953 0.0
C1132 C 0.62879 0.28234 0.69563 0.0
C1133 C 0.63005 0.30902 0.69455 0.0
C1134 C 0.60107 0.32283 0.70782 0.0
C1135 C 0.57188 0.30996 0.7222 0.0
C1136 C 0.57184 0.28294 0.72328 0.0
H1137 H 0.86468 0.26925 0.1489 0.0
H1138 H 0.78641 0.3085 0.19702 0.0
H1139 H 0.8172 0.27917 0.22355 0.0
H1140 H 0.84863 0.20475 0.17063 0.0
H1141 H 0.90583 0.19452 0.16368 0.0
H1142 H 0.87718 0.21836 0.14811 0.0
H1143 H 0.9465 0.24949 0.15344 0.0
H1144 H 0.97518 0.2258 0.16913 0.0
H1145 H 0.965 0.25737 0.17962 0.0
H1146 H 0.85847 0.24763 0.24512 0.0
H1147 H 0.90464 0.2133 0.26062 0.0
H1148 H 0.95429 0.19231 0.1988 0.0
C1149 C 0.85362 0.27143 0.16498 0.0
C1150 C 0.82359 0.29143 0.17091 0.0
C1151 C 0.81015 0.29373 0.19215 0.0
C1152 C 0.82722 0.27707 0.20734 0.0
C1153 C 0.8574 0.25797 0.20108 0.0
C1154 C 0.87024 0.25481 0.18043 0.0
C1155 C 0.90342 0.23261 0.17813 0.0
C1156 C 0.8825 0.2113 0.16432 0.0
C1157 C 0.95029 0.24188 0.16958 0.0
C1158 C 0.90733 0.22404 0.20073 0.0
C1159 C 0.88056 0.23906 0.21364 0.0
C1160 C 0.87924 0.23552 0.23518 0.0
C1161 C 0.9057 0.21592 0.24382 0.0
C1162 C 0.93287 0.19985 0.23095 0.0
C1163 C 0.93371 0.20412 0.20908 0.0
H1164 H 0.90139 0.70544 0.66171 0.0
H1165 H 0.76761 0.73984 0.65156 0.0
H1166 H 0.78946 0.77592 0.67476 0.0
H1167 H 0.91415 0.72253 0.7157 0.0
H1168 H 0.97496 0.72978 0.71389 0.0
H1169 H 0.94915 0.70659 0.69644 0.0
H1170 H 0.97977 0.73225 0.66453 0.0
H1171 H 0.00585 0.75546 0.6819 0.0
H1172 H 0.96597 0.76578 0.66207 0.0
H1173 H 0.82436 0.80732 0.69955 0.0
H1174 H 0.87208 0.83415 0.72272 0.0
H1175 H 0.98481 0.78028 0.71665 0.0
C1176 C 0.87685 0.72063 0.6644 0.0
C1177 C 0.83283 0.71997 0.65488 0.0
C1178 C 0.80163 0.7402 0.65857 0.0
C1179 C 0.81363 0.76064 0.67179 0.0
C1180 C 0.85716 0.7607 0.68101 0.0
C1181 C 0.88855 0.74143 0.67734 0.0
C1182 C 0.93344 0.74657 0.68889 0.0
C1183 C 0.94349 0.72509 0.70467 0.0
C1184 C 0.97363 0.75023 0.67342 0.0
C1185 C 0.92202 0.77152 0.69987 0.0
C1186 C 0.87776 0.77921 0.69513 0.0
C1187 C 0.85908 0.80151 0.70338 0.0
C1188 C 0.88648 0.81654 0.71671 0.0
C1189 C 0.93216 0.80924 0.72174 0.0
C1190 C 0.95006 0.78638 0.71315 0.0
H1191 H 0.6389 0.76336 0.13937 0.0
H1192 H 0.66791 0.82111 0.18683 0.0
H1193 H 0.63127 0.79381 0.21338 0.0
H1194 H 0.52863 0.74234 0.15974 0.0
H1195 H 0.53729 0.70875 0.15443 0.0
H1196 H 0.565 0.73272 0.1383 0.0
H1197 H 0.64491 0.71309 0.14607 0.0
H1198 H 0.61749 0.68879 0.16194 0.0
H1199 H 0.6627 0.70869 0.17284 0.0
H1200 H 0.59028 0.76201 0.23465 0.0
H1201 H 0.55237 0.72467 0.2507 0.0
H1202 H 0.55363 0.68477 0.19111 0.0
C1203 C 0.63767 0.77017 0.15536 0.0
C1204 C 0.65542 0.79473 0.16086 0.0
C1205 C 0.65331 0.80283 0.18202 0.0
C1206 C 0.63281 0.78737 0.1973 0.0
C1207 C 0.61491 0.76365 0.19133 0.0
C1208 C 0.61746 0.7548 0.171 0.0
C1209 C 0.59634 0.72803 0.16923 0.0
C1210 C 0.55432 0.72797 0.15455 0.0
C1211 C 0.63253 0.70849 0.1621 0.0
C1212 C 0.58185 0.72338 0.19176 0.0
C1213 C 0.59266 0.74439 0.20407 0.0
C1214 C 0.5823 0.74524 0.22527 0.0
C1215 C 0.56119 0.72379 0.23431 0.0
C1216 C 0.55149 0.70151 0.22237 0.0
C1217 C 0.56106 0.70148 0.20066 0.0
H1218 H 0.32786 0.75749 0.36479 0.0
H1219 H 0.36949 0.82726 0.33251 0.0
H1220 H 0.41404 0.80173 0.30733 0.0
H1221 H 0.43842 0.72361 0.35759 0.0
H1222 H 0.41051 0.69289 0.3537 0.0
H1223 H 0.38396 0.7167 0.37012 0.0
H1224 H 0.30964 0.71371 0.3477 0.0
H1225 H 0.33612 0.6901 0.3311 0.0
H1226 H 0.31319 0.71901 0.31988 0.0
H1227 H 0.44642 0.76899 0.28341 0.0
H1228 H 0.47208 0.7305 0.26411 0.0
H1229 H 0.41557 0.6817 0.31282 0.0
C1230 C 0.34717 0.76739 0.35269 0.0
C1231 C 0.34475 0.79437 0.35049 0.0
C1232 C 0.37011 0.80659 0.33428 0.0
C1233 C 0.39573 0.79228 0.31995 0.0
C1234 C 0.39625 0.76573 0.32214 0.0
C1235 C 0.37331 0.75334 0.33825 0.0
C1236 C 0.37872 0.72445 0.33655 0.0
C1237 C 0.40445 0.71379 0.35563 0.0
C1238 C 0.33161 0.71104 0.33363 0.0
C1239 C 0.40776 0.72264 0.31687 0.0
C1240 C 0.41708 0.74672 0.30875 0.0
C1241 C 0.44021 0.75005 0.28981 0.0
C1242 C 0.45448 0.72818 0.27894 0.0
C1243 C 0.44632 0.70344 0.28724 0.0
C1244 C 0.42293 0.70058 0.30647 0.0
H1245 H 0.16033 0.70391 0.83224 0.0
H1246 H 0.18869 0.7536 0.88547 0.0
H1247 H 0.15027 0.78919 0.86746 0.0
H1248 H 0.18191 0.75259 0.79267 0.0
H1249 H 0.13685 0.74107 0.77554 0.0
H1250 H 0.16586 0.71905 0.79269 0.0
H1251 H 0.08718 0.70504 0.80844 0.0
H1252 H 0.05798 0.72704 0.79137 0.0
H1253 H 0.04953 0.72899 0.81925 0.0
H1254 H 0.10815 0.81906 0.84447 0.0
H1255 H 0.06599 0.84231 0.8172 0.0
H1256 H 0.06795 0.77467 0.77747 0.0
C1257 C 0.15893 0.72232 0.84007 0.0
C1258 C 0.17732 0.72577 0.86045 0.0
C1259 C 0.17407 0.75018 0.87012 0.0
C1260 C 0.15265 0.77063 0.85994 0.0
C1261 C 0.13495 0.76653 0.83996 0.0
C1262 C 0.13802 0.74308 0.83002 0.0
C1263 C 0.11631 0.74402 0.80841 0.0
C1264 C 0.15239 0.73888 0.79132 0.0
C1265 C 0.07532 0.72515 0.80678 0.0
C1266 C 0.10033 0.77165 0.80786 0.0
C1267 C 0.11139 0.78415 0.82631 0.0
C1268 C 0.09937 0.80952 0.82994 0.0
C1269 C 0.07516 0.82249 0.81437 0.0
C1270 C 0.06342 0.81021 0.79528 0.0
C1271 C 0.07662 0.78451 0.79189 0.0
loop_
_geom_bond_atom_site_label_1
_geom_bond_atom_site_label_2
_geom_bond_distance
_geom_bond_site_symmetry_2
_ccdc_geom_bond_type
C0 C1 1.384 . S
C0 H13 0.947 . S
C0 C35 1.382 . S
C1 C0 1.384 . S
C1 C2 1.378 . S
C2 C1 1.378 . S
C2 C3 1.378 . S
C2 H14 0.952 . S
C3 C2 1.378 . S
C3 H15 0.950 . S
C3 C34 1.383 . S
H4 C23 0.947 . S
H5 C24 0.946 . S
H6 C26 0.953 . S
H7 C27 0.945 . S
H8 C29 0.952 . S
H9 C30 0.949 . S
H10 C32 0.950 . S
H11 C33 0.948 . S
H12 C35 0.951 . S
H13 C0 0.947 . S
H14 C2 0.952 . S
H15 C3 0.950 . S
N16 C19 1.382 . S
N16 C21 1.363 . S
N17 C19 1.371 . S
N17 C20 1.372 . S
N18 C20 1.361 . S
N18 C21 1.377 . S
C19 N16 1.382 . S
C19 N17 1.371 . S
C19 C22 1.480 . S
C20 N17 1.372 . S
C20 N18 1.361 . S
C20 C28 1.457 . S
C21 N16 1.363 . S
C21 N18 1.377 . S
C21 C34 1.479 . S
C22 C19 1.480 . S
C22 C23 1.383 . S
C22 C27 1.385 . S
C23 H4 0.947 . S
C23 C22 1.383 . S
C23 C24 1.388 . S
C24 H5 0.946 . S
C24 C23 1.388 . S
C24 C25 1.384 . S
C25 C24 1.384 . S
C25 C26 1.377 . S
C26 H6 0.953 . S
C26 C25 1.377 . S
C26 C27 1.369 . S
C27 H7 0.945 . S
C27 C22 1.385 . S
C27 C26 1.369 . S
C28 C20 1.457 . S
C28 C29 1.372 . S
C28 C33 1.364 . S
C29 H8 0.952 . S
C29 C28 1.372 . S
C29 C30 1.389 . S
C30 H9 0.949 . S
C30 C29 1.389 . S
C30 C31 1.387 . S
C31 C30 1.387 . S
C31 C32 1.372 . S
C32 H10 0.950 . S
C32 C31 1.372 . S
C32 C33 1.379 . S
C33 H11 0.948 . S
C33 C28 1.364 . S
C33 C32 1.379 . S
C34 C3 1.383 . S
C34 C21 1.479 . S
C34 C35 1.398 . S
C35 C0 1.382 . S
C35 H12 0.951 . S
C35 C34 1.398 . S
C36 C37 1.384 . S
C36 H49 0.947 . S
C36 C71 1.382 . S
C37 C36 1.384 . S
C37 C38 1.378 . S
C38 C37 1.378 . S
C38 C39 1.378 . S
C38 H50 0.952 . S
C39 C38 1.378 . S
C39 H51 0.950 . S
C39 C70 1.383 . S
H40 C59 0.947 . S
H41 C60 0.946 . S
H42 C62 0.953 . S
H43 C63 0.945 . S
H44 C65 0.952 . S
H45 C66 0.949 . S
H46 C68 0.950 . S
H47 C69 0.948 . S
H48 C71 0.951 . S
H49 C36 0.947 . S
H50 C38 0.952 . S
H51 C39 0.950 . S
N52 C55 1.382 . S
N52 C57 1.363 . S
N53 C55 1.371 . S
N53 C56 1.372 . S
N54 C56 1.361 . S
N54 C57 1.377 . S
C55 N52 1.382 . S
C55 N53 1.371 . S
C55 C58 1.480 . S
C56 N53 1.372 . S
C56 N54 1.361 . S
C56 C64 1.457 . S
C57 N52 1.363 . S
C57 N54 1.377 . S
C57 C70 1.479 . S
C58 C55 1.480 . S
C58 C59 1.383 . S
C58 C63 1.385 . S
C59 H40 0.947 . S
C59 C58 1.383 . S
C59 C60 1.388 . S
C60 H41 0.946 . S
C60 C59 1.388 . S
C60 C61 1.384 . S
C61 C60 1.384 . S
C61 C62 1.377 . S
C62 H42 0.953 . S
C62 C61 1.377 . S
C62 C63 1.369 . S
C63 H43 0.945 . S
C63 C58 1.385 . S
C63 C62 1.369 . S
C64 C56 1.457 . S
C64 C65 1.372 . S
C64 C69 1.364 . S
C65 H44 0.952 . S
C65 C64 1.372 . S
C65 C66 1.389 . S
C66 H45 0.949 . S
C66 C65 1.389 . S
C66 C67 1.387 . S
C67 C66 1.387 . S
C67 C68 1.372 . S
C68 H46 0.950 . S
C68 C67 1.372 . S
C68 C69 1.379 . S
C69 H47 0.948 . S
C69 C64 1.364 . S
C69 C68 1.379 . S
C70 C39 1.383 . S
C70 C57 1.479 . S
C70 C71 1.398 . S
C71 C36 1.382 . S
C71 H48 0.951 . S
C71 C70 1.398 . S
C72 C73 1.384 . S
C72 H85 0.947 . S
C72 C107 1.382 . S
C73 C72 1.384 . S
C73 C74 1.378 . S
C74 C73 1.378 . S
C74 C75 1.378 . S
C74 H86 0.952 . S
C75 C74 1.378 . S
C75 H87 0.950 . S
C75 C106 1.383 . S
H76 C95 0.947 . S
H77 C96 0.946 . S
H78 C98 0.953 . S
H79 C99 0.945 . S
H80 C101 0.952 . S
H81 C102 0.949 . S
H82 C104 0.950 . S
H83 C105 0.948 . S
H84 C107 0.951 . S
H85 C72 0.947 . S
H86 C74 0.952 . S
H87 C75 0.950 . S
N88 C91 1.382 . S
N88 C93 1.363 . S
N89 C91 1.371 . S
N89 C92 1.372 . S
N90 C92 1.361 . S
N90 C93 1.377 . S
C91 N88 1.382 . S
C91 N89 1.371 . S
C91 C94 1.480 . S
C92 N89 1.372 . S
C92 N90 1.361 . S
C92 C100 1.457 . S
C93 N88 1.363 . S
C93 N90 1.377 . S
C93 C106 1.479 . S
C94 C91 1.480 . S
C94 C95 1.383 . S
C94 C99 1.385 . S
C95 H76 0.947 . S
C95 C94 1.383 . S
C95 C96 1.388 . S
C96 H77 0.946 . S
C96 C95 1.388 . S
C96 C97 1.384 . S
C97 C96 1.384 . S
C97 C98 1.377 . S
C98 H78 0.953 . S
C98 C97 1.377 . S
C98 C99 1.369 . S
C99 H79 0.945 . S
C99 C94 1.385 . S
C99 C98 1.369 . S
C100 C92 1.457 . S
C100 C101 1.372 . S
C100 C105 1.364 . S
C101 H80 0.952 . S
C101 C100 1.372 . S
C101 C102 1.389 . S
C102 H81 0.949 . S
C102 C101 1.389 . S
C102 C103 1.387 . S
C103 C102 1.387 . S
C103 C104 1.372 . S
C104 H82 0.950 . S
C104 C103 1.372 . S
C104 C105 1.379 . S
C105 H83 0.948 . S
C105 C100 1.364 . S
C105 C104 1.379 . S
C106 C75 1.383 . S
C106 C93 1.479 . S
C106 C107 1.398 . S
C107 C72 1.382 . S
C107 H84 0.951 . S
C107 C106 1.398 . S
C108 C109 1.384 . S
C108 H121 0.947 . S
C108 C143 1.382 . S
C109 C108 1.384 . S
C109 C110 1.378 . S
C110 C109 1.378 . S
C110 C111 1.378 . S
C110 H122 0.952 . S
C111 C110 1.378 . S
C111 H123 0.950 . S
C111 C142 1.383 . S
H112 C131 0.947 . S
H113 C132 0.946 . S
H114 C134 0.953 . S
H115 C135 0.945 . S
H116 C137 0.952 . S
H117 C138 0.949 . S
H118 C140 0.950 . S
H119 C141 0.948 . S
H120 C143 0.951 . S
H121 C108 0.947 . S
H122 C110 0.952 . S
H123 C111 0.950 . S
N124 C127 1.382 . S
N124 C129 1.363 . S
N125 C127 1.371 . S
N125 C128 1.372 . S
N126 C128 1.361 . S
N126 C129 1.377 . S
C127 N124 1.382 . S
C127 N125 1.371 . S
C127 C130 1.480 . S
C128 N125 1.372 . S
C128 N126 1.361 . S
C128 C136 1.457 . S
C129 N124 1.363 . S
C129 N126 1.377 . S
C129 C142 1.479 . S
C130 C127 1.480 . S
C130 C131 1.383 . S
C130 C135 1.385 . S
C131 H112 0.947 . S
C131 C130 1.383 . S
C131 C132 1.388 . S
C132 H113 0.946 . S
C132 C131 1.388 . S
C132 C133 1.384 . S
C133 C132 1.384 . S
C133 C134 1.377 . S
C134 H114 0.953 . S
C134 C133 1.377 . S
C134 C135 1.369 . S
C135 H115 0.945 . S
C135 C130 1.385 . S
C135 C134 1.369 . S
C136 C128 1.457 . S
C136 C137 1.372 . S
C136 C141 1.364 . S
C137 H116 0.952 . S
C137 C136 1.372 . S
C137 C138 1.389 . S
C138 H117 0.949 . S
C138 C137 1.389 . S
C138 C139 1.387 . S
C139 C138 1.387 . S
C139 C140 1.372 . S
C140 H118 0.950 . S
C140 C139 1.372 . S
C140 C141 1.379 . S
C141 H119 0.948 . S
C141 C136 1.364 . S
C141 C140 1.379 . S
C142 C111 1.383 . S
C142 C129 1.479 . S
C142 C143 1.398 . S
C143 C108 1.382 . S
C143 H120 0.951 . S
C143 C142 1.398 . S
C144 C145 1.384 . S
C144 H157 0.947 . S
C144 C179 1.382 . S
C145 C144 1.384 . S
C145 C146 1.378 . S
C146 C145 1.378 . S
C146 C147 1.378 . S
C146 H158 0.952 . S
C147 C146 1.378 . S
C147 H159 0.950 . S
C147 C178 1.383 . S
H148 C167 0.947 . S
H149 C168 0.946 . S
H150 C170 0.953 . S
H151 C171 0.945 . S
H152 C173 0.952 . S
H153 C174 0.949 . S
H154 C176 0.950 . S
H155 C177 0.948 . S
H156 C179 0.951 . S
H157 C144 0.947 . S
H158 C146 0.952 . S
H159 C147 0.950 . S
N160 C163 1.382 . S
N160 C165 1.363 . S
N161 C163 1.371 . S
N161 C164 1.372 . S
N162 C164 1.361 . S
N162 C165 1.377 . S
C163 N160 1.382 . S
C163 N161 1.371 . S
C163 C166 1.480 . S
C164 N161 1.372 . S
C164 N162 1.361 . S
C164 C172 1.457 . S
C165 N160 1.363 . S
C165 N162 1.377 . S
C165 C178 1.479 . S
C166 C163 1.480 . S
C166 C167 1.383 . S
C166 C171 1.385 . S
C167 H148 0.947 . S
C167 C166 1.383 . S
C167 C168 1.388 . S
C168 H149 0.946 . S
C168 C167 1.388 . S
C168 C169 1.384 . S
C169 C168 1.384 . S
C169 C170 1.377 . S
C170 H150 0.953 . S
C170 C169 1.377 . S
C170 C171 1.369 . S
C171 H151 0.945 . S
C171 C166 1.385 . S
C171 C170 1.369 . S
C172 C164 1.457 . S
C172 C173 1.372 . S
C172 C177 1.364 . S
C173 H152 0.952 . S
C173 C172 1.372 . S
C173 C174 1.389 . S
C174 H153 0.949 . S
C174 C173 1.389 . S
C174 C175 1.387 . S
C175 C174 1.387 . S
C175 C176 1.372 . S
C176 H154 0.950 . S
C176 C175 1.372 . S
C176 C177 1.379 . S
C177 H155 0.948 . S
C177 C172 1.364 . S
C177 C176 1.379 . S
C178 C147 1.383 . S
C178 C165 1.479 . S
C178 C179 1.398 . S
C179 C144 1.382 . S
C179 H156 0.951 . S
C179 C178 1.398 . S
C180 C181 1.384 . S
C180 H193 0.947 . S
C180 C215 1.382 . S
C181 C180 1.384 . S
C181 C182 1.378 . S
C182 C181 1.378 . S
C182 C183 1.378 . S
C182 H194 0.952 . S
C183 C182 1.378 . S
C183 H195 0.950 . S
C183 C214 1.383 . S
H184 C203 0.947 . S
H185 C204 0.946 . S
H186 C206 0.953 . S
H187 C207 0.945 . S
H188 C209 0.952 . S
H189 C210 0.949 . S
H190 C212 0.950 . S
H191 C213 0.948 . S
H192 C215 0.951 . S
H193 C180 0.947 . S
H194 C182 0.952 . S
H195 C183 0.950 . S
N196 C199 1.382 . S
N196 C201 1.363 . S
N197 C199 1.371 . S
N197 C200 1.372 . S
N198 C200 1.361 . S
N198 C201 1.377 . S
C199 N196 1.382 . S
C199 N197 1.371 . S
C199 C202 1.480 . S
C200 N197 1.372 . S
C200 N198 1.361 . S
C200 C208 1.457 . S
C201 N196 1.363 . S
C201 N198 1.377 . S
C201 C214 1.479 . S
C202 C199 1.480 . S
C202 C203 1.383 . S
C202 C207 1.385 . S
C203 H184 0.947 . S
C203 C202 1.383 . S
C203 C204 1.388 . S
C204 H185 0.946 . S
C204 C203 1.388 . S
C204 C205 1.384 . S
C205 C204 1.384 . S
C205 C206 1.377 . S
C206 H186 0.953 . S
C206 C205 1.377 . S
C206 C207 1.369 . S
C207 H187 0.945 . S
C207 C202 1.385 . S
C207 C206 1.369 . S
C208 C200 1.457 . S
C208 C209 1.372 . S
C208 C213 1.364 . S
C209 H188 0.952 . S
C209 C208 1.372 . S
C209 C210 1.389 . S
C210 H189 0.949 . S
C210 C209 1.389 . S
C210 C211 1.387 . S
C211 C210 1.387 . S
C211 C212 1.372 . S
C212 H190 0.950 . S
C212 C211 1.372 . S
C212 C213 1.379 . S
C213 H191 0.948 . S
C213 C208 1.364 . S
C213 C212 1.379 . S
C214 C183 1.383 . S
C214 C201 1.479 . S
C214 C215 1.398 . S
C215 C180 1.382 . S
C215 H192 0.951 . S
C215 C214 1.398 . S
C216 C217 1.384 . S
C216 H229 0.947 . S
C216 C251 1.382 . S
C217 C216 1.384 . S
C217 C218 1.378 . S
C218 C217 1.378 . S
C218 C219 1.378 . S
C218 H230 0.952 . S
C219 C218 1.378 . S
C219 H231 0.950 . S
C219 C250 1.383 . S
H220 C239 0.947 . S
H221 C240 0.946 . S
H222 C242 0.953 . S
H223 C243 0.945 . S
H224 C245 0.952 . S
H225 C246 0.949 . S
H226 C248 0.950 . S
H227 C249 0.948 . S
H228 C251 0.951 . S
H229 C216 0.947 . S
H230 C218 0.952 . S
H231 C219 0.950 . S
N232 C235 1.382 . S
N232 C237 1.363 . S
N233 C235 1.371 . S
N233 C236 1.372 . S
N234 C236 1.361 . S
N234 C237 1.377 . S
C235 N232 1.382 . S
C235 N233 1.371 . S
C235 C238 1.480 . S
C236 N233 1.372 . S
C236 N234 1.361 . S
C236 C244 1.457 . S
C237 N232 1.363 . S
C237 N234 1.377 . S
C237 C250 1.479 . S
C238 C235 1.480 . S
C238 C239 1.383 . S
C238 C243 1.385 . S
C239 H220 0.947 . S
C239 C238 1.383 . S
C239 C240 1.388 . S
C240 H221 0.946 . S
C240 C239 1.388 . S
C240 C241 1.384 . S
C241 C240 1.384 . S
C241 C242 1.377 . S
C242 H222 0.953 . S
C242 C241 1.377 . S
C242 C243 1.369 . S
C243 H223 0.945 . S
C243 C238 1.385 . S
C243 C242 1.369 . S
C244 C236 1.457 . S
C244 C245 1.372 . S
C244 C249 1.364 . S
C245 H224 0.952 . S
C245 C244 1.372 . S
C245 C246 1.389 . S
C246 H225 0.949 . S
C246 C245 1.389 . S
C246 C247 1.387 . S
C247 C246 1.387 . S
C247 C248 1.372 . S
C248 H226 0.950 . S
C248 C247 1.372 . S
C248 C249 1.379 . S
C249 H227 0.948 . S
C249 C244 1.364 . S
C249 C248 1.379 . S
C250 C219 1.383 . S
C250 C237 1.479 . S
C250 C251 1.398 . S
C251 C216 1.382 . S
C251 H228 0.951 . S
C251 C250 1.398 . S
C252 C253 1.384 . S
C252 H265 0.947 . S
C252 C287 1.382 . S
C253 C252 1.384 . S
C253 C254 1.378 . S
C254 C253 1.378 . S
C254 C255 1.378 . S
C254 H266 0.952 . S
C255 C254 1.378 . S
C255 H267 0.950 . S
C255 C286 1.383 . S
H256 C275 0.947 . S
H257 C276 0.946 . S
H258 C278 0.953 . S
H259 C279 0.945 . S
H260 C281 0.952 . S
H261 C282 0.949 . S
H262 C284 0.950 . S
H263 C285 0.948 . S
H264 C287 0.951 . S
H265 C252 0.947 . S
H266 C254 0.952 . S
H267 C255 0.950 . S
N268 C271 1.382 . S
N268 C273 1.363 . S
N269 C271 1.371 . S
N269 C272 1.372 . S
N270 C272 1.361 . S
N270 C273 1.377 . S
C271 N268 1.382 . S
C271 N269 1.371 . S
C271 C274 1.480 . S
C272 N269 1.372 . S
C272 N270 1.361 . S
C272 C280 1.457 . S
C273 N268 1.363 . S
C273 N270 1.377 . S
C273 C286 1.479 . S
C274 C271 1.480 . S
C274 C275 1.383 . S
C274 C279 1.385 . S
C275 H256 0.947 . S
C275 C274 1.383 . S
C275 C276 1.388 . S
C276 H257 0.946 . S
C276 C275 1.388 . S
C276 C277 1.384 . S
C277 C276 1.384 . S
C277 C278 1.377 . S
C278 H258 0.953 . S
C278 C277 1.377 . S
C278 C279 1.369 . S
C279 H259 0.945 . S
C279 C274 1.385 . S
C279 C278 1.369 . S
C280 C272 1.457 . S
C280 C281 1.372 . S
C280 C285 1.364 . S
C281 H260 0.952 . S
C281 C280 1.372 . S
C281 C282 1.389 . S
C282 H261 0.949 . S
C282 C281 1.389 . S
C282 C283 1.387 . S
C283 C282 1.387 . S
C283 C284 1.372 . S
C284 H262 0.950 . S
C284 C283 1.372 . S
C284 C285 1.379 . S
C285 H263 0.948 . S
C285 C280 1.364 . S
C285 C284 1.379 . S
C286 C255 1.383 . S
C286 C273 1.479 . S
C286 C287 1.398 . S
C287 C252 1.382 . S
C287 H264 0.951 . S
C287 C286 1.398 . S
Eu288 N317 2.600 . S
Eu288 N323 2.562 . S
Eu288 O332 2.462 . S
Eu288 O333 2.373 . S
Eu288 O335 2.432 . S
Eu288 O336 2.291 . S
Eu288 O340 2.335 . S
Eu288 O343 2.372 . S
Eu288 C352 2.787 . S
C289 N290 1.365 . S
C289 C292 1.405 . S
C289 C296 1.448 . S
N290 C289 1.365 . S
N290 C293 1.319 . S
N290 Eu299 2.600 . S
C291 C293 1.397 . S
C291 C294 1.367 . S
C291 H311 0.931 . S
C292 C289 1.405 . S
C292 C294 1.403 . S
C292 C298 1.439 . S
C293 N290 1.319 . S
C293 C291 1.397 . S
C293 H304 0.930 . S
C294 C291 1.367 . S
C294 C292 1.403 . S
C294 H315 0.929 . S
C295 C296 1.430 . S
C295 C297 1.387 . S
C295 C301 1.404 . S
C296 C289 1.448 . S
C296 C295 1.430 . S
C296 N300 1.351 . S
C297 C295 1.387 . S
C297 C298 1.374 . S
C297 H312 0.931 . S
C298 C292 1.439 . S
C298 C297 1.374 . S
C298 H313 0.931 . S
Eu299 N290 2.600 . S
Eu299 N300 2.562 . S
Eu299 O334 2.334 1_655 S
Eu299 O337 2.372 . S
Eu299 O338 2.462 . S
Eu299 O339 2.373 . S
Eu299 O341 2.432 . S
Eu299 O342 2.291 1_655 S
Eu299 C363 2.787 . S
N300 C296 1.351 . S
N300 Eu299 2.562 . S
N300 C302 1.325 . S
C301 C295 1.404 . S
C301 C303 1.366 . S
C301 H309 0.930 . S
C302 N300 1.325 . S
C302 C303 1.416 . S
C302 H308 0.929 . S
C303 C301 1.366 . S
C303 C302 1.416 . S
C303 H305 0.930 . S
H304 C293 0.930 . S
H305 C303 0.930 . S
H306 C321 0.930 . S
H307 C328 0.930 . S
H308 C302 0.929 . S
H309 C301 0.930 . S
H310 C324 0.929 . S
H311 C291 0.931 . S
H312 C297 0.931 . S
H313 C298 0.931 . S
H314 C319 0.931 . S
H315 C294 0.929 . S
H316 C327 0.930 . S
N317 Eu288 2.600 . S
N317 C318 1.365 . S
N317 C321 1.319 . S
C318 N317 1.365 . S
C318 C320 1.405 . S
C318 C326 1.448 . S
C319 H314 0.931 . S
C319 C321 1.397 . S
C319 C322 1.367 . S
C320 C318 1.405 . S
C320 C322 1.403 . S
C320 C353 1.439 . S
C321 H306 0.930 . S
C321 N317 1.319 . S
C321 C319 1.397 . S
C322 C319 1.367 . S
C322 C320 1.403 . S
C322 H329 0.929 . S
N323 Eu288 2.562 . S
N323 C324 1.325 . S
N323 C326 1.351 . S
C324 H310 0.929 . S
C324 N323 1.325 . S
C324 C328 1.416 . S
C325 C326 1.430 . S
C325 C327 1.404 . S
C325 C354 1.387 . S
C326 C318 1.448 . S
C326 N323 1.351 . S
C326 C325 1.430 . S
C327 H316 0.930 . S
C327 C325 1.404 . S
C327 C328 1.366 . S
C328 H307 0.930 . S
C328 C324 1.416 . S
C328 C327 1.366 . S
H329 C322 0.929 . S
H330 C353 0.931 . S
H331 C354 0.931 . S
O332 Eu288 2.462 . S
O332 C352 1.252 . S
O333 Eu288 2.373 . S
O333 C344 1.249 . S
O334 Eu299 2.334 1_455 S
O334 C344 1.265 . S
O335 Eu288 2.432 . S
O335 C352 1.268 . S
O336 Eu288 2.291 . S
O336 C351 1.255 1_455 S
O337 Eu299 2.372 . S
O337 C351 1.257 . S
O338 Eu299 2.462 . S
O338 C363 1.252 . S
O339 Eu299 2.373 . S
O339 C355 1.249 . S
O340 Eu288 2.335 . S
O340 C355 1.264 1_455 S
O341 Eu299 2.432 . S
O341 C363 1.268 . S
O342 Eu299 2.291 1_455 S
O342 C362 1.255 . S
O343 Eu288 2.372 . S
O343 C362 1.257 . S
C344 O333 1.249 . S
C344 O334 1.265 . S
C345 C348 1.382 . S
C345 C350 1.390 . S
C345 C352 1.506 . S
C346 C347 1.398 . S
C346 C350 1.392 . S
C347 C346 1.398 . S
C347 C349 1.372 . S
C347 H364 0.931 . S
C348 C345 1.382 . S
C348 C349 1.390 . S
C348 H365 0.931 . S
C349 C347 1.372 . S
C349 C348 1.390 . S
C349 H366 0.929 . S
C350 C345 1.390 . S
C350 C346 1.392 . S
C350 H367 0.930 . S
C351 O336 1.255 1_655 S
C351 O337 1.257 . S
C352 Eu288 2.787 . S
C352 O332 1.252 . S
C352 O335 1.268 . S
C352 C345 1.506 . S
C353 C320 1.439 . S
C353 H330 0.931 . S
C353 C354 1.374 . S
C354 C325 1.387 . S
C354 H331 0.931 . S
C354 C353 1.374 . S
C355 O339 1.249 . S
C355 O340 1.264 1_655 S
C356 C359 1.382 . S
C356 C360 1.390 . S
C356 C363 1.506 . S
C357 C358 1.398 . S
C357 C360 1.392 . S
C358 C357 1.398 . S
C358 C361 1.372 . S
C358 H368 0.931 . S
C359 C356 1.382 . S
C359 C361 1.390 . S
C359 H369 0.931 . S
C360 C356 1.390 . S
C360 C357 1.392 . S
C360 H370 0.930 . S
C361 C358 1.372 . S
C361 C359 1.390 . S
C361 H371 0.929 . S
C362 O342 1.255 . S
C362 O343 1.257 . S
C363 Eu299 2.787 . S
C363 O338 1.252 . S
C363 O341 1.268 . S
C363 C356 1.506 . S
H364 C347 0.931 . S
H365 C348 0.931 . S
H366 C349 0.929 . S
H367 C350 0.930 . S
H368 C358 0.931 . S
H369 C359 0.931 . S
H370 C360 0.930 . S
H371 C361 0.929 . S
Eu372 N401 2.600 . S
Eu372 N407 2.562 . S
Eu372 O416 2.462 . S
Eu372 O417 2.373 . S
Eu372 O419 2.432 . S
Eu372 O420 2.291 . S
Eu372 O424 2.335 . S
Eu372 O427 2.372 . S
Eu372 C436 2.787 . S
C373 N374 1.365 . S
C373 C376 1.405 . S
C373 C380 1.448 . S
N374 C373 1.365 . S
N374 C377 1.319 . S
N374 Eu383 2.600 . S
C375 C377 1.397 . S
C375 C378 1.367 . S
C375 H395 0.931 . S
C376 C373 1.405 . S
C376 C378 1.403 . S
C376 C382 1.439 . S
C377 N374 1.319 . S
C377 C375 1.397 . S
C377 H388 0.930 . S
C378 C375 1.367 . S
C378 C376 1.403 . S
C378 H399 0.929 . S
C379 C380 1.430 . S
C379 C381 1.387 . S
C379 C385 1.404 . S
C380 C373 1.448 . S
C380 C379 1.430 . S
C380 N384 1.351 . S
C381 C379 1.387 . S
C381 C382 1.374 . S
C381 H396 0.931 . S
C382 C376 1.439 . S
C382 C381 1.374 . S
C382 H397 0.931 . S
Eu383 N374 2.600 . S
Eu383 N384 2.562 . S
Eu383 O418 2.335 . S
Eu383 O421 2.372 . S
Eu383 O422 2.462 . S
Eu383 O423 2.373 . S
Eu383 O425 2.432 . S
Eu383 O426 2.291 . S
Eu383 C447 2.787 . S
N384 C380 1.351 . S
N384 Eu383 2.562 . S
N384 C386 1.325 . S
C385 C379 1.404 . S
C385 C387 1.366 . S
C385 H393 0.930 . S
C386 N384 1.325 . S
C386 C387 1.416 . S
C386 H392 0.929 . S
C387 C385 1.366 . S
C387 C386 1.416 . S
C387 H389 0.930 . S
H388 C377 0.930 . S
H389 C387 0.930 . S
H390 C405 0.930 . S
H391 C412 0.930 . S
H392 C386 0.929 . S
H393 C385 0.930 . S
H394 C408 0.929 . S
H395 C375 0.931 . S
H396 C381 0.931 . S
H397 C382 0.931 . S
H398 C403 0.931 . S
H399 C378 0.929 . S
H400 C411 0.930 . S
N401 Eu372 2.600 . S
N401 C402 1.365 . S
N401 C405 1.319 . S
C402 N401 1.365 . S
C402 C404 1.405 . S
C402 C410 1.448 . S
C403 H398 0.931 . S
C403 C405 1.397 . S
C403 C406 1.367 . S
C404 C402 1.405 . S
C404 C406 1.403 . S
C404 C437 1.439 . S
C405 H390 0.930 . S
C405 N401 1.319 . S
C405 C403 1.397 . S
C406 C403 1.367 . S
C406 C404 1.403 . S
C406 H413 0.929 . S
N407 Eu372 2.562 . S
N407 C408 1.325 . S
N407 C410 1.351 . S
C408 H394 0.929 . S
C408 N407 1.325 . S
C408 C412 1.416 . S
C409 C410 1.430 . S
C409 C411 1.404 . S
C409 C438 1.387 . S
C410 C402 1.448 . S
C410 N407 1.351 . S
C410 C409 1.430 . S
C411 H400 0.930 . S
C411 C409 1.404 . S
C411 C412 1.366 . S
C412 H391 0.930 . S
C412 C408 1.416 . S
C412 C411 1.366 . S
H413 C406 0.929 . S
H414 C437 0.931 . S
H415 C438 0.931 . S
O416 Eu372 2.462 . S
O416 C436 1.252 . S
O417 Eu372 2.373 . S
O417 C428 1.249 . S
O418 Eu383 2.335 . S
O418 C428 1.264 . S
O419 Eu372 2.432 . S
O419 C436 1.268 . S
O420 Eu372 2.291 . S
O420 C435 1.255 . S
O421 Eu383 2.372 . S
O421 C435 1.257 . S
O422 Eu383 2.462 . S
O422 C447 1.252 . S
O423 Eu383 2.373 . S
O423 C439 1.249 . S
O424 Eu372 2.335 . S
O424 C439 1.264 . S
O425 Eu383 2.432 . S
O425 C447 1.268 . S
O426 Eu383 2.291 . S
O426 C446 1.255 . S
O427 Eu372 2.372 . S
O427 C446 1.257 . S
C428 O417 1.249 . S
C428 O418 1.264 . S
C429 C432 1.382 . S
C429 C434 1.390 . S
C429 C436 1.506 . S
C430 C431 1.398 . S
C430 C434 1.392 . S
C431 C430 1.398 . S
C431 C433 1.372 . S
C431 H448 0.931 . S
C432 C429 1.382 . S
C432 C433 1.390 . S
C432 H449 0.931 . S
C433 C431 1.372 . S
C433 C432 1.390 . S
C433 H450 0.929 . S
C434 C429 1.390 . S
C434 C430 1.392 . S
C434 H451 0.930 . S
C435 O420 1.255 . S
C435 O421 1.257 . S
C436 Eu372 2.787 . S
C436 O416 1.252 . S
C436 O419 1.268 . S
C436 C429 1.506 . S
C437 C404 1.439 . S
C437 H414 0.931 . S
C437 C438 1.374 . S
C438 C409 1.387 . S
C438 H415 0.931 . S
C438 C437 1.374 . S
C439 O423 1.249 . S
C439 O424 1.264 . S
C440 C443 1.382 . S
C440 C444 1.390 . S
C440 C447 1.506 . S
C441 C442 1.398 . S
C441 C444 1.392 . S
C442 C441 1.398 . S
C442 C445 1.372 . S
C442 H452 0.931 . S
C443 C440 1.382 . S
C443 C445 1.390 . S
C443 H453 0.931 . S
C444 C440 1.390 . S
C444 C441 1.392 . S
C444 H454 0.930 . S
C445 C442 1.372 . S
C445 C443 1.390 . S
C445 H455 0.929 . S
C446 O426 1.255 . S
C446 O427 1.257 . S
C447 Eu383 2.787 . S
C447 O422 1.252 . S
C447 O425 1.268 . S
C447 C440 1.506 . S
H448 C431 0.931 . S
H449 C432 0.931 . S
H450 C433 0.929 . S
H451 C434 0.930 . S
H452 C442 0.931 . S
H453 C443 0.931 . S
H454 C444 0.930 . S
H455 C445 0.929 . S
Eu456 N485 2.600 . S
Eu456 N491 2.562 . S
Eu456 O500 2.462 . S
Eu456 O501 2.373 . S
Eu456 O503 2.432 . S
Eu456 O504 2.291 . S
Eu456 O508 2.335 . S
Eu456 O511 2.372 . S
Eu456 C520 2.787 . S
C457 N458 1.365 . S
C457 C460 1.405 . S
C457 C464 1.448 . S
N458 C457 1.365 . S
N458 C461 1.319 . S
N458 Eu467 2.600 . S
C459 C461 1.397 . S
C459 C462 1.367 . S
C459 H479 0.931 . S
C460 C457 1.405 . S
C460 C462 1.403 . S
C460 C466 1.439 . S
C461 N458 1.319 . S
C461 C459 1.397 . S
C461 H472 0.930 . S
C462 C459 1.367 . S
C462 C460 1.403 . S
C462 H483 0.929 . S
C463 C464 1.430 . S
C463 C465 1.387 . S
C463 C469 1.404 . S
C464 C457 1.448 . S
C464 C463 1.430 . S
C464 N468 1.351 . S
C465 C463 1.387 . S
C465 C466 1.374 . S
C465 H480 0.931 . S
C466 C460 1.439 . S
C466 C465 1.374 . S
C466 H481 0.931 . S
Eu467 N458 2.600 . S
Eu467 N468 2.562 . S
Eu467 O502 2.335 1_655 S
Eu467 O505 2.372 . S
Eu467 O506 2.462 . S
Eu467 O507 2.373 . S
Eu467 O509 2.432 . S
Eu467 O510 2.291 1_655 S
Eu467 C531 2.787 . S
N468 C464 1.351 . S
N468 Eu467 2.562 . S
N468 C470 1.325 . S
C469 C463 1.404 . S
C469 C471 1.366 . S
C469 H477 0.930 . S
C470 N468 1.325 . S
C470 C471 1.416 . S
C470 H476 0.929 . S
C471 C469 1.366 . S
C471 C470 1.416 . S
C471 H473 0.930 . S
H472 C461 0.930 . S
H473 C471 0.930 . S
H474 C489 0.930 . S
H475 C496 0.930 . S
H476 C470 0.929 . S
H477 C469 0.930 . S
H478 C492 0.929 . S
H479 C459 0.931 . S
H480 C465 0.931 . S
H481 C466 0.931 . S
H482 C487 0.931 . S
H483 C462 0.929 . S
H484 C495 0.930 . S
N485 Eu456 2.600 . S
N485 C486 1.365 . S
N485 C489 1.319 . S
C486 N485 1.365 . S
C486 C488 1.405 . S
C486 C494 1.448 . S
C487 H482 0.931 . S
C487 C489 1.397 . S
C487 C490 1.367 . S
C488 C486 1.405 . S
C488 C490 1.403 . S
C488 C521 1.439 . S
C489 H474 0.930 . S
C489 N485 1.319 . S
C489 C487 1.397 . S
C490 C487 1.367 . S
C490 C488 1.403 . S
C490 H497 0.929 . S
N491 Eu456 2.562 . S
N491 C492 1.325 . S
N491 C494 1.351 . S
C492 H478 0.929 . S
C492 N491 1.325 . S
C492 C496 1.416 . S
C493 C494 1.430 . S
C493 C495 1.404 . S
C493 C522 1.387 . S
C494 C486 1.448 . S
C494 N491 1.351 . S
C494 C493 1.430 . S
C495 H484 0.930 . S
C495 C493 1.404 . S
C495 C496 1.366 . S
C496 H475 0.930 . S
C496 C492 1.416 . S
C496 C495 1.366 . S
H497 C490 0.929 . S
H498 C521 0.931 . S
H499 C522 0.931 . S
O500 Eu456 2.462 . S
O500 C520 1.252 . S
O501 Eu456 2.373 . S
O501 C512 1.249 . S
O502 Eu467 2.335 1_455 S
O502 C512 1.264 . S
O503 Eu456 2.432 . S
O503 C520 1.268 . S
O504 Eu456 2.291 . S
O504 C519 1.255 1_455 S
O505 Eu467 2.372 . S
O505 C519 1.257 . S
O506 Eu467 2.462 . S
O506 C531 1.252 . S
O507 Eu467 2.373 . S
O507 C523 1.249 . S
O508 Eu456 2.335 . S
O508 C523 1.264 1_455 S
O509 Eu467 2.432 . S
O509 C531 1.268 . S
O510 Eu467 2.291 1_455 S
O510 C530 1.255 . S
O511 Eu456 2.372 . S
O511 C530 1.257 . S
C512 O501 1.249 . S
C512 O502 1.264 . S
C513 C516 1.382 . S
C513 C518 1.390 . S
C513 C520 1.506 . S
C514 C515 1.398 . S
C514 C518 1.392 . S
C515 C514 1.398 . S
C515 C517 1.372 . S
C515 H532 0.931 . S
C516 C513 1.382 . S
C516 C517 1.390 . S
C516 H533 0.931 . S
C517 C515 1.372 . S
C517 C516 1.390 . S
C517 H534 0.929 . S
C518 C513 1.390 . S
C518 C514 1.392 . S
C518 H535 0.930 . S
C519 O504 1.255 1_655 S
C519 O505 1.257 . S
C520 Eu456 2.787 . S
C520 O500 1.252 . S
C520 O503 1.268 . S
C520 C513 1.506 . S
C521 C488 1.439 . S
C521 H498 0.931 . S
C521 C522 1.374 . S
C522 C493 1.387 . S
C522 H499 0.931 . S
C522 C521 1.374 . S
C523 O507 1.249 . S
C523 O508 1.264 1_655 S
C524 C527 1.382 . S
C524 C528 1.390 . S
C524 C531 1.506 . S
C525 C526 1.398 . S
C525 C528 1.392 . S
C526 C525 1.398 . S
C526 C529 1.372 . S
C526 H536 0.931 . S
C527 C524 1.382 . S
C527 C529 1.390 . S
C527 H537 0.931 . S
C528 C524 1.390 . S
C528 C525 1.392 . S
C528 H538 0.930 . S
C529 C526 1.372 . S
C529 C527 1.390 . S
C529 H539 0.929 . S
C530 O510 1.255 . S
C530 O511 1.257 . S
C531 Eu467 2.787 . S
C531 O506 1.252 . S
C531 O509 1.268 . S
C531 C524 1.506 . S
H532 C515 0.931 . S
H533 C516 0.931 . S
H534 C517 0.929 . S
H535 C518 0.930 . S
H536 C526 0.931 . S
H537 C527 0.931 . S
H538 C528 0.930 . S
H539 C529 0.929 . S
Eu540 N569 2.600 . S
Eu540 N575 2.562 . S
Eu540 O584 2.462 . S
Eu540 O585 2.373 . S
Eu540 O587 2.432 . S
Eu540 O588 2.291 . S
Eu540 O592 2.335 . S
Eu540 O595 2.372 . S
Eu540 C604 2.787 . S
C541 N542 1.365 . S
C541 C544 1.405 . S
C541 C548 1.448 . S
N542 C541 1.365 . S
N542 C545 1.319 . S
N542 Eu551 2.600 . S
C543 C545 1.397 . S
C543 C546 1.367 . S
C543 H563 0.931 . S
C544 C541 1.405 . S
C544 C546 1.403 . S
C544 C550 1.439 . S
C545 N542 1.319 . S
C545 C543 1.397 . S
C545 H556 0.930 . S
C546 C543 1.367 . S
C546 C544 1.403 . S
C546 H567 0.929 . S
C547 C548 1.430 . S
C547 C549 1.387 . S
C547 C553 1.404 . S
C548 C541 1.448 . S
C548 C547 1.430 . S
C548 N552 1.351 . S
C549 C547 1.387 . S
C549 C550 1.374 . S
C549 H564 0.931 . S
C550 C544 1.439 . S
C550 C549 1.374 . S
C550 H565 0.931 . S
Eu551 N542 2.600 . S
Eu551 N552 2.562 . S
Eu551 O586 2.335 . S
Eu551 O589 2.372 . S
Eu551 O590 2.462 . S
Eu551 O591 2.373 . S
Eu551 O593 2.432 . S
Eu551 O594 2.291 . S
Eu551 C615 2.787 . S
N552 C548 1.351 . S
N552 Eu551 2.562 . S
N552 C554 1.325 . S
C553 C547 1.404 . S
C553 C555 1.366 . S
C553 H561 0.930 . S
C554 N552 1.325 . S
C554 C555 1.416 . S
C554 H560 0.929 . S
C555 C553 1.366 . S
C555 C554 1.416 . S
C555 H557 0.930 . S
H556 C545 0.930 . S
H557 C555 0.930 . S
H558 C573 0.930 . S
H559 C580 0.930 . S
H560 C554 0.929 . S
H561 C553 0.930 . S
H562 C576 0.929 . S
H563 C543 0.931 . S
H564 C549 0.931 . S
H565 C550 0.931 . S
H566 C571 0.931 . S
H567 C546 0.929 . S
H568 C579 0.930 . S
N569 Eu540 2.600 . S
N569 C570 1.365 . S
N569 C573 1.319 . S
C570 N569 1.365 . S
C570 C572 1.405 . S
C570 C578 1.448 . S
C571 H566 0.931 . S
C571 C573 1.397 . S
C571 C574 1.367 . S
C572 C570 1.405 . S
C572 C574 1.403 . S
C572 C605 1.439 . S
C573 H558 0.930 . S
C573 N569 1.319 . S
C573 C571 1.397 . S
C574 C571 1.367 . S
C574 C572 1.403 . S
C574 H581 0.929 . S
N575 Eu540 2.562 . S
N575 C576 1.325 . S
N575 C578 1.351 . S
C576 H562 0.929 . S
C576 N575 1.325 . S
C576 C580 1.416 . S
C577 C578 1.430 . S
C577 C579 1.404 . S
C577 C606 1.387 . S
C578 C570 1.448 . S
C578 N575 1.351 . S
C578 C577 1.430 . S
C579 H568 0.930 . S
C579 C577 1.404 . S
C579 C580 1.366 . S
C580 H559 0.930 . S
C580 C576 1.416 . S
C580 C579 1.366 . S
H581 C574 0.929 . S
H582 C605 0.931 . S
H583 C606 0.931 . S
O584 Eu540 2.462 . S
O584 C604 1.252 . S
O585 Eu540 2.373 . S
O585 C596 1.249 . S
O586 Eu551 2.335 . S
O586 C596 1.264 . S
O587 Eu540 2.432 . S
O587 C604 1.268 . S
O588 Eu540 2.291 . S
O588 C603 1.255 . S
O589 Eu551 2.372 . S
O589 C603 1.257 . S
O590 Eu551 2.462 . S
O590 C615 1.252 . S
O591 Eu551 2.373 . S
O591 C607 1.249 . S
O592 Eu540 2.335 . S
O592 C607 1.264 . S
O593 Eu551 2.432 . S
O593 C615 1.268 . S
O594 Eu551 2.291 . S
O594 C614 1.255 . S
O595 Eu540 2.372 . S
O595 C614 1.257 . S
C596 O585 1.249 . S
C596 O586 1.264 . S
C597 C600 1.382 . S
C597 C602 1.390 . S
C597 C604 1.506 . S
C598 C599 1.398 . S
C598 C602 1.392 . S
C599 C598 1.398 . S
C599 C601 1.372 . S
C599 H616 0.931 . S
C600 C597 1.382 . S
C600 C601 1.390 . S
C600 H617 0.931 . S
C601 C599 1.372 . S
C601 C600 1.390 . S
C601 H618 0.929 . S
C602 C597 1.390 . S
C602 C598 1.392 . S
C602 H619 0.930 . S
C603 O588 1.255 . S
C603 O589 1.257 . S
C604 Eu540 2.787 . S
C604 O584 1.252 . S
C604 O587 1.268 . S
C604 C597 1.506 . S
C605 C572 1.439 . S
C605 H582 0.931 . S
C605 C606 1.374 . S
C606 C577 1.387 . S
C606 H583 0.931 . S
C606 C605 1.374 . S
C607 O591 1.249 . S
C607 O592 1.264 . S
C608 C611 1.382 . S
C608 C612 1.390 . S
C608 C615 1.506 . S
C609 C610 1.398 . S
C609 C612 1.392 . S
C610 C609 1.398 . S
C610 C613 1.372 . S
C610 H620 0.931 . S
C611 C608 1.382 . S
C611 C613 1.390 . S
C611 H621 0.931 . S
C612 C608 1.390 . S
C612 C609 1.392 . S
C612 H622 0.930 . S
C613 C610 1.372 . S
C613 C611 1.390 . S
C613 H623 0.929 . S
C614 O594 1.255 . S
C614 O595 1.257 . S
C615 Eu551 2.787 . S
C615 O590 1.252 . S
C615 O593 1.268 . S
C615 C608 1.506 . S
H616 C599 0.931 . S
H617 C600 0.931 . S
H618 C601 0.929 . S
H619 C602 0.930 . S
H620 C610 0.931 . S
H621 C611 0.931 . S
H622 C612 0.930 . S
H623 C613 0.929 . S
H624 C636 0.930 . S
H625 C638 0.930 . S
H626 C639 0.930 . S
H627 C643 0.959 . S
H628 C643 0.959 . S
H629 C643 0.961 . S
H630 C644 0.960 . S
H631 C644 0.961 . S
H632 C644 0.959 . S
H633 C647 0.929 . S
H634 C648 0.931 . S
H635 C650 0.930 . S
C636 H624 0.930 . S
C636 C637 1.399 1_545 S
C636 C641 1.399 . S
C637 C636 1.399 1_565 S
C637 C638 1.376 . S
C638 H625 0.930 . S
C638 C637 1.376 . S
C638 C639 1.388 1_565 S
C639 H626 0.930 . S
C639 C638 1.388 1_545 S
C639 C640 1.390 . S
C640 C639 1.390 . S
C640 C641 1.394 . S
C640 C646 1.465 . S
C641 C636 1.399 . S
C641 C640 1.394 . S
C641 C642 1.516 . S
C642 C641 1.516 . S
C642 C643 1.502 . S
C642 C644 1.561 . S
C642 C645 1.526 . S
C643 H627 0.959 . S
C643 H628 0.959 . S
C643 H629 0.961 . S
C643 C642 1.502 . S
C644 H630 0.960 . S
C644 H631 0.961 . S
C644 H632 0.959 . S
C644 C642 1.561 . S
C645 C642 1.526 . S
C645 C646 1.396 . S
C645 C650 1.390 . S
C646 C640 1.465 . S
C646 C645 1.396 . S
C646 C647 1.399 . S
C647 H633 0.929 . S
C647 C646 1.399 . S
C647 C648 1.385 . S
C648 H634 0.931 . S
C648 C647 1.385 . S
C648 C649 1.389 . S
C649 C648 1.389 . S
C649 C650 1.387 . S
C650 H635 0.930 . S
C650 C645 1.390 . S
C650 C649 1.387 . S
H651 C663 0.930 . S
H652 C665 0.930 . S
H653 C666 0.930 . S
H654 C670 0.959 . S
H655 C670 0.959 . S
H656 C670 0.961 . S
H657 C671 0.960 . S
H658 C671 0.961 . S
H659 C671 0.959 . S
H660 C674 0.929 . S
H661 C675 0.931 . S
H662 C677 0.930 . S
C663 H651 0.930 . S
C663 C664 1.399 . S
C663 C668 1.399 . S
C664 C663 1.399 . S
C664 C665 1.376 . S
C665 H652 0.930 . S
C665 C664 1.376 . S
C665 C666 1.388 . S
C666 H653 0.930 . S
C666 C665 1.388 . S
C666 C667 1.390 . S
C667 C666 1.390 . S
C667 C668 1.394 . S
C667 C673 1.465 . S
C668 C663 1.399 . S
C668 C667 1.394 . S
C668 C669 1.516 . S
C669 C668 1.516 . S
C669 C670 1.502 . S
C669 C671 1.561 . S
C669 C672 1.526 . S
C670 H654 0.959 . S
C670 H655 0.959 . S
C670 H656 0.961 . S
C670 C669 1.502 . S
C671 H657 0.960 . S
C671 H658 0.961 . S
C671 H659 0.959 . S
C671 C669 1.561 . S
C672 C669 1.526 . S
C672 C673 1.396 . S
C672 C677 1.390 . S
C673 C667 1.465 . S
C673 C672 1.396 . S
C673 C674 1.399 . S
C674 H660 0.929 . S
C674 C673 1.399 . S
C674 C675 1.385 . S
C675 H661 0.931 . S
C675 C674 1.385 . S
C675 C676 1.389 . S
C676 C675 1.389 . S
C676 C677 1.387 . S
C677 H662 0.930 . S
C677 C672 1.390 . S
C677 C676 1.387 . S
H678 C690 0.930 . S
H679 C692 0.930 . S
H680 C693 0.930 . S
H681 C697 0.959 . S
H682 C697 0.959 . S
H683 C697 0.961 . S
H684 C698 0.960 . S
H685 C698 0.961 . S
H686 C698 0.959 . S
H687 C701 0.929 . S
H688 C702 0.931 . S
H689 C704 0.930 . S
C690 H678 0.930 . S
C690 C691 1.399 . S
C690 C695 1.399 . S
C691 C690 1.399 . S
C691 C692 1.376 . S
C692 H679 0.930 . S
C692 C691 1.376 . S
C692 C693 1.388 . S
C693 H680 0.930 . S
C693 C692 1.388 . S
C693 C694 1.390 . S
C694 C693 1.390 . S
C694 C695 1.394 . S
C694 C700 1.465 . S
C695 C690 1.399 . S
C695 C694 1.394 . S
C695 C696 1.516 . S
C696 C695 1.516 . S
C696 C697 1.502 . S
C696 C698 1.561 . S
C696 C699 1.526 . S
C697 H681 0.959 . S
C697 H682 0.959 . S
C697 H683 0.961 . S
C697 C696 1.502 . S
C698 H684 0.960 . S
C698 H685 0.961 . S
C698 H686 0.959 . S
C698 C696 1.561 . S
C699 C696 1.526 . S
C699 C700 1.396 . S
C699 C704 1.390 . S
C700 C694 1.465 . S
C700 C699 1.396 . S
C700 C701 1.399 . S
C701 H687 0.929 . S
C701 C700 1.399 . S
C701 C702 1.385 . S
C702 H688 0.931 . S
C702 C701 1.385 . S
C702 C703 1.389 . S
C703 C702 1.389 . S
C703 C704 1.387 . S
C704 H689 0.930 . S
C704 C699 1.390 . S
C704 C703 1.387 . S
H705 C717 0.930 . S
H706 C719 0.930 . S
H707 C720 0.930 . S
H708 C724 0.959 1_545 S
H709 C724 0.956 1_545 S
H710 C724 0.961 . S
H711 C725 0.960 1_565 S
H712 C725 0.961 . S
H713 C725 0.959 . S
H714 C728 0.929 . S
H715 C729 0.931 . S
H716 C731 0.930 . S
C717 H705 0.930 . S
C717 C718 1.399 . S
C717 C722 1.399 1_565 S
C718 C717 1.399 . S
C718 C719 1.376 1_565 S
C719 H706 0.930 . S
C719 C718 1.376 1_545 S
C719 C720 1.388 . S
C720 H707 0.930 . S
C720 C719 1.388 . S
C720 C721 1.390 . S
C721 C720 1.390 . S
C721 C722 1.394 . S
C721 C727 1.465 . S
C722 C717 1.399 1_545 S
C722 C721 1.394 . S
C722 C723 1.516 . S
C723 C722 1.516 . S
C723 C724 1.502 1_545 S
C723 C725 1.561 . S
C723 C726 1.526 . S
C724 H708 0.959 1_565 S
C724 H709 0.956 1_565 S
C724 H710 0.961 . S
C724 C723 1.502 1_565 S
C725 H711 0.960 1_545 S
C725 H712 0.961 . S
C725 H713 0.959 . S
C725 C723 1.561 . S
C726 C723 1.526 . S
C726 C727 1.396 . S
C726 C731 1.390 . S
C727 C721 1.465 . S
C727 C726 1.396 . S
C727 C728 1.399 . S
C728 H714 0.929 . S
C728 C727 1.399 . S
C728 C729 1.385 . S
C729 H715 0.931 . S
C729 C728 1.385 . S
C729 C730 1.389 . S
C730 C729 1.389 . S
C730 C731 1.387 . S
C731 H716 0.930 . S
C731 C726 1.390 . S
C731 C730 1.387 . S
H732 C744 0.930 . S
H733 C746 0.930 . S
H734 C747 0.930 . S
H735 C751 0.959 . S
H736 C751 0.959 . S
H737 C751 0.961 1_545 S
H738 C752 0.960 1_545 S
H739 C752 0.961 . S
H740 C752 0.959 . S
H741 C755 0.929 . S
H742 C756 0.931 . S
H743 C758 0.930 . S
C744 H732 0.930 . S
C744 C745 1.399 . S
C744 C749 1.399 1_545 S
C745 C744 1.399 . S
C745 C746 1.376 1_545 S
C746 H733 0.930 . S
C746 C745 1.376 1_565 S
C746 C747 1.388 . S
C747 H734 0.930 . S
C747 C746 1.388 . S
C747 C748 1.390 . S
C748 C747 1.390 . S
C748 C749 1.394 . S
C748 C754 1.465 . S
C749 C744 1.399 1_565 S
C749 C748 1.394 . S
C749 C750 1.516 . S
C750 C749 1.516 . S
C750 C751 1.502 . S
C750 C752 1.561 . S
C750 C753 1.526 . S
C751 H735 0.959 . S
C751 H736 0.959 . S
C751 H737 0.961 1_565 S
C751 C750 1.502 . S
C752 H738 0.960 1_565 S
C752 H739 0.961 . S
C752 H740 0.959 . S
C752 C750 1.561 . S
C753 C750 1.526 . S
C753 C754 1.396 . S
C753 C758 1.390 . S
C754 C748 1.465 . S
C754 C753 1.396 . S
C754 C755 1.399 . S
C755 H741 0.929 . S
C755 C754 1.399 . S
C755 C756 1.385 . S
C756 H742 0.931 . S
C756 C755 1.385 . S
C756 C757 1.389 . S
C757 C756 1.389 . S
C757 C758 1.387 . S
C758 H743 0.930 . S
C758 C753 1.390 . S
C758 C757 1.387 . S
H759 C771 0.930 . S
H760 C773 0.930 . S
H761 C774 0.930 . S
H762 C778 0.959 . S
H763 C778 0.959 . S
H764 C778 0.961 . S
H765 C779 0.960 . S
H766 C779 0.961 . S
H767 C779 0.959 . S
H768 C782 0.929 . S
H769 C783 0.931 . S
H770 C785 0.930 . S
C771 H759 0.930 . S
C771 C772 1.399 . S
C771 C776 1.399 . S
C772 C771 1.399 . S
C772 C773 1.376 . S
C773 H760 0.930 . S
C773 C772 1.376 . S
C773 C774 1.388 . S
C774 H761 0.930 . S
C774 C773 1.388 . S
C774 C775 1.390 . S
C775 C774 1.390 . S
C775 C776 1.394 . S
C775 C781 1.465 . S
C776 C771 1.399 . S
C776 C775 1.394 . S
C776 C777 1.516 . S
C777 C776 1.516 . S
C777 C778 1.502 . S
C777 C779 1.561 . S
C777 C780 1.526 . S
C778 H762 0.959 . S
C778 H763 0.959 . S
C778 H764 0.961 . S
C778 C777 1.502 . S
C779 H765 0.960 . S
C779 H766 0.961 . S
C779 H767 0.959 . S
C779 C777 1.561 . S
C780 C777 1.526 . S
C780 C781 1.396 . S
C780 C785 1.390 . S
C781 C775 1.465 . S
C781 C780 1.396 . S
C781 C782 1.399 . S
C782 H768 0.929 . S
C782 C781 1.399 . S
C782 C783 1.385 . S
C783 H769 0.931 . S
C783 C782 1.385 . S
C783 C784 1.389 . S
C784 C783 1.389 . S
C784 C785 1.387 . S
C785 H770 0.930 . S
C785 C780 1.390 . S
C785 C784 1.387 . S
H786 C798 0.930 . S
H787 C800 0.930 . S
H788 C801 0.930 . S
H789 C805 0.959 . S
H790 C805 0.959 . S
H791 C805 0.961 . S
H792 C806 0.960 . S
H793 C806 0.961 . S
H794 C806 0.959 . S
H795 C809 0.929 . S
H796 C810 0.931 . S
H797 C812 0.930 . S
C798 H786 0.930 . S
C798 C799 1.399 . S
C798 C803 1.399 . S
C799 C798 1.399 . S
C799 C800 1.376 . S
C800 H787 0.930 . S
C800 C799 1.376 . S
C800 C801 1.388 . S
C801 H788 0.930 . S
C801 C800 1.388 . S
C801 C802 1.390 . S
C802 C801 1.390 . S
C802 C803 1.394 . S
C802 C808 1.465 . S
C803 C798 1.399 . S
C803 C802 1.394 . S
C803 C804 1.516 . S
C804 C803 1.516 . S
C804 C805 1.502 . S
C804 C806 1.561 . S
C804 C807 1.526 . S
C805 H789 0.959 . S
C805 H790 0.959 . S
C805 H791 0.961 . S
C805 C804 1.502 . S
C806 H792 0.960 . S
C806 H793 0.961 . S
C806 H794 0.959 . S
C806 C804 1.561 . S
C807 C804 1.526 . S
C807 C808 1.396 . S
C807 C812 1.390 . S
C808 C802 1.465 . S
C808 C807 1.396 . S
C808 C809 1.399 . S
C809 H795 0.929 . S
C809 C808 1.399 . S
C809 C810 1.385 . S
C810 H796 0.931 . S
C810 C809 1.385 . S
C810 C811 1.389 . S
C811 C810 1.389 . S
C811 C812 1.387 . S
C812 H797 0.930 . S
C812 C807 1.390 . S
C812 C811 1.387 . S
H813 C825 0.930 . S
H814 C827 0.930 . S
H815 C828 0.930 . S
H816 C832 0.959 . S
H817 C832 0.959 . S
H818 C832 0.961 1_545 S
H819 C833 0.960 1_545 S
H820 C833 0.961 . S
H821 C833 0.959 . S
H822 C836 0.929 . S
H823 C837 0.931 . S
H824 C839 0.930 . S
C825 H813 0.930 . S
C825 C826 1.399 . S
C825 C830 1.399 1_545 S
C826 C825 1.399 . S
C826 C827 1.376 1_545 S
C827 H814 0.930 . S
C827 C826 1.376 1_565 S
C827 C828 1.388 . S
C828 H815 0.930 . S
C828 C827 1.388 . S
C828 C829 1.390 . S
C829 C828 1.390 . S
C829 C830 1.394 . S
C829 C835 1.465 . S
C830 C825 1.399 1_565 S
C830 C829 1.394 . S
C830 C831 1.516 . S
C831 C830 1.516 . S
C831 C832 1.501 . S
C831 C833 1.561 . S
C831 C834 1.526 . S
C832 H816 0.959 . S
C832 H817 0.959 . S
C832 H818 0.961 1_565 S
C832 C831 1.501 . S
C833 H819 0.960 1_565 S
C833 H820 0.961 . S
C833 H821 0.959 . S
C833 C831 1.561 . S
C834 C831 1.526 . S
C834 C835 1.396 . S
C834 C839 1.390 . S
C835 C829 1.465 . S
C835 C834 1.396 . S
C835 C836 1.399 . S
C836 H822 0.929 . S
C836 C835 1.399 . S
C836 C837 1.385 . S
C837 H823 0.931 . S
C837 C836 1.385 . S
C837 C838 1.389 . S
C838 C837 1.389 . S
C838 C839 1.387 . S
C839 H824 0.930 . S
C839 C834 1.390 . S
C839 C838 1.387 . S
H840 C852 0.930 . S
H841 C854 0.930 . S
H842 C855 0.930 . S
H843 C859 0.959 . S
H844 C859 0.959 . S
H845 C859 0.961 . S
H846 C860 0.960 . S
H847 C860 0.961 . S
H848 C860 0.959 . S
H849 C863 0.929 . S
H850 C864 0.931 . S
H851 C866 0.930 . S
C852 H840 0.930 . S
C852 C853 1.399 . S
C852 C857 1.399 . S
C853 C852 1.399 . S
C853 C854 1.376 . S
C854 H841 0.930 . S
C854 C853 1.376 . S
C854 C855 1.388 . S
C855 H842 0.930 . S
C855 C854 1.388 . S
C855 C856 1.390 . S
C856 C855 1.390 . S
C856 C857 1.394 . S
C856 C862 1.465 . S
C857 C852 1.399 . S
C857 C856 1.394 . S
C857 C858 1.516 . S
C858 C857 1.516 . S
C858 C859 1.502 . S
C858 C860 1.561 . S
C858 C861 1.526 . S
C859 H843 0.959 . S
C859 H844 0.959 . S
C859 H845 0.961 . S
C859 C858 1.502 . S
C860 H846 0.960 . S
C860 H847 0.961 . S
C860 H848 0.959 . S
C860 C858 1.561 . S
C861 C858 1.526 . S
C861 C862 1.396 . S
C861 C866 1.390 . S
C862 C856 1.465 . S
C862 C861 1.396 . S
C862 C863 1.399 . S
C863 H849 0.929 . S
C863 C862 1.399 . S
C863 C864 1.385 . S
C864 H850 0.931 . S
C864 C863 1.385 . S
C864 C865 1.389 . S
C865 C864 1.389 . S
C865 C866 1.387 . S
C866 H851 0.930 . S
C866 C861 1.390 . S
C866 C865 1.387 . S
H867 C879 0.930 . S
H868 C881 0.930 . S
H869 C882 0.930 . S
H870 C886 0.959 . S
H871 C886 0.959 . S
H872 C886 0.961 . S
H873 C887 0.960 . S
H874 C887 0.961 . S
H875 C887 0.959 . S
H876 C890 0.929 . S
H877 C891 0.931 . S
H878 C893 0.930 . S
C879 H867 0.930 . S
C879 C880 1.399 . S
C879 C884 1.399 . S
C880 C879 1.399 . S
C880 C881 1.376 . S
C881 H868 0.930 . S
C881 C880 1.376 . S
C881 C882 1.388 . S
C882 H869 0.930 . S
C882 C881 1.388 . S
C882 C883 1.390 . S
C883 C882 1.390 . S
C883 C884 1.394 . S
C883 C889 1.465 . S
C884 C879 1.399 . S
C884 C883 1.394 . S
C884 C885 1.516 . S
C885 C884 1.516 . S
C885 C886 1.502 . S
C885 C887 1.561 . S
C885 C888 1.526 . S
C886 H870 0.959 . S
C886 H871 0.959 . S
C886 H872 0.961 . S
C886 C885 1.502 . S
C887 H873 0.960 . S
C887 H874 0.961 . S
C887 H875 0.959 . S
C887 C885 1.561 . S
C888 C885 1.526 . S
C888 C889 1.396 . S
C888 C893 1.390 . S
C889 C883 1.465 . S
C889 C888 1.396 . S
C889 C890 1.399 . S
C890 H876 0.929 . S
C890 C889 1.399 . S
C890 C891 1.385 . S
C891 H877 0.931 . S
C891 C890 1.385 . S
C891 C892 1.389 . S
C892 C891 1.389 . S
C892 C893 1.387 . S
C893 H878 0.930 . S
C893 C888 1.390 . S
C893 C892 1.387 . S
H894 C906 0.930 . S
H895 C908 0.930 . S
H896 C909 0.930 . S
H897 C913 0.959 . S
H898 C913 0.959 . S
H899 C913 0.961 . S
H900 C914 0.960 . S
H901 C914 0.961 . S
H902 C914 0.959 . S
H903 C917 0.929 . S
H904 C918 0.931 . S
H905 C920 0.930 . S
C906 H894 0.930 . S
C906 C907 1.399 . S
C906 C911 1.399 . S
C907 C906 1.399 . S
C907 C908 1.376 . S
C908 H895 0.930 . S
C908 C907 1.376 . S
C908 C909 1.388 . S
C909 H896 0.930 . S
C909 C908 1.388 . S
C909 C910 1.390 . S
C910 C909 1.390 . S
C910 C911 1.394 . S
C910 C916 1.465 . S
C911 C906 1.399 . S
C911 C910 1.394 . S
C911 C912 1.516 . S
C912 C911 1.516 . S
C912 C913 1.502 . S
C912 C914 1.561 . S
C912 C915 1.526 . S
C913 H897 0.959 . S
C913 H898 0.959 . S
C913 H899 0.961 . S
C913 C912 1.502 . S
C914 H900 0.960 . S
C914 H901 0.961 . S
C914 H902 0.959 . S
C914 C912 1.561 . S
C915 C912 1.526 . S
C915 C916 1.396 . S
C915 C920 1.390 . S
C916 C910 1.465 . S
C916 C915 1.396 . S
C916 C917 1.399 . S
C917 H903 0.929 . S
C917 C916 1.399 . S
C917 C918 1.385 . S
C918 H904 0.931 . S
C918 C917 1.385 . S
C918 C919 1.389 . S
C919 C918 1.389 . S
C919 C920 1.387 . S
C920 H905 0.930 . S
C920 C915 1.390 . S
C920 C919 1.387 . S
H921 C933 0.930 . S
H922 C935 0.930 . S
H923 C936 0.930 . S
H924 C940 0.959 . S
H925 C940 0.959 . S
H926 C940 0.961 . S
H927 C941 0.960 . S
H928 C941 0.961 . S
H929 C941 0.959 . S
H930 C944 0.929 . S
H931 C945 0.931 . S
H932 C947 0.930 . S
C933 H921 0.930 . S
C933 C934 1.399 . S
C933 C938 1.399 . S
C934 C933 1.399 . S
C934 C935 1.376 . S
C935 H922 0.930 . S
C935 C934 1.376 . S
C935 C936 1.388 . S
C936 H923 0.930 . S
C936 C935 1.388 . S
C936 C937 1.390 . S
C937 C936 1.390 . S
C937 C938 1.394 . S
C937 C943 1.465 . S
C938 C933 1.399 . S
C938 C937 1.394 . S
C938 C939 1.516 . S
C939 C938 1.516 . S
C939 C940 1.502 . S
C939 C941 1.561 . S
C939 C942 1.526 . S
C940 H924 0.959 . S
C940 H925 0.959 . S
C940 H926 0.961 . S
C940 C939 1.502 . S
C941 H927 0.960 . S
C941 H928 0.961 . S
C941 H929 0.959 . S
C941 C939 1.561 . S
C942 C939 1.526 . S
C942 C943 1.396 . S
C942 C947 1.390 . S
C943 C937 1.465 . S
C943 C942 1.396 . S
C943 C944 1.399 . S
C944 H930 0.929 . S
C944 C943 1.399 . S
C944 C945 1.385 . S
C945 H931 0.931 . S
C945 C944 1.385 . S
C945 C946 1.389 . S
C946 C945 1.389 . S
C946 C947 1.387 . S
C947 H932 0.930 . S
C947 C942 1.390 . S
C947 C946 1.387 . S
H948 C960 0.930 . S
H949 C962 0.930 . S
H950 C963 0.930 . S
H951 C967 0.959 . S
H952 C967 0.959 . S
H953 C967 0.961 . S
H954 C968 0.960 . S
H955 C968 0.961 . S
H956 C968 0.959 . S
H957 C971 0.929 . S
H958 C972 0.931 . S
H959 C974 0.930 . S
C960 H948 0.930 . S
C960 C961 1.399 . S
C960 C965 1.399 . S
C961 C960 1.399 . S
C961 C962 1.376 . S
C962 H949 0.930 . S
C962 C961 1.376 . S
C962 C963 1.388 . S
C963 H950 0.930 . S
C963 C962 1.388 . S
C963 C964 1.390 . S
C964 C963 1.390 . S
C964 C965 1.394 . S
C964 C970 1.465 . S
C965 C960 1.399 . S
C965 C964 1.394 . S
C965 C966 1.516 . S
C966 C965 1.516 . S
C966 C967 1.502 . S
C966 C968 1.561 . S
C966 C969 1.526 . S
C967 H951 0.959 . S
C967 H952 0.959 . S
C967 H953 0.961 . S
C967 C966 1.502 . S
C968 H954 0.960 . S
C968 H955 0.961 . S
C968 H956 0.959 . S
C968 C966 1.561 . S
C969 C966 1.526 . S
C969 C970 1.396 . S
C969 C974 1.390 . S
C970 C964 1.465 . S
C970 C969 1.396 . S
C970 C971 1.399 . S
C971 H957 0.929 . S
C971 C970 1.399 . S
C971 C972 1.385 . S
C972 H958 0.931 . S
C972 C971 1.385 . S
C972 C973 1.389 . S
C973 C972 1.389 . S
C973 C974 1.387 . S
C974 H959 0.930 . S
C974 C969 1.390 . S
C974 C973 1.387 . S
H975 C987 0.930 . S
H976 C989 0.930 . S
H977 C990 0.930 . S
H978 C994 0.959 . S
H979 C994 0.959 . S
H980 C994 0.961 . S
H981 C995 0.960 . S
H982 C995 0.961 . S
H983 C995 0.959 . S
H984 C998 0.929 . S
H985 C999 0.931 . S
H986 C1001 0.930 . S
C987 H975 0.930 . S
C987 C988 1.399 . S
C987 C992 1.399 . S
C988 C987 1.399 . S
C988 C989 1.376 . S
C989 H976 0.930 . S
C989 C988 1.376 . S
C989 C990 1.388 . S
C990 H977 0.930 . S
C990 C989 1.388 . S
C990 C991 1.390 . S
C991 C990 1.390 . S
C991 C992 1.394 . S
C991 C997 1.465 . S
C992 C987 1.399 . S
C992 C991 1.394 . S
C992 C993 1.516 . S
C993 C992 1.516 . S
C993 C994 1.502 . S
C993 C995 1.561 . S
C993 C996 1.526 . S
C994 H978 0.959 . S
C994 H979 0.959 . S
C994 H980 0.961 . S
C994 C993 1.502 . S
C995 H981 0.960 . S
C995 H982 0.961 . S
C995 H983 0.959 . S
C995 C993 1.561 . S
C996 C993 1.526 . S
C996 C997 1.396 . S
C996 C1001 1.390 . S
C997 C991 1.465 . S
C997 C996 1.396 . S
C997 C998 1.399 . S
C998 H984 0.929 . S
C998 C997 1.399 . S
C998 C999 1.385 . S
C999 H985 0.931 . S
C999 C998 1.385 . S
C999 C1000 1.389 . S
C1000 C999 1.389 . S
C1000 C1001 1.387 . S
C1001 H986 0.930 . S
C1001 C996 1.390 . S
C1001 C1000 1.387 . S
H1002 C1014 0.930 . S
H1003 C1016 0.930 . S
H1004 C1017 0.930 . S
H1005 C1021 0.959 . S
H1006 C1021 0.959 . S
H1007 C1021 0.961 . S
H1008 C1022 0.960 . S
H1009 C1022 0.961 . S
H1010 C1022 0.959 . S
H1011 C1025 0.929 . S
H1012 C1026 0.931 . S
H1013 C1028 0.930 . S
C1014 H1002 0.930 . S
C1014 C1015 1.399 . S
C1014 C1019 1.399 . S
C1015 C1014 1.399 . S
C1015 C1016 1.376 . S
C1016 H1003 0.930 . S
C1016 C1015 1.376 . S
C1016 C1017 1.388 . S
C1017 H1004 0.930 . S
C1017 C1016 1.388 . S
C1017 C1018 1.390 . S
C1018 C1017 1.390 . S
C1018 C1019 1.394 . S
C1018 C1024 1.465 . S
C1019 C1014 1.399 . S
C1019 C1018 1.394 . S
C1019 C1020 1.516 . S
C1020 C1019 1.516 . S
C1020 C1021 1.502 . S
C1020 C1022 1.561 . S
C1020 C1023 1.526 . S
C1021 H1005 0.959 . S
C1021 H1006 0.959 . S
C1021 H1007 0.961 . S
C1021 C1020 1.502 . S
C1022 H1008 0.960 . S
C1022 H1009 0.961 . S
C1022 H1010 0.959 . S
C1022 C1020 1.561 . S
C1023 C1020 1.526 . S
C1023 C1024 1.396 . S
C1023 C1028 1.390 . S
C1024 C1018 1.465 . S
C1024 C1023 1.396 . S
C1024 C1025 1.399 . S
C1025 H1011 0.929 . S
C1025 C1024 1.399 . S
C1025 C1026 1.385 . S
C1026 H1012 0.931 . S
C1026 C1025 1.385 . S
C1026 C1027 1.389 . S
C1027 C1026 1.389 . S
C1027 C1028 1.387 . S
C1028 H1013 0.930 . S
C1028 C1023 1.390 . S
C1028 C1027 1.387 . S
H1029 C1041 0.930 . S
H1030 C1043 0.930 . S
H1031 C1044 0.930 . S
H1032 C1048 0.959 . S
H1033 C1048 0.959 . S
H1034 C1048 0.961 . S
H1035 C1049 0.960 . S
H1036 C1049 0.961 . S
H1037 C1049 0.959 . S
H1038 C1052 0.929 . S
H1039 C1053 0.931 . S
H1040 C1055 0.930 . S
C1041 H1029 0.930 . S
C1041 C1042 1.399 . S
C1041 C1046 1.399 . S
C1042 C1041 1.399 . S
C1042 C1043 1.376 . S
C1043 H1030 0.930 . S
C1043 C1042 1.376 . S
C1043 C1044 1.388 . S
C1044 H1031 0.930 . S
C1044 C1043 1.388 . S
C1044 C1045 1.390 . S
C1045 C1044 1.390 . S
C1045 C1046 1.394 . S
C1045 C1051 1.465 . S
C1046 C1041 1.399 . S
C1046 C1045 1.394 . S
C1046 C1047 1.516 . S
C1047 C1046 1.516 . S
C1047 C1048 1.502 . S
C1047 C1049 1.561 . S
C1047 C1050 1.526 . S
C1048 H1032 0.959 . S
C1048 H1033 0.959 . S
C1048 H1034 0.961 . S
C1048 C1047 1.502 . S
C1049 H1035 0.960 . S
C1049 H1036 0.961 . S
C1049 H1037 0.959 . S
C1049 C1047 1.561 . S
C1050 C1047 1.526 . S
C1050 C1051 1.396 . S
C1050 C1055 1.390 . S
C1051 C1045 1.465 . S
C1051 C1050 1.396 . S
C1051 C1052 1.399 . S
C1052 H1038 0.929 . S
C1052 C1051 1.399 . S
C1052 C1053 1.385 . S
C1053 H1039 0.931 . S
C1053 C1052 1.385 . S
C1053 C1054 1.389 . S
C1054 C1053 1.389 . S
C1054 C1055 1.387 . S
C1055 H1040 0.930 . S
C1055 C1050 1.390 . S
C1055 C1054 1.387 . S
H1056 C1068 0.930 . S
H1057 C1070 0.930 . S
H1058 C1071 0.930 . S
H1059 C1075 0.959 . S
H1060 C1075 0.959 . S
H1061 C1075 0.961 . S
H1062 C1076 0.960 . S
H1063 C1076 0.961 . S
H1064 C1076 0.959 . S
H1065 C1079 0.932 . S
H1066 C1080 0.931 1_655 S
H1067 C1082 0.930 . S
C1068 H1056 0.930 . S
C1068 C1069 1.399 . S
C1068 C1073 1.399 . S
C1069 C1068 1.399 . S
C1069 C1070 1.376 . S
C1070 H1057 0.930 . S
C1070 C1069 1.376 . S
C1070 C1071 1.388 . S
C1071 H1058 0.930 . S
C1071 C1070 1.388 . S
C1071 C1072 1.390 . S
C1072 C1071 1.390 . S
C1072 C1073 1.394 . S
C1072 C1078 1.465 . S
C1073 C1068 1.399 . S
C1073 C1072 1.394 . S
C1073 C1074 1.516 . S
C1074 C1073 1.516 . S
C1074 C1075 1.502 . S
C1074 C1076 1.561 . S
C1074 C1077 1.526 . S
C1075 H1059 0.959 . S
C1075 H1060 0.959 . S
C1075 H1061 0.961 . S
C1075 C1074 1.502 . S
C1076 H1062 0.960 . S
C1076 H1063 0.961 . S
C1076 H1064 0.959 . S
C1076 C1074 1.561 . S
C1077 C1074 1.526 . S
C1077 C1078 1.396 . S
C1077 C1082 1.390 . S
C1078 C1072 1.465 . S
C1078 C1077 1.396 . S
C1078 C1079 1.399 . S
C1079 H1065 0.932 . S
C1079 C1078 1.399 . S
C1079 C1080 1.385 . S
C1080 H1066 0.931 1_455 S
C1080 C1079 1.385 . S
C1080 C1081 1.389 . S
C1081 C1080 1.389 . S
C1081 C1082 1.387 . S
C1082 H1067 0.930 . S
C1082 C1077 1.390 . S
C1082 C1081 1.387 . S
H1083 C1095 0.930 . S
H1084 C1097 0.930 . S
H1085 C1098 0.930 . S
H1086 C1102 0.959 . S
H1087 C1102 0.959 . S
H1088 C1102 0.961 . S
H1089 C1103 0.960 . S
H1090 C1103 0.961 . S
H1091 C1103 0.959 . S
H1092 C1106 0.929 . S
H1093 C1107 0.931 . S
H1094 C1109 0.930 . S
C1095 H1083 0.930 . S
C1095 C1096 1.399 . S
C1095 C1100 1.399 . S
C1096 C1095 1.399 . S
C1096 C1097 1.376 . S
C1097 H1084 0.930 . S
C1097 C1096 1.376 . S
C1097 C1098 1.388 . S
C1098 H1085 0.930 . S
C1098 C1097 1.388 . S
C1098 C1099 1.390 . S
C1099 C1098 1.390 . S
C1099 C1100 1.394 . S
C1099 C1105 1.465 . S
C1100 C1095 1.399 . S
C1100 C1099 1.394 . S
C1100 C1101 1.516 . S
C1101 C1100 1.516 . S
C1101 C1102 1.502 . S
C1101 C1103 1.561 . S
C1101 C1104 1.526 . S
C1102 H1086 0.959 . S
C1102 H1087 0.959 . S
C1102 H1088 0.961 . S
C1102 C1101 1.502 . S
C1103 H1089 0.960 . S
C1103 H1090 0.961 . S
C1103 H1091 0.959 . S
C1103 C1101 1.561 . S
C1104 C1101 1.526 . S
C1104 C1105 1.396 . S
C1104 C1109 1.390 . S
C1105 C1099 1.465 . S
C1105 C1104 1.396 . S
C1105 C1106 1.399 . S
C1106 H1092 0.929 . S
C1106 C1105 1.399 . S
C1106 C1107 1.385 . S
C1107 H1093 0.931 . S
C1107 C1106 1.385 . S
C1107 C1108 1.389 . S
C1108 C1107 1.389 . S
C1108 C1109 1.387 . S
C1109 H1094 0.930 . S
C1109 C1104 1.390 . S
C1109 C1108 1.387 . S
H1110 C1122 0.930 . S
H1111 C1124 0.930 . S
H1112 C1125 0.930 . S
H1113 C1129 0.959 . S
H1114 C1129 0.959 . S
H1115 C1129 0.961 . S
H1116 C1130 0.960 . S
H1117 C1130 0.961 . S
H1118 C1130 0.959 . S
H1119 C1133 0.929 . S
H1120 C1134 0.931 . S
H1121 C1136 0.930 . S
C1122 H1110 0.930 . S
C1122 C1123 1.399 . S
C1122 C1127 1.399 . S
C1123 C1122 1.399 . S
C1123 C1124 1.376 . S
C1124 H1111 0.930 . S
C1124 C1123 1.376 . S
C1124 C1125 1.388 . S
C1125 H1112 0.930 . S
C1125 C1124 1.388 . S
C1125 C1126 1.390 . S
C1126 C1125 1.390 . S
C1126 C1127 1.394 . S
C1126 C1132 1.465 . S
C1127 C1122 1.399 . S
C1127 C1126 1.394 . S
C1127 C1128 1.516 . S
C1128 C1127 1.516 . S
C1128 C1129 1.502 . S
C1128 C1130 1.561 . S
C1128 C1131 1.526 . S
C1129 H1113 0.959 . S
C1129 H1114 0.959 . S
C1129 H1115 0.961 . S
C1129 C1128 1.502 . S
C1130 H1116 0.960 . S
C1130 H1117 0.961 . S
C1130 H1118 0.959 . S
C1130 C1128 1.561 . S
C1131 C1128 1.526 . S
C1131 C1132 1.396 . S
C1131 C1136 1.390 . S
C1132 C1126 1.465 . S
C1132 C1131 1.396 . S
C1132 C1133 1.399 . S
C1133 H1119 0.929 . S
C1133 C1132 1.399 . S
C1133 C1134 1.385 . S
C1134 H1120 0.931 . S
C1134 C1133 1.385 . S
C1134 C1135 1.389 . S
C1135 C1134 1.389 . S
C1135 C1136 1.387 . S
C1136 H1121 0.930 . S
C1136 C1131 1.390 . S
C1136 C1135 1.387 . S
H1137 C1149 0.930 . S
H1138 C1151 0.930 . S
H1139 C1152 0.930 . S
H1140 C1156 0.959 . S
H1141 C1156 0.959 . S
H1142 C1156 0.961 . S
H1143 C1157 0.960 . S
H1144 C1157 0.961 1_455 S
H1145 C1157 0.959 . S
H1146 C1160 0.929 . S
H1147 C1161 0.931 . S
H1148 C1163 0.930 . S
C1149 H1137 0.930 . S
C1149 C1150 1.399 . S
C1149 C1154 1.399 . S
C1150 C1149 1.399 . S
C1150 C1151 1.376 . S
C1151 H1138 0.930 . S
C1151 C1150 1.376 . S
C1151 C1152 1.388 . S
C1152 H1139 0.930 . S
C1152 C1151 1.388 . S
C1152 C1153 1.390 . S
C1153 C1152 1.390 . S
C1153 C1154 1.394 . S
C1153 C1159 1.465 . S
C1154 C1149 1.399 . S
C1154 C1153 1.394 . S
C1154 C1155 1.516 . S
C1155 C1154 1.516 . S
C1155 C1156 1.502 . S
C1155 C1157 1.561 . S
C1155 C1158 1.526 . S
C1156 H1140 0.959 . S
C1156 H1141 0.959 . S
C1156 H1142 0.961 . S
C1156 C1155 1.502 . S
C1157 H1143 0.960 . S
C1157 H1144 0.961 1_655 S
C1157 H1145 0.959 . S
C1157 C1155 1.561 . S
C1158 C1155 1.526 . S
C1158 C1159 1.396 . S
C1158 C1163 1.390 . S
C1159 C1153 1.465 . S
C1159 C1158 1.396 . S
C1159 C1160 1.399 . S
C1160 H1146 0.929 . S
C1160 C1159 1.399 . S
C1160 C1161 1.385 . S
C1161 H1147 0.931 . S
C1161 C1160 1.385 . S
C1161 C1162 1.389 . S
C1162 C1161 1.389 . S
C1162 C1163 1.387 . S
C1163 H1148 0.930 . S
C1163 C1158 1.390 . S
C1163 C1162 1.387 . S
H1164 C1176 0.930 . S
H1165 C1178 0.930 . S
H1166 C1179 0.930 . S
H1167 C1183 0.959 . S
H1168 C1183 0.959 1_455 S
H1169 C1183 0.961 . S
H1170 C1184 0.960 . S
H1171 C1184 0.961 . S
H1172 C1184 0.959 . S
H1173 C1187 0.929 . S
H1174 C1188 0.931 . S
H1175 C1190 0.930 . S
C1176 H1164 0.930 . S
C1176 C1177 1.399 . S
C1176 C1181 1.399 . S
C1177 C1176 1.399 . S
C1177 C1178 1.376 . S
C1178 H1165 0.930 . S
C1178 C1177 1.376 . S
C1178 C1179 1.388 . S
C1179 H1166 0.930 . S
C1179 C1178 1.388 . S
C1179 C1180 1.390 . S
C1180 C1179 1.390 . S
C1180 C1181 1.394 . S
C1180 C1186 1.465 . S
C1181 C1176 1.399 . S
C1181 C1180 1.394 . S
C1181 C1182 1.516 . S
C1182 C1181 1.516 . S
C1182 C1183 1.502 . S
C1182 C1184 1.561 . S
C1182 C1185 1.526 . S
C1183 H1167 0.959 . S
C1183 H1168 0.959 1_655 S
C1183 H1169 0.961 . S
C1183 C1182 1.502 . S
C1184 H1170 0.960 . S
C1184 H1171 0.961 . S
C1184 H1172 0.959 . S
C1184 C1182 1.561 . S
C1185 C1182 1.526 . S
C1185 C1186 1.396 . S
C1185 C1190 1.390 . S
C1186 C1180 1.465 . S
C1186 C1185 1.396 . S
C1186 C1187 1.399 . S
C1187 H1173 0.929 . S
C1187 C1186 1.399 . S
C1187 C1188 1.385 . S
C1188 H1174 0.931 . S
C1188 C1187 1.385 . S
C1188 C1189 1.389 . S
C1189 C1188 1.389 . S
C1189 C1190 1.387 . S
C1190 H1175 0.930 . S
C1190 C1185 1.390 . S
C1190 C1189 1.387 . S
H1191 C1203 0.930 . S
H1192 C1205 0.930 . S
H1193 C1206 0.930 . S
H1194 C1210 0.959 . S
H1195 C1210 0.959 . S
H1196 C1210 0.961 . S
H1197 C1211 0.960 . S
H1198 C1211 0.961 . S
H1199 C1211 0.959 . S
H1200 C1214 0.929 . S
H1201 C1215 0.931 . S
H1202 C1217 0.930 . S
C1203 H1191 0.930 . S
C1203 C1204 1.399 . S
C1203 C1208 1.399 . S
C1204 C1203 1.399 . S
C1204 C1205 1.376 . S
C1205 H1192 0.930 . S
C1205 C1204 1.376 . S
C1205 C1206 1.388 . S
C1206 H1193 0.930 . S
C1206 C1205 1.388 . S
C1206 C1207 1.390 . S
C1207 C1206 1.390 . S
C1207 C1208 1.394 . S
C1207 C1213 1.465 . S
C1208 C1203 1.399 . S
C1208 C1207 1.394 . S
C1208 C1209 1.516 . S
C1209 C1208 1.516 . S
C1209 C1210 1.502 . S
C1209 C1211 1.561 . S
C1209 C1212 1.526 . S
C1210 H1194 0.959 . S
C1210 H1195 0.959 . S
C1210 H1196 0.961 . S
C1210 C1209 1.502 . S
C1211 H1197 0.960 . S
C1211 H1198 0.961 . S
C1211 H1199 0.959 . S
C1211 C1209 1.561 . S
C1212 C1209 1.526 . S
C1212 C1213 1.396 . S
C1212 C1217 1.390 . S
C1213 C1207 1.465 . S
C1213 C1212 1.396 . S
C1213 C1214 1.399 . S
C1214 H1200 0.929 . S
C1214 C1213 1.399 . S
C1214 C1215 1.385 . S
C1215 H1201 0.931 . S
C1215 C1214 1.385 . S
C1215 C1216 1.389 . S
C1216 C1215 1.389 . S
C1216 C1217 1.387 . S
C1217 H1202 0.930 . S
C1217 C1212 1.390 . S
C1217 C1216 1.387 . S
H1218 C1230 0.930 . S
H1219 C1232 0.930 . S
H1220 C1233 0.930 . S
H1221 C1237 0.959 . S
H1222 C1237 0.959 . S
H1223 C1237 0.961 . S
H1224 C1238 0.960 . S
H1225 C1238 0.961 . S
H1226 C1238 0.959 . S
H1227 C1241 0.929 . S
H1228 C1242 0.931 . S
H1229 C1244 0.930 . S
C1230 H1218 0.930 . S
C1230 C1231 1.399 . S
C1230 C1235 1.399 . S
C1231 C1230 1.399 . S
C1231 C1232 1.376 . S
C1232 H1219 0.930 . S
C1232 C1231 1.376 . S
C1232 C1233 1.388 . S
C1233 H1220 0.930 . S
C1233 C1232 1.388 . S
C1233 C1234 1.390 . S
C1234 C1233 1.390 . S
C1234 C1235 1.394 . S
C1234 C1240 1.465 . S
C1235 C1230 1.399 . S
C1235 C1234 1.394 . S
C1235 C1236 1.516 . S
C1236 C1235 1.516 . S
C1236 C1237 1.502 . S
C1236 C1238 1.561 . S
C1236 C1239 1.526 . S
C1237 H1221 0.959 . S
C1237 H1222 0.959 . S
C1237 H1223 0.961 . S
C1237 C1236 1.502 . S
C1238 H1224 0.960 . S
C1238 H1225 0.961 . S
C1238 H1226 0.959 . S
C1238 C1236 1.561 . S
C1239 C1236 1.526 . S
C1239 C1240 1.396 . S
C1239 C1244 1.390 . S
C1240 C1234 1.465 . S
C1240 C1239 1.396 . S
C1240 C1241 1.399 . S
C1241 H1227 0.929 . S
C1241 C1240 1.399 . S
C1241 C1242 1.385 . S
C1242 H1228 0.931 . S
C1242 C1241 1.385 . S
C1242 C1243 1.389 . S
C1243 C1242 1.389 . S
C1243 C1244 1.387 . S
C1244 H1229 0.930 . S
C1244 C1239 1.390 . S
C1244 C1243 1.387 . S
H1245 C1257 0.930 . S
H1246 C1259 0.930 . S
H1247 C1260 0.930 . S
H1248 C1264 0.959 . S
H1249 C1264 0.959 . S
H1250 C1264 0.961 . S
H1251 C1265 0.960 . S
H1252 C1265 0.961 . S
H1253 C1265 0.959 . S
H1254 C1268 0.929 . S
H1255 C1269 0.931 . S
H1256 C1271 0.930 . S
C1257 H1245 0.930 . S
C1257 C1258 1.399 . S
C1257 C1262 1.399 . S
C1258 C1257 1.399 . S
C1258 C1259 1.376 . S
C1259 H1246 0.930 . S
C1259 C1258 1.376 . S
C1259 C1260 1.388 . S
C1260 H1247 0.930 . S
C1260 C1259 1.388 . S
C1260 C1261 1.390 . S
C1261 C1260 1.390 . S
C1261 C1262 1.394 . S
C1261 C1267 1.465 . S
C1262 C1257 1.399 . S
C1262 C1261 1.394 . S
C1262 C1263 1.516 . S
C1263 C1262 1.516 . S
C1263 C1264 1.502 . S
C1263 C1265 1.561 . S
C1263 C1266 1.526 . S
C1264 H1248 0.959 . S
C1264 H1249 0.959 . S
C1264 H1250 0.961 . S
C1264 C1263 1.502 . S
C1265 H1251 0.960 . S
C1265 H1252 0.961 . S
C1265 H1253 0.959 . S
C1265 C1263 1.561 . S
C1266 C1263 1.526 . S
C1266 C1267 1.396 . S
C1266 C1271 1.390 . S
C1267 C1261 1.465 . S
C1267 C1266 1.396 . S
C1267 C1268 1.399 . S
C1268 H1254 0.929 . S
C1268 C1267 1.399 . S
C1268 C1269 1.385 . S
C1269 H1255 0.931 . S
C1269 C1268 1.385 . S
C1269 C1270 1.389 . S
C1270 C1269 1.389 . S
C1270 C1271 1.387 . S
C1271 H1256 0.930 . S
C1271 C1266 1.390 . S
C1271 C1270 1.387 . S
C637 C247 1.474 . S
C649 C362 1.434 . S
C676 C446 1.433 . S
C664 C283 1.474 . S
C703 C439 1.457 . S
C691 C175 1.467 . S
C718 C211 1.469 . S
C730 C355 1.449 . S
C757 C519 1.469 . S
C745 C103 1.480 . S
C784 C603 1.465 . S
C772 C139 1.449 . S
C799 C31 1.473 . S
C811 C596 1.449 . S
C826 C67 1.473 . S
C838 C512 1.449 . S
C865 C346 1.332 . S
C853 C37 1.494 1_554 S
C892 C430 1.349 . S
C880 C1 1.507 . S
C919 C441 1.342 . S
C907 C109 1.526 1_556 S
C946 C357 1.453 . S
C934 C73 1.515 . S
C973 C525 1.399 . S
C961 C181 1.511 1_556 S
C988 C145 1.512 . S
C1000 C609 1.401 . S
C1027 C598 1.394 . S
C1015 C253 1.536 1_554 S
C1042 C217 1.530 . S
C1054 C514 1.392 . S
C1081 C344 1.570 . S
C1069 C25 1.573 . S
C1108 C428 1.569 . S
C1096 C61 1.520 . S
C1123 C97 1.519 . S
C1135 C435 1.559 . S
C1162 C351 1.540 . S
C1150 C133 1.515 . S
C1189 C523 1.573 . S
C1177 C169 1.561 . S
C1204 C205 1.550 . S
C1216 C607 1.581 . S
C1231 C241 1.551 . S
C1243 C614 1.550 . S
C1258 C277 1.572 . S
C1270 C530 1.570 . S
