# Generated by pormake.
# Topology llj, (12,3)-cn, num edge types: 1
# Building blocks:
#     Node 0, Type 0, BuildingBlock: QEWDON_clean_sbu_0, # of connection points: 12
#     Node 1, Type 0, BuildingBlock: QEWDON_clean_sbu_0, # of connection points: 12
#     Node 2, Type 1, BuildingBlock: PAMTOO_clean_linker_0, # of connection points: 3
#     Node 3, Type 1, BuildingBlock: PAMTOO_clean_linker_0, # of connection points: 3
#     Node 4, Type 1, BuildingBlock: PAMTOO_clean_linker_0, # of connection points: 3
#     Node 5, Type 1, BuildingBlock: PAMTOO_clean_linker_0, # of connection points: 3
#     Node 6, Type 1, BuildingBlock: PAMTOO_clean_linker_0, # of connection points: 3
#     Node 7, Type 1, BuildingBlock: PAMTOO_clean_linker_0, # of connection points: 3
#     Node 8, Type 1, BuildingBlock: PAMTOO_clean_linker_0, # of connection points: 3
#     Node 9, Type 1, BuildingBlock: PAMTOO_clean_linker_0, # of connection points: 3
#     Edge 10, Type (0, 1), BuildingBlock: EZIPEK_clean_linker_0, # of connection points: 2
#     Edge 11, Type (0, 1), BuildingBlock: EZIPEK_clean_linker_0, # of connection points: 2
#     Edge 12, Type (0, 1), BuildingBlock: EZIPEK_clean_linker_0, # of connection points: 2
#     Edge 13, Type (0, 1), BuildingBlock: EZIPEK_clean_linker_0, # of connection points: 2
#     Edge 14, Type (0, 1), BuildingBlock: EZIPEK_clean_linker_0, # of connection points: 2
#     Edge 15, Type (0, 1), BuildingBlock: EZIPEK_clean_linker_0, # of connection points: 2
#     Edge 16, Type (0, 1), BuildingBlock: EZIPEK_clean_linker_0, # of connection points: 2
#     Edge 17, Type (0, 1), BuildingBlock: EZIPEK_clean_linker_0, # of connection points: 2
#     Edge 18, Type (0, 1), BuildingBlock: EZIPEK_clean_linker_0, # of connection points: 2
#     Edge 19, Type (0, 1), BuildingBlock: EZIPEK_clean_linker_0, # of connection points: 2
#     Edge 20, Type (0, 1), BuildingBlock: EZIPEK_clean_linker_0, # of connection points: 2
#     Edge 21, Type (0, 1), BuildingBlock: EZIPEK_clean_linker_0, # of connection points: 2
#     Edge 22, Type (0, 1), BuildingBlock: EZIPEK_clean_linker_0, # of connection points: 2
#     Edge 23, Type (0, 1), BuildingBlock: EZIPEK_clean_linker_0, # of connection points: 2
#     Edge 24, Type (0, 1), BuildingBlock: EZIPEK_clean_linker_0, # of connection points: 2
#     Edge 25, Type (0, 1), BuildingBlock: EZIPEK_clean_linker_0, # of connection points: 2
#     Edge 26, Type (0, 1), BuildingBlock: EZIPEK_clean_linker_0, # of connection points: 2
#     Edge 27, Type (0, 1), BuildingBlock: EZIPEK_clean_linker_0, # of connection points: 2
#     Edge 28, Type (0, 1), BuildingBlock: EZIPEK_clean_linker_0, # of connection points: 2
#     Edge 29, Type (0, 1), BuildingBlock: EZIPEK_clean_linker_0, # of connection points: 2
#     Edge 30, Type (0, 1), BuildingBlock: EZIPEK_clean_linker_0, # of connection points: 2
#     Edge 31, Type (0, 1), BuildingBlock: EZIPEK_clean_linker_0, # of connection points: 2
#     Edge 32, Type (0, 1), BuildingBlock: EZIPEK_clean_linker_0, # of connection points: 2
#     Edge 33, Type (0, 1), BuildingBlock: EZIPEK_clean_linker_0, # of connection points: 2
# Relax obj value: 0.010
# Max RMSD: 0.094
# Mean RMSD: 0.080
data_MOF--net-llj--node1-QEWDON_clean_sbu_0--node2-PAMTOO_clean_linker_0--edge1-EZIPEK_clean_linker_0
_symmetry_space_group_name_H-M    P1
_symmetry_Int_Tables_number       1
_symmetry_cell_setting            triclinic
loop_
_symmetry_equiv_pos_as_xyz
'x, y, z'
_cell_length_a     30.337092
_cell_length_b     30.423772
_cell_length_c     18.484055
_cell_angle_alpha  91.813501
_cell_angle_beta   90.342613
_cell_angle_gamma 90.311542
loop_
_atom_site_label
_atom_site_type_symbol
_atom_site_fract_x
_atom_site_fract_y
_atom_site_fract_z
_atom_type_partial_charge
Zn0 Zn 0.94882 0.08525 0.96369 0.0
Zn1 Zn 0.95998 0.10636 0.12366 0.0
O2 O 0.99721 0.09407 0.03729 0.0
H3 H 0.02409 0.10917 0.02481 0.0
C4 C 0.87809 0.0159 0.81459 0.0
O5 O 0.9186 0.0173 0.83973 0.0
Zn6 Zn 0.05626 0.91846 0.10479 0.0
Zn7 Zn 0.05241 0.90468 0.93378 0.0
O8 O 0.0226 0.9357 0.01729 0.0
H9 H 0.00486 0.96185 0.01388 0.0
Zn10 Zn 0.8682 0.95892 0.9364 0.0
O11 O 0.90602 0.98976 0.01334 0.0
Zn12 Zn 0.89832 0.95578 0.10333 0.0
H13 H 0.93033 0.00935 0.00393 0.0
Zn14 Zn 0.14428 0.0497 0.95153 0.0
O15 O 0.09863 0.03232 0.0245 0.0
H16 H 0.07113 0.01742 0.01323 0.0
Zn17 Zn 0.11258 0.06686 0.11675 0.0
C18 C 0.13563 0.98957 0.82259 0.0
O19 O 0.09369 0.99008 0.83944 0.0
O20 O 0.89534 0.12364 0.99001 0.0
O21 O 0.91334 0.15127 0.09912 0.0
O22 O 0.10464 0.86642 0.96274 0.0
O23 O 0.1015 0.87099 0.08295 0.0
O24 O 0.82387 0.91571 0.97789 0.0
O25 O 0.84733 0.91117 0.0922 0.0
C26 C 0.04102 0.11615 0.20358 0.0
O27 O 0.18763 0.09582 0.99116 0.0
O28 O 0.16351 0.11126 0.10311 0.0
O29 O 0.01374 0.88194 0.84849 0.0
C30 C 0.88819 0.15001 0.04342 0.0
O31 O 0.97463 0.0931 0.8622 0.0
C32 C 0.97174 0.90531 0.17415 0.0
O33 O 0.8494 0.99288 0.84598 0.0
C34 C 0.11828 0.85522 0.02465 0.0
O35 O 0.16317 0.01058 0.86266 0.0
C36 C 0.89968 0.03724 0.18899 0.0
O37 O 0.00064 0.12725 0.20566 0.0
O38 O 0.05519 0.09543 0.1477 0.0
C39 C 0.82079 0.89999 0.04066 0.0
O40 O 0.01245 0.89578 0.17611 0.0
O41 O 0.95722 0.9284 0.12328 0.0
C42 C 0.11723 0.98457 0.18759 0.0
O43 O 0.88331 -0.00132 0.18418 0.0
O44 O 0.92873 0.04846 0.14345 0.0
C45 C 0.19038 0.11733 0.05114 0.0
O46 O 0.13198 0.02378 0.19024 0.0
O47 O 0.08845 0.97401 0.13956 0.0
C48 C 0.97843 0.90115 0.83066 0.0
O49 O 0.96565 0.93631 0.86768 0.0
C50 C 0.00751 0.0697 0.84427 0.0
O51 O 0.02112 0.03922 0.8877 0.0
Zn52 Zn 0.45237 0.58472 0.41832 0.0
Zn53 Zn 0.44267 0.58613 0.5903 0.0
O54 O 0.47724 0.55923 0.50915 0.0
H55 H 0.4978 0.53522 0.51171 0.0
C56 C 0.35276 0.48309 0.30375 0.0
O57 O 0.39527 0.47864 0.31486 0.0
Zn58 Zn 0.54376 0.41839 0.62245 0.0
Zn59 Zn 0.53659 0.39443 0.45235 0.0
O60 O 0.51001 0.43151 0.53246 0.0
H61 H 0.49235 0.45735 0.52537 0.0
Zn62 Zn 0.35058 0.43612 0.43726 0.0
O63 O 0.39009 0.47181 0.50619 0.0
Zn64 Zn 0.38563 0.44329 0.60123 0.0
H65 H 0.41012 0.4951 0.49359 0.0
Zn66 Zn 0.66183 0.51177 0.4789 0.0
O67 O 0.5994 0.5111 0.51768 0.0
H68 H 0.57293 0.5004 0.49355 0.0
Zn69 Zn 0.60438 0.55523 0.59958 0.0
C70 C 0.64519 0.46436 0.34364 0.0
O71 O 0.60538 0.47918 0.35676 0.0
O72 O 0.39776 0.6237 0.43538 0.0
O73 O 0.39975 0.63214 0.55543 0.0
O74 O 0.57984 0.34859 0.48814 0.0
O75 O 0.58363 0.36474 0.60667 0.0
O76 O 0.31603 0.38545 0.48322 0.0
O77 O 0.34385 0.39134 0.59517 0.0
C78 C 0.5263 0.60232 0.66858 0.0
O79 O 0.68868 0.57425 0.48206 0.0
O80 O 0.64738 0.60276 0.57082 0.0
O81 O 0.49891 0.37787 0.36203 0.0
C82 C 0.38323 0.64101 0.49404 0.0
O83 O 0.49599 0.60399 0.33999 0.0
C84 C 0.45937 0.412 0.69203 0.0
O85 O 0.32563 0.46729 0.34821 0.0
C86 C 0.59468 0.34126 0.55116 0.0
O87 O 0.67574 0.47182 0.38969 0.0
C88 C 0.37322 0.52673 0.67438 0.0
O89 O 0.48546 0.61114 0.66575 0.0
O90 O 0.54349 0.58023 0.61645 0.0
C91 C 0.31893 0.37241 0.54785 0.0
O92 O 0.50042 0.40629 0.70197 0.0
O93 O 0.44612 0.42598 0.63181 0.0
C94 C 0.60756 0.48562 0.69174 0.0
O95 O 0.3615 0.48658 0.67326 0.0
O96 O 0.40443 0.53758 0.63215 0.0
C97 C 0.67783 0.60626 0.52416 0.0
O98 O 0.62516 0.52336 0.68681 0.0
O99 O 0.57893 0.47356 0.64467 0.0
C100 C 0.45979 0.39137 0.35269 0.0
O101 O 0.44158 0.41711 0.40222 0.0
C102 C 0.52327 0.57837 0.30851 0.0
O103 O 0.52514 0.53692 0.32606 0.0
H104 H 0.38313 0.39631 0.02636 0.0
H105 H 0.37661 0.26728 0.11419 0.0
H106 H 0.39244 0.27995 0.887 0.0
H107 H 0.34741 0.17873 0.92044 0.0
C108 C 0.33671 0.20729 0.95478 0.0
O109 O 0.37361 0.22574 0.98818 0.0
H110 H 0.32217 0.22977 0.9148 0.0
C111 C 0.38295 0.36093 0.0177 0.0
C112 C 0.38818 0.34223 0.94743 0.0
C113 C 0.38338 0.33391 0.07825 0.0
C114 C 0.37804 0.28839 0.06811 0.0
C115 C 0.37886 0.26958 -0.00155 0.0
C116 C 0.38756 0.29594 0.93951 0.0
H117 H 0.63792 0.43128 0.00799 0.0
H118 H 0.71593 0.33016 0.1019 0.0
H119 H 0.6982 0.33128 0.87156 0.0
H120 H 0.71919 0.23736 0.92908 0.0
C121 C 0.7317 0.25065 0.98199 0.0
O122 O 0.74004 0.29497 0.978 0.0
H123 H 0.70444 0.24382 0.01987 0.0
C124 C 0.65685 0.40128 0.00171 0.0
C125 C 0.66523 0.38329 0.93223 0.0
C126 C 0.67397 0.38133 0.06301 0.0
C127 C 0.70052 0.34411 0.05493 0.0
C128 C 0.70921 0.3263 0.986 0.0
C129 C 0.69052 0.3449 0.92488 0.0
H130 H 0.58593 0.60265 -0.00495 0.0
H131 H 0.64691 0.71541 0.89984 0.0
H132 H 0.65852 0.69606 0.12791 0.0
H133 H 0.65122 0.78011 0.09718 0.0
C134 C 0.66972 0.78372 0.04589 0.0
O135 O 0.68505 0.74343 0.02072 0.0
H136 H 0.64703 0.79568 0.00355 0.0
C137 C 0.60652 0.63187 -0.00058 0.0
C138 C 0.61982 0.6475 0.06831 0.0
C139 C 0.61496 0.65644 0.93759 0.0
C140 C 0.64069 0.69508 0.94578 0.0
C141 C 0.65851 0.70774 0.01363 0.0
C142 C 0.64764 0.68417 0.07485 0.0
H143 H 0.32778 0.54067 0.98198 0.0
H144 H 0.25713 0.6296 0.12487 0.0
H145 H 0.26191 0.65255 0.89694 0.0
H146 H 0.28336 0.72706 0.00067 0.0
C147 C 0.25519 0.72257 0.03806 0.0
O148 O 0.23393 0.68299 0.02312 0.0
H149 H 0.26794 0.7208 0.09419 0.0
C150 C 0.30717 0.56938 0.99029 0.0
C151 C 0.29554 0.59486 0.93147 0.0
C152 C 0.29323 0.58172 0.06014 0.0
C153 C 0.26744 0.61949 0.07085 0.0
C154 C 0.25644 0.64527 0.01218 0.0
C155 C 0.27007 0.63262 0.94247 0.0
H156 H 0.91894 0.8931 0.51468 0.0
H157 H 0.84933 0.78793 0.60903 0.0
H158 H 0.84738 0.79985 0.37911 0.0
H159 H 0.76464 0.78198 0.42033 0.0
C160 C 0.7674 0.77178 0.477 0.0
O161 O 0.81118 0.76121 0.48729 0.0
H162 H 0.75774 0.80038 0.51235 0.0
C163 C 0.90141 0.86266 0.50594 0.0
C164 C 0.89375 0.84363 0.43629 0.0
C165 C 0.88848 0.841 0.56832 0.0
C166 C 0.85943 0.80524 0.56158 0.0
C167 C 0.84285 0.79249 0.49343 0.0
C168 C 0.86014 0.81125 0.43124 0.0
H169 H 0.15412 0.94196 0.49183 0.0
H170 H 0.22934 0.84837 0.61062 0.0
H171 H 0.2216 0.83681 0.37855 0.0
H172 H 0.20869 0.75513 0.45794 0.0
C173 C 0.23446 0.76043 0.50046 0.0
O174 O 0.25314 0.80174 0.49583 0.0
H175 H 0.21876 0.75963 0.5544 0.0
C176 C 0.17502 0.91316 0.49268 0.0
C177 C 0.18663 0.8915 0.42753 0.0
C178 C 0.19036 0.89786 0.55894 0.0
C179 C 0.21738 0.86056 0.5597 0.0
C180 C 0.22827 0.83835 0.49476 0.0
C181 C 0.21306 0.85393 0.42873 0.0
H182 H 0.07026 0.10567 0.52085 0.0
H183 H 0.18457 0.17981 0.45863 0.0
H184 H 0.16837 0.14378 0.67964 0.0
H185 H 0.20533 0.22294 0.69212 0.0
C186 C 0.20389 0.23045 0.63372 0.0
O187 O 0.21313 0.19265 0.59276 0.0
H188 H 0.16969 0.24055 0.62023 0.0
C189 C 0.10174 0.12095 0.53452 0.0
C190 C 0.11669 0.12175 0.60631 0.0
C191 C 0.12694 0.14021 0.48033 0.0
C192 C 0.16604 0.16284 0.49928 0.0
C193 C 0.18047 0.16461 0.57145 0.0
C194 C 0.15727 0.14175 0.62377 0.0
H195 H 0.86947 0.08094 0.49394 0.0
H196 H 0.78803 0.18027 0.40061 0.0
H197 H 0.78491 0.16015 0.62964 0.0
H198 H 0.70475 0.164 0.57274 0.0
C199 C 0.70723 0.18909 0.53039 0.0
O200 O 0.75028 0.20354 0.52414 0.0
H201 H 0.69807 0.1737 0.47703 0.0
C202 C 0.84609 0.10763 0.50016 0.0
C203 C 0.82942 0.1184 0.56877 0.0
C204 C 0.83134 0.12962 0.43912 0.0
C205 C 0.8003 0.16357 0.4475 0.0
C206 C 0.78349 0.17438 0.51633 0.0
C207 C 0.79865 0.1523 0.57684 0.0
C208 C 0.22393 0.19164 0.03736 0.0
C209 C 0.22816 0.14789 0.05985 0.0
C210 C 0.30793 0.1507 0.04174 0.0
C211 C 0.30266 0.19195 0.00884 0.0
N212 N 0.26088 0.25902 0.00432 0.0
N213 N 0.27366 0.09127 0.1071 0.0
C214 C 0.26233 0.21507 0.0168 0.0
C215 C 0.27031 0.12953 0.07073 0.0
N216 N 0.18294 0.20956 0.03153 0.0
N217 N 0.34826 0.13091 0.04137 0.0
H218 H 0.24607 0.07578 0.12851 0.0
H219 H 0.30339 0.07691 0.12126 0.0
H220 H 0.37675 0.14667 0.02415 0.0
H221 H 0.35361 0.09876 0.05666 0.0
H222 H 0.17676 0.23929 0.00707 0.0
H223 H 0.15471 0.19349 0.04937 0.0
H224 H 0.23325 0.27839 0.01418 0.0
H225 H 0.28885 0.27706 0.9912 0.0
C226 C 0.8185 0.18711 0.08825 0.0
C227 C 0.852 0.18206 0.03552 0.0
C228 C 0.8086 0.22408 0.94997 0.0
C229 C 0.77455 0.22862 0.00233 0.0
N230 N 0.75671 0.23044 0.13015 0.0
N231 N 0.88595 0.21005 0.92874 0.0
C232 C 0.78235 0.21515 0.07435 0.0
C233 C 0.84914 0.20491 0.97006 0.0
N234 N 0.82012 0.16417 0.15045 0.0
N235 N 0.80246 0.23783 0.8809 0.0
H236 H 0.9168 0.19824 0.94384 0.0
H237 H 0.88706 0.23002 0.88403 0.0
H238 H 0.77521 0.25568 0.8643 0.0
H239 H 0.82372 0.22949 0.83864 0.0
H240 H 0.79379 0.16252 0.18627 0.0
H241 H 0.84651 0.14433 0.1639 0.0
H242 H 0.76376 0.22453 0.18422 0.0
H243 H 0.73189 0.25353 0.12405 0.0
C244 C 0.73923 0.89017 0.04929 0.0
C245 C 0.78205 0.87195 0.05532 0.0
C246 C 0.74933 0.80114 0.08418 0.0
C247 C 0.70767 0.81612 0.05988 0.0
N248 N 0.66046 0.87779 0.03628 0.0
N249 N 0.82845 0.80946 0.07609 0.0
C250 C 0.70179 0.8617 0.04807 0.0
C251 C 0.78734 0.82737 0.07308 0.0
N252 N 0.73452 0.93484 0.04756 0.0
N253 N 0.75229 0.76292 0.1206 0.0
H254 H 0.85705 0.82758 0.06715 0.0
H255 H 0.83381 0.77591 0.08146 0.0
H256 H 0.72449 0.74512 0.13545 0.0
H257 H 0.78144 0.75226 0.14427 0.0
H258 H 0.70433 0.95086 0.04959 0.0
H259 H 0.76126 0.95656 0.05039 0.0
H260 H 0.65432 0.90879 0.01638 0.0
H261 H 0.63185 0.85994 0.04648 0.0
C262 C 0.15279 0.78469 0.98209 0.0
C263 C 0.15441 0.82279 0.02815 0.0
C264 C 0.2253 0.79852 0.07756 0.0
C265 C 0.22344 0.76078 0.02998 0.0
N266 N 0.19677 0.73276 0.91402 0.0
N267 N 0.19829 0.87205 0.10459 0.0
C268 C 0.19074 0.75843 0.97492 0.0
C269 C 0.19228 0.83143 0.07215 0.0
N270 N 0.11468 0.77238 0.94704 0.0
N271 N 0.25896 0.80368 0.12658 0.0
H272 H 0.17622 0.89782 0.09867 0.0
H273 H 0.22726 0.88174 0.13115 0.0
H274 H 0.28773 0.78515 0.12444 0.0
H275 H 0.25811 0.82632 0.17003 0.0
H276 H 0.11157 0.74271 0.91755 0.0
H277 H 0.08496 0.78897 0.95422 0.0
H278 H 0.17492 0.73244 0.87023 0.0
H279 H 0.22661 0.71724 0.90326 0.0
C280 C 0.68448 0.67529 0.45526 0.0
C281 C 0.69799 0.64991 0.51446 0.0
C282 C 0.74474 0.71056 0.55967 0.0
C283 C 0.73814 0.73244 0.49364 0.0
N284 N 0.69476 0.74007 0.38432 0.0
N285 N 0.74177 0.64185 0.62231 0.0
C286 C 0.70584 0.71617 0.44306 0.0
C287 C 0.7281 0.66724 0.56681 0.0
N288 N 0.64955 0.66127 0.41315 0.0
N289 N 0.76531 0.73195 0.61664 0.0
H290 H 0.72969 0.61017 0.62999 0.0
H291 H 0.76747 0.65083 0.65746 0.0
H292 H 0.77527 0.76472 0.61497 0.0
H293 H 0.76766 0.71921 0.66814 0.0
H294 H 0.63503 0.67969 0.37308 0.0
H295 H 0.6325 0.63209 0.42189 0.0
H296 H 0.67817 0.72695 0.3391 0.0
H297 H 0.70125 0.77359 0.38106 0.0
C298 C 0.30548 0.65758 0.53095 0.0
C299 C 0.34369 0.66924 0.49152 0.0
C300 C 0.30351 0.7302 0.43958 0.0
C301 C 0.2695 0.72497 0.49108 0.0
N302 N 0.23368 0.67835 0.5769 0.0
N303 N 0.38055 0.71936 0.41272 0.0
C304 C 0.2691 0.68697 0.53415 0.0
C305 C 0.34304 0.70609 0.44653 0.0
N306 N 0.30293 0.61723 0.56152 0.0
N307 N 0.29736 0.75681 0.3823 0.0
H308 H 0.41069 0.70341 0.41787 0.0
H309 H 0.38268 0.7487 0.3853 0.0
H310 H 0.26739 0.77214 0.37231 0.0
H311 H 0.31974 0.75893 0.33998 0.0
H312 H 0.27456 0.60486 0.58501 0.0
H313 H 0.32796 0.59395 0.55765 0.0
H314 H 0.23444 0.65605 0.61847 0.0
H315 H 0.20319 0.69343 0.57086 0.0
C316 C 0.30606 0.29295 0.57051 0.0
C317 C 0.29002 0.33656 0.5712 0.0
C318 C 0.22064 0.31242 0.625 0.0
C319 C 0.23575 0.26811 0.6196 0.0
N320 N 0.29951 0.22105 0.62155 0.0
N321 N 0.23614 0.39017 0.60934 0.0
C322 C 0.28051 0.25964 0.60245 0.0
C323 C 0.24837 0.34701 0.60141 0.0
N324 N 0.34552 0.28325 0.53865 0.0
N325 N 0.18026 0.32139 0.65436 0.0
H326 H 0.25522 0.41615 0.59104 0.0
H327 H 0.20815 0.40104 0.63649 0.0
H328 H 0.1627 0.29885 0.68444 0.0
H329 H 0.16413 0.3513 0.65064 0.0
H330 H 0.35658 0.25119 0.52972 0.0
H331 H 0.36562 0.30706 0.51602 0.0
H332 H 0.33303 0.21467 0.61582 0.0
H333 H 0.28311 0.19795 0.65222 0.0
C334 C 0.60268 0.25999 0.53702 0.0
C335 C 0.62119 0.30108 0.55994 0.0
C336 C 0.68982 0.26416 0.59085 0.0
C337 C 0.67555 0.22631 0.54996 0.0
N338 N 0.61455 0.18415 0.49856 0.0
N339 N 0.68291 0.34295 0.60893 0.0
C340 C 0.63061 0.22289 0.52789 0.0
C341 C 0.66476 0.30337 0.5879 0.0
N342 N 0.55805 0.25622 0.52708 0.0
N343 N 0.72572 0.26203 0.63545 0.0
H344 H 0.66564 0.37245 0.60753 0.0
H345 H 0.71613 0.34682 0.62255 0.0
H346 H 0.74183 0.23255 0.64485 0.0
H347 H 0.73549 0.28784 0.67046 0.0
H348 H 0.54169 0.22651 0.51684 0.0
H349 H 0.53654 0.28245 0.53604 0.0
H350 H 0.58457 0.18135 0.47107 0.0
H351 H 0.63145 0.15448 0.50103 0.0
C352 C 0.07979 0.16608 0.29411 0.0
C353 C 0.06886 0.12289 0.26888 0.0
C354 C 0.10667 0.09274 0.37302 0.0
C355 C 0.1116 0.13563 0.40401 0.0
N356 N 0.09719 0.21352 0.3983 0.0
N357 N 0.06265 0.04584 0.29426 0.0
C358 C 0.09707 0.17264 0.36548 0.0
C359 C 0.08007 0.08635 0.31061 0.0
N360 N 0.07371 0.20069 0.24989 0.0
N361 N 0.12767 0.05796 0.40286 0.0
H362 H 0.0437 0.03892 0.24803 0.0
H363 H 0.06405 0.02039 0.33058 0.0
H364 H 0.14844 0.06151 0.44791 0.0
H365 H 0.12799 0.02662 0.37829 0.0
H366 H 0.08493 0.23242 0.26268 0.0
H367 H 0.06097 0.19675 0.19748 0.0
H368 H 0.08262 0.24077 0.37547 0.0
H369 H 0.1085 0.21958 0.45104 0.0
C370 C 0.83633 0.07376 0.25171 0.0
C371 C 0.88262 0.0682 0.24555 0.0
C372 C 0.89348 0.11536 0.35378 0.0
C373 C 0.84751 0.11441 0.36688 0.0
N374 N 0.7752 0.08653 0.33275 0.0
N375 N 0.95454 0.07589 0.30097 0.0
C376 C 0.81872 0.09237 0.31668 0.0
C377 C 0.91119 0.08735 0.29878 0.0
N378 N 0.80924 0.06184 0.19499 0.0
N379 N 0.92029 0.14267 0.39454 0.0
H380 H 0.96867 0.05466 0.26257 0.0
H381 H 0.97547 0.0848 0.34398 0.0
H382 H 0.90812 0.16406 0.43485 0.0
H383 H 0.95361 0.14717 0.38318 0.0
H384 H 0.77569 0.06897 0.19401 0.0
H385 H 0.82118 0.04945 0.14564 0.0
H386 H 0.75415 0.06637 0.30156 0.0
H387 H 0.76085 0.09847 0.38044 0.0
C388 C 0.94697 0.91837 0.29967 0.0
C389 C 0.9441 0.89235 0.23534 0.0
C390 C 0.91959 0.82978 0.30537 0.0
C391 C 0.91868 0.85746 0.36912 0.0
N392 N 0.96911 0.91122 0.42224 0.0
N393 N 0.92441 0.82423 0.17421 0.0
C394 C 0.94192 0.89807 0.36666 0.0
C395 C 0.92914 0.84832 0.23738 0.0
N396 N 0.95805 0.96177 0.29743 0.0
N397 N 0.91866 0.78516 0.31158 0.0
H398 H 0.93171 0.83717 0.124 0.0
H399 H 0.90959 0.79326 0.17106 0.0
H400 H 0.92014 0.77049 0.3618 0.0
H401 H 0.92289 0.76293 0.26825 0.0
H402 H 0.95806 0.98243 0.34361 0.0
H403 H 0.9639 0.9772 0.2488 0.0
H404 H 0.98813 0.93986 0.42162 0.0
H405 H 0.97942 0.88904 0.46075 0.0
C406 C 0.10649 0.93065 0.28707 0.0
C407 C 0.13496 0.95292 0.23967 0.0
C408 C 0.19874 0.93186 0.31272 0.0
C409 C 0.17017 0.90833 0.35816 0.0
N410 N 0.09906 0.87527 0.37753 0.0
N411 N 0.20882 0.96546 0.19683 0.0
C412 C 0.12477 0.90422 0.3413 0.0
C413 C 0.18138 0.95042 0.24911 0.0
N414 N 0.06222 0.93769 0.28497 0.0
N415 N 0.24191 0.93835 0.33208 0.0
H416 H 0.19713 0.97796 0.14846 0.0
H417 H 0.24283 0.96108 0.19764 0.0
H418 H 0.25597 0.92509 0.37808 0.0
H419 H 0.26295 0.9596 0.3056 0.0
H420 H 0.04089 0.92643 0.32421 0.0
H421 H 0.04729 0.95823 0.24825 0.0
H422 H 0.06662 0.86779 0.36264 0.0
H423 H 0.11153 0.85551 0.41794 0.0
C424 C 0.13911 0.92082 0.74382 0.0
C425 C 0.15057 0.96577 0.75591 0.0
C426 C 0.19314 0.9641 0.64354 0.0
C427 C 0.17743 0.92084 0.62761 0.0
N428 N 0.12903 0.86067 0.65627 0.0
N429 N 0.18118 0.0328 0.70975 0.0
C430 C 0.14856 0.89989 0.67599 0.0
C431 C 0.17579 0.98817 0.70389 0.0
N432 N 0.12089 0.89756 0.79822 0.0
N433 N 0.22543 0.98185 0.60204 0.0
H434 H 0.16735 0.05213 0.7512 0.0
H435 H 0.19517 0.05128 0.66923 0.0
H436 H 0.23932 0.96508 0.55775 0.0
H437 H 0.24133 0.01144 0.61558 0.0
H438 H 0.11594 0.86364 0.79512 0.0
H439 H 0.11475 0.91152 0.84927 0.0
H440 H 0.10447 0.84598 0.6865 0.0
H441 H 0.13441 0.84462 0.60644 0.0
C442 C 0.04367 0.05137 0.72504 0.0
C443 C 0.0348 0.0822 0.78226 0.0
C444 C 0.07281 0.13959 0.71717 0.0
C445 C 0.08712 0.10765 0.66502 0.0
N446 N 0.09038 0.03174 0.62311 0.0
N447 N 0.05002 0.15304 0.84052 0.0
C448 C 0.07361 0.06305 0.66975 0.0
C449 C 0.05188 0.12561 0.78055 0.0
N450 N 0.02255 0.01156 0.72237 0.0
N451 N 0.07767 0.18346 0.70505 0.0
H452 H 0.0367 0.14368 0.88961 0.0
H453 H 0.06609 0.18341 0.84387 0.0
H454 H 0.09102 0.19539 0.6576 0.0
H455 H 0.0639 0.20792 0.73844 0.0
H456 H 0.02402 0.98972 0.67793 0.0
H457 H 0.00051 0.00193 0.76205 0.0
H458 H 0.08506 -0.00184 0.6285 0.0
H459 H 0.11294 0.03898 0.58279 0.0
C460 C 0.84734 0.02087 0.68886 0.0
C461 C 0.86567 0.04203 0.75152 0.0
C462 C 0.86517 0.11232 0.69075 0.0
C463 C 0.84211 0.09209 0.63161 0.0
N464 N 0.8027 0.02877 0.5814 0.0
N465 N 0.88205 0.10954 0.81817 0.0
C466 C 0.83073 0.04677 0.63254 0.0
C467 C 0.87195 0.08825 0.75416 0.0
N468 N 0.84726 0.97607 0.68189 0.0
N469 N 0.88162 0.15402 0.68581 0.0
H470 H 0.88515 0.09296 0.86628 0.0
H471 H 0.88269 0.14366 0.82462 0.0
H472 H 0.87802 0.17249 0.63958 0.0
H473 H 0.90243 0.16853 0.72487 0.0
H474 H 0.83862 0.95905 0.63403 0.0
H475 H 0.86008 0.95621 0.72165 0.0
H476 H 0.79009 -0.00307 0.58393 0.0
H477 H 0.78848 0.04692 0.5405 0.0
C478 C 0.97793 0.8776 0.70013 0.0
C479 C 0.95416 0.8858 0.7648 0.0
C480 C 0.88534 0.8661 0.70082 0.0
C481 C 0.91015 0.85343 0.6387 0.0
N482 N 0.98147 0.8334 0.59011 0.0
N483 N 0.88614 0.87892 0.83099 0.0
C484 C 0.95691 0.85493 0.64172 0.0
C485 C 0.90803 0.87744 0.76659 0.0
N486 N 0.01995 0.89317 0.6928 0.0
N487 N 0.84048 0.86913 0.69656 0.0
H488 H 0.90179 0.88591 0.88042 0.0
H489 H 0.85341 0.86904 0.83618 0.0
H490 H 0.82282 0.86315 0.64871 0.0
H491 H 0.82121 0.8819 0.73859 0.0
H492 H 0.03665 0.8916 0.64364 0.0
H493 H 0.03599 0.91229 0.73279 0.0
H494 H 0.01569 0.83089 0.59366 0.0
H495 H 0.96744 0.81375 0.54871 0.0
C496 C 0.53112 0.60742 0.80358 0.0
C497 C 0.55109 0.61454 0.73587 0.0
C498 C 0.61617 0.64384 0.79989 0.0
C499 C 0.59314 0.64343 0.86677 0.0
N500 N 0.52083 0.6404 0.92171 0.0
N501 N 0.60652 0.65486 0.67208 0.0
C502 C 0.54823 0.62966 0.86578 0.0
C503 C 0.59205 0.63705 0.73432 0.0
N504 N 0.49611 0.57938 0.80924 0.0
N505 N 0.66084 0.64891 0.79811 0.0
H506 H 0.58791 0.65343 0.62439 0.0
H507 H 0.63465 0.6747 0.67052 0.0
H508 H 0.68037 0.65009 0.84473 0.0
H509 H 0.67851 0.64662 0.74989 0.0
H510 H 0.48269 0.57152 0.85907 0.0
H511 H 0.48399 0.56039 0.7655 0.0
H512 H 0.48729 0.63277 0.92085 0.0
H513 H 0.53029 0.6622 0.96344 0.0
C514 C 0.37046 0.58956 0.76813 0.0
C515 C 0.34849 0.55747 0.72426 0.0
C516 C 0.28638 0.55836 0.80881 0.0
C517 C 0.31253 0.58378 0.8585 0.0
N518 N 0.37941 0.62425 0.88687 0.0
N519 N 0.27849 0.52727 0.68653 0.0
C520 C 0.35449 0.59982 0.83844 0.0
C521 C 0.30399 0.54685 0.7397 0.0
N522 N 0.40319 0.61379 0.7394 0.0
N523 N 0.24582 0.54352 0.82918 0.0
H524 H 0.29046 0.52131 0.63428 0.0
H525 H 0.24489 0.52113 0.6913 0.0
H526 H 0.23178 0.55198 0.87906 0.0
H527 H 0.22696 0.52098 0.79872 0.0
H528 H 0.41924 0.63984 0.76653 0.0
H529 H 0.40752 0.61283 0.684 0.0
H530 H 0.41218 0.63259 0.87772 0.0
H531 H 0.36828 0.63393 0.93821 0.0
C532 C 0.40044 0.36626 0.74952 0.0
C533 C 0.42861 0.4034 0.75164 0.0
C534 C 0.4259 0.40643 0.88278 0.0
C535 C 0.39658 0.36936 0.88186 0.0
N536 N 0.34059 0.33049 0.81035 0.0
N537 N 0.4486 0.47003 0.81655 0.0
C538 C 0.37847 0.35485 0.81377 0.0
C539 C 0.43415 0.42759 0.81713 0.0
N540 N 0.39669 0.34018 0.68843 0.0
N541 N 0.44997 0.4189 0.94255 0.0
H542 H 0.45446 0.48577 0.76811 0.0
H543 H 0.45018 0.49009 0.86335 0.0
H544 H 0.45202 0.40049 0.98853 0.0
H545 H 0.47303 0.44444 0.94232 0.0
H546 H 0.37953 0.31036 0.68747 0.0
H547 H 0.41312 0.34704 0.64063 0.0
H548 H 0.32527 0.32149 0.76135 0.0
H549 H 0.32227 0.32395 0.85647 0.0
C550 C 0.59133 0.44469 0.80397 0.0
C551 C 0.62149 0.4564 0.74971 0.0
C552 C 0.68135 0.42305 0.81758 0.0
C553 C 0.65013 0.40671 0.8673 0.0
N554 N 0.57382 0.39376 0.89728 0.0
N555 N 0.6937 0.44914 0.69695 0.0
C556 C 0.60459 0.41497 0.85725 0.0
C557 C 0.66607 0.44309 0.75393 0.0
N558 N 0.551 0.46413 0.80789 0.0
N559 N 0.72545 0.42204 0.83299 0.0
H560 H 0.68346 0.46339 0.6491 0.0
H561 H 0.72534 0.43603 0.69446 0.0
H562 H 0.73818 0.41006 0.88096 0.0
H563 H 0.74908 0.43744 0.80173 0.0
H564 H 0.53096 0.46138 0.85306 0.0
H565 H 0.53988 0.48646 0.77027 0.0
H566 H 0.54008 0.3958 0.8869 0.0
H567 H 0.58214 0.37073 0.93564 0.0
C568 C 0.68861 0.45707 0.2285 0.0
C569 C 0.65459 0.44133 0.27376 0.0
C570 C 0.63206 0.38739 0.17916 0.0
C571 C 0.66739 0.40166 0.13578 0.0
N572 N 0.73423 0.44385 0.12289 0.0
N573 N 0.60054 0.38553 0.29922 0.0
C574 C 0.69727 0.43453 0.16176 0.0
C575 C 0.62806 0.4048 0.25102 0.0
N576 N 0.71113 0.49485 0.24721 0.0
N577 N 0.60206 0.35764 0.15126 0.0
H578 H 0.59796 0.39642 0.35308 0.0
H579 H 0.58351 0.35627 0.28821 0.0
H580 H 0.6045 0.34356 0.09923 0.0
H581 H 0.57319 0.3491 0.17762 0.0
H582 H 0.73302 0.51025 0.2129 0.0
H583 H 0.70525 0.51348 0.29432 0.0
H584 H 0.76005 0.46342 0.14302 0.0
H585 H 0.74092 0.42924 0.07236 0.0
C586 C 0.59587 0.59041 0.24529 0.0
C587 C 0.5492 0.59464 0.24712 0.0
C588 C 0.55195 0.64098 0.1422 0.0
C589 C 0.59711 0.63099 0.13298 0.0
N590 N 0.66223 0.59367 0.17251 0.0
N591 N 0.4822 0.61476 0.18511 0.0
C592 C 0.61924 0.60486 0.18362 0.0
C593 C 0.52701 0.61726 0.19203 0.0
N594 N 0.61794 0.57476 0.30359 0.0
N595 N 0.53324 0.67461 0.10589 0.0
H596 H 0.4626 0.59551 0.21795 0.0
H597 H 0.46533 0.62759 0.1413 0.0
H598 H 0.55143 0.69504 0.07283 0.0
H599 H 0.50116 0.68534 0.11553 0.0
H600 H 0.65215 0.57518 0.30832 0.0
H601 H 0.60201 0.5656 0.35063 0.0
H602 H 0.67911 0.57181 0.20453 0.0
H603 H 0.68022 0.6042 0.12828 0.0
C604 C 0.30749 0.48852 0.19026 0.0
C605 C 0.33677 0.50842 0.24196 0.0
C606 C 0.34015 0.57498 0.17095 0.0
C607 C 0.30801 0.55647 0.12285 0.0
N608 N 0.25546 0.49898 0.09242 0.0
N609 N 0.37424 0.57342 0.28952 0.0
C610 C 0.29006 0.51414 0.13407 0.0
C611 C 0.35132 0.55247 0.23452 0.0
N612 N 0.29773 0.44471 0.19311 0.0
N613 N 0.36085 0.61349 0.15484 0.0
H614 H 0.38212 0.55843 0.33781 0.0
H615 H 0.38177 0.60686 0.29041 0.0
H616 H 0.35419 0.6306 0.10804 0.0
H617 H 0.38714 0.6268 0.18469 0.0
H618 H 0.28095 0.4272 0.15209 0.0
H619 H 0.30958 0.42491 0.23373 0.0
H620 H 0.23785 0.47045 0.10311 0.0
H621 H 0.24181 0.51684 0.05063 0.0
C622 C 0.46051 0.38662 0.21809 0.0
C623 C 0.43696 0.38096 0.28303 0.0
C624 C 0.37418 0.35093 0.21224 0.0
C625 C 0.40045 0.35141 0.14907 0.0
N626 N 0.4739 0.35561 0.09919 0.0
N627 N 0.37338 0.35152 0.34357 0.0
C628 C 0.44509 0.36546 0.15381 0.0
C629 C 0.39404 0.36176 0.28077 0.0
N630 N 0.49731 0.41272 0.2173 0.0
N631 N 0.33055 0.3399 0.20668 0.0
H632 H 0.38738 0.35756 0.39455 0.0
H633 H 0.3441 0.33359 0.34516 0.0
H634 H 0.31534 0.33184 0.15719 0.0
H635 H 0.30872 0.34235 0.24985 0.0
H636 H 0.5134 0.42044 0.16959 0.0
H637 H 0.50867 0.43063 0.26282 0.0
H638 H 0.50756 0.36237 0.103 0.0
H639 H 0.46528 0.33637 0.05356 0.0
loop_
_geom_bond_atom_site_label_1
_geom_bond_atom_site_label_2
_geom_bond_distance
_geom_bond_site_symmetry_2
_ccdc_geom_bond_type
Zn0 O2 1.933 1_556 S
Zn0 O20 1.985 . S
Zn0 O31 1.955 . S
Zn1 O2 1.911 . S
Zn1 O21 1.970 . S
Zn1 O37 1.945 . S
Zn1 O44 1.981 . S
O2 Zn0 1.933 1_554 S
O2 Zn1 1.911 . S
O2 H3 0.841 1_655 S
H3 O2 0.841 1_455 S
C4 O5 1.246 . S
C4 O33 1.276 1_545 S
O5 C4 1.246 . S
Zn6 O8 1.911 . S
Zn6 O23 1.970 . S
Zn6 O40 1.945 . S
Zn6 O47 1.981 . S
Zn7 O8 1.933 1_556 S
Zn7 O22 1.985 . S
Zn7 O29 1.955 . S
O8 Zn6 1.911 . S
O8 Zn7 1.933 1_554 S
O8 H9 0.841 1_455 S
H9 O8 0.841 1_655 S
Zn10 O11 1.933 1_556 S
Zn10 O24 1.985 . S
Zn10 O33 1.955 . S
O11 Zn10 1.933 1_554 S
O11 Zn12 1.911 . S
O11 H13 0.841 1_565 S
Zn12 O11 1.911 . S
Zn12 O25 1.970 . S
Zn12 O41 1.981 . S
Zn12 O43 1.945 . S
H13 O11 0.841 1_545 S
Zn14 O15 1.933 1_556 S
Zn14 O27 1.985 . S
Zn14 O35 1.955 . S
O15 Zn14 1.933 1_554 S
O15 H16 0.841 1_545 S
O15 Zn17 1.911 . S
H16 O15 0.841 1_565 S
Zn17 O15 1.911 . S
Zn17 O28 1.970 . S
Zn17 O38 1.981 . S
Zn17 O46 1.945 . S
C18 O19 1.246 . S
C18 O35 1.276 1_565 S
O19 C18 1.246 . S
O20 Zn0 1.985 . S
O20 C30 1.245 1_556 S
O21 Zn1 1.970 . S
O21 C30 1.263 . S
O22 Zn7 1.985 . S
O22 C34 1.245 1_556 S
O23 Zn6 1.970 . S
O23 C34 1.263 . S
O24 Zn10 1.985 . S
O24 C39 1.245 1_556 S
O25 Zn12 1.970 . S
O25 C39 1.263 . S
C26 O37 1.262 1_455 S
C26 O38 1.245 . S
O27 Zn14 1.985 . S
O27 C45 1.245 1_556 S
O28 Zn17 1.970 . S
O28 C45 1.263 . S
O29 Zn7 1.955 . S
O29 C48 1.276 1_455 S
C30 O20 1.245 1_554 S
C30 O21 1.263 . S
O31 Zn0 1.955 . S
O31 C50 1.276 1_655 S
C32 O40 1.262 1_655 S
C32 O41 1.245 . S
O33 C4 1.276 1_565 S
O33 Zn10 1.955 . S
C34 O22 1.245 1_554 S
C34 O23 1.263 . S
O35 Zn14 1.955 . S
O35 C18 1.276 1_545 S
C36 O43 1.262 1_545 S
C36 O44 1.245 . S
O37 Zn1 1.945 . S
O37 C26 1.262 1_655 S
O38 Zn17 1.981 . S
O38 C26 1.245 . S
C39 O24 1.245 1_554 S
C39 O25 1.263 . S
O40 Zn6 1.945 . S
O40 C32 1.262 1_455 S
O41 Zn12 1.981 . S
O41 C32 1.245 . S
C42 O46 1.262 1_565 S
C42 O47 1.245 . S
O43 Zn12 1.945 . S
O43 C36 1.262 1_565 S
O44 Zn1 1.981 . S
O44 C36 1.245 . S
C45 O27 1.245 1_554 S
C45 O28 1.263 . S
O46 Zn17 1.945 . S
O46 C42 1.262 1_545 S
O47 Zn6 1.981 . S
O47 C42 1.245 . S
C48 O29 1.276 1_655 S
C48 O49 1.246 . S
O49 C48 1.246 . S
C50 O31 1.276 1_455 S
C50 O51 1.246 . S
O51 C50 1.246 . S
Zn52 O54 1.933 . S
Zn52 O72 1.985 . S
Zn52 O83 1.955 . S
Zn53 O54 1.911 . S
Zn53 O73 1.970 . S
Zn53 O89 1.945 . S
Zn53 O96 1.981 . S
O54 Zn52 1.933 . S
O54 Zn53 1.911 . S
O54 H55 0.841 . S
H55 O54 0.841 . S
C56 O57 1.246 . S
C56 O85 1.276 . S
O57 C56 1.246 . S
Zn58 O60 1.911 . S
Zn58 O75 1.970 . S
Zn58 O92 1.945 . S
Zn58 O99 1.981 . S
Zn59 O60 1.933 . S
Zn59 O74 1.985 . S
Zn59 O81 1.955 . S
O60 Zn58 1.911 . S
O60 Zn59 1.933 . S
O60 H61 0.841 . S
H61 O60 0.841 . S
Zn62 O63 1.933 . S
Zn62 O76 1.985 . S
Zn62 O85 1.955 . S
O63 Zn62 1.933 . S
O63 Zn64 1.911 . S
O63 H65 0.841 . S
Zn64 O63 1.911 . S
Zn64 O77 1.970 . S
Zn64 O93 1.981 . S
Zn64 O95 1.945 . S
H65 O63 0.841 . S
Zn66 O67 1.933 . S
Zn66 O79 1.985 . S
Zn66 O87 1.955 . S
O67 Zn66 1.933 . S
O67 H68 0.841 . S
O67 Zn69 1.911 . S
H68 O67 0.841 . S
Zn69 O67 1.911 . S
Zn69 O80 1.970 . S
Zn69 O90 1.981 . S
Zn69 O98 1.945 . S
C70 O71 1.246 . S
C70 O87 1.276 . S
O71 C70 1.246 . S
O72 Zn52 1.985 . S
O72 C82 1.245 . S
O73 Zn53 1.970 . S
O73 C82 1.263 . S
O74 Zn59 1.985 . S
O74 C86 1.245 . S
O75 Zn58 1.970 . S
O75 C86 1.263 . S
O76 Zn62 1.985 . S
O76 C91 1.245 . S
O77 Zn64 1.970 . S
O77 C91 1.263 . S
C78 O89 1.262 . S
C78 O90 1.245 . S
O79 Zn66 1.985 . S
O79 C97 1.245 . S
O80 Zn69 1.970 . S
O80 C97 1.263 . S
O81 Zn59 1.955 . S
O81 C100 1.276 . S
C82 O72 1.245 . S
C82 O73 1.263 . S
O83 Zn52 1.955 . S
O83 C102 1.276 . S
C84 O92 1.262 . S
C84 O93 1.245 . S
O85 C56 1.276 . S
O85 Zn62 1.955 . S
C86 O74 1.245 . S
C86 O75 1.263 . S
O87 Zn66 1.955 . S
O87 C70 1.276 . S
C88 O95 1.262 . S
C88 O96 1.245 . S
O89 Zn53 1.945 . S
O89 C78 1.262 . S
O90 Zn69 1.981 . S
O90 C78 1.245 . S
C91 O76 1.245 . S
C91 O77 1.263 . S
O92 Zn58 1.945 . S
O92 C84 1.262 . S
O93 Zn64 1.981 . S
O93 C84 1.245 . S
C94 O98 1.262 . S
C94 O99 1.245 . S
O95 Zn64 1.945 . S
O95 C88 1.262 . S
O96 Zn53 1.981 . S
O96 C88 1.245 . S
C97 O79 1.245 . S
C97 O80 1.263 . S
O98 Zn69 1.945 . S
O98 C94 1.262 . S
O99 Zn58 1.981 . S
O99 C94 1.245 . S
C100 O81 1.276 . S
C100 O101 1.246 . S
O101 C100 1.246 . S
C102 O83 1.276 . S
C102 O103 1.246 . S
O103 C102 1.246 . S
H104 C111 0.929 . S
H105 C114 0.930 . S
H106 C116 0.929 . S
H107 C108 0.969 . S
C108 H107 0.969 . S
C108 O109 1.550 1_554 S
C108 H110 0.973 . S
O109 C108 1.550 1_556 S
O109 C115 1.412 1_556 S
H110 C108 0.973 . S
C111 H104 0.929 . S
C111 C112 1.400 1_554 S
C111 C113 1.364 . S
C112 C111 1.400 1_556 S
C112 C116 1.377 . S
C113 C111 1.364 . S
C113 C114 1.374 . S
C114 H105 0.930 . S
C114 C113 1.374 . S
C114 C115 1.383 . S
C115 O109 1.412 1_554 S
C115 C114 1.383 . S
C115 C116 1.394 1_554 S
C116 H106 0.929 . S
C116 C112 1.377 . S
C116 C115 1.394 1_556 S
H117 C124 0.929 . S
H118 C127 0.930 . S
H119 C129 0.929 . S
H120 C121 0.969 . S
C121 H120 0.969 . S
C121 O122 1.550 1_554 S
C121 H123 0.973 . S
O122 C121 1.550 1_556 S
O122 C128 1.412 1_556 S
H123 C121 0.973 . S
C124 H117 0.929 . S
C124 C125 1.400 1_554 S
C124 C126 1.364 . S
C125 C124 1.400 1_556 S
C125 C129 1.377 . S
C126 C124 1.364 . S
C126 C127 1.374 . S
C127 H118 0.930 . S
C127 C126 1.374 . S
C127 C128 1.383 . S
C128 O122 1.412 1_554 S
C128 C127 1.383 . S
C128 C129 1.394 1_554 S
C129 H119 0.929 . S
C129 C125 1.377 . S
C129 C128 1.394 1_556 S
H130 C137 0.929 . S
H131 C140 0.930 . S
H132 C142 0.929 . S
H133 C134 0.969 . S
C134 H133 0.969 . S
C134 O135 1.550 1_556 S
C134 H136 0.973 . S
O135 C134 1.550 1_554 S
O135 C141 1.412 . S
H136 C134 0.973 . S
C137 H130 0.929 . S
C137 C138 1.400 . S
C137 C139 1.364 1_554 S
C138 C137 1.400 . S
C138 C142 1.377 . S
C139 C137 1.364 1_556 S
C139 C140 1.374 . S
C140 H131 0.930 . S
C140 C139 1.374 . S
C140 C141 1.383 1_556 S
C141 O135 1.412 . S
C141 C140 1.383 1_554 S
C141 C142 1.394 . S
C142 H132 0.929 . S
C142 C138 1.377 . S
C142 C141 1.394 . S
H143 C150 0.929 . S
H144 C153 0.930 . S
H145 C155 0.929 . S
H146 C147 0.969 . S
C147 H146 0.969 . S
C147 O148 1.550 1_554 S
C147 H149 0.973 . S
O148 C147 1.550 1_556 S
O148 C154 1.412 1_556 S
H149 C147 0.973 . S
C150 H143 0.929 . S
C150 C151 1.400 1_554 S
C150 C152 1.364 . S
C151 C150 1.400 1_556 S
C151 C155 1.377 . S
C152 C150 1.364 . S
C152 C153 1.374 . S
C153 H144 0.930 . S
C153 C152 1.374 . S
C153 C154 1.383 . S
C154 O148 1.412 1_554 S
C154 C153 1.383 . S
C154 C155 1.394 1_554 S
C155 H145 0.929 . S
C155 C151 1.377 . S
C155 C154 1.394 1_556 S
H156 C163 0.929 . S
H157 C166 0.930 . S
H158 C168 0.929 . S
H159 C160 0.969 . S
C160 H159 0.969 . S
C160 O161 1.550 . S
C160 H162 0.973 . S
O161 C160 1.550 . S
O161 C167 1.412 . S
H162 C160 0.973 . S
C163 H156 0.929 . S
C163 C164 1.400 . S
C163 C165 1.364 . S
C164 C163 1.400 . S
C164 C168 1.377 . S
C165 C163 1.364 . S
C165 C166 1.374 . S
C166 H157 0.930 . S
C166 C165 1.374 . S
C166 C167 1.383 . S
C167 O161 1.412 . S
C167 C166 1.383 . S
C167 C168 1.394 . S
C168 H158 0.929 . S
C168 C164 1.377 . S
C168 C167 1.394 . S
H169 C176 0.929 . S
H170 C179 0.930 . S
H171 C181 0.929 . S
H172 C173 0.969 . S
C173 H172 0.969 . S
C173 O174 1.550 . S
C173 H175 0.973 . S
O174 C173 1.550 . S
O174 C180 1.412 . S
H175 C173 0.973 . S
C176 H169 0.929 . S
C176 C177 1.400 . S
C176 C178 1.364 . S
C177 C176 1.400 . S
C177 C181 1.377 . S
C178 C176 1.364 . S
C178 C179 1.374 . S
C179 H170 0.930 . S
C179 C178 1.374 . S
C179 C180 1.383 . S
C180 O174 1.412 . S
C180 C179 1.383 . S
C180 C181 1.394 . S
C181 H171 0.929 . S
C181 C177 1.377 . S
C181 C180 1.394 . S
H182 C189 0.929 . S
H183 C192 0.930 . S
H184 C194 0.929 . S
H185 C186 0.969 . S
C186 H185 0.969 . S
C186 O187 1.550 . S
C186 H188 0.973 . S
O187 C186 1.550 . S
O187 C193 1.412 . S
H188 C186 0.973 . S
C189 H182 0.929 . S
C189 C190 1.400 . S
C189 C191 1.364 . S
C190 C189 1.400 . S
C190 C194 1.377 . S
C191 C189 1.364 . S
C191 C192 1.374 . S
C192 H183 0.930 . S
C192 C191 1.374 . S
C192 C193 1.383 . S
C193 O187 1.412 . S
C193 C192 1.383 . S
C193 C194 1.394 . S
C194 H184 0.929 . S
C194 C190 1.377 . S
C194 C193 1.394 . S
H195 C202 0.929 . S
H196 C205 0.930 . S
H197 C207 0.929 . S
H198 C199 0.969 . S
C199 H198 0.969 . S
C199 O200 1.550 . S
C199 H201 0.973 . S
O200 C199 1.550 . S
O200 C206 1.412 . S
H201 C199 0.973 . S
C202 H195 0.929 . S
C202 C203 1.400 . S
C202 C204 1.364 . S
C203 C202 1.400 . S
C203 C207 1.377 . S
C204 C202 1.364 . S
C204 C205 1.374 . S
C205 H196 0.930 . S
C205 C204 1.374 . S
C205 C206 1.383 . S
C206 O200 1.412 . S
C206 C205 1.383 . S
C206 C207 1.394 . S
C207 H197 0.929 . S
C207 C203 1.377 . S
C207 C206 1.394 . S
C208 C209 1.363 . S
C208 C214 1.379 . S
C208 N216 1.356 . S
C209 C208 1.363 . S
C209 C215 1.363 1_554 S
C210 C211 1.363 1_556 S
C210 C215 1.379 . S
C210 N217 1.356 . S
C211 C210 1.363 1_554 S
C211 C214 1.363 . S
N212 C214 1.356 . S
N212 H224 0.984 . S
N212 H225 0.985 . S
N213 C215 1.356 . S
N213 H218 0.984 . S
N213 H219 0.985 . S
C214 C208 1.379 . S
C214 C211 1.363 . S
C214 N212 1.356 . S
C215 C209 1.363 1_556 S
C215 C210 1.379 . S
C215 N213 1.356 . S
N216 C208 1.356 . S
N216 H222 0.984 . S
N216 H223 0.984 . S
N217 C210 1.356 . S
N217 H220 0.984 . S
N217 H221 0.985 . S
H218 N213 0.984 . S
H219 N213 0.985 . S
H220 N217 0.984 . S
H221 N217 0.985 . S
H222 N216 0.984 . S
H223 N216 0.984 . S
H224 N212 0.984 . S
H225 N212 0.985 . S
C226 C227 1.363 . S
C226 C232 1.379 . S
C226 N234 1.356 . S
C227 C226 1.363 . S
C227 C233 1.363 1_554 S
C228 C229 1.363 1_556 S
C228 C233 1.379 . S
C228 N235 1.356 . S
C229 C228 1.363 1_554 S
C229 C232 1.363 . S
N230 C232 1.356 . S
N230 H242 0.984 . S
N230 H243 0.985 . S
N231 C233 1.356 . S
N231 H236 0.984 . S
N231 H237 0.985 . S
C232 C226 1.379 . S
C232 C229 1.363 . S
C232 N230 1.356 . S
C233 C227 1.363 1_556 S
C233 C228 1.379 . S
C233 N231 1.356 . S
N234 C226 1.356 . S
N234 H240 0.984 . S
N234 H241 0.984 . S
N235 C228 1.356 . S
N235 H238 0.984 . S
N235 H239 0.985 . S
H236 N231 0.984 . S
H237 N231 0.985 . S
H238 N235 0.984 . S
H239 N235 0.985 . S
H240 N234 0.984 . S
H241 N234 0.984 . S
H242 N230 0.984 . S
H243 N230 0.985 . S
C244 C245 1.363 1_556 S
C244 C250 1.379 . S
C244 N252 1.356 . S
C245 C244 1.363 1_554 S
C245 C251 1.363 . S
C246 C247 1.363 . S
C246 C251 1.379 . S
C246 N253 1.356 . S
C247 C246 1.363 . S
C247 C250 1.363 1_554 S
N248 C250 1.356 . S
N248 H260 0.984 . S
N248 H261 0.985 . S
N249 C251 1.356 . S
N249 H254 0.984 . S
N249 H255 0.985 . S
C250 C244 1.379 . S
C250 C247 1.363 1_556 S
C250 N248 1.356 . S
C251 C245 1.363 . S
C251 C246 1.379 . S
C251 N249 1.356 . S
N252 C244 1.356 . S
N252 H258 0.984 . S
N252 H259 0.984 . S
N253 C246 1.356 . S
N253 H256 0.984 . S
N253 H257 0.985 . S
H254 N249 0.984 . S
H255 N249 0.985 . S
H256 N253 0.984 . S
H257 N253 0.985 . S
H258 N252 0.984 . S
H259 N252 0.984 . S
H260 N248 0.984 . S
H261 N248 0.985 . S
C262 C263 1.363 1_556 S
C262 C268 1.379 . S
C262 N270 1.356 . S
C263 C262 1.363 1_554 S
C263 C269 1.363 . S
C264 C265 1.363 . S
C264 C269 1.379 . S
C264 N271 1.356 . S
C265 C264 1.363 . S
C265 C268 1.363 1_554 S
N266 C268 1.356 . S
N266 H278 0.984 . S
N266 H279 0.985 . S
N267 C269 1.356 . S
N267 H272 0.984 . S
N267 H273 0.985 . S
C268 C262 1.379 . S
C268 C265 1.363 1_556 S
C268 N266 1.356 . S
C269 C263 1.363 . S
C269 C264 1.379 . S
C269 N267 1.356 . S
N270 C262 1.356 . S
N270 H276 0.984 . S
N270 H277 0.984 . S
N271 C264 1.356 . S
N271 H274 0.984 . S
N271 H275 0.985 . S
H272 N267 0.984 . S
H273 N267 0.985 . S
H274 N271 0.984 . S
H275 N271 0.985 . S
H276 N270 0.984 . S
H277 N270 0.984 . S
H278 N266 0.984 . S
H279 N266 0.985 . S
C280 C281 1.363 . S
C280 C286 1.379 . S
C280 N288 1.356 . S
C281 C280 1.363 . S
C281 C287 1.363 . S
C282 C283 1.363 . S
C282 C287 1.379 . S
C282 N289 1.356 . S
C283 C282 1.363 . S
C283 C286 1.363 . S
N284 C286 1.356 . S
N284 H296 0.984 . S
N284 H297 0.985 . S
N285 C287 1.356 . S
N285 H290 0.984 . S
N285 H291 0.985 . S
C286 C280 1.379 . S
C286 C283 1.363 . S
C286 N284 1.356 . S
C287 C281 1.363 . S
C287 C282 1.379 . S
C287 N285 1.356 . S
N288 C280 1.356 . S
N288 H294 0.984 . S
N288 H295 0.984 . S
N289 C282 1.356 . S
N289 H292 0.984 . S
N289 H293 0.985 . S
H290 N285 0.984 . S
H291 N285 0.985 . S
H292 N289 0.984 . S
H293 N289 0.985 . S
H294 N288 0.984 . S
H295 N288 0.984 . S
H296 N284 0.984 . S
H297 N284 0.985 . S
C298 C299 1.363 . S
C298 C304 1.379 . S
C298 N306 1.356 . S
C299 C298 1.363 . S
C299 C305 1.363 . S
C300 C301 1.363 . S
C300 C305 1.379 . S
C300 N307 1.356 . S
C301 C300 1.363 . S
C301 C304 1.363 . S
N302 C304 1.356 . S
N302 H314 0.984 . S
N302 H315 0.985 . S
N303 C305 1.356 . S
N303 H308 0.984 . S
N303 H309 0.985 . S
C304 C298 1.379 . S
C304 C301 1.363 . S
C304 N302 1.356 . S
C305 C299 1.363 . S
C305 C300 1.379 . S
C305 N303 1.356 . S
N306 C298 1.356 . S
N306 H312 0.984 . S
N306 H313 0.984 . S
N307 C300 1.356 . S
N307 H310 0.984 . S
N307 H311 0.985 . S
H308 N303 0.984 . S
H309 N303 0.985 . S
H310 N307 0.984 . S
H311 N307 0.985 . S
H312 N306 0.984 . S
H313 N306 0.984 . S
H314 N302 0.984 . S
H315 N302 0.985 . S
C316 C317 1.363 . S
C316 C322 1.379 . S
C316 N324 1.356 . S
C317 C316 1.363 . S
C317 C323 1.363 . S
C318 C319 1.363 . S
C318 C323 1.379 . S
C318 N325 1.356 . S
C319 C318 1.363 . S
C319 C322 1.363 . S
N320 C322 1.356 . S
N320 H332 0.984 . S
N320 H333 0.985 . S
N321 C323 1.356 . S
N321 H326 0.984 . S
N321 H327 0.985 . S
C322 C316 1.379 . S
C322 C319 1.363 . S
C322 N320 1.356 . S
C323 C317 1.363 . S
C323 C318 1.379 . S
C323 N321 1.356 . S
N324 C316 1.356 . S
N324 H330 0.984 . S
N324 H331 0.984 . S
N325 C318 1.356 . S
N325 H328 0.984 . S
N325 H329 0.985 . S
H326 N321 0.984 . S
H327 N321 0.985 . S
H328 N325 0.984 . S
H329 N325 0.985 . S
H330 N324 0.984 . S
H331 N324 0.984 . S
H332 N320 0.984 . S
H333 N320 0.985 . S
C334 C335 1.363 . S
C334 C340 1.379 . S
C334 N342 1.356 . S
C335 C334 1.363 . S
C335 C341 1.363 . S
C336 C337 1.363 . S
C336 C341 1.379 . S
C336 N343 1.356 . S
C337 C336 1.363 . S
C337 C340 1.363 . S
N338 C340 1.356 . S
N338 H350 0.984 . S
N338 H351 0.985 . S
N339 C341 1.356 . S
N339 H344 0.984 . S
N339 H345 0.985 . S
C340 C334 1.379 . S
C340 C337 1.363 . S
C340 N338 1.356 . S
C341 C335 1.363 . S
C341 C336 1.379 . S
C341 N339 1.356 . S
N342 C334 1.356 . S
N342 H348 0.984 . S
N342 H349 0.984 . S
N343 C336 1.356 . S
N343 H346 0.984 . S
N343 H347 0.985 . S
H344 N339 0.984 . S
H345 N339 0.985 . S
H346 N343 0.984 . S
H347 N343 0.985 . S
H348 N342 0.984 . S
H349 N342 0.984 . S
H350 N338 0.984 . S
H351 N338 0.985 . S
C352 C353 1.363 . S
C352 C358 1.379 . S
C352 N360 1.356 . S
C353 C352 1.363 . S
C353 C359 1.363 . S
C354 C355 1.363 . S
C354 C359 1.379 . S
C354 N361 1.356 . S
C355 C354 1.363 . S
C355 C358 1.363 . S
N356 C358 1.356 . S
N356 H368 0.984 . S
N356 H369 0.985 . S
N357 C359 1.356 . S
N357 H362 0.984 . S
N357 H363 0.985 . S
C358 C352 1.379 . S
C358 C355 1.363 . S
C358 N356 1.356 . S
C359 C353 1.363 . S
C359 C354 1.379 . S
C359 N357 1.356 . S
N360 C352 1.356 . S
N360 H366 0.984 . S
N360 H367 0.984 . S
N361 C354 1.356 . S
N361 H364 0.984 . S
N361 H365 0.985 . S
H362 N357 0.984 . S
H363 N357 0.985 . S
H364 N361 0.984 . S
H365 N361 0.985 . S
H366 N360 0.984 . S
H367 N360 0.984 . S
H368 N356 0.984 . S
H369 N356 0.985 . S
C370 C371 1.363 . S
C370 C376 1.379 . S
C370 N378 1.358 1_545 S
C371 C370 1.363 . S
C371 C377 1.363 . S
C372 C373 1.363 . S
C372 C377 1.379 . S
C372 N379 1.356 . S
C373 C372 1.363 . S
C373 C376 1.363 . S
N374 C376 1.356 . S
N374 H386 0.984 1_545 S
N374 H387 0.985 . S
N375 C377 1.356 . S
N375 H380 0.984 . S
N375 H381 0.985 . S
C376 C370 1.379 . S
C376 C373 1.363 . S
C376 N374 1.356 . S
C377 C371 1.363 . S
C377 C372 1.379 . S
C377 N375 1.356 . S
N378 C370 1.358 1_565 S
N378 H384 0.983 . S
N378 H385 0.984 1_565 S
N379 C372 1.356 . S
N379 H382 0.984 . S
N379 H383 0.985 . S
H380 N375 0.984 . S
H381 N375 0.985 . S
H382 N379 0.984 . S
H383 N379 0.985 . S
H384 N378 0.983 . S
H385 N378 0.984 1_545 S
H386 N374 0.984 1_565 S
H387 N374 0.985 . S
C388 C389 1.363 . S
C388 C394 1.379 . S
C388 N396 1.356 . S
C389 C388 1.363 . S
C389 C395 1.363 . S
C390 C391 1.363 . S
C390 C395 1.379 . S
C390 N397 1.356 . S
C391 C390 1.363 . S
C391 C394 1.363 . S
N392 C394 1.356 . S
N392 H404 0.984 . S
N392 H405 0.985 . S
N393 C395 1.356 . S
N393 H398 0.984 . S
N393 H399 0.985 . S
C394 C388 1.379 . S
C394 C391 1.363 . S
C394 N392 1.356 . S
C395 C389 1.363 . S
C395 C390 1.379 . S
C395 N393 1.356 . S
N396 C388 1.356 . S
N396 H402 0.984 1_655 S
N396 H403 0.984 . S
N397 C390 1.356 . S
N397 H400 0.984 . S
N397 H401 0.985 . S
H398 N393 0.984 . S
H399 N393 0.985 . S
H400 N397 0.984 . S
H401 N397 0.985 . S
H402 N396 0.984 1_455 S
H403 N396 0.984 . S
H404 N392 0.984 . S
H405 N392 0.985 . S
C406 C407 1.363 . S
C406 C412 1.379 . S
C406 N414 1.356 . S
C407 C406 1.363 . S
C407 C413 1.363 . S
C408 C409 1.363 . S
C408 C413 1.379 . S
C408 N415 1.356 . S
C409 C408 1.363 . S
C409 C412 1.363 . S
N410 C412 1.356 . S
N410 H422 0.984 . S
N410 H423 0.985 . S
N411 C413 1.356 1_545 S
N411 H416 0.984 . S
N411 H417 0.985 . S
C412 C406 1.379 . S
C412 C409 1.363 . S
C412 N410 1.356 . S
C413 C407 1.363 . S
C413 C408 1.379 . S
C413 N411 1.356 1_565 S
N414 C406 1.356 . S
N414 H420 0.984 . S
N414 H421 0.984 . S
N415 C408 1.356 . S
N415 H418 0.984 . S
N415 H419 0.985 1_565 S
H416 N411 0.984 . S
H417 N411 0.985 . S
H418 N415 0.984 . S
H419 N415 0.985 1_545 S
H420 N414 0.984 . S
H421 N414 0.984 . S
H422 N410 0.984 . S
H423 N410 0.985 . S
C424 C425 1.363 . S
C424 C430 1.379 . S
C424 N432 1.356 . S
C425 C424 1.363 . S
C425 C431 1.363 . S
C426 C427 1.363 . S
C426 C431 1.379 . S
C426 N433 1.356 . S
C427 C426 1.363 . S
C427 C430 1.363 . S
N428 C430 1.356 . S
N428 H440 0.984 . S
N428 H441 0.985 . S
N429 C431 1.356 1_545 S
N429 H434 0.984 . S
N429 H435 0.985 . S
C430 C424 1.379 . S
C430 C427 1.363 . S
C430 N428 1.356 . S
C431 C425 1.363 . S
C431 C426 1.379 . S
C431 N429 1.356 1_565 S
N432 C424 1.356 . S
N432 H438 0.984 . S
N432 H439 0.984 . S
N433 C426 1.356 . S
N433 H436 0.984 . S
N433 H437 0.985 1_565 S
H434 N429 0.984 . S
H435 N429 0.985 . S
H436 N433 0.984 . S
H437 N433 0.985 1_545 S
H438 N432 0.984 . S
H439 N432 0.984 . S
H440 N428 0.984 . S
H441 N428 0.985 . S
C442 C443 1.363 . S
C442 C448 1.379 . S
C442 N450 1.356 . S
C443 C442 1.363 . S
C443 C449 1.363 . S
C444 C445 1.363 . S
C444 C449 1.379 . S
C444 N451 1.356 . S
C445 C444 1.363 . S
C445 C448 1.363 . S
N446 C448 1.356 . S
N446 H458 0.984 . S
N446 H459 0.985 . S
N447 C449 1.356 . S
N447 H452 0.984 . S
N447 H453 0.985 . S
C448 C442 1.379 . S
C448 C445 1.363 . S
C448 N446 1.356 . S
C449 C443 1.363 . S
C449 C444 1.379 . S
C449 N447 1.356 . S
N450 C442 1.356 . S
N450 H456 0.984 . S
N450 H457 0.984 . S
N451 C444 1.356 . S
N451 H454 0.984 . S
N451 H455 0.985 . S
H452 N447 0.984 . S
H453 N447 0.985 . S
H454 N451 0.984 . S
H455 N451 0.985 . S
H456 N450 0.984 . S
H457 N450 0.984 . S
H458 N446 0.984 . S
H459 N446 0.985 . S
C460 C461 1.363 . S
C460 C466 1.379 . S
C460 N468 1.356 1_545 S
C461 C460 1.363 . S
C461 C467 1.363 . S
C462 C463 1.363 . S
C462 C467 1.379 . S
C462 N469 1.356 . S
C463 C462 1.363 . S
C463 C466 1.363 . S
N464 C466 1.356 . S
N464 H476 0.984 1_545 S
N464 H477 0.985 . S
N465 C467 1.356 . S
N465 H470 0.984 . S
N465 H471 0.985 . S
C466 C460 1.379 . S
C466 C463 1.363 . S
C466 N464 1.356 . S
C467 C461 1.363 . S
C467 C462 1.379 . S
C467 N465 1.356 . S
N468 C460 1.356 1_565 S
N468 H474 0.984 . S
N468 H475 0.984 1_565 S
N469 C462 1.356 . S
N469 H472 0.984 . S
N469 H473 0.985 . S
H470 N465 0.984 . S
H471 N465 0.985 . S
H472 N469 0.984 . S
H473 N469 0.985 . S
H474 N468 0.984 . S
H475 N468 0.984 1_545 S
H476 N464 0.984 1_565 S
H477 N464 0.985 . S
C478 C479 1.363 . S
C478 C484 1.379 . S
C478 N486 1.356 1_655 S
C479 C478 1.363 . S
C479 C485 1.363 . S
C480 C481 1.363 . S
C480 C485 1.379 . S
C480 N487 1.356 . S
C481 C480 1.363 . S
C481 C484 1.363 . S
N482 C484 1.356 . S
N482 H494 0.984 1_655 S
N482 H495 0.985 . S
N483 C485 1.356 . S
N483 H488 0.984 . S
N483 H489 0.985 . S
C484 C478 1.379 . S
C484 C481 1.363 . S
C484 N482 1.356 . S
C485 C479 1.363 . S
C485 C480 1.379 . S
C485 N483 1.356 . S
N486 C478 1.356 1_455 S
N486 H492 0.984 . S
N486 H493 0.984 . S
N487 C480 1.356 . S
N487 H490 0.984 . S
N487 H491 0.985 . S
H488 N483 0.984 . S
H489 N483 0.985 . S
H490 N487 0.984 . S
H491 N487 0.985 . S
H492 N486 0.984 . S
H493 N486 0.984 . S
H494 N482 0.984 1_455 S
H495 N482 0.985 . S
C496 C497 1.363 . S
C496 C502 1.379 . S
C496 N504 1.356 . S
C497 C496 1.363 . S
C497 C503 1.363 . S
C498 C499 1.363 . S
C498 C503 1.379 . S
C498 N505 1.356 . S
C499 C498 1.363 . S
C499 C502 1.363 . S
N500 C502 1.356 . S
N500 H512 0.984 . S
N500 H513 0.985 . S
N501 C503 1.356 . S
N501 H506 0.984 . S
N501 H507 0.985 . S
C502 C496 1.379 . S
C502 C499 1.363 . S
C502 N500 1.356 . S
C503 C497 1.363 . S
C503 C498 1.379 . S
C503 N501 1.356 . S
N504 C496 1.356 . S
N504 H510 0.984 . S
N504 H511 0.984 . S
N505 C498 1.356 . S
N505 H508 0.984 . S
N505 H509 0.985 . S
H506 N501 0.984 . S
H507 N501 0.985 . S
H508 N505 0.984 . S
H509 N505 0.985 . S
H510 N504 0.984 . S
H511 N504 0.984 . S
H512 N500 0.984 . S
H513 N500 0.985 . S
C514 C515 1.363 . S
C514 C520 1.379 . S
C514 N522 1.356 . S
C515 C514 1.363 . S
C515 C521 1.363 . S
C516 C517 1.363 . S
C516 C521 1.379 . S
C516 N523 1.356 . S
C517 C516 1.363 . S
C517 C520 1.363 . S
N518 C520 1.356 . S
N518 H530 0.984 . S
N518 H531 0.985 . S
N519 C521 1.356 . S
N519 H524 0.984 . S
N519 H525 0.985 . S
C520 C514 1.379 . S
C520 C517 1.363 . S
C520 N518 1.356 . S
C521 C515 1.363 . S
C521 C516 1.379 . S
C521 N519 1.356 . S
N522 C514 1.356 . S
N522 H528 0.984 . S
N522 H529 0.984 . S
N523 C516 1.356 . S
N523 H526 0.984 . S
N523 H527 0.985 . S
H524 N519 0.984 . S
H525 N519 0.985 . S
H526 N523 0.984 . S
H527 N523 0.985 . S
H528 N522 0.984 . S
H529 N522 0.984 . S
H530 N518 0.984 . S
H531 N518 0.985 . S
C532 C533 1.363 . S
C532 C538 1.379 . S
C532 N540 1.356 . S
C533 C532 1.363 . S
C533 C539 1.363 . S
C534 C535 1.363 . S
C534 C539 1.379 . S
C534 N541 1.356 . S
C535 C534 1.363 . S
C535 C538 1.363 . S
N536 C538 1.356 . S
N536 H548 0.984 . S
N536 H549 0.985 . S
N537 C539 1.356 . S
N537 H542 0.984 . S
N537 H543 0.985 . S
C538 C532 1.379 . S
C538 C535 1.363 . S
C538 N536 1.356 . S
C539 C533 1.363 . S
C539 C534 1.379 . S
C539 N537 1.356 . S
N540 C532 1.356 . S
N540 H546 0.984 . S
N540 H547 0.984 . S
N541 C534 1.356 . S
N541 H544 0.984 . S
N541 H545 0.985 . S
H542 N537 0.984 . S
H543 N537 0.985 . S
H544 N541 0.984 . S
H545 N541 0.985 . S
H546 N540 0.984 . S
H547 N540 0.984 . S
H548 N536 0.984 . S
H549 N536 0.985 . S
C550 C551 1.363 . S
C550 C556 1.379 . S
C550 N558 1.356 . S
C551 C550 1.363 . S
C551 C557 1.363 . S
C552 C553 1.363 . S
C552 C557 1.379 . S
C552 N559 1.356 . S
C553 C552 1.363 . S
C553 C556 1.363 . S
N554 C556 1.356 . S
N554 H566 0.984 . S
N554 H567 0.985 . S
N555 C557 1.356 . S
N555 H560 0.984 . S
N555 H561 0.985 . S
C556 C550 1.379 . S
C556 C553 1.363 . S
C556 N554 1.356 . S
C557 C551 1.363 . S
C557 C552 1.379 . S
C557 N555 1.356 . S
N558 C550 1.356 . S
N558 H564 0.984 . S
N558 H565 0.984 . S
N559 C552 1.356 . S
N559 H562 0.984 . S
N559 H563 0.985 . S
H560 N555 0.984 . S
H561 N555 0.985 . S
H562 N559 0.984 . S
H563 N559 0.985 . S
H564 N558 0.984 . S
H565 N558 0.984 . S
H566 N554 0.984 . S
H567 N554 0.985 . S
C568 C569 1.363 . S
C568 C574 1.379 . S
C568 N576 1.356 . S
C569 C568 1.363 . S
C569 C575 1.363 . S
C570 C571 1.363 . S
C570 C575 1.379 . S
C570 N577 1.356 . S
C571 C570 1.363 . S
C571 C574 1.363 . S
N572 C574 1.356 . S
N572 H584 0.984 . S
N572 H585 0.985 . S
N573 C575 1.356 . S
N573 H578 0.984 . S
N573 H579 0.985 . S
C574 C568 1.379 . S
C574 C571 1.363 . S
C574 N572 1.356 . S
C575 C569 1.363 . S
C575 C570 1.379 . S
C575 N573 1.356 . S
N576 C568 1.356 . S
N576 H582 0.984 . S
N576 H583 0.984 . S
N577 C570 1.356 . S
N577 H580 0.984 . S
N577 H581 0.985 . S
H578 N573 0.984 . S
H579 N573 0.985 . S
H580 N577 0.984 . S
H581 N577 0.985 . S
H582 N576 0.984 . S
H583 N576 0.984 . S
H584 N572 0.984 . S
H585 N572 0.985 . S
C586 C587 1.363 . S
C586 C592 1.379 . S
C586 N594 1.356 . S
C587 C586 1.363 . S
C587 C593 1.363 . S
C588 C589 1.363 . S
C588 C593 1.379 . S
C588 N595 1.356 . S
C589 C588 1.363 . S
C589 C592 1.363 . S
N590 C592 1.356 . S
N590 H602 0.984 . S
N590 H603 0.985 . S
N591 C593 1.356 . S
N591 H596 0.984 . S
N591 H597 0.985 . S
C592 C586 1.379 . S
C592 C589 1.363 . S
C592 N590 1.356 . S
C593 C587 1.363 . S
C593 C588 1.379 . S
C593 N591 1.356 . S
N594 C586 1.356 . S
N594 H600 0.984 . S
N594 H601 0.984 . S
N595 C588 1.356 . S
N595 H598 0.984 . S
N595 H599 0.985 . S
H596 N591 0.984 . S
H597 N591 0.985 . S
H598 N595 0.984 . S
H599 N595 0.985 . S
H600 N594 0.984 . S
H601 N594 0.984 . S
H602 N590 0.984 . S
H603 N590 0.985 . S
C604 C605 1.363 . S
C604 C610 1.379 . S
C604 N612 1.356 . S
C605 C604 1.363 . S
C605 C611 1.363 . S
C606 C607 1.363 . S
C606 C611 1.379 . S
C606 N613 1.356 . S
C607 C606 1.363 . S
C607 C610 1.363 . S
N608 C610 1.356 . S
N608 H620 0.984 . S
N608 H621 0.985 . S
N609 C611 1.356 . S
N609 H614 0.984 . S
N609 H615 0.985 . S
C610 C604 1.379 . S
C610 C607 1.363 . S
C610 N608 1.356 . S
C611 C605 1.363 . S
C611 C606 1.379 . S
C611 N609 1.356 . S
N612 C604 1.356 . S
N612 H618 0.984 . S
N612 H619 0.984 . S
N613 C606 1.356 . S
N613 H616 0.984 . S
N613 H617 0.985 . S
H614 N609 0.984 . S
H615 N609 0.985 . S
H616 N613 0.984 . S
H617 N613 0.985 . S
H618 N612 0.984 . S
H619 N612 0.984 . S
H620 N608 0.984 . S
H621 N608 0.985 . S
C622 C623 1.363 . S
C622 C628 1.379 . S
C622 N630 1.356 . S
C623 C622 1.363 . S
C623 C629 1.363 . S
C624 C625 1.363 . S
C624 C629 1.379 . S
C624 N631 1.356 . S
C625 C624 1.363 . S
C625 C628 1.363 . S
N626 C628 1.356 . S
N626 H638 0.984 . S
N626 H639 0.985 . S
N627 C629 1.356 . S
N627 H632 0.984 . S
N627 H633 0.985 . S
C628 C622 1.379 . S
C628 C625 1.363 . S
C628 N626 1.356 . S
C629 C623 1.363 . S
C629 C624 1.379 . S
C629 N627 1.356 . S
N630 C622 1.356 . S
N630 H636 0.984 . S
N630 H637 0.984 . S
N631 C624 1.356 . S
N631 H634 0.984 . S
N631 H635 0.985 . S
H632 N627 0.984 . S
H633 N627 0.985 . S
H634 N631 0.984 . S
H635 N631 0.985 . S
H636 N630 0.984 . S
H637 N630 0.984 . S
H638 N626 0.984 . S
H639 N626 0.985 . S
C209 C45 1.551 . S
C211 C108 1.476 . S
C227 C30 1.550 . S
C229 C121 1.479 . S
C245 C39 1.551 . S
C247 C134 1.552 1_554 S
C265 C147 1.493 . S
C263 C34 1.555 . S
C281 C97 1.550 . S
C283 C160 1.480 . S
C301 C173 1.486 . S
C299 C82 1.553 . S
C319 C186 1.546 . S
C317 C91 1.550 . S
C337 C199 1.551 . S
C335 C86 1.551 . S
C355 C191 1.526 . S
C353 C26 1.488 . S
C373 C204 1.547 . S
C371 C36 1.503 . S
C391 C164 1.517 . S
C389 C32 1.470 . S
C409 C177 1.498 . S
C407 C42 1.456 . S
C425 C18 1.578 . S
C427 C178 1.636 . S
C445 C190 1.616 . S
C443 C50 1.541 . S
C461 C4 1.525 . S
C463 C203 1.593 . S
C479 C48 1.560 . S
C481 C165 1.612 . S
C499 C139 1.547 . S
C497 C78 1.507 . S
C515 C88 1.422 . S
C517 C151 1.467 . S
C535 C112 1.545 . S
C533 C84 1.500 . S
C553 C125 1.508 . S
C551 C94 1.467 . S
C571 C126 1.627 . S
C569 C70 1.567 . S
C589 C138 1.596 . S
C587 C102 1.522 . S
C605 C56 1.613 . S
C607 C152 1.665 . S
C623 C100 1.532 . S
C625 C113 1.585 . S
