# Generated by pormake.
# Topology ssa, (4,4)-cn, num edge types: 1
# Building blocks:
#     Node 0, Type 0, BuildingBlock: NAWXER_clean_sbu_0, # of connection points: 4
#     Node 1, Type 0, BuildingBlock: NAWXER_clean_sbu_0, # of connection points: 4
#     Node 2, Type 0, BuildingBlock: NAWXER_clean_sbu_0, # of connection points: 4
#     Node 3, Type 0, BuildingBlock: NAWXER_clean_sbu_0, # of connection points: 4
#     Node 4, Type 0, BuildingBlock: NAWXER_clean_sbu_0, # of connection points: 4
#     Node 5, Type 0, BuildingBlock: NAWXER_clean_sbu_0, # of connection points: 4
#     Node 6, Type 1, BuildingBlock: MIFKUJ_clean_linker_1, # of connection points: 4
#     Node 7, Type 1, BuildingBlock: MIFKUJ_clean_linker_1, # of connection points: 4
#     Node 8, Type 1, BuildingBlock: MIFKUJ_clean_linker_1, # of connection points: 4
#     Node 9, Type 1, BuildingBlock: MIFKUJ_clean_linker_1, # of connection points: 4
#     Node 10, Type 1, BuildingBlock: MIFKUJ_clean_linker_1, # of connection points: 4
#     Node 11, Type 1, BuildingBlock: MIFKUJ_clean_linker_1, # of connection points: 4
#     Edge 12, Type (0, 1), BuildingBlock: AJUNOK_clean_linker_0, # of connection points: 2
#     Edge 13, Type (0, 1), BuildingBlock: AJUNOK_clean_linker_0, # of connection points: 2
#     Edge 14, Type (0, 1), BuildingBlock: AJUNOK_clean_linker_0, # of connection points: 2
#     Edge 15, Type (0, 1), BuildingBlock: AJUNOK_clean_linker_0, # of connection points: 2
#     Edge 16, Type (0, 1), BuildingBlock: AJUNOK_clean_linker_0, # of connection points: 2
#     Edge 17, Type (0, 1), BuildingBlock: AJUNOK_clean_linker_0, # of connection points: 2
#     Edge 18, Type (0, 1), BuildingBlock: AJUNOK_clean_linker_0, # of connection points: 2
#     Edge 19, Type (0, 1), BuildingBlock: AJUNOK_clean_linker_0, # of connection points: 2
#     Edge 20, Type (0, 1), BuildingBlock: AJUNOK_clean_linker_0, # of connection points: 2
#     Edge 21, Type (0, 1), BuildingBlock: AJUNOK_clean_linker_0, # of connection points: 2
#     Edge 22, Type (0, 1), BuildingBlock: AJUNOK_clean_linker_0, # of connection points: 2
#     Edge 23, Type (0, 1), BuildingBlock: AJUNOK_clean_linker_0, # of connection points: 2
#     Edge 24, Type (0, 1), BuildingBlock: AJUNOK_clean_linker_0, # of connection points: 2
#     Edge 25, Type (0, 1), BuildingBlock: AJUNOK_clean_linker_0, # of connection points: 2
#     Edge 26, Type (0, 1), BuildingBlock: AJUNOK_clean_linker_0, # of connection points: 2
#     Edge 27, Type (0, 1), BuildingBlock: AJUNOK_clean_linker_0, # of connection points: 2
#     Edge 28, Type (0, 1), BuildingBlock: AJUNOK_clean_linker_0, # of connection points: 2
#     Edge 29, Type (0, 1), BuildingBlock: AJUNOK_clean_linker_0, # of connection points: 2
#     Edge 30, Type (0, 1), BuildingBlock: AJUNOK_clean_linker_0, # of connection points: 2
#     Edge 31, Type (0, 1), BuildingBlock: AJUNOK_clean_linker_0, # of connection points: 2
#     Edge 32, Type (0, 1), BuildingBlock: AJUNOK_clean_linker_0, # of connection points: 2
#     Edge 33, Type (0, 1), BuildingBlock: AJUNOK_clean_linker_0, # of connection points: 2
#     Edge 34, Type (0, 1), BuildingBlock: AJUNOK_clean_linker_0, # of connection points: 2
#     Edge 35, Type (0, 1), BuildingBlock: AJUNOK_clean_linker_0, # of connection points: 2
# Relax obj value: 0.011
# Max RMSD: 0.026
# Mean RMSD: 0.026
data_MOF--net-ssa--node1-NAWXER_clean_sbu_0--node2-MIFKUJ_clean_linker_1--edge1-AJUNOK_clean_linker_0
_symmetry_space_group_name_H-M    P1
_symmetry_Int_Tables_number       1
_symmetry_cell_setting            triclinic
loop_
_symmetry_equiv_pos_as_xyz
'x, y, z'
_cell_length_a     46.155831
_cell_length_b     46.108526
_cell_length_c     29.076378
_cell_angle_alpha  90.130622
_cell_angle_beta   89.998683
_cell_angle_gamma 119.87558
loop_
_atom_site_label
_atom_site_type_symbol
_atom_site_fract_x
_atom_site_fract_y
_atom_site_fract_z
_atom_type_partial_charge
C0 C 0.06157 0.53992 0.01652 0.0
C1 C 0.99293 0.43334 0.93662 0.0
O2 O 0.03514 0.51961 0.03863 0.0
Zn3 Zn 0.99433 0.46932 0.03217 0.0
O4 O 0.06844 0.5308 0.97866 0.0
Zn5 Zn 0.02943 0.48633 0.97701 0.0
O6 O 0.98979 0.49773 0.97139 0.0
O7 O 0.95645 0.47657 0.03156 0.0
O8 O 0.02086 0.45753 0.9237 0.0
O9 O 0.98135 0.43478 0.97613 0.0
O10 O 1.00149 0.4476 0.08449 0.0
O11 O 0.04068 0.46263 0.03178 0.0
C12 C 0.96383 0.49273 0.99392 0.0
C13 C 0.0286 0.44959 0.07102 0.0
C14 C 0.4503 0.02622 0.57256 0.0
C15 C 0.49155 0.95941 0.49549 0.0
O16 O 0.4468 0.99836 0.58569 0.0
Zn17 Zn 0.46836 0.99055 0.53367 0.0
O18 O 0.46386 0.0382 0.5335 0.0
Zn19 Zn 0.4869 0.02588 0.47854 0.0
O20 O 0.45848 0.01808 0.42507 0.0
O21 O 0.43444 0.97877 0.47752 0.0
O22 O 0.49716 0.98562 0.4732 0.0
O23 O 0.47504 0.95207 0.53283 0.0
O24 O 0.51842 0.03118 0.54162 0.0
O25 O 0.53211 0.06383 0.48067 0.0
C26 C 0.43361 0.99061 0.43799 0.0
C27 C 0.5398 0.05725 0.5198 0.0
C28 C 0.48127 0.4765 0.93724 0.0
C29 C 0.52445 0.57389 0.0396 0.0
O30 O 0.48226 0.50391 0.92766 0.0
Zn31 Zn 0.50415 0.52658 0.98483 0.0
O32 O 0.49348 0.47321 0.97505 0.0
Zn33 Zn 0.51809 0.50136 0.03496 0.0
O34 O 0.48642 0.47386 0.08226 0.0
O35 O 0.46659 0.49678 0.03413 0.0
O36 O 0.52794 0.54987 0.05528 0.0
O37 O 0.51264 0.57145 0.99932 0.0
O38 O 0.55237 0.53235 0.9747 0.0
O39 O 0.56174 0.50469 0.02892 0.0
C40 C 0.4625 0.47812 0.06895 0.0
C41 C 0.57135 0.52265 0.99287 0.0
C42 C 0.03537 0.56594 0.43659 0.0
C43 C 0.96872 0.45524 0.50517 0.0
O44 O 0.04758 0.56256 0.47447 0.0
Zn45 Zn 0.03575 0.52503 0.52552 0.0
O46 O 0.00797 0.5419 0.42176 0.0
Zn47 Zn 1.00053 0.51021 0.47042 0.0
O48 O 0.98794 0.52896 0.53002 0.0
O49 O 0.02789 0.54305 0.58165 0.0
O50 O 0.96182 0.46559 0.46847 0.0
O51 O 0.99504 0.47475 0.52814 0.0
O52 O 0.07339 0.51745 0.52124 0.0
O53 O 0.04069 0.49998 0.4602 0.0
C54 C 1.00003 0.54016 0.56998 0.0
C55 C 0.06662 0.50375 0.48169 0.0
C56 C 0.54666 0.99731 0.06852 0.0
C57 C 0.51483 0.07096 0.99101 0.0
O58 O 0.55435 0.02677 0.08075 0.0
Zn59 Zn 0.53442 0.03668 0.02859 0.0
O60 O 0.53203 0.98564 0.0299 0.0
Zn61 Zn 0.51323 1.0014 0.97344 0.0
O62 O 0.54149 0.00649 0.92074 0.0
O63 O 0.56778 0.04552 0.97315 0.0
O64 O 0.5069 0.04421 0.96827 0.0
O65 O 0.53132 0.07712 0.02826 0.0
O66 O 0.48294 0.99868 0.03614 0.0
O67 O 0.46688 0.96595 0.9749 0.0
C68 C 0.56764 0.03281 0.93389 0.0
C69 C 0.46023 0.97337 0.01427 0.0
C70 C 0.57317 0.51817 0.54102 0.0
C71 C 0.47147 0.47534 0.4473 0.0
O72 O 0.55084 0.5239 0.55765 0.0
Zn73 Zn 0.50285 0.51636 0.5409 0.0
O74 O 0.56877 0.50506 0.5012 0.0
Zn75 Zn 0.52419 0.49873 0.48945 0.0
O76 O 0.53228 0.54773 0.47742 0.0
O77 O 0.50841 0.56072 0.53323 0.0
O78 O 0.49784 0.47509 0.43499 0.0
O79 O 0.47122 0.48987 0.48472 0.0
O80 O 0.47704 0.48759 0.59151 0.0
O81 O 0.49546 0.46375 0.54231 0.0
C82 C 0.52483 0.56843 0.49583 0.0
C83 C 0.47902 0.46219 0.57863 0.0
H84 H 0.15657 0.38126 0.19835 0.0
H85 H 0.11015 0.38165 0.15793 0.0
H86 H 0.13922 0.47861 0.21589 0.0
H87 H 0.1861 0.47862 0.25533 0.0
H88 H 0.22237 0.4233 0.18766 0.0
H89 H 0.14274 0.39717 0.31675 0.0
H90 H 0.10822 0.41202 0.36452 0.0
H91 H 0.19605 0.50494 0.40193 0.0
H92 H 0.23037 0.48998 0.35453 0.0
H93 H 0.32404 0.48428 0.28626 0.0
H94 H 0.37486 0.48848 0.31925 0.0
H95 H 0.3169 0.38761 0.37091 0.0
H96 H 0.26601 0.38429 0.33968 0.0
H97 H 0.24329 0.43914 0.35574 0.0
H98 H 0.2893 0.47268 0.17648 0.0
H99 H 0.33771 0.47941 0.13337 0.0
H100 H 0.32792 0.39046 0.19707 0.0
H101 H 0.27904 0.38356 0.2399 0.0
C102 C 0.17461 0.42969 0.23046 0.0
C103 C 0.15285 0.40253 0.20262 0.0
C104 C 0.12631 0.4027 0.17966 0.0
C105 C 0.12086 0.42992 0.18438 0.0
C106 C 0.14242 0.45697 0.21255 0.0
C107 C 0.16921 0.45698 0.23507 0.0
C108 C 0.20375 0.42992 0.2527 0.0
C109 C 0.22647 0.42616 0.22453 0.0
C110 C 0.21013 0.43517 0.30064 0.0
C111 C 0.18912 0.44254 0.33185 0.0
C112 C 0.15456 0.42061 0.33552 0.0
C113 C 0.1349 0.42911 0.3628 0.0
C114 C 0.14949 0.45952 0.38727 0.0
C115 C 0.18418 0.48103 0.38435 0.0
C116 C 0.20379 0.47255 0.35708 0.0
C117 C 0.29134 0.43424 0.31143 0.0
C118 C 0.32236 0.46325 0.30511 0.0
C119 C 0.35137 0.46541 0.32339 0.0
C120 C 0.34984 0.43851 0.34813 0.0
C121 C 0.31877 0.40906 0.35305 0.0
C122 C 0.28971 0.40712 0.33534 0.0
C123 C 0.26083 0.43155 0.29081 0.0
C124 C 0.23831 0.43523 0.31912 0.0
C125 C 0.25518 0.42745 0.24295 0.0
C126 C 0.28073 0.4278 0.21165 0.0
C127 C 0.29707 0.45419 0.18042 0.0
C128 C 0.32482 0.4581 0.15602 0.0
C129 C 0.33683 0.43573 0.16247 0.0
C130 C 0.31956 0.40841 0.19218 0.0
C131 C 0.29158 0.40436 0.21638 0.0
H132 H 0.72731 0.20776 0.81595 0.0
H133 H 0.68251 0.16339 0.86082 0.0
H134 H 0.68307 0.08921 0.77053 0.0
H135 H 0.72816 0.13383 0.72553 0.0
H136 H 0.78866 0.2245 0.79958 0.0
H137 H 0.6924 0.19202 0.70992 0.0
H138 H 0.6413 0.15724 0.66619 0.0
H139 H 0.69716 0.13305 0.56957 0.0
H140 H 0.74836 0.16752 0.6139 0.0
H141 H 0.84957 0.25354 0.62206 0.0
H142 H 0.88786 0.30022 0.57275 0.0
H143 H 0.86326 0.36626 0.64686 0.0
H144 H 0.82526 0.31964 0.69649 0.0
H145 H 0.77967 0.23215 0.63065 0.0
H146 H 0.87975 0.27675 0.72597 0.0
H147 H 0.92638 0.31928 0.7716 0.0
H148 H 0.8564 0.3306 0.85766 0.0
H149 H 0.81004 0.28828 0.8122 0.0
C150 C 0.73106 0.17424 0.76717 0.0
C151 C 0.71801 0.18197 0.80589 0.0
C152 C 0.69237 0.15658 0.8315 0.0
C153 C 0.67918 0.12284 0.81903 0.0
C154 C 0.69239 0.11501 0.78049 0.0
C155 C 0.71818 0.14048 0.75486 0.0
C156 C 0.75797 0.20162 0.73973 0.0
C157 C 0.78659 0.22624 0.76265 0.0
C158 C 0.75535 0.20396 0.69149 0.0
C159 C 0.72416 0.18189 0.66573 0.0
C160 C 0.69365 0.17885 0.67976 0.0
C161 C 0.66452 0.15921 0.65458 0.0
C162 C 0.6654 0.14271 0.61439 0.0
C163 C 0.69593 0.14595 0.60006 0.0
C164 C 0.72508 0.16541 0.62551 0.0
C165 C 0.835 0.28333 0.66318 0.0
C166 C 0.85271 0.27815 0.62792 0.0
C167 C 0.87441 0.30467 0.59982 0.0
C168 C 0.87821 0.33657 0.60612 0.0
C169 C 0.86046 0.34175 0.64133 0.0
C170 C 0.8391 0.31532 0.66985 0.0
C171 C 0.81016 0.25472 0.69048 0.0
C172 C 0.78191 0.22995 0.66747 0.0
C173 C 0.81258 0.25312 0.73879 0.0
C174 C 0.84129 0.27937 0.76542 0.0
C175 C 0.87447 0.28867 0.75432 0.0
C176 C 0.90112 0.31299 0.78039 0.0
C177 C 0.89506 0.32835 0.81814 0.0
C178 C 0.86186 0.31901 0.82904 0.0
C179 C 0.83533 0.29483 0.80303 0.0
H180 H 0.58519 0.85071 0.37272 0.0
H181 H 0.57418 0.88628 0.42463 0.0
H182 H 0.48009 0.85452 0.35616 0.0
H183 H 0.4912 0.81925 0.30419 0.0
H184 H 0.54725 0.78234 0.36218 0.0
H185 H 0.58676 0.8791 0.26954 0.0
H186 H 0.58727 0.92583 0.2288 0.0
H187 H 0.50479 0.85572 0.1446 0.0
H188 H 0.50338 0.80923 0.18652 0.0
H189 H 0.49818 0.72277 0.18601 0.0
H190 H 0.49585 0.67955 0.13468 0.0
H191 H 0.58771 0.69319 0.19366 0.0
H192 H 0.58964 0.73607 0.24553 0.0
H193 H 0.54428 0.78765 0.1921 0.0
H194 H 0.49704 0.69348 0.3014 0.0
H195 H 0.49355 0.64868 0.35085 0.0
H196 H 0.59259 0.71565 0.40267 0.0
H197 H 0.59585 0.76048 0.3537 0.0
C198 C 0.53923 0.83275 0.33423 0.0
C199 C 0.5623 0.85158 0.36878 0.0
C200 C 0.556 0.87177 0.39835 0.0
C201 C 0.52628 0.87295 0.39428 0.0
C202 C 0.50307 0.85381 0.36006 0.0
C203 C 0.50956 0.83399 0.33015 0.0
C204 C 0.54493 0.81006 0.30422 0.0
C205 C 0.54731 0.78389 0.32493 0.0
C206 C 0.54459 0.81197 0.25568 0.0
C207 C 0.5447 0.84053 0.23163 0.0
C208 C 0.56836 0.87377 0.24289 0.0
C209 C 0.56888 0.90048 0.21931 0.0
C210 C 0.54577 0.89448 0.18397 0.0
C211 C 0.52238 0.86121 0.17244 0.0
C212 C 0.52179 0.83457 0.19607 0.0
C213 C 0.54383 0.73237 0.2201 0.0
C214 C 0.51777 0.71637 0.18803 0.0
C215 C 0.51655 0.69181 0.15853 0.0
C216 C 0.54144 0.68276 0.16033 0.0
C217 C 0.56777 0.69909 0.19211 0.0
C218 C 0.5689 0.72359 0.2218 0.0
C219 C 0.54533 0.75922 0.25011 0.0
C220 C 0.54458 0.78635 0.22933 0.0
C221 C 0.54735 0.75837 0.29862 0.0
C222 C 0.54685 0.73015 0.32358 0.0
C223 C 0.5182 0.69832 0.32283 0.0
C224 C 0.5161 0.67291 0.35131 0.0
C225 C 0.54279 0.67886 0.38049 0.0
C226 C 0.57179 0.71045 0.38025 0.0
C227 C 0.57368 0.73597 0.3523 0.0
H228 H 0.72447 0.49148 0.68134 0.0
H229 H 0.68093 0.48885 0.63048 0.0
H230 H 0.69342 0.57997 0.69106 0.0
H231 H 0.73677 0.5824 0.7421 0.0
H232 H 0.78868 0.53653 0.68849 0.0
H233 H 0.69419 0.49191 0.79689 0.0
H234 H 0.64986 0.48909 0.8468 0.0
H235 H 0.71863 0.58703 0.90082 0.0
H236 H 0.7628 0.58973 0.85114 0.0
H237 H 0.85312 0.58261 0.86675 0.0
H238 H 0.88973 0.57365 0.91922 0.0
H239 H 0.85807 0.47769 0.85592 0.0
H240 H 0.82182 0.48676 0.80338 0.0
H241 H 0.78425 0.54271 0.85842 0.0
H242 H 0.87981 0.58432 0.76252 0.0
H243 H 0.92743 0.5854 0.7234 0.0
H244 H 0.85969 0.4959 0.64869 0.0
H245 H 0.81221 0.49459 0.68826 0.0
C246 C 0.73354 0.53683 0.71616 0.0
C247 C 0.71782 0.51089 0.68373 0.0
C248 C 0.69307 0.50948 0.65452 0.0
C249 C 0.68354 0.53401 0.65708 0.0
C250 C 0.69974 0.56032 0.68895 0.0
C251 C 0.72446 0.56169 0.71823 0.0
C252 C 0.76033 0.53844 0.7463 0.0
C253 C 0.78748 0.53753 0.72568 0.0
C254 C 0.75968 0.54127 0.7948 0.0
C255 C 0.73166 0.5412 0.81992 0.0
C256 C 0.69951 0.51301 0.81883 0.0
C257 C 0.67437 0.51128 0.84765 0.0
C258 C 0.68092 0.53785 0.87761 0.0
C259 C 0.71287 0.56635 0.87778 0.0
C260 C 0.73805 0.56792 0.8494 0.0
C261 C 0.83516 0.53553 0.83086 0.0
C262 C 0.85426 0.55976 0.86407 0.0
C263 C 0.87504 0.55464 0.89394 0.0
C264 C 0.87647 0.52496 0.89148 0.0
C265 C 0.85714 0.50066 0.85854 0.0
C266 C 0.83675 0.50596 0.82832 0.0
C267 C 0.81184 0.53992 0.80065 0.0
C268 C 0.78552 0.54208 0.82118 0.0
C269 C 0.81347 0.53861 0.75221 0.0
C270 C 0.84239 0.53917 0.72869 0.0
C271 C 0.87521 0.56471 0.73808 0.0
C272 C 0.90239 0.56545 0.71558 0.0
C273 C 0.89728 0.54051 0.68349 0.0
C274 C 0.86442 0.51508 0.67394 0.0
C275 C 0.83726 0.51447 0.69621 0.0
H276 H 0.255 0.84065 0.11334 0.0
H277 H 0.30278 0.88099 0.06733 0.0
H278 H 0.37023 0.87307 0.16238 0.0
H279 H 0.32269 0.83181 0.20723 0.0
H280 H 0.23387 0.77801 0.13117 0.0
H281 H 0.27688 0.87786 0.22708 0.0
H282 H 0.31904 0.92487 0.27278 0.0
H283 H 0.33026 0.85537 0.35986 0.0
H284 H 0.28855 0.80873 0.31427 0.0
H285 H 0.21172 0.72363 0.31326 0.0
H286 H 0.16856 0.67949 0.36038 0.0
H287 H 0.09219 0.68067 0.276 0.0
H288 H 0.13564 0.72493 0.2285 0.0
H289 H 0.22565 0.78582 0.30025 0.0
H290 H 0.20217 0.69289 0.1992 0.0
H291 H 0.16846 0.64266 0.15239 0.0
H292 H 0.1268 0.69452 0.07865 0.0
H293 H 0.16107 0.74502 0.12493 0.0
C294 C 0.28524 0.83376 0.16441 0.0
C295 C 0.28007 0.84753 0.12424 0.0
C296 C 0.30722 0.87042 0.09795 0.0
C297 C 0.33991 0.88009 0.11174 0.0
C298 C 0.34513 0.86613 0.15152 0.0
C299 C 0.31802 0.84286 0.17733 0.0
C300 C 0.25633 0.80852 0.19132 0.0
C301 C 0.23173 0.78018 0.16802 0.0
C302 C 0.25416 0.8107 0.23975 0.0
C303 C 0.27954 0.83965 0.26706 0.0
C304 C 0.2886 0.87278 0.25581 0.0
C305 C 0.31272 0.89963 0.28186 0.0
C306 C 0.32798 0.89378 0.31984 0.0
C307 C 0.31872 0.86065 0.33106 0.0
C308 C 0.29484 0.83394 0.30502 0.0
C309 C 0.17699 0.72766 0.26733 0.0
C310 C 0.18571 0.71452 0.30492 0.0
C311 C 0.16101 0.68942 0.33199 0.0
C312 C 0.12699 0.67711 0.32241 0.0
C313 C 0.11821 0.68978 0.28424 0.0
C314 C 0.14301 0.71496 0.25704 0.0
C315 C 0.20362 0.75534 0.24006 0.0
C316 C 0.22761 0.78413 0.26327 0.0
C317 C 0.20587 0.75337 0.19181 0.0
C318 C 0.18385 0.7225 0.16569 0.0
C319 C 0.18566 0.69337 0.1731 0.0
C320 C 0.1667 0.66489 0.14618 0.0
C321 C 0.14543 0.66503 0.11178 0.0
C322 C 0.1432 0.69399 0.10489 0.0
C323 C 0.16261 0.72268 0.13129 0.0
H324 H 0.49506 0.31391 0.84475 0.0
H325 H 0.49984 0.36682 0.87052 0.0
H326 H 0.39924 0.33331 0.82395 0.0
H327 H 0.39448 0.28033 0.79828 0.0
H328 H 0.45112 0.2453 0.86266 0.0
H329 H 0.4934 0.31982 0.74038 0.0
H330 H 0.49618 0.36814 0.70184 0.0
H331 H 0.3947 0.30673 0.65443 0.0
H332 H 0.39165 0.25814 0.69441 0.0
H333 H 0.39097 0.15997 0.70531 0.0
H334 H 0.38927 0.11292 0.66354 0.0
H335 H 0.48675 0.1398 0.71685 0.0
H336 H 0.48883 0.18737 0.75771 0.0
H337 H 0.43433 0.22587 0.69434 0.0
H338 H 0.41253 0.14427 0.81863 0.0
H339 H 0.42868 0.11102 0.86626 0.0
H340 H 0.51492 0.20159 0.91462 0.0
H341 H 0.50026 0.23442 0.86417 0.0
C342 C 0.44435 0.29315 0.81996 0.0
C343 C 0.47384 0.31771 0.84088 0.0
C344 C 0.47671 0.34804 0.85488 0.0
C345 C 0.44998 0.35411 0.84878 0.0
C346 C 0.42013 0.32916 0.82903 0.0
C347 C 0.41737 0.29893 0.81464 0.0
C348 C 0.44321 0.26335 0.79861 0.0
C349 C 0.44736 0.24075 0.82593 0.0
C350 C 0.43957 0.25843 0.75061 0.0
C351 C 0.44222 0.28553 0.72053 0.0
C352 C 0.47177 0.31666 0.7215 0.0
C353 C 0.47322 0.34429 0.69999 0.0
C354 C 0.44533 0.34123 0.67639 0.0
C355 C 0.4163 0.30968 0.67313 0.0
C356 C 0.41468 0.28195 0.69537 0.0
C357 C 0.43981 0.177 0.73526 0.0
C358 C 0.41194 0.15568 0.70823 0.0
C359 C 0.41092 0.12878 0.68448 0.0
C360 C 0.43764 0.12247 0.68755 0.0
C361 C 0.46548 0.14367 0.71475 0.0
C362 C 0.46669 0.17086 0.73806 0.0
C363 C 0.44104 0.20636 0.7586 0.0
C364 C 0.43724 0.22948 0.73129 0.0
C365 C 0.44725 0.21269 0.80654 0.0
C366 C 0.45538 0.19189 0.83717 0.0
C367 C 0.43508 0.15695 0.83912 0.0
C368 C 0.44404 0.13799 0.86711 0.0
C369 C 0.47291 0.15367 0.89482 0.0
C370 C 0.49267 0.18868 0.89357 0.0
C371 C 0.48411 0.20752 0.86497 0.0
C372 C 0.07142 0.43218 0.0817 0.0
C373 C 0.04832 0.44006 0.10138 0.0
C374 C 0.09384 0.42763 0.10902 0.0
C375 C 0.09443 0.43132 0.15706 0.0
H376 H 0.07276 0.43028 0.04469 0.0
H377 H 0.11178 0.4225 0.09222 0.0
S378 S 0.03808 0.44992 0.22609 0.0
N379 N 0.02636 0.4497 0.17234 0.0
N380 N 0.06892 0.44153 0.22358 0.0
C381 C 0.07084 0.43814 0.17742 0.0
C382 C 0.04761 0.44231 0.14963 0.0
C383 C 0.57613 0.07607 0.58948 0.0
C384 C 0.5725 0.07957 0.54199 0.0
C385 C 0.60623 0.09657 0.61233 0.0
C386 C 0.63411 0.12125 0.58868 0.0
H387 H 0.55543 0.0575 0.60954 0.0
H388 H 0.60774 0.0929 0.64887 0.0
S389 S 0.63822 0.14092 0.46443 0.0
N390 N 0.59968 0.10985 0.4721 0.0
N391 N 0.65649 0.14841 0.51534 0.0
C392 C 0.63112 0.12503 0.54122 0.0
C393 C 0.60025 0.10426 0.51785 0.0
C394 C 0.52863 0.6298 0.0532 0.0
C395 C 0.53156 0.60276 0.07007 0.0
C396 C 0.53246 0.65583 0.08235 0.0
C397 C 0.53941 0.65594 0.12954 0.0
H398 H 0.52282 0.63067 0.01732 0.0
H399 H 0.52975 0.67598 0.06784 0.0
S400 S 0.54902 0.591 0.19152 0.0
N401 N 0.54201 0.578 0.13763 0.0
N402 N 0.5486 0.62657 0.19199 0.0
C403 C 0.54283 0.62937 0.1468 0.0
C404 C 0.53905 0.60291 0.11722 0.0
C405 C 0.97439 0.57076 0.60786 0.0
C406 C 0.97784 0.54226 0.60449 0.0
C407 C 0.94906 0.57048 0.63511 0.0
C408 C 0.92599 0.54144 0.65891 0.0
H409 H 0.99062 0.59295 0.58821 0.0
H410 H 0.9466 0.59265 0.63595 0.0
S411 S 0.92551 0.46074 0.66185 0.0
N412 N 0.95713 0.48477 0.62784 0.0
N413 N 0.90949 0.48404 0.67875 0.0
C414 C 0.92991 0.51312 0.65654 0.0
C415 C 0.95583 0.51357 0.62932 0.0
C416 C 0.40366 0.92146 0.01653 0.0
C417 C 0.42775 0.95156 0.0373 0.0
C418 C 0.37457 0.89879 0.04018 0.0
C419 C 0.36884 0.90534 0.08548 0.0
H420 H 0.40767 0.91488 0.98227 0.0
H421 H 0.35702 0.8755 0.02356 0.0
S422 S 0.42185 0.98139 0.15413 0.0
N423 N 0.44203 0.98756 0.10505 0.0
N424 N 0.38782 0.94446 0.14922 0.0
C425 C 0.39187 0.93566 0.10604 0.0
C426 C 0.42118 0.95893 0.08199 0.0
C427 C 0.45205 0.4003 0.582 0.0
C428 C 0.4641 0.43094 0.60546 0.0
C429 C 0.44372 0.37074 0.60565 0.0
C430 C 0.44768 0.37094 0.65351 0.0
H431 H 0.45032 0.39941 0.54479 0.0
H432 H 0.43607 0.34803 0.58608 0.0
S433 S 0.47512 0.44379 0.73148 0.0
N434 N 0.47691 0.45912 0.67958 0.0
N435 N 0.46161 0.40349 0.72416 0.0
C436 C 0.45783 0.40096 0.67771 0.0
C437 C 0.46589 0.43101 0.65365 0.0
C438 C 0.48229 0.90244 0.47655 0.0
C439 C 0.503 0.93738 0.47549 0.0
C440 C 0.49036 0.88154 0.45101 0.0
C441 C 0.51974 0.89491 0.4245 0.0
H442 H 0.45892 0.89131 0.4953 0.0
H443 H 0.47322 0.85481 0.45122 0.0
S444 S 0.58351 0.9845 0.41334 0.0
N445 N 0.55494 0.98427 0.44777 0.0
N446 N 0.5703 0.94493 0.40059 0.0
C447 C 0.54138 0.92963 0.42499 0.0
C448 C 0.53294 0.95089 0.45029 0.0
C449 C 0.61284 0.5055 0.9689 0.0
C450 C 0.60211 0.52921 0.96806 0.0
C451 C 0.63845 0.50851 0.93967 0.0
C452 C 0.6546 0.53563 0.90918 0.0
H453 H 0.60043 0.4837 0.99081 0.0
H454 H 0.6455 0.48935 0.94066 0.0
S455 S 0.63725 0.60544 0.89549 0.0
N456 N 0.61063 0.58141 0.93531 0.0
N457 N 0.65891 0.58715 0.88102 0.0
C458 C 0.64495 0.56008 0.90919 0.0
C459 C 0.61867 0.55685 0.93845 0.0
C460 C 0.05231 0.59472 0.36012 0.0
C461 C 0.05531 0.59631 0.40839 0.0
C462 C 0.07479 0.62146 0.33244 0.0
C463 C 0.10098 0.65076 0.35206 0.0
H464 H 0.03353 0.57205 0.34346 0.0
H465 H 0.07255 0.61858 0.2954 0.0
S466 S 0.11613 0.66968 0.47671 0.0
N467 N 0.08416 0.63114 0.47462 0.0
N468 N 0.12595 0.68141 0.42269 0.0
C469 C 0.10285 0.65348 0.40028 0.0
C470 C 0.08013 0.62628 0.4284 0.0
C471 C 0.5277 0.12242 0.94797 0.0
C472 C 0.50473 0.09421 0.97271 0.0
C473 C 0.51726 0.14184 0.92364 0.0
C474 C 0.48346 0.13373 0.92337 0.0
H475 H 0.55363 0.1287 0.94586 0.0
H476 H 0.53564 0.16266 0.90358 0.0
S477 S 0.4143 0.06339 0.98652 0.0
N478 N 0.44735 0.05955 0.99743 0.0
N479 N 0.42766 0.09667 0.95334 0.0
C480 C 0.46054 0.1061 0.94959 0.0
C481 C 0.4712 0.08618 0.97385 0.0
C482 C 0.44096 0.46544 0.37246 0.0
C483 C 0.44047 0.45944 0.41986 0.0
C484 C 0.41126 0.4572 0.34877 0.0
C485 C 0.38019 0.44241 0.37166 0.0
H486 H 0.46453 0.47845 0.35429 0.0
H487 H 0.41274 0.46354 0.31269 0.0
S488 S 0.36578 0.41884 0.49502 0.0
N489 N 0.40646 0.43539 0.48803 0.0
N490 N 0.35094 0.42044 0.44403 0.0
C491 C 0.37939 0.43453 0.41851 0.0
C492 C 0.40947 0.44293 0.44245 0.0
C493 C 0.94437 0.37604 0.92371 0.0
C494 C 0.97165 0.40502 0.90531 0.0
C495 C 0.92054 0.35095 0.89523 0.0
C496 C 0.92285 0.35368 0.84705 0.0
H497 H 0.94078 0.37306 0.96058 0.0
H498 H 0.89967 0.32949 0.91115 0.0
S499 S 0.98988 0.42378 0.78107 0.0
N500 N 1.00021 0.4343 0.83545 0.0
N501 N 0.95513 0.38715 0.78196 0.0
C502 C 0.95066 0.3818 0.828 0.0
C503 C 0.9751 0.40744 0.85709 0.0
C504 C 0.90689 0.48347 0.97612 0.0
C505 C 0.94178 0.50394 0.97364 0.0
C506 C 0.88572 0.49093 0.95035 0.0
C507 C 0.89879 0.51946 0.92219 0.0
H508 H 0.89595 0.46066 0.99613 0.0
H509 H 0.85901 0.4739 0.95162 0.0
S510 S 0.98816 0.58255 0.90708 0.0
N511 N 0.98834 0.55493 0.94297 0.0
N512 N 0.94846 0.56917 0.89531 0.0
C513 C 0.93348 0.54099 0.92131 0.0
C514 C 0.95502 0.53316 0.94687 0.0
C515 C 0.37565 0.94333 0.42514 0.0
C516 C 0.4051 0.96998 0.40669 0.0
C517 C 0.35033 0.91975 0.39671 0.0
C518 C 0.3533 0.92172 0.34854 0.0
H519 H 0.3725 0.93994 0.46203 0.0
H520 H 0.32857 0.89924 0.41266 0.0
S521 S 0.42445 0.98734 0.28249 0.0
N522 N 0.43496 0.99778 0.33683 0.0
N523 N 0.38735 0.95317 0.28338 0.0
C524 C 0.38182 0.94903 0.32942 0.0
C525 C 0.4077 0.97321 0.35847 0.0
C526 C 0.48747 0.44713 0.86996 0.0
C527 C 0.46733 0.44792 0.90557 0.0
C528 C 0.48063 0.41668 0.84979 0.0
C529 C 0.45331 0.38621 0.86443 0.0
H530 H 0.51008 0.46976 0.86023 0.0
H531 H 0.4977 0.41677 0.82415 0.0
S532 S 0.39198 0.3756 0.95449 0.0
N533 N 0.41829 0.41631 0.9531 0.0
N534 N 0.40493 0.35909 0.91461 0.0
C535 C 0.43178 0.38706 0.89786 0.0
C536 C 0.43898 0.41797 0.91866 0.0
C537 C 0.08041 0.47874 0.41462 0.0
C538 C 0.08811 0.4921 0.45953 0.0
C539 C 0.10005 0.46782 0.39204 0.0
C540 C 0.12831 0.46978 0.41328 0.0
H541 H 0.05913 0.47691 0.39629 0.0
H542 H 0.09339 0.45838 0.3572 0.0
S543 S 0.15861 0.50086 0.53131 0.0
N544 N 0.12561 0.50554 0.52498 0.0
N545 N 0.16238 0.48471 0.48245 0.0
C546 C 0.13616 0.48259 0.45835 0.0
C547 C 0.1161 0.49376 0.48149 0.0
C548 C 0.62771 0.07516 0.92261 0.0
C549 C 0.59699 0.05123 0.90326 0.0
C550 C 0.65452 0.09718 0.89499 0.0
C551 C 0.65179 0.09629 0.84679 0.0
H552 H 0.63082 0.07768 0.9596 0.0
H553 H 0.67735 0.11568 0.91159 0.0
S554 S 0.57742 0.03761 0.77855 0.0
N555 N 0.56595 0.02702 0.83255 0.0
N556 N 0.6164 0.06875 0.7806 0.0
C557 C 0.6218 0.07156 0.82675 0.0
C558 C 0.5944 0.04895 0.85497 0.0
C559 C 0.51024 0.61196 0.47313 0.0
C560 C 0.53223 0.59917 0.47034 0.0
C561 C 0.51391 0.63787 0.44407 0.0
C562 C 0.54005 0.65231 0.41186 0.0
H563 H 0.48923 0.60098 0.49656 0.0
H564 H 0.49602 0.64652 0.44655 0.0
S565 S 0.60546 0.62936 0.39268 0.0
N566 N 0.58184 0.60389 0.43379 0.0
N567 N 0.58894 0.65293 0.37994 0.0
C568 C 0.56288 0.64063 0.40985 0.0
C569 C 0.55891 0.61397 0.43888 0.0
C570 C 0.43537 0.07086 0.58431 0.0
C571 C 0.44242 0.04702 0.60344 0.0
C572 C 0.43264 0.09432 0.61201 0.0
C573 C 0.43747 0.09527 0.65985 0.0
H574 H 0.43272 0.07194 0.54742 0.0
H575 H 0.42801 0.1127 0.59561 0.0
S576 S 0.45487 0.03755 0.72745 0.0
N577 N 0.45269 0.02495 0.67368 0.0
N578 N 0.44801 0.06943 0.7256 0.0
C579 C 0.44357 0.07104 0.67967 0.0
C580 C 0.44583 0.04676 0.65153 0.0
C581 C 0.40169 0.4589 0.06904 0.0
C582 C 0.4299 0.4627 0.09302 0.0
C583 C 0.37133 0.44872 0.09143 0.0
C584 C 0.36785 0.44186 0.13876 0.0
H585 H 0.40324 0.46465 0.0327 0.0
H586 H 0.3506 0.447 0.07173 0.0
S587 S 0.43344 0.44644 0.21717 0.0
N588 N 0.45194 0.45732 0.16648 0.0
N589 N 0.39471 0.43837 0.20884 0.0
C590 C 0.39533 0.4441 0.16293 0.0
C591 C 0.42639 0.45444 0.13999 0.0
C592 C 0.9109 0.41013 0.52422 0.0
C593 C 0.9455 0.42218 0.52472 0.0
C594 C 0.88906 0.38198 0.55014 0.0
C595 C 0.90113 0.36469 0.57652 0.0
H596 H 0.90085 0.42352 0.50567 0.0
H597 H 0.86266 0.37399 0.55023 0.0
S598 S 0.98923 0.38495 0.58699 0.0
N599 N 0.99062 0.41391 0.55227 0.0
N600 N 0.94943 0.36066 0.60016 0.0
C601 C 0.93543 0.37565 0.57572 0.0
C602 C 0.95767 0.40451 0.55 0.0
C603 C 0.5771 0.97374 0.11224 0.0
C604 C 0.54742 0.97376 0.1019 0.0
C605 C 0.57659 0.94854 0.14008 0.0
C606 C 0.54638 0.92267 0.15827 0.0
H607 H 0.60056 0.99256 0.09755 0.0
H608 H 0.59981 0.94864 0.14604 0.0
S609 S 0.46255 0.91431 0.14477 0.0
N610 N 0.48762 0.94757 0.11407 0.0
N611 N 0.4866 0.90079 0.167 0.0
C612 C 0.51683 0.92353 0.14956 0.0
C613 C 0.51739 0.94894 0.12117 0.0
C614 C 0.62916 0.52191 0.55185 0.0
C615 C 0.60215 0.52417 0.57036 0.0
C616 C 0.65559 0.5255 0.57989 0.0
C617 C 0.65605 0.5315 0.6275 0.0
H618 H 0.6298 0.51708 0.5155 0.0
H619 H 0.67583 0.52354 0.56419 0.0
S620 S 0.59064 0.53757 0.69382 0.0
N621 N 0.5773 0.53184 0.64013 0.0
N622 N 0.62663 0.53812 0.69223 0.0
C623 C 0.62926 0.53375 0.64646 0.0
C624 C 0.60244 0.5302 0.61809 0.0
C625 C 0.06963 0.58873 0.06325 0.0
C626 C 0.08369 0.5734 0.03642 0.0
C627 C 0.08981 0.61896 0.0863 0.0
C628 C 0.12478 0.63458 0.08413 0.0
H629 H 0.04276 0.57707 0.06688 0.0
H630 H 0.078 0.62967 0.10712 0.0
S631 S 0.17408 0.60547 0.01776 0.0
N632 N 0.13478 0.57681 0.00778 0.0
N633 N 0.17277 0.63338 0.05212 0.0
C634 C 0.13922 0.61995 0.05685 0.0
C635 C 0.11865 0.58944 0.03262 0.0
loop_
_geom_bond_atom_site_label_1
_geom_bond_atom_site_label_2
_geom_bond_distance
_geom_bond_site_symmetry_2
_ccdc_geom_bond_type
C0 O2 1.247 . S
C0 O4 1.258 . S
C1 O8 1.247 . S
C1 O9 1.258 . S
O2 C0 1.247 . S
O2 Zn3 2.028 1_455 S
Zn3 O2 2.028 1_655 S
Zn3 O7 2.035 1_554 S
Zn3 O9 2.035 1_554 S
Zn3 O10 2.028 1_655 S
O4 C0 1.258 . S
O4 Zn5 2.035 1_554 S
Zn5 O4 2.035 1_556 S
Zn5 O6 2.028 1_455 S
Zn5 O8 2.028 1_455 S
Zn5 O11 2.035 1_556 S
O6 Zn5 2.028 1_655 S
O6 C12 1.247 . S
O7 Zn3 2.035 1_556 S
O7 C12 1.258 . S
O8 C1 1.247 . S
O8 Zn5 2.028 1_655 S
O9 C1 1.258 . S
O9 Zn3 2.035 1_556 S
O10 Zn3 2.028 1_455 S
O10 C13 1.247 . S
O11 Zn5 2.035 1_554 S
O11 C13 1.258 . S
C12 O6 1.247 . S
C12 O7 1.258 . S
C13 O10 1.247 . S
C13 O11 1.258 . S
C14 O16 1.247 . S
C14 O18 1.258 . S
C15 O22 1.247 . S
C15 O23 1.258 . S
O16 C14 1.247 . S
O16 Zn17 2.028 1_545 S
Zn17 O16 2.028 1_565 S
Zn17 O21 2.035 . S
Zn17 O23 2.035 . S
Zn17 O24 2.028 1_565 S
O18 C14 1.258 . S
O18 Zn19 2.035 . S
Zn19 O18 2.035 . S
Zn19 O20 2.028 1_545 S
Zn19 O22 2.028 1_545 S
Zn19 O25 2.035 . S
O20 Zn19 2.028 1_565 S
O20 C26 1.247 . S
O21 Zn17 2.035 . S
O21 C26 1.258 . S
O22 C15 1.247 . S
O22 Zn19 2.028 1_565 S
O23 C15 1.258 . S
O23 Zn17 2.035 . S
O24 Zn17 2.028 1_545 S
O24 C27 1.247 . S
O25 Zn19 2.035 . S
O25 C27 1.258 . S
C26 O20 1.247 . S
C26 O21 1.258 . S
C27 O24 1.247 . S
C27 O25 1.258 . S
C28 O30 1.247 . S
C28 O32 1.258 . S
C29 O36 1.247 . S
C29 O37 1.258 . S
O30 C28 1.247 . S
O30 Zn31 2.028 . S
Zn31 O30 2.028 . S
Zn31 O35 2.035 1_556 S
Zn31 O37 2.035 1_556 S
Zn31 O38 2.028 . S
O32 C28 1.258 . S
O32 Zn33 2.035 1_556 S
Zn33 O32 2.035 1_554 S
Zn33 O34 2.028 . S
Zn33 O36 2.028 . S
Zn33 O39 2.035 1_554 S
O34 Zn33 2.028 . S
O34 C40 1.247 . S
O35 Zn31 2.035 1_554 S
O35 C40 1.258 . S
O36 C29 1.247 . S
O36 Zn33 2.028 . S
O37 C29 1.258 . S
O37 Zn31 2.035 1_554 S
O38 Zn31 2.028 . S
O38 C41 1.247 . S
O39 Zn33 2.035 1_556 S
O39 C41 1.258 . S
C40 O34 1.247 . S
C40 O35 1.258 . S
C41 O38 1.247 . S
C41 O39 1.258 . S
C42 O44 1.247 . S
C42 O46 1.258 . S
C43 O50 1.247 . S
C43 O51 1.258 . S
O44 C42 1.247 . S
O44 Zn45 2.028 . S
Zn45 O44 2.028 . S
Zn45 O49 2.035 1_455 S
Zn45 O51 2.035 1_455 S
Zn45 O52 2.028 . S
O46 C42 1.258 . S
O46 Zn47 2.035 1_455 S
Zn47 O46 2.035 1_655 S
Zn47 O48 2.028 . S
Zn47 O50 2.028 . S
Zn47 O53 2.035 1_655 S
O48 Zn47 2.028 . S
O48 C54 1.247 . S
O49 Zn45 2.035 1_655 S
O49 C54 1.258 . S
O50 C43 1.247 . S
O50 Zn47 2.028 . S
O51 C43 1.258 . S
O51 Zn45 2.035 1_655 S
O52 Zn45 2.028 . S
O52 C55 1.247 . S
O53 Zn47 2.035 1_455 S
O53 C55 1.258 . S
C54 O48 1.247 . S
C54 O49 1.258 . S
C55 O52 1.247 . S
C55 O53 1.258 . S
C56 O58 1.247 . S
C56 O60 1.258 . S
C57 O64 1.247 . S
C57 O65 1.258 . S
O58 C56 1.247 . S
O58 Zn59 2.028 1_565 S
Zn59 O58 2.028 1_545 S
Zn59 O63 2.035 1_554 S
Zn59 O65 2.035 1_554 S
Zn59 O66 2.028 1_545 S
O60 C56 1.258 . S
O60 Zn61 2.035 1_554 S
Zn61 O60 2.035 1_556 S
Zn61 O62 2.028 1_565 S
Zn61 O64 2.028 1_565 S
Zn61 O67 2.035 1_556 S
O62 Zn61 2.028 1_545 S
O62 C68 1.247 . S
O63 Zn59 2.035 1_556 S
O63 C68 1.258 . S
O64 C57 1.247 . S
O64 Zn61 2.028 1_545 S
O65 C57 1.258 . S
O65 Zn59 2.035 1_556 S
O66 Zn59 2.028 1_565 S
O66 C69 1.247 . S
O67 Zn61 2.035 1_554 S
O67 C69 1.258 . S
C68 O62 1.247 . S
C68 O63 1.258 . S
C69 O66 1.247 . S
C69 O67 1.258 . S
C70 O72 1.247 . S
C70 O74 1.258 . S
C71 O78 1.247 . S
C71 O79 1.258 . S
O72 C70 1.247 . S
O72 Zn73 2.028 . S
Zn73 O72 2.028 . S
Zn73 O77 2.035 . S
Zn73 O79 2.035 . S
Zn73 O80 2.028 . S
O74 C70 1.258 . S
O74 Zn75 2.035 . S
Zn75 O74 2.035 . S
Zn75 O76 2.028 . S
Zn75 O78 2.028 . S
Zn75 O81 2.035 . S
O76 Zn75 2.028 . S
O76 C82 1.247 . S
O77 Zn73 2.035 . S
O77 C82 1.258 . S
O78 C71 1.247 . S
O78 Zn75 2.028 . S
O79 C71 1.258 . S
O79 Zn73 2.035 . S
O80 Zn73 2.028 . S
O80 C83 1.247 . S
O81 Zn75 2.035 . S
O81 C83 1.258 . S
C82 O76 1.247 . S
C82 O77 1.258 . S
C83 O80 1.247 . S
C83 O81 1.258 . S
H84 C103 0.949 . S
H85 C104 0.950 . S
H86 C106 0.950 . S
H87 C107 0.950 . S
H88 C109 0.950 . S
H89 C112 0.950 . S
H90 C113 0.950 . S
H91 C115 0.951 . S
H92 C116 0.949 . S
H93 C118 0.949 . S
H94 C119 0.950 . S
H95 C121 0.950 . S
H96 C122 0.950 . S
H97 C124 0.950 . S
H98 C127 0.950 . S
H99 C128 0.950 . S
H100 C130 0.951 . S
H101 C131 0.949 . S
C102 C103 1.376 . S
C102 C107 1.386 . S
C102 C108 1.483 . S
C103 H84 0.949 . S
C103 C102 1.376 . S
C103 C104 1.397 . S
C104 H85 0.950 . S
C104 C103 1.397 . S
C104 C105 1.391 . S
C105 C104 1.391 . S
C105 C106 1.405 . S
C106 H86 0.950 . S
C106 C105 1.405 . S
C106 C107 1.367 . S
C107 H87 0.950 . S
C107 C102 1.386 . S
C107 C106 1.367 . S
C108 C102 1.483 . S
C108 C109 1.382 . S
C108 C110 1.403 . S
C109 H88 0.950 . S
C109 C108 1.382 . S
C109 C125 1.411 . S
C110 C108 1.403 . S
C110 C111 1.489 . S
C110 C124 1.411 . S
C111 C110 1.489 . S
C111 C112 1.383 . S
C111 C116 1.382 . S
C112 H89 0.950 . S
C112 C111 1.383 . S
C112 C113 1.395 . S
C113 H90 0.950 . S
C113 C112 1.395 . S
C113 C114 1.288 . S
C114 C113 1.288 . S
C114 C115 1.392 . S
C115 H91 0.951 . S
C115 C114 1.392 . S
C115 C116 1.392 . S
C116 H92 0.949 . S
C116 C111 1.382 . S
C116 C115 1.392 . S
C117 C118 1.376 . S
C117 C122 1.386 . S
C117 C123 1.483 . S
C118 H93 0.949 . S
C118 C117 1.376 . S
C118 C119 1.397 . S
C119 H94 0.950 . S
C119 C118 1.397 . S
C119 C120 1.391 . S
C120 C119 1.391 . S
C120 C121 1.405 . S
C121 H95 0.950 . S
C121 C120 1.405 . S
C121 C122 1.367 . S
C122 H96 0.950 . S
C122 C117 1.386 . S
C122 C121 1.367 . S
C123 C117 1.483 . S
C123 C124 1.382 . S
C123 C125 1.403 . S
C124 H97 0.950 . S
C124 C110 1.411 . S
C124 C123 1.382 . S
C125 C109 1.411 . S
C125 C123 1.403 . S
C125 C126 1.489 . S
C126 C125 1.489 . S
C126 C127 1.383 . S
C126 C131 1.382 . S
C127 H98 0.950 . S
C127 C126 1.383 . S
C127 C128 1.395 . S
C128 H99 0.950 . S
C128 C127 1.395 . S
C128 C129 1.288 . S
C129 C128 1.288 . S
C129 C130 1.392 . S
C130 H100 0.951 . S
C130 C129 1.392 . S
C130 C131 1.392 . S
C131 H101 0.949 . S
C131 C126 1.382 . S
C131 C130 1.392 . S
H132 C151 0.949 . S
H133 C152 0.950 . S
H134 C154 0.950 . S
H135 C155 0.950 . S
H136 C157 0.950 . S
H137 C160 0.950 . S
H138 C161 0.950 . S
H139 C163 0.951 . S
H140 C164 0.949 . S
H141 C166 0.949 . S
H142 C167 0.950 . S
H143 C169 0.950 . S
H144 C170 0.950 . S
H145 C172 0.950 . S
H146 C175 0.950 . S
H147 C176 0.950 . S
H148 C178 0.951 . S
H149 C179 0.949 . S
C150 C151 1.376 . S
C150 C155 1.386 . S
C150 C156 1.483 . S
C151 H132 0.949 . S
C151 C150 1.376 . S
C151 C152 1.397 . S
C152 H133 0.950 . S
C152 C151 1.397 . S
C152 C153 1.391 . S
C153 C152 1.391 . S
C153 C154 1.405 . S
C154 H134 0.950 . S
C154 C153 1.405 . S
C154 C155 1.367 . S
C155 H135 0.950 . S
C155 C150 1.386 . S
C155 C154 1.367 . S
C156 C150 1.483 . S
C156 C157 1.382 . S
C156 C158 1.403 . S
C157 H136 0.950 . S
C157 C156 1.382 . S
C157 C173 1.411 . S
C158 C156 1.403 . S
C158 C159 1.489 . S
C158 C172 1.411 . S
C159 C158 1.489 . S
C159 C160 1.383 . S
C159 C164 1.382 . S
C160 H137 0.950 . S
C160 C159 1.383 . S
C160 C161 1.395 . S
C161 H138 0.950 . S
C161 C160 1.395 . S
C161 C162 1.288 . S
C162 C161 1.288 . S
C162 C163 1.392 . S
C163 H139 0.951 . S
C163 C162 1.392 . S
C163 C164 1.392 . S
C164 H140 0.949 . S
C164 C159 1.382 . S
C164 C163 1.392 . S
C165 C166 1.376 . S
C165 C170 1.386 . S
C165 C171 1.483 . S
C166 H141 0.949 . S
C166 C165 1.376 . S
C166 C167 1.397 . S
C167 H142 0.950 . S
C167 C166 1.397 . S
C167 C168 1.391 . S
C168 C167 1.391 . S
C168 C169 1.405 . S
C169 H143 0.950 . S
C169 C168 1.405 . S
C169 C170 1.367 . S
C170 H144 0.950 . S
C170 C165 1.386 . S
C170 C169 1.367 . S
C171 C165 1.483 . S
C171 C172 1.382 . S
C171 C173 1.403 . S
C172 H145 0.950 . S
C172 C158 1.411 . S
C172 C171 1.382 . S
C173 C157 1.411 . S
C173 C171 1.403 . S
C173 C174 1.489 . S
C174 C173 1.489 . S
C174 C175 1.383 . S
C174 C179 1.382 . S
C175 H146 0.950 . S
C175 C174 1.383 . S
C175 C176 1.395 . S
C176 H147 0.950 . S
C176 C175 1.395 . S
C176 C177 1.288 . S
C177 C176 1.288 . S
C177 C178 1.392 . S
C178 H148 0.951 . S
C178 C177 1.392 . S
C178 C179 1.392 . S
C179 H149 0.949 . S
C179 C174 1.382 . S
C179 C178 1.392 . S
H180 C199 0.949 . S
H181 C200 0.950 . S
H182 C202 0.950 . S
H183 C203 0.950 . S
H184 C205 0.950 . S
H185 C208 0.950 . S
H186 C209 0.950 . S
H187 C211 0.951 . S
H188 C212 0.949 . S
H189 C214 0.949 . S
H190 C215 0.950 . S
H191 C217 0.950 . S
H192 C218 0.950 . S
H193 C220 0.950 . S
H194 C223 0.950 . S
H195 C224 0.950 . S
H196 C226 0.951 . S
H197 C227 0.949 . S
C198 C199 1.376 . S
C198 C203 1.386 . S
C198 C204 1.483 . S
C199 H180 0.949 . S
C199 C198 1.376 . S
C199 C200 1.397 . S
C200 H181 0.950 . S
C200 C199 1.397 . S
C200 C201 1.391 . S
C201 C200 1.391 . S
C201 C202 1.405 . S
C202 H182 0.950 . S
C202 C201 1.405 . S
C202 C203 1.367 . S
C203 H183 0.950 . S
C203 C198 1.386 . S
C203 C202 1.367 . S
C204 C198 1.483 . S
C204 C205 1.382 . S
C204 C206 1.403 . S
C205 H184 0.950 . S
C205 C204 1.382 . S
C205 C221 1.411 . S
C206 C204 1.403 . S
C206 C207 1.489 . S
C206 C220 1.411 . S
C207 C206 1.489 . S
C207 C208 1.383 . S
C207 C212 1.382 . S
C208 H185 0.950 . S
C208 C207 1.383 . S
C208 C209 1.395 . S
C209 H186 0.950 . S
C209 C208 1.395 . S
C209 C210 1.288 . S
C210 C209 1.288 . S
C210 C211 1.392 . S
C211 H187 0.951 . S
C211 C210 1.392 . S
C211 C212 1.392 . S
C212 H188 0.949 . S
C212 C207 1.382 . S
C212 C211 1.392 . S
C213 C214 1.376 . S
C213 C218 1.386 . S
C213 C219 1.483 . S
C214 H189 0.949 . S
C214 C213 1.376 . S
C214 C215 1.397 . S
C215 H190 0.950 . S
C215 C214 1.397 . S
C215 C216 1.391 . S
C216 C215 1.391 . S
C216 C217 1.405 . S
C217 H191 0.950 . S
C217 C216 1.405 . S
C217 C218 1.367 . S
C218 H192 0.950 . S
C218 C213 1.386 . S
C218 C217 1.367 . S
C219 C213 1.483 . S
C219 C220 1.382 . S
C219 C221 1.403 . S
C220 H193 0.950 . S
C220 C206 1.411 . S
C220 C219 1.382 . S
C221 C205 1.411 . S
C221 C219 1.403 . S
C221 C222 1.489 . S
C222 C221 1.489 . S
C222 C223 1.383 . S
C222 C227 1.382 . S
C223 H194 0.950 . S
C223 C222 1.383 . S
C223 C224 1.395 . S
C224 H195 0.950 . S
C224 C223 1.395 . S
C224 C225 1.288 . S
C225 C224 1.288 . S
C225 C226 1.392 . S
C226 H196 0.951 . S
C226 C225 1.392 . S
C226 C227 1.392 . S
C227 H197 0.949 . S
C227 C222 1.382 . S
C227 C226 1.392 . S
H228 C247 0.949 . S
H229 C248 0.950 . S
H230 C250 0.950 . S
H231 C251 0.950 . S
H232 C253 0.950 . S
H233 C256 0.950 . S
H234 C257 0.950 . S
H235 C259 0.951 . S
H236 C260 0.949 . S
H237 C262 0.949 . S
H238 C263 0.950 . S
H239 C265 0.950 . S
H240 C266 0.950 . S
H241 C268 0.950 . S
H242 C271 0.950 . S
H243 C272 0.950 . S
H244 C274 0.951 . S
H245 C275 0.949 . S
C246 C247 1.376 . S
C246 C251 1.386 . S
C246 C252 1.483 . S
C247 H228 0.949 . S
C247 C246 1.376 . S
C247 C248 1.397 . S
C248 H229 0.950 . S
C248 C247 1.397 . S
C248 C249 1.391 . S
C249 C248 1.391 . S
C249 C250 1.405 . S
C250 H230 0.950 . S
C250 C249 1.405 . S
C250 C251 1.367 . S
C251 H231 0.950 . S
C251 C246 1.386 . S
C251 C250 1.367 . S
C252 C246 1.483 . S
C252 C253 1.382 . S
C252 C254 1.403 . S
C253 H232 0.950 . S
C253 C252 1.382 . S
C253 C269 1.411 . S
C254 C252 1.403 . S
C254 C255 1.489 . S
C254 C268 1.411 . S
C255 C254 1.489 . S
C255 C256 1.383 . S
C255 C260 1.382 . S
C256 H233 0.950 . S
C256 C255 1.383 . S
C256 C257 1.395 . S
C257 H234 0.950 . S
C257 C256 1.395 . S
C257 C258 1.288 . S
C258 C257 1.288 . S
C258 C259 1.392 . S
C259 H235 0.951 . S
C259 C258 1.392 . S
C259 C260 1.392 . S
C260 H236 0.949 . S
C260 C255 1.382 . S
C260 C259 1.392 . S
C261 C262 1.376 . S
C261 C266 1.386 . S
C261 C267 1.483 . S
C262 H237 0.949 . S
C262 C261 1.376 . S
C262 C263 1.397 . S
C263 H238 0.950 . S
C263 C262 1.397 . S
C263 C264 1.391 . S
C264 C263 1.391 . S
C264 C265 1.405 . S
C265 H239 0.950 . S
C265 C264 1.405 . S
C265 C266 1.367 . S
C266 H240 0.950 . S
C266 C261 1.386 . S
C266 C265 1.367 . S
C267 C261 1.483 . S
C267 C268 1.382 . S
C267 C269 1.403 . S
C268 H241 0.950 . S
C268 C254 1.411 . S
C268 C267 1.382 . S
C269 C253 1.411 . S
C269 C267 1.403 . S
C269 C270 1.489 . S
C270 C269 1.489 . S
C270 C271 1.383 . S
C270 C275 1.382 . S
C271 H242 0.950 . S
C271 C270 1.383 . S
C271 C272 1.395 . S
C272 H243 0.950 . S
C272 C271 1.395 . S
C272 C273 1.288 . S
C273 C272 1.288 . S
C273 C274 1.392 . S
C274 H244 0.951 . S
C274 C273 1.392 . S
C274 C275 1.392 . S
C275 H245 0.949 . S
C275 C270 1.382 . S
C275 C274 1.392 . S
H276 C295 0.949 . S
H277 C296 0.950 . S
H278 C298 0.950 . S
H279 C299 0.950 . S
H280 C301 0.950 . S
H281 C304 0.950 . S
H282 C305 0.950 . S
H283 C307 0.951 . S
H284 C308 0.949 . S
H285 C310 0.949 . S
H286 C311 0.950 . S
H287 C313 0.950 . S
H288 C314 0.950 . S
H289 C316 0.950 . S
H290 C319 0.950 . S
H291 C320 0.950 . S
H292 C322 0.951 . S
H293 C323 0.949 . S
C294 C295 1.376 . S
C294 C299 1.386 . S
C294 C300 1.483 . S
C295 H276 0.949 . S
C295 C294 1.376 . S
C295 C296 1.397 . S
C296 H277 0.950 . S
C296 C295 1.397 . S
C296 C297 1.391 . S
C297 C296 1.391 . S
C297 C298 1.405 . S
C298 H278 0.950 . S
C298 C297 1.405 . S
C298 C299 1.367 . S
C299 H279 0.950 . S
C299 C294 1.386 . S
C299 C298 1.367 . S
C300 C294 1.483 . S
C300 C301 1.382 . S
C300 C302 1.403 . S
C301 H280 0.950 . S
C301 C300 1.382 . S
C301 C317 1.411 . S
C302 C300 1.403 . S
C302 C303 1.489 . S
C302 C316 1.411 . S
C303 C302 1.489 . S
C303 C304 1.383 . S
C303 C308 1.382 . S
C304 H281 0.950 . S
C304 C303 1.383 . S
C304 C305 1.395 . S
C305 H282 0.950 . S
C305 C304 1.395 . S
C305 C306 1.288 . S
C306 C305 1.288 . S
C306 C307 1.392 . S
C307 H283 0.951 . S
C307 C306 1.392 . S
C307 C308 1.392 . S
C308 H284 0.949 . S
C308 C303 1.382 . S
C308 C307 1.392 . S
C309 C310 1.376 . S
C309 C314 1.386 . S
C309 C315 1.483 . S
C310 H285 0.949 . S
C310 C309 1.376 . S
C310 C311 1.397 . S
C311 H286 0.950 . S
C311 C310 1.397 . S
C311 C312 1.391 . S
C312 C311 1.391 . S
C312 C313 1.405 . S
C313 H287 0.950 . S
C313 C312 1.405 . S
C313 C314 1.367 . S
C314 H288 0.950 . S
C314 C309 1.386 . S
C314 C313 1.367 . S
C315 C309 1.483 . S
C315 C316 1.382 . S
C315 C317 1.403 . S
C316 H289 0.950 . S
C316 C302 1.411 . S
C316 C315 1.382 . S
C317 C301 1.411 . S
C317 C315 1.403 . S
C317 C318 1.489 . S
C318 C317 1.489 . S
C318 C319 1.383 . S
C318 C323 1.382 . S
C319 H290 0.950 . S
C319 C318 1.383 . S
C319 C320 1.395 . S
C320 H291 0.950 . S
C320 C319 1.395 . S
C320 C321 1.288 . S
C321 C320 1.288 . S
C321 C322 1.392 . S
C322 H292 0.951 . S
C322 C321 1.392 . S
C322 C323 1.392 . S
C323 H293 0.949 . S
C323 C318 1.382 . S
C323 C322 1.392 . S
H324 C343 0.949 . S
H325 C344 0.950 . S
H326 C346 0.950 . S
H327 C347 0.950 . S
H328 C349 0.950 . S
H329 C352 0.950 . S
H330 C353 0.950 . S
H331 C355 0.951 . S
H332 C356 0.949 . S
H333 C358 0.949 . S
H334 C359 0.950 . S
H335 C361 0.950 . S
H336 C362 0.950 . S
H337 C364 0.950 . S
H338 C367 0.950 . S
H339 C368 0.950 . S
H340 C370 0.951 . S
H341 C371 0.949 . S
C342 C343 1.376 . S
C342 C347 1.386 . S
C342 C348 1.483 . S
C343 H324 0.949 . S
C343 C342 1.376 . S
C343 C344 1.397 . S
C344 H325 0.950 . S
C344 C343 1.397 . S
C344 C345 1.391 . S
C345 C344 1.391 . S
C345 C346 1.405 . S
C346 H326 0.950 . S
C346 C345 1.405 . S
C346 C347 1.367 . S
C347 H327 0.950 . S
C347 C342 1.386 . S
C347 C346 1.367 . S
C348 C342 1.483 . S
C348 C349 1.382 . S
C348 C350 1.403 . S
C349 H328 0.950 . S
C349 C348 1.382 . S
C349 C365 1.411 . S
C350 C348 1.403 . S
C350 C351 1.489 . S
C350 C364 1.411 . S
C351 C350 1.489 . S
C351 C352 1.383 . S
C351 C356 1.382 . S
C352 H329 0.950 . S
C352 C351 1.383 . S
C352 C353 1.395 . S
C353 H330 0.950 . S
C353 C352 1.395 . S
C353 C354 1.288 . S
C354 C353 1.288 . S
C354 C355 1.392 . S
C355 H331 0.951 . S
C355 C354 1.392 . S
C355 C356 1.392 . S
C356 H332 0.949 . S
C356 C351 1.382 . S
C356 C355 1.392 . S
C357 C358 1.376 . S
C357 C362 1.386 . S
C357 C363 1.483 . S
C358 H333 0.949 . S
C358 C357 1.376 . S
C358 C359 1.397 . S
C359 H334 0.950 . S
C359 C358 1.397 . S
C359 C360 1.391 . S
C360 C359 1.391 . S
C360 C361 1.405 . S
C361 H335 0.950 . S
C361 C360 1.405 . S
C361 C362 1.367 . S
C362 H336 0.950 . S
C362 C357 1.386 . S
C362 C361 1.367 . S
C363 C357 1.483 . S
C363 C364 1.382 . S
C363 C365 1.403 . S
C364 H337 0.950 . S
C364 C350 1.411 . S
C364 C363 1.382 . S
C365 C349 1.411 . S
C365 C363 1.403 . S
C365 C366 1.489 . S
C366 C365 1.489 . S
C366 C367 1.383 . S
C366 C371 1.382 . S
C367 H338 0.950 . S
C367 C366 1.383 . S
C367 C368 1.395 . S
C368 H339 0.950 . S
C368 C367 1.395 . S
C368 C369 1.288 . S
C369 C368 1.288 . S
C369 C370 1.392 . S
C370 H340 0.951 . S
C370 C369 1.392 . S
C370 C371 1.392 . S
C371 H341 0.949 . S
C371 C366 1.382 . S
C371 C370 1.392 . S
C372 C373 1.369 . S
C372 C374 1.419 . S
C372 H376 0.930 . S
C373 C372 1.369 . S
C373 C382 1.429 . S
C374 C372 1.419 . S
C374 C375 1.363 . S
C374 H377 0.929 . S
C375 C374 1.363 . S
C375 C381 1.428 . S
H376 C372 0.930 . S
H377 C374 0.929 . S
S378 N379 1.613 . S
S378 N380 1.610 . S
N379 S378 1.613 . S
N379 C382 1.350 . S
N380 S378 1.610 . S
N380 C381 1.351 . S
C381 C375 1.428 . S
C381 N380 1.351 . S
C381 C382 1.434 . S
C382 C373 1.429 . S
C382 N379 1.350 . S
C382 C381 1.434 . S
C383 C384 1.369 . S
C383 C385 1.419 . S
C383 H387 0.930 . S
C384 C383 1.369 . S
C384 C393 1.429 . S
C385 C383 1.419 . S
C385 C386 1.363 . S
C385 H388 0.929 . S
C386 C385 1.363 . S
C386 C392 1.428 . S
H387 C383 0.930 . S
H388 C385 0.929 . S
S389 N390 1.613 . S
S389 N391 1.610 . S
N390 S389 1.613 . S
N390 C393 1.350 . S
N391 S389 1.610 . S
N391 C392 1.351 . S
C392 C386 1.428 . S
C392 N391 1.351 . S
C392 C393 1.434 . S
C393 C384 1.429 . S
C393 N390 1.350 . S
C393 C392 1.434 . S
C394 C395 1.369 . S
C394 C396 1.419 . S
C394 H398 0.930 . S
C395 C394 1.369 . S
C395 C404 1.429 . S
C396 C394 1.419 . S
C396 C397 1.363 . S
C396 H399 0.929 . S
C397 C396 1.363 . S
C397 C403 1.428 . S
H398 C394 0.930 . S
H399 C396 0.929 . S
S400 N401 1.613 . S
S400 N402 1.610 . S
N401 S400 1.613 . S
N401 C404 1.350 . S
N402 S400 1.610 . S
N402 C403 1.351 . S
C403 C397 1.428 . S
C403 N402 1.351 . S
C403 C404 1.434 . S
C404 C395 1.429 . S
C404 N401 1.350 . S
C404 C403 1.434 . S
C405 C406 1.369 . S
C405 C407 1.419 . S
C405 H409 0.930 . S
C406 C405 1.369 . S
C406 C415 1.429 . S
C407 C405 1.419 . S
C407 C408 1.363 . S
C407 H410 0.929 . S
C408 C407 1.363 . S
C408 C414 1.428 . S
H409 C405 0.930 . S
H410 C407 0.929 . S
S411 N412 1.613 . S
S411 N413 1.610 . S
N412 S411 1.613 . S
N412 C415 1.350 . S
N413 S411 1.610 . S
N413 C414 1.351 . S
C414 C408 1.428 . S
C414 N413 1.351 . S
C414 C415 1.434 . S
C415 C406 1.429 . S
C415 N412 1.350 . S
C415 C414 1.434 . S
C416 C417 1.369 . S
C416 C418 1.419 . S
C416 H420 0.930 . S
C417 C416 1.369 . S
C417 C426 1.429 . S
C418 C416 1.419 . S
C418 C419 1.363 . S
C418 H421 0.929 . S
C419 C418 1.363 . S
C419 C425 1.428 . S
H420 C416 0.930 . S
H421 C418 0.929 . S
S422 N423 1.613 . S
S422 N424 1.610 . S
N423 S422 1.613 . S
N423 C426 1.350 . S
N424 S422 1.610 . S
N424 C425 1.351 . S
C425 C419 1.428 . S
C425 N424 1.351 . S
C425 C426 1.434 . S
C426 C417 1.429 . S
C426 N423 1.350 . S
C426 C425 1.434 . S
C427 C428 1.369 . S
C427 C429 1.419 . S
C427 H431 0.930 . S
C428 C427 1.369 . S
C428 C437 1.429 . S
C429 C427 1.419 . S
C429 C430 1.363 . S
C429 H432 0.929 . S
C430 C429 1.363 . S
C430 C436 1.428 . S
H431 C427 0.930 . S
H432 C429 0.929 . S
S433 N434 1.613 . S
S433 N435 1.610 . S
N434 S433 1.613 . S
N434 C437 1.350 . S
N435 S433 1.610 . S
N435 C436 1.351 . S
C436 C430 1.428 . S
C436 N435 1.351 . S
C436 C437 1.434 . S
C437 C428 1.429 . S
C437 N434 1.350 . S
C437 C436 1.434 . S
C438 C439 1.369 . S
C438 C440 1.419 . S
C438 H442 0.930 . S
C439 C438 1.369 . S
C439 C448 1.429 . S
C440 C438 1.419 . S
C440 C441 1.363 . S
C440 H443 0.929 . S
C441 C440 1.363 . S
C441 C447 1.428 . S
H442 C438 0.930 . S
H443 C440 0.929 . S
S444 N445 1.613 . S
S444 N446 1.610 1_545 S
N445 S444 1.613 . S
N445 C448 1.350 1_545 S
N446 S444 1.610 1_565 S
N446 C447 1.351 . S
C447 C441 1.428 . S
C447 N446 1.351 . S
C447 C448 1.434 . S
C448 C439 1.429 . S
C448 N445 1.350 1_565 S
C448 C447 1.434 . S
C449 C450 1.369 . S
C449 C451 1.419 . S
C449 H453 0.930 . S
C450 C449 1.369 . S
C450 C459 1.429 . S
C451 C449 1.419 . S
C451 C452 1.363 . S
C451 H454 0.929 . S
C452 C451 1.363 . S
C452 C458 1.428 . S
H453 C449 0.930 . S
H454 C451 0.929 . S
S455 N456 1.613 . S
S455 N457 1.610 . S
N456 S455 1.613 . S
N456 C459 1.350 . S
N457 S455 1.610 . S
N457 C458 1.351 . S
C458 C452 1.428 . S
C458 N457 1.351 . S
C458 C459 1.434 . S
C459 C450 1.429 . S
C459 N456 1.350 . S
C459 C458 1.434 . S
C460 C461 1.369 . S
C460 C462 1.419 . S
C460 H464 0.930 . S
C461 C460 1.369 . S
C461 C470 1.429 . S
C462 C460 1.419 . S
C462 C463 1.363 . S
C462 H465 0.929 . S
C463 C462 1.363 . S
C463 C469 1.428 . S
H464 C460 0.930 . S
H465 C462 0.929 . S
S466 N467 1.613 . S
S466 N468 1.610 . S
N467 S466 1.613 . S
N467 C470 1.350 . S
N468 S466 1.610 . S
N468 C469 1.351 . S
C469 C463 1.428 . S
C469 N468 1.351 . S
C469 C470 1.434 . S
C470 C461 1.429 . S
C470 N467 1.350 . S
C470 C469 1.434 . S
C471 C472 1.369 . S
C471 C473 1.419 . S
C471 H475 0.930 . S
C472 C471 1.369 . S
C472 C481 1.429 . S
C473 C471 1.419 . S
C473 C474 1.363 . S
C473 H476 0.929 . S
C474 C473 1.363 . S
C474 C480 1.428 . S
H475 C471 0.930 . S
H476 C473 0.929 . S
S477 N478 1.613 . S
S477 N479 1.610 . S
N478 S477 1.613 . S
N478 C481 1.350 . S
N479 S477 1.610 . S
N479 C480 1.351 . S
C480 C474 1.428 . S
C480 N479 1.351 . S
C480 C481 1.434 . S
C481 C472 1.429 . S
C481 N478 1.350 . S
C481 C480 1.434 . S
C482 C483 1.369 . S
C482 C484 1.419 . S
C482 H486 0.930 . S
C483 C482 1.369 . S
C483 C492 1.429 . S
C484 C482 1.419 . S
C484 C485 1.363 . S
C484 H487 0.929 . S
C485 C484 1.363 . S
C485 C491 1.428 . S
H486 C482 0.930 . S
H487 C484 0.929 . S
S488 N489 1.613 . S
S488 N490 1.610 . S
N489 S488 1.613 . S
N489 C492 1.350 . S
N490 S488 1.610 . S
N490 C491 1.351 . S
C491 C485 1.428 . S
C491 N490 1.351 . S
C491 C492 1.434 . S
C492 C483 1.429 . S
C492 N489 1.350 . S
C492 C491 1.434 . S
C493 C494 1.369 . S
C493 C495 1.419 . S
C493 H497 0.930 . S
C494 C493 1.369 . S
C494 C503 1.429 . S
C495 C493 1.419 . S
C495 C496 1.363 . S
C495 H498 0.929 . S
C496 C495 1.363 . S
C496 C502 1.428 . S
H497 C493 0.930 . S
H498 C495 0.929 . S
S499 N500 1.613 1_455 S
S499 N501 1.610 1_455 S
N500 S499 1.613 1_655 S
N500 C503 1.350 . S
N501 S499 1.610 1_655 S
N501 C502 1.351 . S
C502 C496 1.428 . S
C502 N501 1.351 . S
C502 C503 1.434 . S
C503 C494 1.429 . S
C503 N500 1.350 . S
C503 C502 1.434 . S
C504 C505 1.369 . S
C504 C506 1.419 . S
C504 H508 0.930 . S
C505 C504 1.369 . S
C505 C514 1.429 . S
C506 C504 1.419 . S
C506 C507 1.363 . S
C506 H509 0.929 . S
C507 C506 1.363 . S
C507 C513 1.428 . S
H508 C504 0.930 . S
H509 C506 0.929 . S
S510 N511 1.613 . S
S510 N512 1.610 1_455 S
N511 S510 1.613 . S
N511 C514 1.350 1_455 S
N512 S510 1.610 1_655 S
N512 C513 1.351 . S
C513 C507 1.428 . S
C513 N512 1.351 . S
C513 C514 1.434 . S
C514 C505 1.429 . S
C514 N511 1.350 1_655 S
C514 C513 1.434 . S
C515 C516 1.369 . S
C515 C517 1.419 . S
C515 H519 0.930 . S
C516 C515 1.369 . S
C516 C525 1.429 . S
C517 C515 1.419 . S
C517 C518 1.363 . S
C517 H520 0.929 . S
C518 C517 1.363 . S
C518 C524 1.428 . S
H519 C515 0.930 . S
H520 C517 0.929 . S
S521 N522 1.613 . S
S521 N523 1.610 . S
N522 S521 1.613 . S
N522 C525 1.350 . S
N523 S521 1.610 . S
N523 C524 1.351 . S
C524 C518 1.428 . S
C524 N523 1.351 . S
C524 C525 1.434 . S
C525 C516 1.429 . S
C525 N522 1.350 . S
C525 C524 1.434 . S
C526 C527 1.369 . S
C526 C528 1.419 . S
C526 H530 0.930 . S
C527 C526 1.369 . S
C527 C536 1.429 . S
C528 C526 1.419 . S
C528 C529 1.363 . S
C528 H531 0.929 . S
C529 C528 1.363 . S
C529 C535 1.428 . S
H530 C526 0.930 . S
H531 C528 0.929 . S
S532 N533 1.613 . S
S532 N534 1.610 . S
N533 S532 1.613 . S
N533 C536 1.350 . S
N534 S532 1.610 . S
N534 C535 1.351 . S
C535 C529 1.428 . S
C535 N534 1.351 . S
C535 C536 1.434 . S
C536 C527 1.429 . S
C536 N533 1.350 . S
C536 C535 1.434 . S
C537 C538 1.369 . S
C537 C539 1.419 . S
C537 H541 0.930 . S
C538 C537 1.369 . S
C538 C547 1.429 . S
C539 C537 1.419 . S
C539 C540 1.363 . S
C539 H542 0.929 . S
C540 C539 1.363 . S
C540 C546 1.428 . S
H541 C537 0.930 . S
H542 C539 0.929 . S
S543 N544 1.613 . S
S543 N545 1.610 . S
N544 S543 1.613 . S
N544 C547 1.350 . S
N545 S543 1.610 . S
N545 C546 1.351 . S
C546 C540 1.428 . S
C546 N545 1.351 . S
C546 C547 1.434 . S
C547 C538 1.429 . S
C547 N544 1.350 . S
C547 C546 1.434 . S
C548 C549 1.369 . S
C548 C550 1.419 . S
C548 H552 0.930 . S
C549 C548 1.369 . S
C549 C558 1.429 . S
C550 C548 1.419 . S
C550 C551 1.363 . S
C550 H553 0.929 . S
C551 C550 1.363 . S
C551 C557 1.428 . S
H552 C548 0.930 . S
H553 C550 0.929 . S
S554 N555 1.600 1_565 S
S554 N556 1.610 1_565 S
N555 S554 1.600 1_545 S
N555 C558 1.365 . S
N556 S554 1.610 1_545 S
N556 C557 1.351 . S
C557 C551 1.428 . S
C557 N556 1.351 . S
C557 C558 1.434 . S
C558 C549 1.429 . S
C558 N555 1.365 . S
C558 C557 1.434 . S
C559 C560 1.369 . S
C559 C561 1.419 . S
C559 H563 0.930 . S
C560 C559 1.369 . S
C560 C569 1.429 . S
C561 C559 1.419 . S
C561 C562 1.363 . S
C561 H564 0.929 . S
C562 C561 1.363 . S
C562 C568 1.428 . S
H563 C559 0.930 . S
H564 C561 0.929 . S
S565 N566 1.613 . S
S565 N567 1.610 . S
N566 S565 1.613 . S
N566 C569 1.350 . S
N567 S565 1.610 . S
N567 C568 1.351 . S
C568 C562 1.428 . S
C568 N567 1.351 . S
C568 C569 1.434 . S
C569 C560 1.429 . S
C569 N566 1.350 . S
C569 C568 1.434 . S
C570 C571 1.369 . S
C570 C572 1.419 . S
C570 H574 0.930 . S
C571 C570 1.369 . S
C571 C580 1.429 . S
C572 C570 1.419 . S
C572 C573 1.363 . S
C572 H575 0.929 . S
C573 C572 1.363 . S
C573 C579 1.428 . S
H574 C570 0.930 . S
H575 C572 0.929 . S
S576 N577 1.613 . S
S576 N578 1.610 . S
N577 S576 1.613 . S
N577 C580 1.350 . S
N578 S576 1.610 . S
N578 C579 1.351 . S
C579 C573 1.428 . S
C579 N578 1.351 . S
C579 C580 1.434 . S
C580 C571 1.429 . S
C580 N577 1.350 . S
C580 C579 1.434 . S
C581 C582 1.369 . S
C581 C583 1.419 . S
C581 H585 0.930 . S
C582 C581 1.369 . S
C582 C591 1.429 . S
C583 C581 1.419 . S
C583 C584 1.363 . S
C583 H586 0.929 . S
C584 C583 1.363 . S
C584 C590 1.428 . S
H585 C581 0.930 . S
H586 C583 0.929 . S
S587 N588 1.613 . S
S587 N589 1.610 . S
N588 S587 1.613 . S
N588 C591 1.350 . S
N589 S587 1.610 . S
N589 C590 1.351 . S
C590 C584 1.428 . S
C590 N589 1.351 . S
C590 C591 1.434 . S
C591 C582 1.429 . S
C591 N588 1.350 . S
C591 C590 1.434 . S
C592 C593 1.369 . S
C592 C594 1.419 . S
C592 H596 0.930 . S
C593 C592 1.369 . S
C593 C602 1.429 . S
C594 C592 1.419 . S
C594 C595 1.363 . S
C594 H597 0.929 . S
C595 C594 1.363 . S
C595 C601 1.428 . S
H596 C592 0.930 . S
H597 C594 0.929 . S
S598 N599 1.613 . S
S598 N600 1.610 1_455 S
N599 S598 1.613 . S
N599 C602 1.350 1_455 S
N600 S598 1.610 1_655 S
N600 C601 1.351 . S
C601 C595 1.428 . S
C601 N600 1.351 . S
C601 C602 1.434 . S
C602 C593 1.429 . S
C602 N599 1.350 1_655 S
C602 C601 1.434 . S
C603 C604 1.369 . S
C603 C605 1.419 . S
C603 H607 0.930 . S
C604 C603 1.369 . S
C604 C613 1.429 . S
C605 C603 1.419 . S
C605 C606 1.363 . S
C605 H608 0.929 . S
C606 C605 1.363 . S
C606 C612 1.428 . S
H607 C603 0.930 . S
H608 C605 0.929 . S
S609 N610 1.613 . S
S609 N611 1.610 . S
N610 S609 1.613 . S
N610 C613 1.350 . S
N611 S609 1.610 . S
N611 C612 1.351 . S
C612 C606 1.428 . S
C612 N611 1.351 . S
C612 C613 1.434 . S
C613 C604 1.429 . S
C613 N610 1.350 . S
C613 C612 1.434 . S
C614 C615 1.369 . S
C614 C616 1.419 . S
C614 H618 0.930 . S
C615 C614 1.369 . S
C615 C624 1.429 . S
C616 C614 1.419 . S
C616 C617 1.363 . S
C616 H619 0.929 . S
C617 C616 1.363 . S
C617 C623 1.428 . S
H618 C614 0.930 . S
H619 C616 0.929 . S
S620 N621 1.613 . S
S620 N622 1.610 . S
N621 S620 1.613 . S
N621 C624 1.350 . S
N622 S620 1.610 . S
N622 C623 1.351 . S
C623 C617 1.428 . S
C623 N622 1.351 . S
C623 C624 1.434 . S
C624 C615 1.429 . S
C624 N621 1.350 . S
C624 C623 1.434 . S
C625 C626 1.369 . S
C625 C627 1.419 . S
C625 H629 0.930 . S
C626 C625 1.369 . S
C626 C635 1.429 . S
C627 C625 1.419 . S
C627 C628 1.363 . S
C627 H630 0.929 . S
C628 C627 1.363 . S
C628 C634 1.428 . S
H629 C625 0.930 . S
H630 C627 0.929 . S
S631 N632 1.613 . S
S631 N633 1.610 . S
N632 S631 1.613 . S
N632 C635 1.350 . S
N633 S631 1.610 . S
N633 C634 1.351 . S
C634 C628 1.428 . S
C634 N633 1.351 . S
C634 C635 1.434 . S
C635 C626 1.429 . S
C635 N632 1.350 . S
C635 C634 1.434 . S
C373 C13 1.772 . S
C375 C105 1.733 . S
C384 C27 1.765 . S
C386 C162 1.758 . S
C397 C216 1.707 . S
C395 C29 1.769 . S
C408 C273 1.669 . S
C406 C54 1.768 . S
C419 C297 1.734 . S
C417 C69 1.773 . S
C430 C354 1.757 . S
C428 C83 1.765 . S
C439 C15 1.768 . S
C441 C201 1.738 . S
C450 C41 1.763 . S
C452 C258 1.759 . S
C463 C312 1.710 . S
C461 C42 1.768 . S
C474 C369 1.677 . S
C472 C57 1.762 . S
C483 C71 1.767 . S
C485 C120 1.710 . S
C496 C177 1.674 . S
C494 C1 1.765 . S
C507 C264 1.739 . S
C505 C12 1.767 . S
C516 C26 1.764 . S
C518 C306 1.674 . S
C529 C345 1.709 . S
C527 C28 1.767 . S
C538 C55 1.766 . S
C540 C114 1.671 . S
C549 C68 1.767 . S
C551 C153 1.709 . S
C560 C82 1.763 . S
C562 C225 1.759 . S
C571 C14 1.771 . S
C573 C360 1.735 . S
C584 C129 1.760 . S
C582 C40 1.762 . S
C593 C43 1.768 . S
C595 C168 1.739 . S
C604 C56 1.767 . S
C606 C210 1.669 . S
C615 C70 1.771 . S
C617 C249 1.704 . S
C626 C0 1.767 . S
C628 C321 1.756 . S
