# Generated by pormake.
# Topology pyr, (3,6)-cn, num edge types: 1
# Building blocks:
#     Node 0, Type 0, BuildingBlock: BETDAH_clean_linker_0, # of connection points: 3
#     Node 1, Type 0, BuildingBlock: BETDAH_clean_linker_0, # of connection points: 3
#     Node 2, Type 0, BuildingBlock: BETDAH_clean_linker_0, # of connection points: 3
#     Node 3, Type 0, BuildingBlock: BETDAH_clean_linker_0, # of connection points: 3
#     Node 4, Type 0, BuildingBlock: BETDAH_clean_linker_0, # of connection points: 3
#     Node 5, Type 0, BuildingBlock: BETDAH_clean_linker_0, # of connection points: 3
#     Node 6, Type 0, BuildingBlock: BETDAH_clean_linker_0, # of connection points: 3
#     Node 7, Type 0, BuildingBlock: BETDAH_clean_linker_0, # of connection points: 3
#     Node 8, Type 1, BuildingBlock: INOVEN_clean_sbu_0, # of connection points: 6
#     Node 9, Type 1, BuildingBlock: INOVEN_clean_sbu_0, # of connection points: 6
#     Node 10, Type 1, BuildingBlock: INOVEN_clean_sbu_0, # of connection points: 6
#     Node 11, Type 1, BuildingBlock: INOVEN_clean_sbu_0, # of connection points: 6
#     Edge 12, Type (0, 1), BuildingBlock: EZIPEK_clean_linker_0, # of connection points: 2
#     Edge 13, Type (0, 1), BuildingBlock: EZIPEK_clean_linker_0, # of connection points: 2
#     Edge 14, Type (0, 1), BuildingBlock: EZIPEK_clean_linker_0, # of connection points: 2
#     Edge 15, Type (0, 1), BuildingBlock: EZIPEK_clean_linker_0, # of connection points: 2
#     Edge 16, Type (0, 1), BuildingBlock: EZIPEK_clean_linker_0, # of connection points: 2
#     Edge 17, Type (0, 1), BuildingBlock: EZIPEK_clean_linker_0, # of connection points: 2
#     Edge 18, Type (0, 1), BuildingBlock: EZIPEK_clean_linker_0, # of connection points: 2
#     Edge 19, Type (0, 1), BuildingBlock: EZIPEK_clean_linker_0, # of connection points: 2
#     Edge 20, Type (0, 1), BuildingBlock: EZIPEK_clean_linker_0, # of connection points: 2
#     Edge 21, Type (0, 1), BuildingBlock: EZIPEK_clean_linker_0, # of connection points: 2
#     Edge 22, Type (0, 1), BuildingBlock: EZIPEK_clean_linker_0, # of connection points: 2
#     Edge 23, Type (0, 1), BuildingBlock: EZIPEK_clean_linker_0, # of connection points: 2
#     Edge 24, Type (0, 1), BuildingBlock: EZIPEK_clean_linker_0, # of connection points: 2
#     Edge 25, Type (0, 1), BuildingBlock: EZIPEK_clean_linker_0, # of connection points: 2
#     Edge 26, Type (0, 1), BuildingBlock: EZIPEK_clean_linker_0, # of connection points: 2
#     Edge 27, Type (0, 1), BuildingBlock: EZIPEK_clean_linker_0, # of connection points: 2
#     Edge 28, Type (0, 1), BuildingBlock: EZIPEK_clean_linker_0, # of connection points: 2
#     Edge 29, Type (0, 1), BuildingBlock: EZIPEK_clean_linker_0, # of connection points: 2
#     Edge 30, Type (0, 1), BuildingBlock: EZIPEK_clean_linker_0, # of connection points: 2
#     Edge 31, Type (0, 1), BuildingBlock: EZIPEK_clean_linker_0, # of connection points: 2
#     Edge 32, Type (0, 1), BuildingBlock: EZIPEK_clean_linker_0, # of connection points: 2
#     Edge 33, Type (0, 1), BuildingBlock: EZIPEK_clean_linker_0, # of connection points: 2
#     Edge 34, Type (0, 1), BuildingBlock: EZIPEK_clean_linker_0, # of connection points: 2
#     Edge 35, Type (0, 1), BuildingBlock: EZIPEK_clean_linker_0, # of connection points: 2
# Relax obj value: 0.206
# Max RMSD: 0.193
# Mean RMSD: 0.143
data_MOF--net-pyr--node1-INOVEN_clean_sbu_0--node2-BETDAH_clean_linker_0--edge1-EZIPEK_clean_linker_0
_symmetry_space_group_name_H-M    P1
_symmetry_Int_Tables_number       1
_symmetry_cell_setting            triclinic
loop_
_symmetry_equiv_pos_as_xyz
'x, y, z'
_cell_length_a     27.356713
_cell_length_b     30.162821
_cell_length_c     28.426064
_cell_angle_alpha  91.688916
_cell_angle_beta   89.238135
_cell_angle_gamma 109.20587
loop_
_atom_site_label
_atom_site_type_symbol
_atom_site_fract_x
_atom_site_fract_y
_atom_site_fract_z
_atom_type_partial_charge
H0 H 0.42339 0.27177 0.30471 0.0
H1 H 0.47576 0.34523 0.17649 0.0
H2 H 0.38324 0.39429 0.27541 0.0
C3 C 0.427 0.3014 0.28259 0.0
C4 C 0.40073 0.3328 0.29489 0.0
C5 C 0.45316 0.30493 0.23952 0.0
C6 C 0.45642 0.34267 0.21032 0.0
C7 C 0.43165 0.37526 0.22307 0.0
C8 C 0.40424 0.37049 0.26586 0.0
N9 N 0.43086 0.40985 0.19057 0.0
C10 C 0.38818 0.42485 0.18684 0.0
H11 H 0.26616 0.82624 0.7725 0.0
H12 H 0.15119 0.89204 0.75418 0.0
H13 H 0.16993 0.7924 0.64936 0.0
C14 C 0.23364 0.82913 0.75286 0.0
C15 C 0.21989 0.80465 0.70995 0.0
C16 C 0.20886 0.86048 0.76859 0.0
C17 C 0.16899 0.86653 0.74208 0.0
C18 C 0.15469 0.84202 0.6988 0.0
C19 C 0.17948 0.81019 0.68336 0.0
N20 N 0.11914 0.85209 0.66851 0.0
C21 C 0.10894 0.89427 0.67229 0.0
H22 H 0.7498 0.38256 0.98309 0.0
H23 H 0.73812 0.4887 0.88917 0.0
H24 H 0.61442 0.35621 0.897 0.0
C25 C 0.72811 0.39368 0.95694 0.0
C26 C 0.67893 0.36268 0.94296 0.0
C27 C 0.74901 0.43983 0.93982 0.0
C28 C 0.72217 0.4539 0.9033 0.0
C29 C 0.67398 0.42294 0.88626 0.0
C30 C 0.65246 0.37873 0.90803 0.0
N31 N 0.64369 0.43364 0.84931 0.0
C32 C 0.65242 0.47058 0.81697 0.0
H33 H 0.82919 0.79551 0.50237 0.0
H34 H 0.94864 0.83062 0.39698 0.0
H35 H 0.82981 0.69434 0.39106 0.0
C36 C 0.84707 0.78568 0.47131 0.0
C37 C 0.82367 0.74087 0.44961 0.0
C38 C 0.89203 0.81866 0.45274 0.0
C39 C 0.9143 0.80542 0.41173 0.0
C40 C 0.89351 0.76053 0.38913 0.0
C41 C 0.8475 0.72823 0.40834 0.0
N42 N 0.91977 0.7526 0.34649 0.0
C43 C 0.91746 0.71311 0.31693 0.0
H44 H 0.75647 0.81259 0.88913 0.0
H45 H 0.64741 0.76826 1.00285 0.0
H46 H 0.62239 0.85616 0.89523 0.0
C47 C 0.71973 0.81056 0.90543 0.0
C48 C 0.69016 0.83574 0.88686 0.0
C49 C 0.70445 0.78601 0.94703 0.0
C50 C 0.6582 0.78556 0.96958 0.0
C51 C 0.62858 0.81126 0.95135 0.0
C52 C 0.6442 0.83537 0.90923 0.0
N53 N 0.587 0.81725 0.97827 0.0
C54 C 0.57719 0.85969 0.97809 0.0
H55 H 0.90828 0.25676 0.38366 0.0
H56 H 0.96663 0.33696 0.51037 0.0
H57 H 0.87426 0.38357 0.41421 0.0
C58 C 0.91414 0.28823 0.40542 0.0
C59 C 0.88979 0.32049 0.39369 0.0
C60 C 0.94152 0.29384 0.44753 0.0
C61 C 0.94691 0.33338 0.47694 0.0
C62 C 0.92265 0.36594 0.46542 0.0
C63 C 0.8945 0.35959 0.42321 0.0
N64 N 0.92279 0.40201 0.49866 0.0
C65 C 0.88254 0.42055 0.50064 0.0
H66 H 0.34188 0.81398 0.17008 0.0
H67 H 0.34552 0.71266 0.27369 0.0
H68 H 0.46994 0.8451 0.26553 0.0
C69 C 0.36098 0.80401 0.19913 0.0
C70 C 0.40854 0.83577 0.21543 0.0
C71 C 0.33755 0.75954 0.21946 0.0
C72 C 0.36285 0.74655 0.25795 0.0
C73 C 0.41115 0.77732 0.27504 0.0
C74 C 0.43296 0.82154 0.25316 0.0
N75 N 0.44142 0.76621 0.31182 0.0
C76 C 0.4323 0.73048 0.34576 0.0
H77 H 0.25031 0.40032 0.6717 0.0
H78 H 0.24997 0.50689 0.77739 0.0
H79 H 0.12685 0.37312 0.77284 0.0
C80 C 0.23216 0.41201 0.70151 0.0
C81 C 0.18556 0.38097 0.71966 0.0
C82 C 0.25592 0.45777 0.72117 0.0
C83 C 0.23191 0.47249 0.76126 0.0
C84 C 0.18476 0.44177 0.78039 0.0
C85 C 0.16264 0.3967 0.75868 0.0
N86 N 0.15728 0.45176 0.8213 0.0
C87 C 0.16244 0.4909 0.8522 0.0
Gd88 Gd 0.07914 0.10707 0.55822 0.0
Gd89 Gd 0.98698 0.09651 0.61502 0.0
C90 C 0.08549 0.1907 0.63228 0.0
C91 C 0.14948 0.1171 0.49399 0.0
C92 C 0.19106 0.15688 0.47562 0.0
C93 C 0.22059 0.14941 0.43762 0.0
C94 C 0.19929 0.20266 0.4936 0.0
C95 C 0.26337 0.23344 0.4329 0.0
C96 C 0.23527 0.24096 0.47213 0.0
C97 C 0.25666 0.18752 0.4164 0.0
C98 C 0.08035 0.06643 0.64283 0.0
C99 C 0.98395 1.00892 0.54203 0.0
C100 C 0.90772 0.07458 0.67047 0.0
C101 C 0.87241 1.03381 0.69473 0.0
C102 C 0.82001 1.01595 0.68165 0.0
C103 C 0.88938 1.01491 0.73344 0.0
C104 C 0.80207 0.96276 0.74671 0.0
C105 C 0.85452 0.97945 0.75896 0.0
C106 C 0.78495 0.98062 0.70758 0.0
C107 C 0.99847 0.15851 0.5456 0.0
O108 O 0.09981 0.18144 0.58949 0.0
O109 O 0.04786 0.15778 0.65389 0.0
O110 O 0.15509 0.10597 0.53707 0.0
O111 O 0.1027 0.11696 0.48532 0.0
O112 O 0.11931 0.09867 0.62466 0.0
O113 O 0.04276 0.05878 0.61532 0.0
O114 O 0.95815 1.02582 0.57389 0.0
O115 O 0.03217 1.03373 0.5307 0.0
O116 O 0.9038 0.07493 0.62461 0.0
O117 O 0.95566 0.09093 0.68539 0.0
O118 O 0.98151 0.16306 0.58732 0.0
O119 O 1.00628 0.11971 0.54145 0.0
H120 H 0.21458 0.11428 0.42345 0.0
H121 H 0.17682 0.20883 0.52317 0.0
H122 H 0.23984 0.27628 0.4849 0.0
H123 H 0.27798 0.18138 0.38589 0.0
H124 H 0.80587 1.03039 0.65235 0.0
H125 H 0.92919 1.02839 0.7451 0.0
H126 H 0.86806 0.96627 0.7895 0.0
H127 H 0.74435 0.96839 0.69819 0.0
Gd128 Gd 0.58772 0.10162 0.10186 0.0
Gd129 Gd 0.49841 0.09889 0.05821 0.0
C130 C 0.51916 0.16003 0.14996 0.0
C131 C 0.6759 0.1221 0.14451 0.0
C132 C 0.70696 0.15961 0.17612 0.0
C133 C 0.74796 0.1531 0.20067 0.0
C134 C 0.69468 0.20093 0.18369 0.0
C135 C 0.76313 0.22821 0.24126 0.0
C136 C 0.72316 0.23549 0.21562 0.0
C137 C 0.77581 0.18718 0.23326 0.0
C138 C 0.51236 1.01727 0.12087 0.0
C139 C 0.56479 1.04001 1.00974 0.0
C140 C 0.41053 0.08193 1.01598 0.0
C141 C 0.37349 0.04512 0.98794 0.0
C142 C 0.33345 0.0555 0.96552 0.0
C143 C 0.37971 1.00112 0.98054 0.0
C144 C 0.3092 0.98 0.92461 0.0
C145 C 0.34769 0.96863 0.94875 0.0
C146 C 0.30127 1.02299 0.93402 0.0
C147 C 0.57666 0.18192 0.03805 0.0
O148 O 0.5656 0.15623 0.14597 0.0
O149 O 0.48196 0.13461 0.12251 0.0
O150 O 0.6324 0.09512 0.162 0.0
O151 O 0.67113 0.13392 0.10148 0.0
O152 O 0.5597 1.02276 0.10897 0.0
O153 O 0.50578 0.05745 0.12103 0.0
O154 O 0.51773 1.04113 1.01783 0.0
O155 O 0.60288 0.06752 0.03532 0.0
O156 O 0.45522 0.10208 0.99599 0.0
O157 O 0.41461 0.07308 0.06011 0.0
O158 O 0.52965 0.17795 0.04956 0.0
O159 O 0.58065 0.141 0.0381 0.0
H160 H 0.75768 0.12126 0.19535 0.0
H161 H 0.6625 0.20601 0.1658 0.0
H162 H 0.7129 0.26696 0.22167 0.0
H163 H 0.80667 0.18125 0.2529 0.0
H164 H 0.32834 0.08941 0.97106 0.0
H165 H 0.41034 0.99267 0.99803 0.0
H166 H 0.35426 0.93558 0.94147 0.0
H167 H 0.27187 1.03218 0.91528 0.0
Gd168 Gd 0.53637 0.55903 0.55624 0.0
Gd169 Gd 0.54152 0.63912 0.60876 0.0
C170 C 0.58858 0.56508 0.65907 0.0
C171 C 0.55638 0.50221 0.49533 0.0
C172 C 0.60461 0.49091 0.4916 0.0
C173 C 0.60491 0.44757 0.47265 0.0
C174 C 0.65041 0.52278 0.51052 0.0
C175 C 0.69612 0.46805 0.49212 0.0
C176 C 0.69588 0.51152 0.51057 0.0
C177 C 0.65058 0.43615 0.47292 0.0
C178 C 0.45043 0.5409 0.61377 0.0
C179 C 0.49086 0.63544 0.50713 0.0
C180 C 0.523 0.69595 0.67023 0.0
C181 C 0.47516 0.70752 0.67478 0.0
C182 C 0.47375 0.74719 0.70079 0.0
C183 C 0.43057 0.67909 0.65107 0.0
C184 C 0.38365 0.73009 0.67888 0.0
C185 C 0.38509 0.69032 0.65305 0.0
C186 C 0.42807 0.75845 0.70285 0.0
C187 C 0.62703 0.65555 0.55115 0.0
O188 O 0.58136 0.54319 0.61738 0.0
O189 O 0.57624 0.60389 0.66392 0.0
O190 O 0.5292 0.48778 0.5333 0.0
O191 O 0.56088 0.54551 0.48605 0.0
O192 O 0.47366 0.51128 0.60166 0.0
O193 O 0.47111 0.57841 0.59102 0.0
O194 O 0.49224 0.65282 0.55046 0.0
O195 O 0.50826 0.59952 0.50005 0.0
O196 O 0.54969 0.71041 0.63192 0.0
O197 O 0.5178 0.65239 0.67916 0.0
O198 O 0.60269 0.68497 0.56048 0.0
O199 O 0.6066 0.61891 0.57508 0.0
H200 H 0.5698 0.4224 0.45847 0.0
H201 H 0.65081 0.55613 0.52605 0.0
H202 H 0.73065 0.53634 0.52573 0.0
H203 H 0.65033 0.40235 0.45874 0.0
H204 H 0.50791 0.76957 0.71899 0.0
H205 H 0.43112 0.64839 0.63063 0.0
H206 H 0.35122 0.66831 0.63419 0.0
H207 H 0.42742 0.78947 0.72269 0.0
Gd208 Gd 0.03536 0.56093 0.1093 0.0
Gd209 Gd 0.0435 0.64168 0.0596 0.0
C210 C 0.14037 0.65226 0.12449 0.0
C211 C 0.0544 0.49084 0.1463 0.0
C212 C 0.1026 0.48012 0.15507 0.0
C213 C 0.13014 0.49467 0.19739 0.0
C214 C 0.12228 0.45616 0.12046 0.0
C215 C 0.19681 0.46342 0.16924 0.0
C216 C 0.16911 0.44823 0.12735 0.0
C217 C 0.17685 0.4863 0.20443 0.0
C218 C 0.98326 0.61339 0.15706 0.0
C219 C 0.93998 0.5493 0.04212 0.0
C220 C 1.02322 0.71201 1.02443 0.0
C221 C 0.97375 0.71981 1.01613 0.0
C222 C 0.97077 0.75309 0.98391 0.0
C223 C 0.9289 0.69353 0.04029 0.0
C224 C 0.87876 0.7339 1.00044 0.0
C225 C 0.88169 0.70049 1.03252 0.0
C226 C 0.9235 0.76018 0.97618 0.0
C227 C 0.0959 0.58955 1.0121 0.0
O228 O 0.11955 0.60596 0.12567 0.0
O229 O 0.11589 0.67645 0.10233 0.0
O230 O 0.04709 0.52516 0.17123 0.0
O231 O 0.04156 0.4913 0.10232 0.0
O232 O 0.96685 0.56799 0.15168 0.0
O233 O 0.02697 0.62886 0.1363 0.0
O234 O 0.96051 0.59553 0.04071 0.0
O235 O 0.96394 0.52541 0.06534 0.0
O236 O 0.0319 0.67892 0.99862 0.0
O237 O 0.03488 0.71026 0.06852 0.0
O238 O 0.112 0.63505 1.01706 0.0
O239 O 0.05211 0.57386 1.03267 0.0
H240 H 0.11585 0.51284 0.22492 0.0
H241 H 0.10185 0.44402 0.08769 0.0
H242 H 0.18382 0.4302 0.09998 0.0
H243 H 0.19759 0.49788 0.23714 0.0
H244 H 1.00494 0.77359 0.96491 0.0
H245 H 0.93053 0.6678 0.06533 0.0
H246 H 0.84757 0.68011 0.05167 0.0
H247 H 0.92176 0.78621 0.95138 0.0
C248 C 0.3096 0.30038 0.32459 0.0
C249 C 0.3633 0.32082 0.33435 0.0
C250 C 0.34872 0.29464 0.41552 0.0
C251 C 0.29565 0.27289 0.40486 0.0
N252 N 0.22283 0.26872 0.35638 0.0
N253 N 0.43177 0.34904 0.39112 0.0
C254 C 0.2752 0.28103 0.36186 0.0
C255 C 0.38204 0.32212 0.3808 0.0
N256 N 0.29193 0.29543 0.27932 0.0
N257 N 0.36746 0.28689 0.45768 0.0
H258 H 0.4566 0.36944 0.36595 0.0
H259 H 0.44681 0.35439 0.42507 0.0
H260 H 0.3434 0.26814 0.4842 0.0
H261 H 0.40673 0.29727 0.4656 0.0
H262 H 0.2541 0.27599 0.26995 0.0
H263 H 0.31587 0.30711 0.25037 0.0
H264 H 0.2057 0.27754 0.32717 0.0
H265 H 0.19681 0.25394 0.38335 0.0
C266 C 0.21213 0.88086 0.85489 0.0
C267 C 0.23111 0.89265 0.80863 0.0
C268 C 0.30086 0.96085 0.83887 0.0
C269 C 0.28171 0.94971 0.88509 0.0
N270 N 0.21615 0.90389 0.93787 0.0
N271 N 0.29279 0.94592 0.75634 0.0
C272 C 0.23641 0.91097 0.8934 0.0
C273 C 0.27462 0.93312 0.80053 0.0
N274 N 0.17213 0.84012 0.86188 0.0
N275 N 0.34469 0.99816 0.83112 0.0
H276 H 0.27618 0.92809 0.72543 0.0
H277 H 0.27618 0.92809 0.72543 0.0
H278 H 0.36644 1.01956 0.85808 0.0
H279 H 0.35973 1.00725 0.79747 0.0
H280 H 0.15976 0.82663 0.89485 0.0
H281 H 0.15266 0.81817 0.83422 0.0
H282 H 0.18055 0.87922 0.94592 0.0
H283 H 0.23371 0.92491 0.96681 0.0
C284 C 0.61372 0.5302 0.78705 0.0
C285 C 0.64373 0.5003 0.77823 0.0
C286 C 0.64728 0.52159 0.69379 0.0
C287 C 0.61002 0.54529 0.70109 0.0
N288 N 0.5523 0.56488 0.75769 0.0
N289 N 0.68517 0.46416 0.72103 0.0
C290 C 0.59227 0.5481 0.74866 0.0
C291 C 0.65931 0.4951 0.73093 0.0
N292 N 0.60559 0.54187 0.83259 0.0
N293 N 0.67374 0.52637 0.65211 0.0
H294 H 0.69653 0.44602 0.74715 0.0
H295 H 0.69213 0.45421 0.68685 0.0
H296 H 0.66967 0.54812 0.62571 0.0
H297 H 0.70429 0.51351 0.64595 0.0
H298 H 0.58937 0.56772 0.84178 0.0
H299 H 0.61998 0.52914 0.86119 0.0
H300 H 0.53383 0.56221 0.79028 0.0
H301 H 0.53331 0.57689 0.73219 0.0
C302 C 0.9038 0.67524 0.23433 0.0
C303 C 0.93049 0.68346 0.27817 0.0
C304 C 0.99305 0.64742 0.24249 0.0
C305 C 0.96552 0.6381 0.19891 0.0
N306 N 0.88846 0.63522 0.15735 0.0
N307 N 0.99642 0.67107 0.32582 0.0
C308 C 0.91903 0.64969 0.1962 0.0
C309 C 0.97397 0.66768 0.28259 0.0
N310 N 0.86449 0.69313 0.22853 0.0
N311 N 0.03776 0.63684 0.24571 0.0
H312 H 0.98373 0.68566 0.35534 0.0
H313 H 1.02479 0.65646 0.33365 0.0
H314 H 0.05088 0.61911 0.21901 0.0
H315 H 0.06352 0.64763 0.27364 0.0
H316 H 0.84737 0.69389 0.19621 0.0
H317 H 0.85101 0.71 0.25582 0.0
H318 H 0.85153 0.63766 0.15465 0.0
H319 H 0.89846 0.6173 0.12892 0.0
C320 C 0.52574 0.27707 0.21106 0.0
C321 C 0.47285 0.26661 0.22298 0.0
C322 C 0.4588 0.18371 0.20383 0.0
C323 C 0.50811 0.19585 0.18188 0.0
N324 N 0.58576 0.25807 0.15849 0.0
N325 N 0.38624 0.20979 0.2222 0.0
C326 C 0.5414 0.2435 0.18443 0.0
C327 C 0.43851 0.21976 0.2175 0.0
N328 N 0.56103 0.31901 0.22495 0.0
N329 N 0.43135 0.13774 0.2117 0.0
H330 H 0.36892 0.23539 0.22887 0.0
H331 H 0.35976 0.17672 0.21423 0.0
H332 H 0.44622 0.11062 0.20386 0.0
H333 H 0.39689 0.12744 0.2309 0.0
H334 H 0.60083 0.32648 0.22069 0.0
H335 H 0.55089 0.34415 0.24511 0.0
H336 H 0.60823 0.29328 0.1556 0.0
H337 H 0.59694 0.23582 0.13573 0.0
C338 C 0.14495 0.98122 0.6793 0.0
C339 C 0.10134 0.93955 0.67709 0.0
C340 C 0.04338 0.98625 0.67665 0.0
C341 C 0.08695 1.02699 0.66984 0.0
N342 N 0.17611 0.06628 0.68937 0.0
N343 N 1.00899 0.90106 0.67799 0.0
C344 C 0.13704 1.02552 0.67902 0.0
C345 C 0.0504 0.94168 0.67814 0.0
N346 N 0.19382 0.97841 0.67932 0.0
N347 N 0.99574 0.99087 0.68268 0.0
H348 H 1.01298 0.868 0.68067 0.0
H349 H 0.97088 0.89966 0.67312 0.0
H350 H 0.99121 1.0238 0.6846 0.0
H351 H 0.96223 0.96343 0.69058 0.0
H352 H 0.22721 1.00729 0.67568 0.0
H353 H 0.20099 0.94656 0.68024 0.0
H354 H 0.213 0.06767 0.69955 0.0
H355 H 0.16938 0.09828 0.69353 0.0
C356 C 0.84715 0.48428 0.9413 0.0
C357 C 0.79772 0.4731 0.96347 0.0
C358 C 0.8415 0.5107 0.03758 0.0
C359 C 0.89067 0.5238 1.01488 0.0
N360 N 0.93933 0.52912 0.94285 0.0
N361 N 0.74763 0.48443 1.03019 0.0
C362 C 0.89303 0.51253 0.96597 0.0
C363 C 0.79502 0.48898 1.01091 0.0
N364 N 0.8506 0.46612 0.89727 0.0
N365 N 0.8392 0.5179 0.08511 0.0
H366 H 0.71317 0.46958 1.01165 0.0
H367 H 0.74257 0.49922 0.06266 0.0
H368 H 0.87202 0.53412 0.10542 0.0
H369 H 0.80555 0.50465 0.10498 0.0
H370 H 0.88548 0.46794 0.88098 0.0
H371 H 0.81818 0.44629 0.87804 0.0
H372 H 0.94324 0.52699 0.90646 0.0
H373 H 0.97368 0.54811 0.95987 0.0
C374 C 0.77086 0.68258 0.51028 0.0
C375 C 0.7721 0.70987 0.46991 0.0
C376 C 0.67677 0.6895 0.47684 0.0
C377 C 0.67648 0.66842 0.52122 0.0
N378 N 0.72571 0.64778 0.58157 0.0
N379 N 0.72564 0.74192 0.41667 0.0
C380 C 0.72411 0.66502 0.53794 0.0
C381 C 0.72473 0.71363 0.45358 0.0
N382 N 0.8147 0.6734 0.52217 0.0
N383 N 0.63071 0.68517 0.45588 0.0
H384 H 0.75919 0.75847 0.39755 0.0
H385 H 0.69397 0.75142 0.4069 0.0
H386 H 0.59512 0.66668 0.4708 0.0
H387 H 0.62765 0.6954 0.42169 0.0
H388 H 0.81578 0.64995 0.54796 0.0
H389 H 0.84912 0.68611 0.50307 0.0
H390 H 0.75986 0.64915 0.5982 0.0
H391 H 0.69319 0.6351 0.60296 0.0
C392 C 0.29282 0.39761 0.18021 0.0
C393 C 0.34024 0.43526 0.18317 0.0
C394 C 0.29414 0.49185 0.1752 0.0
C395 C 0.24635 0.45429 0.17625 0.0
N396 N 0.1997 0.37261 0.18977 0.0
N397 N 0.38651 0.51822 0.19067 0.0
C398 C 0.24554 0.40746 0.1817 0.0
C399 C 0.34106 0.48246 0.18296 0.0
N400 N 0.29291 0.35247 0.17451 0.0
N401 N 0.29487 0.53604 0.16483 0.0
H402 H 0.42172 0.51249 0.19528 0.0
H403 H 0.38871 0.55313 0.19601 0.0
H404 H 0.26139 0.54429 0.15868 0.0
H405 H 0.32876 0.56372 0.15856 0.0
H406 H 0.2597 0.32404 0.16726 0.0
H407 H 0.32682 0.34382 0.173 0.0
H408 H 0.19733 0.3388 0.19901 0.0
H409 H 0.16426 0.3786 0.1917 0.0
C410 C 0.62982 0.27223 0.93865 0.0
C411 C 0.65511 0.31421 0.96583 0.0
C412 C 0.64512 0.26303 1.03452 0.0
C413 C 0.61018 0.224 1.01033 0.0
N414 N 0.56665 0.19329 0.93749 0.0
N415 N 0.67251 0.3472 0.04521 0.0
C416 C 0.60159 0.22925 0.96181 0.0
C417 C 0.65901 0.3089 1.01536 0.0
N418 N 0.63524 0.27214 0.89087 0.0
N419 N 0.66697 0.25623 0.07516 0.0
H420 H 0.67682 0.38091 1.03415 0.0
H421 H 0.67247 0.34424 0.08169 0.0
H422 H 0.66042 0.22249 0.08742 0.0
H423 H 0.69552 0.28307 0.09285 0.0
H424 H 0.62123 0.24179 0.86981 0.0
H425 H 0.65918 0.30094 0.87295 0.0
H426 H 0.55459 0.19679 0.90358 0.0
H427 H 0.54767 0.16092 0.95245 0.0
C428 C 0.96184 0.87906 0.50278 0.0
C429 C 0.91538 0.86754 0.47599 0.0
C430 C 0.91453 0.94912 0.49127 0.0
C431 C 0.95947 0.95982 0.52001 0.0
N432 N 1.0216 0.93234 0.55837 0.0
N433 N 0.8446 0.89071 0.44868 0.0
C434 C 0.98204 0.92405 0.52688 0.0
C435 C 0.89088 0.90236 0.47164 0.0
N436 N 0.98707 0.84687 0.50505 0.0
N437 N 0.89586 0.98446 0.48061 0.0
H438 H 0.82795 0.85853 0.43106 0.0
H439 H 0.82108 0.91171 0.44921 0.0
H440 H 0.91189 1.01871 0.49399 0.0
H441 H 0.86716 0.98107 0.45579 0.0
H442 H 1.02421 0.85448 0.51848 0.0
H443 H 0.97206 0.81283 0.49092 0.0
H444 H 0.03618 0.90667 0.56964 0.0
H445 H 0.03749 0.96437 0.57638 0.0
C446 C 0.29578 0.80206 0.66141 0.0
C447 C 0.25369 0.77877 0.69123 0.0
C448 C 0.29374 0.71958 0.70861 0.0
C449 C 0.3362 0.74339 0.67942 0.0
N450 N 0.37135 0.79851 0.61805 0.0
N451 N 0.20567 0.71021 0.73361 0.0
C452 C 0.33503 0.78175 0.65242 0.0
C453 C 0.25033 0.73552 0.71143 0.0
N454 N 0.29996 0.84499 0.64411 0.0
N455 N 0.29612 0.68343 0.73539 0.0
H456 H 0.17349 0.72151 0.73595 0.0
H457 H 0.19877 0.67647 0.74578 0.0
H458 H 0.32713 0.67055 0.73393 0.0
H459 H 0.26902 0.66803 0.76121 0.0
H460 H 0.33306 0.86641 0.62743 0.0
H461 H 0.27149 0.86072 0.64889 0.0
H462 H 0.36956 0.82336 0.59406 0.0
H463 H 0.40078 0.78439 0.61069 0.0
C464 C 0.73357 0.91734 0.85944 0.0
C465 C 0.7121 0.86859 0.84851 0.0
C466 C 0.74522 0.88168 0.76789 0.0
C467 C 0.76494 0.93052 0.77867 0.0
N468 N 0.76561 0.99601 0.82964 0.0
N469 N 0.68789 0.8051 0.79083 0.0
C470 C 0.75479 0.9487 0.82281 0.0
C471 C 0.71475 0.85097 0.80209 0.0
N472 N 0.73689 0.93344 0.90517 0.0
N473 N 0.75746 0.86458 0.72592 0.0
H474 H 0.66543 0.78184 0.81535 0.0
H475 H 0.68433 0.79118 0.7566 0.0
H476 H 0.77879 0.88629 0.69976 0.0
H477 H 0.7492 0.82893 0.71813 0.0
H478 H 0.75699 0.96802 0.91545 0.0
H479 H 0.72406 0.91141 0.93352 0.0
H480 H 0.7543 1.01085 0.85966 0.0
H481 H 0.78124 1.02007 0.80331 0.0
C482 C 0.87171 0.31845 0.30782 0.0
C483 C 0.85283 0.30839 0.35422 0.0
C484 C 0.76874 0.25842 0.32427 0.0
C485 C 0.79064 0.26206 0.27847 0.0
N486 N 0.8604 0.29714 0.2246 0.0
N487 N 0.7837 0.27129 0.40821 0.0
C488 C 0.84121 0.29325 0.26951 0.0
C489 C 0.80096 0.27993 0.36289 0.0
N490 N 0.91886 0.35187 0.30088 0.0
N491 N 0.71741 0.23382 0.33075 0.0
H492 H 0.80533 0.28824 0.43735 0.0
H493 H 0.74894 0.246 0.41738 0.0
H494 H 0.69309 0.21597 0.3035 0.0
H495 H 0.69772 0.23375 0.36232 0.0
H496 H 0.9338 0.36367 0.26799 0.0
H497 H 0.94161 0.37064 0.32874 0.0
H498 H 0.89875 0.31511 0.21593 0.0
H499 H 0.83789 0.28085 0.19563 0.0
C500 C 0.42864 0.65497 0.38827 0.0
C501 C 0.44176 0.7048 0.38783 0.0
C502 C 0.48966 0.70905 0.46269 0.0
C503 C 0.473 0.65894 0.4658 0.0
N504 N 0.4171 0.5849 0.43394 0.0
N505 N 0.47539 0.77799 0.43144 0.0
C506 C 0.43996 0.63214 0.42904 0.0
C507 C 0.46909 0.73118 0.42728 0.0
N508 N 0.40586 0.62922 0.34939 0.0
N509 N 0.52825 0.73619 0.4914 0.0
H510 H 0.4616 0.79565 0.40654 0.0
H511 H 0.48958 0.79812 0.46178 0.0
H512 H 0.54707 0.7224 0.51561 0.0
H513 H 0.54602 0.77215 0.48731 0.0
H514 H 0.40046 0.59355 0.34473 0.0
H515 H 0.39554 0.6445 0.3203 0.0
H516 H 0.38892 0.56392 0.41111 0.0
H517 H 0.42242 0.56739 0.4635 0.0
C518 C 0.16716 0.51759 0.93849 0.0
C519 C 0.15024 0.52018 0.89168 0.0
C520 C 0.09975 0.57005 0.92325 0.0
C521 C 0.11345 0.56446 0.97055 0.0
N522 N 0.15674 0.52883 1.02315 0.0
N523 N 0.09594 0.54537 0.84038 0.0
C524 C 0.14631 0.5371 0.97798 0.0
C525 C 0.1155 0.54569 0.88445 0.0
N526 N 0.20404 0.49692 0.94512 0.0
N527 N 0.07199 0.59932 0.91513 0.0
H528 H 0.10819 0.53008 0.81111 0.0
H529 H 0.06558 0.55769 0.8331 0.0
H530 H 0.05718 0.61535 0.94211 0.0
H531 H 0.066 0.60993 0.88182 0.0
H532 H 0.22227 0.49734 0.97709 0.0
H533 H 0.21954 0.48231 0.91738 0.0
H534 H 0.17613 0.50584 1.032 0.0
H535 H 0.1427 0.54268 0.05237 0.0
C536 C 0.62169 0.94523 0.9875 0.0
C537 C 0.57604 0.90741 0.9764 0.0
C538 C 0.52998 0.96328 0.96318 0.0
C539 C 0.57277 0.99954 0.98253 0.0
N540 N 0.66572 1.0291 0.98409 0.0
N541 N 0.48749 0.87933 0.95009 0.0
C542 C 0.62088 0.99187 0.98564 0.0
C543 C 0.53055 0.91614 0.96227 0.0
N544 N 0.66508 0.93669 1.00211 0.0
N545 N 0.49056 0.97463 0.94354 0.0
H546 H 0.48732 0.84467 0.94809 0.0
H547 H 0.45138 0.88265 0.94438 0.0
H548 H 0.49264 1.00953 0.93979 0.0
H549 H 0.45926 0.95059 0.92625 0.0
H550 H 0.69746 0.96288 1.01556 0.0
H551 H 0.66744 0.90297 1.00405 0.0
H552 H 0.70229 1.02548 0.98247 0.0
H553 H 0.66568 0.063 0.97771 0.0
C554 C 1.00854 0.2553 0.46158 0.0
C555 C 0.95632 0.25413 0.46456 0.0
C556 C 0.9317 0.17742 0.501 0.0
C557 C 0.98464 0.18319 0.50654 0.0
N558 N 0.07391 0.22339 0.48838 0.0
N559 N 0.8677 0.21515 0.48864 0.0
C560 C 1.02326 0.22051 0.48486 0.0
C561 C 0.9175 0.21505 0.48394 0.0
N562 N 0.0436 0.28954 0.43649 0.0
N563 N 0.89526 0.13585 0.51259 0.0
H564 H 0.85547 0.24225 0.47714 0.0
H565 H 0.8392 0.1901 0.50727 0.0
H566 H 0.90532 0.10768 0.52471 0.0
H567 H 0.85594 0.12761 0.50566 0.0
H568 H 0.08139 0.29048 0.42973 0.0
H569 H 0.0337 0.31561 0.41957 0.0
H570 H 0.10501 0.25223 0.47837 0.0
H571 H 0.08458 0.19655 0.50271 0.0
C572 C 0.28357 0.69032 0.16697 0.0
C573 C 0.28579 0.72787 0.19947 0.0
C574 C 0.19176 0.71202 0.18668 0.0
C575 C 0.19063 0.67766 0.15072 0.0
N576 N 0.23743 0.63742 0.10351 0.0
N577 N 0.24217 0.77655 0.23786 0.0
C578 C 0.23702 0.66735 0.14048 0.0
C579 C 0.2398 0.73912 0.20858 0.0
N580 N 0.32625 0.67668 0.1612 0.0
N581 N 0.14628 0.7174 0.20165 0.0
H582 H 0.27506 0.7949 0.25727 0.0
H583 H 0.21261 0.79109 0.24107 0.0
H584 H 0.11052 0.69863 0.18695 0.0
H585 H 0.1431 0.73736 0.23131 0.0
H586 H 0.32628 0.64666 0.14224 0.0
H587 H 0.36119 0.69367 0.17828 0.0
H588 H 0.27064 0.63161 0.09065 0.0
H589 H 0.20494 0.62099 0.08289 0.0
C590 C 0.31017 0.51994 0.66391 0.0
C591 C 0.30786 0.48747 0.70004 0.0
C592 C 0.40131 0.50023 0.68624 0.0
C593 C 0.40207 0.52743 0.64562 0.0
N594 N 0.35374 0.55966 0.59398 0.0
N595 N 0.35158 0.44491 0.74386 0.0
C596 C 0.35575 0.53703 0.63446 0.0
C597 C 0.35373 0.4775 0.71077 0.0
N598 N 0.26845 0.53443 0.6576 0.0
N599 N 0.4468 0.49719 0.70267 0.0
H600 H 0.31899 0.43001 0.76478 0.0
H601 H 0.3809 0.43059 0.74878 0.0
H602 H 0.48238 0.51317 0.68656 0.0
H603 H 0.45027 0.48289 0.73483 0.0
H604 H 0.2689 0.5617 0.6358 0.0
H605 H 0.23464 0.52185 0.67755 0.0
H606 H 0.31988 0.5631 0.58085 0.0
H607 H 0.38509 0.57204 0.57123 0.0
C608 C 0.77821 0.79547 1.002 0.0
C609 C 0.74171 0.76685 0.9693 0.0
C610 C 0.79236 0.71349 0.96054 0.0
C611 C 0.82906 0.74239 0.99289 0.0
N612 N 0.85125 0.80364 0.05299 0.0
N613 N 0.70709 0.69412 0.92531 0.0
C614 C 0.82 0.78103 1.0165 0.0
C615 C 0.74652 0.72418 0.95128 0.0
N616 N 0.77457 0.83775 1.01714 0.0
N617 N 0.80247 0.67711 0.93726 0.0
H618 H 0.67323 0.70141 0.91813 0.0
H619 H 0.70579 0.66053 0.91435 0.0
H620 H 0.83511 0.6677 0.94395 0.0
H621 H 0.78029 0.65788 0.90947 0.0
H622 H 0.80352 0.86292 0.03603 0.0
H623 H 0.74381 0.84912 1.00843 0.0
H624 H 0.84359 0.82891 0.07483 0.0
H625 H 0.88263 0.79428 0.06411 0.0
C626 C 0.45109 0.88455 0.14398 0.0
C627 C 0.43332 0.88315 0.19144 0.0
C628 C 0.46468 0.97096 0.19324 0.0
C629 C 0.479 0.97207 0.14466 0.0
N630 N 0.47354 0.92805 0.07188 0.0
N631 N 0.41479 0.92615 0.25813 0.0
C632 C 0.46856 0.92821 0.11969 0.0
C633 C 0.43772 0.92677 0.21508 0.0
N634 N 0.45342 0.84424 0.12232 0.0
N635 N 0.4789 1.01181 0.21949 0.0
H636 H 0.3951 0.89506 0.27504 0.0
H637 H 0.41137 0.95606 0.27512 0.0
H638 H 0.49808 1.04445 0.20531 0.0
H639 H 0.47525 1.01298 0.25597 0.0
H640 H 0.47139 0.84365 0.08987 0.0
H641 H 0.44192 0.81192 0.13872 0.0
H642 H 0.46151 0.89761 0.0508 0.0
H643 H 0.48401 0.95882 0.05298 0.0
C644 C 0.13464 0.32658 0.65318 0.0
C645 C 0.16017 0.33196 0.69737 0.0
C646 C 0.13929 0.24497 0.69801 0.0
C647 C 0.11082 0.2394 0.65533 0.0
N648 N 0.07509 0.27562 0.59645 0.0
N649 N 0.1832 0.29542 0.76389 0.0
C650 C 0.10727 0.28054 0.63395 0.0
C651 C 0.16119 0.29078 0.72036 0.0
N652 N 0.1365 0.36574 0.6292 0.0
N653 N 0.14769 0.20661 0.71609 0.0
H654 H 0.20266 0.32795 0.77981 0.0
H655 H 0.17985 0.26729 0.78547 0.0
H656 H 0.13262 0.17299 0.70094 0.0
H657 H 0.17271 0.20832 0.74385 0.0
H658 H 0.12546 0.36491 0.59419 0.0
H659 H 0.15215 0.39974 0.64326 0.0
H660 H 0.06543 0.30306 0.5823 0.0
H661 H 0.05409 0.24311 0.58192 0.0
C662 C 0.79766 0.41747 0.53445 0.0
C663 C 0.83676 0.43463 0.49999 0.0
C664 C 0.78202 0.47045 0.45834 0.0
C665 C 0.74416 0.45573 0.49433 0.0
N666 N 0.71825 0.42174 0.57022 0.0
N667 N 0.87052 0.48254 0.43304 0.0
C668 C 0.75262 0.43106 0.53347 0.0
C669 C 0.83024 0.46268 0.46305 0.0
N670 N 0.80297 0.38718 0.56734 0.0
N671 N 0.77126 0.49082 0.41918 0.0
H672 H 0.90612 0.47701 0.43524 0.0
H673 H 0.87027 0.50721 0.4083 0.0
H674 H 0.73668 0.49779 0.415 0.0
H675 H 0.79475 0.49778 0.38936 0.0
H676 H 0.77333 0.36907 0.58993 0.0
H677 H 0.83618 0.37765 0.57008 0.0
H678 H 0.72512 0.40878 0.60211 0.0
H679 H 0.68417 0.43013 0.57026 0.0
loop_
_geom_bond_atom_site_label_1
_geom_bond_atom_site_label_2
_geom_bond_distance
_geom_bond_site_symmetry_2
_ccdc_geom_bond_type
H0 C3 0.929 . S
H1 C6 0.929 . S
H2 C8 0.930 . S
C3 H0 0.929 . S
C3 C4 1.398 . S
C3 C5 1.396 . S
C4 C3 1.398 . S
C4 C8 1.407 . S
C5 C3 1.396 . S
C5 C6 1.394 . S
C6 H1 0.929 . S
C6 C5 1.394 . S
C6 C7 1.382 . S
C7 C6 1.382 . S
C7 C8 1.392 . S
C7 N9 1.420 . S
C8 H2 0.930 . S
C8 C4 1.407 . S
C8 C7 1.392 . S
N9 C7 1.420 . S
N9 C10 1.244 . S
C10 N9 1.244 . S
H11 C14 0.929 . S
H12 C17 0.929 . S
H13 C19 0.930 . S
C14 H11 0.929 . S
C14 C15 1.398 . S
C14 C16 1.396 . S
C15 C14 1.398 . S
C15 C19 1.407 . S
C16 C14 1.396 . S
C16 C17 1.394 . S
C17 H12 0.929 . S
C17 C16 1.394 . S
C17 C18 1.382 . S
C18 C17 1.382 . S
C18 C19 1.392 . S
C18 N20 1.420 . S
C19 H13 0.930 . S
C19 C15 1.407 . S
C19 C18 1.392 . S
N20 C18 1.420 . S
N20 C21 1.244 . S
C21 N20 1.244 . S
H22 C25 0.929 . S
H23 C28 0.929 . S
H24 C30 0.930 . S
C25 H22 0.929 . S
C25 C26 1.398 . S
C25 C27 1.396 . S
C26 C25 1.398 . S
C26 C30 1.407 . S
C27 C25 1.396 . S
C27 C28 1.394 . S
C28 H23 0.929 . S
C28 C27 1.394 . S
C28 C29 1.382 . S
C29 C28 1.382 . S
C29 C30 1.392 . S
C29 N31 1.420 . S
C30 H24 0.930 . S
C30 C26 1.407 . S
C30 C29 1.392 . S
N31 C29 1.420 . S
N31 C32 1.244 . S
C32 N31 1.244 . S
H33 C36 0.929 . S
H34 C39 0.929 . S
H35 C41 0.930 . S
C36 H33 0.929 . S
C36 C37 1.398 . S
C36 C38 1.396 . S
C37 C36 1.398 . S
C37 C41 1.407 . S
C38 C36 1.396 . S
C38 C39 1.394 . S
C39 H34 0.929 . S
C39 C38 1.394 . S
C39 C40 1.382 . S
C40 C39 1.382 . S
C40 C41 1.392 . S
C40 N42 1.420 . S
C41 H35 0.930 . S
C41 C37 1.407 . S
C41 C40 1.392 . S
N42 C40 1.420 . S
N42 C43 1.244 . S
C43 N42 1.244 . S
H44 C47 0.929 . S
H45 C50 0.929 . S
H46 C52 0.930 . S
C47 H44 0.929 . S
C47 C48 1.398 . S
C47 C49 1.396 . S
C48 C47 1.398 . S
C48 C52 1.407 . S
C49 C47 1.396 . S
C49 C50 1.394 . S
C50 H45 0.929 . S
C50 C49 1.394 . S
C50 C51 1.382 . S
C51 C50 1.382 . S
C51 C52 1.392 . S
C51 N53 1.420 . S
C52 H46 0.930 . S
C52 C48 1.407 . S
C52 C51 1.392 . S
N53 C51 1.420 . S
N53 C54 1.244 . S
C54 N53 1.244 . S
H55 C58 0.929 . S
H56 C61 0.929 . S
H57 C63 0.930 . S
C58 H55 0.929 . S
C58 C59 1.398 . S
C58 C60 1.396 . S
C59 C58 1.398 . S
C59 C63 1.407 . S
C60 C58 1.396 . S
C60 C61 1.394 . S
C61 H56 0.929 . S
C61 C60 1.394 . S
C61 C62 1.382 . S
C62 C61 1.382 . S
C62 C63 1.392 . S
C62 N64 1.420 . S
C63 H57 0.930 . S
C63 C59 1.407 . S
C63 C62 1.392 . S
N64 C62 1.420 . S
N64 C65 1.244 . S
C65 N64 1.244 . S
H66 C69 0.929 . S
H67 C72 0.929 . S
H68 C74 0.930 . S
C69 H66 0.929 . S
C69 C70 1.398 . S
C69 C71 1.396 . S
C70 C69 1.398 . S
C70 C74 1.407 . S
C71 C69 1.396 . S
C71 C72 1.394 . S
C72 H67 0.929 . S
C72 C71 1.394 . S
C72 C73 1.382 . S
C73 C72 1.382 . S
C73 C74 1.392 . S
C73 N75 1.420 . S
C74 H68 0.930 . S
C74 C70 1.407 . S
C74 C73 1.392 . S
N75 C73 1.420 . S
N75 C76 1.244 . S
C76 N75 1.244 . S
H77 C80 0.929 . S
H78 C83 0.929 . S
H79 C85 0.930 . S
C80 H77 0.929 . S
C80 C81 1.398 . S
C80 C82 1.396 . S
C81 C80 1.398 . S
C81 C85 1.407 . S
C82 C80 1.396 . S
C82 C83 1.394 . S
C83 H78 0.929 . S
C83 C82 1.394 . S
C83 C84 1.382 . S
C84 C83 1.382 . S
C84 C85 1.392 . S
C84 N86 1.420 . S
C85 H79 0.930 . S
C85 C81 1.407 . S
C85 C84 1.392 . S
N86 C84 1.420 . S
N86 C87 1.244 . S
C87 N86 1.244 . S
Gd88 C91 2.818 . S
Gd88 O108 2.377 . S
Gd88 O110 2.448 . S
Gd88 O111 2.506 . S
Gd88 O112 2.435 . S
Gd88 O113 2.717 . S
Gd88 O115 2.395 1_445 S
Gd88 O119 2.327 1_455 S
Gd89 C100 2.818 1_545 S
Gd89 O109 2.395 1_655 S
Gd89 O113 2.327 1_655 S
Gd89 O114 2.377 1_545 S
Gd89 O116 2.448 1_545 S
Gd89 O117 2.506 1_545 S
Gd89 O118 2.435 . S
Gd89 O119 2.717 . S
C90 O108 1.240 . S
C90 O109 1.240 . S
C91 Gd88 2.818 . S
C91 C92 1.510 . S
C91 O110 1.249 . S
C91 O111 1.252 . S
C92 C91 1.510 . S
C92 C93 1.404 . S
C92 C94 1.352 . S
C93 C92 1.404 . S
C93 C97 1.389 . S
C93 H120 0.930 . S
C94 C92 1.352 . S
C94 C96 1.374 . S
C94 H121 0.931 . S
C95 C96 1.359 . S
C95 C97 1.364 . S
C96 C94 1.374 . S
C96 C95 1.359 . S
C96 H122 0.931 . S
C97 C93 1.389 . S
C97 C95 1.364 . S
C97 H123 0.931 . S
C98 O112 1.256 1_565 S
C98 O113 1.257 1_565 S
C99 O114 1.240 . S
C99 O115 1.240 . S
C100 Gd89 2.818 1_565 S
C100 C101 1.510 . S
C100 O116 1.249 . S
C100 O117 1.252 . S
C101 C100 1.510 . S
C101 C102 1.404 . S
C101 C103 1.352 . S
C102 C101 1.404 . S
C102 C106 1.389 . S
C102 H124 0.930 . S
C103 C101 1.352 . S
C103 C105 1.374 . S
C103 H125 0.931 . S
C104 C105 1.359 . S
C104 C106 1.364 . S
C105 C103 1.374 . S
C105 C104 1.359 . S
C105 H126 0.931 . S
C106 C102 1.389 . S
C106 C104 1.364 . S
C106 H127 0.931 . S
C107 O118 1.256 . S
C107 O119 1.257 . S
O108 Gd88 2.377 . S
O108 C90 1.240 . S
O109 Gd89 2.395 1_455 S
O109 C90 1.240 . S
O110 Gd88 2.448 . S
O110 C91 1.249 . S
O111 Gd88 2.506 . S
O111 C91 1.252 . S
O112 Gd88 2.435 . S
O112 C98 1.256 1_545 S
O113 Gd88 2.717 . S
O113 Gd89 2.327 1_455 S
O113 C98 1.257 1_545 S
O114 Gd89 2.377 1_565 S
O114 C99 1.240 . S
O115 Gd88 2.395 1_665 S
O115 C99 1.240 . S
O116 Gd89 2.448 1_565 S
O116 C100 1.249 . S
O117 Gd89 2.506 1_565 S
O117 C100 1.252 . S
O118 Gd89 2.435 . S
O118 C107 1.256 . S
O119 Gd88 2.327 1_655 S
O119 Gd89 2.717 . S
O119 C107 1.257 . S
H120 C93 0.930 . S
H121 C94 0.931 . S
H122 C96 0.931 . S
H123 C97 0.931 . S
H124 C102 0.930 . S
H125 C103 0.931 . S
H126 C105 0.931 . S
H127 C106 0.931 . S
Gd128 C131 2.818 . S
Gd128 O148 2.377 . S
Gd128 O150 2.448 . S
Gd128 O151 2.506 . S
Gd128 O152 2.435 1_545 S
Gd128 O153 2.717 1_545 S
Gd128 O155 2.395 1_545 S
Gd128 O159 2.327 . S
Gd129 C140 2.818 1_544 S
Gd129 O149 2.395 . S
Gd129 O153 2.327 1_545 S
Gd129 O154 2.377 1_554 S
Gd129 O156 2.448 1_554 S
Gd129 O157 2.506 1_544 S
Gd129 O158 2.435 1_554 S
Gd129 O159 2.717 . S
C130 O148 1.240 . S
C130 O149 1.240 . S
C131 Gd128 2.818 . S
C131 C132 1.510 . S
C131 O150 1.249 . S
C131 O151 1.252 . S
C132 C131 1.510 . S
C132 C133 1.404 . S
C132 C134 1.352 . S
C133 C132 1.404 . S
C133 C137 1.389 . S
C133 H160 0.930 . S
C134 C132 1.352 . S
C134 C136 1.374 . S
C134 H161 0.931 . S
C135 C136 1.359 . S
C135 C137 1.364 . S
C136 C134 1.374 . S
C136 C135 1.359 . S
C136 H162 0.931 . S
C137 C133 1.389 . S
C137 C135 1.364 . S
C137 H163 0.931 . S
C138 O152 1.256 . S
C138 O153 1.257 . S
C139 O154 1.247 1_565 S
C139 O155 1.223 1_556 S
C140 Gd129 2.818 1_566 S
C140 C141 1.510 . S
C140 O156 1.249 1_565 S
C140 O157 1.252 . S
C141 C140 1.510 . S
C141 C142 1.404 . S
C141 C143 1.352 . S
C142 C141 1.404 . S
C142 C146 1.389 . S
C142 H164 0.943 . S
C143 C141 1.352 . S
C143 C145 1.374 . S
C143 H165 0.931 . S
C144 C145 1.359 . S
C144 C146 1.364 . S
C145 C143 1.374 . S
C145 C144 1.359 . S
C145 H166 0.931 . S
C146 C142 1.389 . S
C146 C144 1.364 . S
C146 H167 0.931 . S
C147 O158 1.256 1_554 S
C147 O159 1.257 . S
O148 Gd128 2.377 . S
O148 C130 1.240 . S
O149 Gd129 2.395 . S
O149 C130 1.240 . S
O150 Gd128 2.448 . S
O150 C131 1.249 . S
O151 Gd128 2.506 . S
O151 C131 1.252 . S
O152 Gd128 2.435 1_565 S
O152 C138 1.256 . S
O153 Gd128 2.717 1_565 S
O153 Gd129 2.327 1_565 S
O153 C138 1.257 . S
O154 Gd129 2.377 1_556 S
O154 C139 1.247 1_545 S
O155 Gd128 2.395 1_565 S
O155 C139 1.223 1_554 S
O156 Gd129 2.448 1_556 S
O156 C140 1.249 1_545 S
O157 Gd129 2.506 1_566 S
O157 C140 1.252 . S
O158 Gd129 2.435 1_556 S
O158 C147 1.256 1_556 S
O159 Gd128 2.327 . S
O159 Gd129 2.717 . S
O159 C147 1.257 . S
H160 C133 0.930 . S
H161 C134 0.931 . S
H162 C136 0.931 . S
H163 C137 0.931 . S
H164 C142 0.943 . S
H165 C143 0.931 . S
H166 C145 0.931 . S
H167 C146 0.931 . S
Gd168 C171 2.818 . S
Gd168 O188 2.377 . S
Gd168 O190 2.448 . S
Gd168 O191 2.506 . S
Gd168 O192 2.435 . S
Gd168 O193 2.717 . S
Gd168 O195 2.395 . S
Gd168 O199 2.327 . S
Gd169 C180 2.818 . S
Gd169 O189 2.395 . S
Gd169 O193 2.327 . S
Gd169 O194 2.377 . S
Gd169 O196 2.448 . S
Gd169 O197 2.506 . S
Gd169 O198 2.435 . S
Gd169 O199 2.717 . S
C170 O188 1.240 . S
C170 O189 1.240 . S
C171 Gd168 2.818 . S
C171 C172 1.510 . S
C171 O190 1.249 . S
C171 O191 1.252 . S
C172 C171 1.510 . S
C172 C173 1.404 . S
C172 C174 1.352 . S
C173 C172 1.404 . S
C173 C177 1.389 . S
C173 H200 0.930 . S
C174 C172 1.352 . S
C174 C176 1.374 . S
C174 H201 0.931 . S
C175 C176 1.359 . S
C175 C177 1.364 . S
C176 C174 1.374 . S
C176 C175 1.359 . S
C176 H202 0.931 . S
C177 C173 1.389 . S
C177 C175 1.364 . S
C177 H203 0.931 . S
C178 O192 1.256 . S
C178 O193 1.257 . S
C179 O194 1.240 . S
C179 O195 1.240 . S
C180 Gd169 2.818 . S
C180 C181 1.510 . S
C180 O196 1.249 . S
C180 O197 1.252 . S
C181 C180 1.510 . S
C181 C182 1.404 . S
C181 C183 1.352 . S
C182 C181 1.404 . S
C182 C186 1.389 . S
C182 H204 0.930 . S
C183 C181 1.352 . S
C183 C185 1.374 . S
C183 H205 0.931 . S
C184 C185 1.359 . S
C184 C186 1.364 . S
C185 C183 1.374 . S
C185 C184 1.359 . S
C185 H206 0.931 . S
C186 C182 1.389 . S
C186 C184 1.364 . S
C186 H207 0.931 . S
C187 O198 1.256 . S
C187 O199 1.257 . S
O188 Gd168 2.377 . S
O188 C170 1.240 . S
O189 Gd169 2.395 . S
O189 C170 1.240 . S
O190 Gd168 2.448 . S
O190 C171 1.249 . S
O191 Gd168 2.506 . S
O191 C171 1.252 . S
O192 Gd168 2.435 . S
O192 C178 1.256 . S
O193 Gd168 2.717 . S
O193 Gd169 2.327 . S
O193 C178 1.257 . S
O194 Gd169 2.377 . S
O194 C179 1.240 . S
O195 Gd168 2.395 . S
O195 C179 1.240 . S
O196 Gd169 2.448 . S
O196 C180 1.249 . S
O197 Gd169 2.506 . S
O197 C180 1.252 . S
O198 Gd169 2.435 . S
O198 C187 1.256 . S
O199 Gd168 2.327 . S
O199 Gd169 2.717 . S
O199 C187 1.257 . S
H200 C173 0.930 . S
H201 C174 0.931 . S
H202 C176 0.931 . S
H203 C177 0.931 . S
H204 C182 0.930 . S
H205 C183 0.931 . S
H206 C185 0.931 . S
H207 C186 0.931 . S
Gd208 C211 2.818 . S
Gd208 O228 2.377 . S
Gd208 O230 2.448 . S
Gd208 O231 2.506 . S
Gd208 O232 2.435 1_455 S
Gd208 O233 2.717 1_455 S
Gd208 O235 2.395 1_455 S
Gd208 O239 2.327 1_554 S
Gd209 C220 2.818 1_455 S
Gd209 O229 2.395 1_556 S
Gd209 O233 2.327 1_456 S
Gd209 O234 2.377 1_455 S
Gd209 O236 2.448 1_455 S
Gd209 O237 2.506 1_455 S
Gd209 O238 2.435 . S
Gd209 O239 2.717 . S
C210 O228 1.240 . S
C210 O229 1.240 . S
C211 Gd208 2.818 . S
C211 C212 1.510 . S
C211 O230 1.249 . S
C211 O231 1.252 . S
C212 C211 1.510 . S
C212 C213 1.404 . S
C212 C214 1.352 . S
C213 C212 1.404 . S
C213 C217 1.389 . S
C213 H240 0.930 . S
C214 C212 1.352 . S
C214 C216 1.374 . S
C214 H241 0.931 . S
C215 C216 1.359 . S
C215 C217 1.364 . S
C216 C214 1.374 . S
C216 C215 1.359 . S
C216 H242 0.931 . S
C217 C213 1.389 . S
C217 C215 1.364 . S
C217 H243 0.931 . S
C218 O232 1.256 . S
C218 O233 1.257 . S
C219 O234 1.240 . S
C219 O235 1.240 1_556 S
C220 Gd209 2.818 1_655 S
C220 C221 1.510 . S
C220 O236 1.249 . S
C220 O237 1.252 . S
C221 C220 1.510 . S
C221 C222 1.404 . S
C221 C223 1.352 . S
C222 C221 1.404 . S
C222 C226 1.389 . S
C222 H244 0.930 . S
C223 C221 1.352 . S
C223 C225 1.374 . S
C223 H245 0.931 . S
C224 C225 1.359 . S
C224 C226 1.364 . S
C225 C223 1.374 . S
C225 C224 1.359 . S
C225 H246 0.931 . S
C226 C222 1.389 . S
C226 C224 1.364 . S
C226 H247 0.931 . S
C227 O238 1.256 . S
C227 O239 1.257 . S
O228 Gd208 2.377 . S
O228 C210 1.240 . S
O229 Gd209 2.395 1_554 S
O229 C210 1.240 . S
O230 Gd208 2.448 . S
O230 C211 1.249 . S
O231 Gd208 2.506 . S
O231 C211 1.252 . S
O232 Gd208 2.435 1_655 S
O232 C218 1.256 . S
O233 Gd208 2.717 1_655 S
O233 Gd209 2.327 1_654 S
O233 C218 1.257 . S
O234 Gd209 2.377 1_655 S
O234 C219 1.240 . S
O235 Gd208 2.395 1_655 S
O235 C219 1.240 1_554 S
O236 Gd209 2.448 1_655 S
O236 C220 1.249 . S
O237 Gd209 2.506 1_655 S
O237 C220 1.252 . S
O238 Gd209 2.435 . S
O238 C227 1.256 . S
O239 Gd208 2.327 1_556 S
O239 Gd209 2.717 . S
O239 C227 1.257 . S
H240 C213 0.930 . S
H241 C214 0.931 . S
H242 C216 0.931 . S
H243 C217 0.931 . S
H244 C222 0.930 . S
H245 C223 0.931 . S
H246 C225 0.931 . S
H247 C226 0.931 . S
C248 C249 1.363 . S
C248 C254 1.379 . S
C248 N256 1.356 . S
C249 C248 1.363 . S
C249 C255 1.363 . S
C250 C251 1.363 . S
C250 C255 1.379 . S
C250 N257 1.356 . S
C251 C250 1.363 . S
C251 C254 1.363 . S
N252 C254 1.356 . S
N252 H264 0.984 . S
N252 H265 0.985 . S
N253 C255 1.356 . S
N253 H258 0.984 . S
N253 H259 0.985 . S
C254 C248 1.379 . S
C254 C251 1.363 . S
C254 N252 1.356 . S
C255 C249 1.363 . S
C255 C250 1.379 . S
C255 N253 1.356 . S
N256 C248 1.356 . S
N256 H262 0.984 . S
N256 H263 0.984 . S
N257 C250 1.356 . S
N257 H260 0.984 . S
N257 H261 0.985 . S
H258 N253 0.984 . S
H259 N253 0.985 . S
H260 N257 0.984 . S
H261 N257 0.985 . S
H262 N256 0.984 . S
H263 N256 0.984 . S
H264 N252 0.984 . S
H265 N252 0.985 . S
C266 C267 1.363 . S
C266 C272 1.379 . S
C266 N274 1.356 . S
C267 C266 1.363 . S
C267 C273 1.363 . S
C268 C269 1.363 . S
C268 C273 1.379 . S
C268 N275 1.356 . S
C269 C268 1.363 . S
C269 C272 1.363 . S
N270 C272 1.356 . S
N270 H282 0.984 . S
N270 H283 0.985 . S
N271 C273 1.356 . S
N271 H276 0.984 . S
N271 H277 0.985 . S
C272 C266 1.379 . S
C272 C269 1.363 . S
C272 N270 1.356 . S
C273 C267 1.363 . S
C273 C268 1.379 . S
C273 N271 1.356 . S
N274 C266 1.356 . S
N274 H280 0.984 . S
N274 H281 0.984 . S
N275 C268 1.356 . S
N275 H278 0.984 . S
N275 H279 0.985 . S
H276 N271 0.984 . S
H277 N271 0.985 . S
H278 N275 0.984 . S
H279 N275 0.985 . S
H280 N274 0.984 . S
H281 N274 0.984 . S
H282 N270 0.984 . S
H283 N270 0.985 . S
C284 C285 1.363 . S
C284 C290 1.379 . S
C284 N292 1.356 . S
C285 C284 1.363 . S
C285 C291 1.363 . S
C286 C287 1.363 . S
C286 C291 1.379 . S
C286 N293 1.356 . S
C287 C286 1.363 . S
C287 C290 1.363 . S
N288 C290 1.356 . S
N288 H300 0.984 . S
N288 H301 0.985 . S
N289 C291 1.356 . S
N289 H294 0.984 . S
N289 H295 0.985 . S
C290 C284 1.379 . S
C290 C287 1.363 . S
C290 N288 1.356 . S
C291 C285 1.363 . S
C291 C286 1.379 . S
C291 N289 1.356 . S
N292 C284 1.356 . S
N292 H298 0.984 . S
N292 H299 0.984 . S
N293 C286 1.356 . S
N293 H296 0.984 . S
N293 H297 0.985 . S
H294 N289 0.984 . S
H295 N289 0.985 . S
H296 N293 0.984 . S
H297 N293 0.985 . S
H298 N292 0.984 . S
H299 N292 0.984 . S
H300 N288 0.984 . S
H301 N288 0.985 . S
C302 C303 1.363 . S
C302 C308 1.379 . S
C302 N310 1.356 . S
C303 C302 1.363 . S
C303 C309 1.363 . S
C304 C305 1.363 . S
C304 C309 1.379 . S
C304 N311 1.356 . S
C305 C304 1.363 . S
C305 C308 1.363 . S
N306 C308 1.356 . S
N306 H318 0.984 . S
N306 H319 0.985 . S
N307 C309 1.356 . S
N307 H312 0.984 . S
N307 H313 0.985 . S
C308 C302 1.379 . S
C308 C305 1.363 . S
C308 N306 1.356 . S
C309 C303 1.363 . S
C309 C304 1.379 . S
C309 N307 1.356 . S
N310 C302 1.356 . S
N310 H316 0.984 . S
N310 H317 0.984 . S
N311 C304 1.356 . S
N311 H314 0.984 . S
N311 H315 0.985 . S
H312 N307 0.984 . S
H313 N307 0.985 . S
H314 N311 0.984 . S
H315 N311 0.985 . S
H316 N310 0.984 . S
H317 N310 0.984 . S
H318 N306 0.984 . S
H319 N306 0.985 . S
C320 C321 1.363 . S
C320 C326 1.379 . S
C320 N328 1.356 . S
C321 C320 1.363 . S
C321 C327 1.363 . S
C322 C323 1.363 . S
C322 C327 1.379 . S
C322 N329 1.356 . S
C323 C322 1.363 . S
C323 C326 1.363 . S
N324 C326 1.356 . S
N324 H336 0.984 . S
N324 H337 0.985 . S
N325 C327 1.356 . S
N325 H330 0.984 . S
N325 H331 0.985 . S
C326 C320 1.379 . S
C326 C323 1.363 . S
C326 N324 1.356 . S
C327 C321 1.363 . S
C327 C322 1.379 . S
C327 N325 1.356 . S
N328 C320 1.356 . S
N328 H334 0.984 . S
N328 H335 0.984 . S
N329 C322 1.356 . S
N329 H332 0.984 . S
N329 H333 0.985 . S
H330 N325 0.984 . S
H331 N325 0.985 . S
H332 N329 0.984 . S
H333 N329 0.985 . S
H334 N328 0.984 . S
H335 N328 0.984 . S
H336 N324 0.984 . S
H337 N324 0.985 . S
C338 C339 1.363 . S
C338 C344 1.379 . S
C338 N346 1.356 . S
C339 C338 1.363 . S
C339 C345 1.363 . S
C340 C341 1.363 . S
C340 C345 1.379 . S
C340 N347 1.356 1_565 S
C341 C340 1.363 . S
C341 C344 1.363 . S
N342 C344 1.356 . S
N342 H354 0.984 . S
N342 H355 0.985 1_565 S
N343 C345 1.356 . S
N343 H348 0.984 . S
N343 H349 0.985 . S
C344 C338 1.379 . S
C344 C341 1.363 . S
C344 N342 1.356 . S
C345 C339 1.363 . S
C345 C340 1.379 . S
C345 N343 1.356 . S
N346 C338 1.356 . S
N346 H352 0.984 . S
N346 H353 0.984 . S
N347 C340 1.356 1_545 S
N347 H350 0.984 . S
N347 H351 0.985 1_545 S
H348 N343 0.984 . S
H349 N343 0.985 . S
H350 N347 0.984 . S
H351 N347 0.985 1_565 S
H352 N346 0.984 . S
H353 N346 0.984 . S
H354 N342 0.984 . S
H355 N342 0.985 1_545 S
C356 C357 1.363 . S
C356 C362 1.379 . S
C356 N364 1.356 . S
C357 C356 1.363 . S
C357 C363 1.363 . S
C358 C359 1.363 . S
C358 C363 1.379 . S
C358 N365 1.356 1_556 S
C359 C358 1.363 . S
C359 C362 1.363 . S
N360 C362 1.356 . S
N360 H372 0.984 . S
N360 H373 0.985 . S
N361 C363 1.356 . S
N361 H366 0.984 . S
N361 H367 0.985 1_556 S
C362 C356 1.379 . S
C362 C359 1.363 . S
C362 N360 1.356 . S
C363 C357 1.363 . S
C363 C358 1.379 . S
C363 N361 1.356 . S
N364 C356 1.356 . S
N364 H370 0.984 . S
N364 H371 0.984 . S
N365 C358 1.356 1_554 S
N365 H368 0.984 . S
N365 H369 0.985 . S
H366 N361 0.984 . S
H367 N361 0.985 1_554 S
H368 N365 0.984 . S
H369 N365 0.985 . S
H370 N364 0.984 . S
H371 N364 0.984 . S
H372 N360 0.984 . S
H373 N360 0.985 . S
C374 C375 1.363 . S
C374 C380 1.379 . S
C374 N382 1.356 . S
C375 C374 1.363 . S
C375 C381 1.363 . S
C376 C377 1.363 . S
C376 C381 1.379 . S
C376 N383 1.356 . S
C377 C376 1.363 . S
C377 C380 1.363 . S
N378 C380 1.356 . S
N378 H390 0.984 . S
N378 H391 0.985 . S
N379 C381 1.356 . S
N379 H384 0.984 . S
N379 H385 0.985 . S
C380 C374 1.379 . S
C380 C377 1.363 . S
C380 N378 1.356 . S
C381 C375 1.363 . S
C381 C376 1.379 . S
C381 N379 1.356 . S
N382 C374 1.356 . S
N382 H388 0.984 . S
N382 H389 0.984 . S
N383 C376 1.356 . S
N383 H386 0.984 . S
N383 H387 0.985 . S
H384 N379 0.984 . S
H385 N379 0.985 . S
H386 N383 0.984 . S
H387 N383 0.985 . S
H388 N382 0.984 . S
H389 N382 0.984 . S
H390 N378 0.984 . S
H391 N378 0.985 . S
C392 C393 1.363 . S
C392 C398 1.379 . S
C392 N400 1.356 . S
C393 C392 1.363 . S
C393 C399 1.363 . S
C394 C395 1.363 . S
C394 C399 1.379 . S
C394 N401 1.356 . S
C395 C394 1.363 . S
C395 C398 1.363 . S
N396 C398 1.356 . S
N396 H408 0.984 . S
N396 H409 0.985 . S
N397 C399 1.356 . S
N397 H402 0.984 . S
N397 H403 0.985 . S
C398 C392 1.379 . S
C398 C395 1.363 . S
C398 N396 1.356 . S
C399 C393 1.363 . S
C399 C394 1.379 . S
C399 N397 1.356 . S
N400 C392 1.356 . S
N400 H406 0.984 . S
N400 H407 0.984 . S
N401 C394 1.356 . S
N401 H404 0.984 . S
N401 H405 0.985 . S
H402 N397 0.984 . S
H403 N397 0.985 . S
H404 N401 0.984 . S
H405 N401 0.985 . S
H406 N400 0.984 . S
H407 N400 0.984 . S
H408 N396 0.984 . S
H409 N396 0.985 . S
C410 C411 1.363 . S
C410 C416 1.379 . S
C410 N418 1.356 . S
C411 C410 1.363 . S
C411 C417 1.363 . S
C412 C413 1.363 1_554 S
C412 C417 1.379 1_554 S
C412 N419 1.356 . S
C413 C412 1.363 1_556 S
C413 C416 1.363 . S
N414 C416 1.356 . S
N414 H426 0.984 . S
N414 H427 0.985 . S
N415 C417 1.356 . S
N415 H420 0.984 . S
N415 H421 0.985 1_556 S
C416 C410 1.379 . S
C416 C413 1.363 . S
C416 N414 1.356 . S
C417 C411 1.363 . S
C417 C412 1.379 1_556 S
C417 N415 1.356 . S
N418 C410 1.356 . S
N418 H424 0.984 . S
N418 H425 0.984 . S
N419 C412 1.356 . S
N419 H422 0.984 . S
N419 H423 0.985 . S
H420 N415 0.984 . S
H421 N415 0.985 1_554 S
H422 N419 0.984 . S
H423 N419 0.985 . S
H424 N418 0.984 . S
H425 N418 0.984 . S
H426 N414 0.984 . S
H427 N414 0.985 . S
C428 C429 1.363 . S
C428 C434 1.379 . S
C428 N436 1.356 . S
C429 C428 1.363 . S
C429 C435 1.363 . S
C430 C431 1.363 . S
C430 C435 1.379 . S
C430 N437 1.356 . S
C431 C430 1.363 . S
C431 C434 1.363 . S
N432 C434 1.356 . S
N432 H444 0.984 1_655 S
N432 H445 0.985 . S
N433 C435 1.356 . S
N433 H438 0.984 . S
N433 H439 0.985 . S
C434 C428 1.379 . S
C434 C431 1.363 . S
C434 N432 1.356 . S
C435 C429 1.363 . S
C435 C430 1.379 . S
C435 N433 1.356 . S
N436 C428 1.356 . S
N436 H442 0.984 . S
N436 H443 0.984 . S
N437 C430 1.356 . S
N437 H440 0.984 . S
N437 H441 0.985 . S
H438 N433 0.984 . S
H439 N433 0.985 . S
H440 N437 0.984 . S
H441 N437 0.985 . S
H442 N436 0.984 . S
H443 N436 0.984 . S
H444 N432 0.984 1_455 S
H445 N432 0.985 . S
C446 C447 1.363 . S
C446 C452 1.379 . S
C446 N454 1.356 . S
C447 C446 1.363 . S
C447 C453 1.363 . S
C448 C449 1.363 . S
C448 C453 1.379 . S
C448 N455 1.356 . S
C449 C448 1.363 . S
C449 C452 1.363 . S
N450 C452 1.356 . S
N450 H462 0.984 . S
N450 H463 0.985 . S
N451 C453 1.356 . S
N451 H456 0.984 . S
N451 H457 0.985 . S
C452 C446 1.379 . S
C452 C449 1.363 . S
C452 N450 1.356 . S
C453 C447 1.363 . S
C453 C448 1.379 . S
C453 N451 1.356 . S
N454 C446 1.356 . S
N454 H460 0.984 . S
N454 H461 0.984 . S
N455 C448 1.356 . S
N455 H458 0.984 . S
N455 H459 0.985 . S
H456 N451 0.984 . S
H457 N451 0.985 . S
H458 N455 0.984 . S
H459 N455 0.985 . S
H460 N454 0.984 . S
H461 N454 0.984 . S
H462 N450 0.984 . S
H463 N450 0.985 . S
C464 C465 1.363 . S
C464 C470 1.379 . S
C464 N472 1.356 . S
C465 C464 1.363 . S
C465 C471 1.363 . S
C466 C467 1.363 . S
C466 C471 1.379 . S
C466 N473 1.356 . S
C467 C466 1.363 . S
C467 C470 1.363 . S
N468 C470 1.356 . S
N468 H480 0.984 . S
N468 H481 0.985 . S
N469 C471 1.356 . S
N469 H474 0.984 . S
N469 H475 0.985 . S
C470 C464 1.379 . S
C470 C467 1.363 . S
C470 N468 1.356 . S
C471 C465 1.363 . S
C471 C466 1.379 . S
C471 N469 1.356 . S
N472 C464 1.356 . S
N472 H478 0.984 . S
N472 H479 0.984 . S
N473 C466 1.356 . S
N473 H476 0.984 . S
N473 H477 0.985 . S
H474 N469 0.984 . S
H475 N469 0.985 . S
H476 N473 0.984 . S
H477 N473 0.985 . S
H478 N472 0.984 . S
H479 N472 0.984 . S
H480 N468 0.984 . S
H481 N468 0.985 . S
C482 C483 1.363 . S
C482 C488 1.379 . S
C482 N490 1.356 . S
C483 C482 1.363 . S
C483 C489 1.363 . S
C484 C485 1.363 . S
C484 C489 1.379 . S
C484 N491 1.356 . S
C485 C484 1.363 . S
C485 C488 1.363 . S
N486 C488 1.356 . S
N486 H498 0.984 . S
N486 H499 0.985 . S
N487 C489 1.356 . S
N487 H492 0.984 . S
N487 H493 0.985 . S
C488 C482 1.379 . S
C488 C485 1.363 . S
C488 N486 1.356 . S
C489 C483 1.363 . S
C489 C484 1.379 . S
C489 N487 1.356 . S
N490 C482 1.356 . S
N490 H496 0.984 . S
N490 H497 0.984 . S
N491 C484 1.356 . S
N491 H494 0.984 . S
N491 H495 0.985 . S
H492 N487 0.984 . S
H493 N487 0.985 . S
H494 N491 0.984 . S
H495 N491 0.985 . S
H496 N490 0.984 . S
H497 N490 0.984 . S
H498 N486 0.984 . S
H499 N486 0.985 . S
C500 C501 1.363 . S
C500 C506 1.379 . S
C500 N508 1.356 . S
C501 C500 1.363 . S
C501 C507 1.363 . S
C502 C503 1.363 . S
C502 C507 1.379 . S
C502 N509 1.356 . S
C503 C502 1.363 . S
C503 C506 1.363 . S
N504 C506 1.356 . S
N504 H516 0.984 . S
N504 H517 0.985 . S
N505 C507 1.356 . S
N505 H510 0.984 . S
N505 H511 0.985 . S
C506 C500 1.379 . S
C506 C503 1.363 . S
C506 N504 1.356 . S
C507 C501 1.363 . S
C507 C502 1.379 . S
C507 N505 1.356 . S
N508 C500 1.356 . S
N508 H514 0.984 . S
N508 H515 0.984 . S
N509 C502 1.356 . S
N509 H512 0.984 . S
N509 H513 0.985 . S
H510 N505 0.984 . S
H511 N505 0.985 . S
H512 N509 0.984 . S
H513 N509 0.985 . S
H514 N508 0.984 . S
H515 N508 0.984 . S
H516 N504 0.984 . S
H517 N504 0.985 . S
C518 C519 1.363 . S
C518 C524 1.379 . S
C518 N526 1.356 . S
C519 C518 1.363 . S
C519 C525 1.363 . S
C520 C521 1.363 . S
C520 C525 1.379 . S
C520 N527 1.356 . S
C521 C520 1.363 . S
C521 C524 1.363 . S
N522 C524 1.356 . S
N522 H534 0.984 . S
N522 H535 0.985 . S
N523 C525 1.356 . S
N523 H528 0.984 . S
N523 H529 0.985 . S
C524 C518 1.379 . S
C524 C521 1.363 . S
C524 N522 1.356 . S
C525 C519 1.363 . S
C525 C520 1.379 . S
C525 N523 1.356 . S
N526 C518 1.356 . S
N526 H532 0.984 . S
N526 H533 0.984 . S
N527 C520 1.356 . S
N527 H530 0.984 . S
N527 H531 0.982 1_455 S
H528 N523 0.984 . S
H529 N523 0.985 . S
H530 N527 0.984 . S
H531 N527 0.982 1_655 S
H532 N526 0.984 . S
H533 N526 0.984 . S
H534 N522 0.984 . S
H535 N522 0.985 . S
C536 C537 1.363 . S
C536 C542 1.379 . S
C536 N544 1.356 . S
C537 C536 1.363 . S
C537 C543 1.363 . S
C538 C539 1.363 . S
C538 C543 1.379 . S
C538 N545 1.356 1_556 S
C539 C538 1.363 . S
C539 C542 1.363 . S
N540 C542 1.356 . S
N540 H552 0.984 . S
N540 H553 0.985 . S
N541 C543 1.356 . S
N541 H546 0.984 . S
N541 H547 0.985 . S
C542 C536 1.379 . S
C542 C539 1.363 . S
C542 N540 1.356 . S
C543 C537 1.363 . S
C543 C538 1.379 . S
C543 N541 1.356 . S
N544 C536 1.356 . S
N544 H550 0.984 . S
N544 H551 0.984 . S
N545 C538 1.356 1_554 S
N545 H548 0.984 . S
N545 H549 0.985 . S
H546 N541 0.984 . S
H547 N541 0.985 . S
H548 N545 0.984 . S
H549 N545 0.985 . S
H550 N544 0.984 . S
H551 N544 0.984 . S
H552 N540 0.984 . S
H553 N540 0.985 . S
C554 C555 1.363 . S
C554 C560 1.379 . S
C554 N562 1.356 . S
C555 C554 1.363 . S
C555 C561 1.363 . S
C556 C557 1.363 . S
C556 C561 1.379 . S
C556 N563 1.356 . S
C557 C556 1.363 . S
C557 C560 1.363 . S
N558 C560 1.356 1_455 S
N558 H570 0.984 . S
N558 H571 0.985 . S
N559 C561 1.356 . S
N559 H564 0.984 . S
N559 H565 0.985 . S
C560 C554 1.379 . S
C560 C557 1.363 . S
C560 N558 1.356 1_655 S
C561 C555 1.363 . S
C561 C556 1.379 . S
C561 N559 1.356 . S
N562 C554 1.356 . S
N562 H568 0.984 . S
N562 H569 0.984 . S
N563 C556 1.356 . S
N563 H566 0.984 . S
N563 H567 0.985 . S
H564 N559 0.984 . S
H565 N559 0.985 . S
H566 N563 0.984 . S
H567 N563 0.985 . S
H568 N562 0.984 . S
H569 N562 0.984 . S
H570 N558 0.984 . S
H571 N558 0.985 . S
C572 C573 1.363 . S
C572 C578 1.379 . S
C572 N580 1.356 . S
C573 C572 1.363 . S
C573 C579 1.363 . S
C574 C575 1.363 . S
C574 C579 1.379 . S
C574 N581 1.356 . S
C575 C574 1.363 . S
C575 C578 1.363 . S
N576 C578 1.356 . S
N576 H588 0.984 . S
N576 H589 0.985 . S
N577 C579 1.356 . S
N577 H582 0.984 . S
N577 H583 0.985 . S
C578 C572 1.379 . S
C578 C575 1.363 . S
C578 N576 1.356 . S
C579 C573 1.363 . S
C579 C574 1.379 . S
C579 N577 1.356 . S
N580 C572 1.356 . S
N580 H586 0.984 . S
N580 H587 0.984 . S
N581 C574 1.356 . S
N581 H584 0.984 . S
N581 H585 0.985 . S
H582 N577 0.984 . S
H583 N577 0.985 . S
H584 N581 0.984 . S
H585 N581 0.985 . S
H586 N580 0.984 . S
H587 N580 0.984 . S
H588 N576 0.984 . S
H589 N576 0.985 . S
C590 C591 1.363 . S
C590 C596 1.379 . S
C590 N598 1.356 . S
C591 C590 1.363 . S
C591 C597 1.363 . S
C592 C593 1.363 . S
C592 C597 1.379 . S
C592 N599 1.356 . S
C593 C592 1.363 . S
C593 C596 1.363 . S
N594 C596 1.356 . S
N594 H606 0.984 . S
N594 H607 0.985 . S
N595 C597 1.356 . S
N595 H600 0.984 . S
N595 H601 0.985 . S
C596 C590 1.379 . S
C596 C593 1.363 . S
C596 N594 1.356 . S
C597 C591 1.363 . S
C597 C592 1.379 . S
C597 N595 1.356 . S
N598 C590 1.356 . S
N598 H604 0.984 . S
N598 H605 0.984 . S
N599 C592 1.356 . S
N599 H602 0.984 . S
N599 H603 0.985 . S
H600 N595 0.984 . S
H601 N595 0.985 . S
H602 N599 0.984 . S
H603 N599 0.985 . S
H604 N598 0.984 . S
H605 N598 0.984 . S
H606 N594 0.984 . S
H607 N594 0.985 . S
C608 C609 1.363 . S
C608 C614 1.379 . S
C608 N616 1.356 . S
C609 C608 1.363 . S
C609 C615 1.363 . S
C610 C611 1.363 . S
C610 C615 1.379 . S
C610 N617 1.356 . S
C611 C610 1.363 . S
C611 C614 1.363 . S
N612 C614 1.356 . S
N612 H624 0.984 . S
N612 H625 0.985 . S
N613 C615 1.356 . S
N613 H618 0.984 . S
N613 H619 0.985 . S
C614 C608 1.379 . S
C614 C611 1.363 . S
C614 N612 1.356 . S
C615 C609 1.363 . S
C615 C610 1.379 . S
C615 N613 1.356 . S
N616 C608 1.356 . S
N616 H622 0.984 . S
N616 H623 0.984 . S
N617 C610 1.356 . S
N617 H620 0.984 . S
N617 H621 0.985 . S
H618 N613 0.984 . S
H619 N613 0.985 . S
H620 N617 0.984 . S
H621 N617 0.985 . S
H622 N616 0.984 . S
H623 N616 0.984 . S
H624 N612 0.984 . S
H625 N612 0.985 . S
C626 C627 1.363 . S
C626 C632 1.379 . S
C626 N634 1.356 . S
C627 C626 1.363 . S
C627 C633 1.363 . S
C628 C629 1.363 . S
C628 C633 1.379 . S
C628 N635 1.356 . S
C629 C628 1.363 . S
C629 C632 1.363 . S
N630 C632 1.356 . S
N630 H642 0.984 . S
N630 H643 0.985 . S
N631 C633 1.356 . S
N631 H636 0.984 . S
N631 H637 0.985 . S
C632 C626 1.379 . S
C632 C629 1.363 . S
C632 N630 1.356 . S
C633 C627 1.363 . S
C633 C628 1.379 . S
C633 N631 1.356 . S
N634 C626 1.356 . S
N634 H640 0.984 . S
N634 H641 0.984 . S
N635 C628 1.356 . S
N635 H638 0.984 . S
N635 H639 0.985 . S
H636 N631 0.984 . S
H637 N631 0.985 . S
H638 N635 0.984 . S
H639 N635 0.985 . S
H640 N634 0.984 . S
H641 N634 0.984 . S
H642 N630 0.984 . S
H643 N630 0.985 . S
C644 C645 1.363 . S
C644 C650 1.379 . S
C644 N652 1.356 . S
C645 C644 1.363 . S
C645 C651 1.363 . S
C646 C647 1.363 . S
C646 C651 1.379 . S
C646 N653 1.356 . S
C647 C646 1.363 . S
C647 C650 1.363 . S
N648 C650 1.356 . S
N648 H660 0.984 . S
N648 H661 0.985 . S
N649 C651 1.356 . S
N649 H654 0.984 . S
N649 H655 0.985 . S
C650 C644 1.379 . S
C650 C647 1.363 . S
C650 N648 1.356 . S
C651 C645 1.363 . S
C651 C646 1.379 . S
C651 N649 1.356 . S
N652 C644 1.356 . S
N652 H658 0.984 . S
N652 H659 0.984 . S
N653 C646 1.356 . S
N653 H656 0.984 . S
N653 H657 0.985 . S
H654 N649 0.984 . S
H655 N649 0.985 . S
H656 N653 0.984 . S
H657 N653 0.985 . S
H658 N652 0.984 . S
H659 N652 0.984 . S
H660 N648 0.984 . S
H661 N648 0.985 . S
C662 C663 1.363 . S
C662 C668 1.379 . S
C662 N670 1.356 . S
C663 C662 1.363 . S
C663 C669 1.363 . S
C664 C665 1.363 . S
C664 C669 1.379 . S
C664 N671 1.356 . S
C665 C664 1.363 . S
C665 C668 1.363 . S
N666 C668 1.356 . S
N666 H678 0.984 . S
N666 H679 0.985 . S
N667 C669 1.356 . S
N667 H672 0.984 . S
N667 H673 0.985 . S
C668 C662 1.379 . S
C668 C665 1.363 . S
C668 N666 1.356 . S
C669 C663 1.363 . S
C669 C664 1.379 . S
C669 N667 1.356 . S
N670 C662 1.356 . S
N670 H676 0.984 . S
N670 H677 0.984 . S
N671 C664 1.356 . S
N671 H674 0.984 . S
N671 H675 0.985 . S
H672 N667 0.984 . S
H673 N667 0.985 . S
H674 N671 0.984 . S
H675 N671 0.985 . S
H676 N670 0.984 . S
H677 N670 0.984 . S
H678 N666 0.984 . S
H679 N666 0.985 . S
C249 C4 1.128 . S
C251 C95 1.161 . S
C267 C16 1.270 . S
C269 C144 1.297 . S
C287 C170 2.158 . S
C285 C32 2.182 . S
C303 C43 2.368 . S
C305 C218 2.317 . S
C323 C130 2.511 . S
C321 C5 2.348 . S
C341 C98 0.642 . S
C339 C21 0.669 . S
C359 C219 1.958 . S
C357 C27 2.003 . S
C377 C187 1.743 . S
C375 C37 1.740 . S
C393 C10 1.454 . S
C395 C215 1.488 . S
C413 C147 2.514 1_556 S
C411 C26 2.594 . S
C429 C38 2.137 . S
C431 C99 2.138 . S
C447 C15 1.375 . S
C449 C184 1.393 . S
C467 C104 1.239 . S
C465 C48 1.221 . S
C483 C59 1.189 . S
C485 C135 1.200 . S
C501 C76 2.481 . S
C503 C179 2.446 . S
C519 C87 2.231 . S
C521 C227 2.220 . S
C537 C54 1.897 . S
C539 C139 2.072 . S
C557 C107 1.359 . S
C555 C60 1.371 . S
C575 C210 1.858 . S
C573 C71 1.886 . S
C593 C178 1.699 . S
C591 C82 1.764 . S
C609 C49 1.670 . S
C611 C224 1.805 . S
C629 C138 2.041 . S
C627 C70 2.115 . S
C647 C90 2.521 . S
C645 C81 2.531 . S
C663 C65 1.124 . S
C665 C175 1.137 . S
