# Generated by pormake.
# Topology anh, (6,3)-cn, num edge types: 1
# Building blocks:
#     Node 0, Type 0, BuildingBlock: MIFKUJ_clean_sbu_0, # of connection points: 6
#     Node 1, Type 0, BuildingBlock: MIFKUJ_clean_sbu_0, # of connection points: 6
#     Node 2, Type 0, BuildingBlock: MIFKUJ_clean_sbu_0, # of connection points: 6
#     Node 3, Type 1, BuildingBlock: PAMTOO_clean_linker_0, # of connection points: 3
#     Node 4, Type 1, BuildingBlock: PAMTOO_clean_linker_0, # of connection points: 3
#     Node 5, Type 1, BuildingBlock: PAMTOO_clean_linker_0, # of connection points: 3
#     Node 6, Type 1, BuildingBlock: PAMTOO_clean_linker_0, # of connection points: 3
#     Node 7, Type 1, BuildingBlock: PAMTOO_clean_linker_0, # of connection points: 3
#     Node 8, Type 1, BuildingBlock: PAMTOO_clean_linker_0, # of connection points: 3
#     Edge 9, Type (0, 1), BuildingBlock: AJUNOK_clean_linker_0, # of connection points: 2
#     Edge 10, Type (0, 1), BuildingBlock: AJUNOK_clean_linker_0, # of connection points: 2
#     Edge 11, Type (0, 1), BuildingBlock: AJUNOK_clean_linker_0, # of connection points: 2
#     Edge 12, Type (0, 1), BuildingBlock: AJUNOK_clean_linker_0, # of connection points: 2
#     Edge 13, Type (0, 1), BuildingBlock: AJUNOK_clean_linker_0, # of connection points: 2
#     Edge 14, Type (0, 1), BuildingBlock: AJUNOK_clean_linker_0, # of connection points: 2
#     Edge 15, Type (0, 1), BuildingBlock: AJUNOK_clean_linker_0, # of connection points: 2
#     Edge 16, Type (0, 1), BuildingBlock: AJUNOK_clean_linker_0, # of connection points: 2
#     Edge 17, Type (0, 1), BuildingBlock: AJUNOK_clean_linker_0, # of connection points: 2
#     Edge 18, Type (0, 1), BuildingBlock: AJUNOK_clean_linker_0, # of connection points: 2
#     Edge 19, Type (0, 1), BuildingBlock: AJUNOK_clean_linker_0, # of connection points: 2
#     Edge 20, Type (0, 1), BuildingBlock: AJUNOK_clean_linker_0, # of connection points: 2
#     Edge 21, Type (0, 1), BuildingBlock: AJUNOK_clean_linker_0, # of connection points: 2
#     Edge 22, Type (0, 1), BuildingBlock: AJUNOK_clean_linker_0, # of connection points: 2
#     Edge 23, Type (0, 1), BuildingBlock: AJUNOK_clean_linker_0, # of connection points: 2
#     Edge 24, Type (0, 1), BuildingBlock: AJUNOK_clean_linker_0, # of connection points: 2
#     Edge 25, Type (0, 1), BuildingBlock: AJUNOK_clean_linker_0, # of connection points: 2
#     Edge 26, Type (0, 1), BuildingBlock: AJUNOK_clean_linker_0, # of connection points: 2
# Relax obj value: 0.080
# Max RMSD: 0.147
# Mean RMSD: 0.112
data_MOF--net-anh--node1-MIFKUJ_clean_sbu_0--node2-PAMTOO_clean_linker_0--edge1-AJUNOK_clean_linker_0
_symmetry_space_group_name_H-M    P1
_symmetry_Int_Tables_number       1
_symmetry_cell_setting            triclinic
loop_
_symmetry_equiv_pos_as_xyz
'x, y, z'
_cell_length_a     24.219266
_cell_length_b     24.157034
_cell_length_c     33.175574
_cell_angle_alpha  88.575631
_cell_angle_beta   93.848959
_cell_angle_gamma 120.61614
loop_
_atom_site_label
_atom_site_type_symbol
_atom_site_fract_x
_atom_site_fract_y
_atom_site_fract_z
_atom_type_partial_charge
Zn0 Zn 0.13319 0.58891 0.15242 0.0
Zn1 Zn 0.92962 0.46736 0.15561 0.0
C2 C 0.23577 0.56822 0.16633 0.0
O3 O 0.2421 0.60385 0.19754 0.0
C4 C 0.81512 0.47153 0.14627 0.0
O5 O 0.79868 0.41823 0.12668 0.0
O6 O 0.17791 0.68472 0.1481 0.0
O7 O 0.04794 0.54103 0.12574 0.0
O8 O 0.95419 0.48218 0.09671 0.0
C9 C 0.21887 0.71441 0.12195 0.0
O10 O 0.22761 0.68108 0.09502 0.0
O11 O 0.19092 0.55549 0.13939 0.0
C12 C 0.84041 0.35229 0.19315 0.0
O13 O 0.8441 0.39426 0.21919 0.0
O14 O 0.87465 0.37186 0.16288 0.0
O15 O 0.00548 0.5027 0.20004 0.0
O16 O 0.11189 0.5658 0.20922 0.0
O17 O 0.87209 0.50468 0.16217 0.0
C18 C 0.01353 0.52036 0.0934 0.0
C19 C 0.05721 0.52866 0.22315 0.0
Zn20 Zn 0.62798 0.12367 0.49933 0.0
Zn21 Zn 0.57081 0.93985 0.49724 0.0
C22 C 0.76882 0.21385 0.51043 0.0
O23 O 0.76387 0.19502 0.54816 0.0
C24 C 0.44627 0.82883 0.46991 0.0
O25 O 0.48261 0.81206 0.45228 0.0
O26 O 0.59493 0.18351 0.50562 0.0
O27 O 0.57478 0.06756 0.45084 0.0
O28 O 0.61025 1.00031 0.45185 0.0
C29 C 0.59855 0.21765 0.47504 0.0
O30 O 0.61927 0.20828 0.44172 0.0
O31 O 0.72002 0.1863 0.4854 0.0
C32 C 0.58165 0.83328 0.52057 0.0
O33 O 0.53472 0.82482 0.54245 0.0
O34 O 0.60744 0.88198 0.498 0.0
O35 O 0.59124 0.97958 0.55257 0.0
O36 O 0.62474 0.08407 0.55411 0.0
O37 O 0.47275 0.88275 0.48857 0.0
C38 C 0.5786 0.02316 0.43396 0.0
C39 C 0.61068 0.0317 0.57193 0.0
Zn40 Zn 0.66966 0.52606 0.84015 0.0
Zn41 Zn 0.53443 0.58615 0.82429 0.0
C42 C 0.66858 0.40706 0.85581 0.0
O43 O 0.72461 0.44665 0.87424 0.0
C44 C 0.53955 0.70674 0.8336 0.0
O45 O 0.48117 0.67173 0.81693 0.0
O46 O 0.76505 0.57292 0.83792 0.0
O47 O 0.63009 0.5502 0.79294 0.0
O48 O 0.56327 0.58158 0.76919 0.0
C49 C 0.79288 0.56362 0.81002 0.0
O50 O 0.75784 0.52404 0.78011 0.0
O51 O 0.63557 0.42992 0.83928 0.0
C52 C 0.40788 0.53999 0.85011 0.0
O53 O 0.43982 0.56014 0.88533 0.0
O54 O 0.43833 0.54426 0.81939 0.0
O55 O 0.56017 0.53532 0.86196 0.0
O56 O 0.6503 0.55231 0.89174 0.0
O57 O 0.57402 0.68107 0.84026 0.0
C58 C 0.60475 0.56556 0.76338 0.0
C59 C 0.60053 0.55699 0.8922 0.0
H60 H 0.64793 0.10846 0.27362 0.0
H61 H 0.46192 0.94658 0.2392 0.0
H62 H 0.57693 0.07876 0.14894 0.0
H63 H 0.4296 0.01342 0.12387 0.0
C64 C 0.41762 0.9811 0.15034 0.0
O65 O 0.46887 0.97295 0.16167 0.0
H66 H 0.40706 0.00409 0.17508 0.0
C67 C 0.6113 0.07979 0.25022 0.0
C68 C 0.62 0.09963 0.21 0.0
C69 C 0.55463 0.02502 0.26101 0.0
C70 C 0.50595 0.98921 0.23119 0.0
C71 C 0.5144 0.00863 0.19073 0.0
C72 C 0.57106 0.06395 0.18022 0.0
H73 H 0.6611 0.66751 0.60231 0.0
H74 H 0.64669 0.48569 0.58099 0.0
H75 H 0.63859 0.59827 0.48085 0.0
H76 H 0.56353 0.45923 0.458 0.0
C77 C 0.57548 0.44486 0.48792 0.0
O78 O 0.63622 0.49204 0.50192 0.0
H79 H 0.53825 0.43904 0.50837 0.0
C80 C 0.6599 0.63287 0.5815 0.0
C81 C 0.65216 0.64027 0.53996 0.0
C82 C 0.65776 0.57732 0.59661 0.0
C83 C 0.6508 0.53002 0.56966 0.0
C84 C 0.64595 0.53872 0.52785 0.0
C85 C 0.64658 0.59383 0.513 0.0
H86 H 0.0022 0.59543 0.92502 0.0
H87 H 0.16252 0.56598 0.92401 0.0
H88 H 0.08202 0.59729 0.81244 0.0
H89 H 0.13762 0.50943 0.79914 0.0
C90 C 0.15635 0.51556 0.83124 0.0
O91 O 0.16966 0.57469 0.8453 0.0
H92 H 0.11855 0.47541 0.84842 0.0
C93 C 0.03877 0.59433 0.90846 0.0
C94 C 0.03763 0.59998 0.86623 0.0
C95 C 0.08361 0.58227 0.92943 0.0
C96 C 0.12831 0.57633 0.9081 0.0
C97 C 0.12775 0.58215 0.86595 0.0
C98 C 0.08271 0.59412 0.84509 0.0
H99 H 0.96165 0.40908 0.39583 0.0
H100 H 0.15144 0.57568 0.40815 0.0
H101 H 0.05447 0.47928 0.51413 0.0
H102 H 0.17218 0.63887 0.52846 0.0
C103 C 0.17729 0.636 0.49569 0.0
O104 O 0.16224 0.57399 0.48645 0.0
H105 H 0.14325 0.6478 0.47887 0.0
C106 C 0.00219 0.44403 0.41491 0.0
C107 C 0.00042 0.43867 0.45713 0.0
C108 C 0.05604 0.49313 0.39688 0.0
C109 C 0.10954 0.53691 0.42149 0.0
C110 C 0.10912 0.53208 0.46358 0.0
C111 C 0.05459 0.48287 0.48152 0.0
H112 H 0.62617 0.93932 0.75101 0.0
H113 H 0.63773 0.12298 0.75584 0.0
H114 H 0.62416 0.01863 0.86511 0.0
H115 H 0.56919 0.11042 0.87176 0.0
C116 C 0.58786 0.13377 0.84255 0.0
O117 O 0.63957 0.12719 0.83447 0.0
H118 H 0.54866 0.10945 0.81841 0.0
C119 C 0.62823 0.97802 0.76818 0.0
C120 C 0.62471 0.9725 0.81019 0.0
C121 C 0.63048 0.03075 0.74793 0.0
C122 C 0.63511 0.08135 0.77074 0.0
C123 C 0.63386 0.07748 0.81295 0.0
C124 C 0.62735 0.02246 0.83264 0.0
H125 H 0.65884 0.56082 0.06008 0.0
H126 H 0.48345 0.56264 0.06996 0.0
H127 H 0.57071 0.51923 0.17367 0.0
H128 H 0.41924 0.45089 0.17495 0.0
C129 C 0.41689 0.47995 0.14911 0.0
O130 O 0.47557 0.53589 0.14703 0.0
H131 H 0.40437 0.4501 0.12118 0.0
C132 C 0.6215 0.55709 0.07827 0.0
C133 C 0.62171 0.54096 0.11909 0.0
C134 C 0.57147 0.56407 0.06001 0.0
C135 C 0.52226 0.55699 0.08348 0.0
C136 C 0.5224 0.54136 0.12448 0.0
C137 C 0.57156 0.53246 0.14217 0.0
C138 C 0.28401 0.51917 0.12577 0.0
C139 C 0.27988 0.54319 0.16299 0.0
C140 C 0.32712 0.49738 0.12165 0.0
C141 C 0.36666 0.49766 0.15477 0.0
H142 H 0.25481 0.51848 0.09936 0.0
H143 H 0.33017 0.48101 0.09222 0.0
S144 S 0.37306 0.55316 0.25899 0.0
N145 N 0.31838 0.56433 0.23387 0.0
N146 N 0.39873 0.52283 0.22588 0.0
C147 C 0.36234 0.52046 0.19221 0.0
C148 C 0.31901 0.54319 0.19641 0.0
C149 C 0.88909 0.28709 0.51426 0.0
C150 C 0.82775 0.27281 0.49842 0.0
C151 C 0.94515 0.34244 0.50227 0.0
C152 C 0.94153 0.38576 0.47455 0.0
H153 H 0.89388 0.25435 0.53513 0.0
H154 H 0.99155 0.35015 0.51365 0.0
S155 S 0.79208 0.37633 0.43024 0.0
N156 N 0.76673 0.31038 0.45725 0.0
N157 N 0.87131 0.41473 0.43581 0.0
C158 C 0.88026 0.3739 0.4606 0.0
C159 C 0.8236 0.31735 0.4722 0.0
C160 C 0.63031 0.8208 0.83022 0.0
C161 C 0.56624 0.7768 0.83865 0.0
C162 C 0.65139 0.88636 0.82469 0.0
C163 C 0.60956 0.91011 0.8284 0.0
H164 H 0.66278 0.80382 0.82461 0.0
H165 H 0.69935 0.9179 0.81482 0.0
S166 S 0.44034 0.81637 0.85599 0.0
N167 N 0.46344 0.76286 0.85482 0.0
N168 N 0.5036 0.88599 0.84505 0.0
C169 C 0.5474 0.86768 0.84043 0.0
C170 C 0.52559 0.80097 0.8454 0.0
C171 C 0.70214 0.44626 0.1488 0.0
C172 C 0.76786 0.49278 0.14756 0.0
C173 C 0.6548 0.46326 0.14321 0.0
C174 C 0.67166 0.52719 0.13547 0.0
H175 H 0.68702 0.39592 0.15258 0.0
H176 H 0.60467 0.42559 0.14223 0.0
S177 S 0.83659 0.66771 0.13215 0.0
N178 N 0.84734 0.60614 0.14115 0.0
N179 N 0.75803 0.63776 0.12944 0.0
C180 C 0.73712 0.57462 0.13627 0.0
C181 C 0.7854 0.55752 0.1427 0.0
C182 C 0.35614 0.71474 0.47396 0.0
C183 C 0.37701 0.78088 0.47362 0.0
C184 C 0.29211 0.66814 0.48051 0.0
C185 C 0.24577 0.68566 0.48606 0.0
H186 H 0.39002 0.69876 0.47044 0.0
H187 H 0.27931 0.6182 0.48166 0.0
S188 S 0.27496 0.85211 0.48607 0.0
N189 N 0.34589 0.86133 0.47853 0.0
N190 N 0.22535 0.77387 0.49005 0.0
C191 C 0.2659 0.75157 0.4851 0.0
C192 C 0.33135 0.79908 0.47899 0.0
C193 C 0.6894 0.31567 0.86314 0.0
C194 C 0.64617 0.33728 0.85284 0.0
C195 C 0.67058 0.25053 0.85976 0.0
C196 C 0.60791 0.20423 0.84538 0.0
H197 H 0.73854 0.34936 0.87369 0.0
H198 H 0.70565 0.23652 0.86834 0.0
S199 S 0.47423 0.23414 0.81835 0.0
N200 N 0.53625 0.30597 0.83042 0.0
N201 N 0.50113 0.18367 0.82397 0.0
C202 C 0.56359 0.22474 0.83625 0.0
C203 C 0.58269 0.29115 0.83975 0.0
C204 C 0.55422 0.71994 0.52804 0.0
C205 C 0.60032 0.7841 0.5202 0.0
C206 C 0.57098 0.67257 0.53114 0.0
C207 C 0.63446 0.68789 0.52686 0.0
H208 H 0.50503 0.70638 0.53265 0.0
H209 H 0.53475 0.62414 0.53893 0.0
S210 S 0.77238 0.84741 0.50389 0.0
N211 N 0.71145 0.85978 0.50578 0.0
N212 N 0.74307 0.77006 0.51278 0.0
C213 C 0.68057 0.75099 0.51741 0.0
C214 C 0.66339 0.79936 0.51369 0.0
C215 C 0.88567 0.54849 0.80046 0.0
C216 C 0.86179 0.58483 0.81673 0.0
C217 C 0.94561 0.55735 0.81431 0.0
C218 C 0.98376 0.60314 0.84464 0.0
H219 H 0.85598 0.50963 0.77919 0.0
H220 H 0.95984 0.52483 0.80338 0.0
S221 S 0.94943 0.72014 0.89023 0.0
N222 N 0.88533 0.67517 0.85994 0.0
N223 N 0.99847 0.69238 0.88544 0.0
C224 C 0.96334 0.64415 0.85802 0.0
C225 C 0.90222 0.63489 0.84417 0.0
C226 C 0.27218 0.81486 0.16389 0.0
C227 C 0.2632 0.78469 0.12625 0.0
C228 C 0.32021 0.87914 0.17083 0.0
C229 C 0.3601 0.91602 0.14018 0.0
H230 H 0.24404 0.78788 0.18889 0.0
H231 H 0.32766 0.89953 0.20081 0.0
S232 S 0.35309 0.86192 0.03542 0.0
N233 N 0.29582 0.79803 0.05722 0.0
N234 N 0.386 0.9192 0.0704 0.0
C235 C 0.35007 0.88744 0.10199 0.0
C236 C 0.30146 0.82177 0.09494 0.0
C237 C 0.60529 0.31746 0.44681 0.0
C238 C 0.58675 0.2718 0.47791 0.0
C239 C 0.59983 0.37211 0.4499 0.0
C240 C 0.57496 0.38281 0.48394 0.0
H241 H 0.62588 0.31207 0.42024 0.0
H242 H 0.61633 0.40697 0.42581 0.0
S243 S 0.5177 0.27773 0.57324 0.0
N244 N 0.54082 0.24046 0.54354 0.0
N245 N 0.53109 0.34373 0.54923 0.0
C246 C 0.55537 0.3374 0.51502 0.0
C247 C 0.5609 0.28163 0.51195 0.0
C248 C 0.31785 0.53751 0.80739 0.0
C249 C 0.34071 0.52532 0.84473 0.0
C250 C 0.25741 0.53215 0.80286 0.0
C251 C 0.21718 0.51305 0.83521 0.0
H252 H 0.34794 0.55415 0.78192 0.0
H253 H 0.24272 0.54464 0.77416 0.0
S254 S 0.25231 0.47117 0.93821 0.0
N255 N 0.31711 0.49051 0.91403 0.0
N256 N 0.2029 0.47943 0.90519 0.0
C257 C 0.23843 0.4986 0.87223 0.0
C258 C 0.30027 0.50477 0.87703 0.0
C259 C 0.72548 0.2718 0.17841 0.0
C260 C 0.78676 0.2859 0.19378 0.0
C261 C 0.67203 0.20993 0.18146 0.0
C262 C 0.67832 0.16061 0.20044 0.0
H263 H 0.71848 0.30923 0.16494 0.0
H264 H 0.6251 0.20151 0.17073 0.0
S265 S 0.82973 0.17273 0.24303 0.0
N266 N 0.85189 0.24579 0.22647 0.0
N267 N 0.75131 0.12901 0.23252 0.0
C268 C 0.73999 0.17375 0.21455 0.0
C269 C 0.79436 0.23667 0.21118 0.0
C270 C 0.02926 0.48977 0.02592 0.0
C271 C 0.04069 0.53803 0.05366 0.0
C272 C 0.04823 0.50522 0.98623 0.0
C273 C 0.07789 0.56919 0.97302 0.0
H274 H 0.00404 0.43971 0.03468 0.0
H275 H 0.03646 0.46664 0.96514 0.0
S276 S 0.11822 0.71272 0.03401 0.0
N277 N 0.08456 0.65209 0.06563 0.0
N278 N 0.11879 0.68096 0.99061 0.0
C279 C 0.09104 0.61792 0.00076 0.0
C280 C 0.07279 0.60235 0.04129 0.0
C281 C 0.59747 0.99405 0.36666 0.0
C282 C 0.56251 0.01201 0.38999 0.0
C283 C 0.59064 0.99311 0.32443 0.0
C284 C 0.54761 0.0086 0.30414 0.0
H285 H 0.6333 0.98449 0.38091 0.0
H286 H 0.62178 0.98371 0.30747 0.0
S287 S 0.43786 0.04903 0.35091 0.0
N288 N 0.47819 0.03867 0.38962 0.0
N289 N 0.465 0.036 0.30995 0.0
C290 C 0.5087 0.02155 0.32692 0.0
C291 C 0.51626 0.02349 0.36998 0.0
C292 C 0.57362 0.52261 0.69313 0.0
C293 C 0.62176 0.56283 0.72212 0.0
C294 C 0.58749 0.52311 0.65276 0.0
C295 C 0.64958 0.56488 0.6401 0.0
H296 H 0.52465 0.49172 0.70155 0.0
H297 H 0.54855 0.49366 0.63084 0.0
S298 S 0.79254 0.67823 0.70467 0.0
N299 N 0.73433 0.64303 0.73614 0.0
N300 N 0.75981 0.64613 0.65966 0.0
C301 C 0.69852 0.60388 0.66905 0.0
C302 C 0.68472 0.60227 0.71032 0.0
C303 C 0.66014 0.08627 0.6389 0.0
C304 C 0.61507 0.03082 0.61665 0.0
C305 C 0.66495 0.08614 0.68132 0.0
C306 C 0.62437 0.03075 0.703 0.0
H307 H 0.69262 0.12984 0.62344 0.0
H308 H 0.70124 0.12943 0.69722 0.0
S309 S 0.49332 0.87543 0.65893 0.0
N310 N 0.52667 0.9203 0.61945 0.0
N311 N 0.53384 0.92077 0.69889 0.0
C312 C 0.57778 0.97564 0.68102 0.0
C313 C 0.57363 0.97547 0.63795 0.0
C314 C 0.63154 0.61872 0.9564 0.0
C315 C 0.58337 0.56929 0.93143 0.0
C316 C 0.62453 0.62058 -0.00221 0.0
C317 C 0.56925 0.57277 0.01569 0.0
H318 H 0.67685 0.65364 0.94435 0.0
H319 H 0.66458 0.65696 0.01645 0.0
S320 S 0.42688 0.43611 0.96288 0.0
N321 N 0.47662 0.47402 0.92691 0.0
N322 N 0.4632 0.4778 0.00484 0.0
C323 C 0.51845 0.52617 0.99052 0.0
C324 C 0.52563 0.52426 0.94827 0.0
C325 C 0.00236 0.5041 0.28808 0.0
C326 C 0.05521 0.51498 0.26685 0.0
C327 C 0.00272 0.49647 0.33015 0.0
C328 C 0.05569 0.49889 0.35228 0.0
H329 H 0.96139 0.50347 0.27232 0.0
H330 H 0.96187 0.4901 0.34559 0.0
S331 S 0.20162 0.51657 0.30997 0.0
N332 N 0.1592 0.52163 0.2705 0.0
N333 N 0.15918 0.50625 0.34929 0.0
C334 C 0.10748 0.50686 0.33111 0.0
C335 C 0.10735 0.51505 0.28846 0.0
loop_
_geom_bond_atom_site_label_1
_geom_bond_atom_site_label_2
_geom_bond_distance
_geom_bond_site_symmetry_2
_ccdc_geom_bond_type
Zn0 O6 1.969 . S
Zn0 O7 1.965 . S
Zn0 O11 2.024 . S
Zn0 O16 1.969 . S
Zn1 O8 1.969 . S
Zn1 O14 1.969 . S
Zn1 O15 1.965 . S
Zn1 O17 2.024 . S
C2 O3 1.229 . S
C2 O11 1.058 . S
O3 C2 1.229 . S
C4 O5 1.229 . S
C4 O17 1.058 . S
O5 C4 1.229 . S
O6 Zn0 1.969 . S
O6 C9 1.267 . S
O7 Zn0 1.965 . S
O7 C18 1.260 . S
O8 Zn1 1.969 . S
O8 C18 1.258 1_655 S
C9 O6 1.267 . S
C9 O10 1.228 . S
O10 C9 1.228 . S
O11 Zn0 2.024 . S
O11 C2 1.058 . S
C12 O13 1.228 . S
C12 O14 1.267 . S
O13 C12 1.228 . S
O14 Zn1 1.969 . S
O14 C12 1.267 . S
O15 Zn1 1.965 . S
O15 C19 1.260 1_655 S
O16 Zn0 1.969 . S
O16 C19 1.258 . S
O17 Zn1 2.024 . S
O17 C4 1.058 . S
C18 O7 1.260 . S
C18 O8 1.258 1_455 S
C19 O15 1.260 1_455 S
C19 O16 1.258 . S
Zn20 O26 1.969 . S
Zn20 O27 1.965 . S
Zn20 O31 2.024 . S
Zn20 O36 1.969 . S
Zn21 O28 1.969 . S
Zn21 O34 1.969 . S
Zn21 O35 1.965 . S
Zn21 O37 2.024 . S
C22 O23 1.229 . S
C22 O31 1.058 . S
O23 C22 1.229 . S
C24 O25 1.229 . S
C24 O37 1.058 . S
O25 C24 1.229 . S
O26 Zn20 1.969 . S
O26 C29 1.267 . S
O27 Zn20 1.965 . S
O27 C38 1.260 . S
O28 Zn21 1.969 . S
O28 C38 1.258 1_565 S
C29 O26 1.267 . S
C29 O30 1.228 . S
O30 C29 1.228 . S
O31 Zn20 2.024 . S
O31 C22 1.058 . S
C32 O33 1.228 . S
C32 O34 1.267 . S
O33 C32 1.228 . S
O34 Zn21 1.969 . S
O34 C32 1.267 . S
O35 Zn21 1.965 . S
O35 C39 1.260 1_565 S
O36 Zn20 1.969 . S
O36 C39 1.258 . S
O37 Zn21 2.024 . S
O37 C24 1.058 . S
C38 O27 1.260 . S
C38 O28 1.258 1_545 S
C39 O35 1.260 1_545 S
C39 O36 1.258 . S
Zn40 O46 1.969 . S
Zn40 O47 1.965 . S
Zn40 O51 2.024 . S
Zn40 O56 1.969 . S
Zn41 O48 1.969 . S
Zn41 O54 1.969 . S
Zn41 O55 1.965 . S
Zn41 O57 2.024 . S
C42 O43 1.229 . S
C42 O51 1.058 . S
O43 C42 1.229 . S
C44 O45 1.229 . S
C44 O57 1.058 . S
O45 C44 1.229 . S
O46 Zn40 1.969 . S
O46 C49 1.267 . S
O47 Zn40 1.965 . S
O47 C58 1.260 . S
O48 Zn41 1.969 . S
O48 C58 1.258 . S
C49 O46 1.267 . S
C49 O50 1.228 . S
O50 C49 1.228 . S
O51 Zn40 2.024 . S
O51 C42 1.058 . S
C52 O53 1.228 . S
C52 O54 1.267 . S
O53 C52 1.228 . S
O54 Zn41 1.969 . S
O54 C52 1.267 . S
O55 Zn41 1.965 . S
O55 C59 1.260 . S
O56 Zn40 1.969 . S
O56 C59 1.258 . S
O57 Zn41 2.024 . S
O57 C44 1.058 . S
C58 O47 1.260 . S
C58 O48 1.258 . S
C59 O55 1.260 . S
C59 O56 1.258 . S
H60 C67 0.929 . S
H61 C70 0.930 1_565 S
H62 C72 0.929 . S
H63 C64 0.969 . S
C64 H63 0.969 . S
C64 O65 1.550 . S
C64 H66 0.973 . S
O65 C64 1.550 . S
O65 C71 1.412 1_565 S
H66 C64 0.973 . S
C67 H60 0.929 . S
C67 C68 1.400 . S
C67 C69 1.364 . S
C68 C67 1.400 . S
C68 C72 1.377 . S
C69 C67 1.364 . S
C69 C70 1.374 . S
C70 H61 0.930 1_545 S
C70 C69 1.374 . S
C70 C71 1.383 . S
C71 O65 1.412 1_545 S
C71 C70 1.383 . S
C71 C72 1.394 . S
C72 H62 0.929 . S
C72 C68 1.377 . S
C72 C71 1.394 . S
H73 C80 0.929 . S
H74 C83 0.930 . S
H75 C85 0.929 . S
H76 C77 0.969 . S
C77 H76 0.969 . S
C77 O78 1.550 . S
C77 H79 0.973 . S
O78 C77 1.550 . S
O78 C84 1.412 . S
H79 C77 0.973 . S
C80 H73 0.929 . S
C80 C81 1.400 . S
C80 C82 1.364 . S
C81 C80 1.400 . S
C81 C85 1.377 . S
C82 C80 1.364 . S
C82 C83 1.374 . S
C83 H74 0.930 . S
C83 C82 1.374 . S
C83 C84 1.383 . S
C84 O78 1.412 . S
C84 C83 1.383 . S
C84 C85 1.394 . S
C85 H75 0.929 . S
C85 C81 1.377 . S
C85 C84 1.394 . S
H86 C93 0.929 1_655 S
H87 C96 0.930 . S
H88 C98 0.929 . S
H89 C90 0.969 . S
C90 H89 0.969 . S
C90 O91 1.550 . S
C90 H92 0.973 . S
O91 C90 1.550 . S
O91 C97 1.412 . S
H92 C90 0.973 . S
C93 H86 0.929 1_455 S
C93 C94 1.400 . S
C93 C95 1.364 . S
C94 C93 1.400 . S
C94 C98 1.377 . S
C95 C93 1.364 . S
C95 C96 1.374 . S
C96 H87 0.930 . S
C96 C95 1.374 . S
C96 C97 1.383 . S
C97 O91 1.412 . S
C97 C96 1.383 . S
C97 C98 1.394 . S
C98 H88 0.929 . S
C98 C94 1.377 . S
C98 C97 1.394 . S
H99 C106 0.929 1_655 S
H100 C109 0.930 . S
H101 C111 0.929 . S
H102 C103 0.969 . S
C103 H102 0.969 . S
C103 O104 1.550 . S
C103 H105 0.973 . S
O104 C103 1.550 . S
O104 C110 1.412 . S
H105 C103 0.973 . S
C106 H99 0.929 1_455 S
C106 C107 1.400 . S
C106 C108 1.364 . S
C107 C106 1.400 . S
C107 C111 1.377 . S
C108 C106 1.364 . S
C108 C109 1.374 . S
C109 H100 0.930 . S
C109 C108 1.374 . S
C109 C110 1.383 . S
C110 O104 1.412 . S
C110 C109 1.383 . S
C110 C111 1.394 . S
C111 H101 0.929 . S
C111 C107 1.377 . S
C111 C110 1.394 . S
H112 C119 0.929 . S
H113 C122 0.930 . S
H114 C124 0.929 . S
H115 C116 0.969 . S
C116 H115 0.969 . S
C116 O117 1.550 . S
C116 H118 0.973 . S
O117 C116 1.550 . S
O117 C123 1.412 . S
H118 C116 0.973 . S
C119 H112 0.929 . S
C119 C120 1.400 . S
C119 C121 1.364 1_565 S
C120 C119 1.400 . S
C120 C124 1.377 1_565 S
C121 C119 1.364 1_545 S
C121 C122 1.374 . S
C122 H113 0.930 . S
C122 C121 1.374 . S
C122 C123 1.383 . S
C123 O117 1.412 . S
C123 C122 1.383 . S
C123 C124 1.394 . S
C124 H114 0.929 . S
C124 C120 1.377 1_545 S
C124 C123 1.394 . S
H125 C132 0.929 . S
H126 C135 0.930 . S
H127 C137 0.929 . S
H128 C129 0.969 . S
C129 H128 0.969 . S
C129 O130 1.550 . S
C129 H131 0.973 . S
O130 C129 1.550 . S
O130 C136 1.412 . S
H131 C129 0.973 . S
C132 H125 0.929 . S
C132 C133 1.400 . S
C132 C134 1.364 . S
C133 C132 1.400 . S
C133 C137 1.377 . S
C134 C132 1.364 . S
C134 C135 1.374 . S
C135 H126 0.930 . S
C135 C134 1.374 . S
C135 C136 1.383 . S
C136 O130 1.412 . S
C136 C135 1.383 . S
C136 C137 1.394 . S
C137 H127 0.929 . S
C137 C133 1.377 . S
C137 C136 1.394 . S
C138 C139 1.369 . S
C138 C140 1.419 . S
C138 H142 0.930 . S
C139 C138 1.369 . S
C139 C148 1.429 . S
C140 C138 1.419 . S
C140 C141 1.363 . S
C140 H143 0.929 . S
C141 C140 1.363 . S
C141 C147 1.428 . S
H142 C138 0.930 . S
H143 C140 0.929 . S
S144 N145 1.613 . S
S144 N146 1.610 . S
N145 S144 1.613 . S
N145 C148 1.350 . S
N146 S144 1.610 . S
N146 C147 1.351 . S
C147 C141 1.428 . S
C147 N146 1.351 . S
C147 C148 1.434 . S
C148 C139 1.429 . S
C148 N145 1.350 . S
C148 C147 1.434 . S
C149 C150 1.369 . S
C149 C151 1.419 . S
C149 H153 0.930 . S
C150 C149 1.369 . S
C150 C159 1.429 . S
C151 C149 1.419 . S
C151 C152 1.363 . S
C151 H154 0.929 1_655 S
C152 C151 1.363 . S
C152 C158 1.428 . S
H153 C149 0.930 . S
H154 C151 0.929 1_455 S
S155 N156 1.613 . S
S155 N157 1.610 . S
N156 S155 1.613 . S
N156 C159 1.350 . S
N157 S155 1.610 . S
N157 C158 1.351 . S
C158 C152 1.428 . S
C158 N157 1.351 . S
C158 C159 1.434 . S
C159 C150 1.429 . S
C159 N156 1.350 . S
C159 C158 1.434 . S
C160 C161 1.369 . S
C160 C162 1.419 . S
C160 H164 0.930 . S
C161 C160 1.369 . S
C161 C170 1.429 . S
C162 C160 1.419 . S
C162 C163 1.363 . S
C162 H165 0.929 . S
C163 C162 1.363 . S
C163 C169 1.428 . S
H164 C160 0.930 . S
H165 C162 0.929 . S
S166 N167 1.613 . S
S166 N168 1.610 . S
N167 S166 1.613 . S
N167 C170 1.350 . S
N168 S166 1.610 . S
N168 C169 1.351 . S
C169 C163 1.428 . S
C169 N168 1.351 . S
C169 C170 1.434 . S
C170 C161 1.429 . S
C170 N167 1.350 . S
C170 C169 1.434 . S
C171 C172 1.369 . S
C171 C173 1.419 . S
C171 H175 0.930 . S
C172 C171 1.369 . S
C172 C181 1.429 . S
C173 C171 1.419 . S
C173 C174 1.363 . S
C173 H176 0.929 . S
C174 C173 1.363 . S
C174 C180 1.428 . S
H175 C171 0.930 . S
H176 C173 0.929 . S
S177 N178 1.613 . S
S177 N179 1.610 . S
N178 S177 1.613 . S
N178 C181 1.350 . S
N179 S177 1.610 . S
N179 C180 1.351 . S
C180 C174 1.428 . S
C180 N179 1.351 . S
C180 C181 1.434 . S
C181 C172 1.429 . S
C181 N178 1.350 . S
C181 C180 1.434 . S
C182 C183 1.369 . S
C182 C184 1.419 . S
C182 H186 0.930 . S
C183 C182 1.369 . S
C183 C192 1.429 . S
C184 C182 1.419 . S
C184 C185 1.363 . S
C184 H187 0.929 . S
C185 C184 1.363 . S
C185 C191 1.428 . S
H186 C182 0.930 . S
H187 C184 0.929 . S
S188 N189 1.613 . S
S188 N190 1.610 . S
N189 S188 1.613 . S
N189 C192 1.350 . S
N190 S188 1.610 . S
N190 C191 1.351 . S
C191 C185 1.428 . S
C191 N190 1.351 . S
C191 C192 1.434 . S
C192 C183 1.429 . S
C192 N189 1.350 . S
C192 C191 1.434 . S
C193 C194 1.369 . S
C193 C195 1.419 . S
C193 H197 0.930 . S
C194 C193 1.369 . S
C194 C203 1.429 . S
C195 C193 1.419 . S
C195 C196 1.363 . S
C195 H198 0.929 . S
C196 C195 1.363 . S
C196 C202 1.428 . S
H197 C193 0.930 . S
H198 C195 0.929 . S
S199 N200 1.613 . S
S199 N201 1.610 . S
N200 S199 1.613 . S
N200 C203 1.350 . S
N201 S199 1.610 . S
N201 C202 1.351 . S
C202 C196 1.428 . S
C202 N201 1.351 . S
C202 C203 1.434 . S
C203 C194 1.429 . S
C203 N200 1.350 . S
C203 C202 1.434 . S
C204 C205 1.369 . S
C204 C206 1.419 . S
C204 H208 0.930 . S
C205 C204 1.369 . S
C205 C214 1.429 . S
C206 C204 1.419 . S
C206 C207 1.363 . S
C206 H209 0.929 . S
C207 C206 1.363 . S
C207 C213 1.428 . S
H208 C204 0.930 . S
H209 C206 0.929 . S
S210 N211 1.613 . S
S210 N212 1.610 . S
N211 S210 1.613 . S
N211 C214 1.350 . S
N212 S210 1.610 . S
N212 C213 1.351 . S
C213 C207 1.428 . S
C213 N212 1.351 . S
C213 C214 1.434 . S
C214 C205 1.429 . S
C214 N211 1.350 . S
C214 C213 1.434 . S
C215 C216 1.369 . S
C215 C217 1.419 . S
C215 H219 0.930 . S
C216 C215 1.369 . S
C216 C225 1.429 . S
C217 C215 1.419 . S
C217 C218 1.363 . S
C217 H220 0.929 . S
C218 C217 1.363 . S
C218 C224 1.428 . S
H219 C215 0.930 . S
H220 C217 0.929 . S
S221 N222 1.613 . S
S221 N223 1.610 . S
N222 S221 1.613 . S
N222 C225 1.350 . S
N223 S221 1.610 . S
N223 C224 1.351 . S
C224 C218 1.428 . S
C224 N223 1.351 . S
C224 C225 1.434 . S
C225 C216 1.429 . S
C225 N222 1.350 . S
C225 C224 1.434 . S
C226 C227 1.369 . S
C226 C228 1.419 . S
C226 H230 0.930 . S
C227 C226 1.369 . S
C227 C236 1.429 . S
C228 C226 1.419 . S
C228 C229 1.363 . S
C228 H231 0.929 . S
C229 C228 1.363 . S
C229 C235 1.428 . S
H230 C226 0.930 . S
H231 C228 0.929 . S
S232 N233 1.613 . S
S232 N234 1.610 . S
N233 S232 1.613 . S
N233 C236 1.350 . S
N234 S232 1.610 . S
N234 C235 1.351 . S
C235 C229 1.428 . S
C235 N234 1.351 . S
C235 C236 1.434 . S
C236 C227 1.429 . S
C236 N233 1.350 . S
C236 C235 1.434 . S
C237 C238 1.369 . S
C237 C239 1.419 . S
C237 H241 0.930 . S
C238 C237 1.369 . S
C238 C247 1.429 . S
C239 C237 1.419 . S
C239 C240 1.363 . S
C239 H242 0.929 . S
C240 C239 1.363 . S
C240 C246 1.428 . S
H241 C237 0.930 . S
H242 C239 0.929 . S
S243 N244 1.613 . S
S243 N245 1.610 . S
N244 S243 1.613 . S
N244 C247 1.350 . S
N245 S243 1.610 . S
N245 C246 1.351 . S
C246 C240 1.428 . S
C246 N245 1.351 . S
C246 C247 1.434 . S
C247 C238 1.429 . S
C247 N244 1.350 . S
C247 C246 1.434 . S
C248 C249 1.369 . S
C248 C250 1.419 . S
C248 H252 0.930 . S
C249 C248 1.369 . S
C249 C258 1.429 . S
C250 C248 1.419 . S
C250 C251 1.363 . S
C250 H253 0.929 . S
C251 C250 1.363 . S
C251 C257 1.428 . S
H252 C248 0.930 . S
H253 C250 0.929 . S
S254 N255 1.613 . S
S254 N256 1.610 . S
N255 S254 1.613 . S
N255 C258 1.350 . S
N256 S254 1.610 . S
N256 C257 1.351 . S
C257 C251 1.428 . S
C257 N256 1.351 . S
C257 C258 1.434 . S
C258 C249 1.429 . S
C258 N255 1.350 . S
C258 C257 1.434 . S
C259 C260 1.369 . S
C259 C261 1.419 . S
C259 H263 0.930 . S
C260 C259 1.369 . S
C260 C269 1.429 . S
C261 C259 1.419 . S
C261 C262 1.363 . S
C261 H264 0.929 . S
C262 C261 1.363 . S
C262 C268 1.428 . S
H263 C259 0.930 . S
H264 C261 0.929 . S
S265 N266 1.613 . S
S265 N267 1.610 . S
N266 S265 1.613 . S
N266 C269 1.350 . S
N267 S265 1.610 . S
N267 C268 1.351 . S
C268 C262 1.428 . S
C268 N267 1.351 . S
C268 C269 1.434 . S
C269 C260 1.429 . S
C269 N266 1.350 . S
C269 C268 1.434 . S
C270 C271 1.369 . S
C270 C272 1.419 1_554 S
C270 H274 0.930 . S
C271 C270 1.369 . S
C271 C280 1.429 . S
C272 C270 1.419 1_556 S
C272 C273 1.363 . S
C272 H275 0.929 . S
C273 C272 1.363 . S
C273 C279 1.428 . S
H274 C270 0.930 . S
H275 C272 0.929 . S
S276 N277 1.611 . S
S276 N278 1.605 1_654 S
N277 S276 1.611 . S
N277 C280 1.350 1_655 S
N278 S276 1.605 1_456 S
N278 C279 1.351 . S
C279 C273 1.428 . S
C279 N278 1.351 . S
C279 C280 1.434 1_556 S
C280 C271 1.429 . S
C280 N277 1.350 1_455 S
C280 C279 1.434 1_554 S
C281 C282 1.369 . S
C281 C283 1.419 . S
C281 H285 0.930 . S
C282 C281 1.369 . S
C282 C291 1.429 . S
C283 C281 1.419 . S
C283 C284 1.363 . S
C283 H286 0.929 . S
C284 C283 1.363 . S
C284 C290 1.428 . S
H285 C281 0.930 . S
H286 C283 0.929 . S
S287 N288 1.613 . S
S287 N289 1.610 . S
N288 S287 1.613 . S
N288 C291 1.350 1_565 S
N289 S287 1.610 . S
N289 C290 1.351 1_565 S
C290 C284 1.428 . S
C290 N289 1.351 1_545 S
C290 C291 1.434 . S
C291 C282 1.429 . S
C291 N288 1.350 1_545 S
C291 C290 1.434 . S
C292 C293 1.369 . S
C292 C294 1.419 . S
C292 H296 0.930 . S
C293 C292 1.369 . S
C293 C302 1.429 . S
C294 C292 1.419 . S
C294 C295 1.363 . S
C294 H297 0.929 . S
C295 C294 1.363 . S
C295 C301 1.428 . S
H296 C292 0.930 . S
H297 C294 0.929 . S
S298 N299 1.613 . S
S298 N300 1.610 . S
N299 S298 1.613 . S
N299 C302 1.350 . S
N300 S298 1.610 . S
N300 C301 1.351 . S
C301 C295 1.428 . S
C301 N300 1.351 . S
C301 C302 1.434 . S
C302 C293 1.429 . S
C302 N299 1.350 . S
C302 C301 1.434 . S
C303 C304 1.369 . S
C303 C305 1.419 . S
C303 H307 0.930 . S
C304 C303 1.369 . S
C304 C313 1.429 1_545 S
C305 C303 1.419 . S
C305 C306 1.363 . S
C305 H308 0.929 . S
C306 C305 1.363 . S
C306 C312 1.428 1_545 S
H307 C303 0.930 . S
H308 C305 0.929 . S
S309 N310 1.613 . S
S309 N311 1.610 . S
N310 S309 1.613 . S
N310 C313 1.350 . S
N311 S309 1.610 . S
N311 C312 1.351 . S
C312 C306 1.428 1_565 S
C312 N311 1.351 . S
C312 C313 1.434 . S
C313 C304 1.429 1_565 S
C313 N310 1.350 . S
C313 C312 1.434 . S
C314 C315 1.369 . S
C314 C316 1.419 1_556 S
C314 H318 0.930 . S
C315 C314 1.369 . S
C315 C324 1.429 . S
C316 C314 1.419 1_554 S
C316 C317 1.363 . S
C316 H319 0.929 . S
C317 C316 1.363 . S
C317 C323 1.428 1_554 S
H318 C314 0.930 . S
H319 C316 0.929 . S
S320 N321 1.613 . S
S320 N322 1.610 1_556 S
N321 S320 1.613 . S
N321 C324 1.350 . S
N322 S320 1.610 1_554 S
N322 C323 1.351 1_554 S
C323 C317 1.428 1_556 S
C323 N322 1.351 1_556 S
C323 C324 1.434 . S
C324 C315 1.429 . S
C324 N321 1.350 . S
C324 C323 1.434 . S
C325 C326 1.369 1_655 S
C325 C327 1.419 . S
C325 H329 0.930 . S
C326 C325 1.369 1_455 S
C326 C335 1.429 . S
C327 C325 1.419 . S
C327 C328 1.363 1_655 S
C327 H330 0.929 . S
C328 C327 1.363 1_455 S
C328 C334 1.428 . S
H329 C325 0.930 . S
H330 C327 0.929 . S
S331 N332 1.613 . S
S331 N333 1.610 . S
N332 S331 1.613 . S
N332 C335 1.350 . S
N333 S331 1.610 . S
N333 C334 1.351 . S
C334 C328 1.428 . S
C334 N333 1.351 . S
C334 C335 1.434 . S
C335 C326 1.429 . S
C335 N332 1.350 . S
C335 C334 1.434 . S
C139 C2 1.469 . S
C141 C129 1.454 . S
C150 C22 1.351 . S
C152 C107 1.479 1_655 S
C161 C44 1.364 . S
C163 C120 1.473 . S
C172 C4 1.470 . S
C174 C133 1.547 . S
C185 C103 1.536 . S
C183 C24 1.621 . S
C196 C116 1.517 . S
C194 C42 1.573 . S
C205 C32 1.257 . S
C207 C81 1.277 . S
C216 C49 1.204 . S
C218 C94 1.232 1_655 S
C227 C9 1.354 . S
C229 C64 1.287 . S
C240 C77 1.262 . S
C238 C29 1.327 . S
C251 C90 1.266 . S
C249 C52 1.345 . S
C260 C12 1.228 . S
C262 C68 1.272 . S
C273 C95 1.494 . S
C271 C18 1.501 . S
C282 C38 1.496 . S
C284 C69 1.534 . S
C293 C58 1.495 . S
C295 C82 1.504 . S
C306 C121 1.590 . S
C304 C39 1.573 . S
C317 C134 1.535 . S
C315 C59 1.504 . S
C326 C19 1.523 . S
C328 C108 1.570 . S
