# Generated by pormake.
# Topology zzz, (3,6)-cn, num edge types: 1
# Building blocks:
#     Node 0, Type 0, BuildingBlock: BETDIP_clean_linker_0, # of connection points: 3
#     Node 1, Type 0, BuildingBlock: BETDIP_clean_linker_0, # of connection points: 3
#     Node 2, Type 0, BuildingBlock: BETDIP_clean_linker_0, # of connection points: 3
#     Node 3, Type 0, BuildingBlock: BETDIP_clean_linker_0, # of connection points: 3
#     Node 4, Type 0, BuildingBlock: BETDIP_clean_linker_0, # of connection points: 3
#     Node 5, Type 0, BuildingBlock: BETDIP_clean_linker_0, # of connection points: 3
#     Node 6, Type 0, BuildingBlock: BETDIP_clean_linker_0, # of connection points: 3
#     Node 7, Type 0, BuildingBlock: BETDIP_clean_linker_0, # of connection points: 3
#     Node 8, Type 1, BuildingBlock: KUMBOL_clean_sbu_1, # of connection points: 6
#     Node 9, Type 1, BuildingBlock: KUMBOL_clean_sbu_1, # of connection points: 6
#     Node 10, Type 1, BuildingBlock: KUMBOL_clean_sbu_1, # of connection points: 6
#     Node 11, Type 1, BuildingBlock: KUMBOL_clean_sbu_1, # of connection points: 6
#     Edge 12, Type (0, 1), BuildingBlock: XIVTED_clean_linker_0, # of connection points: 2
#     Edge 13, Type (0, 1), BuildingBlock: XIVTED_clean_linker_0, # of connection points: 2
#     Edge 14, Type (0, 1), BuildingBlock: XIVTED_clean_linker_0, # of connection points: 2
#     Edge 15, Type (0, 1), BuildingBlock: XIVTED_clean_linker_0, # of connection points: 2
#     Edge 16, Type (0, 1), BuildingBlock: XIVTED_clean_linker_0, # of connection points: 2
#     Edge 17, Type (0, 1), BuildingBlock: XIVTED_clean_linker_0, # of connection points: 2
#     Edge 18, Type (0, 1), BuildingBlock: XIVTED_clean_linker_0, # of connection points: 2
#     Edge 19, Type (0, 1), BuildingBlock: XIVTED_clean_linker_0, # of connection points: 2
#     Edge 20, Type (0, 1), BuildingBlock: XIVTED_clean_linker_0, # of connection points: 2
#     Edge 21, Type (0, 1), BuildingBlock: XIVTED_clean_linker_0, # of connection points: 2
#     Edge 22, Type (0, 1), BuildingBlock: XIVTED_clean_linker_0, # of connection points: 2
#     Edge 23, Type (0, 1), BuildingBlock: XIVTED_clean_linker_0, # of connection points: 2
#     Edge 24, Type (0, 1), BuildingBlock: XIVTED_clean_linker_0, # of connection points: 2
#     Edge 25, Type (0, 1), BuildingBlock: XIVTED_clean_linker_0, # of connection points: 2
#     Edge 26, Type (0, 1), BuildingBlock: XIVTED_clean_linker_0, # of connection points: 2
#     Edge 27, Type (0, 1), BuildingBlock: XIVTED_clean_linker_0, # of connection points: 2
#     Edge 28, Type (0, 1), BuildingBlock: XIVTED_clean_linker_0, # of connection points: 2
#     Edge 29, Type (0, 1), BuildingBlock: XIVTED_clean_linker_0, # of connection points: 2
#     Edge 30, Type (0, 1), BuildingBlock: XIVTED_clean_linker_0, # of connection points: 2
#     Edge 31, Type (0, 1), BuildingBlock: XIVTED_clean_linker_0, # of connection points: 2
#     Edge 32, Type (0, 1), BuildingBlock: XIVTED_clean_linker_0, # of connection points: 2
#     Edge 33, Type (0, 1), BuildingBlock: XIVTED_clean_linker_0, # of connection points: 2
#     Edge 34, Type (0, 1), BuildingBlock: XIVTED_clean_linker_0, # of connection points: 2
#     Edge 35, Type (0, 1), BuildingBlock: XIVTED_clean_linker_0, # of connection points: 2
# Relax obj value: 0.181
# Max RMSD: 0.105
# Mean RMSD: 0.081
data_MOF--net-zzz--node1-KUMBOL_clean_sbu_1--node2-BETDIP_clean_linker_0--edge1-XIVTED_clean_linker_0
_symmetry_space_group_name_H-M    P1
_symmetry_Int_Tables_number       1
_symmetry_cell_setting            triclinic
loop_
_symmetry_equiv_pos_as_xyz
'x, y, z'
_cell_length_a     50.699089
_cell_length_b     50.756079
_cell_length_c     15.724208
_cell_angle_alpha  90.009125
_cell_angle_beta   90.342593
_cell_angle_gamma 90.379997
loop_
_atom_site_label
_atom_site_type_symbol
_atom_site_fract_x
_atom_site_fract_y
_atom_site_fract_z
_atom_type_partial_charge
H0 H 0.76619 0.52935 0.38383 0.0
H1 H 0.75241 0.56606 0.14053 0.0
H2 H 0.83144 0.55816 0.23616 0.0
H3 H 0.71218 0.58005 0.24234 0.0
C4 C 0.70856 0.55913 0.23248 0.0
C5 C 0.77361 0.53961 0.32846 0.0
C6 C 0.80125 0.54437 0.32028 0.0
C7 C 0.75572 0.54779 0.26325 0.0
C8 C 0.76583 0.56042 0.19109 0.0
C9 C 0.79301 0.56352 0.17929 0.0
C10 C 0.81034 0.5562 0.24517 0.0
N11 N 0.7281 0.5412 0.26426 0.0
H12 H 1.00339 0.76744 0.38085 0.0
H13 H 0.98493 0.74883 0.12004 0.0
H14 H 0.98812 0.82962 0.20055 0.0
H15 H 0.95889 0.71305 0.23128 0.0
C16 C 0.97971 0.70814 0.22857 0.0
C17 C 0.99823 0.77382 0.31722 0.0
C18 C 0.99463 0.8012 0.29999 0.0
C19 C 0.99412 0.75471 0.25174 0.0
C20 C 0.98758 0.76332 0.17004 0.0
C21 C 0.98637 0.7901 0.15012 0.0
C22 C 0.98904 0.80881 0.21568 0.0
N23 N 0.99794 0.72698 0.26418 0.0
H24 H 0.77312 1.00579 0.36596 0.0
H25 H 0.77437 0.96664 0.12169 0.0
H26 H 0.70388 0.96598 0.2706 0.0
H27 H 0.81889 0.95377 0.20481 0.0
C28 C 0.82321 0.97464 0.19675 0.0
C29 C 0.76341 0.99396 0.31761 0.0
C30 C 0.7367 0.98589 0.32876 0.0
C31 C 0.77766 0.9859 0.24405 0.0
C32 C 0.76436 0.97141 0.18038 0.0
C33 C 0.73788 0.96415 0.19001 0.0
C34 C 0.72466 0.97089 0.26468 0.0
N35 N 0.8048 0.9931 0.23122 0.0
H36 H 0.52556 0.77584 0.34503 0.0
H37 H 0.5702 0.79193 0.11836 0.0
H38 H 0.57234 0.7149 0.2309 0.0
H39 H 0.57428 0.83411 0.21884 0.0
C40 C 0.55375 0.83519 0.19867 0.0
C41 C 0.5391 0.76941 0.29639 0.0
C42 C 0.54949 0.7433 0.29918 0.0
C43 C 0.54712 0.78737 0.23129 0.0
C44 C 0.56452 0.77855 0.16881 0.0
C45 C 0.57292 0.75237 0.16595 0.0
C46 C 0.56607 0.73527 0.23278 0.0
N47 N 0.53687 0.81367 0.22348 0.0
H48 H 0.27426 0.49822 1.00581 0.0
H49 H 0.29023 0.49972 0.27522 0.0
H50 H 0.21014 0.49871 0.18535 0.0
H51 H 0.32004 0.53963 0.17389 0.0
C52 C 0.32904 0.52028 0.16988 0.0
C53 C 0.26723 0.49818 0.07067 0.0
C54 C 0.23951 0.49797 0.08695 0.0
C55 C 0.28571 0.49899 0.13967 0.0
C56 C 0.27624 0.49928 0.22277 0.0
C57 C 0.24926 0.49915 0.23961 0.0
C58 C 0.23109 0.49819 0.17193 0.0
N59 N 0.31378 0.50002 0.12851 0.0
H60 H 0.03441 0.27046 0.02237 0.0
H61 H 0.06784 0.28378 0.27121 0.0
H62 H 0.06351 0.20526 0.16996 0.0
H63 H 0.01283 0.302 0.24337 0.0
C64 C 0.02629 0.31652 0.21648 0.0
C65 C 0.0444 0.26301 0.07836 0.0
C66 C 0.04945 0.23547 0.08612 0.0
C67 C 0.05075 0.28048 0.14682 0.0
C68 C 0.06297 0.27038 0.21972 0.0
C69 C 0.06729 0.24336 0.22961 0.0
C70 C 0.06099 0.22631 0.16193 0.0
N71 N 0.04282 0.30759 0.14866 0.0
H72 H 0.26837 0.01359 0.07591 0.0
H73 H 0.26212 0.08485 0.22659 0.0
H74 H 0.32898 0.07305 0.06746 0.0
H75 H 0.23926 0.05996 0.31123 0.0
C76 C 0.22664 0.0481 0.27025 0.0
C77 C 0.27578 0.03276 0.09506 0.0
C78 C 0.30009 0.04225 0.06175 0.0
C79 C 0.26152 0.04796 0.15559 0.0
C80 C 0.2722 0.07257 0.1812 0.0
C81 C 0.29651 0.08155 0.15032 0.0
C82 C 0.30969 0.06665 0.08925 0.0
N83 N 0.23711 0.03834 0.19149 0.0
H84 H 0.50567 0.27118 1.00348 0.0
H85 H 0.4927 0.25768 0.27047 0.0
H86 H 0.48826 0.33619 0.17011 0.0
H87 H 0.54243 0.23255 0.19973 0.0
C88 C 0.52444 0.22144 0.18664 0.0
C89 C 0.50103 0.27872 0.06599 0.0
C90 C 0.49612 0.30621 0.07729 0.0
C91 C 0.5001 0.26114 0.13711 0.0
C92 C 0.49391 0.27115 0.21714 0.0
C93 C 0.48971 0.29801 0.22985 0.0
C94 C 0.49064 0.31522 0.15987 0.0
N95 N 0.50535 0.23345 0.1312 0.0
C96 C 0.08178 0.0472 0.86059 0.0
C97 C 0.06413 0.05956 0.99816 0.0
C98 C 0.06295 0.0442 0.92354 0.0
C99 C 0.08431 0.07842 1.00787 0.0
C100 C 0.10269 0.06537 0.87177 0.0
C101 C 0.10355 0.08131 0.94484 0.0
N102 N 0.08034 0.0315 0.79049 0.0
C103 C 0.10093 0.03078 0.73495 0.0
C104 C 0.12254 0.06641 0.81042 0.0
C105 C 0.12193 0.04865 0.74266 0.0
Gd106 Gd 0.9934 0.03463 0.61695 0.0
Gd107 Gd 0.04287 1.00369 0.78138 0.0
N108 N 0.04327 0.02627 0.91136 0.0
C109 C 0.04496 0.05549 0.06068 0.0
C110 C 0.02518 0.02139 0.97339 0.0
C111 C 0.02551 0.03619 0.04838 0.0
H112 H 1.01021 1.00641 0.96424 0.0
H113 H 1.01063 0.03283 0.09626 0.0
H114 H 0.02972 0.06339 0.46141 0.0
H115 H 0.10175 0.01603 0.6858 0.0
H116 H 0.04212 0.05385 0.3133 0.0
H117 H 0.0451 0.06697 0.11879 0.0
H118 H 0.08542 0.09061 0.06437 0.0
H119 H 0.93655 1.00375 0.65037 0.0
H120 H 0.13894 0.08008 0.81665 0.0
H121 H 0.13786 0.04838 0.69715 0.0
H122 H 0.98513 0.98219 0.23238 0.0
H123 H 0.11932 0.09556 0.95402 0.0
H124 H 0.91748 0.95753 0.42958 0.0
H125 H 0.90651 0.97269 0.57481 0.0
N126 N 0.96409 1.00543 0.54926 0.0
C127 C 0.96954 0.99879 0.46778 0.0
C128 C 0.94124 0.99721 0.5868 0.0
C129 C 0.93059 0.97114 0.46233 0.0
C130 C 0.92429 0.97969 0.54427 0.0
C131 C 0.95325 0.981 0.42252 0.0
H132 H 0.94751 0.96056 0.3027 0.0
N133 N 1.00382 0.03028 0.4715 0.0
C134 C 0.99043 1.01125 0.42813 0.0
C135 C 0.01566 0.02064 0.30178 0.0
C136 C 0.99599 1.00586 0.34212 0.0
C137 C 0.02104 0.04651 0.42974 0.0
C138 C 0.02779 0.04147 0.34519 0.0
O139 O 0.02232 0.04293 0.80793 0.0
O140 O 0.02345 0.06215 0.67865 0.0
O141 O 0.97289 0.06391 0.54107 0.0
O142 O 0.96326 0.05896 0.67368 0.0
O143 O 1.00002 0.99281 0.80989 0.0
O144 O 0.97614 0.02645 0.74741 0.0
O145 O 0.99258 0.98953 0.6334 0.0
O146 O 0.03574 0.9804 0.65976 0.0
O147 O 0.03857 0.967 0.85051 0.0
O148 O 0.07749 0.98276 0.82653 0.0
O149 O 0.03729 0.04378 0.59827 0.0
O150 O 0.05704 1.00603 0.64441 0.0
C151 C 0.02486 0.06433 0.76161 0.0
C152 C 0.97859 1.00744 0.80403 0.0
C153 C 0.96313 0.10177 0.62105 0.0
C154 C 0.9909 0.14125 0.62414 0.0
C155 C 0.94452 0.14344 0.6639 0.0
C156 C 0.94155 0.11652 0.64819 0.0
C157 C 0.96889 0.15583 0.65122 0.0
C158 C 0.98779 0.11399 0.61158 0.0
C159 C 0.96035 0.07341 0.60619 0.0
C160 C 0.98099 0.98677 0.29826 0.0
C161 C 0.95955 0.97446 0.33827 0.0
H162 H 0.02081 0.01685 0.23625 0.0
C163 C 0.01262 0.97317 0.62945 0.0
C164 C 0.05627 0.02628 0.59239 0.0
C165 C 0.07026 0.93756 0.79765 0.0
C166 C 0.05553 0.89491 0.74245 0.0
C167 C 0.09642 0.91438 0.6924 0.0
C168 C 0.09263 0.93619 0.74524 0.0
C169 C 0.07795 0.89382 0.69067 0.0
C170 C 0.05217 0.91662 0.79664 0.0
C171 C 0.06367 0.96186 0.84485 0.0
H172 H 0.92776 0.15487 0.68431 0.0
H173 H 0.92248 0.10721 0.65729 0.0
H174 H 0.97008 0.17696 0.65983 0.0
H175 H 1.00443 0.10209 0.59328 0.0
H176 H 0.11361 0.91354 0.652 0.0
H177 H 0.10691 0.95215 0.74361 0.0
H178 H 0.08115 0.87714 0.64909 0.0
H179 H 0.03527 0.9173 0.83853 0.0
C180 C 0.52087 0.94673 0.48977 0.0
C181 C 0.49259 0.91232 0.54561 0.0
C182 C 0.50049 0.93898 0.54212 0.0
C183 C 0.50628 0.89347 0.49787 0.0
C184 C 0.53403 0.92811 0.43904 0.0
C185 C 0.52696 0.90135 0.4446 0.0
N186 N 0.52677 0.97274 0.4848 0.0
C187 C 0.54487 0.98172 0.42745 0.0
C188 C 0.55338 0.93706 0.3826 0.0
C189 C 0.55864 0.96403 0.37625 0.0
Gd190 Gd 0.52534 0.04701 0.76692 0.0
Gd191 Gd 0.5038 1.00116 0.57592 0.0
N192 N 0.48742 0.95779 0.58594 0.0
C193 C 0.47069 0.90555 0.59498 0.0
C194 C 0.46522 0.95151 0.63059 0.0
C195 C 0.45676 0.9253 0.63687 0.0
H196 H 0.45429 0.96664 0.66299 0.0
H197 H 0.43948 0.92035 0.67383 0.0
H198 H 0.58995 0.06463 0.75238 0.0
H199 H 0.54891 1.00259 0.42199 0.0
H200 H 0.61598 0.10289 0.70495 0.0
H201 H 0.46399 0.88528 0.59946 0.0
H202 H 0.50062 0.87286 0.50012 0.0
H203 H 0.46359 0.06909 0.79265 0.0
H204 H 0.56393 0.9234 0.34243 0.0
H205 H 0.57324 0.97122 0.33179 0.0
H206 H 0.55162 0.16972 0.65176 0.0
H207 H 0.53694 0.88671 0.40655 0.0
H208 H 0.46139 0.14986 0.71569 0.0
H209 H 0.43859 0.10997 0.76905 0.0
N210 N 0.49989 0.08521 0.74919 0.0
C211 C 0.51314 0.10738 0.72528 0.0
C212 C 0.47366 0.08619 0.76816 0.0
C213 C 0.47245 0.13193 0.72575 0.0
C214 C 0.45949 0.10942 0.75555 0.0
C215 C 0.49965 0.1312 0.7111 0.0
H216 H 0.50359 0.17189 0.67114 0.0
N217 N 0.55281 0.08298 0.73075 0.0
C218 C 0.54027 0.10607 0.71421 0.0
C219 C 0.58198 0.12722 0.68327 0.0
C220 C 0.55451 0.12871 0.68894 0.0
C221 C 0.57974 0.08205 0.73115 0.0
C222 C 0.59466 0.10393 0.70596 0.0
O223 O 0.50604 0.98026 0.70455 0.0
O224 O 0.53829 1.00397 0.77535 0.0
O225 O 0.54824 0.06275 0.87259 0.0
O226 O 0.50967 0.04619 0.89522 0.0
O227 O 0.47003 0.01367 0.66302 0.0
O228 O 0.48769 0.0246 0.79427 0.0
O229 O 0.50447 0.06072 0.6457 0.0
O230 O 0.52685 0.03837 0.5479 0.0
O231 O 0.47218 0.02704 0.53647 0.0
O232 O 0.48711 0.99772 0.44864 0.0
O233 O 0.56216 0.02964 0.70433 0.0
O234 O 0.54844 1.00675 0.58295 0.0
C235 C 0.52374 0.98243 0.76615 0.0
C236 C 0.46757 0.01818 0.74529 0.0
C237 C 0.54232 0.03764 0.99685 0.0
C238 C 0.57366 1.00416 0.04293 0.0
C239 C 0.54025 0.02031 0.14022 0.0
C240 C 0.53064 0.03722 0.07736 0.0
C241 C 0.56169 1.00399 0.12352 0.0
C242 C 0.56348 0.02083 0.97965 0.0
C243 C 0.53157 0.05451 0.92936 0.0
C244 C 0.54101 0.15223 0.67202 0.0
C245 C 0.51367 0.15349 0.68323 0.0
H246 H 0.59361 0.14417 0.66412 0.0
C247 C 0.51731 0.06079 0.57357 0.0
C248 C 0.56707 0.01643 0.63342 0.0
C249 C 0.47584 0.03997 0.39414 0.0
C250 C 0.45863 0.08044 0.33077 0.0
C251 C 0.50249 0.06502 0.2946 0.0
C252 C 0.49935 0.0434 0.34863 0.0
C253 C 0.48236 0.08349 0.28578 0.0
C254 C 0.45559 0.0584 0.38449 0.0
C255 C 0.47287 0.01887 0.45788 0.0
H256 H 0.53121 0.01996 0.20235 0.0
H257 H 0.51403 0.0498 0.0913 0.0
H258 H 0.56923 0.99175 0.1744 0.0
H259 H 0.57195 0.02068 0.91654 0.0
H260 H 0.52078 0.06773 0.26045 0.0
H261 H 0.51548 0.02975 0.35611 0.0
H262 H 0.48552 0.10027 0.2445 0.0
H263 H 0.43736 0.05532 0.41883 0.0
C264 C 0.44201 0.50928 0.83817 0.0
C265 C 0.45261 0.4905 0.97593 0.0
C266 C 0.45981 0.50533 0.90381 0.0
C267 C 0.42732 0.47912 0.97987 0.0
C268 C 0.41636 0.49846 0.84272 0.0
C269 C 0.40924 0.48305 0.91332 0.0
N270 N 0.44944 0.52462 0.77163 0.0
C271 C 0.43155 0.53127 0.71009 0.0
C272 C 0.39845 0.50399 0.77718 0.0
C273 C 0.406 0.52071 0.71106 0.0
Gd274 Gd 0.54783 0.51555 0.6181 0.0
Gd275 Gd 0.49306 0.54094 0.77455 0.0
N276 N 0.48416 0.51634 0.8975 0.0
C277 C 0.47096 0.48785 0.04225 0.0
C278 C 0.50174 0.51485 0.96346 0.0
C279 C 0.49555 0.5003 0.03629 0.0
H280 H 0.52066 0.52464 0.95919 0.0
H281 H 0.50969 0.49878 0.08787 0.0
H282 H 0.51386 0.50169 0.4345 0.0
H283 H 0.43667 0.5452 0.66099 0.0
H284 H 0.50638 0.52233 0.29558 0.0
H285 H 0.46619 0.47663 0.09878 0.0
H286 H 0.42143 0.46754 0.03454 0.0
H287 H 0.60008 0.546 0.70236 0.0
H288 H 0.37855 0.49606 0.77826 0.0
H289 H 0.39204 0.52581 0.66147 0.0
H290 H 0.5673 0.59479 0.29029 0.0
H291 H 0.38966 0.47449 0.91778 0.0
H292 H 0.62658 0.60492 0.52661 0.0
H293 H 0.63153 0.58158 0.66393 0.0
N294 N 0.57741 0.54996 0.58909 0.0
C295 C 0.5752 0.56143 0.51124 0.0
C296 C 0.59785 0.55625 0.64253 0.0
C297 C 0.61284 0.58932 0.54307 0.0
C298 C 0.61566 0.57625 0.62079 0.0
C299 C 0.59256 0.58188 0.48693 0.0
H300 H 0.60212 0.61011 0.3883 0.0
N301 N 0.54005 0.53181 0.47937 0.0
C302 C 0.55552 0.55262 0.45592 0.0
C303 C 0.53415 0.55386 0.3181 0.0
C304 C 0.55279 0.56432 0.37491 0.0
C305 C 0.52367 0.52011 0.42093 0.0
C306 C 0.51989 0.53137 0.34068 0.0
O307 O 0.50423 0.49784 0.79647 0.0
O308 O 0.52414 0.48145 0.67504 0.0
O309 O 0.56703 0.49158 0.52273 0.0
O310 O 0.58442 0.49552 0.64754 0.0
O311 O 0.53607 0.54768 0.81494 0.0
O312 O 0.5587 0.51306 0.75764 0.0
O313 O 0.54418 0.55963 0.65266 0.0
O314 O 0.50015 0.56468 0.6546 0.0
O315 O 0.50337 0.57184 0.86288 0.0
O316 O 0.46443 0.5713 0.80577 0.0
O317 O 0.50558 0.50257 0.58174 0.0
O318 O 0.48285 0.53775 0.63426 0.0
C319 C 0.51282 0.47805 0.74989 0.0
C320 C 0.5562 0.53132 0.81605 0.0
C321 C 0.58881 0.45498 0.58022 0.0
C322 C 0.56927 0.41103 0.58777 0.0
C323 C 0.61708 0.41689 0.58967 0.0
C324 C 0.61409 0.44415 0.58374 0.0
C325 C 0.59489 0.40037 0.59094 0.0
C326 C 0.56666 0.43851 0.58407 0.0
C327 C 0.58532 0.4835 0.5748 0.0
C328 C 0.56931 0.58546 0.35195 0.0
C329 C 0.5892 0.59413 0.40763 0.0
H330 H 0.53144 0.56231 0.2554 0.0
C331 C 0.52342 0.57416 0.63562 0.0
C332 C 0.48435 0.51754 0.58222 0.0
C333 C 0.48705 0.61226 0.81235 0.0
C334 C 0.51815 0.64813 0.78147 0.0
C335 C 0.47083 0.65402 0.75982 0.0
C336 C 0.46597 0.62849 0.78906 0.0
C337 C 0.4966 0.66399 0.75741 0.0
C338 C 0.51301 0.62179 0.8037 0.0
C339 C 0.48232 0.58536 0.84497 0.0
H340 H 0.63664 0.40849 0.59166 0.0
H341 H 0.63142 0.45674 0.58181 0.0
H342 H 0.598 0.37931 0.59142 0.0
H343 H 0.54734 0.44735 0.58367 0.0
H344 H 0.45448 0.66651 0.74213 0.0
H345 H 0.44581 0.62145 0.7936 0.0
H346 H 0.49923 0.68449 0.7407 0.0
H347 H 0.52932 0.60879 0.81692 0.0
C348 C 0.03934 0.47089 0.9488 0.0
C349 C 0.03062 0.49732 0.0734 0.0
C350 C 0.02582 0.49112 0.98725 0.0
C351 C 0.05039 0.48382 0.11842 0.0
C352 C 0.05772 0.45588 0.99533 0.0
C353 C 0.06385 0.46303 0.07953 0.0
N354 N 0.03277 0.46446 0.86779 0.0
C355 C 0.04171 0.4417 0.832 0.0
C356 C 0.06838 0.43344 0.9571 0.0
C357 C 0.05989 0.42601 0.87571 0.0
Gd358 Gd 0.03098 0.54242 0.62961 0.0
Gd359 Gd 1.00277 0.49196 0.79717 0.0
N360 N 1.00612 0.50286 0.9428 0.0
C361 C 0.01447 0.51589 0.11279 0.0
C362 C 0.9886 0.51873 0.98359 0.0
C363 C 0.99295 0.52615 0.06827 0.0
H364 H 0.97125 0.52579 0.9508 0.0
H365 H 0.97952 0.53949 0.09941 0.0
H366 H 0.0259 0.51251 0.44126 0.0
H367 H 0.03525 0.43613 0.76881 0.0
H368 H 0.99672 0.51329 0.31483 0.0
H369 H 0.0177 0.52145 0.17851 0.0
H370 H 0.05457 0.4885 0.18441 0.0
H371 H 0.02106 0.6011 0.72962 0.0
H372 H 0.08247 0.42128 0.99085 0.0
H373 H 0.06746 0.40832 0.84648 0.0
H374 H 0.93718 0.58444 0.37008 0.0
H375 H 0.0782 0.45199 0.11607 0.0
H376 H 0.95287 0.63666 0.61934 0.0
H377 H 0.98797 0.63625 0.72926 0.0
N378 N 1.00275 0.57936 0.62921 0.0
C379 C 0.98524 0.58066 0.56347 0.0
C380 C 1.0049 0.59995 0.68491 0.0
C381 C 0.96688 0.62063 0.62098 0.0
C382 C 0.98658 0.62041 0.68333 0.0
C383 C 0.96653 0.60106 0.55836 0.0
H384 H 0.93409 0.61718 0.48497 0.0
N385 N 1.006 0.54368 0.50357 0.0
C386 C 0.98719 0.56252 0.498 0.0
C387 C 0.97357 0.54572 0.36067 0.0
C388 C 0.97021 0.56385 0.42683 0.0
C389 C 1.01023 0.52675 0.43765 0.0
C390 C 0.99383 0.52726 0.36582 0.0
O391 O 0.0477 0.49233 0.77618 0.0
O392 O 0.05567 0.53566 0.74869 0.0
O393 O 0.06839 0.53928 0.56432 0.0
O394 O 0.04977 0.57724 0.57654 0.0
O395 O 0.99284 0.53546 0.81634 0.0
O396 O 0.02978 0.55639 0.76805 0.0
O397 O 0.99275 0.51928 0.60558 0.0
O398 O 0.97432 0.52079 0.73548 0.0
O399 O 0.97419 0.46955 0.87064 0.0
O400 O 0.97872 0.46188 0.73652 0.0
O401 O 0.04082 0.50016 0.58931 0.0
O402 O 0.01296 0.47379 0.67015 0.0
C403 C 0.06388 0.51276 0.77681 0.0
C404 C 1.00997 0.555 0.82169 0.0
C405 C 0.09529 0.57475 0.60862 0.0
C406 C 0.1405 0.56696 0.65577 0.0
C407 C 0.11602 0.60369 0.71333 0.0
C408 C 0.09413 0.59664 0.66352 0.0
C409 C 0.13917 0.58895 0.70959 0.0
C410 C 0.11862 0.5603 0.60476 0.0
C411 C 0.07166 0.56478 0.56301 0.0
C412 C 0.95063 0.58328 0.42374 0.0
C413 C 0.9488 0.60185 0.48936 0.0
H414 H 0.96087 0.54603 0.305 0.0
C415 C 0.97157 0.52149 0.65258 0.0
C416 C 0.02876 0.47741 0.60471 0.0
C417 C 0.93616 0.45954 0.78971 0.0
C418 C 0.89617 0.48602 0.78796 0.0
C419 C 0.89493 0.44018 0.74175 0.0
C420 C 0.92187 0.43786 0.75867 0.0
C421 C 0.88206 0.46399 0.7568 0.0
C422 C 0.92344 0.48362 0.80224 0.0
C423 C 0.96465 0.45757 0.80383 0.0
H424 H 0.11496 0.62051 0.75546 0.0
H425 H 0.07625 0.60805 0.66926 0.0
H426 H 0.15595 0.59464 0.74858 0.0
H427 H 0.1197 0.54369 0.56152 0.0
H428 H 0.88388 0.42335 0.71817 0.0
H429 H 0.93158 0.41926 0.74711 0.0
H430 H 0.86095 0.46476 0.74662 0.0
H431 H 0.9349 0.50043 0.82377 0.0
H432 H 0.19122 1.00597 0.24787 0.0
H433 H 0.07758 0.07268 0.53129 0.0
H434 H 0.19905 0.08236 0.36497 0.0
H435 H 0.08643 0.98844 0.51573 0.0
H436 H 0.11697 0.07805 0.44217 0.0
H437 H 0.14782 1.00062 0.31772 0.0
C438 C 0.18363 0.02179 0.28671 0.0
C439 C 0.1988 0.04469 0.30035 0.0
C440 C 0.11014 0.05837 0.45757 0.0
C441 C 0.14919 0.03884 0.37991 0.0
C442 C 0.08754 0.0553 0.50811 0.0
C443 C 0.07863 0.03008 0.53143 0.0
C444 C 0.12383 0.03606 0.42843 0.0
C445 C 0.09262 1.00828 0.49981 0.0
C446 C 0.15898 0.01867 0.32713 0.0
C447 C 0.18807 0.06438 0.35256 0.0
N448 N 0.1144 1.01175 0.45005 0.0
N449 N 0.16408 0.06107 0.38986 0.0
H450 H 0.47834 0.19489 0.23771 0.0
H451 H 0.55619 0.07598 0.46384 0.0
H452 H 0.56308 0.19026 0.2484 0.0
H453 H 0.47928 0.09921 0.54959 0.0
H454 H 0.5568 0.11385 0.36677 0.0
H455 H 0.47574 0.15581 0.33207 0.0
C456 C 0.49635 0.18545 0.25844 0.0
C457 C 0.52101 0.19585 0.23416 0.0
C458 C 0.53977 0.11078 0.40688 0.0
C459 C 0.51819 0.15123 0.34281 0.0
C460 C 0.53941 0.08907 0.46233 0.0
C461 C 0.51775 0.08437 0.51561 0.0
C462 C 0.51803 0.12787 0.40243 0.0
C463 C 0.49654 0.10216 0.51047 0.0
C464 C 0.49487 0.16332 0.31317 0.0
C465 C 0.54365 0.18294 0.26476 0.0
N466 N 0.4971 0.12291 0.45463 0.0
N467 N 0.54171 0.16146 0.31657 0.0
H468 H 0.35626 0.474 0.21821 0.0
H469 H 0.45748 0.55809 0.51072 0.0
H470 H 0.35928 0.55861 0.23782 0.0
H471 H 0.46414 0.47369 0.4931 0.0
H472 H 0.42206 0.55699 0.40653 0.0
H473 H 0.39568 0.4716 0.31242 0.0
C474 C 0.3653 0.49203 0.24124 0.0
C475 C 0.3543 0.5166 0.21961 0.0
C476 C 0.43111 0.53855 0.42467 0.0
C477 C 0.39929 0.514 0.32822 0.0
C478 C 0.45151 0.53917 0.48488 0.0
C479 C 0.4639 0.51593 0.51217 0.0
C480 C 0.42235 0.51444 0.39015 0.0
C481 C 0.45524 0.49214 0.47439 0.0
C482 C 0.38778 0.49066 0.29538 0.0
C483 C 0.36688 0.53922 0.25234 0.0
N484 N 0.43489 0.49196 0.41601 0.0
N485 N 0.38833 0.53735 0.30447 0.0
H486 H 0.0603 0.36058 0.19273 0.0
H487 H 1.00666 0.42841 0.62073 0.0
H488 H 0.99764 0.33108 0.35105 0.0
H489 H 0.05633 0.47277 0.44988 0.0
H490 H 1.00748 0.3916 0.5238 0.0
H491 H 0.06271 0.40066 0.28355 0.0
C492 C 0.047 0.36251 0.24596 0.0
C493 C 0.02869 0.34225 0.26404 0.0
C494 C 0.01827 0.40928 0.50667 0.0
C495 C 0.0316 0.38785 0.36882 0.0
C496 C 0.01789 0.43061 0.56279 0.0
C497 C 0.0313 0.45431 0.54438 0.0
C498 C 0.03224 0.41093 0.42992 0.0
C499 C 0.04555 0.45514 0.46735 0.0
C500 C 0.04841 0.38539 0.2979 0.0
C501 C 0.01209 0.34597 0.3342 0.0
N502 N 0.04563 0.43385 0.41303 0.0
N503 N 0.01403 0.36795 0.38342 0.0
H504 H 0.86449 0.94284 0.16361 0.0
H505 H 0.93535 0.03898 0.82979 0.0
H506 H 0.83751 0.02179 0.11612 0.0
H507 H 0.9706 0.96712 0.92085 0.0
H508 H 0.8991 0.03272 0.92989 0.0
H509 H 0.9028 0.95119 0.07347 0.0
C510 C 0.86676 0.9621 0.13479 0.0
C511 C 0.8477 0.98166 0.14817 0.0
C512 C 0.91476 0.01834 0.92827 0.0
C513 C 0.89168 0.99128 0.0422 0.0
C514 C 0.93556 0.0218 0.87058 0.0
C515 C 0.95631 1.00349 0.86585 0.0
C516 C 0.91425 0.99621 0.9819 0.0
C517 C 0.9552 0.98178 0.92149 0.0
C518 C 0.8887 0.96684 0.08301 0.0
C519 C 0.85174 1.00617 0.10847 0.0
N520 N 0.93457 0.9787 0.97645 0.0
N521 N 0.87309 1.01019 0.0568 0.0
H522 H 0.58553 0.87525 0.15132 0.0
H523 H 0.48963 0.94086 0.80104 0.0
H524 H 0.50723 0.84507 0.10368 0.0
H525 H 0.56561 0.97222 0.87388 0.0
H526 H 0.49521 0.90531 0.90598 0.0
H527 H 0.57812 0.90976 0.04656 0.0
C528 C 0.56654 0.87603 0.11941 0.0
C529 C 0.54698 0.85708 0.13737 0.0
C530 C 0.51064 0.91999 0.89921 0.0
C531 C 0.53812 0.89749 0.01557 0.0
C532 C 0.50755 0.94032 0.83873 0.0
C533 C 0.52711 0.95996 0.8283 0.0
C534 C 0.5336 0.91892 0.9499 0.0
C535 C 0.54976 0.958 0.88 0.0
C536 C 0.5623 0.89595 0.05932 0.0
C537 C 0.52289 0.85923 0.09277 0.0
N538 N 0.55234 0.93803 0.93781 0.0
N539 N 0.51916 0.87899 0.03407 0.0
H540 H 0.69663 0.51226 0.14504 0.0
H541 H 0.5629 0.57062 0.9364 0.0
H542 H 0.6667 0.58991 0.19505 0.0
H543 H 0.5988 0.4989 0.84839 0.0
H544 H 0.59861 0.57562 0.04112 0.0
H545 H 0.65905 0.50447 0.04694 0.0
C546 C 0.68201 0.52751 0.13652 0.0
C547 C 0.68487 0.55177 0.179 0.0
C548 C 0.5987 0.55872 0.99911 0.0
C549 C 0.64174 0.54308 0.06611 0.0
C550 C 0.57817 0.55582 0.93908 0.0
C551 C 0.57761 0.53431 0.8826 0.0
C552 C 0.61902 0.53993 1.00398 0.0
C553 C 0.59824 0.51587 0.88998 0.0
C554 C 0.66062 0.52314 0.07996 0.0
C555 C 0.66537 0.57088 0.1641 0.0
N556 N 0.61795 0.51908 0.94911 0.0
N557 N 0.64485 0.56617 0.1095 0.0
H558 H 0.02884 0.69178 0.16567 0.0
H559 H 0.96418 0.57057 0.90072 0.0
H560 H 0.94638 0.67084 0.16766 0.0
H561 H 0.04688 0.59009 0.88689 0.0
H562 H 0.95827 0.60638 1.00294 0.0
H563 H 0.03697 0.6542 0.06915 0.0
C564 C 0.01252 0.67919 0.14674 0.0
C565 C 0.98686 0.68453 0.17545 0.0
C566 C 0.9778 0.60286 0.97806 0.0
C567 C 0.99596 0.6415 0.06408 0.0
C568 C 0.98122 0.58217 0.91979 0.0
C569 C 1.00615 0.57687 0.88538 0.0
C570 C 0.99941 0.6188 1.00276 0.0
C571 C 0.02728 0.59327 0.9116 0.0
C572 C 0.01712 0.65777 0.09119 0.0
C573 C 0.96649 0.66756 0.14762 0.0
N574 N 0.02346 0.61336 0.96838 0.0
N575 N 0.97143 0.64707 0.09402 0.0
H576 H 0.09696 0.19961 0.27093 0.0
H577 H 0.01325 0.18699 0.69014 0.0
H578 H 0.05117 0.26163 0.38543 0.0
H579 H 0.02679 0.1263 0.50229 0.0
H580 H 0.04727 0.21393 0.62198 0.0
H581 H 0.09217 0.17393 0.40155 0.0
C582 C 0.08656 0.2082 0.32402 0.0
C583 C 0.07332 0.23229 0.31521 0.0
C584 C 0.04324 0.19429 0.59799 0.0
C585 C 0.06843 0.20334 0.4649 0.0
C586 C 0.02351 0.17905 0.63577 0.0
C587 C 0.01598 0.15473 0.59976 0.0
C588 C 0.05576 0.18495 0.52471 0.0
C589 C 0.03125 0.14495 0.53239 0.0
C590 C 0.08409 0.19362 0.39877 0.0
C591 C 0.06127 0.24294 0.38779 0.0
N592 N 0.05001 0.1603 0.49622 0.0
N593 N 0.05852 0.22809 0.45884 0.0
H594 H 0.3037 0.08882 0.32079 0.0
H595 H 0.44358 0.10553 0.18347 0.0
H596 H 0.32465 0.12228 0.07839 0.0
H597 H 0.42246 0.09793 0.44799 0.0
H598 H 0.40112 0.12546 0.1549 0.0
H599 H 0.34421 0.10664 0.38164 0.0
C600 C 0.31619 0.10105 0.28117 0.0
C601 C 0.31151 0.10298 0.19339 0.0
C602 C 0.40591 0.12005 0.21977 0.0
C603 C 0.3585 0.12237 0.26159 0.0
C604 C 0.43036 0.10864 0.23626 0.0
C605 C 0.43621 0.09882 0.3176 0.0
C606 C 0.3869 0.12096 0.28445 0.0
C607 C 0.41822 0.10385 0.38323 0.0
C608 C 0.33961 0.11103 0.31583 0.0
C609 C 0.32819 0.11942 0.14574 0.0
N610 N 0.39404 0.11378 0.36477 0.0
N611 N 0.35156 0.12757 0.17949 0.0
H612 H 0.51575 0.28114 0.3731 0.0
H613 H 0.52221 0.42183 0.50553 0.0
H614 H 0.45926 0.33894 0.28817 0.0
H615 H 0.56103 0.3605 0.64967 0.0
H616 H 0.48909 0.39073 0.46178 0.0
H617 H 0.52184 0.30561 0.50372 0.0
C618 C 0.50393 0.29856 0.38272 0.0
C619 C 0.48777 0.30861 0.31757 0.0
C620 C 0.50449 0.38405 0.5045 0.0
C621 C 0.49558 0.33735 0.46657 0.0
C622 C 0.52365 0.40204 0.5304 0.0
C623 C 0.54555 0.39371 0.57861 0.0
C624 C 0.50778 0.35728 0.52329 0.0
C625 C 0.54556 0.36758 0.60807 0.0
C626 C 0.50751 0.31264 0.45783 0.0
C627 C 0.47293 0.33118 0.33482 0.0
N628 N 0.52751 0.35004 0.57748 0.0
N629 N 0.47779 0.34526 0.40666 0.0
H630 H 0.21021 0.47193 0.32224 0.0
H631 H 0.19014 0.58655 0.63217 0.0
H632 H 0.26796 0.53383 0.35802 0.0
H633 H 0.14674 0.5135 0.6525 0.0
H634 H 0.22527 0.56331 0.55934 0.0
H635 H 0.19193 0.48215 0.46187 0.0
C636 C 0.21921 0.48743 0.3601 0.0
C637 C 0.24021 0.50241 0.3281 0.0
C638 C 0.20846 0.55211 0.58186 0.0
C639 C 0.21954 0.51428 0.48733 0.0
C640 C 0.18847 0.5654 0.6242 0.0
C641 C 0.16513 0.55206 0.64483 0.0
C642 C 0.20458 0.52559 0.55881 0.0
C643 C 0.16409 0.52462 0.63407 0.0
C644 C 0.20901 0.49309 0.44015 0.0
C645 C 0.2516 0.52191 0.3802 0.0
N646 N 0.18315 0.51238 0.589 0.0
N647 N 0.24077 0.52765 0.45653 0.0
H648 H 1.01176 0.76678 0.01706 0.0
H649 H 1.00149 0.89655 0.74902 0.0
H650 H 0.96074 0.83215 0.07533 0.0
H651 H 0.06672 0.84242 0.75068 0.0
H652 H 0.97422 0.86317 0.81921 0.0
H653 H 0.01832 0.78456 0.87582 0.0
C654 C 1.00123 0.78449 0.99969 0.0
C655 C 0.98605 0.79829 0.05938 0.0
C656 C 0.99422 0.85831 0.80144 0.0
C657 C 0.99434 0.81912 0.89746 0.0
C658 C 1.00979 0.8773 0.76156 0.0
C659 C 0.03675 0.8726 0.74841 0.0
C660 C 1.00577 0.83457 0.82711 0.0
C661 C 0.04624 0.84711 0.76206 0.0
C662 C 1.00515 0.79467 0.9187 0.0
C663 C 0.97327 0.82129 0.03245 0.0
N664 N 0.03094 0.82921 0.80301 0.0
N665 N 0.97817 0.83132 0.95392 0.0
H666 H 0.73342 0.98554 0.03212 0.0
H667 H 0.58566 0.95454 0.10134 0.0
H668 H 0.70441 0.92154 0.18593 0.0
H669 H 0.61657 0.01759 0.94603 0.0
H670 H 0.6281 0.93232 0.09174 0.0
H671 H 0.69203 0.98531 0.95288 0.0
C672 C 0.71885 0.9705 0.04638 0.0
C673 C 0.72175 0.95432 0.11795 0.0
C674 C 0.62539 0.95072 0.05805 0.0
C675 C 0.67396 0.95481 0.03087 0.0
C676 C 0.60122 0.96356 0.06432 0.0
C677 C 0.59766 0.98832 0.02641 0.0
C678 C 0.64635 0.96298 0.01489 0.0
C679 C 0.6183 0.99865 0.977 0.0
C680 C 0.69495 0.97062 1.00193 0.0
C681 C 0.70242 0.93497 0.1328 0.0
N682 N 0.64187 0.9862 0.97418 0.0
N683 N 0.67881 0.93644 0.09201 0.0
H684 H 0.6108 0.71371 0.14603 0.0
H685 H 0.55698 0.63099 0.89356 0.0
H686 H 0.56162 0.76684 1.00165 0.0
H687 H 0.54191 0.69248 0.70922 0.0
H688 H 0.59036 0.65757 0.95695 0.0
H689 H 0.61727 0.68769 0.01709 0.0
C690 C 0.6017 0.72017 0.08723 0.0
C691 C 0.58446 0.74172 0.08621 0.0
C692 C 0.58056 0.66523 0.901 0.0
C693 C 0.59111 0.71171 0.93938 0.0
C694 C 0.561 0.64974 0.86363 0.0
C695 C 0.5448 0.65999 0.79853 0.0
C696 C 0.58336 0.69159 0.8757 0.0
C697 C 0.55224 0.6844 0.76355 0.0
C698 C 0.60538 0.70528 0.01352 0.0
C699 C 0.57449 0.75001 1.00702 0.0
N700 N 0.57018 0.69986 0.80486 0.0
N701 N 0.57738 0.73459 0.93748 0.0
H702 H 0.77269 0.54773 0.0252 0.0
H703 H 0.85187 0.50875 0.71583 0.0
H704 H 0.83792 0.59144 0.13485 0.0
H705 H 0.9087 0.51975 0.91915 0.0
H706 H 0.82454 0.54287 0.77977 0.0
H707 H 0.7972 0.54273 0.89589 0.0
C708 C 0.79176 0.55736 0.0213 0.0
C709 C 0.80364 0.56911 0.09303 0.0
C710 C 0.84318 0.53795 0.8095 0.0
C711 C 0.83235 0.56273 0.9439 0.0
C712 C 0.85873 0.51833 0.77344 0.0
C713 C 0.88218 0.5104 0.81385 0.0
C714 C 0.85105 0.54943 0.88698 0.0
C715 C 0.89072 0.52469 0.88564 0.0
C716 C 0.80591 0.55443 0.9464 0.0
C717 C 0.82846 0.58108 0.08268 0.0
N718 N 0.87493 0.54311 0.9206 0.0
N719 N 0.84242 0.57672 0.01066 0.0
H720 H 0.06631 0.22656 0.91997 0.0
H721 H 1.00713 0.07879 0.91921 0.0
H722 H 0.01433 0.19541 0.11121 0.0
H723 H 0.04661 0.11097 0.70051 0.0
H724 H 1.01046 0.12173 0.98902 0.0
H725 H 0.05912 0.18601 0.83518 0.0
C726 C 0.05281 0.21161 0.94306 0.0
C727 C 0.0407 0.21471 0.02279 0.0
C728 C 0.01833 0.11961 0.92556 0.0
C729 C 0.03318 0.16757 0.92751 0.0
C730 C 0.01656 0.09489 0.88568 0.0
C731 C 0.02659 0.09101 0.80354 0.0
C732 C 0.03045 0.14105 0.88389 0.0
C733 C 0.03842 0.11295 0.76357 0.0
C734 C 0.04897 0.18824 0.89511 0.0
C735 C 0.02396 0.19414 0.05006 0.0
N736 N 0.04015 0.13686 0.80406 0.0
N737 N 0.02097 0.17162 1.00344 0.0
H738 H 0.33924 1.00912 0.11137 0.0
H739 H 0.41817 0.0208 0.66936 0.0
H740 H 0.30538 0.04467 0.88814 0.0
H741 H 0.45554 1.0113 0.91437 0.0
H742 H 0.37488 0.02058 0.7397 0.0
H743 H 0.37932 0.9995 0.0306 0.0
C744 C 0.33969 0.0137 0.0441 0.0
C745 C 0.31844 0.02702 1.00608 0.0
C746 C 0.39256 0.01833 0.77791 0.0
C747 C 0.36507 0.0171 0.91333 0.0
C748 C 0.41734 0.01836 0.73772 0.0
C749 C 0.44077 0.01618 0.78569 0.0
C750 C 0.39096 0.0156 0.86687 0.0
C751 C 0.4382 1.01322 0.87438 0.0
C752 C 0.36286 1.00872 0.99834 0.0
C753 C 0.32085 0.03366 0.91947 0.0
N754 N 0.41394 1.01298 0.91171 0.0
N755 N 0.3437 0.02881 0.87635 0.0
H756 H 0.45708 0.34024 0.03105 0.0
H757 H 0.54853 0.43692 0.74881 0.0
H758 H 0.53734 0.32116 0.96982 0.0
H759 H 0.47065 0.45604 0.83491 0.0
H760 H 0.54396 0.39293 0.81378 0.0
H761 H 0.46064 0.38018 0.9448 0.0
C762 C 0.47533 0.34409 0.99762 0.0
C763 C 0.49681 0.32685 1.00752 0.0
C764 C 0.52779 0.40668 0.81819 0.0
C765 C 0.50138 0.37373 0.90882 0.0
C766 C 0.53027 0.43179 0.77994 0.0
C767 C 0.5099 0.45047 0.7854 0.0
C768 C 0.50468 0.39991 0.86282 0.0
C769 C 0.48708 0.44272 0.82973 0.0
C770 C 0.47745 0.36719 0.94879 0.0
C771 C 0.52007 0.33343 0.96327 0.0
N772 N 0.48513 0.41831 0.86627 0.0
N773 N 0.52179 0.35632 0.91669 0.0
H774 H 0.20748 0.45747 0.03309 0.0
H775 H 0.10003 0.55236 0.81296 0.0
H776 H 0.2208 0.54041 0.99546 0.0
H777 H 0.09182 0.46797 0.82203 0.0
H778 H 0.14445 0.54846 0.87455 0.0
H779 H 0.16616 0.46066 0.95127 0.0
C780 C 0.20215 0.47622 1.00518 0.0
C781 C 0.21825 0.49852 0.01928 0.0
C782 C 0.13295 0.53074 0.86343 0.0
C783 C 0.16981 0.5027 0.92794 0.0
C784 C 0.10742 0.53294 0.82797 0.0
C785 C 0.09153 0.51046 0.81322 0.0
C786 C 0.14303 0.50582 0.88535 0.0
C787 C 0.10269 0.48592 0.83409 0.0
C788 C 0.17829 0.47813 0.95918 0.0
C789 C 0.20956 0.52252 0.98427 0.0
N790 N 0.12742 0.4843 0.86927 0.0
N791 N 0.18601 0.524 0.9411 0.0
H792 H 0.03755 0.81617 0.40071 0.0
H793 H 0.96684 0.94628 0.58583 0.0
H794 H 0.95711 0.83697 0.34517 0.0
H795 H 0.05121 0.9377 0.58228 0.0
H796 H 0.96219 0.90347 0.51507 0.0
H797 H 0.0421 0.85681 0.4866 0.0
C798 C 0.02065 0.82888 0.40822 0.0
C799 C 0.99679 0.82281 0.36606 0.0
C800 C 0.98178 0.91088 0.52966 0.0
C801 C 1.00198 0.86986 0.46347 0.0
C802 C 0.98444 0.93561 0.56954 0.0
C803 C 1.00945 0.94626 0.58888 0.0
C804 C 1.00429 0.89603 0.50959 0.0
C805 C 0.03146 0.93061 0.5686 0.0
C806 C 0.02335 0.8523 0.45647 0.0
C807 C 0.97581 0.84058 0.37683 0.0
N808 N 0.02839 0.90648 0.53036 0.0
N809 N 0.97888 0.86305 0.42394 0.0
H810 H 0.71855 0.03494 0.37767 0.0
H811 H 0.59027 0.97048 0.58438 0.0
H812 H 0.71254 0.95256 0.43986 0.0
H813 H 0.6071 0.05323 0.61248 0.0
H814 H 0.63477 0.96412 0.52758 0.0
H815 H 0.67885 0.0432 0.46362 0.0
C816 C 0.70958 0.01877 0.41217 0.0
C817 C 0.71931 0.99305 0.40239 0.0
C818 C 0.62897 0.98365 0.54752 0.0
C819 C 0.67288 1.00212 0.4974 0.0
C820 C 0.60349 0.98728 0.58005 0.0
C821 C 0.59504 1.01232 0.60594 0.0
C822 C 0.64619 1.00535 0.53807 0.0
C823 C 0.61297 0.03344 0.5967 0.0
C824 C 0.68662 0.02341 0.46021 0.0
C825 C 0.70608 0.97275 0.4464 0.0
N826 N 0.63748 0.02956 0.5629 0.0
N827 N 0.6835 0.97761 0.49031 0.0
H828 H 0.58397 0.72023 0.41031 0.0
H829 H 0.48597 0.60191 0.54516 0.0
H830 H 0.50204 0.71823 0.33766 0.0
H831 H 0.56605 0.60874 0.63521 0.0
H832 H 0.49058 0.64489 0.47464 0.0
H833 H 0.57702 0.6809 0.49821 0.0
C834 C 0.56428 0.71192 0.4146 0.0
C835 C 0.54347 0.72312 0.3674 0.0
C836 C 0.50722 0.63703 0.5096 0.0
C837 C 0.53544 0.67684 0.46667 0.0
C838 C 0.50461 0.61236 0.55012 0.0
C839 C 0.5259 0.60105 0.59474 0.0
C840 C 0.53133 0.65094 0.51343 0.0
C841 C 0.54937 0.61601 0.59932 0.0
C842 C 0.56037 0.68919 0.46437 0.0
C843 C 0.51857 0.71082 0.37412 0.0
N844 N 0.55149 0.63987 0.559 0.0
N845 N 0.51533 0.68837 0.42186 0.0
H846 H 0.83968 0.50787 0.29608 0.0
H847 H 0.92637 0.54575 0.71147 0.0
H848 H 0.81203 0.56263 0.48396 0.0
H849 H 0.95531 0.50121 0.4989 0.0
H850 H 0.88328 0.54944 0.63868 0.0
H851 H 0.87982 0.50125 0.3803 0.0
C852 C 0.84171 0.51798 0.35649 0.0
C853 C 0.82203 0.53553 0.38319 0.0
C854 C 0.89896 0.53862 0.60835 0.0
C855 C 0.86898 0.52862 0.48017 0.0
C856 C 0.92363 0.53651 0.64994 0.0
C857 C 0.9447 0.52314 0.61149 0.0
C858 C 0.89493 0.52678 0.5282 0.0
C859 C 0.93985 0.51179 0.5312 0.0
C860 C 0.8649 0.51443 0.40428 0.0
C861 C 0.82628 0.54851 0.46141 0.0
N862 N 0.91568 0.51377 0.49282 0.0
N863 N 0.84925 0.54493 0.50669 0.0
loop_
_geom_bond_atom_site_label_1
_geom_bond_atom_site_label_2
_geom_bond_distance
_geom_bond_site_symmetry_2
_ccdc_geom_bond_type
H0 C5 0.930 . S
H1 C8 0.930 . S
H2 C10 0.930 . S
H3 C4 1.016 . S
C4 H3 1.016 . S
C4 N11 1.286 . S
C5 H0 0.930 . S
C5 C6 1.397 . S
C5 C7 1.361 . S
C6 C5 1.397 . S
C6 C10 1.390 . S
C7 C5 1.361 . S
C7 C8 1.393 . S
C7 N11 1.413 . S
C8 H1 0.930 . S
C8 C7 1.393 . S
C8 C9 1.399 . S
C9 C8 1.399 . S
C9 C10 1.381 . S
C10 H2 0.930 . S
C10 C6 1.390 . S
C10 C9 1.381 . S
N11 C4 1.286 . S
N11 C7 1.413 . S
H12 C17 0.930 . S
H13 C20 0.930 . S
H14 C22 0.930 . S
H15 C16 1.016 . S
C16 H15 1.016 . S
C16 N23 1.286 . S
C17 H12 0.930 . S
C17 C18 1.397 . S
C17 C19 1.361 . S
C18 C17 1.397 . S
C18 C22 1.390 . S
C19 C17 1.361 . S
C19 C20 1.393 . S
C19 N23 1.413 . S
C20 H13 0.930 . S
C20 C19 1.393 . S
C20 C21 1.399 . S
C21 C20 1.399 . S
C21 C22 1.381 . S
C22 H14 0.930 . S
C22 C18 1.390 . S
C22 C21 1.381 . S
N23 C16 1.286 . S
N23 C19 1.413 . S
H24 C29 0.930 . S
H25 C32 0.930 . S
H26 C34 0.930 . S
H27 C28 1.016 . S
C28 H27 1.016 . S
C28 N35 1.286 . S
C29 H24 0.930 . S
C29 C30 1.397 . S
C29 C31 1.361 . S
C30 C29 1.397 . S
C30 C34 1.390 . S
C31 C29 1.361 . S
C31 C32 1.393 . S
C31 N35 1.413 . S
C32 H25 0.930 . S
C32 C31 1.393 . S
C32 C33 1.399 . S
C33 C32 1.399 . S
C33 C34 1.381 . S
C34 H26 0.930 . S
C34 C30 1.390 . S
C34 C33 1.381 . S
N35 C28 1.286 . S
N35 C31 1.413 . S
H36 C41 0.930 . S
H37 C44 0.930 . S
H38 C46 0.930 . S
H39 C40 1.016 . S
C40 H39 1.016 . S
C40 N47 1.286 . S
C41 H36 0.930 . S
C41 C42 1.397 . S
C41 C43 1.361 . S
C42 C41 1.397 . S
C42 C46 1.390 . S
C43 C41 1.361 . S
C43 C44 1.393 . S
C43 N47 1.413 . S
C44 H37 0.930 . S
C44 C43 1.393 . S
C44 C45 1.399 . S
C45 C44 1.399 . S
C45 C46 1.381 . S
C46 H38 0.930 . S
C46 C42 1.390 . S
C46 C45 1.381 . S
N47 C40 1.286 . S
N47 C43 1.413 . S
H48 C53 0.930 . S
H49 C56 0.930 . S
H50 C58 0.930 . S
H51 C52 1.016 . S
C52 H51 1.016 . S
C52 N59 1.286 . S
C53 H48 0.930 . S
C53 C54 1.397 . S
C53 C55 1.361 1_556 S
C54 C53 1.397 . S
C54 C58 1.390 1_556 S
C55 C53 1.361 1_554 S
C55 C56 1.393 . S
C55 N59 1.413 . S
C56 H49 0.930 . S
C56 C55 1.393 . S
C56 C57 1.399 . S
C57 C56 1.399 . S
C57 C58 1.381 . S
C58 H50 0.930 . S
C58 C54 1.390 1_554 S
C58 C57 1.381 . S
N59 C52 1.286 . S
N59 C55 1.413 . S
H60 C65 0.930 . S
H61 C68 0.930 . S
H62 C70 0.930 . S
H63 C64 1.016 . S
C64 H63 1.016 . S
C64 N71 1.286 . S
C65 H60 0.930 . S
C65 C66 1.397 . S
C65 C67 1.361 1_556 S
C66 C65 1.397 . S
C66 C70 1.390 1_556 S
C67 C65 1.361 1_554 S
C67 C68 1.393 . S
C67 N71 1.413 . S
C68 H61 0.930 . S
C68 C67 1.393 . S
C68 C69 1.399 . S
C69 C68 1.399 . S
C69 C70 1.381 . S
C70 H62 0.930 . S
C70 C66 1.390 1_554 S
C70 C69 1.381 . S
N71 C64 1.286 . S
N71 C67 1.413 . S
H72 C77 0.930 . S
H73 C80 0.930 . S
H74 C82 0.930 . S
H75 C76 1.016 . S
C76 H75 1.016 . S
C76 N83 1.286 . S
C77 H72 0.930 . S
C77 C78 1.397 . S
C77 C79 1.361 1_556 S
C78 C77 1.397 . S
C78 C82 1.390 1_556 S
C79 C77 1.361 1_554 S
C79 C80 1.393 . S
C79 N83 1.413 . S
C80 H73 0.930 . S
C80 C79 1.393 . S
C80 C81 1.399 . S
C81 C80 1.399 . S
C81 C82 1.381 . S
C82 H74 0.930 . S
C82 C78 1.390 1_554 S
C82 C81 1.381 . S
N83 C76 1.286 . S
N83 C79 1.413 . S
H84 C89 0.930 . S
H85 C92 0.930 . S
H86 C94 0.930 . S
H87 C88 1.016 . S
C88 H87 1.016 . S
C88 N95 1.286 . S
C89 H84 0.930 . S
C89 C90 1.397 . S
C89 C91 1.361 1_556 S
C90 C89 1.397 . S
C90 C94 1.390 1_556 S
C91 C89 1.361 1_554 S
C91 C92 1.393 . S
C91 N95 1.413 . S
C92 H85 0.930 . S
C92 C91 1.393 . S
C92 C93 1.399 . S
C93 C92 1.399 . S
C93 C94 1.381 . S
C94 H86 0.930 . S
C94 C90 1.390 1_554 S
C94 C93 1.381 . S
N95 C88 1.286 . S
N95 C91 1.413 . S
C96 C98 1.422 . S
C96 C100 1.415 . S
C96 N102 1.369 . S
C97 C98 1.421 1_554 S
C97 C99 1.417 . S
C97 C109 1.422 . S
C98 C96 1.422 . S
C98 C97 1.421 1_556 S
C98 N108 1.359 . S
C99 C97 1.417 . S
C99 C101 1.329 . S
C99 H118 0.930 . S
C100 C96 1.415 . S
C100 C101 1.437 1_556 S
C100 C104 1.413 . S
C101 C99 1.329 . S
C101 C100 1.437 1_554 S
C101 H123 0.929 . S
N102 C96 1.369 . S
N102 C103 1.338 . S
N102 Gd107 2.622 1_545 S
C103 N102 1.338 . S
C103 C105 1.378 . S
C103 H115 0.929 1_545 S
C104 C100 1.413 . S
C104 C105 1.348 . S
C104 H120 0.931 . S
C105 C103 1.378 . S
C105 C104 1.348 . S
C105 H121 0.930 . S
Gd106 N126 2.622 . S
Gd106 N133 2.570 . S
Gd106 O140 2.353 1_655 S
Gd106 O141 2.468 1_655 S
Gd106 O142 2.427 . S
Gd106 O144 2.388 . S
Gd106 O145 2.386 1_545 S
Gd106 O149 2.307 1_655 S
Gd106 C159 2.805 . S
Gd107 N102 2.622 1_565 S
Gd107 N108 2.570 1_565 S
Gd107 O139 2.386 1_565 S
Gd107 O143 2.307 1_465 S
Gd107 O146 2.353 . S
Gd107 O147 2.468 . S
Gd107 O148 2.427 . S
Gd107 O150 2.388 . S
Gd107 C171 2.805 . S
N108 C98 1.359 . S
N108 Gd107 2.570 1_545 S
N108 C110 1.343 . S
C109 C97 1.422 . S
C109 C111 1.321 . S
C109 H117 0.931 . S
C110 N108 1.343 . S
C110 C111 1.390 1_556 S
C110 H112 0.931 1_455 S
C111 C109 1.321 . S
C111 C110 1.390 1_554 S
C111 H113 0.908 1_455 S
H112 C110 0.931 1_655 S
H113 C111 0.908 1_655 S
H114 C137 0.931 . S
H115 C103 0.929 1_565 S
H116 C138 0.930 . S
H117 C109 0.931 . S
H118 C99 0.930 . S
H119 C128 0.929 . S
H120 C104 0.931 . S
H121 C105 0.930 . S
H122 C160 0.930 . S
H123 C101 0.929 . S
H124 C129 0.931 . S
H125 C130 0.930 . S
N126 Gd106 2.622 . S
N126 C127 1.369 . S
N126 C128 1.338 . S
C127 N126 1.369 . S
C127 C131 1.415 1_545 S
C127 C134 1.427 . S
C128 H119 0.929 . S
C128 N126 1.338 . S
C128 C130 1.378 . S
C129 H124 0.931 . S
C129 C130 1.348 1_565 S
C129 C131 1.413 . S
C130 H125 0.930 . S
C130 C128 1.378 . S
C130 C129 1.348 1_545 S
C131 C127 1.415 1_565 S
C131 C129 1.413 . S
C131 C161 1.437 . S
H132 C161 0.929 . S
N133 Gd106 2.570 . S
N133 C134 1.376 . S
N133 C137 1.343 1_655 S
C134 C127 1.427 . S
C134 N133 1.376 . S
C134 C136 1.401 1_545 S
C135 C136 1.422 . S
C135 C138 1.321 1_655 S
C135 H162 0.931 . S
C136 C134 1.401 1_565 S
C136 C135 1.422 . S
C136 C160 1.417 . S
C137 H114 0.931 . S
C137 N133 1.343 1_455 S
C137 C138 1.390 1_545 S
C138 H116 0.930 . S
C138 C135 1.321 1_455 S
C138 C137 1.390 1_565 S
O139 Gd107 2.386 1_545 S
O139 C151 1.265 . S
O140 Gd106 2.353 1_455 S
O140 C151 1.242 . S
O141 Gd106 2.468 1_455 S
O141 C159 1.263 1_455 S
O142 Gd106 2.427 . S
O142 C159 1.252 . S
O143 Gd107 2.307 1_645 S
O143 C152 1.261 . S
O144 Gd106 2.388 . S
O144 C152 1.252 . S
O145 Gd106 2.386 1_565 S
O145 C163 1.265 . S
O146 Gd107 2.353 . S
O146 C163 1.242 1_455 S
O147 Gd107 2.468 . S
O147 C171 1.263 . S
O148 Gd107 2.427 . S
O148 C171 1.252 . S
O149 Gd106 2.307 1_455 S
O149 C164 1.261 . S
O150 Gd107 2.388 . S
O150 C164 1.252 1_565 S
C151 O139 1.265 . S
C151 O140 1.242 . S
C152 O143 1.261 . S
C152 O144 1.252 . S
C153 C156 1.394 . S
C153 C158 1.370 . S
C153 C159 1.500 . S
C154 C157 1.383 . S
C154 C158 1.395 . S
C155 C156 1.396 . S
C155 C157 1.365 . S
C155 H172 0.929 . S
C156 C153 1.394 . S
C156 C155 1.396 . S
C156 H173 0.930 . S
C157 C154 1.383 . S
C157 C155 1.365 . S
C157 H174 0.931 . S
C158 C153 1.370 . S
C158 C154 1.395 . S
C158 H175 0.930 1_655 S
C159 Gd106 2.805 . S
C159 O141 1.263 1_655 S
C159 O142 1.252 . S
C159 C153 1.500 . S
C160 H122 0.930 . S
C160 C136 1.417 . S
C160 C161 1.329 . S
C161 C131 1.437 . S
C161 H132 0.929 . S
C161 C160 1.329 . S
H162 C135 0.931 . S
C163 O145 1.265 . S
C163 O146 1.242 1_655 S
C164 O149 1.261 . S
C164 O150 1.252 1_545 S
C165 C168 1.394 . S
C165 C170 1.370 . S
C165 C171 1.500 . S
C166 C169 1.383 . S
C166 C170 1.395 . S
C167 C168 1.396 . S
C167 C169 1.365 . S
C167 H176 0.929 . S
C168 C165 1.394 . S
C168 C167 1.396 . S
C168 H177 0.930 . S
C169 C166 1.383 . S
C169 C167 1.365 . S
C169 H178 0.931 1_556 S
C170 C165 1.370 . S
C170 C166 1.395 . S
C170 H179 0.930 . S
C171 Gd107 2.805 . S
C171 O147 1.263 . S
C171 O148 1.252 . S
C171 C165 1.500 . S
H172 C155 0.929 . S
H173 C156 0.930 . S
H174 C157 0.931 . S
H175 C158 0.930 1_455 S
H176 C167 0.929 . S
H177 C168 0.930 . S
H178 C169 0.931 1_554 S
H179 C170 0.930 . S
C180 C182 1.422 . S
C180 C184 1.415 . S
C180 N186 1.369 . S
C181 C182 1.421 . S
C181 C183 1.417 . S
C181 C193 1.422 . S
C182 C180 1.422 . S
C182 C181 1.421 . S
C182 N192 1.359 . S
C183 C181 1.417 . S
C183 C185 1.329 . S
C183 H202 0.930 . S
C184 C180 1.415 . S
C184 C185 1.437 . S
C184 C188 1.413 . S
C185 C183 1.329 . S
C185 C184 1.437 . S
C185 H207 0.929 . S
N186 C180 1.369 . S
N186 C187 1.338 . S
N186 Gd191 2.622 . S
C187 N186 1.338 . S
C187 C189 1.378 . S
C187 H199 0.929 . S
C188 C184 1.413 . S
C188 C189 1.348 . S
C188 H204 0.931 . S
C189 C187 1.378 . S
C189 C188 1.348 . S
C189 H205 0.930 . S
Gd190 N210 2.622 . S
Gd190 N217 2.570 . S
Gd190 O224 2.353 1_545 S
Gd190 O225 2.468 . S
Gd190 O226 2.427 . S
Gd190 O228 2.388 . S
Gd190 O229 2.386 . S
Gd190 O233 2.307 . S
Gd190 C243 2.805 . S
Gd191 N186 2.622 . S
Gd191 N192 2.570 . S
Gd191 O223 2.386 . S
Gd191 O227 2.307 1_565 S
Gd191 O230 2.353 1_565 S
Gd191 O231 2.468 . S
Gd191 O232 2.427 . S
Gd191 O234 2.388 . S
Gd191 C255 2.805 . S
N192 C182 1.359 . S
N192 Gd191 2.570 . S
N192 C194 1.343 . S
C193 C181 1.422 . S
C193 C195 1.321 . S
C193 H201 0.931 . S
C194 N192 1.343 . S
C194 C195 1.390 . S
C194 H196 0.931 . S
C195 C193 1.321 . S
C195 C194 1.390 . S
C195 H197 0.930 . S
H196 C194 0.931 . S
H197 C195 0.930 . S
H198 C221 0.931 . S
H199 C187 0.929 . S
H200 C222 0.930 . S
H201 C193 0.931 . S
H202 C183 0.930 . S
H203 C212 0.929 . S
H204 C188 0.931 . S
H205 C189 0.930 . S
H206 C244 0.930 . S
H207 C185 0.929 . S
H208 C213 0.931 . S
H209 C214 0.930 . S
N210 Gd190 2.622 . S
N210 C211 1.369 . S
N210 C212 1.338 . S
C211 N210 1.369 . S
C211 C215 1.415 . S
C211 C218 1.422 . S
C212 H203 0.929 . S
C212 N210 1.338 . S
C212 C214 1.378 . S
C213 H208 0.931 . S
C213 C214 1.348 . S
C213 C215 1.413 . S
C214 H209 0.930 . S
C214 C212 1.378 . S
C214 C213 1.348 . S
C215 C211 1.415 . S
C215 C213 1.413 . S
C215 C245 1.437 . S
H216 C245 0.929 . S
N217 Gd190 2.570 . S
N217 C218 1.359 . S
N217 C221 1.343 . S
C218 C211 1.422 . S
C218 N217 1.359 . S
C218 C220 1.421 . S
C219 C220 1.422 . S
C219 C222 1.321 . S
C219 H246 0.931 . S
C220 C218 1.421 . S
C220 C219 1.422 . S
C220 C244 1.417 . S
C221 H198 0.931 . S
C221 N217 1.343 . S
C221 C222 1.390 . S
C222 H200 0.930 . S
C222 C219 1.321 . S
C222 C221 1.390 . S
O223 Gd191 2.386 . S
O223 C235 1.265 . S
O224 Gd190 2.353 1_565 S
O224 C235 1.242 . S
O225 Gd190 2.468 . S
O225 C243 1.263 . S
O226 Gd190 2.427 . S
O226 C243 1.252 . S
O227 Gd191 2.307 1_545 S
O227 C236 1.261 . S
O228 Gd190 2.388 . S
O228 C236 1.252 . S
O229 Gd190 2.386 . S
O229 C247 1.265 . S
O230 Gd191 2.353 1_545 S
O230 C247 1.242 . S
O231 Gd191 2.468 . S
O231 C255 1.263 . S
O232 Gd191 2.427 . S
O232 C255 1.252 . S
O233 Gd190 2.307 . S
O233 C248 1.261 . S
O234 Gd191 2.388 . S
O234 C248 1.252 1_565 S
C235 O223 1.265 . S
C235 O224 1.242 . S
C236 O227 1.261 . S
C236 O228 1.252 . S
C237 C240 1.394 1_556 S
C237 C242 1.370 . S
C237 C243 1.500 . S
C238 C241 1.383 . S
C238 C242 1.395 1_554 S
C239 C240 1.396 . S
C239 C241 1.365 . S
C239 H256 0.929 . S
C240 C237 1.394 1_554 S
C240 C239 1.396 . S
C240 H257 0.930 . S
C241 C238 1.383 . S
C241 C239 1.365 . S
C241 H258 0.931 . S
C242 C237 1.370 . S
C242 C238 1.395 1_556 S
C242 H259 0.930 . S
C243 Gd190 2.805 . S
C243 O225 1.263 . S
C243 O226 1.252 . S
C243 C237 1.500 . S
C244 H206 0.930 . S
C244 C220 1.417 . S
C244 C245 1.329 . S
C245 C215 1.437 . S
C245 H216 0.929 . S
C245 C244 1.329 . S
H246 C219 0.931 . S
C247 O229 1.265 . S
C247 O230 1.242 . S
C248 O233 1.261 . S
C248 O234 1.252 1_545 S
C249 C252 1.394 . S
C249 C254 1.370 1_565 S
C249 C255 1.500 . S
C250 C253 1.383 1_545 S
C250 C254 1.395 . S
C251 C252 1.396 . S
C251 C253 1.365 . S
C251 H260 0.929 . S
C252 C249 1.394 . S
C252 C251 1.396 . S
C252 H261 0.930 . S
C253 C250 1.383 1_565 S
C253 C251 1.365 . S
C253 H262 0.931 . S
C254 C249 1.370 1_545 S
C254 C250 1.395 . S
C254 H263 0.930 . S
C255 Gd191 2.805 . S
C255 O231 1.263 . S
C255 O232 1.252 . S
C255 C249 1.500 . S
H256 C239 0.929 . S
H257 C240 0.930 . S
H258 C241 0.931 . S
H259 C242 0.930 . S
H260 C251 0.929 . S
H261 C252 0.930 . S
H262 C253 0.931 . S
H263 C254 0.930 . S
C264 C266 1.422 . S
C264 C268 1.415 . S
C264 N270 1.369 . S
C265 C266 1.421 1_554 S
C265 C267 1.417 . S
C265 C277 1.422 . S
C266 C264 1.422 . S
C266 C265 1.421 1_556 S
C266 N276 1.359 . S
C267 C265 1.417 . S
C267 C269 1.329 . S
C267 H286 0.930 . S
C268 C264 1.415 . S
C268 C269 1.437 1_556 S
C268 C272 1.413 . S
C269 C267 1.329 . S
C269 C268 1.437 1_554 S
C269 H291 0.929 . S
N270 C264 1.369 . S
N270 C271 1.338 . S
N270 Gd275 2.622 . S
C271 N270 1.338 . S
C271 C273 1.378 . S
C271 H283 0.929 . S
C272 C268 1.413 . S
C272 C273 1.348 . S
C272 H288 0.931 . S
C273 C271 1.378 . S
C273 C272 1.348 . S
C273 H289 0.930 . S
Gd274 N294 2.622 . S
Gd274 N301 2.570 . S
Gd274 O308 2.353 . S
Gd274 O309 2.468 . S
Gd274 O310 2.427 . S
Gd274 O312 2.388 . S
Gd274 O313 2.386 . S
Gd274 O317 2.307 . S
Gd274 C327 2.805 . S
Gd275 N270 2.622 . S
Gd275 N276 2.570 . S
Gd275 O307 2.386 . S
Gd275 O311 2.307 . S
Gd275 O314 2.353 . S
Gd275 O315 2.468 . S
Gd275 O316 2.427 . S
Gd275 O318 2.388 . S
Gd275 C339 2.805 . S
N276 C266 1.359 . S
N276 Gd275 2.570 . S
N276 C278 1.343 . S
C277 C265 1.422 . S
C277 C279 1.321 . S
C277 H285 0.931 . S
C278 N276 1.343 . S
C278 C279 1.390 1_556 S
C278 H280 0.931 . S
C279 C277 1.321 . S
C279 C278 1.390 1_554 S
C279 H281 0.930 . S
H280 C278 0.931 . S
H281 C279 0.930 . S
H282 C305 0.931 . S
H283 C271 0.929 . S
H284 C306 0.930 . S
H285 C277 0.931 . S
H286 C267 0.930 . S
H287 C296 0.929 . S
H288 C272 0.931 . S
H289 C273 0.930 . S
H290 C328 0.930 . S
H291 C269 0.929 . S
H292 C297 0.931 . S
H293 C298 0.930 . S
N294 Gd274 2.622 . S
N294 C295 1.369 . S
N294 C296 1.338 . S
C295 N294 1.369 . S
C295 C299 1.415 . S
C295 C302 1.422 . S
C296 H287 0.929 . S
C296 N294 1.338 . S
C296 C298 1.378 . S
C297 H292 0.931 . S
C297 C298 1.348 . S
C297 C299 1.413 . S
C298 H293 0.930 . S
C298 C296 1.378 . S
C298 C297 1.348 . S
C299 C295 1.415 . S
C299 C297 1.413 . S
C299 C329 1.437 . S
H300 C329 0.929 . S
N301 Gd274 2.570 . S
N301 C302 1.359 . S
N301 C305 1.343 . S
C302 C295 1.422 . S
C302 N301 1.359 . S
C302 C304 1.421 . S
C303 C304 1.422 . S
C303 C306 1.321 . S
C303 H330 0.931 . S
C304 C302 1.421 . S
C304 C303 1.422 . S
C304 C328 1.417 . S
C305 H282 0.931 . S
C305 N301 1.343 . S
C305 C306 1.390 . S
C306 H284 0.930 . S
C306 C303 1.321 . S
C306 C305 1.390 . S
O307 Gd275 2.386 . S
O307 C319 1.265 . S
O308 Gd274 2.353 . S
O308 C319 1.242 . S
O309 Gd274 2.468 . S
O309 C327 1.263 . S
O310 Gd274 2.427 . S
O310 C327 1.252 . S
O311 Gd275 2.307 . S
O311 C320 1.261 . S
O312 Gd274 2.388 . S
O312 C320 1.252 . S
O313 Gd274 2.386 . S
O313 C331 1.265 . S
O314 Gd275 2.353 . S
O314 C331 1.242 . S
O315 Gd275 2.468 . S
O315 C339 1.263 . S
O316 Gd275 2.427 . S
O316 C339 1.252 . S
O317 Gd274 2.307 . S
O317 C332 1.261 . S
O318 Gd275 2.388 . S
O318 C332 1.252 . S
C319 O307 1.265 . S
C319 O308 1.242 . S
C320 O311 1.261 . S
C320 O312 1.252 . S
C321 C324 1.394 . S
C321 C326 1.370 . S
C321 C327 1.500 . S
C322 C325 1.383 . S
C322 C326 1.395 . S
C323 C324 1.396 . S
C323 C325 1.365 . S
C323 H340 0.929 . S
C324 C321 1.394 . S
C324 C323 1.396 . S
C324 H341 0.930 . S
C325 C322 1.383 . S
C325 C323 1.365 . S
C325 H342 0.931 . S
C326 C321 1.370 . S
C326 C322 1.395 . S
C326 H343 0.930 . S
C327 Gd274 2.805 . S
C327 O309 1.263 . S
C327 O310 1.252 . S
C327 C321 1.500 . S
C328 H290 0.930 . S
C328 C304 1.417 . S
C328 C329 1.329 . S
C329 C299 1.437 . S
C329 H300 0.929 . S
C329 C328 1.329 . S
H330 C303 0.931 . S
C331 O313 1.265 . S
C331 O314 1.242 . S
C332 O317 1.261 . S
C332 O318 1.252 . S
C333 C336 1.394 . S
C333 C338 1.370 . S
C333 C339 1.500 . S
C334 C337 1.383 . S
C334 C338 1.395 . S
C335 C336 1.396 . S
C335 C337 1.365 . S
C335 H344 0.929 . S
C336 C333 1.394 . S
C336 C335 1.396 . S
C336 H345 0.930 . S
C337 C334 1.383 . S
C337 C335 1.365 . S
C337 H346 0.931 1_556 S
C338 C333 1.370 . S
C338 C334 1.395 . S
C338 H347 0.930 . S
C339 Gd275 2.805 . S
C339 O315 1.263 . S
C339 O316 1.252 . S
C339 C333 1.500 . S
H340 C323 0.929 . S
H341 C324 0.930 . S
H342 C325 0.931 . S
H343 C326 0.930 . S
H344 C335 0.929 . S
H345 C336 0.930 . S
H346 C337 0.931 1_554 S
H347 C338 0.930 . S
C348 C350 1.422 . S
C348 C352 1.415 . S
C348 N354 1.369 . S
C349 C350 1.421 1_554 S
C349 C351 1.417 . S
C349 C361 1.422 . S
C350 C348 1.422 . S
C350 C349 1.421 1_556 S
C350 N360 1.359 . S
C351 C349 1.417 . S
C351 C353 1.329 . S
C351 H370 0.930 . S
C352 C348 1.415 . S
C352 C353 1.437 1_556 S
C352 C356 1.413 . S
C353 C351 1.329 . S
C353 C352 1.437 1_554 S
C353 H375 0.929 . S
N354 C348 1.369 . S
N354 C355 1.335 1_455 S
N354 Gd359 2.622 1_455 S
C355 N354 1.335 1_655 S
C355 C357 1.370 1_655 S
C355 H367 0.941 . S
C356 C352 1.413 . S
C356 C357 1.348 . S
C356 H372 0.931 . S
C357 C355 1.370 1_455 S
C357 C356 1.348 . S
C357 H373 0.930 . S
Gd358 N378 2.622 . S
Gd358 N385 2.570 . S
Gd358 O392 2.353 . S
Gd358 O393 2.468 . S
Gd358 O394 2.427 . S
Gd358 O396 2.388 . S
Gd358 O397 2.386 1_455 S
Gd358 O401 2.307 . S
Gd358 C411 2.805 . S
Gd359 N354 2.622 1_655 S
Gd359 N360 2.570 1_655 S
Gd359 O391 2.386 1_655 S
Gd359 O395 2.307 1_655 S
Gd359 O398 2.353 . S
Gd359 O399 2.468 . S
Gd359 O400 2.427 . S
Gd359 O402 2.388 . S
Gd359 C423 2.805 . S
N360 C350 1.359 . S
N360 Gd359 2.570 1_455 S
N360 C362 1.343 . S
C361 C349 1.422 . S
C361 C363 1.321 . S
C361 H369 0.931 . S
C362 N360 1.343 . S
C362 C363 1.390 1_556 S
C362 H364 0.931 . S
C363 C361 1.321 . S
C363 C362 1.390 1_554 S
C363 H365 0.930 . S
H364 C362 0.931 . S
H365 C363 0.930 . S
H366 C389 0.931 . S
H367 C355 0.941 . S
H368 C390 0.930 . S
H369 C361 0.931 . S
H370 C351 0.930 . S
H371 C380 0.929 . S
H372 C356 0.931 . S
H373 C357 0.930 . S
H374 C412 0.930 . S
H375 C353 0.929 . S
H376 C381 0.931 . S
H377 C382 0.930 . S
N378 Gd358 2.622 . S
N378 C379 1.369 . S
N378 C380 1.338 . S
C379 N378 1.369 . S
C379 C383 1.415 1_455 S
C379 C386 1.422 . S
C380 H371 0.929 . S
C380 N378 1.338 . S
C380 C382 1.378 . S
C381 H376 0.931 . S
C381 C382 1.348 1_655 S
C381 C383 1.413 . S
C382 H377 0.930 . S
C382 C380 1.378 . S
C382 C381 1.348 1_455 S
C383 C379 1.415 1_655 S
C383 C381 1.413 . S
C383 C413 1.437 . S
H384 C413 0.929 . S
N385 Gd358 2.570 . S
N385 C386 1.357 . S
N385 C389 1.343 . S
C386 C379 1.422 . S
C386 N385 1.357 . S
C386 C388 1.423 1_455 S
C387 C388 1.422 . S
C387 C390 1.321 . S
C387 H414 0.931 . S
C388 C386 1.423 1_655 S
C388 C387 1.422 . S
C388 C412 1.417 . S
C389 H366 0.931 . S
C389 N385 1.343 . S
C389 C390 1.390 1_455 S
C390 H368 0.930 . S
C390 C387 1.321 . S
C390 C389 1.390 1_655 S
O391 Gd359 2.386 1_455 S
O391 C403 1.265 . S
O392 Gd358 2.353 . S
O392 C403 1.242 . S
O393 Gd358 2.468 . S
O393 C411 1.263 . S
O394 Gd358 2.427 . S
O394 C411 1.252 . S
O395 Gd359 2.307 1_455 S
O395 C404 1.261 . S
O396 Gd358 2.388 . S
O396 C404 1.252 . S
O397 Gd358 2.386 1_655 S
O397 C415 1.265 . S
O398 Gd359 2.353 . S
O398 C415 1.242 . S
O399 Gd359 2.468 . S
O399 C423 1.263 . S
O400 Gd359 2.427 . S
O400 C423 1.252 . S
O401 Gd358 2.307 . S
O401 C416 1.261 . S
O402 Gd359 2.388 . S
O402 C416 1.252 1_655 S
C403 O391 1.265 . S
C403 O392 1.242 . S
C404 O395 1.261 . S
C404 O396 1.252 . S
C405 C408 1.394 . S
C405 C410 1.370 . S
C405 C411 1.500 . S
C406 C409 1.383 . S
C406 C410 1.395 . S
C407 C408 1.396 . S
C407 C409 1.365 . S
C407 H424 0.929 . S
C408 C405 1.394 . S
C408 C407 1.396 . S
C408 H425 0.930 . S
C409 C406 1.383 . S
C409 C407 1.365 . S
C409 H426 0.931 . S
C410 C405 1.370 . S
C410 C406 1.395 . S
C410 H427 0.930 . S
C411 Gd358 2.805 . S
C411 O393 1.263 . S
C411 O394 1.252 . S
C411 C405 1.500 . S
C412 H374 0.930 . S
C412 C388 1.417 . S
C412 C413 1.329 . S
C413 C383 1.437 . S
C413 H384 0.929 . S
C413 C412 1.329 . S
H414 C387 0.931 . S
C415 O397 1.265 . S
C415 O398 1.242 . S
C416 O401 1.261 . S
C416 O402 1.252 1_455 S
C417 C420 1.394 . S
C417 C422 1.370 . S
C417 C423 1.500 . S
C418 C421 1.383 . S
C418 C422 1.395 . S
C419 C420 1.396 . S
C419 C421 1.365 . S
C419 H428 0.929 . S
C420 C417 1.394 . S
C420 C419 1.396 . S
C420 H429 0.930 . S
C421 C418 1.383 . S
C421 C419 1.365 . S
C421 H430 0.931 1_556 S
C422 C417 1.370 . S
C422 C418 1.395 . S
C422 H431 0.930 . S
C423 Gd359 2.805 . S
C423 O399 1.263 . S
C423 O400 1.252 . S
C423 C417 1.500 . S
H424 C407 0.929 . S
H425 C408 0.930 . S
H426 C409 0.931 . S
H427 C410 0.930 . S
H428 C419 0.929 . S
H429 C420 0.930 . S
H430 C421 0.931 1_554 S
H431 C422 0.930 . S
H432 C438 0.930 . S
H433 C442 0.930 . S
H434 C447 0.929 . S
H435 C445 0.929 . S
H436 C440 0.929 . S
H437 C446 0.929 . S
C438 H432 0.930 . S
C438 C439 1.367 . S
C438 C446 1.378 . S
C439 C438 1.367 . S
C439 C447 1.433 . S
C440 H436 0.929 . S
C440 C442 1.378 . S
C440 C444 1.350 . S
C441 C444 1.463 . S
C441 C446 1.350 . S
C441 N449 1.427 . S
C442 H433 0.930 . S
C442 C440 1.378 . S
C442 C443 1.367 . S
C443 C442 1.367 . S
C443 C445 1.433 . S
C444 C440 1.350 . S
C444 C441 1.463 . S
C444 N448 1.427 . S
C445 H435 0.929 . S
C445 C443 1.433 . S
C445 N448 1.384 . S
C446 H437 0.929 . S
C446 C438 1.378 . S
C446 C441 1.350 . S
C447 H434 0.929 . S
C447 C439 1.433 . S
C447 N449 1.384 . S
N448 C444 1.427 . S
N448 C445 1.384 . S
N449 C441 1.427 . S
N449 C447 1.384 . S
H450 C456 0.930 . S
H451 C460 0.930 . S
H452 C465 0.929 . S
H453 C463 0.929 . S
H454 C458 0.929 . S
H455 C464 0.929 . S
C456 H450 0.930 . S
C456 C457 1.367 . S
C456 C464 1.378 . S
C457 C456 1.367 . S
C457 C465 1.433 . S
C458 H454 0.929 . S
C458 C460 1.378 . S
C458 C462 1.350 . S
C459 C462 1.463 . S
C459 C464 1.350 . S
C459 N467 1.427 . S
C460 H451 0.930 . S
C460 C458 1.378 . S
C460 C461 1.367 . S
C461 C460 1.367 . S
C461 C463 1.433 . S
C462 C458 1.350 . S
C462 C459 1.463 . S
C462 N466 1.427 . S
C463 H453 0.929 . S
C463 C461 1.433 . S
C463 N466 1.384 . S
C464 H455 0.929 . S
C464 C456 1.378 . S
C464 C459 1.350 . S
C465 H452 0.929 . S
C465 C457 1.433 . S
C465 N467 1.384 . S
N466 C462 1.427 . S
N466 C463 1.384 . S
N467 C459 1.427 . S
N467 C465 1.384 . S
H468 C474 0.930 . S
H469 C478 0.930 . S
H470 C483 0.929 . S
H471 C481 0.929 . S
H472 C476 0.929 . S
H473 C482 0.929 . S
C474 H468 0.930 . S
C474 C475 1.367 . S
C474 C482 1.378 . S
C475 C474 1.367 . S
C475 C483 1.433 . S
C476 H472 0.929 . S
C476 C478 1.378 . S
C476 C480 1.350 . S
C477 C480 1.463 . S
C477 C482 1.350 . S
C477 N485 1.427 . S
C478 H469 0.930 . S
C478 C476 1.378 . S
C478 C479 1.367 . S
C479 C478 1.367 . S
C479 C481 1.433 . S
C480 C476 1.350 . S
C480 C477 1.463 . S
C480 N484 1.427 . S
C481 H471 0.929 . S
C481 C479 1.433 . S
C481 N484 1.384 . S
C482 H473 0.929 . S
C482 C474 1.378 . S
C482 C477 1.350 . S
C483 H470 0.929 . S
C483 C475 1.433 . S
C483 N485 1.384 . S
N484 C480 1.427 . S
N484 C481 1.384 . S
N485 C477 1.427 . S
N485 C483 1.384 . S
H486 C492 0.930 . S
H487 C496 0.930 . S
H488 C501 0.929 . S
H489 C499 0.929 . S
H490 C494 0.929 . S
H491 C500 0.929 . S
C492 H486 0.930 . S
C492 C493 1.367 . S
C492 C500 1.378 . S
C493 C492 1.367 . S
C493 C501 1.433 . S
C494 H490 0.929 . S
C494 C496 1.378 . S
C494 C498 1.350 . S
C495 C498 1.463 . S
C495 C500 1.350 . S
C495 N503 1.427 . S
C496 H487 0.930 . S
C496 C494 1.378 . S
C496 C497 1.367 . S
C497 C496 1.367 . S
C497 C499 1.433 . S
C498 C494 1.350 . S
C498 C495 1.463 . S
C498 N502 1.427 . S
C499 H489 0.929 . S
C499 C497 1.433 . S
C499 N502 1.384 . S
C500 H491 0.929 . S
C500 C492 1.378 . S
C500 C495 1.350 . S
C501 H488 0.929 . S
C501 C493 1.433 . S
C501 N503 1.384 . S
N502 C498 1.427 . S
N502 C499 1.384 . S
N503 C495 1.427 . S
N503 C501 1.384 . S
H504 C510 0.930 . S
H505 C514 0.930 . S
H506 C519 0.929 . S
H507 C517 0.929 . S
H508 C512 0.929 1_554 S
H509 C518 0.929 . S
C510 H504 0.930 . S
C510 C511 1.367 . S
C510 C518 1.378 . S
C511 C510 1.367 . S
C511 C519 1.433 1_565 S
C512 H508 0.929 1_556 S
C512 C514 1.378 . S
C512 C516 1.350 1_545 S
C513 C516 1.463 1_554 S
C513 C518 1.350 . S
C513 N521 1.427 1_565 S
C514 H505 0.930 . S
C514 C512 1.378 . S
C514 C515 1.384 . S
C515 C514 1.384 . S
C515 C517 1.413 1_545 S
C516 C512 1.350 1_565 S
C516 C513 1.463 1_556 S
C516 N520 1.427 . S
C517 H507 0.929 . S
C517 C515 1.413 1_565 S
C517 N520 1.384 . S
C518 H509 0.929 . S
C518 C510 1.378 . S
C518 C513 1.350 . S
C519 H506 0.929 . S
C519 C511 1.433 1_545 S
C519 N521 1.384 . S
N520 C516 1.427 . S
N520 C517 1.384 . S
N521 C513 1.427 1_545 S
N521 C519 1.384 . S
H522 C528 0.930 . S
H523 C532 0.930 . S
H524 C537 0.929 . S
H525 C535 0.929 . S
H526 C530 0.929 . S
H527 C536 0.929 . S
C528 H522 0.930 . S
C528 C529 1.367 . S
C528 C536 1.378 . S
C529 C528 1.367 . S
C529 C537 1.433 . S
C530 H526 0.929 . S
C530 C532 1.378 . S
C530 C534 1.350 . S
C531 C534 1.463 1_554 S
C531 C536 1.350 . S
C531 N539 1.427 . S
C532 H523 0.930 . S
C532 C530 1.378 . S
C532 C533 1.367 . S
C533 C532 1.367 . S
C533 C535 1.433 . S
C534 C530 1.350 . S
C534 C531 1.463 1_556 S
C534 N538 1.427 1_556 S
C535 H525 0.929 . S
C535 C533 1.433 . S
C535 N538 1.384 1_556 S
C536 H527 0.929 . S
C536 C528 1.378 . S
C536 C531 1.350 . S
C537 H524 0.929 . S
C537 C529 1.433 . S
C537 N539 1.384 . S
N538 C534 1.427 1_554 S
N538 C535 1.384 1_554 S
N539 C531 1.427 . S
N539 C537 1.384 . S
H540 C546 0.930 . S
H541 C550 0.930 . S
H542 C555 0.929 . S
H543 C553 0.929 . S
H544 C548 0.929 . S
H545 C554 0.929 . S
C546 H540 0.930 . S
C546 C547 1.367 . S
C546 C554 1.378 . S
C547 C546 1.367 . S
C547 C555 1.433 . S
C548 H544 0.929 . S
C548 C550 1.378 . S
C548 C552 1.350 . S
C549 C552 1.463 1_554 S
C549 C554 1.350 . S
C549 N557 1.427 . S
C550 H541 0.930 . S
C550 C548 1.378 . S
C550 C551 1.367 . S
C551 C550 1.367 . S
C551 C553 1.433 . S
C552 C548 1.350 . S
C552 C549 1.463 1_556 S
C552 N556 1.427 . S
C553 H543 0.929 . S
C553 C551 1.433 . S
C553 N556 1.384 . S
C554 H545 0.929 . S
C554 C546 1.378 . S
C554 C549 1.350 . S
C555 H542 0.929 . S
C555 C547 1.433 . S
C555 N557 1.384 . S
N556 C552 1.427 . S
N556 C553 1.384 . S
N557 C549 1.427 . S
N557 C555 1.384 . S
H558 C564 0.930 1_455 S
H559 C568 0.930 . S
H560 C573 0.929 . S
H561 C571 0.929 . S
H562 C566 0.929 1_554 S
H563 C572 0.929 . S
C564 H558 0.930 1_655 S
C564 C565 1.367 . S
C564 C572 1.378 1_655 S
C565 C564 1.367 . S
C565 C573 1.433 . S
C566 H562 0.929 1_556 S
C566 C568 1.378 . S
C566 C570 1.350 . S
C567 C570 1.463 1_554 S
C567 C572 1.350 1_655 S
C567 N575 1.427 . S
C568 H559 0.930 . S
C568 C566 1.378 . S
C568 C569 1.367 . S
C569 C568 1.367 . S
C569 C571 1.433 1_655 S
C570 C566 1.350 . S
C570 C567 1.463 1_556 S
C570 N574 1.427 1_655 S
C571 H561 0.929 . S
C571 C569 1.433 1_455 S
C571 N574 1.384 . S
C572 H563 0.929 . S
C572 C564 1.378 1_455 S
C572 C567 1.350 1_455 S
C573 H560 0.929 . S
C573 C565 1.433 . S
C573 N575 1.384 . S
N574 C570 1.427 1_455 S
N574 C571 1.384 . S
N575 C567 1.427 . S
N575 C573 1.384 . S
H576 C582 0.930 . S
H577 C586 0.931 . S
H578 C591 0.929 . S
H579 C589 0.929 . S
H580 C584 0.929 . S
H581 C590 0.929 . S
C582 H576 0.930 . S
C582 C583 1.367 . S
C582 C590 1.378 . S
C583 C582 1.367 . S
C583 C591 1.433 . S
C584 H580 0.929 . S
C584 C586 1.378 . S
C584 C588 1.350 . S
C585 C588 1.463 . S
C585 C590 1.350 . S
C585 N593 1.427 . S
C586 H577 0.931 . S
C586 C584 1.378 . S
C586 C587 1.367 . S
C587 C586 1.367 . S
C587 C589 1.433 . S
C588 C584 1.350 . S
C588 C585 1.463 . S
C588 N592 1.427 . S
C589 H579 0.929 . S
C589 C587 1.433 . S
C589 N592 1.384 . S
C590 H581 0.929 . S
C590 C582 1.378 . S
C590 C585 1.350 . S
C591 H578 0.929 . S
C591 C583 1.433 . S
C591 N593 1.384 . S
N592 C588 1.427 . S
N592 C589 1.384 . S
N593 C585 1.427 . S
N593 C591 1.384 . S
H594 C600 0.930 . S
H595 C604 0.930 . S
H596 C609 0.929 . S
H597 C607 0.924 1_565 S
H598 C602 0.929 . S
H599 C608 0.929 . S
C600 H594 0.930 . S
C600 C601 1.367 . S
C600 C608 1.378 . S
C601 C600 1.367 . S
C601 C609 1.433 . S
C602 H598 0.929 . S
C602 C604 1.378 . S
C602 C606 1.350 . S
C603 C606 1.463 . S
C603 C608 1.350 . S
C603 N611 1.427 . S
C604 H595 0.930 . S
C604 C602 1.378 . S
C604 C605 1.367 . S
C605 C604 1.367 . S
C605 C607 1.436 . S
C606 C602 1.350 . S
C606 C603 1.463 . S
C606 N610 1.427 . S
C607 H597 0.924 1_545 S
C607 C605 1.436 . S
C607 N610 1.386 . S
C608 H599 0.929 . S
C608 C600 1.378 . S
C608 C603 1.350 . S
C609 H596 0.929 . S
C609 C601 1.433 . S
C609 N611 1.384 . S
N610 C606 1.427 . S
N610 C607 1.386 . S
N611 C603 1.427 . S
N611 C609 1.384 . S
H612 C618 0.930 . S
H613 C622 0.930 . S
H614 C627 0.929 . S
H615 C625 0.929 . S
H616 C620 0.929 . S
H617 C626 0.929 . S
C618 H612 0.930 . S
C618 C619 1.367 . S
C618 C626 1.378 . S
C619 C618 1.367 . S
C619 C627 1.433 . S
C620 H616 0.929 . S
C620 C622 1.378 . S
C620 C624 1.350 . S
C621 C624 1.463 . S
C621 C626 1.350 . S
C621 N629 1.427 . S
C622 H613 0.930 . S
C622 C620 1.378 . S
C622 C623 1.367 . S
C623 C622 1.367 . S
C623 C625 1.433 . S
C624 C620 1.350 . S
C624 C621 1.463 . S
C624 N628 1.427 . S
C625 H615 0.929 . S
C625 C623 1.433 . S
C625 N628 1.384 . S
C626 H617 0.929 . S
C626 C618 1.378 . S
C626 C621 1.350 . S
C627 H614 0.929 . S
C627 C619 1.433 . S
C627 N629 1.384 . S
N628 C624 1.427 . S
N628 C625 1.384 . S
N629 C621 1.427 . S
N629 C627 1.384 . S
H630 C636 0.930 . S
H631 C640 0.930 . S
H632 C645 0.929 . S
H633 C643 0.929 . S
H634 C638 0.929 . S
H635 C644 0.929 . S
C636 H630 0.930 . S
C636 C637 1.367 . S
C636 C644 1.378 . S
C637 C636 1.367 . S
C637 C645 1.433 . S
C638 H634 0.929 . S
C638 C640 1.378 . S
C638 C642 1.350 . S
C639 C642 1.463 . S
C639 C644 1.350 . S
C639 N647 1.427 . S
C640 H631 0.930 . S
C640 C638 1.378 . S
C640 C641 1.367 . S
C641 C640 1.367 . S
C641 C643 1.433 . S
C642 C638 1.350 . S
C642 C639 1.463 . S
C642 N646 1.427 . S
C643 H633 0.929 . S
C643 C641 1.433 . S
C643 N646 1.384 . S
C644 H635 0.929 . S
C644 C636 1.378 . S
C644 C639 1.350 . S
C645 H632 0.929 . S
C645 C637 1.433 . S
C645 N647 1.384 . S
N646 C642 1.427 . S
N646 C643 1.384 . S
N647 C639 1.427 . S
N647 C645 1.384 . S
H648 C654 0.930 . S
H649 C658 0.930 . S
H650 C663 0.929 . S
H651 C661 0.929 . S
H652 C656 0.929 . S
H653 C662 0.929 . S
C654 H648 0.930 . S
C654 C655 1.367 1_455 S
C654 C662 1.378 . S
C655 C654 1.367 1_655 S
C655 C663 1.433 . S
C656 H652 0.929 . S
C656 C658 1.378 . S
C656 C660 1.350 . S
C657 C660 1.463 . S
C657 C662 1.350 1_655 S
C657 N665 1.427 . S
C658 H649 0.930 . S
C658 C656 1.378 . S
C658 C659 1.367 1_655 S
C659 C658 1.367 1_455 S
C659 C661 1.433 . S
C660 C656 1.350 . S
C660 C657 1.463 . S
C660 N664 1.427 1_655 S
C661 H651 0.929 . S
C661 C659 1.433 . S
C661 N664 1.384 . S
C662 H653 0.929 . S
C662 C654 1.378 . S
C662 C657 1.350 1_455 S
C663 H650 0.929 . S
C663 C655 1.433 . S
C663 N665 1.384 . S
N664 C660 1.427 1_455 S
N664 C661 1.384 . S
N665 C657 1.427 . S
N665 C663 1.384 . S
H666 C672 0.930 . S
H667 C676 0.928 1_565 S
H668 C681 0.929 . S
H669 C679 0.929 . S
H670 C674 0.929 . S
H671 C680 0.929 1_545 S
C672 H666 0.930 . S
C672 C673 1.367 . S
C672 C680 1.378 . S
C673 C672 1.367 . S
C673 C681 1.433 . S
C674 H670 0.929 . S
C674 C676 1.374 1_565 S
C674 C678 1.355 . S
C675 C678 1.468 . S
C675 C680 1.350 . S
C675 N683 1.427 . S
C676 H667 0.928 1_545 S
C676 C674 1.374 1_545 S
C676 C677 1.373 . S
C677 C676 1.373 . S
C677 C679 1.433 1_554 S
C678 C674 1.355 . S
C678 C675 1.468 . S
C678 N682 1.417 1_565 S
C679 H669 0.929 . S
C679 C677 1.433 1_556 S
C679 N682 1.384 1_556 S
C680 H671 0.929 1_565 S
C680 C672 1.378 . S
C680 C675 1.350 . S
C681 H668 0.929 . S
C681 C673 1.433 . S
C681 N683 1.384 . S
N682 C678 1.417 1_545 S
N682 C679 1.384 1_554 S
N683 C675 1.427 . S
N683 C681 1.384 . S
H684 C690 0.930 . S
H685 C694 0.930 . S
H686 C699 0.929 . S
H687 C697 0.929 . S
H688 C692 0.929 . S
H689 C698 0.929 . S
C690 H684 0.930 . S
C690 C691 1.367 . S
C690 C698 1.378 . S
C691 C690 1.367 . S
C691 C699 1.433 . S
C692 H688 0.929 . S
C692 C694 1.378 . S
C692 C696 1.350 . S
C693 C696 1.463 . S
C693 C698 1.350 . S
C693 N701 1.427 . S
C694 H685 0.930 . S
C694 C692 1.378 . S
C694 C695 1.367 . S
C695 C694 1.367 . S
C695 C697 1.433 1_554 S
C696 C692 1.350 . S
C696 C693 1.463 . S
C696 N700 1.427 . S
C697 H687 0.929 . S
C697 C695 1.433 1_556 S
C697 N700 1.384 1_556 S
C698 H689 0.929 . S
C698 C690 1.378 . S
C698 C693 1.350 . S
C699 H686 0.929 . S
C699 C691 1.433 . S
C699 N701 1.384 . S
N700 C696 1.427 . S
N700 C697 1.384 1_554 S
N701 C693 1.427 . S
N701 C699 1.384 . S
H702 C708 0.930 . S
H703 C712 0.930 1_556 S
H704 C717 0.929 . S
H705 C715 0.929 . S
H706 C710 0.929 . S
H707 C716 0.929 . S
C708 H702 0.930 . S
C708 C709 1.367 . S
C708 C716 1.378 . S
C709 C708 1.367 . S
C709 C717 1.433 . S
C710 H706 0.929 . S
C710 C712 1.378 . S
C710 C714 1.350 . S
C711 C714 1.463 . S
C711 C716 1.350 . S
C711 N719 1.427 . S
C712 H703 0.930 1_554 S
C712 C710 1.378 . S
C712 C713 1.367 . S
C713 C712 1.367 . S
C713 C715 1.433 . S
C714 C710 1.350 . S
C714 C711 1.463 . S
C714 N718 1.427 . S
C715 H705 0.929 . S
C715 C713 1.433 . S
C715 N718 1.384 . S
C716 H707 0.929 . S
C716 C708 1.378 . S
C716 C711 1.350 . S
C717 H704 0.929 . S
C717 C709 1.433 . S
C717 N719 1.384 . S
N718 C714 1.427 . S
N718 C715 1.384 . S
N719 C711 1.427 . S
N719 C717 1.384 . S
H720 C726 0.930 . S
H721 C730 0.930 . S
H722 C735 0.929 . S
H723 C733 0.929 . S
H724 C728 0.929 . S
H725 C734 0.929 . S
C726 H720 0.930 . S
C726 C727 1.367 . S
C726 C734 1.378 . S
C727 C726 1.367 . S
C727 C735 1.433 . S
C728 H724 0.929 . S
C728 C730 1.378 . S
C728 C732 1.350 . S
C729 C732 1.463 . S
C729 C734 1.350 . S
C729 N737 1.427 . S
C730 H721 0.930 . S
C730 C728 1.378 . S
C730 C731 1.367 . S
C731 C730 1.367 . S
C731 C733 1.433 . S
C732 C728 1.350 . S
C732 C729 1.463 . S
C732 N736 1.427 . S
C733 H723 0.929 . S
C733 C731 1.433 . S
C733 N736 1.384 . S
C734 H725 0.929 . S
C734 C726 1.378 . S
C734 C729 1.350 . S
C735 H722 0.929 . S
C735 C727 1.433 . S
C735 N737 1.384 . S
N736 C732 1.427 . S
N736 C733 1.384 . S
N737 C729 1.427 . S
N737 C735 1.384 . S
H738 C744 0.932 1_565 S
H739 C748 0.930 . S
H740 C753 0.929 . S
H741 C751 0.929 1_565 S
H742 C746 0.929 . S
H743 C752 0.929 1_565 S
C744 H738 0.932 1_545 S
C744 C745 1.367 . S
C744 C752 1.378 . S
C745 C744 1.367 . S
C745 C753 1.433 . S
C746 H742 0.929 . S
C746 C748 1.378 . S
C746 C750 1.350 . S
C747 C750 1.463 . S
C747 C752 1.350 . S
C747 N755 1.427 . S
C748 H739 0.930 . S
C748 C746 1.378 . S
C748 C749 1.367 . S
C749 C748 1.367 . S
C749 C751 1.433 . S
C750 C746 1.350 . S
C750 C747 1.463 . S
C750 N754 1.427 . S
C751 H741 0.929 1_545 S
C751 C749 1.433 . S
C751 N754 1.384 . S
C752 H743 0.929 1_545 S
C752 C744 1.378 . S
C752 C747 1.350 . S
C753 H740 0.929 . S
C753 C745 1.433 . S
C753 N755 1.384 . S
N754 C750 1.427 . S
N754 C751 1.384 . S
N755 C747 1.427 . S
N755 C753 1.384 . S
H756 C762 0.930 1_554 S
H757 C766 0.930 . S
H758 C771 0.929 . S
H759 C769 0.929 . S
H760 C764 0.929 . S
H761 C770 0.929 . S
C762 H756 0.930 1_556 S
C762 C763 1.367 . S
C762 C770 1.378 . S
C763 C762 1.367 . S
C763 C771 1.433 . S
C764 H760 0.929 . S
C764 C766 1.378 . S
C764 C768 1.350 . S
C765 C768 1.463 . S
C765 C770 1.350 . S
C765 N773 1.427 . S
C766 H757 0.930 . S
C766 C764 1.378 . S
C766 C767 1.367 . S
C767 C766 1.367 . S
C767 C769 1.433 . S
C768 C764 1.350 . S
C768 C765 1.463 . S
C768 N772 1.427 . S
C769 H759 0.929 . S
C769 C767 1.433 . S
C769 N772 1.384 . S
C770 H761 0.929 . S
C770 C762 1.378 . S
C770 C765 1.350 . S
C771 H758 0.929 . S
C771 C763 1.433 . S
C771 N773 1.384 . S
N772 C768 1.427 . S
N772 C769 1.384 . S
N773 C765 1.427 . S
N773 C771 1.384 . S
H774 C780 0.930 . S
H775 C784 0.930 . S
H776 C789 0.929 . S
H777 C787 0.929 . S
H778 C782 0.929 . S
H779 C788 0.929 . S
C780 H774 0.930 . S
C780 C781 1.367 . S
C780 C788 1.378 . S
C781 C780 1.367 . S
C781 C789 1.433 . S
C782 H778 0.929 . S
C782 C784 1.378 . S
C782 C786 1.350 . S
C783 C786 1.463 . S
C783 C788 1.350 . S
C783 N791 1.427 . S
C784 H775 0.930 . S
C784 C782 1.378 . S
C784 C785 1.367 . S
C785 C784 1.367 . S
C785 C787 1.433 . S
C786 C782 1.350 . S
C786 C783 1.463 . S
C786 N790 1.427 . S
C787 H777 0.929 . S
C787 C785 1.433 . S
C787 N790 1.384 . S
C788 H779 0.929 . S
C788 C780 1.378 . S
C788 C783 1.350 . S
C789 H776 0.929 . S
C789 C781 1.433 . S
C789 N791 1.384 . S
N790 C786 1.427 . S
N790 C787 1.384 . S
N791 C783 1.427 . S
N791 C789 1.384 . S
H792 C798 0.930 . S
H793 C802 0.930 . S
H794 C807 0.929 . S
H795 C805 0.939 . S
H796 C800 0.929 . S
H797 C806 0.936 . S
C798 H792 0.930 . S
C798 C799 1.367 . S
C798 C806 1.378 . S
C799 C798 1.367 . S
C799 C807 1.433 . S
C800 H796 0.929 . S
C800 C802 1.378 . S
C800 C804 1.350 . S
C801 C804 1.463 . S
C801 C806 1.350 . S
C801 N809 1.427 . S
C802 H793 0.930 . S
C802 C800 1.378 . S
C802 C803 1.367 . S
C803 C802 1.367 . S
C803 C805 1.426 1_655 S
C804 C800 1.350 . S
C804 C801 1.463 . S
C804 N808 1.427 . S
C805 H795 0.939 . S
C805 C803 1.426 1_455 S
C805 N808 1.382 1_455 S
C806 H797 0.936 . S
C806 C798 1.378 . S
C806 C801 1.350 . S
C807 H794 0.929 . S
C807 C799 1.433 . S
C807 N809 1.384 . S
N808 C804 1.427 . S
N808 C805 1.382 1_655 S
N809 C801 1.427 . S
N809 C807 1.384 . S
H810 C816 0.930 . S
H811 C820 0.930 . S
H812 C825 0.929 . S
H813 C823 0.929 . S
H814 C818 0.929 . S
H815 C824 0.929 . S
C816 H810 0.930 . S
C816 C817 1.367 1_545 S
C816 C824 1.378 . S
C817 C816 1.367 1_565 S
C817 C825 1.433 . S
C818 H814 0.929 . S
C818 C820 1.378 . S
C818 C822 1.350 . S
C819 C822 1.463 . S
C819 C824 1.350 1_565 S
C819 N827 1.427 . S
C820 H811 0.930 . S
C820 C818 1.378 . S
C820 C821 1.367 . S
C821 C820 1.367 . S
C821 C823 1.433 1_565 S
C822 C818 1.350 . S
C822 C819 1.463 . S
C822 N826 1.427 1_565 S
C823 H813 0.929 . S
C823 C821 1.433 1_545 S
C823 N826 1.384 . S
C824 H815 0.929 . S
C824 C816 1.378 . S
C824 C819 1.350 1_545 S
C825 H812 0.929 . S
C825 C817 1.433 . S
C825 N827 1.384 . S
N826 C822 1.427 1_545 S
N826 C823 1.384 . S
N827 C819 1.427 . S
N827 C825 1.384 . S
H828 C834 0.930 . S
H829 C838 0.930 . S
H830 C843 0.929 . S
H831 C841 0.929 . S
H832 C836 0.929 . S
H833 C842 0.929 . S
C834 H828 0.930 . S
C834 C835 1.367 . S
C834 C842 1.378 . S
C835 C834 1.367 . S
C835 C843 1.433 . S
C836 H832 0.929 . S
C836 C838 1.378 . S
C836 C840 1.350 . S
C837 C840 1.463 . S
C837 C842 1.350 . S
C837 N845 1.427 . S
C838 H829 0.930 . S
C838 C836 1.378 . S
C838 C839 1.367 . S
C839 C838 1.367 . S
C839 C841 1.433 . S
C840 C836 1.350 . S
C840 C837 1.463 . S
C840 N844 1.427 . S
C841 H831 0.929 . S
C841 C839 1.433 . S
C841 N844 1.384 . S
C842 H833 0.929 . S
C842 C834 1.378 . S
C842 C837 1.350 . S
C843 H830 0.929 . S
C843 C835 1.433 . S
C843 N845 1.384 . S
N844 C840 1.427 . S
N844 C841 1.384 . S
N845 C837 1.427 . S
N845 C843 1.384 . S
H846 C852 0.930 . S
H847 C856 0.930 . S
H848 C861 0.929 . S
H849 C859 0.929 . S
H850 C854 0.929 . S
H851 C860 0.929 . S
C852 H846 0.930 . S
C852 C853 1.367 . S
C852 C860 1.378 . S
C853 C852 1.367 . S
C853 C861 1.433 . S
C854 H850 0.929 . S
C854 C856 1.378 . S
C854 C858 1.350 . S
C855 C858 1.463 . S
C855 C860 1.350 . S
C855 N863 1.427 . S
C856 H847 0.930 . S
C856 C854 1.378 . S
C856 C857 1.367 . S
C857 C856 1.367 . S
C857 C859 1.433 . S
C858 C854 1.350 . S
C858 C855 1.463 . S
C858 N862 1.427 . S
C859 H849 0.929 . S
C859 C857 1.433 . S
C859 N862 1.384 . S
C860 H851 0.929 . S
C860 C852 1.378 . S
C860 C855 1.350 . S
C861 H848 0.929 . S
C861 C853 1.433 . S
C861 N863 1.384 . S
N862 C858 1.427 . S
N862 C859 1.384 . S
N863 C855 1.427 . S
N863 C861 1.384 . S
C439 C76 1.886 . S
C443 C164 2.030 . S
C461 C247 2.041 . S
C457 C88 1.875 . S
C479 C332 2.018 . S
C475 C52 1.863 . S
C497 C416 2.010 . S
C493 C64 1.871 . S
C515 C152 2.030 . S
C511 C28 1.882 . S
C529 C40 1.898 . S
C533 C235 2.046 . S
C547 C4 1.878 . S
C551 C320 2.023 . S
C565 C16 1.863 . S
C569 C404 2.009 1_655 S
C587 C154 0.602 1_455 S
C583 C69 0.572 . S
C605 C250 0.622 . S
C601 C81 0.544 . S
C623 C322 0.633 . S
C619 C93 0.588 . S
C637 C57 0.575 . S
C641 C406 0.582 . S
C655 C21 0.579 . S
C659 C166 0.633 1_554 S
C677 C238 0.581 . S
C673 C33 0.572 . S
C695 C334 0.610 1_554 S
C691 C45 0.606 . S
C709 C9 0.559 . S
C713 C418 0.618 1_554 S
C727 C66 1.946 . S
C731 C151 2.125 . S
C745 C78 1.939 . S
C749 C236 2.135 . S
C767 C319 2.140 . S
C763 C90 1.946 . S
C785 C403 2.146 . S
C781 C54 1.956 . S
C799 C18 1.939 . S
C803 C163 2.126 . S
C821 C248 2.135 1_565 S
C817 C30 1.933 . S
C839 C331 2.140 . S
C835 C42 1.940 . S
C853 C6 1.944 . S
C857 C415 2.144 . S
