# Generated by pormake.
# Topology tsx, (6,3)-cn, num edge types: 1
# Building blocks:
#     Node 0, Type 0, BuildingBlock: FUNLAD_clean_sbu_0, # of connection points: 6
#     Node 1, Type 0, BuildingBlock: FUNLAD_clean_sbu_0, # of connection points: 6
#     Node 2, Type 1, BuildingBlock: CUQRIR_clean_linker_1, # of connection points: 3
#     Node 3, Type 1, BuildingBlock: CUQRIR_clean_linker_1, # of connection points: 3
#     Node 4, Type 1, BuildingBlock: CUQRIR_clean_linker_1, # of connection points: 3
#     Node 5, Type 1, BuildingBlock: CUQRIR_clean_linker_1, # of connection points: 3
#     Edge 6, Type (0, 1), BuildingBlock: MIFKUJ_clean_linker_0, # of connection points: 2
#     Edge 7, Type (0, 1), BuildingBlock: MIFKUJ_clean_linker_0, # of connection points: 2
#     Edge 8, Type (0, 1), BuildingBlock: MIFKUJ_clean_linker_0, # of connection points: 2
#     Edge 9, Type (0, 1), BuildingBlock: MIFKUJ_clean_linker_0, # of connection points: 2
#     Edge 10, Type (0, 1), BuildingBlock: MIFKUJ_clean_linker_0, # of connection points: 2
#     Edge 11, Type (0, 1), BuildingBlock: MIFKUJ_clean_linker_0, # of connection points: 2
#     Edge 12, Type (0, 1), BuildingBlock: MIFKUJ_clean_linker_0, # of connection points: 2
#     Edge 13, Type (0, 1), BuildingBlock: MIFKUJ_clean_linker_0, # of connection points: 2
#     Edge 14, Type (0, 1), BuildingBlock: MIFKUJ_clean_linker_0, # of connection points: 2
#     Edge 15, Type (0, 1), BuildingBlock: MIFKUJ_clean_linker_0, # of connection points: 2
#     Edge 16, Type (0, 1), BuildingBlock: MIFKUJ_clean_linker_0, # of connection points: 2
#     Edge 17, Type (0, 1), BuildingBlock: MIFKUJ_clean_linker_0, # of connection points: 2
# Relax obj value: 0.154
# Max RMSD: 0.156
# Mean RMSD: 0.139
data_MOF--net-tsx--node1-FUNLAD_clean_sbu_0--node2-CUQRIR_clean_linker_1--edge1-MIFKUJ_clean_linker_0
_symmetry_space_group_name_H-M    P1
_symmetry_Int_Tables_number       1
_symmetry_cell_setting            triclinic
loop_
_symmetry_equiv_pos_as_xyz
'x, y, z'
_cell_length_a     23.670126
_cell_length_b     26.120514
_cell_length_c     47.703429
_cell_angle_alpha  80.51049
_cell_angle_beta   92.154511
_cell_angle_gamma 89.79567
loop_
_atom_site_label
_atom_site_type_symbol
_atom_site_fract_x
_atom_site_fract_y
_atom_site_fract_z
_atom_type_partial_charge
C0 C 0.96209 0.90341 0.00533 0.0
N1 N 0.03598 0.96074 0.07389 0.0
C2 C 0.98446 0.96647 0.08482 0.0
C3 C 0.97918 0.96265 0.11412 0.0
C4 C 0.02715 0.9518 0.13231 0.0
C5 C 0.07946 0.94451 0.12063 0.0
C6 C 0.08305 0.94966 0.09115 0.0
Zn7 Zn 0.04286 0.97038 0.03076 0.0
C8 C 0.12783 0.89805 0.01337 0.0
N9 N 0.05678 0.99109 0.94067 0.0
C10 C 0.00905 0.99185 0.92383 0.0
C11 C 0.1085 0.9988 0.92924 0.0
C12 C 0.11354 0.00844 0.89974 0.0
C13 C 0.06489 0.00996 0.88179 0.0
C14 C 0.01217 0.00101 0.89427 0.0
Zn15 Zn 0.04993 0.98077 0.98387 0.0
O16 O 0.97837 0.91817 0.02829 0.0
C17 C 0.96336 0.05196 0.00013 0.0
O18 O 0.9864 0.92118 0.98238 0.0
H19 H 0.14594 0.9981 0.94302 0.0
H20 H 0.94745 0.97471 0.07079 0.0
H21 H 0.96834 0.98572 0.93332 0.0
O22 O 0.98115 0.0321 0.02508 0.0
O23 O 0.98525 0.03724 0.97888 0.0
H24 H 0.12364 0.94561 0.08204 0.0
O25 O 0.11185 0.04022 0.98678 0.0
O26 O 0.10774 0.02399 0.03324 0.0
O27 O 0.1147 0.92403 0.98908 0.0
O28 O 0.1033 0.90782 0.03519 0.0
C29 C 0.12882 0.0493 0.01112 0.0
H30 H 0.93813 0.96837 0.1225 0.0
H31 H 0.11744 0.93671 0.13408 0.0
H32 H 0.15499 0.0156 0.89115 0.0
H33 H 0.97359 1.00076 0.88136 0.0
C34 C 0.42705 0.47236 0.5023 0.0
N35 N 0.52421 0.53801 0.56225 0.0
C36 C 0.47937 0.52835 0.57927 0.0
C37 C 0.48757 0.51955 0.60881 0.0
C38 C 0.5424 0.52153 0.62105 0.0
C39 C 0.58771 0.53241 0.60286 0.0
C40 C 0.5777 0.54009 0.57346 0.0
Zn41 Zn 0.5125 0.54673 0.51912 0.0
C42 C 0.59106 0.47622 0.49477 0.0
N43 N 0.49208 0.56169 0.4289 0.0
C44 C 0.43971 0.56489 0.41593 0.0
C45 C 0.53948 0.5681 0.41349 0.0
C46 C 0.53535 0.57922 0.38389 0.0
C47 C 0.4819 0.58341 0.36983 0.0
C48 C 0.43362 0.57562 0.38627 0.0
Zn49 Zn 0.50163 0.5523 0.47217 0.0
O50 O 0.45112 0.48801 0.52353 0.0
C51 C 0.42447 0.62417 0.49599 0.0
O52 O 0.44019 0.49227 0.47725 0.0
H53 H 0.58072 0.5657 0.4242 0.0
H54 H 0.43719 0.52678 0.56994 0.0
H55 H 0.40259 0.55984 0.42861 0.0
O56 O 0.44863 0.60393 0.5195 0.0
O57 O 0.43811 0.60883 0.4732 0.0
H58 H 0.61287 0.54744 0.55957 0.0
O59 O 0.56344 0.61211 0.46778 0.0
O60 O 0.57227 0.6062 0.51412 0.0
O61 O 0.56519 0.49631 0.47177 0.0
O62 O 0.57754 0.49001 0.518 0.0
C63 C 0.58585 0.62748 0.48948 0.0
H64 H 0.45132 0.51046 0.62183 0.0
H65 H 0.63057 0.53534 0.61115 0.0
H66 H 0.57375 0.58567 0.37223 0.0
H67 H 0.39158 0.57771 0.37636 0.0
C68 C 0.06918 0.11799 0.442 0.0
N69 N 0.08334 0.07896 0.42803 0.0
N70 N 0.02019 0.14126 0.43081 0.0
C71 C 0.10311 0.133 0.46659 0.0
C72 C 0.00592 0.11564 0.40913 0.0
N73 N 0.04388 0.0777 0.40769 0.0
C74 C 0.95619 0.12896 0.3886 0.0
H75 H 0.12462 0.09862 0.47919 0.0
H76 H 0.07676 0.15225 0.48055 0.0
H77 H 0.13622 0.16066 0.45811 0.0
H78 H 0.9402 0.16883 0.38891 0.0
H79 H 0.92184 0.10088 0.39449 0.0
H80 H 0.96817 0.12568 0.36669 0.0
C81 C 0.01043 0.03153 0.53802 0.0
N82 N 0.03778 0.05345 0.55841 0.0
N83 N 0.97903 0.99104 0.54991 0.0
C84 C 0.00874 0.05364 0.50687 0.0
C85 C 0.98787 0.98952 0.57826 0.0
N86 N 0.02343 0.02747 0.58335 0.0
C87 C 0.96378 0.9499 0.60108 0.0
H88 H 0.96937 0.04295 0.49597 0.0
H89 H 0.0454 0.03834 0.49691 0.0
H90 H 0.01107 0.09652 0.50396 0.0
H91 H 0.95375 0.91337 0.59303 0.0
H92 H 0.92446 0.96584 0.60842 0.0
H93 H 0.99405 0.94131 0.61962 0.0
C94 C 0.46914 0.43382 0.95669 0.0
N95 N 0.50396 0.41778 0.93788 0.0
N96 N 0.44818 0.48202 0.94655 0.0
C97 C 0.45799 0.40343 0.98541 0.0
C98 C 0.47065 0.49426 0.92071 0.0
N99 N 0.50461 0.45555 0.91556 0.0
C100 C 0.45896 0.54405 0.90046 0.0
H101 H 0.44045 0.36515 0.98292 0.0
H102 H 0.42708 0.4236 0.99663 0.0
H103 H 0.49817 0.39659 -0.00173 0.0
H104 H 0.49352 0.57175 0.90292 0.0
H105 H 0.4184 0.56188 0.90498 0.0
H106 H 0.45749 0.53706 0.87812 0.0
C107 C 0.48251 0.52154 0.04874 0.0
N108 N 0.49726 0.56164 0.06202 0.0
N109 N 0.43304 0.50103 0.05829 0.0
C110 C 0.51632 0.50237 0.0265 0.0
C111 C 0.41827 0.53011 0.0779 0.0
N112 N 0.45721 0.56732 0.08008 0.0
C113 C 0.37041 0.51769 0.09777 0.0
H114 H 0.53917 0.53461 0.01375 0.0
H115 H 0.48844 0.48387 0.01221 0.0
H116 H 0.54766 0.47304 0.03701 0.0
H117 H 0.38599 0.51751 0.11998 0.0
H118 H 0.35123 0.47953 0.09632 0.0
H119 H 0.33735 0.54834 0.09263 0.0
H120 H 0.17265 0.12186 0.96917 0.0
H121 H 0.23264 0.19581 0.97577 0.0
H122 H 0.23789 0.14407 0.06651 0.0
H123 H 0.17814 0.07093 0.0602 0.0
H124 H 0.20716 0.24272 0.05427 0.0
H125 H 0.35082 0.13437 0.02656 0.0
H126 H 0.40172 0.08235 0.99677 0.0
H127 H 0.41496 0.21629 0.93188 0.0
H128 H 0.36276 0.2689 0.96092 0.0
H129 H 0.47927 0.40526 0.06565 0.0
H130 H 0.43288 0.32529 0.05647 0.0
H131 H 0.28082 0.41323 0.02766 0.0
H132 H 0.32678 0.49242 0.03818 0.0
H133 H 0.38857 0.29475 0.00973 0.0
H134 H 0.16674 0.34024 0.0472 0.0
H135 H 0.12474 0.39127 0.08046 0.0
H136 H 0.27898 0.37659 0.13159 0.0
H137 H 0.32149 0.32464 0.09897 0.0
C138 C 0.18729 0.12591 0.99047 0.0
C139 C 0.17013 0.09076 0.01417 0.0
C140 C 0.22167 0.1681 0.99421 0.0
C141 C 0.23959 0.17557 0.02166 0.0
C142 C 0.22428 0.13932 0.04515 0.0
C143 C 0.19007 0.09742 0.04147 0.0
C144 C 0.27055 0.22295 0.02643 0.0
C145 C 0.24673 0.25411 0.04438 0.0
C146 C 0.32256 0.23764 0.01381 0.0
C147 C 0.35185 0.20542 0.99577 0.0
C148 C 0.36357 0.15257 0.00572 0.0
C149 C 0.39288 0.123 0.989 0.0
C150 C 0.41128 0.14593 0.96239 0.0
C151 C 0.40039 0.1985 0.95243 0.0
C152 C 0.37083 0.22818 0.969 0.0
C153 C 0.43606 0.40714 0.05724 0.0
C154 C 0.40649 0.45461 0.05212 0.0
C155 C 0.40964 0.36171 0.05198 0.0
C156 C 0.35333 0.36323 0.04145 0.0
C157 C 0.32411 0.411 0.03601 0.0
C158 C 0.35028 0.45617 0.04173 0.0
C159 C 0.32455 0.31466 0.03702 0.0
C160 C 0.34868 0.28346 0.01924 0.0
C161 C 0.2733 0.29933 0.05011 0.0
C162 C 0.24744 0.32897 0.07045 0.0
C163 C 0.19154 0.34759 0.06564 0.0
C164 C 0.16766 0.37671 0.08438 0.0
C165 C 0.19923 0.3873 0.10807 0.0
C166 C 0.25462 0.36848 0.11319 0.0
C167 C 0.27861 0.33918 0.09459 0.0
H168 H 0.18074 0.41001 0.12249 0.0
H169 H 0.43417 0.12301 0.94954 0.0
H170 H 0.11945 0.79927 0.042 0.0
H171 H 0.18136 0.72549 0.03842 0.0
H172 H 0.29353 0.82856 0.987 0.0
H173 H 0.2291 0.90114 0.98873 0.0
H174 H 0.27843 0.75557 0.96206 0.0
H175 H 0.32616 0.75897 0.05955 0.0
H176 H 0.31135 0.76021 0.11032 0.0
H177 H 0.22949 0.61243 0.1177 0.0
H178 H 0.24334 0.61049 0.06695 0.0
H179 H 0.49341 0.56903 0.95977 0.0
H180 H 0.44551 0.6363 0.98071 0.0
H181 H 0.29465 0.5437 0.98795 0.0
H182 H 0.34321 0.47597 0.96714 0.0
H183 H 0.33495 0.60846 0.03779 0.0
H184 H 0.28195 0.61836 0.9352 0.0
H185 H 0.31098 0.61827 0.88605 0.0
H186 H 0.42072 0.74695 0.89196 0.0
H187 H 0.39275 0.74732 0.94128 0.0
C188 C 0.15793 0.80603 0.03039 0.0
C189 C 0.16967 0.85559 0.01556 0.0
C190 C 0.19361 0.76391 0.02849 0.0
C191 C 0.2427 0.77109 0.01255 0.0
C192 C 0.25582 0.82155 -0.00081 0.0
C193 C 0.21922 0.86314 0.00028 0.0
C194 C 0.27707 0.72589 0.00713 0.0
C195 C 0.29124 0.72411 0.97893 0.0
C196 C 0.29375 0.68385 0.02879 0.0
C197 C 0.28511 0.68495 0.05932 0.0
C198 C 0.3045 0.72697 0.07193 0.0
C199 C 0.2964 0.72774 0.10074 0.0
C200 C 0.26925 0.68656 0.1172 0.0
C201 C 0.25044 0.64436 0.10494 0.0
C202 C 0.25842 0.64339 0.07615 0.0
C203 C 0.45033 0.56293 0.96633 0.0
C204 C 0.42163 0.51785 0.9619 0.0
C205 C 0.42328 0.60092 0.97846 0.0
C206 C 0.3668 0.59461 0.98604 0.0
C207 C 0.33859 0.54871 0.98262 0.0
C208 C 0.36597 0.51039 0.97063 0.0
C209 C 0.3351 0.63923 0.99315 0.0
C210 C 0.32176 0.64057 0.02138 0.0
C211 C 0.32036 0.6817 0.97181 0.0
C212 C 0.33544 0.68273 0.94186 0.0
C213 C 0.31235 0.64653 0.926 0.0
C214 C 0.32859 0.64645 0.89813 0.0
C215 C 0.36772 0.68255 0.8859 0.0
C216 C 0.39042 0.71902 0.90146 0.0
C217 C 0.3743 0.71926 0.92933 0.0
H218 H 0.38041 0.68229 0.86436 0.0
H219 H 0.26298 0.68733 0.13948 0.0
H220 H 0.88677 0.88408 0.04679 0.0
H221 H 0.81046 0.82206 0.0512 0.0
H222 H 0.85015 0.77832 0.97081 0.0
H223 H 0.92735 0.84211 0.96585 0.0
H224 H 0.73299 0.78348 0.9786 0.0
H225 H 0.89442 0.70055 0.02844 0.0
H226 H 0.97903 0.69268 0.06067 0.0
H227 H 0.87583 0.70898 0.13085 0.0
H228 H 0.79065 0.71778 0.09896 0.0
H229 H 0.606 0.52964 0.06401 0.0
H230 H 0.68794 0.58313 0.04932 0.0
H231 H 0.58098 0.71995 0.03555 0.0
H232 H 0.49859 0.66562 0.04897 0.0
H233 H 0.74028 0.65656 0.06849 0.0
H234 H 0.62484 0.80656 0.9809 0.0
H235 H 0.54249 0.80854 0.94741 0.0
H236 H 0.56062 0.6447 0.94829 0.0
H237 H 0.64338 0.64177 0.9815 0.0
C238 C 0.87953 0.86149 0.0299 0.0
C239 C 0.91386 0.86737 0.00616 0.0
C240 C 0.83567 0.82603 0.03248 0.0
C241 C 0.82536 0.79484 0.01166 0.0
C242 C 0.85777 0.80189 0.98722 0.0
C243 C 0.90184 0.8381 0.98445 0.0
C244 C 0.78219 0.75367 0.01672 0.0
C245 C 0.73467 0.75538 -0.00192 0.0
C246 C 0.78512 0.71613 0.04182 0.0
C247 C 0.83614 0.71006 0.06125 0.0
C248 C 0.88978 0.70274 0.05072 0.0
C249 C 0.93786 0.6981 0.06893 0.0
C250 C 0.93282 0.70038 0.09778 0.0
C251 C 0.87966 0.7072 0.1085 0.0
C252 C 0.83145 0.71194 0.09037 0.0
C253 C 0.60027 0.57112 0.05768 0.0
C254 C 0.54628 0.59372 0.05701 0.0
C255 C 0.64695 0.60167 0.04945 0.0
C256 C 0.64045 0.65544 0.04067 0.0
C257 C 0.5868 0.67838 0.04149 0.0
C258 C 0.54 0.64765 0.04948 0.0
C259 C 0.6899 0.68749 0.03093 0.0
C260 C 0.7387 0.68404 0.04875 0.0
C261 C 0.68867 0.72215 0.00469 0.0
C262 C 0.64015 0.72395 0.98386 0.0
C263 C 0.61152 0.77103 0.97379 0.0
C264 C 0.56466 0.77227 0.95491 0.0
C265 C 0.54621 0.72673 0.94583 0.0
C266 C 0.57477 0.67989 0.95546 0.0
C267 C 0.62165 0.67842 0.97431 0.0
H268 H 0.50988 0.72776 0.93128 0.0
H269 H 0.97009 0.69682 0.11185 0.0
H270 H 0.91852 0.102 0.94944 0.0
H271 H 0.83698 0.16055 0.94126 0.0
H272 H 0.8164 0.14432 0.03175 0.0
H273 H 0.89879 0.08594 0.04021 0.0
H274 H 0.728 0.14688 0.95315 0.0
H275 H 0.76532 0.25966 0.0463 0.0
H276 H 0.84416 0.28518 0.07626 0.0
H277 H 0.95821 0.28009 0.00885 0.0
H278 H 0.87994 0.25522 0.97838 0.0
H279 H 0.48861 0.31448 0.95552 0.0
H280 H 0.5631 0.24876 0.97009 0.0
H281 H 0.68995 0.36531 0.94772 0.0
H282 H 0.61576 0.4312 0.93557 0.0
H283 H 0.72176 0.3086 0.99482 0.0
H284 H 0.64422 0.27366 0.90442 0.0
H285 H 0.56493 0.25382 0.87302 0.0
H286 H 0.53742 0.1102 0.92876 0.0
H287 H 0.61526 0.12997 0.96103 0.0
C288 C 0.89695 0.11103 0.96768 0.0
C289 C 0.91547 0.0895 0.99553 0.0
C290 C 0.85002 0.14426 0.96292 0.0
C291 C 0.82056 0.15691 0.98585 0.0
C292 C 0.8388 0.13548 0.01372 0.0
C293 C 0.88596 0.10221 0.01853 0.0
C294 C 0.77151 0.19334 0.98038 0.0
C295 C 0.72652 0.18219 0.96232 0.0
C296 C 0.76962 0.23951 0.99221 0.0
C297 C 0.8169 0.25497 0.01022 0.0
C298 C 0.80721 0.26412 0.03787 0.0
C299 C 0.85179 0.27846 0.05493 0.0
C300 C 0.9062 0.28405 0.04451 0.0
C301 C 0.9161 0.27553 0.01694 0.0
C302 C 0.87166 0.26124 -0.00022 0.0
C303 C 0.53245 0.3259 0.95414 0.0
C304 C 0.54668 0.37775 0.94444 0.0
C305 C 0.57499 0.28834 0.96215 0.0
C306 C 0.63233 0.30192 0.95978 0.0
C307 C 0.64619 0.35377 0.94984 0.0
C308 C 0.60385 0.39126 0.94246 0.0
C309 C 0.67844 0.26264 0.96726 0.0
C310 C 0.72287 0.27312 0.98579 0.0
C311 C 0.6803 0.21643 0.95538 0.0
C312 C 0.63532 0.20347 0.93525 0.0
C313 C 0.62118 0.2379 0.91002 0.0
C314 C 0.57644 0.22672 0.89209 0.0
C315 C 0.54628 0.18074 0.89885 0.0
C316 C 0.56082 0.14581 0.92355 0.0
C317 C 0.60517 0.15702 0.9417 0.0
H318 H 0.51163 0.17218 0.88495 0.0
H319 H 0.94066 0.29512 0.05776 0.0
H320 H 0.65701 0.65757 0.44593 0.0
H321 H 0.7273 0.72739 0.44287 0.0
H322 H 0.67347 0.76504 0.52248 0.0
H323 H 0.60487 0.69491 0.5261 0.0
H324 H 0.69103 0.85421 0.47472 0.0
H325 H 0.77825 0.69259 0.52846 0.0
H326 H 0.80917 0.60138 0.53186 0.0
H327 H 0.90961 0.64301 0.45859 0.0
H328 H 0.87866 0.73444 0.4546 0.0
H329 H 0.87036 0.97011 0.56093 0.0
H330 H 0.80774 0.91433 0.53795 0.0
H331 H 0.94064 0.88686 0.48244 0.0
H332 H 0.00449 0.94091 0.50676 0.0
H333 H 0.8897 0.79937 0.50091 0.0
H334 H 0.82687 0.96469 0.45677 0.0
H335 H 0.80048 0.05671 0.45435 0.0
H336 H 0.65638 0.01236 0.50453 0.0
H337 H 0.6825 0.92007 0.50779 0.0
C338 C 0.66007 0.68111 0.46261 0.0
C339 C 0.62603 0.67073 0.48638 0.0
C340 C 0.69994 0.72088 0.46079 0.0
C341 C 0.70506 0.7513 0.48239 0.0
C342 C 0.66968 0.74211 0.50554 0.0
C343 C 0.63095 0.70181 0.50769 0.0
C344 C 0.75006 0.79014 0.48259 0.0
C345 C 0.73464 0.84261 0.48015 0.0
C346 C 0.80712 0.7749 0.48858 0.0
C347 C 0.82567 0.72009 0.49103 0.0
C348 C 0.80653 0.68217 0.51294 0.0
C349 C 0.82415 0.63049 0.51501 0.0
C350 C 0.8613 0.61641 0.49544 0.0
C351 C 0.88084 0.65398 0.47373 0.0
C352 C 0.86328 0.70572 0.47155 0.0
C353 C 0.8862 0.95177 0.54401 0.0
C354 C 0.94207 0.95924 0.53571 0.0
C355 C 0.85029 0.92056 0.53057 0.0
C356 C 0.86911 0.8973 0.50802 0.0
C357 C 0.9251 0.90476 0.49962 0.0
C358 C 0.96135 0.93563 0.51338 0.0
C359 C 0.83032 0.86349 0.49442 0.0
C360 C 0.84678 0.81185 0.49432 0.0
C361 C 0.77443 0.87984 0.48552 0.0
C362 C 0.75675 0.93527 0.48255 0.0
C363 C 0.78956 0.9745 0.46733 0.0
C364 C 0.77471 0.02675 0.46585 0.0
C365 C 0.72679 0.04037 0.47929 0.0
C366 C 0.69346 0.00174 0.4941 0.0
C367 C 0.70821 0.9494 0.49573 0.0
H368 H 0.71549 0.08086 0.47822 0.0
H369 H 0.87505 0.57642 0.49713 0.0
H370 H 0.66484 0.43418 0.53842 0.0
H371 H 0.74684 0.37773 0.53549 0.0
H372 H 0.70422 0.37706 0.44685 0.0
H373 H 0.62324 0.43362 0.44942 0.0
H374 H 0.76127 0.28049 0.52054 0.0
H375 H 0.82174 0.39087 0.40971 0.0
H376 H 0.81391 0.4796 0.38247 0.0
H377 H 0.80884 0.54186 0.46019 0.0
H378 H 0.81819 0.45366 0.48795 0.0
H379 H 0.91263 0.12388 0.44485 0.0
H380 H 0.84872 0.18269 0.46308 0.0
H381 H 0.98427 0.29239 0.46563 0.0
H382 H 0.04709 0.23474 0.44481 0.0
H383 H 0.8959 0.34197 0.4452 0.0
H384 H 0.92958 0.21597 0.52814 0.0
H385 H 0.93961 0.12681 0.5547 0.0
H386 H 0.76487 0.09814 0.53635 0.0
H387 H 0.7537 0.18685 0.50938 0.0
C388 C 0.67277 0.42164 0.51838 0.0
C389 C 0.63787 0.43882 0.49407 0.0
C390 C 0.71951 0.38934 0.51678 0.0
C391 C 0.73206 0.37396 0.49086 0.0
C392 C 0.69586 0.38927 0.46695 0.0
C393 C 0.64948 0.42156 0.46848 0.0
C394 C 0.78399 0.34363 0.48804 0.0
C395 C 0.79116 0.29398 0.50432 0.0
C396 C 0.82383 0.36201 0.46743 0.0
C397 C 0.82035 0.41549 0.45092 0.0
C398 C 0.81956 0.4235 0.42102 0.0
C399 C 0.81483 0.47373 0.40548 0.0
C400 C 0.81091 0.51633 0.41961 0.0
C401 C 0.812 0.50882 0.4493 0.0
C402 C 0.81703 0.45871 0.46494 0.0
C403 C 0.92846 0.16081 0.44906 0.0
C404 C 0.98432 0.17529 0.44318 0.0
C405 C 0.89231 0.19401 0.46002 0.0
C406 C 0.91189 0.2416 0.46642 0.0
C407 C 0.96824 0.25575 0.46104 0.0
C408 C 0.00414 0.2229 0.44932 0.0
C409 C 0.87206 0.2777 0.47681 0.0
C410 C 0.86707 0.32865 0.46195 0.0
C411 C 0.83509 0.26079 0.49914 0.0
C412 C 0.84078 0.20826 0.51673 0.0
C413 C 0.89321 0.19074 0.52981 0.0
C414 C 0.89916 0.14024 0.5449 0.0
C415 C 0.85297 0.10692 0.54724 0.0
C416 C 0.80059 0.12408 0.5346 0.0
C417 C 0.79436 0.17455 0.51949 0.0
H418 H 0.85779 0.06782 0.55887 0.0
H419 H 0.80702 0.55517 0.40754 0.0
H420 H 0.40104 0.39884 0.46938 0.0
H421 H 0.33342 0.32811 0.47934 0.0
H422 H 0.28654 0.38516 0.55533 0.0
H423 H 0.35675 0.45352 0.54637 0.0
H424 H 0.29236 0.28951 0.56816 0.0
H425 H 0.2017 0.39941 0.48981 0.0
H426 H 0.18977 0.45162 0.44193 0.0
H427 H 0.21552 0.31542 0.40424 0.0
H428 H 0.22846 0.26247 0.4519 0.0
H429 H 0.03038 0.14466 0.57786 0.0
H430 H 0.09608 0.21773 0.56885 0.0
H431 H 0.19774 0.13027 0.51992 0.0
H432 H 0.13285 0.05684 0.52961 0.0
H433 H 0.15954 0.2416 0.494 0.0
H434 H 0.2499 0.13427 0.57722 0.0
H435 H 0.24614 0.08666 0.62624 0.0
H436 H 0.20442 0.22794 0.65608 0.0
H437 H 0.20668 0.27623 0.60709 0.0
C438 C 0.37602 0.39625 0.4881 0.0
C439 C 0.38399 0.43152 0.5071 0.0
C440 C 0.33709 0.35603 0.49374 0.0
C441 C 0.30395 0.35154 0.51791 0.0
C442 C 0.31156 0.38743 0.53662 0.0
C443 C 0.35155 0.42665 0.53143 0.0
C444 C 0.26265 0.30866 0.52423 0.0
C445 C 0.26295 0.27975 0.55191 0.0
C446 C 0.22402 0.29529 0.50319 0.0
C447 C 0.21676 0.32709 0.47445 0.0
C448 C 0.20537 0.38066 0.47131 0.0
C449 C 0.19832 0.41038 0.44421 0.0
C450 C 0.20208 0.38689 0.42006 0.0
C451 C 0.21276 0.33359 0.42296 0.0
C452 C 0.21994 0.3037 0.45002 0.0
C453 C 0.0671 0.14107 0.56547 0.0
C454 C 0.0768 0.09566 0.55419 0.0
C455 C 0.10425 0.18269 0.56022 0.0
C456 C 0.15125 0.17925 0.54354 0.0
C457 C 0.16134 0.13361 0.53263 0.0
C458 C 0.12453 0.09192 0.53813 0.0
C459 C 0.19021 0.2232 0.53749 0.0
C460 C 0.18921 0.252 0.50999 0.0
C461 C 0.22688 0.23744 0.55883 0.0
C462 C 0.22795 0.20878 0.58844 0.0
C463 C 0.23956 0.15514 0.59419 0.0
C464 C 0.2377 0.12802 0.62198 0.0
C465 C 0.22492 0.15423 0.64426 0.0
C466 C 0.21425 0.20768 0.6388 0.0
C467 C 0.21583 0.23494 0.61103 0.0
H468 H 0.2234 0.13316 0.66574 0.0
H469 H 0.19657 0.40995 0.39909 0.0
H470 H 0.35577 0.66621 0.45094 0.0
H471 H 0.30026 0.74623 0.44573 0.0
H472 H 0.34883 0.7638 0.53167 0.0
H473 H 0.40394 0.68282 0.53729 0.0
H474 H 0.23976 0.7937 0.51882 0.0
H475 H 0.41816 0.83065 0.47813 0.0
H476 H 0.49845 0.8182 0.4484 0.0
H477 H 0.38948 0.84818 0.37338 0.0
H478 H 0.30831 0.86002 0.40272 0.0
H479 H 0.19664 0.08254 0.43748 0.0
H480 H 0.25941 0.0087 0.4569 0.0
H481 H 0.1162 0.90607 0.461 0.0
H482 H 0.054 0.97991 0.4429 0.0
H483 H 0.28563 0.92682 0.43617 0.0
H484 H 0.1307 0.80543 0.51249 0.0
H485 H 0.05688 0.8197 0.5456 0.0
H486 H 0.12986 0.96618 0.55529 0.0
H487 H 0.20425 0.95297 0.5222 0.0
C488 C 0.35411 0.68664 0.46891 0.0
C489 C 0.38475 0.66847 0.49444 0.0
C490 C 0.32252 0.73251 0.46585 0.0
C491 C 0.3215 0.76156 0.48809 0.0
C492 C 0.34939 0.74211 0.51418 0.0
C493 C 0.38081 0.69586 0.51735 0.0
C494 C 0.29357 0.81335 0.48333 0.0
C495 C 0.24982 0.82298 0.50086 0.0
C496 C 0.30819 0.85223 0.46048 0.0
C497 C 0.35706 0.84592 0.44266 0.0
C498 C 0.41124 0.83431 0.45531 0.0
C499 C 0.45692 0.82738 0.43852 0.0
C500 C 0.44905 0.83233 0.40902 0.0
C501 C 0.3955 0.84435 0.39624 0.0
C502 C 0.34965 0.85125 0.41294 0.0
C503 C 0.17907 0.0441 0.44279 0.0
C504 C 0.12101 0.03633 0.43862 0.0
C505 C 0.21462 0.00209 0.45384 0.0
C506 C 0.19241 0.9519 0.46084 0.0
C507 C 0.13425 0.94445 0.45643 0.0
C508 C 0.09889 0.98635 0.44565 0.0
C509 C 0.23003 0.90653 0.47095 0.0
C510 C 0.27583 0.89802 0.45441 0.0
C511 C 0.21811 0.86939 0.49515 0.0
C512 C 0.17309 0.87815 0.5148 0.0
C513 C 0.13117 0.84064 0.52173 0.0
C514 C 0.08915 0.84861 0.54044 0.0
C515 C 0.08882 0.89378 0.55255 0.0
C516 C 0.13017 0.93133 0.54578 0.0
C517 C 0.17217 0.92368 0.52699 0.0
H518 H 0.05652 0.89961 0.56719 0.0
H519 H 0.48445 0.82691 0.39606 0.0
H520 H 0.98423 0.02776 0.15787 0.0
H521 H 0.98527 0.03181 0.20864 0.0
H522 H 0.0605 0.87844 0.22712 0.0
H523 H 0.06221 0.87574 0.17597 0.0
H524 H 0.94033 0.98424 0.25247 0.0
H525 H 0.14481 0.86711 0.28698 0.0
H526 H 0.23327 0.84238 0.26661 0.0
H527 H 0.22195 0.97991 0.20335 0.0
H528 H 0.13385 0.00571 0.22356 0.0
H529 H 0.97177 0.00267 0.39763 0.0
H530 H 0.96898 0.95921 0.35561 0.0
H531 H 0.11685 0.04436 0.32517 0.0
H532 H 0.12118 0.0846 0.36807 0.0
H533 H 0.12125 0.95697 0.30905 0.0
H534 H 0.97313 0.08689 0.30637 0.0
H535 H 0.88923 0.12547 0.32431 0.0
H536 H 0.7954 0.98684 0.3188 0.0
H537 H 0.87899 0.94727 0.30108 0.0
C538 C 0.00059 0.99482 0.17284 0.0
C539 C 0.02345 0.9516 0.16316 0.0
C540 C 0.00105 0.99702 0.20185 0.0
C541 C 0.02362 0.95571 0.22181 0.0
C542 C 0.04407 0.91133 0.21217 0.0
C543 C 0.04483 0.90966 0.18302 0.0
C544 C 0.02773 0.96078 0.25241 0.0
C545 C 0.97985 0.97787 0.26487 0.0
C546 C 0.07924 0.95274 0.26871 0.0
C547 C 0.13242 0.93791 0.25655 0.0
C548 C 0.16131 0.89207 0.26876 0.0
C549 C 0.21136 0.87789 0.25725 0.0
C550 C 0.23309 0.90945 0.23363 0.0
C551 C 0.20496 0.9554 0.22157 0.0
C552 C 0.15496 0.9698 0.23303 0.0
C553 C 0.00419 0.01073 0.38213 0.0
C554 C 0.04644 0.04686 0.38554 0.0
C555 C 0.00252 0.98636 0.35814 0.0
C556 C 0.04182 0.99952 0.33677 0.0
C557 C 0.08597 0.03351 0.34123 0.0
C558 C 0.08846 0.05665 0.36557 0.0
C559 C 0.03446 0.98234 0.30867 0.0
C560 C 0.08152 0.96248 0.29679 0.0
C561 C 0.98283 0.98995 0.29244 0.0
C562 C 0.9324 0.01395 0.30271 0.0
C563 C 0.93465 0.0646 0.30909 0.0
C564 C 0.88718 0.08662 0.31922 0.0
C565 C 0.83709 0.05855 0.32279 0.0
C566 C 0.83428 0.00848 0.31609 0.0
C567 C 0.88165 0.98625 0.30599 0.0
H568 H 0.80041 0.07565 0.33066 0.0
H569 H 0.2718 0.89836 0.22473 0.0
H570 H 0.14651 0.97691 0.8491 0.0
H571 H 0.14931 0.99117 0.79716 0.0
H572 H 0.99447 0.08039 0.79118 0.0
H573 H 0.99212 0.06782 0.84295 0.0
H574 H 0.9912 1.00026 0.75953 0.0
H575 H 0.11393 0.14019 0.77496 0.0
H576 H 0.19686 0.18008 0.79521 0.0
H577 H 0.30758 0.08509 0.75573 0.0
H578 H 0.22527 0.04399 0.7356 0.0
H579 H 0.95885 0.07856 0.61427 0.0
H580 H 0.9763 0.0874 0.66425 0.0
H581 H 0.13799 0.01032 0.66426 0.0
H582 H 0.12074 0.0034 0.6137 0.0
H583 H 0.14216 0.08381 0.69893 0.0
H584 H 0.02406 0.94011 0.68622 0.0
H585 H 0.9435 0.89674 0.66604 0.0
H586 H 0.82755 0.99385 0.70098 0.0
H587 H 0.90747 0.03802 0.72126 0.0
C588 C 0.11363 1.00046 0.83678 0.0
C589 C 0.06876 0.02079 0.85028 0.0
C590 C 0.11531 0.0085 0.80709 0.0
C591 C 0.07214 0.03688 0.79037 0.0
C592 C 0.0281 0.05821 0.80373 0.0
C593 C 0.02659 0.05057 0.83334 0.0
C594 C 0.07018 0.041 0.759 0.0
C595 C 0.02383 0.01921 0.74627 0.0
C596 C 0.11385 0.06401 0.74185 0.0
C597 C 0.16337 0.08852 0.75407 0.0
C598 C 0.15594 0.12736 0.77085 0.0
C599 C 0.20285 0.1503 0.78225 0.0
C600 C 0.25746 0.135 0.77684 0.0
C601 C 0.26526 0.09682 0.75996 0.0
C602 C 0.21849 0.07371 0.74854 0.0
C603 C 0.99861 0.06492 0.62493 0.0
C604 C 0.0385 0.04026 0.61069 0.0
C605 C 0.00853 0.06966 0.65336 0.0
C606 C 0.05785 0.04836 0.66815 0.0
C607 C 0.09956 0.02675 0.65329 0.0
C608 C 0.08983 0.02271 0.6246 0.0
C609 C 0.06267 0.04388 0.69955 0.0
C610 C 0.10956 0.06506 0.71226 0.0
C611 C 0.01993 0.01959 0.71689 0.0
C612 C 0.97174 0.99263 0.70506 0.0
C613 C 0.98138 0.95237 0.68949 0.0
C614 C 0.93585 0.92762 0.67806 0.0
C615 C 0.88046 0.94267 0.68213 0.0
C616 C 0.87048 0.9823 0.6978 0.0
C617 C 0.91587 0.00711 0.70933 0.0
H618 H 0.84527 0.92354 0.67319 0.0
H619 H 0.29372 0.15284 0.78567 0.0
H620 H 0.47354 0.54888 0.66128 0.0
H621 H 0.48881 0.53311 0.7126 0.0
H622 H 0.65041 0.46159 0.70388 0.0
H623 H 0.63337 0.4733 0.65244 0.0
H624 H 0.60425 0.40942 0.74666 0.0
H625 H 0.63967 0.58753 0.71976 0.0
H626 H 0.62444 0.67764 0.69544 0.0
H627 H 0.47312 0.68837 0.74111 0.0
H628 H 0.48694 0.59806 0.76542 0.0
H629 H 0.58514 0.5199 0.8926 0.0
H630 H 0.62048 0.52556 0.84448 0.0
H631 H 0.51821 0.39392 0.8318 0.0
H632 H 0.48568 0.38721 0.88038 0.0
H633 H 0.56297 0.55187 0.8001 0.0
H634 H 0.55885 0.33592 0.77876 0.0
H635 H 0.59038 0.24944 0.80326 0.0
H636 H 0.70806 0.31978 0.85572 0.0
H637 H 0.67815 0.40668 0.8312 0.0
C638 C 0.51197 0.52899 0.67015 0.0
C639 C 0.55223 0.51255 0.65251 0.0
C640 C 0.52111 0.52077 0.6996 0.0
C641 C 0.57142 0.49726 0.71214 0.0
C642 C 0.61149 0.48022 0.69471 0.0
C643 C 0.60192 0.48758 0.66521 0.0
C644 C 0.58129 0.49014 0.74348 0.0
C645 C 0.59565 0.44056 0.75842 0.0
C646 C 0.57281 0.53136 0.7588 0.0
C647 C 0.56423 0.58586 0.74432 0.0
C648 C 0.60295 0.60898 0.7245 0.0
C649 C 0.59458 0.66012 0.71073 0.0
C650 C 0.54781 0.68869 0.7167 0.0
C651 C 0.50934 0.6662 0.73651 0.0
C652 C 0.51747 0.61505 0.75032 0.0
C653 C 0.57181 0.49152 0.87959 0.0
C654 C 0.53263 0.45344 0.88964 0.0
C655 C 0.59174 0.49469 0.85221 0.0
C656 C 0.572 0.46027 0.83435 0.0
C657 C 0.53511 0.42034 0.84519 0.0
C658 C 0.51615 0.41662 0.8728 0.0
C659 C 0.58315 0.47041 0.8035 0.0
C660 C 0.57274 0.52072 0.78854 0.0
C661 C 0.59773 0.43033 0.78832 0.0
C662 C 0.61599 0.37798 0.80315 0.0
C663 C 0.59175 0.33301 0.79537 0.0
C664 C 0.60937 0.28387 0.80927 0.0
C665 C 0.65135 0.27913 0.83095 0.0
C666 C 0.67563 0.32352 0.83887 0.0
C667 C 0.65828 0.37273 0.82501 0.0
H668 H 0.66487 0.24106 0.8417 0.0
H669 H 0.54141 0.72828 0.70601 0.0
H670 H 0.54953 0.5495 0.33121 0.0
H671 H 0.5429 0.57166 0.27954 0.0
H672 H 0.39569 0.6668 0.28481 0.0
H673 H 0.40291 0.64609 0.33681 0.0
H674 H 0.38168 0.59887 0.24614 0.0
H675 H 0.51348 0.7264 0.26532 0.0
H676 H 0.59788 0.7605 0.28758 0.0
H677 H 0.70467 0.66364 0.24717 0.0
H678 H 0.62087 0.62831 0.22501 0.0
H679 H 0.38516 0.63646 0.09598 0.0
H680 H 0.38636 0.66486 0.14273 0.0
H681 H 0.54464 0.58303 0.16512 0.0
H682 H 0.54338 0.55573 0.11854 0.0
H683 H 0.54313 0.6677 0.18843 0.0
H684 H 0.41306 0.52448 0.18163 0.0
H685 H 0.32986 0.48223 0.16295 0.0
H686 H 0.22234 0.60411 0.18143 0.0
H687 H 0.30487 0.64691 0.20035 0.0
C688 C 0.51625 0.57586 0.32151 0.0
C689 C 0.47693 0.59619 0.33826 0.0
C690 C 0.51251 0.58845 0.29193 0.0
C691 C 0.46933 0.6215 0.2784 0.0
C692 C 0.42952 0.64146 0.2949 0.0
C693 C 0.43347 0.62919 0.32459 0.0
C694 C 0.46451 0.63244 0.24694 0.0
C695 C 0.41632 0.61525 0.23341 0.0
C696 C 0.51009 0.65315 0.23047 0.0
C697 C 0.56077 0.67451 0.2436 0.0
C698 C 0.55492 0.71209 0.26133 0.0
C699 C 0.60268 0.73168 0.27391 0.0
C700 C 0.65659 0.7142 0.26882 0.0
C701 C 0.66287 0.67716 0.25109 0.0
C702 C 0.61525 0.65739 0.23847 0.0
C703 C 0.42076 0.62616 0.11074 0.0
C704 C 0.46411 0.59408 0.10397 0.0
C705 C 0.42133 0.64192 0.13739 0.0
C706 C 0.46499 0.62514 0.15764 0.0
C707 C 0.5105 0.59649 0.14989 0.0
C708 C 0.51001 0.58109 0.12327 0.0
C709 C 0.4612 0.63222 0.18775 0.0
C710 C 0.50778 0.6528 0.20105 0.0
C711 C 0.41439 0.61409 0.20412 0.0
C712 C 0.36512 0.58919 0.19203 0.0
C713 C 0.37171 0.54243 0.18149 0.0
C714 C 0.32468 0.51832 0.17096 0.0
C715 C 0.27093 0.54063 0.17085 0.0
C716 C 0.26401 0.58691 0.18149 0.0
C717 C 0.31085 0.61107 0.19215 0.0
H718 H 0.23463 0.522 0.16258 0.0
H719 H 0.69351 0.72942 0.27858 0.0
loop_
_geom_bond_atom_site_label_1
_geom_bond_atom_site_label_2
_geom_bond_distance
_geom_bond_site_symmetry_2
_ccdc_geom_bond_type
C0 O16 1.251 . S
C0 O18 1.254 1_554 S
N1 C2 1.333 1_445 S
N1 C6 1.307 . S
N1 Zn7 2.020 . S
C2 N1 1.333 1_665 S
C2 C3 1.379 . S
C2 H20 0.952 . S
C3 C2 1.379 . S
C3 C4 1.386 1_665 S
C3 H30 0.949 . S
C4 C3 1.386 1_445 S
C4 C5 1.360 . S
C5 C4 1.360 . S
C5 C6 1.370 . S
C5 H31 0.950 . S
C6 N1 1.307 . S
C6 C5 1.370 . S
C6 H24 0.948 . S
Zn7 N1 2.020 . S
Zn7 O16 2.039 1_445 S
Zn7 O22 2.034 1_455 S
Zn7 O26 2.025 . S
Zn7 O28 2.024 1_545 S
C8 O27 1.246 1_554 S
C8 O28 1.249 . S
N9 C10 1.307 1_455 S
N9 C11 1.333 . S
N9 Zn15 2.020 . S
C10 N9 1.307 1_655 S
C10 C14 1.370 . S
C10 H21 0.948 . S
C11 N9 1.333 . S
C11 C12 1.379 . S
C11 H19 0.952 . S
C12 C11 1.379 . S
C12 C13 1.390 . S
C12 H32 0.949 . S
C13 C12 1.390 . S
C13 C14 1.357 1_455 S
C14 C10 1.370 . S
C14 C13 1.357 1_655 S
C14 H33 0.950 . S
Zn15 N9 2.020 . S
Zn15 O18 2.025 1_445 S
Zn15 O23 2.024 1_455 S
Zn15 O25 2.039 . S
Zn15 O27 2.034 1_545 S
O16 C0 1.251 . S
O16 Zn7 2.039 1_665 S
C17 O22 1.223 1_556 S
C17 O23 1.276 . S
O18 C0 1.254 1_556 S
O18 Zn15 2.025 1_665 S
H19 C11 0.952 . S
H20 C2 0.952 . S
H21 C10 0.948 . S
O22 Zn7 2.034 1_655 S
O22 C17 1.223 1_554 S
O23 Zn15 2.024 1_655 S
O23 C17 1.276 . S
H24 C6 0.948 . S
O25 Zn15 2.039 . S
O25 C29 1.270 . S
O26 Zn7 2.025 . S
O26 C29 1.235 1_554 S
O27 C8 1.246 1_556 S
O27 Zn15 2.034 1_565 S
O28 Zn7 2.024 1_565 S
O28 C8 1.249 . S
C29 O25 1.270 . S
C29 O26 1.235 1_556 S
H30 C3 0.949 . S
H31 C5 0.950 . S
H32 C12 0.949 . S
H33 C14 0.950 . S
C34 O50 1.251 . S
C34 O52 1.254 . S
N35 C36 1.333 . S
N35 C40 1.307 . S
N35 Zn41 2.020 . S
C36 N35 1.333 . S
C36 C37 1.379 . S
C36 H54 0.952 . S
C37 C36 1.379 . S
C37 C38 1.390 . S
C37 H64 0.949 . S
C38 C37 1.390 . S
C38 C39 1.357 . S
C39 C38 1.357 . S
C39 C40 1.370 . S
C39 H65 0.950 . S
C40 N35 1.307 . S
C40 C39 1.370 . S
C40 H58 0.948 . S
Zn41 N35 2.020 . S
Zn41 O50 2.039 . S
Zn41 O56 2.034 . S
Zn41 O60 2.025 . S
Zn41 O62 2.024 . S
C42 O61 1.246 . S
C42 O62 1.249 . S
N43 C44 1.307 . S
N43 C45 1.333 . S
N43 Zn49 2.020 . S
C44 N43 1.307 . S
C44 C48 1.370 . S
C44 H55 0.948 . S
C45 N43 1.333 . S
C45 C46 1.379 . S
C45 H53 0.952 . S
C46 C45 1.379 . S
C46 C47 1.390 . S
C46 H66 0.949 . S
C47 C46 1.390 . S
C47 C48 1.357 . S
C48 C44 1.370 . S
C48 C47 1.357 . S
C48 H67 0.950 . S
Zn49 N43 2.020 . S
Zn49 O52 2.025 . S
Zn49 O57 2.024 . S
Zn49 O59 2.039 . S
Zn49 O61 2.034 . S
O50 C34 1.251 . S
O50 Zn41 2.039 . S
C51 O56 1.246 . S
C51 O57 1.249 . S
O52 C34 1.254 . S
O52 Zn49 2.025 . S
H53 C45 0.952 . S
H54 C36 0.952 . S
H55 C44 0.948 . S
O56 Zn41 2.034 . S
O56 C51 1.246 . S
O57 Zn49 2.024 . S
O57 C51 1.249 . S
H58 C40 0.948 . S
O59 Zn49 2.039 . S
O59 C63 1.251 . S
O60 Zn41 2.025 . S
O60 C63 1.254 . S
O61 C42 1.246 . S
O61 Zn49 2.034 . S
O62 Zn41 2.024 . S
O62 C42 1.249 . S
C63 O59 1.251 . S
C63 O60 1.254 . S
H64 C37 0.949 . S
H65 C39 0.950 . S
H66 C46 0.949 . S
H67 C48 0.950 . S
C68 N69 1.317 1_545 S
C68 N70 1.348 1_455 S
C68 C71 1.485 1_545 S
N69 C68 1.317 1_565 S
N69 N73 1.370 1_565 S
N70 C68 1.348 1_655 S
N70 C72 1.346 . S
C71 C68 1.485 1_565 S
C71 H75 0.960 1_455 S
C71 H76 0.961 1_565 S
C71 H77 0.960 . S
C72 N70 1.346 . S
C72 N73 1.307 1_655 S
C72 C74 1.486 . S
N73 N69 1.370 1_545 S
N73 C72 1.307 1_455 S
C74 C72 1.486 . S
C74 H78 0.960 . S
C74 H79 0.960 . S
C74 H80 0.959 . S
H75 C71 0.960 1_655 S
H76 C71 0.961 1_545 S
H77 C71 0.960 . S
H78 C74 0.960 . S
H79 C74 0.960 . S
H80 C74 0.959 . S
C81 N82 1.317 . S
C81 N83 1.361 1_455 S
C81 C84 1.485 . S
N82 C81 1.317 . S
N82 N86 1.370 . S
N83 C81 1.361 1_655 S
N83 C85 1.351 . S
C84 C81 1.485 . S
C84 H88 0.960 . S
C84 H89 0.961 . S
C84 H90 0.960 . S
C85 N83 1.351 . S
C85 N86 1.307 1_655 S
C85 C87 1.486 1_545 S
N86 N82 1.370 . S
N86 C85 1.307 1_455 S
C87 C85 1.486 1_565 S
C87 H91 0.960 . S
C87 H92 0.960 . S
C87 H93 0.959 . S
H88 C84 0.960 . S
H89 C84 0.961 . S
H90 C84 0.960 . S
H91 C87 0.960 . S
H92 C87 0.960 . S
H93 C87 0.959 . S
C94 N95 1.317 . S
C94 N96 1.348 . S
C94 C97 1.485 1_556 S
N95 C94 1.317 . S
N95 N99 1.370 . S
N96 C94 1.348 . S
N96 C98 1.346 . S
C97 C94 1.485 1_554 S
C97 H101 0.960 . S
C97 H102 0.961 . S
C97 H103 0.960 . S
C98 N96 1.346 . S
C98 N99 1.307 . S
C98 C100 1.486 . S
N99 N95 1.370 . S
N99 C98 1.307 . S
C100 C98 1.486 . S
C100 H104 0.960 . S
C100 H105 0.960 . S
C100 H106 0.959 . S
H101 C97 0.960 . S
H102 C97 0.961 . S
H103 C97 0.960 . S
H104 C100 0.960 . S
H105 C100 0.960 . S
H106 C100 0.959 . S
C107 N108 1.317 . S
C107 N109 1.348 . S
C107 C110 1.485 1_554 S
N108 C107 1.317 . S
N108 N112 1.370 . S
N109 C107 1.348 . S
N109 C111 1.346 . S
C110 C107 1.485 1_556 S
C110 H114 0.960 . S
C110 H115 0.961 . S
C110 H116 0.960 . S
C111 N109 1.346 . S
C111 N112 1.307 . S
C111 C113 1.486 . S
N112 N108 1.370 . S
N112 C111 1.307 . S
C113 C111 1.486 . S
C113 H117 0.960 . S
C113 H118 0.960 . S
C113 H119 0.959 . S
H114 C110 0.960 . S
H115 C110 0.961 . S
H116 C110 0.960 . S
H117 C113 0.960 . S
H118 C113 0.960 . S
H119 C113 0.959 . S
H120 C138 0.951 . S
H121 C140 0.951 . S
H122 C142 0.950 . S
H123 C143 0.950 . S
H124 C145 0.950 . S
H125 C148 0.950 . S
H126 C149 0.950 . S
H127 C151 0.950 . S
H128 C152 0.950 . S
H129 C153 0.951 . S
H130 C155 0.951 . S
H131 C157 0.938 1_556 S
H132 C158 0.950 . S
H133 C160 0.950 . S
H134 C163 0.950 . S
H135 C164 0.950 . S
H136 C166 0.950 . S
H137 C167 0.950 . S
C138 H120 0.951 . S
C138 C139 1.370 . S
C138 C140 1.388 . S
C139 C138 1.370 . S
C139 C143 1.376 1_556 S
C140 H121 0.951 . S
C140 C138 1.388 . S
C140 C141 1.366 1_556 S
C141 C140 1.366 1_554 S
C141 C142 1.414 . S
C141 C144 1.499 . S
C142 H122 0.950 . S
C142 C141 1.414 . S
C142 C143 1.374 . S
C143 H123 0.950 . S
C143 C139 1.376 1_554 S
C143 C142 1.374 . S
C144 C141 1.499 . S
C144 C145 1.373 . S
C144 C146 1.389 1_554 S
C145 H124 0.950 . S
C145 C144 1.373 . S
C145 C161 1.377 . S
C146 C144 1.389 1_556 S
C146 C147 1.524 . S
C146 C160 1.377 . S
C147 C146 1.524 . S
C147 C148 1.397 . S
C147 C152 1.363 . S
C148 H125 0.950 . S
C148 C147 1.397 . S
C148 C149 1.334 . S
C149 H126 0.950 . S
C149 C148 1.334 . S
C149 C150 1.287 . S
C150 C149 1.287 . S
C150 C151 1.524 . S
C150 H169 0.913 . S
C151 H127 0.950 . S
C151 C150 1.524 . S
C151 C152 1.415 . S
C152 H128 0.950 . S
C152 C147 1.363 . S
C152 C151 1.415 . S
C153 H129 0.951 . S
C153 C154 1.366 . S
C153 C155 1.388 . S
C154 C153 1.366 . S
C154 C158 1.385 . S
C155 H130 0.951 . S
C155 C153 1.388 . S
C155 C156 1.366 . S
C156 C155 1.366 . S
C156 C157 1.414 . S
C156 C159 1.499 . S
C157 H131 0.938 1_554 S
C157 C156 1.414 . S
C157 C158 1.374 . S
C158 H132 0.950 . S
C158 C154 1.385 . S
C158 C157 1.374 . S
C159 C156 1.499 . S
C159 C160 1.373 1_554 S
C159 C161 1.389 . S
C160 H133 0.950 . S
C160 C146 1.377 . S
C160 C159 1.373 1_556 S
C161 C145 1.377 . S
C161 C159 1.389 . S
C161 C162 1.524 . S
C162 C161 1.524 . S
C162 C163 1.397 . S
C162 C167 1.363 . S
C163 H134 0.950 . S
C163 C162 1.397 . S
C163 C164 1.334 . S
C164 H135 0.950 . S
C164 C163 1.334 . S
C164 C165 1.287 . S
C165 C164 1.287 . S
C165 C166 1.524 . S
C165 H168 0.999 . S
C166 H136 0.950 . S
C166 C165 1.524 . S
C166 C167 1.415 . S
C167 H137 0.950 . S
C167 C162 1.363 . S
C167 C166 1.415 . S
H168 C165 0.999 . S
H169 C150 0.913 . S
H170 C188 0.951 . S
H171 C190 0.951 . S
H172 C192 0.946 1_556 S
H173 C193 0.950 . S
H174 C195 0.950 . S
H175 C198 0.950 . S
H176 C199 0.950 . S
H177 C201 0.950 . S
H178 C202 0.950 . S
H179 C203 0.951 . S
H180 C205 0.951 . S
H181 C207 0.950 . S
H182 C208 0.950 . S
H183 C210 0.950 . S
H184 C213 0.950 . S
H185 C214 0.950 . S
H186 C216 0.950 . S
H187 C217 0.950 . S
C188 H170 0.951 . S
C188 C189 1.366 . S
C188 C190 1.388 . S
C189 C188 1.366 . S
C189 C193 1.385 . S
C190 H171 0.951 . S
C190 C188 1.388 . S
C190 C191 1.367 . S
C191 C190 1.367 . S
C191 C192 1.411 . S
C191 C194 1.494 1_554 S
C192 H172 0.946 1_554 S
C192 C191 1.411 . S
C192 C193 1.384 . S
C193 H173 0.950 . S
C193 C189 1.385 . S
C193 C192 1.384 . S
C194 C191 1.494 1_556 S
C194 C195 1.373 . S
C194 C196 1.389 1_556 S
C195 H174 0.950 . S
C195 C194 1.373 . S
C195 C211 1.377 . S
C196 C194 1.389 1_554 S
C196 C197 1.524 . S
C196 C210 1.377 . S
C197 C196 1.524 . S
C197 C198 1.397 . S
C197 C202 1.363 . S
C198 H175 0.950 . S
C198 C197 1.397 . S
C198 C199 1.334 . S
C199 H176 0.950 . S
C199 C198 1.334 . S
C199 C200 1.287 . S
C200 C199 1.287 . S
C200 C201 1.524 . S
C200 H219 0.913 . S
C201 H177 0.950 . S
C201 C200 1.524 . S
C201 C202 1.415 . S
C202 H178 0.950 . S
C202 C197 1.363 . S
C202 C201 1.415 . S
C203 H179 0.951 . S
C203 C204 1.366 . S
C203 C205 1.388 . S
C204 C203 1.366 . S
C204 C208 1.385 . S
C205 H180 0.951 . S
C205 C203 1.388 . S
C205 C206 1.366 . S
C206 C205 1.366 . S
C206 C207 1.414 . S
C206 C209 1.499 . S
C207 H181 0.950 . S
C207 C206 1.414 . S
C207 C208 1.374 . S
C208 H182 0.950 . S
C208 C204 1.385 . S
C208 C207 1.374 . S
C209 C206 1.499 . S
C209 C210 1.373 1_556 S
C209 C211 1.389 . S
C210 H183 0.950 . S
C210 C196 1.377 . S
C210 C209 1.373 1_554 S
C211 C195 1.377 . S
C211 C209 1.389 . S
C211 C212 1.524 . S
C212 C211 1.524 . S
C212 C213 1.397 . S
C212 C217 1.363 . S
C213 H184 0.950 . S
C213 C212 1.397 . S
C213 C214 1.334 . S
C214 H185 0.950 . S
C214 C213 1.334 . S
C214 C215 1.287 . S
C215 C214 1.287 . S
C215 C216 1.524 . S
C215 H218 0.999 . S
C216 H186 0.950 . S
C216 C215 1.524 . S
C216 C217 1.415 . S
C217 H187 0.950 . S
C217 C212 1.363 . S
C217 C216 1.415 . S
H218 C215 0.999 . S
H219 C200 0.913 . S
H220 C238 0.951 . S
H221 C240 0.951 . S
H222 C242 0.950 . S
H223 C243 0.950 . S
H224 C245 0.950 . S
H225 C248 0.950 . S
H226 C249 0.950 . S
H227 C251 0.950 . S
H228 C252 0.950 . S
H229 C253 0.923 1_556 S
H230 C255 0.951 1_556 S
H231 C257 0.950 . S
H232 C258 0.950 . S
H233 C260 0.950 . S
H234 C263 0.950 1_554 S
H235 C264 0.950 . S
H236 C266 0.950 . S
H237 C267 0.950 . S
C238 H220 0.951 . S
C238 C239 1.366 . S
C238 C240 1.388 . S
C239 C238 1.366 . S
C239 C243 1.385 1_554 S
C240 H221 0.951 . S
C240 C238 1.388 . S
C240 C241 1.366 . S
C241 C240 1.366 . S
C241 C242 1.414 1_554 S
C241 C244 1.499 . S
C242 H222 0.950 . S
C242 C241 1.414 1_556 S
C242 C243 1.374 . S
C243 H223 0.950 . S
C243 C239 1.385 1_556 S
C243 C242 1.374 . S
C244 C241 1.499 . S
C244 C245 1.373 1_554 S
C244 C246 1.389 . S
C245 H224 0.950 . S
C245 C244 1.373 1_556 S
C245 C261 1.377 1_556 S
C246 C244 1.389 . S
C246 C247 1.524 . S
C246 C260 1.377 . S
C247 C246 1.524 . S
C247 C248 1.397 . S
C247 C252 1.363 . S
C248 H225 0.950 . S
C248 C247 1.397 . S
C248 C249 1.334 . S
C249 H226 0.950 . S
C249 C248 1.334 . S
C249 C250 1.287 . S
C250 C249 1.287 . S
C250 C251 1.524 . S
C250 H269 0.913 . S
C251 H227 0.950 . S
C251 C250 1.524 . S
C251 C252 1.415 . S
C252 H228 0.950 . S
C252 C247 1.363 . S
C252 C251 1.415 . S
C253 H229 0.923 1_554 S
C253 C254 1.366 . S
C253 C255 1.388 . S
C254 C253 1.366 . S
C254 C258 1.385 . S
C255 H230 0.951 1_554 S
C255 C253 1.388 . S
C255 C256 1.366 . S
C256 C255 1.366 . S
C256 C257 1.414 . S
C256 C259 1.499 . S
C257 H231 0.950 . S
C257 C256 1.414 . S
C257 C258 1.374 . S
C258 H232 0.950 . S
C258 C254 1.385 . S
C258 C257 1.374 . S
C259 C256 1.499 . S
C259 C260 1.373 . S
C259 C261 1.389 . S
C260 H233 0.950 . S
C260 C246 1.377 . S
C260 C259 1.373 . S
C261 C245 1.377 1_554 S
C261 C259 1.389 . S
C261 C262 1.524 1_554 S
C262 C261 1.524 1_556 S
C262 C263 1.397 . S
C262 C267 1.363 . S
C263 H234 0.950 1_556 S
C263 C262 1.397 . S
C263 C264 1.334 . S
C264 H235 0.950 . S
C264 C263 1.334 . S
C264 C265 1.287 . S
C265 C264 1.287 . S
C265 C266 1.524 . S
C265 H268 0.999 . S
C266 H236 0.950 . S
C266 C265 1.524 . S
C266 C267 1.415 . S
C267 H237 0.950 . S
C267 C262 1.363 . S
C267 C266 1.415 . S
H268 C265 0.999 . S
H269 C250 0.913 . S
H270 C288 0.951 . S
H271 C290 0.951 . S
H272 C292 0.950 . S
H273 C293 0.950 . S
H274 C295 0.950 1_554 S
H275 C298 0.950 1_554 S
H276 C299 0.950 . S
H277 C301 0.950 . S
H278 C302 0.950 . S
H279 C303 0.951 1_554 S
H280 C305 0.951 1_554 S
H281 C307 0.950 . S
H282 C308 0.950 . S
H283 C310 0.950 . S
H284 C313 0.950 . S
H285 C314 0.950 . S
H286 C316 0.950 . S
H287 C317 0.950 . S
C288 H270 0.951 . S
C288 C289 1.366 . S
C288 C290 1.388 . S
C289 C288 1.366 . S
C289 C293 1.385 1_556 S
C290 H271 0.951 . S
C290 C288 1.388 . S
C290 C291 1.366 . S
C291 C290 1.366 . S
C291 C292 1.414 1_556 S
C291 C294 1.499 . S
C292 H272 0.950 . S
C292 C291 1.414 1_554 S
C292 C293 1.374 . S
C293 H273 0.950 . S
C293 C289 1.385 1_554 S
C293 C292 1.374 . S
C294 C291 1.499 . S
C294 C295 1.373 . S
C294 C296 1.389 . S
C295 H274 0.950 1_556 S
C295 C294 1.373 . S
C295 C311 1.377 . S
C296 C294 1.389 . S
C296 C297 1.524 . S
C296 C310 1.377 . S
C297 C296 1.524 . S
C297 C298 1.397 . S
C297 C302 1.363 . S
C298 H275 0.950 1_556 S
C298 C297 1.397 . S
C298 C299 1.334 . S
C299 H276 0.950 . S
C299 C298 1.334 . S
C299 C300 1.287 . S
C300 C299 1.287 . S
C300 C301 1.524 . S
C300 H319 0.913 . S
C301 H277 0.950 . S
C301 C300 1.524 . S
C301 C302 1.415 . S
C302 H278 0.950 . S
C302 C297 1.363 . S
C302 C301 1.415 . S
C303 H279 0.951 1_556 S
C303 C304 1.366 . S
C303 C305 1.388 . S
C304 C303 1.366 . S
C304 C308 1.385 . S
C305 H280 0.951 1_556 S
C305 C303 1.388 . S
C305 C306 1.366 . S
C306 C305 1.366 . S
C306 C307 1.414 . S
C306 C309 1.499 . S
C307 H281 0.950 . S
C307 C306 1.414 . S
C307 C308 1.374 . S
C308 H282 0.950 . S
C308 C304 1.385 . S
C308 C307 1.374 . S
C309 C306 1.499 . S
C309 C310 1.373 . S
C309 C311 1.389 . S
C310 H283 0.950 . S
C310 C296 1.377 . S
C310 C309 1.373 . S
C311 C295 1.377 . S
C311 C309 1.389 . S
C311 C312 1.524 1_556 S
C312 C311 1.524 1_554 S
C312 C313 1.397 1_554 S
C312 C317 1.363 . S
C313 H284 0.950 . S
C313 C312 1.397 1_556 S
C313 C314 1.334 . S
C314 H285 0.950 . S
C314 C313 1.334 . S
C314 C315 1.287 1_556 S
C315 C314 1.287 1_554 S
C315 C316 1.524 . S
C315 H318 0.999 . S
C316 H286 0.950 . S
C316 C315 1.524 . S
C316 C317 1.415 . S
C317 H287 0.950 . S
C317 C312 1.363 . S
C317 C316 1.415 . S
H318 C315 0.999 . S
H319 C300 0.913 . S
H320 C338 0.951 . S
H321 C340 0.951 . S
H322 C342 0.950 . S
H323 C343 0.950 . S
H324 C345 0.950 . S
H325 C348 0.950 . S
H326 C349 0.950 . S
H327 C351 0.950 . S
H328 C352 0.950 . S
H329 C353 0.951 . S
H330 C355 0.951 . S
H331 C357 0.950 . S
H332 C358 0.950 . S
H333 C360 0.950 . S
H334 C363 0.950 . S
H335 C364 0.950 1_545 S
H336 C366 0.950 . S
H337 C367 0.950 . S
C338 H320 0.951 . S
C338 C339 1.366 . S
C338 C340 1.388 . S
C339 C338 1.366 . S
C339 C343 1.385 . S
C340 H321 0.951 . S
C340 C338 1.388 . S
C340 C341 1.366 . S
C341 C340 1.366 . S
C341 C342 1.414 . S
C341 C344 1.499 . S
C342 H322 0.950 . S
C342 C341 1.414 . S
C342 C343 1.374 . S
C343 H323 0.950 . S
C343 C339 1.385 . S
C343 C342 1.374 . S
C344 C341 1.499 . S
C344 C345 1.373 . S
C344 C346 1.389 . S
C345 H324 0.950 . S
C345 C344 1.373 . S
C345 C361 1.377 . S
C346 C344 1.389 . S
C346 C347 1.524 . S
C346 C360 1.377 . S
C347 C346 1.524 . S
C347 C348 1.397 . S
C347 C352 1.363 . S
C348 H325 0.950 . S
C348 C347 1.397 . S
C348 C349 1.334 . S
C349 H326 0.950 . S
C349 C348 1.334 . S
C349 C350 1.287 . S
C350 C349 1.287 . S
C350 C351 1.524 . S
C350 H369 0.913 . S
C351 H327 0.950 . S
C351 C350 1.524 . S
C351 C352 1.415 . S
C352 H328 0.950 . S
C352 C347 1.363 . S
C352 C351 1.415 . S
C353 H329 0.951 . S
C353 C354 1.366 . S
C353 C355 1.388 . S
C354 C353 1.366 . S
C354 C358 1.385 . S
C355 H330 0.951 . S
C355 C353 1.388 . S
C355 C356 1.366 . S
C356 C355 1.366 . S
C356 C357 1.414 . S
C356 C359 1.499 . S
C357 H331 0.950 . S
C357 C356 1.414 . S
C357 C358 1.374 . S
C358 H332 0.950 . S
C358 C354 1.385 . S
C358 C357 1.374 . S
C359 C356 1.499 . S
C359 C360 1.373 . S
C359 C361 1.389 . S
C360 H333 0.950 . S
C360 C346 1.377 . S
C360 C359 1.373 . S
C361 C345 1.377 . S
C361 C359 1.389 . S
C361 C362 1.524 . S
C362 C361 1.524 . S
C362 C363 1.397 . S
C362 C367 1.363 . S
C363 H334 0.950 . S
C363 C362 1.397 . S
C363 C364 1.334 . S
C364 H335 0.950 1_565 S
C364 C363 1.334 . S
C364 C365 1.287 . S
C365 C364 1.287 . S
C365 C366 1.524 . S
C365 H368 0.999 1_565 S
C366 H336 0.950 . S
C366 C365 1.524 . S
C366 C367 1.415 . S
C367 H337 0.950 . S
C367 C362 1.363 . S
C367 C366 1.415 . S
H368 C365 0.999 1_545 S
H369 C350 0.913 . S
H370 C388 0.951 . S
H371 C390 0.951 . S
H372 C392 0.950 . S
H373 C393 0.950 . S
H374 C395 0.950 . S
H375 C398 0.950 . S
H376 C399 0.950 . S
H377 C401 0.950 . S
H378 C402 0.950 . S
H379 C403 0.951 . S
H380 C405 0.951 . S
H381 C407 0.950 . S
H382 C408 0.950 . S
H383 C410 0.950 . S
H384 C413 0.950 . S
H385 C414 0.950 . S
H386 C416 0.950 . S
H387 C417 0.950 . S
C388 H370 0.951 . S
C388 C389 1.366 . S
C388 C390 1.388 . S
C389 C388 1.366 . S
C389 C393 1.385 . S
C390 H371 0.951 . S
C390 C388 1.388 . S
C390 C391 1.366 . S
C391 C390 1.366 . S
C391 C392 1.414 . S
C391 C394 1.499 . S
C392 H372 0.950 . S
C392 C391 1.414 . S
C392 C393 1.374 . S
C393 H373 0.950 . S
C393 C389 1.385 . S
C393 C392 1.374 . S
C394 C391 1.499 . S
C394 C395 1.373 . S
C394 C396 1.389 . S
C395 H374 0.950 . S
C395 C394 1.373 . S
C395 C411 1.377 . S
C396 C394 1.389 . S
C396 C397 1.524 . S
C396 C410 1.377 . S
C397 C396 1.524 . S
C397 C398 1.397 . S
C397 C402 1.363 . S
C398 H375 0.950 . S
C398 C397 1.397 . S
C398 C399 1.334 . S
C399 H376 0.950 . S
C399 C398 1.334 . S
C399 C400 1.287 . S
C400 C399 1.287 . S
C400 C401 1.524 . S
C400 H419 0.913 . S
C401 H377 0.950 . S
C401 C400 1.524 . S
C401 C402 1.415 . S
C402 H378 0.950 . S
C402 C397 1.363 . S
C402 C401 1.415 . S
C403 H379 0.951 . S
C403 C404 1.366 . S
C403 C405 1.388 . S
C404 C403 1.366 . S
C404 C408 1.385 . S
C405 H380 0.951 . S
C405 C403 1.388 . S
C405 C406 1.366 . S
C406 C405 1.366 . S
C406 C407 1.414 . S
C406 C409 1.499 . S
C407 H381 0.950 . S
C407 C406 1.414 . S
C407 C408 1.374 . S
C408 H382 0.950 . S
C408 C404 1.385 . S
C408 C407 1.374 . S
C409 C406 1.499 . S
C409 C410 1.373 . S
C409 C411 1.389 . S
C410 H383 0.950 . S
C410 C396 1.377 . S
C410 C409 1.373 . S
C411 C395 1.377 . S
C411 C409 1.389 . S
C411 C412 1.524 . S
C412 C411 1.524 . S
C412 C413 1.397 . S
C412 C417 1.363 . S
C413 H384 0.950 . S
C413 C412 1.397 . S
C413 C414 1.334 . S
C414 H385 0.950 . S
C414 C413 1.334 . S
C414 C415 1.287 . S
C415 C414 1.287 . S
C415 C416 1.524 . S
C415 H418 0.999 . S
C416 H386 0.950 . S
C416 C415 1.524 . S
C416 C417 1.415 . S
C417 H387 0.950 . S
C417 C412 1.363 . S
C417 C416 1.415 . S
H418 C415 0.999 . S
H419 C400 0.913 . S
H420 C438 0.951 . S
H421 C440 0.951 . S
H422 C442 0.950 . S
H423 C443 0.950 . S
H424 C445 0.950 . S
H425 C448 0.950 . S
H426 C449 0.950 . S
H427 C451 0.950 . S
H428 C452 0.950 . S
H429 C453 0.951 . S
H430 C455 0.951 . S
H431 C457 0.950 . S
H432 C458 0.950 . S
H433 C460 0.950 . S
H434 C463 0.950 . S
H435 C464 0.950 . S
H436 C466 0.950 . S
H437 C467 0.950 . S
C438 H420 0.951 . S
C438 C439 1.366 . S
C438 C440 1.388 . S
C439 C438 1.366 . S
C439 C443 1.385 . S
C440 H421 0.951 . S
C440 C438 1.388 . S
C440 C441 1.366 . S
C441 C440 1.366 . S
C441 C442 1.414 . S
C441 C444 1.499 . S
C442 H422 0.950 . S
C442 C441 1.414 . S
C442 C443 1.374 . S
C443 H423 0.950 . S
C443 C439 1.385 . S
C443 C442 1.374 . S
C444 C441 1.499 . S
C444 C445 1.373 . S
C444 C446 1.389 . S
C445 H424 0.950 . S
C445 C444 1.373 . S
C445 C461 1.377 . S
C446 C444 1.389 . S
C446 C447 1.524 . S
C446 C460 1.377 . S
C447 C446 1.524 . S
C447 C448 1.397 . S
C447 C452 1.363 . S
C448 H425 0.950 . S
C448 C447 1.397 . S
C448 C449 1.334 . S
C449 H426 0.950 . S
C449 C448 1.334 . S
C449 C450 1.287 . S
C450 C449 1.287 . S
C450 C451 1.524 . S
C450 H469 0.913 . S
C451 H427 0.950 . S
C451 C450 1.524 . S
C451 C452 1.415 . S
C452 H428 0.950 . S
C452 C447 1.363 . S
C452 C451 1.415 . S
C453 H429 0.951 . S
C453 C454 1.366 . S
C453 C455 1.388 . S
C454 C453 1.366 . S
C454 C458 1.385 . S
C455 H430 0.951 . S
C455 C453 1.388 . S
C455 C456 1.366 . S
C456 C455 1.366 . S
C456 C457 1.414 . S
C456 C459 1.499 . S
C457 H431 0.950 . S
C457 C456 1.414 . S
C457 C458 1.374 . S
C458 H432 0.950 . S
C458 C454 1.385 . S
C458 C457 1.374 . S
C459 C456 1.499 . S
C459 C460 1.373 . S
C459 C461 1.389 . S
C460 H433 0.950 . S
C460 C446 1.377 . S
C460 C459 1.373 . S
C461 C445 1.377 . S
C461 C459 1.389 . S
C461 C462 1.524 . S
C462 C461 1.524 . S
C462 C463 1.397 . S
C462 C467 1.363 . S
C463 H434 0.950 . S
C463 C462 1.397 . S
C463 C464 1.334 . S
C464 H435 0.950 . S
C464 C463 1.334 . S
C464 C465 1.287 . S
C465 C464 1.287 . S
C465 C466 1.524 . S
C465 H468 0.999 . S
C466 H436 0.950 . S
C466 C465 1.524 . S
C466 C467 1.415 . S
C467 H437 0.950 . S
C467 C462 1.363 . S
C467 C466 1.415 . S
H468 C465 0.999 . S
H469 C450 0.913 . S
H470 C488 0.951 . S
H471 C490 0.951 . S
H472 C492 0.950 . S
H473 C493 0.950 . S
H474 C495 0.950 . S
H475 C498 0.950 . S
H476 C499 0.950 . S
H477 C501 0.950 . S
H478 C502 0.950 . S
H479 C503 0.951 . S
H480 C505 0.951 . S
H481 C507 0.950 . S
H482 C508 0.950 . S
H483 C510 0.950 . S
H484 C513 0.950 . S
H485 C514 0.950 . S
H486 C516 0.950 . S
H487 C517 0.950 . S
C488 H470 0.951 . S
C488 C489 1.366 . S
C488 C490 1.388 . S
C489 C488 1.366 . S
C489 C493 1.385 . S
C490 H471 0.951 . S
C490 C488 1.388 . S
C490 C491 1.366 . S
C491 C490 1.366 . S
C491 C492 1.414 . S
C491 C494 1.499 . S
C492 H472 0.950 . S
C492 C491 1.414 . S
C492 C493 1.374 . S
C493 H473 0.950 . S
C493 C489 1.385 . S
C493 C492 1.374 . S
C494 C491 1.499 . S
C494 C495 1.373 . S
C494 C496 1.389 . S
C495 H474 0.950 . S
C495 C494 1.373 . S
C495 C511 1.377 . S
C496 C494 1.389 . S
C496 C497 1.524 . S
C496 C510 1.377 . S
C497 C496 1.524 . S
C497 C498 1.397 . S
C497 C502 1.363 . S
C498 H475 0.950 . S
C498 C497 1.397 . S
C498 C499 1.334 . S
C499 H476 0.950 . S
C499 C498 1.334 . S
C499 C500 1.287 . S
C500 C499 1.287 . S
C500 C501 1.524 . S
C500 H519 0.913 . S
C501 H477 0.950 . S
C501 C500 1.524 . S
C501 C502 1.415 . S
C502 H478 0.950 . S
C502 C497 1.363 . S
C502 C501 1.415 . S
C503 H479 0.951 . S
C503 C504 1.366 . S
C503 C505 1.388 . S
C504 C503 1.366 . S
C504 C508 1.385 . S
C505 H480 0.951 . S
C505 C503 1.388 . S
C505 C506 1.366 . S
C506 C505 1.366 . S
C506 C507 1.414 . S
C506 C509 1.499 . S
C507 H481 0.950 . S
C507 C506 1.414 . S
C507 C508 1.374 . S
C508 H482 0.950 . S
C508 C504 1.385 . S
C508 C507 1.374 . S
C509 C506 1.499 . S
C509 C510 1.373 . S
C509 C511 1.389 . S
C510 H483 0.950 . S
C510 C496 1.377 . S
C510 C509 1.373 . S
C511 C495 1.377 . S
C511 C509 1.389 . S
C511 C512 1.524 . S
C512 C511 1.524 . S
C512 C513 1.397 . S
C512 C517 1.363 . S
C513 H484 0.950 . S
C513 C512 1.397 . S
C513 C514 1.334 . S
C514 H485 0.950 . S
C514 C513 1.334 . S
C514 C515 1.287 . S
C515 C514 1.287 . S
C515 C516 1.524 . S
C515 H518 0.999 . S
C516 H486 0.950 . S
C516 C515 1.524 . S
C516 C517 1.415 . S
C517 H487 0.950 . S
C517 C512 1.363 . S
C517 C516 1.415 . S
H518 C515 0.999 . S
H519 C500 0.913 . S
H520 C538 0.951 . S
H521 C540 0.951 . S
H522 C542 0.950 . S
H523 C543 0.950 . S
H524 C545 0.950 . S
H525 C548 0.950 . S
H526 C549 0.950 . S
H527 C551 0.950 . S
H528 C552 0.950 . S
H529 C553 0.951 . S
H530 C555 0.951 . S
H531 C557 0.950 . S
H532 C558 0.950 1_655 S
H533 C560 0.950 . S
H534 C563 0.950 . S
H535 C564 0.950 . S
H536 C566 0.950 . S
H537 C567 0.950 . S
C538 H520 0.951 . S
C538 C539 1.366 1_545 S
C538 C540 1.388 . S
C539 C538 1.366 1_565 S
C539 C543 1.385 . S
C540 H521 0.951 . S
C540 C538 1.388 . S
C540 C541 1.366 1_545 S
C541 C540 1.366 1_565 S
C541 C542 1.414 . S
C541 C544 1.499 . S
C542 H522 0.950 . S
C542 C541 1.414 . S
C542 C543 1.374 . S
C543 H523 0.950 . S
C543 C539 1.385 . S
C543 C542 1.374 . S
C544 C541 1.499 . S
C544 C545 1.373 1_455 S
C544 C546 1.389 1_565 S
C545 H524 0.950 . S
C545 C544 1.373 1_655 S
C545 C561 1.377 . S
C546 C544 1.389 1_545 S
C546 C547 1.524 . S
C546 C560 1.377 . S
C547 C546 1.524 . S
C547 C548 1.397 . S
C547 C552 1.363 . S
C548 H525 0.950 . S
C548 C547 1.397 . S
C548 C549 1.334 . S
C549 H526 0.950 . S
C549 C548 1.334 . S
C549 C550 1.287 . S
C550 C549 1.287 . S
C550 C551 1.524 . S
C550 H569 0.913 . S
C551 H527 0.950 . S
C551 C550 1.524 . S
C551 C552 1.415 . S
C552 H528 0.950 . S
C552 C547 1.363 . S
C552 C551 1.415 . S
C553 H529 0.951 . S
C553 C554 1.366 . S
C553 C555 1.388 . S
C554 C553 1.366 . S
C554 C558 1.385 1_565 S
C555 H530 0.951 . S
C555 C553 1.388 . S
C555 C556 1.366 . S
C556 C555 1.366 . S
C556 C557 1.414 1_565 S
C556 C559 1.499 . S
C557 H531 0.950 . S
C557 C556 1.414 1_545 S
C557 C558 1.374 . S
C558 H532 0.950 1_455 S
C558 C554 1.385 1_545 S
C558 C557 1.374 . S
C559 C556 1.499 . S
C559 C560 1.373 1_565 S
C559 C561 1.389 1_455 S
C560 H533 0.950 . S
C560 C546 1.377 . S
C560 C559 1.373 1_545 S
C561 C545 1.377 . S
C561 C559 1.389 1_655 S
C561 C562 1.524 . S
C562 C561 1.524 . S
C562 C563 1.397 . S
C562 C567 1.363 . S
C563 H534 0.950 . S
C563 C562 1.397 . S
C563 C564 1.334 . S
C564 H535 0.950 . S
C564 C563 1.334 . S
C564 C565 1.287 . S
C565 C564 1.287 . S
C565 C566 1.524 . S
C565 H568 0.999 . S
C566 H536 0.950 . S
C566 C565 1.524 . S
C566 C567 1.415 . S
C567 H537 0.950 . S
C567 C562 1.363 . S
C567 C566 1.415 . S
H568 C565 0.999 . S
H569 C550 0.913 . S
H570 C588 0.951 . S
H571 C590 0.951 . S
H572 C592 0.950 . S
H573 C593 0.961 . S
H574 C595 0.950 . S
H575 C598 0.950 . S
H576 C599 0.950 . S
H577 C601 0.950 . S
H578 C602 0.950 . S
H579 C603 0.951 . S
H580 C605 0.951 . S
H581 C607 0.950 . S
H582 C608 0.950 . S
H583 C610 0.950 . S
H584 C613 0.950 . S
H585 C614 0.950 . S
H586 C616 0.950 . S
H587 C617 0.950 . S
C588 H570 0.951 . S
C588 C589 1.366 . S
C588 C590 1.388 . S
C589 C588 1.366 . S
C589 C593 1.374 1_455 S
C590 H571 0.951 . S
C590 C588 1.388 . S
C590 C591 1.366 . S
C591 C590 1.366 . S
C591 C592 1.414 1_455 S
C591 C594 1.499 . S
C592 H572 0.950 . S
C592 C591 1.414 1_655 S
C592 C593 1.374 . S
C593 H573 0.961 . S
C593 C589 1.374 1_655 S
C593 C592 1.374 . S
C594 C591 1.499 . S
C594 C595 1.373 1_455 S
C594 C596 1.389 . S
C595 H574 0.950 . S
C595 C594 1.373 1_655 S
C595 C611 1.377 . S
C596 C594 1.389 . S
C596 C597 1.524 . S
C596 C610 1.377 . S
C597 C596 1.524 . S
C597 C598 1.397 . S
C597 C602 1.363 . S
C598 H575 0.950 . S
C598 C597 1.397 . S
C598 C599 1.334 . S
C599 H576 0.950 . S
C599 C598 1.334 . S
C599 C600 1.287 . S
C600 C599 1.287 . S
C600 C601 1.524 . S
C600 H619 0.913 . S
C601 H577 0.950 . S
C601 C600 1.524 . S
C601 C602 1.415 . S
C602 H578 0.950 . S
C602 C597 1.363 . S
C602 C601 1.415 . S
C603 H579 0.951 . S
C603 C604 1.366 1_655 S
C603 C605 1.388 . S
C604 C603 1.366 1_455 S
C604 C608 1.385 . S
C605 H580 0.951 . S
C605 C603 1.388 . S
C605 C606 1.366 1_655 S
C606 C605 1.366 1_455 S
C606 C607 1.414 . S
C606 C609 1.499 . S
C607 H581 0.950 . S
C607 C606 1.414 . S
C607 C608 1.374 . S
C608 H582 0.950 . S
C608 C604 1.385 . S
C608 C607 1.374 . S
C609 C606 1.499 . S
C609 C610 1.373 . S
C609 C611 1.389 1_455 S
C610 H583 0.950 . S
C610 C596 1.377 . S
C610 C609 1.373 . S
C611 C595 1.377 . S
C611 C609 1.389 1_655 S
C611 C612 1.524 . S
C612 C611 1.524 . S
C612 C613 1.397 1_545 S
C612 C617 1.363 . S
C613 H584 0.950 . S
C613 C612 1.397 1_565 S
C613 C614 1.334 . S
C614 H585 0.950 . S
C614 C613 1.334 . S
C614 C615 1.287 . S
C615 C614 1.287 . S
C615 C616 1.524 1_565 S
C615 H618 0.999 . S
C616 H586 0.950 . S
C616 C615 1.524 1_545 S
C616 C617 1.415 . S
C617 H587 0.950 . S
C617 C612 1.363 . S
C617 C616 1.415 . S
H618 C615 0.999 . S
H619 C600 0.913 . S
H620 C638 0.951 . S
H621 C640 0.951 . S
H622 C642 0.950 . S
H623 C643 0.950 . S
H624 C645 0.950 . S
H625 C648 0.950 . S
H626 C649 0.950 . S
H627 C651 0.950 . S
H628 C652 0.950 . S
H629 C653 0.951 . S
H630 C655 0.951 . S
H631 C657 0.950 . S
H632 C658 0.950 . S
H633 C660 0.950 . S
H634 C663 0.950 . S
H635 C664 0.950 . S
H636 C666 0.950 . S
H637 C667 0.950 . S
C638 H620 0.951 . S
C638 C639 1.366 . S
C638 C640 1.388 . S
C639 C638 1.366 . S
C639 C643 1.385 . S
C640 H621 0.951 . S
C640 C638 1.388 . S
C640 C641 1.366 . S
C641 C640 1.366 . S
C641 C642 1.414 . S
C641 C644 1.499 . S
C642 H622 0.950 . S
C642 C641 1.414 . S
C642 C643 1.374 . S
C643 H623 0.950 . S
C643 C639 1.385 . S
C643 C642 1.374 . S
C644 C641 1.499 . S
C644 C645 1.373 . S
C644 C646 1.389 . S
C645 H624 0.950 . S
C645 C644 1.373 . S
C645 C661 1.377 . S
C646 C644 1.389 . S
C646 C647 1.524 . S
C646 C660 1.377 . S
C647 C646 1.524 . S
C647 C648 1.397 . S
C647 C652 1.363 . S
C648 H625 0.950 . S
C648 C647 1.397 . S
C648 C649 1.334 . S
C649 H626 0.950 . S
C649 C648 1.334 . S
C649 C650 1.287 . S
C650 C649 1.287 . S
C650 C651 1.524 . S
C650 H669 0.913 . S
C651 H627 0.950 . S
C651 C650 1.524 . S
C651 C652 1.415 . S
C652 H628 0.950 . S
C652 C647 1.363 . S
C652 C651 1.415 . S
C653 H629 0.951 . S
C653 C654 1.366 . S
C653 C655 1.388 . S
C654 C653 1.366 . S
C654 C658 1.385 . S
C655 H630 0.951 . S
C655 C653 1.388 . S
C655 C656 1.366 . S
C656 C655 1.366 . S
C656 C657 1.414 . S
C656 C659 1.499 . S
C657 H631 0.950 . S
C657 C656 1.414 . S
C657 C658 1.374 . S
C658 H632 0.950 . S
C658 C654 1.385 . S
C658 C657 1.374 . S
C659 C656 1.499 . S
C659 C660 1.373 . S
C659 C661 1.389 . S
C660 H633 0.950 . S
C660 C646 1.377 . S
C660 C659 1.373 . S
C661 C645 1.377 . S
C661 C659 1.389 . S
C661 C662 1.524 . S
C662 C661 1.524 . S
C662 C663 1.397 . S
C662 C667 1.363 . S
C663 H634 0.950 . S
C663 C662 1.397 . S
C663 C664 1.334 . S
C664 H635 0.950 . S
C664 C663 1.334 . S
C664 C665 1.287 . S
C665 C664 1.287 . S
C665 C666 1.524 . S
C665 H668 0.999 . S
C666 H636 0.950 . S
C666 C665 1.524 . S
C666 C667 1.415 . S
C667 H637 0.950 . S
C667 C662 1.363 . S
C667 C666 1.415 . S
H668 C665 0.999 . S
H669 C650 0.913 . S
H670 C688 0.951 . S
H671 C690 0.951 . S
H672 C692 0.950 . S
H673 C693 0.950 . S
H674 C695 0.950 . S
H675 C698 0.950 . S
H676 C699 0.950 . S
H677 C701 0.950 . S
H678 C702 0.950 . S
H679 C703 0.951 . S
H680 C705 0.951 . S
H681 C707 0.950 . S
H682 C708 0.950 . S
H683 C710 0.950 . S
H684 C713 0.950 . S
H685 C714 0.950 . S
H686 C716 0.950 . S
H687 C717 0.950 . S
C688 H670 0.951 . S
C688 C689 1.366 . S
C688 C690 1.388 . S
C689 C688 1.366 . S
C689 C693 1.385 . S
C690 H671 0.951 . S
C690 C688 1.388 . S
C690 C691 1.366 . S
C691 C690 1.366 . S
C691 C692 1.414 . S
C691 C694 1.499 . S
C692 H672 0.950 . S
C692 C691 1.414 . S
C692 C693 1.374 . S
C693 H673 0.950 . S
C693 C689 1.385 . S
C693 C692 1.374 . S
C694 C691 1.499 . S
C694 C695 1.373 . S
C694 C696 1.389 . S
C695 H674 0.950 . S
C695 C694 1.373 . S
C695 C711 1.377 . S
C696 C694 1.389 . S
C696 C697 1.524 . S
C696 C710 1.377 . S
C697 C696 1.524 . S
C697 C698 1.397 . S
C697 C702 1.363 . S
C698 H675 0.950 . S
C698 C697 1.397 . S
C698 C699 1.334 . S
C699 H676 0.950 . S
C699 C698 1.334 . S
C699 C700 1.287 . S
C700 C699 1.287 . S
C700 C701 1.524 . S
C700 H719 0.913 . S
C701 H677 0.950 . S
C701 C700 1.524 . S
C701 C702 1.415 . S
C702 H678 0.950 . S
C702 C697 1.363 . S
C702 C701 1.415 . S
C703 H679 0.951 . S
C703 C704 1.366 . S
C703 C705 1.388 . S
C704 C703 1.366 . S
C704 C708 1.385 . S
C705 H680 0.951 . S
C705 C703 1.388 . S
C705 C706 1.366 . S
C706 C705 1.366 . S
C706 C707 1.414 . S
C706 C709 1.499 . S
C707 H681 0.950 . S
C707 C706 1.414 . S
C707 C708 1.374 . S
C708 H682 0.950 . S
C708 C704 1.385 . S
C708 C707 1.374 . S
C709 C706 1.499 . S
C709 C710 1.373 . S
C709 C711 1.389 . S
C710 H683 0.950 . S
C710 C696 1.377 . S
C710 C709 1.373 . S
C711 C695 1.377 . S
C711 C709 1.389 . S
C711 C712 1.524 . S
C712 C711 1.524 . S
C712 C713 1.397 . S
C712 C717 1.363 . S
C713 H684 0.950 . S
C713 C712 1.397 . S
C713 C714 1.334 . S
C714 H685 0.950 . S
C714 C713 1.334 . S
C714 C715 1.287 . S
C715 C714 1.287 . S
C715 C716 1.524 . S
C715 H718 0.999 . S
C716 H686 0.950 . S
C716 C715 1.524 . S
C716 C717 1.415 . S
C717 H687 0.950 . S
C717 C712 1.363 . S
C717 C716 1.415 . S
H718 C715 0.999 . S
H719 C700 0.913 . S
C154 N109 1.292 . S
C139 C29 1.304 . S
C189 C8 1.327 . S
C204 N96 1.312 . S
C239 C0 1.481 . S
C254 N108 1.479 . S
C289 C17 1.465 . S
C304 N95 1.470 . S
C339 C63 1.305 . S
C354 N83 1.277 1_565 S
C389 C42 1.328 . S
C404 N70 1.311 . S
C454 N82 1.479 . S
C439 C34 1.482 . S
C504 N69 1.470 . S
C489 C51 1.467 . S
C539 C4 1.520 1_565 S
C554 N73 1.508 1_565 S
C589 C13 1.528 . S
C604 N86 1.517 . S
C654 N99 1.507 . S
C639 C38 1.519 . S
C689 C47 1.528 . S
C704 N112 1.517 . S
