# Generated by pormake.
# Topology pth, (4,4)-cn, num edge types: 1
# Building blocks:
#     Node 0, Type 0, BuildingBlock: QUQFOY_clean_sbu_1, # of connection points: 4
#     Node 1, Type 0, BuildingBlock: QUQFOY_clean_sbu_1, # of connection points: 4
#     Node 2, Type 0, BuildingBlock: QUQFOY_clean_sbu_1, # of connection points: 4
#     Node 3, Type 1, BuildingBlock: AZAVOO_clean_linker_0, # of connection points: 4
#     Node 4, Type 1, BuildingBlock: AZAVOO_clean_linker_0, # of connection points: 4
#     Node 5, Type 1, BuildingBlock: AZAVOO_clean_linker_0, # of connection points: 4
#     Edge 6, Type (0, 1), BuildingBlock: OJICUG_clean_linker_0, # of connection points: 2
#     Edge 7, Type (0, 1), BuildingBlock: OJICUG_clean_linker_0, # of connection points: 2
#     Edge 8, Type (0, 1), BuildingBlock: OJICUG_clean_linker_0, # of connection points: 2
#     Edge 9, Type (0, 1), BuildingBlock: OJICUG_clean_linker_0, # of connection points: 2
#     Edge 10, Type (0, 1), BuildingBlock: OJICUG_clean_linker_0, # of connection points: 2
#     Edge 11, Type (0, 1), BuildingBlock: OJICUG_clean_linker_0, # of connection points: 2
#     Edge 12, Type (0, 1), BuildingBlock: OJICUG_clean_linker_0, # of connection points: 2
#     Edge 13, Type (0, 1), BuildingBlock: OJICUG_clean_linker_0, # of connection points: 2
#     Edge 14, Type (0, 1), BuildingBlock: OJICUG_clean_linker_0, # of connection points: 2
#     Edge 15, Type (0, 1), BuildingBlock: OJICUG_clean_linker_0, # of connection points: 2
#     Edge 16, Type (0, 1), BuildingBlock: OJICUG_clean_linker_0, # of connection points: 2
#     Edge 17, Type (0, 1), BuildingBlock: OJICUG_clean_linker_0, # of connection points: 2
# Relax obj value: 0.128
# Max RMSD: 0.231
# Mean RMSD: 0.168
data_MOF--net-pth--node1-QUQFOY_clean_sbu_1--node2-AZAVOO_clean_linker_0--edge1-OJICUG_clean_linker_0
_symmetry_space_group_name_H-M    P1
_symmetry_Int_Tables_number       1
_symmetry_cell_setting            triclinic
loop_
_symmetry_equiv_pos_as_xyz
'x, y, z'
_cell_length_a     19.448924
_cell_length_b     21.834843
_cell_length_c     56.916323
_cell_angle_alpha  92.831564
_cell_angle_beta   88.496348
_cell_angle_gamma 120.56646
loop_
_atom_site_label
_atom_site_type_symbol
_atom_site_fract_x
_atom_site_fract_y
_atom_site_fract_z
_atom_type_partial_charge
O0 O 0.15422 0.18251 0.06818 0.0
Cd1 Cd 0.05248 0.09805 0.08079 0.0
Cd2 Cd 0.14325 0.03943 0.07756 0.0
O3 O 0.23597 0.14157 0.07189 0.0
O4 O 0.98924 0.14007 0.09446 0.0
O5 O 0.03953 0.09037 0.11583 0.0
C6 C 0.00208 0.12487 0.1149 0.0
C7 C 0.13462 0.96766 0.10741 0.0
C8 C 0.22383 0.19118 0.06655 0.0
C9 C 0.00817 0.98429 0.04355 0.0
O10 O 0.07211 0.98601 0.04899 0.0
O11 O 0.98456 0.02122 0.05535 0.0
O12 O 0.18368 0.97975 0.09012 0.0
O13 O 0.09434 0.99989 0.10839 0.0
O14 O 0.0105 0.10413 0.42946 0.0
Cd15 Cd 0.09299 0.12964 0.40287 0.0
Cd16 Cd 0.04256 0.98556 0.40718 0.0
O17 O 0.96078 0.98805 0.43049 0.0
O18 O 0.11468 0.22486 0.3936 0.0
O19 O 0.06231 0.13034 0.36923 0.0
C20 C 0.08549 0.19684 0.37318 0.0
C21 C 0.01264 0.8882 0.38166 0.0
C22 C 0.96252 0.04452 0.43818 0.0
C23 C 0.21258 0.09738 0.42074 0.0
O24 O 0.15646 0.03285 0.41982 0.0
O25 O 0.20203 0.14622 0.41358 0.0
O26 O 0.01182 0.88321 0.40412 0.0
O27 O 0.02513 0.94737 0.37364 0.0
O28 O 0.95859 0.01886 0.72039 0.0
Cd29 Cd 0.02599 0.99556 0.74141 0.0
Cd30 Cd 0.11952 0.14199 0.74409 0.0
O31 O 0.02754 0.13602 0.72469 0.0
O32 O 0.95038 0.89664 0.75094 0.0
O33 O 0.00629 0.98923 0.77629 0.0
C34 C 0.95755 0.92193 0.77228 0.0
C35 C 0.1815 0.22685 0.77467 0.0
C36 C 0.96839 0.07931 0.71607 0.0
C37 C 0.19035 0.05698 0.72194 0.0
O38 O 0.19697 0.11703 0.72703 0.0
O39 O 0.12639 0.99955 0.72655 0.0
O40 O 0.18936 0.24483 0.75312 0.0
O41 O 0.13412 0.16065 0.77908 0.0
H42 H 0.8882 0.35829 0.0898 0.0
H43 H 0.17087 0.99236 0.26879 0.0
H44 H 0.8669 0.35531 0.21624 0.0
H45 H 0.84952 0.2522 0.19235 0.0
H46 H 0.09714 0.31896 0.20376 0.0
H47 H 0.11365 0.42163 0.22779 0.0
H48 H 0.88719 0.47756 0.1841 0.0
H49 H 0.8666 0.42747 0.1437 0.0
H50 H 0.09678 0.44223 0.14533 0.0
H51 H 0.11709 0.49331 0.18553 0.0
H52 H 0.93275 0.63883 0.21092 0.0
H53 H 0.96071 0.7345 0.18535 0.0
H54 H 0.16601 0.72739 0.15731 0.0
H55 H 0.14264 0.63792 0.18527 0.0
H56 H 0.92748 0.63983 0.2621 0.0
H57 H 0.95014 0.75841 0.27313 0.0
H58 H 0.19357 0.85185 0.24817 0.0
H59 H 0.17033 0.73281 0.2375 0.0
H60 H 0.90632 0.51833 0.29133 0.0
H61 H 0.90081 0.59237 0.32429 0.0
H62 H 0.1541 0.73804 0.31732 0.0
H63 H 0.15947 0.66324 0.28473 0.0
H64 H 0.90483 0.36101 0.26911 0.0
H65 H 0.92092 0.28806 0.29744 0.0
H66 H 0.16568 0.45534 0.30891 0.0
H67 H 0.14921 0.52746 0.28061 0.0
O68 O 0.89831 0.37972 0.10557 0.0
O69 O 0.01637 0.38709 0.10754 0.0
O70 O 0.03486 0.89406 0.27736 0.0
O71 O 0.16018 0.94488 0.26448 0.0
C72 C 0.00788 0.46857 0.23067 0.0
C73 C 0.01294 0.51388 0.21284 0.0
C74 C 0.02678 0.58263 0.21886 0.0
C75 C 0.03377 0.60553 0.24276 0.0
C76 C 0.02978 0.56075 0.2606 0.0
C77 C 0.01894 0.49277 0.25456 0.0
C78 C 0.99169 0.39614 0.22354 0.0
C79 C 0.91642 0.34592 0.21439 0.0
C80 C 0.90683 0.28751 0.20057 0.0
C81 C 0.97235 0.27829 0.1958 0.0
C82 C 0.04545 0.32444 0.20717 0.0
C83 C 0.05503 0.38308 0.22098 0.0
C84 C 0.0034 0.48871 0.18774 0.0
C85 C 0.93341 0.47066 0.17558 0.0
C86 C 0.92169 0.44175 0.15256 0.0
C87 C 0.97986 0.43045 0.14133 0.0
C88 C 0.05066 0.44999 0.15347 0.0
C89 C 0.06241 0.47915 0.17643 0.0
C90 C 0.03618 0.63195 0.20025 0.0
C91 C 0.98402 0.65834 0.19932 0.0
C92 C -0.00022 0.71273 0.18434 0.0
C93 C 0.06635 0.74003 0.16912 0.0
C94 C 0.11568 0.71001 0.16916 0.0
C95 C 0.10147 0.65745 0.18482 0.0
C96 C 0.0474 0.67779 0.24914 0.0
C97 C 0.98573 0.68598 0.25914 0.0
C98 C -0.00125 0.75377 0.26532 0.0
C99 C 0.0737 0.81465 0.26151 0.0
C100 C 0.13518 0.80614 0.25134 0.0
C101 C 0.12211 0.73828 0.24521 0.0
C102 C 0.03315 0.58579 0.2855 0.0
C103 C 0.96136 0.56402 0.29777 0.0
C104 C 0.95814 0.60676 0.31643 0.0
C105 C 0.02668 0.67172 0.32286 0.0
C106 C 0.10021 0.68875 0.3124 0.0
C107 C 0.10358 0.64559 0.29402 0.0
C108 C 0.02575 0.44975 0.27283 0.0
C109 C 0.96181 0.38187 0.2778 0.0
C110 C 0.97125 0.34014 0.29387 0.0
C111 C 0.04464 0.36585 0.30541 0.0
C112 C 0.10811 0.43426 0.30057 0.0
C113 C 0.09877 0.47563 0.28442 0.0
C114 C 0.9663 0.3979 0.11713 0.0
C115 C 0.08805 0.88676 0.26826 0.0
H116 H 0.70011 0.03555 0.42244 0.0
H117 H 0.1983 0.20419 0.59892 0.0
H118 H 0.62402 0.96216 0.55058 0.0
H119 H 0.70798 0.94526 0.5217 0.0
H120 H 0.8946 0.16414 0.53441 0.0
H121 H 0.80819 0.1811 0.56264 0.0
H122 H 0.54295 0.99457 0.51414 0.0
H123 H 0.5895 0.99193 0.47392 0.0
H124 H 0.77983 0.21056 0.48434 0.0
H125 H 0.73277 0.21222 0.52456 0.0
H126 H 0.4023 0.01343 0.53442 0.0
H127 H 0.33667 0.0187 0.49922 0.0
H128 H 0.52681 0.23546 0.49011 0.0
H129 H 0.59179 0.22989 0.52578 0.0
H130 H 0.37143 0.00707 0.58985 0.0
H131 H 0.25423 0.01733 0.59944 0.0
H132 H 0.38643 0.23884 0.58181 0.0
H133 H 0.50357 0.22806 0.57259 0.0
H134 H 0.48843 0.98387 0.6205 0.0
H135 H 0.41136 0.96813 0.65673 0.0
H136 H 0.47758 0.18969 0.65702 0.0
H137 H 0.55668 0.20519 0.62161 0.0
H138 H 0.64722 0.98275 0.59949 0.0
H139 H 0.72894 0.98104 0.63105 0.0
H140 H 0.78575 0.19308 0.65462 0.0
H141 H 0.70795 0.19572 0.62215 0.0
O142 O 0.68155 0.03823 0.43819 0.0
O143 O 0.77635 0.15155 0.44411 0.0
O144 O 0.17853 0.08461 0.60415 0.0
O145 O 0.24368 0.1986 0.59516 0.0
C146 C 0.64769 0.09069 0.56527 0.0
C147 C 0.60913 0.10353 0.54705 0.0
C148 C 0.54483 0.11416 0.55222 0.0
C149 C 0.51782 0.11102 0.57557 0.0
C150 C 0.55827 0.10088 0.59399 0.0
C151 C 0.62455 0.09224 0.5889 0.0
C152 C 0.70974 0.07306 0.55845 0.0
C153 C 0.6847 0.00533 0.54809 0.0
C154 C 0.73272 0.99594 0.53138 0.0
C155 C 0.80689 0.0541 0.52513 0.0
C156 C 0.83657 0.11893 0.53831 0.0
C157 C 0.78806 0.12843 0.55484 0.0
C158 C 0.6348 0.10345 0.52221 0.0
C159 C 0.59436 0.0419 0.50761 0.0
C160 C 0.62123 0.04053 0.48469 0.0
C161 C 0.68866 0.10094 0.47595 0.0
C162 C 0.72785 0.16307 0.49053 0.0
C163 C 0.70113 0.16423 0.51348 0.0
C164 C 0.50131 0.12134 0.53262 0.0
C165 C 0.4291 0.06234 0.52502 0.0
C166 C 0.39247 0.0652 0.50475 0.0
C167 C 0.42758 0.12712 0.49171 0.0
C168 C 0.49873 0.1871 0.49981 0.0
C169 C 0.5356 0.18408 0.52012 0.0
C170 C 0.446 0.1169 0.58063 0.0
C171 C 0.37495 0.05778 0.58812 0.0
C172 C 0.30809 0.06377 0.59355 0.0
C173 C 0.311 0.12899 0.59142 0.0
C174 C 0.38216 0.1879 0.58366 0.0
C175 C 0.44908 0.18187 0.57831 0.0
C176 C 0.52746 0.09552 0.61837 0.0
C177 C 0.48834 0.02943 0.62892 0.0
C178 C 0.44359 0.02037 0.64944 0.0
C179 C 0.43722 0.07732 0.65965 0.0
C180 C 0.4816 0.14473 0.64988 0.0
C181 C 0.52665 0.15378 0.62953 0.0
C182 C 0.67224 0.0896 0.60835 0.0
C183 C 0.6781 0.02907 0.61131 0.0
C184 C 0.72401 0.02791 0.6296 0.0
C185 C 0.76412 0.08698 0.64546 0.0
C186 C 0.75696 0.14711 0.64256 0.0
C187 C 0.71188 0.14849 0.62413 0.0
C188 C 0.71831 0.09876 0.4518 0.0
C189 C 0.24027 0.13576 0.5973 0.0
H190 H 0.80921 0.78176 0.06134 0.0
H191 H 0.16398 0.14039 0.89288 0.0
H192 H 0.65952 0.75834 0.93512 0.0
H193 H 0.75523 0.85502 0.96065 0.0
H194 H 0.91534 0.77215 0.95265 0.0
H195 H 0.81504 0.67179 0.929 0.0
H196 H 0.60792 0.68555 0.97742 0.0
H197 H 0.67916 0.73543 0.01464 0.0
H198 H 0.79232 0.60932 0.00445 0.0
H199 H 0.7211 0.56035 0.96711 0.0
H200 H 0.47839 0.55937 0.97944 0.0
H201 H 0.4165 0.49087 0.01423 0.0
H202 H 0.46885 0.33 0.98733 0.0
H203 H 0.53659 0.4023 0.95361 0.0
H204 H 0.36769 0.48327 0.9284 0.0
H205 H 0.23958 0.37332 0.92142 0.0
H206 H 0.36514 0.26407 0.89927 0.0
H207 H 0.49259 0.37417 0.90653 0.0
H208 H 0.44191 0.56561 0.88146 0.0
H209 H 0.3501 0.49248 0.84952 0.0
H210 H 0.48131 0.38292 0.83823 0.0
H211 H 0.5746 0.45789 0.86963 0.0
H212 H 0.58316 0.67877 0.87322 0.0
H213 H 0.66232 0.75306 0.8406 0.0
H214 H 0.852 0.71346 0.85593 0.0
H215 H 0.77118 0.63604 0.88751 0.0
O216 O 0.77956 0.75953 0.04698 0.0
O217 O 0.83189 0.68993 0.0418 0.0
O218 O 0.15185 0.24216 0.90844 0.0
O219 O 0.21366 0.18419 0.89624 0.0
C220 C 0.6594 0.6359 0.92624 0.0
C221 C 0.62209 0.59434 0.94598 0.0
C222 C 0.55084 0.5285 0.94321 0.0
C223 C 0.51636 0.5043 0.92072 0.0
C224 C 0.55424 0.54528 0.90085 0.0
C225 C 0.62695 0.61078 0.9035 0.0
C226 C 0.72989 0.70765 0.9305 0.0
C227 C 0.71689 0.76302 0.93799 0.0
C228 C 0.77201 0.81837 0.95279 0.0
C229 C 0.842 0.82 0.95968 0.0
C230 C 0.86041 0.77078 0.94872 0.0
C231 C 0.8041 0.71425 0.93456 0.0
C232 C 0.65958 0.61952 0.9696 0.0
C233 C 0.64763 0.66836 0.98338 0.0
C234 C 0.68853 0.69686 0.0046 0.0
C235 C 0.74165 0.67653 0.01249 0.0
C236 C 0.75189 0.62614 -0.00113 0.0
C237 C 0.71111 0.59788 0.9776 0.0
C238 C 0.51176 0.48567 0.96402 0.0
C239 C 0.47757 0.50988 0.98131 0.0
C240 C 0.44161 0.47025 0.00109 0.0
C241 C 0.43714 0.4045 0.00364 0.0
C242 C 0.47229 0.38085 0.98627 0.0
C243 C 0.50984 0.42142 0.96674 0.0
C244 C 0.4391 0.43648 0.91792 0.0
C245 C 0.36722 0.4353 0.92225 0.0
C246 C 0.29425 0.37255 0.91816 0.0
C247 C 0.29214 0.30994 0.90969 0.0
C248 C 0.36457 0.31129 0.90574 0.0
C249 C 0.43742 0.37401 0.9099 0.0
C250 C 0.51551 0.51767 0.8776 0.0
C251 C 0.45299 0.52813 0.87135 0.0
C252 C 0.40019 0.4859 0.85335 0.0
C253 C 0.40837 0.43172 0.84176 0.0
C254 C 0.47372 0.42416 0.84709 0.0
C255 C 0.5275 0.46745 0.86474 0.0
C256 C 0.67137 0.65196 0.88279 0.0
C257 C 0.641 0.68485 0.86923 0.0
C258 C 0.68633 0.72757 0.85078 0.0
C259 C 0.76323 0.73918 0.84606 0.0
C260 C 0.79314 0.70572 0.85947 0.0
C261 C 0.74713 0.66172 0.87747 0.0
C262 C 0.787 0.7087 0.03466 0.0
C263 C 0.21487 0.24355 0.90481 0.0
C264 C 0.94144 0.19046 0.13505 0.0
C265 C 0.98238 0.1532 0.13656 0.0
H266 H 0.90639 0.25909 0.15257 0.0
C267 C 0.01226 0.15069 0.15851 0.0
H268 H 0.91785 0.1936 0.1184 0.0
C269 C 0.00565 0.18841 0.17821 0.0
C270 C 0.96831 0.22868 0.17636 0.0
H271 H 0.04419 0.12247 0.16026 0.0
H272 H 0.03197 0.18795 0.19469 0.0
C273 C 0.93441 0.22768 0.15471 0.0
C274 C 0.88209 0.98496 0.47397 0.0
C275 C 0.91615 0.04345 0.45934 0.0
H276 H 0.82313 0.94304 0.50662 0.0
C277 C 0.91327 0.10461 0.46647 0.0
H278 H 0.88407 0.9373 0.46909 0.0
C279 C 0.87901 0.10803 0.48793 0.0
C280 C 0.8467 0.05044 0.5029 0.0
H281 H 0.93855 0.15053 0.4556 0.0
H282 H 0.87711 0.1558 0.49262 0.0
C283 C 0.84773 0.98844 0.49555 0.0
C284 C 0.93245 0.89345 0.81492 0.0
C285 C 0.90863 0.87522 0.79129 0.0
H286 H 0.90507 0.86338 0.85085 0.0
C287 C 0.83629 0.81222 0.78588 0.0
H288 H 0.98786 0.94166 0.81958 0.0
C289 C 0.7883 0.76864 0.80375 0.0
C290 C 0.81272 0.78641 0.82728 0.0
H291 H 0.81612 0.7971 0.76784 0.0
H292 H 0.73263 0.72053 0.79919 0.0
C293 C 0.88531 0.84885 0.83275 0.0
C294 C 0.04043 0.86647 0.13145 0.0
C295 C 0.11897 0.913 0.12425 0.0
H296 H 0.96133 0.7734 0.14974 0.0
C297 C 0.18058 0.90337 0.1319 0.0
H298 H 0.99166 0.87208 0.12536 0.0
C299 C 0.16392 0.84836 0.1468 0.0
C300 C 0.08473 0.8 0.15363 0.0
H301 H 0.2417 0.9388 0.12653 0.0
H302 H 0.21354 0.84435 0.15299 0.0
C303 C 0.02327 0.80995 0.1456 0.0
C304 C 0.32386 0.17801 0.44808 0.0
C305 C 0.28486 0.11499 0.43397 0.0
H306 H 0.3997 0.23103 0.47791 0.0
C307 C 0.30469 0.06214 0.43637 0.0
H308 H 0.30935 0.21946 0.44664 0.0
C309 C 0.35614 0.06877 0.45415 0.0
C310 C 0.38835 0.12817 0.46994 0.0
H311 H 0.27615 0.01337 0.42553 0.0
H312 H 0.36713 0.02548 0.45638 0.0
C313 C 0.37524 0.18449 0.46603 0.0
C314 C 0.27015 0.35291 0.78929 0.0
C315 C 0.23191 0.27961 0.79319 0.0
H316 H 0.35575 0.45882 0.80185 0.0
C317 C 0.24914 0.2572 0.81381 0.0
H318 H 0.25804 0.37172 0.77354 0.0
C319 C 0.30623 0.30691 0.82966 0.0
C320 C 0.34596 0.3799 0.82537 0.0
H321 H 0.22101 0.20112 0.81724 0.0
H322 H 0.31993 0.28835 0.8452 0.0
C323 C 0.3261 0.40271 0.80539 0.0
C324 C 0.93514 0.1467 0.68854 0.0
C325 C 0.91321 0.08314 0.69958 0.0
H326 H 0.90677 0.19738 0.66241 0.0
C327 C 0.84023 0.02175 0.69351 0.0
H328 H 0.99128 0.19478 0.69269 0.0
C329 C 0.79112 0.02341 0.67638 0.0
C330 C 0.81418 0.08631 0.6647 0.0
H331 H 0.82128 0.97202 0.70182 0.0
H332 H 0.73514 0.97517 0.67226 0.0
C333 C 0.88643 0.14817 0.6712 0.0
C334 C 0.92944 0.96788 0.00746 0.0
C335 C 0.96421 0.94214 0.02248 0.0
H336 H 0.86819 0.95232 0.97512 0.0
C337 C 0.96126 0.87791 0.01643 0.0
H338 H 0.93236 0.01813 0.0116 0.0
C339 C 0.92284 0.8392 0.99591 0.0
C340 C 0.88838 0.86482 0.98054 0.0
H341 H 0.98744 0.85689 0.02781 0.0
H342 H 0.91852 0.78814 0.99257 0.0
C343 C 0.89281 0.93011 0.98654 0.0
C344 C 0.97656 0.76129 0.3738 0.0
C345 C 0.00842 0.83065 0.36584 0.0
H346 H 0.95665 0.65602 0.3663 0.0
C347 C 0.04416 0.84643 0.34352 0.0
H348 H 0.94891 0.74774 0.391 0.0
C349 C 0.05063 0.79476 0.32982 0.0
C350 C 0.01989 0.72576 0.33788 0.0
H351 H 0.06995 0.89949 0.33699 0.0
H352 H 0.07994 0.80882 0.31288 0.0
C353 C 0.98127 0.70897 0.35979 0.0
C354 C 0.33411 0.11456 0.71088 0.0
C355 C 0.25638 0.05543 0.70909 0.0
H356 H 0.4533 0.16647 0.69742 0.0
C357 C 0.24138 0.99894 0.69313 0.0
H358 H 0.34764 0.15845 0.72331 0.0
C359 C 0.30163 0.00417 0.67791 0.0
C360 C 0.37824 0.06556 0.67863 0.0
H361 H 0.18191 0.95281 0.69135 0.0
H362 H 0.28657 0.96201 0.66463 0.0
C363 C 0.39455 0.11929 0.69598 0.0
C364 C 0.2683 0.30409 0.0464 0.0
C365 C 0.28664 0.25451 0.05473 0.0
H366 H 0.29953 0.38826 0.02339 0.0
C367 C 0.36034 0.2608 0.04859 0.0
H368 H 0.21222 0.30115 0.05084 0.0
C369 C 0.41178 0.3123 0.03301 0.0
C370 C 0.39013 0.358 0.02315 0.0
H371 H 0.37655 0.22377 0.05484 0.0
H372 H 0.46716 0.31457 0.02808 0.0
C373 C 0.31897 0.35471 0.03068 0.0
C374 C 0.03616 0.20815 0.33409 0.0
C375 C 0.07674 0.23971 0.35535 0.0
H376 H 0.99418 0.2232 0.3016 0.0
C377 C 0.10677 0.31283 0.35994 0.0
H378 H 0.01213 0.15192 0.33004 0.0
C379 C 0.09631 0.35344 0.34375 0.0
C380 C 0.05529 0.322 0.32256 0.0
H381 H 0.13805 0.33887 0.37618 0.0
H382 H 0.11936 0.40942 0.34803 0.0
C383 C 0.02531 0.24884 0.31789 0.0
loop_
_geom_bond_atom_site_label_1
_geom_bond_atom_site_label_2
_geom_bond_distance
_geom_bond_site_symmetry_2
_ccdc_geom_bond_type
O0 Cd1 2.223 . S
O0 C8 1.315 . S
Cd1 O0 2.223 . S
Cd1 O4 2.297 . S
Cd1 O5 2.439 . S
Cd1 O11 2.248 . S
Cd2 O3 2.240 . S
Cd2 O10 2.223 1_545 S
Cd2 O12 2.297 1_545 S
Cd2 O13 2.439 1_545 S
O3 Cd2 2.240 . S
O3 C8 1.279 . S
O4 Cd1 2.297 . S
O4 C6 1.247 . S
O5 Cd1 2.439 . S
O5 C6 1.208 . S
C6 O4 1.247 . S
C6 O5 1.208 . S
C7 O12 1.247 . S
C7 O13 1.208 . S
C8 O0 1.315 . S
C8 O3 1.279 . S
C9 O10 1.315 . S
C9 O11 1.276 1_565 S
O10 Cd2 2.223 1_565 S
O10 C9 1.315 . S
O11 Cd1 2.248 . S
O11 C9 1.276 1_545 S
O12 Cd2 2.297 1_565 S
O12 C7 1.247 . S
O13 Cd2 2.439 1_565 S
O13 C7 1.208 . S
O14 Cd15 2.223 . S
O14 C22 1.315 1_455 S
Cd15 O14 2.223 . S
Cd15 O18 2.297 . S
Cd15 O19 2.439 . S
Cd15 O25 2.240 . S
Cd16 O17 2.240 1_565 S
Cd16 O24 2.223 1_655 S
Cd16 O26 2.297 1_655 S
Cd16 O27 2.439 1_655 S
O17 Cd16 2.240 1_545 S
O17 C22 1.279 . S
O18 Cd15 2.297 . S
O18 C20 1.247 . S
O19 Cd15 2.439 . S
O19 C20 1.208 . S
C20 O18 1.247 . S
C20 O19 1.208 . S
C21 O26 1.247 . S
C21 O27 1.208 . S
C22 O14 1.315 1_655 S
C22 O17 1.279 . S
C23 O24 1.315 1_545 S
C23 O25 1.279 . S
O24 Cd16 2.223 1_455 S
O24 C23 1.315 1_565 S
O25 Cd15 2.240 . S
O25 C23 1.279 . S
O26 Cd16 2.297 1_455 S
O26 C21 1.247 . S
O27 Cd16 2.439 1_455 S
O27 C21 1.208 . S
O28 Cd29 2.223 1_545 S
O28 C36 1.315 . S
Cd29 O28 2.223 1_565 S
Cd29 O32 2.297 1_455 S
Cd29 O33 2.439 1_565 S
Cd29 O39 2.240 1_565 S
Cd30 O31 2.240 . S
Cd30 O38 2.223 . S
Cd30 O40 2.297 . S
Cd30 O41 2.439 . S
O31 Cd30 2.240 . S
O31 C36 1.279 . S
O32 Cd29 2.297 1_655 S
O32 C34 1.247 . S
O33 Cd29 2.439 1_545 S
O33 C34 1.208 1_445 S
C34 O32 1.247 . S
C34 O33 1.208 1_665 S
C35 O40 1.247 . S
C35 O41 1.208 . S
C36 O28 1.315 . S
C36 O31 1.279 . S
C37 O38 1.315 . S
C37 O39 1.279 . S
O38 Cd30 2.223 . S
O38 C37 1.315 . S
O39 Cd29 2.240 1_545 S
O39 C37 1.279 . S
O40 Cd30 2.297 . S
O40 C35 1.247 . S
O41 Cd30 2.439 . S
O41 C35 1.208 . S
H42 O68 0.856 . S
H43 O71 0.854 . S
H44 C79 0.930 . S
H45 C80 0.930 . S
H46 C82 0.930 . S
H47 C83 0.930 . S
H48 C85 0.931 1_655 S
H49 C86 0.930 1_655 S
H50 C88 0.930 . S
H51 C89 0.929 . S
H52 C91 0.930 1_655 S
H53 C92 0.931 1_655 S
H54 C94 0.930 . S
H55 C95 0.929 . S
H56 C97 0.931 . S
H57 C98 0.930 . S
H58 C100 0.930 . S
H59 C101 0.932 . S
H60 C103 0.930 . S
H61 C104 0.929 . S
H62 C106 0.931 . S
H63 C107 0.930 . S
H64 C109 0.929 . S
H65 C110 0.931 . S
H66 C112 0.930 . S
H67 C113 0.929 . S
O68 H42 0.856 . S
O68 C114 1.300 . S
O69 C114 1.209 . S
O70 C115 1.199 . S
O71 H43 0.854 . S
O71 C115 1.297 . S
C72 C73 1.404 . S
C72 C77 1.397 . S
C72 C78 1.492 . S
C73 C72 1.404 . S
C73 C74 1.396 . S
C73 C84 1.492 . S
C74 C73 1.396 . S
C74 C75 1.397 . S
C74 C90 1.509 . S
C75 C74 1.397 . S
C75 C76 1.412 . S
C75 C96 1.485 . S
C76 C75 1.412 . S
C76 C77 1.388 . S
C76 C102 1.490 . S
C77 C72 1.397 . S
C77 C76 1.388 . S
C77 C108 1.519 . S
C78 C72 1.492 . S
C78 C79 1.363 1_455 S
C78 C83 1.390 . S
C79 H44 0.930 . S
C79 C78 1.363 1_655 S
C79 C80 1.372 . S
C80 H45 0.930 . S
C80 C79 1.372 . S
C80 C81 1.383 1_655 S
C81 C80 1.383 1_455 S
C81 C82 1.395 . S
C82 H46 0.930 . S
C82 C81 1.395 . S
C82 C83 1.362 . S
C83 H47 0.930 . S
C83 C78 1.390 . S
C83 C82 1.362 . S
C84 C73 1.492 . S
C84 C85 1.377 . S
C84 C89 1.397 . S
C85 H48 0.931 1_455 S
C85 C84 1.377 . S
C85 C86 1.376 . S
C86 H49 0.930 1_455 S
C86 C85 1.376 . S
C86 C87 1.376 . S
C87 C86 1.376 . S
C87 C88 1.378 . S
C87 C114 1.486 . S
C88 H50 0.930 . S
C88 C87 1.378 . S
C88 C89 1.376 . S
C89 H51 0.929 . S
C89 C84 1.397 . S
C89 C88 1.376 . S
C90 C74 1.509 . S
C90 C91 1.391 . S
C90 C95 1.386 . S
C91 H52 0.930 1_455 S
C91 C90 1.391 . S
C91 C92 1.375 . S
C92 H53 0.931 1_455 S
C92 C91 1.375 . S
C92 C93 1.375 . S
C93 C92 1.375 . S
C93 C94 1.361 . S
C94 H54 0.930 . S
C94 C93 1.361 . S
C94 C95 1.399 . S
C95 H55 0.929 . S
C95 C90 1.386 . S
C95 C94 1.399 . S
C96 C75 1.485 . S
C96 C97 1.394 1_455 S
C96 C101 1.360 . S
C97 H56 0.931 . S
C97 C96 1.394 1_655 S
C97 C98 1.372 . S
C98 H57 0.930 . S
C98 C97 1.372 . S
C98 C99 1.397 1_655 S
C99 C98 1.397 1_455 S
C99 C100 1.390 . S
C99 C115 1.476 . S
C100 H58 0.930 . S
C100 C99 1.390 . S
C100 C101 1.366 . S
C101 H59 0.932 . S
C101 C96 1.360 . S
C101 C100 1.366 . S
C102 C76 1.490 . S
C102 C103 1.380 1_455 S
C102 C107 1.386 . S
C103 H60 0.930 . S
C103 C102 1.380 1_655 S
C103 C104 1.381 . S
C104 H61 0.929 . S
C104 C103 1.381 . S
C104 C105 1.371 1_655 S
C105 C104 1.371 1_455 S
C105 C106 1.380 . S
C106 H62 0.931 . S
C106 C105 1.380 . S
C106 C107 1.387 . S
C107 H63 0.930 . S
C107 C102 1.386 . S
C107 C106 1.387 . S
C108 C77 1.519 . S
C108 C109 1.377 1_455 S
C108 C113 1.361 . S
C109 H64 0.929 . S
C109 C108 1.377 1_655 S
C109 C110 1.386 . S
C110 H65 0.931 . S
C110 C109 1.386 . S
C110 C111 1.363 1_655 S
C111 C110 1.363 1_455 S
C111 C112 1.385 . S
C112 H66 0.930 . S
C112 C111 1.385 . S
C112 C113 1.396 . S
C113 H67 0.929 . S
C113 C108 1.361 . S
C113 C112 1.396 . S
C114 O68 1.300 . S
C114 O69 1.209 . S
C114 C87 1.486 . S
C115 O70 1.199 . S
C115 O71 1.297 . S
C115 C99 1.476 . S
H116 O142 0.856 . S
H117 O145 0.854 . S
H118 C153 0.930 1_565 S
H119 C154 0.930 . S
H120 C156 0.930 . S
H121 C157 0.930 . S
H122 C159 0.931 1_565 S
H123 C160 0.930 1_565 S
H124 C162 0.930 . S
H125 C163 0.929 . S
H126 C165 0.930 1_565 S
H127 C166 0.931 1_565 S
H128 C168 0.930 . S
H129 C169 0.929 . S
H130 C171 0.931 1_565 S
H131 C172 0.930 . S
H132 C174 0.930 . S
H133 C175 0.932 . S
H134 C177 0.930 1_565 S
H135 C178 0.929 1_565 S
H136 C180 0.931 . S
H137 C181 0.930 . S
H138 C183 0.929 1_565 S
H139 C184 0.931 . S
H140 C186 0.930 . S
H141 C187 0.929 . S
O142 H116 0.856 . S
O142 C188 1.300 . S
O143 C188 1.209 . S
O144 C189 1.199 . S
O145 H117 0.854 . S
O145 C189 1.297 . S
C146 C147 1.404 . S
C146 C151 1.397 . S
C146 C152 1.492 . S
C147 C146 1.404 . S
C147 C148 1.396 . S
C147 C158 1.492 . S
C148 C147 1.396 . S
C148 C149 1.397 . S
C148 C164 1.509 . S
C149 C148 1.397 . S
C149 C150 1.412 . S
C149 C170 1.485 . S
C150 C149 1.412 . S
C150 C151 1.388 . S
C150 C176 1.490 . S
C151 C146 1.397 . S
C151 C150 1.388 . S
C151 C182 1.519 . S
C152 C146 1.492 . S
C152 C153 1.363 . S
C152 C157 1.390 . S
C153 H118 0.930 1_545 S
C153 C152 1.363 . S
C153 C154 1.372 1_545 S
C154 H119 0.930 . S
C154 C153 1.372 1_565 S
C154 C155 1.383 1_565 S
C155 C154 1.383 1_545 S
C155 C156 1.395 . S
C156 H120 0.930 . S
C156 C155 1.395 . S
C156 C157 1.362 . S
C157 H121 0.930 . S
C157 C152 1.390 . S
C157 C156 1.362 . S
C158 C147 1.492 . S
C158 C159 1.377 . S
C158 C163 1.397 . S
C159 H122 0.931 1_545 S
C159 C158 1.377 . S
C159 C160 1.376 . S
C160 H123 0.930 1_545 S
C160 C159 1.376 . S
C160 C161 1.376 . S
C161 C160 1.376 . S
C161 C162 1.378 . S
C161 C188 1.486 . S
C162 H124 0.930 . S
C162 C161 1.378 . S
C162 C163 1.376 . S
C163 H125 0.929 . S
C163 C158 1.397 . S
C163 C162 1.376 . S
C164 C148 1.509 . S
C164 C165 1.391 . S
C164 C169 1.386 . S
C165 H126 0.930 1_545 S
C165 C164 1.391 . S
C165 C166 1.375 . S
C166 H127 0.931 1_545 S
C166 C165 1.375 . S
C166 C167 1.375 . S
C167 C166 1.375 . S
C167 C168 1.361 . S
C168 H128 0.930 . S
C168 C167 1.361 . S
C168 C169 1.399 . S
C169 H129 0.929 . S
C169 C164 1.386 . S
C169 C168 1.399 . S
C170 C149 1.485 . S
C170 C171 1.394 . S
C170 C175 1.360 . S
C171 H130 0.931 1_545 S
C171 C170 1.394 . S
C171 C172 1.372 . S
C172 H131 0.930 . S
C172 C171 1.372 . S
C172 C173 1.397 . S
C173 C172 1.397 . S
C173 C174 1.390 . S
C173 C189 1.476 . S
C174 H132 0.930 . S
C174 C173 1.390 . S
C174 C175 1.366 . S
C175 H133 0.932 . S
C175 C170 1.360 . S
C175 C174 1.366 . S
C176 C150 1.490 . S
C176 C177 1.380 . S
C176 C181 1.386 . S
C177 H134 0.930 1_545 S
C177 C176 1.380 . S
C177 C178 1.381 . S
C178 H135 0.929 1_545 S
C178 C177 1.381 . S
C178 C179 1.371 . S
C179 C178 1.371 . S
C179 C180 1.380 . S
C180 H136 0.931 . S
C180 C179 1.380 . S
C180 C181 1.387 . S
C181 H137 0.930 . S
C181 C176 1.386 . S
C181 C180 1.387 . S
C182 C151 1.519 . S
C182 C183 1.377 . S
C182 C187 1.361 . S
C183 H138 0.929 1_545 S
C183 C182 1.377 . S
C183 C184 1.386 . S
C184 H139 0.931 . S
C184 C183 1.386 . S
C184 C185 1.363 . S
C185 C184 1.363 . S
C185 C186 1.385 . S
C186 H140 0.930 . S
C186 C185 1.385 . S
C186 C187 1.396 . S
C187 H141 0.929 . S
C187 C182 1.361 . S
C187 C186 1.396 . S
C188 O142 1.300 . S
C188 O143 1.209 . S
C188 C161 1.486 . S
C189 O144 1.199 . S
C189 O145 1.297 . S
C189 C173 1.476 . S
H190 O216 0.856 . S
H191 O219 0.854 . S
H192 C227 0.930 . S
H193 C228 0.930 . S
H194 C230 0.930 . S
H195 C231 0.930 . S
H196 C233 0.931 . S
H197 C234 0.930 . S
H198 C236 0.930 . S
H199 C237 0.929 . S
H200 C239 0.930 . S
H201 C240 0.931 . S
H202 C242 0.946 . S
H203 C243 0.929 . S
H204 C245 0.931 . S
H205 C246 0.930 . S
H206 C248 0.930 . S
H207 C249 0.932 . S
H208 C251 0.930 . S
H209 C252 0.929 . S
H210 C254 0.931 . S
H211 C255 0.930 . S
H212 C257 0.929 . S
H213 C258 0.931 . S
H214 C260 0.930 . S
H215 C261 0.929 . S
O216 H190 0.856 . S
O216 C262 1.300 . S
O217 C262 1.209 . S
O218 C263 1.199 . S
O219 H191 0.854 . S
O219 C263 1.297 . S
C220 C221 1.404 . S
C220 C225 1.397 . S
C220 C226 1.492 . S
C221 C220 1.404 . S
C221 C222 1.396 . S
C221 C232 1.492 . S
C222 C221 1.396 . S
C222 C223 1.397 . S
C222 C238 1.509 . S
C223 C222 1.397 . S
C223 C224 1.412 . S
C223 C244 1.485 . S
C224 C223 1.412 . S
C224 C225 1.388 . S
C224 C250 1.490 . S
C225 C220 1.397 . S
C225 C224 1.388 . S
C225 C256 1.519 . S
C226 C220 1.492 . S
C226 C227 1.363 . S
C226 C231 1.390 . S
C227 H192 0.930 . S
C227 C226 1.363 . S
C227 C228 1.372 . S
C228 H193 0.930 . S
C228 C227 1.372 . S
C228 C229 1.383 . S
C229 C228 1.383 . S
C229 C230 1.395 . S
C230 H194 0.930 . S
C230 C229 1.395 . S
C230 C231 1.362 . S
C231 H195 0.930 . S
C231 C226 1.390 . S
C231 C230 1.362 . S
C232 C221 1.492 . S
C232 C233 1.377 . S
C232 C237 1.397 . S
C233 H196 0.931 . S
C233 C232 1.377 . S
C233 C234 1.376 1_556 S
C234 H197 0.930 . S
C234 C233 1.376 1_554 S
C234 C235 1.376 . S
C235 C234 1.376 . S
C235 C236 1.378 . S
C235 C262 1.486 . S
C236 H198 0.930 . S
C236 C235 1.378 . S
C236 C237 1.376 1_554 S
C237 H199 0.929 . S
C237 C232 1.397 . S
C237 C236 1.376 1_556 S
C238 C222 1.509 . S
C238 C239 1.391 . S
C238 C243 1.386 . S
C239 H200 0.930 . S
C239 C238 1.391 . S
C239 C240 1.375 . S
C240 H201 0.931 . S
C240 C239 1.375 . S
C240 C241 1.393 . S
C241 C240 1.393 . S
C241 C242 1.371 . S
C242 H202 0.946 . S
C242 C241 1.371 . S
C242 C243 1.399 . S
C243 H203 0.929 . S
C243 C238 1.386 . S
C243 C242 1.399 . S
C244 C223 1.485 . S
C244 C245 1.394 . S
C244 C249 1.360 . S
C245 H204 0.931 . S
C245 C244 1.394 . S
C245 C246 1.372 . S
C246 H205 0.930 . S
C246 C245 1.372 . S
C246 C247 1.397 . S
C247 C246 1.397 . S
C247 C248 1.390 . S
C247 C263 1.476 . S
C248 H206 0.930 . S
C248 C247 1.390 . S
C248 C249 1.366 . S
C249 H207 0.932 . S
C249 C244 1.360 . S
C249 C248 1.366 . S
C250 C224 1.490 . S
C250 C251 1.380 . S
C250 C255 1.386 . S
C251 H208 0.930 . S
C251 C250 1.380 . S
C251 C252 1.381 . S
C252 H209 0.929 . S
C252 C251 1.381 . S
C252 C253 1.371 . S
C253 C252 1.371 . S
C253 C254 1.380 . S
C254 H210 0.931 . S
C254 C253 1.380 . S
C254 C255 1.387 . S
C255 H211 0.930 . S
C255 C250 1.386 . S
C255 C254 1.387 . S
C256 C225 1.519 . S
C256 C257 1.377 . S
C256 C261 1.361 . S
C257 H212 0.929 . S
C257 C256 1.377 . S
C257 C258 1.386 . S
C258 H213 0.931 . S
C258 C257 1.386 . S
C258 C259 1.363 . S
C259 C258 1.363 . S
C259 C260 1.385 . S
C260 H214 0.930 . S
C260 C259 1.385 . S
C260 C261 1.396 . S
C261 H215 0.929 . S
C261 C256 1.361 . S
C261 C260 1.396 . S
C262 O216 1.300 . S
C262 O217 1.209 . S
C262 C235 1.486 . S
C263 O218 1.199 . S
C263 O219 1.297 . S
C263 C247 1.476 . S
C264 C265 1.387 . S
C264 H268 0.950 . S
C264 C273 1.390 . S
C265 C264 1.387 . S
C265 C267 1.387 . S
H266 C273 0.950 . S
C267 C265 1.387 . S
C267 C269 1.390 . S
C267 H271 0.950 . S
H268 C264 0.950 . S
C269 C267 1.390 . S
C269 C270 1.387 . S
C269 H272 0.950 . S
C270 C269 1.387 . S
C270 C273 1.387 . S
H271 C267 0.950 . S
H272 C269 0.950 . S
C273 C264 1.390 . S
C273 H266 0.950 . S
C273 C270 1.387 . S
C274 C275 1.387 1_565 S
C274 H278 0.950 . S
C274 C283 1.390 . S
C275 C274 1.387 1_545 S
C275 C277 1.387 . S
H276 C283 0.950 . S
C277 C275 1.387 . S
C277 C279 1.390 . S
C277 H281 0.950 . S
H278 C274 0.950 . S
C279 C277 1.390 . S
C279 C280 1.387 . S
C279 H282 0.950 . S
C280 C279 1.387 . S
C280 C283 1.387 1_545 S
H281 C277 0.950 . S
H282 C279 0.950 . S
C283 C274 1.390 . S
C283 H276 0.950 . S
C283 C280 1.387 1_565 S
C284 C285 1.387 . S
C284 H288 0.950 1_655 S
C284 C293 1.390 . S
C285 C284 1.387 . S
C285 C287 1.387 . S
H286 C293 0.950 . S
C287 C285 1.387 . S
C287 C289 1.390 . S
C287 H291 0.950 . S
H288 C284 0.950 1_455 S
C289 C287 1.390 . S
C289 C290 1.387 . S
C289 H292 0.950 . S
C290 C289 1.387 . S
C290 C293 1.387 . S
H291 C287 0.950 . S
H292 C289 0.950 . S
C293 C284 1.390 . S
C293 H286 0.950 . S
C293 C290 1.387 . S
C294 C295 1.387 . S
C294 H298 0.950 1_455 S
C294 C303 1.390 . S
C295 C294 1.387 . S
C295 C297 1.387 . S
H296 C303 0.950 1_655 S
C297 C295 1.387 . S
C297 C299 1.390 . S
C297 H301 0.950 . S
H298 C294 0.950 1_655 S
C299 C297 1.390 . S
C299 C300 1.387 . S
C299 H302 0.950 . S
C300 C299 1.387 . S
C300 C303 1.387 . S
H301 C297 0.950 . S
H302 C299 0.950 . S
C303 C294 1.390 . S
C303 H296 0.950 1_455 S
C303 C300 1.387 . S
C304 C305 1.387 . S
C304 H308 0.950 . S
C304 C313 1.390 . S
C305 C304 1.387 . S
C305 C307 1.387 1_545 S
H306 C313 0.950 . S
C307 C305 1.387 1_565 S
C307 C309 1.390 1_565 S
C307 H311 0.950 . S
H308 C304 0.950 . S
C309 C307 1.390 1_545 S
C309 C310 1.387 . S
C309 H312 0.950 1_545 S
C310 C309 1.387 . S
C310 C313 1.387 . S
H311 C307 0.950 . S
H312 C309 0.950 1_565 S
C313 C304 1.390 . S
C313 H306 0.950 . S
C313 C310 1.387 . S
C314 C315 1.387 . S
C314 H318 0.950 . S
C314 C323 1.390 . S
C315 C314 1.387 . S
C315 C317 1.387 . S
H316 C323 0.950 . S
C317 C315 1.387 . S
C317 C319 1.390 . S
C317 H321 0.950 . S
H318 C314 0.950 . S
C319 C317 1.390 . S
C319 C320 1.387 . S
C319 H322 0.950 . S
C320 C319 1.387 . S
C320 C323 1.387 . S
H321 C317 0.950 . S
H322 C319 0.950 . S
C323 C314 1.390 . S
C323 H316 0.950 . S
C323 C320 1.387 . S
C324 C325 1.387 . S
C324 H328 0.950 1_655 S
C324 C333 1.390 . S
C325 C324 1.387 . S
C325 C327 1.387 . S
H326 C333 0.950 . S
C327 C325 1.387 . S
C327 C329 1.390 . S
C327 H331 0.950 1_545 S
H328 C324 0.950 1_455 S
C329 C327 1.390 . S
C329 C330 1.387 . S
C329 H332 0.950 1_545 S
C330 C329 1.387 . S
C330 C333 1.387 . S
H331 C327 0.950 1_565 S
H332 C329 0.950 1_565 S
C333 C324 1.390 . S
C333 H326 0.950 . S
C333 C330 1.387 . S
C334 C335 1.387 . S
C334 H338 0.950 1_565 S
C334 C343 1.390 1_554 S
C335 C334 1.387 . S
C335 C337 1.387 . S
H336 C343 0.950 . S
C337 C335 1.387 . S
C337 C339 1.390 1_554 S
C337 H341 0.950 . S
H338 C334 0.950 1_545 S
C339 C337 1.390 1_556 S
C339 C340 1.387 . S
C339 H342 0.950 . S
C340 C339 1.387 . S
C340 C343 1.387 . S
H341 C337 0.950 . S
H342 C339 0.950 . S
C343 C334 1.390 1_556 S
C343 H336 0.950 . S
C343 C340 1.387 . S
C344 C345 1.387 . S
C344 H348 0.950 . S
C344 C353 1.390 . S
C345 C344 1.387 . S
C345 C347 1.387 . S
H346 C353 0.950 1_655 S
C347 C345 1.387 . S
C347 C349 1.390 . S
C347 H351 0.950 . S
H348 C344 0.950 . S
C349 C347 1.390 . S
C349 C350 1.387 . S
C349 H352 0.950 . S
C350 C349 1.387 . S
C350 C353 1.387 . S
H351 C347 0.950 . S
H352 C349 0.950 . S
C353 C344 1.390 . S
C353 H346 0.950 1_455 S
C353 C350 1.387 . S
C354 C355 1.387 . S
C354 H358 0.950 . S
C354 C363 1.390 . S
C355 C354 1.387 . S
C355 C357 1.387 . S
H356 C363 0.950 . S
C357 C355 1.387 . S
C357 C359 1.390 . S
C357 H361 0.950 . S
H358 C354 0.950 . S
C359 C357 1.390 . S
C359 C360 1.387 . S
C359 H362 0.950 1_545 S
C360 C359 1.387 . S
C360 C363 1.387 . S
H361 C357 0.950 . S
H362 C359 0.950 1_565 S
C363 C354 1.390 . S
C363 H356 0.950 . S
C363 C360 1.387 . S
C364 C365 1.387 . S
C364 H368 0.950 . S
C364 C373 1.390 . S
C365 C364 1.387 . S
C365 C367 1.387 . S
H366 C373 0.950 . S
C367 C365 1.387 . S
C367 C369 1.390 . S
C367 H371 0.950 . S
H368 C364 0.950 . S
C369 C367 1.390 . S
C369 C370 1.387 . S
C369 H372 0.950 . S
C370 C369 1.387 . S
C370 C373 1.387 . S
H371 C367 0.950 . S
H372 C369 0.950 . S
C373 C364 1.390 . S
C373 H366 0.950 . S
C373 C370 1.387 . S
C374 C375 1.387 . S
C374 H378 0.950 . S
C374 C383 1.390 . S
C375 C374 1.387 . S
C375 C377 1.387 . S
H376 C383 0.950 . S
C377 C375 1.387 . S
C377 C379 1.390 . S
C377 H381 0.950 . S
H378 C374 0.950 . S
C379 C377 1.390 . S
C379 C380 1.387 . S
C379 H382 0.950 . S
C380 C379 1.387 . S
C380 C383 1.387 . S
H381 C377 0.950 . S
H382 C379 0.950 . S
C383 C374 1.390 . S
C383 H376 0.950 . S
C383 C380 1.387 . S
C270 C81 1.507 . S
C265 C6 1.648 . S
C275 C22 1.683 . S
C280 C155 1.535 . S
C285 C34 1.863 . S
C290 C259 1.888 . S
C295 C7 0.942 . S
C300 C93 0.947 . S
C310 C167 1.073 . S
C305 C23 1.095 . S
C315 C35 1.453 . S
C320 C253 1.374 . S
C330 C185 2.088 . S
C325 C36 2.098 1_655 S
C335 C9 1.865 1_655 S
C340 C229 1.715 . S
C350 C105 1.576 . S
C345 C21 1.692 . S
C360 C179 1.598 . S
C355 C37 1.764 . S
C370 C241 1.164 1_554 S
C365 C8 1.183 . S
C375 C20 2.087 . S
C380 C111 2.120 . S
