# Generated by pormake.
# Topology bwt, (3,3)-cn, num edge types: 1
# Building blocks:
#     Node 0, Type 0, BuildingBlock: WUSLED_clean_sbu_0, # of connection points: 3
#     Node 1, Type 0, BuildingBlock: WUSLED_clean_sbu_0, # of connection points: 3
#     Node 2, Type 0, BuildingBlock: WUSLED_clean_sbu_0, # of connection points: 3
#     Node 3, Type 0, BuildingBlock: WUSLED_clean_sbu_0, # of connection points: 3
#     Node 4, Type 0, BuildingBlock: WUSLED_clean_sbu_0, # of connection points: 3
#     Node 5, Type 0, BuildingBlock: WUSLED_clean_sbu_0, # of connection points: 3
#     Node 6, Type 0, BuildingBlock: WUSLED_clean_sbu_0, # of connection points: 3
#     Node 7, Type 0, BuildingBlock: WUSLED_clean_sbu_0, # of connection points: 3
#     Node 8, Type 0, BuildingBlock: WUSLED_clean_sbu_0, # of connection points: 3
#     Node 9, Type 0, BuildingBlock: WUSLED_clean_sbu_0, # of connection points: 3
#     Node 10, Type 0, BuildingBlock: WUSLED_clean_sbu_0, # of connection points: 3
#     Node 11, Type 0, BuildingBlock: WUSLED_clean_sbu_0, # of connection points: 3
#     Node 12, Type 0, BuildingBlock: WUSLED_clean_sbu_0, # of connection points: 3
#     Node 13, Type 0, BuildingBlock: WUSLED_clean_sbu_0, # of connection points: 3
#     Node 14, Type 0, BuildingBlock: WUSLED_clean_sbu_0, # of connection points: 3
#     Node 15, Type 0, BuildingBlock: WUSLED_clean_sbu_0, # of connection points: 3
#     Node 16, Type 0, BuildingBlock: WUSLED_clean_sbu_0, # of connection points: 3
#     Node 17, Type 0, BuildingBlock: WUSLED_clean_sbu_0, # of connection points: 3
#     Node 18, Type 0, BuildingBlock: WUSLED_clean_sbu_0, # of connection points: 3
#     Node 19, Type 0, BuildingBlock: WUSLED_clean_sbu_0, # of connection points: 3
#     Node 20, Type 0, BuildingBlock: WUSLED_clean_sbu_0, # of connection points: 3
#     Node 21, Type 0, BuildingBlock: WUSLED_clean_sbu_0, # of connection points: 3
#     Node 22, Type 0, BuildingBlock: WUSLED_clean_sbu_0, # of connection points: 3
#     Node 23, Type 0, BuildingBlock: WUSLED_clean_sbu_0, # of connection points: 3
#     Node 24, Type 1, BuildingBlock: BELTOD_clean_linker_0, # of connection points: 3
#     Node 25, Type 1, BuildingBlock: BELTOD_clean_linker_0, # of connection points: 3
#     Node 26, Type 1, BuildingBlock: BELTOD_clean_linker_0, # of connection points: 3
#     Node 27, Type 1, BuildingBlock: BELTOD_clean_linker_0, # of connection points: 3
#     Node 28, Type 1, BuildingBlock: BELTOD_clean_linker_0, # of connection points: 3
#     Node 29, Type 1, BuildingBlock: BELTOD_clean_linker_0, # of connection points: 3
#     Node 30, Type 1, BuildingBlock: BELTOD_clean_linker_0, # of connection points: 3
#     Node 31, Type 1, BuildingBlock: BELTOD_clean_linker_0, # of connection points: 3
#     Node 32, Type 1, BuildingBlock: BELTOD_clean_linker_0, # of connection points: 3
#     Node 33, Type 1, BuildingBlock: BELTOD_clean_linker_0, # of connection points: 3
#     Node 34, Type 1, BuildingBlock: BELTOD_clean_linker_0, # of connection points: 3
#     Node 35, Type 1, BuildingBlock: BELTOD_clean_linker_0, # of connection points: 3
#     Node 36, Type 1, BuildingBlock: BELTOD_clean_linker_0, # of connection points: 3
#     Node 37, Type 1, BuildingBlock: BELTOD_clean_linker_0, # of connection points: 3
#     Node 38, Type 1, BuildingBlock: BELTOD_clean_linker_0, # of connection points: 3
#     Node 39, Type 1, BuildingBlock: BELTOD_clean_linker_0, # of connection points: 3
#     Node 40, Type 1, BuildingBlock: BELTOD_clean_linker_0, # of connection points: 3
#     Node 41, Type 1, BuildingBlock: BELTOD_clean_linker_0, # of connection points: 3
#     Node 42, Type 1, BuildingBlock: BELTOD_clean_linker_0, # of connection points: 3
#     Node 43, Type 1, BuildingBlock: BELTOD_clean_linker_0, # of connection points: 3
#     Node 44, Type 1, BuildingBlock: BELTOD_clean_linker_0, # of connection points: 3
#     Node 45, Type 1, BuildingBlock: BELTOD_clean_linker_0, # of connection points: 3
#     Node 46, Type 1, BuildingBlock: BELTOD_clean_linker_0, # of connection points: 3
#     Node 47, Type 1, BuildingBlock: BELTOD_clean_linker_0, # of connection points: 3
#     Edge 48, Type (0, 1), BuildingBlock: ZUJKAS_clean_linker_0, # of connection points: 2
#     Edge 49, Type (0, 1), BuildingBlock: ZUJKAS_clean_linker_0, # of connection points: 2
#     Edge 50, Type (0, 1), BuildingBlock: ZUJKAS_clean_linker_0, # of connection points: 2
#     Edge 51, Type (0, 1), BuildingBlock: ZUJKAS_clean_linker_0, # of connection points: 2
#     Edge 52, Type (0, 1), BuildingBlock: ZUJKAS_clean_linker_0, # of connection points: 2
#     Edge 53, Type (0, 1), BuildingBlock: ZUJKAS_clean_linker_0, # of connection points: 2
#     Edge 54, Type (0, 1), BuildingBlock: ZUJKAS_clean_linker_0, # of connection points: 2
#     Edge 55, Type (0, 1), BuildingBlock: ZUJKAS_clean_linker_0, # of connection points: 2
#     Edge 56, Type (0, 1), BuildingBlock: ZUJKAS_clean_linker_0, # of connection points: 2
#     Edge 57, Type (0, 1), BuildingBlock: ZUJKAS_clean_linker_0, # of connection points: 2
#     Edge 58, Type (0, 1), BuildingBlock: ZUJKAS_clean_linker_0, # of connection points: 2
#     Edge 59, Type (0, 1), BuildingBlock: ZUJKAS_clean_linker_0, # of connection points: 2
#     Edge 60, Type (0, 1), BuildingBlock: ZUJKAS_clean_linker_0, # of connection points: 2
#     Edge 61, Type (0, 1), BuildingBlock: ZUJKAS_clean_linker_0, # of connection points: 2
#     Edge 62, Type (0, 1), BuildingBlock: ZUJKAS_clean_linker_0, # of connection points: 2
#     Edge 63, Type (0, 1), BuildingBlock: ZUJKAS_clean_linker_0, # of connection points: 2
#     Edge 64, Type (0, 1), BuildingBlock: ZUJKAS_clean_linker_0, # of connection points: 2
#     Edge 65, Type (0, 1), BuildingBlock: ZUJKAS_clean_linker_0, # of connection points: 2
#     Edge 66, Type (0, 1), BuildingBlock: ZUJKAS_clean_linker_0, # of connection points: 2
#     Edge 67, Type (0, 1), BuildingBlock: ZUJKAS_clean_linker_0, # of connection points: 2
#     Edge 68, Type (0, 1), BuildingBlock: ZUJKAS_clean_linker_0, # of connection points: 2
#     Edge 69, Type (0, 1), BuildingBlock: ZUJKAS_clean_linker_0, # of connection points: 2
#     Edge 70, Type (0, 1), BuildingBlock: ZUJKAS_clean_linker_0, # of connection points: 2
#     Edge 71, Type (0, 1), BuildingBlock: ZUJKAS_clean_linker_0, # of connection points: 2
#     Edge 72, Type (0, 1), BuildingBlock: ZUJKAS_clean_linker_0, # of connection points: 2
#     Edge 73, Type (0, 1), BuildingBlock: ZUJKAS_clean_linker_0, # of connection points: 2
#     Edge 74, Type (0, 1), BuildingBlock: ZUJKAS_clean_linker_0, # of connection points: 2
#     Edge 75, Type (0, 1), BuildingBlock: ZUJKAS_clean_linker_0, # of connection points: 2
#     Edge 76, Type (0, 1), BuildingBlock: ZUJKAS_clean_linker_0, # of connection points: 2
#     Edge 77, Type (0, 1), BuildingBlock: ZUJKAS_clean_linker_0, # of connection points: 2
#     Edge 78, Type (0, 1), BuildingBlock: ZUJKAS_clean_linker_0, # of connection points: 2
#     Edge 79, Type (0, 1), BuildingBlock: ZUJKAS_clean_linker_0, # of connection points: 2
#     Edge 80, Type (0, 1), BuildingBlock: ZUJKAS_clean_linker_0, # of connection points: 2
#     Edge 81, Type (0, 1), BuildingBlock: ZUJKAS_clean_linker_0, # of connection points: 2
#     Edge 82, Type (0, 1), BuildingBlock: ZUJKAS_clean_linker_0, # of connection points: 2
#     Edge 83, Type (0, 1), BuildingBlock: ZUJKAS_clean_linker_0, # of connection points: 2
#     Edge 84, Type (0, 1), BuildingBlock: ZUJKAS_clean_linker_0, # of connection points: 2
#     Edge 85, Type (0, 1), BuildingBlock: ZUJKAS_clean_linker_0, # of connection points: 2
#     Edge 86, Type (0, 1), BuildingBlock: ZUJKAS_clean_linker_0, # of connection points: 2
#     Edge 87, Type (0, 1), BuildingBlock: ZUJKAS_clean_linker_0, # of connection points: 2
#     Edge 88, Type (0, 1), BuildingBlock: ZUJKAS_clean_linker_0, # of connection points: 2
#     Edge 89, Type (0, 1), BuildingBlock: ZUJKAS_clean_linker_0, # of connection points: 2
#     Edge 90, Type (0, 1), BuildingBlock: ZUJKAS_clean_linker_0, # of connection points: 2
#     Edge 91, Type (0, 1), BuildingBlock: ZUJKAS_clean_linker_0, # of connection points: 2
#     Edge 92, Type (0, 1), BuildingBlock: ZUJKAS_clean_linker_0, # of connection points: 2
#     Edge 93, Type (0, 1), BuildingBlock: ZUJKAS_clean_linker_0, # of connection points: 2
#     Edge 94, Type (0, 1), BuildingBlock: ZUJKAS_clean_linker_0, # of connection points: 2
#     Edge 95, Type (0, 1), BuildingBlock: ZUJKAS_clean_linker_0, # of connection points: 2
#     Edge 96, Type (0, 1), BuildingBlock: ZUJKAS_clean_linker_0, # of connection points: 2
#     Edge 97, Type (0, 1), BuildingBlock: ZUJKAS_clean_linker_0, # of connection points: 2
#     Edge 98, Type (0, 1), BuildingBlock: ZUJKAS_clean_linker_0, # of connection points: 2
#     Edge 99, Type (0, 1), BuildingBlock: ZUJKAS_clean_linker_0, # of connection points: 2
#     Edge 100, Type (0, 1), BuildingBlock: ZUJKAS_clean_linker_0, # of connection points: 2
#     Edge 101, Type (0, 1), BuildingBlock: ZUJKAS_clean_linker_0, # of connection points: 2
#     Edge 102, Type (0, 1), BuildingBlock: ZUJKAS_clean_linker_0, # of connection points: 2
#     Edge 103, Type (0, 1), BuildingBlock: ZUJKAS_clean_linker_0, # of connection points: 2
#     Edge 104, Type (0, 1), BuildingBlock: ZUJKAS_clean_linker_0, # of connection points: 2
#     Edge 105, Type (0, 1), BuildingBlock: ZUJKAS_clean_linker_0, # of connection points: 2
#     Edge 106, Type (0, 1), BuildingBlock: ZUJKAS_clean_linker_0, # of connection points: 2
#     Edge 107, Type (0, 1), BuildingBlock: ZUJKAS_clean_linker_0, # of connection points: 2
#     Edge 108, Type (0, 1), BuildingBlock: ZUJKAS_clean_linker_0, # of connection points: 2
#     Edge 109, Type (0, 1), BuildingBlock: ZUJKAS_clean_linker_0, # of connection points: 2
#     Edge 110, Type (0, 1), BuildingBlock: ZUJKAS_clean_linker_0, # of connection points: 2
#     Edge 111, Type (0, 1), BuildingBlock: ZUJKAS_clean_linker_0, # of connection points: 2
#     Edge 112, Type (0, 1), BuildingBlock: ZUJKAS_clean_linker_0, # of connection points: 2
#     Edge 113, Type (0, 1), BuildingBlock: ZUJKAS_clean_linker_0, # of connection points: 2
#     Edge 114, Type (0, 1), BuildingBlock: ZUJKAS_clean_linker_0, # of connection points: 2
#     Edge 115, Type (0, 1), BuildingBlock: ZUJKAS_clean_linker_0, # of connection points: 2
#     Edge 116, Type (0, 1), BuildingBlock: ZUJKAS_clean_linker_0, # of connection points: 2
#     Edge 117, Type (0, 1), BuildingBlock: ZUJKAS_clean_linker_0, # of connection points: 2
#     Edge 118, Type (0, 1), BuildingBlock: ZUJKAS_clean_linker_0, # of connection points: 2
#     Edge 119, Type (0, 1), BuildingBlock: ZUJKAS_clean_linker_0, # of connection points: 2
# Relax obj value: 0.217
# Max RMSD: 0.252
# Mean RMSD: 0.134
data_MOF--net-bwt--node1-WUSLED_clean_sbu_0--node2-BELTOD_clean_linker_0--edge1-ZUJKAS_clean_linker_0
_symmetry_space_group_name_H-M    P1
_symmetry_Int_Tables_number       1
_symmetry_cell_setting            triclinic
loop_
_symmetry_equiv_pos_as_xyz
'x, y, z'
_cell_length_a     91.301191
_cell_length_b     91.289929
_cell_length_c     91.322953
_cell_angle_alpha  91.312546
_cell_angle_beta   91.330778
_cell_angle_gamma 91.327431
loop_
_atom_site_label
_atom_site_type_symbol
_atom_site_fract_x
_atom_site_fract_y
_atom_site_fract_z
_atom_type_partial_charge
C0 C 0.30069 0.66182 0.35511 0.0
C1 C 0.30962 0.65206 0.36269 0.0
C2 C 0.3305 0.6588 0.34781 0.0
C3 C 0.32433 0.65053 0.35905 0.0
C4 C 0.32157 0.6688 0.34045 0.0
C5 C 0.3068 0.67026 0.34405 0.0
U6 U 0.27016 0.6563 0.38193 0.0
O7 O 0.25119 0.66955 0.38776 0.0
O8 O 0.24772 0.64701 0.37924 0.0
C9 C 0.24161 0.65916 0.38373 0.0
C10 C 0.28502 0.6631 0.35865 0.0
C11 C 0.22808 0.66348 0.37583 0.0
C12 C 0.21393 0.68027 0.36101 0.0
C13 C 0.2274 0.67597 0.36714 0.0
C14 C 0.20177 0.65959 0.37203 0.0
C15 C 0.20087 0.6722 0.36349 0.0
C16 C 0.21517 0.6553 0.37806 0.0
C17 C 0.28349 0.63969 0.41878 0.0
C18 C 0.26987 0.62602 0.43681 0.0
C19 C 0.29524 0.6332 0.44179 0.0
C20 C 0.29576 0.64003 0.42828 0.0
C21 C 0.28239 0.62586 0.44611 0.0
C22 C 0.27043 0.63285 0.4232 0.0
C23 C 0.28515 0.64559 0.404 0.0
O24 O 0.27777 0.6506 0.35989 0.0
O25 O 0.28214 0.67269 0.36909 0.0
O26 O 0.28305 0.65967 0.40253 0.0
O27 O 0.27964 0.63751 0.39303 0.0
H28 H 0.30519 0.64555 0.37139 0.0
H29 H 0.33092 0.64292 0.36512 0.0
H30 H 0.3259 0.67528 0.33168 0.0
H31 H 0.30013 0.67789 0.3381 0.0
H32 H 0.21375 0.68994 0.35437 0.0
H33 H 0.2372 0.68251 0.36526 0.0
H34 H 0.19203 0.65321 0.37449 0.0
H35 H 0.21538 0.64572 0.38485 0.0
H36 H 0.25983 0.62043 0.4398 0.0
H37 H 0.30498 0.63352 0.4488 0.0
H38 H 0.30593 0.64528 0.42508 0.0
H39 H 0.26082 0.63246 0.416 0.0
C40 C 0.20679 0.27254 0.77129 0.0
C41 C 0.19613 0.27489 0.78187 0.0
C42 C 0.17677 0.27281 0.76303 0.0
C43 C 0.18125 0.27498 0.77779 0.0
C44 C 0.18751 0.2701 0.75254 0.0
C45 C 0.20237 0.26998 0.75665 0.0
U46 U 0.23665 0.28402 0.79885 0.0
O47 O 0.25822 0.27491 0.80434 0.0
O48 O 0.2567 0.29737 0.79641 0.0
C49 C 0.26535 0.28686 0.80053 0.0
C50 C 0.2225 0.27389 0.77527 0.0
C51 C 0.27853 0.28496 0.7918 0.0
C52 C 0.29051 0.28118 0.76856 0.0
C53 C 0.27773 0.28124 0.77681 0.0
C54 C 0.30491 0.28819 0.79032 0.0
C55 C 0.30425 0.28492 0.77517 0.0
C56 C 0.2922 0.28817 0.79851 0.0
C57 C 0.22519 0.30086 0.83523 0.0
C58 C 0.2432 0.31097 0.85296 0.0
C59 C 0.21757 0.31685 0.85507 0.0
C60 C 0.21412 0.30801 0.84273 0.0
C61 C 0.23218 0.31867 0.86014 0.0
C62 C 0.23974 0.30219 0.84052 0.0
C63 C 0.22156 0.29333 0.82119 0.0
O64 O 0.22752 0.28746 0.77675 0.0
O65 O 0.22712 0.26541 0.78579 0.0
O66 O 0.22588 0.27974 0.81973 0.0
O67 O 0.2241 0.30122 0.80964 0.0
H68 H 0.19934 0.27704 0.79323 0.0
H69 H 0.17332 0.27727 0.78612 0.0
H70 H 0.18443 0.26821 0.74112 0.0
H71 H 0.21045 0.2682 0.74832 0.0
H72 H 0.28959 0.27842 0.75698 0.0
H73 H 0.26723 0.27875 0.77145 0.0
H74 H 0.31517 0.2914 0.7958 0.0
H75 H 0.293 0.29119 0.81006 0.0
H76 H 0.25455 0.31224 0.85656 0.0
H77 H 0.20883 0.3225 0.8605 0.0
H78 H 0.20285 0.30714 0.83876 0.0
H79 H 0.24845 0.29683 0.83476 0.0
C80 C 0.78906 0.99464 0.61437 0.0
C81 C 0.80065 0.98916 0.60623 0.0
C82 C 0.81807 0.99843 0.62485 0.0
C83 C 0.81504 0.99096 0.61147 0.0
C84 C 0.80646 0.00412 0.63288 0.0
C85 C 0.79201 0.00219 0.62768 0.0
U86 U 0.76355 0.98908 0.58193 0.0
O87 O 0.74378 0.97528 0.57813 0.0
O88 O 0.74255 0.99919 0.57645 0.0
C89 C 0.73528 0.9866 0.57667 0.0
C90 C 0.774 0.99302 0.60864 0.0
C91 C 0.72246 0.98639 0.58594 0.0
C92 C 0.71194 0.98552 0.61003 0.0
C93 C 0.72419 0.98673 0.60124 0.0
C94 C 0.69618 0.98403 0.58827 0.0
C95 C 0.69783 0.984 0.60362 0.0
C96 C 0.70843 0.9852 0.57949 0.0
C97 C 0.77638 0.98626 0.54402 0.0
C98 C 0.75693 0.97983 0.52631 0.0
C99 C 0.77638 0.99688 0.51994 0.0
C100 C 0.78306 0.99517 0.5337 0.0
C101 C 0.76292 0.9897 0.51638 0.0
C102 C 0.76356 0.97818 0.54003 0.0
C103 C 0.78076 0.98783 0.55954 0.0
O104 O 0.76966 0.00388 0.60052 0.0
O105 O 0.77049 0.98 0.60295 0.0
O106 O 0.77789 0.9764 0.56762 0.0
O107 O 0.77681 1.00028 0.56561 0.0
H108 H 0.79858 0.98355 0.59577 0.0
H109 H 0.82382 0.98671 0.60496 0.0
H110 H 0.80855 0.00991 0.64323 0.0
H111 H 0.78317 0.00662 0.63399 0.0
H112 H 0.71351 0.98572 0.62183 0.0
H113 H 0.73501 0.98768 0.60635 0.0
H114 H 0.68545 0.98272 0.58302 0.0
H115 H 0.70698 0.98489 0.56768 0.0
H116 H 0.74651 0.97426 0.52395 0.0
H117 H 0.78133 0.0044 0.51238 0.0
H118 H 0.79287 0.00159 0.53663 0.0
H119 H 0.75803 0.97141 0.54789 0.0
C120 C 0.68089 0.97289 0.30456 0.0
C121 C 0.67523 0.98186 0.29363 0.0
C122 C 0.65134 0.98108 0.30486 0.0
C123 C 0.66058 0.98588 0.29374 0.0
C124 C 0.65701 0.97188 0.31566 0.0
C125 C 0.67168 0.96784 0.3155 0.0
U126 U 0.71793 0.98134 0.29001 0.0
O127 O 0.73873 0.98666 0.3016 0.0
O128 O 0.7375 0.96818 0.28527 0.0
C129 C 0.74558 0.97617 0.29471 0.0
C130 C 0.69664 0.97013 0.30524 0.0
C131 C 0.7612 0.97353 0.29788 0.0
C132 C 0.78288 0.97784 0.31351 0.0
C133 C 0.76781 0.97894 0.31101 0.0
C134 C 0.78499 0.96544 0.28996 0.0
C135 C 0.7917 0.97129 0.30292 0.0
C136 C 0.76987 0.96654 0.28748 0.0
C137 C 0.71815 0.00805 0.25834 0.0
C138 C 0.73527 0.00781 0.23843 0.0
C139 C 0.71529 0.02485 0.23845 0.0
C140 C 0.71088 0.0197 0.25194 0.0
C141 C 0.72693 0.01827 0.23115 0.0
C142 C 0.73089 0.00272 0.252 0.0
C143 C 0.71082 0.99996 0.26984 0.0
O144 O 0.70196 0.96338 0.29373 0.0
O145 O 0.70462 0.98157 0.30964 0.0
O146 O 0.71397 0.00406 0.28345 0.0
O147 O 0.71027 0.98567 0.26773 0.0
H148 H 0.68223 0.98598 0.28515 0.0
H149 H 0.65651 0.99277 0.28513 0.0
H150 H 0.65021 0.9681 0.32444 0.0
H151 H 0.67587 0.96106 0.32411 0.0
H152 H 0.78763 0.98218 0.32373 0.0
H153 H 0.76134 0.98416 0.31931 0.0
H154 H 0.79148 0.96043 0.28151 0.0
H155 H 0.76505 0.96235 0.27722 0.0
H156 H 0.7443 0.00257 0.23308 0.0
H157 H 0.70886 0.03314 0.23317 0.0
H158 H 0.7011 0.02401 0.25678 0.0
H159 H 0.73671 0.99378 0.25692 0.0
C160 C 0.35432 0.30042 0.66016 0.0
C161 C 0.3648 0.3106 0.6553 0.0
C162 C 0.34722 0.33031 0.65713 0.0
C163 C 0.3613 0.32536 0.65382 0.0
C164 C 0.33681 0.32005 0.66214 0.0
C165 C 0.34033 0.30527 0.66362 0.0
U166 U 0.38128 0.27028 0.65396 0.0
O167 O 0.38806 0.2516 0.66718 0.0
O168 O 0.37873 0.24769 0.64501 0.0
C169 C 0.38412 0.24185 0.65694 0.0
C170 C 0.3579 0.28476 0.66127 0.0
C171 C 0.37732 0.22793 0.66165 0.0
C172 C 0.35917 0.21365 0.67482 0.0
C173 C 0.36468 0.22727 0.67014 0.0
C174 C 0.37877 0.20138 0.66246 0.0
C175 C 0.3663 0.20054 0.67119 0.0
C176 C 0.38418 0.21488 0.65779 0.0
C177 C 0.41753 0.28399 0.63676 0.0
C178 C 0.43787 0.2692 0.62888 0.0
C179 C 0.43903 0.29557 0.62646 0.0
C180 C 0.42518 0.29659 0.63251 0.0
C181 C 0.4456 0.28189 0.62456 0.0
C182 C 0.42393 0.27025 0.63495 0.0
C183 C 0.40282 0.28566 0.64273 0.0
O184 O 0.35902 0.27767 0.64867 0.0
O185 O 0.36854 0.28187 0.67064 0.0
O186 O 0.40157 0.28367 0.65686 0.0
O187 O 0.39187 0.2798 0.63487 0.0
H188 H 0.37568 0.3071 0.65259 0.0
H189 H 0.36968 0.33293 0.65014 0.0
H190 H 0.32582 0.32338 0.66464 0.0
H191 H 0.33207 0.29758 0.66733 0.0
H192 H 0.34957 0.21343 0.68155 0.0
H193 H 0.35921 0.23723 0.67326 0.0
H194 H 0.38438 0.19156 0.65919 0.0
H195 H 0.39391 0.21513 0.65121 0.0
H196 H 0.44263 0.2585 0.62767 0.0
H197 H 0.44448 0.30554 0.62302 0.0
H198 H 0.42037 0.30728 0.63374 0.0
H199 H 0.41815 0.26039 0.63818 0.0
C200 C 0.29143 0.69147 0.97567 0.0
C201 C 0.28841 0.68726 0.99002 0.0
C202 C 0.29042 0.66155 0.98272 0.0
C203 C 0.28784 0.67239 0.99351 0.0
C204 C 0.29259 0.66584 0.96823 0.0
C205 C 0.29305 0.68065 0.96475 0.0
U206 U 0.29412 0.73427 0.98032 0.0
O207 O 0.31511 0.74663 0.98089 0.0
O208 O 0.29911 0.74982 0.96301 0.0
C209 C 0.3113 0.75458 0.96968 0.0
C210 C 0.296 0.70657 0.97239 0.0
C211 C 0.313 0.7706 0.97205 0.0
C212 C 0.32805 0.79167 0.9803 0.0
C213 C 0.32627 0.77655 0.97785 0.0
C214 C 0.30332 0.79516 0.97109 0.0
C215 C 0.3166 0.80116 0.97691 0.0
C216 C 0.30152 0.78005 0.96874 0.0
C217 C 0.26369 0.73527 0.00834 0.0
C218 C 0.24314 0.73875 0.02422 0.0
C219 C 0.2441 0.71695 0.00862 0.0
C220 C 0.25771 0.72165 0.0036 0.0
C221 C 0.23637 0.72582 0.01845 0.0
C222 C 0.25671 0.74346 0.01915 0.0
C223 C 0.27565 0.74213 1.0004 0.0
O224 O 0.28658 0.7153 0.96613 0.0
O225 O 0.30427 0.71317 0.98252 0.0
O226 O 0.28894 0.7378 0.00358 0.0
O227 O 0.27301 0.74324 0.98627 0.0
H228 H 0.28731 0.69546 0.99867 0.0
H229 H 0.28618 0.66942 0.00477 0.0
H230 H 0.29438 0.65774 0.95964 0.0
H231 H 0.29555 0.68367 0.95366 0.0
H232 H 0.33836 0.7959 0.98494 0.0
H233 H 0.33527 0.76948 0.98054 0.0
H234 H 0.29436 0.80214 0.9681 0.0
H235 H 0.29113 0.77584 0.96426 0.0
H236 H 0.23756 0.74565 0.03201 0.0
H237 H 0.23918 0.70696 0.00392 0.0
H238 H 0.26303 0.7152 0.99525 0.0
H239 H 0.26129 0.75397 0.02296 0.0
C240 C 0.77335 0.20735 0.27146 0.0
C241 C 0.78458 0.19754 0.27446 0.0
C242 C 0.76715 0.17692 0.27233 0.0
C243 C 0.78152 0.18248 0.27487 0.0
C244 C 0.75604 0.18677 0.26876 0.0
C245 C 0.75912 0.20186 0.26837 0.0
U246 U 0.79919 0.23849 0.28287 0.0
O247 O 0.80337 0.26051 0.2742 0.0
O248 O 0.79597 0.25804 0.29676 0.0
C249 C 0.79956 0.26714 0.28642 0.0
C250 C 0.77621 0.22326 0.27291 0.0
C251 C 0.79045 0.28012 0.2851 0.0
C252 C 0.767 0.29174 0.28133 0.0
C253 C 0.7755 0.27911 0.28119 0.0
C254 C 0.78841 0.30636 0.28905 0.0
C255 C 0.77334 0.30551 0.28544 0.0
C256 C 0.79684 0.29381 0.28884 0.0
C257 C 0.83664 0.22921 0.29842 0.0
C258 C 0.85076 0.24651 0.31401 0.0
C259 C 0.86113 0.22328 0.30692 0.0
C260 C 0.84835 0.21958 0.29879 0.0
C261 C 0.86236 0.23665 0.31493 0.0
C262 C 0.83804 0.24284 0.30579 0.0
C263 C 0.82268 0.22459 0.29121 0.0
O264 O 0.77767 0.22814 0.28653 0.0
O265 O 0.78624 0.22868 0.26431 0.0
O266 O 0.82056 0.22904 0.27776 0.0
O267 O 0.81114 0.22609 0.2994 0.0
H268 H 0.79564 0.20159 0.27692 0.0
H269 H 0.79037 0.1752 0.27745 0.0
H270 H 0.74484 0.18289 0.26689 0.0
H271 H 0.75029 0.20929 0.26614 0.0
H272 H 0.75547 0.29069 0.27836 0.0
H273 H 0.77039 0.26858 0.27831 0.0
H274 H 0.79365 0.31664 0.29257 0.0
H275 H 0.80835 0.29476 0.29201 0.0
H276 H 0.8512 0.25681 0.32013 0.0
H277 H 0.86995 0.21555 0.30714 0.0
H278 H 0.84748 0.20905 0.29308 0.0
H279 H 0.8291 0.25044 0.30559 0.0
C280 C 0.61379 0.78809 0.9969 0.0
C281 C 0.60527 0.79957 0.99177 0.0
C282 C 0.62448 0.81712 0.99933 0.0
C283 C 0.61061 0.81397 0.9929 0.0
C284 C 0.6329 0.80562 0.00467 0.0
C285 C 0.62759 0.79115 0.00341 0.0
U286 U 0.5813 0.76242 0.99246 0.0
O287 O 0.5774 0.74265 0.9787 0.0
O288 O 0.57621 0.74136 0.00263 0.0
C289 C 0.57628 0.73411 0.99002 0.0
C290 C 0.60805 0.77301 0.99577 0.0
C291 C 0.58575 0.72145 0.98954 0.0
C292 C 0.61008 0.71139 0.98946 0.0
C293 C 0.60098 0.72333 0.9913 0.0
C294 C 0.58874 0.69558 0.98445 0.0
C295 C 0.60406 0.69743 0.98581 0.0
C296 C 0.57966 0.70753 0.98629 0.0
C297 C 0.54336 0.77506 0.98928 0.0
C298 C 0.52567 0.7555 0.98337 0.0
C299 C 0.51805 0.77745 0.99626 0.0
C300 C 0.53234 0.78327 0.99572 0.0
C301 C 0.51468 0.76332 0.99043 0.0
C302 C 0.53985 0.7613 0.98283 0.0
C303 C 0.55882 0.77954 0.99116 0.0
O304 O 0.6001 0.76892 0.00685 0.0
O305 O 0.60213 0.76924 0.98292 0.0
O306 O 0.56697 0.77673 0.97979 0.0
O307 O 0.5648 0.77551 0.00362 0.0
H308 H 0.59447 0.7974 0.98692 0.0
H309 H 0.6038 0.82268 0.98895 0.0
H310 H 0.64363 0.8078 0.00967 0.0
H311 H 0.63421 0.78238 0.00752 0.0
H312 H 0.62182 0.7131 0.99076 0.0
H313 H 0.60581 0.73408 0.99378 0.0
H314 H 0.58379 0.685 0.98146 0.0
H315 H 0.56791 0.70597 0.9848 0.0
H316 H 0.52357 0.74449 0.97902 0.0
H317 H 0.50977 0.78378 0.00165 0.0
H318 H 0.53492 0.79384 0.00089 0.0
H319 H 0.54826 0.75465 0.97804 0.0
C320 C 0.66091 0.35519 0.30136 0.0
C321 C 0.65183 0.36331 0.31054 0.0
C322 C 0.65802 0.34787 0.33115 0.0
C323 C 0.65036 0.35966 0.32525 0.0
C324 C 0.66734 0.33994 0.32196 0.0
C325 C 0.66874 0.34356 0.3072 0.0
U326 U 0.65466 0.3819 0.27093 0.0
O327 O 0.66777 0.3882 0.25202 0.0
O328 O 0.6455 0.37897 0.24847 0.0
C329 C 0.65757 0.38374 0.2424 0.0
C330 C 0.66209 0.35876 0.28572 0.0
C331 C 0.66224 0.37571 0.22907 0.0
C332 C 0.68038 0.36275 0.21483 0.0
C333 C 0.67583 0.36884 0.2282 0.0
C334 C 0.65775 0.37007 0.20313 0.0
C335 C 0.67147 0.36344 0.20204 0.0
C336 C 0.65323 0.3761 0.21644 0.0
C337 C 0.63713 0.4182 0.2842 0.0
C338 C 0.6303 0.43899 0.26951 0.0
C339 C 0.62562 0.43917 0.29552 0.0
C340 C 0.63168 0.42534 0.29659 0.0
C341 C 0.62488 0.44624 0.282 0.0
C342 C 0.63641 0.42506 0.27061 0.0
C343 C 0.64331 0.40359 0.28596 0.0
O344 O 0.64954 0.35971 0.2785 0.0
O345 O 0.6714 0.36946 0.28285 0.0
O346 O 0.65743 0.40247 0.28387 0.0
O347 O 0.6355 0.39249 0.28032 0.0
H348 H 0.64579 0.37243 0.30629 0.0
H349 H 0.64328 0.36615 0.33204 0.0
H350 H 0.67331 0.33073 0.32609 0.0
H351 H 0.67583 0.33718 0.30031 0.0
H352 H 0.69093 0.35759 0.21449 0.0
H353 H 0.68304 0.3684 0.23776 0.0
H354 H 0.65066 0.3711 0.19356 0.0
H355 H 0.64278 0.38148 0.21677 0.0
H356 H 0.62999 0.44415 0.25896 0.0
H357 H 0.6213 0.44423 0.3053 0.0
H358 H 0.63207 0.42015 0.30714 0.0
H359 H 0.64056 0.41968 0.26091 0.0
C360 C 0.97523 0.29192 0.69043 0.0
C361 C 0.98987 0.29057 0.68628 0.0
C362 C 0.9823 0.29052 0.6605 0.0
C363 C 0.99338 0.28992 0.67144 0.0
C364 C 0.96759 0.29084 0.66478 0.0
C365 C 0.96412 0.2916 0.67959 0.0
U366 U 0.9791 0.29496 0.73316 0.0
O367 O 0.97905 0.31597 0.74538 0.0
O368 O 0.96167 0.29948 0.74873 0.0
C369 C 0.96786 0.31198 0.75325 0.0
C370 C 0.9715 0.29665 0.70537 0.0
C371 C 0.97036 0.31354 0.76912 0.0
C372 C 0.96673 0.3268 0.792 0.0
C373 C 0.96435 0.32527 0.77686 0.0
C374 C 0.98132 0.30494 0.79171 0.0
C375 C 0.97517 0.3166 0.79961 0.0
C376 C 0.97895 0.30344 0.77658 0.0
C377 C 0.00786 0.26529 0.73412 0.0
C378 C 0.02495 0.24569 0.73735 0.0
C379 C 0.00832 0.24533 0.71624 0.0
C380 C 0.00287 0.25878 0.72083 0.0
C381 C 0.01887 0.23828 0.72489 0.0
C382 C 0.01941 0.2591 0.74197 0.0
C383 C 0.99959 0.27695 0.74108 0.0
O384 O 0.96522 0.2872 0.71406 0.0
O385 O 0.98135 0.30517 0.71211 0.0
O386 O 0.00246 0.29035 0.73691 0.0
O387 O 0.9855 0.27397 0.74211 0.0
H388 H 0.99866 0.29087 0.69447 0.0
H389 H 0.00482 0.28974 0.66858 0.0
H390 H 0.95875 0.29096 0.65669 0.0
H391 H 0.95277 0.29275 0.68255 0.0
H392 H 0.96171 0.3358 0.79778 0.0
H393 H 0.95776 0.33319 0.77121 0.0
H394 H 0.98803 0.29702 0.79721 0.0
H395 H 0.98381 0.2944 0.77069 0.0
H396 H 0.03332 0.24068 0.74404 0.0
H397 H 0.00338 0.23992 0.70661 0.0
H398 H 0.99399 0.26353 0.7146 0.0
H399 H 0.02346 0.26411 0.7522 0.0
C400 C 0.27118 0.77105 0.20476 0.0
C401 C 0.27696 0.7809 0.1947 0.0
C402 C 0.27106 0.7636 0.17455 0.0
C403 C 0.27691 0.77721 0.17974 0.0
C404 C 0.26488 0.75398 0.18469 0.0
C405 C 0.26497 0.75767 0.19966 0.0
U406 U 0.28192 0.79763 0.23569 0.0
O407 O 0.27251 0.802 0.2574 0.0
O408 O 0.29524 0.79481 0.25564 0.0
C409 C 0.28452 0.79812 0.26439 0.0
C410 C 0.27241 0.77437 0.2206 0.0
C411 C 0.28281 0.78889 0.27731 0.0
C412 C 0.28772 0.7665 0.29036 0.0
C413 C 0.28692 0.77414 0.27723 0.0
C414 C 0.27949 0.78796 0.30358 0.0
C415 C 0.28447 0.7735 0.30375 0.0
C416 C 0.2787 0.79557 0.2905 0.0
C417 C 0.29754 0.83502 0.22596 0.0
C418 C 0.30621 0.8525 0.24487 0.0
C419 C 0.31289 0.85585 0.21961 0.0
C420 C 0.30477 0.84322 0.21545 0.0
C421 C 0.31391 0.86054 0.23441 0.0
C422 C 0.29813 0.83981 0.24068 0.0
C423 C 0.29058 0.82088 0.2216 0.0
O424 O 0.28592 0.77601 0.22573 0.0
O425 O 0.26364 0.78448 0.22558 0.0
O426 O 0.27699 0.81874 0.22569 0.0
O427 O 0.29885 0.80952 0.22372 0.0
H428 H 0.28184 0.79128 0.19846 0.0
H429 H 0.28192 0.78483 0.17232 0.0
H430 H 0.26008 0.74352 0.18107 0.0
H431 H 0.26043 0.74996 0.20728 0.0
H432 H 0.29163 0.75539 0.29011 0.0
H433 H 0.29014 0.76875 0.26716 0.0
H434 H 0.27663 0.79358 0.31366 0.0
H435 H 0.27549 0.80693 0.29081 0.0
H436 H 0.3066 0.85589 0.25631 0.0
H437 H 0.31885 0.86158 0.21129 0.0
H438 H 0.30453 0.83959 0.20406 0.0
H439 H 0.29267 0.83354 0.24897 0.0
C440 C 0.99797 0.61396 0.7892 0.0
C441 C 0.99423 0.60497 0.80085 0.0
C442 C 0.00138 0.62449 0.81821 0.0
C443 C 0.99585 0.61022 0.81524 0.0
C444 C 0.00544 0.63336 0.80653 0.0
C445 C 0.00369 0.62812 0.79207 0.0
U446 U 0.99189 0.58188 0.76326 0.0
O447 O 0.97715 0.57844 0.74411 0.0
O448 O 0.00095 0.57699 0.74164 0.0
C449 C 0.98802 0.57726 0.73502 0.0
C450 C 0.99596 0.60845 0.77411 0.0
C451 C 0.98705 0.58674 0.72239 0.0
C452 C 0.98776 0.61099 0.71209 0.0
C453 C 0.98972 0.60188 0.72403 0.0
C454 C 0.98063 0.58981 0.69681 0.0
C455 C 0.98304 0.60505 0.69839 0.0
C456 C 0.98262 0.58073 0.70873 0.0
C457 C 0.98955 0.54361 0.77533 0.0
C458 C 0.98113 0.52626 0.75627 0.0
C459 C 0.99997 0.51943 0.77378 0.0
C460 C 0.99904 0.53311 0.78087 0.0
C461 C 0.99148 0.51618 0.76103 0.0
C462 C 0.98021 0.53988 0.7633 0.0
C463 C 0.99147 0.55907 0.77997 0.0
O464 O 0.00673 0.60048 0.76928 0.0
O465 O 0.9829 0.60267 0.771 0.0
O466 O 0.97997 0.56727 0.77794 0.0
O467 O 0.00371 0.56519 0.77552 0.0
H468 H 0.98998 0.59391 0.79879 0.0
H469 H 0.99287 0.60309 0.82407 0.0
H470 H 0.0097 0.64441 0.80856 0.0
H471 H 0.00671 0.63513 0.78316 0.0
H472 H 0.98987 0.62265 0.7136 0.0
H473 H 0.99311 0.60666 0.73457 0.0
H474 H 0.97679 0.58493 0.68645 0.0
H475 H 0.98042 0.56906 0.70737 0.0
H476 H 0.97429 0.52392 0.7466 0.0
H477 H 0.00807 0.51184 0.77764 0.0
H478 H 0.00644 0.53585 0.79002 0.0
H479 H 0.97288 0.54781 0.7587 0.0
C480 C 0.69741 0.3419 0.64611 0.0
C481 C 0.68816 0.35156 0.63879 0.0
C482 C 0.66748 0.3436 0.65335 0.0
C483 C 0.67338 0.35244 0.64239 0.0
C484 C 0.67676 0.33372 0.66045 0.0
C485 C 0.69157 0.3329 0.65686 0.0
U486 U 0.72774 0.34939 0.61963 0.0
O487 O 0.75 0.35882 0.62276 0.0
O488 O 0.74689 0.33671 0.613 0.0
C489 C 0.7563 0.34702 0.61761 0.0
C490 C 0.71309 0.34124 0.64258 0.0
C491 C 0.76967 0.34228 0.62542 0.0
C492 C 0.78491 0.34012 0.6475 0.0
C493 C 0.77143 0.3434 0.64073 0.0
C494 C 0.79484 0.3343 0.62378 0.0
C495 C 0.79687 0.33569 0.63908 0.0
C496 C 0.78142 0.33754 0.61707 0.0
C497 C 0.715 0.36654 0.58315 0.0
C498 C 0.72781 0.38272 0.56665 0.0
C499 C 0.7056 0.36975 0.55834 0.0
C500 C 0.70456 0.36325 0.572 0.0
C501 C 0.71708 0.37977 0.55556 0.0
C502 C 0.72678 0.37615 0.58032 0.0
C503 C 0.71274 0.36047 0.59779 0.0
O504 O 0.71625 0.33216 0.63179 0.0
O505 O 0.71997 0.35401 0.64184 0.0
O506 O 0.7179 0.36832 0.60908 0.0
O507 O 0.71482 0.34635 0.59904 0.0
H508 H 0.69242 0.35856 0.63038 0.0
H509 H 0.66667 0.36029 0.6368 0.0
H510 H 0.67256 0.32657 0.66875 0.0
H511 H 0.69848 0.32526 0.66253 0.0
H512 H 0.78597 0.34114 0.65931 0.0
H513 H 0.76251 0.34705 0.64742 0.0
H514 H 0.80378 0.3312 0.61686 0.0
H515 H 0.78035 0.33672 0.60523 0.0
H516 H 0.73674 0.39045 0.56493 0.0
H517 H 0.69732 0.36698 0.54999 0.0
H518 H 0.69542 0.35582 0.57393 0.0
H519 H 0.735 0.37885 0.58876 0.0
C520 C 0.79188 0.73282 0.22813 0.0
C521 C 0.8026 0.73114 0.21749 0.0
C522 C 0.82194 0.7354 0.23609 0.0
C523 C 0.81749 0.73245 0.22142 0.0
C524 C 0.81108 0.73728 0.24664 0.0
C525 C 0.7962 0.736 0.24269 0.0
U526 U 0.76223 0.72015 0.20072 0.0
O527 O 0.743 0.70564 0.20318 0.0
O528 O 0.74003 0.72821 0.19595 0.0
C529 C 0.73367 0.71585 0.19979 0.0
C530 C 0.77625 0.7304 0.22432 0.0
C531 C 0.72058 0.71693 0.20891 0.0
C532 C 0.7072 0.71073 0.23076 0.0
C533 C 0.72042 0.71182 0.2233 0.0
C534 C 0.69434 0.72064 0.20986 0.0
C535 C 0.69393 0.71473 0.22395 0.0
C536 C 0.70751 0.72168 0.20243 0.0
C537 C 0.77331 0.70557 0.16342 0.0
C538 C 0.75722 0.68934 0.14863 0.0
C539 C 0.78051 0.69753 0.13917 0.0
C540 C 0.78337 0.70574 0.15208 0.0
C541 C 0.76756 0.68892 0.13743 0.0
C542 C 0.76005 0.69763 0.16147 0.0
C543 C 0.77716 0.71273 0.17761 0.0
O544 O 0.77083 0.73889 0.21418 0.0
O545 O 0.7722 0.71657 0.22244 0.0
O546 O 0.77558 0.7043 0.18896 0.0
O547 O 0.77211 0.72596 0.17974 0.0
H548 H 0.79944 0.72861 0.20619 0.0
H549 H 0.82552 0.7311 0.21298 0.0
H550 H 0.81406 0.73932 0.25806 0.0
H551 H 0.78808 0.73719 0.25106 0.0
H552 H 0.7073 0.70607 0.24155 0.0
H553 H 0.73036 0.70809 0.22857 0.0
H554 H 0.68438 0.72408 0.2044 0.0
H555 H 0.70739 0.72568 0.19134 0.0
H556 H 0.74722 0.68273 0.14781 0.0
H557 H 0.78859 0.69769 0.13067 0.0
H558 H 0.79364 0.71188 0.15339 0.0
H559 H 0.75212 0.69739 0.17012 0.0
C560 C 0.20491 0.99597 0.40449 0.0
C561 C 0.19365 0.99376 0.41445 0.0
C562 C 0.17561 0.9926 0.39434 0.0
C563 C 0.1791 0.99207 0.40941 0.0
C564 C 0.18701 0.99476 0.38444 0.0
C565 C 0.20152 0.99643 0.38949 0.0
U566 U 0.23436 0.99828 0.4349 0.0
O567 O 0.25649 0.9893 0.43548 0.0
O568 O 0.25364 0.01307 0.4375 0.0
C569 C 0.2629 0.00235 0.43621 0.0
C570 C 0.22023 0.99784 0.40954 0.0
C571 C 0.27465 0.00476 0.42582 0.0
C572 C 0.28336 0.00601 0.40096 0.0
C573 C 0.27195 0.00364 0.41066 0.0
C574 C 0.30017 0.01072 0.42157 0.0
C575 C 0.29762 0.00954 0.40633 0.0
C576 C 0.28878 0.00834 0.43122 0.0
C577 C 0.2267 0.99463 0.47465 0.0
C578 C 0.24768 0.99546 0.4915 0.0
C579 C 0.22312 0.99299 0.50082 0.0
C580 C 0.21733 0.99328 0.4865 0.0
C581 C 0.23838 0.99399 0.50346 0.0
C582 C 0.24189 0.99579 0.47724 0.0
C583 C 0.22081 0.99481 0.45957 0.0
O584 O 0.22333 0.00996 0.41715 0.0
O585 O 0.22614 0.98618 0.41518 0.0
O586 O 0.22476 0.98376 0.45118 0.0
O587 O 0.22205 0.00753 0.45321 0.0
H588 H 0.19612 0.9934 0.4261 0.0
H589 H 0.17057 0.99056 0.41732 0.0
H590 H 0.18474 0.99497 0.37276 0.0
H591 H 0.21011 0.99806 0.38166 0.0
H592 H 0.28107 0.00487 0.3893 0.0
H593 H 0.26105 0.00089 0.40634 0.0
H594 H 0.31096 0.01365 0.42605 0.0
H595 H 0.291 0.00932 0.44291 0.0
H596 H 0.25945 0.99648 0.49317 0.0
H597 H 0.21569 0.99173 0.5098 0.0
H598 H 0.20558 0.99237 0.48467 0.0
H599 H 0.24928 0.99692 0.4682 0.0
C600 C 0.31524 0.04025 0.65445 0.0
C601 C 0.32394 0.05029 0.6629 0.0
C602 C 0.34506 0.03461 0.66044 0.0
C603 C 0.33865 0.04741 0.66599 0.0
C604 C 0.33668 0.02547 0.65068 0.0
C605 C 0.32195 0.02824 0.64777 0.0
U606 U 0.27561 0.03837 0.66809 0.0
O607 O 0.25667 0.05203 0.66298 0.0
O608 O 0.2569 0.02908 0.65529 0.0
C609 C 0.24923 0.04099 0.6567 0.0
C610 C 0.29925 0.04193 0.65252 0.0
C611 C 0.23437 0.03838 0.66189 0.0
C612 C 0.20839 0.03541 0.65638 0.0
C613 C 0.2225 0.03915 0.65201 0.0
C614 C 0.21789 0.03017 0.68068 0.0
C615 C 0.20595 0.03077 0.67072 0.0
C616 C 0.23203 0.03397 0.67629 0.0
C617 C 0.27955 0.02623 0.71072 0.0
C618 C 0.27308 0.01002 0.73046 0.0
C619 C 0.29041 0.03018 0.73509 0.0
C620 C 0.28878 0.03437 0.72053 0.0
C621 C 0.28249 0.01804 0.74022 0.0
C622 C 0.27178 0.01396 0.71577 0.0
C623 C 0.27807 0.03055 0.69531 0.0
O624 O 0.29316 0.05274 0.65976 0.0
O625 O 0.29148 0.02966 0.65272 0.0
O626 O 0.27843 0.04437 0.69155 0.0
O627 O 0.27647 0.02091 0.68444 0.0
H628 H 0.31925 0.06001 0.66772 0.0
H629 H 0.34473 0.05489 0.6733 0.0
H630 H 0.34137 0.01595 0.64549 0.0
H631 H 0.31568 0.02075 0.64056 0.0
H632 H 0.19944 0.03575 0.64841 0.0
H633 H 0.22419 0.04233 0.6408 0.0
H634 H 0.21631 0.02675 0.69182 0.0
H635 H 0.24116 0.0332 0.68401 0.0
H636 H 0.26688 1.0006 0.73417 0.0
H637 H 0.29762 0.03663 0.74244 0.0
H638 H 0.29481 0.04393 0.71693 0.0
H639 H 0.26458 0.00753 0.70839 0.0
C640 C 0.64896 0.69975 0.34376 0.0
C641 C 0.63761 0.68913 0.34429 0.0
C642 C 0.65542 0.6696 0.34527 0.0
C643 C 0.6408 0.67423 0.34497 0.0
C644 C 0.66673 0.68033 0.34466 0.0
C645 C 0.66352 0.69523 0.3439 0.0
U646 U 0.62264 0.73 0.3519 0.0
O647 O 0.62581 0.75169 0.36274 0.0
O648 O 0.61683 0.74999 0.34023 0.0
C649 C 0.6212 0.75874 0.35119 0.0
C650 C 0.6457 0.71552 0.34381 0.0
C651 C 0.62961 0.7721 0.3475 0.0
C652 C 0.65018 0.7848 0.33639 0.0
C653 C 0.64273 0.77169 0.33978 0.0
C654 C 0.63149 0.79871 0.34848 0.0
C655 C 0.64457 0.7985 0.34063 0.0
C656 C 0.62413 0.78568 0.35185 0.0
C657 C 0.58583 0.71626 0.36786 0.0
C658 C 0.56319 0.72944 0.37082 0.0
C659 C 0.56636 0.70613 0.3825 0.0
C660 C 0.58032 0.70518 0.37669 0.0
C661 C 0.55755 0.7182 0.37956 0.0
C662 C 0.57724 0.72847 0.365 0.0
C663 C 0.60047 0.71451 0.36172 0.0
O664 O 0.63531 0.7194 0.33457 0.0
O665 O 0.64458 0.72164 0.35689 0.0
O666 O 0.61159 0.71922 0.37007 0.0
O667 O 0.60193 0.7176 0.34783 0.0
H668 H 0.62627 0.69239 0.34429 0.0
H669 H 0.63178 0.66633 0.34523 0.0
H670 H 0.67812 0.67727 0.34511 0.0
H671 H 0.67244 0.70326 0.34365 0.0
H672 H 0.66018 0.78423 0.33028 0.0
H673 H 0.64715 0.76129 0.33633 0.0
H674 H 0.62699 0.80898 0.35219 0.0
H675 H 0.61407 0.78623 0.35788 0.0
H676 H 0.55666 0.73885 0.36829 0.0
H677 H 0.56253 0.69743 0.38942 0.0
H678 H 0.58684 0.69571 0.37909 0.0
H679 H 0.58133 0.73717 0.35821 0.0
C680 C 0.65417 0.31434 0.03854 0.0
C681 C 0.66369 0.32266 0.04786 0.0
C682 C 0.65975 0.34432 0.03321 0.0
C683 C 0.66645 0.3375 0.04526 0.0
C684 C 0.64929 0.33615 0.02468 0.0
C685 C 0.6465 0.32139 0.0274 0.0
U686 U 0.66747 0.27462 0.03638 0.0
O687 O 0.65484 0.25619 0.02624 0.0
O688 O 0.66156 0.25551 0.04946 0.0
C689 C 0.65581 0.24827 0.03801 0.0
C690 C 0.65208 0.29835 0.03996 0.0
C691 C 0.66123 0.23352 0.03528 0.0
C692 C 0.65621 0.20838 0.02736 0.0
C693 C 0.65122 0.2222 0.03132 0.0
C694 C 0.68133 0.21701 0.03152 0.0
C695 C 0.67131 0.20566 0.02734 0.0
C696 C 0.67632 0.23089 0.03537 0.0
C697 C 0.71062 0.2781 0.02579 0.0
C698 C 0.73027 0.27398 0.00873 0.0
C699 C 0.7356 0.28605 0.03218 0.0
C700 C 0.72084 0.28467 0.03576 0.0
C701 C 0.74053 0.28068 0.01864 0.0
C702 C 0.71545 0.27276 0.01224 0.0
C703 C 0.69501 0.27682 0.02956 0.0
O704 O 0.65903 0.29203 0.05082 0.0
O705 O 0.65241 0.29077 0.02758 0.0
O706 O 0.69076 0.27676 0.04323 0.0
O707 O 0.68442 0.2759 0.01954 0.0
H708 H 0.66918 0.31767 0.05699 0.0
H709 H 0.67401 0.34349 0.05261 0.0
H710 H 0.6437 0.34084 0.01541 0.0
H711 H 0.63864 0.31531 0.02049 0.0
H712 H 0.64825 0.19977 0.0244 0.0
H713 H 0.63955 0.22413 0.03106 0.0
H714 H 0.69301 0.21522 0.03151 0.0
H715 H 0.6842 0.23962 0.03816 0.0
H716 H 0.73371 0.2695 0.99831 0.0
H717 H 0.74314 0.29144 0.04001 0.0
H718 H 0.71742 0.28888 0.04629 0.0
H719 H 0.70779 0.26757 0.00439 0.0
C720 C 0.22962 0.793 0.73208 0.0
C721 C 0.21967 0.80329 0.7269 0.0
C722 C 0.23665 0.82328 0.73415 0.0
C723 C 0.22317 0.81829 0.72788 0.0
C724 C 0.24639 0.81293 0.73973 0.0
C725 C 0.24291 0.79791 0.73866 0.0
U726 U 0.20309 0.76241 0.72031 0.0
O727 O 0.20567 0.74327 0.70572 0.0
O728 O 0.19922 0.74009 0.72848 0.0
C729 C 0.20288 0.73384 0.71602 0.0
C730 C 0.22647 0.7772 0.72995 0.0
C731 C 0.21258 0.72116 0.71684 0.0
C732 C 0.23555 0.70936 0.71151 0.0
C733 C 0.22727 0.72205 0.71262 0.0
C734 C 0.2148 0.69486 0.7195 0.0
C735 C 0.22931 0.69555 0.71463 0.0
C736 C 0.20654 0.70753 0.72057 0.0
C737 C 0.16508 0.77315 0.70685 0.0
C738 C 0.14924 0.75628 0.69252 0.0
C739 C 0.1416 0.78113 0.69741 0.0
C740 C 0.15458 0.784 0.70548 0.0
C741 C 0.13895 0.76735 0.69051 0.0
C742 C 0.1622 0.75916 0.70063 0.0
C743 C 0.17948 0.77692 0.71356 0.0
O744 O 0.21676 0.7715 0.73873 0.0
O745 O 0.22444 0.7729 0.71621 0.0
O746 O 0.19053 0.7754 0.70475 0.0
O747 O 0.18206 0.77179 0.72668 0.0
H748 H 0.20932 0.79969 0.72182 0.0
H749 H 0.21536 0.82597 0.72364 0.0
H750 H 0.25692 0.81639 0.74448 0.0
H751 H 0.25073 0.79012 0.74268 0.0
H752 H 0.24675 0.71031 0.70794 0.0
H753 H 0.2322 0.73247 0.70974 0.0
H754 H 0.20958 0.68443 0.72184 0.0
H755 H 0.19521 0.70659 0.72377 0.0
H756 H 0.14763 0.7456 0.68724 0.0
H757 H 0.1338 0.78982 0.69625 0.0
H758 H 0.15664 0.79485 0.71026 0.0
H759 H 0.17024 0.75066 0.70155 0.0
C760 C 0.40649 0.20702 0.99686 0.0
C761 C 0.4166 0.19567 0.99686 0.0
C762 C 0.39684 0.17776 0.99169 0.0
C763 C 0.41181 0.18114 0.99434 0.0
C764 C 0.38679 0.18922 0.99175 0.0
C765 C 0.39159 0.2037 0.99432 0.0
U766 U 0.43608 0.23741 0.99973 0.0
O767 O 0.43565 0.25985 0.99159 0.0
O768 O 0.4382 0.25623 0.01519 0.0
C769 C 0.43621 0.2658 0.00485 0.0
C770 C 0.41122 0.22236 0.99935 0.0
C771 C 0.42525 0.27693 0.00784 0.0
C772 C 0.40026 0.28547 0.00648 0.0
C773 C 0.41043 0.27454 0.00385 0.0
C774 C 0.41959 0.3011 0.01738 0.0
C775 C 0.40476 0.29889 0.01323 0.0
C776 C 0.42974 0.29021 0.01468 0.0
C777 C 0.47611 0.23079 0.99435 0.0
C778 C 0.49285 0.25171 0.99263 0.0
C779 C 0.5024 0.22728 0.99468 0.0
C780 C 0.48808 0.22149 0.99513 0.0
C781 C 0.50496 0.24247 0.99341 0.0
C782 C 0.47858 0.24593 0.99316 0.0
C783 C 0.46107 0.22479 0.99496 0.0
O784 O 0.41911 0.22516 0.01137 0.0
O785 O 0.41629 0.229 0.98783 0.0
O786 O 0.45218 0.2289 0.98438 0.0
O787 O 0.45519 0.22553 0.00795 0.0
H788 H 0.42818 0.19808 0.99873 0.0
H789 H 0.41982 0.17257 0.99423 0.0
H790 H 0.37518 0.18697 0.98994 0.0
H791 H 0.38364 0.21234 0.99431 0.0
H792 H 0.38889 0.28341 0.00328 0.0
H793 H 0.40676 0.26427 0.99864 0.0
H794 H 0.42342 0.31138 0.02243 0.0
H795 H 0.44114 0.29222 0.01783 0.0
H796 H 0.49437 0.26342 0.99143 0.0
H797 H 0.51145 0.21986 0.99551 0.0
H798 H 0.48635 0.20978 0.99616 0.0
H799 H 0.46945 0.25329 0.99259 0.0
C800 C 0.33843 0.64504 0.69679 0.0
C801 C 0.3426 0.63463 0.68622 0.0
C802 C 0.34082 0.65278 0.66709 0.0
C803 C 0.34375 0.63845 0.67152 0.0
C804 C 0.33639 0.66309 0.67773 0.0
C805 C 0.33521 0.65924 0.69243 0.0
U806 U 0.34757 0.61842 0.72646 0.0
O807 O 0.35757 0.62162 0.74846 0.0
O808 O 0.33573 0.6111 0.74591 0.0
C809 C 0.34614 0.61602 0.75505 0.0
C810 C 0.33819 0.6413 0.71242 0.0
C811 C 0.34154 0.62362 0.7686 0.0
C812 C 0.33988 0.64546 0.78428 0.0
C813 C 0.34272 0.63892 0.77059 0.0
C814 C 0.33424 0.62156 0.79393 0.0
C815 C 0.33591 0.6368 0.79621 0.0
C816 C 0.33703 0.61507 0.7803 0.0
C817 C 0.36623 0.58322 0.71275 0.0
C818 C 0.37287 0.56252 0.72763 0.0
C819 C 0.38033 0.56348 0.70237 0.0
C820 C 0.37341 0.57686 0.7009 0.0
C821 C 0.38023 0.55616 0.71576 0.0
C822 C 0.36596 0.57599 0.72615 0.0
C823 C 0.35929 0.59743 0.71077 0.0
O824 O 0.32962 0.6301 0.71562 0.0
O825 O 0.35116 0.64092 0.71893 0.0
O826 O 0.36675 0.60895 0.71598 0.0
O827 O 0.34521 0.59791 0.71339 0.0
H828 H 0.34523 0.62362 0.68939 0.0
H829 H 0.34736 0.63027 0.66371 0.0
H830 H 0.33387 0.67417 0.67469 0.0
H831 H 0.33199 0.66743 0.70043 0.0
H832 H 0.34132 0.65722 0.78567 0.0
H833 H 0.34622 0.64575 0.76172 0.0
H834 H 0.33095 0.61458 0.80276 0.0
H835 H 0.33605 0.60325 0.77901 0.0
H836 H 0.37269 0.55722 0.73811 0.0
H837 H 0.38567 0.55879 0.69295 0.0
H838 H 0.37368 0.58227 0.69047 0.0
H839 H 0.36049 0.58079 0.73544 0.0
C840 C 0.03902 0.65913 0.31443 0.0
C841 C 0.04907 0.66602 0.32437 0.0
C842 C 0.03168 0.66346 0.34407 0.0
C843 C 0.04538 0.66823 0.33902 0.0
C844 C 0.02228 0.65534 0.33439 0.0
C845 C 0.02594 0.65317 0.31978 0.0
U846 U 0.04102 0.67007 0.27335 0.0
O847 O 0.03352 0.65483 0.25571 0.0
O848 O 0.05639 0.66276 0.25658 0.0
C849 C 0.04595 0.65581 0.24884 0.0
C850 C 0.04231 0.65708 0.29875 0.0
C851 C 0.04415 0.66009 0.23356 0.0
C852 C 0.03741 0.65318 0.2085 0.0
C853 C 0.04158 0.64926 0.22265 0.0
C854 C 0.03885 0.67886 0.21592 0.0
C855 C 0.03575 0.668 0.20507 0.0
C856 C 0.04293 0.67492 0.2301 0.0
C857 C 0.02788 0.7113 0.27689 0.0
C858 C 0.01138 0.73177 0.27504 0.0
C859 C 0.03289 0.73388 0.29101 0.0
C860 C 0.03677 0.71966 0.28683 0.0
C861 C 0.02028 0.74023 0.28493 0.0
C862 C 0.01512 0.71748 0.27111 0.0
C863 C 0.03262 0.69722 0.27051 0.0
O864 O 0.05349 0.66445 0.29343 0.0
O865 O 0.03086 0.6564 0.28978 0.0
O866 O 0.04639 0.69361 0.27244 0.0
O867 O 0.02337 0.68595 0.27035 0.0
H868 H 0.05959 0.6701 0.32076 0.0
H869 H 0.05307 0.67414 0.34623 0.0
H870 H 0.01202 0.65071 0.33807 0.0
H871 H 0.01847 0.64684 0.31263 0.0
H872 H 0.03525 0.64461 0.20028 0.0
H873 H 0.04229 0.63776 0.22521 0.0
H874 H 0.03754 0.69035 0.21359 0.0
H875 H 0.04459 0.68342 0.2385 0.0
H876 H 0.0018 0.73637 0.26986 0.0
H877 H 0.03998 0.74002 0.29871 0.0
H878 H 0.04698 0.71545 0.29102 0.0
H879 H 0.00828 0.71142 0.26312 0.0
C880 C 0.73217 0.22894 0.79397 0.0
C881 C 0.73289 0.21807 0.80459 0.0
C882 C 0.73355 0.23682 0.82406 0.0
C883 C 0.73366 0.22199 0.81953 0.0
C884 C 0.73319 0.24764 0.81334 0.0
C885 C 0.73251 0.24373 0.79845 0.0
U886 U 0.72083 0.20149 0.76356 0.0
O887 O 0.70593 0.20386 0.74465 0.0
O888 O 0.72887 0.19831 0.74108 0.0
C889 C 0.71623 0.20176 0.73506 0.0
C890 C 0.72993 0.22511 0.77833 0.0
C891 C 0.71657 0.21187 0.72264 0.0
C892 C 0.70758 0.23338 0.71035 0.0
C893 C 0.70917 0.2252 0.72304 0.0
C894 C 0.72151 0.21554 0.69688 0.0
C895 C 0.71341 0.22846 0.69704 0.0
C896 C 0.72301 0.2073 0.70955 0.0
C897 C 0.70773 0.16329 0.77296 0.0
C898 C 0.69495 0.14815 0.75433 0.0
C899 C 0.69583 0.14038 0.77953 0.0
C900 C 0.70421 0.15294 0.78349 0.0
C901 C 0.69076 0.13807 0.76498 0.0
C902 C 0.70335 0.16067 0.7583 0.0
C903 C 0.71446 0.17746 0.77755 0.0
O904 O 0.73891 0.21552 0.77273 0.0
O905 O 0.71619 0.22263 0.77425 0.0
O906 O 0.70558 0.18852 0.77654 0.0
O907 O 0.72756 0.18037 0.7725 0.0
H908 H 0.73248 0.20658 0.80134 0.0
H909 H 0.7338 0.21341 0.82753 0.0
H910 H 0.73327 0.25916 0.81647 0.0
H911 H 0.73192 0.25226 0.79041 0.0
H912 H 0.70146 0.2434 0.71087 0.0
H913 H 0.70414 0.22905 0.73299 0.0
H914 H 0.72605 0.2114 0.68679 0.0
H915 H 0.72869 0.19702 0.70895 0.0
H916 H 0.69138 0.14658 0.743 0.0
H917 H 0.69269 0.1329 0.788 0.0
H918 H 0.70744 0.15486 0.79488 0.0
H919 H 0.70596 0.16858 0.75003 0.0
C920 C 0.99633 0.40456 0.20769 0.0
C921 C 0.99356 0.41467 0.19667 0.0
C922 C 0.99346 0.39499 0.17818 0.0
C923 C 0.99211 0.40991 0.18202 0.0
C924 C 0.99625 0.38495 0.18933 0.0
C925 C 0.99767 0.38972 0.20394 0.0
U926 U 0.99689 0.43436 0.23769 0.0
O927 O 0.98747 0.43404 0.25966 0.0
O928 O 0.01119 0.43729 0.25726 0.0
C929 C 1.00039 0.43512 0.26629 0.0
C930 C 0.99779 0.4093 0.22312 0.0
C931 C 0.00306 0.4244 0.27774 0.0
C932 C 0.01184 0.40086 0.2856 0.0
C933 C 0.00917 0.41079 0.27446 0.0
C934 C 0.00202 0.41797 0.30332 0.0
C935 C 0.0083 0.40436 0.30016 0.0
C936 C 0.99945 0.4279 0.2922 0.0
C937 C 0.99155 0.47414 0.22961 0.0
C938 C 0.99192 0.49178 0.24992 0.0
C939 C 0.98891 0.50003 0.22501 0.0
C940 C 0.98967 0.48554 0.21979 0.0
C941 C 0.99006 0.50331 0.24014 0.0
C942 C 0.99266 0.47732 0.24469 0.0
C943 C 0.99249 0.45894 0.22417 0.0
O944 O 0.00953 0.41737 0.22657 0.0
O945 O 0.9858 0.41427 0.22896 0.0
O946 O 0.98177 0.45013 0.22812 0.0
O947 O 0.00549 0.4532 0.22572 0.0
H948 H 0.99252 0.4262 0.19942 0.0
H949 H 0.99009 0.41792 0.17369 0.0
H950 H 0.9971 0.37336 0.18678 0.0
H951 H 0.99975 0.38178 0.21234 0.0
H952 H 0.01653 0.3904 0.28282 0.0
H953 H 0.01192 0.40786 0.2633 0.0
H954 H 0.99932 0.42104 0.31445 0.0
H955 H 0.99472 0.43837 0.29491 0.0
H956 H 0.99264 0.4939 0.26163 0.0
H957 H 0.98764 0.50868 0.2172 0.0
H958 H 0.98885 0.48325 0.2081 0.0
H959 H 0.9941 0.46861 0.25242 0.0
P960 P 0.31405 0.5331 0.62676 0.0
H961 H 0.32501 0.55013 0.65247 0.0
H962 H 0.31319 0.56752 0.66868 0.0
H963 H 0.27096 0.55424 0.64979 0.0
H964 H 0.28301 0.53708 0.63324 0.0
H965 H 0.33541 0.51153 0.61843 0.0
H966 H 0.33731 0.48535 0.62203 0.0
H967 H 0.29483 0.48463 0.64199 0.0
H968 H 0.29329 0.51117 0.63878 0.0
H969 H 0.30208 0.56091 0.61787 0.0
H970 H 0.31027 0.51893 0.59742 0.0
O971 O 0.33148 0.53908 0.62717 0.0
H972 H 0.29435 0.5704 0.59434 0.0
H973 H 0.3026 0.52849 0.57361 0.0
C974 C 0.30491 0.54243 0.64151 0.0
C975 C 0.31318 0.55069 0.65201 0.0
C976 C 0.30636 0.56064 0.66136 0.0
C977 C 0.29112 0.56249 0.66041 0.0
C978 C 0.28276 0.55333 0.65062 0.0
C979 C 0.2896 0.54337 0.64126 0.0
C980 C 0.31432 0.51339 0.62853 0.0
C981 C 0.32647 0.50577 0.62359 0.0
C982 C 0.32748 0.49069 0.62554 0.0
C983 C 0.31624 0.48274 0.63234 0.0
C984 C 0.30383 0.49038 0.63694 0.0
C985 C 0.30287 0.50557 0.63502 0.0
C986 C 0.30634 0.53904 0.60955 0.0
C987 C 0.30183 0.55357 0.60839 0.0
C988 C 0.29742 0.55903 0.59487 0.0
C989 C 0.29773 0.55019 0.58209 0.0
C990 C 0.30223 0.53559 0.58325 0.0
C991 C 0.30652 0.53007 0.59688 0.0
P992 P 0.27662 0.45694 0.01316 0.0
H993 H 0.28614 0.44044 0.03873 0.0
H994 H 0.30436 0.42145 0.04135 0.0
H995 H 0.32027 0.43092 0.99832 0.0
H996 H 0.3019 0.44977 0.99569 0.0
H997 H 0.25709 0.48099 0.00865 0.0
H998 H 0.26107 0.50715 0.00508 0.0
H999 H 0.30787 0.50085 0.00503 0.0
H1000 H 0.30377 0.4748 0.00934 0.0
H1001 H 0.25815 0.43071 0.01192 0.0
H1002 H 0.27741 0.46026 0.98123 0.0
O1003 O 0.26555 0.45635 0.02743 0.0
H1004 H 0.25124 0.41361 0.99185 0.0
H1005 H 0.27058 0.44312 0.96103 0.0
C1006 C 0.29273 0.44659 0.01705 0.0
C1007 C 0.29384 0.43876 0.03004 0.0
C1008 C 0.30426 0.42788 0.03153 0.0
C1009 C 0.31362 0.42457 0.01996 0.0
C1010 C 0.31306 0.43307 0.00733 0.0
C1011 C 0.30268 0.44397 0.00589 0.0
C1012 C 0.28009 0.47594 0.00922 0.0
C1013 C 0.26821 0.48525 0.00781 0.0
C1014 C 0.27052 0.50022 0.00567 0.0
C1015 C 0.28481 0.50619 0.00472 0.0
C1016 C 0.29672 0.49671 0.00591 0.0
C1017 C 0.29438 0.48173 0.00821 0.0
C1018 C 0.26798 0.4469 0.99802 0.0
C1019 C 0.26047 0.43373 0.00079 0.0
C1020 C 0.25671 0.42387 0.98934 0.0
C1021 C 0.26049 0.42696 0.97488 0.0
C1022 C 0.26742 0.4405 0.97204 0.0
C1023 C 0.27124 0.45034 0.98356 0.0
P1024 P 0.73152 0.98751 0.34266 0.0
H1025 H 0.74107 0.96341 0.32365 0.0
H1026 H 0.73045 0.93901 0.31784 0.0
H1027 H 0.69195 0.95018 0.34191 0.0
H1028 H 0.70194 0.97474 0.34648 0.0
H1029 H 0.75714 0.00542 0.3357 0.0
H1030 H 0.76044 0.02779 0.32221 0.0
H1031 H 0.71429 0.02693 0.31061 0.0
H1032 H 0.71111 0.00421 0.32404 0.0
H1033 H 0.72976 0.97448 0.37093 0.0
H1034 H 0.71186 0.01221 0.34994 0.0
O1035 O 0.74816 0.98245 0.34822 0.0
H1036 H 0.71675 0.9806 0.39303 0.0
H1037 H 0.6985 0.01824 0.37197 0.0
C1038 C 0.72234 0.97103 0.33542 0.0
C1039 C 0.7301 0.9608 0.32714 0.0
C1040 C 0.72411 0.94674 0.32406 0.0
C1041 C 0.7103 0.94259 0.32939 0.0
C1042 C 0.70243 0.95305 0.33733 0.0
C1043 C 0.70827 0.96715 0.3401 0.0
C1044 C 0.73392 0.00278 0.33057 0.0
C1045 C 0.74775 0.00973 0.32994 0.0
C1046 C 0.74961 0.02269 0.32233 0.0
C1047 C 0.73761 0.02926 0.31541 0.0
C1048 C 0.72382 0.02206 0.31563 0.0
C1049 C 0.72199 0.00897 0.3232 0.0
C1050 C 0.72211 0.99302 0.35888 0.0
C1051 C 0.72301 0.98408 0.37107 0.0
C1052 C 0.71528 0.98744 0.3836 0.0
C1053 C 0.70638 0.99981 0.38418 0.0
C1054 C 0.70523 0.00862 0.37182 0.0
C1055 C 0.71299 0.0052 0.35922 0.0
P1056 P 0.66129 0.01543 0.04569 0.0
H1057 H 0.645 0.03752 0.03005 0.0
H1058 H 0.65308 0.05927 0.0173 0.0
H1059 H 0.69785 0.04492 0.02021 0.0
H1060 H 0.68963 0.02325 0.03331 0.0
H1061 H 0.64175 0.99147 0.05298 0.0
H1062 H 0.63918 0.96621 0.04382 0.0
H1063 H 0.67115 0.97517 0.01085 0.0
H1064 H 0.67367 1.00055 0.02009 0.0
H1065 H 0.67541 0.03739 0.06489 0.0
H1066 H 0.67827 0.99073 0.05712 0.0
O1067 O 0.6461 0.02088 0.05384 0.0
H1068 H 0.69379 0.03614 0.08463 0.0
H1069 H 0.69673 0.98945 0.07679 0.0
C1070 C 0.66678 0.02906 0.03295 0.0
C1071 C 0.65651 0.03889 0.02766 0.0
C1072 C 0.66116 0.05127 0.02022 0.0
C1073 C 0.67616 0.05394 0.01792 0.0
C1074 C 0.68625 0.04329 0.02205 0.0
C1075 C 0.68157 0.03091 0.02951 0.0
C1076 C 0.65768 0.9979 0.03703 0.0
C1077 C 0.64796 0.9881 0.04357 0.0
C1078 C 0.64662 0.97365 0.03844 0.0
C1079 C 0.65504 0.96877 0.02671 0.0
C1080 C 0.66446 0.97873 0.01985 0.0
C1081 C 0.66588 0.99321 0.02508 0.0
C1082 C 0.67543 0.01419 0.05958 0.0
C1083 C 0.68012 0.02691 0.06733 0.0
C1084 C 0.69073 0.0262 0.0785 0.0
C1085 C 0.69678 0.0127 0.08218 0.0
C1086 C 0.69222 0.99998 0.07421 0.0
C1087 C 0.68164 1.00073 0.06297 0.0
P1088 P 0.62744 0.31273 0.5325 0.0
H1089 H 0.65658 0.32005 0.54508 0.0
H1090 H 0.67182 0.30783 0.5632 0.0
H1091 H 0.64244 0.27002 0.56046 0.0
H1092 H 0.62717 0.2824 0.5424 0.0
H1093 H 0.61048 0.32526 0.50884 0.0
H1094 H 0.61419 0.32675 0.48256 0.0
H1095 H 0.65099 0.298 0.48647 0.0
H1096 H 0.64742 0.297 0.51291 0.0
H1097 H 0.61547 0.31768 0.56106 0.0
H1098 H 0.6007 0.29731 0.52014 0.0
O1099 O 0.63081 0.33041 0.53661 0.0
H1100 H 0.59231 0.31107 0.5721 0.0
H1101 H 0.57706 0.29111 0.53095 0.0
C1102 C 0.6406 0.30224 0.54262 0.0
C1103 C 0.65358 0.30901 0.54813 0.0
C1104 C 0.66233 0.30198 0.55848 0.0
C1105 C 0.65821 0.28805 0.56348 0.0
C1106 C 0.64576 0.28087 0.55706 0.0
C1107 C 0.63707 0.28789 0.54666 0.0
C1108 C 0.62855 0.3109 0.51282 0.0
C1109 C 0.61916 0.31903 0.50398 0.0
C1110 C 0.6213 0.31985 0.4889 0.0
C1111 C 0.63294 0.31254 0.48227 0.0
C1112 C 0.64205 0.30397 0.49116 0.0
C1113 C 0.63992 0.30323 0.5063 0.0
C1114 C 0.60969 0.30828 0.53971 0.0
C1115 C 0.60709 0.31199 0.55436 0.0
C1116 C 0.59377 0.30824 0.56065 0.0
C1117 C 0.58265 0.30072 0.55239 0.0
C1118 C 0.58537 0.29685 0.53768 0.0
C1119 C 0.59882 0.30053 0.53141 0.0
P1120 P 0.03992 0.65872 0.01771 0.0
H1121 H 0.01825 0.64671 0.03722 0.0
H1122 H 0.00676 0.65709 0.05864 0.0
H1123 H 0.0237 0.7001 0.04796 0.0
H1124 H 0.03559 0.6894 0.02663 0.0
H1125 H 0.05065 0.64474 0.99177 0.0
H1126 H 0.04325 0.64527 0.96596 0.0
H1127 H 0.00723 0.67306 0.97688 0.0
H1128 H 0.01478 0.67253 0.00289 0.0
H1129 H 0.06573 0.65569 0.03656 0.0
H1130 H 0.05235 0.68274 0.00076 0.0
O1131 O 0.04239 0.64138 0.02244 0.0
H1132 H 0.09004 0.66749 0.03692 0.0
H1133 H 0.07675 0.69434 0.00079 0.0
C1134 C 0.02813 0.66722 0.03066 0.0
C1135 C 0.01923 0.65843 0.03929 0.0
C1136 C 0.0125 0.66446 0.0515 0.0
C1137 C 0.01449 0.67944 0.05521 0.0
C1138 C 0.02221 0.68848 0.0456 0.0
C1139 C 0.02899 0.68238 0.03339 0.0
C1140 C 0.03316 0.65846 0.99916 0.0
C1141 C 0.04108 0.65085 0.98863 0.0
C1142 C 0.03695 0.65129 0.9739 0.0
C1143 C 0.02476 0.65932 0.96947 0.0
C1144 C 0.01665 0.66677 0.98008 0.0
C1145 C 0.02092 0.66645 0.99488 0.0
C1146 C 0.05743 0.66806 0.01838 0.0
C1147 C 0.06807 0.66412 0.02874 0.0
C1148 C 0.08195 0.67084 0.02889 0.0
C1149 C 0.08537 0.68167 0.01872 0.0
C1150 C 0.07444 0.68604 0.00876 0.0
C1151 C 0.06054 0.67932 0.00864 0.0
P1152 P 0.01281 0.27754 0.45669 0.0
H1153 H 0.03813 0.28159 0.43802 0.0
H1154 H 0.04364 0.29969 0.41956 0.0
H1155 H 0.00606 0.32433 0.43266 0.0
H1156 H 0.00093 0.30643 0.4514 0.0
H1157 H 0.99939 0.26072 0.47945 0.0
H1158 H 0.99664 0.26514 0.50573 0.0
H1159 H 0.01606 0.30843 0.50187 0.0
H1160 H 0.01893 0.30387 0.47556 0.0
H1161 H 0.008 0.25458 0.43426 0.0
H1162 H 0.98225 0.28654 0.45691 0.0
O1163 O 0.02533 0.2645 0.45664 0.0
H1164 H 0.98724 0.24861 0.41768 0.0
H1165 H 0.96141 0.28072 0.44022 0.0
C1166 C 0.01917 0.29272 0.44616 0.0
C1167 C 0.03135 0.29113 0.43725 0.0
C1168 C 0.0344 0.30141 0.42657 0.0
C1169 C 0.02519 0.31337 0.4245 0.0
C1170 C 0.01347 0.31535 0.43404 0.0
C1171 C 0.01049 0.30509 0.44476 0.0
C1172 C 0.00916 0.28201 0.47553 0.0
C1173 C 0.00287 0.27123 0.48423 0.0
C1174 C 0.00142 0.27373 0.49926 0.0
C1175 C 0.00622 0.2871 0.50588 0.0
C1176 C 0.01218 0.29807 0.49705 0.0
C1177 C 0.01378 0.29548 0.482 0.0
C1178 C 0.99658 0.27081 0.44697 0.0
C1179 C 0.99774 0.26001 0.43594 0.0
C1180 C 0.98587 0.25664 0.42643 0.0
C1181 C 0.97271 0.26423 0.42763 0.0
C1182 C 0.97145 0.27476 0.43898 0.0
C1183 C 0.98329 0.278 0.4486 0.0
P1184 P 0.34106 0.71321 0.99022 0.0
H1185 H 0.33088 0.72727 0.96367 0.0
H1186 H 0.32498 0.71799 0.93901 0.0
H1187 H 0.32999 0.67365 0.95371 0.0
H1188 H 0.33505 0.68311 0.97866 0.0
H1189 H 0.33321 0.74018 0.00552 0.0
H1190 H 0.31824 0.7452 0.02653 0.0
H1191 H 0.30513 0.69945 0.02753 0.0
H1192 H 0.32059 0.69439 0.00637 0.0
H1193 H 0.36429 0.69825 0.97551 0.0
H1194 H 0.3499 0.70397 0.0199 0.0
O1195 O 0.34949 0.72908 0.9865 0.0
H1196 H 0.38747 0.68947 0.98449 0.0
H1197 H 0.37301 0.69458 0.02907 0.0
C1198 C 0.33368 0.70591 0.97296 0.0
C1199 C 0.33042 0.71554 0.96168 0.0
C1200 C 0.32719 0.71019 0.94749 0.0
C1201 C 0.32744 0.69506 0.94417 0.0
C1202 C 0.32975 0.68536 0.95577 0.0
C1203 C 0.33271 0.69075 0.97007 0.0
C1204 C 0.32796 0.71691 0.00427 0.0
C1205 C 0.32695 0.73121 0.01002 0.0
C1206 C 0.3183 0.73411 0.02208 0.0
C1207 C 0.31041 0.72276 0.02873 0.0
C1208 C 0.31113 0.70843 0.02272 0.0
C1209 C 0.31986 0.70553 0.01059 0.0
C1210 C 0.35533 0.70177 0.99697 0.0
C1211 C 0.36583 0.69691 0.98719 0.0
C1212 C 0.37914 0.69175 0.99242 0.0
C1213 C 0.38227 0.69149 0.00759 0.0
C1214 C 0.37106 0.69487 0.01734 0.0
C1215 C 0.35776 0.70018 0.01207 0.0
P1216 P 0.5317 0.62721 0.31238 0.0
H1217 H 0.5417 0.65751 0.31819 0.0
H1218 H 0.55926 0.6734 0.30592 0.0
H1219 H 0.56237 0.6408 0.2711 0.0
H1220 H 0.54447 0.62529 0.28317 0.0
H1221 H 0.50774 0.60968 0.32368 0.0
H1222 H 0.48149 0.6136 0.32524 0.0
H1223 H 0.48607 0.65203 0.29877 0.0
H1224 H 0.51245 0.64823 0.29771 0.0
H1225 H 0.55878 0.61354 0.32064 0.0
H1226 H 0.52023 0.60173 0.2945 0.0
O1227 O 0.53574 0.63094 0.33 0.0
H1228 H 0.56964 0.59025 0.31419 0.0
H1229 H 0.53084 0.57797 0.28831 0.0
C1230 C 0.542 0.6401 0.30175 0.0
C1231 C 0.54596 0.65393 0.30777 0.0
C1232 C 0.55611 0.66295 0.30079 0.0
C1233 C 0.56248 0.6583 0.28764 0.0
C1234 C 0.55769 0.64482 0.28117 0.0
C1235 C 0.54748 0.63585 0.28812 0.0
C1236 C 0.51204 0.62852 0.31041 0.0
C1237 C 0.50303 0.61876 0.31794 0.0
C1238 C 0.48796 0.62103 0.3188 0.0
C1239 C 0.48154 0.63319 0.31218 0.0
C1240 C 0.4906 0.64269 0.30421 0.0
C1241 C 0.50571 0.64042 0.30342 0.0
C1242 C 0.53855 0.6092 0.30839 0.0
C1243 C 0.55251 0.60575 0.31375 0.0
C1244 C 0.5587 0.59237 0.31006 0.0
C1245 C 0.55107 0.58207 0.30087 0.0
C1246 C 0.53707 0.58563 0.29538 0.0
C1247 C 0.53089 0.59914 0.29904 0.0
P1248 P 0.01699 0.04361 0.66106 0.0
H1249 H 0.03032 0.01897 0.64636 0.0
H1250 H 0.05212 0.00506 0.65232 0.0
H1251 H 0.05494 0.02662 0.69499 0.0
H1252 H 0.03277 0.03981 0.68922 0.0
H1253 H 0.99304 0.05 0.64119 0.0
H1254 H 0.96747 0.04169 0.63971 0.0
H1255 H 0.97559 0.0116 0.67465 0.0
H1256 H 0.00136 0.02005 0.6761 0.0
H1257 H 0.03935 0.06463 0.67149 0.0
H1258 H 0.99298 0.05731 0.67731 0.0
O1259 O 0.02239 0.04968 0.64491 0.0
H1260 H 0.03841 0.08738 0.68603 0.0
H1261 H 0.99198 0.08013 0.69164 0.0
C1262 C 0.03027 0.03075 0.66715 0.0
C1263 C 0.03542 0.02036 0.65714 0.0
C1264 C 0.04793 0.01249 0.66054 0.0
C1265 C 0.05553 0.01503 0.67397 0.0
C1266 C 0.04942 0.02439 0.68453 0.0
C1267 C 0.0368 0.03212 0.68116 0.0
C1268 C 0.99909 0.0354 0.65853 0.0
C1269 C 0.98942 0.04139 0.64832 0.0
C1270 C 0.97479 0.03677 0.6476 0.0
C1271 C 0.96959 0.02609 0.65714 0.0
C1272 C 0.9794 0.01978 0.66712 0.0
C1273 C 0.99408 0.02454 0.66792 0.0
C1274 C 0.01628 0.05928 0.67329 0.0
C1275 C 0.02903 0.0678 0.67608 0.0
C1276 C 0.02849 0.08073 0.68445 0.0
C1277 C 0.01511 0.08547 0.68995 0.0
C1278 C 0.00241 0.07672 0.68747 0.0
C1279 C 0.003 0.06367 0.67925 0.0
P1280 P 0.45023 0.01534 0.27349 0.0
H1281 H 0.43585 0.04213 0.28361 0.0
H1282 H 0.41836 0.04653 0.30312 0.0
H1283 H 0.42299 0.00189 0.31693 0.0
H1284 H 0.44028 0.99758 0.29756 0.0
H1285 H 0.47686 0.01819 0.25685 0.0
H1286 H 0.50284 0.01577 0.26331 0.0
H1287 H 0.49133 0.00444 0.30732 0.0
H1288 H 0.4655 0.00684 0.30084 0.0
H1289 H 0.42472 0.01142 0.25434 0.0
H1290 H 0.45591 0.98384 0.27576 0.0
O1291 O 0.44917 0.02897 0.26166 0.0
H1292 H 0.40923 0.99006 0.24799 0.0
H1293 H 0.44058 0.96223 0.26917 0.0
C1294 C 0.43939 0.01954 0.28917 0.0
C1295 C 0.43328 0.03339 0.29101 0.0
C1296 C 0.42326 0.03588 0.3021 0.0
C1297 C 0.41934 0.02456 0.31156 0.0
C1298 C 0.42596 0.0109 0.30999 0.0
C1299 C 0.43582 0.0084 0.29886 0.0
C1300 C 0.46922 0.01289 0.27838 0.0
C1301 C 0.47994 0.0152 0.26789 0.0
C1302 C 0.49477 0.01388 0.27161 0.0
C1303 C 0.49911 0.01004 0.28586 0.0
C1304 C 0.48831 0.00736 0.29624 0.0
C1305 C 0.47349 0.00878 0.29253 0.0
C1306 C 0.44158 0.99919 0.26526 0.0
C1307 C 0.42851 1.00067 0.25718 0.0
C1308 C 0.41963 0.98841 0.25358 0.0
C1309 C 0.42362 0.9744 0.25811 0.0
C1310 C 0.43711 0.97287 0.26565 0.0
C1311 C 0.44599 0.9852 0.26925 0.0
P1312 P 0.99165 0.3413 0.71503 0.0
H1313 H 0.96356 0.33544 0.72855 0.0
H1314 H 0.93898 0.33046 0.71858 0.0
H1315 H 0.95604 0.32862 0.67485 0.0
H1316 H 0.98089 0.33326 0.68506 0.0
H1317 H 0.00623 0.33113 0.74156 0.0
H1318 H 0.02746 0.31612 0.74564 0.0
H1319 H 0.02892 0.3063 0.69921 0.0
H1320 H 0.00754 0.32174 0.69512 0.0
H1321 H 0.9778 0.36415 0.69843 0.0
H1322 H 0.02182 0.35061 0.70842 0.0
O1323 O 0.98854 0.34941 0.7312 0.0
H1324 H 0.98729 0.38723 0.68977 0.0
H1325 H 0.0315 0.37364 0.69928 0.0
C1326 C 0.97406 0.33497 0.70754 0.0
C1327 C 0.96211 0.33375 0.71684 0.0
C1328 C 0.94799 0.33101 0.71109 0.0
C1329 C 0.94544 0.32951 0.69588 0.0
C1330 C 0.95758 0.3298 0.68662 0.0
C1331 C 0.97179 0.3325 0.69242 0.0
C1332 C 0.0052 0.3275 0.71802 0.0
C1333 C 0.01084 0.32553 0.73223 0.0
C1334 C 0.02304 0.31689 0.73458 0.0
C1335 C 0.0299 0.30998 0.72276 0.0
C1336 C 0.02392 0.31153 0.70854 0.0
C1337 C 0.01164 0.32023 0.70619 0.0
C1338 C 0.99905 0.35556 0.70398 0.0
C1339 C 0.98956 0.36582 0.69808 0.0
C1340 C 0.99507 0.37907 0.69301 0.0
C1341 C 0.0102 0.38238 0.69394 0.0
C1342 C 0.01979 0.37148 0.69856 0.0
C1343 C 0.01424 0.35824 0.70372 0.0
P1344 P 0.72499 0.47765 0.3739 0.0
H1345 H 0.73219 0.47539 0.34303 0.0
H1346 H 0.73129 0.45469 0.32554 0.0
H1347 H 0.70767 0.42881 0.35671 0.0
H1348 H 0.7081 0.44969 0.37379 0.0
H1349 H 0.73351 0.50792 0.38049 0.0
H1350 H 0.72186 0.53122 0.37604 0.0
H1351 H 0.68326 0.5081 0.35862 0.0
H1352 H 0.69517 0.48457 0.36301 0.0
H1353 H 0.74088 0.45472 0.38793 0.0
H1354 H 0.70511 0.48269 0.39872 0.0
O1355 O 0.74277 0.48174 0.3722 0.0
H1356 H 0.73901 0.44298 0.41151 0.0
H1357 H 0.7034 0.47124 0.42271 0.0
C1358 C 0.7205 0.46399 0.35982 0.0
C1359 C 0.72647 0.46538 0.34591 0.0
C1360 C 0.72607 0.45346 0.33598 0.0
C1361 C 0.71972 0.43992 0.33982 0.0
C1362 C 0.71265 0.43902 0.35333 0.0
C1363 C 0.71298 0.45098 0.3632 0.0
C1364 C 0.71533 0.49453 0.37179 0.0
C1365 C 0.72254 0.50781 0.37571 0.0
C1366 C 0.71588 0.52114 0.37312 0.0
C1367 C 0.70174 0.5215 0.36675 0.0
C1368 C 0.69419 0.50815 0.36349 0.0
C1369 C 0.70098 0.49473 0.36595 0.0
C1370 C 0.72328 0.46969 0.39167 0.0
C1371 C 0.73271 0.45845 0.3955 0.0
C1372 C 0.73167 0.45179 0.40904 0.0
C1373 C 0.72118 0.45627 0.41913 0.0
C1374 C 0.71157 0.46747 0.41518 0.0
C1375 C 0.7126 0.47411 0.40152 0.0
P1376 P 0.69727 0.53591 0.01494 0.0
H1377 H 0.67309 0.53406 0.99362 0.0
H1378 H 0.66339 0.55187 0.97657 0.0
H1379 H 0.70089 0.58053 0.98643 0.0
H1380 H 0.71078 0.56245 0.00271 0.0
H1381 H 0.71121 0.5133 0.03158 0.0
H1382 H 0.71387 0.48734 0.02596 0.0
H1383 H 0.70274 0.49484 0.98052 0.0
H1384 H 0.6998 0.52078 0.98633 0.0
H1385 H 0.68948 0.55452 0.03948 0.0
H1386 H 0.72904 0.54193 0.01813 0.0
O1387 O 0.68173 0.53133 0.02315 0.0
H1388 H 0.70334 0.57241 0.05465 0.0
H1389 H 0.74316 0.56 0.03344 0.0
C1390 C 0.69239 0.54714 0.99977 0.0
C1391 C 0.67939 0.54402 0.99177 0.0
C1392 C 0.67384 0.55423 0.98207 0.0
C1393 C 0.68116 0.56781 0.98042 0.0
C1394 C 0.69494 0.57021 0.98739 0.0
C1395 C 0.70055 0.5599 0.99692 0.0
C1396 C 0.70525 0.51895 0.00942 0.0
C1397 C 0.70996 0.50946 0.02029 0.0
C1398 C 0.71149 0.49458 0.01703 0.0
C1399 C 0.70826 0.48895 0.00281 0.0
C1400 C 0.70504 0.49879 0.99163 0.0
C1401 C 0.70345 0.51368 0.99493 0.0
C1402 C 0.70829 0.54668 0.02792 0.0
C1403 C 0.70125 0.55531 0.03836 0.0
C1404 C 0.7092 0.56558 0.04703 0.0
C1405 C 0.72436 0.56758 0.0453 0.0
C1406 C 0.73148 0.55871 0.03499 0.0
C1407 C 0.72349 0.54829 0.02637 0.0
P1408 P 0.32714 0.99991 0.69324 0.0
H1409 H 0.34847 0.01874 0.70959 0.0
H1410 H 0.35097 0.04528 0.71303 0.0
H1411 H 0.30883 0.05018 0.69135 0.0
H1412 H 0.30663 0.02387 0.68786 0.0
H1413 H 0.33499 0.97084 0.7021 0.0
H1414 H 0.32143 0.95158 0.71411 0.0
H1415 H 0.28706 0.98182 0.72372 0.0
H1416 H 0.30099 0.00133 0.71162 0.0
H1417 H 0.33672 0.99065 0.66407 0.0
H1418 H 0.29591 0.9997 0.6847 0.0
O1419 O 0.34458 0.99526 0.69125 0.0
H1420 H 0.32408 0.98769 0.6405 0.0
H1421 H 0.28287 0.99581 0.66133 0.0
C1422 C 0.32737 0.01921 0.69835 0.0
C1423 C 0.33965 0.02553 0.70578 0.0
C1424 C 0.34112 0.04079 0.70765 0.0
C1425 C 0.33026 0.0501 0.70219 0.0
C1426 C 0.31746 0.04355 0.69578 0.0
C1427 C 0.31613 0.02833 0.69374 0.0
C1428 C 0.31909 0.98759 0.70611 0.0
C1429 C 0.32481 0.97355 0.70726 0.0
C1430 C 0.31699 0.96248 0.71414 0.0
C1431 C 0.30312 0.96512 0.71988 0.0
C1432 C 0.29768 0.97942 0.71934 0.0
C1433 C 0.30565 0.9906 0.71254 0.0
C1434 C 0.31743 0.99629 0.67603 0.0
C1435 C 0.32504 0.99219 0.66352 0.0
C1436 C 0.31767 0.9901 0.65004 0.0
C1437 C 0.30239 0.99172 0.64884 0.0
C1438 C 0.29468 0.99494 0.66165 0.0
C1439 C 0.30214 0.99717 0.67508 0.0
P1440 P 0.2953 0.99965 0.94663 0.0
H1441 H 0.29128 0.98541 0.97449 0.0
H1442 H 0.29881 0.96173 0.98378 0.0
H1443 H 0.32123 0.95303 0.94343 0.0
H1444 H 0.31392 0.9768 0.93439 0.0
H1445 H 0.28899 0.03031 0.95205 0.0
H1446 H 0.30426 0.05155 0.95967 0.0
H1447 H 0.34201 0.02394 0.96249 0.0
H1448 H 0.32652 0.00264 0.95516 0.0
H1449 H 0.27349 0.98791 0.9254 0.0
H1450 H 0.31582 0.00976 0.92444 0.0
O1451 O 0.27832 0.00199 0.95253 0.0
H1452 H 0.27214 0.98738 0.89862 0.0
H1453 H 0.31442 0.00962 0.89772 0.0
C1454 C 0.30175 0.98267 0.95364 0.0
C1455 C 0.29787 0.9784 0.96769 0.0
C1456 C 0.30215 0.96487 0.97297 0.0
C1457 C 0.3105 0.95543 0.96429 0.0
C1458 C 0.31489 0.96007 0.95044 0.0
C1459 C 0.31059 0.97361 0.94518 0.0
C1460 C 0.30658 0.01489 0.9533 0.0
C1461 C 0.30051 0.0288 0.95451 0.0
C1462 C 0.30929 0.04095 0.95873 0.0
C1463 C 0.32437 0.03946 0.96165 0.0
C1464 C 0.3304 0.02544 0.96052 0.0
C1465 C 0.32157 0.01326 0.9563 0.0
C1466 C 0.29459 0.99916 0.9269 0.0
C1467 C 0.28245 0.99269 0.91941 0.0
C1468 C 0.28167 0.99244 0.9041 0.0
C1469 C 0.29311 0.99858 0.89598 0.0
C1470 C 0.30546 0.00471 0.90359 0.0
C1471 C 0.30621 0.00493 0.9189 0.0
P1472 P 0.37614 0.72521 0.47797 0.0
H1473 H 0.34968 0.74207 0.47348 0.0
H1474 H 0.33259 0.74365 0.45267 0.0
H1475 H 0.35353 0.70728 0.43128 0.0
H1476 H 0.37059 0.70568 0.4523 0.0
H1477 H 0.39536 0.71827 0.5025 0.0
H1478 H 0.39109 0.70586 0.52548 0.0
H1479 H 0.34711 0.69403 0.51041 0.0
H1480 H 0.35156 0.70632 0.48732 0.0
H1481 H 0.39079 0.74432 0.45799 0.0
H1482 H 0.39858 0.70218 0.47662 0.0
O1483 O 0.37622 0.74212 0.48531 0.0
H1484 H 0.41344 0.74279 0.44452 0.0
H1485 H 0.42169 0.70075 0.46356 0.0
C1486 C 0.36157 0.72394 0.4643 0.0
C1487 C 0.35045 0.73426 0.46445 0.0
C1488 C 0.34073 0.7352 0.4525 0.0
C1489 C 0.34189 0.72578 0.4402 0.0
C1490 C 0.35235 0.7147 0.44058 0.0
C1491 C 0.36213 0.7138 0.45257 0.0
C1492 C 0.3739 0.71301 0.49307 0.0
C1493 C 0.38494 0.71264 0.50396 0.0
C1494 C 0.38241 0.7057 0.51718 0.0
C1495 C 0.3687 0.69906 0.51987 0.0
C1496 C 0.35783 0.69891 0.50866 0.0
C1497 C 0.36038 0.70593 0.49542 0.0
C1498 C 0.39319 0.72355 0.46857 0.0
C1499 C 0.39752 0.73481 0.45933 0.0
C1500 C 0.41053 0.73394 0.45168 0.0
C1501 C 0.41956 0.72175 0.4531 0.0
C1502 C 0.41501 0.71029 0.46217 0.0
C1503 C 0.40187 0.71115 0.46978 0.0
P1504 P 0.94629 0.29813 0.99867 0.0
H1505 H 0.97189 0.28892 0.9827 0.0
H1506 H 0.98132 0.29518 0.95874 0.0
H1507 H 0.94648 0.32595 0.95309 0.0
H1508 H 0.93722 0.31973 0.97717 0.0
H1509 H 0.95859 0.29135 0.02742 0.0
H1510 H 0.96762 0.30664 0.04806 0.0
H1511 H 0.95974 0.34544 0.02307 0.0
H1512 H 0.95046 0.32996 0.00244 0.0
H1513 H 0.9243 0.28656 0.97762 0.0
H1514 H 0.92487 0.31042 0.01895 0.0
O1515 O 0.9508 0.28078 0.00142 0.0
H1516 H 0.8975 0.28523 0.97772 0.0
H1517 H 0.89818 0.30945 0.01897 0.0
C1518 C 0.95366 0.3036 0.9815 0.0
C1519 C 0.96631 0.29703 0.97631 0.0
C1520 C 0.97168 0.30061 0.96263 0.0
C1521 C 0.96456 0.31095 0.95397 0.0
C1522 C 0.95225 0.318 0.95953 0.0
C1523 C 0.94687 0.31437 0.97322 0.0
C1524 C 0.95408 0.30952 0.01333 0.0
C1525 C 0.95899 0.30313 0.02628 0.0
C1526 C 0.96421 0.3119 0.03808 0.0
C1527 C 0.96451 0.32727 0.03718 0.0
C1528 C 0.95959 0.33364 0.02412 0.0
C1529 C 0.9544 0.32482 0.01229 0.0
C1530 C 0.92658 0.2987 0.99818 0.0
C1531 C 0.91864 0.29173 0.98659 0.0
C1532 C 0.90332 0.29102 0.98664 0.0
C1533 C 0.89567 0.2972 0.99838 0.0
C1534 C 0.90372 0.30441 0.00986 0.0
C1535 C 0.91902 0.30508 0.00979 0.0
P1536 P 0.0152 0.69679 0.537 0.0
H1537 H 0.99367 0.67271 0.53515 0.0
H1538 H 0.97622 0.66363 0.55289 0.0
H1539 H 0.985 0.70235 0.58016 0.0
H1540 H 0.00166 0.71161 0.56211 0.0
H1541 H 0.03348 0.70942 0.51494 0.0
H1542 H 0.0287 0.71309 0.48899 0.0
H1543 H 0.98232 0.70609 0.49548 0.0
H1544 H 0.98731 0.70194 0.52139 0.0
H1545 H 0.03826 0.68741 0.55664 0.0
H1546 H 0.01979 0.72832 0.54372 0.0
O1547 O 0.02284 0.68094 0.53246 0.0
H1548 H 0.05257 0.70007 0.57603 0.0
H1549 H 0.03378 0.74114 0.56361 0.0
C1550 C 0.99939 0.69252 0.54761 0.0
C1551 C 0.99148 0.67941 0.54476 0.0
C1552 C 0.98155 0.67422 0.55493 0.0
C1553 C 0.97956 0.68202 0.56818 0.0
C1554 C 0.98626 0.69598 0.57013 0.0
C1555 C 0.99602 0.70124 0.55985 0.0
C1556 C 0.01079 0.70538 0.52006 0.0
C1557 C 0.02223 0.70926 0.51088 0.0
C1558 C 0.01944 0.71138 0.496 0.0
C1559 C 0.00512 0.70964 0.49006 0.0
C1560 C 0.9935 0.70721 0.49964 0.0
C1561 C 0.99634 0.70497 0.51452 0.0
C1562 C 0.02815 0.70697 0.54862 0.0
C1563 C 0.03753 0.69921 0.55778 0.0
C1564 C 0.04554 0.70644 0.56904 0.0
C1565 C 0.04411 0.72158 0.57156 0.0
C1566 C 0.03518 0.72948 0.56192 0.0
C1567 C 0.02723 0.7222 0.55052 0.0
P1568 P 0.69557 0.32913 0.00181 0.0
H1569 H 0.71113 0.34963 0.02201 0.0
H1570 H 0.71402 0.35074 0.04828 0.0
H1571 H 0.6963 0.30638 0.05027 0.0
H1572 H 0.69213 0.30624 0.02408 0.0
H1573 H 0.70521 0.33757 0.97307 0.0
H1574 H 0.71515 0.32352 0.95284 0.0
H1575 H 0.72015 0.28645 0.9809 0.0
H1576 H 0.71082 0.30103 0.00149 0.0
H1577 H 0.6676 0.34182 0.99261 0.0
H1578 H 0.6839 0.29886 0.00132 0.0
O1579 O 0.69516 0.34692 0.99796 0.0
H1580 H 0.64346 0.33102 0.98657 0.0
H1581 H 0.65968 0.28815 0.99647 0.0
C1582 C 0.70103 0.32798 0.02097 0.0
C1583 C 0.70796 0.34007 0.02811 0.0
C1584 C 0.70977 0.34059 0.04339 0.0
C1585 C 0.70507 0.32878 0.05202 0.0
C1586 C 0.6995 0.31607 0.04448 0.0
C1587 C 0.69729 0.3158 0.02924 0.0
C1588 C 0.70734 0.32036 0.98885 0.0
C1589 C 0.70896 0.32661 0.97509 0.0
C1590 C 0.71445 0.31846 0.96343 0.0
C1591 C 0.71816 0.30372 0.96515 0.0
C1592 C 0.71747 0.29777 0.97922 0.0
C1593 C 0.71212 0.30607 0.99099 0.0
C1594 C 0.67752 0.32124 0.99796 0.0
C1595 C 0.66599 0.33009 0.99343 0.0
C1596 C 0.65214 0.32387 0.98998 0.0
C1597 C 0.64948 0.3087 0.99121 0.0
C1598 C 0.66124 0.29985 0.99531 0.0
C1599 C 0.6751 0.30604 0.99847 0.0
P1600 P 0.47663 0.37385 0.72596 0.0
H1601 H 0.47498 0.34236 0.73066 0.0
H1602 H 0.45434 0.32473 0.72992 0.0
H1603 H 0.42647 0.35783 0.71193 0.0
H1604 H 0.44713 0.37503 0.71216 0.0
H1605 H 0.50554 0.38695 0.73045 0.0
H1606 H 0.52907 0.38289 0.71905 0.0
H1607 H 0.50801 0.35259 0.68774 0.0
H1608 H 0.48435 0.35674 0.6993 0.0
H1609 H 0.46022 0.39155 0.74632 0.0
H1610 H 0.47543 0.39519 0.70219 0.0
O1611 O 0.48137 0.37176 0.74354 0.0
H1612 H 0.44789 0.41481 0.74426 0.0
H1613 H 0.46278 0.41851 0.69988 0.0
C1614 C 0.46259 0.36007 0.72167 0.0
C1615 C 0.4645 0.34566 0.72618 0.0
C1616 C 0.45264 0.33564 0.72589 0.0
C1617 C 0.43862 0.3399 0.72112 0.0
C1618 C 0.43706 0.35407 0.7156 0.0
C1619 C 0.44894 0.36402 0.71583 0.0
C1620 C 0.49325 0.37203 0.71584 0.0
C1621 C 0.50594 0.37953 0.72105 0.0
C1622 C 0.51941 0.37712 0.71458 0.0
C1623 C 0.52046 0.36725 0.70263 0.0
C1624 C 0.50756 0.36026 0.69694 0.0
C1625 C 0.49404 0.36259 0.70355 0.0
C1626 C 0.46902 0.39182 0.72453 0.0
C1627 C 0.46106 0.39748 0.73622 0.0
C1628 C 0.45384 0.41071 0.73496 0.0
C1629 C 0.45427 0.41853 0.72188 0.0
C1630 C 0.46237 0.41286 0.71017 0.0
C1631 C 0.46961 0.39956 0.71146 0.0
P1632 P 0.99421 0.94593 0.29986 0.0
H1633 H 0.97699 0.97197 0.2953 0.0
H1634 H 0.95177 0.97789 0.30111 0.0
H1635 H 0.94773 0.93776 0.32505 0.0
H1636 H 0.97292 0.93185 0.31905 0.0
H1637 H 0.02287 0.95733 0.29191 0.0
H1638 H 0.04411 0.96643 0.30631 0.0
H1639 H 0.01988 0.96126 0.34602 0.0
H1640 H 0.99855 0.95205 0.33142 0.0
H1641 H 0.97898 0.92324 0.28215 0.0
H1642 H 0.01192 0.92525 0.31681 0.0
O1643 O 0.99548 0.95154 0.28266 0.0
H1644 H 0.98078 0.89653 0.28078 0.0
H1645 H 0.01362 0.89865 0.31566 0.0
C1646 C 0.97666 0.95131 0.30642 0.0
C1647 C 0.97073 0.96455 0.30196 0.0
C1648 C 0.95634 0.96796 0.30538 0.0
C1649 C 0.94767 0.95819 0.31337 0.0
C1650 C 0.95403 0.94537 0.31863 0.0
C1651 C 0.96844 0.94199 0.31523 0.0
C1652 C 0.00906 0.95429 0.31058 0.0
C1653 C 0.02201 0.95842 0.30368 0.0
C1654 C 0.03415 0.96365 0.31194 0.0
C1655 C 0.03365 0.96466 0.32731 0.0
C1656 C 0.0206 0.96058 0.33421 0.0
C1657 C 0.00838 0.95543 0.32589 0.0
C1658 C 0.99544 0.92626 0.29942 0.0
C1659 C 0.98657 0.91792 0.28948 0.0
C1660 C 0.98754 0.90266 0.28879 0.0
C1661 C 0.99741 0.89546 0.29806 0.0
C1662 C 0.00608 0.90387 0.3082 0.0
C1663 C 0.00507 0.91912 0.3089 0.0
P1664 P 0.53504 0.0162 0.70162 0.0
H1665 H 0.53309 0.99858 0.67467 0.0
H1666 H 0.55075 0.98291 0.66266 0.0
H1667 H 0.57909 0.98657 0.70123 0.0
H1668 H 0.5612 0.00161 0.71331 0.0
H1669 H 0.51342 0.03122 0.71858 0.0
H1670 H 0.48754 0.02555 0.7213 0.0
H1671 H 0.49421 0.98134 0.70518 0.0
H1672 H 0.52007 0.98734 0.702 0.0
H1673 H 0.55123 0.04285 0.69527 0.0
H1674 H 0.5445 0.01578 0.73272 0.0
O1675 O 0.5294 0.02568 0.68722 0.0
H1676 H 0.56985 0.05723 0.70891 0.0
H1677 H 0.56354 0.03018 0.74656 0.0
C1678 C 0.54608 0.00169 0.69466 0.0
C1679 C 0.54295 0.99569 0.68066 0.0
C1680 C 0.55307 0.98677 0.6738 0.0
C1681 C 0.5665 0.98381 0.68085 0.0
C1682 C 0.56888 0.98863 0.69546 0.0
C1683 C 0.55868 0.99744 0.70235 0.0
C1684 C 0.51864 0.00976 0.71003 0.0
C1685 C 0.50945 0.02011 0.71626 0.0
C1686 C 0.49458 0.01681 0.71782 0.0
C1687 C 0.48868 0.00305 0.71314 0.0
C1688 C 0.49832 0.99215 0.70855 0.0
C1689 C 0.51319 0.99553 0.70687 0.0
C1690 C 0.54632 0.02839 0.71306 0.0
C1691 C 0.55346 0.04024 0.7066 0.0
C1692 C 0.56416 0.04847 0.71442 0.0
C1693 C 0.56812 0.04487 0.72883 0.0
C1694 C 0.56069 0.03319 0.73547 0.0
C1695 C 0.54975 0.02506 0.72764 0.0
P1696 P 0.99955 0.69509 0.32423 0.0
H1697 H 0.0178 0.7081 0.34809 0.0
H1698 H 0.04418 0.71145 0.35184 0.0
H1699 H 0.0508 0.69546 0.30768 0.0
H1700 H 0.02455 0.69256 0.30389 0.0
H1701 H 0.97287 0.70946 0.33321 0.0
H1702 H 0.95385 0.72147 0.31928 0.0
H1703 H 0.98089 0.72066 0.28113 0.0
H1704 H 1.00033 0.70902 0.29552 0.0
H1705 H 0.98569 0.66752 0.33347 0.0
H1706 H 0.00367 0.68434 0.29376 0.0
O1707 O 0.99374 0.69366 0.34135 0.0
H1708 H 0.98124 0.64376 0.32121 0.0
H1709 H 0.99928 0.66071 0.28157 0.0
C1710 C 0.01899 0.69984 0.32574 0.0
C1711 C 0.02488 0.70554 0.33909 0.0
C1712 C 0.04006 0.70739 0.34127 0.0
C1713 C 0.04978 0.70363 0.33012 0.0
C1714 C 0.04376 0.69876 0.31647 0.0
C1715 C 0.02857 0.69688 0.31433 0.0
C1716 C 0.98807 0.70822 0.31536 0.0
C1717 C 0.97504 0.71232 0.32202 0.0
C1718 C 0.96409 0.71921 0.31401 0.0
C1719 C 0.96581 0.72191 0.29906 0.0
C1720 C 0.97923 0.71862 0.29262 0.0
C1721 C 0.99034 0.71199 0.30079 0.0
C1722 C 0.99582 0.67764 0.31487 0.0
C1723 C 0.98886 0.66616 0.32219 0.0
C1724 C 0.98609 0.65259 0.3151 0.0
C1725 C 0.99013 0.65029 0.30049 0.0
C1726 C 0.99637 0.66204 0.29295 0.0
C1727 C 0.99906 0.67558 0.30003 0.0
H1728 H 0.17743 0.65503 0.35333 0.0
H1729 H 0.15292 0.66269 0.34642 0.0
H1730 H 0.16652 0.70797 0.35284 0.0
H1731 H 0.19091 0.70035 0.36073 0.0
H1732 H 0.14129 0.70381 0.36486 0.0
H1733 H 0.13682 0.6785 0.30948 0.0
H1734 H 0.14095 0.66497 0.32277 0.0
H1735 H 0.15395 0.67969 0.31973 0.0
C1736 C 0.17527 0.66664 0.35335 0.0
C1737 C 0.18627 0.67703 0.35772 0.0
C1738 C 0.16123 0.67103 0.34912 0.0
C1739 C 0.15782 0.68595 0.3488 0.0
C1740 C 0.16883 0.69638 0.35288 0.0
H1741 H 0.07222 0.71028 0.3114 0.0
H1742 H 0.09857 0.70769 0.31571 0.0
C1743 C 0.18287 0.69199 0.35726 0.0
C1744 C 0.14256 0.69056 0.34513 0.0
H1745 H 0.11406 0.68487 0.32052 0.0
C1746 C 0.13542 0.6998 0.35506 0.0
C1747 C 0.13486 0.68564 0.33221 0.0
C1748 C 0.14211 0.67679 0.32037 0.0
C1749 C 0.12075 0.70377 0.35274 0.0
C1750 C 0.11272 0.69796 0.34037 0.0
C1751 C 0.12003 0.68918 0.33014 0.0
C1752 C 0.09668 0.70045 0.33802 0.0
C1753 C 0.11414 0.71434 0.36353 0.0
C1754 C 0.0867 0.69733 0.34907 0.0
C1755 C 0.07164 0.69904 0.34672 0.0
C1756 C 0.06602 0.70346 0.33305 0.0
C1757 C 0.07604 0.70667 0.322 0.0
C1758 C 0.09117 0.70521 0.32447 0.0
H1759 H 0.1227 0.72167 0.36883 0.0
H1760 H 0.1058 0.72122 0.35819 0.0
H1761 H 0.10885 0.70807 0.37232 0.0
H1762 H 0.0905 0.69319 0.35946 0.0
H1763 H 0.06438 0.69628 0.35549 0.0
H1764 H 0.33251 0.27794 0.78283 0.0
H1765 H 0.35489 0.28444 0.77013 0.0
H1766 H 0.3291 0.30119 0.73437 0.0
H1767 H 0.30667 0.29559 0.74739 0.0
H1768 H 0.36678 0.27771 0.74393 0.0
H1769 H 0.35364 0.33681 0.74657 0.0
H1770 H 0.34334 0.32319 0.75625 0.0
H1771 H 0.34003 0.32556 0.73696 0.0
C1772 C 0.33156 0.28306 0.77229 0.0
C1773 C 0.31773 0.28652 0.76633 0.0
C1774 C 0.34439 0.28664 0.76497 0.0
C1775 C 0.3437 0.29367 0.75147 0.0
C1776 C 0.32992 0.29615 0.74496 0.0
H1777 H 0.41405 0.33618 0.70318 0.0
H1778 H 0.39108 0.32336 0.70878 0.0
C1779 C 0.31707 0.29272 0.75236 0.0
C1780 C 0.3574 0.29914 0.74473 0.0
H1781 H 0.3752 0.33051 0.73454 0.0
C1782 C 0.36859 0.28924 0.7418 0.0
C1783 C 0.35982 0.31423 0.74203 0.0
C1784 C 0.34864 0.3256 0.74573 0.0
C1785 C 0.38211 0.29403 0.73634 0.0
C1786 C 0.38453 0.3091 0.73379 0.0
C1787 C 0.37325 0.31894 0.73639 0.0
C1788 C 0.39897 0.31516 0.72947 0.0
C1789 C 0.39374 0.28295 0.73337 0.0
C1790 C 0.41107 0.31468 0.73918 0.0
C1791 C 0.42415 0.32215 0.73612 0.0
C1792 C 0.42542 0.33028 0.72327 0.0
C1793 C 0.41343 0.33021 0.71327 0.0
C1794 C 0.40031 0.32281 0.7164 0.0
H1795 H 0.38901 0.27165 0.73221 0.0
H1796 H 0.3997 0.28559 0.72326 0.0
H1797 H 0.4018 0.28319 0.74266 0.0
H1798 H 0.41018 0.30911 0.74948 0.0
H1799 H 0.43299 0.32215 0.74423 0.0
H1800 H 0.67115 0.99665 0.60075 0.0
H1801 H 0.64933 0.9919 0.61511 0.0
H1802 H 0.67339 0.96173 0.64159 0.0
H1803 H 0.69526 0.96631 0.62719 0.0
H1804 H 0.63562 0.96307 0.61876 0.0
H1805 H 0.65419 0.99031 0.67145 0.0
H1806 H 0.66268 0.9943 0.65428 0.0
H1807 H 0.66627 0.97739 0.66315 0.0
C1808 C 0.67179 0.989 0.60962 0.0
C1809 C 0.68489 0.98184 0.61285 0.0
C1810 C 0.65936 0.98634 0.61782 0.0
C1811 C 0.65984 0.97653 0.6294 0.0
C1812 C 0.67291 0.96948 0.6328 0.0
H1813 H 0.58738 0.96435 0.68964 0.0
H1814 H 0.61013 0.95879 0.6771 0.0
C1815 C 0.68537 0.97215 0.6246 0.0
C1816 C 0.64644 0.97346 0.6376 0.0
H1817 H 0.63028 0.98026 0.67024 0.0
C1818 C 0.63447 0.96666 0.63007 0.0
C1819 C 0.64512 0.97799 0.65239 0.0
C1820 C 0.65768 0.98548 0.66084 0.0
C1821 C 0.62096 0.96478 0.63681 0.0
C1822 C 0.61937 0.97008 0.65133 0.0
C1823 C 0.63157 0.97617 0.65911 0.0
C1824 C 0.60482 0.97131 0.65794 0.0
C1825 C 0.60843 0.95741 0.6282 0.0
C1826 C 0.59429 0.98 0.65121 0.0
C1827 C 0.58139 0.98323 0.65832 0.0
C1828 C 0.57881 0.97792 0.67238 0.0
C1829 C 0.5891 0.96866 0.67884 0.0
C1830 C 0.60206 0.96544 0.6717 0.0
H1831 H 0.61251 0.94955 0.61986 0.0
H1832 H 0.60086 0.95149 0.63547 0.0
H1833 H 0.60218 0.96585 0.62233 0.0
H1834 H 0.59639 0.985 0.6408 0.0
H1835 H 0.57392 0.9907 0.65315 0.0
H1836 H 0.81005 0.99299 0.31448 0.0
H1837 H 0.83674 0.99257 0.31759 0.0
H1838 H 0.83663 0.94846 0.29965 0.0
H1839 H 0.80996 0.94873 0.29659 0.0
H1840 H 0.85475 0.97381 0.33344 0.0
H1841 H 0.86566 0.97037 0.27404 0.0
H1842 H 0.84807 0.97528 0.28104 0.0
H1843 H 0.85308 0.95636 0.27978 0.0
C1844 C 0.81569 0.98314 0.31132 0.0
C1845 C 0.80787 0.97091 0.3052 0.0
C1846 C 0.83094 0.98296 0.31305 0.0
C1847 C 0.83867 0.97058 0.30862 0.0
C1848 C 0.83089 0.95825 0.30283 0.0
H1849 H 0.92527 0.93808 0.30984 0.0
H1850 H 0.89898 0.94239 0.31002 0.0
C1851 C 0.81566 0.95842 0.30108 0.0
C1852 C 0.85488 0.97049 0.31001 0.0
H1853 H 0.88566 0.96508 0.29026 0.0
C1854 C 0.86155 0.97207 0.324 0.0
C1855 C 0.86372 0.96841 0.29765 0.0
C1856 C 0.8573 0.96766 0.28226 0.0
C1857 C 0.87679 0.97091 0.32599 0.0
C1858 C 0.88549 0.96814 0.31369 0.0
C1859 C 0.87889 0.96706 0.29968 0.0
C1860 C 0.90138 0.96557 0.3151 0.0
C1861 C 0.88349 0.97212 0.34123 0.0
C1862 C 0.9114 0.9772 0.31806 0.0
C1863 C 0.92649 0.97478 0.31799 0.0
C1864 C 0.93176 0.96068 0.31499 0.0
C1865 C 0.92161 0.94902 0.31243 0.0
C1866 C 0.90658 0.95147 0.31243 0.0
H1867 H 0.87507 0.97295 0.34978 0.0
H1868 H 0.89031 0.96246 0.3434 0.0
H1869 H 0.89079 0.98201 0.34213 0.0
H1870 H 0.90755 0.98819 0.32003 0.0
H1871 H 0.93403 0.98397 0.32007 0.0
H1872 H 0.33793 0.18965 0.67274 0.0
H1873 H 0.32984 0.16517 0.68033 0.0
H1874 H 0.37479 0.15388 0.68872 0.0
H1875 H 0.38288 0.17829 0.68163 0.0
H1876 H 0.33634 0.13826 0.66823 0.0
H1877 H 0.35588 0.14102 0.72602 0.0
H1878 H 0.3545 0.15711 0.71499 0.0
H1879 H 0.37016 0.14556 0.71363 0.0
C1880 C 0.34606 0.18204 0.67645 0.0
C1881 C 0.36107 0.18598 0.67653 0.0
C1882 C 0.34143 0.168 0.6807 0.0
C1883 C 0.35167 0.15769 0.68531 0.0
C1884 C 0.36662 0.16168 0.68551 0.0
H1885 H 0.35635 0.06525 0.69874 0.0
H1886 H 0.3603 0.09148 0.69568 0.0
C1887 C 0.37125 0.17563 0.68126 0.0
C1888 C 0.34695 0.14253 0.68925 0.0
H1889 H 0.35055 0.11693 0.71584 0.0
C1890 C 0.33925 0.13368 0.67873 0.0
C1891 C 0.3507 0.13649 0.70297 0.0
C1892 C 0.35813 0.14559 0.7151 0.0
C1893 C 0.33577 0.11886 0.68132 0.0
C1894 C 0.34003 0.11272 0.69481 0.0
C1895 C 0.34737 0.12163 0.70548 0.0
C1896 C 0.33752 0.09689 0.69773 0.0
C1897 C 0.32805 0.10965 0.66944 0.0
C1898 C 0.32341 0.09122 0.70027 0.0
C1899 C 0.3211 0.07616 0.70233 0.0
C1900 C 0.33284 0.0664 0.70177 0.0
C1901 C 0.34703 0.0723 0.69959 0.0
C1902 C 0.34932 0.08734 0.69766 0.0
H1903 H 0.32692 0.1156 0.65901 0.0
H1904 H 0.33412 0.09944 0.66737 0.0
H1905 H 0.31694 0.10644 0.67308 0.0
H1906 H 0.31417 0.09843 0.70054 0.0
H1907 H 0.31006 0.0722 0.70424 0.0
H1908 H 0.29665 0.82081 0.98685 0.0
H1909 H 0.29901 0.84753 0.98761 0.0
H1910 H 0.3435 0.84482 0.97313 0.0
H1911 H 0.34103 0.81811 0.97165 0.0
H1912 H 0.31836 0.86748 0.00231 0.0
H1913 H 0.32392 0.86944 0.94184 0.0
H1914 H 0.31819 0.85302 0.95095 0.0
H1915 H 0.33721 0.8586 0.95117 0.0
C1916 C 0.30692 0.82588 0.98375 0.0
C1917 C 0.31857 0.8173 0.97894 0.0
C1918 C 0.3083 0.84115 0.98434 0.0
C1919 C 0.32133 0.84814 0.98017 0.0
C1920 C 0.33325 0.83963 0.97613 0.0
H1921 H 0.33618 0.94069 0.96158 0.0
H1922 H 0.34063 0.91509 0.96738 0.0
C1923 C 0.33186 0.82435 0.97544 0.0
C1924 C 0.32208 0.86431 0.97926 0.0
H1925 H 0.32488 0.89193 0.95486 0.0
C1926 C 0.31989 0.87286 0.99196 0.0
C1927 C 0.32406 0.87127 0.96574 0.0
C1928 C 0.32586 0.86265 0.95161 0.0
C1929 C 0.31949 0.88821 0.99147 0.0
C1930 C 0.32112 0.89512 0.97789 0.0
C1931 C 0.32371 0.8866 0.96528 0.0
C1932 C 0.31914 0.91106 0.97617 0.0
C1933 C 0.3173 0.89687 0.00548 0.0
C1934 C 0.30562 0.91729 0.97926 0.0
C1935 C 0.30303 0.93186 0.9759 0.0
C1936 C 0.31387 0.94046 0.96925 0.0
C1937 C 0.32755 0.9343 0.96654 0.0
C1938 C 0.33014 0.91972 0.96993 0.0
H1939 H 0.32084 0.89067 0.01523 0.0
H1940 H 0.32346 0.90751 0.00551 0.0
H1941 H 0.30548 0.89915 0.00654 0.0
H1942 H 0.29683 0.9107 0.9837 0.0
H1943 H 0.29228 0.93617 0.9779 0.0
H1944 H 0.74539 0.30763 0.29574 0.0
H1945 H 0.73193 0.32994 0.30085 0.0
H1946 H 0.76781 0.356 0.28465 0.0
H1947 H 0.78089 0.3338 0.27867 0.0
H1948 H 0.7399 0.35041 0.32013 0.0
H1949 H 0.73447 0.37693 0.26664 0.0
H1950 H 0.73981 0.3581 0.26821 0.0
H1951 H 0.75322 0.37282 0.27059 0.0
C1952 C 0.75022 0.31807 0.2928 0.0
C1953 C 0.7643 0.31887 0.28686 0.0
C1954 C 0.74254 0.33085 0.29585 0.0
C1955 C 0.74875 0.3447 0.29301 0.0
C1956 C 0.76258 0.34549 0.28664 0.0
H1957 H 0.74415 0.43231 0.32486 0.0
H1958 H 0.74883 0.40916 0.31219 0.0
C1959 C 0.77019 0.33274 0.28345 0.0
C1960 C 0.74158 0.35831 0.29816 0.0
H1961 H 0.73285 0.39294 0.28807 0.0
C1962 C 0.73807 0.35959 0.31303 0.0
C1963 C 0.73917 0.37033 0.28893 0.0
C1964 C 0.74173 0.36941 0.27268 0.0
C1965 C 0.73297 0.37275 0.31907 0.0
C1966 C 0.73124 0.38495 0.30998 0.0
C1967 C 0.73424 0.38356 0.29502 0.0
C1968 C 0.72748 0.39953 0.31613 0.0
C1969 C 0.73013 0.37373 0.33527 0.0
C1970 C 0.71373 0.40195 0.32219 0.0
C1971 C 0.71093 0.41529 0.32936 0.0
C1972 C 0.72183 0.42645 0.3306 0.0
C1973 C 0.73538 0.42413 0.32395 0.0
C1974 C 0.73814 0.41084 0.31676 0.0
H1975 H 0.73411 0.36402 0.34115 0.0
H1976 H 0.73552 0.38373 0.34026 0.0
H1977 H 0.71817 0.37449 0.33694 0.0
H1978 H 0.7053 0.3934 0.32166 0.0
H1979 H 0.70031 0.41676 0.33415 0.0
H1980 H 0.60054 0.66915 0.99443 0.0
H1981 H 0.61559 0.64824 0.988 0.0
H1982 H 0.64433 0.67655 0.96397 0.0
H1983 H 0.62921 0.69752 0.97014 0.0
H1984 H 0.62237 0.639 0.95749 0.0
H1985 H 0.67143 0.65343 0.99291 0.0
H1986 H 0.65364 0.6608 0.99648 0.0
H1987 H 0.664 0.66734 0.98143 0.0
C1988 C 0.61005 0.67092 0.98775 0.0
C1989 C 0.61369 0.68496 0.98277 0.0
C1990 C 0.61863 0.659 0.98413 0.0
C1991 C 0.63103 0.66093 0.97555 0.0
C1992 C 0.63486 0.67493 0.97072 0.0
H1993 H 0.69261 0.58979 0.96359 0.0
H1994 H 0.68095 0.61298 0.95794 0.0
C1995 C 0.62626 0.68687 0.97432 0.0
C1996 C 0.63971 0.64813 0.97151 0.0
H1997 H 0.67128 0.63081 0.98022 0.0
C1998 C 0.63317 0.63727 0.96226 0.0
C1999 C 0.65384 0.64607 0.97762 0.0
C2000 C 0.6612 0.65745 0.98773 0.0
C2001 C 0.64014 0.62401 0.95948 0.0
C2002 C 0.65384 0.62153 0.96638 0.0
C2003 C 0.66078 0.63278 0.97491 0.0
C2004 C 0.66005 0.60676 0.9669 0.0
C2005 C 0.63256 0.61263 0.94955 0.0
C2006 C 0.65203 0.59552 0.97348 0.0
C2007 C 0.65864 0.58239 0.97683 0.0
C2008 C 0.67347 0.58024 0.97373 0.0
C2009 C 0.68122 0.59117 0.96626 0.0
C2010 C 0.67458 0.60438 0.96296 0.0
H2011 H 0.62546 0.61785 0.94121 0.0
H2012 H 0.64058 0.60568 0.94386 0.0
H2013 H 0.62545 0.60548 0.95618 0.0
H2014 H 0.64094 0.59726 0.97698 0.0
H2015 H 0.6524 0.57442 0.98286 0.0
H2016 H 0.69928 0.36487 0.19095 0.0
H2017 H 0.70698 0.35761 0.16636 0.0
H2018 H 0.66292 0.34274 0.15526 0.0
H2019 H 0.65517 0.34948 0.17991 0.0
H2020 H 0.70204 0.32762 0.14971 0.0
H2021 H 0.67565 0.37576 0.12478 0.0
H2022 H 0.68084 0.37541 0.14398 0.0
H2023 H 0.66494 0.36522 0.13727 0.0
C2024 C 0.69126 0.35978 0.18342 0.0
C2025 C 0.67654 0.3579 0.18748 0.0
C2026 C 0.69568 0.35572 0.16932 0.0
C2027 C 0.68549 0.34978 0.15894 0.0
C2028 C 0.67093 0.34745 0.16305 0.0
H2029 H 0.68875 0.31249 0.07178 0.0
H2030 H 0.68566 0.31723 0.09761 0.0
C2031 C 0.66651 0.35141 0.17716 0.0
C2032 C 0.68987 0.34654 0.14365 0.0
H2033 H 0.68572 0.35836 0.10856 0.0
C2034 C 0.69854 0.33435 0.14072 0.0
C2035 C 0.68534 0.3554 0.13194 0.0
C2036 C 0.67625 0.36875 0.13455 0.0
C2037 C 0.7025 0.33062 0.12631 0.0
C2038 C 0.69776 0.33935 0.11459 0.0
C2039 C 0.68936 0.3517 0.11757 0.0
C2040 C 0.70096 0.3356 0.09909 0.0
C2041 C 0.71171 0.31738 0.12362 0.0
C2042 C 0.71091 0.34415 0.0913 0.0
C2043 C 0.71293 0.34141 0.07631 0.0
C2044 C 0.70471 0.33028 0.06856 0.0
C2045 C 0.69525 0.32133 0.07679 0.0
C2046 C 0.6934 0.32399 0.09179 0.0
H2047 H 0.71631 0.31302 0.13397 0.0
H2048 H 0.70487 0.30862 0.11805 0.0
H2049 H 0.72086 0.32016 0.11629 0.0
H2050 H 0.717 0.35309 0.09678 0.0
H2051 H 0.72087 0.34823 0.07093 0.0
H2052 H 0.97405 0.29458 0.81935 0.0
H2053 H 0.9761 0.29675 0.84605 0.0
H2054 H 0.98255 0.34352 0.84324 0.0
H2055 H 0.98074 0.34146 0.81644 0.0
H2056 H 1.00006 0.31083 0.86494 0.0
H2057 H 0.94553 0.33666 0.86927 0.0
H2058 H 0.95065 0.32641 0.85311 0.0
H2059 H 0.95841 0.34438 0.85678 0.0
C2060 C 0.97615 0.30531 0.82438 0.0
C2061 C 0.97716 0.31786 0.81577 0.0
C2062 C 0.97727 0.30652 0.83962 0.0
C2063 C 0.97936 0.32029 0.84655 0.0
C2064 C 0.98077 0.33282 0.83805 0.0
H2065 H 0.96737 0.33728 0.94028 0.0
H2066 H 0.97341 0.34128 0.91464 0.0
C2067 C 0.97967 0.33162 0.82277 0.0
C2068 C 0.97937 0.32149 0.86271 0.0
H2069 H 0.95787 0.33125 0.89119 0.0
C2070 C 0.99093 0.31544 0.87073 0.0
C2071 C 0.9675 0.32762 0.87016 0.0
C2072 C 0.95474 0.33409 0.86196 0.0
C2073 C 0.99076 0.31504 0.88608 0.0
C2074 C 0.97851 0.32048 0.89351 0.0
C2075 C 0.96724 0.32707 0.88548 0.0
C2076 C 0.97647 0.31833 0.90938 0.0
C2077 C 0.00368 0.30874 0.89415 0.0
C2078 C 0.9762 0.30412 0.91493 0.0
C2079 C 0.97279 0.30182 0.92953 0.0
C2080 C 0.96938 0.31367 0.93884 0.0
C2081 C 0.96985 0.32793 0.93334 0.0
C2082 C 0.97336 0.33023 0.91873 0.0
H2083 H 0.01388 0.31004 0.88786 0.0
H2084 H 0.00544 0.31404 0.90514 0.0
H2085 H 0.00165 0.29683 0.89559 0.0
H2086 H 0.97809 0.29472 0.90784 0.0
H2087 H 0.97224 0.29068 0.93335 0.0
H2088 H 0.29746 0.78584 0.32835 0.0
H2089 H 0.30348 0.77419 0.35139 0.0
H2090 H 0.28474 0.73324 0.33451 0.0
H2091 H 0.27865 0.7449 0.31123 0.0
H2092 H 0.28507 0.76018 0.37106 0.0
H2093 H 0.32586 0.7218 0.3484 0.0
H2094 H 0.31914 0.73702 0.33812 0.0
H2095 H 0.30774 0.72097 0.34025 0.0
C2096 C 0.29442 0.7744 0.32956 0.0
C2097 C 0.28751 0.76632 0.31794 0.0
C2098 C 0.29795 0.76773 0.34273 0.0
C2099 C 0.29471 0.75281 0.34463 0.0
C2100 C 0.28759 0.7447 0.33318 0.0
H2101 H 0.32744 0.7056 0.4218 0.0
H2102 H 0.31381 0.71043 0.39894 0.0
C2103 C 0.28409 0.75138 0.31991 0.0
C2104 C 0.29896 0.74601 0.35868 0.0
H2105 H 0.32333 0.72258 0.37391 0.0
C2106 C 0.29331 0.75182 0.37168 0.0
C2107 C 0.30955 0.73496 0.35947 0.0
C2108 C 0.31604 0.72833 0.34586 0.0
C2109 C 0.29841 0.74736 0.38545 0.0
C2110 C 0.30972 0.73705 0.38626 0.0
C2111 C 0.31475 0.73057 0.37327 0.0
C2112 C 0.31742 0.73395 0.40034 0.0
C2113 C 0.29174 0.75394 0.39899 0.0
C2114 C 0.32415 0.7455 0.40859 0.0
C2115 C 0.33182 0.74279 0.4216 0.0
C2116 C 0.33313 0.72842 0.42661 0.0
C2117 C 0.32659 0.71679 0.41824 0.0
C2118 C 0.31878 0.71954 0.40521 0.0
H2119 H 0.28025 0.75717 0.39677 0.0
H2120 H 0.29185 0.74618 0.40817 0.0
H2121 H 0.2981 0.76398 0.40245 0.0
H2122 H 0.32371 0.75665 0.40482 0.0
H2123 H 0.33707 0.75195 0.42755 0.0
H2124 H 0.96964 0.63159 0.69874 0.0
H2125 H 0.96378 0.64682 0.67774 0.0
H2126 H 0.98375 0.61546 0.64888 0.0
H2127 H 0.98994 0.60034 0.66976 0.0
H2128 H 0.98392 0.65858 0.65618 0.0
H2129 H 0.94128 0.62064 0.63178 0.0
H2130 H 0.9473 0.61995 0.65074 0.0
H2131 H 0.95814 0.61198 0.63658 0.0
C2132 C 0.97294 0.62803 0.68794 0.0
C2133 C 0.98015 0.6147 0.68587 0.0
C2134 C 0.96948 0.63668 0.67598 0.0
C2135 C 0.97306 0.63206 0.6618 0.0
C2136 C 0.9806 0.61899 0.65974 0.0
H2137 H 0.98254 0.65359 0.57583 0.0
H2138 H 0.97688 0.64285 0.59913 0.0
C2139 C 0.98411 0.61038 0.67166 0.0
C2140 C 0.96926 0.64093 0.64905 0.0
H2141 H 0.95128 0.6387 0.61591 0.0
C2142 C 0.97653 0.65447 0.64748 0.0
C2143 C 0.95955 0.63547 0.63784 0.0
C2144 C 0.95099 0.62127 0.63933 0.0
C2145 C 0.97521 0.66219 0.63444 0.0
C2146 C 0.96615 0.65629 0.62287 0.0
C2147 C 0.95817 0.6432 0.62483 0.0
C2148 C 0.96675 0.66221 0.60799 0.0
C2149 C 0.98433 0.67604 0.63275 0.0
C2150 C 0.96224 0.67643 0.605 0.0
C2151 C 0.96533 0.68263 0.59151 0.0
C2152 C 0.97299 0.67466 0.58088 0.0
C2153 C 0.97644 0.66002 0.5836 0.0
C2154 C 0.97332 0.65386 0.597 0.0
H2155 H 0.99221 0.67804 0.64207 0.0
H2156 H 0.99055 0.67547 0.62245 0.0
H2157 H 0.97701 0.68555 0.63212 0.0
H2158 H 0.95692 0.68294 0.6133 0.0
H2159 H 0.96232 0.69386 0.58967 0.0
H2160 H 0.81676 0.31474 0.63165 0.0
H2161 H 0.84167 0.31202 0.64147 0.0
H2162 H 0.83539 0.34788 0.67202 0.0
H2163 H 0.81059 0.35094 0.66206 0.0
H2164 H 0.86447 0.33402 0.64204 0.0
H2165 H 0.85203 0.3152 0.69786 0.0
H2166 H 0.83862 0.31443 0.68299 0.0
H2167 H 0.84281 0.33149 0.69253 0.0
C2168 C 0.82064 0.32209 0.64045 0.0
C2169 C 0.81159 0.33312 0.64599 0.0
C2170 C 0.83489 0.32045 0.6461 0.0
C2171 C 0.84038 0.32966 0.65756 0.0
C2172 C 0.83131 0.34048 0.66335 0.0
H2173 H 0.92207 0.3452 0.70492 0.0
H2174 H 0.89698 0.34427 0.69519 0.0
C2175 C 0.81708 0.34218 0.65765 0.0
C2176 C 0.8558 0.32843 0.66295 0.0
H2177 H 0.8768 0.32191 0.69347 0.0
C2178 C 0.86719 0.33125 0.65325 0.0
C2179 C 0.85933 0.32484 0.67758 0.0
C2180 C 0.84758 0.32119 0.68834 0.0
C2181 C 0.88199 0.33105 0.6579 0.0
C2182 C 0.88553 0.3276 0.67259 0.0
C2183 C 0.87412 0.32454 0.68222 0.0
C2184 C 0.90094 0.32782 0.67842 0.0
C2185 C 0.89366 0.33512 0.64718 0.0
C2186 C 0.9116 0.31877 0.67233 0.0
C2187 C 0.92607 0.31928 0.67791 0.0
C2188 C 0.9301 0.32869 0.68982 0.0
C2189 C 0.91934 0.33762 0.69592 0.0
C2190 C 0.90496 0.33716 0.69032 0.0
H2191 H 0.88906 0.341 0.63767 0.0
H2192 H 0.9024 0.34214 0.65256 0.0
H2193 H 0.89874 0.32499 0.64295 0.0
H2194 H 0.90872 0.31124 0.66334 0.0
H2195 H 0.93404 0.31217 0.67303 0.0
H2196 H 0.66879 0.70361 0.21078 0.0
H2197 H 0.64583 0.69675 0.22222 0.0
H2198 H 0.66377 0.711 0.2644 0.0
H2199 H 0.68677 0.7183 0.25294 0.0
H2200 H 0.6435 0.67575 0.24399 0.0
H2201 H 0.62291 0.72954 0.2632 0.0
H2202 H 0.63675 0.72794 0.24947 0.0
H2203 H 0.64152 0.72578 0.26847 0.0
C2204 C 0.66778 0.70564 0.22244 0.0
C2205 C 0.67963 0.71159 0.23092 0.0
C2206 C 0.65466 0.70161 0.22898 0.0
C2207 C 0.65303 0.70349 0.24413 0.0
C2208 C 0.66471 0.70966 0.25264 0.0
H2209 H 0.58512 0.67305 0.30226 0.0
H2210 H 0.60663 0.68495 0.29183 0.0
C2211 C 0.6779 0.71369 0.2461 0.0
C2212 C 0.63949 0.69794 0.25103 0.0
H2213 H 0.60967 0.70832 0.27036 0.0
C2214 C 0.63608 0.68289 0.24971 0.0
C2215 C 0.62989 0.70725 0.25858 0.0
C2216 C 0.63283 0.72356 0.25996 0.0
C2217 C 0.62336 0.67688 0.25575 0.0
C2218 C 0.61364 0.6862 0.26311 0.0
C2219 C 0.61711 0.70123 0.26463 0.0
C2220 C 0.59987 0.68038 0.26932 0.0
C2221 C 0.62053 0.66054 0.25442 0.0
C2222 C 0.58873 0.67426 0.26009 0.0
C2223 C 0.57633 0.66756 0.26599 0.0
C2224 C 0.57482 0.66684 0.28127 0.0
C2225 C 0.58578 0.67353 0.29046 0.0
C2226 C 0.59815 0.68028 0.28453 0.0
H2227 H 0.63054 0.65459 0.2514 0.0
H2228 H 0.61646 0.65618 0.26487 0.0
H2229 H 0.612 0.65821 0.24577 0.0
H2230 H 0.58976 0.67443 0.2483 0.0
H2231 H 0.56802 0.66278 0.25858 0.0
H2232 H 0.32568 1.00005 0.40903 0.0
H2233 H 0.34606 0.00471 0.39279 0.0
H2234 H 0.31755 0.02857 0.36408 0.0
H2235 H 0.29717 0.0244 0.38057 0.0
H2236 H 0.34809 0.9966 0.3634 0.0
H2237 H 0.35246 0.05714 0.37124 0.0
H2238 H 0.3422 0.0456 0.38332 0.0
H2239 H 0.33461 0.05006 0.36569 0.0
C2240 C 0.32377 0.00645 0.39937 0.0
C2241 C 0.30984 0.01197 0.39616 0.0
C2242 C 0.33541 0.00903 0.39006 0.0
C2243 C 0.33335 0.01719 0.37738 0.0
C2244 C 0.31942 0.0225 0.37397 0.0
H2245 H 0.39278 0.03709 0.30709 0.0
H2246 H 0.37182 0.03641 0.32336 0.0
C2247 C 0.30775 0.01994 0.38331 0.0
C2248 C 0.34579 0.01972 0.36759 0.0
H2249 H 0.36791 0.04643 0.35368 0.0
C2250 C 0.35244 0.00749 0.36129 0.0
C2251 C 0.35136 0.03396 0.36483 0.0
C2252 C 0.3449 0.04746 0.3717 0.0
C2253 C 0.36454 0.00909 0.35227 0.0
C2254 C 0.37027 0.0233 0.3497 0.0
C2255 C 0.36349 0.03557 0.35578 0.0
C2256 C 0.38337 0.02549 0.34077 0.0
C2257 C 0.37103 0.99557 0.34544 0.0
C2258 C 0.3969 0.02011 0.34548 0.0
C2259 C 0.40887 0.02053 0.33627 0.0
C2260 C 0.40751 0.02639 0.32222 0.0
C2261 C 0.39418 0.0326 0.3179 0.0
C2262 C 0.38219 0.03216 0.32713 0.0
H2263 H 0.36336 0.98595 0.34566 0.0
H2264 H 0.374 0.99749 0.3339 0.0
H2265 H 0.38116 0.99283 0.35164 0.0
H2266 H 0.39806 0.01516 0.3561 0.0
H2267 H 0.41908 0.01586 0.33996 0.0
H2268 H 0.18045 0.04468 0.66494 0.0
H2269 H 0.15558 0.03649 0.67056 0.0
H2270 H 0.17264 0.99858 0.69181 0.0
H2271 H 0.19769 0.00666 0.68612 0.0
H2272 H 0.14869 0.99396 0.66857 0.0
H2273 H 0.13609 0.03465 0.71229 0.0
H2274 H 0.14529 0.04211 0.69683 0.0
H2275 H 0.15457 0.02935 0.70827 0.0
C2276 C 0.17893 0.03463 0.67087 0.0
C2277 C 0.191 0.0263 0.67508 0.0
C2278 C 0.16475 0.03003 0.67416 0.0
C2279 C 0.16236 0.01702 0.6817 0.0
C2280 C 0.17434 0.00871 0.68607 0.0
H2281 H 0.0689 0.00513 0.69915 0.0
H2282 H 0.09517 0.0013 0.70321 0.0
C2283 C 0.18859 0.01337 0.68288 0.0
C2284 C 0.1472 0.0119 0.68415 0.0
H2285 H 0.11557 0.02318 0.6994 0.0
C2286 C 0.14148 1.00007 0.67558 0.0
C2287 C 0.13792 0.01977 0.69347 0.0
C2288 C 0.14376 0.03211 0.70336 0.0
C2289 C 0.1264 0.9967 0.67519 0.0
C2290 C 0.11691 0.00549 0.68346 0.0
C2291 C 0.12284 0.01649 0.69299 0.0
C2292 C 0.10087 0.0051 0.68073 0.0
C2293 C 0.12072 0.98416 0.66545 0.0
C2294 C 0.09538 0.00832 0.66673 0.0
C2295 C 0.0805 0.01063 0.66441 0.0
C2296 C 0.07073 0.00984 0.67607 0.0
C2297 C 0.07614 0.00592 0.68997 0.0
C2298 C 0.09111 0.00365 0.69229 0.0
H2299 H 0.12905 0.97555 0.66436 0.0
H2300 H 0.11052 0.97917 0.66974 0.0
H2301 H 0.1183 0.98829 0.65434 0.0
H2302 H 0.10275 0.00995 0.65775 0.0
H2303 H 0.07685 0.01399 0.65366 0.0
H2304 H 0.67418 0.80517 0.34169 0.0
H2305 H 0.68621 0.82907 0.33787 0.0
H2306 H 0.64428 0.8476 0.32776 0.0
H2307 H 0.63223 0.82385 0.3314 0.0
H2308 H 0.68625 0.84842 0.31348 0.0
H2309 H 0.66054 0.87351 0.36216 0.0
H2310 H 0.66074 0.85394 0.35889 0.0
H2311 H 0.64771 0.8649 0.34928 0.0
C2312 C 0.66754 0.81428 0.33846 0.0
C2313 C 0.65219 0.8126 0.33708 0.0
C2314 C 0.67443 0.82795 0.33634 0.0
C2315 C 0.66611 0.8402 0.33283 0.0
C2316 C 0.65089 0.8384 0.3308 0.0
H2317 H 0.68195 0.93343 0.32317 0.0
H2318 H 0.67183 0.90838 0.32301 0.0
C2319 C 0.64401 0.82479 0.33292 0.0
C2320 C 0.67318 0.85499 0.33171 0.0
H2321 H 0.6732 0.88966 0.34663 0.0
C2322 C 0.68348 0.85743 0.32077 0.0
C2323 C 0.66957 0.86674 0.34124 0.0
C2324 C 0.65914 0.86467 0.35365 0.0
C2325 C 0.68995 0.8714 0.31888 0.0
C2326 C 0.68619 0.88318 0.32832 0.0
C2327 C 0.67601 0.88067 0.33933 0.0
C2328 C 0.69266 0.89822 0.3271 0.0
C2329 C 0.70046 0.87354 0.30657 0.0
C2330 C 0.70777 0.90088 0.32934 0.0
C2331 C 0.71359 0.91523 0.32951 0.0
C2332 C 0.7044 0.92725 0.32755 0.0
C2333 C 0.68933 0.92448 0.32491 0.0
C2334 C 0.68353 0.91015 0.32475 0.0
H2335 H 0.69936 0.86456 0.29817 0.0
H2336 H 0.69866 0.88415 0.30118 0.0
H2337 H 0.71185 0.87365 0.31107 0.0
H2338 H 0.71501 0.89191 0.33147 0.0
H2339 H 0.7252 0.91694 0.3318 0.0
H2340 H 0.69196 0.18965 0.04142 0.0
H2341 H 0.69831 0.16419 0.03611 0.0
H2342 H 0.66831 0.1629 0.99889 0.0
H2343 H 0.66209 0.18841 0.00398 0.0
H2344 H 0.67611 0.14217 0.03637 0.0
H2345 H 0.70471 0.14176 0.98337 0.0
H2346 H 0.70353 0.15804 0.99489 0.0
H2347 H 0.68811 0.15197 0.98358 0.0
C2348 C 0.68702 0.18405 0.03188 0.0
C2349 C 0.67645 0.19093 0.02317 0.0
C2350 C 0.69064 0.16954 0.02887 0.0
C2351 C 0.6839 0.16176 0.01702 0.0
C2352 C 0.67384 0.16881 0.00792 0.0
H2353 H 0.66422 0.07156 0.99701 0.0
H2354 H 0.66862 0.09802 0.99506 0.0
C2355 C 0.67015 0.1833 0.01096 0.0
C2356 C 0.68572 0.14579 0.01543 0.0
H2357 H 0.69596 0.11858 0.99176 0.0
C2358 C 0.68065 0.13702 0.02672 0.0
C2359 C 0.69147 0.13917 0.00272 0.0
C2360 C 0.69739 0.1482 0.99047 0.0
C2361 C 0.68082 0.12173 0.02552 0.0
C2362 C 0.68649 0.11507 0.01279 0.0
C2363 C 0.69171 0.1238 0.00151 0.0
C2364 C 0.68645 0.09899 0.01108 0.0
C2365 C 0.67453 0.11278 0.03769 0.0
C2366 C 0.69552 0.0908 0.02018 0.0
C2367 C 0.69295 0.07577 0.02144 0.0
C2368 C 0.68127 0.06872 0.01357 0.0
C2369 C 0.67314 0.07675 0.00337 0.0
C2370 C 0.67571 0.09181 0.00216 0.0
H2371 H 0.66831 0.11958 0.04552 0.0
H2372 H 0.66713 0.10389 0.03313 0.0
H2373 H 0.68358 0.1076 0.04385 0.0
H2374 H 0.70387 0.09622 0.02713 0.0
H2375 H 0.69935 0.06999 0.02949 0.0
H2376 H 0.24662 0.68906 0.6914 0.0
H2377 H 0.25794 0.66576 0.68541 0.0
H2378 H 0.24151 0.64747 0.72509 0.0
H2379 H 0.23018 0.67082 0.73125 0.0
H2380 H 0.27846 0.64865 0.70033 0.0
H2381 H 0.22455 0.61948 0.69284 0.0
H2382 H 0.22626 0.6392 0.69422 0.0
H2383 H 0.22778 0.62843 0.71038 0.0
C2384 C 0.24562 0.68019 0.69902 0.0
C2385 C 0.23741 0.68181 0.71178 0.0
C2386 C 0.25205 0.66684 0.69553 0.0
C2387 C 0.25037 0.6548 0.70468 0.0
C2388 C 0.24269 0.65652 0.71772 0.0
H2389 H 0.2972 0.57274 0.68858 0.0
H2390 H 0.28757 0.5946 0.70071 0.0
C2391 C 0.23623 0.66988 0.72122 0.0
C2392 C 0.25621 0.64035 0.70017 0.0
H2393 H 0.24562 0.60558 0.68923 0.0
C2394 C 0.27132 0.63919 0.69801 0.0
C2395 C 0.24682 0.62806 0.69702 0.0
C2396 C 0.23044 0.6288 0.6986 0.0
C2397 C 0.27729 0.62613 0.6926 0.0
C2398 C 0.26788 0.61386 0.6894 0.0
C2399 C 0.25281 0.61496 0.69178 0.0
C2400 C 0.27328 0.60014 0.68254 0.0
C2401 C 0.29351 0.62575 0.68982 0.0
C2402 C 0.26808 0.59571 0.66852 0.0
C2403 C 0.27353 0.58325 0.66157 0.0
C2404 C 0.28426 0.57484 0.66853 0.0
C2405 C 0.2891 0.57905 0.68281 0.0
C2406 C 0.28364 0.59156 0.68975 0.0
H2407 H 0.29867 0.63691 0.69003 0.0
H2408 H 0.29898 0.61932 0.69845 0.0
H2409 H 0.29558 0.62038 0.67906 0.0
H2410 H 0.26007 0.60216 0.66275 0.0
H2411 H 0.2697 0.58052 0.65051 0.0
H2412 H 0.38359 0.30815 0.99412 0.0
H2413 H 0.36743 0.32895 0.99732 0.0
H2414 H 0.38578 0.33723 0.04075 0.0
H2415 H 0.40202 0.31648 0.03762 0.0
H2416 H 0.34638 0.33528 0.01818 0.0
H2417 H 0.39231 0.37637 0.02081 0.0
H2418 H 0.39469 0.35763 0.0148 0.0
H2419 H 0.39363 0.36215 0.034 0.0
C2420 C 0.38406 0.3143 0.00442 0.0
C2421 C 0.39418 0.31078 0.01557 0.0
C2422 C 0.37486 0.3262 0.00621 0.0
C2423 C 0.37562 0.33479 0.01916 0.0
C2424 C 0.38528 0.33095 0.03053 0.0
H2425 H 0.33083 0.41539 0.04286 0.0
H2426 H 0.34538 0.39312 0.04375 0.0
C2427 C 0.39453 0.3191 0.02873 0.0
C2428 C 0.36652 0.34794 0.02059 0.0
H2429 H 0.36856 0.38524 0.02448 0.0
C2430 C 0.35122 0.3462 0.01959 0.0
C2431 C 0.37288 0.36218 0.02243 0.0
C2432 C 0.38928 0.36477 0.02295 0.0
C2433 C 0.34208 0.35834 0.02037 0.0
C2434 C 0.34846 0.37256 0.022 0.0
C2435 C 0.36374 0.37429 0.02328 0.0
C2436 C 0.33952 0.38586 0.02163 0.0
C2437 C 0.32569 0.35586 0.01948 0.0
C2438 C 0.33164 0.3892 0.00883 0.0
C2439 C 0.32342 0.40188 0.00827 0.0
C2440 C 0.32295 0.41149 0.0205 0.0
C2441 C 0.33094 0.40816 0.0333 0.0
C2442 C 0.33924 0.39548 0.03382 0.0
H2443 H 0.32252 0.34441 0.02211 0.0
H2444 H 0.3201 0.36346 0.02708 0.0
H2445 H 0.32169 0.35796 0.00817 0.0
H2446 H 0.3319 0.38202 0.99923 0.0
H2447 H 0.31721 0.40402 0.99832 0.0
H2448 H 0.32224 0.66233 0.80404 0.0
H2449 H 0.3198 0.67301 0.82879 0.0
H2450 H 0.34305 0.6368 0.84689 0.0
H2451 H 0.34578 0.62626 0.82233 0.0
H2452 H 0.3066 0.66058 0.85411 0.0
H2453 H 0.36582 0.6733 0.86342 0.0
H2454 H 0.35791 0.66922 0.84544 0.0
H2455 H 0.36183 0.65464 0.85773 0.0
C2456 C 0.32692 0.6567 0.81329 0.0
C2457 C 0.3342 0.64342 0.81117 0.0
C2458 C 0.32543 0.66277 0.82743 0.0
C2459 C 0.33136 0.65577 0.83968 0.0
C2460 C 0.33853 0.64249 0.8376 0.0
H2461 H 0.31425 0.66957 0.93276 0.0
H2462 H 0.31452 0.66024 0.90741 0.0
C2463 C 0.33996 0.6364 0.82353 0.0
C2464 C 0.33016 0.66229 0.85469 0.0
H2465 H 0.35073 0.67507 0.88418 0.0
C2466 C 0.31623 0.66384 0.86068 0.0
C2467 C 0.34271 0.66669 0.86319 0.0
C2468 C 0.35792 0.66603 0.8571 0.0
C2469 C 0.31455 0.66937 0.87505 0.0
C2470 C 0.32716 0.67325 0.88375 0.0
C2471 C 0.34106 0.67196 0.87761 0.0
C2472 C 0.3263 0.67904 0.89911 0.0
C2473 C 0.29929 0.67123 0.88069 0.0
C2474 C 0.33307 0.69257 0.90303 0.0
C2475 C 0.33319 0.69778 0.91754 0.0
C2476 C 0.32649 0.68964 0.92858 0.0
C2477 C 0.31958 0.67612 0.92462 0.0
C2478 C 0.31955 0.67086 0.91005 0.0
H2479 H 0.29104 0.67171 0.87158 0.0
H2480 H 0.29635 0.66171 0.88746 0.0
H2481 H 0.29862 0.68134 0.8876 0.0
H2482 H 0.33845 0.69906 0.89485 0.0
H2483 H 0.33893 0.70806 0.92013 0.0
H2484 H 0.01257 0.65573 0.18958 0.0
H2485 H 0.00417 0.66145 0.16478 0.0
H2486 H 0.03797 0.69508 0.16261 0.0
H2487 H 0.04632 0.68954 0.18756 0.0
H2488 H 0.011 0.70325 0.15 0.0
H2489 H 0.02795 0.64849 0.12973 0.0
H2490 H 0.01517 0.64781 0.14435 0.0
H2491 H 0.0332 0.65571 0.14768 0.0
C2492 C 0.01822 0.66434 0.1838 0.0
C2493 C 0.03026 0.67202 0.19036 0.0
C2494 C 0.01338 0.66762 0.16969 0.0
C2495 C 0.02062 0.67851 0.16181 0.0
C2496 C 0.03227 0.68662 0.16853 0.0
H2497 H 0.03062 0.69826 0.07322 0.0
H2498 H 0.02853 0.7011 0.09963 0.0
C2499 C 0.03704 0.68343 0.18273 0.0
C2500 C 0.0167 0.68072 0.14623 0.0
H2501 H 0.01585 0.66333 0.11277 0.0
C2502 C 0.01199 0.69453 0.14184 0.0
C2503 C 0.01812 0.66932 0.13563 0.0
C2504 C 0.02401 0.65454 0.13952 0.0
C2505 C 0.00867 0.69722 0.12706 0.0
C2506 C 0.01007 0.6858 0.11655 0.0
C2507 C 0.01455 0.67197 0.12097 0.0
C2508 C 0.0085 0.6881 0.10067 0.0
C2509 C 0.0038 0.71218 0.12267 0.0
C2510 C 0.99752 0.68044 0.09247 0.0
C2511 C 0.99856 0.67894 0.07728 0.0
C2512 C 0.01078 0.6848 0.07013 0.0
C2513 C 0.02098 0.69369 0.07827 0.0
C2514 C 0.01984 0.69532 0.09343 0.0
H2515 H 1.00078 0.71904 0.13229 0.0
H2516 H 0.01284 0.71786 0.11699 0.0
H2517 H 0.99427 0.7112 0.11489 0.0
H2518 H 0.98873 0.67475 0.09793 0.0
H2519 H 0.99036 0.67229 0.07129 0.0
H2520 H 0.68706 0.23876 0.68782 0.0
H2521 H 0.68091 0.24988 0.6645 0.0
H2522 H 0.72584 0.24658 0.65145 0.0
H2523 H 0.73204 0.23517 0.67479 0.0
H2524 H 0.69064 0.2748 0.65206 0.0
H2525 H 0.70438 0.22663 0.61703 0.0
H2526 H 0.70324 0.22562 0.63668 0.0
H2527 H 0.71913 0.23381 0.62861 0.0
C2528 C 0.69568 0.24053 0.68007 0.0
C2529 C 0.71004 0.23608 0.68317 0.0
C2530 C 0.69213 0.24684 0.6667 0.0
C2531 C 0.70284 0.24887 0.6561 0.0
C2532 C 0.7173 0.2448 0.65929 0.0
H2533 H 0.68792 0.28716 0.56915 0.0
H2534 H 0.70032 0.27831 0.59133 0.0
C2535 C 0.72085 0.23835 0.67266 0.0
C2536 C 0.69865 0.25518 0.64177 0.0
H2537 H 0.69573 0.24741 0.60497 0.0
C2538 C 0.69185 0.26884 0.64177 0.0
C2539 C 0.70028 0.24743 0.62829 0.0
C2540 C 0.70704 0.23251 0.62758 0.0
C2541 C 0.68633 0.27476 0.62877 0.0
C2542 C 0.68756 0.26681 0.61542 0.0
C2543 C 0.69483 0.25345 0.61526 0.0
C2544 C 0.68029 0.27168 0.60177 0.0
C2545 C 0.67896 0.28938 0.62939 0.0
C2546 C 0.66499 0.27061 0.60024 0.0
C2547 C 0.65792 0.27554 0.58762 0.0
C2548 C 0.666 0.28171 0.57627 0.0
C2549 C 0.68139 0.28254 0.57773 0.0
C2550 C 0.68848 0.27747 0.59035 0.0
H2551 H 0.68145 0.29545 0.63987 0.0
H2552 H 0.68243 0.29626 0.62016 0.0
H2553 H 0.66691 0.28758 0.62835 0.0
H2554 H 0.6585 0.2661 0.60892 0.0
H2555 H 0.64606 0.27493 0.58697 0.0
H2556 H 0.03295 0.38849 0.30495 0.0
H2557 H 0.03795 0.37193 0.32515 0.0
H2558 H 0.99544 0.38051 0.3426 0.0
H2559 H 0.99026 0.39686 0.32237 0.0
H2560 H 0.03783 0.37936 0.356 0.0
H2561 H 0.99738 0.33514 0.34024 0.0
H2562 H 0.00358 0.34871 0.32755 0.0
H2563 H 0.98998 0.3532 0.34073 0.0
C2564 C 0.0246 0.38669 0.31299 0.0
C2565 C 0.01121 0.39396 0.31207 0.0
C2566 C 0.02751 0.37732 0.32455 0.0
C2567 C 0.01701 0.37493 0.33526 0.0
C2568 C 0.00361 0.38209 0.33433 0.0
H2569 H 0.02205 0.34317 0.42309 0.0
H2570 H 0.02177 0.35799 0.40109 0.0
C2571 C 1.00072 0.39151 0.32284 0.0
C2572 C 0.02015 0.36529 0.34769 0.0
H2573 H 0.0078 0.33447 0.36435 0.0
C2574 C 0.03137 0.36947 0.35779 0.0
C2575 C 0.01181 0.35232 0.34985 0.0
C2576 C 1.0001 0.34696 0.33896 0.0
C2577 C 0.03415 0.36125 0.37033 0.0
C2578 C 0.02534 0.34865 0.37284 0.0
C2579 C 0.01446 0.34421 0.36246 0.0
C2580 C 0.02692 0.34005 0.38632 0.0
C2581 C 0.04647 0.3661 0.38075 0.0
C2582 C 0.02985 0.32506 0.3853 0.0
C2583 C 0.02985 0.31654 0.3978 0.0
C2584 C 0.02686 0.32284 0.41159 0.0
C2585 C 0.02432 0.33797 0.41263 0.0
C2586 C 0.02431 0.34648 0.4001 0.0
H2587 H 0.0546 0.37329 0.37533 0.0
H2588 H 0.04191 0.37242 0.39004 0.0
H2589 H 0.05221 0.35653 0.38524 0.0
H2590 H 0.03177 0.31987 0.37475 0.0
H2591 H 0.03158 0.30489 0.39654 0.0
H2592 H 0.30357 0.60793 0.45643 0.0
H2593 H 0.30421 0.59479 0.47939 0.0
H2594 H 0.2621 0.6119 0.49032 0.0
H2595 H 0.26132 0.62502 0.46717 0.0
H2596 H 0.30424 0.60582 0.50707 0.0
H2597 H 0.25571 0.5687 0.49774 0.0
H2598 H 0.26371 0.57909 0.48323 0.0
H2599 H 0.25195 0.58782 0.49614 0.0
C2600 C 0.29443 0.60893 0.46372 0.0
C2601 C 0.28241 0.61758 0.45998 0.0
C2602 C 0.29479 0.60135 0.47683 0.0
C2603 C 0.28314 0.60219 0.48655 0.0
C2604 C 0.27108 0.61079 0.48287 0.0
H2605 H 0.27516 0.56818 0.57485 0.0
H2606 H 0.27106 0.58072 0.55169 0.0
C2607 C 0.27066 0.61833 0.46965 0.0
C2608 C 0.28406 0.59448 0.50072 0.0
H2609 H 0.26737 0.56829 0.52121 0.0
C2610 C 0.29618 0.5976 0.51013 0.0
C2611 C 0.27351 0.58378 0.50476 0.0
C2612 C 0.26054 0.57952 0.4949 0.0
C2613 C 0.29807 0.59031 0.52339 0.0
C2614 C 0.28765 0.57951 0.52732 0.0
C2615 C 0.27537 0.57655 0.51811 0.0
C2616 C 0.28949 0.57109 0.54094 0.0
C2617 C 0.31118 0.5943 0.53317 0.0
C2618 C 0.30099 0.56126 0.54242 0.0
C2619 C 0.30335 0.55405 0.5556 0.0
C2620 C 0.29426 0.55659 0.56759 0.0
C2621 C 0.28245 0.56611 0.56588 0.0
C2622 C 0.28005 0.57323 0.55265 0.0
H2623 H 0.31647 0.60484 0.5301 0.0
H2624 H 0.30795 0.59514 0.54481 0.0
H2625 H 0.31939 0.58558 0.53224 0.0
H2626 H 0.30832 0.55937 0.53345 0.0
H2627 H 0.31261 0.54691 0.55658 0.0
H2628 H 0.2225 0.34647 0.86342 0.0
H2629 H 0.22849 0.36425 0.88313 0.0
H2630 H 0.25611 0.33281 0.90406 0.0
H2631 H 0.25035 0.315 0.8841 0.0
H2632 H 0.22316 0.36281 0.91171 0.0
H2633 H 0.28319 0.36831 0.90417 0.0
H2634 H 0.27113 0.3591 0.89082 0.0
H2635 H 0.27688 0.34987 0.90709 0.0
C2636 C 0.22983 0.34332 0.87224 0.0
C2637 C 0.23592 0.32933 0.87225 0.0
C2638 C 0.23329 0.35352 0.88347 0.0
C2639 C 0.2429 0.34996 0.89499 0.0
C2640 C 0.24896 0.33594 0.89511 0.0
H2641 H 0.26641 0.39785 0.97592 0.0
H2642 H 0.26232 0.37908 0.95658 0.0
C2643 C 0.2456 0.32575 0.88375 0.0
C2644 C 0.24607 0.36086 0.90705 0.0
H2645 H 0.27361 0.38054 0.92497 0.0
C2646 C 0.2342 0.3667 0.91456 0.0
C2647 C 0.26049 0.36594 0.91079 0.0
C2648 C 0.27365 0.3606 0.90272 0.0
C2649 C 0.23633 0.37746 0.92566 0.0
C2650 C 0.25069 0.38253 0.92934 0.0
C2651 C 0.26261 0.3766 0.92204 0.0
C2652 C 0.25348 0.39402 0.94082 0.0
C2653 C 0.22324 0.38329 0.9335 0.0
C2654 C 0.24996 0.40863 0.93825 0.0
C2655 C 0.25229 0.41941 0.94927 0.0
C2656 C 0.25806 0.41567 0.96306 0.0
C2657 C 0.2617 0.40102 0.96549 0.0
C2658 C 0.25949 0.3903 0.95445 0.0
H2659 H 0.21309 0.37671 0.93086 0.0
H2660 H 0.22526 0.38339 0.94554 0.0
H2661 H 0.22143 0.39476 0.93023 0.0
H2662 H 0.24537 0.41168 0.92774 0.0
H2663 H 0.24938 0.43059 0.94708 0.0
H2664 H 0.74716 0.97164 0.49718 0.0
H2665 H 0.73089 0.97899 0.47706 0.0
H2666 H 0.74218 0.02441 0.48653 0.0
H2667 H 0.75838 0.01721 0.50666 0.0
H2668 H 0.70614 0.99945 0.47802 0.0
H2669 H 0.75209 0.01711 0.44283 0.0
H2670 H 0.75482 0.00548 0.45831 0.0
H2671 H 0.75208 0.02473 0.46115 0.0
C2672 C 0.7462 0.98319 0.49493 0.0
C2673 C 0.75417 0.99385 0.50336 0.0
C2674 C 0.73685 0.98736 0.48354 0.0
C2675 C 0.73537 0.00222 0.48041 0.0
C2676 C 0.74329 0.01288 0.48877 0.0
H2677 H 0.70614 0.02741 0.39639 0.0
H2678 H 0.70628 0.03276 0.4226 0.0
C2679 C 0.75265 0.00873 0.50013 0.0
C2680 C 0.72611 0.00649 0.46788 0.0
H2681 H 0.72843 0.01858 0.43311 0.0
C2682 C 0.71091 0.00384 0.46822 0.0
C2683 C 0.73241 0.01235 0.45527 0.0
C2684 C 0.74875 0.01502 0.45423 0.0
C2685 C 0.70188 0.00638 0.45593 0.0
C2686 C 0.70831 0.01146 0.44301 0.0
C2687 C 0.72341 0.01489 0.44306 0.0
C2688 C 0.70068 0.01055 0.42854 0.0
C2689 C 0.68565 0.00323 0.4568 0.0
C2690 C 0.6958 0.99672 0.42316 0.0
C2691 C 0.69541 0.99371 0.40813 0.0
C2692 C 0.70025 0.00439 0.39839 0.0
C2693 C 0.70257 0.01888 0.40362 0.0
C2694 C 0.70266 0.02196 0.41866 0.0
H2695 H 0.68173 0.00579 0.46798 0.0
H2696 H 0.67928 0.00961 0.44875 0.0
H2697 H 0.68344 0.99137 0.45455 0.0
H2698 H 0.69422 0.98769 0.43048 0.0
H2699 H 0.69308 0.98256 0.4043 0.0
H2700 H 0.70501 0.01741 0.21079 0.0
H2701 H 0.70686 0.01766 0.18434 0.0
H2702 H 0.75388 0.02282 0.18859 0.0
H2703 H 0.75209 0.02237 0.21546 0.0
H2704 H 0.71813 0.03916 0.16699 0.0
H2705 H 0.74814 0.98699 0.16063 0.0
H2706 H 0.73956 0.99217 0.17753 0.0
H2707 H 0.75631 0.00114 0.17242 0.0
C2708 C 0.71575 0.01891 0.20617 0.0
C2709 C 0.7284 0.0201 0.2152 0.0
C2710 C 0.7168 0.01892 0.19103 0.0
C2711 C 0.7305 0.02015 0.18452 0.0
C2712 C 0.74322 0.02164 0.19343 0.0
H2713 H 0.7199 0.03106 0.08997 0.0
H2714 H 0.73263 0.03273 0.11389 0.0
C2715 C 0.74218 0.02149 0.20872 0.0
C2716 C 0.73103 0.0198 0.16836 0.0
H2717 H 0.73898 0.99756 0.13916 0.0
C2718 C 0.72297 0.03026 0.16084 0.0
C2719 C 0.73724 0.00805 0.16047 0.0
C2720 C 0.74574 0.99636 0.16811 0.0
C2721 C 0.72015 0.02884 0.14575 0.0
C2722 C 0.72597 0.01687 0.1379 0.0
C2723 C 0.73469 0.00679 0.14525 0.0
C2724 C 0.72141 0.0138 0.12251 0.0
C2725 C 0.71006 0.03956 0.13854 0.0
C2726 C 0.71155 0.00211 0.11926 0.0
C2727 C 0.70426 0.00114 0.10566 0.0
C2728 C 0.70674 0.01187 0.09514 0.0
C2729 C 0.7176 0.02281 0.09799 0.0
C2730 C 0.72492 0.02373 0.11158 0.0
H2731 H 0.70465 0.04676 0.14665 0.0
H2732 H 0.71645 0.04662 0.13116 0.0
H2733 H 0.70142 0.03363 0.13182 0.0
H2734 H 0.70869 0.99436 0.1276 0.0
H2735 H 0.69592 0.99262 0.10381 0.0
H2736 H 0.46934 0.30042 0.6293 0.0
H2737 H 0.49255 0.30056 0.61661 0.0
H2738 H 0.47892 0.26125 0.59246 0.0
H2739 H 0.45531 0.26139 0.60466 0.0
H2740 H 0.51449 0.281 0.61505 0.0
H2741 H 0.48956 0.2884 0.55966 0.0
H2742 H 0.47925 0.29039 0.57617 0.0
H2743 H 0.48312 0.27245 0.56894 0.0
C2744 C 0.47119 0.29185 0.6212 0.0
C2745 C 0.46031 0.28103 0.61784 0.0
C2746 C 0.48454 0.29189 0.61403 0.0
C2747 C 0.48739 0.2811 0.60334 0.0
C2748 C 0.47685 0.26989 0.6004 0.0
H2749 H 0.56536 0.27569 0.54842 0.0
H2750 H 0.54237 0.26954 0.56052 0.0
C2751 C 0.46341 0.26988 0.60754 0.0
C2752 C 0.50133 0.28188 0.59522 0.0
H2753 H 0.51527 0.28665 0.56116 0.0
C2754 C 0.51464 0.28215 0.60326 0.0
C2755 C 0.50155 0.28337 0.57981 0.0
C2756 C 0.48762 0.28377 0.57062 0.0
C2757 C 0.52812 0.2841 0.59636 0.0
C2758 C 0.52831 0.28595 0.58103 0.0
C2759 C 0.51507 0.2852 0.57291 0.0
C2760 C 0.54205 0.28968 0.57343 0.0
C2761 C 0.54208 0.2843 0.60554 0.0
C2762 C 0.54927 0.30317 0.57642 0.0
C2763 C 0.56224 0.30681 0.56941 0.0
C2764 C 0.56838 0.297 0.55926 0.0
C2765 C 0.56093 0.28357 0.55607 0.0
C2766 C 0.54784 0.27998 0.56304 0.0
H2767 H 0.54044 0.27915 0.6163 0.0
H2768 H 0.55089 0.2785 0.59974 0.0
H2769 H 0.54584 0.29583 0.6076 0.0
H2770 H 0.54481 0.31094 0.58417 0.0
H2771 H 0.56742 0.31739 0.5719 0.0
H2772 H 0.22293 0.69925 0.02331 0.0
H2773 H 0.19653 0.69384 0.02324 0.0
H2774 H 0.18788 0.73976 0.01863 0.0
H2775 H 0.21417 0.74527 0.01855 0.0
H2776 H 0.1696 0.72522 0.03872 0.0
H2777 H 0.17152 0.69585 0.98497 0.0
H2778 H 0.18413 0.68916 0.9985 0.0
H2779 H 0.18639 0.70752 0.99208 0.0
C2780 C 0.2154 0.7082 0.02242 0.0
C2781 C 0.22063 0.72266 0.02088 0.0
C2782 C 0.20036 0.70509 0.02234 0.0
C2783 C 0.19033 0.71639 0.02063 0.0
C2784 C 0.19548 0.73091 0.01989 0.0
H2785 H 0.09392 0.71039 0.01527 0.0
H2786 H 0.11907 0.72041 0.01461 0.0
C2787 C 0.21051 0.73403 0.01997 0.0
C2788 C 0.17449 0.71296 0.0191 0.0
H2789 H 0.14934 0.69335 0.99803 0.0
C2790 C 0.1651 0.71837 0.02978 0.0
C2791 C 0.16871 0.70425 0.00724 0.0
C2792 C 0.17817 0.69897 0.99495 0.0
C2793 C 0.15012 0.71458 0.02936 0.0
C2794 C 0.14447 0.7053 0.01786 0.0
C2795 C 0.15377 0.70039 0.00687 0.0
C2796 C 0.12925 0.6995 0.01771 0.0
C2797 C 0.14056 0.72001 0.0415 0.0
C2798 C 0.12674 0.68442 0.01928 0.0
C2799 C 0.11249 0.67869 0.01954 0.0
C2800 C 0.10046 0.68792 0.01821 0.0
C2801 C 0.10299 0.70302 0.01633 0.0
C2802 C 0.11731 0.70876 0.01607 0.0
H2803 H 0.14711 0.72501 0.05081 0.0
H2804 H 0.13315 0.72843 0.03718 0.0
H2805 H 0.13366 0.7109 0.04565 0.0
H2806 H 0.13584 0.6771 0.02045 0.0
H2807 H 0.11089 0.66698 0.02068 0.0
H2808 H 0.87661 0.26314 0.32062 0.0
H2809 H 0.89608 0.2686 0.33897 0.0
H2810 H 0.89666 0.22304 0.35028 0.0
H2811 H 0.87696 0.21751 0.33236 0.0
H2812 H 0.89365 0.26203 0.37018 0.0
H2813 H 0.94057 0.235 0.34395 0.0
H2814 H 0.92447 0.24038 0.33371 0.0
H2815 H 0.92391 0.22414 0.34443 0.0
C2816 C 0.88087 0.25427 0.327 0.0
C2817 C 0.87517 0.23987 0.32498 0.0
C2818 C 0.89205 0.25741 0.33741 0.0
C2819 C 0.89787 0.2462 0.34586 0.0
C2820 C 0.89248 0.2318 0.34368 0.0
H2821 H 0.96149 0.23813 0.41652 0.0
H2822 H 0.94294 0.23434 0.39691 0.0
C2823 C 0.88124 0.22866 0.33336 0.0
C2824 C 0.90893 0.24962 0.35763 0.0
H2825 H 0.94396 0.24273 0.36879 0.0
C2826 C 0.90471 0.25794 0.36986 0.0
C2827 C 0.92326 0.24416 0.35716 0.0
C2828 C 0.92843 0.23551 0.34407 0.0
C2829 C 0.91433 0.26058 0.3819 0.0
C2830 C 0.92869 0.25505 0.38149 0.0
C2831 C 0.93295 0.24691 0.36912 0.0
C2832 C 0.93945 0.25745 0.39381 0.0
C2833 C 0.90884 0.26882 0.39511 0.0
C2834 C 0.94365 0.27169 0.39859 0.0
C2835 C 0.95413 0.27387 0.40988 0.0
C2836 C 0.96079 0.26184 0.41645 0.0
C2837 C 0.95657 0.24759 0.41164 0.0
C2838 C 0.94599 0.24543 0.40044 0.0
H2839 H 0.89668 0.26852 0.3954 0.0
H2840 H 0.91323 0.26425 0.40544 0.0
H2841 H 0.9125 0.28048 0.39465 0.0
H2842 H 0.93907 0.28114 0.39338 0.0
H2843 H 0.95738 0.28497 0.41315 0.0
H2844 H 0.49855 0.7454 0.97143 0.0
H2845 H 0.47741 0.72995 0.97715 0.0
H2846 H 0.47698 0.74924 0.0207 0.0
H2847 H 0.49871 0.76412 0.01538 0.0
H2848 H 0.47493 0.71965 0.02126 0.0
H2849 H 0.43521 0.74036 0.98032 0.0
H2850 H 0.45167 0.73419 0.97208 0.0
H2851 H 0.45244 0.74971 0.98464 0.0
C2852 C 0.49392 0.74642 0.98221 0.0
C2853 C 0.50035 0.75596 0.99297 0.0
C2854 C 0.48175 0.73768 0.98541 0.0
C2855 C 0.47557 0.73854 0.99931 0.0
C2856 C 0.48161 0.74843 0.00991 0.0
H2857 H 0.39521 0.70822 0.0297 0.0
H2858 H 0.42081 0.71585 0.03081 0.0
C2859 C 0.4939 0.75707 0.00677 0.0
C2860 C 0.46316 0.72871 0.00295 0.0
H2861 H 0.42848 0.71827 0.99198 0.0
C2862 C 0.46475 0.71937 0.0149 0.0
C2863 C 0.44989 0.72842 0.99465 0.0
C2864 C 0.44712 0.73881 0.98231 0.0
C2865 C 0.45337 0.70966 0.01869 0.0
C2866 C 0.44031 0.70923 0.0102 0.0
C2867 C 0.43873 0.71849 0.99826 0.0
C2868 C 0.42737 0.7004 0.0141 0.0
C2869 C 0.45525 0.69997 0.03169 0.0
C2870 C 0.42293 0.68836 0.00516 0.0
C2871 C 0.40824 0.6837 0.00467 0.0
C2872 C 0.39783 0.6914 0.01274 0.0
C2873 C 0.40282 0.70201 0.02326 0.0
C2874 C 0.41752 0.70648 0.02391 0.0
H2875 H 0.46658 0.70064 0.03641 0.0
H2876 H 0.44751 0.70327 0.0403 0.0
H2877 H 0.45252 0.68841 0.02845 0.0
H2878 H 0.43045 0.68355 0.99752 0.0
H2879 H 0.40482 0.67519 0.99678 0.0
H2880 H 0.60652 0.45674 0.26054 0.0
H2881 H 0.59456 0.48052 0.26025 0.0
H2882 H 0.61588 0.49256 0.30155 0.0
H2883 H 0.6283 0.46924 0.30161 0.0
H2884 H 0.57534 0.49123 0.27965 0.0
H2885 H 0.62351 0.52892 0.27875 0.0
H2886 H 0.62477 0.50952 0.27483 0.0
H2887 H 0.62501 0.51638 0.29349 0.0
C2888 C 0.60892 0.46459 0.26939 0.0
C2889 C 0.61836 0.46103 0.28112 0.0
C2890 C 0.60199 0.47814 0.26926 0.0
C2891 C 0.60446 0.48844 0.28078 0.0
C2892 C 0.61403 0.48497 0.29237 0.0
H2893 H 0.56771 0.56485 0.3186 0.0
H2894 H 0.58022 0.54239 0.31199 0.0
C2895 C 0.62097 0.4715 0.29249 0.0
C2896 C 0.59637 0.50241 0.28129 0.0
H2897 H 0.6011 0.53934 0.28723 0.0
C2898 C 0.58097 0.50178 0.28104 0.0
C2899 C 0.6037 0.51621 0.28304 0.0
C2900 C 0.62016 0.51783 0.28238 0.0
C2901 C 0.57275 0.51445 0.28326 0.0
C2902 C 0.58013 0.52809 0.28573 0.0
C2903 C 0.59548 0.52883 0.28545 0.0
C2904 C 0.57217 0.5416 0.28953 0.0
C2905 C 0.55627 0.51313 0.28357 0.0
C2906 C 0.56346 0.5486 0.27907 0.0
C2907 C 0.55639 0.5616 0.28276 0.0
C2908 C 0.5579 0.56783 0.297 0.0
C2909 C 0.56648 0.56057 0.30747 0.0
C2910 C 0.57359 0.54767 0.30374 0.0
H2911 H 0.55231 0.50152 0.28323 0.0
H2912 H 0.55218 0.5186 0.29361 0.0
H2913 H 0.55148 0.51871 0.27398 0.0
H2914 H 0.56234 0.54415 0.268 0.0
H2915 H 0.55005 0.56696 0.27436 0.0
H2916 H 0.02247 0.22363 0.69865 0.0
H2917 H 0.02234 0.19699 0.69453 0.0
H2918 H 0.02109 0.1907 0.74114 0.0
H2919 H 0.02077 0.21714 0.74535 0.0
H2920 H 0.04104 0.17467 0.70538 0.0
H2921 H 0.98382 0.16889 0.72431 0.0
H2922 H 0.992 0.18631 0.71964 0.0
H2923 H 0.99631 0.17835 0.73698 0.0
C2924 C 0.02231 0.21656 0.70801 0.0
C2925 C 0.02157 0.2225 0.72231 0.0
C2926 C 0.02227 0.20138 0.70565 0.0
C2927 C 0.02141 0.19196 0.71753 0.0
C2928 C 0.02152 0.19784 0.73183 0.0
H2929 H 0.0331 0.09763 0.71149 0.0
H2930 H 0.03407 0.12332 0.71996 0.0
C2931 C 0.02155 0.21297 0.73421 0.0
C2932 C 0.01981 0.17599 0.71498 0.0
H2933 H 0.99618 0.14693 0.71906 0.0
C2934 C 0.03127 0.16857 0.70839 0.0
C2935 C 0.00693 0.16819 0.71876 0.0
C2936 C 0.99399 0.17582 0.7252 0.0
C2937 C 0.03024 0.15343 0.70551 0.0
C2938 C 0.01751 0.14554 0.70964 0.0
C2939 C 0.006 0.153 0.71614 0.0
C2940 C 0.01563 0.12968 0.70639 0.0
C2941 C 0.0426 0.14611 0.6977 0.0
C2942 C 0.0044 0.12464 0.69669 0.0
C2943 C 0.00371 0.10998 0.692 0.0
C2944 C 0.01429 0.10018 0.69693 0.0
C2945 C 0.02496 0.10505 0.70738 0.0
C2946 C 0.02555 0.11968 0.71216 0.0
H2947 H 0.04982 0.15418 0.69226 0.0
H2948 H 0.0494 0.14021 0.70578 0.0
H2949 H 0.0383 0.13801 0.68932 0.0
H2950 H 0.99659 0.13219 0.69219 0.0
H2951 H 0.99543 0.10653 0.68389 0.0
H2952 H 0.31845 0.88631 0.2201 0.0
H2953 H 0.33697 0.90545 0.22587 0.0
H2954 H 0.34974 0.88296 0.26499 0.0
H2955 H 0.3318 0.86337 0.25893 0.0
H2956 H 0.34188 0.92433 0.24923 0.0
H2957 H 0.3882 0.88629 0.244 0.0
H2958 H 0.36971 0.88117 0.23828 0.0
H2959 H 0.37506 0.8811 0.25736 0.0
C2960 C 0.32525 0.88537 0.2299 0.0
C2961 C 0.32377 0.87315 0.23891 0.0
C2962 C 0.33575 0.89639 0.23324 0.0
C2963 C 0.34497 0.89545 0.24567 0.0
C2964 C 0.34299 0.88372 0.25514 0.0
H2965 H 0.41732 0.95275 0.27747 0.0
H2966 H 0.39839 0.93339 0.2749 0.0
C2967 C 0.33256 0.87263 0.25176 0.0
C2968 C 0.35693 0.90653 0.24839 0.0
H2969 H 0.39419 0.91072 0.2514 0.0
C2970 C 0.35331 0.92136 0.24972 0.0
C2971 C 0.37186 0.90262 0.249 0.0
C2972 C 0.3765 0.88695 0.24695 0.0
C2973 C 0.36422 0.93237 0.25163 0.0
C2974 C 0.3791 0.92845 0.25209 0.0
C2975 C 0.38274 0.91364 0.25103 0.0
C2976 C 0.39107 0.93965 0.25329 0.0
C2977 C 0.35976 0.94813 0.25323 0.0
C2978 C 0.39349 0.94926 0.24179 0.0
C2979 C 0.40442 0.96021 0.24312 0.0
C2980 C 0.41313 0.96176 0.256 0.0
C2981 C 0.41096 0.95177 0.26732 0.0
C2982 C 0.40007 0.94077 0.26594 0.0
H2983 H 0.34798 0.94904 0.25581 0.0
H2984 H 0.36643 0.95393 0.26199 0.0
H2985 H 0.36169 0.95378 0.24279 0.0
H2986 H 0.38682 0.94837 0.23183 0.0
H2987 H 0.40595 0.96755 0.23411 0.0
H2988 H 0.99526 0.5156 0.73165 0.0
H2989 H 0.00123 0.4946 0.71598 0.0
H2990 H 0.00125 0.46678 0.7535 0.0
H2991 H 0.9952 0.48782 0.76935 0.0
H2992 H 0.02744 0.4741 0.72159 0.0
H2993 H 0.97132 0.44871 0.71978 0.0
H2994 H 0.97461 0.468 0.72378 0.0
H2995 H 0.97869 0.45478 0.73742 0.0
C2996 C 0.99636 0.50497 0.73654 0.0
C2997 C 0.99461 0.50326 0.75168 0.0
C2998 C 0.9999 0.49307 0.72761 0.0
C2999 C 0.00164 0.47926 0.73364 0.0
C3000 C 0.99991 0.47744 0.74872 0.0
H3001 H 0.03012 0.39647 0.71233 0.0
H3002 H 0.03104 0.42254 0.71786 0.0
C3003 C 0.99648 0.4894 0.75772 0.0
C3004 C 0.00508 0.46669 0.72407 0.0
H3005 H 0.99017 0.43512 0.70915 0.0
C3006 C 0.01931 0.4656 0.71872 0.0
C3007 C 0.99433 0.45586 0.72024 0.0
C3008 C 0.97883 0.45684 0.72549 0.0
C3009 C 0.02324 0.45348 0.71006 0.0
C3010 C 0.01263 0.44234 0.70672 0.0
C3011 C 0.99825 0.44379 0.7116 0.0
C3012 C 0.01641 0.42813 0.69999 0.0
C3013 C 0.03871 0.45253 0.70478 0.0
C3014 C 0.00862 0.42275 0.68751 0.0
C3015 C 0.00816 0.40774 0.68418 0.0
C3016 C 0.01524 0.39794 0.6935 0.0
C3017 C 0.02456 0.40364 0.70484 0.0
C3018 C 0.02511 0.41863 0.70807 0.0
H3019 H 0.04414 0.46354 0.70448 0.0
H3020 H 0.04515 0.44575 0.71242 0.0
H3021 H 0.03894 0.44729 0.6937 0.0
H3022 H 0.00185 0.42997 0.68113 0.0
H3023 H 0.00114 0.4037 0.67518 0.0
H3024 H 0.69406 0.39075 0.53988 0.0
H3025 H 0.69464 0.40334 0.51659 0.0
H3026 H 0.74162 0.39961 0.51607 0.0
H3027 H 0.74109 0.38647 0.53912 0.0
H3028 H 0.70857 0.42925 0.51017 0.0
H3029 H 0.72932 0.38396 0.47545 0.0
H3030 H 0.72243 0.38109 0.49355 0.0
H3031 H 0.7407 0.38834 0.49131 0.0
C3032 C 0.70451 0.39236 0.53471 0.0
C3033 C 0.71752 0.38745 0.54134 0.0
C3034 C 0.70483 0.39968 0.52144 0.0
C3035 C 0.71814 0.40223 0.51446 0.0
C3036 C 0.73118 0.3975 0.5211 0.0
H3037 H 0.74394 0.44793 0.43689 0.0
H3038 H 0.74273 0.43505 0.45998 0.0
C3039 C 0.73088 0.39014 0.53438 0.0
C3040 C 0.71836 0.41023 0.50048 0.0
H3041 H 0.72831 0.4074 0.4647 0.0
C3042 C 0.71281 0.42445 0.50021 0.0
C3043 C 0.72387 0.40393 0.48747 0.0
C3044 C 0.72929 0.38844 0.48686 0.0
C3045 C 0.7129 0.43265 0.48737 0.0
C3046 C 0.71853 0.4264 0.47443 0.0
C3047 C 0.72403 0.41217 0.47467 0.0
C3048 C 0.71906 0.43453 0.46056 0.0
C3049 C 0.70728 0.44806 0.48784 0.0
C3050 C 0.70614 0.4385 0.45319 0.0
C3051 C 0.70677 0.44577 0.43987 0.0
C3052 C 0.72037 0.44917 0.43365 0.0
C3053 C 0.73328 0.44529 0.4412 0.0
C3054 C 0.73262 0.43799 0.45446 0.0
H3055 H 0.70631 0.45235 0.49925 0.0
H3056 H 0.71461 0.45557 0.48182 0.0
H3057 H 0.69625 0.44815 0.48246 0.0
H3058 H 0.69554 0.43573 0.4576 0.0
H3059 H 0.69662 0.44839 0.43427 0.0
H3060 H 0.78812 0.67239 0.12381 0.0
H3061 H 0.78407 0.65341 0.10484 0.0
H3062 H 0.73785 0.66219 0.10389 0.0
H3063 H 0.74191 0.68177 0.12227 0.0
H3064 H 0.7684 0.62911 0.10836 0.0
H3065 H 0.7452 0.65782 0.06084 0.0
H3066 H 0.75421 0.66749 0.07611 0.0
H3067 H 0.73529 0.66166 0.07715 0.0
C3068 C 0.77716 0.67066 0.11924 0.0
C3069 C 0.76533 0.67863 0.12463 0.0
C3070 C 0.77485 0.65969 0.10845 0.0
C3071 C 0.76068 0.65643 0.10283 0.0
C3072 C 0.74893 0.66468 0.10782 0.0
H3073 H 0.72204 0.57487 0.07428 0.0
H3074 H 0.73274 0.59629 0.08738 0.0
C3075 C 0.75124 0.67574 0.11852 0.0
C3076 C 0.75797 0.6434 0.09303 0.0
H3077 H 0.74046 0.63169 0.0613 0.0
C3078 C 0.76249 0.62972 0.09796 0.0
C3079 C 0.75044 0.64419 0.07936 0.0
C3080 C 0.74615 0.65861 0.07298 0.0
C3081 C 0.7591 0.61676 0.08994 0.0
C3082 C 0.75068 0.61745 0.0768 0.0
C3083 C 0.74677 0.63117 0.07148 0.0
C3084 C 0.745 0.60403 0.06896 0.0
C3085 C 0.76444 0.60243 0.09571 0.0
C3086 C 0.74823 0.60133 0.0542 0.0
C3087 C 0.74201 0.58912 0.04664 0.0
C3088 C 0.73234 0.57951 0.05368 0.0
C3089 C 0.72939 0.58211 0.06854 0.0
C3090 C 0.7356 0.59428 0.07607 0.0
H3091 H 0.77435 0.60411 0.1029 0.0
H3092 H 0.75575 0.59732 0.10233 0.0
H3093 H 0.76705 0.59469 0.08664 0.0
H3094 H 0.75538 0.60879 0.04849 0.0
H3095 H 0.74433 0.58752 0.03514 0.0
H3096 H 0.2287 0.00774 0.52828 0.0
H3097 H 0.23936 0.00699 0.55311 0.0
H3098 H 0.27271 0.97814 0.53765 0.0
H3099 H 0.26216 0.97885 0.51285 0.0
H3100 H 0.24351 0.98331 0.57092 0.0
H3101 H 0.2968 0.01039 0.55902 0.0
H3102 H 0.28125 0.01057 0.54646 0.0
H3103 H 0.29251 0.99469 0.5474 0.0
C3104 C 0.23826 0.00118 0.53019 0.0
C3105 C 0.24464 0.99343 0.51858 0.0
C3106 C 0.24437 1.00082 0.54436 0.0
C3107 C 0.25698 0.99272 0.54716 0.0
C3108 C 0.26321 0.98476 0.53566 0.0
H3109 H 0.30852 0.97379 0.62518 0.0
H3110 H 0.29716 0.97372 0.60069 0.0
C3111 C 0.25715 0.98517 0.52149 0.0
C3112 C 0.26341 0.99231 0.56219 0.0
H3113 H 0.29483 0.99955 0.58234 0.0
C3114 C 0.2547 0.98693 0.57345 0.0
C3115 C 0.27802 0.99705 0.56544 0.0
C3116 C 0.28766 0.00363 0.55398 0.0
C3117 C 0.26031 0.98593 0.58782 0.0
C3118 C 0.27494 0.99054 0.59101 0.0
C3119 C 0.28364 0.99593 0.57979 0.0
C3120 C 0.28135 0.99016 0.60602 0.0
C3121 C 0.25064 0.97973 0.59946 0.0
C3122 C 0.27619 0.99943 0.61709 0.0
C3123 C 0.28275 0.99965 0.63106 0.0
C3124 C 0.29469 0.99065 0.63425 0.0
C3125 C 0.2996 0.98113 0.62312 0.0
C3126 C 0.29306 0.98098 0.60913 0.0
H3127 H 0.24084 0.97381 0.59464 0.0
H3128 H 0.25683 0.97211 0.60646 0.0
H3129 H 0.24684 0.98882 0.60658 0.0
H3130 H 0.26727 0.00674 0.61484 0.0
H3131 H 0.27867 0.0072 0.6392 0.0
H3132 H 0.26047 0.01417 0.7595 0.0
H3133 H 0.26276 0.00956 0.78579 0.0
H3134 H 0.30973 0.00773 0.7822 0.0
H3135 H 0.30747 0.01297 0.75605 0.0
H3136 H 0.27303 0.98778 0.80135 0.0
H3137 H 0.30716 0.03757 0.81451 0.0
H3138 H 0.29841 0.03441 0.79679 0.0
H3139 H 0.31537 0.02569 0.80132 0.0
C3140 C 0.27126 0.01273 0.76436 0.0
C3141 C 0.28381 0.01408 0.75584 0.0
C3142 C 0.27258 0.01012 0.77936 0.0
C3143 C 0.28645 0.00866 0.78609 0.0
C3144 C 0.29895 0.00932 0.77741 0.0
H3145 H 0.31483 0.99386 0.87624 0.0
H3146 H 0.31318 0.99548 0.84953 0.0
C3147 C 0.29766 0.0122 0.76246 0.0
C3148 C 0.28779 0.00656 0.80218 0.0
H3149 H 0.30412 0.02072 0.83365 0.0
C3150 C 0.2798 0.99502 0.8084 0.0
C3151 C 0.29659 0.01603 0.81144 0.0
C3152 C 0.30475 0.0292 0.80571 0.0
C3153 C 0.28047 0.99261 0.82355 0.0
C3154 C 0.28934 0.00202 0.83272 0.0
C3155 C 0.29741 0.01347 0.82654 0.0
C3156 C 0.29013 1.00043 0.84884 0.0
C3157 C 0.27182 0.97995 0.82961 0.0
C3158 C 0.27773 0.00278 0.8573 0.0
C3159 C 0.27866 0.00199 0.87257 0.0
C3160 C 0.29203 0.99889 0.87969 0.0
C3161 C 0.30441 0.99645 0.87114 0.0
C3162 C 0.30347 0.99728 0.85587 0.0
H3163 H 0.26835 0.97182 0.8209 0.0
H3164 H 0.27832 0.97432 0.83813 0.0
H3165 H 0.26182 0.98415 0.83477 0.0
H3166 H 0.2674 0.00553 0.85211 0.0
H3167 H 0.26898 0.0042 0.8788 0.0
H3168 H 0.54397 0.74211 0.39146 0.0
H3169 H 0.52004 0.74266 0.40309 0.0
H3170 H 0.51345 0.69653 0.3933 0.0
H3171 H 0.53718 0.6959 0.38154 0.0
H3172 H 0.49125 0.73444 0.39193 0.0
H3173 H 0.50884 0.69989 0.43813 0.0
H3174 H 0.52171 0.70862 0.4262 0.0
H3175 H 0.51195 0.69215 0.42024 0.0
C3176 C 0.53735 0.73212 0.39162 0.0
C3177 C 0.5426 0.71892 0.38573 0.0
C3178 C 0.52371 0.73244 0.39833 0.0
C3179 C 0.51511 0.71957 0.39931 0.0
C3180 C 0.52006 0.70651 0.39297 0.0
H3181 H 0.43192 0.69794 0.43956 0.0
H3182 H 0.45486 0.69737 0.42617 0.0
C3183 C 0.53366 0.70618 0.38627 0.0
C3184 C 0.50105 0.71969 0.40715 0.0
H3185 H 0.48365 0.70541 0.43652 0.0
C3186 C 0.48959 0.72815 0.40171 0.0
C3187 C 0.49891 0.71142 0.41989 0.0
C3188 C 0.51103 0.7026 0.42657 0.0
C3189 C 0.47596 0.72839 0.40855 0.0
C3190 C 0.47384 0.72016 0.4213 0.0
C3191 C 0.48529 0.71167 0.42671 0.0
C3192 C 0.45995 0.72049 0.42942 0.0
C3193 C 0.46385 0.73726 0.40192 0.0
C3194 C 0.45537 0.73361 0.43594 0.0
C3195 C 0.44237 0.73395 0.44372 0.0
C3196 C 0.43364 0.72116 0.44516 0.0
C3197 C 0.4384 0.70797 0.43879 0.0
C3198 C 0.45146 0.70763 0.43105 0.0
H3199 H 0.46592 0.73979 0.3903 0.0
H3200 H 0.45311 0.73135 0.40251 0.0
H3201 H 0.46312 0.74779 0.40814 0.0
H3202 H 0.46193 0.74358 0.43513 0.0
H3203 H 0.43926 0.74424 0.44874 0.0
H3204 H 0.75261 0.28744 0.99226 0.0
H3205 H 0.77867 0.28932 0.98651 0.0
H3206 H 0.79017 0.27916 0.03114 0.0
H3207 H 0.76428 0.27672 0.03683 0.0
H3208 H 0.80022 0.30804 0.99866 0.0
H3209 H 0.81438 0.25032 0.00807 0.0
H3210 H 0.79568 0.25613 0.0062 0.0
H3211 H 0.80553 0.25858 0.02342 0.0
C3212 C 0.76069 0.28539 0.0008 0.0
C3213 C 0.75633 0.28188 0.01501 0.0
C3214 C 0.77558 0.28657 0.99751 0.0
C3215 C 0.78637 0.28415 0.00833 0.0
C3216 C 0.78205 0.28077 0.02253 0.0
H3217 H 0.87922 0.29096 0.02216 0.0
H3218 H 0.85261 0.28811 0.02323 0.0
C3219 C 0.76721 0.27957 0.02582 0.0
C3220 C 0.80218 0.28559 0.00502 0.0
H3221 H 0.83449 0.26757 0.00726 0.0
C3222 C 0.8077 0.29914 1.00035 0.0
C3223 C 0.81191 0.27395 0.00717 0.0
C3224 C 0.80656 0.25888 0.01134 0.0
C3225 C 0.82279 0.30157 0.99843 0.0
C3226 C 0.83256 0.29007 0.0011 0.0
C3227 C 0.82698 0.27639 0.00533 0.0
C3228 C 0.84867 0.29216 1.00024 0.0
C3229 C 0.82823 0.31656 0.99414 0.0
C3230 C 0.85531 0.29531 0.98693 0.0
C3231 C 0.87056 0.29705 0.9863 0.0
C3232 C 0.87944 0.29564 0.99897 0.0
C3233 C 0.87271 0.2924 0.01225 0.0
C3234 C 0.8575 0.29065 0.01287 0.0
H3235 H 0.81971 0.32496 0.9954 0.0
H3236 H 0.83805 0.32005 0.00086 0.0
H3237 H 0.83142 0.31617 0.98249 0.0
H3238 H 0.84871 0.29629 0.97701 0.0
H3239 H 0.87538 0.2996 0.97591 0.0
H3240 H 0.12103 0.74285 0.68707 0.0
H3241 H 0.10233 0.73792 0.66778 0.0
H3242 H 0.10939 0.78136 0.6514 0.0
H3243 H 0.1283 0.78628 0.67034 0.0
H3244 H 0.07562 0.75445 0.65877 0.0
H3245 H 0.1191 0.75196 0.61707 0.0
H3246 H 0.12307 0.75046 0.63643 0.0
H3247 H 0.11925 0.76799 0.62889 0.0
C3248 C 0.11854 0.75138 0.67941 0.0
C3249 C 0.12625 0.76492 0.68018 0.0
C3250 C 0.10779 0.74858 0.66848 0.0
C3251 C 0.10464 0.75923 0.65811 0.0
C3252 C 0.11177 0.77298 0.65926 0.0
H3253 H 0.05814 0.74854 0.57366 0.0
H3254 H 0.07115 0.75955 0.59513 0.0
C3255 C 0.12249 0.7758 0.67018 0.0
C3256 C 0.09473 0.75558 0.64545 0.0
H3257 H 0.09477 0.74845 0.60862 0.0
C3258 C 0.07975 0.7532 0.64778 0.0
C3259 C 0.10019 0.75404 0.63115 0.0
C3260 C 0.11629 0.75614 0.62815 0.0
C3261 C 0.07004 0.74926 0.63611 0.0
C3262 C 0.07557 0.74732 0.62185 0.0
C3263 C 0.09053 0.75001 0.61953 0.0
C3264 C 0.06637 0.74149 0.60935 0.0
C3265 C 0.05395 0.7473 0.63917 0.0
C3266 C 0.05933 0.72773 0.61024 0.0
C3267 C 0.05183 0.72151 0.59807 0.0
C3268 C 0.05139 0.72878 0.58465 0.0
C3269 C 0.0582 0.7427 0.58385 0.0
C3270 C 0.06568 0.74897 0.59608 0.0
H3271 H 0.05086 0.75389 0.64896 0.0
H3272 H 0.04701 0.7505 0.62968 0.0
H3273 H 0.05154 0.73561 0.64144 0.0
H3274 H 0.05999 0.72159 0.62022 0.0
H3275 H 0.04648 0.71089 0.59916 0.0
H3276 H 0.51586 0.26794 0.00636 0.0
H3277 H 0.54045 0.27873 0.00457 0.0
H3278 H 0.55334 0.24166 0.97816 0.0
H3279 H 0.52854 0.2311 0.97931 0.0
H3280 H 0.56682 0.2683 0.01346 0.0
H3281 H 0.56599 0.27568 0.95327 0.0
H3282 H 0.54966 0.27138 0.96322 0.0
H3283 H 0.56223 0.2572 0.95864 0.0
C3284 C 0.52384 0.26216 0.99998 0.0
C3285 C 0.52014 0.24871 0.99284 0.0
C3286 C 0.53794 0.2683 0.99907 0.0
C3287 C 0.54866 0.26114 0.99101 0.0
C3288 C 0.54515 0.24755 0.98416 0.0
H3289 H 0.64119 0.28186 0.97892 0.0
H3290 H 0.61678 0.27019 0.97852 0.0
C3291 C 0.53101 0.24142 0.985 0.0
C3292 C 0.56356 0.26785 0.99002 0.0
H3293 H 0.58861 0.28074 0.96592 0.0
C3294 C 0.57156 0.27105 0.00307 0.0
C3295 C 0.56974 0.27143 0.97644 0.0
C3296 C 0.56143 0.26888 0.9621 0.0
C3297 C 0.58559 0.27764 0.0029 0.0
C3298 C 0.59172 0.28126 0.98934 0.0
C3299 C 0.58384 0.27793 0.97628 0.0
C3300 C 0.60625 0.2887 0.98861 0.0
C3301 C 0.59383 0.28059 0.01722 0.0
C3302 C 0.60828 0.30312 0.994 0.0
C3303 C 0.62219 0.30983 0.99425 0.0
C3304 C 0.6344 0.3022 0.98922 0.0
C3305 C 0.63215 0.28795 0.98321 0.0
C3306 C 0.61819 0.28128 0.98288 0.0
H3307 H 0.58895 0.27445 0.02635 0.0
H3308 H 0.6055 0.27757 0.01629 0.0
H3309 H 0.59355 0.29247 0.02003 0.0
H3310 H 0.59913 0.30908 0.99828 0.0
H3311 H 0.62342 0.32079 0.99896 0.0
H3312 H 0.37071 0.53128 0.72936 0.0
H3313 H 0.38314 0.5078 0.73093 0.0
H3314 H 0.41914 0.52546 0.70661 0.0
H3315 H 0.40702 0.54898 0.70531 0.0
H3316 H 0.39192 0.48952 0.70734 0.0
H3317 H 0.43954 0.50797 0.74245 0.0
H3318 H 0.42315 0.51853 0.74062 0.0
H3319 H 0.43663 0.51889 0.72658 0.0
C3320 C 0.38137 0.53022 0.72454 0.0
C3321 C 0.38787 0.54202 0.71722 0.0
C3322 C 0.38841 0.51678 0.72536 0.0
C3323 C 0.40214 0.51494 0.71903 0.0
C3324 C 0.40866 0.5267 0.71178 0.0
H3325 H 0.4632 0.44405 0.70908 0.0
H3326 H 0.45003 0.46709 0.70777 0.0
C3327 C 0.40164 0.5401 0.71092 0.0
C3328 C 0.40948 0.50062 0.71956 0.0
H3329 H 0.44086 0.48433 0.73116 0.0
C3330 C 0.40257 0.48834 0.71263 0.0
C3331 C 0.4234 0.49913 0.72643 0.0
C3332 C 0.43108 0.51179 0.73456 0.0
C3333 C 0.40937 0.47469 0.71208 0.0
C3334 C 0.42334 0.47323 0.71887 0.0
C3335 C 0.43019 0.48549 0.72589 0.0
C3336 C 0.43098 0.45903 0.71904 0.0
C3337 C 0.40169 0.46205 0.70391 0.0
C3338 C 0.42466 0.44687 0.72582 0.0
C3339 C 0.43211 0.43368 0.72649 0.0
C3340 C 0.44612 0.43241 0.72053 0.0
C3341 C 0.45238 0.4446 0.71364 0.0
C3342 C 0.44491 0.4578 0.71297 0.0
H3343 H 0.39322 0.46589 0.69605 0.0
H3344 H 0.40962 0.45533 0.69782 0.0
H3345 H 0.39615 0.45493 0.71187 0.0
H3346 H 0.41405 0.44762 0.7308 0.0
H3347 H 0.42688 0.42448 0.73172 0.0
H3348 H 0.03976 0.76344 0.28785 0.0
H3349 H 0.03444 0.78935 0.29101 0.0
H3350 H 0.98814 0.77883 0.29077 0.0
H3351 H 0.99339 0.75274 0.28837 0.0
H3352 H 0.01923 0.80598 0.27208 0.0
H3353 H 0.99215 0.80645 0.32591 0.0
H3354 H 0.00223 0.79097 0.31929 0.0
H3355 H 0.98388 0.79389 0.31257 0.0
C3356 C 0.02845 0.76654 0.28887 0.0
C3357 C 0.01702 0.75593 0.28793 0.0
C3358 C 0.02542 0.78141 0.29052 0.0
C3359 C 0.01091 0.78605 0.29127 0.0
C3360 C 0.99945 0.77551 0.2905 0.0
H3361 H 0.97559 0.87439 0.29468 0.0
H3362 H 0.97828 0.84777 0.29244 0.0
C3363 C 0.00247 0.7606 0.28894 0.0
C3364 C 0.00787 0.80197 0.29207 0.0
H3365 H 0.99204 0.82861 0.31285 0.0
C3366 C 0.01331 0.81091 0.28102 0.0
C3367 C 1.00004 0.8084 0.30367 0.0
C3368 C 0.99434 0.79947 0.31611 0.0
C3369 C 0.0112 0.8261 0.28128 0.0
C3370 C 0.00361 0.83255 0.293 0.0
C3371 C 0.99789 0.82361 0.30389 0.0
C3372 C 0.00194 0.84863 0.29438 0.0
C3373 C 0.01704 0.8351 0.26895 0.0
C3374 C 0.01434 0.85788 0.29639 0.0
C3375 C 0.01285 0.87305 0.29763 0.0
C3376 C 0.99891 0.87928 0.29695 0.0
C3377 C 0.98648 0.86995 0.29508 0.0
C3378 C 0.98799 0.85475 0.29388 0.0
H3379 H 0.01914 0.82821 0.25907 0.0
H3380 H 0.00926 0.84376 0.26589 0.0
H3381 H 0.02755 0.84053 0.27257 0.0
H3382 H 0.02519 0.85336 0.29702 0.0
H3383 H 0.02265 0.87992 0.29893 0.0
H3384 H 0.69106 0.10945 0.77376 0.0
H3385 H 0.67228 0.0902 0.76858 0.0
H3386 H 0.64734 0.12047 0.74303 0.0
H3387 H 0.66594 0.13958 0.74805 0.0
H3388 H 0.64325 0.09005 0.77564 0.0
H3389 H 0.64796 0.08524 0.71554 0.0
H3390 H 0.66182 0.09444 0.72706 0.0
H3391 H 0.64565 0.10393 0.72131 0.0
C3392 C 0.68162 0.11193 0.76694 0.0
C3393 C 0.68006 0.12599 0.76118 0.0
C3394 C 0.67093 0.10093 0.76397 0.0
C3395 C 0.65856 0.10382 0.75518 0.0
C3396 C 0.65701 0.11785 0.74946 0.0
H3397 H 0.57362 0.07433 0.7303 0.0
H3398 H 0.59644 0.08691 0.73833 0.0
C3399 C 0.66767 0.12878 0.75235 0.0
C3400 C 0.64674 0.09258 0.75257 0.0
H3401 H 0.6249 0.07706 0.72535 0.0
C3402 C 0.6394 0.08695 0.76465 0.0
C3403 C 0.64183 0.08844 0.73823 0.0
C3404 C 0.64984 0.09321 0.72481 0.0
C3405 C 0.62668 0.07808 0.76273 0.0
C3406 C 0.62125 0.07483 0.7484 0.0
C3407 C 0.62902 0.07977 0.73634 0.0
C3408 C 0.60695 0.06727 0.74556 0.0
C3409 C 0.61869 0.07282 0.77596 0.0
C3410 C 0.60522 0.05211 0.74734 0.0
C3411 C 0.59216 0.04487 0.74274 0.0
C3412 C 0.58074 0.05271 0.73621 0.0
C3413 C 0.58229 0.068 0.73516 0.0
C3414 C 0.59529 0.07519 0.73975 0.0
H3415 H 0.62379 0.07717 0.78638 0.0
H3416 H 0.60708 0.07617 0.77535 0.0
H3417 H 0.61873 0.06066 0.77608 0.0
H3418 H 0.61417 0.04581 0.75168 0.0
H3419 H 0.59133 0.03306 0.74352 0.0
H3420 H 0.97148 0.52468 0.23123 0.0
H3421 H 0.97024 0.54988 0.24078 0.0
H3422 H 0.00575 0.54187 0.27131 0.0
H3423 H 0.00707 0.51669 0.26183 0.0
H3424 H 0.98279 0.55572 0.28426 0.0
H3425 H 0.99879 0.58383 0.23359 0.0
H3426 H 0.9834 0.57133 0.23117 0.0
H3427 H 0.00111 0.56445 0.23602 0.0
C3428 C 0.97914 0.52834 0.23986 0.0
C3429 C 0.98939 0.51869 0.24575 0.0
C3430 C 0.97841 0.54274 0.2453 0.0
C3431 C 0.98802 0.5478 0.25663 0.0
C3432 C 0.99823 0.53819 0.26256 0.0
H3433 H 0.01045 0.63625 0.28428 0.0
H3434 H 0.00894 0.6115 0.27369 0.0
C3435 C 0.99893 0.52379 0.25716 0.0
C3436 C 0.98731 0.56302 0.26254 0.0
H3437 H 0.99105 0.5989 0.25325 0.0
C3438 C 0.98458 0.56518 0.27749 0.0
C3439 C 0.9898 0.57532 0.25371 0.0
C3440 C 0.99358 0.57368 0.23776 0.0
C3441 C 0.98434 0.5793 0.28389 0.0
C3442 C 0.98653 0.59162 0.275 0.0
C3443 C 0.9892 0.58945 0.26002 0.0
C3444 C 0.98703 0.60683 0.28115 0.0
C3445 C 0.98223 0.58083 0.30019 0.0
C3446 C 0.97512 0.61256 0.28869 0.0
C3447 C 0.97603 0.62673 0.2949 0.0
C3448 C 0.98875 0.63549 0.29343 0.0
C3449 C 1.00046 0.62985 0.28551 0.0
C3450 C 0.99962 0.61567 0.27947 0.0
H3451 H 0.98457 0.57048 0.30589 0.0
H3452 H 0.98943 0.5897 0.30509 0.0
H3453 H 0.97068 0.5836 0.30226 0.0
H3454 H 0.96514 0.60608 0.2898 0.0
H3455 H 0.96675 0.63086 0.30077 0.0
H3456 H 0.34523 0.6331 0.34498 0.0
H3457 H 0.37076 0.62975 0.33831 0.0
H3458 H 0.37658 0.67644 0.33416 0.0
H3459 H 0.35109 0.67993 0.34108 0.0
H3460 H 0.38478 0.63867 0.31196 0.0
H3461 H 0.41088 0.66491 0.36186 0.0
H3462 H 0.39187 0.65894 0.36109 0.0
H3463 H 0.39745 0.67557 0.35246 0.0
C3464 C 0.35196 0.64269 0.34281 0.0
C3465 C 0.34608 0.6568 0.34366 0.0
C3466 C 0.36654 0.64074 0.3389 0.0
C3467 C 0.37565 0.65284 0.33589 0.0
C3468 C 0.36983 0.66695 0.33663 0.0
H3469 H 0.46872 0.65994 0.31609 0.0
H3470 H 0.44303 0.66493 0.32062 0.0
C3471 C 0.3552 0.66891 0.34046 0.0
C3472 C 0.39115 0.65062 0.33176 0.0
H3473 H 0.42664 0.65723 0.34322 0.0
C3474 C 0.39394 0.64272 0.31879 0.0
C3475 C 0.4031 0.65599 0.34062 0.0
C3476 C 0.40076 0.66424 0.35485 0.0
C3477 C 0.40834 0.64013 0.31438 0.0
C3478 C 0.42033 0.64524 0.32339 0.0
C3479 C 0.41751 0.65328 0.3363 0.0
C3480 C 0.43586 0.64216 0.31982 0.0
C3481 C 0.41054 0.63221 0.29994 0.0
C3482 C 0.44049 0.62769 0.31783 0.0
C3483 C 0.45517 0.6248 0.31498 0.0
C3484 C 0.46567 0.6363 0.31426 0.0
C3485 C 0.46097 0.65079 0.31626 0.0
C3486 C 0.44626 0.65367 0.31901 0.0
H3487 H 0.4009 0.63326 0.29242 0.0
H3488 H 0.42042 0.63647 0.29443 0.0
H3489 H 0.41195 0.62037 0.30192 0.0
H3490 H 0.4328 0.61857 0.31872 0.0
H3491 H 0.45828 0.61352 0.3134 0.0
H3492 H 0.16551 0.28637 0.73897 0.0
H3493 H 0.13978 0.28951 0.73208 0.0
H3494 H 0.12662 0.26545 0.76986 0.0
H3495 H 0.1524 0.26224 0.77685 0.0
H3496 H 0.11715 0.2691 0.72578 0.0
H3497 H 0.10471 0.30369 0.77461 0.0
H3498 H 0.12321 0.29958 0.76965 0.0
H3499 H 0.11212 0.28612 0.77859 0.0
C3500 C 0.15717 0.28159 0.74574 0.0
C3501 C 0.16105 0.27409 0.7585 0.0
C3502 C 0.14244 0.28345 0.74181 0.0
C3503 C 0.13125 0.27792 0.75056 0.0
C3504 C 0.13506 0.2701 0.76311 0.0
H3505 H 0.0366 0.2909 0.74456 0.0
H3506 H 0.06068 0.28118 0.75084 0.0
C3507 C 0.1498 0.26827 0.76708 0.0
C3508 C 0.11566 0.28054 0.74655 0.0
H3509 H 0.08508 0.29783 0.75815 0.0
C3510 C 0.11011 0.27534 0.73288 0.0
C3511 C 0.10646 0.28864 0.75584 0.0
C3512 C 0.11191 0.29495 0.77044 0.0
C3513 C 0.09566 0.27807 0.72821 0.0
C3514 C 0.08658 0.28646 0.73735 0.0
C3515 C 0.09202 0.29138 0.75116 0.0
C3516 C 0.07166 0.29092 0.73258 0.0
C3517 C 0.09024 0.27184 0.71358 0.0
C3518 C 0.06974 0.29947 0.7201 0.0
C3519 C 0.05599 0.305 0.71647 0.0
C3520 C 0.04389 0.30226 0.72535 0.0
C3521 C 0.04573 0.2933 0.73757 0.0
C3522 C 0.05948 0.28773 0.74116 0.0
H3523 H 0.09657 0.26214 0.71018 0.0
H3524 H 0.07845 0.2686 0.71385 0.0
H3525 H 0.09162 0.28028 0.70514 0.0
H3526 H 0.07902 0.30238 0.7135 0.0
H3527 H 0.05501 0.31205 0.70714 0.0
H3528 H 0.83177 0.0235 0.63543 0.0
H3529 H 0.85761 0.02679 0.64296 0.0
H3530 H 0.86451 0.98085 0.63417 0.0
H3531 H 0.83879 0.97756 0.62644 0.0
H3532 H 0.87411 0.01376 0.66465 0.0
H3533 H 0.89539 1.0006 0.60952 0.0
H3534 H 0.87633 0.00416 0.61253 0.0
H3535 H 0.88363 0.98653 0.61654 0.0
C3536 C 0.8388 0.01411 0.63523 0.0
C3537 C 0.83338 1.00031 0.63026 0.0
C3538 C 0.85352 0.01599 0.63948 0.0
C3539 C 0.86298 0.00411 0.63886 0.0
C3540 C 0.85745 0.99022 0.63438 0.0
H3541 H 0.95708 0.9986 0.65593 0.0
H3542 H 0.93083 0.99223 0.65324 0.0
C3543 C 0.84279 0.98836 0.63001 0.0
C3544 C 0.87868 0.00627 0.64272 0.0
H3545 H 0.91294 0.00366 0.62889 0.0
C3546 C 0.88261 0.01154 0.65685 0.0
C3547 C 0.8897 0.0034 0.63247 0.0
C3548 C 0.88608 0.99849 0.61687 0.0
C3549 C 0.89735 0.01399 0.66104 0.0
C3550 C 0.90833 0.01111 0.6508 0.0
C3551 C 0.90442 0.00567 0.63674 0.0
C3552 C 0.92389 0.01473 0.654 0.0
C3553 C 0.90111 0.01965 0.67634 0.0
C3554 C 0.9285 0.02944 0.65536 0.0
C3555 C 0.94338 0.03308 0.65678 0.0
C3556 C 0.95385 0.02204 0.65686 0.0
C3557 C 0.94918 0.00728 0.65597 0.0
C3558 C 0.93427 0.00364 0.65441 0.0
H3559 H 0.89182 0.01811 0.68384 0.0
H3560 H 0.91083 0.01405 0.68088 0.0
H3561 H 0.90383 0.03155 0.676 0.0
H3562 H 0.92063 0.03813 0.65486 0.0
H3563 H 0.94672 0.04454 0.65759 0.0
H3564 H 0.627 0.9645 0.3112 0.0
H3565 H 0.60141 0.97192 0.31032 0.0
H3566 H 0.61504 0.01543 0.29821 0.0
H3567 H 0.64068 0.00823 0.29931 0.0
H3568 H 0.58699 0.99726 0.3253 0.0
H3569 H 0.58666 0.99895 0.26435 0.0
H3570 H 0.6004 0.98937 0.27466 0.0
H3571 H 0.60118 0.009 0.27406 0.0
C3572 C 0.62459 0.97571 0.30857 0.0
C3573 C 0.63587 0.98573 0.30516 0.0
C3574 C 0.60997 0.97991 0.30805 0.0
C3575 C 0.6064 0.99415 0.30405 0.0
C3576 C 0.61762 0.00433 0.30113 0.0
H3577 H 0.52155 0.02894 0.27941 0.0
H3578 H 0.54767 0.02649 0.28524 0.0
C3579 C 0.63223 1.00016 0.30168 0.0
C3580 C 0.59089 0.99809 0.30218 0.0
H3581 H 0.56486 0.00492 0.276 0.0
C3582 C 0.58211 0.999 0.31455 0.0
C3583 C 0.58468 1.00043 0.28814 0.0
C3584 C 0.59364 0.99932 0.27449 0.0
C3585 C 0.56717 0.00218 0.31323 0.0
C3586 C 0.56084 0.00408 0.29912 0.0
C3587 C 0.56973 0.00344 0.2868 0.0
C3588 C 0.54493 0.00616 0.29672 0.0
C3589 C 0.55837 0.00362 0.32695 0.0
C3590 C 0.53473 0.99553 0.30121 0.0
C3591 C 0.51982 0.99692 0.29791 0.0
C3592 C 0.51486 0.00885 0.28987 0.0
C3593 C 0.52508 0.01954 0.28548 0.0
C3594 C 0.53997 0.0182 0.28887 0.0
H3595 H 0.5655 0.00657 0.33664 0.0
H3596 H 0.54987 0.01204 0.3258 0.0
H3597 H 0.55284 0.99295 0.32907 0.0
H3598 H 0.53834 0.98594 0.30691 0.0
H3599 H 0.51221 0.98842 0.30127 0.0
H3600 H 0.35508 0.34841 0.63488 0.0
H3601 H 0.34885 0.37405 0.63158 0.0
H3602 H 0.32397 0.3734 0.6711 0.0
H3603 H 0.3305 0.34785 0.67474 0.0
H3604 H 0.32086 0.38599 0.62841 0.0
H3605 H 0.35053 0.41 0.6774 0.0
H3606 H 0.35392 0.39177 0.67037 0.0
H3607 H 0.33797 0.39514 0.68097 0.0
C3608 C 0.34846 0.35375 0.64301 0.0
C3609 C 0.34338 0.34601 0.65513 0.0
C3610 C 0.34481 0.36841 0.64104 0.0
C3611 C 0.33609 0.37575 0.65118 0.0
C3612 C 0.33092 0.36807 0.66325 0.0
H3613 H 0.30754 0.46681 0.65606 0.0
H3614 H 0.31107 0.44076 0.66044 0.0
C3615 C 0.33453 0.35338 0.66522 0.0
C3616 C 0.33215 0.39131 0.64885 0.0
H3617 H 0.33605 0.42602 0.66356 0.0
C3618 C 0.32419 0.39475 0.63609 0.0
C3619 C 0.33638 0.40274 0.65893 0.0
C3620 C 0.34528 0.39981 0.67264 0.0
C3621 C 0.3203 0.40923 0.63315 0.0
C3622 C 0.32481 0.42073 0.64306 0.0
C3623 C 0.33259 0.41726 0.65594 0.0
C3624 C 0.32199 0.43646 0.64007 0.0
C3625 C 0.31115 0.41199 0.61956 0.0
C3626 C 0.32694 0.44281 0.62716 0.0
C3627 C 0.32472 0.45765 0.62451 0.0
C3628 C 0.31772 0.46665 0.63482 0.0
C3629 C 0.31276 0.46025 0.64775 0.0
C3630 C 0.3149 0.44535 0.65034 0.0
H3631 H 0.3047 0.40204 0.61594 0.0
H3632 H 0.30349 0.42109 0.62139 0.0
H3633 H 0.3185 0.41497 0.61053 0.0
H3634 H 0.33274 0.43635 0.61919 0.0
H3635 H 0.32856 0.46206 0.61435 0.0
H3636 H 0.27236 0.64518 0.99992 0.0
H3637 H 0.27394 0.61902 0.00503 0.0
H3638 H 0.31312 0.61658 0.97965 0.0
H3639 H 0.31143 0.64259 0.97432 0.0
H3640 H 0.29452 0.5953 0.97169 0.0
H3641 H 0.29995 0.59647 0.03213 0.0
H3642 H 0.2841 0.606 0.02592 0.0
H3643 H 0.3021 0.61273 0.02144 0.0
C3644 C 0.28139 0.63908 0.99559 0.0
C3645 C 0.29167 0.6459 0.98659 0.0
C3646 C 0.28235 0.62415 0.99859 0.0
C3647 C 0.29376 0.61583 0.99288 0.0
C3648 C 0.30422 0.62274 0.98418 0.0
H3649 H 0.30662 0.5243 0.01684 0.0
H3650 H 0.31017 0.55067 0.01361 0.0
C3651 C 0.30319 0.63759 0.98107 0.0
C3652 C 0.29417 0.59973 0.99496 0.0
H3653 H 0.29306 0.57324 0.02077 0.0
C3654 C 0.29435 0.5905 0.98245 0.0
C3655 C 0.29426 0.59341 0.00898 0.0
C3656 C 0.29526 0.60267 0.02288 0.0
C3657 C 0.29407 0.57519 0.98352 0.0
C3658 C 0.29312 0.56887 0.99749 0.0
C3659 C 0.29353 0.57807 0.01005 0.0
C3660 C 0.29122 0.55279 0.99922 0.0
C3661 C 0.29493 0.56597 0.96965 0.0
C3662 C 0.27935 0.5452 0.99228 0.0
C3663 C 0.27744 0.5301 0.99387 0.0
C3664 C 0.2872 0.52224 0.00268 0.0
C3665 C 0.29902 0.52991 0.00976 0.0
C3666 C 0.301 0.54503 0.00805 0.0
H3667 H 0.30047 0.57207 0.96088 0.0
H3668 H 0.30092 0.55571 0.97158 0.0
H3669 H 0.28367 0.56301 0.96561 0.0
H3670 H 0.27145 0.55098 0.98568 0.0
H3671 H 0.2683 0.5246 0.98811 0.0
H3672 H 0.77724 0.15953 0.29411 0.0
H3673 H 0.77056 0.13399 0.29854 0.0
H3674 H 0.74194 0.13297 0.26031 0.0
H3675 H 0.74879 0.15858 0.2556 0.0
H3676 H 0.74066 0.12363 0.30284 0.0
H3677 H 0.76718 0.09529 0.25611 0.0
H3678 H 0.77284 0.1135 0.26243 0.0
H3679 H 0.75602 0.11077 0.2521 0.0
C3680 C 0.76974 0.15383 0.28645 0.0
C3681 C 0.76361 0.16111 0.27445 0.0
C3682 C 0.76586 0.13925 0.28907 0.0
C3683 C 0.75585 0.13156 0.2797 0.0
C3684 C 0.74982 0.13866 0.26758 0.0
H3685 H 0.72573 0.03963 0.2897 0.0
H3686 H 0.72854 0.06446 0.28003 0.0
C3687 C 0.75365 0.15332 0.26498 0.0
C3688 C 0.75123 0.11638 0.28324 0.0
H3689 H 0.75462 0.08046 0.27273 0.0
C3690 C 0.74361 0.11419 0.2962 0.0
C3691 C 0.75495 0.10411 0.27446 0.0
C3692 C 0.76327 0.10591 0.26052 0.0
C3693 C 0.73993 0.10006 0.30083 0.0
C3694 C 0.74426 0.08774 0.29245 0.0
C3695 C 0.75136 0.08992 0.27916 0.0
C3696 C 0.74256 0.07263 0.29797 0.0
C3697 C 0.73153 0.09845 0.31476 0.0
C3698 C 0.74968 0.06895 0.3111 0.0
C3699 C 0.74806 0.05491 0.31664 0.0
C3700 C 0.73939 0.0441 0.30911 0.0
C3701 C 0.73238 0.04773 0.29583 0.0
C3702 C 0.73404 0.06187 0.29025 0.0
H3703 H 0.72519 0.10841 0.31729 0.0
H3704 H 0.72385 0.08884 0.31402 0.0
H3705 H 0.73936 0.09686 0.32403 0.0
H3706 H 0.7565 0.07699 0.31712 0.0
H3707 H 0.75345 0.0526 0.327 0.0
H3708 H 0.63674 0.83119 0.02343 0.0
H3709 H 0.64402 0.85715 0.02594 0.0
H3710 H 0.63192 0.8634 0.98059 0.0
H3711 H 0.62445 0.83753 0.97808 0.0
H3712 H 0.66429 0.87414 0.01117 0.0
H3713 H 0.60764 0.89359 0.00206 0.0
H3714 H 0.61153 0.87468 0.00551 0.0
H3715 H 0.6141 0.88196 0.9876 0.0
C3716 C 0.63579 0.83809 0.01398 0.0
C3717 C 0.62993 0.83245 1.0006 0.0
C3718 C 0.6399 0.85288 0.01542 0.0
C3719 C 0.63824 0.86219 0.00351 0.0
C3720 C 0.63294 0.85644 0.98999 0.0
H3721 H 0.6517 0.95708 0.99898 0.0
H3722 H 0.64921 0.93097 0.99194 0.0
C3723 C 0.62872 0.8417 0.98857 0.0
C3724 C 0.64173 0.87799 0.00536 0.0
H3725 H 0.62647 0.91172 0.00437 0.0
C3726 C 0.65606 0.88237 0.00964 0.0
C3727 C 0.6309 0.88866 0.00337 0.0
C3728 C 0.61515 0.88452 0.99952 0.0
C3729 C 0.65984 0.89721 0.01205 0.0
C3730 C 0.64899 0.90782 0.01018 0.0
C3731 C 0.63476 0.90348 0.00563 0.0
C3732 C 0.65181 0.92337 0.01409 0.0
C3733 C 0.67536 0.90146 0.01668 0.0
C3734 C 0.65406 0.92757 0.02883 0.0
C3735 C 0.65536 0.94235 0.03286 0.0
C3736 C 0.65442 0.95315 0.02219 0.0
C3737 C 0.65252 0.94892 0.00737 0.0
C3738 C 0.65108 0.93409 0.00336 0.0
H3739 H 0.68309 0.89254 0.01428 0.0
H3740 H 0.67905 0.91151 0.01108 0.0
H3741 H 0.67582 0.9038 0.02866 0.0
H3742 H 0.65443 0.91941 0.03726 0.0
H3743 H 0.65698 0.94535 0.04434 0.0
H3744 H 0.63253 0.34648 0.34639 0.0
H3745 H 0.62927 0.33978 0.37193 0.0
H3746 H 0.67564 0.33279 0.37673 0.0
H3747 H 0.67905 0.33973 0.35123 0.0
H3748 H 0.63694 0.3127 0.38545 0.0
H3749 H 0.66636 0.36088 0.41154 0.0
H3750 H 0.65998 0.36066 0.39266 0.0
H3751 H 0.67617 0.35103 0.39776 0.0
C3752 C 0.64208 0.34368 0.3529 0.0
C3753 C 0.65607 0.34373 0.34674 0.0
C3754 C 0.64018 0.33976 0.36749 0.0
C3755 C 0.65223 0.33594 0.3763 0.0
C3756 C 0.66621 0.33589 0.3702 0.0
H3757 H 0.65965 0.31496 0.46907 0.0
H3758 H 0.66452 0.31938 0.44332 0.0
C3759 C 0.66812 0.33973 0.35557 0.0
C3760 C 0.65006 0.33178 0.39179 0.0
H3761 H 0.65788 0.34255 0.42726 0.0
C3762 C 0.64151 0.31922 0.3946 0.0
C3763 C 0.65611 0.34023 0.40372 0.0
C3764 C 0.66509 0.35402 0.40136 0.0
C3765 C 0.63893 0.31482 0.409 0.0
C3766 C 0.64472 0.32344 0.42097 0.0
C3767 C 0.65341 0.33593 0.41813 0.0
C3768 C 0.64168 0.31991 0.43651 0.0
C3769 C 0.63027 0.30079 0.4112 0.0
C3770 C 0.62722 0.31871 0.44136 0.0
C3771 C 0.62439 0.31592 0.45606 0.0
C3772 C 0.63595 0.3145 0.46637 0.0
C3773 C 0.65044 0.3157 0.46146 0.0
C3774 C 0.65326 0.31838 0.44673 0.0
H3775 H 0.63076 0.29328 0.40149 0.0
H3776 H 0.63435 0.29496 0.42097 0.0
H3777 H 0.6186 0.30341 0.41281 0.0
H3778 H 0.61807 0.32017 0.43382 0.0
H3779 H 0.61309 0.31496 0.45933 0.0
H3780 H 0.00395 0.27646 0.64553 0.0
H3781 H 0.00963 0.27834 0.61953 0.0
H3782 H 0.97472 0.30882 0.6138 0.0
H3783 H 0.9692 0.30736 0.63976 0.0
H3784 H 0.97432 0.28395 0.59358 0.0
H3785 H 0.0283 0.31348 0.59697 0.0
H3786 H 0.02627 0.29805 0.60874 0.0
H3787 H 0.01541 0.31395 0.61169 0.0
C3788 C 0.99761 0.28373 0.6388 0.0
C3789 C 0.98601 0.29164 0.64475 0.0
C3790 C 0.00089 0.2848 0.62395 0.0
C3791 C 0.99266 0.2938 0.61479 0.0
C3792 C 0.9812 0.30181 0.6207 0.0
H3793 H 0.9964 0.31107 0.52107 0.0
H3794 H 0.99373 0.31384 0.54772 0.0
C3795 C 0.97797 0.30083 0.63552 0.0
C3796 C 0.99533 0.29415 0.59887 0.0
H3797 H 0.02057 0.30386 0.57355 0.0
C3798 C 0.98438 0.28838 0.58919 0.0
C3799 C 0.00845 0.30002 0.59321 0.0
C3800 C 0.02027 0.30685 0.60314 0.0
C3801 C 0.98637 0.288 0.57401 0.0
C3802 C 0.99959 0.29358 0.56838 0.0
C3803 C 0.01046 0.29959 0.57798 0.0
C3804 C 0.00239 0.29259 0.55252 0.0
C3805 C 0.97446 0.28145 0.564 0.0
C3806 C 0.00827 0.2798 0.54655 0.0
C3807 C 0.00972 0.27816 0.53142 0.0
C3808 C 0.00537 0.28931 0.52199 0.0
C3809 C 0.9999 0.30233 0.52807 0.0
C3810 C 0.99837 0.30393 0.54325 0.0
H3811 H 0.96459 0.27803 0.57007 0.0
H3812 H 0.97123 0.28952 0.55569 0.0
H3813 H 0.97867 0.27173 0.55805 0.0
H3814 H 0.01143 0.27096 0.55359 0.0
H3815 H 0.01419 0.26811 0.52707 0.0
H3816 H 0.26719 0.78063 0.15036 0.0
H3817 H 0.27057 0.77364 0.12463 0.0
H3818 H 0.28081 0.72977 0.1373 0.0
H3819 H 0.27761 0.73666 0.16298 0.0
H3820 H 0.29579 0.76369 0.11232 0.0
H3821 H 0.25108 0.72209 0.10395 0.0
H3822 H 0.25183 0.73484 0.11938 0.0
H3823 H 0.26269 0.71864 0.11957 0.0
C3824 C 0.27011 0.76947 0.14767 0.0
C3825 C 0.27208 0.7592 0.15878 0.0
C3826 C 0.27197 0.76548 0.13295 0.0
C3827 C 0.27571 0.75111 0.129 0.0
C3828 C 0.27754 0.74081 0.14003 0.0
H3829 H 0.3096 0.70644 0.05353 0.0
H3830 H 0.29957 0.71345 0.07725 0.0
C3831 C 0.2757 0.74478 0.15474 0.0
C3832 C 0.27871 0.74713 0.11349 0.0
H3833 H 0.26964 0.72245 0.08583 0.0
C3834 C 0.28994 0.7548 0.10647 0.0
C3835 C 0.27109 0.73551 0.10586 0.0
C3836 C 0.2584 0.72738 0.11252 0.0
C3837 C 0.29409 0.75085 0.09222 0.0
C3838 C 0.2867 0.73901 0.08473 0.0
C3839 C 0.2753 0.73149 0.09163 0.0
C3840 C 0.29109 0.73403 0.06992 0.0
C3841 C 0.30668 0.75905 0.08545 0.0
C3842 C 0.28915 0.74302 0.05782 0.0
C3843 C 0.29475 0.739 0.04422 0.0
C3844 C 0.30244 0.7259 0.04246 0.0
C3845 C 0.30365 0.71654 0.05444 0.0
C3846 C 0.298 0.72056 0.06804 0.0
H3847 H 0.31287 0.76613 0.0936 0.0
H3848 H 0.31436 0.75127 0.08037 0.0
H3849 H 0.30236 0.76611 0.07669 0.0
H3850 H 0.28364 0.75335 0.059 0.0
H3851 H 0.29338 0.74633 0.03515 0.0
H3852 H 0.02482 0.63886 0.83152 0.0
H3853 H 0.0273 0.64695 0.85728 0.0
H3854 H 0.98335 0.63097 0.86488 0.0
H3855 H 0.98089 0.62271 0.83927 0.0
H3856 H 0.01105 0.66634 0.87378 0.0
H3857 H 0.00749 0.61016 0.8957 0.0
H3858 H 0.01025 0.61357 0.87657 0.0
H3859 H 0.99223 0.61459 0.88402 0.0
C3860 C 0.01568 0.63718 0.8387 0.0
C3861 C 0.00272 0.63005 0.8335 0.0
C3862 C 0.01711 0.64176 0.85337 0.0
C3863 C 0.0056 0.63931 0.86299 0.0
C3864 C 0.99248 0.63263 0.85769 0.0
H3865 H 0.99771 0.65409 0.95686 0.0
H3866 H 0.99179 0.65118 0.93057 0.0
C3867 C 0.99109 0.62795 0.84309 0.0
C3868 C 0.00734 0.64358 0.87862 0.0
H3869 H 0.00721 0.62984 0.91303 0.0
C3870 C 0.01021 0.65838 0.88238 0.0
C3871 C 0.00628 0.63313 0.88977 0.0
C3872 C 0.00404 0.61696 0.88635 0.0
C3873 C 0.01196 0.66303 0.89707 0.0
C3874 C 0.01084 0.65258 0.90818 0.0
C3875 C 0.00785 0.63782 0.90443 0.0
C3876 C 0.01378 0.65644 0.92373 0.0
C3877 C 0.01495 0.67905 0.90064 0.0
C3878 C 0.02803 0.66054 0.92844 0.0
C3879 C 0.03143 0.66214 0.94335 0.0
C3880 C 0.02062 0.65963 0.95377 0.0
C3881 C 0.00619 0.65618 0.94902 0.0
C3882 C 0.00282 0.65448 0.93407 0.0
H3883 H 0.01201 0.68607 0.89129 0.0
H3884 H 0.00876 0.68261 0.91037 0.0
H3885 H 0.02681 0.68079 0.90323 0.0
H3886 H 0.03667 0.66187 0.92061 0.0
H3887 H 0.04262 0.6649 0.94677 0.0
H3888 H 0.65611 0.34278 0.6809 0.0
H3889 H 0.63068 0.34581 0.68791 0.0
H3890 H 0.61799 0.35134 0.64265 0.0
H3891 H 0.64332 0.34779 0.63545 0.0
H3892 H 0.6137 0.37017 0.68356 0.0
H3893 H 0.58763 0.32117 0.65572 0.0
H3894 H 0.60722 0.32319 0.65852 0.0
H3895 H 0.59813 0.33274 0.64405 0.0
C3896 C 0.6479 0.34435 0.67237 0.0
C3897 C 0.65183 0.34497 0.65758 0.0
C3898 C 0.63335 0.34619 0.67643 0.0
C3899 C 0.62236 0.34862 0.66581 0.0
C3900 C 0.6262 0.34921 0.65103 0.0
H3901 H 0.52846 0.36531 0.67379 0.0
H3902 H 0.55302 0.361 0.66435 0.0
C3903 C 0.64076 0.34735 0.64695 0.0
C3904 C 0.60705 0.35125 0.67034 0.0
H3905 H 0.57173 0.33807 0.66681 0.0
C3906 C 0.60453 0.36312 0.67992 0.0
C3907 C 0.59505 0.34215 0.66547 0.0
C3908 C 0.5971 0.32902 0.65547 0.0
C3909 C 0.5904 0.36619 0.68474 0.0
C3910 C 0.57843 0.3569 0.68015 0.0
C3911 C 0.58089 0.34516 0.67037 0.0
C3912 C 0.56339 0.35899 0.68574 0.0
C3913 C 0.58843 0.37952 0.69452 0.0
C3914 C 0.56094 0.35891 0.70086 0.0
C3915 C 0.54701 0.36146 0.70625 0.0
C3916 C 0.5351 0.36394 0.69664 0.0
C3917 C 0.53741 0.36345 0.68146 0.0
C3918 C 0.55144 0.36102 0.67606 0.0
H3919 H 0.59741 0.38777 0.69324 0.0
H3920 H 0.57782 0.38478 0.69214 0.0
H3921 H 0.58861 0.37617 0.70613 0.0
H3922 H 0.56985 0.3569 0.70854 0.0
H3923 H 0.54553 0.36142 0.71798 0.0
H3924 H 0.83588 0.75416 0.25608 0.0
H3925 H 0.86142 0.75383 0.26472 0.0
H3926 H 0.8695 0.71788 0.2348 0.0
H3927 H 0.84391 0.71791 0.22627 0.0
H3928 H 0.87464 0.72899 0.27756 0.0
H3929 H 0.9042 0.74704 0.22835 0.0
H3930 H 0.88495 0.75026 0.23083 0.0
H3931 H 0.89089 0.73239 0.22532 0.0
C3932 C 0.84307 0.74618 0.25131 0.0
C3933 C 0.83778 0.73602 0.24051 0.0
C3934 C 0.8577 0.74608 0.25619 0.0
C3935 C 0.8674 0.73595 0.25029 0.0
C3936 C 0.86228 0.72599 0.2393 0.0
H3937 H 0.95592 0.71033 0.2727 0.0
H3938 H 0.93245 0.71475 0.26024 0.0
C3939 C 0.84763 0.72604 0.23443 0.0
C3940 C 0.88252 0.73506 0.25648 0.0
H3941 H 0.91873 0.7386 0.24818 0.0
C3942 C 0.88429 0.7312 0.27118 0.0
C3943 C 0.89507 0.73776 0.24806 0.0
C3944 C 0.89377 0.74221 0.23228 0.0
C3945 C 0.89825 0.72976 0.27766 0.0
C3946 C 0.91084 0.73269 0.26934 0.0
C3947 C 0.90909 0.73649 0.25459 0.0
C3948 C 0.92587 0.73148 0.27575 0.0
C3949 C 0.89935 0.72467 0.29326 0.0
C3950 C 0.93028 0.73988 0.28822 0.0
C3951 C 0.94366 0.73735 0.29539 0.0
C3952 C 0.953 0.72651 0.29008 0.0
C3953 C 0.94902 0.71884 0.27699 0.0
C3954 C 0.93557 0.7213 0.2699 0.0
H3955 H 0.88905 0.71912 0.29664 0.0
H3956 H 0.9085 0.71699 0.2947 0.0
H3957 H 0.90143 0.7343 0.30072 0.0
H3958 H 0.92314 0.74808 0.29271 0.0
H3959 H 0.94651 0.74356 0.30533 0.0
H3960 H 0.16186 0.00794 0.37284 0.0
H3961 H 0.13688 0.00425 0.36301 0.0
H3962 H 0.12945 0.96966 0.39354 0.0
H3963 H 0.15449 0.97319 0.40337 0.0
H3964 H 0.12522 0.97834 0.3501 0.0
H3965 H 0.0934 0.9953 0.39849 0.0
H3966 H 0.11265 0.99982 0.39682 0.0
H3967 H 0.10692 0.98174 0.40201 0.0
C3968 C 0.15492 0.99954 0.37747 0.0
C3969 C 0.16018 0.99084 0.38888 0.0
C3970 C 0.14063 0.99751 0.37189 0.0
C3971 C 0.13126 0.98682 0.37767 0.0
C3972 C 0.1364 0.9782 0.38914 0.0
H3973 H 0.04474 0.95234 0.35215 0.0
H3974 H 0.06813 0.95829 0.36484 0.0
C3975 C 0.15071 0.98022 0.39474 0.0
C3976 C 0.11643 0.98415 0.37106 0.0
H3977 H 0.07991 0.98434 0.37838 0.0
C3978 C 0.11531 0.97973 0.35625 0.0
C3979 C 0.10354 0.98589 0.37915 0.0
C3980 C 0.10411 0.99106 0.39497 0.0
C3981 C 0.10164 0.97681 0.34935 0.0
C3982 C 0.08872 0.97864 0.3574 0.0
C3983 C 0.08983 0.983 0.37223 0.0
C3984 C 0.074 0.97596 0.35055 0.0
C3985 C 0.10117 0.97146 0.33357 0.0
C3986 C 0.06935 0.98424 0.33863 0.0
C3987 C 0.05602 0.98088 0.33138 0.0
C3988 C 0.04701 0.96924 0.33599 0.0
C3989 C 0.05138 0.96142 0.34839 0.0
C3990 C 0.06476 0.96477 0.35561 0.0
H3991 H 0.11186 0.96706 0.33021 0.0
H3992 H 0.09256 0.96277 0.33172 0.0
H3993 H 0.09856 0.98073 0.3264 0.0
H3994 H 0.07617 0.99315 0.33477 0.0
H3995 H 0.05283 0.98728 0.32203 0.0
H3996 H 0.35527 0.00687 0.66398 0.0
H3997 H 0.3788 0.99955 0.6737 0.0
H3998 H 0.39239 0.04492 0.67907 0.0
H3999 H 0.36896 0.05243 0.66863 0.0
H4000 H 0.41347 0.0278 0.66696 0.0
H4001 H 0.3917 0.00174 0.71652 0.0
H4002 H 0.38352 0.99465 0.69968 0.0
H4003 H 0.38082 0.01343 0.70513 0.0
C4004 C 0.36319 0.01537 0.66703 0.0
C4005 C 0.35995 0.03028 0.66559 0.0
C4006 C 0.37664 0.01112 0.67282 0.0
C4007 C 0.38718 0.02169 0.67748 0.0
C4008 C 0.38428 0.03659 0.67573 0.0
H4009 H 0.4662 0.01345 0.72976 0.0
H4010 H 0.44077 0.0163 0.72145 0.0
C4011 C 0.3708 0.04086 0.66984 0.0
C4012 C 0.40138 0.01715 0.6838 0.0
H4013 H 0.41689 0.99801 0.71165 0.0
C4014 C 0.41423 0.02133 0.67675 0.0
C4015 C 0.4023 0.00876 0.69663 0.0
C4016 C 0.38887 0.00449 0.70503 0.0
C4017 C 0.42802 0.0173 0.68212 0.0
C4018 C 0.42894 0.00859 0.69473 0.0
C4019 C 0.4161 0.0045 0.70188 0.0
C4020 C 0.44327 0.00434 0.70097 0.0
C4021 C 0.44151 0.02269 0.67441 0.0
C4022 C 0.45279 0.99594 0.6926 0.0
C4023 C 0.46735 0.99447 0.69719 0.0
C4024 C 0.47261 0.00125 0.71036 0.0
C4025 C 0.4626 0.00837 0.71943 0.0
C4026 C 0.44805 0.00994 0.71474 0.0
H4027 H 0.43909 0.03199 0.66718 0.0
H4028 H 0.45028 0.02623 0.68243 0.0
H4029 H 0.44574 0.01365 0.66749 0.0
H4030 H 0.4492 0.99127 0.68207 0.0
H4031 H 0.47468 0.98898 0.68984 0.0
H4032 H 0.64134 0.64867 0.36142 0.0
H4033 H 0.64765 0.62295 0.36416 0.0
H4034 H 0.68379 0.62882 0.33519 0.0
H4035 H 0.67736 0.65443 0.33202 0.0
H4036 H 0.65162 0.59954 0.34097 0.0
H4037 H 0.70167 0.61334 0.3748 0.0
H4038 H 0.68703 0.62608 0.37227 0.0
H4039 H 0.69975 0.62293 0.3579 0.0
C4040 C 0.65049 0.64448 0.35542 0.0
C4041 C 0.65888 0.65374 0.34655 0.0
C4042 C 0.65412 0.62977 0.35707 0.0
C4043 C 0.66627 0.62403 0.35 0.0
C4044 C 0.67448 0.63309 0.3409 0.0
H4045 H 0.71475 0.54413 0.35269 0.0
H4046 H 0.70509 0.56837 0.34815 0.0
C4047 C 0.67082 0.64777 0.33917 0.0
C4048 C 0.67066 0.60869 0.35245 0.0
H4049 H 0.69781 0.58852 0.36773 0.0
C4050 C 0.66169 0.59708 0.34686 0.0
C4051 C 0.68378 0.60554 0.36015 0.0
C4052 C 0.69361 0.61759 0.36675 0.0
C4053 C 0.66572 0.58238 0.34838 0.0
C4054 C 0.67891 0.57921 0.35604 0.0
C4055 C 0.68774 0.59089 0.36182 0.0
C4056 C 0.68411 0.56398 0.35793 0.0
C4057 C 0.65606 0.57044 0.34134 0.0
C4058 C 0.67552 0.55329 0.36483 0.0
C4059 C 0.681 0.5393 0.36731 0.0
C4060 C 0.69529 0.53585 0.3632 0.0
C4061 C 0.70376 0.5465 0.35614 0.0
C4062 C 0.69824 0.56037 0.35351 0.0
H4063 H 0.64886 0.57475 0.33254 0.0
H4064 H 0.66269 0.56154 0.33661 0.0
H4065 H 0.64892 0.56567 0.34976 0.0
H4066 H 0.66473 0.55587 0.36867 0.0
H4067 H 0.67428 0.53136 0.3729 0.0
H4068 H 0.64337 0.36516 0.01902 0.0
H4069 H 0.65204 0.38848 0.0096 0.0
H4070 H 0.6948 0.38175 0.02892 0.0
H4071 H 0.6865 0.3583 0.03785 0.0
H4072 H 0.6629 0.41252 0.02439 0.0
H4073 H 0.70514 0.39153 0.9873 0.0
H4074 H 0.69122 0.3798 0.99493 0.0
H4075 H 0.70733 0.38516 0.00564 0.0
C4076 C 0.65471 0.36841 0.02106 0.0
C4077 C 0.66434 0.35941 0.02888 0.0
C4078 C 0.65962 0.38185 0.01572 0.0
C4079 C 0.6742 0.38661 0.01813 0.0
C4080 C 0.68364 0.37804 0.02646 0.0
H4081 H 0.72414 0.46631 0.01389 0.0
H4082 H 0.71596 0.44063 0.01507 0.0
C4083 C 0.67877 0.36463 0.03174 0.0
C4084 C 0.6794 0.40091 0.01269 0.0
H4085 H 0.7065 0.41731 0.99322 0.0
C4086 C 0.67229 0.41356 0.0174 0.0
C4087 C 0.69165 0.40221 0.00354 0.0
C4088 C 0.69919 0.38894 0.99743 0.0
C4089 C 0.67748 0.42754 0.01374 0.0
C4090 C 0.69001 0.42885 0.00498 0.0
C4091 C 0.69692 0.41621 0.99995 0.0
C4092 C 0.6964 0.44338 0.0017 0.0
C4093 C 0.66984 0.44082 0.01972 0.0
C4094 C 0.68847 0.45316 0.99318 0.0
C4095 C 0.69303 0.46782 0.99258 0.0
C4096 C 0.70565 0.47293 1.00046 0.0
C4097 C 0.71426 0.46277 0.0079 0.0
C4098 C 0.70965 0.44809 0.00852 0.0
H4099 H 0.66208 0.43795 0.02846 0.0
H4100 H 0.67795 0.44908 0.02424 0.0
H4101 H 0.66356 0.44594 0.01073 0.0
H4102 H 0.67828 0.44965 0.98772 0.0
H4103 H 0.68603 0.47533 0.98685 0.0
H4104 H 0.24998 0.83982 0.75635 0.0
H4105 H 0.25861 0.86543 0.75556 0.0
H4106 H 0.24164 0.86814 0.71129 0.0
H4107 H 0.23312 0.84255 0.71192 0.0
H4108 H 0.27216 0.8768 0.71605 0.0
H4109 H 0.23525 0.90462 0.75487 0.0
H4110 H 0.24332 0.88799 0.76108 0.0
H4111 H 0.2305 0.88725 0.74587 0.0
C4112 C 0.24801 0.8459 0.74649 0.0
C4113 C 0.24088 0.83913 0.7342 0.0
C4114 C 0.25281 0.86057 0.7461 0.0
C4115 C 0.25062 0.86871 0.73342 0.0
C4116 C 0.24332 0.86207 0.72123 0.0
H4117 H 0.27388 0.95937 0.71421 0.0
H4118 H 0.2602 0.93653 0.71862 0.0
C4119 C 0.23841 0.84747 0.72164 0.0
C4120 C 0.25705 0.88372 0.73242 0.0
H4121 H 0.25554 0.91866 0.74655 0.0
C4122 C 0.26849 0.88596 0.72267 0.0
C4123 C 0.25216 0.89566 0.741 0.0
C4124 C 0.23955 0.89388 0.75124 0.0
C4125 C 0.2754 0.89976 0.7215 0.0
C4126 C 0.27081 0.91162 0.73037 0.0
C4127 C 0.25912 0.9095 0.73988 0.0
C4128 C 0.2782 0.92622 0.72982 0.0
C4129 C 0.28759 0.9016 0.71076 0.0
C4130 C 0.29265 0.92816 0.73518 0.0
C4131 C 0.30046 0.94121 0.73279 0.0
C4132 C 0.29398 0.95256 0.72493 0.0
C4133 C 0.27917 0.95092 0.7204 0.0
C4134 C 0.27135 0.93784 0.72284 0.0
H4135 H 0.28797 0.89219 0.70285 0.0
H4136 H 0.28628 0.91183 0.70456 0.0
H4137 H 0.29825 0.90243 0.71685 0.0
H4138 H 0.29807 0.91936 0.74073 0.0
H4139 H 0.31176 0.9422 0.73663 0.0
H4140 H 0.40502 0.15301 0.00594 0.0
H4141 H 0.39577 0.12782 0.0014 0.0
H4142 H 0.36746 0.14278 0.96666 0.0
H4143 H 0.37683 0.16783 0.97089 0.0
H4144 H 0.36626 0.1177 0.00282 0.0
H4145 H 0.38836 0.10814 0.94753 0.0
H4146 H 0.39512 0.12276 0.95972 0.0
H4147 H 0.37847 0.12484 0.94913 0.0
C4148 C 0.39698 0.15088 0.99719 0.0
C4149 C 0.39166 0.16241 0.98876 0.0
C4150 C 0.39166 0.13651 0.99467 0.0
C4151 C 0.38109 0.13343 0.98357 0.0
C4152 C 0.37581 0.14489 0.97512 0.0
H4153 H 0.32346 0.06636 0.94928 0.0
H4154 H 0.33841 0.08817 0.95566 0.0
C4155 C 0.38106 0.15923 0.97765 0.0
C4156 C 0.37498 0.11837 0.98115 0.0
H4157 H 0.36901 0.09181 0.95464 0.0
C4158 C 0.36703 0.1119 0.99238 0.0
C4159 C 0.37608 0.11084 0.96753 0.0
C4160 C 0.38509 0.11693 0.95533 0.0
C4161 C 0.35946 0.09844 0.99007 0.0
C4162 C 0.36007 0.09122 0.97624 0.0
C4163 C 0.36851 0.09742 0.96521 0.0
C4164 C 0.35118 0.07779 0.97258 0.0
C4165 C 0.35029 0.09242 0.00219 0.0
C4166 C 0.3535 0.06466 0.9799 0.0
C4167 C 0.34486 0.05215 0.97635 0.0
C4168 C 0.33378 0.05258 0.9654 0.0
C4169 C 0.33169 0.06572 0.95796 0.0
C4170 C 0.34031 0.07817 0.96151 0.0
H4171 H 0.34875 0.10068 0.01112 0.0
H4172 H 0.33935 0.08862 0.99787 0.0
H4173 H 0.35581 0.08288 0.00697 0.0
H4174 H 0.362 0.06408 0.98832 0.0
H4175 H 0.34671 0.04222 0.98231 0.0
H4176 H 0.33347 0.63697 0.64188 0.0
H4177 H 0.33796 0.64371 0.61651 0.0
H4178 H 0.35701 0.68509 0.63175 0.0
H4179 H 0.35293 0.67833 0.6571 0.0
H4180 H 0.32814 0.6684 0.60067 0.0
H4181 H 0.38881 0.66776 0.60565 0.0
H4182 H 0.37705 0.65943 0.61891 0.0
H4183 H 0.38027 0.67894 0.6193 0.0
C4184 C 0.33872 0.64747 0.63985 0.0
C4185 C 0.3429 0.65707 0.65158 0.0
C4186 C 0.34119 0.65133 0.62533 0.0
C4187 C 0.34802 0.66481 0.62224 0.0
C4188 C 0.35194 0.67453 0.63388 0.0
H4189 H 0.37604 0.7116 0.54656 0.0
H4190 H 0.37056 0.70256 0.57082 0.0
C4191 C 0.34944 0.67071 0.64838 0.0
C4192 C 0.35103 0.66876 0.60686 0.0
H4193 H 0.37875 0.67776 0.58398 0.0
C4194 C 0.3392 0.67034 0.59696 0.0
C4195 C 0.36547 0.67127 0.60204 0.0
C4196 C 0.37865 0.66914 0.61197 0.0
C4197 C 0.34139 0.67488 0.58253 0.0
C4198 C 0.35584 0.67759 0.57776 0.0
C4199 C 0.36767 0.67573 0.58761 0.0
C4200 C 0.35899 0.68291 0.56282 0.0
C4201 C 0.32818 0.67724 0.57271 0.0
C4202 C 0.35446 0.67483 0.55016 0.0
C4203 C 0.35757 0.68001 0.5362 0.0
C4204 C 0.36549 0.69327 0.53462 0.0
C4205 C 0.37013 0.70123 0.54734 0.0
C4206 C 0.36693 0.69611 0.56124 0.0
H4207 H 0.31804 0.67842 0.57909 0.0
H4208 H 0.32972 0.68715 0.56604 0.0
H4209 H 0.32654 0.66763 0.56514 0.0
H4210 H 0.34863 0.66443 0.55106 0.0
H4211 H 0.35397 0.67354 0.52664 0.0
H4212 H 0.0483 0.66616 0.36965 0.0
H4213 H 0.04032 0.67464 0.39368 0.0
H4214 H 0.99618 0.67834 0.3766 0.0
H4215 H 0.00407 0.67015 0.35255 0.0
H4216 H 0.00673 0.70329 0.39298 0.0
H4217 H 0.01483 0.65158 0.42255 0.0
H4218 H 0.03055 0.65762 0.41264 0.0
H4219 H 0.01392 0.6523 0.40281 0.0
C4220 C 0.03691 0.66883 0.37094 0.0
C4221 C 0.02685 0.66756 0.35904 0.0
C4222 C 0.03234 0.67354 0.38474 0.0
C4223 C 0.01765 0.67702 0.38691 0.0
C4224 C 0.00757 0.67568 0.37515 0.0
H4225 H 0.98692 0.6899 0.47533 0.0
H4226 H 0.98695 0.68338 0.44934 0.0
C4227 C 0.0121 0.67091 0.3614 0.0
C4228 C 0.01287 0.68239 0.40138 0.0
H4229 H 0.01119 0.67303 0.43721 0.0
C4230 C 0.00757 0.69666 0.40266 0.0
C4231 C 0.01369 0.67358 0.41387 0.0
C4232 C 0.01841 0.65787 0.41293 0.0
C4233 C 0.00364 0.7026 0.41629 0.0
C4234 C 0.00529 0.69409 0.42894 0.0
C4235 C 0.01003 0.6796 0.42752 0.0
C4236 C 0.00298 0.70008 0.44389 0.0
C4237 C 0.99778 0.7179 0.41702 0.0
C4238 C 0.01156 0.71203 0.44937 0.0
C4239 C 0.0114 0.71597 0.46424 0.0
C4240 C 0.00281 0.70789 0.47394 0.0
C4241 C 0.99353 0.69653 0.4682 0.0
C4242 C 0.99363 0.69267 0.45333 0.0
H4243 H 0.99274 0.72097 0.40636 0.0
H4244 H 0.98948 0.719 0.42566 0.0
H4245 H 0.00694 0.7258 0.41962 0.0
H4246 H 0.01904 0.71777 0.44234 0.0
H4247 H 0.01855 0.72488 0.46826 0.0
H4248 H 0.74991 0.22631 0.84705 0.0
H4249 H 0.74895 0.23377 0.87307 0.0
H4250 H 0.71518 0.26434 0.86265 0.0
H4251 H 0.71599 0.25693 0.83682 0.0
H4252 H 0.7531 0.26386 0.88532 0.0
H4253 H 0.69848 0.23946 0.89656 0.0
H4254 H 0.70932 0.23353 0.8813 0.0
H4255 H 0.69892 0.24997 0.88017 0.0
C4256 C 0.74222 0.23454 0.85035 0.0
C4257 C 0.73306 0.24108 0.83987 0.0
C4258 C 0.74172 0.23882 0.86518 0.0
C4259 C 0.73189 0.24949 0.86978 0.0
C4260 C 0.72273 0.25596 0.85935 0.0
H4261 H 0.70414 0.30364 0.9385 0.0
H4262 H 0.70897 0.28874 0.91679 0.0
C4263 C 0.7233 0.25181 0.84457 0.0
C4264 C 0.73132 0.25436 0.88537 0.0
H4265 H 0.70754 0.2582 0.91341 0.0
C4266 C 0.74328 0.26239 0.89163 0.0
C4267 C 0.71851 0.25236 0.89355 0.0
C4268 C 0.70561 0.24324 0.88763 0.0
C4269 C 0.74236 0.26935 0.90548 0.0
C4270 C 0.72922 0.26801 0.91332 0.0
C4271 C 0.71759 0.25928 0.90738 0.0
C4272 C 0.72664 0.27687 0.92684 0.0
C4273 C 0.75511 0.27878 0.91123 0.0
C4274 C 0.73492 0.27511 0.93983 0.0
C4275 C 0.73227 0.28379 0.95234 0.0
C4276 C 0.72131 0.29439 0.95204 0.0
C4277 C 0.71293 0.29589 0.93905 0.0
C4278 C 0.71557 0.28725 0.92664 0.0
H4279 H 0.76352 0.28053 0.9028 0.0
H4280 H 0.75127 0.28963 0.9151 0.0
H4281 H 0.76038 0.2734 0.92069 0.0
H4282 H 0.74337 0.267 0.94031 0.0
H4283 H 0.73888 0.28232 0.96218 0.0
H4284 H 0.97329 0.4034 0.15749 0.0
H4285 H 0.96967 0.39357 0.13244 0.0
H4286 H 0.00611 0.36501 0.13881 0.0
H4287 H 0.00989 0.37483 0.16377 0.0
H4288 H 0.98931 0.39179 0.10819 0.0
H4289 H 0.97125 0.33707 0.12727 0.0
H4290 H 0.97225 0.35312 0.13921 0.0
H4291 H 0.98862 0.34356 0.1348 0.0
C4292 C 0.98066 0.39516 0.15349 0.0
C4293 C 0.99178 0.38978 0.16268 0.0
C4294 C 0.97854 0.38954 0.1392 0.0
C4295 C 0.98748 0.37841 0.13388 0.0
C4296 C 0.99892 0.37339 0.14282 0.0
H4297 H 0.98783 0.32306 0.05584 0.0
H4298 H 0.99412 0.33662 0.0786 0.0
C4299 C 0.00103 0.37899 0.15709 0.0
C4300 C 0.98458 0.37167 0.11917 0.0
H4301 H 0.97485 0.33926 0.10185 0.0
C4302 C 0.9861 0.38033 0.10676 0.0
C4303 C 0.98035 0.35672 0.1174 0.0
C4304 C 0.97788 0.34708 0.13036 0.0
C4305 C 0.98382 0.37431 0.09256 0.0
C4306 C 0.97972 0.35933 0.09081 0.0
C4307 C 0.97811 0.35073 0.10324 0.0
C4308 C 0.97683 0.35225 0.07624 0.0
C4309 C 0.98611 0.38392 0.07956 0.0
C4310 C 0.9651 0.35665 0.06729 0.0
C4311 C 0.96142 0.34887 0.0543 0.0
C4312 C 0.96935 0.33649 0.0501 0.0
C4313 C 0.98138 0.33242 0.05887 0.0
C4314 C 0.98504 0.34019 0.07184 0.0
H4315 H 0.99267 0.39399 0.08258 0.0
H4316 H 0.99172 0.37788 0.07069 0.0
H4317 H 0.9753 0.3873 0.07518 0.0
H4318 H 0.95844 0.36574 0.07064 0.0
H4319 H 0.95198 0.35217 0.0479 0.0
loop_
_geom_bond_atom_site_label_1
_geom_bond_atom_site_label_2
_geom_bond_distance
_geom_bond_site_symmetry_2
_ccdc_geom_bond_type
C0 C1 1.264 . S
C0 C5 1.479 . S
C0 C10 1.465 . S
C1 C0 1.264 . S
C1 C3 1.339 . S
C1 H28 0.931 . S
C2 C3 1.395 . S
C2 C4 1.320 . S
C3 C1 1.339 . S
C3 C2 1.395 . S
C3 H29 0.929 . S
C4 C2 1.320 . S
C4 C5 1.405 . S
C4 H30 0.930 . S
C5 C0 1.479 . S
C5 C4 1.405 . S
C5 H31 0.931 . S
U6 O7 2.454 . S
U6 O8 2.458 . S
U6 C9 2.984 . S
U6 C10 2.847 . S
U6 C23 2.882 . S
U6 O24 2.441 . S
U6 O25 2.420 . S
U6 O26 2.455 . S
U6 O27 2.449 . S
O7 U6 2.454 . S
O7 C9 1.353 . S
O8 U6 2.458 . S
O8 C9 1.286 . S
C9 U6 2.984 . S
C9 O7 1.353 . S
C9 O8 1.286 . S
C9 C11 1.363 . S
C10 C0 1.465 . S
C10 U6 2.847 . S
C10 O24 1.249 . S
C10 O25 1.202 . S
C11 C9 1.363 . S
C11 C13 1.408 . S
C11 C16 1.342 . S
C12 C13 1.310 . S
C12 C15 1.461 . S
C12 H32 0.932 . S
C13 C11 1.408 . S
C13 C12 1.310 . S
C13 H33 0.930 . S
C14 C15 1.474 . S
C14 C16 1.285 . S
C14 H34 0.929 . S
C15 C12 1.461 . S
C15 C14 1.474 . S
C16 C11 1.342 . S
C16 C14 1.285 . S
C16 H35 0.930 . S
C17 C20 1.424 . S
C17 C22 1.245 . S
C17 C23 1.428 . S
C18 C21 1.260 . S
C18 C22 1.477 . S
C18 H36 0.932 . S
C19 C20 1.384 . S
C19 C21 1.479 . S
C19 H37 0.929 . S
C20 C17 1.424 . S
C20 C19 1.384 . S
C20 H38 0.928 . S
C21 C18 1.260 . S
C21 C19 1.479 . S
C22 C17 1.245 . S
C22 C18 1.477 . S
C22 H39 0.932 . S
C23 U6 2.882 . S
C23 C17 1.428 . S
C23 O26 1.301 . S
C23 O27 1.282 . S
O24 U6 2.441 . S
O24 C10 1.249 . S
O25 U6 2.420 . S
O25 C10 1.202 . S
O26 U6 2.455 . S
O26 C23 1.301 . S
O27 U6 2.449 . S
O27 C23 1.282 . S
H28 C1 0.931 . S
H29 C3 0.929 . S
H30 C4 0.930 . S
H31 C5 0.931 . S
H32 C12 0.932 . S
H33 C13 0.930 . S
H34 C14 0.929 . S
H35 C16 0.930 . S
H36 C18 0.932 . S
H37 C19 0.929 . S
H38 C20 0.928 . S
H39 C22 0.932 . S
C40 C41 1.264 . S
C40 C45 1.479 . S
C40 C50 1.465 . S
C41 C40 1.264 . S
C41 C43 1.339 . S
C41 H68 0.931 . S
C42 C43 1.395 . S
C42 C44 1.320 . S
C43 C41 1.339 . S
C43 C42 1.395 . S
C43 H69 0.929 . S
C44 C42 1.320 . S
C44 C45 1.405 . S
C44 H70 0.930 . S
C45 C40 1.479 . S
C45 C44 1.405 . S
C45 H71 0.931 . S
U46 O47 2.454 . S
U46 O48 2.458 . S
U46 C49 2.984 . S
U46 C50 2.847 . S
U46 C63 2.882 . S
U46 O64 2.441 . S
U46 O65 2.420 . S
U46 O66 2.455 . S
U46 O67 2.449 . S
O47 U46 2.454 . S
O47 C49 1.353 . S
O48 U46 2.458 . S
O48 C49 1.286 . S
C49 U46 2.984 . S
C49 O47 1.353 . S
C49 O48 1.286 . S
C49 C51 1.363 . S
C50 C40 1.465 . S
C50 U46 2.847 . S
C50 O64 1.249 . S
C50 O65 1.202 . S
C51 C49 1.363 . S
C51 C53 1.408 . S
C51 C56 1.342 . S
C52 C53 1.310 . S
C52 C55 1.461 . S
C52 H72 0.932 . S
C53 C51 1.408 . S
C53 C52 1.310 . S
C53 H73 0.930 . S
C54 C55 1.474 . S
C54 C56 1.285 . S
C54 H74 0.929 . S
C55 C52 1.461 . S
C55 C54 1.474 . S
C56 C51 1.342 . S
C56 C54 1.285 . S
C56 H75 0.930 . S
C57 C60 1.424 . S
C57 C62 1.245 . S
C57 C63 1.428 . S
C58 C61 1.260 . S
C58 C62 1.477 . S
C58 H76 0.932 . S
C59 C60 1.384 . S
C59 C61 1.479 . S
C59 H77 0.929 . S
C60 C57 1.424 . S
C60 C59 1.384 . S
C60 H78 0.928 . S
C61 C58 1.260 . S
C61 C59 1.479 . S
C62 C57 1.245 . S
C62 C58 1.477 . S
C62 H79 0.932 . S
C63 U46 2.882 . S
C63 C57 1.428 . S
C63 O66 1.301 . S
C63 O67 1.282 . S
O64 U46 2.441 . S
O64 C50 1.249 . S
O65 U46 2.420 . S
O65 C50 1.202 . S
O66 U46 2.455 . S
O66 C63 1.301 . S
O67 U46 2.449 . S
O67 C63 1.282 . S
H68 C41 0.931 . S
H69 C43 0.929 . S
H70 C44 0.930 . S
H71 C45 0.931 . S
H72 C52 0.932 . S
H73 C53 0.930 . S
H74 C54 0.929 . S
H75 C56 0.930 . S
H76 C58 0.932 . S
H77 C59 0.929 . S
H78 C60 0.928 . S
H79 C62 0.932 . S
C80 C81 1.264 . S
C80 C85 1.474 1_565 S
C80 C90 1.473 . S
C81 C80 1.264 . S
C81 C83 1.338 1_565 S
C81 H108 0.932 . S
C82 C83 1.395 . S
C82 C84 1.320 . S
C83 C81 1.338 1_545 S
C83 C82 1.395 . S
C83 H109 0.929 . S
C84 C82 1.320 . S
C84 C85 1.405 . S
C84 H110 0.930 . S
C85 C80 1.474 1_545 S
C85 C84 1.405 . S
C85 H111 0.931 . S
U86 O87 2.454 . S
U86 O88 2.458 . S
U86 C89 2.984 . S
U86 C90 2.847 . S
U86 C103 2.882 . S
U86 O104 2.441 . S
U86 O105 2.420 . S
U86 O106 2.455 . S
U86 O107 2.449 . S
O87 U86 2.454 . S
O87 C89 1.353 . S
O88 U86 2.458 . S
O88 C89 1.286 . S
C89 U86 2.984 . S
C89 O87 1.353 . S
C89 O88 1.286 . S
C89 C91 1.363 . S
C90 C80 1.473 . S
C90 U86 2.847 . S
C90 O104 1.249 . S
C90 O105 1.202 . S
C91 C89 1.363 . S
C91 C93 1.408 . S
C91 C96 1.342 . S
C92 C93 1.310 . S
C92 C95 1.461 . S
C92 H112 0.932 . S
C93 C91 1.408 . S
C93 C92 1.310 . S
C93 H113 0.930 . S
C94 C95 1.474 . S
C94 C96 1.285 . S
C94 H114 0.929 . S
C95 C92 1.461 . S
C95 C94 1.474 . S
C96 C91 1.342 . S
C96 C94 1.285 . S
C96 H115 0.930 . S
C97 C100 1.424 . S
C97 C102 1.245 . S
C97 C103 1.428 . S
C98 C101 1.260 . S
C98 C102 1.477 . S
C98 H116 0.932 . S
C99 C100 1.384 . S
C99 C101 1.479 . S
C99 H117 0.929 . S
C100 C97 1.424 . S
C100 C99 1.384 . S
C100 H118 0.928 . S
C101 C98 1.260 . S
C101 C99 1.479 . S
C102 C97 1.245 . S
C102 C98 1.477 . S
C102 H119 0.932 . S
C103 U86 2.882 . S
C103 C97 1.428 . S
C103 O106 1.301 . S
C103 O107 1.282 . S
O104 U86 2.441 . S
O104 C90 1.249 . S
O105 U86 2.420 . S
O105 C90 1.202 . S
O106 U86 2.455 . S
O106 C103 1.301 . S
O107 U86 2.449 . S
O107 C103 1.282 . S
H108 C81 0.932 . S
H109 C83 0.929 . S
H110 C84 0.930 . S
H111 C85 0.931 . S
H112 C92 0.932 . S
H113 C93 0.930 . S
H114 C94 0.929 . S
H115 C96 0.930 . S
H116 C98 0.932 . S
H117 C99 0.929 . S
H118 C100 0.928 . S
H119 C102 0.932 . S
C120 C121 1.264 . S
C120 C125 1.479 . S
C120 C130 1.465 . S
C121 C120 1.264 . S
C121 C123 1.339 . S
C121 H148 0.931 . S
C122 C123 1.395 . S
C122 C124 1.320 . S
C123 C121 1.339 . S
C123 C122 1.395 . S
C123 H149 0.929 . S
C124 C122 1.320 . S
C124 C125 1.405 . S
C124 H150 0.907 1_545 S
C125 C120 1.479 . S
C125 C124 1.405 . S
C125 H151 0.931 . S
U126 O127 2.467 . S
U126 O128 2.458 . S
U126 C129 2.984 1_545 S
U126 C130 2.847 . S
U126 C143 2.882 . S
U126 O144 2.441 . S
U126 O145 2.420 . S
U126 O146 2.455 . S
U126 O147 2.449 . S
O127 U126 2.467 . S
O127 C129 1.352 1_545 S
O128 U126 2.458 . S
O128 C129 1.286 1_545 S
C129 U126 2.984 1_565 S
C129 O127 1.352 1_565 S
C129 O128 1.286 1_565 S
C129 C131 1.363 . S
C130 C120 1.465 . S
C130 U126 2.847 . S
C130 O144 1.249 . S
C130 O145 1.202 . S
C131 C129 1.363 . S
C131 C133 1.408 . S
C131 C136 1.342 . S
C132 C133 1.310 . S
C132 C135 1.461 . S
C132 H152 0.932 . S
C133 C131 1.408 . S
C133 C132 1.310 . S
C133 H153 0.930 . S
C134 C135 1.474 . S
C134 C136 1.285 . S
C134 H154 0.929 . S
C135 C132 1.461 . S
C135 C134 1.474 . S
C136 C131 1.342 . S
C136 C134 1.285 . S
C136 H155 0.930 . S
C137 C140 1.424 . S
C137 C142 1.245 . S
C137 C143 1.428 . S
C138 C141 1.260 . S
C138 C142 1.477 . S
C138 H156 0.932 . S
C139 C140 1.384 . S
C139 C141 1.479 . S
C139 H157 0.929 . S
C140 C137 1.424 . S
C140 C139 1.384 . S
C140 H158 0.928 . S
C141 C138 1.260 . S
C141 C139 1.479 . S
C142 C137 1.245 . S
C142 C138 1.477 . S
C142 H159 0.932 . S
C143 U126 2.882 . S
C143 C137 1.428 . S
C143 O146 1.301 . S
C143 O147 1.282 . S
O144 U126 2.441 . S
O144 C130 1.249 . S
O145 U126 2.420 . S
O145 C130 1.202 . S
O146 U126 2.455 . S
O146 C143 1.301 . S
O147 U126 2.449 . S
O147 C143 1.282 . S
H148 C121 0.931 . S
H149 C123 0.929 . S
H150 C124 0.907 1_565 S
H151 C125 0.931 . S
H152 C132 0.932 . S
H153 C133 0.930 . S
H154 C134 0.929 . S
H155 C136 0.930 . S
H156 C138 0.932 . S
H157 C139 0.929 . S
H158 C140 0.928 . S
H159 C142 0.932 . S
C160 C161 1.264 . S
C160 C165 1.479 . S
C160 C170 1.465 . S
C161 C160 1.264 . S
C161 C163 1.339 . S
C161 H188 0.931 . S
C162 C163 1.395 . S
C162 C164 1.320 . S
C163 C161 1.339 . S
C163 C162 1.395 . S
C163 H189 0.929 . S
C164 C162 1.320 . S
C164 C165 1.405 . S
C164 H190 0.930 . S
C165 C160 1.479 . S
C165 C164 1.405 . S
C165 H191 0.931 . S
U166 O167 2.454 . S
U166 O168 2.458 . S
U166 C169 2.984 . S
U166 C170 2.847 . S
U166 C183 2.882 . S
U166 O184 2.441 . S
U166 O185 2.420 . S
U166 O186 2.455 . S
U166 O187 2.449 . S
O167 U166 2.454 . S
O167 C169 1.353 . S
O168 U166 2.458 . S
O168 C169 1.286 . S
C169 U166 2.984 . S
C169 O167 1.353 . S
C169 O168 1.286 . S
C169 C171 1.363 . S
C170 C160 1.465 . S
C170 U166 2.847 . S
C170 O184 1.249 . S
C170 O185 1.202 . S
C171 C169 1.363 . S
C171 C173 1.408 . S
C171 C176 1.342 . S
C172 C173 1.310 . S
C172 C175 1.461 . S
C172 H192 0.932 . S
C173 C171 1.408 . S
C173 C172 1.310 . S
C173 H193 0.930 . S
C174 C175 1.474 . S
C174 C176 1.285 . S
C174 H194 0.929 . S
C175 C172 1.461 . S
C175 C174 1.474 . S
C176 C171 1.342 . S
C176 C174 1.285 . S
C176 H195 0.930 . S
C177 C180 1.424 . S
C177 C182 1.245 . S
C177 C183 1.428 . S
C178 C181 1.260 . S
C178 C182 1.477 . S
C178 H196 0.932 . S
C179 C180 1.384 . S
C179 C181 1.479 . S
C179 H197 0.929 . S
C180 C177 1.424 . S
C180 C179 1.384 . S
C180 H198 0.928 . S
C181 C178 1.260 . S
C181 C179 1.479 . S
C182 C177 1.245 . S
C182 C178 1.477 . S
C182 H199 0.932 . S
C183 U166 2.882 . S
C183 C177 1.428 . S
C183 O186 1.301 . S
C183 O187 1.282 . S
O184 U166 2.441 . S
O184 C170 1.249 . S
O185 U166 2.420 . S
O185 C170 1.202 . S
O186 U166 2.455 . S
O186 C183 1.301 . S
O187 U166 2.449 . S
O187 C183 1.282 . S
H188 C161 0.931 . S
H189 C163 0.929 . S
H190 C164 0.930 . S
H191 C165 0.931 . S
H192 C172 0.932 . S
H193 C173 0.930 . S
H194 C174 0.929 . S
H195 C176 0.930 . S
H196 C178 0.932 . S
H197 C179 0.929 . S
H198 C180 0.928 . S
H199 C182 0.932 . S
C200 C201 1.264 . S
C200 C205 1.479 . S
C200 C210 1.465 . S
C201 C200 1.264 . S
C201 C203 1.339 . S
C201 H228 0.931 . S
C202 C203 1.395 . S
C202 C204 1.320 . S
C203 C201 1.339 . S
C203 C202 1.395 . S
C203 H229 0.929 . S
C204 C202 1.320 . S
C204 C205 1.405 . S
C204 H230 0.907 1_554 S
C205 C200 1.479 . S
C205 C204 1.405 . S
C205 H231 0.931 . S
U206 O207 2.467 . S
U206 O208 2.458 . S
U206 C209 2.984 1_554 S
U206 C210 2.847 . S
U206 C223 2.882 . S
U206 O224 2.441 . S
U206 O225 2.420 . S
U206 O226 2.455 . S
U206 O227 2.449 . S
O207 U206 2.467 . S
O207 C209 1.352 1_554 S
O208 U206 2.458 . S
O208 C209 1.286 1_554 S
C209 U206 2.984 1_556 S
C209 O207 1.352 1_556 S
C209 O208 1.286 1_556 S
C209 C211 1.363 . S
C210 C200 1.465 . S
C210 U206 2.847 . S
C210 O224 1.249 . S
C210 O225 1.202 . S
C211 C209 1.363 . S
C211 C213 1.408 . S
C211 C216 1.342 . S
C212 C213 1.310 . S
C212 C215 1.461 . S
C212 H232 0.932 . S
C213 C211 1.408 . S
C213 C212 1.310 . S
C213 H233 0.930 . S
C214 C215 1.474 . S
C214 C216 1.285 . S
C214 H234 0.929 . S
C215 C212 1.461 . S
C215 C214 1.474 . S
C216 C211 1.342 . S
C216 C214 1.285 . S
C216 H235 0.930 . S
C217 C220 1.424 . S
C217 C222 1.245 . S
C217 C223 1.428 . S
C218 C221 1.260 . S
C218 C222 1.477 . S
C218 H236 0.932 . S
C219 C220 1.384 . S
C219 C221 1.479 . S
C219 H237 0.929 . S
C220 C217 1.424 . S
C220 C219 1.384 . S
C220 H238 0.928 . S
C221 C218 1.260 . S
C221 C219 1.479 . S
C222 C217 1.245 . S
C222 C218 1.477 . S
C222 H239 0.932 . S
C223 U206 2.882 . S
C223 C217 1.428 . S
C223 O226 1.301 . S
C223 O227 1.282 . S
O224 U206 2.441 . S
O224 C210 1.249 . S
O225 U206 2.420 . S
O225 C210 1.202 . S
O226 U206 2.455 . S
O226 C223 1.301 . S
O227 U206 2.449 . S
O227 C223 1.282 . S
H228 C201 0.931 . S
H229 C203 0.929 . S
H230 C204 0.907 1_556 S
H231 C205 0.931 . S
H232 C212 0.932 . S
H233 C213 0.930 . S
H234 C214 0.929 . S
H235 C216 0.930 . S
H236 C218 0.932 . S
H237 C219 0.929 . S
H238 C220 0.928 . S
H239 C222 0.932 . S
C240 C241 1.264 . S
C240 C245 1.479 . S
C240 C250 1.465 . S
C241 C240 1.264 . S
C241 C243 1.339 . S
C241 H268 0.931 . S
C242 C243 1.395 . S
C242 C244 1.320 . S
C243 C241 1.339 . S
C243 C242 1.395 . S
C243 H269 0.929 . S
C244 C242 1.320 . S
C244 C245 1.405 . S
C244 H270 0.930 . S
C245 C240 1.479 . S
C245 C244 1.405 . S
C245 H271 0.931 . S
U246 O247 2.454 . S
U246 O248 2.458 . S
U246 C249 2.984 . S
U246 C250 2.847 . S
U246 C263 2.882 . S
U246 O264 2.441 . S
U246 O265 2.420 . S
U246 O266 2.455 . S
U246 O267 2.449 . S
O247 U246 2.454 . S
O247 C249 1.353 . S
O248 U246 2.458 . S
O248 C249 1.286 . S
C249 U246 2.984 . S
C249 O247 1.353 . S
C249 O248 1.286 . S
C249 C251 1.363 . S
C250 C240 1.465 . S
C250 U246 2.847 . S
C250 O264 1.249 . S
C250 O265 1.202 . S
C251 C249 1.363 . S
C251 C253 1.408 . S
C251 C256 1.342 . S
C252 C253 1.310 . S
C252 C255 1.461 . S
C252 H272 0.932 . S
C253 C251 1.408 . S
C253 C252 1.310 . S
C253 H273 0.930 . S
C254 C255 1.474 . S
C254 C256 1.285 . S
C254 H274 0.929 . S
C255 C252 1.461 . S
C255 C254 1.474 . S
C256 C251 1.342 . S
C256 C254 1.285 . S
C256 H275 0.930 . S
C257 C260 1.424 . S
C257 C262 1.245 . S
C257 C263 1.428 . S
C258 C261 1.260 . S
C258 C262 1.477 . S
C258 H276 0.932 . S
C259 C260 1.384 . S
C259 C261 1.479 . S
C259 H277 0.929 . S
C260 C257 1.424 . S
C260 C259 1.384 . S
C260 H278 0.928 . S
C261 C258 1.260 . S
C261 C259 1.479 . S
C262 C257 1.245 . S
C262 C258 1.477 . S
C262 H279 0.932 . S
C263 U246 2.882 . S
C263 C257 1.428 . S
C263 O266 1.301 . S
C263 O267 1.282 . S
O264 U246 2.441 . S
O264 C250 1.249 . S
O265 U246 2.420 . S
O265 C250 1.202 . S
O266 U246 2.455 . S
O266 C263 1.301 . S
O267 U246 2.449 . S
O267 C263 1.282 . S
H268 C241 0.931 . S
H269 C243 0.929 . S
H270 C244 0.930 . S
H271 C245 0.931 . S
H272 C252 0.932 . S
H273 C253 0.930 . S
H274 C254 0.929 . S
H275 C256 0.930 . S
H276 C258 0.932 . S
H277 C259 0.929 . S
H278 C260 0.928 . S
H279 C262 0.932 . S
C280 C281 1.264 . S
C280 C285 1.474 1_556 S
C280 C290 1.473 . S
C281 C280 1.264 . S
C281 C283 1.338 1_556 S
C281 H308 0.932 . S
C282 C283 1.395 . S
C282 C284 1.320 . S
C283 C281 1.338 1_554 S
C283 C282 1.395 . S
C283 H309 0.929 . S
C284 C282 1.320 . S
C284 C285 1.405 . S
C284 H310 0.930 . S
C285 C280 1.474 1_554 S
C285 C284 1.405 . S
C285 H311 0.931 . S
U286 O287 2.454 . S
U286 O288 2.458 . S
U286 C289 2.984 . S
U286 C290 2.847 . S
U286 C303 2.882 . S
U286 O304 2.441 . S
U286 O305 2.420 . S
U286 O306 2.455 . S
U286 O307 2.449 . S
O287 U286 2.454 . S
O287 C289 1.353 . S
O288 U286 2.458 . S
O288 C289 1.286 . S
C289 U286 2.984 . S
C289 O287 1.353 . S
C289 O288 1.286 . S
C289 C291 1.363 . S
C290 C280 1.473 . S
C290 U286 2.847 . S
C290 O304 1.249 . S
C290 O305 1.202 . S
C291 C289 1.363 . S
C291 C293 1.408 . S
C291 C296 1.342 . S
C292 C293 1.310 . S
C292 C295 1.461 . S
C292 H312 0.932 . S
C293 C291 1.408 . S
C293 C292 1.310 . S
C293 H313 0.930 . S
C294 C295 1.474 . S
C294 C296 1.285 . S
C294 H314 0.929 . S
C295 C292 1.461 . S
C295 C294 1.474 . S
C296 C291 1.342 . S
C296 C294 1.285 . S
C296 H315 0.930 . S
C297 C300 1.424 . S
C297 C302 1.245 . S
C297 C303 1.428 . S
C298 C301 1.260 . S
C298 C302 1.477 . S
C298 H316 0.932 . S
C299 C300 1.384 . S
C299 C301 1.479 . S
C299 H317 0.929 . S
C300 C297 1.424 . S
C300 C299 1.384 . S
C300 H318 0.928 . S
C301 C298 1.260 . S
C301 C299 1.479 . S
C302 C297 1.245 . S
C302 C298 1.477 . S
C302 H319 0.932 . S
C303 U286 2.882 . S
C303 C297 1.428 . S
C303 O306 1.301 . S
C303 O307 1.282 . S
O304 U286 2.441 . S
O304 C290 1.249 . S
O305 U286 2.420 . S
O305 C290 1.202 . S
O306 U286 2.455 . S
O306 C303 1.301 . S
O307 U286 2.449 . S
O307 C303 1.282 . S
H308 C281 0.932 . S
H309 C283 0.929 . S
H310 C284 0.930 . S
H311 C285 0.931 . S
H312 C292 0.932 . S
H313 C293 0.930 . S
H314 C294 0.929 . S
H315 C296 0.930 . S
H316 C298 0.932 . S
H317 C299 0.929 . S
H318 C300 0.928 . S
H319 C302 0.932 . S
C320 C321 1.264 . S
C320 C325 1.479 . S
C320 C330 1.465 . S
C321 C320 1.264 . S
C321 C323 1.339 . S
C321 H348 0.931 . S
C322 C323 1.395 . S
C322 C324 1.320 . S
C323 C321 1.339 . S
C323 C322 1.395 . S
C323 H349 0.929 . S
C324 C322 1.320 . S
C324 C325 1.405 . S
C324 H350 0.930 . S
C325 C320 1.479 . S
C325 C324 1.405 . S
C325 H351 0.931 . S
U326 O327 2.454 . S
U326 O328 2.458 . S
U326 C329 2.984 . S
U326 C330 2.847 . S
U326 C343 2.882 . S
U326 O344 2.441 . S
U326 O345 2.420 . S
U326 O346 2.455 . S
U326 O347 2.449 . S
O327 U326 2.454 . S
O327 C329 1.353 . S
O328 U326 2.458 . S
O328 C329 1.286 . S
C329 U326 2.984 . S
C329 O327 1.353 . S
C329 O328 1.286 . S
C329 C331 1.363 . S
C330 C320 1.465 . S
C330 U326 2.847 . S
C330 O344 1.249 . S
C330 O345 1.202 . S
C331 C329 1.363 . S
C331 C333 1.408 . S
C331 C336 1.342 . S
C332 C333 1.310 . S
C332 C335 1.461 . S
C332 H352 0.932 . S
C333 C331 1.408 . S
C333 C332 1.310 . S
C333 H353 0.930 . S
C334 C335 1.474 . S
C334 C336 1.285 . S
C334 H354 0.929 . S
C335 C332 1.461 . S
C335 C334 1.474 . S
C336 C331 1.342 . S
C336 C334 1.285 . S
C336 H355 0.930 . S
C337 C340 1.424 . S
C337 C342 1.245 . S
C337 C343 1.428 . S
C338 C341 1.260 . S
C338 C342 1.477 . S
C338 H356 0.932 . S
C339 C340 1.384 . S
C339 C341 1.479 . S
C339 H357 0.929 . S
C340 C337 1.424 . S
C340 C339 1.384 . S
C340 H358 0.928 . S
C341 C338 1.260 . S
C341 C339 1.479 . S
C342 C337 1.245 . S
C342 C338 1.477 . S
C342 H359 0.932 . S
C343 U326 2.882 . S
C343 C337 1.428 . S
C343 O346 1.301 . S
C343 O347 1.282 . S
O344 U326 2.441 . S
O344 C330 1.249 . S
O345 U326 2.420 . S
O345 C330 1.202 . S
O346 U326 2.455 . S
O346 C343 1.301 . S
O347 U326 2.449 . S
O347 C343 1.282 . S
H348 C321 0.931 . S
H349 C323 0.929 . S
H350 C324 0.930 . S
H351 C325 0.931 . S
H352 C332 0.932 . S
H353 C333 0.930 . S
H354 C334 0.929 . S
H355 C336 0.930 . S
H356 C338 0.932 . S
H357 C339 0.929 . S
H358 C340 0.928 . S
H359 C342 0.932 . S
C360 C361 1.264 . S
C360 C365 1.479 . S
C360 C370 1.465 . S
C361 C360 1.264 . S
C361 C363 1.339 . S
C361 H388 0.931 . S
C362 C363 1.395 . S
C362 C364 1.320 . S
C363 C361 1.339 . S
C363 C362 1.395 . S
C363 H389 0.929 . S
C364 C362 1.320 . S
C364 C365 1.405 . S
C364 H390 0.907 1_455 S
C365 C360 1.479 . S
C365 C364 1.405 . S
C365 H391 0.931 . S
U366 O367 2.467 . S
U366 O368 2.458 . S
U366 C369 2.984 1_455 S
U366 C370 2.847 . S
U366 C383 2.882 . S
U366 O384 2.441 . S
U366 O385 2.420 . S
U366 O386 2.455 . S
U366 O387 2.449 . S
O367 U366 2.467 . S
O367 C369 1.352 1_455 S
O368 U366 2.458 . S
O368 C369 1.286 1_455 S
C369 U366 2.984 1_655 S
C369 O367 1.352 1_655 S
C369 O368 1.286 1_655 S
C369 C371 1.363 . S
C370 C360 1.465 . S
C370 U366 2.847 . S
C370 O384 1.249 . S
C370 O385 1.202 . S
C371 C369 1.363 . S
C371 C373 1.408 . S
C371 C376 1.342 . S
C372 C373 1.310 . S
C372 C375 1.461 . S
C372 H392 0.932 . S
C373 C371 1.408 . S
C373 C372 1.310 . S
C373 H393 0.930 . S
C374 C375 1.474 . S
C374 C376 1.285 . S
C374 H394 0.929 . S
C375 C372 1.461 . S
C375 C374 1.474 . S
C376 C371 1.342 . S
C376 C374 1.285 . S
C376 H395 0.930 . S
C377 C380 1.424 . S
C377 C382 1.245 . S
C377 C383 1.428 . S
C378 C381 1.260 . S
C378 C382 1.477 . S
C378 H396 0.932 . S
C379 C380 1.384 . S
C379 C381 1.479 . S
C379 H397 0.929 . S
C380 C377 1.424 . S
C380 C379 1.384 . S
C380 H398 0.928 . S
C381 C378 1.260 . S
C381 C379 1.479 . S
C382 C377 1.245 . S
C382 C378 1.477 . S
C382 H399 0.932 . S
C383 U366 2.882 . S
C383 C377 1.428 . S
C383 O386 1.301 . S
C383 O387 1.282 . S
O384 U366 2.441 . S
O384 C370 1.249 . S
O385 U366 2.420 . S
O385 C370 1.202 . S
O386 U366 2.455 . S
O386 C383 1.301 . S
O387 U366 2.449 . S
O387 C383 1.282 . S
H388 C361 0.931 . S
H389 C363 0.929 . S
H390 C364 0.907 1_655 S
H391 C365 0.931 . S
H392 C372 0.932 . S
H393 C373 0.930 . S
H394 C374 0.929 . S
H395 C376 0.930 . S
H396 C378 0.932 . S
H397 C379 0.929 . S
H398 C380 0.928 . S
H399 C382 0.932 . S
C400 C401 1.264 . S
C400 C405 1.479 . S
C400 C410 1.465 . S
C401 C400 1.264 . S
C401 C403 1.339 . S
C401 H428 0.931 . S
C402 C403 1.395 . S
C402 C404 1.320 . S
C403 C401 1.339 . S
C403 C402 1.395 . S
C403 H429 0.929 . S
C404 C402 1.320 . S
C404 C405 1.405 . S
C404 H430 0.930 . S
C405 C400 1.479 . S
C405 C404 1.405 . S
C405 H431 0.931 . S
U406 O407 2.454 . S
U406 O408 2.458 . S
U406 C409 2.984 . S
U406 C410 2.847 . S
U406 C423 2.882 . S
U406 O424 2.441 . S
U406 O425 2.420 . S
U406 O426 2.455 . S
U406 O427 2.449 . S
O407 U406 2.454 . S
O407 C409 1.353 . S
O408 U406 2.458 . S
O408 C409 1.286 . S
C409 U406 2.984 . S
C409 O407 1.353 . S
C409 O408 1.286 . S
C409 C411 1.363 . S
C410 C400 1.465 . S
C410 U406 2.847 . S
C410 O424 1.249 . S
C410 O425 1.202 . S
C411 C409 1.363 . S
C411 C413 1.408 . S
C411 C416 1.342 . S
C412 C413 1.310 . S
C412 C415 1.461 . S
C412 H432 0.932 . S
C413 C411 1.408 . S
C413 C412 1.310 . S
C413 H433 0.930 . S
C414 C415 1.474 . S
C414 C416 1.285 . S
C414 H434 0.929 . S
C415 C412 1.461 . S
C415 C414 1.474 . S
C416 C411 1.342 . S
C416 C414 1.285 . S
C416 H435 0.930 . S
C417 C420 1.424 . S
C417 C422 1.245 . S
C417 C423 1.428 . S
C418 C421 1.260 . S
C418 C422 1.477 . S
C418 H436 0.932 . S
C419 C420 1.384 . S
C419 C421 1.479 . S
C419 H437 0.929 . S
C420 C417 1.424 . S
C420 C419 1.384 . S
C420 H438 0.928 . S
C421 C418 1.260 . S
C421 C419 1.479 . S
C422 C417 1.245 . S
C422 C418 1.477 . S
C422 H439 0.932 . S
C423 U406 2.882 . S
C423 C417 1.428 . S
C423 O426 1.301 . S
C423 O427 1.282 . S
O424 U406 2.441 . S
O424 C410 1.249 . S
O425 U406 2.420 . S
O425 C410 1.202 . S
O426 U406 2.455 . S
O426 C423 1.301 . S
O427 U406 2.449 . S
O427 C423 1.282 . S
H428 C401 0.931 . S
H429 C403 0.929 . S
H430 C404 0.930 . S
H431 C405 0.931 . S
H432 C412 0.932 . S
H433 C413 0.930 . S
H434 C414 0.929 . S
H435 C416 0.930 . S
H436 C418 0.932 . S
H437 C419 0.929 . S
H438 C420 0.928 . S
H439 C422 0.932 . S
C440 C441 1.264 . S
C440 C445 1.474 1_655 S
C440 C450 1.473 . S
C441 C440 1.264 . S
C441 C443 1.338 1_655 S
C441 H468 0.932 . S
C442 C443 1.395 . S
C442 C444 1.320 . S
C443 C441 1.338 1_455 S
C443 C442 1.395 . S
C443 H469 0.929 . S
C444 C442 1.320 . S
C444 C445 1.405 . S
C444 H470 0.930 . S
C445 C440 1.474 1_455 S
C445 C444 1.405 . S
C445 H471 0.931 . S
U446 O447 2.454 . S
U446 O448 2.458 . S
U446 C449 2.984 . S
U446 C450 2.847 . S
U446 C463 2.882 . S
U446 O464 2.441 . S
U446 O465 2.420 . S
U446 O466 2.455 . S
U446 O467 2.449 . S
O447 U446 2.454 . S
O447 C449 1.353 . S
O448 U446 2.458 . S
O448 C449 1.286 . S
C449 U446 2.984 . S
C449 O447 1.353 . S
C449 O448 1.286 . S
C449 C451 1.363 . S
C450 C440 1.473 . S
C450 U446 2.847 . S
C450 O464 1.249 . S
C450 O465 1.202 . S
C451 C449 1.363 . S
C451 C453 1.408 . S
C451 C456 1.342 . S
C452 C453 1.310 . S
C452 C455 1.461 . S
C452 H472 0.932 . S
C453 C451 1.408 . S
C453 C452 1.310 . S
C453 H473 0.930 . S
C454 C455 1.474 . S
C454 C456 1.285 . S
C454 H474 0.929 . S
C455 C452 1.461 . S
C455 C454 1.474 . S
C456 C451 1.342 . S
C456 C454 1.285 . S
C456 H475 0.930 . S
C457 C460 1.424 . S
C457 C462 1.245 . S
C457 C463 1.428 . S
C458 C461 1.260 . S
C458 C462 1.477 . S
C458 H476 0.932 . S
C459 C460 1.384 . S
C459 C461 1.479 . S
C459 H477 0.929 . S
C460 C457 1.424 . S
C460 C459 1.384 . S
C460 H478 0.928 . S
C461 C458 1.260 . S
C461 C459 1.479 . S
C462 C457 1.245 . S
C462 C458 1.477 . S
C462 H479 0.932 . S
C463 U446 2.882 . S
C463 C457 1.428 . S
C463 O466 1.301 . S
C463 O467 1.282 . S
O464 U446 2.441 . S
O464 C450 1.249 . S
O465 U446 2.420 . S
O465 C450 1.202 . S
O466 U446 2.455 . S
O466 C463 1.301 . S
O467 U446 2.449 . S
O467 C463 1.282 . S
H468 C441 0.932 . S
H469 C443 0.929 . S
H470 C444 0.930 . S
H471 C445 0.931 . S
H472 C452 0.932 . S
H473 C453 0.930 . S
H474 C454 0.929 . S
H475 C456 0.930 . S
H476 C458 0.932 . S
H477 C459 0.929 . S
H478 C460 0.928 . S
H479 C462 0.932 . S
C480 C481 1.264 . S
C480 C485 1.479 . S
C480 C490 1.465 . S
C481 C480 1.264 . S
C481 C483 1.339 . S
C481 H508 0.931 . S
C482 C483 1.395 . S
C482 C484 1.320 . S
C483 C481 1.339 . S
C483 C482 1.395 . S
C483 H509 0.929 . S
C484 C482 1.320 . S
C484 C485 1.405 . S
C484 H510 0.930 . S
C485 C480 1.479 . S
C485 C484 1.405 . S
C485 H511 0.931 . S
U486 O487 2.454 . S
U486 O488 2.458 . S
U486 C489 2.984 . S
U486 C490 2.847 . S
U486 C503 2.882 . S
U486 O504 2.441 . S
U486 O505 2.420 . S
U486 O506 2.455 . S
U486 O507 2.449 . S
O487 U486 2.454 . S
O487 C489 1.353 . S
O488 U486 2.458 . S
O488 C489 1.286 . S
C489 U486 2.984 . S
C489 O487 1.353 . S
C489 O488 1.286 . S
C489 C491 1.363 . S
C490 C480 1.465 . S
C490 U486 2.847 . S
C490 O504 1.249 . S
C490 O505 1.202 . S
C491 C489 1.363 . S
C491 C493 1.408 . S
C491 C496 1.342 . S
C492 C493 1.310 . S
C492 C495 1.461 . S
C492 H512 0.932 . S
C493 C491 1.408 . S
C493 C492 1.310 . S
C493 H513 0.930 . S
C494 C495 1.474 . S
C494 C496 1.285 . S
C494 H514 0.929 . S
C495 C492 1.461 . S
C495 C494 1.474 . S
C496 C491 1.342 . S
C496 C494 1.285 . S
C496 H515 0.930 . S
C497 C500 1.424 . S
C497 C502 1.245 . S
C497 C503 1.428 . S
C498 C501 1.260 . S
C498 C502 1.477 . S
C498 H516 0.932 . S
C499 C500 1.384 . S
C499 C501 1.479 . S
C499 H517 0.929 . S
C500 C497 1.424 . S
C500 C499 1.384 . S
C500 H518 0.928 . S
C501 C498 1.260 . S
C501 C499 1.479 . S
C502 C497 1.245 . S
C502 C498 1.477 . S
C502 H519 0.932 . S
C503 U486 2.882 . S
C503 C497 1.428 . S
C503 O506 1.301 . S
C503 O507 1.282 . S
O504 U486 2.441 . S
O504 C490 1.249 . S
O505 U486 2.420 . S
O505 C490 1.202 . S
O506 U486 2.455 . S
O506 C503 1.301 . S
O507 U486 2.449 . S
O507 C503 1.282 . S
H508 C481 0.931 . S
H509 C483 0.929 . S
H510 C484 0.930 . S
H511 C485 0.931 . S
H512 C492 0.932 . S
H513 C493 0.930 . S
H514 C494 0.929 . S
H515 C496 0.930 . S
H516 C498 0.932 . S
H517 C499 0.929 . S
H518 C500 0.928 . S
H519 C502 0.932 . S
C520 C521 1.264 . S
C520 C525 1.479 . S
C520 C530 1.465 . S
C521 C520 1.264 . S
C521 C523 1.339 . S
C521 H548 0.931 . S
C522 C523 1.395 . S
C522 C524 1.320 . S
C523 C521 1.339 . S
C523 C522 1.395 . S
C523 H549 0.929 . S
C524 C522 1.320 . S
C524 C525 1.405 . S
C524 H550 0.930 . S
C525 C520 1.479 . S
C525 C524 1.405 . S
C525 H551 0.931 . S
U526 O527 2.454 . S
U526 O528 2.458 . S
U526 C529 2.984 . S
U526 C530 2.847 . S
U526 C543 2.882 . S
U526 O544 2.441 . S
U526 O545 2.420 . S
U526 O546 2.455 . S
U526 O547 2.449 . S
O527 U526 2.454 . S
O527 C529 1.353 . S
O528 U526 2.458 . S
O528 C529 1.286 . S
C529 U526 2.984 . S
C529 O527 1.353 . S
C529 O528 1.286 . S
C529 C531 1.363 . S
C530 C520 1.465 . S
C530 U526 2.847 . S
C530 O544 1.249 . S
C530 O545 1.202 . S
C531 C529 1.363 . S
C531 C533 1.408 . S
C531 C536 1.342 . S
C532 C533 1.310 . S
C532 C535 1.461 . S
C532 H552 0.932 . S
C533 C531 1.408 . S
C533 C532 1.310 . S
C533 H553 0.930 . S
C534 C535 1.474 . S
C534 C536 1.285 . S
C534 H554 0.929 . S
C535 C532 1.461 . S
C535 C534 1.474 . S
C536 C531 1.342 . S
C536 C534 1.285 . S
C536 H555 0.930 . S
C537 C540 1.424 . S
C537 C542 1.245 . S
C537 C543 1.428 . S
C538 C541 1.260 . S
C538 C542 1.477 . S
C538 H556 0.932 . S
C539 C540 1.384 . S
C539 C541 1.479 . S
C539 H557 0.929 . S
C540 C537 1.424 . S
C540 C539 1.384 . S
C540 H558 0.928 . S
C541 C538 1.260 . S
C541 C539 1.479 . S
C542 C537 1.245 . S
C542 C538 1.477 . S
C542 H559 0.932 . S
C543 U526 2.882 . S
C543 C537 1.428 . S
C543 O546 1.301 . S
C543 O547 1.282 . S
O544 U526 2.441 . S
O544 C530 1.249 . S
O545 U526 2.420 . S
O545 C530 1.202 . S
O546 U526 2.455 . S
O546 C543 1.301 . S
O547 U526 2.449 . S
O547 C543 1.282 . S
H548 C521 0.931 . S
H549 C523 0.929 . S
H550 C524 0.930 . S
H551 C525 0.931 . S
H552 C532 0.932 . S
H553 C533 0.930 . S
H554 C534 0.929 . S
H555 C536 0.930 . S
H556 C538 0.932 . S
H557 C539 0.929 . S
H558 C540 0.928 . S
H559 C542 0.932 . S
C560 C561 1.264 . S
C560 C565 1.479 . S
C560 C570 1.465 . S
C561 C560 1.264 . S
C561 C563 1.339 . S
C561 H588 0.931 . S
C562 C563 1.395 . S
C562 C564 1.320 . S
C563 C561 1.339 . S
C563 C562 1.395 . S
C563 H589 0.929 . S
C564 C562 1.320 . S
C564 C565 1.405 . S
C564 H590 0.930 . S
C565 C560 1.479 . S
C565 C564 1.405 . S
C565 H591 0.931 . S
U566 O567 2.454 . S
U566 O568 2.458 . S
U566 C569 2.984 . S
U566 C570 2.847 . S
U566 C583 2.882 . S
U566 O584 2.441 . S
U566 O585 2.420 . S
U566 O586 2.455 . S
U566 O587 2.449 . S
O567 U566 2.454 . S
O567 C569 1.353 . S
O568 U566 2.458 . S
O568 C569 1.286 . S
C569 U566 2.984 . S
C569 O567 1.353 . S
C569 O568 1.286 . S
C569 C571 1.359 1_565 S
C570 C560 1.465 . S
C570 U566 2.847 . S
C570 O584 1.249 . S
C570 O585 1.202 . S
C571 C569 1.359 1_545 S
C571 C573 1.407 1_545 S
C571 C576 1.349 . S
C572 C573 1.308 1_545 S
C572 C575 1.461 . S
C572 H592 0.932 . S
C573 C571 1.407 1_565 S
C573 C572 1.308 1_565 S
C573 H593 0.933 . S
C574 C575 1.474 . S
C574 C576 1.285 . S
C574 H594 0.929 . S
C575 C572 1.461 . S
C575 C574 1.474 . S
C576 C571 1.349 . S
C576 C574 1.285 . S
C576 H595 0.930 . S
C577 C580 1.424 . S
C577 C582 1.245 . S
C577 C583 1.428 . S
C578 C581 1.271 . S
C578 C582 1.469 1_545 S
C578 H596 0.935 . S
C579 C580 1.384 . S
C579 C581 1.479 1_565 S
C579 H597 0.929 . S
C580 C577 1.424 . S
C580 C579 1.384 . S
C580 H598 0.928 . S
C581 C578 1.271 . S
C581 C579 1.479 1_545 S
C582 C577 1.245 . S
C582 C578 1.469 1_565 S
C582 H599 0.937 . S
C583 U566 2.882 . S
C583 C577 1.428 . S
C583 O586 1.301 . S
C583 O587 1.282 . S
O584 U566 2.441 . S
O584 C570 1.249 . S
O585 U566 2.420 . S
O585 C570 1.202 . S
O586 U566 2.455 . S
O586 C583 1.301 . S
O587 U566 2.449 . S
O587 C583 1.282 . S
H588 C561 0.931 . S
H589 C563 0.929 . S
H590 C564 0.930 . S
H591 C565 0.931 . S
H592 C572 0.932 . S
H593 C573 0.933 . S
H594 C574 0.929 . S
H595 C576 0.930 . S
H596 C578 0.935 . S
H597 C579 0.929 . S
H598 C580 0.928 . S
H599 C582 0.937 . S
C600 C601 1.264 . S
C600 C605 1.479 . S
C600 C610 1.465 . S
C601 C600 1.264 . S
C601 C603 1.339 . S
C601 H628 0.931 . S
C602 C603 1.392 1_565 S
C602 C604 1.317 1_565 S
C603 C601 1.339 . S
C603 C602 1.392 1_545 S
C603 H629 0.929 . S
C604 C602 1.317 1_545 S
C604 C605 1.405 . S
C604 H630 0.931 1_545 S
C605 C600 1.479 . S
C605 C604 1.405 . S
C605 H631 0.931 . S
U606 O607 2.454 . S
U606 O608 2.458 . S
U606 C609 2.984 . S
U606 C610 2.847 . S
U606 C623 2.882 . S
U606 O624 2.441 . S
U606 O625 2.420 . S
U606 O626 2.455 . S
U606 O627 2.449 . S
O607 U606 2.454 . S
O607 C609 1.353 . S
O608 U606 2.458 . S
O608 C609 1.286 . S
C609 U606 2.984 . S
C609 O607 1.353 . S
C609 O608 1.286 . S
C609 C611 1.363 . S
C610 C600 1.465 . S
C610 U606 2.847 . S
C610 O624 1.249 . S
C610 O625 1.202 . S
C611 C609 1.363 . S
C611 C613 1.408 . S
C611 C616 1.342 . S
C612 C613 1.310 . S
C612 C615 1.461 . S
C612 H632 0.932 . S
C613 C611 1.408 . S
C613 C612 1.310 . S
C613 H633 0.930 . S
C614 C615 1.474 . S
C614 C616 1.285 . S
C614 H634 0.929 . S
C615 C612 1.461 . S
C615 C614 1.474 . S
C616 C611 1.342 . S
C616 C614 1.285 . S
C616 H635 0.930 . S
C617 C620 1.405 1_545 S
C617 C622 1.245 . S
C617 C623 1.428 . S
C618 C621 1.288 . S
C618 C622 1.461 1_565 S
C618 H636 0.926 1_565 S
C619 C620 1.398 . S
C619 C621 1.479 . S
C619 H637 0.929 . S
C620 C617 1.405 1_565 S
C620 C619 1.398 . S
C620 H638 0.937 . S
C621 C618 1.288 . S
C621 C619 1.479 . S
C622 C617 1.245 . S
C622 C618 1.461 1_545 S
C622 H639 0.932 . S
C623 U606 2.882 . S
C623 C617 1.428 . S
C623 O626 1.301 . S
C623 O627 1.282 . S
O624 U606 2.441 . S
O624 C610 1.249 . S
O625 U606 2.420 . S
O625 C610 1.202 . S
O626 U606 2.455 . S
O626 C623 1.301 . S
O627 U606 2.449 . S
O627 C623 1.282 . S
H628 C601 0.931 . S
H629 C603 0.929 . S
H630 C604 0.931 1_565 S
H631 C605 0.931 . S
H632 C612 0.932 . S
H633 C613 0.930 . S
H634 C614 0.929 . S
H635 C616 0.930 . S
H636 C618 0.926 1_545 S
H637 C619 0.929 . S
H638 C620 0.937 . S
H639 C622 0.932 . S
C640 C641 1.264 . S
C640 C645 1.479 . S
C640 C650 1.465 . S
C641 C640 1.264 . S
C641 C643 1.339 . S
C641 H668 0.931 . S
C642 C643 1.395 . S
C642 C644 1.320 . S
C643 C641 1.339 . S
C643 C642 1.395 . S
C643 H669 0.929 . S
C644 C642 1.320 . S
C644 C645 1.405 . S
C644 H670 0.930 . S
C645 C640 1.479 . S
C645 C644 1.405 . S
C645 H671 0.931 . S
U646 O647 2.454 . S
U646 O648 2.458 . S
U646 C649 2.984 . S
U646 C650 2.847 . S
U646 C663 2.882 . S
U646 O664 2.441 . S
U646 O665 2.420 . S
U646 O666 2.455 . S
U646 O667 2.449 . S
O647 U646 2.454 . S
O647 C649 1.353 . S
O648 U646 2.458 . S
O648 C649 1.286 . S
C649 U646 2.984 . S
C649 O647 1.353 . S
C649 O648 1.286 . S
C649 C651 1.363 . S
C650 C640 1.465 . S
C650 U646 2.847 . S
C650 O664 1.249 . S
C650 O665 1.202 . S
C651 C649 1.363 . S
C651 C653 1.408 . S
C651 C656 1.342 . S
C652 C653 1.310 . S
C652 C655 1.461 . S
C652 H672 0.932 . S
C653 C651 1.408 . S
C653 C652 1.310 . S
C653 H673 0.930 . S
C654 C655 1.474 . S
C654 C656 1.285 . S
C654 H674 0.929 . S
C655 C652 1.461 . S
C655 C654 1.474 . S
C656 C651 1.342 . S
C656 C654 1.285 . S
C656 H675 0.930 . S
C657 C660 1.424 . S
C657 C662 1.245 . S
C657 C663 1.428 . S
C658 C661 1.260 . S
C658 C662 1.477 . S
C658 H676 0.932 . S
C659 C660 1.384 . S
C659 C661 1.479 . S
C659 H677 0.929 . S
C660 C657 1.424 . S
C660 C659 1.384 . S
C660 H678 0.928 . S
C661 C658 1.260 . S
C661 C659 1.479 . S
C662 C657 1.245 . S
C662 C658 1.477 . S
C662 H679 0.932 . S
C663 U646 2.882 . S
C663 C657 1.428 . S
C663 O666 1.301 . S
C663 O667 1.282 . S
O664 U646 2.441 . S
O664 C650 1.249 . S
O665 U646 2.420 . S
O665 C650 1.202 . S
O666 U646 2.455 . S
O666 C663 1.301 . S
O667 U646 2.449 . S
O667 C663 1.282 . S
H668 C641 0.931 . S
H669 C643 0.929 . S
H670 C644 0.930 . S
H671 C645 0.931 . S
H672 C652 0.932 . S
H673 C653 0.930 . S
H674 C654 0.929 . S
H675 C656 0.930 . S
H676 C658 0.932 . S
H677 C659 0.929 . S
H678 C660 0.928 . S
H679 C662 0.932 . S
C680 C681 1.264 . S
C680 C685 1.479 . S
C680 C690 1.465 . S
C681 C680 1.264 . S
C681 C683 1.339 . S
C681 H708 0.931 . S
C682 C683 1.392 1_556 S
C682 C684 1.317 1_556 S
C683 C681 1.339 . S
C683 C682 1.392 1_554 S
C683 H709 0.929 . S
C684 C682 1.317 1_554 S
C684 C685 1.405 . S
C684 H710 0.931 1_554 S
C685 C680 1.479 . S
C685 C684 1.405 . S
C685 H711 0.931 . S
U686 O687 2.454 . S
U686 O688 2.458 . S
U686 C689 2.984 . S
U686 C690 2.847 . S
U686 C703 2.882 . S
U686 O704 2.441 . S
U686 O705 2.420 . S
U686 O706 2.455 . S
U686 O707 2.449 . S
O687 U686 2.454 . S
O687 C689 1.353 . S
O688 U686 2.458 . S
O688 C689 1.286 . S
C689 U686 2.984 . S
C689 O687 1.353 . S
C689 O688 1.286 . S
C689 C691 1.363 . S
C690 C680 1.465 . S
C690 U686 2.847 . S
C690 O704 1.249 . S
C690 O705 1.202 . S
C691 C689 1.363 . S
C691 C693 1.408 . S
C691 C696 1.342 . S
C692 C693 1.310 . S
C692 C695 1.461 . S
C692 H712 0.932 . S
C693 C691 1.408 . S
C693 C692 1.310 . S
C693 H713 0.930 . S
C694 C695 1.474 . S
C694 C696 1.285 . S
C694 H714 0.929 . S
C695 C692 1.461 . S
C695 C694 1.474 . S
C696 C691 1.342 . S
C696 C694 1.285 . S
C696 H715 0.930 . S
C697 C700 1.405 1_554 S
C697 C702 1.245 . S
C697 C703 1.428 . S
C698 C701 1.288 . S
C698 C702 1.461 1_556 S
C698 H716 0.926 1_556 S
C699 C700 1.398 . S
C699 C701 1.479 . S
C699 H717 0.929 . S
C700 C697 1.405 1_556 S
C700 C699 1.398 . S
C700 H718 0.937 . S
C701 C698 1.288 . S
C701 C699 1.479 . S
C702 C697 1.245 . S
C702 C698 1.461 1_554 S
C702 H719 0.932 . S
C703 U686 2.882 . S
C703 C697 1.428 . S
C703 O706 1.301 . S
C703 O707 1.282 . S
O704 U686 2.441 . S
O704 C690 1.249 . S
O705 U686 2.420 . S
O705 C690 1.202 . S
O706 U686 2.455 . S
O706 C703 1.301 . S
O707 U686 2.449 . S
O707 C703 1.282 . S
H708 C681 0.931 . S
H709 C683 0.929 . S
H710 C684 0.931 1_556 S
H711 C685 0.931 . S
H712 C692 0.932 . S
H713 C693 0.930 . S
H714 C694 0.929 . S
H715 C696 0.930 . S
H716 C698 0.926 1_554 S
H717 C699 0.929 . S
H718 C700 0.937 . S
H719 C702 0.932 . S
C720 C721 1.264 . S
C720 C725 1.479 . S
C720 C730 1.465 . S
C721 C720 1.264 . S
C721 C723 1.339 . S
C721 H748 0.931 . S
C722 C723 1.395 . S
C722 C724 1.320 . S
C723 C721 1.339 . S
C723 C722 1.395 . S
C723 H749 0.929 . S
C724 C722 1.320 . S
C724 C725 1.405 . S
C724 H750 0.930 . S
C725 C720 1.479 . S
C725 C724 1.405 . S
C725 H751 0.931 . S
U726 O727 2.454 . S
U726 O728 2.458 . S
U726 C729 2.984 . S
U726 C730 2.847 . S
U726 C743 2.882 . S
U726 O744 2.441 . S
U726 O745 2.420 . S
U726 O746 2.455 . S
U726 O747 2.449 . S
O727 U726 2.454 . S
O727 C729 1.353 . S
O728 U726 2.458 . S
O728 C729 1.286 . S
C729 U726 2.984 . S
C729 O727 1.353 . S
C729 O728 1.286 . S
C729 C731 1.363 . S
C730 C720 1.465 . S
C730 U726 2.847 . S
C730 O744 1.249 . S
C730 O745 1.202 . S
C731 C729 1.363 . S
C731 C733 1.408 . S
C731 C736 1.342 . S
C732 C733 1.310 . S
C732 C735 1.461 . S
C732 H752 0.932 . S
C733 C731 1.408 . S
C733 C732 1.310 . S
C733 H753 0.930 . S
C734 C735 1.474 . S
C734 C736 1.285 . S
C734 H754 0.929 . S
C735 C732 1.461 . S
C735 C734 1.474 . S
C736 C731 1.342 . S
C736 C734 1.285 . S
C736 H755 0.930 . S
C737 C740 1.424 . S
C737 C742 1.245 . S
C737 C743 1.428 . S
C738 C741 1.260 . S
C738 C742 1.477 . S
C738 H756 0.932 . S
C739 C740 1.384 . S
C739 C741 1.479 . S
C739 H757 0.929 . S
C740 C737 1.424 . S
C740 C739 1.384 . S
C740 H758 0.928 . S
C741 C738 1.260 . S
C741 C739 1.479 . S
C742 C737 1.245 . S
C742 C738 1.477 . S
C742 H759 0.932 . S
C743 U726 2.882 . S
C743 C737 1.428 . S
C743 O746 1.301 . S
C743 O747 1.282 . S
O744 U726 2.441 . S
O744 C730 1.249 . S
O745 U726 2.420 . S
O745 C730 1.202 . S
O746 U726 2.455 . S
O746 C743 1.301 . S
O747 U726 2.449 . S
O747 C743 1.282 . S
H748 C721 0.931 . S
H749 C723 0.929 . S
H750 C724 0.930 . S
H751 C725 0.931 . S
H752 C732 0.932 . S
H753 C733 0.930 . S
H754 C734 0.929 . S
H755 C736 0.930 . S
H756 C738 0.932 . S
H757 C739 0.929 . S
H758 C740 0.928 . S
H759 C742 0.932 . S
C760 C761 1.264 . S
C760 C765 1.479 . S
C760 C770 1.465 . S
C761 C760 1.264 . S
C761 C763 1.339 . S
C761 H788 0.931 . S
C762 C763 1.395 . S
C762 C764 1.320 . S
C763 C761 1.339 . S
C763 C762 1.395 . S
C763 H789 0.929 . S
C764 C762 1.320 . S
C764 C765 1.405 . S
C764 H790 0.930 . S
C765 C760 1.479 . S
C765 C764 1.405 . S
C765 H791 0.931 . S
U766 O767 2.454 . S
U766 O768 2.458 . S
U766 C769 2.984 . S
U766 C770 2.847 . S
U766 C783 2.882 . S
U766 O784 2.441 . S
U766 O785 2.420 . S
U766 O786 2.455 . S
U766 O787 2.449 . S
O767 U766 2.454 . S
O767 C769 1.353 . S
O768 U766 2.458 . S
O768 C769 1.286 . S
C769 U766 2.984 . S
C769 O767 1.353 . S
C769 O768 1.286 . S
C769 C771 1.359 1_556 S
C770 C760 1.465 . S
C770 U766 2.847 . S
C770 O784 1.249 . S
C770 O785 1.202 . S
C771 C769 1.359 1_554 S
C771 C773 1.407 1_554 S
C771 C776 1.349 . S
C772 C773 1.308 1_554 S
C772 C775 1.461 . S
C772 H792 0.932 . S
C773 C771 1.407 1_556 S
C773 C772 1.308 1_556 S
C773 H793 0.933 . S
C774 C775 1.474 . S
C774 C776 1.285 . S
C774 H794 0.929 . S
C775 C772 1.461 . S
C775 C774 1.474 . S
C776 C771 1.349 . S
C776 C774 1.285 . S
C776 H795 0.930 . S
C777 C780 1.424 . S
C777 C782 1.245 . S
C777 C783 1.428 . S
C778 C781 1.271 . S
C778 C782 1.469 1_554 S
C778 H796 0.935 . S
C779 C780 1.384 . S
C779 C781 1.479 1_556 S
C779 H797 0.929 . S
C780 C777 1.424 . S
C780 C779 1.384 . S
C780 H798 0.928 . S
C781 C778 1.271 . S
C781 C779 1.479 1_554 S
C782 C777 1.245 . S
C782 C778 1.469 1_556 S
C782 H799 0.937 . S
C783 U766 2.882 . S
C783 C777 1.428 . S
C783 O786 1.301 . S
C783 O787 1.282 . S
O784 U766 2.441 . S
O784 C770 1.249 . S
O785 U766 2.420 . S
O785 C770 1.202 . S
O786 U766 2.455 . S
O786 C783 1.301 . S
O787 U766 2.449 . S
O787 C783 1.282 . S
H788 C761 0.931 . S
H789 C763 0.929 . S
H790 C764 0.930 . S
H791 C765 0.931 . S
H792 C772 0.932 . S
H793 C773 0.933 . S
H794 C774 0.929 . S
H795 C776 0.930 . S
H796 C778 0.935 . S
H797 C779 0.929 . S
H798 C780 0.928 . S
H799 C782 0.937 . S
C800 C801 1.264 . S
C800 C805 1.479 . S
C800 C810 1.465 . S
C801 C800 1.264 . S
C801 C803 1.339 . S
C801 H828 0.931 . S
C802 C803 1.395 . S
C802 C804 1.320 . S
C803 C801 1.339 . S
C803 C802 1.395 . S
C803 H829 0.929 . S
C804 C802 1.320 . S
C804 C805 1.405 . S
C804 H830 0.930 . S
C805 C800 1.479 . S
C805 C804 1.405 . S
C805 H831 0.931 . S
U806 O807 2.454 . S
U806 O808 2.458 . S
U806 C809 2.984 . S
U806 C810 2.847 . S
U806 C823 2.882 . S
U806 O824 2.441 . S
U806 O825 2.420 . S
U806 O826 2.455 . S
U806 O827 2.449 . S
O807 U806 2.454 . S
O807 C809 1.353 . S
O808 U806 2.458 . S
O808 C809 1.286 . S
C809 U806 2.984 . S
C809 O807 1.353 . S
C809 O808 1.286 . S
C809 C811 1.363 . S
C810 C800 1.465 . S
C810 U806 2.847 . S
C810 O824 1.249 . S
C810 O825 1.202 . S
C811 C809 1.363 . S
C811 C813 1.408 . S
C811 C816 1.342 . S
C812 C813 1.310 . S
C812 C815 1.461 . S
C812 H832 0.932 . S
C813 C811 1.408 . S
C813 C812 1.310 . S
C813 H833 0.930 . S
C814 C815 1.474 . S
C814 C816 1.285 . S
C814 H834 0.929 . S
C815 C812 1.461 . S
C815 C814 1.474 . S
C816 C811 1.342 . S
C816 C814 1.285 . S
C816 H835 0.930 . S
C817 C820 1.424 . S
C817 C822 1.245 . S
C817 C823 1.428 . S
C818 C821 1.260 . S
C818 C822 1.477 . S
C818 H836 0.932 . S
C819 C820 1.384 . S
C819 C821 1.479 . S
C819 H837 0.929 . S
C820 C817 1.424 . S
C820 C819 1.384 . S
C820 H838 0.928 . S
C821 C818 1.260 . S
C821 C819 1.479 . S
C822 C817 1.245 . S
C822 C818 1.477 . S
C822 H839 0.932 . S
C823 U806 2.882 . S
C823 C817 1.428 . S
C823 O826 1.301 . S
C823 O827 1.282 . S
O824 U806 2.441 . S
O824 C810 1.249 . S
O825 U806 2.420 . S
O825 C810 1.202 . S
O826 U806 2.455 . S
O826 C823 1.301 . S
O827 U806 2.449 . S
O827 C823 1.282 . S
H828 C801 0.931 . S
H829 C803 0.929 . S
H830 C804 0.930 . S
H831 C805 0.931 . S
H832 C812 0.932 . S
H833 C813 0.930 . S
H834 C814 0.929 . S
H835 C816 0.930 . S
H836 C818 0.932 . S
H837 C819 0.929 . S
H838 C820 0.928 . S
H839 C822 0.932 . S
C840 C841 1.264 . S
C840 C845 1.479 . S
C840 C850 1.465 . S
C841 C840 1.264 . S
C841 C843 1.339 . S
C841 H868 0.931 . S
C842 C843 1.392 1_655 S
C842 C844 1.317 1_655 S
C843 C841 1.339 . S
C843 C842 1.392 1_455 S
C843 H869 0.929 . S
C844 C842 1.317 1_455 S
C844 C845 1.405 . S
C844 H870 0.931 1_455 S
C845 C840 1.479 . S
C845 C844 1.405 . S
C845 H871 0.931 . S
U846 O847 2.454 . S
U846 O848 2.458 . S
U846 C849 2.984 . S
U846 C850 2.847 . S
U846 C863 2.882 . S
U846 O864 2.441 . S
U846 O865 2.420 . S
U846 O866 2.455 . S
U846 O867 2.449 . S
O847 U846 2.454 . S
O847 C849 1.353 . S
O848 U846 2.458 . S
O848 C849 1.286 . S
C849 U846 2.984 . S
C849 O847 1.353 . S
C849 O848 1.286 . S
C849 C851 1.363 . S
C850 C840 1.465 . S
C850 U846 2.847 . S
C850 O864 1.249 . S
C850 O865 1.202 . S
C851 C849 1.363 . S
C851 C853 1.408 . S
C851 C856 1.342 . S
C852 C853 1.310 . S
C852 C855 1.461 . S
C852 H872 0.932 . S
C853 C851 1.408 . S
C853 C852 1.310 . S
C853 H873 0.930 . S
C854 C855 1.474 . S
C854 C856 1.285 . S
C854 H874 0.929 . S
C855 C852 1.461 . S
C855 C854 1.474 . S
C856 C851 1.342 . S
C856 C854 1.285 . S
C856 H875 0.930 . S
C857 C860 1.405 1_455 S
C857 C862 1.245 . S
C857 C863 1.428 . S
C858 C861 1.288 . S
C858 C862 1.461 1_655 S
C858 H876 0.926 1_655 S
C859 C860 1.398 . S
C859 C861 1.479 . S
C859 H877 0.929 . S
C860 C857 1.405 1_655 S
C860 C859 1.398 . S
C860 H878 0.937 . S
C861 C858 1.288 . S
C861 C859 1.479 . S
C862 C857 1.245 . S
C862 C858 1.461 1_455 S
C862 H879 0.932 . S
C863 U846 2.882 . S
C863 C857 1.428 . S
C863 O866 1.301 . S
C863 O867 1.282 . S
O864 U846 2.441 . S
O864 C850 1.249 . S
O865 U846 2.420 . S
O865 C850 1.202 . S
O866 U846 2.455 . S
O866 C863 1.301 . S
O867 U846 2.449 . S
O867 C863 1.282 . S
H868 C841 0.931 . S
H869 C843 0.929 . S
H870 C844 0.931 1_655 S
H871 C845 0.931 . S
H872 C852 0.932 . S
H873 C853 0.930 . S
H874 C854 0.929 . S
H875 C856 0.930 . S
H876 C858 0.926 1_455 S
H877 C859 0.929 . S
H878 C860 0.937 . S
H879 C862 0.932 . S
C880 C881 1.264 . S
C880 C885 1.479 . S
C880 C890 1.465 . S
C881 C880 1.264 . S
C881 C883 1.339 . S
C881 H908 0.931 . S
C882 C883 1.395 . S
C882 C884 1.320 . S
C883 C881 1.339 . S
C883 C882 1.395 . S
C883 H909 0.929 . S
C884 C882 1.320 . S
C884 C885 1.405 . S
C884 H910 0.930 . S
C885 C880 1.479 . S
C885 C884 1.405 . S
C885 H911 0.931 . S
U886 O887 2.454 . S
U886 O888 2.458 . S
U886 C889 2.984 . S
U886 C890 2.847 . S
U886 C903 2.882 . S
U886 O904 2.441 . S
U886 O905 2.420 . S
U886 O906 2.455 . S
U886 O907 2.449 . S
O887 U886 2.454 . S
O887 C889 1.353 . S
O888 U886 2.458 . S
O888 C889 1.286 . S
C889 U886 2.984 . S
C889 O887 1.353 . S
C889 O888 1.286 . S
C889 C891 1.363 . S
C890 C880 1.465 . S
C890 U886 2.847 . S
C890 O904 1.249 . S
C890 O905 1.202 . S
C891 C889 1.363 . S
C891 C893 1.408 . S
C891 C896 1.342 . S
C892 C893 1.310 . S
C892 C895 1.461 . S
C892 H912 0.932 . S
C893 C891 1.408 . S
C893 C892 1.310 . S
C893 H913 0.930 . S
C894 C895 1.474 . S
C894 C896 1.285 . S
C894 H914 0.929 . S
C895 C892 1.461 . S
C895 C894 1.474 . S
C896 C891 1.342 . S
C896 C894 1.285 . S
C896 H915 0.930 . S
C897 C900 1.424 . S
C897 C902 1.245 . S
C897 C903 1.428 . S
C898 C901 1.260 . S
C898 C902 1.477 . S
C898 H916 0.932 . S
C899 C900 1.384 . S
C899 C901 1.479 . S
C899 H917 0.929 . S
C900 C897 1.424 . S
C900 C899 1.384 . S
C900 H918 0.928 . S
C901 C898 1.260 . S
C901 C899 1.479 . S
C902 C897 1.245 . S
C902 C898 1.477 . S
C902 H919 0.932 . S
C903 U886 2.882 . S
C903 C897 1.428 . S
C903 O906 1.301 . S
C903 O907 1.282 . S
O904 U886 2.441 . S
O904 C890 1.249 . S
O905 U886 2.420 . S
O905 C890 1.202 . S
O906 U886 2.455 . S
O906 C903 1.301 . S
O907 U886 2.449 . S
O907 C903 1.282 . S
H908 C881 0.931 . S
H909 C883 0.929 . S
H910 C884 0.930 . S
H911 C885 0.931 . S
H912 C892 0.932 . S
H913 C893 0.930 . S
H914 C894 0.929 . S
H915 C896 0.930 . S
H916 C898 0.932 . S
H917 C899 0.929 . S
H918 C900 0.928 . S
H919 C902 0.932 . S
C920 C921 1.264 . S
C920 C925 1.479 . S
C920 C930 1.465 . S
C921 C920 1.264 . S
C921 C923 1.339 . S
C921 H948 0.931 . S
C922 C923 1.395 . S
C922 C924 1.320 . S
C923 C921 1.339 . S
C923 C922 1.395 . S
C923 H949 0.929 . S
C924 C922 1.320 . S
C924 C925 1.405 . S
C924 H950 0.930 . S
C925 C920 1.479 . S
C925 C924 1.405 . S
C925 H951 0.931 . S
U926 O927 2.454 . S
U926 O928 2.458 . S
U926 C929 2.984 . S
U926 C930 2.847 . S
U926 C943 2.882 . S
U926 O944 2.441 . S
U926 O945 2.420 . S
U926 O946 2.455 . S
U926 O947 2.449 . S
O927 U926 2.454 . S
O927 C929 1.353 . S
O928 U926 2.458 . S
O928 C929 1.286 . S
C929 U926 2.984 . S
C929 O927 1.353 . S
C929 O928 1.286 . S
C929 C931 1.359 1_655 S
C930 C920 1.465 . S
C930 U926 2.847 . S
C930 O944 1.249 . S
C930 O945 1.202 . S
C931 C929 1.359 1_455 S
C931 C933 1.407 1_455 S
C931 C936 1.349 . S
C932 C933 1.308 1_455 S
C932 C935 1.461 . S
C932 H952 0.932 . S
C933 C931 1.407 1_655 S
C933 C932 1.308 1_655 S
C933 H953 0.933 . S
C934 C935 1.474 . S
C934 C936 1.285 . S
C934 H954 0.929 . S
C935 C932 1.461 . S
C935 C934 1.474 . S
C936 C931 1.349 . S
C936 C934 1.285 . S
C936 H955 0.930 . S
C937 C940 1.424 . S
C937 C942 1.245 . S
C937 C943 1.428 . S
C938 C941 1.271 . S
C938 C942 1.469 1_455 S
C938 H956 0.935 . S
C939 C940 1.384 . S
C939 C941 1.479 1_655 S
C939 H957 0.929 . S
C940 C937 1.424 . S
C940 C939 1.384 . S
C940 H958 0.928 . S
C941 C938 1.271 . S
C941 C939 1.479 1_455 S
C942 C937 1.245 . S
C942 C938 1.469 1_655 S
C942 H959 0.937 . S
C943 U926 2.882 . S
C943 C937 1.428 . S
C943 O946 1.301 . S
C943 O947 1.282 . S
O944 U926 2.441 . S
O944 C930 1.249 . S
O945 U926 2.420 . S
O945 C930 1.202 . S
O946 U926 2.455 . S
O946 C943 1.301 . S
O947 U926 2.449 . S
O947 C943 1.282 . S
H948 C921 0.931 . S
H949 C923 0.929 . S
H950 C924 0.930 . S
H951 C925 0.931 . S
H952 C932 0.932 . S
H953 C933 0.933 . S
H954 C934 0.929 . S
H955 C936 0.930 . S
H956 C938 0.935 . S
H957 C939 0.929 . S
H958 C940 0.928 . S
H959 C942 0.937 . S
P960 O971 1.490 . S
P960 C974 1.812 . S
P960 C980 1.803 . S
P960 C986 1.819 . S
H961 C975 0.941 . S
H962 C976 0.939 . S
H963 C978 0.940 . S
H964 C979 0.940 . S
H965 C981 0.939 . S
H966 C982 0.942 . S
H967 C984 0.940 . S
H968 C985 0.939 . S
H969 C987 0.941 . S
H970 C991 0.939 . S
O971 P960 1.490 . S
H972 C988 0.939 . S
H973 C990 0.940 . S
C974 P960 1.812 . S
C974 C975 1.389 . S
C974 C979 1.391 . S
C975 H961 0.941 . S
C975 C974 1.389 . S
C975 C976 1.397 . S
C976 H962 0.939 . S
C976 C975 1.397 . S
C976 C977 1.378 . S
C977 C976 1.378 . S
C977 C978 1.378 . S
C978 H963 0.940 . S
C978 C977 1.378 . S
C978 C979 1.396 . S
C979 H964 0.940 . S
C979 C974 1.391 . S
C979 C978 1.396 . S
C980 P960 1.803 . S
C980 C981 1.378 . S
C980 C985 1.400 . S
C981 H965 0.939 . S
C981 C980 1.378 . S
C981 C982 1.361 . S
C982 H966 0.942 . S
C982 C981 1.361 . S
C982 C983 1.369 . S
C983 C982 1.369 . S
C983 C984 1.404 . S
C984 H967 0.940 . S
C984 C983 1.404 . S
C984 C985 1.389 . S
C985 H968 0.939 . S
C985 C980 1.400 . S
C985 C984 1.389 . S
C986 P960 1.819 . S
C986 C987 1.391 . S
C986 C991 1.391 . S
C987 H969 0.941 . S
C987 C986 1.391 . S
C987 C988 1.396 . S
C988 H972 0.939 . S
C988 C987 1.396 . S
C988 C989 1.397 . S
C989 C988 1.397 . S
C989 C990 1.385 . S
C990 H973 0.940 . S
C990 C989 1.385 . S
C990 C991 1.388 . S
C991 H970 0.939 . S
C991 C986 1.391 . S
C991 C990 1.388 . S
P992 O1003 1.490 . S
P992 C1006 1.812 . S
P992 C1012 1.803 . S
P992 C1018 1.819 1_554 S
H993 C1007 0.941 . S
H994 C1008 0.939 . S
H995 C1010 0.940 . S
H996 C1011 0.940 1_556 S
H997 C1013 0.939 . S
H998 C1014 0.942 . S
H999 C1016 0.940 . S
H1000 C1017 0.939 . S
H1001 C1019 0.941 1_554 S
H1002 C1023 0.939 . S
O1003 P992 1.490 . S
H1004 C1020 0.939 . S
H1005 C1022 0.940 . S
C1006 P992 1.812 . S
C1006 C1007 1.389 . S
C1006 C1011 1.391 . S
C1007 H993 0.941 . S
C1007 C1006 1.389 . S
C1007 C1008 1.397 . S
C1008 H994 0.939 . S
C1008 C1007 1.397 . S
C1008 C1009 1.378 . S
C1009 C1008 1.378 . S
C1009 C1010 1.378 . S
C1010 H995 0.940 . S
C1010 C1009 1.378 . S
C1010 C1011 1.396 . S
C1011 H996 0.940 1_554 S
C1011 C1006 1.391 . S
C1011 C1010 1.396 . S
C1012 P992 1.803 . S
C1012 C1013 1.378 . S
C1012 C1017 1.400 . S
C1013 H997 0.939 . S
C1013 C1012 1.378 . S
C1013 C1014 1.361 . S
C1014 H998 0.942 . S
C1014 C1013 1.361 . S
C1014 C1015 1.369 . S
C1015 C1014 1.369 . S
C1015 C1016 1.404 . S
C1016 H999 0.940 . S
C1016 C1015 1.404 . S
C1016 C1017 1.389 . S
C1017 H1000 0.939 . S
C1017 C1012 1.400 . S
C1017 C1016 1.389 . S
C1018 P992 1.819 1_556 S
C1018 C1019 1.391 . S
C1018 C1023 1.391 . S
C1019 H1001 0.941 1_556 S
C1019 C1018 1.391 . S
C1019 C1020 1.396 . S
C1020 H1004 0.939 . S
C1020 C1019 1.396 . S
C1020 C1021 1.397 . S
C1021 C1020 1.397 . S
C1021 C1022 1.385 . S
C1022 H1005 0.940 . S
C1022 C1021 1.385 . S
C1022 C1023 1.388 . S
C1023 H1002 0.939 . S
C1023 C1018 1.391 . S
C1023 C1022 1.388 . S
P1024 O1035 1.490 . S
P1024 C1038 1.812 . S
P1024 C1044 1.803 1_565 S
P1024 C1050 1.819 . S
H1025 C1039 0.941 . S
H1026 C1040 0.939 . S
H1027 C1042 0.940 . S
H1028 C1043 0.940 . S
H1029 C1045 0.939 . S
H1030 C1046 0.942 . S
H1031 C1048 0.940 . S
H1032 C1049 0.939 . S
H1033 C1051 0.941 . S
H1034 C1055 0.939 . S
O1035 P1024 1.490 . S
H1036 C1052 0.939 . S
H1037 C1054 0.940 . S
C1038 P1024 1.812 . S
C1038 C1039 1.389 . S
C1038 C1043 1.391 . S
C1039 H1025 0.941 . S
C1039 C1038 1.389 . S
C1039 C1040 1.397 . S
C1040 H1026 0.939 . S
C1040 C1039 1.397 . S
C1040 C1041 1.378 . S
C1041 C1040 1.378 . S
C1041 C1042 1.378 . S
C1042 H1027 0.940 . S
C1042 C1041 1.378 . S
C1042 C1043 1.396 . S
C1043 H1028 0.940 . S
C1043 C1038 1.391 . S
C1043 C1042 1.396 . S
C1044 P1024 1.803 1_545 S
C1044 C1045 1.378 . S
C1044 C1049 1.400 . S
C1045 H1029 0.939 . S
C1045 C1044 1.378 . S
C1045 C1046 1.361 . S
C1046 H1030 0.942 . S
C1046 C1045 1.361 . S
C1046 C1047 1.369 . S
C1047 C1046 1.369 . S
C1047 C1048 1.404 . S
C1048 H1031 0.940 . S
C1048 C1047 1.404 . S
C1048 C1049 1.389 . S
C1049 H1032 0.939 . S
C1049 C1044 1.400 . S
C1049 C1048 1.389 . S
C1050 P1024 1.819 . S
C1050 C1051 1.391 . S
C1050 C1055 1.391 1_565 S
C1051 H1033 0.941 . S
C1051 C1050 1.391 . S
C1051 C1052 1.396 . S
C1052 H1036 0.939 . S
C1052 C1051 1.396 . S
C1052 C1053 1.397 1_565 S
C1053 C1052 1.397 1_545 S
C1053 C1054 1.385 . S
C1054 H1037 0.940 . S
C1054 C1053 1.385 . S
C1054 C1055 1.388 . S
C1055 H1034 0.939 . S
C1055 C1050 1.391 1_545 S
C1055 C1054 1.388 . S
P1056 O1067 1.490 . S
P1056 C1070 1.812 . S
P1056 C1076 1.803 1_545 S
P1056 C1082 1.819 . S
H1057 C1071 0.941 . S
H1058 C1072 0.939 . S
H1059 C1074 0.940 . S
H1060 C1075 0.940 . S
H1061 C1077 0.939 . S
H1062 C1078 0.942 . S
H1063 C1080 0.940 . S
H1064 C1081 0.939 . S
H1065 C1083 0.941 . S
H1066 C1087 0.939 . S
O1067 P1056 1.490 . S
H1068 C1084 0.939 . S
H1069 C1086 0.940 . S
C1070 P1056 1.812 . S
C1070 C1071 1.389 . S
C1070 C1075 1.391 . S
C1071 H1057 0.941 . S
C1071 C1070 1.389 . S
C1071 C1072 1.397 . S
C1072 H1058 0.939 . S
C1072 C1071 1.397 . S
C1072 C1073 1.378 . S
C1073 C1072 1.378 . S
C1073 C1074 1.378 . S
C1074 H1059 0.940 . S
C1074 C1073 1.378 . S
C1074 C1075 1.396 . S
C1075 H1060 0.940 . S
C1075 C1070 1.391 . S
C1075 C1074 1.396 . S
C1076 P1056 1.803 1_565 S
C1076 C1077 1.378 . S
C1076 C1081 1.400 . S
C1077 H1061 0.939 . S
C1077 C1076 1.378 . S
C1077 C1078 1.361 . S
C1078 H1062 0.942 . S
C1078 C1077 1.361 . S
C1078 C1079 1.369 . S
C1079 C1078 1.369 . S
C1079 C1080 1.404 . S
C1080 H1063 0.940 . S
C1080 C1079 1.404 . S
C1080 C1081 1.389 . S
C1081 H1064 0.939 . S
C1081 C1076 1.400 . S
C1081 C1080 1.389 . S
C1082 P1056 1.819 . S
C1082 C1083 1.391 . S
C1082 C1087 1.391 1_545 S
C1083 H1065 0.941 . S
C1083 C1082 1.391 . S
C1083 C1084 1.396 . S
C1084 H1068 0.939 . S
C1084 C1083 1.396 . S
C1084 C1085 1.397 1_545 S
C1085 C1084 1.397 1_565 S
C1085 C1086 1.385 . S
C1086 H1069 0.940 . S
C1086 C1085 1.385 . S
C1086 C1087 1.388 . S
C1087 H1066 0.939 . S
C1087 C1082 1.391 1_565 S
C1087 C1086 1.388 . S
P1088 O1099 1.490 . S
P1088 C1102 1.812 . S
P1088 C1108 1.803 . S
P1088 C1114 1.819 . S
H1089 C1103 0.941 . S
H1090 C1104 0.939 . S
H1091 C1106 0.940 . S
H1092 C1107 0.940 . S
H1093 C1109 0.939 . S
H1094 C1110 0.942 . S
H1095 C1112 0.940 . S
H1096 C1113 0.939 . S
H1097 C1115 0.941 . S
H1098 C1119 0.939 . S
O1099 P1088 1.490 . S
H1100 C1116 0.939 . S
H1101 C1118 0.940 . S
C1102 P1088 1.812 . S
C1102 C1103 1.389 . S
C1102 C1107 1.391 . S
C1103 H1089 0.941 . S
C1103 C1102 1.389 . S
C1103 C1104 1.397 . S
C1104 H1090 0.939 . S
C1104 C1103 1.397 . S
C1104 C1105 1.378 . S
C1105 C1104 1.378 . S
C1105 C1106 1.378 . S
C1106 H1091 0.940 . S
C1106 C1105 1.378 . S
C1106 C1107 1.396 . S
C1107 H1092 0.940 . S
C1107 C1102 1.391 . S
C1107 C1106 1.396 . S
C1108 P1088 1.803 . S
C1108 C1109 1.378 . S
C1108 C1113 1.400 . S
C1109 H1093 0.939 . S
C1109 C1108 1.378 . S
C1109 C1110 1.361 . S
C1110 H1094 0.942 . S
C1110 C1109 1.361 . S
C1110 C1111 1.369 . S
C1111 C1110 1.369 . S
C1111 C1112 1.404 . S
C1112 H1095 0.940 . S
C1112 C1111 1.404 . S
C1112 C1113 1.389 . S
C1113 H1096 0.939 . S
C1113 C1108 1.400 . S
C1113 C1112 1.389 . S
C1114 P1088 1.819 . S
C1114 C1115 1.391 . S
C1114 C1119 1.391 . S
C1115 H1097 0.941 . S
C1115 C1114 1.391 . S
C1115 C1116 1.396 . S
C1116 H1100 0.939 . S
C1116 C1115 1.396 . S
C1116 C1117 1.397 . S
C1117 C1116 1.397 . S
C1117 C1118 1.385 . S
C1118 H1101 0.940 . S
C1118 C1117 1.385 . S
C1118 C1119 1.388 . S
C1119 H1098 0.939 . S
C1119 C1114 1.391 . S
C1119 C1118 1.388 . S
P1120 O1131 1.490 . S
P1120 C1134 1.812 . S
P1120 C1140 1.803 1_554 S
P1120 C1146 1.819 . S
H1121 C1135 0.941 . S
H1122 C1136 0.939 . S
H1123 C1138 0.940 . S
H1124 C1139 0.940 . S
H1125 C1141 0.939 . S
H1126 C1142 0.942 . S
H1127 C1144 0.940 . S
H1128 C1145 0.939 . S
H1129 C1147 0.941 . S
H1130 C1151 0.939 . S
O1131 P1120 1.490 . S
H1132 C1148 0.939 . S
H1133 C1150 0.940 . S
C1134 P1120 1.812 . S
C1134 C1135 1.389 . S
C1134 C1139 1.391 . S
C1135 H1121 0.941 . S
C1135 C1134 1.389 . S
C1135 C1136 1.397 . S
C1136 H1122 0.939 . S
C1136 C1135 1.397 . S
C1136 C1137 1.378 . S
C1137 C1136 1.378 . S
C1137 C1138 1.378 . S
C1138 H1123 0.940 . S
C1138 C1137 1.378 . S
C1138 C1139 1.396 . S
C1139 H1124 0.940 . S
C1139 C1134 1.391 . S
C1139 C1138 1.396 . S
C1140 P1120 1.803 1_556 S
C1140 C1141 1.378 . S
C1140 C1145 1.400 . S
C1141 H1125 0.939 . S
C1141 C1140 1.378 . S
C1141 C1142 1.361 . S
C1142 H1126 0.942 . S
C1142 C1141 1.361 . S
C1142 C1143 1.369 . S
C1143 C1142 1.369 . S
C1143 C1144 1.404 . S
C1144 H1127 0.940 . S
C1144 C1143 1.404 . S
C1144 C1145 1.389 . S
C1145 H1128 0.939 . S
C1145 C1140 1.400 . S
C1145 C1144 1.389 . S
C1146 P1120 1.819 . S
C1146 C1147 1.391 . S
C1146 C1151 1.391 1_554 S
C1147 H1129 0.941 . S
C1147 C1146 1.391 . S
C1147 C1148 1.396 . S
C1148 H1132 0.939 . S
C1148 C1147 1.396 . S
C1148 C1149 1.397 1_554 S
C1149 C1148 1.397 1_556 S
C1149 C1150 1.385 . S
C1150 H1133 0.940 . S
C1150 C1149 1.385 . S
C1150 C1151 1.388 . S
C1151 H1130 0.939 . S
C1151 C1146 1.391 1_556 S
C1151 C1150 1.388 . S
P1152 O1163 1.490 . S
P1152 C1166 1.812 . S
P1152 C1172 1.803 . S
P1152 C1178 1.819 1_455 S
H1153 C1167 0.941 . S
H1154 C1168 0.939 . S
H1155 C1170 0.940 . S
H1156 C1171 0.940 1_655 S
H1157 C1173 0.939 . S
H1158 C1174 0.942 . S
H1159 C1176 0.940 . S
H1160 C1177 0.939 . S
H1161 C1179 0.941 1_455 S
H1162 C1183 0.939 . S
O1163 P1152 1.490 . S
H1164 C1180 0.939 . S
H1165 C1182 0.940 . S
C1166 P1152 1.812 . S
C1166 C1167 1.389 . S
C1166 C1171 1.391 . S
C1167 H1153 0.941 . S
C1167 C1166 1.389 . S
C1167 C1168 1.397 . S
C1168 H1154 0.939 . S
C1168 C1167 1.397 . S
C1168 C1169 1.378 . S
C1169 C1168 1.378 . S
C1169 C1170 1.378 . S
C1170 H1155 0.940 . S
C1170 C1169 1.378 . S
C1170 C1171 1.396 . S
C1171 H1156 0.940 1_455 S
C1171 C1166 1.391 . S
C1171 C1170 1.396 . S
C1172 P1152 1.803 . S
C1172 C1173 1.378 . S
C1172 C1177 1.400 . S
C1173 H1157 0.939 . S
C1173 C1172 1.378 . S
C1173 C1174 1.361 . S
C1174 H1158 0.942 . S
C1174 C1173 1.361 . S
C1174 C1175 1.369 . S
C1175 C1174 1.369 . S
C1175 C1176 1.404 . S
C1176 H1159 0.940 . S
C1176 C1175 1.404 . S
C1176 C1177 1.389 . S
C1177 H1160 0.939 . S
C1177 C1172 1.400 . S
C1177 C1176 1.389 . S
C1178 P1152 1.819 1_655 S
C1178 C1179 1.391 . S
C1178 C1183 1.391 . S
C1179 H1161 0.941 1_655 S
C1179 C1178 1.391 . S
C1179 C1180 1.396 . S
C1180 H1164 0.939 . S
C1180 C1179 1.396 . S
C1180 C1181 1.397 . S
C1181 C1180 1.397 . S
C1181 C1182 1.385 . S
C1182 H1165 0.940 . S
C1182 C1181 1.385 . S
C1182 C1183 1.388 . S
C1183 H1162 0.939 . S
C1183 C1178 1.391 . S
C1183 C1182 1.388 . S
P1184 O1195 1.490 . S
P1184 C1198 1.812 . S
P1184 C1204 1.803 1_556 S
P1184 C1210 1.819 . S
H1185 C1199 0.941 . S
H1186 C1200 0.939 . S
H1187 C1202 0.940 . S
H1188 C1203 0.940 . S
H1189 C1205 0.939 . S
H1190 C1206 0.942 . S
H1191 C1208 0.940 . S
H1192 C1209 0.939 . S
H1193 C1211 0.941 . S
H1194 C1215 0.939 . S
O1195 P1184 1.490 . S
H1196 C1212 0.939 . S
H1197 C1214 0.940 . S
C1198 P1184 1.812 . S
C1198 C1199 1.389 . S
C1198 C1203 1.391 . S
C1199 H1185 0.941 . S
C1199 C1198 1.389 . S
C1199 C1200 1.397 . S
C1200 H1186 0.939 . S
C1200 C1199 1.397 . S
C1200 C1201 1.378 . S
C1201 C1200 1.378 . S
C1201 C1202 1.378 . S
C1202 H1187 0.940 . S
C1202 C1201 1.378 . S
C1202 C1203 1.396 . S
C1203 H1188 0.940 . S
C1203 C1198 1.391 . S
C1203 C1202 1.396 . S
C1204 P1184 1.803 1_554 S
C1204 C1205 1.378 . S
C1204 C1209 1.400 . S
C1205 H1189 0.939 . S
C1205 C1204 1.378 . S
C1205 C1206 1.361 . S
C1206 H1190 0.942 . S
C1206 C1205 1.361 . S
C1206 C1207 1.369 . S
C1207 C1206 1.369 . S
C1207 C1208 1.404 . S
C1208 H1191 0.940 . S
C1208 C1207 1.404 . S
C1208 C1209 1.389 . S
C1209 H1192 0.939 . S
C1209 C1204 1.400 . S
C1209 C1208 1.389 . S
C1210 P1184 1.819 . S
C1210 C1211 1.391 . S
C1210 C1215 1.391 1_556 S
C1211 H1193 0.941 . S
C1211 C1210 1.391 . S
C1211 C1212 1.396 . S
C1212 H1196 0.939 . S
C1212 C1211 1.396 . S
C1212 C1213 1.397 1_556 S
C1213 C1212 1.397 1_554 S
C1213 C1214 1.385 . S
C1214 H1197 0.940 . S
C1214 C1213 1.385 . S
C1214 C1215 1.388 . S
C1215 H1194 0.939 . S
C1215 C1210 1.391 1_554 S
C1215 C1214 1.388 . S
P1216 O1227 1.490 . S
P1216 C1230 1.812 . S
P1216 C1236 1.803 . S
P1216 C1242 1.819 . S
H1217 C1231 0.941 . S
H1218 C1232 0.939 . S
H1219 C1234 0.940 . S
H1220 C1235 0.940 . S
H1221 C1237 0.939 . S
H1222 C1238 0.942 . S
H1223 C1240 0.940 . S
H1224 C1241 0.939 . S
H1225 C1243 0.941 . S
H1226 C1247 0.939 . S
O1227 P1216 1.490 . S
H1228 C1244 0.939 . S
H1229 C1246 0.940 . S
C1230 P1216 1.812 . S
C1230 C1231 1.389 . S
C1230 C1235 1.391 . S
C1231 H1217 0.941 . S
C1231 C1230 1.389 . S
C1231 C1232 1.397 . S
C1232 H1218 0.939 . S
C1232 C1231 1.397 . S
C1232 C1233 1.378 . S
C1233 C1232 1.378 . S
C1233 C1234 1.378 . S
C1234 H1219 0.940 . S
C1234 C1233 1.378 . S
C1234 C1235 1.396 . S
C1235 H1220 0.940 . S
C1235 C1230 1.391 . S
C1235 C1234 1.396 . S
C1236 P1216 1.803 . S
C1236 C1237 1.378 . S
C1236 C1241 1.400 . S
C1237 H1221 0.939 . S
C1237 C1236 1.378 . S
C1237 C1238 1.361 . S
C1238 H1222 0.942 . S
C1238 C1237 1.361 . S
C1238 C1239 1.369 . S
C1239 C1238 1.369 . S
C1239 C1240 1.404 . S
C1240 H1223 0.940 . S
C1240 C1239 1.404 . S
C1240 C1241 1.389 . S
C1241 H1224 0.939 . S
C1241 C1236 1.400 . S
C1241 C1240 1.389 . S
C1242 P1216 1.819 . S
C1242 C1243 1.391 . S
C1242 C1247 1.391 . S
C1243 H1225 0.941 . S
C1243 C1242 1.391 . S
C1243 C1244 1.396 . S
C1244 H1228 0.939 . S
C1244 C1243 1.396 . S
C1244 C1245 1.397 . S
C1245 C1244 1.397 . S
C1245 C1246 1.385 . S
C1246 H1229 0.940 . S
C1246 C1245 1.385 . S
C1246 C1247 1.388 . S
C1247 H1226 0.939 . S
C1247 C1242 1.391 . S
C1247 C1246 1.388 . S
P1248 O1259 1.490 . S
P1248 C1262 1.812 . S
P1248 C1268 1.803 1_455 S
P1248 C1274 1.819 . S
H1249 C1263 0.941 . S
H1250 C1264 0.939 . S
H1251 C1266 0.940 . S
H1252 C1267 0.940 . S
H1253 C1269 0.939 . S
H1254 C1270 0.942 . S
H1255 C1272 0.940 . S
H1256 C1273 0.939 . S
H1257 C1275 0.941 . S
H1258 C1279 0.939 . S
O1259 P1248 1.490 . S
H1260 C1276 0.939 . S
H1261 C1278 0.940 . S
C1262 P1248 1.812 . S
C1262 C1263 1.389 . S
C1262 C1267 1.391 . S
C1263 H1249 0.941 . S
C1263 C1262 1.389 . S
C1263 C1264 1.397 . S
C1264 H1250 0.939 . S
C1264 C1263 1.397 . S
C1264 C1265 1.378 . S
C1265 C1264 1.378 . S
C1265 C1266 1.378 . S
C1266 H1251 0.940 . S
C1266 C1265 1.378 . S
C1266 C1267 1.396 . S
C1267 H1252 0.940 . S
C1267 C1262 1.391 . S
C1267 C1266 1.396 . S
C1268 P1248 1.803 1_655 S
C1268 C1269 1.378 . S
C1268 C1273 1.400 . S
C1269 H1253 0.939 . S
C1269 C1268 1.378 . S
C1269 C1270 1.361 . S
C1270 H1254 0.942 . S
C1270 C1269 1.361 . S
C1270 C1271 1.369 . S
C1271 C1270 1.369 . S
C1271 C1272 1.404 . S
C1272 H1255 0.940 . S
C1272 C1271 1.404 . S
C1272 C1273 1.389 . S
C1273 H1256 0.939 . S
C1273 C1268 1.400 . S
C1273 C1272 1.389 . S
C1274 P1248 1.819 . S
C1274 C1275 1.391 . S
C1274 C1279 1.391 1_455 S
C1275 H1257 0.941 . S
C1275 C1274 1.391 . S
C1275 C1276 1.396 . S
C1276 H1260 0.939 . S
C1276 C1275 1.396 . S
C1276 C1277 1.397 1_455 S
C1277 C1276 1.397 1_655 S
C1277 C1278 1.385 . S
C1278 H1261 0.940 . S
C1278 C1277 1.385 . S
C1278 C1279 1.388 . S
C1279 H1258 0.939 . S
C1279 C1274 1.391 1_655 S
C1279 C1278 1.388 . S
P1280 O1291 1.490 . S
P1280 C1294 1.812 . S
P1280 C1300 1.803 . S
P1280 C1306 1.819 1_545 S
H1281 C1295 0.941 . S
H1282 C1296 0.939 . S
H1283 C1298 0.940 . S
H1284 C1299 0.940 1_565 S
H1285 C1301 0.939 . S
H1286 C1302 0.942 . S
H1287 C1304 0.940 . S
H1288 C1305 0.939 . S
H1289 C1307 0.941 1_545 S
H1290 C1311 0.939 . S
O1291 P1280 1.490 . S
H1292 C1308 0.939 . S
H1293 C1310 0.940 . S
C1294 P1280 1.812 . S
C1294 C1295 1.389 . S
C1294 C1299 1.391 . S
C1295 H1281 0.941 . S
C1295 C1294 1.389 . S
C1295 C1296 1.397 . S
C1296 H1282 0.939 . S
C1296 C1295 1.397 . S
C1296 C1297 1.378 . S
C1297 C1296 1.378 . S
C1297 C1298 1.378 . S
C1298 H1283 0.940 . S
C1298 C1297 1.378 . S
C1298 C1299 1.396 . S
C1299 H1284 0.940 1_545 S
C1299 C1294 1.391 . S
C1299 C1298 1.396 . S
C1300 P1280 1.803 . S
C1300 C1301 1.378 . S
C1300 C1305 1.400 . S
C1301 H1285 0.939 . S
C1301 C1300 1.378 . S
C1301 C1302 1.361 . S
C1302 H1286 0.942 . S
C1302 C1301 1.361 . S
C1302 C1303 1.369 . S
C1303 C1302 1.369 . S
C1303 C1304 1.404 . S
C1304 H1287 0.940 . S
C1304 C1303 1.404 . S
C1304 C1305 1.389 . S
C1305 H1288 0.939 . S
C1305 C1300 1.400 . S
C1305 C1304 1.389 . S
C1306 P1280 1.819 1_565 S
C1306 C1307 1.391 . S
C1306 C1311 1.391 . S
C1307 H1289 0.941 1_565 S
C1307 C1306 1.391 . S
C1307 C1308 1.396 . S
C1308 H1292 0.939 . S
C1308 C1307 1.396 . S
C1308 C1309 1.397 . S
C1309 C1308 1.397 . S
C1309 C1310 1.385 . S
C1310 H1293 0.940 . S
C1310 C1309 1.385 . S
C1310 C1311 1.388 . S
C1311 H1290 0.939 . S
C1311 C1306 1.391 . S
C1311 C1310 1.388 . S
P1312 O1323 1.490 . S
P1312 C1326 1.812 . S
P1312 C1332 1.803 1_655 S
P1312 C1338 1.819 . S
H1313 C1327 0.941 . S
H1314 C1328 0.939 . S
H1315 C1330 0.940 . S
H1316 C1331 0.940 . S
H1317 C1333 0.939 . S
H1318 C1334 0.942 . S
H1319 C1336 0.940 . S
H1320 C1337 0.939 . S
H1321 C1339 0.941 . S
H1322 C1343 0.939 . S
O1323 P1312 1.490 . S
H1324 C1340 0.939 . S
H1325 C1342 0.940 . S
C1326 P1312 1.812 . S
C1326 C1327 1.389 . S
C1326 C1331 1.391 . S
C1327 H1313 0.941 . S
C1327 C1326 1.389 . S
C1327 C1328 1.397 . S
C1328 H1314 0.939 . S
C1328 C1327 1.397 . S
C1328 C1329 1.378 . S
C1329 C1328 1.378 . S
C1329 C1330 1.378 . S
C1330 H1315 0.940 . S
C1330 C1329 1.378 . S
C1330 C1331 1.396 . S
C1331 H1316 0.940 . S
C1331 C1326 1.391 . S
C1331 C1330 1.396 . S
C1332 P1312 1.803 1_455 S
C1332 C1333 1.378 . S
C1332 C1337 1.400 . S
C1333 H1317 0.939 . S
C1333 C1332 1.378 . S
C1333 C1334 1.361 . S
C1334 H1318 0.942 . S
C1334 C1333 1.361 . S
C1334 C1335 1.369 . S
C1335 C1334 1.369 . S
C1335 C1336 1.404 . S
C1336 H1319 0.940 . S
C1336 C1335 1.404 . S
C1336 C1337 1.389 . S
C1337 H1320 0.939 . S
C1337 C1332 1.400 . S
C1337 C1336 1.389 . S
C1338 P1312 1.819 . S
C1338 C1339 1.391 . S
C1338 C1343 1.391 1_655 S
C1339 H1321 0.941 . S
C1339 C1338 1.391 . S
C1339 C1340 1.396 . S
C1340 H1324 0.939 . S
C1340 C1339 1.396 . S
C1340 C1341 1.397 1_655 S
C1341 C1340 1.397 1_455 S
C1341 C1342 1.385 . S
C1342 H1325 0.940 . S
C1342 C1341 1.385 . S
C1342 C1343 1.388 . S
C1343 H1322 0.939 . S
C1343 C1338 1.391 1_455 S
C1343 C1342 1.388 . S
P1344 O1355 1.490 . S
P1344 C1358 1.812 . S
P1344 C1364 1.803 . S
P1344 C1370 1.819 . S
H1345 C1359 0.941 . S
H1346 C1360 0.939 . S
H1347 C1362 0.940 . S
H1348 C1363 0.940 . S
H1349 C1365 0.939 . S
H1350 C1366 0.942 . S
H1351 C1368 0.940 . S
H1352 C1369 0.939 . S
H1353 C1371 0.941 . S
H1354 C1375 0.939 . S
O1355 P1344 1.490 . S
H1356 C1372 0.939 . S
H1357 C1374 0.940 . S
C1358 P1344 1.812 . S
C1358 C1359 1.389 . S
C1358 C1363 1.391 . S
C1359 H1345 0.941 . S
C1359 C1358 1.389 . S
C1359 C1360 1.397 . S
C1360 H1346 0.939 . S
C1360 C1359 1.397 . S
C1360 C1361 1.378 . S
C1361 C1360 1.378 . S
C1361 C1362 1.378 . S
C1362 H1347 0.940 . S
C1362 C1361 1.378 . S
C1362 C1363 1.396 . S
C1363 H1348 0.940 . S
C1363 C1358 1.391 . S
C1363 C1362 1.396 . S
C1364 P1344 1.803 . S
C1364 C1365 1.378 . S
C1364 C1369 1.400 . S
C1365 H1349 0.939 . S
C1365 C1364 1.378 . S
C1365 C1366 1.361 . S
C1366 H1350 0.942 . S
C1366 C1365 1.361 . S
C1366 C1367 1.369 . S
C1367 C1366 1.369 . S
C1367 C1368 1.404 . S
C1368 H1351 0.940 . S
C1368 C1367 1.404 . S
C1368 C1369 1.389 . S
C1369 H1352 0.939 . S
C1369 C1364 1.400 . S
C1369 C1368 1.389 . S
C1370 P1344 1.819 . S
C1370 C1371 1.391 . S
C1370 C1375 1.391 . S
C1371 H1353 0.941 . S
C1371 C1370 1.391 . S
C1371 C1372 1.396 . S
C1372 H1356 0.939 . S
C1372 C1371 1.396 . S
C1372 C1373 1.397 . S
C1373 C1372 1.397 . S
C1373 C1374 1.385 . S
C1374 H1357 0.940 . S
C1374 C1373 1.385 . S
C1374 C1375 1.388 . S
C1375 H1354 0.939 . S
C1375 C1370 1.391 . S
C1375 C1374 1.388 . S
P1376 O1387 1.490 . S
P1376 C1390 1.812 1_554 S
P1376 C1396 1.803 . S
P1376 C1402 1.819 . S
H1377 C1391 0.966 . S
H1378 C1392 0.939 . S
H1379 C1394 0.940 . S
H1380 C1395 0.940 . S
H1381 C1397 0.939 . S
H1382 C1398 0.942 . S
H1383 C1400 0.940 . S
H1384 C1401 0.939 . S
H1385 C1403 0.941 . S
H1386 C1407 0.939 . S
O1387 P1376 1.490 . S
H1388 C1404 0.939 . S
H1389 C1406 0.940 . S
C1390 P1376 1.812 1_556 S
C1390 C1391 1.389 . S
C1390 C1395 1.391 . S
C1391 H1377 0.966 . S
C1391 C1390 1.389 . S
C1391 C1392 1.397 . S
C1392 H1378 0.939 . S
C1392 C1391 1.397 . S
C1392 C1393 1.378 . S
C1393 C1392 1.378 . S
C1393 C1394 1.378 . S
C1394 H1379 0.940 . S
C1394 C1393 1.378 . S
C1394 C1395 1.396 . S
C1395 H1380 0.940 . S
C1395 C1390 1.391 . S
C1395 C1394 1.396 . S
C1396 P1376 1.803 . S
C1396 C1397 1.378 . S
C1396 C1401 1.400 1_554 S
C1397 H1381 0.939 . S
C1397 C1396 1.378 . S
C1397 C1398 1.361 . S
C1398 H1382 0.942 . S
C1398 C1397 1.361 . S
C1398 C1399 1.369 1_554 S
C1399 C1398 1.369 1_556 S
C1399 C1400 1.404 . S
C1400 H1383 0.940 . S
C1400 C1399 1.404 . S
C1400 C1401 1.389 . S
C1401 H1384 0.939 . S
C1401 C1396 1.400 1_556 S
C1401 C1400 1.389 . S
C1402 P1376 1.819 . S
C1402 C1403 1.391 . S
C1402 C1407 1.391 . S
C1403 H1385 0.941 . S
C1403 C1402 1.391 . S
C1403 C1404 1.396 . S
C1404 H1388 0.939 . S
C1404 C1403 1.396 . S
C1404 C1405 1.397 . S
C1405 C1404 1.397 . S
C1405 C1406 1.385 . S
C1406 H1389 0.940 . S
C1406 C1405 1.385 . S
C1406 C1407 1.388 . S
C1407 H1386 0.939 . S
C1407 C1402 1.391 . S
C1407 C1406 1.388 . S
P1408 O1419 1.490 . S
P1408 C1422 1.812 1_565 S
P1408 C1428 1.803 . S
P1408 C1434 1.819 . S
H1409 C1423 0.941 . S
H1410 C1424 0.939 . S
H1411 C1426 0.940 . S
H1412 C1427 0.940 . S
H1413 C1429 0.939 . S
H1414 C1430 0.942 . S
H1415 C1432 0.940 . S
H1416 C1433 0.939 . S
H1417 C1435 0.928 1_545 S
H1418 C1439 0.939 . S
O1419 P1408 1.490 . S
H1420 C1436 0.969 . S
H1421 C1438 0.940 . S
C1422 P1408 1.812 1_545 S
C1422 C1423 1.389 . S
C1422 C1427 1.391 . S
C1423 H1409 0.941 . S
C1423 C1422 1.389 . S
C1423 C1424 1.397 . S
C1424 H1410 0.939 . S
C1424 C1423 1.397 . S
C1424 C1425 1.378 . S
C1425 C1424 1.378 . S
C1425 C1426 1.378 . S
C1426 H1411 0.940 . S
C1426 C1425 1.378 . S
C1426 C1427 1.396 . S
C1427 H1412 0.940 . S
C1427 C1422 1.391 . S
C1427 C1426 1.396 . S
C1428 P1408 1.803 . S
C1428 C1429 1.378 . S
C1428 C1433 1.400 . S
C1429 H1413 0.939 . S
C1429 C1428 1.378 . S
C1429 C1430 1.361 . S
C1430 H1414 0.942 . S
C1430 C1429 1.361 . S
C1430 C1431 1.369 . S
C1431 C1430 1.369 . S
C1431 C1432 1.404 . S
C1432 H1415 0.940 . S
C1432 C1431 1.404 . S
C1432 C1433 1.389 . S
C1433 H1416 0.939 . S
C1433 C1428 1.400 . S
C1433 C1432 1.389 . S
C1434 P1408 1.819 . S
C1434 C1435 1.411 . S
C1434 C1439 1.391 . S
C1435 H1417 0.928 1_565 S
C1435 C1434 1.411 . S
C1435 C1436 1.388 1_565 S
C1436 H1420 0.969 . S
C1436 C1435 1.388 1_545 S
C1436 C1437 1.377 1_545 S
C1437 C1436 1.377 1_565 S
C1437 C1438 1.385 . S
C1438 H1421 0.940 . S
C1438 C1437 1.385 . S
C1438 C1439 1.388 . S
C1439 H1418 0.939 . S
C1439 C1434 1.391 . S
C1439 C1438 1.388 . S
P1440 O1451 1.490 . S
P1440 C1454 1.812 1_545 S
P1440 C1460 1.803 . S
P1440 C1466 1.819 . S
H1441 C1455 0.941 . S
H1442 C1456 0.939 . S
H1443 C1458 0.940 . S
H1444 C1459 0.940 . S
H1445 C1461 0.939 . S
H1446 C1462 0.942 . S
H1447 C1464 0.940 . S
H1448 C1465 0.939 . S
H1449 C1467 0.941 . S
H1450 C1471 0.939 . S
O1451 P1440 1.490 . S
H1452 C1468 0.939 . S
H1453 C1470 0.940 . S
C1454 P1440 1.812 1_565 S
C1454 C1455 1.389 . S
C1454 C1459 1.391 . S
C1455 H1441 0.941 . S
C1455 C1454 1.389 . S
C1455 C1456 1.397 . S
C1456 H1442 0.939 . S
C1456 C1455 1.397 . S
C1456 C1457 1.378 . S
C1457 C1456 1.378 . S
C1457 C1458 1.378 . S
C1458 H1443 0.940 . S
C1458 C1457 1.378 . S
C1458 C1459 1.396 . S
C1459 H1444 0.940 . S
C1459 C1454 1.391 . S
C1459 C1458 1.396 . S
C1460 P1440 1.803 . S
C1460 C1461 1.378 . S
C1460 C1465 1.400 . S
C1461 H1445 0.939 . S
C1461 C1460 1.378 . S
C1461 C1462 1.361 . S
C1462 H1446 0.942 . S
C1462 C1461 1.361 . S
C1462 C1463 1.369 . S
C1463 C1462 1.369 . S
C1463 C1464 1.404 . S
C1464 H1447 0.940 . S
C1464 C1463 1.404 . S
C1464 C1465 1.389 . S
C1465 H1448 0.939 . S
C1465 C1460 1.400 . S
C1465 C1464 1.389 . S
C1466 P1440 1.819 . S
C1466 C1467 1.391 1_545 S
C1466 C1471 1.391 . S
C1467 H1449 0.941 . S
C1467 C1466 1.391 1_565 S
C1467 C1468 1.396 . S
C1468 H1452 0.939 . S
C1468 C1467 1.396 . S
C1468 C1469 1.397 1_565 S
C1469 C1468 1.397 1_545 S
C1469 C1470 1.385 . S
C1470 H1453 0.940 . S
C1470 C1469 1.385 . S
C1470 C1471 1.388 . S
C1471 H1450 0.939 . S
C1471 C1466 1.391 . S
C1471 C1470 1.388 . S
P1472 O1483 1.490 . S
P1472 C1486 1.812 . S
P1472 C1492 1.803 . S
P1472 C1498 1.819 . S
H1473 C1487 0.941 . S
H1474 C1488 0.939 . S
H1475 C1490 0.940 . S
H1476 C1491 0.940 . S
H1477 C1493 0.939 . S
H1478 C1494 0.942 . S
H1479 C1496 0.940 . S
H1480 C1497 0.939 . S
H1481 C1499 0.941 . S
H1482 C1503 0.939 . S
O1483 P1472 1.490 . S
H1484 C1500 0.939 . S
H1485 C1502 0.940 . S
C1486 P1472 1.812 . S
C1486 C1487 1.389 . S
C1486 C1491 1.391 . S
C1487 H1473 0.941 . S
C1487 C1486 1.389 . S
C1487 C1488 1.397 . S
C1488 H1474 0.939 . S
C1488 C1487 1.397 . S
C1488 C1489 1.378 . S
C1489 C1488 1.378 . S
C1489 C1490 1.378 . S
C1490 H1475 0.940 . S
C1490 C1489 1.378 . S
C1490 C1491 1.396 . S
C1491 H1476 0.940 . S
C1491 C1486 1.391 . S
C1491 C1490 1.396 . S
C1492 P1472 1.803 . S
C1492 C1493 1.378 . S
C1492 C1497 1.400 . S
C1493 H1477 0.939 . S
C1493 C1492 1.378 . S
C1493 C1494 1.361 . S
C1494 H1478 0.942 . S
C1494 C1493 1.361 . S
C1494 C1495 1.369 . S
C1495 C1494 1.369 . S
C1495 C1496 1.404 . S
C1496 H1479 0.940 . S
C1496 C1495 1.404 . S
C1496 C1497 1.389 . S
C1497 H1480 0.939 . S
C1497 C1492 1.400 . S
C1497 C1496 1.389 . S
C1498 P1472 1.819 . S
C1498 C1499 1.391 . S
C1498 C1503 1.391 . S
C1499 H1481 0.941 . S
C1499 C1498 1.391 . S
C1499 C1500 1.396 . S
C1500 H1484 0.939 . S
C1500 C1499 1.396 . S
C1500 C1501 1.397 . S
C1501 C1500 1.397 . S
C1501 C1502 1.385 . S
C1502 H1485 0.940 . S
C1502 C1501 1.385 . S
C1502 C1503 1.388 . S
C1503 H1482 0.939 . S
C1503 C1498 1.391 . S
C1503 C1502 1.388 . S
P1504 O1515 1.490 . S
P1504 C1518 1.812 1_554 S
P1504 C1524 1.803 . S
P1504 C1530 1.819 . S
H1505 C1519 0.941 . S
H1506 C1520 0.939 . S
H1507 C1522 0.940 . S
H1508 C1523 0.940 . S
H1509 C1525 0.939 . S
H1510 C1526 0.942 . S
H1511 C1528 0.940 . S
H1512 C1529 0.939 . S
H1513 C1531 0.941 . S
H1514 C1535 0.939 . S
O1515 P1504 1.490 . S
H1516 C1532 0.939 . S
H1517 C1534 0.940 . S
C1518 P1504 1.812 1_556 S
C1518 C1519 1.389 . S
C1518 C1523 1.391 . S
C1519 H1505 0.941 . S
C1519 C1518 1.389 . S
C1519 C1520 1.397 . S
C1520 H1506 0.939 . S
C1520 C1519 1.397 . S
C1520 C1521 1.378 . S
C1521 C1520 1.378 . S
C1521 C1522 1.378 . S
C1522 H1507 0.940 . S
C1522 C1521 1.378 . S
C1522 C1523 1.396 . S
C1523 H1508 0.940 . S
C1523 C1518 1.391 . S
C1523 C1522 1.396 . S
C1524 P1504 1.803 . S
C1524 C1525 1.378 . S
C1524 C1529 1.400 . S
C1525 H1509 0.939 . S
C1525 C1524 1.378 . S
C1525 C1526 1.361 . S
C1526 H1510 0.942 . S
C1526 C1525 1.361 . S
C1526 C1527 1.369 . S
C1527 C1526 1.369 . S
C1527 C1528 1.404 . S
C1528 H1511 0.940 . S
C1528 C1527 1.404 . S
C1528 C1529 1.389 . S
C1529 H1512 0.939 . S
C1529 C1524 1.400 . S
C1529 C1528 1.389 . S
C1530 P1504 1.819 . S
C1530 C1531 1.391 1_554 S
C1530 C1535 1.391 . S
C1531 H1513 0.941 . S
C1531 C1530 1.391 1_556 S
C1531 C1532 1.396 . S
C1532 H1516 0.939 . S
C1532 C1531 1.396 . S
C1532 C1533 1.397 1_556 S
C1533 C1532 1.397 1_554 S
C1533 C1534 1.385 . S
C1534 H1517 0.940 . S
C1534 C1533 1.385 . S
C1534 C1535 1.388 . S
C1535 H1514 0.939 . S
C1535 C1530 1.391 . S
C1535 C1534 1.388 . S
P1536 O1547 1.490 . S
P1536 C1550 1.812 1_455 S
P1536 C1556 1.803 . S
P1536 C1562 1.819 . S
H1537 C1551 0.966 . S
H1538 C1552 0.939 . S
H1539 C1554 0.940 . S
H1540 C1555 0.940 . S
H1541 C1557 0.939 . S
H1542 C1558 0.942 . S
H1543 C1560 0.940 . S
H1544 C1561 0.939 . S
H1545 C1563 0.941 . S
H1546 C1567 0.939 . S
O1547 P1536 1.490 . S
H1548 C1564 0.939 . S
H1549 C1566 0.940 . S
C1550 P1536 1.812 1_655 S
C1550 C1551 1.389 . S
C1550 C1555 1.391 . S
C1551 H1537 0.966 . S
C1551 C1550 1.389 . S
C1551 C1552 1.397 . S
C1552 H1538 0.939 . S
C1552 C1551 1.397 . S
C1552 C1553 1.378 . S
C1553 C1552 1.378 . S
C1553 C1554 1.378 . S
C1554 H1539 0.940 . S
C1554 C1553 1.378 . S
C1554 C1555 1.396 . S
C1555 H1540 0.940 . S
C1555 C1550 1.391 . S
C1555 C1554 1.396 . S
C1556 P1536 1.803 . S
C1556 C1557 1.378 . S
C1556 C1561 1.400 1_455 S
C1557 H1541 0.939 . S
C1557 C1556 1.378 . S
C1557 C1558 1.361 . S
C1558 H1542 0.942 . S
C1558 C1557 1.361 . S
C1558 C1559 1.369 1_455 S
C1559 C1558 1.369 1_655 S
C1559 C1560 1.404 . S
C1560 H1543 0.940 . S
C1560 C1559 1.404 . S
C1560 C1561 1.389 . S
C1561 H1544 0.939 . S
C1561 C1556 1.400 1_655 S
C1561 C1560 1.389 . S
C1562 P1536 1.819 . S
C1562 C1563 1.391 . S
C1562 C1567 1.391 . S
C1563 H1545 0.941 . S
C1563 C1562 1.391 . S
C1563 C1564 1.396 . S
C1564 H1548 0.939 . S
C1564 C1563 1.396 . S
C1564 C1565 1.397 . S
C1565 C1564 1.397 . S
C1565 C1566 1.385 . S
C1566 H1549 0.940 . S
C1566 C1565 1.385 . S
C1566 C1567 1.388 . S
C1567 H1546 0.939 . S
C1567 C1562 1.391 . S
C1567 C1566 1.388 . S
P1568 O1579 1.490 . S
P1568 C1582 1.812 1_556 S
P1568 C1588 1.803 . S
P1568 C1594 1.819 . S
H1569 C1583 0.941 . S
H1570 C1584 0.939 . S
H1571 C1586 0.940 . S
H1572 C1587 0.940 . S
H1573 C1589 0.939 . S
H1574 C1590 0.942 . S
H1575 C1592 0.940 . S
H1576 C1593 0.939 . S
H1577 C1595 0.928 1_554 S
H1578 C1599 0.939 . S
O1579 P1568 1.490 . S
H1580 C1596 0.969 . S
H1581 C1598 0.940 . S
C1582 P1568 1.812 1_554 S
C1582 C1583 1.389 . S
C1582 C1587 1.391 . S
C1583 H1569 0.941 . S
C1583 C1582 1.389 . S
C1583 C1584 1.397 . S
C1584 H1570 0.939 . S
C1584 C1583 1.397 . S
C1584 C1585 1.378 . S
C1585 C1584 1.378 . S
C1585 C1586 1.378 . S
C1586 H1571 0.940 . S
C1586 C1585 1.378 . S
C1586 C1587 1.396 . S
C1587 H1572 0.940 . S
C1587 C1582 1.391 . S
C1587 C1586 1.396 . S
C1588 P1568 1.803 . S
C1588 C1589 1.378 . S
C1588 C1593 1.400 . S
C1589 H1573 0.939 . S
C1589 C1588 1.378 . S
C1589 C1590 1.361 . S
C1590 H1574 0.942 . S
C1590 C1589 1.361 . S
C1590 C1591 1.369 . S
C1591 C1590 1.369 . S
C1591 C1592 1.404 . S
C1592 H1575 0.940 . S
C1592 C1591 1.404 . S
C1592 C1593 1.389 . S
C1593 H1576 0.939 . S
C1593 C1588 1.400 . S
C1593 C1592 1.389 . S
C1594 P1568 1.819 . S
C1594 C1595 1.411 . S
C1594 C1599 1.391 . S
C1595 H1577 0.928 1_556 S
C1595 C1594 1.411 . S
C1595 C1596 1.388 1_556 S
C1596 H1580 0.969 . S
C1596 C1595 1.388 1_554 S
C1596 C1597 1.377 1_554 S
C1597 C1596 1.377 1_556 S
C1597 C1598 1.385 . S
C1598 H1581 0.940 . S
C1598 C1597 1.385 . S
C1598 C1599 1.388 . S
C1599 H1578 0.939 . S
C1599 C1594 1.391 . S
C1599 C1598 1.388 . S
P1600 O1611 1.490 . S
P1600 C1614 1.812 . S
P1600 C1620 1.803 . S
P1600 C1626 1.819 . S
H1601 C1615 0.941 . S
H1602 C1616 0.939 . S
H1603 C1618 0.940 . S
H1604 C1619 0.940 . S
H1605 C1621 0.939 . S
H1606 C1622 0.942 . S
H1607 C1624 0.940 . S
H1608 C1625 0.939 . S
H1609 C1627 0.941 . S
H1610 C1631 0.939 . S
O1611 P1600 1.490 . S
H1612 C1628 0.939 . S
H1613 C1630 0.940 . S
C1614 P1600 1.812 . S
C1614 C1615 1.389 . S
C1614 C1619 1.391 . S
C1615 H1601 0.941 . S
C1615 C1614 1.389 . S
C1615 C1616 1.397 . S
C1616 H1602 0.939 . S
C1616 C1615 1.397 . S
C1616 C1617 1.378 . S
C1617 C1616 1.378 . S
C1617 C1618 1.378 . S
C1618 H1603 0.940 . S
C1618 C1617 1.378 . S
C1618 C1619 1.396 . S
C1619 H1604 0.940 . S
C1619 C1614 1.391 . S
C1619 C1618 1.396 . S
C1620 P1600 1.803 . S
C1620 C1621 1.378 . S
C1620 C1625 1.400 . S
C1621 H1605 0.939 . S
C1621 C1620 1.378 . S
C1621 C1622 1.361 . S
C1622 H1606 0.942 . S
C1622 C1621 1.361 . S
C1622 C1623 1.369 . S
C1623 C1622 1.369 . S
C1623 C1624 1.404 . S
C1624 H1607 0.940 . S
C1624 C1623 1.404 . S
C1624 C1625 1.389 . S
C1625 H1608 0.939 . S
C1625 C1620 1.400 . S
C1625 C1624 1.389 . S
C1626 P1600 1.819 . S
C1626 C1627 1.391 . S
C1626 C1631 1.391 . S
C1627 H1609 0.941 . S
C1627 C1626 1.391 . S
C1627 C1628 1.396 . S
C1628 H1612 0.939 . S
C1628 C1627 1.396 . S
C1628 C1629 1.397 . S
C1629 C1628 1.397 . S
C1629 C1630 1.385 . S
C1630 H1613 0.940 . S
C1630 C1629 1.385 . S
C1630 C1631 1.388 . S
C1631 H1610 0.939 . S
C1631 C1626 1.391 . S
C1631 C1630 1.388 . S
P1632 O1643 1.490 . S
P1632 C1646 1.812 1_455 S
P1632 C1652 1.803 . S
P1632 C1658 1.819 . S
H1633 C1647 0.941 . S
H1634 C1648 0.939 . S
H1635 C1650 0.940 . S
H1636 C1651 0.940 . S
H1637 C1653 0.939 . S
H1638 C1654 0.942 . S
H1639 C1656 0.940 . S
H1640 C1657 0.939 . S
H1641 C1659 0.941 . S
H1642 C1663 0.939 . S
O1643 P1632 1.490 . S
H1644 C1660 0.939 . S
H1645 C1662 0.940 . S
C1646 P1632 1.812 1_655 S
C1646 C1647 1.389 . S
C1646 C1651 1.391 . S
C1647 H1633 0.941 . S
C1647 C1646 1.389 . S
C1647 C1648 1.397 . S
C1648 H1634 0.939 . S
C1648 C1647 1.397 . S
C1648 C1649 1.378 . S
C1649 C1648 1.378 . S
C1649 C1650 1.378 . S
C1650 H1635 0.940 . S
C1650 C1649 1.378 . S
C1650 C1651 1.396 . S
C1651 H1636 0.940 . S
C1651 C1646 1.391 . S
C1651 C1650 1.396 . S
C1652 P1632 1.803 . S
C1652 C1653 1.378 . S
C1652 C1657 1.400 . S
C1653 H1637 0.939 . S
C1653 C1652 1.378 . S
C1653 C1654 1.361 . S
C1654 H1638 0.942 . S
C1654 C1653 1.361 . S
C1654 C1655 1.369 . S
C1655 C1654 1.369 . S
C1655 C1656 1.404 . S
C1656 H1639 0.940 . S
C1656 C1655 1.404 . S
C1656 C1657 1.389 . S
C1657 H1640 0.939 . S
C1657 C1652 1.400 . S
C1657 C1656 1.389 . S
C1658 P1632 1.819 . S
C1658 C1659 1.391 1_455 S
C1658 C1663 1.391 . S
C1659 H1641 0.941 . S
C1659 C1658 1.391 1_655 S
C1659 C1660 1.396 . S
C1660 H1644 0.939 . S
C1660 C1659 1.396 . S
C1660 C1661 1.397 1_655 S
C1661 C1660 1.397 1_455 S
C1661 C1662 1.385 . S
C1662 H1645 0.940 . S
C1662 C1661 1.385 . S
C1662 C1663 1.388 . S
C1663 H1642 0.939 . S
C1663 C1658 1.391 . S
C1663 C1662 1.388 . S
P1664 O1675 1.490 . S
P1664 C1678 1.812 1_545 S
P1664 C1684 1.803 . S
P1664 C1690 1.819 . S
H1665 C1679 0.966 . S
H1666 C1680 0.939 . S
H1667 C1682 0.940 . S
H1668 C1683 0.940 . S
H1669 C1685 0.939 . S
H1670 C1686 0.942 . S
H1671 C1688 0.940 . S
H1672 C1689 0.939 . S
H1673 C1691 0.941 . S
H1674 C1695 0.939 . S
O1675 P1664 1.490 . S
H1676 C1692 0.939 . S
H1677 C1694 0.940 . S
C1678 P1664 1.812 1_565 S
C1678 C1679 1.389 . S
C1678 C1683 1.391 . S
C1679 H1665 0.966 . S
C1679 C1678 1.389 . S
C1679 C1680 1.397 . S
C1680 H1666 0.939 . S
C1680 C1679 1.397 . S
C1680 C1681 1.378 . S
C1681 C1680 1.378 . S
C1681 C1682 1.378 . S
C1682 H1667 0.940 . S
C1682 C1681 1.378 . S
C1682 C1683 1.396 . S
C1683 H1668 0.940 . S
C1683 C1678 1.391 . S
C1683 C1682 1.396 . S
C1684 P1664 1.803 . S
C1684 C1685 1.378 . S
C1684 C1689 1.400 1_545 S
C1685 H1669 0.939 . S
C1685 C1684 1.378 . S
C1685 C1686 1.361 . S
C1686 H1670 0.942 . S
C1686 C1685 1.361 . S
C1686 C1687 1.369 1_545 S
C1687 C1686 1.369 1_565 S
C1687 C1688 1.404 . S
C1688 H1671 0.940 . S
C1688 C1687 1.404 . S
C1688 C1689 1.389 . S
C1689 H1672 0.939 . S
C1689 C1684 1.400 1_565 S
C1689 C1688 1.389 . S
C1690 P1664 1.819 . S
C1690 C1691 1.391 . S
C1690 C1695 1.391 . S
C1691 H1673 0.941 . S
C1691 C1690 1.391 . S
C1691 C1692 1.396 . S
C1692 H1676 0.939 . S
C1692 C1691 1.396 . S
C1692 C1693 1.397 . S
C1693 C1692 1.397 . S
C1693 C1694 1.385 . S
C1694 H1677 0.940 . S
C1694 C1693 1.385 . S
C1694 C1695 1.388 . S
C1695 H1674 0.939 . S
C1695 C1690 1.391 . S
C1695 C1694 1.388 . S
P1696 O1707 1.490 . S
P1696 C1710 1.812 1_655 S
P1696 C1716 1.803 . S
P1696 C1722 1.819 . S
H1697 C1711 0.941 . S
H1698 C1712 0.939 . S
H1699 C1714 0.940 . S
H1700 C1715 0.940 . S
H1701 C1717 0.939 . S
H1702 C1718 0.942 . S
H1703 C1720 0.940 . S
H1704 C1721 0.939 . S
H1705 C1723 0.928 1_455 S
H1706 C1727 0.939 . S
O1707 P1696 1.490 . S
H1708 C1724 0.969 . S
H1709 C1726 0.940 . S
C1710 P1696 1.812 1_455 S
C1710 C1711 1.389 . S
C1710 C1715 1.391 . S
C1711 H1697 0.941 . S
C1711 C1710 1.389 . S
C1711 C1712 1.397 . S
C1712 H1698 0.939 . S
C1712 C1711 1.397 . S
C1712 C1713 1.378 . S
C1713 C1712 1.378 . S
C1713 C1714 1.378 . S
C1714 H1699 0.940 . S
C1714 C1713 1.378 . S
C1714 C1715 1.396 . S
C1715 H1700 0.940 . S
C1715 C1710 1.391 . S
C1715 C1714 1.396 . S
C1716 P1696 1.803 . S
C1716 C1717 1.378 . S
C1716 C1721 1.400 . S
C1717 H1701 0.939 . S
C1717 C1716 1.378 . S
C1717 C1718 1.361 . S
C1718 H1702 0.942 . S
C1718 C1717 1.361 . S
C1718 C1719 1.369 . S
C1719 C1718 1.369 . S
C1719 C1720 1.404 . S
C1720 H1703 0.940 . S
C1720 C1719 1.404 . S
C1720 C1721 1.389 . S
C1721 H1704 0.939 . S
C1721 C1716 1.400 . S
C1721 C1720 1.389 . S
C1722 P1696 1.819 . S
C1722 C1723 1.411 . S
C1722 C1727 1.391 . S
C1723 H1705 0.928 1_655 S
C1723 C1722 1.411 . S
C1723 C1724 1.388 1_655 S
C1724 H1708 0.969 . S
C1724 C1723 1.388 1_455 S
C1724 C1725 1.377 1_455 S
C1725 C1724 1.377 1_655 S
C1725 C1726 1.385 . S
C1726 H1709 0.940 . S
C1726 C1725 1.385 . S
C1726 C1727 1.388 . S
C1727 H1706 0.939 . S
C1727 C1722 1.391 . S
C1727 C1726 1.388 . S
H1728 C1736 0.929 . S
H1729 C1738 0.930 . S
H1730 C1740 0.930 . S
H1731 C1743 0.929 . S
H1732 C1746 0.930 . S
H1733 C1748 0.960 . S
H1734 C1748 0.960 . S
H1735 C1748 0.960 . S
C1736 H1728 0.929 . S
C1736 C1737 1.377 . S
C1736 C1738 1.384 . S
C1737 C1736 1.377 . S
C1737 C1743 1.390 . S
C1738 H1729 0.930 . S
C1738 C1736 1.384 . S
C1738 C1739 1.372 . S
C1739 C1738 1.372 . S
C1739 C1740 1.400 . S
C1739 C1744 1.490 . S
C1740 H1730 0.930 . S
C1740 C1739 1.400 . S
C1740 C1743 1.386 . S
H1741 C1757 0.930 . S
H1742 C1758 0.931 . S
C1743 H1731 0.929 . S
C1743 C1737 1.390 . S
C1743 C1740 1.386 . S
C1744 C1739 1.490 . S
C1744 C1746 1.395 . S
C1744 C1747 1.403 . S
H1745 C1751 0.930 . S
C1746 H1732 0.930 . S
C1746 C1744 1.395 . S
C1746 C1749 1.403 . S
C1747 C1744 1.403 . S
C1747 C1748 1.524 . S
C1747 C1751 1.400 . S
C1748 H1733 0.960 . S
C1748 H1734 0.960 . S
C1748 H1735 0.960 . S
C1748 C1747 1.524 . S
C1749 C1746 1.403 . S
C1749 C1750 1.392 . S
C1749 C1753 1.495 . S
C1750 C1749 1.392 . S
C1750 C1751 1.385 . S
C1750 C1752 1.478 . S
C1751 H1745 0.930 . S
C1751 C1747 1.400 . S
C1751 C1750 1.385 . S
C1752 C1750 1.478 . S
C1752 C1754 1.381 . S
C1752 C1758 1.383 . S
C1753 C1749 1.495 . S
C1753 H1759 0.959 . S
C1753 H1760 0.961 . S
C1753 H1761 0.960 . S
C1754 C1752 1.381 . S
C1754 C1755 1.394 . S
C1754 H1762 0.930 . S
C1755 C1754 1.394 . S
C1755 C1756 1.383 . S
C1755 H1763 0.929 . S
C1756 C1755 1.383 . S
C1756 C1757 1.377 . S
C1757 H1741 0.930 . S
C1757 C1756 1.377 . S
C1757 C1758 1.379 . S
C1758 H1742 0.931 . S
C1758 C1752 1.383 . S
C1758 C1757 1.379 . S
H1759 C1753 0.959 . S
H1760 C1753 0.961 . S
H1761 C1753 0.960 . S
H1762 C1754 0.930 . S
H1763 C1755 0.929 . S
H1764 C1772 0.929 . S
H1765 C1774 0.930 . S
H1766 C1776 0.930 . S
H1767 C1779 0.929 . S
H1768 C1782 0.930 . S
H1769 C1784 0.960 . S
H1770 C1784 0.960 . S
H1771 C1784 0.960 . S
C1772 H1764 0.929 . S
C1772 C1773 1.377 . S
C1772 C1774 1.384 . S
C1773 C1772 1.377 . S
C1773 C1779 1.390 . S
C1774 H1765 0.930 . S
C1774 C1772 1.384 . S
C1774 C1775 1.372 . S
C1775 C1774 1.372 . S
C1775 C1776 1.400 . S
C1775 C1780 1.490 . S
C1776 H1766 0.930 . S
C1776 C1775 1.400 . S
C1776 C1779 1.386 . S
H1777 C1793 0.930 . S
H1778 C1794 0.931 . S
C1779 H1767 0.929 . S
C1779 C1773 1.390 . S
C1779 C1776 1.386 . S
C1780 C1775 1.490 . S
C1780 C1782 1.395 . S
C1780 C1783 1.403 . S
H1781 C1787 0.930 . S
C1782 H1768 0.930 . S
C1782 C1780 1.395 . S
C1782 C1785 1.403 . S
C1783 C1780 1.403 . S
C1783 C1784 1.524 . S
C1783 C1787 1.400 . S
C1784 H1769 0.960 . S
C1784 H1770 0.960 . S
C1784 H1771 0.960 . S
C1784 C1783 1.524 . S
C1785 C1782 1.403 . S
C1785 C1786 1.392 . S
C1785 C1789 1.495 . S
C1786 C1785 1.392 . S
C1786 C1787 1.385 . S
C1786 C1788 1.478 . S
C1787 H1781 0.930 . S
C1787 C1783 1.400 . S
C1787 C1786 1.385 . S
C1788 C1786 1.478 . S
C1788 C1790 1.381 . S
C1788 C1794 1.383 . S
C1789 C1785 1.495 . S
C1789 H1795 0.959 . S
C1789 H1796 0.961 . S
C1789 H1797 0.960 . S
C1790 C1788 1.381 . S
C1790 C1791 1.394 . S
C1790 H1798 0.930 . S
C1791 C1790 1.394 . S
C1791 C1792 1.383 . S
C1791 H1799 0.929 . S
C1792 C1791 1.383 . S
C1792 C1793 1.377 . S
C1793 H1777 0.930 . S
C1793 C1792 1.377 . S
C1793 C1794 1.379 . S
C1794 H1778 0.931 . S
C1794 C1788 1.383 . S
C1794 C1793 1.379 . S
H1795 C1789 0.959 . S
H1796 C1789 0.961 . S
H1797 C1789 0.960 . S
H1798 C1790 0.930 . S
H1799 C1791 0.929 . S
H1800 C1808 0.929 . S
H1801 C1810 0.930 . S
H1802 C1812 0.930 . S
H1803 C1815 0.929 . S
H1804 C1818 0.930 . S
H1805 C1820 0.960 . S
H1806 C1820 0.960 . S
H1807 C1820 0.960 . S
C1808 H1800 0.929 . S
C1808 C1809 1.377 1_545 S
C1808 C1810 1.384 . S
C1809 C1808 1.377 1_565 S
C1809 C1815 1.390 . S
C1810 H1801 0.930 . S
C1810 C1808 1.384 . S
C1810 C1811 1.372 1_545 S
C1811 C1810 1.372 1_565 S
C1811 C1812 1.400 . S
C1811 C1816 1.490 . S
C1812 H1802 0.930 . S
C1812 C1811 1.400 . S
C1812 C1815 1.386 . S
H1813 C1829 0.930 . S
H1814 C1830 0.931 . S
C1815 H1803 0.929 . S
C1815 C1809 1.390 . S
C1815 C1812 1.386 . S
C1816 C1811 1.490 . S
C1816 C1818 1.395 . S
C1816 C1819 1.403 . S
H1817 C1823 0.930 . S
C1818 H1804 0.930 . S
C1818 C1816 1.395 . S
C1818 C1821 1.403 . S
C1819 C1816 1.403 . S
C1819 C1820 1.524 . S
C1819 C1823 1.400 . S
C1820 H1805 0.960 . S
C1820 H1806 0.960 . S
C1820 H1807 0.960 . S
C1820 C1819 1.524 . S
C1821 C1818 1.403 . S
C1821 C1822 1.392 . S
C1821 C1825 1.495 . S
C1822 C1821 1.392 . S
C1822 C1823 1.385 . S
C1822 C1824 1.478 . S
C1823 H1817 0.930 . S
C1823 C1819 1.400 . S
C1823 C1822 1.385 . S
C1824 C1822 1.478 . S
C1824 C1826 1.381 . S
C1824 C1830 1.383 . S
C1825 C1821 1.495 . S
C1825 H1831 0.959 . S
C1825 H1832 0.961 . S
C1825 H1833 0.960 . S
C1826 C1824 1.381 . S
C1826 C1827 1.394 . S
C1826 H1834 0.930 . S
C1827 C1826 1.394 . S
C1827 C1828 1.383 . S
C1827 H1835 0.929 . S
C1828 C1827 1.383 . S
C1828 C1829 1.377 . S
C1829 H1813 0.930 . S
C1829 C1828 1.377 . S
C1829 C1830 1.379 . S
C1830 H1814 0.931 . S
C1830 C1824 1.383 . S
C1830 C1829 1.379 . S
H1831 C1825 0.959 . S
H1832 C1825 0.961 . S
H1833 C1825 0.960 . S
H1834 C1826 0.930 . S
H1835 C1827 0.929 . S
H1836 C1844 0.929 1_545 S
H1837 C1846 0.930 1_545 S
H1838 C1848 0.930 . S
H1839 C1851 0.929 . S
H1840 C1854 0.930 . S
H1841 C1856 0.960 . S
H1842 C1856 0.960 . S
H1843 C1856 0.960 . S
C1844 H1836 0.929 1_565 S
C1844 C1845 1.377 . S
C1844 C1846 1.384 . S
C1845 C1844 1.377 . S
C1845 C1851 1.390 . S
C1846 H1837 0.930 1_565 S
C1846 C1844 1.384 . S
C1846 C1847 1.372 . S
C1847 C1846 1.372 . S
C1847 C1848 1.400 . S
C1847 C1852 1.490 . S
C1848 H1838 0.930 . S
C1848 C1847 1.400 . S
C1848 C1851 1.386 . S
H1849 C1865 0.930 . S
H1850 C1866 0.931 . S
C1851 H1839 0.929 . S
C1851 C1845 1.390 . S
C1851 C1848 1.386 . S
C1852 C1847 1.490 . S
C1852 C1854 1.395 . S
C1852 C1855 1.403 . S
H1853 C1859 0.930 . S
C1854 H1840 0.930 . S
C1854 C1852 1.395 . S
C1854 C1857 1.403 . S
C1855 C1852 1.403 . S
C1855 C1856 1.524 . S
C1855 C1859 1.400 . S
C1856 H1841 0.960 . S
C1856 H1842 0.960 . S
C1856 H1843 0.960 . S
C1856 C1855 1.524 . S
C1857 C1854 1.403 . S
C1857 C1858 1.392 . S
C1857 C1861 1.495 . S
C1858 C1857 1.392 . S
C1858 C1859 1.385 . S
C1858 C1860 1.478 . S
C1859 H1853 0.930 . S
C1859 C1855 1.400 . S
C1859 C1858 1.385 . S
C1860 C1858 1.478 . S
C1860 C1862 1.381 . S
C1860 C1866 1.383 . S
C1861 C1857 1.495 . S
C1861 H1867 0.959 . S
C1861 H1868 0.961 . S
C1861 H1869 0.960 . S
C1862 C1860 1.381 . S
C1862 C1863 1.394 . S
C1862 H1870 0.930 . S
C1863 C1862 1.394 . S
C1863 C1864 1.383 . S
C1863 H1871 0.929 . S
C1864 C1863 1.383 . S
C1864 C1865 1.377 . S
C1865 H1849 0.930 . S
C1865 C1864 1.377 . S
C1865 C1866 1.379 . S
C1866 H1850 0.931 . S
C1866 C1860 1.383 . S
C1866 C1865 1.379 . S
H1867 C1861 0.959 . S
H1868 C1861 0.961 . S
H1869 C1861 0.960 . S
H1870 C1862 0.930 . S
H1871 C1863 0.929 . S
H1872 C1880 0.929 . S
H1873 C1882 0.930 . S
H1874 C1884 0.930 . S
H1875 C1887 0.929 . S
H1876 C1890 0.930 . S
H1877 C1892 0.960 . S
H1878 C1892 0.960 . S
H1879 C1892 0.960 . S
C1880 H1872 0.929 . S
C1880 C1881 1.377 . S
C1880 C1882 1.384 . S
C1881 C1880 1.377 . S
C1881 C1887 1.390 . S
C1882 H1873 0.930 . S
C1882 C1880 1.384 . S
C1882 C1883 1.372 . S
C1883 C1882 1.372 . S
C1883 C1884 1.400 . S
C1883 C1888 1.490 . S
C1884 H1874 0.930 . S
C1884 C1883 1.400 . S
C1884 C1887 1.386 . S
H1885 C1901 0.930 . S
H1886 C1902 0.931 . S
C1887 H1875 0.929 . S
C1887 C1881 1.390 . S
C1887 C1884 1.386 . S
C1888 C1883 1.490 . S
C1888 C1890 1.395 . S
C1888 C1891 1.403 . S
H1889 C1895 0.930 . S
C1890 H1876 0.930 . S
C1890 C1888 1.395 . S
C1890 C1893 1.403 . S
C1891 C1888 1.403 . S
C1891 C1892 1.524 . S
C1891 C1895 1.400 . S
C1892 H1877 0.960 . S
C1892 H1878 0.960 . S
C1892 H1879 0.960 . S
C1892 C1891 1.524 . S
C1893 C1890 1.403 . S
C1893 C1894 1.392 . S
C1893 C1897 1.495 . S
C1894 C1893 1.392 . S
C1894 C1895 1.385 . S
C1894 C1896 1.478 . S
C1895 H1889 0.930 . S
C1895 C1891 1.400 . S
C1895 C1894 1.385 . S
C1896 C1894 1.478 . S
C1896 C1898 1.381 . S
C1896 C1902 1.383 . S
C1897 C1893 1.495 . S
C1897 H1903 0.959 . S
C1897 H1904 0.961 . S
C1897 H1905 0.960 . S
C1898 C1896 1.381 . S
C1898 C1899 1.394 . S
C1898 H1906 0.930 . S
C1899 C1898 1.394 . S
C1899 C1900 1.383 . S
C1899 H1907 0.929 . S
C1900 C1899 1.383 . S
C1900 C1901 1.377 . S
C1901 H1885 0.930 . S
C1901 C1900 1.377 . S
C1901 C1902 1.379 . S
C1902 H1886 0.931 . S
C1902 C1896 1.383 . S
C1902 C1901 1.379 . S
H1903 C1897 0.959 . S
H1904 C1897 0.961 . S
H1905 C1897 0.960 . S
H1906 C1898 0.930 . S
H1907 C1899 0.929 . S
H1908 C1916 0.929 . S
H1909 C1918 0.930 . S
H1910 C1920 0.930 . S
H1911 C1923 0.929 . S
H1912 C1926 0.930 1_554 S
H1913 C1928 0.960 . S
H1914 C1928 0.960 . S
H1915 C1928 0.960 . S
C1916 H1908 0.929 . S
C1916 C1917 1.377 . S
C1916 C1918 1.384 . S
C1917 C1916 1.377 . S
C1917 C1923 1.390 . S
C1918 H1909 0.930 . S
C1918 C1916 1.384 . S
C1918 C1919 1.372 . S
C1919 C1918 1.372 . S
C1919 C1920 1.400 . S
C1919 C1924 1.490 . S
C1920 H1910 0.930 . S
C1920 C1919 1.400 . S
C1920 C1923 1.386 . S
H1921 C1937 0.930 . S
H1922 C1938 0.931 . S
C1923 H1911 0.929 . S
C1923 C1917 1.390 . S
C1923 C1920 1.386 . S
C1924 C1919 1.490 . S
C1924 C1926 1.395 . S
C1924 C1927 1.403 . S
H1925 C1931 0.930 . S
C1926 H1912 0.930 1_556 S
C1926 C1924 1.395 . S
C1926 C1929 1.403 . S
C1927 C1924 1.403 . S
C1927 C1928 1.524 . S
C1927 C1931 1.400 . S
C1928 H1913 0.960 . S
C1928 H1914 0.960 . S
C1928 H1915 0.960 . S
C1928 C1927 1.524 . S
C1929 C1926 1.403 . S
C1929 C1930 1.392 . S
C1929 C1933 1.495 1_556 S
C1930 C1929 1.392 . S
C1930 C1931 1.385 . S
C1930 C1932 1.478 . S
C1931 H1925 0.930 . S
C1931 C1927 1.400 . S
C1931 C1930 1.385 . S
C1932 C1930 1.478 . S
C1932 C1934 1.381 . S
C1932 C1938 1.383 . S
C1933 C1929 1.495 1_554 S
C1933 H1939 0.959 . S
C1933 H1940 0.961 . S
C1933 H1941 0.960 . S
C1934 C1932 1.381 . S
C1934 C1935 1.394 . S
C1934 H1942 0.930 . S
C1935 C1934 1.394 . S
C1935 C1936 1.383 . S
C1935 H1943 0.929 . S
C1936 C1935 1.383 . S
C1936 C1937 1.377 . S
C1937 H1921 0.930 . S
C1937 C1936 1.377 . S
C1937 C1938 1.379 . S
C1938 H1922 0.931 . S
C1938 C1932 1.383 . S
C1938 C1937 1.379 . S
H1939 C1933 0.959 . S
H1940 C1933 0.961 . S
H1941 C1933 0.960 . S
H1942 C1934 0.930 . S
H1943 C1935 0.929 . S
H1944 C1952 0.929 . S
H1945 C1954 0.930 . S
H1946 C1956 0.930 . S
H1947 C1959 0.929 . S
H1948 C1962 0.930 . S
H1949 C1964 0.960 . S
H1950 C1964 0.960 . S
H1951 C1964 0.960 . S
C1952 H1944 0.929 . S
C1952 C1953 1.377 . S
C1952 C1954 1.384 . S
C1953 C1952 1.377 . S
C1953 C1959 1.390 . S
C1954 H1945 0.930 . S
C1954 C1952 1.384 . S
C1954 C1955 1.372 . S
C1955 C1954 1.372 . S
C1955 C1956 1.400 . S
C1955 C1960 1.490 . S
C1956 H1946 0.930 . S
C1956 C1955 1.400 . S
C1956 C1959 1.386 . S
H1957 C1973 0.930 . S
H1958 C1974 0.931 . S
C1959 H1947 0.929 . S
C1959 C1953 1.390 . S
C1959 C1956 1.386 . S
C1960 C1955 1.490 . S
C1960 C1962 1.395 . S
C1960 C1963 1.403 . S
H1961 C1967 0.930 . S
C1962 H1948 0.930 . S
C1962 C1960 1.395 . S
C1962 C1965 1.403 . S
C1963 C1960 1.403 . S
C1963 C1964 1.524 . S
C1963 C1967 1.400 . S
C1964 H1949 0.960 . S
C1964 H1950 0.960 . S
C1964 H1951 0.960 . S
C1964 C1963 1.524 . S
C1965 C1962 1.403 . S
C1965 C1966 1.392 . S
C1965 C1969 1.495 . S
C1966 C1965 1.392 . S
C1966 C1967 1.385 . S
C1966 C1968 1.478 . S
C1967 H1961 0.930 . S
C1967 C1963 1.400 . S
C1967 C1966 1.385 . S
C1968 C1966 1.478 . S
C1968 C1970 1.381 . S
C1968 C1974 1.383 . S
C1969 C1965 1.495 . S
C1969 H1975 0.959 . S
C1969 H1976 0.961 . S
C1969 H1977 0.960 . S
C1970 C1968 1.381 . S
C1970 C1971 1.394 . S
C1970 H1978 0.930 . S
C1971 C1970 1.394 . S
C1971 C1972 1.383 . S
C1971 H1979 0.929 . S
C1972 C1971 1.383 . S
C1972 C1973 1.377 . S
C1973 H1957 0.930 . S
C1973 C1972 1.377 . S
C1973 C1974 1.379 . S
C1974 H1958 0.931 . S
C1974 C1968 1.383 . S
C1974 C1973 1.379 . S
H1975 C1969 0.959 . S
H1976 C1969 0.961 . S
H1977 C1969 0.960 . S
H1978 C1970 0.930 . S
H1979 C1971 0.929 . S
H1980 C1988 0.929 . S
H1981 C1990 0.909 1_554 S
H1982 C1992 0.930 . S
H1983 C1995 0.929 . S
H1984 C1998 0.930 . S
H1985 C2000 0.960 . S
H1986 C2000 0.960 1_554 S
H1987 C2000 0.960 . S
C1988 H1980 0.929 . S
C1988 C1989 1.377 1_554 S
C1988 C1990 1.377 1_554 S
C1989 C1988 1.377 1_556 S
C1989 C1995 1.390 . S
C1990 H1981 0.909 1_556 S
C1990 C1988 1.377 1_556 S
C1990 C1991 1.401 . S
C1991 C1990 1.401 . S
C1991 C1992 1.400 . S
C1991 C1996 1.490 . S
C1992 H1982 0.930 . S
C1992 C1991 1.400 . S
C1992 C1995 1.386 . S
H1993 C2009 0.930 . S
H1994 C2010 0.931 . S
C1995 H1983 0.929 . S
C1995 C1989 1.390 . S
C1995 C1992 1.386 . S
C1996 C1991 1.490 . S
C1996 C1998 1.395 . S
C1996 C1999 1.403 . S
H1997 C2003 0.930 . S
C1998 H1984 0.930 . S
C1998 C1996 1.395 . S
C1998 C2001 1.403 . S
C1999 C1996 1.403 . S
C1999 C2000 1.524 . S
C1999 C2003 1.400 . S
C2000 H1985 0.960 . S
C2000 H1986 0.960 1_556 S
C2000 H1987 0.960 . S
C2000 C1999 1.524 . S
C2001 C1998 1.403 . S
C2001 C2002 1.392 . S
C2001 C2005 1.495 . S
C2002 C2001 1.392 . S
C2002 C2003 1.385 . S
C2002 C2004 1.478 . S
C2003 H1997 0.930 . S
C2003 C1999 1.400 . S
C2003 C2002 1.385 . S
C2004 C2002 1.478 . S
C2004 C2006 1.381 . S
C2004 C2010 1.383 . S
C2005 C2001 1.495 . S
C2005 H2011 0.959 . S
C2005 H2012 0.961 . S
C2005 H2013 0.960 . S
C2006 C2004 1.381 . S
C2006 C2007 1.394 . S
C2006 H2014 0.930 . S
C2007 C2006 1.394 . S
C2007 C2008 1.383 . S
C2007 H2015 0.929 . S
C2008 C2007 1.383 . S
C2008 C2009 1.377 . S
C2009 H1993 0.930 . S
C2009 C2008 1.377 . S
C2009 C2010 1.379 . S
C2010 H1994 0.931 . S
C2010 C2004 1.383 . S
C2010 C2009 1.379 . S
H2011 C2005 0.959 . S
H2012 C2005 0.961 . S
H2013 C2005 0.960 . S
H2014 C2006 0.930 . S
H2015 C2007 0.929 . S
H2016 C2024 0.929 . S
H2017 C2026 0.930 . S
H2018 C2028 0.930 . S
H2019 C2031 0.929 . S
H2020 C2034 0.930 . S
H2021 C2036 0.960 . S
H2022 C2036 0.960 . S
H2023 C2036 0.960 . S
C2024 H2016 0.929 . S
C2024 C2025 1.377 . S
C2024 C2026 1.384 . S
C2025 C2024 1.377 . S
C2025 C2031 1.390 . S
C2026 H2017 0.930 . S
C2026 C2024 1.384 . S
C2026 C2027 1.372 . S
C2027 C2026 1.372 . S
C2027 C2028 1.400 . S
C2027 C2032 1.490 . S
C2028 H2018 0.930 . S
C2028 C2027 1.400 . S
C2028 C2031 1.386 . S
H2029 C2045 0.930 . S
H2030 C2046 0.931 . S
C2031 H2019 0.929 . S
C2031 C2025 1.390 . S
C2031 C2028 1.386 . S
C2032 C2027 1.490 . S
C2032 C2034 1.395 . S
C2032 C2035 1.403 . S
H2033 C2039 0.930 . S
C2034 H2020 0.930 . S
C2034 C2032 1.395 . S
C2034 C2037 1.403 . S
C2035 C2032 1.403 . S
C2035 C2036 1.524 . S
C2035 C2039 1.400 . S
C2036 H2021 0.960 . S
C2036 H2022 0.960 . S
C2036 H2023 0.960 . S
C2036 C2035 1.524 . S
C2037 C2034 1.403 . S
C2037 C2038 1.392 . S
C2037 C2041 1.495 . S
C2038 C2037 1.392 . S
C2038 C2039 1.385 . S
C2038 C2040 1.478 . S
C2039 H2033 0.930 . S
C2039 C2035 1.400 . S
C2039 C2038 1.385 . S
C2040 C2038 1.478 . S
C2040 C2042 1.381 . S
C2040 C2046 1.383 . S
C2041 C2037 1.495 . S
C2041 H2047 0.959 . S
C2041 H2048 0.961 . S
C2041 H2049 0.960 . S
C2042 C2040 1.381 . S
C2042 C2043 1.394 . S
C2042 H2050 0.930 . S
C2043 C2042 1.394 . S
C2043 C2044 1.383 . S
C2043 H2051 0.929 . S
C2044 C2043 1.383 . S
C2044 C2045 1.377 . S
C2045 H2029 0.930 . S
C2045 C2044 1.377 . S
C2045 C2046 1.379 . S
C2046 H2030 0.931 . S
C2046 C2040 1.383 . S
C2046 C2045 1.379 . S
H2047 C2041 0.959 . S
H2048 C2041 0.961 . S
H2049 C2041 0.960 . S
H2050 C2042 0.930 . S
H2051 C2043 0.929 . S
H2052 C2060 0.929 . S
H2053 C2062 0.930 . S
H2054 C2064 0.930 . S
H2055 C2067 0.929 . S
H2056 C2070 0.984 . S
H2057 C2072 0.960 . S
H2058 C2072 0.960 . S
H2059 C2072 0.960 . S
C2060 H2052 0.929 . S
C2060 C2061 1.377 . S
C2060 C2062 1.384 . S
C2061 C2060 1.377 . S
C2061 C2067 1.390 . S
C2062 H2053 0.930 . S
C2062 C2060 1.384 . S
C2062 C2063 1.372 . S
C2063 C2062 1.372 . S
C2063 C2064 1.400 . S
C2063 C2068 1.490 . S
C2064 H2054 0.930 . S
C2064 C2063 1.400 . S
C2064 C2067 1.386 . S
H2065 C2081 0.930 . S
H2066 C2082 0.931 . S
C2067 H2055 0.929 . S
C2067 C2061 1.390 . S
C2067 C2064 1.386 . S
C2068 C2063 1.490 . S
C2068 C2070 1.395 . S
C2068 C2071 1.403 . S
H2069 C2075 0.930 . S
C2070 H2056 0.984 . S
C2070 C2068 1.395 . S
C2070 C2073 1.403 . S
C2071 C2068 1.403 . S
C2071 C2072 1.524 . S
C2071 C2075 1.400 . S
C2072 H2057 0.960 . S
C2072 H2058 0.960 . S
C2072 H2059 0.960 . S
C2072 C2071 1.524 . S
C2073 C2070 1.403 . S
C2073 C2074 1.392 . S
C2073 C2077 1.495 1_655 S
C2074 C2073 1.392 . S
C2074 C2075 1.385 . S
C2074 C2076 1.478 . S
C2075 H2069 0.930 . S
C2075 C2071 1.400 . S
C2075 C2074 1.385 . S
C2076 C2074 1.478 . S
C2076 C2078 1.381 . S
C2076 C2082 1.383 . S
C2077 C2073 1.495 1_455 S
C2077 H2083 0.959 . S
C2077 H2084 0.961 . S
C2077 H2085 0.960 1_455 S
C2078 C2076 1.381 . S
C2078 C2079 1.394 . S
C2078 H2086 0.930 . S
C2079 C2078 1.394 . S
C2079 C2080 1.383 . S
C2079 H2087 0.929 . S
C2080 C2079 1.383 . S
C2080 C2081 1.377 . S
C2081 H2065 0.930 . S
C2081 C2080 1.377 . S
C2081 C2082 1.379 . S
C2082 H2066 0.931 . S
C2082 C2076 1.383 . S
C2082 C2081 1.379 . S
H2083 C2077 0.959 . S
H2084 C2077 0.961 . S
H2085 C2077 0.960 1_655 S
H2086 C2078 0.930 . S
H2087 C2079 0.929 . S
H2088 C2096 0.929 . S
H2089 C2098 0.930 . S
H2090 C2100 0.930 . S
H2091 C2103 0.929 . S
H2092 C2106 0.930 . S
H2093 C2108 0.960 . S
H2094 C2108 0.960 . S
H2095 C2108 0.960 . S
C2096 H2088 0.929 . S
C2096 C2097 1.377 . S
C2096 C2098 1.384 . S
C2097 C2096 1.377 . S
C2097 C2103 1.390 . S
C2098 H2089 0.930 . S
C2098 C2096 1.384 . S
C2098 C2099 1.372 . S
C2099 C2098 1.372 . S
C2099 C2100 1.400 . S
C2099 C2104 1.490 . S
C2100 H2090 0.930 . S
C2100 C2099 1.400 . S
C2100 C2103 1.386 . S
H2101 C2117 0.930 . S
H2102 C2118 0.931 . S
C2103 H2091 0.929 . S
C2103 C2097 1.390 . S
C2103 C2100 1.386 . S
C2104 C2099 1.490 . S
C2104 C2106 1.395 . S
C2104 C2107 1.403 . S
H2105 C2111 0.930 . S
C2106 H2092 0.930 . S
C2106 C2104 1.395 . S
C2106 C2109 1.403 . S
C2107 C2104 1.403 . S
C2107 C2108 1.524 . S
C2107 C2111 1.400 . S
C2108 H2093 0.960 . S
C2108 H2094 0.960 . S
C2108 H2095 0.960 . S
C2108 C2107 1.524 . S
C2109 C2106 1.403 . S
C2109 C2110 1.392 . S
C2109 C2113 1.495 . S
C2110 C2109 1.392 . S
C2110 C2111 1.385 . S
C2110 C2112 1.478 . S
C2111 H2105 0.930 . S
C2111 C2107 1.400 . S
C2111 C2110 1.385 . S
C2112 C2110 1.478 . S
C2112 C2114 1.381 . S
C2112 C2118 1.383 . S
C2113 C2109 1.495 . S
C2113 H2119 0.959 . S
C2113 H2120 0.961 . S
C2113 H2121 0.960 . S
C2114 C2112 1.381 . S
C2114 C2115 1.394 . S
C2114 H2122 0.930 . S
C2115 C2114 1.394 . S
C2115 C2116 1.383 . S
C2115 H2123 0.929 . S
C2116 C2115 1.383 . S
C2116 C2117 1.377 . S
C2117 H2101 0.930 . S
C2117 C2116 1.377 . S
C2117 C2118 1.379 . S
C2118 H2102 0.931 . S
C2118 C2112 1.383 . S
C2118 C2117 1.379 . S
H2119 C2113 0.959 . S
H2120 C2113 0.961 . S
H2121 C2113 0.960 . S
H2122 C2114 0.930 . S
H2123 C2115 0.929 . S
H2124 C2132 0.929 . S
H2125 C2134 0.930 . S
H2126 C2136 0.930 . S
H2127 C2139 0.929 1_455 S
H2128 C2142 0.930 . S
H2129 C2144 0.960 . S
H2130 C2144 0.960 . S
H2131 C2144 0.960 . S
C2132 H2124 0.929 . S
C2132 C2133 1.377 . S
C2132 C2134 1.384 . S
C2133 C2132 1.377 . S
C2133 C2139 1.390 . S
C2134 H2125 0.930 . S
C2134 C2132 1.384 . S
C2134 C2135 1.372 . S
C2135 C2134 1.372 . S
C2135 C2136 1.400 . S
C2135 C2140 1.490 . S
C2136 H2126 0.930 . S
C2136 C2135 1.400 . S
C2136 C2139 1.386 . S
H2137 C2153 0.930 . S
H2138 C2154 0.931 . S
C2139 H2127 0.929 1_655 S
C2139 C2133 1.390 . S
C2139 C2136 1.386 . S
C2140 C2135 1.490 . S
C2140 C2142 1.395 . S
C2140 C2143 1.403 . S
H2141 C2147 0.930 . S
C2142 H2128 0.930 . S
C2142 C2140 1.395 . S
C2142 C2145 1.403 . S
C2143 C2140 1.403 . S
C2143 C2144 1.524 . S
C2143 C2147 1.400 . S
C2144 H2129 0.960 . S
C2144 H2130 0.960 . S
C2144 H2131 0.960 . S
C2144 C2143 1.524 . S
C2145 C2142 1.403 . S
C2145 C2146 1.392 . S
C2145 C2149 1.532 . S
C2146 C2145 1.392 . S
C2146 C2147 1.385 . S
C2146 C2148 1.478 . S
C2147 H2141 0.930 . S
C2147 C2143 1.400 . S
C2147 C2146 1.385 . S
C2148 C2146 1.478 . S
C2148 C2150 1.381 . S
C2148 C2154 1.383 . S
C2149 C2145 1.532 . S
C2149 H2155 0.923 1_655 S
C2149 H2156 0.916 1_655 S
C2149 H2157 1.012 . S
C2150 C2148 1.381 . S
C2150 C2151 1.394 . S
C2150 H2158 0.930 . S
C2151 C2150 1.394 . S
C2151 C2152 1.383 . S
C2151 H2159 0.929 . S
C2152 C2151 1.383 . S
C2152 C2153 1.377 . S
C2153 H2137 0.930 . S
C2153 C2152 1.377 . S
C2153 C2154 1.379 . S
C2154 H2138 0.931 . S
C2154 C2148 1.383 . S
C2154 C2153 1.379 . S
H2155 C2149 0.923 1_455 S
H2156 C2149 0.916 1_455 S
H2157 C2149 1.012 . S
H2158 C2150 0.930 . S
H2159 C2151 0.929 . S
H2160 C2168 0.929 . S
H2161 C2170 0.930 . S
H2162 C2172 0.930 . S
H2163 C2175 0.929 . S
H2164 C2178 0.930 . S
H2165 C2180 0.960 . S
H2166 C2180 0.960 . S
H2167 C2180 0.960 . S
C2168 H2160 0.929 . S
C2168 C2169 1.377 . S
C2168 C2170 1.384 . S
C2169 C2168 1.377 . S
C2169 C2175 1.390 . S
C2170 H2161 0.930 . S
C2170 C2168 1.384 . S
C2170 C2171 1.372 . S
C2171 C2170 1.372 . S
C2171 C2172 1.400 . S
C2171 C2176 1.490 . S
C2172 H2162 0.930 . S
C2172 C2171 1.400 . S
C2172 C2175 1.386 . S
H2173 C2189 0.930 . S
H2174 C2190 0.931 . S
C2175 H2163 0.929 . S
C2175 C2169 1.390 . S
C2175 C2172 1.386 . S
C2176 C2171 1.490 . S
C2176 C2178 1.395 . S
C2176 C2179 1.403 . S
H2177 C2183 0.930 . S
C2178 H2164 0.930 . S
C2178 C2176 1.395 . S
C2178 C2181 1.403 . S
C2179 C2176 1.403 . S
C2179 C2180 1.524 . S
C2179 C2183 1.400 . S
C2180 H2165 0.960 . S
C2180 H2166 0.960 . S
C2180 H2167 0.960 . S
C2180 C2179 1.524 . S
C2181 C2178 1.403 . S
C2181 C2182 1.392 . S
C2181 C2185 1.495 . S
C2182 C2181 1.392 . S
C2182 C2183 1.385 . S
C2182 C2184 1.478 . S
C2183 H2177 0.930 . S
C2183 C2179 1.400 . S
C2183 C2182 1.385 . S
C2184 C2182 1.478 . S
C2184 C2186 1.381 . S
C2184 C2190 1.383 . S
C2185 C2181 1.495 . S
C2185 H2191 0.959 . S
C2185 H2192 0.961 . S
C2185 H2193 0.960 . S
C2186 C2184 1.381 . S
C2186 C2187 1.394 . S
C2186 H2194 0.930 . S
C2187 C2186 1.394 . S
C2187 C2188 1.383 . S
C2187 H2195 0.929 . S
C2188 C2187 1.383 . S
C2188 C2189 1.377 . S
C2189 H2173 0.930 . S
C2189 C2188 1.377 . S
C2189 C2190 1.379 . S
C2190 H2174 0.931 . S
C2190 C2184 1.383 . S
C2190 C2189 1.379 . S
H2191 C2185 0.959 . S
H2192 C2185 0.961 . S
H2193 C2185 0.960 . S
H2194 C2186 0.930 . S
H2195 C2187 0.929 . S
H2196 C2204 0.929 . S
H2197 C2206 0.930 . S
H2198 C2208 0.930 . S
H2199 C2211 0.929 . S
H2200 C2214 0.930 . S
H2201 C2216 0.960 . S
H2202 C2216 0.960 . S
H2203 C2216 0.960 . S
C2204 H2196 0.929 . S
C2204 C2205 1.377 . S
C2204 C2206 1.384 . S
C2205 C2204 1.377 . S
C2205 C2211 1.390 . S
C2206 H2197 0.930 . S
C2206 C2204 1.384 . S
C2206 C2207 1.372 . S
C2207 C2206 1.372 . S
C2207 C2208 1.400 . S
C2207 C2212 1.490 . S
C2208 H2198 0.930 . S
C2208 C2207 1.400 . S
C2208 C2211 1.386 . S
H2209 C2225 0.930 . S
H2210 C2226 0.931 . S
C2211 H2199 0.929 . S
C2211 C2205 1.390 . S
C2211 C2208 1.386 . S
C2212 C2207 1.490 . S
C2212 C2214 1.395 . S
C2212 C2215 1.403 . S
H2213 C2219 0.930 . S
C2214 H2200 0.930 . S
C2214 C2212 1.395 . S
C2214 C2217 1.403 . S
C2215 C2212 1.403 . S
C2215 C2216 1.524 . S
C2215 C2219 1.400 . S
C2216 H2201 0.960 . S
C2216 H2202 0.960 . S
C2216 H2203 0.960 . S
C2216 C2215 1.524 . S
C2217 C2214 1.403 . S
C2217 C2218 1.392 . S
C2217 C2221 1.495 . S
C2218 C2217 1.392 . S
C2218 C2219 1.385 . S
C2218 C2220 1.478 . S
C2219 H2213 0.930 . S
C2219 C2215 1.400 . S
C2219 C2218 1.385 . S
C2220 C2218 1.478 . S
C2220 C2222 1.381 . S
C2220 C2226 1.383 . S
C2221 C2217 1.495 . S
C2221 H2227 0.959 . S
C2221 H2228 0.961 . S
C2221 H2229 0.960 . S
C2222 C2220 1.381 . S
C2222 C2223 1.394 . S
C2222 H2230 0.930 . S
C2223 C2222 1.394 . S
C2223 C2224 1.383 . S
C2223 H2231 0.929 . S
C2224 C2223 1.383 . S
C2224 C2225 1.377 . S
C2225 H2209 0.930 . S
C2225 C2224 1.377 . S
C2225 C2226 1.379 . S
C2226 H2210 0.931 . S
C2226 C2220 1.383 . S
C2226 C2225 1.379 . S
H2227 C2221 0.959 . S
H2228 C2221 0.961 . S
H2229 C2221 0.960 . S
H2230 C2222 0.930 . S
H2231 C2223 0.929 . S
H2232 C2240 0.929 1_565 S
H2233 C2242 0.944 . S
H2234 C2244 0.930 . S
H2235 C2247 0.929 . S
H2236 C2250 0.930 1_565 S
H2237 C2252 0.960 . S
H2238 C2252 0.960 . S
H2239 C2252 0.960 . S
C2240 H2232 0.929 1_545 S
C2240 C2241 1.377 . S
C2240 C2242 1.384 . S
C2241 C2240 1.377 . S
C2241 C2247 1.390 . S
C2242 H2233 0.944 . S
C2242 C2240 1.384 . S
C2242 C2243 1.372 . S
C2243 C2242 1.372 . S
C2243 C2244 1.400 . S
C2243 C2248 1.490 . S
C2244 H2234 0.930 . S
C2244 C2243 1.400 . S
C2244 C2247 1.386 . S
H2245 C2261 0.930 . S
H2246 C2262 0.931 . S
C2247 H2235 0.929 . S
C2247 C2241 1.390 . S
C2247 C2244 1.386 . S
C2248 C2243 1.490 . S
C2248 C2250 1.395 . S
C2248 C2251 1.403 . S
H2249 C2255 0.930 . S
C2250 H2236 0.930 1_545 S
C2250 C2248 1.395 . S
C2250 C2253 1.403 . S
C2251 C2248 1.403 . S
C2251 C2252 1.524 . S
C2251 C2255 1.400 . S
C2252 H2237 0.960 . S
C2252 H2238 0.960 . S
C2252 H2239 0.960 . S
C2252 C2251 1.524 . S
C2253 C2250 1.403 . S
C2253 C2254 1.392 . S
C2253 C2257 1.495 1_545 S
C2254 C2253 1.392 . S
C2254 C2255 1.385 . S
C2254 C2256 1.478 . S
C2255 H2249 0.930 . S
C2255 C2251 1.400 . S
C2255 C2254 1.385 . S
C2256 C2254 1.478 . S
C2256 C2258 1.381 . S
C2256 C2262 1.383 . S
C2257 C2253 1.495 1_565 S
C2257 H2263 0.959 . S
C2257 H2264 0.961 . S
C2257 H2265 0.960 . S
C2258 C2256 1.381 . S
C2258 C2259 1.394 . S
C2258 H2266 0.930 . S
C2259 C2258 1.394 . S
C2259 C2260 1.383 . S
C2259 H2267 0.929 . S
C2260 C2259 1.383 . S
C2260 C2261 1.377 . S
C2261 H2245 0.930 . S
C2261 C2260 1.377 . S
C2261 C2262 1.379 . S
C2262 H2246 0.931 . S
C2262 C2256 1.383 . S
C2262 C2261 1.379 . S
H2263 C2257 0.959 . S
H2264 C2257 0.961 . S
H2265 C2257 0.960 . S
H2266 C2258 0.930 . S
H2267 C2259 0.929 . S
H2268 C2276 0.929 . S
H2269 C2278 0.930 . S
H2270 C2280 0.930 . S
H2271 C2283 0.929 . S
H2272 C2286 0.930 . S
H2273 C2288 0.960 . S
H2274 C2288 0.960 . S
H2275 C2288 0.960 . S
C2276 H2268 0.929 . S
C2276 C2277 1.377 . S
C2276 C2278 1.384 . S
C2277 C2276 1.377 . S
C2277 C2283 1.390 . S
C2278 H2269 0.930 . S
C2278 C2276 1.384 . S
C2278 C2279 1.372 . S
C2279 C2278 1.372 . S
C2279 C2280 1.400 . S
C2279 C2284 1.490 . S
C2280 H2270 0.930 . S
C2280 C2279 1.400 . S
C2280 C2283 1.386 . S
H2281 C2297 0.930 . S
H2282 C2298 0.931 . S
C2283 H2271 0.929 . S
C2283 C2277 1.390 . S
C2283 C2280 1.386 . S
C2284 C2279 1.490 . S
C2284 C2286 1.395 . S
C2284 C2287 1.403 . S
H2285 C2291 0.930 . S
C2286 H2272 0.930 . S
C2286 C2284 1.395 . S
C2286 C2289 1.403 . S
C2287 C2284 1.403 . S
C2287 C2288 1.524 . S
C2287 C2291 1.400 . S
C2288 H2273 0.960 . S
C2288 H2274 0.960 . S
C2288 H2275 0.960 . S
C2288 C2287 1.524 . S
C2289 C2286 1.403 . S
C2289 C2290 1.392 . S
C2289 C2293 1.495 . S
C2290 C2289 1.392 . S
C2290 C2291 1.385 . S
C2290 C2292 1.478 . S
C2291 H2285 0.930 . S
C2291 C2287 1.400 . S
C2291 C2290 1.385 . S
C2292 C2290 1.478 . S
C2292 C2294 1.381 . S
C2292 C2298 1.383 . S
C2293 C2289 1.495 . S
C2293 H2299 0.959 1_545 S
C2293 H2300 0.961 1_545 S
C2293 H2301 0.960 . S
C2294 C2292 1.381 . S
C2294 C2295 1.394 . S
C2294 H2302 0.930 . S
C2295 C2294 1.394 . S
C2295 C2296 1.383 . S
C2295 H2303 0.929 . S
C2296 C2295 1.383 . S
C2296 C2297 1.377 . S
C2297 H2281 0.930 . S
C2297 C2296 1.377 . S
C2297 C2298 1.379 . S
C2298 H2282 0.931 . S
C2298 C2292 1.383 . S
C2298 C2297 1.379 . S
H2299 C2293 0.959 1_565 S
H2300 C2293 0.961 1_565 S
H2301 C2293 0.960 . S
H2302 C2294 0.930 . S
H2303 C2295 0.929 . S
H2304 C2312 0.929 . S
H2305 C2314 0.930 . S
H2306 C2316 0.930 . S
H2307 C2319 0.929 . S
H2308 C2322 0.930 . S
H2309 C2324 0.960 . S
H2310 C2324 0.960 . S
H2311 C2324 0.960 . S
C2312 H2304 0.929 . S
C2312 C2313 1.377 . S
C2312 C2314 1.384 . S
C2313 C2312 1.377 . S
C2313 C2319 1.390 . S
C2314 H2305 0.930 . S
C2314 C2312 1.384 . S
C2314 C2315 1.372 . S
C2315 C2314 1.372 . S
C2315 C2316 1.400 . S
C2315 C2320 1.490 . S
C2316 H2306 0.930 . S
C2316 C2315 1.400 . S
C2316 C2319 1.386 . S
H2317 C2333 0.930 . S
H2318 C2334 0.931 . S
C2319 H2307 0.929 . S
C2319 C2313 1.390 . S
C2319 C2316 1.386 . S
C2320 C2315 1.490 . S
C2320 C2322 1.395 . S
C2320 C2323 1.403 . S
H2321 C2327 0.930 . S
C2322 H2308 0.930 . S
C2322 C2320 1.395 . S
C2322 C2325 1.403 . S
C2323 C2320 1.403 . S
C2323 C2324 1.524 . S
C2323 C2327 1.400 . S
C2324 H2309 0.960 . S
C2324 H2310 0.960 . S
C2324 H2311 0.960 . S
C2324 C2323 1.524 . S
C2325 C2322 1.403 . S
C2325 C2326 1.392 . S
C2325 C2329 1.495 . S
C2326 C2325 1.392 . S
C2326 C2327 1.385 . S
C2326 C2328 1.478 . S
C2327 H2321 0.930 . S
C2327 C2323 1.400 . S
C2327 C2326 1.385 . S
C2328 C2326 1.478 . S
C2328 C2330 1.381 . S
C2328 C2334 1.383 . S
C2329 C2325 1.495 . S
C2329 H2335 0.959 . S
C2329 H2336 0.961 . S
C2329 H2337 0.960 . S
C2330 C2328 1.381 . S
C2330 C2331 1.394 . S
C2330 H2338 0.930 . S
C2331 C2330 1.394 . S
C2331 C2332 1.383 . S
C2331 H2339 0.929 . S
C2332 C2331 1.383 . S
C2332 C2333 1.377 . S
C2333 H2317 0.930 . S
C2333 C2332 1.377 . S
C2333 C2334 1.379 . S
C2334 H2318 0.931 . S
C2334 C2328 1.383 . S
C2334 C2333 1.379 . S
H2335 C2329 0.959 . S
H2336 C2329 0.961 . S
H2337 C2329 0.960 . S
H2338 C2330 0.930 . S
H2339 C2331 0.929 . S
H2340 C2348 0.929 . S
H2341 C2350 0.930 . S
H2342 C2352 0.930 1_556 S
H2343 C2355 0.862 1_556 S
H2344 C2358 0.930 . S
H2345 C2360 0.936 1_556 S
H2346 C2360 0.993 . S
H2347 C2360 0.913 1_556 S
C2348 H2340 0.929 . S
C2348 C2349 1.377 . S
C2348 C2350 1.384 . S
C2349 C2348 1.377 . S
C2349 C2355 1.448 . S
C2350 H2341 0.930 . S
C2350 C2348 1.384 . S
C2350 C2351 1.372 . S
C2351 C2350 1.372 . S
C2351 C2352 1.400 . S
C2351 C2356 1.490 . S
C2352 H2342 0.930 1_554 S
C2352 C2351 1.400 . S
C2352 C2355 1.399 . S
H2353 C2369 0.930 . S
H2354 C2370 0.931 . S
C2355 H2343 0.862 1_554 S
C2355 C2349 1.448 . S
C2355 C2352 1.399 . S
C2356 C2351 1.490 . S
C2356 C2358 1.395 . S
C2356 C2359 1.403 . S
H2357 C2363 0.930 . S
C2358 H2344 0.930 . S
C2358 C2356 1.395 . S
C2358 C2361 1.403 . S
C2359 C2356 1.403 . S
C2359 C2360 1.568 . S
C2359 C2363 1.400 . S
C2360 H2345 0.936 1_554 S
C2360 H2346 0.993 . S
C2360 H2347 0.913 1_554 S
C2360 C2359 1.568 . S
C2361 C2358 1.403 . S
C2361 C2362 1.392 . S
C2361 C2365 1.495 . S
C2362 C2361 1.392 . S
C2362 C2363 1.385 . S
C2362 C2364 1.478 . S
C2363 H2357 0.930 . S
C2363 C2359 1.400 . S
C2363 C2362 1.385 . S
C2364 C2362 1.478 . S
C2364 C2366 1.381 . S
C2364 C2370 1.383 . S
C2365 C2361 1.495 . S
C2365 H2371 0.959 . S
C2365 H2372 0.961 . S
C2365 H2373 0.960 . S
C2366 C2364 1.381 . S
C2366 C2367 1.394 . S
C2366 H2374 0.930 . S
C2367 C2366 1.394 . S
C2367 C2368 1.383 . S
C2367 H2375 0.929 . S
C2368 C2367 1.383 . S
C2368 C2369 1.377 . S
C2369 H2353 0.930 . S
C2369 C2368 1.377 . S
C2369 C2370 1.379 . S
C2370 H2354 0.931 . S
C2370 C2364 1.383 . S
C2370 C2369 1.379 . S
H2371 C2365 0.959 . S
H2372 C2365 0.961 . S
H2373 C2365 0.960 . S
H2374 C2366 0.930 . S
H2375 C2367 0.929 . S
H2376 C2384 0.929 . S
H2377 C2386 0.930 . S
H2378 C2388 0.930 . S
H2379 C2391 0.929 . S
H2380 C2394 0.930 . S
H2381 C2396 0.960 . S
H2382 C2396 0.960 . S
H2383 C2396 0.960 . S
C2384 H2376 0.929 . S
C2384 C2385 1.377 . S
C2384 C2386 1.384 . S
C2385 C2384 1.377 . S
C2385 C2391 1.390 . S
C2386 H2377 0.930 . S
C2386 C2384 1.384 . S
C2386 C2387 1.372 . S
C2387 C2386 1.372 . S
C2387 C2388 1.400 . S
C2387 C2392 1.490 . S
C2388 H2378 0.930 . S
C2388 C2387 1.400 . S
C2388 C2391 1.386 . S
H2389 C2405 0.930 . S
H2390 C2406 0.931 . S
C2391 H2379 0.929 . S
C2391 C2385 1.390 . S
C2391 C2388 1.386 . S
C2392 C2387 1.490 . S
C2392 C2394 1.395 . S
C2392 C2395 1.403 . S
H2393 C2399 0.930 . S
C2394 H2380 0.930 . S
C2394 C2392 1.395 . S
C2394 C2397 1.403 . S
C2395 C2392 1.403 . S
C2395 C2396 1.524 . S
C2395 C2399 1.400 . S
C2396 H2381 0.960 . S
C2396 H2382 0.960 . S
C2396 H2383 0.960 . S
C2396 C2395 1.524 . S
C2397 C2394 1.403 . S
C2397 C2398 1.392 . S
C2397 C2401 1.495 . S
C2398 C2397 1.392 . S
C2398 C2399 1.385 . S
C2398 C2400 1.478 . S
C2399 H2393 0.930 . S
C2399 C2395 1.400 . S
C2399 C2398 1.385 . S
C2400 C2398 1.478 . S
C2400 C2402 1.381 . S
C2400 C2406 1.383 . S
C2401 C2397 1.495 . S
C2401 H2407 0.959 . S
C2401 H2408 0.961 . S
C2401 H2409 0.960 . S
C2402 C2400 1.381 . S
C2402 C2403 1.394 . S
C2402 H2410 0.930 . S
C2403 C2402 1.394 . S
C2403 C2404 1.383 . S
C2403 H2411 0.929 . S
C2404 C2403 1.383 . S
C2404 C2405 1.377 . S
C2405 H2389 0.930 . S
C2405 C2404 1.377 . S
C2405 C2406 1.379 . S
C2406 H2390 0.931 . S
C2406 C2400 1.383 . S
C2406 C2405 1.379 . S
H2407 C2401 0.959 . S
H2408 C2401 0.961 . S
H2409 C2401 0.960 . S
H2410 C2402 0.930 . S
H2411 C2403 0.929 . S
H2412 C2420 0.929 . S
H2413 C2422 0.930 . S
H2414 C2424 0.930 . S
H2415 C2427 0.929 . S
H2416 C2430 0.930 . S
H2417 C2432 0.960 . S
H2418 C2432 0.960 . S
H2419 C2432 0.960 . S
C2420 H2412 0.929 . S
C2420 C2421 1.377 1_556 S
C2420 C2422 1.384 . S
C2421 C2420 1.377 1_554 S
C2421 C2427 1.390 . S
C2422 H2413 0.930 . S
C2422 C2420 1.384 . S
C2422 C2423 1.372 1_556 S
C2423 C2422 1.372 1_554 S
C2423 C2424 1.400 . S
C2423 C2428 1.490 . S
C2424 H2414 0.930 . S
C2424 C2423 1.400 . S
C2424 C2427 1.386 . S
H2425 C2441 0.930 . S
H2426 C2442 0.931 . S
C2427 H2415 0.929 . S
C2427 C2421 1.390 . S
C2427 C2424 1.386 . S
C2428 C2423 1.490 . S
C2428 C2430 1.395 . S
C2428 C2431 1.403 . S
H2429 C2435 0.930 . S
C2430 H2416 0.930 . S
C2430 C2428 1.395 . S
C2430 C2433 1.403 . S
C2431 C2428 1.403 . S
C2431 C2432 1.524 . S
C2431 C2435 1.400 . S
C2432 H2417 0.960 . S
C2432 H2418 0.960 . S
C2432 H2419 0.960 . S
C2432 C2431 1.524 . S
C2433 C2430 1.403 . S
C2433 C2434 1.392 . S
C2433 C2437 1.495 . S
C2434 C2433 1.392 . S
C2434 C2435 1.385 . S
C2434 C2436 1.478 . S
C2435 H2429 0.930 . S
C2435 C2431 1.400 . S
C2435 C2434 1.385 . S
C2436 C2434 1.478 . S
C2436 C2438 1.381 . S
C2436 C2442 1.383 . S
C2437 C2433 1.495 . S
C2437 H2443 0.959 . S
C2437 H2444 0.961 . S
C2437 H2445 0.960 . S
C2438 C2436 1.381 . S
C2438 C2439 1.394 . S
C2438 H2446 0.930 . S
C2439 C2438 1.394 . S
C2439 C2440 1.383 . S
C2439 H2447 0.929 . S
C2440 C2439 1.383 . S
C2440 C2441 1.377 . S
C2441 H2425 0.930 . S
C2441 C2440 1.377 . S
C2441 C2442 1.379 . S
C2442 H2426 0.931 . S
C2442 C2436 1.383 . S
C2442 C2441 1.379 . S
H2443 C2437 0.959 . S
H2444 C2437 0.961 . S
H2445 C2437 0.960 . S
H2446 C2438 0.930 . S
H2447 C2439 0.929 . S
H2448 C2456 0.929 . S
H2449 C2458 0.930 . S
H2450 C2460 0.930 . S
H2451 C2463 0.929 . S
H2452 C2466 0.930 . S
H2453 C2468 0.960 . S
H2454 C2468 0.960 . S
H2455 C2468 0.960 . S
C2456 H2448 0.929 . S
C2456 C2457 1.377 . S
C2456 C2458 1.384 . S
C2457 C2456 1.377 . S
C2457 C2463 1.390 . S
C2458 H2449 0.930 . S
C2458 C2456 1.384 . S
C2458 C2459 1.372 . S
C2459 C2458 1.372 . S
C2459 C2460 1.400 . S
C2459 C2464 1.490 . S
C2460 H2450 0.930 . S
C2460 C2459 1.400 . S
C2460 C2463 1.386 . S
H2461 C2477 0.930 . S
H2462 C2478 0.931 . S
C2463 H2451 0.929 . S
C2463 C2457 1.390 . S
C2463 C2460 1.386 . S
C2464 C2459 1.490 . S
C2464 C2466 1.395 . S
C2464 C2467 1.403 . S
H2465 C2471 0.930 . S
C2466 H2452 0.930 . S
C2466 C2464 1.395 . S
C2466 C2469 1.403 . S
C2467 C2464 1.403 . S
C2467 C2468 1.524 . S
C2467 C2471 1.400 . S
C2468 H2453 0.960 . S
C2468 H2454 0.960 . S
C2468 H2455 0.960 . S
C2468 C2467 1.524 . S
C2469 C2466 1.403 . S
C2469 C2470 1.392 . S
C2469 C2473 1.495 . S
C2470 C2469 1.392 . S
C2470 C2471 1.385 . S
C2470 C2472 1.478 . S
C2471 H2465 0.930 . S
C2471 C2467 1.400 . S
C2471 C2470 1.385 . S
C2472 C2470 1.478 . S
C2472 C2474 1.381 . S
C2472 C2478 1.383 . S
C2473 C2469 1.495 . S
C2473 H2479 0.959 . S
C2473 H2480 0.961 . S
C2473 H2481 0.960 . S
C2474 C2472 1.381 . S
C2474 C2475 1.394 . S
C2474 H2482 0.930 . S
C2475 C2474 1.394 . S
C2475 C2476 1.383 . S
C2475 H2483 0.929 . S
C2476 C2475 1.383 . S
C2476 C2477 1.377 . S
C2477 H2461 0.930 . S
C2477 C2476 1.377 . S
C2477 C2478 1.379 . S
C2478 H2462 0.931 . S
C2478 C2472 1.383 . S
C2478 C2477 1.379 . S
H2479 C2473 0.959 . S
H2480 C2473 0.961 . S
H2481 C2473 0.960 . S
H2482 C2474 0.930 . S
H2483 C2475 0.929 . S
H2484 C2492 0.901 1_655 S
H2485 C2494 0.930 1_655 S
H2486 C2496 0.930 . S
H2487 C2499 0.929 . S
H2488 C2502 0.930 . S
H2489 C2504 0.960 . S
H2490 C2504 0.960 . S
H2491 C2504 0.960 . S
C2492 H2484 0.901 1_455 S
C2492 C2493 1.402 . S
C2492 C2494 1.387 . S
C2493 C2492 1.402 . S
C2493 C2499 1.390 . S
C2494 H2485 0.930 1_455 S
C2494 C2492 1.387 . S
C2494 C2495 1.372 . S
C2495 C2494 1.372 . S
C2495 C2496 1.400 . S
C2495 C2500 1.490 . S
C2496 H2486 0.930 . S
C2496 C2495 1.400 . S
C2496 C2499 1.386 . S
H2497 C2513 0.930 . S
H2498 C2514 0.931 . S
C2499 H2487 0.929 . S
C2499 C2493 1.390 . S
C2499 C2496 1.386 . S
C2500 C2495 1.490 . S
C2500 C2502 1.395 . S
C2500 C2503 1.403 . S
H2501 C2507 0.930 . S
C2502 H2488 0.930 . S
C2502 C2500 1.395 . S
C2502 C2505 1.403 . S
C2503 C2500 1.403 . S
C2503 C2504 1.524 . S
C2503 C2507 1.400 . S
C2504 H2489 0.960 . S
C2504 H2490 0.960 . S
C2504 H2491 0.960 . S
C2504 C2503 1.524 . S
C2505 C2502 1.403 . S
C2505 C2506 1.392 . S
C2505 C2509 1.495 . S
C2506 C2505 1.392 . S
C2506 C2507 1.385 . S
C2506 C2508 1.478 . S
C2507 H2501 0.930 . S
C2507 C2503 1.400 . S
C2507 C2506 1.385 . S
C2508 C2506 1.478 . S
C2508 C2510 1.381 . S
C2508 C2514 1.383 . S
C2509 C2505 1.495 . S
C2509 H2515 0.959 1_455 S
C2509 H2516 0.961 . S
C2509 H2517 0.960 1_455 S
C2510 C2508 1.381 . S
C2510 C2511 1.394 . S
C2510 H2518 0.971 . S
C2511 C2510 1.394 . S
C2511 C2512 1.383 . S
C2511 H2519 0.929 . S
C2512 C2511 1.383 . S
C2512 C2513 1.377 . S
C2513 H2497 0.930 . S
C2513 C2512 1.377 . S
C2513 C2514 1.379 . S
C2514 H2498 0.931 . S
C2514 C2508 1.383 . S
C2514 C2513 1.379 . S
H2515 C2509 0.959 1_655 S
H2516 C2509 0.961 . S
H2517 C2509 0.960 1_655 S
H2518 C2510 0.971 . S
H2519 C2511 0.929 . S
H2520 C2528 0.929 . S
H2521 C2530 0.930 . S
H2522 C2532 0.930 . S
H2523 C2535 0.929 . S
H2524 C2538 0.930 . S
H2525 C2540 0.960 . S
H2526 C2540 0.960 . S
H2527 C2540 0.960 . S
C2528 H2520 0.929 . S
C2528 C2529 1.377 . S
C2528 C2530 1.384 . S
C2529 C2528 1.377 . S
C2529 C2535 1.390 . S
C2530 H2521 0.930 . S
C2530 C2528 1.384 . S
C2530 C2531 1.372 . S
C2531 C2530 1.372 . S
C2531 C2532 1.400 . S
C2531 C2536 1.490 . S
C2532 H2522 0.930 . S
C2532 C2531 1.400 . S
C2532 C2535 1.386 . S
H2533 C2549 0.930 . S
H2534 C2550 0.931 . S
C2535 H2523 0.929 . S
C2535 C2529 1.390 . S
C2535 C2532 1.386 . S
C2536 C2531 1.490 . S
C2536 C2538 1.395 . S
C2536 C2539 1.403 . S
H2537 C2543 0.930 . S
C2538 H2524 0.930 . S
C2538 C2536 1.395 . S
C2538 C2541 1.403 . S
C2539 C2536 1.403 . S
C2539 C2540 1.524 . S
C2539 C2543 1.400 . S
C2540 H2525 0.960 . S
C2540 H2526 0.960 . S
C2540 H2527 0.960 . S
C2540 C2539 1.524 . S
C2541 C2538 1.403 . S
C2541 C2542 1.392 . S
C2541 C2545 1.495 . S
C2542 C2541 1.392 . S
C2542 C2543 1.385 . S
C2542 C2544 1.478 . S
C2543 H2537 0.930 . S
C2543 C2539 1.400 . S
C2543 C2542 1.385 . S
C2544 C2542 1.478 . S
C2544 C2546 1.381 . S
C2544 C2550 1.383 . S
C2545 C2541 1.495 . S
C2545 H2551 0.959 . S
C2545 H2552 0.961 . S
C2545 H2553 0.960 . S
C2546 C2544 1.381 . S
C2546 C2547 1.394 . S
C2546 H2554 0.930 . S
C2547 C2546 1.394 . S
C2547 C2548 1.383 . S
C2547 H2555 0.929 . S
C2548 C2547 1.383 . S
C2548 C2549 1.377 . S
C2549 H2533 0.930 . S
C2549 C2548 1.377 . S
C2549 C2550 1.379 . S
C2550 H2534 0.931 . S
C2550 C2544 1.383 . S
C2550 C2549 1.379 . S
H2551 C2545 0.959 . S
H2552 C2545 0.961 . S
H2553 C2545 0.960 . S
H2554 C2546 0.930 . S
H2555 C2547 0.929 . S
H2556 C2564 0.929 . S
H2557 C2566 0.930 . S
H2558 C2568 0.930 . S
H2559 C2571 0.929 . S
H2560 C2574 0.930 . S
H2561 C2576 0.960 . S
H2562 C2576 0.982 . S
H2563 C2576 0.960 . S
C2564 H2556 0.929 . S
C2564 C2565 1.377 . S
C2564 C2566 1.384 . S
C2565 C2564 1.377 . S
C2565 C2571 1.390 1_455 S
C2566 H2557 0.930 . S
C2566 C2564 1.384 . S
C2566 C2567 1.372 . S
C2567 C2566 1.372 . S
C2567 C2568 1.400 1_455 S
C2567 C2572 1.490 . S
C2568 H2558 0.930 . S
C2568 C2567 1.400 1_655 S
C2568 C2571 1.386 . S
H2569 C2585 0.930 . S
H2570 C2586 0.931 . S
C2571 H2559 0.929 . S
C2571 C2565 1.390 1_655 S
C2571 C2568 1.386 . S
C2572 C2567 1.490 . S
C2572 C2574 1.395 . S
C2572 C2575 1.403 . S
H2573 C2579 0.930 . S
C2574 H2560 0.930 . S
C2574 C2572 1.395 . S
C2574 C2577 1.403 . S
C2575 C2572 1.403 . S
C2575 C2576 1.524 1_455 S
C2575 C2579 1.400 . S
C2576 H2561 0.960 . S
C2576 H2562 0.982 . S
C2576 H2563 0.960 . S
C2576 C2575 1.524 1_655 S
C2577 C2574 1.403 . S
C2577 C2578 1.392 . S
C2577 C2581 1.495 . S
C2578 C2577 1.392 . S
C2578 C2579 1.385 . S
C2578 C2580 1.478 . S
C2579 H2573 0.930 . S
C2579 C2575 1.400 . S
C2579 C2578 1.385 . S
C2580 C2578 1.478 . S
C2580 C2582 1.381 . S
C2580 C2586 1.383 . S
C2581 C2577 1.495 . S
C2581 H2587 0.959 . S
C2581 H2588 0.961 . S
C2581 H2589 0.960 . S
C2582 C2580 1.381 . S
C2582 C2583 1.394 . S
C2582 H2590 0.930 . S
C2583 C2582 1.394 . S
C2583 C2584 1.383 . S
C2583 H2591 0.929 . S
C2584 C2583 1.383 . S
C2584 C2585 1.377 . S
C2585 H2569 0.930 . S
C2585 C2584 1.377 . S
C2585 C2586 1.379 . S
C2586 H2570 0.931 . S
C2586 C2580 1.383 . S
C2586 C2585 1.379 . S
H2587 C2581 0.959 . S
H2588 C2581 0.961 . S
H2589 C2581 0.960 . S
H2590 C2582 0.930 . S
H2591 C2583 0.929 . S
H2592 C2600 0.929 . S
H2593 C2602 0.930 . S
H2594 C2604 0.930 . S
H2595 C2607 0.929 . S
H2596 C2610 0.930 . S
H2597 C2612 0.960 . S
H2598 C2612 0.960 . S
H2599 C2612 0.960 . S
C2600 H2592 0.929 . S
C2600 C2601 1.377 . S
C2600 C2602 1.384 . S
C2601 C2600 1.377 . S
C2601 C2607 1.390 . S
C2602 H2593 0.930 . S
C2602 C2600 1.384 . S
C2602 C2603 1.372 . S
C2603 C2602 1.372 . S
C2603 C2604 1.400 . S
C2603 C2608 1.490 . S
C2604 H2594 0.930 . S
C2604 C2603 1.400 . S
C2604 C2607 1.386 . S
H2605 C2621 0.930 . S
H2606 C2622 0.931 . S
C2607 H2595 0.929 . S
C2607 C2601 1.390 . S
C2607 C2604 1.386 . S
C2608 C2603 1.490 . S
C2608 C2610 1.395 . S
C2608 C2611 1.403 . S
H2609 C2615 0.930 . S
C2610 H2596 0.930 . S
C2610 C2608 1.395 . S
C2610 C2613 1.403 . S
C2611 C2608 1.403 . S
C2611 C2612 1.524 . S
C2611 C2615 1.400 . S
C2612 H2597 0.960 . S
C2612 H2598 0.960 . S
C2612 H2599 0.960 . S
C2612 C2611 1.524 . S
C2613 C2610 1.403 . S
C2613 C2614 1.392 . S
C2613 C2617 1.495 . S
C2614 C2613 1.392 . S
C2614 C2615 1.385 . S
C2614 C2616 1.478 . S
C2615 H2609 0.930 . S
C2615 C2611 1.400 . S
C2615 C2614 1.385 . S
C2616 C2614 1.478 . S
C2616 C2618 1.381 . S
C2616 C2622 1.383 . S
C2617 C2613 1.495 . S
C2617 H2623 0.959 . S
C2617 H2624 0.961 . S
C2617 H2625 0.960 . S
C2618 C2616 1.381 . S
C2618 C2619 1.394 . S
C2618 H2626 0.930 . S
C2619 C2618 1.394 . S
C2619 C2620 1.383 . S
C2619 H2627 0.929 . S
C2620 C2619 1.383 . S
C2620 C2621 1.377 . S
C2621 H2605 0.930 . S
C2621 C2620 1.377 . S
C2621 C2622 1.379 . S
C2622 H2606 0.931 . S
C2622 C2616 1.383 . S
C2622 C2621 1.379 . S
H2623 C2617 0.959 . S
H2624 C2617 0.961 . S
H2625 C2617 0.960 . S
H2626 C2618 0.930 . S
H2627 C2619 0.929 . S
H2628 C2636 0.929 . S
H2629 C2638 0.930 . S
H2630 C2640 0.930 . S
H2631 C2643 0.929 . S
H2632 C2646 0.930 . S
H2633 C2648 0.960 . S
H2634 C2648 0.960 . S
H2635 C2648 0.960 . S
C2636 H2628 0.929 . S
C2636 C2637 1.377 . S
C2636 C2638 1.384 . S
C2637 C2636 1.377 . S
C2637 C2643 1.390 . S
C2638 H2629 0.930 . S
C2638 C2636 1.384 . S
C2638 C2639 1.372 . S
C2639 C2638 1.372 . S
C2639 C2640 1.400 . S
C2639 C2644 1.490 . S
C2640 H2630 0.930 . S
C2640 C2639 1.400 . S
C2640 C2643 1.386 . S
H2641 C2657 0.930 . S
H2642 C2658 0.931 . S
C2643 H2631 0.929 . S
C2643 C2637 1.390 . S
C2643 C2640 1.386 . S
C2644 C2639 1.490 . S
C2644 C2646 1.395 . S
C2644 C2647 1.403 . S
H2645 C2651 0.930 . S
C2646 H2632 0.930 . S
C2646 C2644 1.395 . S
C2646 C2649 1.403 . S
C2647 C2644 1.403 . S
C2647 C2648 1.524 . S
C2647 C2651 1.400 . S
C2648 H2633 0.960 . S
C2648 H2634 0.960 . S
C2648 H2635 0.960 . S
C2648 C2647 1.524 . S
C2649 C2646 1.403 . S
C2649 C2650 1.392 . S
C2649 C2653 1.495 . S
C2650 C2649 1.392 . S
C2650 C2651 1.385 . S
C2650 C2652 1.478 . S
C2651 H2645 0.930 . S
C2651 C2647 1.400 . S
C2651 C2650 1.385 . S
C2652 C2650 1.478 . S
C2652 C2654 1.381 . S
C2652 C2658 1.383 . S
C2653 C2649 1.495 . S
C2653 H2659 0.959 . S
C2653 H2660 0.961 . S
C2653 H2661 0.960 . S
C2654 C2652 1.381 . S
C2654 C2655 1.394 . S
C2654 H2662 0.930 . S
C2655 C2654 1.394 . S
C2655 C2656 1.383 . S
C2655 H2663 0.929 . S
C2656 C2655 1.383 . S
C2656 C2657 1.377 . S
C2657 H2641 0.930 . S
C2657 C2656 1.377 . S
C2657 C2658 1.379 . S
C2658 H2642 0.931 . S
C2658 C2652 1.383 . S
C2658 C2657 1.379 . S
H2659 C2653 0.959 . S
H2660 C2653 0.961 . S
H2661 C2653 0.960 . S
H2662 C2654 0.930 . S
H2663 C2655 0.929 . S
H2664 C2672 0.929 . S
H2665 C2674 0.930 . S
H2666 C2676 0.930 . S
H2667 C2679 0.929 . S
H2668 C2682 0.930 . S
H2669 C2684 0.960 . S
H2670 C2684 0.960 . S
H2671 C2684 0.960 . S
C2672 H2664 0.929 . S
C2672 C2673 1.377 . S
C2672 C2674 1.384 . S
C2673 C2672 1.377 . S
C2673 C2679 1.390 1_565 S
C2674 H2665 0.930 . S
C2674 C2672 1.384 . S
C2674 C2675 1.372 . S
C2675 C2674 1.372 . S
C2675 C2676 1.400 1_565 S
C2675 C2680 1.490 . S
C2676 H2666 0.930 . S
C2676 C2675 1.400 1_545 S
C2676 C2679 1.386 . S
H2677 C2693 0.930 . S
H2678 C2694 0.931 . S
C2679 H2667 0.929 . S
C2679 C2673 1.390 1_545 S
C2679 C2676 1.386 . S
C2680 C2675 1.490 . S
C2680 C2682 1.395 . S
C2680 C2683 1.403 1_565 S
H2681 C2687 0.930 . S
C2682 H2668 0.930 . S
C2682 C2680 1.395 . S
C2682 C2685 1.403 . S
C2683 C2680 1.403 1_545 S
C2683 C2684 1.524 . S
C2683 C2687 1.400 . S
C2684 H2669 0.960 . S
C2684 H2670 0.960 . S
C2684 H2671 0.960 . S
C2684 C2683 1.524 . S
C2685 C2682 1.403 . S
C2685 C2686 1.392 . S
C2685 C2689 1.495 . S
C2686 C2685 1.392 . S
C2686 C2687 1.385 1_565 S
C2686 C2688 1.475 1_565 S
C2687 H2681 0.930 . S
C2687 C2683 1.400 . S
C2687 C2686 1.385 1_545 S
C2688 C2686 1.475 1_545 S
C2688 C2690 1.367 1_545 S
C2688 C2694 1.400 . S
C2689 C2685 1.495 . S
C2689 H2695 0.959 . S
C2689 H2696 0.961 . S
C2689 H2697 0.960 . S
C2690 C2688 1.367 1_565 S
C2690 C2691 1.394 . S
C2690 H2698 0.930 . S
C2691 C2690 1.394 . S
C2691 C2692 1.383 1_565 S
C2691 H2699 0.929 . S
C2692 C2691 1.383 1_545 S
C2692 C2693 1.377 . S
C2693 H2677 0.930 . S
C2693 C2692 1.377 . S
C2693 C2694 1.379 . S
C2694 H2678 0.931 . S
C2694 C2688 1.400 . S
C2694 C2693 1.379 . S
H2695 C2689 0.959 . S
H2696 C2689 0.961 . S
H2697 C2689 0.960 . S
H2698 C2690 0.930 . S
H2699 C2691 0.929 . S
H2700 C2708 0.911 1_565 S
H2701 C2710 0.952 . S
H2702 C2712 0.930 . S
H2703 C2715 0.929 . S
H2704 C2718 0.930 . S
H2705 C2720 0.960 . S
H2706 C2720 0.960 . S
H2707 C2720 0.960 . S
C2708 H2700 0.911 1_545 S
C2708 C2709 1.400 . S
C2708 C2710 1.382 1_545 S
C2709 C2708 1.400 . S
C2709 C2715 1.390 . S
C2710 H2701 0.952 . S
C2710 C2708 1.382 1_565 S
C2710 C2711 1.355 1_565 S
C2711 C2710 1.355 1_545 S
C2711 C2712 1.400 . S
C2711 C2716 1.490 . S
C2712 H2702 0.930 . S
C2712 C2711 1.400 . S
C2712 C2715 1.386 . S
H2713 C2729 0.930 . S
H2714 C2730 0.931 . S
C2715 H2703 0.929 . S
C2715 C2709 1.390 . S
C2715 C2712 1.386 . S
C2716 C2711 1.490 . S
C2716 C2718 1.395 . S
C2716 C2719 1.403 1_545 S
H2717 C2723 0.930 . S
C2718 H2704 0.930 . S
C2718 C2716 1.395 . S
C2718 C2721 1.403 . S
C2719 C2716 1.403 1_565 S
C2719 C2720 1.524 . S
C2719 C2723 1.400 . S
C2720 H2705 0.960 . S
C2720 H2706 0.960 . S
C2720 H2707 0.960 . S
C2720 C2719 1.524 . S
C2721 C2718 1.403 . S
C2721 C2722 1.392 . S
C2721 C2725 1.495 . S
C2722 C2721 1.392 . S
C2722 C2723 1.385 1_545 S
C2722 C2724 1.478 . S
C2723 H2717 0.930 . S
C2723 C2719 1.400 . S
C2723 C2722 1.385 1_565 S
C2724 C2722 1.478 . S
C2724 C2726 1.381 1_545 S
C2724 C2730 1.383 . S
C2725 C2721 1.495 . S
C2725 H2731 0.959 . S
C2725 H2732 0.961 . S
C2725 H2733 0.960 . S
C2726 C2724 1.381 1_565 S
C2726 C2727 1.394 . S
C2726 H2734 0.930 . S
C2727 C2726 1.394 . S
C2727 C2728 1.383 . S
C2727 H2735 0.929 . S
C2728 C2727 1.383 . S
C2728 C2729 1.377 1_565 S
C2729 H2713 0.930 . S
C2729 C2728 1.377 1_545 S
C2729 C2730 1.379 . S
C2730 H2714 0.931 . S
C2730 C2724 1.383 . S
C2730 C2729 1.379 . S
H2731 C2725 0.959 . S
H2732 C2725 0.961 . S
H2733 C2725 0.960 . S
H2734 C2726 0.930 . S
H2735 C2727 0.929 . S
H2736 C2744 0.929 . S
H2737 C2746 0.930 . S
H2738 C2748 0.930 . S
H2739 C2751 0.929 . S
H2740 C2754 0.930 . S
H2741 C2756 0.960 . S
H2742 C2756 0.960 . S
H2743 C2756 0.960 . S
C2744 H2736 0.929 . S
C2744 C2745 1.377 . S
C2744 C2746 1.384 . S
C2745 C2744 1.377 . S
C2745 C2751 1.390 . S
C2746 H2737 0.930 . S
C2746 C2744 1.384 . S
C2746 C2747 1.372 . S
C2747 C2746 1.372 . S
C2747 C2748 1.400 . S
C2747 C2752 1.490 . S
C2748 H2738 0.930 . S
C2748 C2747 1.400 . S
C2748 C2751 1.386 . S
H2749 C2765 0.930 . S
H2750 C2766 0.931 . S
C2751 H2739 0.929 . S
C2751 C2745 1.390 . S
C2751 C2748 1.386 . S
C2752 C2747 1.490 . S
C2752 C2754 1.395 . S
C2752 C2755 1.403 . S
H2753 C2759 0.930 . S
C2754 H2740 0.930 . S
C2754 C2752 1.395 . S
C2754 C2757 1.403 . S
C2755 C2752 1.403 . S
C2755 C2756 1.524 . S
C2755 C2759 1.400 . S
C2756 H2741 0.960 . S
C2756 H2742 0.960 . S
C2756 H2743 0.960 . S
C2756 C2755 1.524 . S
C2757 C2754 1.403 . S
C2757 C2758 1.392 . S
C2757 C2761 1.495 . S
C2758 C2757 1.392 . S
C2758 C2759 1.385 . S
C2758 C2760 1.478 . S
C2759 H2753 0.930 . S
C2759 C2755 1.400 . S
C2759 C2758 1.385 . S
C2760 C2758 1.478 . S
C2760 C2762 1.381 . S
C2760 C2766 1.383 . S
C2761 C2757 1.495 . S
C2761 H2767 0.959 . S
C2761 H2768 0.961 . S
C2761 H2769 0.960 . S
C2762 C2760 1.381 . S
C2762 C2763 1.394 . S
C2762 H2770 0.930 . S
C2763 C2762 1.394 . S
C2763 C2764 1.383 . S
C2763 H2771 0.929 . S
C2764 C2763 1.383 . S
C2764 C2765 1.377 . S
C2765 H2749 0.930 . S
C2765 C2764 1.377 . S
C2765 C2766 1.379 . S
C2766 H2750 0.931 . S
C2766 C2760 1.383 . S
C2766 C2765 1.379 . S
H2767 C2761 0.959 . S
H2768 C2761 0.961 . S
H2769 C2761 0.960 . S
H2770 C2762 0.930 . S
H2771 C2763 0.929 . S
H2772 C2780 0.929 . S
H2773 C2782 0.930 . S
H2774 C2784 0.930 . S
H2775 C2787 0.929 . S
H2776 C2790 0.930 . S
H2777 C2792 0.960 . S
H2778 C2792 0.960 . S
H2779 C2792 0.960 . S
C2780 H2772 0.929 . S
C2780 C2781 1.377 . S
C2780 C2782 1.384 . S
C2781 C2780 1.377 . S
C2781 C2787 1.390 1_554 S
C2782 H2773 0.930 . S
C2782 C2780 1.384 . S
C2782 C2783 1.372 . S
C2783 C2782 1.372 . S
C2783 C2784 1.400 1_554 S
C2783 C2788 1.490 . S
C2784 H2774 0.930 . S
C2784 C2783 1.400 1_556 S
C2784 C2787 1.386 . S
H2785 C2801 0.930 . S
H2786 C2802 0.931 . S
C2787 H2775 0.929 . S
C2787 C2781 1.390 1_556 S
C2787 C2784 1.386 . S
C2788 C2783 1.490 . S
C2788 C2790 1.395 . S
C2788 C2791 1.403 1_554 S
H2789 C2795 0.930 . S
C2790 H2776 0.930 . S
C2790 C2788 1.395 . S
C2790 C2793 1.403 . S
C2791 C2788 1.403 1_556 S
C2791 C2792 1.524 . S
C2791 C2795 1.400 . S
C2792 H2777 0.960 . S
C2792 H2778 0.960 . S
C2792 H2779 0.960 . S
C2792 C2791 1.524 . S
C2793 C2790 1.403 . S
C2793 C2794 1.392 . S
C2793 C2797 1.495 . S
C2794 C2793 1.392 . S
C2794 C2795 1.385 1_554 S
C2794 C2796 1.478 . S
C2795 H2789 0.930 . S
C2795 C2791 1.400 . S
C2795 C2794 1.385 1_556 S
C2796 C2794 1.478 . S
C2796 C2798 1.381 . S
C2796 C2802 1.383 1_554 S
C2797 C2793 1.495 . S
C2797 H2803 0.959 . S
C2797 H2804 0.961 . S
C2797 H2805 0.960 . S
C2798 C2796 1.381 . S
C2798 C2799 1.394 . S
C2798 H2806 0.930 . S
C2799 C2798 1.394 . S
C2799 C2800 1.350 1_554 S
C2799 H2807 0.929 . S
C2800 C2799 1.350 1_556 S
C2800 C2801 1.405 . S
C2801 H2785 0.930 . S
C2801 C2800 1.405 . S
C2801 C2802 1.379 . S
C2802 H2786 0.931 . S
C2802 C2796 1.383 1_556 S
C2802 C2801 1.379 . S
H2803 C2797 0.959 . S
H2804 C2797 0.961 . S
H2805 C2797 0.960 . S
H2806 C2798 0.930 . S
H2807 C2799 0.929 . S
H2808 C2816 0.929 . S
H2809 C2818 0.930 . S
H2810 C2820 0.930 . S
H2811 C2823 0.929 . S
H2812 C2826 0.930 . S
H2813 C2828 0.960 . S
H2814 C2828 0.960 . S
H2815 C2828 0.960 . S
C2816 H2808 0.929 . S
C2816 C2817 1.377 . S
C2816 C2818 1.384 . S
C2817 C2816 1.377 . S
C2817 C2823 1.390 . S
C2818 H2809 0.930 . S
C2818 C2816 1.384 . S
C2818 C2819 1.372 . S
C2819 C2818 1.372 . S
C2819 C2820 1.400 . S
C2819 C2824 1.490 . S
C2820 H2810 0.930 . S
C2820 C2819 1.400 . S
C2820 C2823 1.386 . S
H2821 C2837 0.930 . S
H2822 C2838 0.931 . S
C2823 H2811 0.929 . S
C2823 C2817 1.390 . S
C2823 C2820 1.386 . S
C2824 C2819 1.490 . S
C2824 C2826 1.395 . S
C2824 C2827 1.403 . S
H2825 C2831 0.930 . S
C2826 H2812 0.930 . S
C2826 C2824 1.395 . S
C2826 C2829 1.403 . S
C2827 C2824 1.403 . S
C2827 C2828 1.524 . S
C2827 C2831 1.400 . S
C2828 H2813 0.960 . S
C2828 H2814 0.960 . S
C2828 H2815 0.960 . S
C2828 C2827 1.524 . S
C2829 C2826 1.403 . S
C2829 C2830 1.392 . S
C2829 C2833 1.495 . S
C2830 C2829 1.392 . S
C2830 C2831 1.385 . S
C2830 C2832 1.478 . S
C2831 H2825 0.930 . S
C2831 C2827 1.400 . S
C2831 C2830 1.385 . S
C2832 C2830 1.478 . S
C2832 C2834 1.381 . S
C2832 C2838 1.383 . S
C2833 C2829 1.495 . S
C2833 H2839 0.959 . S
C2833 H2840 0.961 . S
C2833 H2841 0.960 . S
C2834 C2832 1.381 . S
C2834 C2835 1.394 . S
C2834 H2842 0.930 . S
C2835 C2834 1.394 . S
C2835 C2836 1.383 . S
C2835 H2843 0.929 . S
C2836 C2835 1.383 . S
C2836 C2837 1.377 . S
C2837 H2821 0.930 . S
C2837 C2836 1.377 . S
C2837 C2838 1.379 . S
C2838 H2822 0.931 . S
C2838 C2832 1.383 . S
C2838 C2837 1.379 . S
H2839 C2833 0.959 . S
H2840 C2833 0.961 . S
H2841 C2833 0.960 . S
H2842 C2834 0.930 . S
H2843 C2835 0.929 . S
H2844 C2852 0.929 . S
H2845 C2854 0.930 . S
H2846 C2856 0.930 . S
H2847 C2859 0.933 . S
H2848 C2862 0.930 . S
H2849 C2864 0.960 . S
H2850 C2864 0.960 . S
H2851 C2864 0.960 . S
C2852 H2844 0.929 . S
C2852 C2853 1.377 . S
C2852 C2854 1.384 . S
C2853 C2852 1.377 . S
C2853 C2859 1.385 1_556 S
C2854 H2845 0.930 . S
C2854 C2852 1.384 . S
C2854 C2855 1.372 . S
C2855 C2854 1.372 . S
C2855 C2856 1.400 1_556 S
C2855 C2860 1.490 . S
C2856 H2846 0.930 . S
C2856 C2855 1.400 1_554 S
C2856 C2859 1.387 . S
H2857 C2873 0.930 . S
H2858 C2874 0.931 . S
C2859 H2847 0.933 . S
C2859 C2853 1.385 1_554 S
C2859 C2856 1.387 . S
C2860 C2855 1.490 . S
C2860 C2862 1.395 1_556 S
C2860 C2863 1.403 . S
H2861 C2867 0.930 . S
C2862 H2848 0.930 . S
C2862 C2860 1.395 1_554 S
C2862 C2865 1.403 . S
C2863 C2860 1.403 . S
C2863 C2864 1.524 . S
C2863 C2867 1.400 . S
C2864 H2849 0.960 . S
C2864 H2850 0.960 . S
C2864 H2851 0.960 . S
C2864 C2863 1.524 . S
C2865 C2862 1.403 . S
C2865 C2866 1.392 . S
C2865 C2869 1.495 . S
C2866 C2865 1.392 . S
C2866 C2867 1.385 1_554 S
C2866 C2868 1.478 . S
C2867 H2861 0.930 . S
C2867 C2863 1.400 . S
C2867 C2866 1.385 1_556 S
C2868 C2866 1.478 . S
C2868 C2870 1.381 1_554 S
C2868 C2874 1.383 . S
C2869 C2865 1.495 . S
C2869 H2875 0.959 . S
C2869 H2876 0.961 . S
C2869 H2877 0.960 . S
C2870 C2868 1.381 1_556 S
C2870 C2871 1.394 . S
C2870 H2878 0.930 . S
C2871 C2870 1.394 . S
C2871 C2872 1.383 1_556 S
C2871 H2879 0.929 . S
C2872 C2871 1.383 1_554 S
C2872 C2873 1.377 . S
C2873 H2857 0.930 . S
C2873 C2872 1.377 . S
C2873 C2874 1.379 . S
C2874 H2858 0.931 . S
C2874 C2868 1.383 . S
C2874 C2873 1.379 . S
H2875 C2869 0.959 . S
H2876 C2869 0.961 . S
H2877 C2869 0.960 . S
H2878 C2870 0.930 . S
H2879 C2871 0.929 . S
H2880 C2888 0.929 . S
H2881 C2890 0.930 . S
H2882 C2892 0.930 . S
H2883 C2895 0.929 . S
H2884 C2898 0.930 . S
H2885 C2900 0.960 . S
H2886 C2900 0.960 . S
H2887 C2900 0.960 . S
C2888 H2880 0.929 . S
C2888 C2889 1.377 . S
C2888 C2890 1.384 . S
C2889 C2888 1.377 . S
C2889 C2895 1.390 . S
C2890 H2881 0.930 . S
C2890 C2888 1.384 . S
C2890 C2891 1.372 . S
C2891 C2890 1.372 . S
C2891 C2892 1.400 . S
C2891 C2896 1.490 . S
C2892 H2882 0.930 . S
C2892 C2891 1.400 . S
C2892 C2895 1.386 . S
H2893 C2909 0.930 . S
H2894 C2910 0.931 . S
C2895 H2883 0.929 . S
C2895 C2889 1.390 . S
C2895 C2892 1.386 . S
C2896 C2891 1.490 . S
C2896 C2898 1.395 . S
C2896 C2899 1.403 . S
H2897 C2903 0.930 . S
C2898 H2884 0.930 . S
C2898 C2896 1.395 . S
C2898 C2901 1.403 . S
C2899 C2896 1.403 . S
C2899 C2900 1.524 . S
C2899 C2903 1.400 . S
C2900 H2885 0.960 . S
C2900 H2886 0.960 . S
C2900 H2887 0.960 . S
C2900 C2899 1.524 . S
C2901 C2898 1.403 . S
C2901 C2902 1.392 . S
C2901 C2905 1.495 . S
C2902 C2901 1.392 . S
C2902 C2903 1.385 . S
C2902 C2904 1.478 . S
C2903 H2897 0.930 . S
C2903 C2899 1.400 . S
C2903 C2902 1.385 . S
C2904 C2902 1.478 . S
C2904 C2906 1.381 . S
C2904 C2910 1.383 . S
C2905 C2901 1.495 . S
C2905 H2911 0.959 . S
C2905 H2912 0.961 . S
C2905 H2913 0.960 . S
C2906 C2904 1.381 . S
C2906 C2907 1.394 . S
C2906 H2914 0.930 . S
C2907 C2906 1.394 . S
C2907 C2908 1.383 . S
C2907 H2915 0.929 . S
C2908 C2907 1.383 . S
C2908 C2909 1.377 . S
C2909 H2893 0.930 . S
C2909 C2908 1.377 . S
C2909 C2910 1.379 . S
C2910 H2894 0.931 . S
C2910 C2904 1.383 . S
C2910 C2909 1.379 . S
H2911 C2905 0.959 . S
H2912 C2905 0.961 . S
H2913 C2905 0.960 . S
H2914 C2906 0.930 . S
H2915 C2907 0.929 . S
H2916 C2924 0.929 . S
H2917 C2926 0.930 . S
H2918 C2928 0.929 1_655 S
H2919 C2931 0.929 . S
H2920 C2934 0.930 . S
H2921 C2936 0.960 . S
H2922 C2936 0.960 . S
H2923 C2936 0.960 . S
C2924 H2916 0.929 . S
C2924 C2925 1.377 . S
C2924 C2926 1.384 . S
C2925 C2924 1.377 . S
C2925 C2931 1.390 . S
C2926 H2917 0.930 . S
C2926 C2924 1.384 . S
C2926 C2927 1.372 . S
C2927 C2926 1.372 . S
C2927 C2928 1.400 . S
C2927 C2932 1.490 . S
C2928 H2918 0.929 1_455 S
C2928 C2927 1.400 . S
C2928 C2931 1.386 . S
H2929 C2945 0.930 . S
H2930 C2946 0.928 . S
C2931 H2919 0.929 . S
C2931 C2925 1.390 . S
C2931 C2928 1.386 . S
C2932 C2927 1.490 . S
C2932 C2934 1.395 . S
C2932 C2935 1.403 1_455 S
H2933 C2939 0.930 . S
C2934 H2920 0.930 . S
C2934 C2932 1.395 . S
C2934 C2937 1.403 . S
C2935 C2932 1.403 1_655 S
C2935 C2936 1.524 . S
C2935 C2939 1.400 . S
C2936 H2921 0.960 . S
C2936 H2922 0.960 . S
C2936 H2923 0.960 . S
C2936 C2935 1.524 . S
C2937 C2934 1.403 . S
C2937 C2938 1.392 . S
C2937 C2941 1.495 . S
C2938 C2937 1.392 . S
C2938 C2939 1.385 1_455 S
C2938 C2940 1.478 . S
C2939 H2933 0.930 . S
C2939 C2935 1.400 . S
C2939 C2938 1.385 1_655 S
C2940 C2938 1.478 . S
C2940 C2942 1.381 . S
C2940 C2946 1.394 . S
C2941 C2937 1.495 . S
C2941 H2947 0.959 . S
C2941 H2948 0.961 . S
C2941 H2949 0.960 . S
C2942 C2940 1.381 . S
C2942 C2943 1.394 . S
C2942 H2950 0.930 . S
C2943 C2942 1.394 . S
C2943 C2944 1.375 1_455 S
C2943 H2951 0.929 . S
C2944 C2943 1.375 1_655 S
C2944 C2945 1.382 . S
C2945 H2929 0.930 . S
C2945 C2944 1.382 . S
C2945 C2946 1.375 1_655 S
C2946 H2930 0.928 . S
C2946 C2940 1.394 . S
C2946 C2945 1.375 1_455 S
H2947 C2941 0.959 . S
H2948 C2941 0.961 . S
H2949 C2941 0.960 . S
H2950 C2942 0.930 . S
H2951 C2943 0.929 . S
H2952 C2960 0.929 . S
H2953 C2962 0.930 . S
H2954 C2964 0.930 . S
H2955 C2967 0.929 . S
H2956 C2970 0.930 . S
H2957 C2972 0.960 . S
H2958 C2972 0.960 . S
H2959 C2972 0.960 . S
C2960 H2952 0.929 . S
C2960 C2961 1.377 . S
C2960 C2962 1.384 . S
C2961 C2960 1.377 . S
C2961 C2967 1.390 . S
C2962 H2953 0.930 . S
C2962 C2960 1.384 . S
C2962 C2963 1.372 . S
C2963 C2962 1.372 . S
C2963 C2964 1.400 . S
C2963 C2968 1.490 . S
C2964 H2954 0.930 . S
C2964 C2963 1.400 . S
C2964 C2967 1.386 . S
H2965 C2981 0.930 . S
H2966 C2982 0.931 . S
C2967 H2955 0.929 . S
C2967 C2961 1.390 . S
C2967 C2964 1.386 . S
C2968 C2963 1.490 . S
C2968 C2970 1.395 . S
C2968 C2971 1.403 . S
H2969 C2975 0.930 . S
C2970 H2956 0.930 . S
C2970 C2968 1.395 . S
C2970 C2973 1.403 . S
C2971 C2968 1.403 . S
C2971 C2972 1.524 . S
C2971 C2975 1.400 . S
C2972 H2957 0.960 . S
C2972 H2958 0.960 . S
C2972 H2959 0.960 . S
C2972 C2971 1.524 . S
C2973 C2970 1.403 . S
C2973 C2974 1.392 . S
C2973 C2977 1.495 . S
C2974 C2973 1.392 . S
C2974 C2975 1.385 . S
C2974 C2976 1.478 . S
C2975 H2969 0.930 . S
C2975 C2971 1.400 . S
C2975 C2974 1.385 . S
C2976 C2974 1.478 . S
C2976 C2978 1.381 . S
C2976 C2982 1.383 . S
C2977 C2973 1.495 . S
C2977 H2983 0.959 . S
C2977 H2984 0.961 . S
C2977 H2985 0.960 . S
C2978 C2976 1.381 . S
C2978 C2979 1.394 . S
C2978 H2986 0.930 . S
C2979 C2978 1.394 . S
C2979 C2980 1.383 . S
C2979 H2987 0.929 . S
C2980 C2979 1.383 . S
C2980 C2981 1.377 . S
C2981 H2965 0.930 . S
C2981 C2980 1.377 . S
C2981 C2982 1.379 . S
C2982 H2966 0.931 . S
C2982 C2976 1.383 . S
C2982 C2981 1.379 . S
H2983 C2977 0.959 . S
H2984 C2977 0.961 . S
H2985 C2977 0.960 . S
H2986 C2978 0.930 . S
H2987 C2979 0.929 . S
H2988 C2996 0.929 . S
H2989 C2998 0.930 . S
H2990 C3000 0.930 . S
H2991 C3003 0.929 . S
H2992 C3006 0.930 . S
H2993 C3008 0.960 . S
H2994 C3008 0.960 . S
H2995 C3008 0.960 . S
C2996 H2988 0.929 . S
C2996 C2997 1.377 . S
C2996 C2998 1.384 . S
C2997 C2996 1.377 . S
C2997 C3003 1.390 . S
C2998 H2989 0.930 . S
C2998 C2996 1.384 . S
C2998 C2999 1.372 . S
C2999 C2998 1.372 . S
C2999 C3000 1.400 . S
C2999 C3004 1.490 . S
C3000 H2990 0.930 . S
C3000 C2999 1.400 . S
C3000 C3003 1.386 . S
H3001 C3017 0.930 . S
H3002 C3018 0.931 . S
C3003 H2991 0.929 . S
C3003 C2997 1.390 . S
C3003 C3000 1.386 . S
C3004 C2999 1.490 . S
C3004 C3006 1.395 1_655 S
C3004 C3007 1.403 . S
H3005 C3011 0.930 . S
C3006 H2992 0.930 . S
C3006 C3004 1.395 1_455 S
C3006 C3009 1.403 . S
C3007 C3004 1.403 . S
C3007 C3008 1.524 . S
C3007 C3011 1.400 . S
C3008 H2993 0.960 . S
C3008 H2994 0.960 . S
C3008 H2995 0.960 . S
C3008 C3007 1.524 . S
C3009 C3006 1.403 . S
C3009 C3010 1.392 . S
C3009 C3013 1.495 . S
C3010 C3009 1.392 . S
C3010 C3011 1.385 1_455 S
C3010 C3012 1.478 . S
C3011 H3005 0.930 . S
C3011 C3007 1.400 . S
C3011 C3010 1.385 1_655 S
C3012 C3010 1.478 . S
C3012 C3014 1.381 . S
C3012 C3018 1.383 . S
C3013 C3009 1.495 . S
C3013 H3019 0.959 . S
C3013 H3020 0.961 . S
C3013 H3021 0.960 . S
C3014 C3012 1.381 . S
C3014 C3015 1.394 . S
C3014 H3022 0.929 1_455 S
C3015 C3014 1.394 . S
C3015 C3016 1.383 . S
C3015 H3023 0.932 . S
C3016 C3015 1.383 . S
C3016 C3017 1.377 . S
C3017 H3001 0.930 . S
C3017 C3016 1.377 . S
C3017 C3018 1.379 . S
C3018 H3002 0.931 . S
C3018 C3012 1.383 . S
C3018 C3017 1.379 . S
H3019 C3013 0.959 . S
H3020 C3013 0.961 . S
H3021 C3013 0.960 . S
H3022 C3014 0.929 1_655 S
H3023 C3015 0.932 . S
H3024 C3032 0.929 . S
H3025 C3034 0.930 . S
H3026 C3036 0.930 . S
H3027 C3039 0.929 . S
H3028 C3042 0.930 . S
H3029 C3044 0.960 . S
H3030 C3044 0.960 . S
H3031 C3044 0.960 . S
C3032 H3024 0.929 . S
C3032 C3033 1.377 . S
C3032 C3034 1.384 . S
C3033 C3032 1.377 . S
C3033 C3039 1.390 . S
C3034 H3025 0.930 . S
C3034 C3032 1.384 . S
C3034 C3035 1.372 . S
C3035 C3034 1.372 . S
C3035 C3036 1.400 . S
C3035 C3040 1.490 . S
C3036 H3026 0.930 . S
C3036 C3035 1.400 . S
C3036 C3039 1.386 . S
H3037 C3053 0.930 . S
H3038 C3054 0.931 . S
C3039 H3027 0.929 . S
C3039 C3033 1.390 . S
C3039 C3036 1.386 . S
C3040 C3035 1.490 . S
C3040 C3042 1.395 . S
C3040 C3043 1.403 . S
H3041 C3047 0.930 . S
C3042 H3028 0.930 . S
C3042 C3040 1.395 . S
C3042 C3045 1.403 . S
C3043 C3040 1.403 . S
C3043 C3044 1.524 . S
C3043 C3047 1.400 . S
C3044 H3029 0.960 . S
C3044 H3030 0.960 . S
C3044 H3031 0.960 . S
C3044 C3043 1.524 . S
C3045 C3042 1.403 . S
C3045 C3046 1.392 . S
C3045 C3049 1.495 . S
C3046 C3045 1.392 . S
C3046 C3047 1.385 . S
C3046 C3048 1.478 . S
C3047 H3041 0.930 . S
C3047 C3043 1.400 . S
C3047 C3046 1.385 . S
C3048 C3046 1.478 . S
C3048 C3050 1.381 . S
C3048 C3054 1.383 . S
C3049 C3045 1.495 . S
C3049 H3055 0.959 . S
C3049 H3056 0.961 . S
C3049 H3057 0.960 . S
C3050 C3048 1.381 . S
C3050 C3051 1.394 . S
C3050 H3058 0.930 . S
C3051 C3050 1.394 . S
C3051 C3052 1.383 . S
C3051 H3059 0.929 . S
C3052 C3051 1.383 . S
C3052 C3053 1.377 . S
C3053 H3037 0.930 . S
C3053 C3052 1.377 . S
C3053 C3054 1.379 . S
C3054 H3038 0.931 . S
C3054 C3048 1.383 . S
C3054 C3053 1.379 . S
H3055 C3049 0.959 . S
H3056 C3049 0.961 . S
H3057 C3049 0.960 . S
H3058 C3050 0.930 . S
H3059 C3051 0.929 . S
H3060 C3068 0.929 . S
H3061 C3070 0.930 . S
H3062 C3072 0.930 . S
H3063 C3075 0.929 . S
H3064 C3078 0.930 . S
H3065 C3080 0.960 . S
H3066 C3080 0.960 . S
H3067 C3080 0.960 . S
C3068 H3060 0.929 . S
C3068 C3069 1.377 . S
C3068 C3070 1.384 . S
C3069 C3068 1.377 . S
C3069 C3075 1.390 . S
C3070 H3061 0.930 . S
C3070 C3068 1.384 . S
C3070 C3071 1.372 . S
C3071 C3070 1.372 . S
C3071 C3072 1.400 . S
C3071 C3076 1.490 . S
C3072 H3062 0.930 . S
C3072 C3071 1.400 . S
C3072 C3075 1.386 . S
H3073 C3089 0.930 . S
H3074 C3090 0.931 . S
C3075 H3063 0.929 . S
C3075 C3069 1.390 . S
C3075 C3072 1.386 . S
C3076 C3071 1.490 . S
C3076 C3078 1.395 . S
C3076 C3079 1.403 . S
H3077 C3083 0.930 . S
C3078 H3064 0.930 . S
C3078 C3076 1.395 . S
C3078 C3081 1.403 . S
C3079 C3076 1.403 . S
C3079 C3080 1.524 . S
C3079 C3083 1.400 . S
C3080 H3065 0.960 . S
C3080 H3066 0.960 . S
C3080 H3067 0.960 . S
C3080 C3079 1.524 . S
C3081 C3078 1.403 . S
C3081 C3082 1.392 . S
C3081 C3085 1.495 . S
C3082 C3081 1.392 . S
C3082 C3083 1.385 . S
C3082 C3084 1.478 . S
C3083 H3077 0.930 . S
C3083 C3079 1.400 . S
C3083 C3082 1.385 . S
C3084 C3082 1.478 . S
C3084 C3086 1.381 . S
C3084 C3090 1.383 . S
C3085 C3081 1.495 . S
C3085 H3091 0.959 . S
C3085 H3092 0.961 . S
C3085 H3093 0.960 . S
C3086 C3084 1.381 . S
C3086 C3087 1.394 . S
C3086 H3094 0.930 . S
C3087 C3086 1.394 . S
C3087 C3088 1.383 . S
C3087 H3095 0.929 . S
C3088 C3087 1.383 . S
C3088 C3089 1.377 . S
C3089 H3073 0.930 . S
C3089 C3088 1.377 . S
C3089 C3090 1.379 . S
C3090 H3074 0.931 . S
C3090 C3084 1.383 . S
C3090 C3089 1.379 . S
H3091 C3085 0.959 . S
H3092 C3085 0.961 . S
H3093 C3085 0.960 . S
H3094 C3086 0.930 . S
H3095 C3087 0.929 . S
H3096 C3104 0.929 . S
H3097 C3106 0.930 . S
H3098 C3108 0.930 . S
H3099 C3111 0.929 . S
H3100 C3114 0.930 . S
H3101 C3116 0.960 . S
H3102 C3116 0.960 . S
H3103 C3116 0.960 . S
C3104 H3096 0.929 . S
C3104 C3105 1.377 . S
C3104 C3106 1.384 . S
C3105 C3104 1.377 . S
C3105 C3111 1.390 1_545 S
C3106 H3097 0.930 . S
C3106 C3104 1.384 . S
C3106 C3107 1.372 . S
C3107 C3106 1.372 . S
C3107 C3108 1.400 1_545 S
C3107 C3112 1.490 . S
C3108 H3098 0.930 . S
C3108 C3107 1.400 1_565 S
C3108 C3111 1.386 . S
H3109 C3125 0.930 . S
H3110 C3126 0.931 . S
C3111 H3099 0.929 . S
C3111 C3105 1.390 1_565 S
C3111 C3108 1.386 . S
C3112 C3107 1.490 . S
C3112 C3114 1.395 1_545 S
C3112 C3115 1.403 . S
H3113 C3119 0.930 . S
C3114 H3100 0.930 . S
C3114 C3112 1.395 1_565 S
C3114 C3117 1.403 . S
C3115 C3112 1.403 . S
C3115 C3116 1.524 . S
C3115 C3119 1.400 . S
C3116 H3101 0.960 . S
C3116 H3102 0.960 . S
C3116 H3103 0.960 . S
C3116 C3115 1.524 . S
C3117 C3114 1.403 . S
C3117 C3118 1.392 . S
C3117 C3121 1.495 . S
C3118 C3117 1.392 . S
C3118 C3119 1.385 1_565 S
C3118 C3120 1.478 . S
C3119 H3113 0.930 . S
C3119 C3115 1.400 . S
C3119 C3118 1.385 1_545 S
C3120 C3118 1.478 . S
C3120 C3122 1.381 1_565 S
C3120 C3126 1.383 . S
C3121 C3117 1.495 . S
C3121 H3127 0.959 . S
C3121 H3128 0.961 . S
C3121 H3129 0.960 . S
C3122 C3120 1.381 1_545 S
C3122 C3123 1.394 . S
C3122 H3130 0.930 . S
C3123 C3122 1.394 . S
C3123 C3124 1.383 1_545 S
C3123 H3131 0.929 . S
C3124 C3123 1.383 1_565 S
C3124 C3125 1.377 . S
C3125 H3109 0.930 . S
C3125 C3124 1.377 . S
C3125 C3126 1.379 . S
C3126 H3110 0.931 . S
C3126 C3120 1.383 . S
C3126 C3125 1.379 . S
H3127 C3121 0.959 . S
H3128 C3121 0.961 . S
H3129 C3121 0.960 . S
H3130 C3122 0.930 . S
H3131 C3123 0.929 . S
H3132 C3140 0.967 . S
H3133 C3142 0.930 . S
H3134 C3144 0.930 . S
H3135 C3147 0.929 . S
H3136 C3150 0.930 . S
H3137 C3152 0.960 . S
H3138 C3152 0.960 . S
H3139 C3152 0.965 . S
C3140 H3132 0.967 . S
C3140 C3141 1.339 1_545 S
C3140 C3142 1.389 . S
C3141 C3140 1.339 1_565 S
C3141 C3147 1.390 . S
C3142 H3133 0.930 . S
C3142 C3140 1.389 . S
C3142 C3143 1.372 1_545 S
C3143 C3142 1.372 1_565 S
C3143 C3144 1.400 . S
C3143 C3148 1.490 . S
C3144 H3134 0.930 . S
C3144 C3143 1.400 . S
C3144 C3147 1.386 . S
H3145 C3161 0.930 . S
H3146 C3162 0.931 . S
C3147 H3135 0.929 . S
C3147 C3141 1.390 . S
C3147 C3144 1.386 . S
C3148 C3143 1.490 . S
C3148 C3150 1.395 . S
C3148 C3151 1.403 1_565 S
H3149 C3155 0.930 . S
C3150 H3136 0.930 . S
C3150 C3148 1.395 . S
C3150 C3153 1.403 . S
C3151 C3148 1.403 1_545 S
C3151 C3152 1.524 . S
C3151 C3155 1.400 . S
C3152 H3137 0.960 . S
C3152 H3138 0.960 . S
C3152 H3139 0.965 . S
C3152 C3151 1.524 . S
C3153 C3150 1.403 . S
C3153 C3154 1.392 . S
C3153 C3157 1.495 . S
C3154 C3153 1.392 . S
C3154 C3155 1.385 1_565 S
C3154 C3156 1.478 . S
C3155 H3149 0.930 . S
C3155 C3151 1.400 . S
C3155 C3154 1.385 1_545 S
C3156 C3154 1.478 . S
C3156 C3158 1.381 1_565 S
C3156 C3162 1.383 . S
C3157 C3153 1.495 . S
C3157 H3163 0.959 . S
C3157 H3164 0.961 . S
C3157 H3165 0.960 . S
C3158 C3156 1.381 1_545 S
C3158 C3159 1.394 . S
C3158 H3166 0.930 . S
C3159 C3158 1.394 . S
C3159 C3160 1.383 . S
C3159 H3167 0.929 . S
C3160 C3159 1.383 . S
C3160 C3161 1.377 1_545 S
C3161 H3145 0.930 . S
C3161 C3160 1.377 1_565 S
C3161 C3162 1.379 . S
C3162 H3146 0.931 . S
C3162 C3156 1.383 . S
C3162 C3161 1.379 . S
H3163 C3157 0.959 . S
H3164 C3157 0.961 . S
H3165 C3157 0.960 . S
H3166 C3158 0.930 . S
H3167 C3159 0.929 . S
H3168 C3176 0.929 . S
H3169 C3178 0.930 . S
H3170 C3180 0.930 . S
H3171 C3183 0.929 . S
H3172 C3186 0.930 . S
H3173 C3188 0.960 . S
H3174 C3188 0.960 . S
H3175 C3188 0.960 . S
C3176 H3168 0.929 . S
C3176 C3177 1.377 . S
C3176 C3178 1.384 . S
C3177 C3176 1.377 . S
C3177 C3183 1.390 . S
C3178 H3169 0.930 . S
C3178 C3176 1.384 . S
C3178 C3179 1.372 . S
C3179 C3178 1.372 . S
C3179 C3180 1.400 . S
C3179 C3184 1.490 . S
C3180 H3170 0.930 . S
C3180 C3179 1.400 . S
C3180 C3183 1.386 . S
H3181 C3197 0.930 . S
H3182 C3198 0.931 . S
C3183 H3171 0.929 . S
C3183 C3177 1.390 . S
C3183 C3180 1.386 . S
C3184 C3179 1.490 . S
C3184 C3186 1.395 . S
C3184 C3187 1.403 . S
H3185 C3191 0.930 . S
C3186 H3172 0.930 . S
C3186 C3184 1.395 . S
C3186 C3189 1.403 . S
C3187 C3184 1.403 . S
C3187 C3188 1.524 . S
C3187 C3191 1.400 . S
C3188 H3173 0.960 . S
C3188 H3174 0.960 . S
C3188 H3175 0.960 . S
C3188 C3187 1.524 . S
C3189 C3186 1.403 . S
C3189 C3190 1.392 . S
C3189 C3193 1.495 . S
C3190 C3189 1.392 . S
C3190 C3191 1.385 . S
C3190 C3192 1.478 . S
C3191 H3185 0.930 . S
C3191 C3187 1.400 . S
C3191 C3190 1.385 . S
C3192 C3190 1.478 . S
C3192 C3194 1.381 . S
C3192 C3198 1.383 . S
C3193 C3189 1.495 . S
C3193 H3199 0.959 . S
C3193 H3200 0.961 . S
C3193 H3201 0.960 . S
C3194 C3192 1.381 . S
C3194 C3195 1.394 . S
C3194 H3202 0.930 . S
C3195 C3194 1.394 . S
C3195 C3196 1.383 . S
C3195 H3203 0.929 . S
C3196 C3195 1.383 . S
C3196 C3197 1.377 . S
C3197 H3181 0.930 . S
C3197 C3196 1.377 . S
C3197 C3198 1.379 . S
C3198 H3182 0.931 . S
C3198 C3192 1.383 . S
C3198 C3197 1.379 . S
H3199 C3193 0.959 . S
H3200 C3193 0.961 . S
H3201 C3193 0.960 . S
H3202 C3194 0.930 . S
H3203 C3195 0.929 . S
H3204 C3212 0.929 . S
H3205 C3214 0.930 . S
H3206 C3216 0.930 . S
H3207 C3219 0.929 . S
H3208 C3222 0.930 . S
H3209 C3224 0.960 . S
H3210 C3224 0.960 1_556 S
H3211 C3224 0.960 . S
C3212 H3204 0.929 . S
C3212 C3213 1.377 . S
C3212 C3214 1.384 . S
C3213 C3212 1.377 . S
C3213 C3219 1.390 1_556 S
C3214 H3205 0.930 . S
C3214 C3212 1.384 . S
C3214 C3215 1.372 . S
C3215 C3214 1.372 . S
C3215 C3216 1.400 1_556 S
C3215 C3220 1.490 . S
C3216 H3206 0.930 . S
C3216 C3215 1.400 1_554 S
C3216 C3219 1.386 . S
H3217 C3233 0.930 . S
H3218 C3234 0.931 . S
C3219 H3207 0.929 . S
C3219 C3213 1.390 1_554 S
C3219 C3216 1.386 . S
C3220 C3215 1.490 . S
C3220 C3222 1.395 . S
C3220 C3223 1.400 . S
H3221 C3227 0.961 . S
C3222 H3208 0.930 . S
C3222 C3220 1.395 . S
C3222 C3225 1.403 . S
C3223 C3220 1.400 . S
C3223 C3224 1.526 1_556 S
C3223 C3227 1.399 1_556 S
C3224 H3209 0.960 . S
C3224 H3210 0.960 1_554 S
C3224 H3211 0.960 . S
C3224 C3223 1.526 1_554 S
C3225 C3222 1.403 . S
C3225 C3226 1.392 . S
C3225 C3229 1.495 . S
C3226 C3225 1.392 . S
C3226 C3227 1.363 1_556 S
C3226 C3228 1.478 . S
C3227 H3221 0.961 . S
C3227 C3223 1.399 1_554 S
C3227 C3226 1.363 1_554 S
C3228 C3226 1.478 . S
C3228 C3230 1.381 . S
C3228 C3234 1.383 1_556 S
C3229 C3225 1.495 . S
C3229 H3235 0.959 . S
C3229 H3236 0.961 . S
C3229 H3237 0.960 . S
C3230 C3228 1.381 . S
C3230 C3231 1.394 . S
C3230 H3238 0.930 . S
C3231 C3230 1.394 . S
C3231 C3232 1.383 1_556 S
C3231 H3239 0.929 . S
C3232 C3231 1.383 1_554 S
C3232 C3233 1.377 . S
C3233 H3217 0.930 . S
C3233 C3232 1.377 . S
C3233 C3234 1.379 . S
C3234 H3218 0.931 . S
C3234 C3228 1.383 1_554 S
C3234 C3233 1.379 . S
H3235 C3229 0.959 . S
H3236 C3229 0.961 . S
H3237 C3229 0.960 . S
H3238 C3230 0.930 . S
H3239 C3231 0.929 . S
H3240 C3248 0.929 . S
H3241 C3250 0.930 . S
H3242 C3252 0.930 . S
H3243 C3255 0.929 . S
H3244 C3258 0.930 . S
H3245 C3260 0.960 . S
H3246 C3260 0.960 . S
H3247 C3260 0.960 . S
C3248 H3240 0.929 . S
C3248 C3249 1.377 . S
C3248 C3250 1.384 . S
C3249 C3248 1.377 . S
C3249 C3255 1.390 . S
C3250 H3241 0.930 . S
C3250 C3248 1.384 . S
C3250 C3251 1.372 . S
C3251 C3250 1.372 . S
C3251 C3252 1.400 . S
C3251 C3256 1.490 . S
C3252 H3242 0.930 . S
C3252 C3251 1.400 . S
C3252 C3255 1.386 . S
H3253 C3269 0.930 . S
H3254 C3270 0.931 . S
C3255 H3243 0.929 . S
C3255 C3249 1.390 . S
C3255 C3252 1.386 . S
C3256 C3251 1.490 . S
C3256 C3258 1.395 . S
C3256 C3259 1.403 . S
H3257 C3263 0.930 . S
C3258 H3244 0.930 . S
C3258 C3256 1.395 . S
C3258 C3261 1.403 . S
C3259 C3256 1.403 . S
C3259 C3260 1.524 . S
C3259 C3263 1.400 . S
C3260 H3245 0.960 . S
C3260 H3246 0.960 . S
C3260 H3247 0.960 . S
C3260 C3259 1.524 . S
C3261 C3258 1.403 . S
C3261 C3262 1.392 . S
C3261 C3265 1.495 . S
C3262 C3261 1.392 . S
C3262 C3263 1.385 . S
C3262 C3264 1.478 . S
C3263 H3257 0.930 . S
C3263 C3259 1.400 . S
C3263 C3262 1.385 . S
C3264 C3262 1.478 . S
C3264 C3266 1.381 . S
C3264 C3270 1.383 . S
C3265 C3261 1.495 . S
C3265 H3271 0.959 . S
C3265 H3272 0.961 . S
C3265 H3273 0.960 . S
C3266 C3264 1.381 . S
C3266 C3267 1.394 . S
C3266 H3274 0.930 . S
C3267 C3266 1.394 . S
C3267 C3268 1.383 . S
C3267 H3275 0.929 . S
C3268 C3267 1.383 . S
C3268 C3269 1.377 . S
C3269 H3253 0.930 . S
C3269 C3268 1.377 . S
C3269 C3270 1.379 . S
C3270 H3254 0.931 . S
C3270 C3264 1.383 . S
C3270 C3269 1.379 . S
H3271 C3265 0.959 . S
H3272 C3265 0.961 . S
H3273 C3265 0.960 . S
H3274 C3266 0.930 . S
H3275 C3267 0.929 . S
H3276 C3284 0.929 . S
H3277 C3286 0.930 . S
H3278 C3288 0.930 . S
H3279 C3291 0.929 . S
H3280 C3294 0.930 . S
H3281 C3296 0.960 . S
H3282 C3296 0.960 . S
H3283 C3296 0.960 . S
C3284 H3276 0.929 . S
C3284 C3285 1.377 . S
C3284 C3286 1.384 . S
C3285 C3284 1.377 . S
C3285 C3291 1.390 1_554 S
C3286 H3277 0.930 . S
C3286 C3284 1.384 . S
C3286 C3287 1.372 . S
C3287 C3286 1.372 . S
C3287 C3288 1.400 1_554 S
C3287 C3292 1.490 . S
C3288 H3278 0.930 . S
C3288 C3287 1.400 1_556 S
C3288 C3291 1.386 . S
H3289 C3305 0.930 . S
H3290 C3306 0.931 . S
C3291 H3279 0.929 . S
C3291 C3285 1.390 1_556 S
C3291 C3288 1.386 . S
C3292 C3287 1.490 . S
C3292 C3294 1.395 . S
C3292 C3295 1.403 1_554 S
H3293 C3299 0.930 . S
C3294 H3280 0.930 . S
C3294 C3292 1.395 . S
C3294 C3297 1.403 . S
C3295 C3292 1.403 1_556 S
C3295 C3296 1.524 . S
C3295 C3299 1.400 . S
C3296 H3281 0.960 . S
C3296 H3282 0.960 . S
C3296 H3283 0.960 . S
C3296 C3295 1.524 . S
C3297 C3294 1.403 . S
C3297 C3298 1.392 . S
C3297 C3301 1.495 . S
C3298 C3297 1.392 . S
C3298 C3299 1.385 1_554 S
C3298 C3300 1.478 . S
C3299 H3293 0.930 . S
C3299 C3295 1.400 . S
C3299 C3298 1.385 1_556 S
C3300 C3298 1.478 . S
C3300 C3302 1.381 . S
C3300 C3306 1.383 1_554 S
C3301 C3297 1.495 . S
C3301 H3307 0.959 . S
C3301 H3308 0.961 . S
C3301 H3309 0.960 . S
C3302 C3300 1.381 . S
C3302 C3303 1.394 . S
C3302 H3310 0.930 . S
C3303 C3302 1.394 . S
C3303 C3304 1.383 1_554 S
C3303 H3311 0.929 . S
C3304 C3303 1.383 1_556 S
C3304 C3305 1.377 . S
C3305 H3289 0.930 . S
C3305 C3304 1.377 . S
C3305 C3306 1.379 . S
C3306 H3290 0.931 . S
C3306 C3300 1.383 1_556 S
C3306 C3305 1.379 . S
H3307 C3301 0.959 . S
H3308 C3301 0.961 . S
H3309 C3301 0.960 . S
H3310 C3302 0.930 . S
H3311 C3303 0.929 . S
H3312 C3320 0.929 . S
H3313 C3322 0.930 . S
H3314 C3324 0.930 . S
H3315 C3327 0.929 . S
H3316 C3330 0.930 . S
H3317 C3332 0.960 . S
H3318 C3332 0.960 . S
H3319 C3332 0.960 . S
C3320 H3312 0.929 . S
C3320 C3321 1.377 . S
C3320 C3322 1.384 . S
C3321 C3320 1.377 . S
C3321 C3327 1.390 . S
C3322 H3313 0.930 . S
C3322 C3320 1.384 . S
C3322 C3323 1.372 . S
C3323 C3322 1.372 . S
C3323 C3324 1.400 . S
C3323 C3328 1.490 . S
C3324 H3314 0.930 . S
C3324 C3323 1.400 . S
C3324 C3327 1.386 . S
H3325 C3341 0.930 . S
H3326 C3342 0.931 . S
C3327 H3315 0.929 . S
C3327 C3321 1.390 . S
C3327 C3324 1.386 . S
C3328 C3323 1.490 . S
C3328 C3330 1.395 . S
C3328 C3331 1.403 . S
H3329 C3335 0.930 . S
C3330 H3316 0.930 . S
C3330 C3328 1.395 . S
C3330 C3333 1.403 . S
C3331 C3328 1.403 . S
C3331 C3332 1.524 . S
C3331 C3335 1.400 . S
C3332 H3317 0.960 . S
C3332 H3318 0.960 . S
C3332 H3319 0.960 . S
C3332 C3331 1.524 . S
C3333 C3330 1.403 . S
C3333 C3334 1.392 . S
C3333 C3337 1.495 . S
C3334 C3333 1.392 . S
C3334 C3335 1.385 . S
C3334 C3336 1.478 . S
C3335 H3329 0.930 . S
C3335 C3331 1.400 . S
C3335 C3334 1.385 . S
C3336 C3334 1.478 . S
C3336 C3338 1.381 . S
C3336 C3342 1.383 . S
C3337 C3333 1.495 . S
C3337 H3343 0.959 . S
C3337 H3344 0.961 . S
C3337 H3345 0.960 . S
C3338 C3336 1.381 . S
C3338 C3339 1.394 . S
C3338 H3346 0.930 . S
C3339 C3338 1.394 . S
C3339 C3340 1.383 . S
C3339 H3347 0.929 . S
C3340 C3339 1.383 . S
C3340 C3341 1.377 . S
C3341 H3325 0.930 . S
C3341 C3340 1.377 . S
C3341 C3342 1.379 . S
C3342 H3326 0.931 . S
C3342 C3336 1.383 . S
C3342 C3341 1.379 . S
H3343 C3337 0.959 . S
H3344 C3337 0.961 . S
H3345 C3337 0.960 . S
H3346 C3338 0.930 . S
H3347 C3339 0.929 . S
H3348 C3356 0.929 . S
H3349 C3358 0.930 . S
H3350 C3360 0.930 . S
H3351 C3363 0.929 . S
H3352 C3366 0.930 . S
H3353 C3368 0.960 . S
H3354 C3368 0.960 . S
H3355 C3368 0.960 . S
C3356 H3348 0.929 . S
C3356 C3357 1.377 1_455 S
C3356 C3358 1.384 . S
C3357 C3356 1.377 1_655 S
C3357 C3363 1.390 . S
C3358 H3349 0.930 . S
C3358 C3356 1.384 . S
C3358 C3359 1.372 1_455 S
C3359 C3358 1.372 1_655 S
C3359 C3360 1.400 . S
C3359 C3364 1.490 . S
C3360 H3350 0.930 . S
C3360 C3359 1.400 . S
C3360 C3363 1.386 . S
H3361 C3377 0.930 . S
H3362 C3378 0.931 . S
C3363 H3351 0.929 . S
C3363 C3357 1.390 . S
C3363 C3360 1.386 . S
C3364 C3359 1.490 . S
C3364 C3366 1.395 1_655 S
C3364 C3367 1.403 . S
H3365 C3371 0.930 . S
C3366 H3352 0.930 . S
C3366 C3364 1.395 1_455 S
C3366 C3369 1.403 . S
C3367 C3364 1.403 . S
C3367 C3368 1.524 . S
C3367 C3371 1.400 . S
C3368 H3353 0.960 . S
C3368 H3354 0.960 . S
C3368 H3355 0.960 . S
C3368 C3367 1.524 . S
C3369 C3366 1.403 . S
C3369 C3370 1.396 1_455 S
C3369 C3373 1.495 . S
C3370 C3369 1.396 1_655 S
C3370 C3371 1.381 . S
C3370 C3372 1.477 1_655 S
C3371 H3365 0.930 . S
C3371 C3367 1.400 . S
C3371 C3370 1.381 . S
C3372 C3370 1.477 1_455 S
C3372 C3374 1.450 . S
C3372 C3378 1.317 1_455 S
C3373 C3369 1.495 . S
C3373 H3379 0.959 . S
C3373 H3380 0.961 . S
C3373 H3381 0.960 . S
C3374 C3372 1.450 . S
C3374 C3375 1.394 . S
C3374 H3382 0.930 . S
C3375 C3374 1.394 . S
C3375 C3376 1.383 . S
C3375 H3383 0.929 . S
C3376 C3375 1.383 . S
C3376 C3377 1.377 1_455 S
C3377 H3361 0.930 . S
C3377 C3376 1.377 1_655 S
C3377 C3378 1.379 . S
C3378 H3362 0.931 . S
C3378 C3372 1.317 1_655 S
C3378 C3377 1.379 . S
H3379 C3373 0.959 . S
H3380 C3373 0.961 . S
H3381 C3373 0.960 . S
H3382 C3374 0.930 . S
H3383 C3375 0.929 . S
H3384 C3392 0.929 . S
H3385 C3394 0.930 . S
H3386 C3396 0.930 . S
H3387 C3399 0.929 . S
H3388 C3402 0.930 . S
H3389 C3404 0.960 . S
H3390 C3404 0.960 . S
H3391 C3404 0.960 . S
C3392 H3384 0.929 . S
C3392 C3393 1.377 . S
C3392 C3394 1.384 . S
C3393 C3392 1.377 . S
C3393 C3399 1.390 . S
C3394 H3385 0.930 . S
C3394 C3392 1.384 . S
C3394 C3395 1.372 . S
C3395 C3394 1.372 . S
C3395 C3396 1.400 . S
C3395 C3400 1.490 . S
C3396 H3386 0.930 . S
C3396 C3395 1.400 . S
C3396 C3399 1.386 . S
H3397 C3413 0.930 . S
H3398 C3414 0.931 . S
C3399 H3387 0.929 . S
C3399 C3393 1.390 . S
C3399 C3396 1.386 . S
C3400 C3395 1.490 . S
C3400 C3402 1.395 . S
C3400 C3403 1.403 . S
H3401 C3407 0.930 . S
C3402 H3388 0.930 . S
C3402 C3400 1.395 . S
C3402 C3405 1.403 . S
C3403 C3400 1.403 . S
C3403 C3404 1.524 . S
C3403 C3407 1.400 . S
C3404 H3389 0.960 . S
C3404 H3390 0.960 . S
C3404 H3391 0.960 . S
C3404 C3403 1.524 . S
C3405 C3402 1.403 . S
C3405 C3406 1.392 . S
C3405 C3409 1.495 . S
C3406 C3405 1.392 . S
C3406 C3407 1.385 . S
C3406 C3408 1.478 . S
C3407 H3401 0.930 . S
C3407 C3403 1.400 . S
C3407 C3406 1.385 . S
C3408 C3406 1.478 . S
C3408 C3410 1.381 . S
C3408 C3414 1.383 . S
C3409 C3405 1.495 . S
C3409 H3415 0.959 . S
C3409 H3416 0.961 . S
C3409 H3417 0.960 . S
C3410 C3408 1.381 . S
C3410 C3411 1.394 . S
C3410 H3418 0.930 . S
C3411 C3410 1.394 . S
C3411 C3412 1.383 . S
C3411 H3419 0.929 . S
C3412 C3411 1.383 . S
C3412 C3413 1.377 . S
C3413 H3397 0.930 . S
C3413 C3412 1.377 . S
C3413 C3414 1.379 . S
C3414 H3398 0.931 . S
C3414 C3408 1.383 . S
C3414 C3413 1.379 . S
H3415 C3409 0.959 . S
H3416 C3409 0.961 . S
H3417 C3409 0.960 . S
H3418 C3410 0.930 . S
H3419 C3411 0.929 . S
H3420 C3428 0.929 . S
H3421 C3430 0.930 . S
H3422 C3432 0.930 . S
H3423 C3435 0.929 . S
H3424 C3438 0.930 . S
H3425 C3440 0.960 . S
H3426 C3440 0.960 . S
H3427 C3440 0.960 . S
C3428 H3420 0.929 . S
C3428 C3429 1.377 1_655 S
C3428 C3430 1.384 . S
C3429 C3428 1.377 1_455 S
C3429 C3435 1.390 . S
C3430 H3421 0.930 . S
C3430 C3428 1.384 . S
C3430 C3431 1.372 1_655 S
C3431 C3430 1.372 1_455 S
C3431 C3432 1.400 . S
C3431 C3436 1.500 . S
C3432 H3422 0.930 . S
C3432 C3431 1.400 . S
C3432 C3435 1.386 . S
H3433 C3449 0.930 . S
H3434 C3450 0.931 . S
C3435 H3423 0.929 . S
C3435 C3429 1.390 . S
C3435 C3432 1.386 . S
C3436 C3431 1.500 . S
C3436 C3438 1.344 1_455 S
C3436 C3439 1.444 . S
H3437 C3443 0.930 . S
C3438 H3424 0.930 . S
C3438 C3436 1.344 1_655 S
C3438 C3441 1.403 . S
C3439 C3436 1.444 . S
C3439 C3440 1.524 . S
C3439 C3443 1.400 . S
C3440 H3425 0.960 . S
C3440 H3426 0.960 . S
C3440 H3427 0.960 . S
C3440 C3439 1.524 . S
C3441 C3438 1.403 . S
C3441 C3442 1.392 . S
C3441 C3445 1.495 . S
C3442 C3441 1.392 . S
C3442 C3443 1.385 1_655 S
C3442 C3444 1.478 . S
C3443 H3437 0.930 . S
C3443 C3439 1.400 . S
C3443 C3442 1.385 1_455 S
C3444 C3442 1.478 . S
C3444 C3446 1.381 . S
C3444 C3450 1.383 1_655 S
C3445 C3441 1.495 . S
C3445 H3451 0.959 . S
C3445 H3452 0.961 . S
C3445 H3453 0.960 . S
C3446 C3444 1.381 . S
C3446 C3447 1.394 . S
C3446 H3454 0.930 . S
C3447 C3446 1.394 . S
C3447 C3448 1.383 . S
C3447 H3455 0.929 . S
C3448 C3447 1.383 . S
C3448 C3449 1.377 1_655 S
C3449 H3433 0.930 . S
C3449 C3448 1.377 1_455 S
C3449 C3450 1.379 . S
C3450 H3434 0.931 . S
C3450 C3444 1.383 1_455 S
C3450 C3449 1.379 . S
H3451 C3445 0.959 . S
H3452 C3445 0.961 . S
H3453 C3445 0.960 . S
H3454 C3446 0.930 . S
H3455 C3447 0.929 . S
H3456 C3464 0.929 . S
H3457 C3466 0.930 . S
H3458 C3468 0.930 . S
H3459 C3471 0.929 . S
H3460 C3474 0.930 . S
H3461 C3476 0.960 . S
H3462 C3476 0.960 . S
H3463 C3476 0.960 . S
C3464 H3456 0.929 . S
C3464 C3465 1.377 . S
C3464 C3466 1.384 . S
C3465 C3464 1.377 . S
C3465 C3471 1.390 . S
C3466 H3457 0.930 . S
C3466 C3464 1.384 . S
C3466 C3467 1.372 . S
C3467 C3466 1.372 . S
C3467 C3468 1.400 . S
C3467 C3472 1.490 . S
C3468 H3458 0.930 . S
C3468 C3467 1.400 . S
C3468 C3471 1.386 . S
H3469 C3485 0.930 . S
H3470 C3486 0.931 . S
C3471 H3459 0.929 . S
C3471 C3465 1.390 . S
C3471 C3468 1.386 . S
C3472 C3467 1.490 . S
C3472 C3474 1.395 . S
C3472 C3475 1.403 . S
H3473 C3479 0.930 . S
C3474 H3460 0.930 . S
C3474 C3472 1.395 . S
C3474 C3477 1.403 . S
C3475 C3472 1.403 . S
C3475 C3476 1.524 . S
C3475 C3479 1.400 . S
C3476 H3461 0.960 . S
C3476 H3462 0.960 . S
C3476 H3463 0.960 . S
C3476 C3475 1.524 . S
C3477 C3474 1.403 . S
C3477 C3478 1.392 . S
C3477 C3481 1.495 . S
C3478 C3477 1.392 . S
C3478 C3479 1.385 . S
C3478 C3480 1.478 . S
C3479 H3473 0.930 . S
C3479 C3475 1.400 . S
C3479 C3478 1.385 . S
C3480 C3478 1.478 . S
C3480 C3482 1.381 . S
C3480 C3486 1.383 . S
C3481 C3477 1.495 . S
C3481 H3487 0.959 . S
C3481 H3488 0.961 . S
C3481 H3489 0.960 . S
C3482 C3480 1.381 . S
C3482 C3483 1.394 . S
C3482 H3490 0.930 . S
C3483 C3482 1.394 . S
C3483 C3484 1.383 . S
C3483 H3491 0.929 . S
C3484 C3483 1.383 . S
C3484 C3485 1.377 . S
C3485 H3469 0.930 . S
C3485 C3484 1.377 . S
C3485 C3486 1.379 . S
C3486 H3470 0.931 . S
C3486 C3480 1.383 . S
C3486 C3485 1.379 . S
H3487 C3481 0.959 . S
H3488 C3481 0.961 . S
H3489 C3481 0.960 . S
H3490 C3482 0.930 . S
H3491 C3483 0.929 . S
H3492 C3500 0.929 . S
H3493 C3502 0.930 . S
H3494 C3504 0.930 . S
H3495 C3507 0.929 . S
H3496 C3510 0.930 . S
H3497 C3512 0.960 . S
H3498 C3512 0.960 . S
H3499 C3512 0.960 . S
C3500 H3492 0.929 . S
C3500 C3501 1.377 . S
C3500 C3502 1.384 . S
C3501 C3500 1.377 . S
C3501 C3507 1.390 . S
C3502 H3493 0.930 . S
C3502 C3500 1.384 . S
C3502 C3503 1.372 . S
C3503 C3502 1.372 . S
C3503 C3504 1.400 . S
C3503 C3508 1.490 . S
C3504 H3494 0.930 . S
C3504 C3503 1.400 . S
C3504 C3507 1.386 . S
H3505 C3521 0.930 . S
H3506 C3522 0.931 . S
C3507 H3495 0.929 . S
C3507 C3501 1.390 . S
C3507 C3504 1.386 . S
C3508 C3503 1.490 . S
C3508 C3510 1.395 . S
C3508 C3511 1.403 . S
H3509 C3515 0.930 . S
C3510 H3496 0.930 . S
C3510 C3508 1.395 . S
C3510 C3513 1.403 . S
C3511 C3508 1.403 . S
C3511 C3512 1.524 . S
C3511 C3515 1.400 . S
C3512 H3497 0.960 . S
C3512 H3498 0.960 . S
C3512 H3499 0.960 . S
C3512 C3511 1.524 . S
C3513 C3510 1.403 . S
C3513 C3514 1.392 . S
C3513 C3517 1.495 . S
C3514 C3513 1.392 . S
C3514 C3515 1.385 . S
C3514 C3516 1.478 . S
C3515 H3509 0.930 . S
C3515 C3511 1.400 . S
C3515 C3514 1.385 . S
C3516 C3514 1.478 . S
C3516 C3518 1.381 . S
C3516 C3522 1.383 . S
C3517 C3513 1.495 . S
C3517 H3523 0.959 . S
C3517 H3524 0.961 . S
C3517 H3525 0.960 . S
C3518 C3516 1.381 . S
C3518 C3519 1.394 . S
C3518 H3526 0.930 . S
C3519 C3518 1.394 . S
C3519 C3520 1.383 . S
C3519 H3527 0.929 . S
C3520 C3519 1.383 . S
C3520 C3521 1.377 . S
C3521 H3505 0.930 . S
C3521 C3520 1.377 . S
C3521 C3522 1.379 . S
C3522 H3506 0.931 . S
C3522 C3516 1.383 . S
C3522 C3521 1.379 . S
H3523 C3517 0.959 . S
H3524 C3517 0.961 . S
H3525 C3517 0.960 . S
H3526 C3518 0.930 . S
H3527 C3519 0.929 . S
H3528 C3536 0.929 . S
H3529 C3538 0.930 . S
H3530 C3540 0.930 1_565 S
H3531 C3543 0.935 . S
H3532 C3546 0.930 . S
H3533 C3548 0.960 . S
H3534 C3548 0.960 . S
H3535 C3548 0.960 1_565 S
C3536 H3528 0.929 . S
C3536 C3537 1.377 . S
C3536 C3538 1.384 . S
C3537 C3536 1.377 . S
C3537 C3543 1.384 1_545 S
C3538 H3529 0.930 . S
C3538 C3536 1.384 . S
C3538 C3539 1.372 . S
C3539 C3538 1.372 . S
C3539 C3540 1.400 . S
C3539 C3544 1.490 . S
C3540 H3530 0.930 1_545 S
C3540 C3539 1.400 . S
C3540 C3543 1.385 1_545 S
H3541 C3557 0.930 . S
H3542 C3558 0.931 . S
C3543 H3531 0.935 . S
C3543 C3537 1.384 1_565 S
C3543 C3540 1.385 1_565 S
C3544 C3539 1.490 . S
C3544 C3546 1.395 . S
C3544 C3547 1.403 . S
H3545 C3551 0.930 . S
C3546 H3532 0.930 . S
C3546 C3544 1.395 . S
C3546 C3549 1.403 . S
C3547 C3544 1.403 . S
C3547 C3548 1.524 . S
C3547 C3551 1.400 . S
C3548 H3533 0.960 . S
C3548 H3534 0.960 . S
C3548 H3535 0.960 1_545 S
C3548 C3547 1.524 . S
C3549 C3546 1.403 . S
C3549 C3550 1.392 . S
C3549 C3553 1.495 . S
C3550 C3549 1.392 . S
C3550 C3551 1.385 . S
C3550 C3552 1.478 . S
C3551 H3545 0.930 . S
C3551 C3547 1.400 . S
C3551 C3550 1.385 . S
C3552 C3550 1.478 . S
C3552 C3554 1.381 . S
C3552 C3558 1.383 . S
C3553 C3549 1.495 . S
C3553 H3559 0.959 . S
C3553 H3560 0.961 . S
C3553 H3561 0.960 . S
C3554 C3552 1.381 . S
C3554 C3555 1.394 . S
C3554 H3562 0.930 . S
C3555 C3554 1.394 . S
C3555 C3556 1.383 . S
C3555 H3563 0.929 . S
C3556 C3555 1.383 . S
C3556 C3557 1.377 . S
C3557 H3541 0.930 . S
C3557 C3556 1.377 . S
C3557 C3558 1.379 . S
C3558 H3542 0.931 . S
C3558 C3552 1.383 . S
C3558 C3557 1.379 . S
H3559 C3553 0.959 . S
H3560 C3553 0.961 . S
H3561 C3553 0.960 . S
H3562 C3554 0.930 . S
H3563 C3555 0.929 . S
H3564 C3572 0.929 . S
H3565 C3574 0.930 . S
H3566 C3576 0.930 . S
H3567 C3579 0.929 . S
H3568 C3582 0.930 . S
H3569 C3584 0.960 . S
H3570 C3584 0.960 . S
H3571 C3584 0.960 1_545 S
C3572 H3564 0.929 . S
C3572 C3573 1.377 1_565 S
C3572 C3574 1.384 . S
C3573 C3572 1.377 1_545 S
C3573 C3579 1.390 . S
C3574 H3565 0.930 . S
C3574 C3572 1.384 . S
C3574 C3575 1.372 1_565 S
C3575 C3574 1.372 1_545 S
C3575 C3576 1.400 . S
C3575 C3580 1.490 . S
C3576 H3566 0.930 . S
C3576 C3575 1.400 . S
C3576 C3579 1.386 . S
H3577 C3593 0.930 . S
H3578 C3594 0.931 . S
C3579 H3567 0.929 . S
C3579 C3573 1.390 . S
C3579 C3576 1.386 . S
C3580 C3575 1.490 . S
C3580 C3582 1.395 . S
C3580 C3583 1.403 . S
H3581 C3587 0.930 . S
C3582 H3568 0.930 . S
C3582 C3580 1.395 . S
C3582 C3585 1.403 . S
C3583 C3580 1.403 . S
C3583 C3584 1.524 1_545 S
C3583 C3587 1.400 . S
C3584 H3569 0.960 . S
C3584 H3570 0.960 . S
C3584 H3571 0.960 1_565 S
C3584 C3583 1.524 1_565 S
C3585 C3582 1.403 . S
C3585 C3586 1.392 . S
C3585 C3589 1.495 . S
C3586 C3585 1.392 . S
C3586 C3587 1.385 . S
C3586 C3588 1.478 . S
C3587 H3581 0.930 . S
C3587 C3583 1.400 . S
C3587 C3586 1.385 . S
C3588 C3586 1.478 . S
C3588 C3590 1.359 1_545 S
C3588 C3594 1.383 . S
C3589 C3585 1.495 . S
C3589 H3595 0.959 . S
C3589 H3596 0.961 . S
C3589 H3597 0.960 . S
C3590 C3588 1.359 1_565 S
C3590 C3591 1.392 1_565 S
C3590 H3598 0.956 . S
C3591 C3590 1.392 1_545 S
C3591 C3592 1.382 . S
C3591 H3599 0.931 1_545 S
C3592 C3591 1.382 . S
C3592 C3593 1.377 . S
C3593 H3577 0.930 . S
C3593 C3592 1.377 . S
C3593 C3594 1.379 . S
C3594 H3578 0.931 . S
C3594 C3588 1.383 . S
C3594 C3593 1.379 . S
H3595 C3589 0.959 . S
H3596 C3589 0.961 . S
H3597 C3589 0.960 . S
H3598 C3590 0.956 . S
H3599 C3591 0.931 1_565 S
H3600 C3608 0.929 . S
H3601 C3610 0.930 . S
H3602 C3612 0.930 . S
H3603 C3615 0.929 . S
H3604 C3618 0.930 . S
H3605 C3620 0.960 . S
H3606 C3620 0.960 . S
H3607 C3620 0.960 . S
C3608 H3600 0.929 . S
C3608 C3609 1.377 . S
C3608 C3610 1.384 . S
C3609 C3608 1.377 . S
C3609 C3615 1.390 . S
C3610 H3601 0.930 . S
C3610 C3608 1.384 . S
C3610 C3611 1.372 . S
C3611 C3610 1.372 . S
C3611 C3612 1.400 . S
C3611 C3616 1.490 . S
C3612 H3602 0.930 . S
C3612 C3611 1.400 . S
C3612 C3615 1.386 . S
H3613 C3629 0.930 . S
H3614 C3630 0.931 . S
C3615 H3603 0.929 . S
C3615 C3609 1.390 . S
C3615 C3612 1.386 . S
C3616 C3611 1.490 . S
C3616 C3618 1.395 . S
C3616 C3619 1.403 . S
H3617 C3623 0.930 . S
C3618 H3604 0.930 . S
C3618 C3616 1.395 . S
C3618 C3621 1.403 . S
C3619 C3616 1.403 . S
C3619 C3620 1.524 . S
C3619 C3623 1.400 . S
C3620 H3605 0.960 . S
C3620 H3606 0.960 . S
C3620 H3607 0.960 . S
C3620 C3619 1.524 . S
C3621 C3618 1.403 . S
C3621 C3622 1.392 . S
C3621 C3625 1.495 . S
C3622 C3621 1.392 . S
C3622 C3623 1.385 . S
C3622 C3624 1.478 . S
C3623 H3617 0.930 . S
C3623 C3619 1.400 . S
C3623 C3622 1.385 . S
C3624 C3622 1.478 . S
C3624 C3626 1.381 . S
C3624 C3630 1.383 . S
C3625 C3621 1.495 . S
C3625 H3631 0.959 . S
C3625 H3632 0.961 . S
C3625 H3633 0.960 . S
C3626 C3624 1.381 . S
C3626 C3627 1.394 . S
C3626 H3634 0.930 . S
C3627 C3626 1.394 . S
C3627 C3628 1.383 . S
C3627 H3635 0.929 . S
C3628 C3627 1.383 . S
C3628 C3629 1.377 . S
C3629 H3613 0.930 . S
C3629 C3628 1.377 . S
C3629 C3630 1.379 . S
C3630 H3614 0.931 . S
C3630 C3624 1.383 . S
C3630 C3629 1.379 . S
H3631 C3625 0.959 . S
H3632 C3625 0.961 . S
H3633 C3625 0.960 . S
H3634 C3626 0.930 . S
H3635 C3627 0.929 . S
H3636 C3644 0.928 . S
H3637 C3646 0.921 1_556 S
H3638 C3648 0.930 . S
H3639 C3651 0.929 . S
H3640 C3654 0.930 . S
H3641 C3656 0.960 . S
H3642 C3656 0.960 . S
H3643 C3656 0.960 . S
C3644 H3636 0.928 . S
C3644 C3645 1.378 1_556 S
C3644 C3646 1.382 1_556 S
C3645 C3644 1.378 1_554 S
C3645 C3651 1.390 . S
C3646 H3637 0.921 1_554 S
C3646 C3644 1.382 1_554 S
C3646 C3647 1.386 . S
C3647 C3646 1.386 . S
C3647 C3648 1.400 . S
C3647 C3652 1.490 . S
C3648 H3638 0.930 . S
C3648 C3647 1.400 . S
C3648 C3651 1.386 . S
H3649 C3665 0.930 . S
H3650 C3666 0.931 . S
C3651 H3639 0.929 . S
C3651 C3645 1.390 . S
C3651 C3648 1.386 . S
C3652 C3647 1.490 . S
C3652 C3654 1.395 1_554 S
C3652 C3655 1.403 . S
H3653 C3659 0.930 . S
C3654 H3640 0.930 . S
C3654 C3652 1.395 1_556 S
C3654 C3657 1.403 . S
C3655 C3652 1.403 . S
C3655 C3656 1.524 . S
C3655 C3659 1.400 . S
C3656 H3641 0.960 . S
C3656 H3642 0.960 . S
C3656 H3643 0.960 . S
C3656 C3655 1.524 . S
C3657 C3654 1.403 . S
C3657 C3658 1.392 1_556 S
C3657 C3661 1.495 . S
C3658 C3657 1.392 1_554 S
C3658 C3659 1.385 . S
C3658 C3660 1.478 . S
C3659 H3653 0.930 . S
C3659 C3655 1.400 . S
C3659 C3658 1.385 . S
C3660 C3658 1.478 . S
C3660 C3662 1.381 . S
C3660 C3666 1.383 . S
C3661 C3657 1.495 . S
C3661 H3667 0.959 . S
C3661 H3668 0.961 . S
C3661 H3669 0.960 . S
C3662 C3660 1.381 . S
C3662 C3663 1.394 . S
C3662 H3670 0.930 . S
C3663 C3662 1.394 . S
C3663 C3664 1.383 . S
C3663 H3671 0.929 . S
C3664 C3663 1.383 . S
C3664 C3665 1.377 . S
C3665 H3649 0.930 . S
C3665 C3664 1.377 . S
C3665 C3666 1.379 . S
C3666 H3650 0.931 . S
C3666 C3660 1.383 . S
C3666 C3665 1.379 . S
H3667 C3661 0.959 . S
H3668 C3661 0.961 . S
H3669 C3661 0.960 . S
H3670 C3662 0.930 . S
H3671 C3663 0.929 . S
H3672 C3680 0.929 . S
H3673 C3682 0.930 . S
H3674 C3684 0.930 . S
H3675 C3687 0.929 . S
H3676 C3690 0.930 . S
H3677 C3692 0.960 . S
H3678 C3692 0.960 . S
H3679 C3692 0.960 . S
C3680 H3672 0.929 . S
C3680 C3681 1.377 . S
C3680 C3682 1.384 . S
C3681 C3680 1.377 . S
C3681 C3687 1.390 . S
C3682 H3673 0.930 . S
C3682 C3680 1.384 . S
C3682 C3683 1.372 . S
C3683 C3682 1.372 . S
C3683 C3684 1.400 . S
C3683 C3688 1.490 . S
C3684 H3674 0.930 . S
C3684 C3683 1.400 . S
C3684 C3687 1.386 . S
H3685 C3701 0.930 . S
H3686 C3702 0.931 . S
C3687 H3675 0.929 . S
C3687 C3681 1.390 . S
C3687 C3684 1.386 . S
C3688 C3683 1.490 . S
C3688 C3690 1.395 . S
C3688 C3691 1.403 . S
H3689 C3695 0.930 . S
C3690 H3676 0.930 . S
C3690 C3688 1.395 . S
C3690 C3693 1.403 . S
C3691 C3688 1.403 . S
C3691 C3692 1.524 . S
C3691 C3695 1.400 . S
C3692 H3677 0.960 . S
C3692 H3678 0.960 . S
C3692 H3679 0.960 . S
C3692 C3691 1.524 . S
C3693 C3690 1.403 . S
C3693 C3694 1.392 . S
C3693 C3697 1.495 . S
C3694 C3693 1.392 . S
C3694 C3695 1.385 . S
C3694 C3696 1.478 . S
C3695 H3689 0.930 . S
C3695 C3691 1.400 . S
C3695 C3694 1.385 . S
C3696 C3694 1.478 . S
C3696 C3698 1.381 . S
C3696 C3702 1.383 . S
C3697 C3693 1.495 . S
C3697 H3703 0.959 . S
C3697 H3704 0.961 . S
C3697 H3705 0.960 . S
C3698 C3696 1.381 . S
C3698 C3699 1.394 . S
C3698 H3706 0.930 . S
C3699 C3698 1.394 . S
C3699 C3700 1.383 . S
C3699 H3707 0.929 . S
C3700 C3699 1.383 . S
C3700 C3701 1.377 . S
C3701 H3685 0.930 . S
C3701 C3700 1.377 . S
C3701 C3702 1.379 . S
C3702 H3686 0.931 . S
C3702 C3696 1.383 . S
C3702 C3701 1.379 . S
H3703 C3697 0.959 . S
H3704 C3697 0.961 . S
H3705 C3697 0.960 . S
H3706 C3698 0.930 . S
H3707 C3699 0.929 . S
H3708 C3716 0.929 . S
H3709 C3718 0.930 . S
H3710 C3720 0.930 1_556 S
H3711 C3723 0.927 . S
H3712 C3726 0.930 . S
H3713 C3728 0.960 . S
H3714 C3728 0.960 . S
H3715 C3728 0.922 1_556 S
C3716 H3708 0.929 . S
C3716 C3717 1.377 . S
C3716 C3718 1.384 . S
C3717 C3716 1.377 . S
C3717 C3723 1.391 1_554 S
C3718 H3709 0.930 . S
C3718 C3716 1.384 . S
C3718 C3719 1.372 . S
C3719 C3718 1.372 . S
C3719 C3720 1.400 . S
C3719 C3724 1.490 . S
C3720 H3710 0.930 1_554 S
C3720 C3719 1.400 . S
C3720 C3723 1.386 1_554 S
H3721 C3737 0.930 . S
H3722 C3738 0.931 . S
C3723 H3711 0.927 . S
C3723 C3717 1.391 1_556 S
C3723 C3720 1.386 1_556 S
C3724 C3719 1.490 . S
C3724 C3726 1.395 . S
C3724 C3727 1.403 . S
H3725 C3731 0.930 . S
C3726 H3712 0.930 . S
C3726 C3724 1.395 . S
C3726 C3729 1.403 . S
C3727 C3724 1.403 . S
C3727 C3728 1.524 . S
C3727 C3731 1.400 . S
C3728 H3713 0.960 . S
C3728 H3714 0.960 . S
C3728 H3715 0.922 1_554 S
C3728 C3727 1.524 . S
C3729 C3726 1.403 . S
C3729 C3730 1.392 . S
C3729 C3733 1.495 . S
C3730 C3729 1.392 . S
C3730 C3731 1.385 . S
C3730 C3732 1.478 . S
C3731 H3725 0.930 . S
C3731 C3727 1.400 . S
C3731 C3730 1.385 . S
C3732 C3730 1.478 . S
C3732 C3734 1.381 . S
C3732 C3738 1.383 . S
C3733 C3729 1.495 . S
C3733 H3739 0.959 . S
C3733 H3740 0.961 . S
C3733 H3741 0.960 . S
C3734 C3732 1.381 . S
C3734 C3735 1.394 . S
C3734 H3742 0.930 . S
C3735 C3734 1.394 . S
C3735 C3736 1.383 . S
C3735 H3743 0.929 . S
C3736 C3735 1.383 . S
C3736 C3737 1.377 . S
C3737 H3721 0.930 . S
C3737 C3736 1.377 . S
C3737 C3738 1.379 . S
C3738 H3722 0.931 . S
C3738 C3732 1.383 . S
C3738 C3737 1.379 . S
H3739 C3733 0.959 . S
H3740 C3733 0.961 . S
H3741 C3733 0.960 . S
H3742 C3734 0.930 . S
H3743 C3735 0.929 . S
H3744 C3752 0.929 . S
H3745 C3754 0.930 . S
H3746 C3756 0.930 . S
H3747 C3759 0.929 . S
H3748 C3762 0.930 . S
H3749 C3764 0.960 . S
H3750 C3764 0.960 . S
H3751 C3764 0.960 . S
C3752 H3744 0.929 . S
C3752 C3753 1.377 . S
C3752 C3754 1.384 . S
C3753 C3752 1.377 . S
C3753 C3759 1.390 . S
C3754 H3745 0.930 . S
C3754 C3752 1.384 . S
C3754 C3755 1.372 . S
C3755 C3754 1.372 . S
C3755 C3756 1.400 . S
C3755 C3760 1.490 . S
C3756 H3746 0.930 . S
C3756 C3755 1.400 . S
C3756 C3759 1.386 . S
H3757 C3773 0.930 . S
H3758 C3774 0.931 . S
C3759 H3747 0.929 . S
C3759 C3753 1.390 . S
C3759 C3756 1.386 . S
C3760 C3755 1.490 . S
C3760 C3762 1.395 . S
C3760 C3763 1.403 . S
H3761 C3767 0.930 . S
C3762 H3748 0.930 . S
C3762 C3760 1.395 . S
C3762 C3765 1.403 . S
C3763 C3760 1.403 . S
C3763 C3764 1.524 . S
C3763 C3767 1.400 . S
C3764 H3749 0.960 . S
C3764 H3750 0.960 . S
C3764 H3751 0.960 . S
C3764 C3763 1.524 . S
C3765 C3762 1.403 . S
C3765 C3766 1.392 . S
C3765 C3769 1.495 . S
C3766 C3765 1.392 . S
C3766 C3767 1.385 . S
C3766 C3768 1.478 . S
C3767 H3761 0.930 . S
C3767 C3763 1.400 . S
C3767 C3766 1.385 . S
C3768 C3766 1.478 . S
C3768 C3770 1.381 . S
C3768 C3774 1.383 . S
C3769 C3765 1.495 . S
C3769 H3775 0.959 . S
C3769 H3776 0.961 . S
C3769 H3777 0.960 . S
C3770 C3768 1.381 . S
C3770 C3771 1.394 . S
C3770 H3778 0.930 . S
C3771 C3770 1.394 . S
C3771 C3772 1.383 . S
C3771 H3779 0.929 . S
C3772 C3771 1.383 . S
C3772 C3773 1.377 . S
C3773 H3757 0.930 . S
C3773 C3772 1.377 . S
C3773 C3774 1.379 . S
C3774 H3758 0.931 . S
C3774 C3768 1.383 . S
C3774 C3773 1.379 . S
H3775 C3769 0.959 . S
H3776 C3769 0.961 . S
H3777 C3769 0.960 . S
H3778 C3770 0.930 . S
H3779 C3771 0.929 . S
H3780 C3788 0.929 . S
H3781 C3790 0.930 . S
H3782 C3792 0.931 . S
H3783 C3795 0.910 1_655 S
H3784 C3798 0.930 . S
H3785 C3800 0.960 . S
H3786 C3800 0.960 . S
H3787 C3800 0.960 . S
C3788 H3780 0.929 . S
C3788 C3789 1.377 . S
C3788 C3790 1.384 . S
C3789 C3788 1.377 . S
C3789 C3795 1.406 . S
C3790 H3781 0.930 . S
C3790 C3788 1.384 . S
C3790 C3791 1.372 . S
C3791 C3790 1.372 . S
C3791 C3792 1.400 . S
C3791 C3796 1.490 . S
C3792 H3782 0.931 . S
C3792 C3791 1.400 . S
C3792 C3795 1.395 . S
H3793 C3809 0.930 . S
H3794 C3810 0.931 1_655 S
C3795 H3783 0.910 1_455 S
C3795 C3789 1.406 . S
C3795 C3792 1.395 . S
C3796 C3791 1.490 . S
C3796 C3798 1.395 1_455 S
C3796 C3799 1.403 . S
H3797 C3803 0.930 . S
C3798 H3784 0.930 . S
C3798 C3796 1.395 1_655 S
C3798 C3801 1.403 . S
C3799 C3796 1.403 . S
C3799 C3800 1.524 . S
C3799 C3803 1.400 . S
C3800 H3785 0.960 . S
C3800 H3786 0.960 . S
C3800 H3787 0.960 . S
C3800 C3799 1.524 . S
C3801 C3798 1.403 . S
C3801 C3802 1.392 1_655 S
C3801 C3805 1.495 . S
C3802 C3801 1.392 1_455 S
C3802 C3803 1.385 . S
C3802 C3804 1.478 . S
C3803 H3797 0.930 . S
C3803 C3799 1.400 . S
C3803 C3802 1.385 . S
C3804 C3802 1.478 . S
C3804 C3806 1.381 . S
C3804 C3810 1.383 . S
C3805 C3801 1.495 . S
C3805 H3811 0.959 . S
C3805 H3812 0.961 . S
C3805 H3813 0.960 . S
C3806 C3804 1.381 . S
C3806 C3807 1.394 . S
C3806 H3814 0.930 . S
C3807 C3806 1.394 . S
C3807 C3808 1.383 . S
C3807 H3815 0.929 . S
C3808 C3807 1.383 . S
C3808 C3809 1.377 . S
C3809 H3793 0.930 . S
C3809 C3808 1.377 . S
C3809 C3810 1.379 . S
C3810 H3794 0.931 1_455 S
C3810 C3804 1.383 . S
C3810 C3809 1.379 . S
H3811 C3805 0.959 . S
H3812 C3805 0.961 . S
H3813 C3805 0.960 . S
H3814 C3806 0.930 . S
H3815 C3807 0.929 . S
H3816 C3824 0.929 . S
H3817 C3826 0.930 . S
H3818 C3828 0.930 . S
H3819 C3831 0.929 . S
H3820 C3834 0.930 . S
H3821 C3836 0.960 . S
H3822 C3836 0.960 . S
H3823 C3836 0.960 . S
C3824 H3816 0.929 . S
C3824 C3825 1.377 . S
C3824 C3826 1.384 . S
C3825 C3824 1.377 . S
C3825 C3831 1.390 . S
C3826 H3817 0.930 . S
C3826 C3824 1.384 . S
C3826 C3827 1.372 . S
C3827 C3826 1.372 . S
C3827 C3828 1.400 . S
C3827 C3832 1.490 . S
C3828 H3818 0.930 . S
C3828 C3827 1.400 . S
C3828 C3831 1.386 . S
H3829 C3845 0.930 . S
H3830 C3846 0.931 . S
C3831 H3819 0.929 . S
C3831 C3825 1.390 . S
C3831 C3828 1.386 . S
C3832 C3827 1.490 . S
C3832 C3834 1.395 . S
C3832 C3835 1.403 . S
H3833 C3839 0.930 . S
C3834 H3820 0.930 . S
C3834 C3832 1.395 . S
C3834 C3837 1.403 . S
C3835 C3832 1.403 . S
C3835 C3836 1.524 . S
C3835 C3839 1.400 . S
C3836 H3821 0.960 . S
C3836 H3822 0.960 . S
C3836 H3823 0.960 . S
C3836 C3835 1.524 . S
C3837 C3834 1.403 . S
C3837 C3838 1.392 . S
C3837 C3841 1.495 . S
C3838 C3837 1.392 . S
C3838 C3839 1.385 . S
C3838 C3840 1.478 . S
C3839 H3833 0.930 . S
C3839 C3835 1.400 . S
C3839 C3838 1.385 . S
C3840 C3838 1.478 . S
C3840 C3842 1.381 . S
C3840 C3846 1.383 . S
C3841 C3837 1.495 . S
C3841 H3847 0.959 . S
C3841 H3848 0.961 . S
C3841 H3849 0.960 . S
C3842 C3840 1.381 . S
C3842 C3843 1.394 . S
C3842 H3850 0.930 . S
C3843 C3842 1.394 . S
C3843 C3844 1.383 . S
C3843 H3851 0.929 . S
C3844 C3843 1.383 . S
C3844 C3845 1.377 . S
C3845 H3829 0.930 . S
C3845 C3844 1.377 . S
C3845 C3846 1.379 . S
C3846 H3830 0.931 . S
C3846 C3840 1.383 . S
C3846 C3845 1.379 . S
H3847 C3841 0.959 . S
H3848 C3841 0.961 . S
H3849 C3841 0.960 . S
H3850 C3842 0.930 . S
H3851 C3843 0.929 . S
H3852 C3860 0.929 . S
H3853 C3862 0.930 . S
H3854 C3864 0.930 1_655 S
H3855 C3867 0.904 1_655 S
H3856 C3870 0.930 . S
H3857 C3872 0.960 . S
H3858 C3872 0.960 . S
H3859 C3872 0.960 . S
C3860 H3852 0.929 . S
C3860 C3861 1.377 . S
C3860 C3862 1.384 . S
C3861 C3860 1.377 . S
C3861 C3867 1.412 . S
C3862 H3853 0.930 . S
C3862 C3860 1.384 . S
C3862 C3863 1.372 . S
C3863 C3862 1.372 . S
C3863 C3864 1.400 . S
C3863 C3868 1.490 . S
C3864 H3854 0.930 1_455 S
C3864 C3863 1.400 . S
C3864 C3867 1.389 . S
H3865 C3881 0.930 . S
H3866 C3882 0.931 . S
C3867 H3855 0.904 1_455 S
C3867 C3861 1.412 . S
C3867 C3864 1.389 . S
C3868 C3863 1.490 . S
C3868 C3870 1.395 . S
C3868 C3871 1.403 . S
H3869 C3875 0.930 . S
C3870 H3856 0.930 . S
C3870 C3868 1.395 . S
C3870 C3873 1.403 . S
C3871 C3868 1.403 . S
C3871 C3872 1.524 . S
C3871 C3875 1.400 . S
C3872 H3857 0.960 . S
C3872 H3858 0.960 . S
C3872 H3859 0.960 . S
C3872 C3871 1.524 . S
C3873 C3870 1.403 . S
C3873 C3874 1.392 . S
C3873 C3877 1.495 . S
C3874 C3873 1.392 . S
C3874 C3875 1.385 . S
C3874 C3876 1.478 . S
C3875 H3869 0.930 . S
C3875 C3871 1.400 . S
C3875 C3874 1.385 . S
C3876 C3874 1.478 . S
C3876 C3878 1.381 . S
C3876 C3882 1.383 . S
C3877 C3873 1.495 . S
C3877 H3883 0.959 . S
C3877 H3884 0.961 . S
C3877 H3885 0.960 . S
C3878 C3876 1.381 . S
C3878 C3879 1.394 . S
C3878 H3886 0.930 . S
C3879 C3878 1.394 . S
C3879 C3880 1.383 . S
C3879 H3887 0.929 . S
C3880 C3879 1.383 . S
C3880 C3881 1.377 . S
C3881 H3865 0.930 . S
C3881 C3880 1.377 . S
C3881 C3882 1.379 . S
C3882 H3866 0.931 . S
C3882 C3876 1.383 . S
C3882 C3881 1.379 . S
H3883 C3877 0.959 . S
H3884 C3877 0.961 . S
H3885 C3877 0.960 . S
H3886 C3878 0.930 . S
H3887 C3879 0.929 . S
H3888 C3896 0.929 . S
H3889 C3898 0.930 . S
H3890 C3900 0.930 . S
H3891 C3903 0.929 . S
H3892 C3906 0.930 . S
H3893 C3908 0.960 . S
H3894 C3908 0.960 . S
H3895 C3908 0.960 . S
C3896 H3888 0.929 . S
C3896 C3897 1.377 . S
C3896 C3898 1.384 . S
C3897 C3896 1.377 . S
C3897 C3903 1.390 . S
C3898 H3889 0.930 . S
C3898 C3896 1.384 . S
C3898 C3899 1.372 . S
C3899 C3898 1.372 . S
C3899 C3900 1.400 . S
C3899 C3904 1.490 . S
C3900 H3890 0.930 . S
C3900 C3899 1.400 . S
C3900 C3903 1.386 . S
H3901 C3917 0.930 . S
H3902 C3918 0.931 . S
C3903 H3891 0.929 . S
C3903 C3897 1.390 . S
C3903 C3900 1.386 . S
C3904 C3899 1.490 . S
C3904 C3906 1.395 . S
C3904 C3907 1.403 . S
H3905 C3911 0.930 . S
C3906 H3892 0.930 . S
C3906 C3904 1.395 . S
C3906 C3909 1.403 . S
C3907 C3904 1.403 . S
C3907 C3908 1.524 . S
C3907 C3911 1.400 . S
C3908 H3893 0.960 . S
C3908 H3894 0.960 . S
C3908 H3895 0.960 . S
C3908 C3907 1.524 . S
C3909 C3906 1.403 . S
C3909 C3910 1.392 . S
C3909 C3913 1.495 . S
C3910 C3909 1.392 . S
C3910 C3911 1.385 . S
C3910 C3912 1.478 . S
C3911 H3905 0.930 . S
C3911 C3907 1.400 . S
C3911 C3910 1.385 . S
C3912 C3910 1.478 . S
C3912 C3914 1.381 . S
C3912 C3918 1.383 . S
C3913 C3909 1.495 . S
C3913 H3919 0.959 . S
C3913 H3920 0.961 . S
C3913 H3921 0.960 . S
C3914 C3912 1.381 . S
C3914 C3915 1.394 . S
C3914 H3922 0.930 . S
C3915 C3914 1.394 . S
C3915 C3916 1.383 . S
C3915 H3923 0.929 . S
C3916 C3915 1.383 . S
C3916 C3917 1.377 . S
C3917 H3901 0.930 . S
C3917 C3916 1.377 . S
C3917 C3918 1.379 . S
C3918 H3902 0.931 . S
C3918 C3912 1.383 . S
C3918 C3917 1.379 . S
H3919 C3913 0.959 . S
H3920 C3913 0.961 . S
H3921 C3913 0.960 . S
H3922 C3914 0.930 . S
H3923 C3915 0.929 . S
H3924 C3932 0.929 . S
H3925 C3934 0.930 . S
H3926 C3936 0.930 . S
H3927 C3939 0.929 . S
H3928 C3942 0.930 . S
H3929 C3944 0.960 . S
H3930 C3944 0.960 . S
H3931 C3944 0.960 . S
C3932 H3924 0.929 . S
C3932 C3933 1.377 . S
C3932 C3934 1.384 . S
C3933 C3932 1.377 . S
C3933 C3939 1.390 . S
C3934 H3925 0.930 . S
C3934 C3932 1.384 . S
C3934 C3935 1.372 . S
C3935 C3934 1.372 . S
C3935 C3936 1.400 . S
C3935 C3940 1.490 . S
C3936 H3926 0.930 . S
C3936 C3935 1.400 . S
C3936 C3939 1.386 . S
H3937 C3953 0.930 . S
H3938 C3954 0.931 . S
C3939 H3927 0.929 . S
C3939 C3933 1.390 . S
C3939 C3936 1.386 . S
C3940 C3935 1.490 . S
C3940 C3942 1.395 . S
C3940 C3943 1.403 . S
H3941 C3947 0.930 . S
C3942 H3928 0.930 . S
C3942 C3940 1.395 . S
C3942 C3945 1.403 . S
C3943 C3940 1.403 . S
C3943 C3944 1.524 . S
C3943 C3947 1.400 . S
C3944 H3929 0.960 . S
C3944 H3930 0.960 . S
C3944 H3931 0.960 . S
C3944 C3943 1.524 . S
C3945 C3942 1.403 . S
C3945 C3946 1.392 . S
C3945 C3949 1.495 . S
C3946 C3945 1.392 . S
C3946 C3947 1.385 . S
C3946 C3948 1.478 . S
C3947 H3941 0.930 . S
C3947 C3943 1.400 . S
C3947 C3946 1.385 . S
C3948 C3946 1.478 . S
C3948 C3950 1.381 . S
C3948 C3954 1.383 . S
C3949 C3945 1.495 . S
C3949 H3955 0.959 . S
C3949 H3956 0.961 . S
C3949 H3957 0.960 . S
C3950 C3948 1.381 . S
C3950 C3951 1.394 . S
C3950 H3958 0.930 . S
C3951 C3950 1.394 . S
C3951 C3952 1.383 . S
C3951 H3959 0.929 . S
C3952 C3951 1.383 . S
C3952 C3953 1.377 . S
C3953 H3937 0.930 . S
C3953 C3952 1.377 . S
C3953 C3954 1.379 . S
C3954 H3938 0.931 . S
C3954 C3948 1.383 . S
C3954 C3953 1.379 . S
H3955 C3949 0.959 . S
H3956 C3949 0.961 . S
H3957 C3949 0.960 . S
H3958 C3950 0.930 . S
H3959 C3951 0.929 . S
H3960 C3968 0.929 1_545 S
H3961 C3970 0.930 1_545 S
H3962 C3972 0.930 . S
H3963 C3975 0.929 . S
H3964 C3978 0.930 . S
H3965 C3980 0.960 . S
H3966 C3980 0.957 . S
H3967 C3980 0.960 . S
C3968 H3960 0.929 1_565 S
C3968 C3969 1.377 . S
C3968 C3970 1.384 . S
C3969 C3968 1.377 . S
C3969 C3975 1.390 . S
C3970 H3961 0.930 1_565 S
C3970 C3968 1.384 . S
C3970 C3971 1.372 . S
C3971 C3970 1.372 . S
C3971 C3972 1.400 . S
C3971 C3976 1.490 . S
C3972 H3962 0.930 . S
C3972 C3971 1.400 . S
C3972 C3975 1.386 . S
H3973 C3989 0.930 . S
H3974 C3990 0.931 . S
C3975 H3963 0.929 . S
C3975 C3969 1.390 . S
C3975 C3972 1.386 . S
C3976 C3971 1.490 . S
C3976 C3978 1.395 . S
C3976 C3979 1.403 . S
H3977 C3983 0.930 . S
C3978 H3964 0.930 . S
C3978 C3976 1.395 . S
C3978 C3981 1.403 . S
C3979 C3976 1.403 . S
C3979 C3980 1.524 . S
C3979 C3983 1.400 . S
C3980 H3965 0.960 . S
C3980 H3966 0.957 . S
C3980 H3967 0.960 . S
C3980 C3979 1.524 . S
C3981 C3978 1.403 . S
C3981 C3982 1.392 . S
C3981 C3985 1.495 . S
C3982 C3981 1.392 . S
C3982 C3983 1.385 . S
C3982 C3984 1.478 . S
C3983 H3977 0.930 . S
C3983 C3979 1.400 . S
C3983 C3982 1.385 . S
C3984 C3982 1.478 . S
C3984 C3986 1.381 . S
C3984 C3990 1.383 . S
C3985 C3981 1.495 . S
C3985 H3991 0.959 . S
C3985 H3992 0.961 . S
C3985 H3993 0.960 . S
C3986 C3984 1.381 . S
C3986 C3987 1.394 . S
C3986 H3994 0.930 . S
C3987 C3986 1.394 . S
C3987 C3988 1.383 . S
C3987 H3995 0.929 . S
C3988 C3987 1.383 . S
C3988 C3989 1.377 . S
C3989 H3973 0.930 . S
C3989 C3988 1.377 . S
C3989 C3990 1.379 . S
C3990 H3974 0.931 . S
C3990 C3984 1.383 . S
C3990 C3989 1.379 . S
H3991 C3985 0.959 . S
H3992 C3985 0.961 . S
H3993 C3985 0.960 . S
H3994 C3986 0.930 . S
H3995 C3987 0.929 . S
H3996 C4004 0.929 . S
H3997 C4006 0.930 . S
H3998 C4008 0.930 . S
H3999 C4011 0.929 . S
H4000 C4014 0.930 . S
H4001 C4016 0.960 . S
H4002 C4016 0.960 . S
H4003 C4016 0.960 . S
C4004 H3996 0.929 . S
C4004 C4005 1.377 . S
C4004 C4006 1.384 . S
C4005 C4004 1.377 . S
C4005 C4011 1.390 1_565 S
C4006 H3997 0.930 . S
C4006 C4004 1.384 . S
C4006 C4007 1.372 . S
C4007 C4006 1.372 . S
C4007 C4008 1.400 1_565 S
C4007 C4012 1.490 . S
C4008 H3998 0.930 . S
C4008 C4007 1.400 1_545 S
C4008 C4011 1.386 . S
H4009 C4025 0.930 . S
H4010 C4026 0.931 . S
C4011 H3999 0.929 . S
C4011 C4005 1.390 1_545 S
C4011 C4008 1.386 . S
C4012 C4007 1.490 . S
C4012 C4014 1.395 . S
C4012 C4015 1.403 . S
H4013 C4019 0.930 . S
C4014 H4000 0.930 . S
C4014 C4012 1.395 . S
C4014 C4017 1.403 . S
C4015 C4012 1.403 . S
C4015 C4016 1.524 . S
C4015 C4019 1.400 . S
C4016 H4001 0.960 . S
C4016 H4002 0.960 . S
C4016 H4003 0.960 . S
C4016 C4015 1.524 . S
C4017 C4014 1.403 . S
C4017 C4018 1.392 . S
C4017 C4021 1.495 . S
C4018 C4017 1.392 . S
C4018 C4019 1.385 . S
C4018 C4020 1.478 . S
C4019 H4013 0.930 . S
C4019 C4015 1.400 . S
C4019 C4018 1.385 . S
C4020 C4018 1.478 . S
C4020 C4022 1.381 . S
C4020 C4026 1.383 1_565 S
C4021 C4017 1.495 . S
C4021 H4027 0.959 . S
C4021 H4028 0.961 1_565 S
C4021 H4029 0.960 . S
C4022 C4020 1.381 . S
C4022 C4023 1.394 . S
C4022 H4030 0.930 . S
C4023 C4022 1.394 . S
C4023 C4024 1.383 . S
C4023 H4031 0.929 . S
C4024 C4023 1.383 . S
C4024 C4025 1.377 1_565 S
C4025 H4009 0.930 . S
C4025 C4024 1.377 1_545 S
C4025 C4026 1.379 . S
C4026 H4010 0.931 . S
C4026 C4020 1.383 1_545 S
C4026 C4025 1.379 . S
H4027 C4021 0.959 . S
H4028 C4021 0.961 1_545 S
H4029 C4021 0.960 . S
H4030 C4022 0.930 . S
H4031 C4023 0.929 . S
H4032 C4040 0.929 . S
H4033 C4042 0.930 . S
H4034 C4044 0.930 . S
H4035 C4047 0.929 . S
H4036 C4050 0.930 . S
H4037 C4052 0.960 . S
H4038 C4052 0.960 . S
H4039 C4052 0.960 . S
C4040 H4032 0.929 . S
C4040 C4041 1.377 . S
C4040 C4042 1.384 . S
C4041 C4040 1.377 . S
C4041 C4047 1.390 . S
C4042 H4033 0.930 . S
C4042 C4040 1.384 . S
C4042 C4043 1.372 . S
C4043 C4042 1.372 . S
C4043 C4044 1.400 . S
C4043 C4048 1.490 . S
C4044 H4034 0.930 . S
C4044 C4043 1.400 . S
C4044 C4047 1.386 . S
H4045 C4061 0.930 . S
H4046 C4062 0.931 . S
C4047 H4035 0.929 . S
C4047 C4041 1.390 . S
C4047 C4044 1.386 . S
C4048 C4043 1.490 . S
C4048 C4050 1.395 . S
C4048 C4051 1.403 . S
H4049 C4055 0.930 . S
C4050 H4036 0.930 . S
C4050 C4048 1.395 . S
C4050 C4053 1.403 . S
C4051 C4048 1.403 . S
C4051 C4052 1.524 . S
C4051 C4055 1.400 . S
C4052 H4037 0.960 . S
C4052 H4038 0.960 . S
C4052 H4039 0.960 . S
C4052 C4051 1.524 . S
C4053 C4050 1.403 . S
C4053 C4054 1.392 . S
C4053 C4057 1.495 . S
C4054 C4053 1.392 . S
C4054 C4055 1.385 . S
C4054 C4056 1.478 . S
C4055 H4049 0.930 . S
C4055 C4051 1.400 . S
C4055 C4054 1.385 . S
C4056 C4054 1.478 . S
C4056 C4058 1.381 . S
C4056 C4062 1.383 . S
C4057 C4053 1.495 . S
C4057 H4063 0.959 . S
C4057 H4064 0.961 . S
C4057 H4065 0.960 . S
C4058 C4056 1.381 . S
C4058 C4059 1.394 . S
C4058 H4066 0.930 . S
C4059 C4058 1.394 . S
C4059 C4060 1.383 . S
C4059 H4067 0.929 . S
C4060 C4059 1.383 . S
C4060 C4061 1.377 . S
C4061 H4045 0.930 . S
C4061 C4060 1.377 . S
C4061 C4062 1.379 . S
C4062 H4046 0.931 . S
C4062 C4056 1.383 . S
C4062 C4061 1.379 . S
H4063 C4057 0.959 . S
H4064 C4057 0.961 . S
H4065 C4057 0.960 . S
H4066 C4058 0.930 . S
H4067 C4059 0.929 . S
H4068 C4076 0.929 . S
H4069 C4078 0.930 . S
H4070 C4080 0.929 1_554 S
H4071 C4083 0.962 . S
H4072 C4086 0.930 . S
H4073 C4088 0.960 . S
H4074 C4088 0.960 . S
H4075 C4088 0.960 . S
C4076 H4068 0.929 . S
C4076 C4077 1.377 . S
C4076 C4078 1.384 . S
C4077 C4076 1.377 . S
C4077 C4083 1.370 1_556 S
C4078 H4069 0.930 . S
C4078 C4076 1.384 . S
C4078 C4079 1.372 . S
C4079 C4078 1.372 . S
C4079 C4080 1.401 . S
C4079 C4084 1.490 . S
C4080 H4070 0.929 1_556 S
C4080 C4079 1.401 . S
C4080 C4083 1.380 1_556 S
H4081 C4097 0.930 1_554 S
H4082 C4098 0.931 1_554 S
C4083 H4071 0.962 . S
C4083 C4077 1.370 1_554 S
C4083 C4080 1.380 1_554 S
C4084 C4079 1.490 . S
C4084 C4086 1.395 1_556 S
C4084 C4087 1.403 . S
H4085 C4091 0.930 . S
C4086 H4072 0.930 . S
C4086 C4084 1.395 1_554 S
C4086 C4089 1.403 . S
C4087 C4084 1.403 . S
C4087 C4088 1.524 . S
C4087 C4091 1.400 . S
C4088 H4073 0.960 . S
C4088 H4074 0.960 . S
C4088 H4075 0.960 . S
C4088 C4087 1.524 . S
C4089 C4086 1.403 . S
C4089 C4090 1.392 1_554 S
C4089 C4093 1.495 . S
C4090 C4089 1.392 1_556 S
C4090 C4091 1.385 . S
C4090 C4092 1.478 . S
C4091 H4085 0.930 . S
C4091 C4087 1.400 . S
C4091 C4090 1.385 . S
C4092 C4090 1.478 . S
C4092 C4094 1.381 . S
C4092 C4098 1.383 . S
C4093 C4089 1.495 . S
C4093 H4099 0.959 . S
C4093 H4100 0.961 . S
C4093 H4101 0.960 . S
C4094 C4092 1.381 . S
C4094 C4095 1.394 . S
C4094 H4102 0.930 . S
C4095 C4094 1.394 . S
C4095 C4096 1.383 . S
C4095 H4103 0.929 . S
C4096 C4095 1.383 . S
C4096 C4097 1.377 . S
C4097 H4081 0.930 1_556 S
C4097 C4096 1.377 . S
C4097 C4098 1.379 . S
C4098 H4082 0.931 1_556 S
C4098 C4092 1.383 . S
C4098 C4097 1.379 . S
H4099 C4093 0.959 . S
H4100 C4093 0.961 . S
H4101 C4093 0.960 . S
H4102 C4094 0.930 . S
H4103 C4095 0.929 . S
H4104 C4112 0.929 . S
H4105 C4114 0.930 . S
H4106 C4116 0.930 . S
H4107 C4119 0.929 . S
H4108 C4122 0.930 . S
H4109 C4124 0.960 . S
H4110 C4124 0.960 . S
H4111 C4124 0.960 . S
C4112 H4104 0.929 . S
C4112 C4113 1.377 . S
C4112 C4114 1.384 . S
C4113 C4112 1.377 . S
C4113 C4119 1.390 . S
C4114 H4105 0.930 . S
C4114 C4112 1.384 . S
C4114 C4115 1.372 . S
C4115 C4114 1.372 . S
C4115 C4116 1.400 . S
C4115 C4120 1.490 . S
C4116 H4106 0.930 . S
C4116 C4115 1.400 . S
C4116 C4119 1.386 . S
H4117 C4133 0.930 . S
H4118 C4134 0.931 . S
C4119 H4107 0.929 . S
C4119 C4113 1.390 . S
C4119 C4116 1.386 . S
C4120 C4115 1.490 . S
C4120 C4122 1.395 . S
C4120 C4123 1.403 . S
H4121 C4127 0.930 . S
C4122 H4108 0.930 . S
C4122 C4120 1.395 . S
C4122 C4125 1.403 . S
C4123 C4120 1.403 . S
C4123 C4124 1.524 . S
C4123 C4127 1.400 . S
C4124 H4109 0.960 . S
C4124 H4110 0.960 . S
C4124 H4111 0.960 . S
C4124 C4123 1.524 . S
C4125 C4122 1.403 . S
C4125 C4126 1.392 . S
C4125 C4129 1.495 . S
C4126 C4125 1.392 . S
C4126 C4127 1.385 . S
C4126 C4128 1.478 . S
C4127 H4121 0.930 . S
C4127 C4123 1.400 . S
C4127 C4126 1.385 . S
C4128 C4126 1.478 . S
C4128 C4130 1.381 . S
C4128 C4134 1.383 . S
C4129 C4125 1.495 . S
C4129 H4135 0.959 . S
C4129 H4136 0.961 . S
C4129 H4137 0.960 . S
C4130 C4128 1.381 . S
C4130 C4131 1.394 . S
C4130 H4138 0.930 . S
C4131 C4130 1.394 . S
C4131 C4132 1.383 . S
C4131 H4139 0.929 . S
C4132 C4131 1.383 . S
C4132 C4133 1.377 . S
C4133 H4117 0.930 . S
C4133 C4132 1.377 . S
C4133 C4134 1.379 . S
C4134 H4118 0.931 . S
C4134 C4128 1.383 . S
C4134 C4133 1.379 . S
H4135 C4129 0.959 . S
H4136 C4129 0.961 . S
H4137 C4129 0.960 . S
H4138 C4130 0.930 . S
H4139 C4131 0.929 . S
H4140 C4148 0.929 1_554 S
H4141 C4150 0.930 1_554 S
H4142 C4152 0.930 . S
H4143 C4155 0.929 . S
H4144 C4158 0.930 1_554 S
H4145 C4160 0.960 . S
H4146 C4160 0.960 . S
H4147 C4160 0.960 . S
C4148 H4140 0.929 1_556 S
C4148 C4149 1.377 . S
C4148 C4150 1.384 . S
C4149 C4148 1.377 . S
C4149 C4155 1.390 . S
C4150 H4141 0.930 1_556 S
C4150 C4148 1.384 . S
C4150 C4151 1.372 . S
C4151 C4150 1.372 . S
C4151 C4152 1.400 . S
C4151 C4156 1.490 . S
C4152 H4142 0.930 . S
C4152 C4151 1.400 . S
C4152 C4155 1.386 . S
H4153 C4169 0.930 . S
H4154 C4170 0.931 . S
C4155 H4143 0.929 . S
C4155 C4149 1.390 . S
C4155 C4152 1.386 . S
C4156 C4151 1.490 . S
C4156 C4158 1.395 . S
C4156 C4159 1.403 . S
H4157 C4163 0.930 . S
C4158 H4144 0.930 1_556 S
C4158 C4156 1.395 . S
C4158 C4161 1.403 . S
C4159 C4156 1.403 . S
C4159 C4160 1.524 . S
C4159 C4163 1.400 . S
C4160 H4145 0.960 . S
C4160 H4146 0.960 . S
C4160 H4147 0.960 . S
C4160 C4159 1.524 . S
C4161 C4158 1.403 . S
C4161 C4162 1.392 . S
C4161 C4165 1.495 1_556 S
C4162 C4161 1.392 . S
C4162 C4163 1.385 . S
C4162 C4164 1.478 . S
C4163 H4157 0.930 . S
C4163 C4159 1.400 . S
C4163 C4162 1.385 . S
C4164 C4162 1.478 . S
C4164 C4166 1.381 . S
C4164 C4170 1.383 . S
C4165 C4161 1.495 1_554 S
C4165 H4171 0.959 . S
C4165 H4172 0.961 . S
C4165 H4173 0.960 . S
C4166 C4164 1.381 . S
C4166 C4167 1.394 . S
C4166 H4174 0.930 . S
C4167 C4166 1.394 . S
C4167 C4168 1.383 . S
C4167 H4175 0.929 . S
C4168 C4167 1.383 . S
C4168 C4169 1.377 . S
C4169 H4153 0.930 . S
C4169 C4168 1.377 . S
C4169 C4170 1.379 . S
C4170 H4154 0.931 . S
C4170 C4164 1.383 . S
C4170 C4169 1.379 . S
H4171 C4165 0.959 . S
H4172 C4165 0.961 . S
H4173 C4165 0.960 . S
H4174 C4166 0.930 . S
H4175 C4167 0.929 . S
H4176 C4184 0.929 . S
H4177 C4186 0.930 . S
H4178 C4188 0.930 . S
H4179 C4191 0.929 . S
H4180 C4194 0.930 . S
H4181 C4196 0.960 . S
H4182 C4196 0.960 . S
H4183 C4196 0.960 . S
C4184 H4176 0.929 . S
C4184 C4185 1.377 . S
C4184 C4186 1.384 . S
C4185 C4184 1.377 . S
C4185 C4191 1.390 . S
C4186 H4177 0.930 . S
C4186 C4184 1.384 . S
C4186 C4187 1.372 . S
C4187 C4186 1.372 . S
C4187 C4188 1.400 . S
C4187 C4192 1.490 . S
C4188 H4178 0.930 . S
C4188 C4187 1.400 . S
C4188 C4191 1.386 . S
H4189 C4205 0.930 . S
H4190 C4206 0.931 . S
C4191 H4179 0.929 . S
C4191 C4185 1.390 . S
C4191 C4188 1.386 . S
C4192 C4187 1.490 . S
C4192 C4194 1.395 . S
C4192 C4195 1.403 . S
H4193 C4199 0.930 . S
C4194 H4180 0.930 . S
C4194 C4192 1.395 . S
C4194 C4197 1.403 . S
C4195 C4192 1.403 . S
C4195 C4196 1.524 . S
C4195 C4199 1.400 . S
C4196 H4181 0.960 . S
C4196 H4182 0.960 . S
C4196 H4183 0.960 . S
C4196 C4195 1.524 . S
C4197 C4194 1.403 . S
C4197 C4198 1.392 . S
C4197 C4201 1.495 . S
C4198 C4197 1.392 . S
C4198 C4199 1.385 . S
C4198 C4200 1.478 . S
C4199 H4193 0.930 . S
C4199 C4195 1.400 . S
C4199 C4198 1.385 . S
C4200 C4198 1.478 . S
C4200 C4202 1.381 . S
C4200 C4206 1.383 . S
C4201 C4197 1.495 . S
C4201 H4207 0.959 . S
C4201 H4208 0.961 . S
C4201 H4209 0.960 . S
C4202 C4200 1.381 . S
C4202 C4203 1.394 . S
C4202 H4210 0.930 . S
C4203 C4202 1.394 . S
C4203 C4204 1.383 . S
C4203 H4211 0.929 . S
C4204 C4203 1.383 . S
C4204 C4205 1.377 . S
C4205 H4189 0.930 . S
C4205 C4204 1.377 . S
C4205 C4206 1.379 . S
C4206 H4190 0.931 . S
C4206 C4200 1.383 . S
C4206 C4205 1.379 . S
H4207 C4201 0.959 . S
H4208 C4201 0.961 . S
H4209 C4201 0.960 . S
H4210 C4202 0.930 . S
H4211 C4203 0.929 . S
H4212 C4220 0.929 . S
H4213 C4222 0.930 . S
H4214 C4224 0.930 . S
H4215 C4227 0.929 . S
H4216 C4230 0.930 . S
H4217 C4232 0.960 . S
H4218 C4232 0.960 . S
H4219 C4232 0.960 . S
C4220 H4212 0.929 . S
C4220 C4221 1.377 1_455 S
C4220 C4222 1.384 . S
C4221 C4220 1.377 1_655 S
C4221 C4227 1.390 . S
C4222 H4213 0.930 . S
C4222 C4220 1.384 . S
C4222 C4223 1.372 1_455 S
C4223 C4222 1.372 1_655 S
C4223 C4224 1.400 . S
C4223 C4228 1.490 . S
C4224 H4214 0.930 . S
C4224 C4223 1.400 . S
C4224 C4227 1.386 . S
H4225 C4241 0.930 . S
H4226 C4242 0.931 . S
C4227 H4215 0.929 . S
C4227 C4221 1.390 . S
C4227 C4224 1.386 . S
C4228 C4223 1.490 . S
C4228 C4230 1.395 1_655 S
C4228 C4231 1.403 . S
H4229 C4235 0.930 . S
C4230 H4216 0.930 . S
C4230 C4228 1.395 1_455 S
C4230 C4233 1.403 . S
C4231 C4228 1.403 . S
C4231 C4232 1.524 . S
C4231 C4235 1.400 . S
C4232 H4217 0.960 . S
C4232 H4218 0.960 . S
C4232 H4219 0.960 . S
C4232 C4231 1.524 . S
C4233 C4230 1.403 . S
C4233 C4234 1.392 1_455 S
C4233 C4237 1.495 . S
C4234 C4233 1.392 1_655 S
C4234 C4235 1.385 . S
C4234 C4236 1.478 . S
C4235 H4229 0.930 . S
C4235 C4231 1.400 . S
C4235 C4234 1.385 . S
C4236 C4234 1.478 . S
C4236 C4238 1.381 1_655 S
C4236 C4242 1.383 . S
C4237 C4233 1.495 . S
C4237 H4243 0.959 . S
C4237 H4244 1.005 . S
C4237 H4245 0.960 . S
C4238 C4236 1.381 1_455 S
C4238 C4239 1.394 . S
C4238 H4246 0.930 . S
C4239 C4238 1.394 . S
C4239 C4240 1.383 1_455 S
C4239 H4247 0.929 . S
C4240 C4239 1.383 1_655 S
C4240 C4241 1.377 . S
C4241 H4225 0.930 . S
C4241 C4240 1.377 . S
C4241 C4242 1.379 . S
C4242 H4226 0.931 . S
C4242 C4236 1.383 . S
C4242 C4241 1.379 . S
H4243 C4237 0.959 . S
H4244 C4237 1.005 . S
H4245 C4237 0.960 . S
H4246 C4238 0.930 . S
H4247 C4239 0.929 . S
H4248 C4256 0.929 . S
H4249 C4258 0.930 . S
H4250 C4260 0.930 . S
H4251 C4263 0.929 . S
H4252 C4266 0.930 . S
H4253 C4268 0.960 . S
H4254 C4268 0.960 . S
H4255 C4268 0.960 . S
C4256 H4248 0.929 . S
C4256 C4257 1.377 . S
C4256 C4258 1.384 . S
C4257 C4256 1.377 . S
C4257 C4263 1.390 . S
C4258 H4249 0.930 . S
C4258 C4256 1.384 . S
C4258 C4259 1.372 . S
C4259 C4258 1.372 . S
C4259 C4260 1.400 . S
C4259 C4264 1.490 . S
C4260 H4250 0.930 . S
C4260 C4259 1.400 . S
C4260 C4263 1.386 . S
H4261 C4277 0.930 . S
H4262 C4278 0.931 . S
C4263 H4251 0.929 . S
C4263 C4257 1.390 . S
C4263 C4260 1.386 . S
C4264 C4259 1.490 . S
C4264 C4266 1.395 . S
C4264 C4267 1.403 . S
H4265 C4271 0.930 . S
C4266 H4252 0.930 . S
C4266 C4264 1.395 . S
C4266 C4269 1.403 . S
C4267 C4264 1.403 . S
C4267 C4268 1.524 . S
C4267 C4271 1.400 . S
C4268 H4253 0.960 . S
C4268 H4254 0.960 . S
C4268 H4255 0.960 . S
C4268 C4267 1.524 . S
C4269 C4266 1.403 . S
C4269 C4270 1.392 . S
C4269 C4273 1.495 . S
C4270 C4269 1.392 . S
C4270 C4271 1.385 . S
C4270 C4272 1.478 . S
C4271 H4265 0.930 . S
C4271 C4267 1.400 . S
C4271 C4270 1.385 . S
C4272 C4270 1.478 . S
C4272 C4274 1.381 . S
C4272 C4278 1.383 . S
C4273 C4269 1.495 . S
C4273 H4279 0.959 . S
C4273 H4280 0.961 . S
C4273 H4281 0.960 . S
C4274 C4272 1.381 . S
C4274 C4275 1.394 . S
C4274 H4282 0.930 . S
C4275 C4274 1.394 . S
C4275 C4276 1.383 . S
C4275 H4283 0.929 . S
C4276 C4275 1.383 . S
C4276 C4277 1.377 . S
C4277 H4261 0.930 . S
C4277 C4276 1.377 . S
C4277 C4278 1.379 . S
C4278 H4262 0.931 . S
C4278 C4272 1.383 . S
C4278 C4277 1.379 . S
H4279 C4273 0.959 . S
H4280 C4273 0.961 . S
H4281 C4273 0.960 . S
H4282 C4274 0.930 . S
H4283 C4275 0.929 . S
H4284 C4292 0.929 . S
H4285 C4294 0.930 . S
H4286 C4296 0.926 . S
H4287 C4299 0.929 1_455 S
H4288 C4302 0.930 . S
H4289 C4304 0.960 . S
H4290 C4304 0.960 . S
H4291 C4304 0.960 . S
C4292 H4284 0.929 . S
C4292 C4293 1.377 . S
C4292 C4294 1.384 . S
C4293 C4292 1.377 . S
C4293 C4299 1.390 . S
C4294 H4285 0.930 . S
C4294 C4292 1.384 . S
C4294 C4295 1.372 . S
C4295 C4294 1.372 . S
C4295 C4296 1.400 . S
C4295 C4300 1.490 . S
C4296 H4286 0.926 . S
C4296 C4295 1.400 . S
C4296 C4299 1.386 . S
H4297 C4313 0.930 . S
H4298 C4314 0.931 . S
C4299 H4287 0.929 1_655 S
C4299 C4293 1.390 . S
C4299 C4296 1.386 . S
C4300 C4295 1.490 . S
C4300 C4302 1.395 . S
C4300 C4303 1.403 . S
H4301 C4307 0.930 . S
C4302 H4288 0.930 . S
C4302 C4300 1.395 . S
C4302 C4305 1.403 . S
C4303 C4300 1.403 . S
C4303 C4304 1.524 . S
C4303 C4307 1.400 . S
C4304 H4289 0.960 . S
C4304 H4290 0.960 . S
C4304 H4291 0.960 . S
C4304 C4303 1.524 . S
C4305 C4302 1.403 . S
C4305 C4306 1.392 . S
C4305 C4309 1.495 . S
C4306 C4305 1.392 . S
C4306 C4307 1.385 . S
C4306 C4308 1.478 . S
C4307 H4301 0.930 . S
C4307 C4303 1.400 . S
C4307 C4306 1.385 . S
C4308 C4306 1.478 . S
C4308 C4310 1.381 . S
C4308 C4314 1.383 . S
C4309 C4305 1.495 . S
C4309 H4315 0.959 . S
C4309 H4316 0.961 . S
C4309 H4317 0.960 . S
C4310 C4308 1.381 . S
C4310 C4311 1.394 . S
C4310 H4318 0.930 . S
C4311 C4310 1.394 . S
C4311 C4312 1.383 . S
C4311 H4319 0.929 . S
C4312 C4311 1.383 . S
C4312 C4313 1.377 . S
C4313 H4297 0.930 . S
C4313 C4312 1.377 . S
C4313 C4314 1.379 . S
C4314 H4298 0.931 . S
C4314 C4308 1.383 . S
C4314 C4313 1.379 . S
H4315 C4309 0.959 . S
H4316 C4309 0.961 . S
H4317 C4309 0.960 . S
H4318 C4310 0.930 . S
H4319 C4311 0.929 . S
C1756 C1713 2.130 . S
C1737 C15 2.193 . S
C1792 C1617 1.204 . S
C1773 C55 1.142 . S
C1828 C1681 0.625 . S
C1809 C95 0.547 . S
C1864 C1649 2.243 . S
C1845 C135 2.137 . S
C1900 C1425 2.124 . S
C1881 C175 2.194 . S
C1917 C215 2.129 . S
C1936 C1457 2.254 . S
C1972 C1361 1.186 . S
C1953 C255 1.157 . S
C1989 C295 0.546 . S
C2008 C1393 0.671 . S
C2044 C1585 2.152 . S
C2025 C335 2.191 . S
C2061 C375 2.130 . S
C2080 C1521 2.254 . S
C2097 C415 1.143 . S
C2116 C1489 1.186 . S
C2152 C1553 0.585 . S
C2133 C455 0.539 . S
C2188 C1329 2.102 . S
C2169 C495 2.193 . S
C2205 C535 1.141 . S
C2224 C1233 1.147 . S
C2260 C1297 0.538 . S
C2241 C575 0.537 . S
C2277 C615 2.132 . S
C2296 C1265 2.103 . S
C2332 C1041 2.096 . S
C2313 C655 2.193 . S
C2368 C1073 2.079 . S
C2349 C695 2.135 . S
C2385 C735 1.135 . S
C2404 C977 1.131 . S
C2421 C775 0.541 . S
C2440 C1009 0.526 . S
C2457 C815 2.185 . S
C2476 C1201 2.118 . S
C2493 C855 2.135 . S
C2512 C1137 2.135 . S
C2548 C1105 1.137 . S
C2529 C895 1.138 . S
C2565 C935 0.544 . S
C2584 C1169 0.656 . S
C2620 C989 1.535 . S
C2601 C21 1.604 . S
C2656 C1021 1.482 . S
C2637 C61 1.508 . S
C2673 C101 0.283 . S
C2692 C1053 0.491 . S
C2709 C141 0.525 . S
C2728 C1085 0.506 . S
C2764 C1117 1.542 . S
C2745 C181 1.603 . S
C2781 C221 0.520 . S
C2800 C1149 0.595 . S
C2836 C1181 1.497 . S
C2817 C261 1.516 . S
C2872 C1213 0.509 . S
C2853 C301 0.275 . S
C2908 C1245 1.574 . S
C2889 C341 1.605 . S
C2925 C381 0.522 . S
C2944 C1277 0.556 . S
C2961 C421 1.516 . S
C2980 C1309 1.443 . S
C2997 C461 0.274 . S
C3016 C1341 0.497 . S
C3033 C501 1.559 . S
C3052 C1373 1.569 . S
C3069 C541 1.397 . S
C3088 C1405 1.446 . S
C3105 C581 0.383 . S
C3124 C1437 0.361 . S
C3141 C621 0.540 . S
C3160 C1469 0.507 . S
C3177 C661 1.554 . S
C3196 C1501 1.554 . S
C3232 C1533 0.565 . S
C3213 C701 0.562 . S
C3268 C1565 1.428 . S
C3249 C741 1.378 . S
C3304 C1597 0.347 . S
C3285 C781 0.355 . S
C3340 C1629 1.574 . S
C3321 C821 1.558 . S
C3357 C861 0.541 . S
C3376 C1661 0.499 . S
C3393 C901 1.397 . S
C3412 C1693 1.465 . S
C3429 C941 0.371 . S
C3448 C1725 0.273 . S
C3465 C2 1.669 . S
C3484 C1239 1.669 . S
C3520 C1335 1.180 . S
C3501 C42 1.173 . S
C3537 C82 1.129 . S
C3556 C1271 1.087 . S
C3592 C1303 2.382 . S
C3573 C122 2.252 . S
C3609 C162 1.668 . S
C3628 C983 1.660 . S
C3645 C202 2.247 . S
C3664 C1015 2.391 . S
C3681 C242 1.184 . S
C3700 C1047 1.142 . S
C3717 C282 1.129 . S
C3736 C1079 1.094 . S
C3772 C1111 1.668 . S
C3753 C322 1.669 . S
C3808 C1175 2.394 . S
C3789 C362 2.248 . S
C3825 C402 1.186 . S
C3844 C1207 1.114 . S
C3861 C442 1.129 . S
C3880 C1143 1.100 . S
C3916 C1623 1.615 . S
C3897 C482 1.651 . S
C3952 C1719 1.141 . S
C3933 C522 1.128 . S
C3969 C562 1.129 . S
C3988 C1655 1.098 . S
C4024 C1687 2.173 . S
C4005 C602 2.241 . S
C4041 C642 1.644 . S
C4060 C1367 1.652 . S
C4077 C682 2.243 . S
C4096 C1399 2.171 . S
C4113 C722 1.136 . S
C4132 C1431 1.129 . S
C4168 C1463 1.131 . S
C4149 C762 1.121 . S
C4204 C1495 1.638 . S
C4185 C802 1.645 . S
C4240 C1559 2.212 . S
C4221 C842 2.243 . S
C4257 C882 1.132 . S
C4276 C1591 1.163 . S
C4312 C1527 1.144 . S
C4293 C922 1.114 . S
